# generated using pymatgen
data_Rb2AgBr3
_symmetry_space_group_name_H-M   'P 1'
_cell_length_a   4.67706825
_cell_length_b   9.64895226
_cell_length_c   18.75657916
_cell_angle_alpha   90.01062044
_cell_angle_beta   90.00000132
_cell_angle_gamma   89.99999750
_symmetry_Int_Tables_number   1
_chemical_formula_structural   Rb2AgBr3
_chemical_formula_sum   'Rb8 Ag4 Br12'
_cell_volume   846.46205015
_cell_formula_units_Z   4
loop_
 _symmetry_equiv_pos_site_id
 _symmetry_equiv_pos_as_xyz
  1  'x, y, z'
loop_
 _atom_site_type_symbol
 _atom_site_label
 _atom_site_symmetry_multiplicity
 _atom_site_fract_x
 _atom_site_fract_y
 _atom_site_fract_z
 _atom_site_occupancy
  Rb  Rb0  1  0.75000020  0.92093209  0.71282547  1
  Rb  Rb1  1  0.74999990  0.25287149  0.04208174  1
  Rb  Rb2  1  0.74999998  0.42098492  0.78706326  1
  Rb  Rb3  1  0.24999956  0.57901556  0.21293495  1
  Rb  Rb4  1  0.25000063  0.74713158  0.95791341  1
  Rb  Rb5  1  0.74999969  0.75284007  0.45794691  1
  Rb  Rb6  1  0.25000043  0.24716275  0.54205598  1
  Rb  Rb7  1  0.24999980  0.07906885  0.28717438  1
  Ag  Ag0  1  0.25000000  0.12809518  0.86582938  1
  Ag  Ag1  1  0.75000009  0.37191205  0.36593689  1
  Ag  Ag2  1  0.75000002  0.87190362  0.13416716  1
  Ag  Ag3  1  0.24999988  0.62809043  0.63406485  1
  Br  Br0  1  0.75000077  0.11965138  0.42777161  1
  Br  Br1  1  0.25000001  0.18545258  0.72426751  1
  Br  Br2  1  0.24999994  0.38034383  0.92769325  1
  Br  Br3  1  0.25000012  0.00214024  0.09938366  1
  Br  Br4  1  0.74999968  0.49786128  0.59936698  1
  Br  Br5  1  0.75000008  0.31462452  0.22439817  1
  Br  Br6  1  0.24999998  0.50214171  0.40064214  1
  Br  Br7  1  0.75000004  0.99783315  0.90062221  1
  Br  Br8  1  0.24999895  0.88035895  0.57223277  1
  Br  Br9  1  0.24999984  0.68537722  0.77560368  1
  Br  Br10  1  0.75000000  0.61965685  0.07229576  1
  Br  Br11  1  0.75000041  0.81454870  0.27572988  1
loop_
_geom_bond_atom_site_label_1
_geom_bond_atom_site_label_2
_geom_bond_distance
_geom_bond_site_symmetry_2
Ag0 Br2 2.696185 1_555
Ag0 Br1 2.712382 1_555
Ag0 Br7 2.733990 1_445
Ag0 Br7 2.733990 1_545
Ag1 Br0 2.696443 1_555
Ag1 Br5 2.711618 1_555
Ag1 Br6 2.733344 1_655
Ag1 Br6 2.733344 1_555
Ag2 Br10 2.696230 1_555
Ag2 Br11 2.712392 1_555
Ag2 Br3 2.733835 1_565
Ag2 Br3 2.733836 1_665
Ag3 Br8 2.696490 1_555
Ag3 Br9 2.711619 1_555
Ag3 Br4 2.733308 1_555
Ag3 Br4 2.733310 1_455
Br0 Rb6 3.402422 1_655
Br0 Rb6 3.402424 1_555
Br0 Rb7 3.546278 1_655
Br0 Rb7 3.546284 1_555
Br0 Rb5 3.584417 1_545
Br1 Rb2 3.466978 1_555
Br1 Rb2 3.466978 1_455
Br1 Rb0 3.468294 1_445
Br1 Rb0 3.468295 1_545
Br1 Rb6 3.469256 1_555
Br2 Rb1 3.403804 1_556
Br2 Rb1 3.403805 1_456
Br2 Rb2 3.546909 1_455
Br2 Rb2 3.546909 1_555
Br2 Rb4 3.584118 1_555
Br3 Rb1 3.532401 1_555
Br3 Rb1 3.532402 1_455
Br3 Rb7 3.599540 1_555
Br3 Rb4 3.618428 1_544
Br4 Rb6 3.531962 1_555
Br4 Rb6 3.531966 1_655
Br4 Rb2 3.597972 1_555
Br4 Rb5 3.618210 1_555
Br5 Rb7 3.467286 1_655
Br5 Rb7 3.467288 1_555
Br5 Rb3 3.467457 1_655
Br5 Rb3 3.467460 1_555
Br5 Rb1 3.471048 1_555
Br6 Rb5 3.531926 1_555
Br6 Rb5 3.531928 1_455
Br6 Rb3 3.598167 1_555
Br6 Rb6 3.618126 1_555
Br7 Rb4 3.532142 1_555
Br7 Rb4 3.532146 1_655
Br7 Rb0 3.599596 1_555
Br7 Rb1 3.618475 1_566
Br8 Rb5 3.402464 1_455
Br8 Rb5 3.402469 1_555
Br8 Rb0 3.546204 1_455
Br8 Rb0 3.546212 1_555
Br8 Rb6 3.584350 1_565
Br9 Rb0 3.467294 1_455
Br9 Rb0 3.467296 1_555
Br9 Rb2 3.467463 1_455
Br9 Rb2 3.467464 1_555
Br9 Rb4 3.470926 1_555
Br10 Rb4 3.403738 1_554
Br10 Rb4 3.403742 1_654
Br10 Rb3 3.547036 1_655
Br10 Rb3 3.547039 1_555
Br10 Rb1 3.584077 1_555
Br11 Rb3 3.466975 1_655
Br11 Rb3 3.466980 1_555
Br11 Rb7 3.468293 1_665
Br11 Rb7 3.468297 1_565
Br11 Rb5 3.469355 1_555
