# generated using pymatgen
data_LiNiPO4
_symmetry_space_group_name_H-M   'P 1'
_cell_length_a   9.93382141
_cell_length_b   9.93382141
_cell_length_c   16.51550287
_cell_angle_alpha   80.89192253
_cell_angle_beta   80.89192253
_cell_angle_gamma   59.73648173
_symmetry_Int_Tables_number   1
_chemical_formula_structural   LiNiPO4
_chemical_formula_sum   'Li16 Ni16 P16 O64'
_cell_volume   1384.00168014
_cell_formula_units_Z   16
loop_
 _symmetry_equiv_pos_site_id
 _symmetry_equiv_pos_as_xyz
  1  'x, y, z'
loop_
 _atom_site_type_symbol
 _atom_site_label
 _atom_site_symmetry_multiplicity
 _atom_site_fract_x
 _atom_site_fract_y
 _atom_site_fract_z
 _atom_site_occupancy
  Li  Li0  1  0.26644600  0.88277100  0.12749800  1
  Li  Li1  1  0.77345300  0.44078600  0.12615800  1
  Li  Li2  1  0.88277100  0.26644600  0.62749800  1
  Li  Li3  1  0.44078600  0.77345300  0.62615800  1
  Li  Li4  1  0.33577200  0.99302900  0.37785100  1
  Li  Li5  1  0.89027500  0.50393800  0.37735000  1
  Li  Li6  1  0.99302900  0.33577200  0.87785100  1
  Li  Li7  1  0.50393800  0.89027500  0.87735000  1
  Li  Li8  1  0.27920800  0.38009500  0.12686300  1
  Li  Li9  1  0.78258300  0.93649400  0.12396500  1
  Li  Li10  1  0.38009500  0.27920800  0.62686300  1
  Li  Li11  1  0.93649400  0.78258300  0.62396500  1
  Li  Li12  1  0.83196300  0.99956700  0.37595100  1
  Li  Li13  1  0.39307700  0.49889200  0.38117700  1
  Li  Li14  1  0.99956700  0.83196300  0.87595100  1
  Li  Li15  1  0.49889200  0.39307700  0.88117700  1
  Ni  Ni0  1  0.80746000  0.20390700  0.00347000  1
  Ni  Ni1  1  0.20390700  0.80746000  0.50347000  1
  Ni  Ni2  1  0.58968900  0.70044700  0.24688900  1
  Ni  Ni3  1  0.08778400  0.24445100  0.24613400  1
  Ni  Ni4  1  0.30750500  0.14499200  0.00174400  1
  Ni  Ni5  1  0.80483700  0.70219200  0.00548400  1
  Ni  Ni6  1  0.70044700  0.58968900  0.74688900  1
  Ni  Ni7  1  0.24445100  0.08778400  0.74613400  1
  Ni  Ni8  1  0.14499200  0.30750500  0.50174400  1
  Ni  Ni9  1  0.70219200  0.80483700  0.50548400  1
  Ni  Ni10  1  0.56496200  0.18537600  0.25708000  1
  Ni  Ni11  1  0.09514000  0.74526500  0.24812600  1
  Ni  Ni12  1  0.30148400  0.65335900  0.00756000  1
  Ni  Ni13  1  0.18537600  0.56496200  0.75708000  1
  Ni  Ni14  1  0.74526500  0.09514000  0.74812600  1
  Ni  Ni15  1  0.65335900  0.30148400  0.50756000  1
  P  P0  1  0.91258600  0.10037200  0.19171300  1
  P  P1  1  0.10037200  0.91258600  0.69171300  1
  P  P2  1  0.99031400  0.16213800  0.43692400  1
  P  P3  1  0.54630900  0.65818900  0.43958200  1
  P  P4  1  0.16213800  0.99031400  0.93692400  1
  P  P5  1  0.65818900  0.54630900  0.93958200  1
  P  P6  1  0.41946300  0.03965800  0.18741400  1
  P  P7  1  0.92302900  0.59809100  0.19215500  1
  P  P8  1  0.03965800  0.41946300  0.68741400  1
  P  P9  1  0.59809100  0.92302900  0.69215500  1
  P  P10  1  0.48999600  0.15883100  0.44228400  1
  P  P11  1  0.04400100  0.66325300  0.43954800  1
  P  P12  1  0.15883100  0.48999600  0.94228400  1
  P  P13  1  0.66325300  0.04400100  0.93954800  1
  P  P14  1  0.42244900  0.53849900  0.19413600  1
  P  P15  1  0.53849900  0.42244900  0.69413600  1
  O  O0  1  0.07454800  0.95401900  0.20734900  1
  O  O1  1  0.74557300  0.42529400  0.01193300  1
  O  O2  1  0.57829700  0.53502300  0.19935000  1
  O  O3  1  0.56085300  0.49693400  0.43458900  1
  O  O4  1  0.23736900  0.98658200  0.01445400  1
  O  O5  1  0.93214400  0.24792200  0.18263700  1
  O  O6  1  0.95401900  0.07454800  0.70734900  1
  O  O7  1  0.13887000  0.99962400  0.42851200  1
  O  O8  1  0.42529400  0.74557300  0.51193300  1
  O  O9  1  0.53502300  0.57829700  0.69935000  1
  O  O10  1  0.49693400  0.56085300  0.93458900  1
  O  O11  1  0.48577600  0.76287800  0.35851700  1
  O  O12  1  0.99372000  0.27476200  0.36121500  1
  O  O13  1  0.43571700  0.87978700  0.17746500  1
  O  O14  1  0.98658200  0.23736900  0.51445400  1
  O  O15  1  0.24792200  0.93214400  0.68263700  1
  O  O16  1  0.99962400  0.13887000  0.92851200  1
  O  O17  1  0.84077500  0.60264800  0.11789500  1
  O  O18  1  0.70798200  0.63452400  0.45397200  1
  O  O19  1  0.31388800  0.11084400  0.26722500  1
  O  O20  1  0.81124300  0.60310100  0.27043300  1
  O  O21  1  0.76287800  0.48577600  0.85851700  1
  O  O22  1  0.27476200  0.99372000  0.86121500  1
  O  O23  1  0.87978700  0.43571700  0.67746500  1
  O  O24  1  0.33637500  0.15890300  0.11416200  1
  O  O25  1  0.08233700  0.44537200  0.20098000  1
  O  O26  1  0.34472500  0.13509900  0.45469500  1
  O  O27  1  0.60264800  0.84077500  0.61789500  1
  O  O28  1  0.63452400  0.70798200  0.95397200  1
  O  O29  1  0.11084400  0.31388800  0.76722500  1
  O  O30  1  0.60310100  0.81124300  0.77043300  1
  O  O31  1  0.74419000  0.92297800  0.01295700  1
  O  O32  1  0.58266900  0.01998100  0.19385100  1
  O  O33  1  0.15890300  0.33637500  0.61416200  1
  O  O34  1  0.05630900  0.50414100  0.43051900  1
  O  O35  1  0.23273000  0.49415900  0.01770600  1
  O  O36  1  0.94910200  0.74168100  0.17921900  1
  O  O37  1  0.44537200  0.08233700  0.70098000  1
  O  O38  1  0.63845900  0.99722600  0.42992700  1
  O  O39  1  0.13509900  0.34472500  0.95469500  1
  O  O40  1  0.92297800  0.74419000  0.51295700  1
  O  O41  1  0.01998100  0.58266900  0.69385100  1
  O  O42  1  0.50414100  0.05630900  0.93051900  1
  O  O43  1  0.48439100  0.27221600  0.36492600  1
  O  O44  1  0.98523000  0.77463200  0.36054400  1
  O  O45  1  0.45428600  0.37381700  0.17973400  1
  O  O46  1  0.49415900  0.23273000  0.51770600  1
  O  O47  1  0.74168100  0.94910200  0.67921900  1
  O  O48  1  0.99722600  0.63845900  0.92992700  1
  O  O49  1  0.85455200  0.09278000  0.11151600  1
  O  O50  1  0.20697500  0.63394600  0.45587200  1
  O  O51  1  0.79088500  0.10355300  0.26397300  1
  O  O52  1  0.31380500  0.59858100  0.27422700  1
  O  O53  1  0.27221600  0.48439100  0.86492600  1
  O  O54  1  0.77463200  0.98523000  0.86054400  1
  O  O55  1  0.32970900  0.65721500  0.12223300  1
  O  O56  1  0.37381700  0.45428600  0.67973400  1
  O  O57  1  0.84294700  0.14285200  0.44586300  1
  O  O58  1  0.09278000  0.85455200  0.61151600  1
  O  O59  1  0.63394600  0.20697500  0.95587200  1
  O  O60  1  0.10355300  0.79088500  0.76397300  1
  O  O61  1  0.59858100  0.31380500  0.77422700  1
  O  O62  1  0.65721500  0.32970900  0.62223300  1
  O  O63  1  0.14285200  0.84294700  0.94586300  1
loop_
_geom_bond_atom_site_label_1
_geom_bond_atom_site_label_2
_geom_bond_distance
_geom_bond_site_symmetry_2
Li0 O13 1.972482 1_555
Li0 O4 1.973182 1_555
Li0 O0 2.003417 1_555
Li0 O55 2.011966 1_555
Li1 O5 1.970087 1_555
Li1 O2 1.970524 1_555
Li1 O1 1.989847 1_555
Li1 O17 2.009165 1_555
Li2 O23 1.972482 1_555
Li2 O14 1.973182 1_555
Li2 O6 2.003417 1_555
Li2 O62 2.011966 1_555
Li3 O15 1.970087 1_555
Li3 O9 1.970524 1_555
Li3 O8 1.989847 1_555
Li3 O27 2.009165 1_555
Li4 O7 1.974919 1_555
Li4 O19 1.986807 1_565
Li4 O11 2.048423 1_555
Li4 O26 2.083179 1_565
Li5 O20 1.952797 1_555
Li5 O34 1.988439 1_655
Li5 O18 1.997452 1_555
Li5 O12 2.014245 1_555
Li6 O16 1.974919 1_555
Li6 O29 1.986807 1_655
Li6 O21 2.048423 1_555
Li6 O39 2.083179 1_655
Li7 O30 1.952797 1_555
Li7 O42 1.988439 1_565
Li7 O28 1.997452 1_555
Li7 O22 2.014245 1_555
Li8 O35 1.958720 1_555
Li8 O25 1.989647 1_555
Li8 O24 2.011223 1_555
Li8 O45 2.036019 1_555
Li9 O31 1.968650 1_555
Li9 O32 1.970051 1_565
Li9 O49 1.983652 1_565
Li9 O36 2.001570 1_555
Li10 O46 1.958720 1_555
Li10 O37 1.989647 1_555
Li10 O33 2.011223 1_555
Li10 O56 2.036019 1_555
Li11 O40 1.968650 1_555
Li11 O41 1.970051 1_655
Li11 O58 1.983652 1_655
Li11 O47 2.001570 1_555
Li12 O51 1.965446 1_565
Li12 O38 1.996543 1_555
Li12 O44 2.000980 1_555
Li12 O57 2.021830 1_565
Li13 O52 1.954808 1_555
Li13 O3 1.995901 1_555
Li13 O43 2.005174 1_555
Li13 O50 2.010330 1_555
Li14 O60 1.965446 1_655
Li14 O48 1.996543 1_555
Li14 O54 2.000980 1_555
Li14 O63 2.021830 1_655
Li15 O61 1.954808 1_555
Li15 O10 1.995901 1_555
Li15 O53 2.005174 1_555
Li15 O59 2.010330 1_555
Ni0 O49 1.934369 1_555
Ni0 O16 1.963644 1_554
Ni0 O1 1.985291 1_555
Ni0 O59 1.989554 1_554
Ni1 O58 1.934369 1_555
Ni1 O7 1.963644 1_555
Ni1 O8 1.985291 1_555
Ni1 O50 1.989554 1_555
Ni2 O20 1.984152 1_555
Ni2 O2 1.988389 1_555
Ni2 O11 1.990782 1_555
Ni2 O13 1.997470 1_555
Ni3 O12 1.977746 1_455
Ni3 O5 1.984815 1_455
Ni3 O25 1.993844 1_555
Ni3 O19 2.006062 1_555
Ni4 O24 1.959134 1_555
Ni4 O42 1.959972 1_554
Ni4 O4 1.989965 1_545
Ni4 O39 1.995433 1_554
Ni5 O17 1.955697 1_555
Ni5 O48 1.971294 1_554
Ni5 O31 1.979605 1_555
Ni5 O28 1.982820 1_554
Ni6 O30 1.984152 1_555
Ni6 O9 1.988389 1_555
Ni6 O21 1.990782 1_555
Ni6 O23 1.997470 1_555
Ni7 O22 1.977746 1_545
Ni7 O15 1.984815 1_545
Ni7 O37 1.993844 1_555
Ni7 O29 2.006062 1_555
Ni8 O33 1.959134 1_555
Ni8 O34 1.959972 1_555
Ni8 O14 1.989965 1_455
Ni8 O26 1.995433 1_555
Ni9 O27 1.955697 1_555
Ni9 O38 1.971294 1_555
Ni9 O40 1.979605 1_555
Ni9 O18 1.982820 1_555
Ni10 O43 1.973924 1_555
Ni10 O51 1.980735 1_555
Ni10 O45 1.989427 1_555
Ni10 O32 2.003650 1_555
Ni11 O44 1.983167 1_455
Ni11 O52 1.983601 1_555
Ni11 O0 1.992390 1_555
Ni11 O36 1.997132 1_455
Ni12 O55 1.966921 1_555
Ni12 O10 1.969255 1_554
Ni12 O35 1.991022 1_555
Ni12 O63 1.994448 1_554
Ni13 O53 1.973924 1_555
Ni13 O60 1.980735 1_555
Ni13 O56 1.989427 1_555
Ni13 O41 2.003650 1_555
Ni14 O54 1.983167 1_545
Ni14 O61 1.983601 1_555
Ni14 O6 1.992390 1_555
Ni14 O47 1.997132 1_545
Ni15 O62 1.966921 1_555
Ni15 O3 1.969255 1_555
Ni15 O46 1.991022 1_555
Ni15 O57 1.994448 1_555
O0 P0 1.556885 1_465
O1 P5 1.564695 1_554
O2 P14 1.546870 1_555
O3 P3 1.548696 1_555
O4 P4 1.568255 1_554
O5 P0 1.554624 1_555
O6 P1 1.556885 1_645
O7 P2 1.551795 1_465
O8 P3 1.564695 1_555
O9 P15 1.546870 1_555
O10 P5 1.548696 1_555
O11 P3 1.555417 1_555
O12 P2 1.548592 1_555
O13 P6 1.546278 1_565
O14 P2 1.568255 1_555
O15 P1 1.554624 1_555
O16 P4 1.551795 1_645
O17 P7 1.560852 1_555
O18 P3 1.553601 1_555
O19 P6 1.564388 1_555
O20 P7 1.554701 1_555
O21 P5 1.555417 1_555
O22 P4 1.548592 1_555
O23 P8 1.546278 1_655
O24 P6 1.557233 1_555
O25 P7 1.552510 1_455
O26 P10 1.553734 1_555
O27 P9 1.560852 1_555
O28 P5 1.553601 1_555
O29 P8 1.564388 1_555
O30 P9 1.554701 1_555
O31 P13 1.560294 1_564
O32 P6 1.551307 1_555
O33 P8 1.557233 1_555
O34 P11 1.552259 1_555
O35 P12 1.558403 1_554
O36 P7 1.551039 1_555
O37 P9 1.552510 1_545
O38 P10 1.554310 1_565
O39 P12 1.553734 1_555
O40 P11 1.560294 1_655
O41 P8 1.551307 1_555
O42 P13 1.552259 1_555
O43 P10 1.551694 1_555
O44 P11 1.549361 1_655
O45 P14 1.552648 1_555
O46 P10 1.558403 1_555
O47 P9 1.551039 1_555
O48 P12 1.554310 1_655
O49 P0 1.552261 1_555
O50 P11 1.554578 1_555
O51 P0 1.550309 1_555
O52 P14 1.555431 1_555
O53 P12 1.551694 1_555
O54 P13 1.549361 1_565
O55 P14 1.567663 1_555
O56 P15 1.552648 1_555
O57 P2 1.551409 1_555
O58 P1 1.552261 1_555
O59 P13 1.554578 1_555
O60 P1 1.550309 1_555
O61 P15 1.555431 1_555
O62 P15 1.567663 1_555
O63 P4 1.551409 1_555
