# generated using pymatgen
data_Ba3Cu2(ClO2)2
_symmetry_space_group_name_H-M   'P 1'
_cell_length_a   6.05308200
_cell_length_b   6.65363100
_cell_length_c   10.73416800
_cell_angle_alpha   90.00000000
_cell_angle_beta   90.00000000
_cell_angle_gamma   90.00000000
_symmetry_Int_Tables_number   1
_chemical_formula_structural   Ba3Cu2(ClO2)2
_chemical_formula_sum   'Ba6 Cu4 Cl4 O8'
_cell_volume   432.31833755
_cell_formula_units_Z   2
loop_
 _symmetry_equiv_pos_site_id
 _symmetry_equiv_pos_as_xyz
  1  'x, y, z'
loop_
 _atom_site_type_symbol
 _atom_site_label
 _atom_site_symmetry_multiplicity
 _atom_site_fract_x
 _atom_site_fract_y
 _atom_site_fract_z
 _atom_site_occupancy
  Ba  Ba0  1  0.50000000  0.25000000  0.55307600  1
  Ba  Ba1  1  0.00000000  0.25000000  0.78861900  1
  Ba  Ba2  1  0.00000000  0.75000000  0.21138100  1
  Ba  Ba3  1  0.50000000  0.75000000  0.44692400  1
  Ba  Ba4  1  0.50000000  0.75000000  0.79660500  1
  Ba  Ba5  1  0.50000000  0.25000000  0.20339500  1
  Cu  Cu0  1  0.00000000  0.75000000  0.66822100  1
  Cu  Cu1  1  0.00000000  0.00000000  0.50000000  1
  Cu  Cu2  1  0.00000000  0.25000000  0.33177900  1
  Cu  Cu3  1  0.00000000  0.50000000  0.50000000  1
  Cl  Cl0  1  0.00000000  0.25000000  0.08643600  1
  Cl  Cl1  1  0.50000000  0.75000000  0.11565100  1
  Cl  Cl2  1  0.50000000  0.25000000  0.88434900  1
  Cl  Cl3  1  0.00000000  0.75000000  0.91356400  1
  O  O0  1  0.77798400  0.96958700  0.63895900  1
  O  O1  1  0.77798400  0.53041300  0.63895900  1
  O  O2  1  0.22201600  0.46958700  0.36104100  1
  O  O3  1  0.77798400  0.46958700  0.36104100  1
  O  O4  1  0.22201600  0.96958700  0.63895900  1
  O  O5  1  0.77798400  0.03041300  0.36104100  1
  O  O6  1  0.22201600  0.53041300  0.63895900  1
  O  O7  1  0.22201600  0.03041300  0.36104100  1
loop_
_geom_bond_atom_site_label_1
_geom_bond_atom_site_label_2
_geom_bond_distance
_geom_bond_site_symmetry_2
Ba0 O6 2.676245 1_555
Ba0 O1 2.676245 1_555
Ba0 O0 2.676245 1_545
Ba0 O4 2.676245 1_545
Ba0 O7 3.035642 1_555
Ba0 O2 3.035642 1_555
Ba0 O5 3.035642 1_555
Ba0 O3 3.035642 1_555
Ba0 Cl2 3.555940 1_555
Ba1 O6 2.804970 1_555
Ba1 O1 2.804970 1_455
Ba1 O0 2.804970 1_445
Ba1 O4 2.804970 1_545
Ba1 Cl2 3.196228 1_555
Ba1 Cl2 3.196228 1_455
Ba1 Cl0 3.196818 1_556
Ba1 Cl3 3.586986 1_545
Ba1 Cl3 3.586986 1_555
Ba2 O3 2.804970 1_455
Ba2 O7 2.804970 1_565
Ba2 O2 2.804970 1_555
Ba2 O5 2.804970 1_465
Ba2 Cl1 3.196228 1_455
Ba2 Cl1 3.196228 1_555
Ba2 Cl3 3.196818 1_554
Ba2 Cl0 3.586986 1_555
Ba2 Cl0 3.586986 1_565
Ba3 O5 2.676245 1_565
Ba3 O3 2.676245 1_555
Ba3 O7 2.676245 1_565
Ba3 O2 2.676245 1_555
Ba3 O6 3.035642 1_555
Ba3 O0 3.035642 1_555
Ba3 O1 3.035642 1_555
Ba3 O4 3.035642 1_555
Ba3 Cl1 3.555940 1_555
Ba4 O4 2.798133 1_555
Ba4 O0 2.798133 1_555
Ba4 O6 2.798133 1_555
Ba4 O1 2.798133 1_555
Ba4 Cl3 3.276603 1_555
Ba4 Cl3 3.276603 1_655
Ba4 Cl1 3.424693 1_556
Ba4 Cl2 3.457571 1_555
Ba4 Cl2 3.457571 1_565
Ba5 O2 2.798133 1_555
Ba5 O5 2.798133 1_555
Ba5 O3 2.798133 1_555
Ba5 O7 2.798133 1_555
Ba5 Cl0 3.276603 1_655
Ba5 Cl0 3.276603 1_555
Ba5 Cl2 3.424693 1_554
Ba5 Cl1 3.457571 1_555
Ba5 Cl1 3.457571 1_545
Cu0 O1 2.009813 1_455
Cu0 O4 2.009813 1_555
Cu0 O0 2.009813 1_455
Cu0 O6 2.009813 1_555
Cu1 O0 2.017886 1_445
Cu1 O4 2.017886 1_545
Cu1 O5 2.017886 1_455
Cu1 O7 2.017886 1_555
Cu2 O7 2.009813 1_555
Cu2 O5 2.009813 1_455
Cu2 O3 2.009813 1_455
Cu2 O2 2.009813 1_555
Cu3 O6 2.017886 1_555
Cu3 O1 2.017886 1_455
Cu3 O3 2.017886 1_455
Cu3 O2 2.017886 1_555
Cl0 Cu2 2.633553 1_555
Cl3 Cu0 2.633553 1_555
