# generated using pymatgen
data_PNF2
_symmetry_space_group_name_H-M   'P 1'
_cell_length_a   7.52002000
_cell_length_b   9.04338900
_cell_length_c   13.73837700
_cell_angle_alpha   90.00000000
_cell_angle_beta   90.00000000
_cell_angle_gamma   90.00000000
_symmetry_Int_Tables_number   1
_chemical_formula_structural   PNF2
_chemical_formula_sum   'P12 N12 F24'
_cell_volume   934.29847038
_cell_formula_units_Z   12
loop_
 _symmetry_equiv_pos_site_id
 _symmetry_equiv_pos_as_xyz
  1  'x, y, z'
loop_
 _atom_site_type_symbol
 _atom_site_label
 _atom_site_symmetry_multiplicity
 _atom_site_fract_x
 _atom_site_fract_y
 _atom_site_fract_z
 _atom_site_occupancy
  P  P0  1  0.31624800  0.44972800  0.16142400  1
  P  P1  1  0.18375200  0.94972800  0.66142400  1
  P  P2  1  0.15915000  0.96006900  0.86060100  1
  P  P3  1  0.97599200  0.47833100  0.77056000  1
  P  P4  1  0.02400800  0.52166900  0.27056000  1
  P  P5  1  0.47599200  0.02166900  0.77056000  1
  P  P6  1  0.52400800  0.97833100  0.27056000  1
  P  P7  1  0.65915000  0.53993100  0.86060100  1
  P  P8  1  0.68375200  0.55027200  0.66142400  1
  P  P9  1  0.84085000  0.03993100  0.36060100  1
  P  P10  1  0.81624800  0.05027200  0.16142400  1
  P  P11  1  0.34085000  0.46006900  0.36060100  1
  N  N0  1  0.42803800  0.42783700  0.25793100  1
  N  N1  1  0.86128500  0.49234100  0.86648100  1
  N  N2  1  0.61139500  0.01214500  0.16839200  1
  N  N3  1  0.38860500  0.98785500  0.66839200  1
  N  N4  1  0.92803800  0.07216300  0.25793100  1
  N  N5  1  0.13871500  0.50765900  0.36648100  1
  N  N6  1  0.88860500  0.51214500  0.66839200  1
  N  N7  1  0.11139500  0.48785500  0.16839200  1
  N  N8  1  0.36128500  0.00765900  0.86648100  1
  N  N9  1  0.63871500  0.99234100  0.36648100  1
  N  N10  1  0.07196200  0.92783700  0.75793100  1
  N  N11  1  0.57196200  0.57216300  0.75793100  1
  F  F0  1  0.65814200  0.68759700  0.59487900  1
  F  F1  1  0.12673000  0.82524800  0.92871300  1
  F  F2  1  0.64912300  0.92886700  0.78166000  1
  F  F3  1  0.34185800  0.31240300  0.09487900  1
  F  F4  1  0.95610900  0.92437400  0.41606300  1
  F  F5  1  0.45610900  0.57562600  0.41606300  1
  F  F6  1  0.37327000  0.32524800  0.42871300  1
  F  F7  1  0.87327000  0.17475200  0.42871300  1
  F  F8  1  0.35087700  0.07113300  0.28166000  1
  F  F9  1  0.06480000  0.32225600  0.76728700  1
  F  F10  1  0.90993300  0.93297300  0.09600600  1
  F  F11  1  0.43520000  0.82225600  0.26728700  1
  F  F12  1  0.62673000  0.67475200  0.92871300  1
  F  F13  1  0.04389100  0.07562600  0.91606300  1
  F  F14  1  0.84185800  0.18759700  0.09487900  1
  F  F15  1  0.09006700  0.06702700  0.59600600  1
  F  F16  1  0.93520000  0.67774400  0.26728700  1
  F  F17  1  0.14912300  0.57113300  0.78166000  1
  F  F18  1  0.15814200  0.81240300  0.59487900  1
  F  F19  1  0.56480000  0.17774400  0.76728700  1
  F  F20  1  0.40993300  0.56702700  0.09600600  1
  F  F21  1  0.59006700  0.43297300  0.59600600  1
  F  F22  1  0.85087700  0.42886700  0.28166000  1
  F  F23  1  0.54389100  0.42437400  0.91606300  1
loop_
_geom_bond_atom_site_label_1
_geom_bond_atom_site_label_2
_geom_bond_distance
_geom_bond_site_symmetry_2
N0 P0 1.582335 1_555
N0 P11 1.582534 1_555
N1 P3 1.580102 1_555
N1 P7 1.581875 1_555
N2 P6 1.579720 1_545
N2 P10 1.581514 1_555
N3 P5 1.579720 1_565
N3 P1 1.581514 1_555
N4 P10 1.582335 1_555
N4 P9 1.582534 1_555
N5 P4 1.580102 1_555
N5 P11 1.581875 1_555
N6 P3 1.579720 1_555
N6 P8 1.581514 1_555
N7 P4 1.579720 1_555
N7 P0 1.581514 1_555
N8 P5 1.580102 1_555
N8 P2 1.581875 1_545
N9 P6 1.580102 1_555
N9 P9 1.581875 1_565
N10 P1 1.582335 1_555
N10 P2 1.582534 1_555
N11 P8 1.582335 1_555
N11 P7 1.582534 1_555
F0 P8 1.554080 1_555
F1 P2 1.556151 1_555
F2 P5 1.556489 1_565
F3 P0 1.554080 1_555
F4 P9 1.556893 1_565
F5 P11 1.556893 1_555
F6 P11 1.556151 1_555
F7 P9 1.556151 1_555
F8 P6 1.556489 1_545
F9 P3 1.562118 1_455
F10 P10 1.558628 1_565
F11 P6 1.562118 1_555
F12 P7 1.556151 1_555
F13 P2 1.556893 1_545
F14 P10 1.554080 1_555
F15 P1 1.558628 1_545
F16 P4 1.562118 1_655
F17 P3 1.556489 1_455
F18 P1 1.554080 1_555
F19 P5 1.562118 1_555
F20 P0 1.558628 1_555
F21 P8 1.558628 1_555
F22 P4 1.556489 1_655
F23 P7 1.556893 1_555
