# generated using pymatgen
data_Na2MgSi5O12
_symmetry_space_group_name_H-M   'P 1'
_cell_length_a   8.73795900
_cell_length_b   5.33376000
_cell_length_c   9.34515631
_cell_angle_alpha   75.45457203
_cell_angle_beta   90.00000000
_cell_angle_gamma   90.00000000
_symmetry_Int_Tables_number   1
_chemical_formula_structural   Na2MgSi5O12
_chemical_formula_sum   'Na4 Mg2 Si10 O24'
_cell_volume   421.58236540
_cell_formula_units_Z   2
loop_
 _symmetry_equiv_pos_site_id
 _symmetry_equiv_pos_as_xyz
  1  'x, y, z'
loop_
 _atom_site_type_symbol
 _atom_site_label
 _atom_site_symmetry_multiplicity
 _atom_site_fract_x
 _atom_site_fract_y
 _atom_site_fract_z
 _atom_site_occupancy
  Na  Na0  1  0.54290600  0.00000000  0.75000000  1
  Na  Na1  1  0.45709400  0.00000000  0.25000000  1
  Na  Na2  1  0.94854400  0.50000000  0.75000000  1
  Na  Na3  1  0.05145600  0.50000000  0.25000000  1
  Mg  Mg0  1  0.34610500  0.50000000  0.75000000  1
  Mg  Mg1  1  0.65389500  0.50000000  0.25000000  1
  Si  Si0  1  0.66564900  0.30198600  0.96335900  1
  Si  Si1  1  0.15135100  0.18059500  0.04445000  1
  Si  Si2  1  0.15135100  0.81940500  0.45555000  1
  Si  Si3  1  0.33435100  0.30198600  0.46335900  1
  Si  Si4  1  0.84864900  0.81940500  0.95555000  1
  Si  Si5  1  0.33435100  0.69801400  0.03664100  1
  Si  Si6  1  0.84864900  0.18059500  0.54445000  1
  Si  Si7  1  0.15211400  0.00000000  0.75000000  1
  Si  Si8  1  0.66564900  0.69801400  0.53664100  1
  Si  Si9  1  0.84788600  0.00000000  0.25000000  1
  O  O0  1  0.24634800  0.58579200  0.40857500  1
  O  O1  1  0.50413100  0.30855500  0.40156900  1
  O  O2  1  0.75365200  0.41420800  0.59142500  1
  O  O3  1  0.50413100  0.69144500  0.09843100  1
  O  O4  1  0.76625100  0.89925600  0.61211100  1
  O  O5  1  0.30633600  0.20035900  0.64425000  1
  O  O6  1  0.15602000  0.76104500  0.63806400  1
  O  O7  1  0.69366400  0.79964100  0.35575000  1
  O  O8  1  0.69366400  0.20035900  0.14425000  1
  O  O9  1  0.75365200  0.58579200  0.90857500  1
  O  O10  1  0.23374900  0.89925600  0.11211100  1
  O  O11  1  0.24634800  0.41420800  0.09142500  1
  O  O12  1  0.30633600  0.79964100  0.85575000  1
  O  O13  1  0.49586900  0.30855500  0.90156900  1
  O  O14  1  0.84398000  0.23895500  0.36193600  1
  O  O15  1  0.23374900  0.10074400  0.38788900  1
  O  O16  1  0.98558400  0.81764100  0.37563300  1
  O  O17  1  0.98558400  0.18235900  0.12436700  1
  O  O18  1  0.01441600  0.81764100  0.87563300  1
  O  O19  1  0.49586900  0.69144500  0.59843100  1
  O  O20  1  0.01441600  0.18235900  0.62436700  1
  O  O21  1  0.15602000  0.23895500  0.86193600  1
  O  O22  1  0.76625100  0.10074400  0.88788900  1
  O  O23  1  0.84398000  0.76104500  0.13806400  1
loop_
_geom_bond_atom_site_label_1
_geom_bond_atom_site_label_2
_geom_bond_distance
_geom_bond_site_symmetry_2
Na0 O5 2.421006 1_555
Na0 O12 2.421006 1_545
Na0 O13 2.460619 1_555
Na0 O19 2.460619 1_545
Na0 O22 2.470966 1_555
Na0 O4 2.470966 1_545
Na1 O8 2.421006 1_555
Na1 O7 2.421006 1_545
Na1 O1 2.460619 1_555
Na1 O3 2.460619 1_545
Na1 O15 2.470966 1_555
Na1 O10 2.470966 1_545
Na2 O20 2.362038 1_655
Na2 O18 2.362038 1_655
Na2 O21 2.363888 1_655
Na2 O6 2.363888 1_655
Na2 O9 2.376157 1_555
Na2 O2 2.376157 1_555
Na2 O4 2.711877 1_555
Na2 O22 2.711877 1_555
Na3 O16 2.362038 1_455
Na3 O17 2.362038 1_455
Na3 O23 2.363888 1_455
Na3 O14 2.363888 1_455
Na3 O0 2.376157 1_555
Na3 O11 2.376157 1_555
Na3 O10 2.711877 1_555
Na3 O15 2.711877 1_555
Mg0 O13 2.008731 1_555
Mg0 O19 2.008731 1_555
Mg0 O12 2.108322 1_555
Mg0 O5 2.108322 1_555
Mg0 O21 2.249460 1_555
Mg0 O6 2.249460 1_555
Mg1 O1 2.008731 1_555
Mg1 O3 2.008731 1_555
Mg1 O7 2.108322 1_555
Mg1 O8 2.108322 1_555
Mg1 O14 2.249460 1_555
Mg1 O23 2.249460 1_555
O0 Si2 1.645935 1_555
O0 Si3 1.659998 1_555
O1 Si3 1.589139 1_555
O2 Si6 1.645935 1_555
O2 Si8 1.659998 1_555
O3 Si5 1.589139 1_555
O4 Si6 1.641153 1_565
O4 Si8 1.674081 1_555
O5 Si3 1.658651 1_555
O5 Si7 1.845046 1_555
O6 Si2 1.655604 1_555
O6 Si7 1.841061 1_565
O7 Si8 1.658651 1_555
O7 Si9 1.845046 1_565
O8 Si0 1.658651 1_554
O8 Si9 1.845046 1_555
O9 Si4 1.645935 1_555
O9 Si0 1.659998 1_555
O10 Si1 1.641153 1_565
O10 Si5 1.674081 1_555
O11 Si1 1.645935 1_555
O11 Si5 1.659998 1_555
O12 Si5 1.658651 1_556
O12 Si7 1.845046 1_565
O13 Si0 1.589139 1_555
O14 Si6 1.655604 1_555
O14 Si9 1.841061 1_555
O15 Si2 1.641153 1_545
O15 Si3 1.674081 1_555
O16 Si2 1.630777 1_655
O16 Si9 1.788455 1_565
O17 Si1 1.630777 1_655
O17 Si9 1.788455 1_555
O18 Si4 1.630777 1_455
O18 Si7 1.788455 1_565
O19 Si8 1.589139 1_555
O20 Si6 1.630777 1_455
O20 Si7 1.788455 1_555
O21 Si1 1.655604 1_556
O21 Si7 1.841061 1_555
O22 Si4 1.641153 1_545
O22 Si0 1.674081 1_555
O23 Si4 1.655604 1_554
O23 Si9 1.841061 1_565
