# generated using pymatgen
data_K4Sb2N3O9F7
_symmetry_space_group_name_H-M   'P 1'
_cell_length_a   8.75656300
_cell_length_b   9.12669200
_cell_length_c   20.29097400
_cell_angle_alpha   90.00000000
_cell_angle_beta   90.00000000
_cell_angle_gamma   90.00000000
_symmetry_Int_Tables_number   1
_chemical_formula_structural   K4Sb2N3O9F7
_chemical_formula_sum   'K16 Sb8 N12 O36 F28'
_cell_volume   1621.62326167
_cell_formula_units_Z   4
loop_
 _symmetry_equiv_pos_site_id
 _symmetry_equiv_pos_as_xyz
  1  'x, y, z'
loop_
 _atom_site_type_symbol
 _atom_site_label
 _atom_site_symmetry_multiplicity
 _atom_site_fract_x
 _atom_site_fract_y
 _atom_site_fract_z
 _atom_site_occupancy
  K  K0  1  0.67667900  0.66468200  0.99662400  1
  K  K1  1  0.81244600  0.16883400  0.67850000  1
  K  K2  1  0.82332100  0.83531800  0.49662400  1
  K  K3  1  0.17667900  0.83531800  0.00337600  1
  K  K4  1  0.32332100  0.66468200  0.50337600  1
  K  K5  1  0.31244600  0.33116600  0.32150000  1
  K  K6  1  0.82332100  0.16468200  0.99662400  1
  K  K7  1  0.31244600  0.66883400  0.82150000  1
  K  K8  1  0.81244600  0.83116600  0.17850000  1
  K  K9  1  0.18755400  0.16883400  0.82150000  1
  K  K10  1  0.18755400  0.83116600  0.32150000  1
  K  K11  1  0.68755400  0.66883400  0.67850000  1
  K  K12  1  0.68755400  0.33116600  0.17850000  1
  K  K13  1  0.17667900  0.16468200  0.50337600  1
  K  K14  1  0.32332100  0.33531800  0.00337600  1
  K  K15  1  0.67667900  0.33531800  0.49662400  1
  Sb  Sb0  1  0.38666100  0.37981700  0.65364900  1
  Sb  Sb1  1  0.11333900  0.87981700  0.65364900  1
  Sb  Sb2  1  0.61333900  0.37981700  0.84635100  1
  Sb  Sb3  1  0.61333900  0.62018300  0.34635100  1
  Sb  Sb4  1  0.38666100  0.62018300  0.15364900  1
  Sb  Sb5  1  0.88666100  0.12018300  0.34635100  1
  Sb  Sb6  1  0.88666100  0.87981700  0.84635100  1
  Sb  Sb7  1  0.11333900  0.12018300  0.15364900  1
  N  N0  1  0.47015300  0.98608500  0.91754900  1
  N  N1  1  0.47015300  0.01391500  0.41754900  1
  N  N2  1  0.97015300  0.51391500  0.08245100  1
  N  N3  1  0.00000000  0.50990800  0.75000000  1
  N  N4  1  0.02984700  0.51391500  0.41754900  1
  N  N5  1  0.50000000  0.99009200  0.25000000  1
  N  N6  1  0.02984700  0.48608500  0.91754900  1
  N  N7  1  0.52984700  0.01391500  0.08245100  1
  N  N8  1  0.50000000  0.00990800  0.75000000  1
  N  N9  1  0.52984700  0.98608500  0.58245100  1
  N  N10  1  0.97015300  0.48608500  0.58245100  1
  N  N11  1  0.00000000  0.49009200  0.25000000  1
  O  O0  1  0.03477100  0.65183100  0.42475900  1
  O  O1  1  0.37843300  0.94144500  0.76396600  1
  O  O2  1  0.08848200  0.54655500  0.60651900  1
  O  O3  1  0.00000000  0.64953500  0.75000000  1
  O  O4  1  0.58848200  0.04655500  0.89348100  1
  O  O5  1  0.53477100  0.15183100  0.07524100  1
  O  O6  1  0.87843300  0.44144500  0.73603400  1
  O  O7  1  0.35608200  0.06342000  0.93447000  1
  O  O8  1  0.85608200  0.56342000  0.56553000  1
  O  O9  1  0.91151800  0.45344500  0.39348100  1
  O  O10  1  0.96522900  0.34816900  0.57524100  1
  O  O11  1  0.12156700  0.55855500  0.26396600  1
  O  O12  1  0.08848200  0.45344500  0.10651900  1
  O  O13  1  0.64391800  0.06342000  0.56553000  1
  O  O14  1  0.14391800  0.56342000  0.93447000  1
  O  O15  1  0.12156700  0.44144500  0.76396600  1
  O  O16  1  0.96522900  0.65183100  0.07524100  1
  O  O17  1  0.53477100  0.84816900  0.57524100  1
  O  O18  1  0.37843300  0.05855500  0.26396600  1
  O  O19  1  0.62156700  0.05855500  0.23603400  1
  O  O20  1  0.87843300  0.55855500  0.23603400  1
  O  O21  1  0.91151800  0.54655500  0.89348100  1
  O  O22  1  0.46522900  0.15183100  0.42475900  1
  O  O23  1  0.50000000  0.85046500  0.25000000  1
  O  O24  1  0.85608200  0.43658000  0.06553000  1
  O  O25  1  0.41151800  0.95344500  0.10651900  1
  O  O26  1  0.03477100  0.34816900  0.92475900  1
  O  O27  1  0.64391800  0.93658000  0.06553000  1
  O  O28  1  0.50000000  0.14953500  0.75000000  1
  O  O29  1  0.58848200  0.95344500  0.39348100  1
  O  O30  1  0.35608200  0.93658000  0.43447000  1
  O  O31  1  0.62156700  0.94144500  0.73603400  1
  O  O32  1  0.14391800  0.43658000  0.43447000  1
  O  O33  1  0.00000000  0.35046500  0.25000000  1
  O  O34  1  0.46522900  0.84816900  0.92475900  1
  O  O35  1  0.41151800  0.04655500  0.60651900  1
  F  F0  1  0.89619700  0.09442400  0.85713200  1
  F  F1  1  0.37333200  0.37702700  0.55374200  1
  F  F2  1  0.37333200  0.62297300  0.05374200  1
  F  F3  1  0.89619700  0.90557600  0.35713200  1
  F  F4  1  0.00000000  0.04119900  0.25000000  1
  F  F5  1  0.39247400  0.62992100  0.36575800  1
  F  F6  1  0.87333200  0.87702700  0.94625800  1
  F  F7  1  0.00000000  0.95880100  0.75000000  1
  F  F8  1  0.10752600  0.12992100  0.36575800  1
  F  F9  1  0.62666800  0.62297300  0.44625800  1
  F  F10  1  0.39619700  0.59442400  0.64286800  1
  F  F11  1  0.62666800  0.37702700  0.94625800  1
  F  F12  1  0.60380300  0.59442400  0.85713200  1
  F  F13  1  0.89247400  0.12992100  0.13424200  1
  F  F14  1  0.39247400  0.37007900  0.86575800  1
  F  F15  1  0.87333200  0.12297300  0.44625800  1
  F  F16  1  0.39619700  0.40557600  0.14286800  1
  F  F17  1  0.10752600  0.87007900  0.86575800  1
  F  F18  1  0.60752600  0.37007900  0.63424200  1
  F  F19  1  0.89247400  0.87007900  0.63424200  1
  F  F20  1  0.10380300  0.09442400  0.64286800  1
  F  F21  1  0.60752600  0.62992100  0.13424200  1
  F  F22  1  0.12666800  0.12297300  0.05374200  1
  F  F23  1  0.10380300  0.90557600  0.14286800  1
  F  F24  1  0.50000000  0.45880100  0.75000000  1
  F  F25  1  0.50000000  0.54119900  0.25000000  1
  F  F26  1  0.60380300  0.40557600  0.35713200  1
  F  F27  1  0.12666800  0.87702700  0.55374200  1
loop_
_geom_bond_atom_site_label_1
_geom_bond_atom_site_label_2
_geom_bond_distance
_geom_bond_site_symmetry_2
K0 O27 2.862720 1_556
K0 O34 2.891210 1_555
K0 O24 2.959178 1_556
K0 O16 2.990437 1_556
K0 O21 3.125882 1_555
K1 O6 2.808393 1_555
K1 O13 2.890999 1_555
K1 O31 2.909210 1_545
K1 O10 2.976361 1_555
K1 O28 3.101822 1_555
K2 O8 2.862720 1_555
K2 O0 2.891210 1_655
K2 O13 2.959178 1_565
K2 O17 2.990437 1_555
K2 O29 3.125882 1_555
K3 O14 2.862720 1_554
K3 O16 2.891210 1_455
K3 O7 2.959178 1_564
K3 O34 2.990437 1_554
K3 O25 3.125882 1_555
K4 O30 2.862720 1_555
K4 O17 2.891210 1_555
K4 O32 2.959178 1_555
K4 O0 2.990437 1_555
K4 O2 3.125882 1_555
K5 O18 2.808393 1_555
K5 O32 2.890999 1_555
K5 O11 2.909210 1_555
K5 O22 2.976361 1_555
K5 O33 3.101822 1_555
K6 O24 2.862720 1_556
K6 O26 2.891210 1_655
K6 O27 2.959178 1_546
K6 O5 2.990437 1_556
K6 O4 3.125882 1_555
K7 O1 2.808393 1_555
K7 O14 2.890999 1_555
K7 O15 2.909210 1_555
K7 O34 2.976361 1_555
K7 O3 3.101822 1_555
K8 O20 2.808393 1_555
K8 O27 2.890999 1_555
K8 O19 2.909210 1_565
K8 O16 2.976361 1_555
K8 O23 3.101822 1_555
K9 O15 2.808393 1_555
K9 O7 2.890999 1_555
K9 O1 2.909210 1_545
K9 O26 2.976361 1_555
K9 O28 3.101822 1_555
K10 O11 2.808393 1_555
K10 O30 2.890999 1_555
K10 O18 2.909210 1_565
K10 O0 2.976361 1_555
K10 O23 3.101822 1_555
K11 O31 2.808393 1_555
K11 O8 2.890999 1_555
K11 O6 2.909210 1_555
K11 O17 2.976361 1_555
K11 O3 3.101822 1_655
K12 O19 2.808393 1_555
K12 O24 2.890999 1_555
K12 O20 2.909210 1_555
K12 O5 2.976361 1_555
K12 O33 3.101822 1_655
K13 O32 2.862720 1_555
K13 O10 2.891210 1_455
K13 O30 2.959178 1_545
K13 O22 2.990437 1_555
K13 O35 3.125882 1_555
K14 O7 2.862720 1_554
K14 O5 2.891210 1_555
K14 O14 2.959178 1_554
K14 O26 2.990437 1_554
K14 O12 3.125882 1_555
K15 O13 2.862720 1_555
K15 O22 2.891210 1_555
K15 O8 2.959178 1_555
K15 O10 2.990437 1_555
K15 O9 3.125882 1_555
N0 O34 1.267924 1_555
N0 O7 1.270353 1_565
N0 O4 1.271495 1_565
N1 O22 1.267924 1_555
N1 O30 1.270353 1_545
N1 O29 1.271495 1_545
N2 O16 1.267924 1_555
N2 O24 1.270353 1_555
N2 O12 1.271495 1_655
N3 O6 1.266456 1_455
N3 O15 1.266456 1_555
N3 O3 1.274333 1_555
N4 O0 1.267924 1_555
N4 O32 1.270353 1_555
N4 O9 1.271495 1_455
N5 O19 1.266456 1_565
N5 O18 1.266456 1_565
N5 O23 1.274333 1_555
N6 O26 1.267924 1_555
N6 O14 1.270353 1_555
N6 O21 1.271495 1_455
N7 O5 1.267924 1_555
N7 O27 1.270353 1_545
N7 O25 1.271495 1_545
N8 O31 1.266456 1_545
N8 O1 1.266456 1_545
N8 O28 1.274333 1_555
N9 O17 1.267924 1_555
N9 O13 1.270353 1_565
N9 O35 1.271495 1_565
N10 O10 1.267924 1_555
N10 O8 1.270353 1_555
N10 O2 1.271495 1_655
N11 O20 1.266456 1_455
N11 O11 1.266456 1_555
N11 O33 1.274333 1_555
F0 Sb6 1.972599 1_545
F0 K9 2.737335 1_655
F0 K6 2.971484 1_555
F1 Sb0 2.030727 1_555
F1 K13 2.786684 1_555
F1 K4 2.851072 1_555
F1 K15 2.923003 1_555
F2 Sb4 2.030727 1_555
F2 K3 2.786684 1_555
F2 K14 2.851072 1_555
F2 K0 2.923003 1_554
F3 Sb5 1.972599 1_565
F3 K10 2.737335 1_655
F3 K2 2.971484 1_555
F4 Sb7 2.308000 1_555
F4 Sb5 2.308000 1_455
F4 K10 2.911461 1_545
F4 K8 2.911461 1_445
F5 Sb3 1.975701 1_555
F5 K10 2.720257 1_555
F5 K4 2.874865 1_555
F5 K5 2.955020 1_555
F6 Sb6 2.030727 1_555
F6 K0 2.786684 1_555
F6 K6 2.851072 1_565
F6 K3 2.923003 1_656
F7 Sb6 2.308000 1_455
F7 Sb1 2.308000 1_555
F7 K9 2.911461 1_565
F7 K1 2.911461 1_465
F8 Sb5 1.975701 1_455
F8 K5 2.720257 1_555
F8 K13 2.874865 1_555
F8 K10 2.955020 1_545
F9 Sb3 2.030727 1_555
F9 K2 2.786684 1_555
F9 K15 2.851072 1_555
F9 K4 2.923003 1_555
F10 Sb0 1.972599 1_555
F10 K11 2.737335 1_555
F10 K4 2.971484 1_555
F11 Sb2 2.030727 1_555
F11 K6 2.786684 1_555
F11 K0 2.851072 1_555
F11 K14 2.923003 1_556
F12 Sb2 1.972599 1_555
F12 K7 2.737335 1_555
F12 K0 2.971484 1_555
F13 Sb7 1.975701 1_655
F13 K12 2.720257 1_555
F13 K6 2.874865 1_554
F13 K8 2.955020 1_545
F14 Sb2 1.975701 1_555
F14 K9 2.720257 1_555
F14 K14 2.874865 1_556
F14 K7 2.955020 1_555
F15 Sb5 2.030727 1_555
F15 K15 2.786684 1_555
F15 K2 2.851072 1_545
F15 K13 2.923003 1_655
F16 Sb4 1.972599 1_555
F16 K12 2.737335 1_555
F16 K14 2.971484 1_555
F17 Sb6 1.975701 1_455
F17 K7 2.720257 1_555
F17 K3 2.874865 1_556
F17 K9 2.955020 1_565
F18 Sb0 1.975701 1_555
F18 K1 2.720257 1_555
F18 K15 2.874865 1_555
F18 K11 2.955020 1_555
F19 Sb1 1.975701 1_655
F19 K11 2.720257 1_555
F19 K2 2.874865 1_555
F19 K1 2.955020 1_565
F20 Sb1 1.972599 1_545
F20 K1 2.737335 1_455
F20 K13 2.971484 1_555
F21 Sb4 1.975701 1_555
F21 K8 2.720257 1_555
F21 K0 2.874865 1_554
F21 K12 2.955020 1_555
F22 Sb7 2.030727 1_555
F22 K14 2.786684 1_555
F22 K3 2.851072 1_545
F22 K6 2.923003 1_454
F23 Sb7 1.972599 1_565
F23 K8 2.737335 1_455
F23 K3 2.971484 1_555
F24 Sb2 2.308000 1_555
F24 Sb0 2.308000 1_555
F24 K7 2.911461 1_555
F24 K11 2.911461 1_555
F25 Sb4 2.308000 1_555
F25 Sb3 2.308000 1_555
F25 K12 2.911461 1_555
F25 K5 2.911461 1_555
F26 Sb3 1.972599 1_555
F26 K5 2.737335 1_555
F26 K15 2.971484 1_555
F27 Sb1 2.030727 1_555
F27 K4 2.786684 1_555
F27 K13 2.851072 1_565
F27 K2 2.923003 1_455
