# generated using pymatgen
data_YbSnAu
_symmetry_space_group_name_H-M   'P 1'
_cell_length_a   11.98342584
_cell_length_b   11.98342584
_cell_length_c   11.98342584
_cell_angle_alpha   157.07302580
_cell_angle_beta   139.82658043
_cell_angle_gamma   46.75672510
_symmetry_Int_Tables_number   1
_chemical_formula_structural   YbSnAu
_chemical_formula_sum   'Yb6 Sn6 Au6'
_cell_volume   431.26723204
_cell_formula_units_Z   6
loop_
 _symmetry_equiv_pos_site_id
 _symmetry_equiv_pos_as_xyz
  1  'x, y, z'
loop_
 _atom_site_type_symbol
 _atom_site_label
 _atom_site_symmetry_multiplicity
 _atom_site_fract_x
 _atom_site_fract_y
 _atom_site_fract_z
 _atom_site_occupancy
  Yb  Yb0  1  0.80298500  0.33455900  0.46842600  1
  Yb  Yb1  1  0.03456100  0.50000000  0.53456100  1
  Yb  Yb2  1  0.70149900  0.16790800  0.53359100  1
  Yb  Yb3  1  0.13386700  0.66544100  0.46842600  1
  Yb  Yb4  1  0.36568300  0.83209200  0.53359100  1
  Yb  Yb5  1  0.46753400  0.00000000  0.46753400  1
  Sn  Sn0  1  0.90538900  0.06791600  0.83747300  1
  Sn  Sn1  1  0.92973300  0.76495800  0.16477500  1
  Sn  Sn2  1  0.39981700  0.23504200  0.16477500  1
  Sn  Sn3  1  0.24195500  0.40594600  0.83600900  1
  Sn  Sn4  1  0.43006300  0.59405400  0.83600900  1
  Sn  Sn5  1  0.76955800  0.93208400  0.83747300  1
  Au  Au0  1  0.59040800  0.42348200  0.16692700  1
  Au  Au1  1  0.09804200  0.26230100  0.83574000  1
  Au  Au2  1  0.57343900  0.73769900  0.83574000  1
  Au  Au3  1  0.26622500  0.10037600  0.16584900  1
  Au  Au4  1  0.74344500  0.57651800  0.16692700  1
  Au  Au5  1  0.06547300  0.89962400  0.16584900  1
loop_
_geom_bond_atom_site_label_1
_geom_bond_atom_site_label_2
_geom_bond_distance
_geom_bond_site_symmetry_2
Sn0 Sn5 2.988195 1_545
Sn0 Yb1 3.245962 1_645
Sn0 Yb1 3.245962 1_656
Sn0 Yb2 3.330992 1_555
Sn0 Yb3 3.381879 1_645
Sn0 Yb3 3.381879 1_656
Sn0 Yb5 3.391853 1_555
Sn1 Yb0 3.260170 1_554
Sn1 Yb0 3.260170 1_565
Sn1 Yb3 3.322670 1_655
Sn1 Yb2 3.375867 1_565
Sn1 Yb2 3.375867 1_554
Sn1 Yb4 3.375996 1_655
Sn2 Yb3 3.260170 1_555
Sn2 Yb3 3.260170 1_544
Sn2 Yb0 3.322670 1_555
Sn2 Yb4 3.375867 1_544
Sn2 Yb4 3.375867 1_555
Sn2 Yb2 3.375996 1_555
Sn3 Yb1 3.230795 1_555
Sn3 Yb4 3.310120 1_556
Sn3 Yb4 3.310120 1_545
Sn3 Yb5 3.335484 1_555
Sn3 Yb5 3.335484 1_566
Sn3 Yb0 3.408952 1_455
Sn4 Yb1 3.230795 1_555
Sn4 Yb2 3.310120 1_555
Sn4 Yb2 3.310120 1_566
Sn4 Yb5 3.335484 1_555
Sn4 Yb5 3.335484 1_566
Sn4 Yb3 3.408952 1_555
Sn5 Yb1 3.245953 1_655
Sn5 Yb1 3.245956 1_666
Sn5 Yb4 3.331003 1_555
Sn5 Yb0 3.381883 1_555
Sn5 Yb0 3.381886 1_566
Sn5 Yb5 3.391852 1_565
Au0 Sn3 2.751037 1_554
Au0 Sn5 2.771033 1_555
Au0 Sn5 2.771042 1_544
Au0 Yb0 3.160019 1_555
Au0 Yb4 3.304360 1_555
Au0 Yb4 3.304364 1_544
Au0 Yb5 3.346564 1_565
Au0 Yb5 3.346567 1_554
Au0 Yb1 3.462779 1_655
Au1 Sn1 2.766933 1_445
Au1 Sn1 2.766937 1_456
Au1 Sn2 2.773953 1_556
Au1 Sn3 3.160077 1_555
Au1 Yb2 3.240013 1_455
Au1 Yb4 3.268270 1_545
Au1 Yb4 3.268273 1_556
Au1 Yb3 3.377207 1_545
Au1 Yb3 3.377210 1_556
Au1 Yb0 3.415860 1_455
Au2 Sn2 2.766933 1_555
Au2 Sn2 2.766933 1_566
Au2 Sn1 2.773955 1_556
Au2 Sn4 3.160088 1_555
Au2 Yb4 3.240003 1_555
Au2 Yb2 3.268278 1_555
Au2 Yb2 3.268278 1_566
Au2 Yb0 3.377203 1_555
Au2 Yb0 3.377203 1_566
Au2 Yb3 3.415861 1_555
Au3 Sn4 2.766449 1_544
Au3 Sn4 2.766449 1_555
Au3 Sn0 2.795674 1_454
Au3 Sn2 2.962568 1_555
Au3 Yb3 3.218965 1_555
Au3 Yb3 3.218965 1_544
Au3 Yb5 3.323042 1_555
Au3 Yb2 3.371897 1_555
Au3 Yb1 3.422882 1_555
Au3 Yb1 3.422882 1_544
Au4 Sn4 2.751042 1_554
Au4 Sn0 2.771032 1_554
Au4 Sn0 2.771032 1_565
Au4 Yb3 3.160022 1_655
Au4 Yb2 3.304370 1_565
Au4 Yb2 3.304370 1_554
Au4 Yb5 3.346562 1_554
Au4 Yb5 3.346562 1_565
Au4 Yb1 3.462770 1_655
Au5 Sn3 2.766449 1_565
Au5 Sn3 2.766449 1_554
Au5 Sn5 2.795673 1_454
Au5 Sn1 2.962568 1_455
Au5 Yb0 3.218965 1_454
Au5 Yb0 3.218965 1_465
Au5 Yb5 3.323042 1_565
Au5 Yb4 3.371897 1_555
Au5 Yb1 3.422882 1_554
Au5 Yb1 3.422882 1_565
