# generated using pymatgen
data_CsLuP2O7
_symmetry_space_group_name_H-M   'P 1'
_cell_length_a   10.80255100
_cell_length_b   7.95798900
_cell_length_c   8.78242065
_cell_angle_alpha   75.52577023
_cell_angle_beta   90.00000000
_cell_angle_gamma   90.00000000
_symmetry_Int_Tables_number   1
_chemical_formula_structural   CsLuP2O7
_chemical_formula_sum   'Cs4 Lu4 P8 O28'
_cell_volume   731.03127268
_cell_formula_units_Z   4
loop_
 _symmetry_equiv_pos_site_id
 _symmetry_equiv_pos_as_xyz
  1  'x, y, z'
loop_
 _atom_site_type_symbol
 _atom_site_label
 _atom_site_symmetry_multiplicity
 _atom_site_fract_x
 _atom_site_fract_y
 _atom_site_fract_z
 _atom_site_occupancy
  Cs  Cs0  1  0.69441600  0.19965400  0.95012500  1
  Cs  Cs1  1  0.80558400  0.19965400  0.45012500  1
  Cs  Cs2  1  0.30558400  0.80034600  0.04987500  1
  Cs  Cs3  1  0.19441600  0.80034600  0.54987500  1
  Lu  Lu0  1  0.90040700  0.76221600  0.25403400  1
  Lu  Lu1  1  0.09959300  0.23778400  0.74596600  1
  Lu  Lu2  1  0.59959300  0.76221600  0.75403400  1
  Lu  Lu3  1  0.40040700  0.23778400  0.24596600  1
  P  P0  1  0.90417100  0.86913800  0.82428800  1
  P  P1  1  0.40417100  0.13086200  0.67571200  1
  P  P2  1  0.59582900  0.86913800  0.32428800  1
  P  P3  1  0.37098100  0.42722500  0.81774200  1
  P  P4  1  0.09582900  0.13086200  0.17571200  1
  P  P5  1  0.62901900  0.57277500  0.18225800  1
  P  P6  1  0.12901900  0.42722500  0.31774200  1
  P  P7  1  0.87098100  0.57277500  0.68225800  1
  O  O0  1  0.89689200  0.66678300  0.51148200  1
  O  O1  1  0.07007000  0.60757200  0.26803000  1
  O  O2  1  0.00269900  0.99860200  0.26905100  1
  O  O3  1  0.39689200  0.33321700  0.98851800  1
  O  O4  1  0.91512800  0.84486400  0.00065400  1
  O  O5  1  0.76647100  0.56419800  0.22630300  1
  O  O6  1  0.26647100  0.43580200  0.27369700  1
  O  O7  1  0.10310800  0.33321700  0.48851800  1
  O  O8  1  0.72834000  0.91304100  0.26324200  1
  O  O9  1  0.08487200  0.15513600  0.99934600  1
  O  O10  1  0.99730100  0.00139800  0.73094900  1
  O  O11  1  0.94220500  0.68341600  0.79021500  1
  O  O12  1  0.23352900  0.43580200  0.77369700  1
  O  O13  1  0.49730100  0.99860200  0.76905100  1
  O  O14  1  0.60310800  0.66678300  0.01148200  1
  O  O15  1  0.05779500  0.31658400  0.20978500  1
  O  O16  1  0.57007000  0.39242800  0.23197000  1
  O  O17  1  0.55779500  0.68341600  0.29021500  1
  O  O18  1  0.77166000  0.91304100  0.76324200  1
  O  O19  1  0.50269900  0.00139800  0.23094900  1
  O  O20  1  0.42993000  0.60757200  0.76803000  1
  O  O21  1  0.73352900  0.56419800  0.72630300  1
  O  O22  1  0.92993000  0.39242800  0.73197000  1
  O  O23  1  0.58487200  0.84486400  0.50065400  1
  O  O24  1  0.44220500  0.31658400  0.70978500  1
  O  O25  1  0.27166000  0.08695900  0.73675800  1
  O  O26  1  0.22834000  0.08695900  0.23675800  1
  O  O27  1  0.41512800  0.15513600  0.49934600  1
loop_
_geom_bond_atom_site_label_1
_geom_bond_atom_site_label_2
_geom_bond_distance
_geom_bond_site_symmetry_2
Cs0 O21 3.099655 1_555
Cs0 O8 3.124631 1_546
Cs0 O18 3.234778 1_545
Cs0 O13 3.300738 1_545
Cs0 O19 3.303928 1_556
Cs0 O22 3.320791 1_555
Cs0 O3 3.428192 1_555
Cs0 O24 3.429635 1_555
Cs0 O16 3.490419 1_556
Cs0 O4 3.636885 1_546
Cs1 O5 3.099655 1_555
Cs1 O18 3.124631 1_545
Cs1 O8 3.234778 1_545
Cs1 O2 3.300738 1_645
Cs1 O10 3.303928 1_555
Cs1 O16 3.320791 1_555
Cs1 O7 3.428192 1_655
Cs1 O15 3.429635 1_655
Cs1 O22 3.490419 1_555
Cs1 O23 3.636885 1_545
Cs2 O6 3.099655 1_555
Cs2 O25 3.124631 1_564
Cs2 O26 3.234778 1_565
Cs2 O19 3.300738 1_565
Cs2 O13 3.303928 1_554
Cs2 O1 3.320791 1_555
Cs2 O14 3.428192 1_555
Cs2 O17 3.429635 1_555
Cs2 O20 3.490419 1_554
Cs2 O9 3.636885 1_564
Cs3 O12 3.099655 1_555
Cs3 O26 3.124631 1_565
Cs3 O25 3.234778 1_565
Cs3 O10 3.300738 1_465
Cs3 O2 3.303928 1_555
Cs3 O20 3.320791 1_555
Cs3 O0 3.428192 1_455
Cs3 O11 3.429635 1_455
Cs3 O1 3.490419 1_555
Cs3 O27 3.636885 1_565
Lu0 O4 2.162903 1_555
Lu0 O1 2.193886 1_655
Lu0 O5 2.197218 1_555
Lu0 O0 2.198188 1_555
Lu0 O2 2.213871 1_655
Lu0 O8 2.225015 1_555
Lu1 O9 2.162903 1_555
Lu1 O22 2.193886 1_455
Lu1 O12 2.197218 1_555
Lu1 O7 2.198188 1_555
Lu1 O10 2.213871 1_455
Lu1 O25 2.225015 1_555
Lu2 O23 2.162903 1_555
Lu2 O20 2.193886 1_555
Lu2 O21 2.197218 1_555
Lu2 O14 2.198188 1_556
Lu2 O13 2.213871 1_555
Lu2 O18 2.225015 1_555
Lu3 O27 2.162903 1_555
Lu3 O16 2.193886 1_555
Lu3 O6 2.197218 1_555
Lu3 O3 2.198188 1_554
Lu3 O19 2.213871 1_555
Lu3 O26 2.225015 1_555
O0 P7 1.525321 1_555
O1 P6 1.530586 1_555
O2 P4 1.536424 1_565
O3 P3 1.525321 1_555
O4 P0 1.516875 1_554
O5 P5 1.531606 1_555
O6 P6 1.531606 1_555
O7 P6 1.525321 1_555
O8 P2 1.537835 1_555
O9 P4 1.516875 1_556
O10 P0 1.536424 1_545
O11 P0 1.632131 1_555
O11 P7 1.638130 1_555
O12 P3 1.531606 1_555
O13 P1 1.536424 1_565
O14 P5 1.525321 1_555
O15 P4 1.632131 1_555
O15 P6 1.638130 1_555
O16 P5 1.530586 1_555
O17 P2 1.632131 1_555
O17 P5 1.638130 1_555
O18 P0 1.537835 1_555
O19 P2 1.536424 1_545
O20 P3 1.530586 1_555
O21 P7 1.531606 1_555
O22 P7 1.530586 1_555
O23 P2 1.516875 1_555
O24 P1 1.632131 1_555
O24 P3 1.638130 1_555
O25 P1 1.537835 1_555
O26 P4 1.537835 1_555
O27 P1 1.516875 1_555
