# generated using pymatgen
data_Li5ReO6
_symmetry_space_group_name_H-M   'P 1'
_cell_length_a   5.01349310
_cell_length_b   5.01333458
_cell_length_c   14.06395081
_cell_angle_alpha   90.00116512
_cell_angle_beta   89.99998900
_cell_angle_gamma   119.99800207
_symmetry_Int_Tables_number   1
_chemical_formula_structural   Li5ReO6
_chemical_formula_sum   'Li15 Re3 O18'
_cell_volume   306.13559213
_cell_formula_units_Z   3
loop_
 _symmetry_equiv_pos_site_id
 _symmetry_equiv_pos_as_xyz
  1  'x, y, z'
loop_
 _atom_site_type_symbol
 _atom_site_label
 _atom_site_symmetry_multiplicity
 _atom_site_fract_x
 _atom_site_fract_y
 _atom_site_fract_z
 _atom_site_occupancy
  Li  Li0  1  0.77776071  0.22224384  0.33336744  1
  Li  Li1  1  0.12329859  0.87667108  0.83335448  1
  Li  Li2  1  0.44452056  0.88890955  0.16662411  1
  Li  Li3  1  0.11114486  0.55557897  0.49999800  1
  Li  Li4  1  0.12328092  0.24660653  0.16665262  1
  Li  Li5  1  0.77777817  0.55552883  0.66662776  1
  Li  Li6  1  0.76688720  0.23303091  0.83337274  1
  Li  Li7  1  0.11129832  0.55564493  0.00000498  1
  Li  Li8  1  0.44452233  0.55563525  0.83337172  1
  Li  Li9  1  0.44435707  0.88869511  0.66667143  1
  Li  Li10  1  0.76687360  0.53383611  0.16664191  1
  Li  Li11  1  0.44444510  0.22222026  0.00000363  1
  Li  Li12  1  0.44434523  0.55565585  0.33332351  1
  Li  Li13  1  0.75345878  0.87673436  0.49999342  1
  Li  Li14  1  0.46601301  0.23300935  0.49998882  1
  Re  Re0  1  0.11020138  0.88979980  0.33328739  1
  Re  Re1  1  0.11019900  0.22041070  0.66670322  1
  Re  Re2  1  0.77962405  0.88980510  0.00000905  1
  O  O0  1  0.41947347  0.53124311  0.58869434  1
  O  O1  1  0.42006614  0.19579337  0.25492600  1
  O  O2  1  0.77573315  0.19583986  0.07834582  1
  O  O3  1  0.80416623  0.57990229  0.41162627  1
  O  O4  1  0.46872523  0.88822862  0.92200433  1
  O  O5  1  0.77573951  0.57989499  0.92167758  1
  O  O6  1  0.42006310  0.22427074  0.74506447  1
  O  O7  1  0.80345440  0.91629267  0.74361361  1
  O  O8  1  0.11176535  0.58059623  0.25526824  1
  O  O9  1  0.08376185  0.19659964  0.92312336  1
  O  O10  1  0.11176662  0.53115685  0.74472196  1
  O  O11  1  0.08376724  0.88715373  0.07690299  1
  O  O12  1  0.80417897  0.22427234  0.58836060  1
  O  O13  1  0.11284173  0.19657938  0.41016636  1
  O  O14  1  0.46872137  0.58049061  0.07801839  1
  O  O15  1  0.41948033  0.88822780  0.41129396  1
  O  O16  1  0.80344226  0.88716475  0.25637342  1
  O  O17  1  0.11284616  0.91627449  0.58982109  1
loop_
_geom_bond_atom_site_label_1
_geom_bond_atom_site_label_2
_geom_bond_distance
_geom_bond_site_symmetry_2
Li0 O3 2.050985 1_555
Li0 O1 2.052500 1_555
Li0 O13 2.054618 1_655
Li0 O15 2.055248 1_545
Li0 O16 2.056031 1_545
Li0 O8 2.056685 1_655
Li1 O6 2.049327 1_565
Li1 O5 2.049537 1_455
Li1 O4 2.111056 1_555
Li1 O10 2.111250 1_555
Li1 O7 2.126552 1_455
Li1 O9 2.126865 1_565
Li2 O2 2.027714 1_565
Li2 O1 2.028012 1_565
Li2 O14 2.036141 1_555
Li2 O8 2.036686 1_555
Li2 O16 2.201606 1_555
Li2 O11 2.201713 1_555
Li3 O12 2.028705 1_455
Li3 O3 2.028757 1_455
Li3 O0 2.036920 1_555
Li3 O15 2.037002 1_555
Li3 O17 2.202341 1_555
Li3 O13 2.202423 1_555
Li4 O1 2.049175 1_555
Li4 O2 2.049342 1_455
Li4 O14 2.111024 1_555
Li4 O8 2.111104 1_555
Li4 O16 2.126359 1_445
Li4 O11 2.126694 1_545
Li5 O12 2.051050 1_555
Li5 O6 2.052577 1_555
Li5 O17 2.054692 1_655
Li5 O0 2.055323 1_555
Li5 O7 2.055996 1_555
Li5 O10 2.056596 1_655
Li6 O4 2.047600 1_545
Li6 O10 2.047902 1_655
Li6 O7 2.107052 1_545
Li6 O9 2.107269 1_655
Li6 O5 2.119197 1_555
Li6 O6 2.119308 1_555
Li7 O9 2.044424 1_554
Li7 O11 2.044531 1_555
Li7 O4 2.051100 1_554
Li7 O14 2.051136 1_555
Li7 O5 2.064707 1_454
Li7 O2 2.064851 1_455
Li8 O5 2.027972 1_555
Li8 O6 2.028155 1_555
Li8 O4 2.036266 1_555
Li8 O10 2.036636 1_555
Li8 O7 2.201721 1_555
Li8 O9 2.202093 1_555
Li9 O17 2.044362 1_555
Li9 O7 2.045049 1_555
Li9 O0 2.050846 1_555
Li9 O10 2.051743 1_555
Li9 O12 2.064693 1_565
Li9 O6 2.065310 1_565
Li10 O14 2.047487 1_555
Li10 O8 2.047695 1_655
Li10 O16 2.106912 1_555
Li10 O11 2.107269 1_655
Li10 O1 2.119072 1_555
Li10 O2 2.119076 1_555
Li11 O5 2.051709 1_554
Li11 O2 2.051764 1_555
Li11 O9 2.055045 1_554
Li11 O11 2.055220 1_545
Li11 O4 2.055619 1_544
Li11 O14 2.055738 1_555
Li12 O13 2.044300 1_555
Li12 O16 2.045162 1_555
Li12 O15 2.050766 1_555
Li12 O8 2.051676 1_555
Li12 O3 2.064587 1_555
Li12 O1 2.065343 1_555
Li13 O12 2.049824 1_565
Li13 O3 2.049846 1_555
Li13 O15 2.111771 1_555
Li13 O0 2.111878 1_555
Li13 O17 2.127107 1_655
Li13 O13 2.127126 1_665
Li14 O15 2.048134 1_545
Li14 O0 2.048180 1_555
Li14 O13 2.107347 1_555
Li14 O17 2.107447 1_545
Li14 O3 2.120113 1_555
Li14 O12 2.120195 1_555
O0 Re1 1.902671 1_555
O1 Re0 1.896919 1_545
O2 Re2 1.896832 1_545
O3 Re0 1.896886 1_655
O4 Re2 1.902836 1_556
O5 Re2 1.896739 1_556
O6 Re1 1.896902 1_555
O7 Re1 1.874853 1_665
O8 Re0 1.902382 1_555
O9 Re2 1.874796 1_446
O10 Re1 1.902284 1_555
O11 Re2 1.874838 1_455
O12 Re1 1.896817 1_655
O13 Re0 1.874620 1_545
O14 Re2 1.902902 1_555
O15 Re0 1.902664 1_555
O16 Re0 1.874889 1_655
O17 Re1 1.874647 1_565
