# generated using pymatgen
data_SnH16C4(NCl3)2
_symmetry_space_group_name_H-M   'P 1'
_cell_length_a   7.38859300
_cell_length_b   7.50292100
_cell_length_c   14.69345800
_cell_angle_alpha   90.00000000
_cell_angle_beta   90.00000000
_cell_angle_gamma   90.00000000
_symmetry_Int_Tables_number   1
_chemical_formula_structural   SnH16C4(NCl3)2
_chemical_formula_sum   'Sn2 H32 C8 N4 Cl12'
_cell_volume   814.54697232
_cell_formula_units_Z   2
loop_
 _symmetry_equiv_pos_site_id
 _symmetry_equiv_pos_as_xyz
  1  'x, y, z'
loop_
 _atom_site_type_symbol
 _atom_site_label
 _atom_site_symmetry_multiplicity
 _atom_site_fract_x
 _atom_site_fract_y
 _atom_site_fract_z
 _atom_site_occupancy
  Sn  Sn0  1  0.00000000  0.00000000  0.00000000  1
  Sn  Sn1  1  0.50000000  0.50000000  0.50000000  1
  H  H0  1  0.87917500  0.65482900  0.23897700  1
  H  H1  1  0.12082500  0.65482900  0.23897700  1
  H  H2  1  0.00000000  0.94158400  0.43427500  1
  H  H3  1  0.50000000  0.55841600  0.93427500  1
  H  H4  1  0.87857100  0.06535900  0.67120800  1
  H  H5  1  0.62142900  0.56535900  0.82879200  1
  H  H6  1  0.50000000  0.96433800  0.21771700  1
  H  H7  1  0.12142900  0.93464100  0.32879200  1
  H  H8  1  0.38855900  0.85214400  0.90434000  1
  H  H9  1  0.37857100  0.56535900  0.82879200  1
  H  H10  1  0.62082500  0.15482900  0.26102300  1
  H  H11  1  0.61144100  0.14785600  0.09566000  1
  H  H12  1  0.11144100  0.64785600  0.40434000  1
  H  H13  1  0.61144100  0.85214400  0.90434000  1
  H  H14  1  0.88855900  0.64785600  0.40434000  1
  H  H15  1  0.12082500  0.34517100  0.76102300  1
  H  H16  1  0.11144100  0.35214400  0.59566000  1
  H  H17  1  0.50000000  0.44158400  0.06572500  1
  H  H18  1  0.87857100  0.93464100  0.32879200  1
  H  H19  1  0.38855900  0.14785600  0.09566000  1
  H  H20  1  0.62142900  0.43464100  0.17120800  1
  H  H21  1  0.37917500  0.15482900  0.26102300  1
  H  H22  1  0.00000000  0.46433800  0.28228300  1
  H  H23  1  0.37917500  0.84517100  0.73897700  1
  H  H24  1  0.12142900  0.06535900  0.67120800  1
  H  H25  1  0.00000000  0.05841600  0.56572500  1
  H  H26  1  0.87917500  0.34517100  0.76102300  1
  H  H27  1  0.50000000  0.03566200  0.78228300  1
  H  H28  1  0.62082500  0.84517100  0.73897700  1
  H  H29  1  0.37857100  0.43464100  0.17120800  1
  H  H30  1  0.88855900  0.35214400  0.59566000  1
  H  H31  1  0.00000000  0.53566200  0.71771700  1
  C  C0  1  0.00000000  0.60944400  0.27533600  1
  C  C1  1  0.00000000  0.10990100  0.63523800  1
  C  C2  1  0.50000000  0.89055600  0.77533600  1
  C  C3  1  0.50000000  0.10944400  0.22466400  1
  C  C4  1  0.50000000  0.60990100  0.86476200  1
  C  C5  1  0.00000000  0.89009900  0.36476200  1
  C  C6  1  0.50000000  0.39009900  0.13523800  1
  C  C7  1  0.00000000  0.39055600  0.72466400  1
  N  N0  1  0.00000000  0.69151100  0.36773600  1
  N  N1  1  0.00000000  0.30848900  0.63226400  1
  N  N2  1  0.50000000  0.19151100  0.13226400  1
  N  N3  1  0.50000000  0.80848900  0.86773600  1
  Cl  Cl0  1  0.25811600  0.30804300  0.43662600  1
  Cl  Cl1  1  0.75811600  0.19195700  0.93662600  1
  Cl  Cl2  1  0.50000000  0.32155600  0.64185200  1
  Cl  Cl3  1  0.75811600  0.80804300  0.06337400  1
  Cl  Cl4  1  0.50000000  0.67844400  0.35814800  1
  Cl  Cl5  1  0.25811600  0.69195700  0.56337400  1
  Cl  Cl6  1  0.74188400  0.69195700  0.56337400  1
  Cl  Cl7  1  0.24188400  0.19195700  0.93662600  1
  Cl  Cl8  1  0.00000000  0.82155600  0.85814800  1
  Cl  Cl9  1  0.24188400  0.80804300  0.06337400  1
  Cl  Cl10  1  0.74188400  0.30804300  0.43662600  1
  Cl  Cl11  1  0.00000000  0.17844400  0.14185200  1
loop_
_geom_bond_atom_site_label_1
_geom_bond_atom_site_label_2
_geom_bond_distance
_geom_bond_site_symmetry_2
H8 N3 1.036595 1_555
H11 N2 1.036595 1_555
H12 N0 1.036595 1_555
H13 N3 1.036595 1_555
H14 N0 1.036595 1_655
H16 N1 1.036595 1_555
H19 N2 1.036595 1_555
H30 N1 1.036595 1_655
C0 H22 1.093494 1_555
C0 H1 1.094681 1_555
C0 H0 1.094681 1_455
C0 N0 1.490779 1_555
C1 H25 1.091993 1_555
C1 H24 1.093605 1_555
C1 H4 1.093605 1_455
C1 N1 1.490631 1_555
C2 H27 1.093494 1_565
C2 H28 1.094681 1_555
C2 H23 1.094681 1_555
C2 N3 1.490779 1_555
C3 H6 1.093494 1_545
C3 H10 1.094681 1_555
C3 H21 1.094681 1_555
C3 N2 1.490779 1_555
C4 H3 1.091993 1_555
C4 H5 1.093605 1_555
C4 H9 1.093605 1_555
C4 N3 1.490631 1_555
C5 H2 1.091993 1_555
C5 H7 1.093605 1_555
C5 H18 1.093605 1_455
C5 N0 1.490631 1_555
C6 H17 1.091993 1_555
C6 H29 1.093605 1_555
C6 H20 1.093605 1_555
C6 N2 1.490631 1_555
C7 H31 1.093494 1_555
C7 H15 1.094681 1_555
C7 H26 1.094681 1_455
C7 N1 1.490779 1_555
Cl0 Sn1 2.476976 1_555
Cl1 Sn0 2.476976 1_656
Cl2 Sn1 2.477259 1_555
Cl3 Sn0 2.476976 1_665
Cl4 Sn1 2.477259 1_555
Cl5 Sn1 2.476976 1_555
Cl6 Sn1 2.476976 1_555
Cl7 Sn0 2.476976 1_556
Cl8 Sn0 2.477259 1_566
Cl9 Sn0 2.476976 1_565
Cl10 Sn1 2.476976 1_555
Cl11 Sn0 2.477259 1_555
