# generated using pymatgen
data_SrSi7N10
_symmetry_space_group_name_H-M   'P 1'
_cell_length_a   6.72778808
_cell_length_b   6.83504655
_cell_length_c   9.60918669
_cell_angle_alpha   73.85418394
_cell_angle_beta   90.00000000
_cell_angle_gamma   90.00000000
_symmetry_Int_Tables_number   1
_chemical_formula_structural   SrSi7N10
_chemical_formula_sum   'Sr2 Si14 N20'
_cell_volume   424.44712354
_cell_formula_units_Z   2
loop_
 _symmetry_equiv_pos_site_id
 _symmetry_equiv_pos_as_xyz
  1  'x, y, z'
loop_
 _atom_site_type_symbol
 _atom_site_label
 _atom_site_symmetry_multiplicity
 _atom_site_fract_x
 _atom_site_fract_y
 _atom_site_fract_z
 _atom_site_occupancy
  Sr  Sr0  1  0.94802952  0.95117567  0.33493259  1
  Sr  Sr1  1  0.05197048  0.95117567  0.83493259  1
  Si  Si0  1  0.02605811  0.53915857  0.17170492  1
  Si  Si1  1  0.39502084  0.10914420  0.42622357  1
  Si  Si2  1  0.38079082  0.29638880  0.11599569  1
  Si  Si3  1  0.02670415  0.35398624  0.48358516  1
  Si  Si4  1  0.62333419  0.84957293  0.69058593  1
  Si  Si5  1  0.37057153  0.48417262  0.81220849  1
  Si  Si6  1  0.63496982  0.66612175  0.00677513  1
  Si  Si7  1  0.61920918  0.29638880  0.61599569  1
  Si  Si8  1  0.36503018  0.66612175  0.50677513  1
  Si  Si9  1  0.62942847  0.48417262  0.31220849  1
  Si  Si10  1  0.60497916  0.10914420  0.92622357  1
  Si  Si11  1  0.97394189  0.53915857  0.67170492  1
  Si  Si12  1  0.37666581  0.84957293  0.19058593  1
  Si  Si13  1  0.97329585  0.35398624  0.98358516  1
  N  N0  1  0.16608491  0.15570988  0.47920664  1
  N  N1  1  0.12984062  0.31886445  0.13538292  1
  N  N2  1  0.38245411  0.88796998  0.36673169  1
  N  N3  1  0.86858225  0.56866129  0.02244402  1
  N  N4  1  0.42229143  0.07917397  0.06134739  1
  N  N5  1  0.15701692  0.74642117  0.16911895  1
  N  N6  1  0.49859491  0.28687304  0.27555880  1
  N  N7  1  0.58483309  0.70424885  0.17529575  1
  N  N8  1  0.57770857  0.07917397  0.56134739  1
  N  N9  1  0.84298308  0.74642117  0.66911895  1
  N  N10  1  0.50140509  0.28687304  0.77555880  1
  N  N11  1  0.61754589  0.88796998  0.86673169  1
  N  N12  1  0.83391509  0.15570988  0.97920664  1
  N  N13  1  0.88259972  0.44572478  0.32760989  1
  N  N14  1  0.87015938  0.31886445  0.63538292  1
  N  N15  1  0.11740028  0.44572478  0.82760989  1
  N  N16  1  0.53808693  0.49892981  0.47598845  1
  N  N17  1  0.41516691  0.70424885  0.67529575  1
  N  N18  1  0.46191307  0.49892981  0.97598845  1
  N  N19  1  0.13141775  0.56866129  0.52244402  1
loop_
_geom_bond_atom_site_label_1
_geom_bond_atom_site_label_2
_geom_bond_distance
_geom_bond_site_symmetry_2
N0 Si3 1.658147 1_555
N0 Si1 1.680163 1_555
N0 Sr0 2.665800 1_445
N1 Si2 1.710179 1_555
N1 Si13 1.760619 1_454
N1 Si0 1.780117 1_555
N1 Sr0 2.967975 1_445
N2 Si8 1.728894 1_555
N2 Si1 1.760666 1_565
N2 Si12 1.783931 1_555
N2 Sr0 2.957847 1_455
N3 Si6 1.697311 1_555
N3 Si0 1.749119 1_655
N3 Si13 1.758826 1_554
N3 Sr1 2.997406 1_654
N4 Si2 1.729618 1_555
N4 Si12 1.736482 1_545
N4 Si10 1.758011 1_554
N5 Si0 1.662591 1_555
N5 Si12 1.674598 1_555
N5 Sr0 2.777484 1_455
N5 Sr1 3.204803 1_554
N6 Si2 1.711094 1_555
N6 Si9 1.726715 1_555
N6 Si1 1.754751 1_555
N7 Si9 1.727117 1_555
N7 Si6 1.743180 1_555
N7 Si12 1.746656 1_555
N8 Si7 1.729618 1_555
N8 Si4 1.736482 1_545
N8 Si1 1.758011 1_555
N9 Si11 1.662591 1_555
N9 Si4 1.674598 1_555
N9 Sr1 2.777484 1_655
N9 Sr0 3.204803 1_555
N10 Si7 1.711094 1_555
N10 Si5 1.726715 1_555
N10 Si10 1.754751 1_555
N11 Si6 1.728894 1_556
N11 Si10 1.760666 1_565
N11 Si4 1.783931 1_555
N11 Sr1 2.957847 1_655
N12 Si13 1.658147 1_555
N12 Si10 1.680163 1_555
N12 Sr1 2.665800 1_645
N13 Si9 1.723515 1_555
N13 Si0 1.746892 1_655
N13 Si3 1.748376 1_655
N14 Si7 1.710179 1_555
N14 Si3 1.760619 1_655
N14 Si11 1.780117 1_555
N14 Sr1 2.967975 1_645
N15 Si5 1.723515 1_555
N15 Si11 1.746892 1_455
N15 Si13 1.748376 1_455
N16 Si8 1.713774 1_555
N16 Si9 1.718408 1_555
N16 Si7 1.728729 1_555
N17 Si5 1.727117 1_555
N17 Si8 1.743180 1_555
N17 Si4 1.746656 1_555
N18 Si6 1.713774 1_556
N18 Si5 1.718408 1_555
N18 Si2 1.728729 1_556
N19 Si8 1.697311 1_555
N19 Si11 1.749119 1_455
N19 Si3 1.758826 1_555
N19 Sr0 2.997406 1_455
