# generated using pymatgen
data_U2NiO6
_symmetry_space_group_name_H-M   'P 1'
_cell_length_a   9.15091314
_cell_length_b   9.15091314
_cell_length_c   5.02873400
_cell_angle_alpha   90.00000000
_cell_angle_beta   90.00000000
_cell_angle_gamma   119.99999379
_symmetry_Int_Tables_number   1
_chemical_formula_structural   U2NiO6
_chemical_formula_sum   'U6 Ni3 O18'
_cell_volume   364.68524213
_cell_formula_units_Z   3
loop_
 _symmetry_equiv_pos_site_id
 _symmetry_equiv_pos_as_xyz
  1  'x, y, z'
loop_
 _atom_site_type_symbol
 _atom_site_label
 _atom_site_symmetry_multiplicity
 _atom_site_fract_x
 _atom_site_fract_y
 _atom_site_fract_z
 _atom_site_occupancy
  U  U0  1  0.64661500  0.00000000  0.00000000  1
  U  U1  1  0.00000000  0.64661500  0.00000000  1
  U  U2  1  0.35338500  0.35338500  0.00000000  1
  U  U3  1  0.31254800  0.00000000  0.50000000  1
  U  U4  1  0.00000000  0.31254800  0.50000000  1
  U  U5  1  0.68745200  0.68745200  0.50000000  1
  Ni  Ni0  1  0.00000000  0.00000000  0.00000000  1
  Ni  Ni1  1  0.33333300  0.66666700  0.50457300  1
  Ni  Ni2  1  0.66666700  0.33333300  0.49542700  1
  O  O0  1  0.10021900  0.87752000  0.77667900  1
  O  O1  1  0.12248000  0.22269900  0.77667900  1
  O  O2  1  0.77730100  0.89978100  0.77667900  1
  O  O3  1  0.22269900  0.12248000  0.22332100  1
  O  O4  1  0.89978100  0.77730100  0.22332100  1
  O  O5  1  0.87752000  0.10021900  0.22332100  1
  O  O6  1  0.45487000  0.56667200  0.73515400  1
  O  O7  1  0.43332800  0.88819800  0.73515400  1
  O  O8  1  0.11180200  0.54513000  0.73515400  1
  O  O9  1  0.88819800  0.43332800  0.26484600  1
  O  O10  1  0.54513000  0.11180200  0.26484600  1
  O  O11  1  0.56667200  0.45487000  0.26484600  1
  O  O12  1  0.22005800  0.77504100  0.27396900  1
  O  O13  1  0.22495900  0.44501700  0.27396900  1
  O  O14  1  0.55498300  0.77994200  0.27396900  1
  O  O15  1  0.44501700  0.22495900  0.72603100  1
  O  O16  1  0.77994200  0.55498300  0.72603100  1
  O  O17  1  0.77504100  0.22005800  0.72603100  1
loop_
_geom_bond_atom_site_label_1
_geom_bond_atom_site_label_2
_geom_bond_distance
_geom_bond_site_symmetry_2
Ni0 O5 2.094356 1_455
Ni0 O0 2.094356 1_544
Ni0 O4 2.094356 1_445
Ni0 O2 2.094356 1_444
Ni0 O1 2.094356 1_554
Ni0 O3 2.094356 1_555
Ni1 O12 2.104936 1_555
Ni1 O14 2.104942 1_555
Ni1 O13 2.104943 1_555
Ni1 O7 2.106280 1_555
Ni1 O8 2.106280 1_555
Ni1 O6 2.106286 1_555
Ni2 O17 2.104936 1_555
Ni2 O16 2.104942 1_555
Ni2 O15 2.104943 1_555
Ni2 O9 2.106280 1_555
Ni2 O10 2.106280 1_555
Ni2 O11 2.106286 1_555
O0 U1 2.151549 1_556
O0 U3 2.188511 1_565
O1 U2 2.151549 1_556
O1 U4 2.188511 1_555
O2 U0 2.151548 1_566
O2 U5 2.188511 1_555
O3 U2 2.151549 1_555
O3 U3 2.188511 1_555
O4 U1 2.151548 1_655
O4 U5 2.188511 1_555
O5 U0 2.151549 1_555
O5 U4 2.188511 1_655
O6 U2 2.152460 1_556
O6 U5 2.190302 1_555
O7 U0 2.152460 1_566
O7 U3 2.190302 1_565
O8 U1 2.152460 1_556
O8 U4 2.190302 1_555
O9 U1 2.152460 1_655
O9 U4 2.190302 1_655
O10 U0 2.152460 1_555
O10 U3 2.190302 1_555
O11 U2 2.152460 1_555
O11 U5 2.190302 1_555
O12 U3 2.122204 1_565
O12 U1 2.228852 1_555
O13 U4 2.122204 1_555
O13 U2 2.228852 1_555
O14 U5 2.122203 1_555
O14 U0 2.228852 1_565
O15 U3 2.122204 1_555
O15 U2 2.228852 1_556
O16 U5 2.122203 1_555
O16 U1 2.228852 1_656
O17 U4 2.122204 1_655
O17 U0 2.228852 1_556
