# generated using pymatgen
data_Co5RuO8
_symmetry_space_group_name_H-M   'P 1'
_cell_length_a   6.05661139
_cell_length_b   5.97311469
_cell_length_c   29.87694314
_cell_angle_alpha   60.00842886
_cell_angle_beta   60.40404974
_cell_angle_gamma   60.23618732
_symmetry_Int_Tables_number   1
_chemical_formula_structural   Co5RuO8
_chemical_formula_sum   'Co25 Ru5 O40'
_cell_volume   768.00190376
_cell_formula_units_Z   5
loop_
 _symmetry_equiv_pos_site_id
 _symmetry_equiv_pos_as_xyz
  1  'x, y, z'
loop_
 _atom_site_type_symbol
 _atom_site_label
 _atom_site_symmetry_multiplicity
 _atom_site_fract_x
 _atom_site_fract_y
 _atom_site_fract_z
 _atom_site_occupancy
  Co  Co0  1  0.12636035  0.10729050  0.02632962  1
  Co  Co1  1  0.00000000  0.50000000  0.10000000  1
  Co  Co2  1  0.49980344  0.49492497  0.00106248  1
  Co  Co3  1  0.10384429  0.12801317  0.22704075  1
  Co  Co4  1  0.50000000  0.50000000  0.10000000  1
  Co  Co5  1  0.50019656  0.50507503  0.19893752  1
  Co  Co6  1  0.10161638  0.13366933  0.42641736  1
  Co  Co7  1  0.50535550  0.49609543  0.29970457  1
  Co  Co8  1  0.87363965  0.89270950  0.17367038  1
  Co  Co9  1  0.50414878  0.49876163  0.39971107  1
  Co  Co10  1  0.09688943  0.13460606  0.62687657  1
  Co  Co11  1  0.50480250  -0.00068718  0.29939636  1
  Co  Co12  1  0.50253037  0.50000115  0.49955975  1
  Co  Co13  1  0.90735123  0.86303121  0.37277681  1
  Co  Co14  1  0.50273191  -0.00111994  0.49974461  1
  Co  Co15  1  0.09264877  0.13696879  0.82722319  1
  Co  Co16  1  0.50000000  0.50000000  0.60000000  1
  Co  Co17  1  0.49746963  0.49999885  0.70044025  1
  Co  Co18  1  0.49519750  1.00068718  0.90060364  1
  Co  Co19  1  0.49726809  1.00111994  0.70025539  1
  Co  Co20  1  0.90311057  0.86539394  0.57312343  1
  Co  Co21  1  0.49585122  0.50123837  0.80028893  1
  Co  Co22  1  0.49464450  0.50390457  0.90029543  1
  Co  Co23  1  0.89838362  0.86633067  0.77358264  1
  Co  Co24  1  0.89615571  0.87198683  0.97295925  1
  O  O0  1  0.26458235  0.23743320  0.05305431  1
  O  O1  1  0.26500863  0.23773064  0.14639815  1
  O  O2  1  0.26321129  0.70954220  0.05367658  1
  O  O3  1  0.72755324  0.24043134  0.05302548  1
  O  O4  1  0.27244676  0.75956866  0.14697452  1
  O  O5  1  0.23934389  0.26709311  0.25259658  1
  O  O6  1  0.73678871  0.29045780  0.14632342  1
  O  O7  1  0.73499137  0.76226936  0.05360185  1
  O  O8  1  0.24151076  0.26295246  0.34565100  1
  O  O9  1  0.24343072  0.72378575  0.25348870  1
  O  O10  1  0.70976657  0.25999429  0.25375634  1
  O  O11  1  0.73541765  0.76256680  0.14694569  1
  O  O12  1  0.30175647  0.73179820  0.34629834  1
  O  O13  1  0.24105104  0.26868711  0.45221256  1
  O  O14  1  0.76270043  0.73274300  0.25444726  1
  O  O15  1  0.76659938  0.26732119  0.34572888  1
  O  O16  1  0.23926308  0.26485753  0.54600100  1
  O  O17  1  0.23909019  0.72976677  0.45320194  1
  O  O18  1  0.76806695  0.72662892  0.34714902  1
  O  O19  1  0.70844198  0.26433852  0.45256789  1
  O  O20  1  0.29669797  0.73344984  0.54702585  1
  O  O21  1  0.23503093  0.26938544  0.65301188  1
  O  O22  1  0.76638138  0.26981155  0.54622590  1
  O  O23  1  0.76678119  0.73315337  0.45355146  1
  O  O24  1  0.23321881  0.26684663  0.74644854  1
  O  O25  1  0.23361862  0.73018845  0.65377410  1
  O  O26  1  0.76496907  0.73061456  0.54698812  1
  O  O27  1  0.70330203  0.26655016  0.65297415  1
  O  O28  1  0.23193305  0.27337108  0.85285098  1
  O  O29  1  0.29155802  0.73566148  0.74743211  1
  O  O30  1  0.76073692  0.73514247  0.65399900  1
  O  O31  1  0.76090981  0.27023323  0.74679806  1
  O  O32  1  0.23729957  0.26725700  0.94555274  1
  O  O33  1  0.23340062  0.73267881  0.85427112  1
  O  O34  1  0.69824353  0.26820180  0.85370166  1
  O  O35  1  0.75894896  0.73131289  0.74778744  1
  O  O36  1  0.29023343  0.74000571  0.94624366  1
  O  O37  1  0.75656928  0.27621425  0.94651130  1
  O  O38  1  0.75848924  0.73704754  0.85434900  1
  O  O39  1  0.76065611  0.73290689  0.94740342  1
  Ru  Ru0  1  0.50000000  0.00000000  0.10000000  1
  Ru  Ru1  1  0.00297945  0.49904047  0.49985087  1
  Ru  Ru2  1  1.00322437  0.49590075  0.29999578  1
  Ru  Ru3  1  -0.00322437  0.50409925  0.90000422  1
  Ru  Ru4  1  0.99702055  0.50095953  0.70014913  1
loop_
_geom_bond_atom_site_label_1
_geom_bond_atom_site_label_2
_geom_bond_distance
_geom_bond_site_symmetry_2
Co0 O2 1.942200 1_545
Co0 O0 1.967113 1_555
Co0 O32 1.979671 1_554
Co0 O3 1.981636 1_455
Co1 O2 2.023187 1_555
Co1 O6 2.023187 1_455
Co1 O11 2.116294 1_455
Co1 O0 2.116294 1_555
Co1 O7 2.117121 1_455
Co1 O1 2.117121 1_555
Co2 O2 2.033118 1_555
Co2 O36 2.061100 1_554
Co2 O3 2.073111 1_555
Co2 O37 2.095086 1_554
Co2 O0 2.099795 1_555
Co2 O39 2.129890 1_554
Co3 O10 1.958174 1_455
Co3 O5 1.968899 1_555
Co3 O9 1.973499 1_545
Co3 O1 1.980102 1_555
Co4 O2 1.996335 1_555
Co4 O6 1.996335 1_555
Co4 O4 2.101493 1_555
Co4 O3 2.101493 1_555
Co4 O1 2.120191 1_555
Co4 O7 2.120191 1_555
Co5 O6 2.033118 1_555
Co5 O10 2.061100 1_555
Co5 O4 2.073111 1_555
Co5 O9 2.095086 1_555
Co5 O11 2.099795 1_555
Co5 O5 2.129890 1_555
Co6 O19 1.953665 1_455
Co6 O17 1.971724 1_545
Co6 O13 1.974334 1_555
Co6 O8 1.975904 1_555
Co7 O10 1.982268 1_555
Co7 O12 1.995172 1_555
Co7 O15 2.094155 1_555
Co7 O9 2.101657 1_555
Co7 O14 2.109646 1_555
Co7 O8 2.123400 1_555
Co8 O6 1.942200 1_565
Co8 O11 1.967113 1_555
Co8 O14 1.979671 1_555
Co8 O4 1.981636 1_655
Co9 O19 1.996177 1_555
Co9 O12 2.001043 1_555
Co9 O18 2.101765 1_555
Co9 O13 2.106757 1_555
Co9 O17 2.122797 1_555
Co9 O15 2.134006 1_555
Co10 O27 1.955693 1_455
Co10 O25 1.974165 1_545
Co10 O21 1.974933 1_555
Co10 O16 1.978887 1_555
Co11 O10 1.987294 1_555
Co11 O12 2.009851 1_545
Co11 O14 2.091659 1_545
Co11 O8 2.106708 1_555
Co11 O5 2.128329 1_555
Co11 O18 2.139188 1_545
Co12 O19 2.002809 1_555
Co12 O20 2.003603 1_555
Co12 O17 2.110926 1_555
Co12 O22 2.119170 1_555
Co12 O23 2.125207 1_555
Co12 O16 2.128444 1_555
Co13 O12 1.959774 1_655
Co13 O15 1.974065 1_565
Co13 O23 1.976173 1_555
Co13 O18 1.976313 1_555
Co14 O19 2.011363 1_555
Co14 O20 2.012545 1_545
Co14 O23 2.114520 1_545
Co14 O16 2.116598 1_555
Co14 O26 2.123424 1_545
Co14 O13 2.127212 1_555
Co15 O34 1.959774 1_455
Co15 O33 1.974065 1_545
Co15 O24 1.976173 1_555
Co15 O28 1.976313 1_555
Co16 O20 1.994839 1_555
Co16 O27 1.994839 1_555
Co16 O26 2.117648 1_555
Co16 O21 2.117648 1_555
Co16 O22 2.126095 1_555
Co16 O25 2.126095 1_555
Co17 O29 2.002809 1_555
Co17 O27 2.003603 1_555
Co17 O31 2.110926 1_555
Co17 O25 2.119170 1_555
Co17 O24 2.125207 1_555
Co17 O30 2.128444 1_555
Co18 O36 1.987294 1_555
Co18 O34 2.009851 1_565
Co18 O32 2.091659 1_565
Co18 O38 2.106708 1_555
Co18 O39 2.128329 1_555
Co18 O28 2.139188 1_565
Co19 O29 2.011363 1_555
Co19 O27 2.012545 1_565
Co19 O24 2.114520 1_565
Co19 O30 2.116598 1_555
Co19 O21 2.123424 1_565
Co19 O35 2.127212 1_555
Co20 O20 1.955693 1_655
Co20 O22 1.974165 1_565
Co20 O26 1.974933 1_555
Co20 O30 1.978887 1_555
Co21 O29 1.996177 1_555
Co21 O34 2.001043 1_555
Co21 O28 2.101765 1_555
Co21 O35 2.106757 1_555
Co21 O31 2.122797 1_555
Co21 O33 2.134006 1_555
Co22 O36 1.982268 1_555
Co22 O34 1.995172 1_555
Co22 O33 2.094155 1_555
Co22 O37 2.101657 1_555
Co22 O32 2.109646 1_555
Co22 O38 2.123400 1_555
Co23 O29 1.953665 1_655
Co23 O31 1.971724 1_565
Co23 O35 1.974334 1_555
Co23 O38 1.975904 1_555
Co24 O36 1.958174 1_655
Co24 O39 1.968899 1_555
Co24 O37 1.973499 1_565
Co24 O7 1.980102 1_556
O0 Ru0 1.997658 1_555
O1 Ru0 1.994051 1_555
O3 Ru0 1.992763 1_555
O4 Ru0 1.992763 1_565
O5 Ru2 1.977995 1_455
O7 Ru0 1.994051 1_565
O8 Ru2 1.983123 1_455
O9 Ru2 1.994639 1_455
O11 Ru0 1.997658 1_565
O13 Ru1 1.989711 1_555
O14 Ru2 1.990668 1_555
O15 Ru2 1.982025 1_555
O16 Ru1 1.984729 1_555
O17 Ru1 1.988600 1_555
O18 Ru2 1.980619 1_555
O21 Ru4 1.984236 1_455
O22 Ru1 1.984480 1_655
O23 Ru1 1.987478 1_655
O24 Ru4 1.987478 1_455
O25 Ru4 1.984480 1_455
O26 Ru1 1.984236 1_655
O28 Ru3 1.980619 1_555
O30 Ru4 1.984729 1_555
O31 Ru4 1.988600 1_555
O32 Ru3 1.990668 1_555
O33 Ru3 1.982025 1_555
O35 Ru4 1.989711 1_555
O37 Ru3 1.994639 1_655
O38 Ru3 1.983123 1_655
O39 Ru3 1.977995 1_655
