# generated using pymatgen
data_Ba8Re2(WO8)3
_symmetry_space_group_name_H-M   'P 1'
_cell_length_a   19.72453100
_cell_length_b   19.72453100
_cell_length_c   19.72453111
_cell_angle_alpha   16.98919020
_cell_angle_beta   16.98919020
_cell_angle_gamma   16.98918987
_symmetry_Int_Tables_number   1
_chemical_formula_structural   Ba8Re2(WO8)3
_chemical_formula_sum   'Ba8 Re2 W3 O24'
_cell_volume   571.55120848
_cell_formula_units_Z   1
loop_
 _symmetry_equiv_pos_site_id
 _symmetry_equiv_pos_as_xyz
  1  'x, y, z'
loop_
 _atom_site_type_symbol
 _atom_site_label
 _atom_site_symmetry_multiplicity
 _atom_site_fract_x
 _atom_site_fract_y
 _atom_site_fract_z
 _atom_site_occupancy
  Ba  Ba0  1  0.72915600  0.72915600  0.72915600  1
  Ba  Ba1  1  0.81540100  0.81540100  0.81540100  1
  Ba  Ba2  1  0.88499700  0.88499700  0.88499700  1
  Ba  Ba3  1  0.11500300  0.11500300  0.11500300  1
  Ba  Ba4  1  0.27084400  0.27084400  0.27084400  1
  Ba  Ba5  1  0.35067800  0.35067800  0.35067800  1
  Ba  Ba6  1  0.64932200  0.64932200  0.64932200  1
  Ba  Ba7  1  0.18459900  0.18459900  0.18459900  1
  Re  Re0  1  0.96093000  0.96093000  0.96093000  1
  Re  Re1  1  0.03907000  0.03907000  0.03907000  1
  W  W0  1  0.41653600  0.41653600  0.41653600  1
  W  W1  1  0.58346400  0.58346400  0.58346400  1
  W  W2  1  0.50000000  0.50000000  0.50000000  1
  O  O0  1  0.33094000  0.86787800  0.86787800  1
  O  O1  1  0.67903500  0.19851200  0.67903500  1
  O  O2  1  0.22309800  0.72989600  0.22309800  1
  O  O3  1  0.80148800  0.32096500  0.32096500  1
  O  O4  1  0.11253000  0.59027900  0.59027900  1
  O  O5  1  0.27010400  0.77690200  0.77690200  1
  O  O6  1  0.19851200  0.67903500  0.67903500  1
  O  O7  1  0.59027900  0.11253000  0.59027900  1
  O  O8  1  0.40972100  0.88747000  0.40972100  1
  O  O9  1  0.32096500  0.32096500  0.80148800  1
  O  O10  1  0.40972100  0.40972100  0.88747000  1
  O  O11  1  0.59027900  0.59027900  0.11253000  1
  O  O12  1  0.32096500  0.80148800  0.32096500  1
  O  O13  1  0.22309800  0.22309800  0.72989600  1
  O  O14  1  0.66906000  0.13212200  0.13212200  1
  O  O15  1  0.67903500  0.67903500  0.19851200  1
  O  O16  1  0.86787800  0.86787800  0.33094000  1
  O  O17  1  0.77690200  0.27010400  0.77690200  1
  O  O18  1  0.88747000  0.40972100  0.40972100  1
  O  O19  1  0.72989600  0.22309800  0.22309800  1
  O  O20  1  0.86787800  0.33094000  0.86787800  1
  O  O21  1  0.13212200  0.13212200  0.66906000  1
  O  O22  1  0.13212200  0.66906000  0.13212200  1
  O  O23  1  0.77690200  0.77690200  0.27010400  1
loop_
_geom_bond_atom_site_label_1
_geom_bond_atom_site_label_2
_geom_bond_distance
_geom_bond_site_symmetry_2
Ba0 O4 2.702055 1_655
Ba0 O7 2.702055 1_565
Ba0 O11 2.702055 1_556
Ba0 O13 2.922097 1_655
Ba0 O13 2.922097 1_565
Ba0 O19 2.922097 1_556
Ba0 O2 2.922097 1_556
Ba0 O2 2.922097 1_655
Ba0 O19 2.922097 1_565
Ba0 O0 2.961914 1_555
Ba0 O20 2.961914 1_555
Ba0 O16 2.961914 1_555
Ba1 O1 2.767071 1_565
Ba1 O6 2.767071 1_655
Ba1 O15 2.767071 1_556
Ba1 O9 2.914870 1_655
Ba1 O9 2.914870 1_565
Ba1 O3 2.914870 1_565
Ba1 O12 2.914870 1_655
Ba1 O12 2.914870 1_556
Ba1 O3 2.914870 1_556
Ba2 O15 2.590877 1_556
Ba2 O6 2.590877 1_655
Ba2 O1 2.590877 1_565
Ba2 O10 3.084340 1_655
Ba2 O10 3.084340 1_565
Ba2 O8 3.084340 1_655
Ba2 O18 3.084340 1_565
Ba2 O18 3.084340 1_556
Ba2 O8 3.084340 1_556
Ba3 O9 2.590877 1_554
Ba3 O3 2.590877 1_455
Ba3 O12 2.590877 1_545
Ba3 O11 3.084340 1_455
Ba3 O11 3.084340 1_545
Ba3 O7 3.084340 1_455
Ba3 O4 3.084340 1_545
Ba3 O4 3.084340 1_554
Ba3 O7 3.084340 1_554
Ba4 O18 2.702055 1_455
Ba4 O8 2.702055 1_545
Ba4 O10 2.702055 1_554
Ba4 O23 2.922097 1_455
Ba4 O23 2.922097 1_545
Ba4 O17 2.922097 1_554
Ba4 O5 2.922097 1_554
Ba4 O17 2.922097 1_455
Ba4 O5 2.922097 1_545
Ba4 O22 2.961914 1_555
Ba4 O14 2.961914 1_555
Ba4 O21 2.961914 1_555
Ba5 O16 2.930170 1_455
Ba5 O16 2.930170 1_545
Ba5 O0 2.930170 1_554
Ba5 O20 2.930170 1_554
Ba5 O20 2.930170 1_455
Ba5 O0 2.930170 1_545
Ba5 O21 2.930563 1_555
Ba5 O22 2.930563 1_555
Ba5 O14 2.930563 1_555
Ba5 O2 2.953092 1_555
Ba5 O19 2.953092 1_555
Ba5 O13 2.953092 1_555
Ba6 O21 2.930170 1_565
Ba6 O21 2.930170 1_655
Ba6 O22 2.930170 1_556
Ba6 O14 2.930170 1_556
Ba6 O14 2.930170 1_565
Ba6 O22 2.930170 1_655
Ba6 O16 2.930563 1_555
Ba6 O0 2.930563 1_555
Ba6 O20 2.930563 1_555
Ba6 O5 2.953092 1_555
Ba6 O17 2.953092 1_555
Ba6 O23 2.953092 1_555
Ba7 O3 2.767071 1_455
Ba7 O12 2.767071 1_545
Ba7 O9 2.767071 1_554
Ba7 O15 2.914870 1_545
Ba7 O15 2.914870 1_455
Ba7 O1 2.914870 1_455
Ba7 O6 2.914870 1_545
Ba7 O1 2.914870 1_554
Ba7 O6 2.914870 1_554
O0 Re1 1.841454 1_566
O1 W2 1.955229 1_555
O2 Re1 2.015683 1_565
O2 W0 2.224577 1_555
O3 W2 1.955229 1_555
O4 W0 1.815933 1_555
O5 Re0 2.015683 1_455
O5 W1 2.224577 1_555
O6 W2 1.955229 1_555
O7 W0 1.815933 1_555
O8 W1 1.815933 1_555
O9 W2 1.955229 1_555
O10 W1 1.815933 1_555
O11 W0 1.815933 1_555
O12 W2 1.955229 1_555
O13 Re1 2.015683 1_556
O13 W0 2.224577 1_555
O14 Re0 1.841454 1_544
O15 W2 1.955229 1_555
O16 Re1 1.841454 1_665
O17 Re0 2.015683 1_545
O17 W1 2.224577 1_555
O18 W1 1.815933 1_555
O19 Re1 2.015683 1_655
O19 W0 2.224577 1_555
O20 Re1 1.841454 1_656
O21 Re0 1.841454 1_445
O22 Re0 1.841454 1_454
O23 Re0 2.015683 1_554
O23 W1 2.224577 1_555
