# generated using pymatgen
data_CsLi2BS3
_symmetry_space_group_name_H-M   'P 1'
_cell_length_a   8.08448100
_cell_length_b   8.12651100
_cell_length_c   10.11399400
_cell_angle_alpha   90.00000000
_cell_angle_beta   90.00000000
_cell_angle_gamma   90.00000000
_symmetry_Int_Tables_number   1
_chemical_formula_structural   CsLi2BS3
_chemical_formula_sum   'Cs4 Li8 B4 S12'
_cell_volume   664.47548668
_cell_formula_units_Z   4
loop_
 _symmetry_equiv_pos_site_id
 _symmetry_equiv_pos_as_xyz
  1  'x, y, z'
loop_
 _atom_site_type_symbol
 _atom_site_label
 _atom_site_symmetry_multiplicity
 _atom_site_fract_x
 _atom_site_fract_y
 _atom_site_fract_z
 _atom_site_occupancy
  Cs  Cs0  1  0.75000000  0.93960600  0.50615500  1
  Cs  Cs1  1  0.75000000  0.56039400  0.00615500  1
  Cs  Cs2  1  0.25000000  0.06039400  0.49384500  1
  Cs  Cs3  1  0.25000000  0.43960600  0.99384500  1
  Li  Li0  1  0.03852700  0.96382900  0.86816300  1
  Li  Li1  1  0.96147300  0.46382900  0.63183700  1
  Li  Li2  1  0.03852700  0.53617100  0.36816300  1
  Li  Li3  1  0.46147300  0.53617100  0.36816300  1
  Li  Li4  1  0.53852700  0.03617100  0.13183700  1
  Li  Li5  1  0.53852700  0.46382900  0.63183700  1
  Li  Li6  1  0.46147300  0.96382900  0.86816300  1
  Li  Li7  1  0.96147300  0.03617100  0.13183700  1
  B  B0  1  0.25000000  0.65474700  0.66714600  1
  B  B1  1  0.75000000  0.34525300  0.33285400  1
  B  B2  1  0.75000000  0.15474700  0.83285400  1
  B  B3  1  0.25000000  0.84525300  0.16714600  1
  S  S0  1  0.55028300  0.27412200  0.27240600  1
  S  S1  1  0.55028300  0.22587800  0.77240600  1
  S  S2  1  0.25000000  0.48972000  0.54088600  1
  S  S3  1  0.75000000  0.98972000  0.95911400  1
  S  S4  1  0.75000000  0.51028000  0.45911400  1
  S  S5  1  0.94971700  0.22587800  0.77240600  1
  S  S6  1  0.44971700  0.77412200  0.22759400  1
  S  S7  1  0.94971700  0.27412200  0.27240600  1
  S  S8  1  0.25000000  0.01028000  0.04088600  1
  S  S9  1  0.05028300  0.77412200  0.22759400  1
  S  S10  1  0.44971700  0.72587800  0.72759400  1
  S  S11  1  0.05028300  0.72587800  0.72759400  1
loop_
_geom_bond_atom_site_label_1
_geom_bond_atom_site_label_2
_geom_bond_distance
_geom_bond_site_symmetry_2
Cs0 S4 3.521213 1_555
Cs0 S11 3.731762 1_655
Cs0 S10 3.731762 1_555
Cs0 S5 3.907757 1_565
Cs0 S1 3.907757 1_565
Cs0 S7 3.947918 1_565
Cs0 S0 3.947918 1_565
Cs0 S9 3.954674 1_655
Cs0 S6 3.954674 1_555
Cs1 S3 3.521213 1_554
Cs1 S9 3.731762 1_655
Cs1 S6 3.731762 1_555
Cs1 S7 3.907757 1_555
Cs1 S0 3.907757 1_555
Cs1 S5 3.947918 1_554
Cs1 S1 3.947918 1_554
Cs1 S11 3.954674 1_654
Cs1 S10 3.954674 1_554
Cs2 S2 3.521213 1_555
Cs2 S0 3.731762 1_555
Cs2 S7 3.731762 1_455
Cs2 S6 3.907757 1_545
Cs2 S9 3.907757 1_545
Cs2 S10 3.947918 1_545
Cs2 S11 3.947918 1_545
Cs2 S1 3.954674 1_555
Cs2 S5 3.954674 1_455
Cs3 S8 3.521213 1_556
Cs3 S1 3.731762 1_555
Cs3 S5 3.731762 1_455
Cs3 S10 3.907757 1_555
Cs3 S11 3.907757 1_555
Cs3 S6 3.947918 1_556
Cs3 S9 3.947918 1_556
Cs3 S0 3.954674 1_556
Cs3 S7 3.954674 1_456
Li0 S11 2.401987 1_555
Li0 S5 2.447125 1_465
Li0 S8 2.473282 1_566
Li0 S3 2.516232 1_455
Li1 S5 2.401987 1_555
Li1 S11 2.447125 1_655
Li1 S4 2.473282 1_555
Li1 S2 2.516232 1_655
Li2 S9 2.401987 1_555
Li2 S7 2.447125 1_455
Li2 S2 2.473282 1_555
Li2 S4 2.516232 1_455
Li3 S6 2.401987 1_555
Li3 S0 2.447125 1_555
Li3 S2 2.473282 1_555
Li3 S4 2.516232 1_555
Li4 S0 2.401987 1_555
Li4 S6 2.447125 1_545
Li4 S3 2.473282 1_544
Li4 S8 2.516232 1_555
Li5 S1 2.401987 1_555
Li5 S10 2.447125 1_555
Li5 S4 2.473282 1_555
Li5 S2 2.516232 1_555
Li6 S10 2.401987 1_555
Li6 S1 2.447125 1_565
Li6 S8 2.473282 1_566
Li6 S3 2.516232 1_555
Li7 S7 2.401987 1_555
Li7 S9 2.447125 1_645
Li7 S3 2.473282 1_544
Li7 S8 2.516232 1_655
B0 S10 1.820679 1_555
B0 S11 1.820679 1_555
B0 S2 1.851822 1_555
B0 Cs2 3.733506 1_565
B0 Cs3 3.738270 1_555
B1 S7 1.820679 1_555
B1 S0 1.820679 1_555
B1 S4 1.851822 1_555
B1 Cs0 3.733506 1_545
B1 Cs1 3.738270 1_555
B2 S5 1.820679 1_555
B2 S1 1.820679 1_555
B2 S3 1.851822 1_545
B2 Cs1 3.733506 1_556
B2 Cs0 3.738270 1_545
B3 S6 1.820679 1_555
B3 S9 1.820679 1_555
B3 S8 1.851822 1_565
B3 Cs3 3.733506 1_554
B3 Cs2 3.738270 1_565
