# generated using pymatgen
data_Cs2NaCrF6
_symmetry_space_group_name_H-M   'P 1'
_cell_length_a   10.95877648
_cell_length_b   10.95877648
_cell_length_c   10.95877625
_cell_angle_alpha   33.73296597
_cell_angle_beta   33.73296597
_cell_angle_gamma   33.73296618
_symmetry_Int_Tables_number   1
_chemical_formula_structural   Cs2NaCrF6
_chemical_formula_sum   'Cs4 Na2 Cr2 F12'
_cell_volume   361.61482335
_cell_formula_units_Z   2
loop_
 _symmetry_equiv_pos_site_id
 _symmetry_equiv_pos_as_xyz
  1  'x, y, z'
loop_
 _atom_site_type_symbol
 _atom_site_label
 _atom_site_symmetry_multiplicity
 _atom_site_fract_x
 _atom_site_fract_y
 _atom_site_fract_z
 _atom_site_occupancy
  Cs  Cs0  1  0.71800000  0.71800000  0.71800000  1
  Cs  Cs1  1  0.28200000  0.28200000  0.28200000  1
  Cs  Cs2  1  0.87195100  0.87195100  0.87195100  1
  Cs  Cs3  1  0.12804900  0.12804900  0.12804900  1
  Na  Na0  1  0.40322100  0.40322100  0.40322100  1
  Na  Na1  1  0.59677900  0.59677900  0.59677900  1
  Cr  Cr0  1  0.00000000  0.00000000  0.00000000  1
  Cr  Cr1  1  0.50000000  0.50000000  0.50000000  1
  F  F0  1  0.18307900  0.18307900  0.74218700  1
  F  F1  1  0.74218700  0.18307900  0.18307900  1
  F  F2  1  0.18307900  0.74218700  0.18307900  1
  F  F3  1  0.81692100  0.25781300  0.81692100  1
  F  F4  1  0.81692100  0.81692100  0.25781300  1
  F  F5  1  0.25781300  0.81692100  0.81692100  1
  F  F6  1  0.39611500  0.39611500  0.82201400  1
  F  F7  1  0.82201400  0.39611500  0.39611500  1
  F  F8  1  0.17798600  0.60388500  0.60388500  1
  F  F9  1  0.60388500  0.60388500  0.17798600  1
  F  F10  1  0.60388500  0.17798600  0.60388500  1
  F  F11  1  0.39611500  0.82201400  0.39611500  1
loop_
_geom_bond_atom_site_label_1
_geom_bond_atom_site_label_2
_geom_bond_distance
_geom_bond_site_symmetry_2
Cs0 F9 3.188923 1_556
Cs0 F8 3.188923 1_655
Cs0 F10 3.188923 1_565
Cs0 F1 3.221679 1_565
Cs0 F2 3.221679 1_655
Cs0 F2 3.221679 1_556
Cs0 F1 3.221679 1_556
Cs0 F0 3.221679 1_565
Cs0 F0 3.221679 1_655
Cs0 F4 3.398763 1_555
Cs0 F5 3.398763 1_555
Cs0 F3 3.398763 1_555
Cs1 F6 3.188923 1_554
Cs1 F11 3.188923 1_545
Cs1 F7 3.188923 1_455
Cs1 F3 3.221679 1_455
Cs1 F5 3.221679 1_545
Cs1 F3 3.221679 1_554
Cs1 F5 3.221679 1_554
Cs1 F4 3.221679 1_545
Cs1 F4 3.221679 1_455
Cs1 F0 3.398763 1_555
Cs1 F2 3.398763 1_555
Cs1 F1 3.398763 1_555
Cs2 F10 3.176089 1_565
Cs2 F8 3.176089 1_655
Cs2 F9 3.176089 1_556
Cs2 F7 3.191267 1_556
Cs2 F11 3.191267 1_556
Cs2 F11 3.191267 1_655
Cs2 F7 3.191267 1_565
Cs2 F6 3.191267 1_565
Cs2 F6 3.191267 1_655
Cs2 F4 3.275690 1_556
Cs2 F3 3.275690 1_565
Cs2 F5 3.275690 1_655
Cs3 F11 3.176089 1_545
Cs3 F7 3.176089 1_455
Cs3 F6 3.176089 1_554
Cs3 F8 3.191267 1_554
Cs3 F10 3.191267 1_554
Cs3 F8 3.191267 1_545
Cs3 F10 3.191267 1_455
Cs3 F9 3.191267 1_545
Cs3 F9 3.191267 1_455
Cs3 F0 3.275690 1_554
Cs3 F2 3.275690 1_545
Cs3 F1 3.275690 1_455
Cr0 F2 1.967691 1_545
Cr0 F1 1.967691 1_455
Cr0 F5 1.967691 1_544
Cr0 F3 1.967691 1_454
Cr0 F0 1.967691 1_554
Cr0 F4 1.967691 1_445
Cr1 F6 1.958728 1_555
Cr1 F9 1.958728 1_555
Cr1 F11 1.958728 1_555
Cr1 F7 1.958728 1_555
Cr1 F8 1.958728 1_555
Cr1 F10 1.958728 1_555
F0 Na0 2.303967 1_555
F1 Na0 2.303967 1_555
F2 Na0 2.303967 1_555
F3 Na1 2.303967 1_555
F4 Na1 2.303967 1_555
F5 Na1 2.303967 1_555
F6 Na1 2.398146 1_555
F7 Na1 2.398146 1_555
F8 Na0 2.398146 1_555
F9 Na0 2.398146 1_555
F10 Na0 2.398146 1_555
F11 Na1 2.398146 1_555
