# generated using pymatgen
data_CdI2
_symmetry_space_group_name_H-M   'P 1'
_cell_length_a   4.33779504
_cell_length_b   4.33779504
_cell_length_c   89.52674200
_cell_angle_alpha   90.00000000
_cell_angle_beta   90.00000000
_cell_angle_gamma   120.00001585
_symmetry_Int_Tables_number   1
_chemical_formula_structural   CdI2
_chemical_formula_sum   'Cd12 I24'
_cell_volume   1458.88613889
_cell_formula_units_Z   12
loop_
 _symmetry_equiv_pos_site_id
 _symmetry_equiv_pos_as_xyz
  1  'x, y, z'
loop_
 _atom_site_type_symbol
 _atom_site_label
 _atom_site_symmetry_multiplicity
 _atom_site_fract_x
 _atom_site_fract_y
 _atom_site_fract_z
 _atom_site_occupancy
  Cd  Cd0  1  0.00000000  0.00000000  0.02086400  1
  Cd  Cd1  1  0.33333300  0.66666700  0.35417600  1
  Cd  Cd2  1  0.33333300  0.66666700  0.43748300  1
  Cd  Cd3  1  0.33333300  0.66666700  0.10415200  1
  Cd  Cd4  1  0.33333300  0.66666700  0.52083800  1
  Cd  Cd5  1  0.33333300  0.66666700  0.77081700  1
  Cd  Cd6  1  0.33333300  0.66666700  0.85417700  1
  Cd  Cd7  1  0.00000000  0.00000000  0.27082200  1
  Cd  Cd8  1  0.33333300  0.66666700  0.93747900  1
  Cd  Cd9  1  0.00000000  0.00000000  0.60416200  1
  Cd  Cd10  1  0.33333300  0.66666700  0.68751500  1
  Cd  Cd11  1  0.33333300  0.66666700  0.18750800  1
  I  I0  1  0.00000000  0.00000000  0.83494400  1
  I  I1  1  0.66666700  0.33333300  0.79005200  1
  I  I2  1  0.00000000  0.00000000  0.33494300  1
  I  I3  1  0.00000000  0.00000000  0.08491300  1
  I  I4  1  0.66666700  0.33333300  0.45671800  1
  I  I5  1  0.66666700  0.33333300  0.20675100  1
  I  I6  1  0.66666700  0.33333300  0.95671300  1
  I  I7  1  0.00000000  0.00000000  0.91823800  1
  I  I8  1  0.00000000  0.00000000  0.75157800  1
  I  I9  1  0.33333300  0.66666700  0.58492600  1
  I  I10  1  0.66666700  0.33333300  0.54008200  1
  I  I11  1  0.66666700  0.33333300  0.12338700  1
  I  I12  1  0.66666700  0.33333300  0.04010100  1
  I  I13  1  0.33333300  0.66666700  0.00163300  1
  I  I14  1  0.66666700  0.33333300  0.29005500  1
  I  I15  1  0.66666700  0.33333300  0.37341400  1
  I  I16  1  0.66666700  0.33333300  0.62339500  1
  I  I17  1  0.00000000  0.00000000  0.41824300  1
  I  I18  1  0.66666700  0.33333300  0.70675500  1
  I  I19  1  0.33333300  0.66666700  0.25158600  1
  I  I20  1  0.00000000  0.00000000  0.66828100  1
  I  I21  1  0.00000000  0.00000000  0.50160900  1
  I  I22  1  0.00000000  0.00000000  0.16827700  1
  I  I23  1  0.66666700  0.33333300  0.87341500  1
loop_
_geom_bond_atom_site_label_1
_geom_bond_atom_site_label_2
_geom_bond_distance
_geom_bond_site_symmetry_2
Cd0 I13 3.039137 1_545
Cd0 I13 3.039140 1_555
Cd0 I13 3.039140 1_445
Cd0 I12 3.039442 1_455
Cd0 I12 3.039444 1_445
Cd0 I12 3.039444 1_555
Cd1 I2 3.039239 1_565
Cd1 I2 3.039241 1_555
Cd1 I2 3.039241 1_665
Cd1 I15 3.039492 1_455
Cd1 I15 3.039492 1_565
Cd1 I15 3.039499 1_555
Cd2 I4 3.039340 1_565
Cd2 I4 3.039340 1_455
Cd2 I4 3.039346 1_555
Cd2 I17 3.039594 1_565
Cd2 I17 3.039597 1_555
Cd2 I17 3.039597 1_665
Cd3 I11 3.039340 1_455
Cd3 I11 3.039340 1_565
Cd3 I11 3.039346 1_555
Cd3 I3 3.039543 1_565
Cd3 I3 3.039546 1_665
Cd3 I3 3.039546 1_555
Cd4 I21 3.039036 1_565
Cd4 I21 3.039039 1_665
Cd4 I21 3.039039 1_555
Cd4 I10 3.039796 1_565
Cd4 I10 3.039796 1_455
Cd4 I10 3.039803 1_555
Cd5 I1 3.039340 1_565
Cd5 I1 3.039340 1_455
Cd5 I1 3.039346 1_555
Cd5 I8 3.039543 1_565
Cd5 I8 3.039546 1_555
Cd5 I8 3.039546 1_665
Cd6 I0 3.039239 1_565
Cd6 I0 3.039241 1_555
Cd6 I0 3.039241 1_665
Cd6 I23 3.039492 1_455
Cd6 I23 3.039492 1_565
Cd6 I23 3.039499 1_555
Cd7 I14 3.039239 1_455
Cd7 I14 3.039241 1_445
Cd7 I14 3.039241 1_555
Cd7 I19 3.039391 1_545
Cd7 I19 3.039394 1_555
Cd7 I19 3.039394 1_445
Cd8 I6 3.039289 1_455
Cd8 I6 3.039289 1_565
Cd8 I6 3.039296 1_555
Cd8 I7 3.039645 1_565
Cd8 I7 3.039647 1_665
Cd8 I7 3.039647 1_555
Cd9 I16 3.039239 1_455
Cd9 I16 3.039241 1_555
Cd9 I16 3.039241 1_445
Cd9 I9 3.039391 1_545
Cd9 I9 3.039394 1_445
Cd9 I9 3.039394 1_555
Cd10 I20 3.039290 1_565
Cd10 I20 3.039292 1_665
Cd10 I20 3.039292 1_555
Cd10 I18 3.039593 1_455
Cd10 I18 3.039593 1_565
Cd10 I18 3.039600 1_555
Cd11 I22 3.039137 1_565
Cd11 I22 3.039140 1_665
Cd11 I22 3.039140 1_555
Cd11 I5 3.039746 1_565
Cd11 I5 3.039746 1_455
Cd11 I5 3.039752 1_555
