# generated using pymatgen
data_NaLiSiB3HO8
_symmetry_space_group_name_H-M   'P 1'
_cell_length_a   14.01007200
_cell_length_b   6.83414200
_cell_length_c   7.78592042
_cell_angle_alpha   55.58655967
_cell_angle_beta   90.00000000
_cell_angle_gamma   90.00000000
_symmetry_Int_Tables_number   1
_chemical_formula_structural   NaLiSiB3HO8
_chemical_formula_sum   'Na4 Li4 Si4 B12 H4 O32'
_cell_volume   615.00443060
_cell_formula_units_Z   4
loop_
 _symmetry_equiv_pos_site_id
 _symmetry_equiv_pos_as_xyz
  1  'x, y, z'
loop_
 _atom_site_type_symbol
 _atom_site_label
 _atom_site_symmetry_multiplicity
 _atom_site_fract_x
 _atom_site_fract_y
 _atom_site_fract_z
 _atom_site_occupancy
  Na  Na0  1  0.49189300  0.97488800  0.74346100  1
  Na  Na1  1  0.00810700  0.97488800  0.24346100  1
  Na  Na2  1  0.50810700  0.02511200  0.25653900  1
  Na  Na3  1  0.99189300  0.02511200  0.75653900  1
  Li  Li0  1  0.19901500  0.53883400  0.12679500  1
  Li  Li1  1  0.80098500  0.46116600  0.87320500  1
  Li  Li2  1  0.30098500  0.53883400  0.62679500  1
  Li  Li3  1  0.69901500  0.46116600  0.37320500  1
  Si  Si0  1  0.24738000  0.04196900  0.79085000  1
  Si  Si1  1  0.75262000  0.95803100  0.20915000  1
  Si  Si2  1  0.25262000  0.04196900  0.29085000  1
  Si  Si3  1  0.74738000  0.95803100  0.70915000  1
  B  B0  1  0.50703000  0.46318700  0.78411300  1
  B  B1  1  0.15277200  0.76552500  0.68325900  1
  B  B2  1  0.00703000  0.53681300  0.71588700  1
  B  B3  1  0.84900300  0.68276500  0.08434600  1
  B  B4  1  0.49297000  0.53681300  0.21588700  1
  B  B5  1  0.65277200  0.23447500  0.81674100  1
  B  B6  1  0.34900300  0.31723500  0.41565400  1
  B  B7  1  0.99297000  0.46318700  0.28411300  1
  B  B8  1  0.84722800  0.23447500  0.31674100  1
  B  B9  1  0.15099700  0.31723500  0.91565400  1
  B  B10  1  0.65099700  0.68276500  0.58434600  1
  B  B11  1  0.34722800  0.76552500  0.18325900  1
  H  H0  1  0.38766600  0.30588500  0.94386800  1
  H  H1  1  0.88766600  0.69411500  0.55613200  1
  H  H2  1  0.61233400  0.69411500  0.05613200  1
  H  H3  1  0.11233400  0.30588500  0.44386800  1
  O  O0  1  0.78488600  0.72822900  0.20954600  1
  O  O1  1  0.77749600  0.18735700  0.47964500  1
  O  O2  1  0.65425100  0.03196500  0.79211800  1
  O  O3  1  0.54764400  0.68093000  0.64528400  1
  O  O4  1  0.45235600  0.31907000  0.35471600  1
  O  O5  1  0.22250400  0.81264300  0.52035500  1
  O  O6  1  0.41036500  0.46371800  0.83065000  1
  O  O7  1  0.67504500  0.45525400  0.62027400  1
  O  O8  1  0.58963500  0.53628200  0.16935000  1
  O  O9  1  0.84119400  0.87525400  0.86127800  1
  O  O10  1  0.15425100  0.96803500  0.70788200  1
  O  O11  1  0.21511400  0.27177100  0.79045400  1
  O  O12  1  0.34119400  0.12474600  0.63872200  1
  O  O13  1  0.05324200  0.75135500  0.61844000  1
  O  O14  1  0.65880600  0.87525400  0.36127800  1
  O  O15  1  0.34574900  0.96803500  0.20788200  1
  O  O16  1  0.32495500  0.54474600  0.37972600  1
  O  O17  1  0.44675800  0.75135500  0.11844000  1
  O  O18  1  0.95235600  0.68093000  0.14528400  1
  O  O19  1  0.84574900  0.03196500  0.29211800  1
  O  O20  1  0.04764400  0.31907000  0.85471600  1
  O  O21  1  0.15880600  0.12474600  0.13872200  1
  O  O22  1  0.28488600  0.27177100  0.29045400  1
  O  O23  1  0.82495500  0.45525400  0.12027400  1
  O  O24  1  0.72250400  0.18735700  0.97964500  1
  O  O25  1  0.71511400  0.72822900  0.70954600  1
  O  O26  1  0.55324200  0.24864500  0.88156000  1
  O  O27  1  0.91036500  0.53628200  0.66935000  1
  O  O28  1  0.27749600  0.81264300  0.02035500  1
  O  O29  1  0.17504500  0.54474600  0.87972600  1
  O  O30  1  0.94675800  0.24864500  0.38156000  1
  O  O31  1  0.08963500  0.46371800  0.33065000  1
loop_
_geom_bond_atom_site_label_1
_geom_bond_atom_site_label_2
_geom_bond_distance
_geom_bond_site_symmetry_2
Na0 O12 2.286370 1_565
Na0 O2 2.374180 1_565
Na0 O17 2.493207 1_556
Na0 O4 2.636946 1_565
Na0 O3 2.639324 1_555
Na0 O26 2.769278 1_565
Na1 O21 2.286370 1_565
Na1 O19 2.374180 1_465
Na1 O13 2.493207 1_555
Na1 O20 2.636946 1_564
Na1 O18 2.639324 1_455
Na1 O30 2.769278 1_465
Na2 O14 2.286370 1_545
Na2 O15 2.374180 1_545
Na2 O26 2.493207 1_554
Na2 O3 2.636946 1_545
Na2 O4 2.639324 1_555
Na2 O17 2.769278 1_545
Na3 O9 2.286370 1_545
Na3 O10 2.374180 1_645
Na3 O30 2.493207 1_555
Na3 O18 2.636946 1_546
Na3 O20 2.639324 1_655
Na3 O13 2.769278 1_645
Li0 O28 1.909048 1_555
Li0 O29 1.930550 1_554
Li0 O22 1.942534 1_555
Li0 O31 2.051845 1_555
Li1 O24 1.909048 1_555
Li1 O23 1.930550 1_556
Li1 O25 1.942534 1_555
Li1 O27 2.051845 1_555
Li2 O5 1.909048 1_555
Li2 O16 1.930550 1_555
Li2 O11 1.942534 1_555
Li2 O6 2.051845 1_555
Li3 O1 1.909048 1_555
Li3 O7 1.930550 1_555
Li3 O0 1.942534 1_555
Li3 O8 2.051845 1_555
B0 O26 1.373747 1_555
B0 O3 1.374201 1_555
B0 O6 1.402451 1_555
B1 O29 1.450880 1_555
B1 O5 1.484992 1_555
B1 O10 1.500831 1_555
B1 O13 1.504570 1_555
B2 O13 1.373747 1_555
B2 O20 1.374201 1_555
B2 O27 1.402451 1_455
B3 O23 1.455223 1_555
B3 O9 1.475279 1_554
B3 O0 1.481901 1_555
B3 O18 1.521577 1_555
B4 O17 1.373747 1_555
B4 O4 1.374201 1_555
B4 O8 1.402451 1_555
B5 O7 1.450880 1_555
B5 O24 1.484992 1_555
B5 O2 1.500831 1_555
B5 O26 1.504570 1_555
B6 O16 1.455223 1_555
B6 O12 1.475279 1_555
B6 O22 1.481901 1_555
B6 O4 1.521577 1_555
B7 O30 1.373747 1_555
B7 O18 1.374201 1_555
B7 O31 1.402451 1_655
B8 O23 1.450880 1_555
B8 O1 1.484992 1_555
B8 O19 1.500831 1_555
B8 O30 1.504570 1_555
B9 O29 1.455223 1_555
B9 O21 1.475279 1_556
B9 O11 1.481901 1_555
B9 O20 1.521577 1_555
B10 O7 1.455223 1_555
B10 O14 1.475279 1_555
B10 O25 1.481901 1_555
B10 O3 1.521577 1_555
B11 O16 1.450880 1_555
B11 O28 1.484992 1_555
B11 O15 1.500831 1_555
B11 O17 1.504570 1_555
H0 O6 0.983324 1_555
H1 O27 0.983324 1_555
H2 O8 0.983324 1_555
H3 O31 0.983324 1_555
O0 Si1 1.632591 1_555
O1 Si3 1.631512 1_545
O2 Si3 1.656469 1_545
O5 Si2 1.631512 1_565
O9 Si3 1.641059 1_555
O10 Si0 1.656469 1_565
O11 Si0 1.632591 1_555
O12 Si0 1.641059 1_555
O14 Si1 1.641059 1_555
O15 Si2 1.656469 1_565
O19 Si1 1.656469 1_545
O21 Si2 1.641059 1_555
O22 Si2 1.632591 1_555
O24 Si1 1.631512 1_546
O25 Si3 1.632591 1_555
O28 Si0 1.631512 1_564
