# generated using pymatgen
data_RbBiAs6H24C8(S6N)2
_symmetry_space_group_name_H-M   'P 1'
_cell_length_a   11.17895581
_cell_length_b   11.17895581
_cell_length_c   11.17895611
_cell_angle_alpha   53.38964913
_cell_angle_beta   53.38964913
_cell_angle_gamma   53.38964792
_symmetry_Int_Tables_number   1
_chemical_formula_structural   RbBiAs6H24C8(S6N)2
_chemical_formula_sum   'Rb1 Bi1 As6 H24 C8 S12 N2'
_cell_volume   834.98912835
_cell_formula_units_Z   1
loop_
 _symmetry_equiv_pos_site_id
 _symmetry_equiv_pos_as_xyz
  1  'x, y, z'
loop_
 _atom_site_type_symbol
 _atom_site_label
 _atom_site_symmetry_multiplicity
 _atom_site_fract_x
 _atom_site_fract_y
 _atom_site_fract_z
 _atom_site_occupancy
  Rb  Rb0  1  0.50000000  0.50000000  0.50000000  1
  Bi  Bi0  1  0.00000000  0.00000000  0.00000000  1
  As  As0  1  0.57820900  0.19504700  0.30742400  1
  As  As1  1  0.42179100  0.80495300  0.69257600  1
  As  As2  1  0.19504700  0.30742400  0.57820900  1
  As  As3  1  0.80495300  0.69257600  0.42179100  1
  As  As4  1  0.69257600  0.42179100  0.80495300  1
  As  As5  1  0.30742400  0.57820900  0.19504700  1
  H  H0  1  0.86878800  0.98849700  0.57902000  1
  H  H1  1  0.71527200  0.66866500  0.05388800  1
  H  H2  1  0.74395700  0.83214800  0.01659100  1
  H  H3  1  0.01150300  0.42098000  0.13121200  1
  H  H4  1  0.94611200  0.28472800  0.33133500  1
  H  H5  1  0.28472800  0.33133500  0.94611200  1
  H  H6  1  0.83219400  0.76873900  0.63002300  1
  H  H7  1  0.83214800  0.01659100  0.74395700  1
  H  H8  1  0.98849700  0.57902000  0.86878800  1
  H  H9  1  0.16780600  0.23126100  0.36997700  1
  H  H10  1  0.98340900  0.25604300  0.16785200  1
  H  H11  1  0.57902000  0.86878800  0.98849700  1
  H  H12  1  0.33133500  0.94611200  0.28472800  1
  H  H13  1  0.23126100  0.36997700  0.16780600  1
  H  H14  1  0.05388800  0.71527200  0.66866500  1
  H  H15  1  0.76873900  0.63002300  0.83219400  1
  H  H16  1  0.66866500  0.05388800  0.71527200  1
  H  H17  1  0.42098000  0.13121200  0.01150300  1
  H  H18  1  0.36997700  0.16780600  0.23126100  1
  H  H19  1  0.13121200  0.01150300  0.42098000  1
  H  H20  1  0.16785200  0.98340900  0.25604300  1
  H  H21  1  0.63002300  0.83219400  0.76873900  1
  H  H22  1  0.01659100  0.74395700  0.83214800  1
  H  H23  1  0.25604300  0.16785200  0.98340900  1
  C  C0  1  0.29601200  0.20565100  0.02038800  1
  C  C1  1  0.02038800  0.29601200  0.20565100  1
  C  C2  1  0.97961200  0.70398800  0.79434900  1
  C  C3  1  0.75587800  0.75587800  0.75587800  1
  C  C4  1  0.20565100  0.02038800  0.29601200  1
  C  C5  1  0.24412200  0.24412200  0.24412200  1
  C  C6  1  0.70398800  0.79434900  0.97961200  1
  C  C7  1  0.79434900  0.97961200  0.70398800  1
  S  S0  1  0.45632800  0.17316400  0.57528300  1
  S  S1  1  0.17316400  0.57528300  0.45632800  1
  S  S2  1  0.82683600  0.42471700  0.54367200  1
  S  S3  1  0.70589400  0.16990000  0.94881700  1
  S  S4  1  0.83010000  0.05118300  0.29410600  1
  S  S5  1  0.16990000  0.94881700  0.70589400  1
  S  S6  1  0.94881700  0.70589400  0.16990000  1
  S  S7  1  0.05118300  0.29410600  0.83010000  1
  S  S8  1  0.57528300  0.45632800  0.17316400  1
  S  S9  1  0.29410600  0.83010000  0.05118300  1
  S  S10  1  0.54367200  0.82683600  0.42471700  1
  S  S11  1  0.42471700  0.54367200  0.82683600  1
  N  N0  1  0.19165800  0.19165800  0.19165800  1
  N  N1  1  0.80834200  0.80834200  0.80834200  1
loop_
_geom_bond_atom_site_label_1
_geom_bond_atom_site_label_2
_geom_bond_distance
_geom_bond_site_symmetry_2
Rb0 S2 3.502283 1_555
Rb0 S1 3.502283 1_555
Rb0 S10 3.502283 1_555
Rb0 S0 3.502283 1_555
Rb0 S11 3.502283 1_555
Rb0 S8 3.502283 1_555
Bi0 S9 2.871208 1_545
Bi0 S3 2.871208 1_454
Bi0 S7 2.871208 1_554
Bi0 S6 2.871208 1_445
Bi0 S4 2.871208 1_455
Bi0 S5 2.871208 1_544
As0 S4 2.218529 1_555
As0 S8 2.345396 1_555
As0 S0 2.353771 1_555
As1 S5 2.218529 1_555
As1 S11 2.345396 1_555
As1 S10 2.353771 1_555
As2 S7 2.218530 1_555
As2 S0 2.345396 1_555
As2 S1 2.353771 1_555
As3 S6 2.218530 1_555
As3 S10 2.345396 1_555
As3 S2 2.353771 1_555
As4 S3 2.218529 1_555
As4 S2 2.345396 1_555
As4 S11 2.353771 1_555
As5 S9 2.218529 1_555
As5 S1 2.345396 1_555
As5 S8 2.353771 1_555
C0 H17 1.095662 1_555
C0 H5 1.096121 1_554
C0 H23 1.096779 1_554
C0 N0 1.499175 1_555
C1 H3 1.095662 1_555
C1 H4 1.096121 1_455
C1 H10 1.096779 1_455
C1 N0 1.499175 1_555
C2 H8 1.095662 1_555
C2 H14 1.096121 1_655
C2 H22 1.096779 1_655
C2 N1 1.499175 1_555
C3 H21 1.096058 1_555
C3 H15 1.096058 1_555
C3 H6 1.096058 1_555
C3 N1 1.504239 1_555
C4 H19 1.095662 1_555
C4 H12 1.096121 1_545
C4 H20 1.096779 1_545
C4 N0 1.499175 1_555
C5 H18 1.096058 1_555
C5 H13 1.096058 1_555
C5 H9 1.096058 1_555
C5 N0 1.504239 1_555
C6 H11 1.095662 1_555
C6 H1 1.096121 1_556
C6 H2 1.096779 1_556
C6 N1 1.499175 1_555
C7 H0 1.095662 1_555
C7 H16 1.096121 1_565
C7 H7 1.096779 1_565
C7 N1 1.499175 1_555
