# generated using pymatgen
data_MgVBiO5
_symmetry_space_group_name_H-M   'P 1'
_cell_length_a   11.71094400
_cell_length_b   5.40159300
_cell_length_c   8.00452749
_cell_angle_alpha   67.25344249
_cell_angle_beta   90.00000000
_cell_angle_gamma   90.00000000
_symmetry_Int_Tables_number   1
_chemical_formula_structural   MgVBiO5
_chemical_formula_sum   'Mg4 V4 Bi4 O20'
_cell_volume   466.96677264
_cell_formula_units_Z   4
loop_
 _symmetry_equiv_pos_site_id
 _symmetry_equiv_pos_as_xyz
  1  'x, y, z'
loop_
 _atom_site_type_symbol
 _atom_site_label
 _atom_site_symmetry_multiplicity
 _atom_site_fract_x
 _atom_site_fract_y
 _atom_site_fract_z
 _atom_site_occupancy
  Mg  Mg0  1  0.07858300  0.55038300  0.82331800  1
  Mg  Mg1  1  0.92141700  0.44961700  0.17668200  1
  Mg  Mg2  1  0.57858300  0.44961700  0.67668200  1
  Mg  Mg3  1  0.42141700  0.55038300  0.32331800  1
  V  V0  1  0.35163500  0.18655100  0.02888300  1
  V  V1  1  0.64836500  0.81344900  0.97111700  1
  V  V2  1  0.85163500  0.81344900  0.47111700  1
  V  V3  1  0.14836500  0.18655100  0.52888300  1
  Bi  Bi0  1  0.90452900  0.05856900  0.82441200  1
  Bi  Bi1  1  0.09547100  0.94143100  0.17558800  1
  Bi  Bi2  1  0.59547100  0.05856900  0.32441200  1
  Bi  Bi3  1  0.40452900  0.94143100  0.67558800  1
  O  O0  1  0.92798900  0.75227400  0.67169400  1
  O  O1  1  0.06818900  0.29665400  0.67392000  1
  O  O2  1  0.82500000  0.15131300  0.36293400  1
  O  O3  1  0.47312500  0.75881400  0.48550600  1
  O  O4  1  0.71422900  0.67534100  0.51564600  1
  O  O5  1  0.78577100  0.67534100  0.01564600  1
  O  O6  1  0.43181100  0.29665400  0.17392000  1
  O  O7  1  0.56818900  0.70334600  0.82608000  1
  O  O8  1  0.52687500  0.24118600  0.51449400  1
  O  O9  1  0.42798900  0.24772600  0.82830600  1
  O  O10  1  0.28577100  0.32465900  0.48435400  1
  O  O11  1  0.07201100  0.24772600  0.32830600  1
  O  O12  1  0.57201100  0.75227400  0.17169400  1
  O  O13  1  0.21422900  0.32465900  0.98435400  1
  O  O14  1  0.97312500  0.24118600  0.01449400  1
  O  O15  1  0.02687500  0.75881400  0.98550600  1
  O  O16  1  0.17500000  0.84868700  0.63706600  1
  O  O17  1  0.93181100  0.70334600  0.32608000  1
  O  O18  1  0.32500000  0.84868700  0.13706600  1
  O  O19  1  0.67500000  0.15131300  0.86293400  1
loop_
_geom_bond_atom_site_label_1
_geom_bond_atom_site_label_2
_geom_bond_distance
_geom_bond_site_symmetry_2
Mg0 O16 2.058218 1_555
Mg0 O15 2.109495 1_555
Mg0 O13 2.110988 1_555
Mg0 O1 2.142596 1_555
Mg0 O14 2.163329 1_456
Mg0 O0 2.179228 1_455
Mg1 O2 2.058218 1_555
Mg1 O14 2.109495 1_555
Mg1 O5 2.110988 1_555
Mg1 O17 2.142596 1_555
Mg1 O15 2.163329 1_654
Mg1 O11 2.179228 1_655
Mg2 O19 2.058218 1_555
Mg2 O8 2.109495 1_555
Mg2 O4 2.110988 1_555
Mg2 O7 2.142596 1_555
Mg2 O3 2.163329 1_555
Mg2 O9 2.179228 1_555
Mg3 O18 2.058218 1_555
Mg3 O3 2.109495 1_555
Mg3 O10 2.110988 1_555
Mg3 O6 2.142596 1_555
Mg3 O8 2.163329 1_555
Mg3 O12 2.179228 1_555
Bi0 O15 2.173184 1_645
Bi0 O14 2.256990 1_556
Bi0 O1 2.362287 1_655
Bi0 O0 2.423047 1_545
Bi0 O5 2.472263 1_546
Bi0 O19 2.773239 1_555
Bi1 O14 2.173184 1_465
Bi1 O15 2.256990 1_554
Bi1 O17 2.362287 1_455
Bi1 O11 2.423047 1_565
Bi1 O13 2.472263 1_564
Bi1 O18 2.773239 1_555
Bi2 O3 2.173184 1_545
Bi2 O8 2.256990 1_555
Bi2 O6 2.362287 1_555
Bi2 O12 2.423047 1_545
Bi2 O4 2.472263 1_545
Bi2 O2 2.773239 1_555
Bi3 O8 2.173184 1_565
Bi3 O3 2.256990 1_555
Bi3 O7 2.362287 1_555
Bi3 O9 2.423047 1_565
Bi3 O10 2.472263 1_565
Bi3 O16 2.773239 1_555
O0 V2 1.753906 1_555
O1 V3 1.765518 1_555
O2 V2 1.719213 1_545
O4 V2 1.751376 1_555
O5 V1 1.751376 1_554
O6 V0 1.765518 1_555
O7 V1 1.765518 1_555
O9 V0 1.753906 1_556
O10 V3 1.751376 1_555
O11 V3 1.753906 1_555
O12 V1 1.753906 1_554
O13 V0 1.751376 1_556
O16 V3 1.719213 1_565
O17 V2 1.765518 1_555
O18 V0 1.719213 1_565
O19 V1 1.719213 1_545
