# generated using pymatgen
data_CeAg6(NO3)9
_symmetry_space_group_name_H-M   'P 1'
_cell_length_a   10.83501230
_cell_length_b   10.83501230
_cell_length_c   10.83501306
_cell_angle_alpha   100.68433178
_cell_angle_beta   100.68433178
_cell_angle_gamma   100.68433468
_symmetry_Int_Tables_number   1
_chemical_formula_structural   CeAg6(NO3)9
_chemical_formula_sum   'Ce2 Ag12 N18 O54'
_cell_volume   1196.04690347
_cell_formula_units_Z   2
loop_
 _symmetry_equiv_pos_site_id
 _symmetry_equiv_pos_as_xyz
  1  'x, y, z'
loop_
 _atom_site_type_symbol
 _atom_site_label
 _atom_site_symmetry_multiplicity
 _atom_site_fract_x
 _atom_site_fract_y
 _atom_site_fract_z
 _atom_site_occupancy
  Ce  Ce0  1  0.00000000  0.00000000  0.00000000  1
  Ce  Ce1  1  0.50000000  0.50000000  0.50000000  1
  Ag  Ag0  1  0.63272000  0.86728000  0.25000000  1
  Ag  Ag1  1  0.04178400  0.25000000  0.45821600  1
  Ag  Ag2  1  0.25000000  0.63272000  0.86728000  1
  Ag  Ag3  1  0.36728000  0.13272000  0.75000000  1
  Ag  Ag4  1  0.54178400  0.95821600  0.75000000  1
  Ag  Ag5  1  0.25000000  0.45821600  0.04178400  1
  Ag  Ag6  1  0.45821600  0.04178400  0.25000000  1
  Ag  Ag7  1  0.13272000  0.75000000  0.36728000  1
  Ag  Ag8  1  0.75000000  0.54178400  0.95821600  1
  Ag  Ag9  1  0.86728000  0.25000000  0.63272000  1
  Ag  Ag10  1  0.95821600  0.75000000  0.54178400  1
  Ag  Ag11  1  0.75000000  0.36728000  0.13272000  1
  N  N0  1  0.43145700  0.21313400  0.50679900  1
  N  N1  1  0.75000000  0.18382200  0.31617800  1
  N  N2  1  0.78686600  0.49320100  0.56854300  1
  N  N3  1  0.06854300  0.99320100  0.28686600  1
  N  N4  1  0.31617800  0.75000000  0.18382200  1
  N  N5  1  0.00679900  0.71313400  0.93145700  1
  N  N6  1  0.49320100  0.56854300  0.78686600  1
  N  N7  1  0.68382200  0.25000000  0.81617800  1
  N  N8  1  0.81617800  0.68382200  0.25000000  1
  N  N9  1  0.93145700  0.00679900  0.71313400  1
  N  N10  1  0.21313400  0.50679900  0.43145700  1
  N  N11  1  0.28686600  0.06854300  0.99320100  1
  N  N12  1  0.25000000  0.81617800  0.68382200  1
  N  N13  1  0.56854300  0.78686600  0.49320100  1
  N  N14  1  0.99320100  0.28686600  0.06854300  1
  N  N15  1  0.71313400  0.93145700  0.00679900  1
  N  N16  1  0.50679900  0.43145700  0.21313400  1
  N  N17  1  0.18382200  0.31617800  0.75000000  1
  O  O0  1  0.40210700  0.44718600  0.24724400  1
  O  O1  1  0.24724400  0.40210700  0.44718600  1
  O  O2  1  0.09765600  0.51120700  0.40424000  1
  O  O3  1  0.09789300  0.25275600  0.05281400  1
  O  O4  1  0.32985000  0.84741100  0.27610200  1
  O  O5  1  0.22389800  0.65258900  0.17015000  1
  O  O6  1  0.59576000  0.90234400  0.48879300  1
  O  O7  1  0.40424000  0.09765600  0.51120700  1
  O  O8  1  0.67015000  0.15258900  0.72389800  1
  O  O9  1  0.40234400  0.09576000  0.98879300  1
  O  O10  1  0.05482300  0.89402500  0.19629600  1
  O  O11  1  0.34741100  0.82985000  0.77610200  1
  O  O12  1  0.82985000  0.77610200  0.34741100  1
  O  O13  1  0.98879300  0.40234400  0.09576000  1
  O  O14  1  0.19629600  0.05482300  0.89402500  1
  O  O15  1  0.15258900  0.72389800  0.67015000  1
  O  O16  1  0.90210700  0.74724400  0.94718600  1
  O  O17  1  0.60597500  0.44517700  0.30370400  1
  O  O18  1  0.55482300  0.69629600  0.39402500  1
  O  O19  1  0.44718600  0.24724400  0.40210700  1
  O  O20  1  0.25275600  0.05281400  0.09789300  1
  O  O21  1  0.09576000  0.98879300  0.40234400  1
  O  O22  1  0.74724400  0.94718600  0.90210700  1
  O  O23  1  0.27610200  0.32985000  0.84741100  1
  O  O24  1  0.94718600  0.90210700  0.74724400  1
  O  O25  1  0.94517700  0.10597500  0.80370400  1
  O  O26  1  0.51120700  0.40424000  0.09765600  1
  O  O27  1  0.48879300  0.59576000  0.90234400  1
  O  O28  1  0.05281400  0.09789300  0.25275600  1
  O  O29  1  0.01120700  0.59765600  0.90424000  1
  O  O30  1  0.10824200  0.39175800  0.75000000  1
  O  O31  1  0.55281400  0.75275600  0.59789300  1
  O  O32  1  0.59789300  0.55281400  0.75275600  1
  O  O33  1  0.10597500  0.80370400  0.94517700  1
  O  O34  1  0.39402500  0.55482300  0.69629600  1
  O  O35  1  0.72389800  0.67015000  0.15258900  1
  O  O36  1  0.17015000  0.22389800  0.65258900  1
  O  O37  1  0.59765600  0.90424000  0.01120700  1
  O  O38  1  0.90234400  0.48879300  0.59576000  1
  O  O39  1  0.44517700  0.30370400  0.60597500  1
  O  O40  1  0.75275600  0.59789300  0.55281400  1
  O  O41  1  0.80370400  0.94517700  0.10597500  1
  O  O42  1  0.77610200  0.34741100  0.82985000  1
  O  O43  1  0.89402500  0.19629600  0.05482300  1
  O  O44  1  0.25000000  0.89175800  0.60824200  1
  O  O45  1  0.75000000  0.10824200  0.39175800  1
  O  O46  1  0.89175800  0.60824200  0.25000000  1
  O  O47  1  0.84741100  0.27610200  0.32985000  1
  O  O48  1  0.90424000  0.01120700  0.59765600  1
  O  O49  1  0.69629600  0.39402500  0.55482300  1
  O  O50  1  0.30370400  0.60597500  0.44517700  1
  O  O51  1  0.39175800  0.75000000  0.10824200  1
  O  O52  1  0.65258900  0.17015000  0.22389800  1
  O  O53  1  0.60824200  0.25000000  0.89175800  1
loop_
_geom_bond_atom_site_label_1
_geom_bond_atom_site_label_2
_geom_bond_distance
_geom_bond_site_symmetry_2
Ce0 O14 2.623903 1_554
Ce0 O41 2.623903 1_445
Ce0 O43 2.623903 1_455
Ce0 O33 2.623903 1_544
Ce0 O25 2.623904 1_454
Ce0 O10 2.623904 1_545
Ce0 O3 2.658809 1_555
Ce0 O16 2.658809 1_444
Ce0 O22 2.658809 1_444
Ce0 O20 2.658809 1_555
Ce0 O28 2.658809 1_555
Ce0 O24 2.658809 1_444
Ce1 O39 2.623903 1_555
Ce1 O18 2.623903 1_555
Ce1 O49 2.623903 1_555
Ce1 O50 2.623903 1_555
Ce1 O34 2.623904 1_555
Ce1 O17 2.623904 1_555
Ce1 O40 2.658809 1_555
Ce1 O1 2.658809 1_555
Ce1 O31 2.658809 1_555
Ce1 O19 2.658809 1_555
Ce1 O32 2.658809 1_555
Ce1 O0 2.658809 1_555
Ag0 O35 2.642950 1_555
Ag0 O12 2.642950 1_555
Ag0 O6 2.659903 1_555
Ag0 O37 2.659903 1_555
Ag0 O45 2.710996 1_565
Ag0 O51 2.710996 1_555
Ag0 O18 2.749601 1_555
Ag0 O41 2.749601 1_555
Ag1 O47 2.393826 1_455
Ag1 O36 2.393826 1_555
Ag1 O1 2.549024 1_555
Ag1 O28 2.549024 1_555
Ag2 O11 2.642950 1_555
Ag2 O15 2.642950 1_555
Ag2 O29 2.659903 1_555
Ag2 O27 2.659903 1_555
Ag2 O30 2.710996 1_555
Ag2 O51 2.710996 1_556
Ag2 O33 2.749601 1_555
Ag2 O34 2.749601 1_555
Ag3 O23 2.642950 1_555
Ag3 O36 2.642950 1_555
Ag3 O9 2.659903 1_555
Ag3 O7 2.659903 1_555
Ag3 O44 2.710996 1_545
Ag3 O53 2.710996 1_555
Ag3 O14 2.749601 1_555
Ag3 O39 2.749601 1_555
Ag4 O11 2.393826 1_555
Ag4 O8 2.393826 1_565
Ag4 O31 2.549024 1_555
Ag4 O22 2.549024 1_555
Ag5 O5 2.393826 1_555
Ag5 O23 2.393826 1_554
Ag5 O3 2.549024 1_555
Ag5 O0 2.549024 1_555
Ag6 O52 2.393826 1_555
Ag6 O4 2.393826 1_545
Ag6 O19 2.549024 1_555
Ag6 O20 2.549024 1_555
Ag7 O4 2.642950 1_555
Ag7 O5 2.642950 1_555
Ag7 O2 2.659903 1_555
Ag7 O21 2.659903 1_555
Ag7 O46 2.710996 1_455
Ag7 O44 2.710996 1_555
Ag7 O50 2.749601 1_555
Ag7 O10 2.749601 1_555
Ag8 O42 2.393826 1_555
Ag8 O35 2.393826 1_556
Ag8 O16 2.549024 1_555
Ag8 O32 2.549024 1_555
Ag9 O8 2.642950 1_555
Ag9 O42 2.642950 1_555
Ag9 O38 2.659903 1_555
Ag9 O48 2.659903 1_555
Ag9 O30 2.710996 1_655
Ag9 O45 2.710996 1_555
Ag9 O49 2.749601 1_555
Ag9 O25 2.749601 1_555
Ag10 O15 2.393826 1_655
Ag10 O12 2.393826 1_555
Ag10 O40 2.549024 1_555
Ag10 O24 2.549024 1_555
Ag11 O52 2.642950 1_555
Ag11 O47 2.642950 1_555
Ag11 O13 2.659903 1_555
Ag11 O26 2.659903 1_555
Ag11 O46 2.710996 1_555
Ag11 O53 2.710996 1_554
Ag11 O43 2.749601 1_555
Ag11 O17 2.749601 1_555
N0 O7 1.243111 1_555
N0 O39 1.278858 1_555
N0 O19 1.286910 1_555
N1 O45 1.260908 1_555
N1 O47 1.277276 1_555
N1 O52 1.277276 1_555
N2 O38 1.243112 1_555
N2 O49 1.278858 1_555
N2 O40 1.286910 1_555
N3 O21 1.243112 1_555
N3 O10 1.278858 1_555
N3 O28 1.286910 1_565
N4 O51 1.260908 1_555
N4 O5 1.277276 1_555
N4 O4 1.277276 1_555
N5 O29 1.243112 1_555
N5 O33 1.278858 1_555
N5 O16 1.286910 1_455
N6 O27 1.243112 1_555
N6 O34 1.278858 1_555
N6 O32 1.286910 1_555
N7 O53 1.260908 1_555
N7 O42 1.277276 1_555
N7 O8 1.277276 1_555
N8 O46 1.260908 1_555
N8 O35 1.277276 1_555
N8 O12 1.277276 1_555
N9 O48 1.243112 1_555
N9 O25 1.278858 1_555
N9 O24 1.286910 1_545
N10 O2 1.243112 1_555
N10 O50 1.278858 1_555
N10 O1 1.286910 1_555
N11 O9 1.243111 1_555
N11 O14 1.278858 1_555
N11 O20 1.286910 1_556
N12 O44 1.260908 1_555
N12 O15 1.277276 1_555
N12 O11 1.277276 1_555
N13 O6 1.243111 1_555
N13 O18 1.278858 1_555
N13 O31 1.286910 1_555
N14 O13 1.243112 1_555
N14 O43 1.278858 1_555
N14 O3 1.286910 1_655
N15 O37 1.243111 1_555
N15 O41 1.278858 1_555
N15 O22 1.286910 1_554
N16 O26 1.243112 1_555
N16 O17 1.278858 1_555
N16 O0 1.286910 1_555
N17 O30 1.260908 1_555
N17 O36 1.277276 1_555
N17 O23 1.277276 1_555
