# generated using pymatgen
data_ZnS
_symmetry_space_group_name_H-M   'P 1'
_cell_length_a   3.80815909
_cell_length_b   3.80815931
_cell_length_c   56.04804948
_cell_angle_alpha   90.00000000
_cell_angle_beta   90.00000000
_cell_angle_gamma   120.00000683
_symmetry_Int_Tables_number   1
_chemical_formula_structural   ZnS
_chemical_formula_sum   'Zn18 S18'
_cell_volume   703.91674600
_cell_formula_units_Z   18
loop_
 _symmetry_equiv_pos_site_id
 _symmetry_equiv_pos_as_xyz
  1  'x, y, z'
loop_
 _atom_site_type_symbol
 _atom_site_label
 _atom_site_symmetry_multiplicity
 _atom_site_fract_x
 _atom_site_fract_y
 _atom_site_fract_z
 _atom_site_occupancy
  Zn  Zn0  1  0.00000000  -0.00000000  0.16666727  1
  Zn  Zn1  1  0.66666700  0.33333300  0.27774092  1
  Zn  Zn2  1  -0.00000000  0.00000000  0.38889467  1
  Zn  Zn3  1  0.33333300  0.66666700  0.33341033  1
  Zn  Zn4  1  0.33333300  0.66666700  0.05561190  1
  Zn  Zn5  1  0.33333300  0.66666700  0.61112920  1
  Zn  Zn6  1  0.66666700  0.33333300  0.11108888  1
  Zn  Zn7  1  -0.00000000  -0.00000000  0.00015102  1
  Zn  Zn8  1  0.66666700  0.33333300  0.44444075  1
  Zn  Zn9  1  0.33333300  0.66666700  0.22218383  1
  Zn  Zn10  1  -0.00000000  0.00000000  0.55552245  1
  Zn  Zn11  1  0.00000000  -0.00000000  0.72222534  1
  Zn  Zn12  1  0.66666700  0.33333300  0.77784610  1
  Zn  Zn13  1  0.66666700  0.33333300  0.94450170  1
  Zn  Zn14  1  0.33333300  0.66666700  0.83340943  1
  Zn  Zn15  1  0.66666700  0.33333300  0.66667973  1
  Zn  Zn16  1  0.33333300  0.66666700  0.49999644  1
  Zn  Zn17  1  0.00000000  -0.00000000  0.88889101  1
  S  S0  1  0.66666700  0.33333300  0.70827246  1
  S  S1  1  0.33333300  0.66666700  0.87500013  1
  S  S2  1  0.33333300  0.66666700  0.54157556  1
  S  S3  1  -0.00000000  -0.00000000  0.04172867  1
  S  S4  1  0.66666700  0.33333300  0.48606880  1
  S  S5  1  -0.00000000  -0.00000000  0.93050350  1
  S  S6  1  0.00000000  -0.00000000  0.59720973  1
  S  S7  1  0.66666700  0.33333300  0.15271925  1
  S  S8  1  0.33333300  0.66666700  0.09719965  1
  S  S9  1  0.66666700  0.33333300  0.98619893  1
  S  S10  1  0.66666700  0.33333300  0.81946560  1
  S  S11  1  -0.00000000  0.00000000  0.43052120  1
  S  S12  1  0.33333300  0.66666700  0.26377934  1
  S  S13  1  0.33333300  0.66666700  0.65275398  1
  S  S14  1  0.33333300  0.66666700  0.37499995  1
  S  S15  1  -0.00000000  -0.00000000  0.76391555  1
  S  S16  1  0.66666700  0.33333300  0.31944552  1
  S  S17  1  0.00000000  -0.00000000  0.20828119  1
loop_
_geom_bond_atom_site_label_1
_geom_bond_atom_site_label_2
_geom_bond_distance
_geom_bond_site_symmetry_2
S0 Zn15 2.331191 1_555
S0 Zn11 2.333579 1_655
S0 Zn11 2.333582 1_555
S0 Zn11 2.333582 1_665
S1 Zn14 2.331078 1_555
S1 Zn17 2.332417 1_565
S1 Zn17 2.332419 1_665
S1 Zn17 2.332419 1_555
S2 Zn16 2.330429 1_555
S2 Zn10 2.333466 1_565
S2 Zn10 2.333469 1_665
S2 Zn10 2.333469 1_555
S3 Zn7 2.330346 1_555
S3 Zn4 2.332273 1_545
S3 Zn4 2.332276 1_445
S3 Zn4 2.332276 1_555
S4 Zn16 2.333105 1_655
S4 Zn16 2.333105 1_545
S4 Zn16 2.333111 1_555
S4 Zn8 2.333171 1_555
S5 Zn17 2.332299 1_555
S5 Zn13 2.334431 1_455
S5 Zn13 2.334434 1_555
S5 Zn13 2.334434 1_445
S6 Zn5 2.332952 1_545
S6 Zn5 2.332955 1_445
S6 Zn5 2.332955 1_555
S6 Zn10 2.336491 1_555
S7 Zn6 2.333301 1_555
S7 Zn0 2.333487 1_655
S7 Zn0 2.333490 1_555
S7 Zn0 2.333490 1_665
S8 Zn4 2.330912 1_555
S8 Zn6 2.332385 1_455
S8 Zn6 2.332385 1_565
S8 Zn6 2.332392 1_555
S9 Zn7 2.333564 1_656
S9 Zn7 2.333567 1_556
S9 Zn7 2.333567 1_666
S9 Zn13 2.337048 1_555
S10 Zn12 2.332692 1_555
S10 Zn14 2.333409 1_655
S10 Zn14 2.333409 1_545
S10 Zn14 2.333415 1_555
S11 Zn8 2.332953 1_455
S11 Zn8 2.332956 1_555
S11 Zn8 2.332956 1_445
S11 Zn2 2.333086 1_555
S12 Zn9 2.331347 1_555
S12 Zn1 2.333742 1_455
S12 Zn1 2.333742 1_565
S12 Zn1 2.333748 1_555
S13 Zn5 2.332988 1_555
S13 Zn15 2.333069 1_455
S13 Zn15 2.333069 1_565
S13 Zn15 2.333076 1_555
S14 Zn3 2.331017 1_555
S14 Zn2 2.332488 1_565
S14 Zn2 2.332491 1_665
S14 Zn2 2.332491 1_555
S15 Zn12 2.333160 1_455
S15 Zn12 2.333162 1_555
S15 Zn12 2.333163 1_445
S15 Zn11 2.336655 1_555
S16 Zn3 2.333803 1_655
S16 Zn3 2.333803 1_545
S16 Zn3 2.333809 1_555
S16 Zn1 2.337461 1_555
S17 Zn0 2.332379 1_555
S17 Zn9 2.332637 1_545
S17 Zn9 2.332639 1_445
S17 Zn9 2.332640 1_555
