# generated using pymatgen
data_Ca(LuS2)2
_symmetry_space_group_name_H-M   'P 1'
_cell_length_a   3.82203500
_cell_length_b   12.73595062
_cell_length_c   12.93144121
_cell_angle_alpha   90.00000000
_cell_angle_beta   90.00000000
_cell_angle_gamma   90.00000000
_symmetry_Int_Tables_number   1
_chemical_formula_structural   Ca(LuS2)2
_chemical_formula_sum   'Ca4 Lu8 S16'
_cell_volume   629.46698407
_cell_formula_units_Z   4
loop_
 _symmetry_equiv_pos_site_id
 _symmetry_equiv_pos_as_xyz
  1  'x, y, z'
loop_
 _atom_site_type_symbol
 _atom_site_label
 _atom_site_symmetry_multiplicity
 _atom_site_fract_x
 _atom_site_fract_y
 _atom_site_fract_z
 _atom_site_occupancy
  Ca  Ca0  1  0.75000000  0.86827222  0.08363024  1
  Ca  Ca1  1  0.25000000  0.13172778  0.91636976  1
  Ca  Ca2  1  0.75000000  0.36827222  0.41636976  1
  Ca  Ca3  1  0.25000000  0.63172778  0.58363024  1
  Lu  Lu0  1  0.75000000  0.60640009  0.91681471  1
  Lu  Lu1  1  0.25000000  0.39359991  0.08318529  1
  Lu  Lu2  1  0.75000000  0.10640009  0.58318529  1
  Lu  Lu3  1  0.25000000  0.89359991  0.41681471  1
  Lu  Lu4  1  0.75000000  0.64721051  0.29766915  1
  Lu  Lu5  1  0.25000000  0.35278949  0.70233085  1
  Lu  Lu6  1  0.75000000  0.14721051  0.20233085  1
  Lu  Lu7  1  0.25000000  0.85278949  0.79766915  1
  S  S0  1  0.75000000  0.71762634  0.73897354  1
  S  S1  1  0.25000000  0.28237366  0.26102646  1
  S  S2  1  0.75000000  0.21762634  0.76102646  1
  S  S3  1  0.25000000  0.78237366  0.23897354  1
  S  S4  1  0.75000000  0.75907725  0.47244202  1
  S  S5  1  0.25000000  0.24092275  0.52755798  1
  S  S6  1  0.75000000  0.25907725  0.02755798  1
  S  S7  1  0.25000000  0.74092275  0.97244202  1
  S  S8  1  0.75000000  0.96857706  0.88058426  1
  S  S9  1  0.25000000  0.03142294  0.11941574  1
  S  S10  1  0.75000000  0.46857706  0.61941574  1
  S  S11  1  0.25000000  0.53142294  0.38058426  1
  S  S12  1  0.75000000  0.53419951  0.11789736  1
  S  S13  1  0.25000000  0.46580049  0.88210264  1
  S  S14  1  0.75000000  0.03419951  0.38210264  1
  S  S15  1  0.25000000  0.96580049  0.61789736  1
loop_
_geom_bond_atom_site_label_1
_geom_bond_atom_site_label_2
_geom_bond_distance
_geom_bond_site_symmetry_2
Ca0 S9 2.860720 1_565
Ca0 S9 2.860720 1_665
Ca0 S7 2.889626 1_654
Ca0 S7 2.889626 1_554
Ca0 S8 2.919954 1_554
Ca0 S3 2.980629 1_555
Ca0 S3 2.980629 1_655
Ca1 S8 2.860720 1_545
Ca1 S8 2.860720 1_445
Ca1 S6 2.889626 1_456
Ca1 S6 2.889626 1_556
Ca1 S9 2.919954 1_556
Ca1 S2 2.980629 1_555
Ca1 S2 2.980629 1_455
Ca2 S11 2.860720 1_555
Ca2 S11 2.860720 1_655
Ca2 S5 2.889626 1_555
Ca2 S5 2.889626 1_655
Ca2 S10 2.919954 1_555
Ca2 S1 2.980629 1_655
Ca2 S1 2.980629 1_555
Ca3 S10 2.860720 1_555
Ca3 S10 2.860720 1_455
Ca3 S4 2.889626 1_555
Ca3 S4 2.889626 1_455
Ca3 S11 2.919954 1_555
Ca3 S0 2.980629 1_455
Ca3 S0 2.980629 1_555
Lu0 S13 2.657062 1_555
Lu0 S13 2.657062 1_655
Lu0 S7 2.665473 1_655
Lu0 S7 2.665473 1_555
Lu0 S0 2.701017 1_555
Lu0 S12 2.758090 1_556
Lu1 S12 2.657062 1_455
Lu1 S12 2.657062 1_555
Lu1 S6 2.665473 1_455
Lu1 S6 2.665473 1_555
Lu1 S1 2.701017 1_555
Lu1 S13 2.758090 1_554
Lu2 S15 2.657062 1_545
Lu2 S15 2.657062 1_645
Lu2 S5 2.665473 1_555
Lu2 S5 2.665473 1_655
Lu2 S2 2.701017 1_555
Lu2 S14 2.758090 1_555
Lu3 S14 2.657062 1_465
Lu3 S14 2.657062 1_565
Lu3 S4 2.665473 1_455
Lu3 S4 2.665473 1_555
Lu3 S3 2.701017 1_555
Lu3 S15 2.758090 1_555
Lu4 S11 2.641262 1_655
Lu4 S11 2.641262 1_555
Lu4 S4 2.671656 1_555
Lu4 S3 2.681683 1_655
Lu4 S3 2.681683 1_555
Lu4 S12 2.734202 1_555
Lu5 S10 2.641262 1_455
Lu5 S10 2.641262 1_555
Lu5 S5 2.671656 1_555
Lu5 S2 2.681683 1_455
Lu5 S2 2.681683 1_555
Lu5 S13 2.734202 1_555
Lu6 S9 2.641262 1_555
Lu6 S9 2.641262 1_655
Lu6 S6 2.671656 1_555
Lu6 S1 2.681683 1_555
Lu6 S1 2.681683 1_655
Lu6 S14 2.734202 1_555
Lu7 S8 2.641262 1_455
Lu7 S8 2.641262 1_555
Lu7 S7 2.671656 1_555
Lu7 S0 2.681683 1_455
Lu7 S0 2.681683 1_555
Lu7 S15 2.734202 1_555
