# generated using pymatgen
data_Cs2Te2O5
_symmetry_space_group_name_H-M   'P 1'
_cell_length_a   10.83725523
_cell_length_b   12.02865129
_cell_length_c   12.04811422
_cell_angle_alpha   90.00000000
_cell_angle_beta   90.00000000
_cell_angle_gamma   90.00000000
_symmetry_Int_Tables_number   1
_chemical_formula_structural   Cs2Te2O5
_chemical_formula_sum   'Cs16 Te16 O40'
_cell_volume   1570.56282175
_cell_formula_units_Z   8
loop_
 _symmetry_equiv_pos_site_id
 _symmetry_equiv_pos_as_xyz
  1  'x, y, z'
loop_
 _atom_site_type_symbol
 _atom_site_label
 _atom_site_symmetry_multiplicity
 _atom_site_fract_x
 _atom_site_fract_y
 _atom_site_fract_z
 _atom_site_occupancy
  Cs  Cs0  1  0.24839565  0.24683512  0.75245806  1
  Cs  Cs1  1  0.78143210  0.00497051  0.00433197  1
  Cs  Cs2  1  0.24839565  0.74683512  0.74754194  1
  Cs  Cs3  1  0.71856790  0.00497051  0.50433197  1
  Cs  Cs4  1  0.75160435  0.25316488  0.25245806  1
  Cs  Cs5  1  0.25160435  0.74683512  0.24754194  1
  Cs  Cs6  1  0.25160435  0.24683512  0.25245806  1
  Cs  Cs7  1  0.28143210  0.99502949  0.49566803  1
  Cs  Cs8  1  0.74839565  0.75316488  0.74754194  1
  Cs  Cs9  1  0.71856790  0.50497051  0.99566803  1
  Cs  Cs10  1  0.21856790  0.49502949  0.50433197  1
  Cs  Cs11  1  0.78143210  0.50497051  0.49566803  1
  Cs  Cs12  1  0.74839565  0.25316488  0.75245806  1
  Cs  Cs13  1  0.21856790  0.99502949  0.99566803  1
  Cs  Cs14  1  0.75160435  0.75316488  0.24754194  1
  Cs  Cs15  1  0.28143210  0.49502949  0.00433197  1
  Te  Te0  1  0.50011771  0.99058532  0.75935378  1
  Te  Te1  1  0.00361216  0.74035692  0.98825245  1
  Te  Te2  1  0.49638784  0.74035692  0.48825245  1
  Te  Te3  1  0.00011771  0.00941468  0.74064622  1
  Te  Te4  1  0.49988229  0.50941468  0.25935378  1
  Te  Te5  1  0.50011771  0.49058532  0.74064622  1
  Te  Te6  1  0.00361216  0.24035692  0.51174755  1
  Te  Te7  1  0.99638784  0.75964308  0.48825245  1
  Te  Te8  1  -0.00011771  0.49058532  0.24064622  1
  Te  Te9  1  0.50361216  0.25964308  0.51174755  1
  Te  Te10  1  0.99638784  0.25964308  0.01174755  1
  Te  Te11  1  0.49638784  0.24035692  0.01174755  1
  Te  Te12  1  0.50361216  0.75964308  0.98825245  1
  Te  Te13  1  0.49988229  0.00941468  0.24064622  1
  Te  Te14  1  0.00011771  0.50941468  0.75935378  1
  Te  Te15  1  -0.00011771  0.99058532  0.25935378  1
  O  O0  1  0.66814960  0.00632562  0.76936971  1
  O  O1  1  0.47216549  0.88722177  0.88695324  1
  O  O2  1  0.01128501  0.38556404  0.35247374  1
  O  O3  1  0.98871499  0.61443596  0.64752626  1
  O  O4  1  0.33185040  0.49367438  0.26936971  1
  O  O5  1  0.17215222  0.73027136  -0.00159013  1
  O  O6  1  0.48871499  0.38556404  0.85247374  1
  O  O7  1  0.83185040  0.00632562  0.26936971  1
  O  O8  1  0.98619937  0.85293608  0.88436820  1
  O  O9  1  0.32784778  0.73027136  0.49840987  1
  O  O10  1  0.82784778  0.26972864  0.00159013  1
  O  O11  1  0.02783451  0.38722177  0.11304676  1
  O  O12  1  0.97216549  0.11277823  0.61304676  1
  O  O13  1  0.48619937  0.14706392  0.61563180  1
  O  O14  1  0.83185040  0.50632562  0.23063029  1
  O  O15  1  0.48619937  0.64706392  0.88436820  1
  O  O16  1  0.66814960  0.50632562  0.73063029  1
  O  O17  1  0.82784778  0.76972864  0.49840987  1
  O  O18  1  0.16814960  0.49367438  0.76936971  1
  O  O19  1  0.01380063  0.14706392  0.11563180  1
  O  O20  1  0.51380063  0.35293608  0.11563180  1
  O  O21  1  0.67215222  0.26972864  0.50159013  1
  O  O22  1  0.98619937  0.35293608  0.61563180  1
  O  O23  1  0.51128501  0.11443596  0.35247374  1
  O  O24  1  0.52783451  0.11277823  0.11304676  1
  O  O25  1  0.98871499  0.11443596  0.85247374  1
  O  O26  1  0.01128501  0.88556404  0.14752626  1
  O  O27  1  0.16814960  0.99367438  0.73063029  1
  O  O28  1  0.01380063  0.64706392  0.38436820  1
  O  O29  1  0.48871499  0.88556404  0.64752626  1
  O  O30  1  0.51380063  0.85293608  0.38436820  1
  O  O31  1  0.33185040  0.99367438  0.23063029  1
  O  O32  1  0.52783451  0.61277823  0.38695324  1
  O  O33  1  0.51128501  0.61443596  0.14752626  1
  O  O34  1  0.17215222  0.23027136  0.50159013  1
  O  O35  1  0.32784778  0.23027136  0.00159013  1
  O  O36  1  0.67215222  0.76972864  -0.00159013  1
  O  O37  1  0.97216549  0.61277823  0.88695324  1
  O  O38  1  0.02783451  0.88722177  0.38695324  1
  O  O39  1  0.47216549  0.38722177  0.61304676  1
loop_
_geom_bond_atom_site_label_1
_geom_bond_atom_site_label_2
_geom_bond_distance
_geom_bond_site_symmetry_2
Cs0 O18 3.100583 1_555
Cs0 O35 3.128981 1_556
Cs0 O34 3.139719 1_555
Cs0 O27 3.177826 1_545
Cs0 O13 3.286254 1_555
Cs0 O6 3.319573 1_555
Cs0 O39 3.399066 1_555
Cs0 O25 3.450828 1_455
Cs0 O22 3.524261 1_455
Cs1 O36 3.068309 1_545
Cs1 O0 3.085639 1_554
Cs1 O25 3.182361 1_554
Cs1 O8 3.218364 1_544
Cs1 O10 3.224333 1_555
Cs1 O7 3.239656 1_555
Cs1 O24 3.309139 1_555
Cs1 O19 3.325810 1_655
Cs1 O26 3.353252 1_645
Cs2 O27 3.100583 1_555
Cs2 O9 3.128981 1_555
Cs2 O5 3.139719 1_556
Cs2 O18 3.177826 1_555
Cs2 O15 3.286254 1_555
Cs2 O29 3.319573 1_555
Cs2 O1 3.399066 1_555
Cs2 O3 3.450828 1_455
Cs2 O8 3.524261 1_455
Cs3 O17 3.068309 1_545
Cs3 O7 3.085639 1_555
Cs3 O23 3.182361 1_555
Cs3 O30 3.218364 1_545
Cs3 O21 3.224333 1_555
Cs3 O0 3.239656 1_555
Cs3 O12 3.309139 1_555
Cs3 O13 3.325810 1_555
Cs3 O29 3.353252 1_545
Cs4 O7 3.100583 1_555
Cs4 O21 3.128981 1_555
Cs4 O10 3.139719 1_555
Cs4 O14 3.177826 1_555
Cs4 O20 3.286254 1_555
Cs4 O23 3.319573 1_555
Cs4 O24 3.399066 1_555
Cs4 O2 3.450828 1_655
Cs4 O19 3.524261 1_655
Cs5 O31 3.100583 1_555
Cs5 O5 3.128981 1_555
Cs5 O9 3.139719 1_555
Cs5 O4 3.177826 1_555
Cs5 O28 3.286254 1_555
Cs5 O26 3.319573 1_555
Cs5 O38 3.399066 1_555
Cs5 O33 3.450828 1_555
Cs5 O30 3.524261 1_555
Cs6 O4 3.100583 1_555
Cs6 O34 3.128981 1_555
Cs6 O35 3.139719 1_555
Cs6 O31 3.177826 1_545
Cs6 O19 3.286254 1_555
Cs6 O2 3.319573 1_555
Cs6 O11 3.399066 1_555
Cs6 O23 3.450828 1_555
Cs6 O20 3.524261 1_555
Cs7 O34 3.068309 1_565
Cs7 O27 3.085639 1_555
Cs7 O29 3.182361 1_555
Cs7 O13 3.218364 1_565
Cs7 O9 3.224333 1_555
Cs7 O31 3.239656 1_555
Cs7 O38 3.309139 1_555
Cs7 O30 3.325810 1_555
Cs7 O23 3.353252 1_565
Cs8 O16 3.100583 1_555
Cs8 O17 3.128981 1_555
Cs8 O36 3.139719 1_556
Cs8 O0 3.177826 1_565
Cs8 O8 3.286254 1_555
Cs8 O3 3.319573 1_555
Cs8 O37 3.399066 1_555
Cs8 O29 3.450828 1_555
Cs8 O15 3.524261 1_555
Cs9 O10 3.068309 1_556
Cs9 O14 3.085639 1_556
Cs9 O33 3.182361 1_556
Cs9 O20 3.218364 1_556
Cs9 O36 3.224333 1_556
Cs9 O16 3.239656 1_555
Cs9 O37 3.309139 1_555
Cs9 O15 3.325810 1_555
Cs9 O6 3.353252 1_555
Cs10 O9 3.068309 1_555
Cs10 O4 3.085639 1_555
Cs10 O2 3.182361 1_555
Cs10 O28 3.218364 1_555
Cs10 O34 3.224333 1_555
Cs10 O18 3.239656 1_555
Cs10 O39 3.309139 1_555
Cs10 O22 3.325810 1_455
Cs10 O3 3.353252 1_455
Cs11 O21 3.068309 1_555
Cs11 O16 3.085639 1_555
Cs11 O3 3.182361 1_555
Cs11 O22 3.218364 1_555
Cs11 O17 3.224333 1_555
Cs11 O14 3.239656 1_555
Cs11 O32 3.309139 1_555
Cs11 O28 3.325810 1_655
Cs11 O2 3.353252 1_655
Cs12 O0 3.100583 1_555
Cs12 O10 3.128981 1_556
Cs12 O21 3.139719 1_555
Cs12 O16 3.177826 1_555
Cs12 O22 3.286254 1_555
Cs12 O25 3.319573 1_555
Cs12 O12 3.399066 1_555
Cs12 O6 3.450828 1_555
Cs12 O13 3.524261 1_555
Cs13 O35 3.068309 1_566
Cs13 O31 3.085639 1_556
Cs13 O26 3.182361 1_556
Cs13 O19 3.218364 1_566
Cs13 O5 3.224333 1_556
Cs13 O27 3.239656 1_555
Cs13 O1 3.309139 1_555
Cs13 O8 3.325810 1_455
Cs13 O25 3.353252 1_465
Cs14 O14 3.100583 1_555
Cs14 O36 3.128981 1_555
Cs14 O17 3.139719 1_555
Cs14 O7 3.177826 1_565
Cs14 O30 3.286254 1_555
Cs14 O33 3.319573 1_555
Cs14 O32 3.399066 1_555
Cs14 O26 3.450828 1_655
Cs14 O28 3.524261 1_655
Cs15 O5 3.068309 1_555
Cs15 O18 3.085639 1_554
Cs15 O6 3.182361 1_554
Cs15 O15 3.218364 1_554
Cs15 O35 3.224333 1_555
Cs15 O4 3.239656 1_555
Cs15 O11 3.309139 1_555
Cs15 O20 3.325810 1_555
Cs15 O33 3.353252 1_555
O0 Te0 1.834793 1_545
O1 Te12 1.990143 1_555
O1 Te0 2.000253 1_555
O2 Te8 1.851041 1_555
O2 Te6 2.596161 1_555
O3 Te14 1.851041 1_655
O3 Te7 2.596161 1_555
O4 Te4 1.834793 1_555
O5 Te1 1.834622 1_554
O6 Te5 1.851041 1_555
O6 Te11 2.596161 1_556
O7 Te15 1.834793 1_645
O8 Te1 1.853625 1_655
O8 Te3 2.562010 1_665
O9 Te2 1.834622 1_555
O10 Te10 1.834622 1_555
O11 Te10 1.990143 1_455
O11 Te8 2.000253 1_555
O12 Te6 1.990143 1_655
O12 Te3 2.000253 1_655
O13 Te9 1.853625 1_555
O13 Te0 2.562010 1_545
O14 Te8 1.834793 1_655
O15 Te12 1.853625 1_555
O15 Te5 2.562010 1_555
O16 Te5 1.834793 1_555
O17 Te7 1.834622 1_555
O18 Te14 1.834793 1_555
O19 Te10 1.853625 1_455
O19 Te15 2.562010 1_545
O20 Te11 1.853625 1_555
O20 Te4 2.562010 1_555
O21 Te9 1.834622 1_555
O22 Te6 1.853625 1_655
O22 Te14 2.562010 1_655
O23 Te13 1.851041 1_555
O23 Te9 2.596161 1_555
O24 Te11 1.990143 1_555
O24 Te13 2.000253 1_555
O25 Te3 1.851041 1_655
O25 Te10 2.596161 1_556
O26 Te15 1.851041 1_555
O26 Te1 2.596161 1_554
O27 Te3 1.834793 1_565
O28 Te7 1.853625 1_455
O28 Te8 2.562010 1_555
O29 Te0 1.851041 1_555
O29 Te2 2.596161 1_555
O30 Te2 1.853625 1_555
O30 Te13 2.562010 1_565
O31 Te13 1.834793 1_565
O32 Te2 1.990143 1_555
O32 Te4 2.000253 1_555
O33 Te4 1.851041 1_555
O33 Te12 2.596161 1_554
O34 Te6 1.834622 1_555
O35 Te11 1.834622 1_555
O36 Te12 1.834622 1_554
O37 Te1 1.990143 1_655
O37 Te14 2.000253 1_655
O38 Te7 1.990143 1_455
O38 Te15 2.000253 1_555
O39 Te9 1.990143 1_555
O39 Te5 2.000253 1_555
