# generated using pymatgen
data_KBC4NF9
_symmetry_space_group_name_H-M   'P 1'
_cell_length_a   9.19677811
_cell_length_b   9.60900785
_cell_length_c   10.43103222
_cell_angle_alpha   90.00000000
_cell_angle_beta   90.00000000
_cell_angle_gamma   90.00000000
_symmetry_Int_Tables_number   1
_chemical_formula_structural   KBC4NF9
_chemical_formula_sum   'K4 B4 C16 N4 F36'
_cell_volume   921.81027241
_cell_formula_units_Z   4
loop_
 _symmetry_equiv_pos_site_id
 _symmetry_equiv_pos_as_xyz
  1  'x, y, z'
loop_
 _atom_site_type_symbol
 _atom_site_label
 _atom_site_symmetry_multiplicity
 _atom_site_fract_x
 _atom_site_fract_y
 _atom_site_fract_z
 _atom_site_occupancy
  K  K0  1  0.48977097  0.71714797  0.25000000  1
  K  K1  1  0.51022903  0.28285203  0.75000000  1
  K  K2  1  0.01022903  0.21714797  0.25000000  1
  K  K3  1  0.98977097  0.78285203  0.75000000  1
  B  B0  1  0.98035762  0.21600669  0.75000000  1
  B  B1  1  0.01964238  0.78399331  0.25000000  1
  B  B2  1  0.51964238  0.71600669  0.75000000  1
  B  B3  1  0.48035762  0.28399331  0.25000000  1
  C  C0  1  0.98515112  0.37901340  0.75000000  1
  C  C1  1  0.60576962  0.66404363  0.87770175  1
  C  C2  1  0.64603150  0.34381737  0.25000000  1
  C  C3  1  0.10576962  0.83595637  0.12229825  1
  C  C4  1  0.89423038  0.16404363  0.62229825  1
  C  C5  1  0.10576962  0.83595637  0.37770175  1
  C  C6  1  0.39423038  0.33595637  0.12229825  1
  C  C7  1  0.85396850  0.84381737  0.25000000  1
  C  C8  1  0.01484888  0.62098660  0.25000000  1
  C  C9  1  0.48515112  0.12098660  0.25000000  1
  C  C10  1  0.39423038  0.33595637  0.37770175  1
  C  C11  1  0.14603150  0.15618263  0.75000000  1
  C  C12  1  0.89423038  0.16404363  0.87770175  1
  C  C13  1  0.60576962  0.66404363  0.62229825  1
  C  C14  1  0.51484888  0.87901340  0.75000000  1
  C  C15  1  0.35396850  0.65618263  0.75000000  1
  N  N0  1  0.98783732  0.49938329  0.75000000  1
  N  N1  1  0.48783732  0.00061671  0.25000000  1
  N  N2  1  0.51216268  -0.00061671  0.75000000  1
  N  N3  1  0.01216268  0.50061671  0.25000000  1
  F  F0  1  0.27449016  0.69740856  0.64603002  1
  F  F1  1  0.04007259  0.79427815  0.01094301  1
  F  F2  1  0.88111725  0.02234990  0.88745913  1
  F  F3  1  0.74493962  0.71431596  0.88510541  1
  F  F4  1  0.25506038  0.28568404  0.11489459  1
  F  F5  1  0.75506038  0.21431596  0.88510541  1
  F  F6  1  0.45992741  0.29427815  0.01094301  1
  F  F7  1  0.77449016  0.80259144  0.35396998  1
  F  F8  1  0.25506038  0.28568404  0.38510541  1
  F  F9  1  0.54007259  0.70572185  0.51094301  1
  F  F10  1  0.04007259  0.79427815  0.48905699  1
  F  F11  1  0.61888275  0.52234990  0.88745913  1
  F  F12  1  0.84656633  0.98699636  0.25000000  1
  F  F13  1  0.95992741  0.20572185  0.98905699  1
  F  F14  1  0.65343367  0.48699636  0.25000000  1
  F  F15  1  0.22550984  0.19740856  0.64603002  1
  F  F16  1  0.38111725  0.47765010  0.38745913  1
  F  F17  1  0.24493962  0.78568404  0.38510541  1
  F  F18  1  0.38111725  0.47765010  0.11254087  1
  F  F19  1  0.45992741  0.29427815  0.48905699  1
  F  F20  1  0.11888275  0.97765010  0.11254087  1
  F  F21  1  0.95992741  0.20572185  0.51094301  1
  F  F22  1  0.54007259  0.70572185  0.98905699  1
  F  F23  1  0.72550984  0.30259144  0.14603002  1
  F  F24  1  0.61888275  0.52234990  0.61254087  1
  F  F25  1  0.24493962  0.78568404  0.11489459  1
  F  F26  1  0.15343367  0.01300364  0.75000000  1
  F  F27  1  0.22550984  0.19740856  0.85396998  1
  F  F28  1  0.72550984  0.30259144  0.35396998  1
  F  F29  1  0.88111725  0.02234990  0.61254087  1
  F  F30  1  0.75506038  0.21431596  0.61489459  1
  F  F31  1  0.74493962  0.71431596  0.61489459  1
  F  F32  1  0.11888275  0.97765010  0.38745913  1
  F  F33  1  0.77449016  0.80259144  0.14603002  1
  F  F34  1  0.34656633  0.51300364  0.75000000  1
  F  F35  1  0.27449016  0.69740856  0.85396998  1
loop_
_geom_bond_atom_site_label_1
_geom_bond_atom_site_label_2
_geom_bond_distance
_geom_bond_site_symmetry_2
K0 N1 2.723911 1_565
K1 N2 2.723911 1_555
K2 N3 2.723911 1_555
K3 N0 2.723911 1_555
B0 C0 1.566953 1_555
B0 C12 1.628224 1_555
B0 C4 1.628224 1_555
B0 C11 1.628499 1_655
B1 C8 1.566953 1_555
B1 C5 1.628224 1_555
B1 C3 1.628224 1_555
B1 C7 1.628499 1_455
B2 C14 1.566953 1_555
B2 C13 1.628224 1_555
B2 C1 1.628224 1_555
B2 C15 1.628499 1_555
B3 C9 1.566953 1_555
B3 C10 1.628224 1_555
B3 C6 1.628224 1_555
B3 C2 1.628499 1_555
C0 N0 1.156899 1_555
C1 F22 1.369177 1_555
C1 F3 1.370220 1_555
C1 F11 1.370651 1_555
C2 F23 1.366521 1_555
C2 F28 1.366521 1_555
C2 F14 1.377491 1_555
C3 F1 1.369177 1_555
C3 F25 1.370220 1_555
C3 F20 1.370651 1_555
C4 F21 1.369177 1_555
C4 F30 1.370220 1_555
C4 F29 1.370651 1_555
C5 F10 1.369177 1_555
C5 F17 1.370220 1_555
C5 F32 1.370651 1_555
C6 F6 1.369177 1_555
C6 F4 1.370220 1_555
C6 F18 1.370651 1_555
C7 F33 1.366521 1_555
C7 F7 1.366521 1_555
C7 F12 1.377491 1_555
C8 N3 1.156899 1_555
C9 N1 1.156899 1_555
C10 F19 1.369177 1_555
C10 F8 1.370220 1_555
C10 F16 1.370651 1_555
C11 F27 1.366521 1_555
C11 F15 1.366521 1_555
C11 F26 1.377491 1_555
C12 F13 1.369177 1_555
C12 F5 1.370220 1_555
C12 F2 1.370651 1_555
C13 F9 1.369177 1_555
C13 F31 1.370220 1_555
C13 F24 1.370651 1_555
C14 N2 1.156899 1_565
C15 F35 1.366521 1_555
C15 F0 1.366521 1_555
C15 F34 1.377491 1_555
F0 K3 2.950728 1_455
F1 K3 2.763120 1_454
F2 K3 2.889737 1_545
F3 K3 2.736745 1_555
F4 K2 2.736745 1_555
F5 K1 2.736745 1_555
F6 K1 2.763120 1_554
F7 K0 2.950728 1_555
F8 K2 2.736745 1_555
F9 K0 2.763120 1_555
F10 K3 2.763120 1_455
F11 K1 2.889737 1_555
F12 K2 2.675144 1_665
F13 K2 2.763120 1_656
F14 K0 2.675144 1_555
F15 K1 2.950728 1_555
F16 K0 2.889737 1_555
F17 K0 2.736745 1_555
F18 K0 2.889737 1_555
F19 K1 2.763120 1_555
F20 K2 2.889737 1_565
F21 K2 2.763120 1_655
F22 K0 2.763120 1_556
F23 K2 2.950728 1_655
F24 K1 2.889737 1_555
F25 K0 2.736745 1_555
F26 K3 2.675144 1_445
F27 K1 2.950728 1_555
F28 K2 2.950728 1_655
F29 K3 2.889737 1_545
F30 K1 2.736745 1_555
F31 K3 2.736745 1_555
F32 K2 2.889737 1_565
F33 K0 2.950728 1_555
F34 K1 2.675144 1_555
F35 K3 2.950728 1_455
