# generated using pymatgen
data_Cs4Mg3F10
_symmetry_space_group_name_H-M   'P 1'
_cell_length_a   7.88121551
_cell_length_b   7.88121551
_cell_length_c   13.60783884
_cell_angle_alpha   90.00000000
_cell_angle_beta   90.00000000
_cell_angle_gamma   134.30623390
_symmetry_Int_Tables_number   1
_chemical_formula_structural   Cs4Mg3F10
_chemical_formula_sum   'Cs8 Mg6 F20'
_cell_volume   604.86165726
_cell_formula_units_Z   2
loop_
 _symmetry_equiv_pos_site_id
 _symmetry_equiv_pos_as_xyz
  1  'x, y, z'
loop_
 _atom_site_type_symbol
 _atom_site_label
 _atom_site_symmetry_multiplicity
 _atom_site_fract_x
 _atom_site_fract_y
 _atom_site_fract_z
 _atom_site_occupancy
  Cs  Cs0  1  0.25430262  0.74569738  0.60767980  1
  Cs  Cs1  1  0.74569738  0.25430262  0.39232020  1
  Cs  Cs2  1  0.24569738  0.75430262  0.10767980  1
  Cs  Cs3  1  0.75430262  0.24569738  0.89232020  1
  Cs  Cs4  1  0.94908502  0.05091498  0.63893783  1
  Cs  Cs5  1  0.05091498  0.94908502  0.36106217  1
  Cs  Cs6  1  0.55091498  0.44908502  0.13893783  1
  Cs  Cs7  1  0.44908502  0.55091498  0.86106217  1
  Mg  Mg0  1  0.61667813  0.38332187  0.65719385  1
  Mg  Mg1  1  0.38332187  0.61667813  0.34280615  1
  Mg  Mg2  1  0.88332187  0.11667813  0.15719385  1
  Mg  Mg3  1  0.11667813  0.88332187  0.84280615  1
  Mg  Mg4  1  0.50000000  0.50000000  0.50000000  1
  Mg  Mg5  1  -0.00000000  -0.00000000  0.00000000  1
  F  F0  1  0.61344580  0.80662176  0.45994641  1
  F  F1  1  0.80662176  0.61344580  0.54005359  1
  F  F2  1  0.88655420  0.69337824  0.95994641  1
  F  F3  1  0.69337824  0.88655420  0.04005359  1
  F  F4  1  0.38655420  0.19337824  0.54005359  1
  F  F5  1  0.19337824  0.38655420  0.45994641  1
  F  F6  1  0.11344580  0.30662176  0.04005359  1
  F  F7  1  0.30662176  0.11344580  0.95994641  1
  F  F8  1  0.47391679  0.52608321  0.64278662  1
  F  F9  1  0.52608321  0.47391679  0.35721338  1
  F  F10  1  0.02608321  0.97391679  0.14278662  1
  F  F11  1  0.97391679  0.02608321  0.85721338  1
  F  F12  1  0.74835206  0.25164794  0.64942461  1
  F  F13  1  0.25164794  0.74835206  0.35057539  1
  F  F14  1  0.35968164  0.14031836  0.75000000  1
  F  F15  1  0.14031836  0.35968164  0.25000000  1
  F  F16  1  0.64031836  0.85968164  0.25000000  1
  F  F17  1  0.85968164  0.64031836  0.75000000  1
  F  F18  1  0.24835206  0.75164794  0.85057539  1
  F  F19  1  0.75164794  0.24835206  0.14942461  1
loop_
_geom_bond_atom_site_label_1
_geom_bond_atom_site_label_2
_geom_bond_distance
_geom_bond_site_symmetry_2
Cs0 F4 3.040474 1_565
Cs0 F1 3.040474 1_455
Cs0 F12 3.113518 1_565
Cs0 F12 3.113518 1_455
Cs0 F5 3.222579 1_555
Cs0 F0 3.222579 1_555
Cs0 F8 3.225644 1_555
Cs0 F17 3.241102 1_455
Cs0 F14 3.241102 1_565
Cs0 F18 3.306414 1_555
Cs0 F13 3.498848 1_555
Cs1 F5 3.040474 1_655
Cs1 F0 3.040474 1_545
Cs1 F13 3.113518 1_545
Cs1 F13 3.113518 1_655
Cs1 F4 3.222579 1_555
Cs1 F1 3.222579 1_555
Cs1 F9 3.225644 1_555
Cs1 F16 3.241102 1_545
Cs1 F15 3.241102 1_655
Cs1 F19 3.306414 1_555
Cs1 F12 3.498848 1_555
Cs2 F6 3.040474 1_555
Cs2 F3 3.040474 1_555
Cs2 F19 3.113518 1_455
Cs2 F19 3.113518 1_565
Cs2 F7 3.222579 1_564
Cs2 F2 3.222579 1_454
Cs2 F10 3.225644 1_555
Cs2 F16 3.241102 1_555
Cs2 F15 3.241102 1_555
Cs2 F13 3.306414 1_555
Cs2 F18 3.498848 1_554
Cs3 F7 3.040474 1_555
Cs3 F2 3.040474 1_555
Cs3 F18 3.113518 1_655
Cs3 F18 3.113518 1_545
Cs3 F6 3.222579 1_656
Cs3 F3 3.222579 1_546
Cs3 F11 3.225644 1_555
Cs3 F17 3.241102 1_555
Cs3 F14 3.241102 1_555
Cs3 F12 3.306414 1_555
Cs3 F19 3.498848 1_556
Cs4 F12 2.919297 1_555
Cs4 F11 2.992080 1_555
Cs4 F8 3.081668 1_545
Cs4 F8 3.081668 1_655
Cs4 F0 3.085770 1_545
Cs4 F5 3.085770 1_655
Cs4 F4 3.090409 1_655
Cs4 F1 3.090409 1_545
Cs4 F17 3.172848 1_545
Cs4 F14 3.172848 1_655
Cs5 F13 2.919297 1_555
Cs5 F10 2.992080 1_555
Cs5 F9 3.081668 1_455
Cs5 F9 3.081668 1_565
Cs5 F1 3.085770 1_455
Cs5 F4 3.085770 1_565
Cs5 F0 3.090409 1_455
Cs5 F5 3.090409 1_565
Cs5 F15 3.172848 1_565
Cs5 F16 3.172848 1_455
Cs6 F19 2.919297 1_555
Cs6 F9 2.992080 1_555
Cs6 F10 3.081668 1_655
Cs6 F10 3.081668 1_545
Cs6 F2 3.085770 1_554
Cs6 F7 3.085770 1_554
Cs6 F3 3.090409 1_555
Cs6 F6 3.090409 1_555
Cs6 F15 3.172848 1_555
Cs6 F16 3.172848 1_555
Cs7 F18 2.919297 1_555
Cs7 F8 2.992080 1_555
Cs7 F11 3.081668 1_455
Cs7 F11 3.081668 1_565
Cs7 F3 3.085770 1_556
Cs7 F6 3.085770 1_556
Cs7 F2 3.090409 1_555
Cs7 F7 3.090409 1_555
Cs7 F14 3.172848 1_555
Cs7 F17 3.172848 1_555
F0 Mg4 1.979354 1_555
F0 Mg1 2.068427 1_555
F1 Mg4 1.979354 1_555
F1 Mg0 2.068427 1_555
F2 Mg5 1.979354 1_666
F2 Mg3 2.068427 1_655
F3 Mg5 1.979354 1_665
F3 Mg2 2.068427 1_565
F4 Mg4 1.979354 1_555
F4 Mg0 2.068427 1_555
F5 Mg4 1.979354 1_555
F5 Mg1 2.068427 1_555
F6 Mg5 1.979354 1_555
F6 Mg2 2.068427 1_455
F7 Mg5 1.979354 1_556
F7 Mg3 2.068427 1_545
F8 Mg4 1.979613 1_555
F8 Mg0 2.082970 1_555
F9 Mg4 1.979613 1_555
F9 Mg1 2.082970 1_555
F10 Mg5 1.979613 1_565
F10 Mg2 2.082970 1_465
F11 Mg5 1.979613 1_656
F11 Mg3 2.082970 1_645
F12 Mg0 1.915589 1_555
F13 Mg1 1.915589 1_555
F14 Mg0 1.986500 1_555
F14 Mg3 1.986500 1_545
F15 Mg1 1.986500 1_555
F15 Mg2 1.986500 1_455
F16 Mg2 1.986500 1_565
F16 Mg1 1.986500 1_555
F17 Mg3 1.986500 1_655
F17 Mg0 1.986500 1_555
F18 Mg3 1.915589 1_555
F19 Mg2 1.915589 1_555
