# generated using pymatgen
data_H6RuN3Cl3O
_symmetry_space_group_name_H-M   'P 1'
_cell_length_a   11.64596300
_cell_length_b   6.79399400
_cell_length_c   11.36165593
_cell_angle_alpha   60.96686478
_cell_angle_beta   90.00000000
_cell_angle_gamma   90.00000000
_symmetry_Int_Tables_number   1
_chemical_formula_structural   H6RuN3Cl3O
_chemical_formula_sum   'H24 Ru4 N12 Cl12 O4'
_cell_volume   785.99926745
_cell_formula_units_Z   4
loop_
 _symmetry_equiv_pos_site_id
 _symmetry_equiv_pos_as_xyz
  1  'x, y, z'
loop_
 _atom_site_type_symbol
 _atom_site_label
 _atom_site_symmetry_multiplicity
 _atom_site_fract_x
 _atom_site_fract_y
 _atom_site_fract_z
 _atom_site_occupancy
  H  H0  1  0.59564300  0.22421300  0.32745200  1
  H  H1  1  0.88804700  0.01618200  0.35728500  1
  H  H2  1  0.74363000  0.97993400  0.92197900  1
  H  H3  1  0.09564300  0.77578700  0.17254800  1
  H  H4  1  0.61195300  0.01618200  0.85728500  1
  H  H5  1  0.38804700  0.98381800  0.14271500  1
  H  H6  1  0.54044000  0.36737000  0.17259300  1
  H  H7  1  0.14141900  0.51858000  0.27714500  1
  H  H8  1  0.90435700  0.22421300  0.82745200  1
  H  H9  1  0.64141900  0.48142000  0.22285500  1
  H  H10  1  0.04044000  0.63263000  0.32740700  1
  H  H11  1  0.19414500  0.18714700  0.63758800  1
  H  H12  1  0.95956000  0.36737000  0.67259300  1
  H  H13  1  0.30585500  0.18714700  0.13758800  1
  H  H14  1  0.85858100  0.48142000  0.72285500  1
  H  H15  1  0.40435700  0.77578700  0.67254800  1
  H  H16  1  0.75637000  0.97993400  0.42197900  1
  H  H17  1  0.35858100  0.51858000  0.77714500  1
  H  H18  1  0.11195300  0.98381800  0.64271500  1
  H  H19  1  0.69414500  0.81285300  0.86241200  1
  H  H20  1  0.45956000  0.63263000  0.82740700  1
  H  H21  1  0.80585500  0.81285300  0.36241200  1
  H  H22  1  0.25637000  0.02006600  0.07802100  1
  H  H23  1  0.24363000  0.02006600  0.57802100  1
  Ru  Ru0  1  0.24012100  0.80425100  0.34915900  1
  Ru  Ru1  1  0.74012100  0.19574900  0.15084100  1
  Ru  Ru2  1  0.75987900  0.19574900  0.65084100  1
  Ru  Ru3  1  0.25987900  0.80425100  0.84915900  1
  N  N0  1  0.15511100  0.60164400  0.87991500  1
  N  N1  1  0.69500400  0.97534300  0.84718500  1
  N  N2  1  0.84488900  0.39835600  0.12008500  1
  N  N3  1  0.61466500  0.33347600  0.22802700  1
  N  N4  1  0.88533500  0.33347600  0.72802700  1
  N  N5  1  0.19500400  0.02465700  0.65281500  1
  N  N6  1  0.65511100  0.39835600  0.62008500  1
  N  N7  1  0.38533500  0.66652400  0.77197300  1
  N  N8  1  0.30499600  0.02465700  0.15281500  1
  N  N9  1  0.11466500  0.66652400  0.27197300  1
  N  N10  1  0.34488900  0.60164400  0.37991500  1
  N  N11  1  0.80499600  0.97534300  0.34718500  1
  Cl  Cl0  1  0.15462500  0.58040200  0.56952400  1
  Cl  Cl1  1  0.65462500  0.41959800  0.93047600  1
  Cl  Cl2  1  0.84537500  0.41959800  0.43047600  1
  Cl  Cl3  1  0.60365400  0.90965900  0.19586200  1
  Cl  Cl4  1  0.86680300  0.00887500  0.06979100  1
  Cl  Cl5  1  0.36680300  0.99112500  0.43020900  1
  Cl  Cl6  1  0.63319700  0.00887500  0.56979100  1
  Cl  Cl7  1  0.13319700  0.99112500  0.93020900  1
  Cl  Cl8  1  0.34537500  0.58040200  0.06952400  1
  Cl  Cl9  1  0.10365400  0.09034100  0.30413800  1
  Cl  Cl10  1  0.89634600  0.90965900  0.69586200  1
  Cl  Cl11  1  0.39634600  0.09034100  0.80413800  1
  O  O0  1  0.58115600  0.52797600  0.59660100  1
  O  O1  1  0.08115600  0.47202400  0.90339900  1
  O  O2  1  0.41884400  0.47202400  0.40339900  1
  O  O3  1  0.91884400  0.52797600  0.09660100  1
loop_
_geom_bond_atom_site_label_1
_geom_bond_atom_site_label_2
_geom_bond_distance
_geom_bond_site_symmetry_2
H0 N3 1.030664 1_555
H1 N11 1.027886 1_545
H2 N1 1.034178 1_555
H3 N9 1.030664 1_555
H4 N1 1.027886 1_545
H5 N8 1.027886 1_565
H6 N3 1.027694 1_555
H7 N9 1.026397 1_555
H8 N4 1.030664 1_555
H9 N3 1.026397 1_555
H10 N9 1.027694 1_555
H11 N5 1.031198 1_555
H12 N4 1.027694 1_555
H13 N8 1.031198 1_555
H14 N4 1.026397 1_555
H15 N7 1.030664 1_555
H16 N11 1.034178 1_555
H17 N7 1.026397 1_555
H18 N5 1.027886 1_565
H19 N1 1.031198 1_555
H20 N7 1.027694 1_555
H21 N11 1.031198 1_555
H22 N8 1.034178 1_555
H23 N5 1.034178 1_555
N0 O1 1.166381 1_555
N0 Ru3 1.743190 1_555
N1 Ru2 2.132421 1_565
N2 O3 1.166381 1_555
N2 Ru1 1.743190 1_555
N3 Ru1 2.139111 1_555
N4 Ru2 2.139111 1_555
N5 Ru3 2.132421 1_545
N6 O0 1.166381 1_555
N6 Ru2 1.743190 1_555
N7 Ru3 2.139111 1_555
N8 Ru0 2.132421 1_545
N9 Ru0 2.139111 1_555
N10 O2 1.166381 1_555
N10 Ru0 1.743190 1_555
N11 Ru1 2.132421 1_565
Cl0 Ru0 2.424250 1_555
Cl1 Ru1 2.424250 1_556
Cl2 Ru2 2.424250 1_555
Cl3 Ru1 2.366518 1_565
Cl4 Ru1 2.402362 1_555
Cl5 Ru0 2.402362 1_555
Cl6 Ru2 2.402362 1_555
Cl7 Ru3 2.402362 1_555
Cl8 Ru3 2.424250 1_554
Cl9 Ru0 2.366518 1_545
Cl10 Ru2 2.366518 1_565
Cl11 Ru3 2.366518 1_545
