# generated using pymatgen
data_PbI2
_symmetry_space_group_name_H-M   'P 1'
_cell_length_a   15.03516506
_cell_length_b   15.03516506
_cell_length_c   15.03516606
_cell_angle_alpha   17.72542128
_cell_angle_beta   17.72542128
_cell_angle_gamma   17.72541773
_symmetry_Int_Tables_number   1
_chemical_formula_structural   PbI2
_chemical_formula_sum   'Pb2 I4'
_cell_volume   275.01280845
_cell_formula_units_Z   2
loop_
 _symmetry_equiv_pos_site_id
 _symmetry_equiv_pos_as_xyz
  1  'x, y, z'
loop_
 _atom_site_type_symbol
 _atom_site_label
 _atom_site_symmetry_multiplicity
 _atom_site_fract_x
 _atom_site_fract_y
 _atom_site_fract_z
 _atom_site_occupancy
  Pb  Pb0  1  0.41695335  0.41695335  0.41695335  1
  Pb  Pb1  1  0.58304665  0.58304665  0.58304665  1
  I  I0  1  0.87450457  0.87450457  0.87450457  1
  I  I1  1  0.12549543  0.12549543  0.12549543  1
  I  I2  1  0.70844191  0.70844191  0.70844191  1
  I  I3  1  0.29155809  0.29155809  0.29155809  1
loop_
_geom_bond_atom_site_label_1
_geom_bond_atom_site_label_2
_geom_bond_distance
_geom_bond_site_symmetry_2
I0 Pb1 3.257169 1_565
I0 Pb1 3.257169 1_655
I0 Pb1 3.257170 1_556
I1 Pb0 3.257169 1_545
I1 Pb0 3.257169 1_455
I1 Pb0 3.257170 1_554
I2 Pb0 3.256393 1_655
I2 Pb0 3.256393 1_565
I2 Pb0 3.256394 1_556
I3 Pb1 3.256393 1_545
I3 Pb1 3.256393 1_455
I3 Pb1 3.256394 1_554
