# generated using pymatgen
data_LiB6O9F
_symmetry_space_group_name_H-M   'P 1'
_cell_length_a   7.88270000
_cell_length_b   8.65137000
_cell_length_c   10.95802800
_cell_angle_alpha   90.00000000
_cell_angle_beta   90.00000000
_cell_angle_gamma   90.00000000
_symmetry_Int_Tables_number   1
_chemical_formula_structural   LiB6O9F
_chemical_formula_sum   'Li4 B24 O36 F4'
_cell_volume   747.29536830
_cell_formula_units_Z   4
loop_
 _symmetry_equiv_pos_site_id
 _symmetry_equiv_pos_as_xyz
  1  'x, y, z'
loop_
 _atom_site_type_symbol
 _atom_site_label
 _atom_site_symmetry_multiplicity
 _atom_site_fract_x
 _atom_site_fract_y
 _atom_site_fract_z
 _atom_site_occupancy
  Li  Li0  1  0.23754400  0.30076800  0.22646600  1
  Li  Li1  1  0.76245600  0.69923200  0.72646600  1
  Li  Li2  1  0.73754400  0.19923200  0.22646600  1
  Li  Li3  1  0.26245600  0.80076800  0.72646600  1
  B  B0  1  0.87164300  0.39741200  0.65413100  1
  B  B1  1  0.05814000  0.34844900  0.48695300  1
  B  B2  1  0.59435600  0.91292000  0.60299300  1
  B  B3  1  0.12835700  0.60258800  0.15413100  1
  B  B4  1  0.36302600  0.60648800  0.31308700  1
  B  B5  1  0.94186000  0.65155100  0.98695300  1
  B  B6  1  0.04665500  0.84186800  0.48313600  1
  B  B7  1  0.54665500  0.65813200  0.48313600  1
  B  B8  1  0.63697400  0.39351200  0.81308700  1
  B  B9  1  0.53859100  0.40405100  0.39438600  1
  B  B10  1  0.90564400  0.41292000  0.10299300  1
  B  B11  1  0.55814000  0.15155100  0.48695300  1
  B  B12  1  0.37164300  0.10258800  0.65413100  1
  B  B13  1  0.44186000  0.84844900  0.98695300  1
  B  B14  1  0.95334500  0.15813200  0.98313600  1
  B  B15  1  0.09435600  0.58708000  0.60299300  1
  B  B16  1  0.13697400  0.10648800  0.81308700  1
  B  B17  1  0.45334500  0.34186800  0.98313600  1
  B  B18  1  0.62835700  0.89741200  0.15413100  1
  B  B19  1  0.40564400  0.08708000  0.10299300  1
  B  B20  1  0.03859100  0.09594900  0.39438600  1
  B  B21  1  0.86302600  0.89351200  0.31308700  1
  B  B22  1  0.96140900  0.90405100  0.89438600  1
  B  B23  1  0.46140900  0.59594900  0.89438600  1
  O  O0  1  0.74980200  0.33831700  0.73067600  1
  O  O1  1  0.93239900  0.79148600  0.39557900  1
  O  O2  1  0.63271700  0.01140400  0.49826100  1
  O  O3  1  0.39509600  0.49449800  0.97752000  1
  O  O4  1  0.93545800  0.29620200  0.56800900  1
  O  O5  1  0.06832000  0.45445200  0.16301600  1
  O  O6  1  0.93168000  0.54554800  0.66301600  1
  O  O7  1  0.56760100  0.29148600  0.89557900  1
  O  O8  1  0.43239900  0.70851400  0.39557900  1
  O  O9  1  0.10490400  0.99449800  0.47752000  1
  O  O10  1  0.89787800  0.24750200  0.07554200  1
  O  O11  1  0.56454200  0.79620200  0.06800900  1
  O  O12  1  0.89509600  0.00550200  0.97752000  1
  O  O13  1  0.60490400  0.50550200  0.47752000  1
  O  O14  1  0.75019800  0.83831700  0.23067600  1
  O  O15  1  0.09524400  0.24821700  0.39053200  1
  O  O16  1  0.40475600  0.74821700  0.89053200  1
  O  O17  1  0.86728300  0.51140400  0.99826100  1
  O  O18  1  0.43545800  0.20379800  0.56800900  1
  O  O19  1  0.06760100  0.20851400  0.89557900  1
  O  O20  1  0.06454200  0.70379800  0.06800900  1
  O  O21  1  0.59524400  0.25178300  0.39053200  1
  O  O22  1  0.91493900  0.04898300  0.31156900  1
  O  O23  1  0.08506100  0.95101700  0.81156900  1
  O  O24  1  0.41493900  0.45101700  0.31156900  1
  O  O25  1  0.24980200  0.16168300  0.73067600  1
  O  O26  1  0.58506100  0.54898300  0.81156900  1
  O  O27  1  0.56832000  0.04554800  0.16301600  1
  O  O28  1  0.10212200  0.75249800  0.57554200  1
  O  O29  1  0.39787800  0.25249800  0.07554200  1
  O  O30  1  0.60212200  0.74750200  0.57554200  1
  O  O31  1  0.90475600  0.75178300  0.89053200  1
  O  O32  1  0.13271700  0.48859600  0.49826100  1
  O  O33  1  0.43168000  0.95445200  0.66301600  1
  O  O34  1  0.25019800  0.66168300  0.23067600  1
  O  O35  1  0.36728300  0.98859600  0.99826100  1
  F  F0  1  0.72843500  0.92814600  0.69484300  1
  F  F1  1  0.77156500  0.42814600  0.19484300  1
  F  F2  1  0.22843500  0.57185400  0.69484300  1
  F  F3  1  0.27156500  0.07185400  0.19484300  1
loop_
_geom_bond_atom_site_label_1
_geom_bond_atom_site_label_2
_geom_bond_distance
_geom_bond_site_symmetry_2
Li0 O5 2.007636 1_555
Li0 O29 2.122945 1_555
Li0 O24 2.124781 1_555
Li0 O15 2.167292 1_555
Li1 O6 2.007636 1_555
Li1 O30 2.122945 1_555
Li1 O26 2.124781 1_555
Li1 O31 2.167292 1_555
Li2 O27 2.007636 1_555
Li2 O10 2.122945 1_555
Li2 O22 2.124781 1_555
Li2 O21 2.167292 1_555
Li3 O33 2.007636 1_555
Li3 O28 2.122945 1_555
Li3 O23 2.124781 1_555
Li3 O16 2.167292 1_555
B0 O6 1.369633 1_555
B0 O0 1.373817 1_555
B0 O4 1.382154 1_555
B1 O32 1.353149 1_555
B1 O4 1.388687 1_455
B1 O15 1.397803 1_555
B2 O2 1.460991 1_565
B2 O30 1.463646 1_555
B2 F0 1.465411 1_555
B2 O33 1.485287 1_555
B3 O5 1.369633 1_555
B3 O34 1.373817 1_555
B3 O20 1.382154 1_555
B4 O34 1.354456 1_555
B4 O8 1.376686 1_555
B4 O24 1.406008 1_555
B5 O17 1.353149 1_555
B5 O20 1.388687 1_656
B5 O31 1.397803 1_555
B6 O28 1.346959 1_555
B6 O1 1.386253 1_455
B6 O9 1.399366 1_555
B7 O30 1.346959 1_555
B7 O8 1.386253 1_555
B7 O13 1.399366 1_555
B8 O0 1.354456 1_555
B8 O7 1.376686 1_555
B8 O26 1.406008 1_555
B9 O13 1.368749 1_555
B9 O21 1.391606 1_555
B9 O24 1.392385 1_555
B10 O17 1.460991 1_554
B10 O10 1.463646 1_555
B10 F1 1.465411 1_555
B10 O5 1.485287 1_655
B11 O2 1.353149 1_555
B11 O18 1.388687 1_555
B11 O21 1.397803 1_555
B12 O33 1.369633 1_545
B12 O25 1.373817 1_555
B12 O18 1.382154 1_555
B13 O35 1.353149 1_555
B13 O11 1.388687 1_556
B13 O16 1.397803 1_555
B14 O10 1.346959 1_556
B14 O19 1.386253 1_655
B14 O12 1.399366 1_555
B15 O32 1.460991 1_555
B15 O28 1.463646 1_555
B15 F2 1.465411 1_555
B15 O6 1.485287 1_455
B16 O25 1.354456 1_555
B16 O19 1.376686 1_555
B16 O23 1.406008 1_545
B17 O29 1.346959 1_556
B17 O7 1.386253 1_555
B17 O3 1.399366 1_555
B18 O27 1.369633 1_565
B18 O14 1.373817 1_555
B18 O11 1.382154 1_555
B19 O35 1.460991 1_544
B19 O29 1.463646 1_555
B19 F3 1.465411 1_555
B19 O27 1.485287 1_555
B20 O9 1.368749 1_545
B20 O15 1.391606 1_555
B20 O22 1.392385 1_455
B21 O14 1.354456 1_555
B21 O1 1.376686 1_555
B21 O22 1.406008 1_565
B22 O12 1.368749 1_565
B22 O31 1.391606 1_555
B22 O23 1.392385 1_655
B23 O3 1.368749 1_555
B23 O16 1.391606 1_555
B23 O26 1.392385 1_555
F0 Li1 2.028315 1_555
F1 Li2 2.028315 1_555
F2 Li3 2.028315 1_555
F3 Li0 2.028315 1_555
