# generated using pymatgen
data_Pr2Ti2S2O5
_symmetry_space_group_name_H-M   'P 1'
_cell_length_a   3.88886000
_cell_length_b   3.88886000
_cell_length_c   12.02598015
_cell_angle_alpha   99.30475857
_cell_angle_beta   99.30475857
_cell_angle_gamma   90.00000000
_symmetry_Int_Tables_number   1
_chemical_formula_structural   Pr2Ti2S2O5
_chemical_formula_sum   'Pr2 Ti2 S2 O5'
_cell_volume   177.05331916
_cell_formula_units_Z   1
loop_
 _symmetry_equiv_pos_site_id
 _symmetry_equiv_pos_as_xyz
  1  'x, y, z'
loop_
 _atom_site_type_symbol
 _atom_site_label
 _atom_site_symmetry_multiplicity
 _atom_site_fract_x
 _atom_site_fract_y
 _atom_site_fract_z
 _atom_site_occupancy
  Pr  Pr0  1  0.66570400  0.66570400  0.33140800  1
  Pr  Pr1  1  0.33429600  0.33429600  0.66859200  1
  Ti  Ti0  1  0.07736400  0.07736400  0.15472800  1
  Ti  Ti1  1  0.92263600  0.92263600  0.84527200  1
  S  S0  1  0.79670400  0.79670400  0.59340800  1
  S  S1  1  0.20329600  0.20329600  0.40659200  1
  O  O0  1  0.59604200  0.09604200  0.19208400  1
  O  O1  1  0.40395800  0.90395800  0.80791600  1
  O  O2  1  0.00000000  0.00000000  0.00000000  1
  O  O3  1  0.90395800  0.40395800  0.80791600  1
  O  O4  1  0.09604200  0.59604200  0.19208400  1
loop_
_geom_bond_atom_site_label_1
_geom_bond_atom_site_label_2
_geom_bond_distance
_geom_bond_site_symmetry_2
Pr0 S1 2.887279 1_655
Pr0 S1 2.887279 1_565
Pr0 S1 2.887279 1_665
Pr0 S1 2.887279 1_555
Pr0 S0 3.067332 1_555
Pr1 S0 2.887279 1_555
Pr1 S0 2.887279 1_545
Pr1 S0 2.887279 1_455
Pr1 S0 2.887279 1_445
Pr1 S1 3.067332 1_555
S0 Ti1 2.948666 1_555
S1 Ti0 2.948666 1_555
O0 Ti0 1.993006 1_555
O0 Ti0 1.993006 1_655
O0 Pr0 2.537982 1_555
O0 Pr0 2.537982 1_545
O1 Ti1 1.993006 1_455
O1 Ti1 1.993006 1_555
O1 Pr1 2.537982 1_565
O1 Pr1 2.537982 1_555
O2 Ti1 1.811458 1_444
O2 Ti0 1.811458 1_555
O3 Ti1 1.993006 1_545
O3 Ti1 1.993006 1_555
O3 Pr1 2.537982 1_655
O3 Pr1 2.537982 1_555
O4 Ti0 1.993006 1_565
O4 Ti0 1.993006 1_555
O4 Pr0 2.537982 1_455
O4 Pr0 2.537982 1_555
