# generated using pymatgen
data_SrMnO3
_symmetry_space_group_name_H-M   'P 1'
_cell_length_a   5.53302777
_cell_length_b   5.53302777
_cell_length_c   9.28911500
_cell_angle_alpha   90.00000000
_cell_angle_beta   90.00000000
_cell_angle_gamma   119.78192162
_symmetry_Int_Tables_number   1
_chemical_formula_structural   SrMnO3
_chemical_formula_sum   'Sr4 Mn4 O12'
_cell_volume   246.82028281
_cell_formula_units_Z   4
loop_
 _symmetry_equiv_pos_site_id
 _symmetry_equiv_pos_as_xyz
  1  'x, y, z'
loop_
 _atom_site_type_symbol
 _atom_site_label
 _atom_site_symmetry_multiplicity
 _atom_site_fract_x
 _atom_site_fract_y
 _atom_site_fract_z
 _atom_site_occupancy
  Sr  Sr0  1  0.66135200  0.33864800  0.25000000  1
  Sr  Sr1  1  0.01992100  0.01992100  0.00000000  1
  Sr  Sr2  1  0.33864800  0.66135200  0.75000000  1
  Sr  Sr3  1  0.98007900  0.98007900  0.50000000  1
  Mn  Mn0  1  0.68610300  0.35083600  0.88784200  1
  Mn  Mn1  1  0.64916400  0.31389700  0.61215800  1
  Mn  Mn2  1  0.31389700  0.64916400  0.38784200  1
  Mn  Mn3  1  0.35083600  0.68610300  0.11215800  1
  O  O0  1  0.63462400  0.81762800  0.26733000  1
  O  O1  1  0.82007400  0.17992600  0.75000000  1
  O  O2  1  0.18237200  0.36537600  0.23267000  1
  O  O3  1  0.17992600  0.82007400  0.25000000  1
  O  O4  1  0.36537600  0.18237200  0.76733000  1
  O  O5  1  0.94789600  0.44620000  0.47867100  1
  O  O6  1  0.05210400  0.55380000  0.97867100  1
  O  O7  1  0.44584900  0.44584900  0.50000000  1
  O  O8  1  0.55415100  0.55415100  0.00000000  1
  O  O9  1  0.81762800  0.63462400  0.73267000  1
  O  O10  1  0.44620000  0.94789600  0.52132900  1
  O  O11  1  0.55380000  0.05210400  0.02132900  1
loop_
_geom_bond_atom_site_label_1
_geom_bond_atom_site_label_2
_geom_bond_distance
_geom_bond_site_symmetry_2
Mn0 O11 1.898283 1_556
Mn0 O4 1.904724 1_555
Mn0 O8 1.923510 1_556
Mn0 O1 1.944114 1_555
Mn0 O6 1.953159 1_655
Mn0 O9 1.984354 1_555
Mn1 O5 1.898283 1_555
Mn1 O9 1.904724 1_555
Mn1 O7 1.923510 1_555
Mn1 O1 1.944114 1_555
Mn1 O10 1.953159 1_545
Mn1 O4 1.984354 1_555
Mn2 O10 1.898283 1_555
Mn2 O0 1.904724 1_555
Mn2 O7 1.923510 1_555
Mn2 O3 1.944114 1_555
Mn2 O5 1.953159 1_455
Mn2 O2 1.984354 1_555
Mn3 O6 1.898283 1_554
Mn3 O2 1.904724 1_555
Mn3 O8 1.923510 1_555
Mn3 O3 1.944114 1_555
Mn3 O11 1.953159 1_565
Mn3 O0 1.984354 1_555
O0 Sr3 2.725051 1_555
O0 Sr0 2.731436 1_555
O0 Sr0 2.816897 1_565
O0 Sr1 3.097384 1_665
O1 Sr2 2.781317 1_545
O1 Sr2 2.781317 1_655
O1 Sr1 2.893431 1_656
O1 Sr3 2.893431 1_545
O2 Sr1 2.725051 1_555
O2 Sr0 2.731436 1_555
O2 Sr0 2.816897 1_455
O2 Sr3 3.097384 1_445
O3 Sr0 2.781317 1_455
O3 Sr0 2.781317 1_565
O3 Sr3 2.893431 1_455
O3 Sr1 2.893431 1_565
O4 Sr1 2.725051 1_556
O4 Sr2 2.731436 1_555
O4 Sr2 2.816897 1_545
O4 Sr3 3.097384 1_445
O5 Sr0 2.538220 1_555
O5 Sr3 2.679316 1_545
O5 Sr3 2.876516 1_555
O5 Sr2 3.144396 1_655
O6 Sr2 2.538220 1_555
O6 Sr1 2.679316 1_566
O6 Sr1 2.876516 1_556
O6 Sr0 3.144396 1_456
O7 Sr3 2.585609 1_445
O7 Sr2 2.805204 1_555
O7 Sr0 2.805204 1_555
O7 Sr3 2.965647 1_555
O8 Sr1 2.585609 1_665
O8 Sr2 2.805204 1_554
O8 Sr0 2.805204 1_555
O8 Sr1 2.965647 1_555
O9 Sr3 2.725051 1_555
O9 Sr2 2.731436 1_555
O9 Sr2 2.816897 1_655
O9 Sr1 3.097384 1_666
O10 Sr2 2.538220 1_555
O10 Sr3 2.679316 1_455
O10 Sr3 2.876516 1_555
O10 Sr0 3.144396 1_565
O11 Sr0 2.538220 1_555
O11 Sr1 2.679316 1_655
O11 Sr1 2.876516 1_555
O11 Sr2 3.144396 1_544
