# generated using pymatgen
data_Sr2CoReO6
_symmetry_space_group_name_H-M   'P 1'
_cell_length_a   5.63701979
_cell_length_b   5.65881107
_cell_length_c   16.00700501
_cell_angle_alpha   90.03406676
_cell_angle_beta   90.01244648
_cell_angle_gamma   90.09183323
_symmetry_Int_Tables_number   1
_chemical_formula_structural   Sr2CoReO6
_chemical_formula_sum   'Sr8 Co4 Re4 O24'
_cell_volume   510.60397329
_cell_formula_units_Z   4
loop_
 _symmetry_equiv_pos_site_id
 _symmetry_equiv_pos_as_xyz
  1  'x, y, z'
loop_
 _atom_site_type_symbol
 _atom_site_label
 _atom_site_symmetry_multiplicity
 _atom_site_fract_x
 _atom_site_fract_y
 _atom_site_fract_z
 _atom_site_occupancy
  Sr  Sr0  1  0.47914500  0.49666400  0.37418300  1
  Sr  Sr1  1  0.48098900  0.49666000  0.87459400  1
  Sr  Sr2  1  0.01842300  0.99579200  0.12551700  1
  Sr  Sr3  1  0.01849300  0.99735500  0.62450600  1
  Sr  Sr4  1  0.98024800  0.00398300  0.37511600  1
  Sr  Sr5  1  0.98214900  0.00275700  0.87510600  1
  Sr  Sr6  1  0.52066800  0.50446100  0.12546800  1
  Sr  Sr7  1  0.51775500  0.50247700  0.62559800  1
  Co  Co0  1  0.00022400  0.50060600  0.74991500  1
  Co  Co1  1  0.50032400  0.99921300  0.50014900  1
  Co  Co2  1  0.99991500  0.50011800  0.25013200  1
  Co  Co3  1  0.49998000  0.99988900  0.00015400  1
  Re  Re0  1  0.50021000  0.99987700  0.24969000  1
  Re  Re1  1  0.49975300  0.99988800  0.74979600  1
  Re  Re2  1  0.00059600  0.50018100  0.00014500  1
  Re  Re3  1  0.99937000  0.50008900  0.50036100  1
  O  O0  1  0.28315100  0.73438900  0.23623000  1
  O  O1  1  0.28262500  0.73639000  0.73558300  1
  O  O2  1  0.78390900  0.76418300  0.01364900  1
  O  O3  1  0.78301100  0.76332200  0.51436600  1
  O  O4  1  0.21626800  0.23685500  0.48604300  1
  O  O5  1  0.21688500  0.23640700  0.98647000  1
  O  O6  1  0.71647800  0.26586400  0.26323500  1
  O  O7  1  0.71688000  0.26321300  0.76433200  1
  O  O8  1  0.76670900  0.78564200  0.23591100  1
  O  O9  1  0.76479300  0.78469900  0.73603200  1
  O  O10  1  0.23330100  0.21288700  0.26372100  1
  O  O11  1  0.23438300  0.21513300  0.76359600  1
  O  O12  1  0.26563700  0.71561700  0.01496300  1
  O  O13  1  0.26492500  0.71555300  0.51433500  1
  O  O14  1  0.73379600  0.28504400  0.48599900  1
  O  O15  1  0.73551200  0.28512400  0.98518900  1
  O  O16  1  0.50794400  0.94519900  0.36879400  1
  O  O17  1  0.50456400  0.94716900  0.86939500  1
  O  O18  1  0.49430600  0.05404400  0.13094100  1
  O  O19  1  0.49406500  0.05200900  0.63050200  1
  O  O20  1  0.99579400  0.44613000  0.11919000  1
  O  O21  1  0.99322500  0.44798800  0.61957200  1
  O  O22  1  0.00681400  0.55244100  0.38092000  1
  O  O23  1  0.00678400  0.55468900  0.88060200  1
loop_
_geom_bond_atom_site_label_1
_geom_bond_atom_site_label_2
_geom_bond_distance
_geom_bond_site_symmetry_2
Co0 O1 2.088237 1_555
Co0 O9 2.098157 1_455
Co0 O7 2.098244 1_455
Co0 O11 2.099290 1_555
Co0 O21 2.107717 1_455
Co0 O23 2.114303 1_555
Co1 O3 2.092833 1_555
Co1 O13 2.093488 1_555
Co1 O14 2.096024 1_565
Co1 O4 2.104860 1_565
Co1 O19 2.107977 1_565
Co1 O16 2.124974 1_555
Co2 O6 2.085105 1_555
Co2 O0 2.085632 1_655
Co2 O8 2.097056 1_555
Co2 O10 2.104080 1_655
Co2 O22 2.114524 1_655
Co2 O20 2.118075 1_555
Co3 O12 2.093497 1_555
Co3 O5 2.095944 1_564
Co3 O2 2.096284 1_555
Co3 O15 2.102185 1_564
Co3 O17 2.114208 1_554
Co3 O18 2.115895 1_565
O0 Re0 1.947867 1_555
O0 Sr6 2.575426 1_555
O0 Sr2 2.750398 1_555
O0 Sr0 2.813139 1_555
O0 Sr4 3.192368 1_465
O1 Re1 1.940821 1_555
O1 Sr7 2.571421 1_555
O1 Sr3 2.751002 1_555
O1 Sr1 2.837133 1_555
O1 Sr5 3.183488 1_465
O2 Re2 1.943229 1_655
O2 Sr2 2.581175 1_655
O2 Sr6 2.750091 1_555
O2 Sr5 2.826517 1_564
O2 Sr1 3.185599 1_554
O3 Re3 1.939624 1_555
O3 Sr3 2.571909 1_655
O3 Sr7 2.753530 1_555
O3 Sr4 2.838834 1_565
O3 Sr0 3.198774 1_555
O4 Re3 1.942127 1_455
O4 Sr4 2.578758 1_455
O4 Sr0 2.749677 1_555
O4 Sr3 2.826986 1_545
O4 Sr7 3.181803 1_555
O5 Re2 1.941129 1_556
O5 Sr5 2.582110 1_455
O5 Sr1 2.754913 1_555
O5 Sr2 2.838867 1_546
O5 Sr6 3.188993 1_556
O6 Re0 1.947404 1_545
O6 Sr0 2.579434 1_555
O6 Sr4 2.761023 1_555
O6 Sr6 2.812765 1_555
O6 Sr2 3.177778 1_645
O7 Re1 1.940677 1_545
O7 Sr1 2.575318 1_555
O7 Sr5 2.749803 1_555
O7 Sr7 2.834090 1_555
O7 Sr3 3.188947 1_645
O8 Re0 1.944429 1_555
O8 Sr2 2.558957 1_655
O8 Sr6 2.751219 1_555
O8 Sr4 2.816283 1_565
O8 Sr0 3.193418 1_555
O9 Re1 1.941434 1_555
O9 Sr3 2.584264 1_655
O9 Sr7 2.757359 1_555
O9 Sr5 2.823177 1_565
O9 Sr1 3.183236 1_555
O10 Re0 1.942361 1_545
O10 Sr4 2.570978 1_455
O10 Sr0 2.759362 1_555
O10 Sr2 2.803782 1_545
O10 Sr6 3.200188 1_555
O11 Re1 1.943132 1_545
O11 Sr5 2.578790 1_455
O11 Sr1 2.759660 1_555
O11 Sr3 2.819118 1_545
O11 Sr7 3.173709 1_555
O12 Re2 1.941215 1_555
O12 Sr6 2.574930 1_555
O12 Sr2 2.755376 1_555
O12 Sr1 2.839026 1_554
O12 Sr5 3.196362 1_464
O13 Re3 1.941947 1_455
O13 Sr7 2.581461 1_555
O13 Sr3 2.754533 1_555
O13 Sr0 2.833379 1_555
O13 Sr4 3.196315 1_465
O14 Re3 1.941267 1_555
O14 Sr0 2.589420 1_555
O14 Sr4 2.759477 1_555
O14 Sr7 2.827190 1_555
O14 Sr3 3.186284 1_645
O15 Re2 1.940328 1_656
O15 Sr1 2.575323 1_555
O15 Sr5 2.756070 1_555
O15 Sr6 2.837600 1_556
O15 Sr2 3.206356 1_646
O16 Re0 1.932118 1_555
O16 Sr0 2.544616 1_555
O16 Sr4 2.684437 1_565
O16 Sr4 2.995430 1_465
O16 Sr0 3.126256 1_565
O17 Re1 1.937893 1_555
O17 Sr1 2.554001 1_555
O17 Sr5 2.711486 1_565
O17 Sr5 2.963542 1_465
O17 Sr1 3.113581 1_565
O18 Re0 1.925840 1_545
O18 Sr6 2.554471 1_555
O18 Sr2 2.703584 1_545
O18 Sr2 2.974596 1_645
O18 Sr6 3.114954 1_545
O19 Re1 1.932624 1_545
O19 Sr7 2.553649 1_555
O19 Sr3 2.699777 1_545
O19 Sr3 2.974402 1_645
O19 Sr7 3.113721 1_545
O20 Re2 1.930314 1_655
O20 Sr2 2.553840 1_645
O20 Sr6 2.700968 1_555
O20 Sr6 2.978222 1_655
O20 Sr2 3.114430 1_655
O21 Re3 1.931336 1_555
O21 Sr3 2.555516 1_645
O21 Sr7 2.700141 1_555
O21 Sr7 2.973866 1_655
O21 Sr3 3.112752 1_655
O22 Re3 1.935336 1_455
O22 Sr4 2.561554 1_465
O22 Sr0 2.683868 1_555
O22 Sr0 2.992591 1_455
O22 Sr4 3.108324 1_455
O23 Re2 1.938720 1_556
O23 Sr5 2.541129 1_465
O23 Sr1 2.695449 1_555
O23 Sr1 2.983052 1_455
O23 Sr5 3.127327 1_455
