# generated using pymatgen
data_Na4UCr3O14
_symmetry_space_group_name_H-M   'P 1'
_cell_length_a   7.33493000
_cell_length_b   8.64439833
_cell_length_c   11.63134866
_cell_angle_alpha   80.07166195
_cell_angle_beta   78.74312190
_cell_angle_gamma   69.08004334
_symmetry_Int_Tables_number   1
_chemical_formula_structural   Na4UCr3O14
_chemical_formula_sum   'Na8 U2 Cr6 O28'
_cell_volume   671.36929470
_cell_formula_units_Z   2
loop_
 _symmetry_equiv_pos_site_id
 _symmetry_equiv_pos_as_xyz
  1  'x, y, z'
loop_
 _atom_site_type_symbol
 _atom_site_label
 _atom_site_symmetry_multiplicity
 _atom_site_fract_x
 _atom_site_fract_y
 _atom_site_fract_z
 _atom_site_occupancy
  Na  Na0  1  0.77726700  0.53609700  0.78772100  1
  Na  Na1  1  0.22273300  0.46390300  0.21227900  1
  Na  Na2  1  0.04397000  0.90851800  0.67385500  1
  Na  Na3  1  0.66076700  0.14896100  0.95611200  1
  Na  Na4  1  0.33923300  0.85103900  0.04388800  1
  Na  Na5  1  0.73618500  0.77917900  0.48456700  1
  Na  Na6  1  0.95603000  0.09148200  0.32614500  1
  Na  Na7  1  0.26381500  0.22082100  0.51543300  1
  U  U0  1  0.31894300  0.38110300  0.76676900  1
  U  U1  1  0.68105700  0.61889700  0.23323100  1
  Cr  Cr0  1  0.51764400  0.92229700  0.74122200  1
  Cr  Cr1  1  0.98351600  0.73440400  0.95494100  1
  Cr  Cr2  1  0.25386800  0.66095800  0.47456300  1
  Cr  Cr3  1  0.48235600  0.07770300  0.25877800  1
  Cr  Cr4  1  0.01648400  0.26559600  0.04505900  1
  Cr  Cr5  1  0.74613200  0.33904200  0.52543700  1
  O  O0  1  0.23175000  0.27331900  0.96525100  1
  O  O1  1  0.76907000  0.49519000  0.57651500  1
  O  O2  1  0.94222400  0.40205400  0.14840500  1
  O  O3  1  0.46664700  0.78720800  0.84884100  1
  O  O4  1  0.93540200  0.16969100  0.55051800  1
  O  O5  1  0.06459800  0.83030900  0.44948200  1
  O  O6  1  0.05777600  0.59794600  0.85159500  1
  O  O7  1  0.13029700  0.33307400  0.71146000  1
  O  O8  1  0.74726900  0.83381900  0.67706700  1
  O  O9  1  0.53311300  0.30651100  0.59241700  1
  O  O10  1  0.25565900  0.62299700  0.62212200  1
  O  O11  1  0.14822900  0.68426300  0.04358300  1
  O  O12  1  0.74434100  0.37700300  0.37787800  1
  O  O13  1  0.86970300  0.66692600  0.28854000  1
  O  O14  1  0.46688700  0.69348900  0.40758300  1
  O  O15  1  0.76825000  0.72668100  0.03474900  1
  O  O16  1  0.25273100  0.16618100  0.32293300  1
  O  O17  1  0.49762800  0.09809200  0.79954200  1
  O  O18  1  0.36537300  0.96646600  0.64312500  1
  O  O19  1  0.51391000  0.41969800  0.82264800  1
  O  O20  1  0.63462700  0.03353400  0.35687500  1
  O  O21  1  0.48609000  0.58030200  0.17735200  1
  O  O22  1  0.50237200  0.90190800  0.20045800  1
  O  O23  1  0.04824000  0.07613900  0.11289300  1
  O  O24  1  0.95176000  0.92386100  0.88710700  1
  O  O25  1  0.85177100  0.31573700  0.95641700  1
  O  O26  1  0.53335300  0.21279200  0.15115900  1
  O  O27  1  0.23093000  0.50481000  0.42348500  1
loop_
_geom_bond_atom_site_label_1
_geom_bond_atom_site_label_2
_geom_bond_distance
_geom_bond_site_symmetry_2
Na0 O19 2.418607 1_555
Na0 O25 2.482672 1_555
Na0 O1 2.556560 1_555
Na0 O6 2.567199 1_655
Na0 O3 2.603127 1_555
Na0 O8 2.625343 1_555
Na0 O7 2.639475 1_655
Na1 O21 2.418607 1_555
Na1 O11 2.482672 1_555
Na1 O27 2.556560 1_555
Na1 O2 2.567199 1_455
Na1 O26 2.603127 1_555
Na1 O16 2.625343 1_555
Na1 O13 2.639475 1_455
Na2 O4 2.415481 1_465
Na2 O24 2.453951 1_455
Na2 O8 2.473469 1_455
Na2 O10 2.505072 1_555
Na2 O18 2.527637 1_555
Na2 O5 2.769840 1_555
Na3 O25 2.342508 1_555
Na3 O26 2.358036 1_556
Na3 O24 2.426940 1_545
Na3 O17 2.538586 1_555
Na3 O19 2.578211 1_555
Na3 O0 2.926155 1_555
Na4 O11 2.342508 1_555
Na4 O3 2.358036 1_554
Na4 O23 2.426940 1_565
Na4 O22 2.538586 1_555
Na4 O21 2.578211 1_555
Na4 O15 2.926155 1_555
Na5 O8 2.388756 1_555
Na5 O20 2.394052 1_565
Na5 O1 2.449707 1_555
Na5 O13 2.512346 1_555
Na5 O5 2.545381 1_655
Na5 O14 2.686330 1_555
Na6 O5 2.415481 1_645
Na6 O23 2.453951 1_655
Na6 O16 2.473469 1_655
Na6 O12 2.505072 1_555
Na6 O20 2.527637 1_555
Na6 O4 2.769840 1_555
Na7 O16 2.388756 1_555
Na7 O18 2.394052 1_545
Na7 O27 2.449707 1_555
Na7 O7 2.512346 1_555
Na7 O4 2.545381 1_455
Na7 O9 2.686330 1_555
Cr0 O3 1.641814 1_555
Cr0 O18 1.654659 1_555
Cr0 O8 1.662767 1_555
Cr0 O17 1.717052 1_565
Cr1 O11 1.633642 1_656
Cr1 O24 1.647033 1_555
Cr1 O15 1.685509 1_556
Cr1 O6 1.705157 1_655
Cr2 O27 1.637370 1_555
Cr2 O5 1.647736 1_555
Cr2 O10 1.692657 1_555
Cr2 O14 1.700104 1_555
Cr3 O26 1.641814 1_555
Cr3 O20 1.654659 1_555
Cr3 O16 1.662767 1_555
Cr3 O22 1.717052 1_545
Cr4 O25 1.633642 1_454
Cr4 O23 1.647033 1_555
Cr4 O0 1.685509 1_554
Cr4 O2 1.705157 1_455
Cr5 O1 1.637370 1_555
Cr5 O4 1.647736 1_555
Cr5 O12 1.692657 1_555
Cr5 O9 1.700104 1_555
O0 U0 2.390441 1_555
O2 U1 2.343575 1_555
O6 U0 2.343575 1_555
O7 U0 1.830511 1_555
O9 U0 2.340924 1_555
O10 U0 2.411865 1_555
O12 U1 2.411865 1_555
O13 U1 1.830511 1_555
O14 U1 2.340924 1_555
O15 U1 2.390441 1_555
O17 U0 2.330650 1_555
O19 U0 1.832271 1_555
O21 U1 1.832271 1_555
O22 U1 2.330650 1_555
