# generated using pymatgen
data_EuCl3
_symmetry_space_group_name_H-M   'P 1'
_cell_length_a   7.48563960
_cell_length_b   7.43537828
_cell_length_c   4.22311489
_cell_angle_alpha   89.99997482
_cell_angle_beta   90.00000332
_cell_angle_gamma   119.53508799
_symmetry_Int_Tables_number   1
_chemical_formula_structural   EuCl3
_chemical_formula_sum   'Eu2 Cl6'
_cell_volume   204.50836331
_cell_formula_units_Z   2
loop_
 _symmetry_equiv_pos_site_id
 _symmetry_equiv_pos_as_xyz
  1  'x, y, z'
loop_
 _atom_site_type_symbol
 _atom_site_label
 _atom_site_symmetry_multiplicity
 _atom_site_fract_x
 _atom_site_fract_y
 _atom_site_fract_z
 _atom_site_occupancy
  Eu  Eu0  1  0.33437120  0.66688630  0.24999996  1
  Eu  Eu1  1  0.66981533  0.33042135  0.74999974  1
  Cl  Cl0  1  0.39127093  0.30860759  0.25000012  1
  Cl  Cl1  1  0.91025112  0.60755110  0.24999981  1
  Cl  Cl2  1  0.30281214  0.91624817  0.75000010  1
  Cl  Cl3  1  0.60980479  0.69544356  0.75000008  1
  Cl  Cl4  1  0.08530573  0.39255749  0.75000002  1
  Cl  Cl5  1  0.69636875  0.08228543  0.25000017  1
loop_
_geom_bond_atom_site_label_1
_geom_bond_atom_site_label_2
_geom_bond_distance
_geom_bond_site_symmetry_2
Cl0 Eu0 2.897697 1_555
Cl0 Eu1 2.915325 1_555
Cl0 Eu1 2.915328 1_554
Cl1 Eu1 2.878809 1_555
Cl1 Eu1 2.878810 1_554
Cl1 Eu0 2.982135 1_655
Cl2 Eu0 2.895515 1_556
Cl2 Eu0 2.895517 1_555
Cl2 Eu1 2.947856 1_565
Cl3 Eu0 2.884985 1_556
Cl3 Eu0 2.884986 1_555
Cl3 Eu1 2.961427 1_555
Cl4 Eu0 2.888927 1_555
Cl4 Eu0 2.888928 1_556
Cl4 Eu1 2.910356 1_455
Cl5 Eu1 2.874667 1_555
Cl5 Eu1 2.874668 1_554
Cl5 Eu0 2.937859 1_545
