# generated using pymatgen
data_Gd3Sb5O12
_symmetry_space_group_name_H-M   'P 1'
_cell_length_a   9.40501668
_cell_length_b   9.40501559
_cell_length_c   9.40501563
_cell_angle_alpha   109.47103960
_cell_angle_beta   109.47111414
_cell_angle_gamma   109.47114950
_symmetry_Int_Tables_number   1
_chemical_formula_structural   Gd3Sb5O12
_chemical_formula_sum   'Gd6 Sb10 O24'
_cell_volume   640.41079375
_cell_formula_units_Z   2
loop_
 _symmetry_equiv_pos_site_id
 _symmetry_equiv_pos_as_xyz
  1  'x, y, z'
loop_
 _atom_site_type_symbol
 _atom_site_label
 _atom_site_symmetry_multiplicity
 _atom_site_fract_x
 _atom_site_fract_y
 _atom_site_fract_z
 _atom_site_occupancy
  Gd  Gd0  1  0.24999820  0.49999702  0.74999756  1
  Gd  Gd1  1  0.49999802  0.74999802  0.24999729  1
  Gd  Gd2  1  0.49999685  0.24999853  0.74999667  1
  Gd  Gd3  1  0.74999683  0.24999657  0.49999794  1
  Gd  Gd4  1  0.24999815  0.74999714  0.49999717  1
  Gd  Gd5  1  0.74999717  0.49999798  0.24999799  1
  Sb  Sb0  1  0.71994481  0.71994492  0.00000062  1
  Sb  Sb1  1  0.28005666  0.28005612  0.00000268  1
  Sb  Sb2  1  0.71994198  -0.00000132  0.71994432  1
  Sb  Sb3  1  0.28005491  -0.00000020  0.28005541  1
  Sb  Sb4  1  -0.00000146  0.28005684  0.28005608  1
  Sb  Sb5  1  -0.00000073  0.71994209  0.71994352  1
  Sb  Sb6  1  -0.00000092  -0.00000033  0.48734128  1
  Sb  Sb7  1  0.48733919  -0.00000021  0.99999864  1
  Sb  Sb8  1  -0.00000114  0.48733872  -0.00000136  1
  Sb  Sb9  1  0.51266512  0.51266426  0.51266418  1
  O  O0  1  0.29381570  -0.00000047  0.49305013  1
  O  O1  1  0.19923648  0.70618444  0.70618445  1
  O  O2  1  -0.00000059  0.49305133  0.29381587  1
  O  O3  1  0.50695154  0.50695162  0.80076527  1
  O  O4  1  0.49305007  0.29381498  -0.00000068  1
  O  O5  1  0.70618499  0.19923583  0.70618576  1
  O  O6  1  0.50695041  0.80076440  0.50694961  1
  O  O7  1  0.29381538  0.49304998  0.00000013  1
  O  O8  1  0.80076487  0.50694935  0.50694997  1
  O  O9  1  -0.00000079  0.29381579  0.49305033  1
  O  O10  1  0.70618510  0.70618511  0.19923591  1
  O  O11  1  0.49304972  -0.00000034  0.29381508  1
  O  O12  1  0.80169900  0.00000314  0.52506338  1
  O  O13  1  0.72336244  0.19830321  0.19830107  1
  O  O14  1  0.00000302  0.52506160  0.80169893  1
  O  O15  1  0.47493973  0.47493909  0.27663655  1
  O  O16  1  0.52506333  0.80169964  0.00000312  1
  O  O17  1  0.19830263  0.72336254  0.19830214  1
  O  O18  1  0.47493943  0.27663688  0.47493957  1
  O  O19  1  0.80169845  0.52506173  0.00000090  1
  O  O20  1  0.27663759  0.47493993  0.47493964  1
  O  O21  1  0.00000221  0.80169906  0.52506306  1
  O  O22  1  0.19830324  0.19830308  0.72336359  1
  O  O23  1  0.52506243  0.00000190  0.80169819  1
loop_
_geom_bond_atom_site_label_1
_geom_bond_atom_site_label_2
_geom_bond_distance
_geom_bond_site_symmetry_2
Gd0 O9 2.275285 1_555
Gd0 O1 2.275293 1_555
Gd0 O7 2.275302 1_556
Gd0 O3 2.275304 1_555
Gd0 O22 2.622110 1_555
Gd0 O14 2.622111 1_555
Gd0 O20 2.622120 1_555
Gd0 O16 2.622189 1_556
Gd1 O7 2.275284 1_555
Gd1 O10 2.275289 1_555
Gd1 O11 2.275298 1_565
Gd1 O6 2.275305 1_555
Gd1 O16 2.622104 1_555
Gd1 O17 2.622118 1_555
Gd1 O15 2.622126 1_555
Gd1 O12 2.622184 1_565
Gd2 O0 2.275283 1_555
Gd2 O5 2.275297 1_555
Gd2 O3 2.275300 1_555
Gd2 O4 2.275303 1_556
Gd2 O18 2.622107 1_555
Gd2 O22 2.622108 1_555
Gd2 O23 2.622127 1_555
Gd2 O19 2.622176 1_556
Gd3 O11 2.275279 1_555
Gd3 O5 2.275288 1_555
Gd3 O9 2.275299 1_655
Gd3 O8 2.275307 1_555
Gd3 O12 2.622100 1_555
Gd3 O18 2.622117 1_555
Gd3 O13 2.622139 1_555
Gd3 O14 2.622183 1_655
Gd4 O2 2.275278 1_555
Gd4 O1 2.275290 1_555
Gd4 O0 2.275299 1_565
Gd4 O6 2.275302 1_555
Gd4 O20 2.622113 1_555
Gd4 O17 2.622117 1_555
Gd4 O21 2.622124 1_555
Gd4 O23 2.622178 1_565
Gd5 O4 2.275286 1_555
Gd5 O10 2.275288 1_555
Gd5 O2 2.275297 1_655
Gd5 O8 2.275303 1_555
Gd5 O15 2.622108 1_555
Gd5 O13 2.622112 1_555
Gd5 O19 2.622125 1_555
Gd5 O21 2.622182 1_655
O0 Sb3 1.963874 1_555
O1 Sb5 1.963887 1_555
O2 Sb4 1.963871 1_555
O3 Sb0 1.963878 1_556
O4 Sb1 1.963877 1_555
O5 Sb2 1.963882 1_555
O6 Sb2 1.963875 1_565
O7 Sb1 1.963879 1_555
O8 Sb5 1.963875 1_655
O9 Sb4 1.963871 1_555
O10 Sb0 1.963878 1_555
O11 Sb3 1.963877 1_555
O12 Sb6 2.011291 1_655
O12 Sb2 2.211379 1_555
O13 Sb7 2.011312 1_554
O13 Sb4 2.211369 1_655
O14 Sb8 2.011292 1_556
O14 Sb5 2.211364 1_555
O15 Sb9 2.011320 1_555
O15 Sb1 2.211368 1_555
O16 Sb7 2.011303 1_564
O16 Sb0 2.211368 1_555
O17 Sb8 2.011319 1_555
O17 Sb3 2.211384 1_565
O18 Sb9 2.011318 1_555
O18 Sb3 2.211390 1_555
O19 Sb8 2.011295 1_655
O19 Sb0 2.211373 1_555
O20 Sb9 2.011323 1_555
O20 Sb4 2.211398 1_555
O21 Sb6 2.011293 1_565
O21 Sb5 2.211371 1_555
O22 Sb6 2.011313 1_555
O22 Sb1 2.211399 1_556
O23 Sb7 2.011296 1_555
O23 Sb2 2.211346 1_555
