# generated using pymatgen
data_KCuPSe3
_symmetry_space_group_name_H-M   'P 1'
_cell_length_a   10.83389400
_cell_length_b   8.86784200
_cell_length_c   20.22779100
_cell_angle_alpha   87.03322465
_cell_angle_beta   90.00000000
_cell_angle_gamma   90.00000000
_symmetry_Int_Tables_number   1
_chemical_formula_structural   KCuPSe3
_chemical_formula_sum   'K12 Cu12 P12 Se36'
_cell_volume   1940.74518660
_cell_formula_units_Z   12
loop_
 _symmetry_equiv_pos_site_id
 _symmetry_equiv_pos_as_xyz
  1  'x, y, z'
loop_
 _atom_site_type_symbol
 _atom_site_label
 _atom_site_symmetry_multiplicity
 _atom_site_fract_x
 _atom_site_fract_y
 _atom_site_fract_z
 _atom_site_occupancy
  K  K0  1  0.70349700  0.47776800  0.50832700  1
  K  K1  1  0.49150600  0.85332500  0.89774800  1
  K  K2  1  0.20349700  0.52223200  0.99167300  1
  K  K3  1  0.50849400  0.14667500  0.10225200  1
  K  K4  1  0.99150600  0.14667500  0.60225200  1
  K  K5  1  0.00849400  0.85332500  0.39774800  1
  K  K6  1  0.79650300  0.47776800  0.00832700  1
  K  K7  1  0.17474800  0.19435300  0.79301100  1
  K  K8  1  0.29650300  0.52223200  0.49167300  1
  K  K9  1  0.32525200  0.19435300  0.29301100  1
  K  K10  1  0.67474800  0.80564700  0.70698900  1
  K  K11  1  0.82525200  0.80564700  0.20698900  1
  Cu  Cu0  1  0.99282600  0.82447200  0.86333900  1
  Cu  Cu1  1  0.64194700  0.47018800  0.27412000  1
  Cu  Cu2  1  0.35805300  0.52981200  0.72588000  1
  Cu  Cu3  1  0.70668000  0.13526900  0.39203800  1
  Cu  Cu4  1  0.49282600  0.17552800  0.63666100  1
  Cu  Cu5  1  0.00717400  0.17552800  0.13666100  1
  Cu  Cu6  1  0.29332000  0.86473100  0.60796200  1
  Cu  Cu7  1  0.20668000  0.86473100  0.10796200  1
  Cu  Cu8  1  0.85805300  0.47018800  0.77412000  1
  Cu  Cu9  1  0.14194700  0.52981200  0.22588000  1
  Cu  Cu10  1  0.50717400  0.82447200  0.36333900  1
  Cu  Cu11  1  0.79332000  0.13526900  0.89203800  1
  P  P0  1  0.94362600  0.39530100  0.35652000  1
  P  P1  1  0.55637400  0.39530100  0.85652000  1
  P  P2  1  0.05637400  0.60469900  0.64348000  1
  P  P3  1  0.40679400  0.73200700  0.23720400  1
  P  P4  1  0.44362600  0.60469900  0.14348000  1
  P  P5  1  0.58072300  0.93085100  0.52169800  1
  P  P6  1  0.09320600  0.73200700  0.73720400  1
  P  P7  1  0.59320600  0.26799300  0.76279600  1
  P  P8  1  0.90679400  0.26799300  0.26279600  1
  P  P9  1  0.41927700  0.06914900  0.47830200  1
  P  P10  1  0.08072300  0.06914900  0.97830200  1
  P  P11  1  0.91927700  0.93085100  0.02169800  1
  Se  Se0  1  0.80278700  0.57866400  0.34852500  1
  Se  Se1  1  0.45067500  0.56394500  0.32112800  1
  Se  Se2  1  0.31434200  0.13118300  0.56877200  1
  Se  Se3  1  0.13834300  0.47110000  0.34850200  1
  Se  Se4  1  0.53578300  0.92482900  0.24296800  1
  Se  Se5  1  0.19721300  0.42133600  0.65147500  1
  Se  Se6  1  0.03578300  0.07517100  0.25703200  1
  Se  Se7  1  0.59994600  0.22869800  0.93921900  1
  Se  Se8  1  0.29249800  0.79604300  0.72701900  1
  Se  Se9  1  0.70750200  0.20395700  0.27298100  1
  Se  Se10  1  0.30278700  0.42133600  0.15147500  1
  Se  Se11  1  0.09994600  0.77130200  0.56078100  1
  Se  Se12  1  0.95067500  0.43605500  0.17887200  1
  Se  Se13  1  0.40005400  0.77130200  0.06078100  1
  Se  Se14  1  0.31951500  0.91676300  0.41344600  1
  Se  Se15  1  0.96421700  0.92482900  0.74296800  1
  Se  Se16  1  0.36165700  0.47110000  0.84850200  1
  Se  Se17  1  0.20750200  0.79604300  0.22701900  1
  Se  Se18  1  0.68048500  0.08323700  0.58655400  1
  Se  Se19  1  0.46421700  0.07517100  0.75703200  1
  Se  Se20  1  0.18565800  0.13118300  0.06877200  1
  Se  Se21  1  0.99089000  0.26227100  0.92339000  1
  Se  Se22  1  0.63834300  0.52890000  0.15149800  1
  Se  Se23  1  0.18048500  0.91676300  0.91344600  1
  Se  Se24  1  0.04932500  0.56394500  0.82112800  1
  Se  Se25  1  0.90005400  0.22869800  0.43921900  1
  Se  Se26  1  0.50911000  0.26227100  0.42339000  1
  Se  Se27  1  0.81951500  0.08323700  0.08655400  1
  Se  Se28  1  0.79249800  0.20395700  0.77298100  1
  Se  Se29  1  0.00911000  0.73772900  0.07661000  1
  Se  Se30  1  0.68565800  0.86881700  0.43122800  1
  Se  Se31  1  0.86165700  0.52890000  0.65149800  1
  Se  Se32  1  0.81434200  0.86881700  0.93122800  1
  Se  Se33  1  0.54932500  0.43605500  0.67887200  1
  Se  Se34  1  0.49089000  0.73772900  0.57661000  1
  Se  Se35  1  0.69721300  0.57866400  0.84852500  1
loop_
_geom_bond_atom_site_label_1
_geom_bond_atom_site_label_2
_geom_bond_distance
_geom_bond_site_symmetry_2
K0 Se26 3.373231 1_555
K0 Se31 3.415345 1_555
K0 Se25 3.418600 1_555
K0 Se0 3.479507 1_555
K0 Se34 3.585694 1_555
K0 Se30 3.732971 1_555
K0 Se18 3.772721 1_555
K0 Se33 3.833451 1_555
K1 Se19 3.388194 1_565
K1 Se23 3.433625 1_555
K1 Se13 3.483946 1_556
K1 Se35 3.484463 1_555
K1 Se32 3.566531 1_555
K1 Se7 3.667906 1_565
K1 Se16 3.848322 1_555
K2 Se29 3.373231 1_556
K2 Se16 3.415345 1_555
K2 Se13 3.418600 1_556
K2 Se10 3.479507 1_556
K2 Se21 3.585694 1_455
K2 Se20 3.732971 1_556
K2 Se23 3.772721 1_555
K2 Se24 3.833451 1_555
K3 Se4 3.388194 1_545
K3 Se27 3.433625 1_555
K3 Se7 3.483946 1_554
K3 Se10 3.484463 1_555
K3 Se20 3.566531 1_555
K3 Se13 3.667906 1_545
K3 Se22 3.848322 1_555
K4 Se15 3.388194 1_545
K4 Se18 3.433625 1_555
K4 Se25 3.483946 1_555
K4 Se5 3.484463 1_655
K4 Se2 3.566531 1_655
K4 Se11 3.667906 1_645
K4 Se31 3.848322 1_555
K5 Se6 3.388194 1_565
K5 Se14 3.433625 1_555
K5 Se11 3.483946 1_555
K5 Se0 3.484463 1_455
K5 Se30 3.566531 1_455
K5 Se25 3.667906 1_465
K5 Se3 3.848322 1_555
K6 Se21 3.373231 1_554
K6 Se22 3.415345 1_555
K6 Se7 3.418600 1_554
K6 Se35 3.479507 1_554
K6 Se29 3.585694 1_655
K6 Se32 3.732971 1_554
K6 Se27 3.772721 1_555
K6 Se12 3.833451 1_555
K7 Se23 3.373048 1_545
K7 Se21 3.383795 1_455
K7 Se19 3.400186 1_555
K7 Se16 3.415896 1_555
K7 Se5 3.422108 1_555
K7 Se15 3.491424 1_445
K7 Se24 3.620043 1_555
K8 Se34 3.373231 1_555
K8 Se3 3.415345 1_555
K8 Se11 3.418600 1_555
K8 Se5 3.479507 1_555
K8 Se26 3.585694 1_555
K8 Se2 3.732971 1_555
K8 Se14 3.772721 1_555
K8 Se1 3.833451 1_555
K9 Se14 3.373048 1_545
K9 Se26 3.383795 1_555
K9 Se6 3.400186 1_555
K9 Se3 3.415896 1_555
K9 Se10 3.422108 1_555
K9 Se4 3.491424 1_545
K9 Se1 3.620043 1_555
K10 Se18 3.373048 1_565
K10 Se34 3.383795 1_555
K10 Se15 3.400186 1_555
K10 Se31 3.415896 1_555
K10 Se35 3.422108 1_555
K10 Se19 3.491424 1_565
K10 Se33 3.620043 1_555
K11 Se27 3.373048 1_565
K11 Se29 3.383795 1_655
K11 Se4 3.400186 1_555
K11 Se22 3.415896 1_555
K11 Se0 3.422108 1_555
K11 Se6 3.491424 1_665
K11 Se12 3.620043 1_555
Cu0 Se32 2.415667 1_555
Cu0 Se23 2.432360 1_655
Cu0 Se15 2.567532 1_555
Cu0 Se24 2.577876 1_655
Cu1 Se1 2.443634 1_555
Cu1 Se9 2.466656 1_555
Cu1 Se22 2.508220 1_555
Cu1 Se0 2.525227 1_555
Cu2 Se33 2.443634 1_555
Cu2 Se8 2.466656 1_555
Cu2 Se16 2.508220 1_555
Cu2 Se5 2.525227 1_555
Cu3 Se9 2.453359 1_555
Cu3 Se25 2.463351 1_555
Cu3 Se30 2.463630 1_545
Cu3 Se26 2.515166 1_555
Cu4 Se2 2.415667 1_555
Cu4 Se18 2.432360 1_555
Cu4 Se19 2.567532 1_555
Cu4 Se33 2.577876 1_555
Cu5 Se20 2.415667 1_555
Cu5 Se27 2.432360 1_455
Cu5 Se6 2.567532 1_555
Cu5 Se12 2.577876 1_455
Cu6 Se8 2.453359 1_555
Cu6 Se11 2.463351 1_555
Cu6 Se2 2.463630 1_565
Cu6 Se34 2.515166 1_555
Cu7 Se17 2.453359 1_555
Cu7 Se13 2.463351 1_555
Cu7 Se20 2.463630 1_565
Cu7 Se29 2.515166 1_555
Cu8 Se24 2.443634 1_655
Cu8 Se28 2.466656 1_555
Cu8 Se31 2.508220 1_555
Cu8 Se35 2.525227 1_555
Cu9 Se12 2.443634 1_455
Cu9 Se17 2.466656 1_555
Cu9 Se3 2.508220 1_555
Cu9 Se10 2.525227 1_555
Cu10 Se30 2.415667 1_555
Cu10 Se14 2.432360 1_555
Cu10 Se4 2.567532 1_555
Cu10 Se1 2.577876 1_555
Cu11 Se28 2.453359 1_555
Cu11 Se7 2.463351 1_555
Cu11 Se32 2.463630 1_545
Cu11 Se21 2.515166 1_555
P0 Se3 2.217433 1_655
P0 Se25 2.224425 1_555
P0 Se0 2.229595 1_555
P0 P8 2.291172 1_555
P1 Se16 2.217433 1_555
P1 Se7 2.224425 1_555
P1 Se35 2.229595 1_555
P1 P7 2.291172 1_555
P2 Se31 2.217433 1_455
P2 Se11 2.224425 1_555
P2 Se5 2.229595 1_555
P2 P6 2.291172 1_555
P3 Se4 2.216059 1_555
P3 Se17 2.239319 1_555
P3 Se1 2.251019 1_555
P3 P4 2.291172 1_555
P4 Se22 2.217433 1_555
P4 Se13 2.224425 1_555
P4 Se10 2.229595 1_555
P5 Se18 2.213331 1_565
P5 Se34 2.217424 1_555
P5 Se30 2.246819 1_555
P5 P9 2.285276 1_565
P6 Se15 2.216059 1_455
P6 Se8 2.239319 1_555
P6 Se24 2.251019 1_555
P7 Se19 2.216059 1_555
P7 Se28 2.239319 1_555
P7 Se33 2.251019 1_555
P8 Se6 2.216059 1_655
P8 Se9 2.239319 1_555
P8 Se12 2.251019 1_555
P9 Se14 2.213331 1_545
P9 Se26 2.217424 1_555
P9 Se2 2.246819 1_555
P10 Se23 2.213331 1_545
P10 Se21 2.217424 1_455
P10 Se20 2.246819 1_556
P10 P11 2.285276 1_446
P11 Se27 2.213331 1_565
P11 Se29 2.217424 1_655
P11 Se32 2.246819 1_554
