# generated using pymatgen
data_KCuF3
_symmetry_space_group_name_H-M   'P 1'
_cell_length_a   5.65059520
_cell_length_b   5.64702143
_cell_length_c   5.64702183
_cell_angle_alpha   90.13977443
_cell_angle_beta   119.89847544
_cell_angle_gamma   119.89847633
_symmetry_Int_Tables_number   1
_chemical_formula_structural   KCuF3
_chemical_formula_sum   'K2 Cu2 F6'
_cell_volume   127.64948446
_cell_formula_units_Z   2
loop_
 _symmetry_equiv_pos_site_id
 _symmetry_equiv_pos_as_xyz
  1  'x, y, z'
loop_
 _atom_site_type_symbol
 _atom_site_label
 _atom_site_symmetry_multiplicity
 _atom_site_fract_x
 _atom_site_fract_y
 _atom_site_fract_z
 _atom_site_occupancy
  K  K0  1  0.00000000  0.75000000  0.75000000  1
  K  K1  1  0.00000000  0.25000000  0.25000000  1
  Cu  Cu0  1  0.50000000  0.00000000  0.50000000  1
  Cu  Cu1  1  0.50000000  0.50000000  -0.00000000  1
  F  F0  1  0.00945372  0.25472686  0.75472686  1
  F  F1  1  0.50000000  0.75453065  0.74546935  1
  F  F2  1  0.50000000  0.24546935  0.25453065  1
  F  F3  1  0.99054628  0.74527314  0.24527314  1
  F  F4  1  0.50000000  0.75009929  0.25009929  1
  F  F5  1  0.50000000  0.24990071  0.74990071  1
loop_
_geom_bond_atom_site_label_1
_geom_bond_atom_site_label_2
_geom_bond_distance
_geom_bond_site_symmetry_2
Cu0 F2 1.962731 1_555
Cu0 F1 1.962731 1_545
Cu0 F5 1.993295 1_555
Cu0 F4 1.993295 1_545
Cu0 F3 2.039324 1_445
Cu0 F0 2.039324 1_655
Cu1 F3 1.963638 1_555
Cu1 F0 1.963638 1_554
Cu1 F4 1.994879 1_555
Cu1 F5 1.994879 1_554
Cu1 F1 2.035184 1_554
Cu1 F2 2.035184 1_555
F0 K0 2.823764 1_555
F0 K0 2.823764 1_545
F0 K1 2.823764 1_556
F0 K1 2.823765 1_555
F1 K0 2.825530 1_655
F1 K0 2.825530 1_555
F1 K1 2.825531 1_555
F1 K1 2.825531 1_666
F2 K1 2.825530 1_555
F2 K1 2.825530 1_655
F2 K0 2.825531 1_655
F2 K0 2.825531 1_544
F3 K1 2.823764 1_655
F3 K1 2.823764 1_665
F3 K0 2.823764 1_654
F3 K0 2.823765 1_655
F4 K1 2.828738 1_665
F4 K1 2.828738 1_555
F4 K0 2.828738 1_655
F4 K0 2.828738 1_554
F5 K0 2.828738 1_545
F5 K0 2.828738 1_655
F5 K1 2.828738 1_555
F5 K1 2.828738 1_656
