# generated using pymatgen
data_SiO2
_symmetry_space_group_name_H-M   'P 1'
_cell_length_a   10.25801894
_cell_length_b   11.26243793
_cell_length_c   11.26243852
_cell_angle_alpha   78.03016093
_cell_angle_beta   62.90878411
_cell_angle_gamma   62.90878949
_symmetry_Int_Tables_number   1
_chemical_formula_structural   SiO2
_chemical_formula_sum   'Si16 O32'
_cell_volume   1031.29797692
_cell_formula_units_Z   16
loop_
 _symmetry_equiv_pos_site_id
 _symmetry_equiv_pos_as_xyz
  1  'x, y, z'
loop_
 _atom_site_type_symbol
 _atom_site_label
 _atom_site_symmetry_multiplicity
 _atom_site_fract_x
 _atom_site_fract_y
 _atom_site_fract_z
 _atom_site_occupancy
  Si  Si0  1  0.35927113  0.28145774  0.50000000  1
  Si  Si1  1  0.85927113  0.28145774  0.50000000  1
  Si  Si2  1  0.88925880  0.84509872  0.37638368  1
  Si  Si3  1  0.73435852  0.37638368  0.15490128  1
  Si  Si4  1  0.14072887  0.50000000  0.71854226  1
  Si  Si5  1  0.64072887  0.71854226  0.50000000  1
  Si  Si6  1  0.26564148  0.84509872  0.62361632  1
  Si  Si7  1  0.11074120  0.15490128  0.62361632  1
  Si  Si8  1  0.88925880  0.37638368  0.84509872  1
  Si  Si9  1  0.14072887  0.71854226  0.50000000  1
  Si  Si10  1  0.64072887  0.50000000  0.71854226  1
  Si  Si11  1  0.26564148  0.62361632  0.84509872  1
  Si  Si12  1  0.73435852  0.15490128  0.37638368  1
  Si  Si13  1  0.35927113  0.50000000  0.28145774  1
  Si  Si14  1  0.85927113  0.50000000  0.28145774  1
  Si  Si15  1  0.11074120  0.62361632  0.15490128  1
  O  O0  1  0.24088169  0.75911831  0.75911831  1
  O  O1  1  0.73470211  0.81157633  0.46336915  1
  O  O2  1  0.28872387  0.37441649  0.62558351  1
  O  O3  1  0.71127613  0.62558351  0.37441649  1
  O  O4  1  0.54627744  0.18842367  0.46336915  1
  O  O5  1  0.83141364  0.00000000  0.33717172  1
  O  O6  1  0.80192874  0.46336915  0.18842367  1
  O  O7  1  0.00964659  0.18842367  0.53663085  1
  O  O8  1  0.71127613  0.37441649  0.62558351  1
  O  O9  1  0.19807126  0.81157633  0.53663085  1
  O  O10  1  0.45372256  0.53663085  0.81157633  1
  O  O11  1  0.99035341  0.81157633  0.46336915  1
  O  O12  1  -0.00000000  0.75911831  0.24088169  1
  O  O13  1  0.75911831  0.24088169  0.24088169  1
  O  O14  1  0.08569261  0.62558351  0.62558351  1
  O  O15  1  0.80192874  0.18842367  0.46336915  1
  O  O16  1  0.66314036  0.62558351  0.62558351  1
  O  O17  1  0.16858636  -0.00000000  0.66282828  1
  O  O18  1  0.26529789  0.53663085  0.18842367  1
  O  O19  1  0.73470211  0.46336915  0.81157633  1
  O  O20  1  0.00000000  0.24088169  0.75911831  1
  O  O21  1  0.83141364  0.33717172  0.00000000  1
  O  O22  1  0.26529789  0.18842367  0.53663085  1
  O  O23  1  0.91430739  0.37441649  0.37441649  1
  O  O24  1  0.19807126  0.53663085  0.81157633  1
  O  O25  1  0.99035341  0.46336915  0.81157633  1
  O  O26  1  0.54627744  0.46336915  0.18842367  1
  O  O27  1  0.45372256  0.81157633  0.53663085  1
  O  O28  1  0.00964659  0.53663085  0.18842367  1
  O  O29  1  0.16858636  0.66282828  -0.00000000  1
  O  O30  1  0.28872387  0.62558351  0.37441649  1
  O  O31  1  0.33685964  0.37441649  0.37441649  1
loop_
_geom_bond_atom_site_label_1
_geom_bond_atom_site_label_2
_geom_bond_distance
_geom_bond_site_symmetry_2
O0 Si11 1.609081 1_555
O0 Si6 1.609081 1_555
O1 Si5 1.604918 1_555
O1 Si2 1.610283 1_555
O2 Si0 1.616207 1_555
O2 Si4 1.616207 1_555
O3 Si5 1.616207 1_555
O3 Si14 1.616207 1_555
O4 Si0 1.604910 1_555
O4 Si12 1.610299 1_555
O5 Si12 1.602148 1_555
O5 Si2 1.602148 1_545
O6 Si14 1.604918 1_555
O6 Si3 1.610274 1_555
O7 Si1 1.604910 1_455
O7 Si7 1.610291 1_555
O8 Si10 1.616207 1_555
O8 Si1 1.616207 1_555
O9 Si9 1.604918 1_555
O9 Si6 1.610274 1_555
O10 Si10 1.604910 1_555
O10 Si11 1.610299 1_555
O11 Si9 1.604910 1_655
O11 Si2 1.610291 1_555
O12 Si15 1.609081 1_555
O12 Si2 1.609081 1_455
O13 Si3 1.609081 1_555
O13 Si12 1.609081 1_555
O14 Si9 1.616207 1_555
O14 Si4 1.616208 1_555
O15 Si1 1.604918 1_555
O15 Si12 1.610274 1_555
O16 Si10 1.616207 1_555
O16 Si5 1.616207 1_555
O17 Si6 1.602148 1_545
O17 Si7 1.602148 1_555
O18 Si13 1.604918 1_555
O18 Si15 1.610283 1_555
O19 Si10 1.604918 1_555
O19 Si8 1.610283 1_555
O20 Si8 1.609081 1_455
O20 Si7 1.609081 1_555
O21 Si3 1.602148 1_555
O21 Si8 1.602148 1_554
O22 Si0 1.604918 1_555
O22 Si7 1.610283 1_555
O23 Si1 1.616207 1_555
O23 Si14 1.616208 1_555
O24 Si4 1.604918 1_555
O24 Si11 1.610274 1_555
O25 Si4 1.604910 1_655
O25 Si8 1.610291 1_555
O26 Si13 1.604910 1_555
O26 Si3 1.610299 1_555
O27 Si5 1.604910 1_555
O27 Si6 1.610299 1_555
O28 Si14 1.604910 1_455
O28 Si15 1.610291 1_555
O29 Si11 1.602148 1_554
O29 Si15 1.602148 1_555
O30 Si13 1.616207 1_555
O30 Si9 1.616207 1_555
O31 Si13 1.616207 1_555
O31 Si0 1.616207 1_555
