# generated using pymatgen
data_CsAsOF4
_symmetry_space_group_name_H-M   'P 1'
_cell_length_a   6.48014715
_cell_length_b   5.12260146
_cell_length_c   14.13646541
_cell_angle_alpha   83.90329683
_cell_angle_beta   90.00000000
_cell_angle_gamma   90.00000000
_symmetry_Int_Tables_number   1
_chemical_formula_structural   CsAsOF4
_chemical_formula_sum   'Cs4 As4 O4 F16'
_cell_volume   466.60883094
_cell_formula_units_Z   4
loop_
 _symmetry_equiv_pos_site_id
 _symmetry_equiv_pos_as_xyz
  1  'x, y, z'
loop_
 _atom_site_type_symbol
 _atom_site_label
 _atom_site_symmetry_multiplicity
 _atom_site_fract_x
 _atom_site_fract_y
 _atom_site_fract_z
 _atom_site_occupancy
  Cs  Cs0  1  0.12009806  0.40011964  0.65641293  1
  Cs  Cs1  1  0.37990194  0.40011964  0.15641293  1
  Cs  Cs2  1  0.62009806  0.59988036  0.84358707  1
  Cs  Cs3  1  0.87990194  0.59988036  0.34358707  1
  As  As0  1  0.10883634  0.96781659  0.92167978  1
  As  As1  1  0.60883634  0.03218341  0.57832022  1
  As  As2  1  0.89116366  0.03218341  0.07832022  1
  As  As3  1  0.39116366  0.96781659  0.42167978  1
  O  O0  1  0.08660029  0.20611109  0.00572425  1
  O  O1  1  0.58660029  0.79388891  0.49427575  1
  O  O2  1  0.41339971  0.20611109  0.50572425  1
  O  O3  1  0.91339971  0.79388891  0.99427575  1
  F  F0  1  0.68385227  0.19987366  0.01667902  1
  F  F1  1  0.70220626  0.84883939  0.14644857  1
  F  F2  1  0.29779374  0.15116061  0.85355143  1
  F  F3  1  0.57851415  0.12736913  0.34257369  1
  F  F4  1  0.07851415  0.87263087  0.15742631  1
  F  F5  1  0.11700355  0.72407234  0.84218023  1
  F  F6  1  0.38299645  0.72407234  0.34218023  1
  F  F7  1  0.20220626  0.15116061  0.35355143  1
  F  F8  1  0.18385227  0.80012634  0.48332098  1
  F  F9  1  0.31614773  0.80012634  0.98332098  1
  F  F10  1  0.88299645  0.27592766  0.15781977  1
  F  F11  1  0.42148585  0.87263087  0.65742631  1
  F  F12  1  0.92148585  0.12736913  0.84257369  1
  F  F13  1  0.81614773  0.19987366  0.51667902  1
  F  F14  1  0.61700355  0.27592766  0.65781977  1
  F  F15  1  0.79779374  0.84883939  0.64644857  1
loop_
_geom_bond_atom_site_label_1
_geom_bond_atom_site_label_2
_geom_bond_distance
_geom_bond_site_symmetry_2
Cs0 F13 3.043700 1_455
Cs0 F8 3.048234 1_555
Cs0 O2 3.096383 1_555
Cs0 F15 3.097878 1_455
Cs0 F11 3.111379 1_555
Cs0 F12 3.123009 1_455
Cs0 F2 3.156568 1_555
Cs0 F5 3.252127 1_555
Cs0 F14 3.281916 1_555
Cs0 F14 3.321275 1_455
Cs0 F11 3.332831 1_545
Cs0 F15 3.527239 1_445
Cs1 F0 3.043700 1_555
Cs1 F9 3.048234 1_554
Cs1 O0 3.096383 1_555
Cs1 F1 3.097878 1_555
Cs1 F4 3.111379 1_555
Cs1 F3 3.123009 1_555
Cs1 F7 3.156568 1_555
Cs1 F6 3.252127 1_555
Cs1 F10 3.281916 1_455
Cs1 F10 3.321275 1_555
Cs1 F4 3.332831 1_545
Cs1 F1 3.527239 1_545
Cs2 F9 3.043700 1_555
Cs2 F0 3.048234 1_556
Cs2 O3 3.096383 1_555
Cs2 F2 3.097878 1_555
Cs2 F12 3.111379 1_555
Cs2 F11 3.123009 1_555
Cs2 F15 3.156568 1_555
Cs2 F14 3.252127 1_555
Cs2 F5 3.281916 1_655
Cs2 F5 3.321275 1_555
Cs2 F12 3.332831 1_565
Cs2 F2 3.527239 1_565
Cs3 F8 3.043700 1_655
Cs3 F13 3.048234 1_555
Cs3 O1 3.096383 1_555
Cs3 F7 3.097878 1_655
Cs3 F3 3.111379 1_555
Cs3 F4 3.123009 1_655
Cs3 F1 3.156568 1_555
Cs3 F10 3.252127 1_555
Cs3 F6 3.281916 1_555
Cs3 F6 3.321275 1_655
Cs3 F3 3.332831 1_565
Cs3 F7 3.527239 1_665
As0 F2 1.765457 1_565
As0 F5 1.767174 1_555
As0 F9 1.772841 1_555
As0 F12 1.788397 1_465
As0 O0 1.797349 1_566
As0 O3 1.804633 1_455
As1 F15 1.765457 1_545
As1 F14 1.767174 1_555
As1 F13 1.772841 1_555
As1 F11 1.788397 1_545
As1 O1 1.797349 1_545
As1 O2 1.804633 1_555
As2 F1 1.765457 1_545
As2 F10 1.767174 1_555
As2 F0 1.772841 1_555
As2 F4 1.788397 1_645
As2 O3 1.797349 1_544
As2 O0 1.804633 1_655
As3 F7 1.765457 1_565
As3 F6 1.767174 1_555
As3 F8 1.772841 1_555
As3 F3 1.788397 1_565
As3 O2 1.797349 1_565
As3 O1 1.804633 1_555
