# generated using pymatgen
data_La12C6I17
_symmetry_space_group_name_H-M   'P 1'
_cell_length_a   12.09032829
_cell_length_b   12.09032829
_cell_length_c   19.69389275
_cell_angle_alpha   89.30446119
_cell_angle_beta   89.30446119
_cell_angle_gamma   64.09249660
_symmetry_Int_Tables_number   1
_chemical_formula_structural   La12C6I17
_chemical_formula_sum   'La24 C12 I34'
_cell_volume   2589.19437835
_cell_formula_units_Z   2
loop_
 _symmetry_equiv_pos_site_id
 _symmetry_equiv_pos_as_xyz
  1  'x, y, z'
loop_
 _atom_site_type_symbol
 _atom_site_label
 _atom_site_symmetry_multiplicity
 _atom_site_fract_x
 _atom_site_fract_y
 _atom_site_fract_z
 _atom_site_occupancy
  La  La0  1  0.33830400  0.80833600  0.28930900  1
  La  La1  1  0.35751100  0.35908900  0.04968700  1
  La  La2  1  0.35908900  0.35751100  0.54968700  1
  La  La3  1  0.46458700  0.45209900  0.37068100  1
  La  La4  1  0.57469000  0.09855200  0.88197800  1
  La  La5  1  0.54790100  0.53541300  0.12931900  1
  La  La6  1  0.70462400  0.28633600  0.97910600  1
  La  La7  1  0.53541300  0.54790100  0.62931900  1
  La  La8  1  0.66169600  0.19166400  0.71069100  1
  La  La9  1  0.64248900  0.64091100  0.95031300  1
  La  La10  1  0.07527100  0.02083300  0.15218400  1
  La  La11  1  0.29537600  0.71366400  0.02089400  1
  La  La12  1  0.90144800  0.42531000  0.61802200  1
  La  La13  1  0.02083300  0.07527100  0.65218400  1
  La  La14  1  0.42531000  0.90144800  0.11802200  1
  La  La15  1  0.45209900  0.46458700  0.87068100  1
  La  La16  1  0.64091100  0.64248900  0.45031300  1
  La  La17  1  0.09855200  0.57469000  0.38197800  1
  La  La18  1  0.92472900  0.97916700  0.84781600  1
  La  La19  1  0.28633600  0.70462400  0.47910600  1
  La  La20  1  0.80833600  0.33830400  0.78930900  1
  La  La21  1  0.97916700  0.92472900  0.34781600  1
  La  La22  1  0.71366400  0.29537600  0.52089400  1
  La  La23  1  0.19166400  0.66169600  0.21069100  1
  C  C0  1  0.27689700  0.63427700  0.35039300  1
  C  C1  1  0.72310300  0.36572300  0.64960700  1
  C  C2  1  0.36572300  0.72310300  0.14960700  1
  C  C3  1  0.53229000  0.53269800  0.98860700  1
  C  C4  1  0.74327000  0.16656900  0.84742100  1
  C  C5  1  0.46771000  0.46730200  0.01139300  1
  C  C6  1  0.25673000  0.83343100  0.15257900  1
  C  C7  1  0.46730200  0.46771000  0.51139300  1
  C  C8  1  0.83343100  0.25673000  0.65257900  1
  C  C9  1  0.16656900  0.74327000  0.34742100  1
  C  C10  1  0.63427700  0.27689700  0.85039300  1
  C  C11  1  0.53269800  0.53229000  0.48860700  1
  I  I0  1  0.30873900  0.29071800  0.39896700  1
  I  I1  1  0.60433200  0.10313000  0.55869300  1
  I  I2  1  0.49880700  0.96818700  0.25600100  1
  I  I3  1  0.90665400  0.88584100  0.19656400  1
  I  I4  1  0.70928200  0.69126100  0.10103300  1
  I  I5  1  0.28138700  0.80634100  0.63825200  1
  I  I6  1  0.11415900  0.09334600  0.30343600  1
  I  I7  1  0.21101900  0.18280100  0.10072500  1
  I  I8  1  0.89687000  0.39566800  0.94130700  1
  I  I9  1  0.09353600  0.60020000  0.54904300  1
  I  I10  1  0.60020000  0.09353600  0.04904300  1
  I  I11  1  0.78898100  0.81719900  0.89927500  1
  I  I12  1  0.62570100  0.57756200  0.29195400  1
  I  I13  1  0.88584100  0.90665400  0.69656400  1
  I  I14  1  0.03181300  0.50119300  0.24399900  1
  I  I15  1  0.18280100  0.21101900  0.60072500  1
  I  I16  1  0.71861300  0.19365900  0.36174800  1
  I  I17  1  0.09334600  0.11415900  0.80343600  1
  I  I18  1  0.57756200  0.62570100  0.79195400  1
  I  I19  1  0.00000000  0.00000000  0.00000000  1
  I  I20  1  0.39566800  0.89687000  0.44130700  1
  I  I21  1  0.42243800  0.37429900  0.20804600  1
  I  I22  1  0.29071800  0.30873900  0.89896700  1
  I  I23  1  0.37429900  0.42243800  0.70804600  1
  I  I24  1  0.81719900  0.78898100  0.39927500  1
  I  I25  1  0.50119300  0.03181300  0.74399900  1
  I  I26  1  0.69126100  0.70928200  0.60103300  1
  I  I27  1  0.19365900  0.71861300  0.86174800  1
  I  I28  1  0.39980000  0.90646400  0.95095700  1
  I  I29  1  0.90646400  0.39980000  0.45095700  1
  I  I30  1  0.10313000  0.60433200  0.05869300  1
  I  I31  1  0.96818700  0.49880700  0.75600100  1
  I  I32  1  0.80634100  0.28138700  0.13825200  1
  I  I33  1  0.00000000  0.00000000  0.50000000  1
loop_
_geom_bond_atom_site_label_1
_geom_bond_atom_site_label_2
_geom_bond_distance
_geom_bond_site_symmetry_2
C0 C9 1.408273 1_555
C0 La3 2.406969 1_555
C0 La17 2.620944 1_555
C0 La19 2.702980 1_555
C0 La0 2.776532 1_555
C0 La23 2.913676 1_555
C1 C8 1.408273 1_555
C1 La7 2.406969 1_555
C1 La12 2.620944 1_555
C1 La22 2.702980 1_555
C1 La8 2.776532 1_555
C1 La20 2.913676 1_555
C2 C6 1.408273 1_555
C2 La5 2.406969 1_555
C2 La14 2.620944 1_555
C2 La11 2.702980 1_555
C2 La23 2.776532 1_555
C2 La0 2.913676 1_555
C3 C5 1.399460 1_556
C3 La9 2.351701 1_555
C3 La5 2.781436 1_556
C3 La15 2.794734 1_555
C3 La6 2.798078 1_555
C3 La11 2.812321 1_556
C4 La18 2.367100 1_545
C4 La4 2.590561 1_555
C4 La20 2.754549 1_555
C4 La8 2.845838 1_555
C4 La6 2.917412 1_555
C5 La1 2.351701 1_555
C5 La15 2.781436 1_554
C5 La5 2.794734 1_555
C5 La11 2.798078 1_555
C5 La6 2.812321 1_554
C6 La10 2.367100 1_565
C6 La14 2.590561 1_555
C6 La23 2.754549 1_555
C6 La0 2.845838 1_555
C6 La11 2.917412 1_555
C7 La2 2.351701 1_555
C7 La3 2.781436 1_555
C7 La7 2.794734 1_555
C7 La22 2.798078 1_555
C7 La19 2.812321 1_555
C8 La13 2.367100 1_655
C8 La12 2.590561 1_555
C8 La8 2.754549 1_555
C8 La20 2.845838 1_555
C8 La22 2.917412 1_555
C9 La21 2.367100 1_455
C9 La17 2.590561 1_555
C9 La0 2.754549 1_555
C9 La23 2.845838 1_555
C9 La19 2.917412 1_555
C10 C4 1.408273 1_555
C10 La15 2.406969 1_555
C10 La4 2.620944 1_555
C10 La6 2.702980 1_555
C10 La20 2.776532 1_555
C10 La8 2.913676 1_555
C11 C7 1.399460 1_555
C11 La16 2.351701 1_555
C11 La7 2.781436 1_555
C11 La3 2.794734 1_555
C11 La19 2.798078 1_555
C11 La22 2.812321 1_555
I0 La2 3.219462 1_555
I0 La17 3.275071 1_555
I0 La3 3.290665 1_555
I1 La2 3.211369 1_555
I1 La22 3.212914 1_555
I1 La8 3.371102 1_555
I2 La14 3.092420 1_555
I2 La0 3.338659 1_555
I3 La21 3.212502 1_555
I3 La10 3.226960 1_665
I3 La23 3.337703 1_655
I4 La9 3.219462 1_554
I4 La14 3.275071 1_555
I4 La5 3.290665 1_555
I5 La7 3.292607 1_555
I5 La19 3.371043 1_555
I5 La13 3.408974 1_565
I6 La10 3.212502 1_555
I6 La21 3.226960 1_445
I6 La0 3.337703 1_545
I7 La10 3.205517 1_555
I7 La14 3.269827 1_545
I7 La1 3.448693 1_555
I8 La9 3.211369 1_555
I8 La6 3.212914 1_555
I8 La20 3.371102 1_555
I9 La2 3.268906 1_555
I9 La17 3.305663 1_555
I9 La19 3.372853 1_555
I9 La12 3.981812 1_455
I10 La1 3.268906 1_555
I10 La4 3.305663 1_554
I10 La6 3.372853 1_554
I10 La14 3.981812 1_545
I11 La18 3.205517 1_555
I11 La4 3.269827 1_565
I11 La9 3.448693 1_555
I12 La16 3.252053 1_555
I12 La3 3.309199 1_555
I12 La0 3.374953 1_555
I12 La5 3.454675 1_555
I13 La18 3.212502 1_555
I13 La13 3.226960 1_665
I13 La8 3.337703 1_565
I14 La17 3.092420 1_555
I14 La23 3.338659 1_555
I15 La13 3.205517 1_555
I15 La12 3.269827 1_455
I15 La2 3.448693 1_555
I16 La3 3.292607 1_555
I16 La22 3.371043 1_555
I16 La21 3.408974 1_545
I17 La13 3.212502 1_555
I17 La18 3.226960 1_445
I17 La20 3.337703 1_455
I18 La9 3.252053 1_555
I18 La15 3.309199 1_555
I18 La20 3.374953 1_555
I18 La7 3.454675 1_555
I19 La10 3.187329 1_555
I19 La18 3.187329 1_444
I19 La11 3.755688 1_545
I19 La6 3.755688 1_454
I20 La16 3.211369 1_555
I20 La19 3.212914 1_555
I20 La0 3.371102 1_555
I21 La1 3.252053 1_555
I21 La5 3.309199 1_555
I21 La23 3.374953 1_555
I21 La3 3.454675 1_555
I22 La1 3.219462 1_556
I22 La4 3.275071 1_555
I22 La15 3.290665 1_555
I23 La2 3.252053 1_555
I23 La7 3.309199 1_555
I23 La8 3.374953 1_555
I23 La15 3.454675 1_555
I24 La21 3.205517 1_555
I24 La17 3.269827 1_655
I24 La16 3.448693 1_555
I25 La4 3.092420 1_555
I25 La8 3.338659 1_555
I26 La16 3.219462 1_555
I26 La12 3.275071 1_555
I26 La7 3.290665 1_555
I27 La15 3.292607 1_555
I27 La11 3.371043 1_556
I27 La18 3.408974 1_455
I28 La9 3.268906 1_555
I28 La14 3.305663 1_556
I28 La11 3.372853 1_556
I28 La4 3.981812 1_565
I29 La16 3.268906 1_555
I29 La12 3.305663 1_555
I29 La22 3.372853 1_555
I29 La17 3.981812 1_655
I30 La1 3.211369 1_555
I30 La11 3.212914 1_555
I30 La23 3.371102 1_555
I31 La12 3.092420 1_555
I31 La20 3.338659 1_555
I32 La5 3.292607 1_555
I32 La6 3.371043 1_554
I32 La10 3.408974 1_655
I33 La13 3.187329 1_555
I33 La21 3.187329 1_445
I33 La22 3.755688 1_455
I33 La19 3.755688 1_545
