# generated using pymatgen
data_Rb3TaO8
_symmetry_space_group_name_H-M   'P 1'
_cell_length_a   6.41189438
_cell_length_b   6.41189426
_cell_length_c   6.41189440
_cell_angle_alpha   102.89861986
_cell_angle_beta   112.85415613
_cell_angle_gamma   112.85414512
_symmetry_Int_Tables_number   1
_chemical_formula_structural   Rb3TaO8
_chemical_formula_sum   'Rb3 Ta1 O8'
_cell_volume   200.95470259
_cell_formula_units_Z   1
loop_
 _symmetry_equiv_pos_site_id
 _symmetry_equiv_pos_as_xyz
  1  'x, y, z'
loop_
 _atom_site_type_symbol
 _atom_site_label
 _atom_site_symmetry_multiplicity
 _atom_site_fract_x
 _atom_site_fract_y
 _atom_site_fract_z
 _atom_site_occupancy
  Rb  Rb0  1  0.00000000  0.50000000  0.50000000  1
  Rb  Rb1  1  0.50000000  0.25000000  0.75000000  1
  Rb  Rb2  1  0.50000000  0.75000000  0.25000000  1
  Ta  Ta0  1  0.00000000  0.00000000  0.00000000  1
  O  O0  1  0.58967674  0.81285046  0.81285046  1
  O  O1  1  0.00000000  0.18714954  0.77682628  1
  O  O2  1  -0.00000000  0.77682628  0.18714954  1
  O  O3  1  0.41032326  0.22317372  0.22317372  1
  O  O4  1  0.27077674  0.32034219  0.32034219  1
  O  O5  1  -0.00000000  0.67965781  0.95043456  1
  O  O6  1  -0.00000000  0.95043456  0.67965781  1
  O  O7  1  0.72922326  0.04956544  0.04956544  1
loop_
_geom_bond_atom_site_label_1
_geom_bond_atom_site_label_2
_geom_bond_distance
_geom_bond_site_symmetry_2
O0 O7 1.506546 1_566
O0 Ta0 2.062582 1_666
O0 Rb0 2.960417 1_555
O0 Rb1 3.150526 1_565
O0 Rb2 3.150526 1_556
O0 Rb2 3.328100 1_555
O0 Rb1 3.328100 1_555
O1 O6 1.506546 1_545
O1 Ta0 2.062582 1_556
O1 Rb0 2.960417 1_555
O1 Rb2 3.150526 1_445
O1 Rb1 3.150526 1_555
O1 Rb1 3.328100 1_455
O1 Rb2 3.328100 1_556
O2 O5 1.506546 1_554
O2 Ta0 2.062582 1_565
O2 Rb0 2.960417 1_555
O2 Rb2 3.150526 1_555
O2 Rb1 3.150526 1_454
O2 Rb1 3.328100 1_565
O2 Rb2 3.328100 1_455
O3 O4 1.506546 1_555
O3 Ta0 2.062582 1_555
O3 Rb0 2.960417 1_655
O3 Rb1 3.150526 1_555
O3 Rb2 3.150526 1_555
O3 Rb2 3.328100 1_545
O3 Rb1 3.328100 1_554
O4 Ta0 2.007108 1_555
O4 Rb1 2.806715 1_555
O4 Rb2 2.806715 1_555
O4 Rb0 2.860592 1_555
O5 Ta0 2.007108 1_566
O5 Rb2 2.806715 1_556
O5 Rb1 2.806715 1_455
O5 Rb0 2.860592 1_555
O6 Ta0 2.007108 1_566
O6 Rb2 2.806715 1_455
O6 Rb1 2.806715 1_565
O6 Rb0 2.860592 1_555
O7 Ta0 2.007108 1_655
O7 Rb1 2.806715 1_554
O7 Rb2 2.806715 1_545
O7 Rb0 2.860592 1_655
