# generated using pymatgen
data_K4Ba(SiO3)3
_symmetry_space_group_name_H-M   'P 1'
_cell_length_a   7.33240652
_cell_length_b   7.33240652
_cell_length_c   11.29037200
_cell_angle_alpha   90.00000000
_cell_angle_beta   90.00000000
_cell_angle_gamma   111.76964962
_symmetry_Int_Tables_number   1
_chemical_formula_structural   K4Ba(SiO3)3
_chemical_formula_sum   'K8 Ba2 Si6 O18'
_cell_volume   563.72662016
_cell_formula_units_Z   2
loop_
 _symmetry_equiv_pos_site_id
 _symmetry_equiv_pos_as_xyz
  1  'x, y, z'
loop_
 _atom_site_type_symbol
 _atom_site_label
 _atom_site_symmetry_multiplicity
 _atom_site_fract_x
 _atom_site_fract_y
 _atom_site_fract_z
 _atom_site_occupancy
  K  K0  1  0.48977600  0.51022400  0.00000000  1
  K  K1  1  0.32733800  0.77411100  0.75000000  1
  K  K2  1  0.96041300  0.03958700  0.00000000  1
  K  K3  1  0.22588900  0.67266200  0.25000000  1
  K  K4  1  0.96041300  0.03958700  0.50000000  1
  K  K5  1  0.48977600  0.51022400  0.50000000  1
  K  K6  1  0.75236000  0.76543900  0.25000000  1
  K  K7  1  0.23456100  0.24764000  0.75000000  1
  Ba  Ba0  1  0.74017500  0.26601700  0.75000000  1
  Ba  Ba1  1  0.73398300  0.25982500  0.25000000  1
  Si  Si0  1  0.80775800  0.73664000  0.75000000  1
  Si  Si1  1  0.01906900  0.58698500  0.52705800  1
  Si  Si2  1  0.26336000  0.19224200  0.25000000  1
  Si  Si3  1  0.41301500  0.98093100  0.47294200  1
  Si  Si4  1  0.41301500  0.98093100  0.02705800  1
  Si  Si5  1  0.01906900  0.58698500  0.97294200  1
  O  O0  1  0.05093700  0.39998200  0.91395400  1
  O  O1  1  0.24481100  0.75518900  0.00000000  1
  O  O2  1  0.30964400  0.07573800  0.36803000  1
  O  O3  1  0.60001800  0.94906300  0.41395400  1
  O  O4  1  0.92426200  0.69035600  0.86803000  1
  O  O5  1  0.44438900  0.11316600  0.59147200  1
  O  O6  1  0.42085900  0.41679700  0.25000000  1
  O  O7  1  0.88683400  0.55561100  0.40852800  1
  O  O8  1  0.88683400  0.55561100  0.09147200  1
  O  O9  1  0.60001800  0.94906300  0.08604600  1
  O  O10  1  0.03290700  0.15533200  0.25000000  1
  O  O11  1  0.24481100  0.75518900  0.50000000  1
  O  O12  1  0.58320300  0.57914100  0.75000000  1
  O  O13  1  0.30964400  0.07573800  0.13197000  1
  O  O14  1  0.44438900  0.11316600  0.90852800  1
  O  O15  1  0.92426200  0.69035600  0.63197000  1
  O  O16  1  0.05093700  0.39998200  0.58604600  1
  O  O17  1  0.84466800  0.96709300  0.75000000  1
loop_
_geom_bond_atom_site_label_1
_geom_bond_atom_site_label_2
_geom_bond_distance
_geom_bond_site_symmetry_2
K0 O12 2.904290 1_554
K0 O6 2.904290 1_555
K0 O1 2.974162 1_555
K0 O8 2.989121 1_555
K0 O14 2.989121 1_554
K0 O9 3.165719 1_555
K0 O0 3.165719 1_554
K0 O4 3.315556 1_554
K0 O13 3.315556 1_555
K1 O12 2.748266 1_555
K1 O11 2.879267 1_555
K1 O1 2.879267 1_556
K1 O14 2.922001 1_565
K1 O5 2.922001 1_565
K1 O15 3.088970 1_455
K1 O4 3.088970 1_455
K1 O0 3.306901 1_555
K1 O16 3.306901 1_555
K2 O0 2.658281 1_654
K2 O9 2.658281 1_545
K2 O4 2.888608 1_544
K2 O13 2.888608 1_655
K2 O10 2.938577 1_655
K2 O17 2.938577 1_544
K3 O6 2.748266 1_555
K3 O11 2.879267 1_555
K3 O1 2.879267 1_555
K3 O8 2.922001 1_455
K3 O7 2.922001 1_455
K3 O13 3.088970 1_565
K3 O2 3.088970 1_565
K3 O9 3.306901 1_555
K3 O3 3.306901 1_555
K4 O16 2.658281 1_655
K4 O3 2.658281 1_545
K4 O15 2.888608 1_545
K4 O2 2.888608 1_655
K4 O10 2.938577 1_655
K4 O17 2.938577 1_545
K5 O6 2.904290 1_555
K5 O12 2.904290 1_555
K5 O11 2.974162 1_555
K5 O7 2.989121 1_555
K5 O5 2.989121 1_555
K5 O3 3.165719 1_555
K5 O16 3.165719 1_555
K5 O15 3.315556 1_555
K5 O2 3.315556 1_555
K6 O9 2.757305 1_555
K6 O3 2.757305 1_555
K6 O8 2.769140 1_555
K6 O7 2.769140 1_555
K6 O6 2.798983 1_555
K6 O10 2.835925 1_665
K7 O0 2.757305 1_555
K7 O16 2.757305 1_555
K7 O5 2.769140 1_555
K7 O14 2.769140 1_555
K7 O12 2.798983 1_555
K7 O17 2.835925 1_445
Ba0 O17 2.576204 1_545
Ba0 O14 2.713011 1_555
Ba0 O5 2.713011 1_555
Ba0 O0 2.814852 1_655
Ba0 O16 2.814852 1_655
Ba0 O12 2.925118 1_555
Ba0 O15 3.188032 1_555
Ba0 O4 3.188032 1_555
Ba1 O10 2.576204 1_655
Ba1 O8 2.713011 1_555
Ba1 O7 2.713011 1_555
Ba1 O9 2.814852 1_545
Ba1 O3 2.814852 1_545
Ba1 O6 2.925118 1_555
Ba1 O13 3.188032 1_555
Ba1 O2 3.188032 1_555
O0 Si5 1.617391 1_555
O1 Si4 1.685227 1_555
O1 Si5 1.685227 1_554
O2 Si2 1.683982 1_555
O2 Si3 1.688673 1_545
O3 Si3 1.617391 1_555
O4 Si0 1.683982 1_555
O4 Si5 1.688673 1_655
O5 Si3 1.618179 1_545
O6 Si2 1.623051 1_555
O7 Si1 1.618179 1_655
O8 Si5 1.618179 1_654
O9 Si4 1.617391 1_555
O10 Si2 1.609151 1_555
O11 Si3 1.685227 1_555
O11 Si1 1.685227 1_555
O12 Si0 1.623051 1_555
O13 Si2 1.683982 1_555
O13 Si4 1.688673 1_545
O14 Si4 1.618179 1_546
O15 Si0 1.683982 1_555
O15 Si1 1.688673 1_655
O16 Si1 1.617391 1_555
O17 Si0 1.609151 1_555
