# generated using pymatgen
data_Rb7NaZn2O6
_symmetry_space_group_name_H-M   'P 1'
_cell_length_a   7.20949500
_cell_length_b   9.59673613
_cell_length_c   11.44272703
_cell_angle_alpha   105.94762177
_cell_angle_beta   91.99618514
_cell_angle_gamma   108.73215335
_symmetry_Int_Tables_number   1
_chemical_formula_structural   Rb7NaZn2O6
_chemical_formula_sum   'Rb14 Na2 Zn4 O12'
_cell_volume   714.28864886
_cell_formula_units_Z   2
loop_
 _symmetry_equiv_pos_site_id
 _symmetry_equiv_pos_as_xyz
  1  'x, y, z'
loop_
 _atom_site_type_symbol
 _atom_site_label
 _atom_site_symmetry_multiplicity
 _atom_site_fract_x
 _atom_site_fract_y
 _atom_site_fract_z
 _atom_site_occupancy
  Rb  Rb0  1  0.95248300  0.66485100  0.59270100  1
  Rb  Rb1  1  0.56355300  0.33915500  0.01914300  1
  Rb  Rb2  1  0.03483000  0.51635600  0.18830800  1
  Rb  Rb3  1  0.47582500  0.48422500  0.68673700  1
  Rb  Rb4  1  0.43644700  0.66084500  0.98085700  1
  Rb  Rb5  1  0.04751700  0.33514900  0.40729900  1
  Rb  Rb6  1  0.52417500  0.51577500  0.31326300  1
  Rb  Rb7  1  0.02855500  0.86823800  0.36533800  1
  Rb  Rb8  1  0.20671100  0.92907300  0.90819700  1
  Rb  Rb9  1  0.48852100  0.12334800  0.68357200  1
  Rb  Rb10  1  0.79328900  0.07092700  0.09180300  1
  Rb  Rb11  1  0.51147900  0.87665200  0.31642800  1
  Rb  Rb12  1  0.96517000  0.48364400  0.81169200  1
  Rb  Rb13  1  0.97144500  0.13176200  0.63466200  1
  Na  Na0  1  0.30652000  0.11461900  0.21542900  1
  Na  Na1  1  0.69348000  0.88538100  0.78457100  1
  Zn  Zn0  1  0.58084500  0.25434100  0.43849300  1
  Zn  Zn1  1  0.41915500  0.74565900  0.56150700  1
  Zn  Zn2  1  0.09284800  0.24835000  0.94102000  1
  Zn  Zn3  1  0.90715200  0.75165000  0.05898000  1
  O  O0  1  0.18659400  0.82649000  0.12021600  1
  O  O1  1  0.22903100  0.66449500  0.41643300  1
  O  O2  1  0.18552500  0.25570000  0.10507700  1
  O  O3  1  0.77096900  0.33550500  0.58356700  1
  O  O4  1  0.30029600  0.17264100  0.44449700  1
  O  O5  1  0.71866100  0.68074700  0.16376700  1
  O  O6  1  0.81447500  0.74430000  0.89492300  1
  O  O7  1  0.65656100  0.24870400  0.27648000  1
  O  O8  1  0.81340600  0.17351000  0.87978400  1
  O  O9  1  0.34343900  0.75129600  0.72352000  1
  O  O10  1  0.28133900  0.31925300  0.83623300  1
  O  O11  1  0.69970400  0.82735900  0.55550300  1
loop_
_geom_bond_atom_site_label_1
_geom_bond_atom_site_label_2
_geom_bond_distance
_geom_bond_site_symmetry_2
Na0 O2 2.410354 1_555
Na0 O7 2.410384 1_555
Na0 O0 2.514697 1_545
Na0 O4 2.530764 1_555
Na1 O6 2.410354 1_555
Na1 O9 2.410384 1_555
Na1 O8 2.514697 1_565
Na1 O11 2.530764 1_555
O0 Zn3 1.939415 1_455
O0 Rb8 2.849790 1_554
O0 Rb4 2.993479 1_554
O0 Rb11 3.012363 1_555
O0 Rb7 3.037150 1_555
O0 Rb2 3.147152 1_555
O1 Zn1 1.920015 1_555
O1 Rb2 2.687575 1_555
O1 Rb0 2.885154 1_455
O1 Rb11 2.895019 1_555
O1 Rb7 2.939103 1_555
O1 Rb5 2.977496 1_555
O1 Rb6 3.026228 1_555
O2 Zn2 1.945531 1_554
O2 Rb10 2.786641 1_455
O2 Rb1 2.872910 1_555
O2 Rb2 2.975414 1_555
O2 Rb6 3.206069 1_555
O3 Zn0 1.920015 1_555
O3 Rb12 2.687575 1_555
O3 Rb5 2.885154 1_655
O3 Rb9 2.895019 1_555
O3 Rb13 2.939103 1_555
O3 Rb0 2.977496 1_555
O3 Rb3 3.026228 1_555
O4 Zn0 1.931619 1_555
O4 Rb7 2.817599 1_545
O4 Rb5 2.840905 1_555
O4 Rb9 3.227067 1_555
O4 Rb13 3.277339 1_455
O4 Rb3 3.316107 1_555
O5 Zn3 1.927523 1_555
O5 Rb6 2.761947 1_555
O5 Rb4 2.791206 1_554
O5 Rb7 2.885748 1_655
O5 Rb11 2.999650 1_555
O5 Rb1 3.044827 1_555
O5 Rb2 3.205002 1_655
O6 Zn3 1.945531 1_556
O6 Rb8 2.786641 1_655
O6 Rb4 2.872910 1_555
O6 Rb12 2.975414 1_555
O6 Rb3 3.206069 1_555
O7 Zn0 1.942189 1_555
O7 Rb10 2.755386 1_555
O7 Rb5 2.897463 1_655
O7 Rb6 2.943382 1_555
O7 Rb1 3.393358 1_555
O8 Zn2 1.939415 1_655
O8 Rb10 2.849790 1_556
O8 Rb1 2.993479 1_556
O8 Rb9 3.012363 1_555
O8 Rb13 3.037150 1_555
O8 Rb12 3.147152 1_555
O9 Zn1 1.942189 1_555
O9 Rb8 2.755386 1_555
O9 Rb0 2.897463 1_455
O9 Rb3 2.943382 1_555
O9 Rb4 3.393358 1_555
O10 Zn2 1.927523 1_555
O10 Rb3 2.761947 1_555
O10 Rb1 2.791206 1_556
O10 Rb13 2.885748 1_455
O10 Rb9 2.999650 1_555
O10 Rb4 3.044827 1_555
O10 Rb12 3.205002 1_455
O11 Zn1 1.931619 1_555
O11 Rb13 2.817599 1_565
O11 Rb0 2.840905 1_555
O11 Rb11 3.227067 1_555
O11 Rb7 3.277339 1_655
O11 Rb6 3.316107 1_555
