# generated using pymatgen
data_Cu2PO4F
_symmetry_space_group_name_H-M   'P 1'
_cell_length_a   7.17774964
_cell_length_b   7.17774964
_cell_length_c   10.14234203
_cell_angle_alpha   63.90121206
_cell_angle_beta   63.90121206
_cell_angle_gamma   51.69700082
_symmetry_Int_Tables_number   1
_chemical_formula_structural   Cu2PO4F
_chemical_formula_sum   'Cu8 P4 O16 F4'
_cell_volume   357.72459942
_cell_formula_units_Z   4
loop_
 _symmetry_equiv_pos_site_id
 _symmetry_equiv_pos_as_xyz
  1  'x, y, z'
loop_
 _atom_site_type_symbol
 _atom_site_label
 _atom_site_symmetry_multiplicity
 _atom_site_fract_x
 _atom_site_fract_y
 _atom_site_fract_z
 _atom_site_occupancy
  Cu  Cu0  1  0.80433700  0.31825700  0.99822700  1
  Cu  Cu1  1  0.68174300  0.19566300  0.50177300  1
  Cu  Cu2  1  0.19566300  0.68174300  0.00177300  1
  Cu  Cu3  1  0.31825700  0.80433700  0.49822700  1
  Cu  Cu4  1  0.96230800  0.73204500  0.34884600  1
  Cu  Cu5  1  0.26795500  0.03769200  0.15115400  1
  Cu  Cu6  1  0.03769200  0.26795500  0.65115400  1
  Cu  Cu7  1  0.73204500  0.96230800  0.84884600  1
  P  P0  1  0.77873200  0.56522700  0.19837600  1
  P  P1  1  0.43477300  0.22126800  0.30162400  1
  P  P2  1  0.22126800  0.43477300  0.80162400  1
  P  P3  1  0.56522700  0.77873200  0.69837600  1
  O  O0  1  0.22931800  0.40112700  0.40378200  1
  O  O1  1  0.59887300  0.77068200  0.09621800  1
  O  O2  1  0.77068200  0.59887300  0.59621800  1
  O  O3  1  0.40112700  0.22931800  0.90378200  1
  O  O4  1  0.05063300  0.36113700  0.80953000  1
  O  O5  1  0.63886300  0.94936700  0.69047000  1
  O  O6  1  0.94936700  0.63886300  0.19047000  1
  O  O7  1  0.36113700  0.05063300  0.30953000  1
  O  O8  1  0.35357300  0.49294400  0.63578400  1
  O  O9  1  0.50705600  0.64642700  0.86421600  1
  O  O10  1  0.64642700  0.50705600  0.36421600  1
  O  O11  1  0.49294400  0.35357300  0.13578400  1
  O  O12  1  0.06149000  0.66519300  0.86780400  1
  O  O13  1  0.33480700  0.93851000  0.63219600  1
  O  O14  1  0.93851000  0.33480700  0.13219600  1
  O  O15  1  0.66519300  0.06149000  0.36780400  1
  F  F0  1  0.90528400  0.14331100  0.59770100  1
  F  F1  1  0.85668900  0.09471600  0.90229900  1
  F  F2  1  0.09471600  0.85668900  0.40229900  1
  F  F3  1  0.14331100  0.90528400  0.09770100  1
loop_
_geom_bond_atom_site_label_1
_geom_bond_atom_site_label_2
_geom_bond_distance
_geom_bond_site_symmetry_2
Cu0 O11 1.967634 1_556
Cu0 F1 1.991663 1_555
Cu0 O4 2.015487 1_655
Cu0 O14 2.054991 1_556
Cu0 O9 2.335198 1_555
Cu0 F3 2.512437 1_646
Cu1 O10 1.967634 1_555
Cu1 F0 1.991663 1_555
Cu1 O5 2.015487 1_545
Cu1 O15 2.054991 1_555
Cu1 O8 2.335198 1_555
Cu1 F2 2.512437 1_645
Cu2 O9 1.967634 1_554
Cu2 F3 1.991663 1_555
Cu2 O6 2.015487 1_455
Cu2 O12 2.054991 1_554
Cu2 O11 2.335198 1_555
Cu2 F1 2.512437 1_464
Cu3 O8 1.967634 1_555
Cu3 F2 1.991663 1_555
Cu3 O7 2.015487 1_565
Cu3 O13 2.054991 1_555
Cu3 O10 2.335198 1_555
Cu3 F0 2.512437 1_465
Cu4 O0 1.938383 1_655
Cu4 F2 1.982853 1_655
Cu4 O15 1.991113 1_565
Cu4 O6 2.046884 1_555
Cu4 O2 2.363008 1_555
Cu4 F3 2.454903 1_655
Cu5 O1 1.938383 1_545
Cu5 F3 1.982853 1_545
Cu5 O14 1.991113 1_455
Cu5 O7 2.046884 1_555
Cu5 O3 2.363008 1_554
Cu5 F2 2.454903 1_545
Cu6 O2 1.938383 1_455
Cu6 F0 1.982853 1_455
Cu6 O13 1.991113 1_545
Cu6 O4 2.046884 1_555
Cu6 O0 2.363008 1_555
Cu6 F1 2.454903 1_455
Cu7 O3 1.938383 1_565
Cu7 F1 1.982853 1_565
Cu7 O12 1.991113 1_655
Cu7 O5 2.046884 1_555
Cu7 O1 2.363008 1_556
Cu7 F0 2.454903 1_565
O0 P1 1.545122 1_555
O1 P0 1.545122 1_555
O2 P3 1.545122 1_555
O3 P2 1.545122 1_555
O4 P2 1.569916 1_555
O5 P3 1.569916 1_555
O6 P0 1.569916 1_555
O7 P1 1.569916 1_555
O8 P2 1.540635 1_555
O9 P3 1.540635 1_555
O10 P0 1.540635 1_555
O11 P1 1.540635 1_555
O12 P2 1.565027 1_555
O13 P3 1.565027 1_555
O14 P0 1.565027 1_555
O15 P1 1.565027 1_555
