# generated using pymatgen
data_Ca3(AlN2)2
_symmetry_space_group_name_H-M   'P 1'
_cell_length_a   5.78412618
_cell_length_b   9.53713232
_cell_length_c   9.55597235
_cell_angle_alpha   68.28313779
_cell_angle_beta   90.00000000
_cell_angle_gamma   90.00000000
_symmetry_Int_Tables_number   1
_chemical_formula_structural   Ca3(AlN2)2
_chemical_formula_sum   'Ca12 Al8 N16'
_cell_volume   489.73061103
_cell_formula_units_Z   4
loop_
 _symmetry_equiv_pos_site_id
 _symmetry_equiv_pos_as_xyz
  1  'x, y, z'
loop_
 _atom_site_type_symbol
 _atom_site_label
 _atom_site_symmetry_multiplicity
 _atom_site_fract_x
 _atom_site_fract_y
 _atom_site_fract_z
 _atom_site_occupancy
  Ca  Ca0  1  0.65326225  0.67047271  0.46572937  1
  Ca  Ca1  1  0.40402552  0.68453402  0.94949940  1
  Ca  Ca2  1  0.15326225  0.82952729  0.53427063  1
  Ca  Ca3  1  0.59597448  0.31546598  0.05050060  1
  Ca  Ca4  1  0.34673775  0.32952729  0.53427063  1
  Ca  Ca5  1  0.90402552  0.81546598  0.05050060  1
  Ca  Ca6  1  0.61980847  0.10039335  0.81710498  1
  Ca  Ca7  1  0.11980847  0.39960665  0.18289502  1
  Ca  Ca8  1  0.09597448  0.18453402  0.94949940  1
  Ca  Ca9  1  0.38019153  0.89960665  0.18289502  1
  Ca  Ca10  1  0.88019153  0.60039335  0.81710498  1
  Ca  Ca11  1  0.84673775  0.17047271  0.46572937  1
  Al  Al0  1  0.14255743  0.01164385  0.74112319  1
  Al  Al1  1  0.11038134  0.60857206  0.38091706  1
  Al  Al2  1  0.85744257  0.98835615  0.25887681  1
  Al  Al3  1  0.61038134  0.89142794  0.61908294  1
  Al  Al4  1  0.64255743  0.48835615  0.25887681  1
  Al  Al5  1  0.88961866  0.39142794  0.61908294  1
  Al  Al6  1  0.35744257  0.51164385  0.74112319  1
  Al  Al7  1  0.38961866  0.10857206  0.38091706  1
  N  N0  1  0.73791879  0.06306602  0.06232780  1
  N  N1  1  0.89713610  0.44873385  0.39916378  1
  N  N2  1  0.48915124  0.70200289  0.69908871  1
  N  N3  1  0.39713610  0.05126615  0.60083622  1
  N  N4  1  0.60286390  0.94873385  0.39916378  1
  N  N5  1  0.51084876  0.29799711  0.30091129  1
  N  N6  1  0.90067330  0.89518496  0.70328608  1
  N  N7  1  0.26208121  0.93693398  0.93767220  1
  N  N8  1  0.01084876  0.20200289  0.69908871  1
  N  N9  1  0.23791879  0.43693398  0.93767220  1
  N  N10  1  0.76208121  0.56306602  0.06232780  1
  N  N11  1  0.10286390  0.55126615  0.60083622  1
  N  N12  1  0.09932670  0.10481504  0.29671392  1
  N  N13  1  0.40067330  0.60481504  0.29671392  1
  N  N14  1  0.59932670  0.39518496  0.70328608  1
  N  N15  1  0.98915124  0.79799711  0.30091129  1
loop_
_geom_bond_atom_site_label_1
_geom_bond_atom_site_label_2
_geom_bond_distance
_geom_bond_site_symmetry_2
Ca0 N13 2.425627 1_555
Ca0 N4 2.506606 1_555
Ca0 N15 2.513323 1_555
Ca0 N2 2.541755 1_555
Ca0 N14 2.780824 1_555
Ca0 N1 2.803940 1_555
Ca0 N11 2.938713 1_655
Ca1 N2 2.387722 1_555
Ca1 N10 2.422679 1_556
Ca1 N7 2.505992 1_555
Ca1 N9 2.590283 1_555
Ca1 N13 3.117774 1_556
Ca2 N6 2.425627 1_455
Ca2 N11 2.506606 1_555
Ca2 N2 2.513323 1_555
Ca2 N15 2.541755 1_455
Ca2 N12 2.780824 1_565
Ca2 N3 2.803940 1_565
Ca2 N4 2.938713 1_555
Ca3 N5 2.387722 1_555
Ca3 N9 2.422679 1_554
Ca3 N0 2.505992 1_555
Ca3 N10 2.590283 1_555
Ca3 N14 3.117774 1_554
Ca4 N14 2.425627 1_555
Ca4 N3 2.506606 1_555
Ca4 N8 2.513323 1_555
Ca4 N5 2.541755 1_555
Ca4 N13 2.780824 1_555
Ca4 N11 2.803940 1_555
Ca4 N1 2.938713 1_455
Ca5 N15 2.387722 1_555
Ca5 N7 2.422679 1_654
Ca5 N10 2.505992 1_555
Ca5 N0 2.590283 1_565
Ca5 N6 3.117774 1_554
Ca6 N0 2.338235 1_556
Ca6 N8 2.553041 1_655
Ca6 N7 2.590336 1_545
Ca6 N14 2.615033 1_555
Ca6 N3 2.620311 1_555
Ca6 N6 3.037711 1_545
Ca7 N9 2.338235 1_554
Ca7 N5 2.553041 1_555
Ca7 N10 2.590336 1_455
Ca7 N12 2.615033 1_555
Ca7 N1 2.620311 1_455
Ca7 N13 3.037711 1_555
Ca8 N8 2.387722 1_555
Ca8 N0 2.422679 1_456
Ca8 N9 2.505992 1_555
Ca8 N7 2.590283 1_545
Ca8 N12 3.117774 1_556
Ca9 N7 2.338235 1_554
Ca9 N15 2.553041 1_455
Ca9 N0 2.590336 1_565
Ca9 N13 2.615033 1_555
Ca9 N4 2.620311 1_555
Ca9 N12 3.037711 1_565
Ca10 N10 2.338235 1_556
Ca10 N2 2.553041 1_555
Ca10 N9 2.590336 1_655
Ca10 N6 2.615033 1_555
Ca10 N11 2.620311 1_655
Ca10 N14 3.037711 1_555
Ca11 N12 2.425627 1_655
Ca11 N1 2.506606 1_555
Ca11 N5 2.513323 1_555
Ca11 N8 2.541755 1_655
Ca11 N6 2.780824 1_545
Ca11 N4 2.803940 1_545
Ca11 N3 2.938713 1_555
Al0 N8 1.870297 1_555
Al0 N7 1.876956 1_545
Al0 N6 1.902365 1_445
Al0 N3 1.932189 1_555
Al1 N15 1.821476 1_455
Al1 N13 1.867993 1_555
Al1 N1 1.918035 1_455
Al1 N11 1.966490 1_555
Al2 N15 1.870297 1_555
Al2 N0 1.876956 1_565
Al2 N12 1.902365 1_665
Al2 N4 1.932189 1_555
Al3 N2 1.821476 1_555
Al3 N6 1.867993 1_555
Al3 N3 1.918035 1_565
Al3 N4 1.966490 1_555
Al4 N5 1.870297 1_555
Al4 N10 1.876956 1_555
Al4 N13 1.902365 1_555
Al4 N1 1.932189 1_555
Al5 N8 1.821476 1_655
Al5 N14 1.867993 1_555
Al5 N11 1.918035 1_655
Al5 N1 1.966490 1_555
Al6 N2 1.870297 1_555
Al6 N9 1.876956 1_555
Al6 N14 1.902365 1_555
Al6 N11 1.932189 1_555
Al7 N5 1.821476 1_555
Al7 N12 1.867993 1_555
Al7 N4 1.918035 1_545
Al7 N3 1.966490 1_555
