# generated using pymatgen
data_FeBiO3
_symmetry_space_group_name_H-M   'P 1'
_cell_length_a   3.94444966
_cell_length_b   3.94444966
_cell_length_c   7.89202100
_cell_angle_alpha   90.00000000
_cell_angle_beta   90.00000000
_cell_angle_gamma   90.03138879
_symmetry_Int_Tables_number   1
_chemical_formula_structural   FeBiO3
_chemical_formula_sum   'Fe2 Bi2 O6'
_cell_volume   122.78943567
_cell_formula_units_Z   2
loop_
 _symmetry_equiv_pos_site_id
 _symmetry_equiv_pos_as_xyz
  1  'x, y, z'
loop_
 _atom_site_type_symbol
 _atom_site_label
 _atom_site_symmetry_multiplicity
 _atom_site_fract_x
 _atom_site_fract_y
 _atom_site_fract_z
 _atom_site_occupancy
  Fe  Fe0  1  0.49771300  0.49771300  0.25000000  1
  Fe  Fe1  1  0.50228700  0.50228700  0.75000000  1
  Bi  Bi0  1  0.00000000  0.00000000  0.50000000  1
  Bi  Bi1  1  0.00000000  0.00000000  0.00000000  1
  O  O0  1  0.49221800  0.99689900  0.25000000  1
  O  O1  1  0.50000000  0.50000000  0.50000000  1
  O  O2  1  0.50000000  0.50000000  0.00000000  1
  O  O3  1  0.50778200  0.00310100  0.75000000  1
  O  O4  1  0.00310100  0.50778200  0.75000000  1
  O  O5  1  0.99689900  0.49221800  0.25000000  1
loop_
_geom_bond_atom_site_label_1
_geom_bond_atom_site_label_2
_geom_bond_distance
_geom_bond_site_symmetry_2
Fe0 O5 1.969145 1_555
Fe0 O0 1.969145 1_555
Fe0 O2 1.973046 1_555
Fe0 O1 1.973046 1_555
Fe0 O0 1.975543 1_545
Fe0 O5 1.975543 1_455
Fe1 O3 1.969145 1_555
Fe1 O4 1.969145 1_555
Fe1 O2 1.973046 1_556
Fe1 O1 1.973046 1_555
Fe1 O4 1.975543 1_655
Fe1 O3 1.975543 1_565
Bi0 O5 2.768115 1_455
Bi0 O0 2.768115 1_545
Bi0 O4 2.768115 1_545
Bi0 O3 2.768115 1_455
Bi0 O1 2.788383 1_555
Bi0 O1 2.788383 1_445
Bi0 O1 2.789911 1_545
Bi0 O1 2.789911 1_455
Bi0 O5 2.811505 1_445
Bi0 O3 2.811505 1_555
Bi0 O0 2.811505 1_445
Bi0 O4 2.811505 1_555
Bi1 O5 2.768115 1_455
Bi1 O0 2.768115 1_545
Bi1 O4 2.768115 1_544
Bi1 O3 2.768115 1_454
Bi1 O2 2.788383 1_555
Bi1 O2 2.788383 1_445
Bi1 O2 2.789911 1_455
Bi1 O2 2.789911 1_545
Bi1 O5 2.811505 1_445
Bi1 O3 2.811505 1_554
Bi1 O4 2.811505 1_554
Bi1 O0 2.811505 1_445
