# generated using pymatgen
data_K3Nb3(BO6)2
_symmetry_space_group_name_H-M   'P 1'
_cell_length_a   8.85934697
_cell_length_b   8.85934697
_cell_length_c   3.97555551
_cell_angle_alpha   90.00000000
_cell_angle_beta   90.00000000
_cell_angle_gamma   119.99999712
_symmetry_Int_Tables_number   1
_chemical_formula_structural   K3Nb3(BO6)2
_chemical_formula_sum   'K3 Nb3 B2 O12'
_cell_volume   270.22895904
_cell_formula_units_Z   1
loop_
 _symmetry_equiv_pos_site_id
 _symmetry_equiv_pos_as_xyz
  1  'x, y, z'
loop_
 _atom_site_type_symbol
 _atom_site_label
 _atom_site_symmetry_multiplicity
 _atom_site_fract_x
 _atom_site_fract_y
 _atom_site_fract_z
 _atom_site_occupancy
  K  K0  1  1.00000000  0.59672333  0.49935297  1
  K  K1  1  0.59672333  1.00000000  0.49935297  1
  K  K2  1  0.40327667  0.40327667  0.49935297  1
  Nb  Nb0  1  0.24720538  0.00000000  0.01580105  1
  Nb  Nb1  1  0.75279462  0.75279462  0.01580105  1
  Nb  Nb2  1  0.00000000  0.24720538  0.01580105  1
  B  B0  1  0.33333300  0.66666700  0.98175476  1
  B  B1  1  0.66666700  0.33333300  0.98175476  1
  O  O0  1  0.26324709  0.00000000  0.48552408  1
  O  O1  1  0.31665061  0.81200879  0.98134579  1
  O  O2  1  0.18799121  0.50464282  0.98134579  1
  O  O3  1  0.81944867  1.00000000  0.98676115  1
  O  O4  1  0.81200879  0.31665061  0.98134579  1
  O  O5  1  0.49535718  0.68334939  0.98134579  1
  O  O6  1  1.00000000  0.81944867  0.98676115  1
  O  O7  1  0.18055133  0.18055133  0.98676115  1
  O  O8  1  0.68334939  0.49535718  0.98134579  1
  O  O9  1  0.73675291  0.73675291  0.48552408  1
  O  O10  1  0.50464282  0.18799121  0.98134579  1
  O  O11  1  0.00000000  0.26324709  0.48552408  1
loop_
_geom_bond_atom_site_label_1
_geom_bond_atom_site_label_2
_geom_bond_distance
_geom_bond_site_symmetry_2
K0 O6 2.765551 1_555
K0 O6 2.836601 1_554
K0 O2 2.910282 1_655
K0 O4 2.910287 1_555
K0 O11 2.954893 1_655
K0 O2 3.006485 1_654
K0 O4 3.006490 1_554
K0 O8 3.135088 1_555
K0 O1 3.135090 1_655
K0 O9 3.142362 1_555
K0 O0 3.142362 1_665
K0 O8 3.224591 1_554
K0 O1 3.224592 1_654
K1 O3 2.765551 1_555
K1 O3 2.836601 1_554
K1 O10 2.910282 1_565
K1 O1 2.910287 1_555
K1 O0 2.954893 1_565
K1 O10 3.006485 1_564
K1 O1 3.006490 1_554
K1 O5 3.135088 1_555
K1 O4 3.135090 1_565
K1 O9 3.142362 1_555
K1 O11 3.142362 1_665
K1 O5 3.224591 1_554
K1 O4 3.224592 1_564
K2 O7 2.765551 1_555
K2 O7 2.836601 1_554
K2 O8 2.910288 1_555
K2 O5 2.910288 1_555
K2 O9 2.954893 1_555
K2 O8 3.006491 1_554
K2 O5 3.006491 1_554
K2 O2 3.135095 1_555
K2 O10 3.135095 1_555
K2 O0 3.142362 1_555
K2 O11 3.142362 1_555
K2 O10 3.224597 1_554
K2 O2 3.224597 1_554
Nb0 O0 1.872810 1_555
Nb0 O7 1.966013 1_554
Nb0 O6 1.966014 1_444
Nb0 O1 2.048359 1_544
Nb0 O10 2.048365 1_554
Nb0 O0 2.112931 1_554
Nb1 O9 1.872810 1_555
Nb1 O6 1.966013 1_554
Nb1 O3 1.966013 1_554
Nb1 O5 2.048367 1_554
Nb1 O8 2.048367 1_554
Nb1 O9 2.112931 1_554
Nb2 O11 1.872810 1_555
Nb2 O7 1.966013 1_554
Nb2 O3 1.966014 1_444
Nb2 O4 2.048359 1_454
Nb2 O2 2.048365 1_554
Nb2 O11 2.112931 1_554
B0 O1 1.367535 1_555
B0 O5 1.367535 1_555
B0 O2 1.367535 1_555
B1 O4 1.367535 1_555
B1 O8 1.367535 1_555
B1 O10 1.367535 1_555
