# generated using pymatgen
data_LiAl(PO3)4
_symmetry_space_group_name_H-M   'P 1'
_cell_length_a   8.36172000
_cell_length_b   9.05321900
_cell_length_c   12.58499100
_cell_angle_alpha   90.00000000
_cell_angle_beta   90.00000000
_cell_angle_gamma   90.00000000
_symmetry_Int_Tables_number   1
_chemical_formula_structural   LiAl(PO3)4
_chemical_formula_sum   'Li4 Al4 P16 O48'
_cell_volume   952.68988941
_cell_formula_units_Z   4
loop_
 _symmetry_equiv_pos_site_id
 _symmetry_equiv_pos_as_xyz
  1  'x, y, z'
loop_
 _atom_site_type_symbol
 _atom_site_label
 _atom_site_symmetry_multiplicity
 _atom_site_fract_x
 _atom_site_fract_y
 _atom_site_fract_z
 _atom_site_occupancy
  Li  Li0  1  0.00592500  0.75000000  0.00000000  1
  Li  Li1  1  0.49407500  0.25000000  0.50000000  1
  Li  Li2  1  0.50592500  0.75000000  0.50000000  1
  Li  Li3  1  0.99407500  0.25000000  0.00000000  1
  Al  Al0  1  0.13204400  0.25000000  0.50000000  1
  Al  Al1  1  0.36795600  0.75000000  0.00000000  1
  Al  Al2  1  0.63204400  0.25000000  0.00000000  1
  Al  Al3  1  0.86795600  0.75000000  0.50000000  1
  P  P0  1  0.31705700  0.00636200  0.36103600  1
  P  P1  1  0.68294300  0.99363800  0.63896400  1
  P  P2  1  0.18294300  0.50636200  0.13896400  1
  P  P3  1  0.53561700  0.51187400  0.14807600  1
  P  P4  1  0.53561700  0.98812600  0.85192400  1
  P  P5  1  0.96438300  0.48812600  0.64807600  1
  P  P6  1  0.31705700  0.49363800  0.63896400  1
  P  P7  1  0.96438300  0.01187400  0.35192400  1
  P  P8  1  0.46438300  0.48812600  0.85192400  1
  P  P9  1  0.03561700  0.98812600  0.64807600  1
  P  P10  1  0.03561700  0.51187400  0.35192400  1
  P  P11  1  0.46438300  0.01187400  0.14807600  1
  P  P12  1  0.81705700  0.49363800  0.86103600  1
  P  P13  1  0.81705700  0.00636200  0.13896400  1
  P  P14  1  0.18294300  0.99363800  0.86103600  1
  P  P15  1  0.68294300  0.50636200  0.36103600  1
  O  O0  1  0.52681100  0.63490800  0.06795700  1
  O  O1  1  0.90656000  0.62564800  0.89578100  1
  O  O2  1  0.09344000  0.37435200  0.10421900  1
  O  O3  1  0.36684800  0.62137400  0.88092100  1
  O  O4  1  0.19908600  0.63667500  0.06341200  1
  O  O5  1  0.52681100  0.86509200  0.93204300  1
  O  O6  1  0.13315200  0.12137400  0.61907900  1
  O  O7  1  0.47318900  0.36509200  0.93204300  1
  O  O8  1  0.59344000  0.37435200  0.39578100  1
  O  O9  1  0.89447200  0.07978900  0.24460800  1
  O  O10  1  0.97318900  0.36509200  0.56795700  1
  O  O11  1  0.89447200  0.42021100  0.75539200  1
  O  O12  1  0.30091400  0.13667500  0.43658800  1
  O  O13  1  0.59344000  0.12564800  0.60421900  1
  O  O14  1  0.09344000  0.12564800  0.89578100  1
  O  O15  1  0.86684800  0.62137400  0.61907900  1
  O  O16  1  0.97318900  0.13490800  0.43204300  1
  O  O17  1  0.60552800  0.92021100  0.74460800  1
  O  O18  1  0.13315200  0.37862600  0.38092100  1
  O  O19  1  0.35862900  0.46051400  0.18078500  1
  O  O20  1  0.63315200  0.12137400  0.88092100  1
  O  O21  1  0.02681100  0.63490800  0.43204300  1
  O  O22  1  0.80091400  0.13667500  0.06341200  1
  O  O23  1  0.85862900  0.46051400  0.31921500  1
  O  O24  1  0.40656000  0.87435200  0.39578100  1
  O  O25  1  0.63315200  0.37862600  0.11907900  1
  O  O26  1  0.40656000  0.62564800  0.60421900  1
  O  O27  1  0.86684800  0.87862600  0.38092100  1
  O  O28  1  0.69908600  0.86332500  0.56341200  1
  O  O29  1  0.36684800  0.87862600  0.11907900  1
  O  O30  1  0.47318900  0.13490800  0.06795700  1
  O  O31  1  0.39447200  0.42021100  0.74460800  1
  O  O32  1  0.14137100  0.53948600  0.68078500  1
  O  O33  1  0.02681100  0.86509200  0.56795700  1
  O  O34  1  0.60552800  0.57978900  0.25539200  1
  O  O35  1  0.64137100  0.53948600  0.81921500  1
  O  O36  1  0.64137100  0.96051400  0.18078500  1
  O  O37  1  0.19908600  0.86332500  0.93658800  1
  O  O38  1  0.35862900  0.03948600  0.81921500  1
  O  O39  1  0.14137100  0.96051400  0.31921500  1
  O  O40  1  0.69908600  0.63667500  0.43658800  1
  O  O41  1  0.85862900  0.03948600  0.68078500  1
  O  O42  1  0.80091400  0.36332500  0.93658800  1
  O  O43  1  0.39447200  0.07978900  0.25539200  1
  O  O44  1  0.10552800  0.92021100  0.75539200  1
  O  O45  1  0.10552800  0.57978900  0.24460800  1
  O  O46  1  0.90656000  0.87435200  0.10421900  1
  O  O47  1  0.30091400  0.36332500  0.56341200  1
loop_
_geom_bond_atom_site_label_1
_geom_bond_atom_site_label_2
_geom_bond_distance
_geom_bond_site_symmetry_2
Li0 O1 1.917813 1_454
Li0 O46 1.917813 1_455
Li0 O37 2.073207 1_554
Li0 O4 2.073207 1_555
Li1 O13 1.917813 1_555
Li1 O8 1.917813 1_555
Li1 O12 2.073207 1_555
Li1 O47 2.073207 1_555
Li2 O26 1.917813 1_555
Li2 O24 1.917813 1_555
Li2 O28 2.073207 1_555
Li2 O40 2.073207 1_555
Li3 O14 1.917813 1_654
Li3 O2 1.917813 1_655
Li3 O42 2.073207 1_554
Li3 O22 2.073207 1_555
Al0 O16 1.892480 1_455
Al0 O10 1.892480 1_455
Al0 O18 1.897874 1_555
Al0 O6 1.897874 1_555
Al0 O47 1.919198 1_555
Al0 O12 1.919198 1_555
Al1 O0 1.892480 1_555
Al1 O5 1.892480 1_554
Al1 O29 1.897874 1_555
Al1 O3 1.897874 1_554
Al1 O4 1.919198 1_555
Al1 O37 1.919198 1_554
Al2 O30 1.892480 1_555
Al2 O7 1.892480 1_554
Al2 O25 1.897874 1_555
Al2 O20 1.897874 1_554
Al2 O22 1.919198 1_555
Al2 O42 1.919198 1_554
Al3 O21 1.892480 1_655
Al3 O33 1.892480 1_655
Al3 O27 1.897874 1_555
Al3 O15 1.897874 1_555
Al3 O40 1.919198 1_555
Al3 O28 1.919198 1_555
O0 P3 1.504246 1_555
O1 P12 1.476348 1_555
O2 P2 1.476348 1_555
O3 P8 1.501175 1_555
O4 P2 1.521215 1_555
O5 P4 1.504246 1_555
O6 P9 1.501175 1_545
O7 P8 1.504246 1_555
O8 P15 1.476348 1_555
O9 P7 1.594933 1_555
O9 P13 1.621286 1_555
O10 P5 1.504246 1_555
O11 P5 1.594933 1_555
O11 P12 1.621286 1_555
O12 P0 1.521215 1_555
O13 P1 1.476348 1_545
O14 P14 1.476348 1_545
O15 P5 1.501175 1_555
O16 P7 1.504246 1_555
O17 P4 1.594933 1_555
O17 P1 1.621286 1_555
O18 P10 1.501175 1_555
O19 P3 1.604938 1_555
O19 P2 1.614734 1_555
O20 P4 1.501175 1_545
O21 P10 1.504246 1_555
O22 P13 1.521215 1_555
O23 P10 1.604938 1_655
O23 P15 1.614734 1_555
O24 P0 1.476348 1_565
O25 P3 1.501175 1_555
O26 P6 1.476348 1_555
O27 P7 1.501175 1_565
O28 P1 1.521215 1_555
O29 P11 1.501175 1_565
O30 P11 1.504246 1_555
O31 P8 1.594933 1_555
O31 P6 1.621286 1_555
O32 P5 1.604938 1_455
O32 P6 1.614734 1_555
O33 P9 1.504246 1_555
O34 P3 1.594933 1_555
O34 P15 1.621286 1_555
O35 P8 1.604938 1_555
O35 P12 1.614734 1_555
O36 P11 1.604938 1_565
O36 P13 1.614734 1_565
O37 P14 1.521215 1_555
O38 P4 1.604938 1_545
O38 P14 1.614734 1_545
O39 P7 1.604938 1_465
O39 P0 1.614734 1_565
O40 P15 1.521215 1_555
O41 P9 1.604938 1_645
O41 P1 1.614734 1_545
O42 P12 1.521215 1_555
O43 P11 1.594933 1_555
O43 P0 1.621286 1_555
O44 P9 1.594933 1_555
O44 P14 1.621286 1_555
O45 P10 1.594933 1_555
O45 P2 1.621286 1_555
O46 P13 1.476348 1_565
O47 P6 1.521215 1_555
