# generated using pymatgen
data_SnPSe3
_symmetry_space_group_name_H-M   'P 1'
_cell_length_a   7.89508400
_cell_length_b   6.95954100
_cell_length_c   11.99390218
_cell_angle_alpha   55.65870318
_cell_angle_beta   90.00000000
_cell_angle_gamma   90.00000000
_symmetry_Int_Tables_number   1
_chemical_formula_structural   SnPSe3
_chemical_formula_sum   'Sn4 P4 Se12'
_cell_volume   544.14655594
_cell_formula_units_Z   4
loop_
 _symmetry_equiv_pos_site_id
 _symmetry_equiv_pos_as_xyz
  1  'x, y, z'
loop_
 _atom_site_type_symbol
 _atom_site_label
 _atom_site_symmetry_multiplicity
 _atom_site_fract_x
 _atom_site_fract_y
 _atom_site_fract_z
 _atom_site_occupancy
  Sn  Sn0  1  0.62693900  0.24921900  0.78686500  1
  Sn  Sn1  1  0.12693900  0.75078100  0.71313500  1
  Sn  Sn2  1  0.37306100  0.75078100  0.21313500  1
  Sn  Sn3  1  0.87306100  0.24921900  0.28686500  1
  P  P0  1  0.89710600  0.62326400  0.43151000  1
  P  P1  1  0.39710600  0.37673600  0.06849000  1
  P  P2  1  0.10289400  0.37673600  0.56849000  1
  P  P3  1  0.60289400  0.62326400  0.93151000  1
  Se  Se0  1  0.98979800  0.12200200  0.76797300  1
  Se  Se1  1  0.48979800  0.87799800  0.73202700  1
  Se  Se2  1  0.01020200  0.87799800  0.23202700  1
  Se  Se3  1  0.51020200  0.12200200  0.26797300  1
  Se  Se4  1  0.19389600  0.59946400  0.06220200  1
  Se  Se5  1  0.69389600  0.40053600  0.43779800  1
  Se  Se6  1  0.80610400  0.40053600  0.93779800  1
  Se  Se7  1  0.30610400  0.59946400  0.56220200  1
  Se  Se8  1  0.30575100  0.20906100  0.96575100  1
  Se  Se9  1  0.80575100  0.79093900  0.53424900  1
  Se  Se10  1  0.69424900  0.79093900  0.03424900  1
  Se  Se11  1  0.19424900  0.20906100  0.46575100  1
loop_
_geom_bond_atom_site_label_1
_geom_bond_atom_site_label_2
_geom_bond_distance
_geom_bond_site_symmetry_2
P0 Se5 2.202391 1_555
P0 Se2 2.208856 1_655
P0 Se9 2.241147 1_555
P0 P2 2.258828 1_655
P1 Se4 2.202391 1_555
P1 Se3 2.208856 1_555
P1 Se8 2.241147 1_554
P1 P3 2.258828 1_554
P2 Se7 2.202391 1_555
P2 Se0 2.208856 1_455
P2 Se11 2.241147 1_555
P3 Se6 2.202391 1_555
P3 Se1 2.208856 1_555
P3 Se10 2.241147 1_556
Se0 Sn0 3.044448 1_555
Se0 Sn1 3.193227 1_645
Se1 Sn1 3.044448 1_555
Se1 Sn0 3.193227 1_565
Se2 Sn2 3.044448 1_555
Se2 Sn3 3.193227 1_465
Se3 Sn3 3.044448 1_555
Se3 Sn2 3.193227 1_545
Se4 Sn2 2.921962 1_555
Se5 Sn3 2.921962 1_555
Se6 Sn0 2.921962 1_555
Se7 Sn1 2.921962 1_555
Se8 Sn2 2.929428 1_546
Se8 Sn0 3.230361 1_555
Se9 Sn3 2.929428 1_565
Se9 Sn1 3.230361 1_655
Se10 Sn0 2.929428 1_564
Se10 Sn2 3.230361 1_555
Se11 Sn1 2.929428 1_545
Se11 Sn3 3.230361 1_455
