# generated using pymatgen
data_Bi14Rh3
_symmetry_space_group_name_H-M   'P 1'
_cell_length_a   18.35657574
_cell_length_b   16.43819856
_cell_length_c   9.52758615
_cell_angle_alpha   85.60101118
_cell_angle_beta   63.23431650
_cell_angle_gamma   31.16467232
_symmetry_Int_Tables_number   1
_chemical_formula_structural   Bi14Rh3
_chemical_formula_sum   'Bi28 Rh6'
_cell_volume   988.52743669
_cell_formula_units_Z   2
loop_
 _symmetry_equiv_pos_site_id
 _symmetry_equiv_pos_as_xyz
  1  'x, y, z'
loop_
 _atom_site_type_symbol
 _atom_site_label
 _atom_site_symmetry_multiplicity
 _atom_site_fract_x
 _atom_site_fract_y
 _atom_site_fract_z
 _atom_site_occupancy
  Bi  Bi0  1  0.08220700  0.81285500  0.79704700  1
  Bi  Bi1  1  0.17254300  0.54397000  0.88852500  1
  Bi  Bi2  1  0.22317500  0.77682500  0.22317500  1
  Bi  Bi3  1  0.94210900  0.45295300  0.43714500  1
  Bi  Bi4  1  0.82043900  0.78566800  0.44412500  1
  Bi  Bi5  1  0.30023300  0.80587500  0.46433200  1
  Bi  Bi6  1  0.79704700  0.30789100  0.08220700  1
  Bi  Bi7  1  0.54397000  0.17254300  0.39496200  1
  Bi  Bi8  1  0.39496200  0.88852500  0.54397000  1
  Bi  Bi9  1  0.94976700  0.44412500  0.78566800  1
  Bi  Bi10  1  0.42956100  0.46433200  0.80587500  1
  Bi  Bi11  1  0.36147500  0.85503800  0.07745700  1
  Bi  Bi12  1  0.16779300  0.43714500  0.45295300  1
  Bi  Bi13  1  0.88852500  0.39496200  0.17254300  1
  Bi  Bi14  1  0.07745700  0.70603000  0.36147500  1
  Bi  Bi15  1  0.80587500  0.30023300  0.42956100  1
  Bi  Bi16  1  0.47317500  0.02682500  0.47317500  1
  Bi  Bi17  1  0.30789100  0.79704700  0.81285500  1
  Bi  Bi18  1  0.46433200  0.42956100  0.30023300  1
  Bi  Bi19  1  0.45295300  0.94210900  0.16779300  1
  Bi  Bi20  1  0.77682500  0.22317500  0.77682500  1
  Bi  Bi21  1  0.43714500  0.16779300  0.94210900  1
  Bi  Bi22  1  0.02682500  0.47317500  0.02682500  1
  Bi  Bi23  1  0.44412500  0.94976700  0.82043900  1
  Bi  Bi24  1  0.78566800  0.82043900  0.94976700  1
  Bi  Bi25  1  0.85503800  0.36147500  0.70603000  1
  Bi  Bi26  1  0.81285500  0.08220700  0.30789100  1
  Bi  Bi27  1  0.70603000  0.07745700  0.85503800  1
  Rh  Rh0  1  0.62500000  0.62500000  0.12500000  1
  Rh  Rh1  1  0.75000000  0.75000000  0.75000000  1
  Rh  Rh2  1  0.62500000  0.12500000  0.62500000  1
  Rh  Rh3  1  0.62500000  0.62500000  0.62500000  1
  Rh  Rh4  1  0.12500000  0.62500000  0.62500000  1
  Rh  Rh5  1  0.50000000  0.50000000  0.50000000  1
loop_
_geom_bond_atom_site_label_1
_geom_bond_atom_site_label_2
_geom_bond_distance
_geom_bond_site_symmetry_2
Bi0 Rh4 2.881871 1_555
Bi0 Rh5 2.908629 1_555
Bi0 Bi18 3.215785 1_555
Bi0 Bi1 3.348592 1_555
Bi0 Bi10 3.373240 1_555
Bi0 Bi26 3.450432 1_466
Bi0 Bi27 3.526830 1_465
Bi0 Bi20 3.608541 1_465
Bi1 Rh4 2.882865 1_555
Bi1 Rh2 2.948981 1_555
Bi1 Bi7 3.187931 1_555
Bi1 Bi10 3.291665 1_555
Bi1 Bi22 3.487552 1_556
Bi1 Bi21 3.526830 1_555
Bi1 Bi24 3.587349 1_455
Bi1 Bi4 3.747695 1_456
Bi2 Bi5 3.429236 1_555
Bi2 Bi20 3.594372 1_465
Bi2 Bi20 3.594372 1_554
Bi2 Bi26 3.608541 1_465
Bi3 Rh3 2.881871 1_555
Bi3 Rh1 2.908629 1_555
Bi3 Bi9 3.373231 1_555
Bi4 Rh1 2.854800 1_555
Bi4 Rh2 2.934901 1_565
Bi4 Bi7 3.587343 1_565
Bi5 Rh5 2.854803 1_555
Bi5 Rh0 2.934889 1_555
Bi5 Bi6 3.215788 1_555
Bi5 Bi8 3.291646 1_555
Bi6 Rh0 2.881871 1_555
Bi6 Rh5 2.908629 1_555
Bi7 Rh2 2.882865 1_555
Bi7 Rh4 2.948981 1_555
Bi8 Rh3 2.882865 1_555
Bi8 Rh0 2.948981 1_555
Bi8 Bi9 3.747692 1_465
Bi9 Rh1 2.854803 1_555
Bi9 Rh0 2.934889 1_556
Bi10 Rh5 2.854800 1_555
Bi10 Rh2 2.934901 1_555
Bi10 Bi26 3.215791 1_555
Bi10 Bi20 3.429221 1_555
Bi10 Bi2 3.578920 1_556
Bi10 Bi27 3.587343 1_555
Bi10 Bi14 3.747695 1_556
Bi11 Rh0 2.882865 1_555
Bi11 Rh3 2.948981 1_554
Bi11 Bi25 3.187931 1_554
Bi11 Bi23 3.291651 1_554
Bi11 Bi19 3.348592 1_555
Bi11 Bi2 3.487552 1_555
Bi11 Bi17 3.526830 1_554
Bi11 Bi5 3.587342 1_555
Bi11 Bi15 3.747690 1_465
Bi12 Rh4 2.881871 1_555
Bi12 Rh1 2.908629 1_455
Bi12 Bi24 3.215785 1_455
Bi12 Bi14 3.348592 1_555
Bi12 Bi4 3.373240 1_455
Bi12 Bi21 3.450432 1_554
Bi12 Bi7 3.526830 1_555
Bi12 Bi16 3.608541 1_555
Bi13 Rh0 2.882865 1_555
Bi13 Rh3 2.948981 1_555
Bi13 Bi8 3.187931 1_555
Bi13 Bi15 3.291651 1_555
Bi13 Bi6 3.348592 1_555
Bi13 Bi22 3.487552 1_655
Bi13 Bi3 3.526830 1_555
Bi13 Bi9 3.587342 1_554
Bi13 Bi23 3.747690 1_644
Bi14 Rh4 2.882865 1_555
Bi14 Rh2 2.948981 1_465
Bi14 Bi27 3.187931 1_465
Bi14 Bi4 3.291665 1_455
Bi14 Bi2 3.487552 1_555
Bi14 Bi26 3.526830 1_465
Bi14 Bi18 3.587349 1_555
Bi15 Rh5 2.854808 1_555
Bi15 Rh3 2.934886 1_555
Bi15 Bi17 3.215788 1_555
Bi15 Bi6 3.373241 1_555
Bi15 Bi20 3.429228 1_555
Bi15 Bi2 3.578930 1_645
Bi15 Bi25 3.587334 1_555
Bi16 Bi4 3.429221 1_545
Bi16 Bi23 3.429228 1_545
Bi16 Bi8 3.487552 1_545
Bi16 Bi7 3.487552 1_555
Bi16 Bi24 3.578927 1_544
Bi16 Bi9 3.578932 1_455
Bi16 Bi22 3.594372 1_645
Bi16 Bi22 3.594372 1_556
Bi16 Bi19 3.608541 1_545
Bi17 Rh3 2.881871 1_555
Bi17 Rh5 2.908629 1_555
Bi17 Bi8 3.348592 1_555
Bi17 Bi5 3.373231 1_555
Bi17 Bi6 3.450432 1_466
Bi17 Bi2 3.608541 1_556
Bi18 Rh5 2.854792 1_555
Bi18 Rh4 2.934899 1_555
Bi18 Bi7 3.291661 1_555
Bi18 Bi26 3.373233 1_555
Bi18 Bi2 3.429227 1_555
Bi18 Bi20 3.578927 1_554
Bi18 Bi27 3.747702 1_554
Bi19 Rh0 2.881871 1_555
Bi19 Rh1 2.908629 1_554
Bi19 Bi9 3.215788 1_554
Bi19 Bi23 3.373241 1_554
Bi19 Bi3 3.450432 1_465
Bi19 Bi8 3.526830 1_555
Bi20 Bi27 3.487552 1_555
Bi20 Bi25 3.487552 1_555
Bi20 Bi5 3.578932 1_645
Bi20 Bi6 3.608541 1_556
Bi21 Rh2 2.881871 1_555
Bi21 Rh1 2.908629 1_545
Bi21 Bi4 3.215791 1_545
Bi21 Bi27 3.348592 1_555
Bi21 Bi24 3.373233 1_545
Bi21 Bi22 3.608541 1_556
Bi22 Bi24 3.429227 1_454
Bi22 Bi9 3.429236 1_454
Bi22 Bi4 3.578920 1_455
Bi22 Bi23 3.578930 1_544
Bi22 Bi3 3.608541 1_455
Bi23 Rh1 2.854808 1_555
Bi23 Rh3 2.934886 1_555
Bi23 Bi3 3.215788 1_555
Bi23 Bi8 3.587334 1_555
Bi24 Rh1 2.854792 1_555
Bi24 Rh4 2.934899 1_655
Bi24 Bi27 3.291661 1_565
Bi24 Bi7 3.747702 1_566
Bi25 Rh3 2.882865 1_555
Bi25 Rh0 2.948981 1_556
Bi25 Bi9 3.291646 1_555
Bi25 Bi3 3.348592 1_555
Bi25 Bi6 3.526830 1_556
Bi25 Bi5 3.747692 1_645
Bi26 Rh2 2.881871 1_555
Bi26 Rh5 2.908629 1_555
Bi26 Bi7 3.348592 1_555
Bi27 Rh2 2.882865 1_555
Bi27 Rh4 2.948981 1_645
