# generated using pymatgen
data_CoAsS
_symmetry_space_group_name_H-M   'P 1'
_cell_length_a   3.46736309
_cell_length_b   4.57897892
_cell_length_c   5.54546714
_cell_angle_alpha   90.00000000
_cell_angle_beta   90.00000000
_cell_angle_gamma   90.00003797
_symmetry_Int_Tables_number   1
_chemical_formula_structural   CoAsS
_chemical_formula_sum   'Co2 As2 S2'
_cell_volume   88.04528468
_cell_formula_units_Z   2
loop_
 _symmetry_equiv_pos_site_id
 _symmetry_equiv_pos_as_xyz
  1  'x, y, z'
loop_
 _atom_site_type_symbol
 _atom_site_label
 _atom_site_symmetry_multiplicity
 _atom_site_fract_x
 _atom_site_fract_y
 _atom_site_fract_z
 _atom_site_occupancy
  Co  Co0  1  0.75000241  0.73870532  0.49741142  1
  Co  Co1  1  0.24999759  0.26129468  0.99741142  1
  As  As0  1  0.25000367  0.04101635  0.37309786  1
  As  As1  1  0.74999633  0.95898365  0.87309886  1
  S  S0  1  0.74999929  0.55121697  0.12333973  1
  S  S1  1  0.25000071  0.44878303  0.62333973  1
loop_
_geom_bond_atom_site_label_1
_geom_bond_atom_site_label_2
_geom_bond_distance
_geom_bond_site_symmetry_2
Co0 S0 2.245034 1_555
Co0 S1 2.292528 1_655
Co0 S1 2.292536 1_555
Co1 S1 2.245034 1_555
Co1 S0 2.292528 1_456
Co1 S0 2.292536 1_556
As0 Co1 2.314681 1_554
As0 Co0 2.323166 1_545
As0 Co0 2.323171 1_445
As0 S1 2.326371 1_555
As1 Co0 2.314686 1_555
As1 Co1 2.323164 1_565
As1 Co1 2.323169 1_665
As1 S0 2.326368 1_556
