# generated using pymatgen
data_BiSe
_symmetry_space_group_name_H-M   'P 1'
_cell_length_a   13.04754460
_cell_length_b   13.04754460
_cell_length_c   13.04754460
_cell_angle_alpha   161.31842212
_cell_angle_beta   161.31842212
_cell_angle_gamma   26.53948834
_symmetry_Int_Tables_number   1
_chemical_formula_structural   BiSe
_chemical_formula_sum   'Bi2 Se2'
_cell_volume   227.80542645
_cell_formula_units_Z   2
loop_
 _symmetry_equiv_pos_site_id
 _symmetry_equiv_pos_as_xyz
  1  'x, y, z'
loop_
 _atom_site_type_symbol
 _atom_site_label
 _atom_site_symmetry_multiplicity
 _atom_site_fract_x
 _atom_site_fract_y
 _atom_site_fract_z
 _atom_site_occupancy
  Bi  Bi0  1  0.68409000  0.68409000  0.00000000  1
  Bi  Bi1  1  0.31591000  0.31591000  0.00000000  1
  Se  Se0  1  0.80039200  0.80039200  0.00000000  1
  Se  Se1  1  0.19960800  0.19960800  0.00000000  1
loop_
_geom_bond_atom_site_label_1
_geom_bond_atom_site_label_2
_geom_bond_distance
_geom_bond_site_symmetry_2
Bi0 Se0 2.953880 1_555
Bi0 Se1 3.020702 1_565
Bi0 Se1 3.020702 1_655
Bi0 Se1 3.020702 1_666
Bi0 Se1 3.020702 1_554
Bi1 Se1 2.953880 1_555
Bi1 Se0 3.020702 1_545
Bi1 Se0 3.020702 1_556
Bi1 Se0 3.020702 1_444
Bi1 Se0 3.020702 1_455
