# generated using pymatgen
data_BaEr2CuO5
_symmetry_space_group_name_H-M   'P 1'
_cell_length_a   5.67193300
_cell_length_b   7.18346000
_cell_length_c   12.18342200
_cell_angle_alpha   90.00000000
_cell_angle_beta   90.00000000
_cell_angle_gamma   90.00000000
_symmetry_Int_Tables_number   1
_chemical_formula_structural   BaEr2CuO5
_chemical_formula_sum   'Ba4 Er8 Cu4 O20'
_cell_volume   496.40261095
_cell_formula_units_Z   4
loop_
 _symmetry_equiv_pos_site_id
 _symmetry_equiv_pos_as_xyz
  1  'x, y, z'
loop_
 _atom_site_type_symbol
 _atom_site_label
 _atom_site_symmetry_multiplicity
 _atom_site_fract_x
 _atom_site_fract_y
 _atom_site_fract_z
 _atom_site_occupancy
  Ba  Ba0  1  0.25000000  0.93305700  0.90353700  1
  Ba  Ba1  1  0.75000000  0.06694300  0.09646300  1
  Ba  Ba2  1  0.75000000  0.43305700  0.59646300  1
  Ba  Ba3  1  0.25000000  0.56694300  0.40353700  1
  Er  Er0  1  0.25000000  0.11130600  0.28674500  1
  Er  Er1  1  0.75000000  0.88869400  0.71325500  1
  Er  Er2  1  0.75000000  0.61130600  0.21325500  1
  Er  Er3  1  0.25000000  0.38869400  0.78674500  1
  Er  Er4  1  0.25000000  0.39590500  0.07369800  1
  Er  Er5  1  0.75000000  0.60409500  0.92630200  1
  Er  Er6  1  0.75000000  0.89590500  0.42630200  1
  Er  Er7  1  0.25000000  0.10409500  0.57369800  1
  Cu  Cu0  1  0.25000000  0.71997700  0.66090000  1
  Cu  Cu1  1  0.75000000  0.28002300  0.33910000  1
  Cu  Cu2  1  0.75000000  0.21997700  0.83910000  1
  Cu  Cu3  1  0.25000000  0.78002300  0.16090000  1
  O  O0  1  0.99589300  0.15895700  0.43146300  1
  O  O1  1  0.49589300  0.84104300  0.56853700  1
  O  O2  1  0.00410700  0.65895700  0.06853700  1
  O  O3  1  0.50410700  0.34104300  0.93146300  1
  O  O4  1  0.00410700  0.84104300  0.56853700  1
  O  O5  1  0.50410700  0.15895700  0.43146300  1
  O  O6  1  0.99589300  0.34104300  0.93146300  1
  O  O7  1  0.49589300  0.65895700  0.06853700  1
  O  O8  1  0.50288700  0.35466000  0.22775300  1
  O  O9  1  0.00288700  0.64534000  0.77224700  1
  O  O10  1  0.49711300  0.85466000  0.27224700  1
  O  O11  1  0.99711300  0.14534000  0.72775300  1
  O  O12  1  0.49711300  0.64534000  0.77224700  1
  O  O13  1  0.99711300  0.35466000  0.22775300  1
  O  O14  1  0.50288700  0.14534000  0.72775300  1
  O  O15  1  0.00288700  0.85466000  0.27224700  1
  O  O16  1  0.25000000  0.08477700  0.10022700  1
  O  O17  1  0.75000000  0.91522300  0.89977300  1
  O  O18  1  0.75000000  0.58477700  0.39977300  1
  O  O19  1  0.25000000  0.41522300  0.60022700  1
loop_
_geom_bond_atom_site_label_1
_geom_bond_atom_site_label_2
_geom_bond_distance
_geom_bond_site_symmetry_2
Ba0 O16 2.632557 1_566
Ba0 O17 2.839229 1_555
Ba0 O17 2.839229 1_455
Ba0 O12 2.965599 1_555
Ba0 O9 2.965599 1_555
Ba0 O14 2.994904 1_565
Ba0 O11 2.994904 1_465
Ba0 O7 3.140578 1_556
Ba0 O2 3.140578 1_556
Ba0 O3 3.283648 1_565
Ba0 O6 3.283648 1_465
Ba1 O17 2.632557 1_544
Ba1 O16 2.839229 1_555
Ba1 O16 2.839229 1_655
Ba1 O13 2.965599 1_555
Ba1 O8 2.965599 1_555
Ba1 O15 2.994904 1_645
Ba1 O10 2.994904 1_545
Ba1 O6 3.140578 1_554
Ba1 O3 3.140578 1_554
Ba1 O2 3.283648 1_645
Ba1 O7 3.283648 1_545
Ba2 O18 2.632557 1_555
Ba2 O19 2.839229 1_655
Ba2 O19 2.839229 1_555
Ba2 O11 2.965599 1_555
Ba2 O14 2.965599 1_555
Ba2 O9 2.994904 1_655
Ba2 O12 2.994904 1_555
Ba2 O0 3.140578 1_555
Ba2 O5 3.140578 1_555
Ba2 O4 3.283648 1_655
Ba2 O1 3.283648 1_555
Ba3 O19 2.632557 1_555
Ba3 O18 2.839229 1_455
Ba3 O18 2.839229 1_555
Ba3 O10 2.965599 1_555
Ba3 O15 2.965599 1_555
Ba3 O8 2.994904 1_555
Ba3 O13 2.994904 1_455
Ba3 O1 3.140578 1_555
Ba3 O4 3.140578 1_555
Ba3 O5 3.283648 1_555
Ba3 O0 3.283648 1_455
Er0 O16 2.280404 1_555
Er0 O5 2.302865 1_555
Er0 O0 2.302865 1_455
Er0 O10 2.322626 1_545
Er0 O15 2.322626 1_545
Er0 O8 2.372738 1_555
Er0 O13 2.372738 1_455
Er1 O17 2.280404 1_555
Er1 O4 2.302865 1_655
Er1 O1 2.302865 1_555
Er1 O11 2.322626 1_565
Er1 O14 2.322626 1_565
Er1 O9 2.372738 1_655
Er1 O12 2.372738 1_555
Er2 O18 2.280404 1_555
Er2 O2 2.302865 1_655
Er2 O7 2.302865 1_555
Er2 O13 2.322626 1_555
Er2 O8 2.322626 1_555
Er2 O15 2.372738 1_655
Er2 O10 2.372738 1_555
Er3 O19 2.280404 1_555
Er3 O3 2.302865 1_555
Er3 O6 2.302865 1_455
Er3 O12 2.322626 1_555
Er3 O9 2.322626 1_555
Er3 O14 2.372738 1_555
Er3 O11 2.372738 1_455
Er4 O16 2.258226 1_555
Er4 O3 2.288137 1_554
Er4 O6 2.288137 1_454
Er4 O7 2.349423 1_555
Er4 O2 2.349423 1_555
Er4 O8 2.380753 1_555
Er4 O13 2.380753 1_455
Er5 O17 2.258226 1_555
Er5 O2 2.288137 1_656
Er5 O7 2.288137 1_556
Er5 O6 2.349423 1_555
Er5 O3 2.349423 1_555
Er5 O9 2.380753 1_655
Er5 O12 2.380753 1_555
Er6 O18 2.258226 1_555
Er6 O4 2.288137 1_655
Er6 O1 2.288137 1_555
Er6 O0 2.349423 1_565
Er6 O5 2.349423 1_565
Er6 O15 2.380753 1_655
Er6 O10 2.380753 1_555
Er7 O19 2.258226 1_555
Er7 O5 2.288137 1_555
Er7 O0 2.288137 1_455
Er7 O1 2.349423 1_545
Er7 O4 2.349423 1_545
Er7 O14 2.380753 1_555
Er7 O11 2.380753 1_455
Cu0 O1 1.991929 1_555
Cu0 O4 1.991929 1_555
Cu0 O12 2.022942 1_555
Cu0 O9 2.022942 1_555
Cu0 O19 2.310621 1_555
Cu1 O0 1.991929 1_555
Cu1 O5 1.991929 1_555
Cu1 O13 2.022942 1_555
Cu1 O8 2.022942 1_555
Cu1 O18 2.310621 1_555
Cu2 O6 1.991929 1_555
Cu2 O3 1.991929 1_555
Cu2 O11 2.022942 1_555
Cu2 O14 2.022942 1_555
Cu2 O17 2.310621 1_545
Cu3 O7 1.991929 1_555
Cu3 O2 1.991929 1_555
Cu3 O10 2.022942 1_555
Cu3 O15 2.022942 1_555
Cu3 O16 2.310621 1_565
