# generated using pymatgen
data_Ca3Si(ClO2)2
_symmetry_space_group_name_H-M   'P 1'
_cell_length_a   6.82247300
_cell_length_b   9.92637000
_cell_length_c   10.93581729
_cell_angle_alpha   74.26319590
_cell_angle_beta   90.00000000
_cell_angle_gamma   90.00000000
_symmetry_Int_Tables_number   1
_chemical_formula_structural   Ca3Si(ClO2)2
_chemical_formula_sum   'Ca12 Si4 Cl8 O16'
_cell_volume   712.84033772
_cell_formula_units_Z   4
loop_
 _symmetry_equiv_pos_site_id
 _symmetry_equiv_pos_as_xyz
  1  'x, y, z'
loop_
 _atom_site_type_symbol
 _atom_site_label
 _atom_site_symmetry_multiplicity
 _atom_site_fract_x
 _atom_site_fract_y
 _atom_site_fract_z
 _atom_site_occupancy
  Ca  Ca0  1  0.25874700  0.19727000  0.95417000  1
  Ca  Ca1  1  0.75874700  0.80273000  0.54583000  1
  Ca  Ca2  1  0.74125300  0.80273000  0.04583000  1
  Ca  Ca3  1  0.24125300  0.19727000  0.45417000  1
  Ca  Ca4  1  0.53880400  0.07873300  0.72821200  1
  Ca  Ca5  1  0.03880400  0.92126700  0.77178800  1
  Ca  Ca6  1  0.46119600  0.92126700  0.27178800  1
  Ca  Ca7  1  0.96119600  0.07873300  0.22821200  1
  Ca  Ca8  1  0.78339800  0.42490400  0.88898200  1
  Ca  Ca9  1  0.28339800  0.57509600  0.61101800  1
  Ca  Ca10  1  0.21660200  0.57509600  0.11101800  1
  Ca  Ca11  1  0.71660200  0.42490400  0.38898200  1
  Si  Si0  1  0.75026700  0.11870000  0.97020800  1
  Si  Si1  1  0.25026700  0.88130000  0.52979200  1
  Si  Si2  1  0.24973300  0.88130000  0.02979200  1
  Si  Si3  1  0.74973300  0.11870000  0.47020800  1
  Cl  Cl0  1  0.20115200  0.50799300  0.87532000  1
  Cl  Cl1  1  0.70115200  0.49200700  0.62468000  1
  Cl  Cl2  1  0.79884800  0.49200700  0.12468000  1
  Cl  Cl3  1  0.29884800  0.50799300  0.37532000  1
  Cl  Cl4  1  0.18217200  0.28615000  0.68113400  1
  Cl  Cl5  1  0.68217200  0.71385000  0.81886600  1
  Cl  Cl6  1  0.81782800  0.71385000  0.31886600  1
  Cl  Cl7  1  0.31782800  0.28615000  0.18113400  1
  O  O0  1  0.58318800  0.23310900  0.89640300  1
  O  O1  1  0.08318800  0.76689100  0.60359700  1
  O  O2  1  0.41681200  0.76689100  0.10359700  1
  O  O3  1  0.91681200  0.23310900  0.39640300  1
  O  O4  1  0.93140500  0.21943100  0.99441600  1
  O  O5  1  0.43140500  0.78056900  0.50558400  1
  O  O6  1  0.06859500  0.78056900  0.00558400  1
  O  O7  1  0.56859500  0.21943100  0.49441600  1
  O  O8  1  0.79808600  0.01518100  0.87919600  1
  O  O9  1  0.29808600  0.98481900  0.62080400  1
  O  O10  1  0.20191400  0.98481900  0.12080400  1
  O  O11  1  0.70191400  0.01518100  0.37919600  1
  O  O12  1  0.80728700  0.01357500  0.60996500  1
  O  O13  1  0.30728700  0.98642500  0.89003500  1
  O  O14  1  0.19271300  0.98642500  0.39003500  1
  O  O15  1  0.69271300  0.01357500  0.10996500  1
loop_
_geom_bond_atom_site_label_1
_geom_bond_atom_site_label_2
_geom_bond_distance
_geom_bond_site_symmetry_2
Ca0 O4 2.298296 1_455
Ca0 O0 2.302883 1_555
Ca0 O13 2.403783 1_545
Ca0 O10 2.415328 1_546
Ca0 Cl7 2.879094 1_556
Ca0 Cl4 2.921951 1_555
Ca0 Cl0 2.994745 1_555
Ca1 O5 2.298296 1_555
Ca1 O1 2.302883 1_655
Ca1 O12 2.403783 1_565
Ca1 O11 2.415328 1_565
Ca1 Cl6 2.879094 1_555
Ca1 Cl5 2.921951 1_555
Ca1 Cl1 2.994745 1_555
Ca2 O6 2.298296 1_655
Ca2 O2 2.302883 1_555
Ca2 O15 2.403783 1_565
Ca2 O8 2.415328 1_564
Ca2 Cl5 2.879094 1_554
Ca2 Cl6 2.921951 1_555
Ca2 Cl2 2.994745 1_555
Ca3 O7 2.298296 1_555
Ca3 O3 2.302883 1_455
Ca3 O14 2.403783 1_545
Ca3 O9 2.415328 1_545
Ca3 Cl4 2.879094 1_555
Ca3 Cl7 2.921951 1_555
Ca3 Cl3 2.994745 1_555
Ca4 O9 2.353678 1_545
Ca4 O13 2.363600 1_545
Ca4 O8 2.385029 1_555
Ca4 O12 2.428863 1_555
Ca4 O7 2.567468 1_555
Ca4 O0 2.711430 1_555
Ca4 Cl4 3.138339 1_555
Ca5 O8 2.353678 1_465
Ca5 O12 2.363600 1_465
Ca5 O9 2.385029 1_555
Ca5 O13 2.428863 1_555
Ca5 O6 2.567468 1_556
Ca5 O1 2.711430 1_555
Ca5 Cl5 3.138339 1_455
Ca6 O11 2.353678 1_565
Ca6 O15 2.363600 1_565
Ca6 O10 2.385029 1_555
Ca6 O14 2.428863 1_555
Ca6 O5 2.567468 1_555
Ca6 O2 2.711430 1_555
Ca6 Cl6 3.138339 1_555
Ca7 O10 2.353678 1_645
Ca7 O14 2.363600 1_645
Ca7 O11 2.385029 1_555
Ca7 O15 2.428863 1_555
Ca7 O4 2.567468 1_554
Ca7 O3 2.711430 1_555
Ca7 Cl7 3.138339 1_655
Ca8 O4 2.287663 1_555
Ca8 O0 2.326606 1_555
Ca8 Cl2 2.833699 1_556
Ca8 Cl1 2.840490 1_555
Ca8 Cl5 2.845772 1_555
Ca8 Cl0 2.959542 1_655
Ca9 O5 2.287663 1_555
Ca9 O1 2.326606 1_555
Ca9 Cl3 2.833699 1_555
Ca9 Cl0 2.840490 1_555
Ca9 Cl4 2.845772 1_555
Ca9 Cl1 2.959542 1_555
Ca10 O6 2.287663 1_555
Ca10 O2 2.326606 1_555
Ca10 Cl0 2.833699 1_554
Ca10 Cl3 2.840490 1_555
Ca10 Cl7 2.845772 1_555
Ca10 Cl2 2.959542 1_455
Ca11 O7 2.287663 1_555
Ca11 O3 2.326606 1_555
Ca11 Cl1 2.833699 1_555
Ca11 Cl2 2.840490 1_555
Ca11 Cl6 2.845772 1_555
Ca11 Cl3 2.959542 1_555
O0 Si0 1.656298 1_555
O1 Si1 1.656298 1_555
O2 Si2 1.656298 1_555
O3 Si3 1.656298 1_555
O4 Si0 1.655500 1_555
O5 Si1 1.655500 1_555
O6 Si2 1.655500 1_555
O7 Si3 1.655500 1_555
O8 Si0 1.645509 1_555
O9 Si1 1.645509 1_555
O10 Si2 1.645509 1_555
O11 Si3 1.645509 1_555
O12 Si3 1.647380 1_555
O13 Si2 1.647380 1_556
O14 Si1 1.647380 1_555
O15 Si0 1.647380 1_554
