# generated using pymatgen
data_GdZnPO
_symmetry_space_group_name_H-M   'P 1'
_cell_length_a   10.46709707
_cell_length_b   10.46709707
_cell_length_c   10.46709712
_cell_angle_alpha   21.67139654
_cell_angle_beta   21.67139654
_cell_angle_gamma   21.67139585
_symmetry_Int_Tables_number   1
_chemical_formula_structural   GdZnPO
_chemical_formula_sum   'Gd2 Zn2 P2 O2'
_cell_volume   137.04801369
_cell_formula_units_Z   2
loop_
 _symmetry_equiv_pos_site_id
 _symmetry_equiv_pos_as_xyz
  1  'x, y, z'
loop_
 _atom_site_type_symbol
 _atom_site_label
 _atom_site_symmetry_multiplicity
 _atom_site_fract_x
 _atom_site_fract_y
 _atom_site_fract_z
 _atom_site_occupancy
  Gd  Gd0  1  0.61961800  0.61961800  0.61961800  1
  Gd  Gd1  1  0.38038200  0.38038200  0.38038200  1
  Zn  Zn0  1  0.19627800  0.19627800  0.19627800  1
  Zn  Zn1  1  0.80372200  0.80372200  0.80372200  1
  P  P0  1  0.88751600  0.88751600  0.88751600  1
  P  P1  1  0.11248400  0.11248400  0.11248400  1
  O  O0  1  0.30529200  0.30529200  0.30529200  1
  O  O1  1  0.69470800  0.69470800  0.69470800  1
loop_
_geom_bond_atom_site_label_1
_geom_bond_atom_site_label_2
_geom_bond_distance
_geom_bond_site_symmetry_2
Gd0 O1 2.301698 1_555
Gd0 O0 2.345664 1_655
Gd0 O0 2.345664 1_565
Gd0 O0 2.345664 1_556
Gd0 P0 3.030801 1_545
Gd0 P0 3.030801 1_455
Gd0 P0 3.030801 1_554
Gd1 O0 2.301698 1_555
Gd1 O1 2.345664 1_455
Gd1 O1 2.345664 1_545
Gd1 O1 2.345664 1_554
Gd1 P1 3.030801 1_565
Gd1 P1 3.030801 1_655
Gd1 P1 3.030801 1_556
P0 Zn0 2.393733 1_566
P0 Zn0 2.393733 1_656
P0 Zn0 2.393733 1_665
P0 Zn1 2.568497 1_555
P1 Zn1 2.393733 1_454
P1 Zn1 2.393733 1_544
P1 Zn1 2.393733 1_445
P1 Zn0 2.568497 1_555
