# generated using pymatgen
data_Ca2Si5N8
_symmetry_space_group_name_H-M   'P 1'
_cell_length_a   9.71054000
_cell_length_b   10.66060500
_cell_length_c   13.69600400
_cell_angle_alpha   90.00000000
_cell_angle_beta   90.00000000
_cell_angle_gamma   90.00000000
_symmetry_Int_Tables_number   1
_chemical_formula_structural   Ca2Si5N8
_chemical_formula_sum   'Ca16 Si40 N64'
_cell_volume   1417.81350165
_cell_formula_units_Z   8
loop_
 _symmetry_equiv_pos_site_id
 _symmetry_equiv_pos_as_xyz
  1  'x, y, z'
loop_
 _atom_site_type_symbol
 _atom_site_label
 _atom_site_symmetry_multiplicity
 _atom_site_fract_x
 _atom_site_fract_y
 _atom_site_fract_z
 _atom_site_occupancy
  Ca  Ca0  1  0.34451500  0.11355400  0.51497700  1
  Ca  Ca1  1  0.55937200  0.11424300  0.90272400  1
  Ca  Ca2  1  0.05937200  0.88575700  0.59727600  1
  Ca  Ca3  1  0.65548500  0.38644600  0.01497700  1
  Ca  Ca4  1  0.94062800  0.61424300  0.09727600  1
  Ca  Ca5  1  0.55937200  0.61424300  0.59727600  1
  Ca  Ca6  1  0.15548500  0.61355400  0.48502300  1
  Ca  Ca7  1  0.84451500  0.38644600  0.51497700  1
  Ca  Ca8  1  0.15548500  0.11355400  0.01497700  1
  Ca  Ca9  1  0.94062800  0.11424300  0.40272400  1
  Ca  Ca10  1  0.34451500  0.61355400  0.98502300  1
  Ca  Ca11  1  0.84451500  0.88644600  0.98502300  1
  Ca  Ca12  1  0.65548500  0.88644600  0.48502300  1
  Ca  Ca13  1  0.44062800  0.88575700  0.09727600  1
  Ca  Ca14  1  0.05937200  0.38575700  0.90272400  1
  Ca  Ca15  1  0.44062800  0.38575700  0.40272400  1
  Si  Si0  1  0.00394900  0.02076800  0.79124800  1
  Si  Si1  1  0.50394900  0.47923200  0.79124800  1
  Si  Si2  1  0.65150900  0.67000600  0.04068800  1
  Si  Si3  1  0.46520900  0.74381300  0.34439400  1
  Si  Si4  1  0.34849100  0.32999400  0.95931200  1
  Si  Si5  1  0.27526800  0.39896600  0.65059500  1
  Si  Si6  1  0.72825300  0.33548200  0.27433300  1
  Si  Si7  1  0.99605100  0.47923200  0.29124800  1
  Si  Si8  1  0.00394900  0.52076800  0.70875200  1
  Si  Si9  1  0.96520900  0.25618700  0.15560600  1
  Si  Si10  1  0.50394900  0.97923200  0.70875200  1
  Si  Si11  1  0.96520900  0.75618700  0.34439400  1
  Si  Si12  1  0.49605100  0.02076800  0.29124800  1
  Si  Si13  1  0.72473200  0.60103400  0.34940500  1
  Si  Si14  1  0.34849100  0.82999400  0.54068800  1
  Si  Si15  1  0.65150900  0.17000600  0.45931200  1
  Si  Si16  1  0.27174700  0.16451800  0.77433300  1
  Si  Si17  1  0.77526800  0.60103400  0.84940500  1
  Si  Si18  1  0.72825300  0.83548200  0.22566700  1
  Si  Si19  1  0.22473200  0.39896600  0.15059500  1
  Si  Si20  1  0.15150900  0.32999400  0.45931200  1
  Si  Si21  1  0.77174700  0.33548200  0.77433300  1
  Si  Si22  1  0.22473200  0.89896600  0.34940500  1
  Si  Si23  1  0.27174700  0.66451800  0.72566700  1
  Si  Si24  1  0.46520900  0.24381300  0.15560600  1
  Si  Si25  1  0.77174700  0.83548200  0.72566700  1
  Si  Si26  1  0.84849100  0.17000600  0.95931200  1
  Si  Si27  1  0.84849100  0.67000600  0.54068800  1
  Si  Si28  1  0.03479100  0.74381300  0.84439400  1
  Si  Si29  1  0.27526800  0.89896600  0.84940500  1
  Si  Si30  1  0.15150900  0.82999400  0.04068800  1
  Si  Si31  1  0.22825300  0.66451800  0.22566700  1
  Si  Si32  1  0.53479100  0.25618700  0.65560600  1
  Si  Si33  1  0.77526800  0.10103400  0.65059500  1
  Si  Si34  1  0.22825300  0.16451800  0.27433300  1
  Si  Si35  1  0.72473200  0.10103400  0.15059500  1
  Si  Si36  1  0.49605100  0.52076800  0.20875200  1
  Si  Si37  1  0.53479100  0.75618700  0.84439400  1
  Si  Si38  1  0.99605100  0.97923200  0.20875200  1
  Si  Si39  1  0.03479100  0.24381300  0.65560600  1
  N  N0  1  0.04221600  0.93244100  0.09745000  1
  N  N1  1  0.24898600  0.73924800  0.61809500  1
  N  N2  1  0.05639000  0.22967800  0.53317600  1
  N  N3  1  0.60734500  0.11618200  0.70208200  1
  N  N4  1  0.77006300  0.57936800  0.97267700  1
  N  N5  1  0.39265500  0.38381800  0.20208200  1
  N  N6  1  0.85667500  0.74597700  0.81711500  1
  N  N7  1  0.38879800  0.62124200  0.27778000  1
  N  N8  1  0.72993700  0.07936800  0.02732300  1
  N  N9  1  0.75101400  0.26075200  0.38190500  1
  N  N10  1  0.04221600  0.43244100  0.40255000  1
  N  N11  1  0.38879800  0.12124200  0.22222000  1
  N  N12  1  0.95778400  0.06755900  0.90255000  1
  N  N13  1  0.14332500  0.75402300  0.31711500  1
  N  N14  1  0.10734500  0.38381800  0.70208200  1
  N  N15  1  0.88879800  0.87875800  0.27778000  1
  N  N16  1  0.54221600  0.06755900  0.40255000  1
  N  N17  1  0.75101400  0.76075200  0.11809500  1
  N  N18  1  0.54221600  0.56755900  0.09745000  1
  N  N19  1  0.14332500  0.25402300  0.18288500  1
  N  N20  1  0.22993700  0.92063200  0.47267700  1
  N  N21  1  0.55639000  0.77032200  0.96682400  1
  N  N22  1  0.39265500  0.88381800  0.29791800  1
  N  N23  1  0.36781500  0.02209500  0.79049000  1
  N  N24  1  0.89265500  0.61618200  0.29791800  1
  N  N25  1  0.94361000  0.27032200  0.03317600  1
  N  N26  1  0.94361000  0.77032200  0.46682400  1
  N  N27  1  0.44361000  0.22967800  0.03317600  1
  N  N28  1  0.45778400  0.43244100  0.90255000  1
  N  N29  1  0.22993700  0.42063200  0.02732300  1
  N  N30  1  0.05639000  0.72967800  0.96682400  1
  N  N31  1  0.27006300  0.92063200  0.97267700  1
  N  N32  1  0.85667500  0.24597700  0.68288500  1
  N  N33  1  0.44361000  0.72967800  0.46682400  1
  N  N34  1  0.55639000  0.27032200  0.53317600  1
  N  N35  1  0.61120200  0.37875800  0.72222000  1
  N  N36  1  0.36781500  0.52209500  0.70951000  1
  N  N37  1  0.77006300  0.07936800  0.52732300  1
  N  N38  1  0.13218500  0.02209500  0.29049000  1
  N  N39  1  0.88879800  0.37875800  0.22222000  1
  N  N40  1  0.35667500  0.75402300  0.81711500  1
  N  N41  1  0.61120200  0.87875800  0.77778000  1
  N  N42  1  0.64332500  0.24597700  0.18288500  1
  N  N43  1  0.63218500  0.97790500  0.20951000  1
  N  N44  1  0.74898600  0.26075200  0.88190500  1
  N  N45  1  0.72993700  0.57936800  0.47267700  1
  N  N46  1  0.86781500  0.97790500  0.70951000  1
  N  N47  1  0.25101400  0.23924800  0.38190500  1
  N  N48  1  0.45778400  0.93244100  0.59745000  1
  N  N49  1  0.11120200  0.12124200  0.72222000  1
  N  N50  1  0.27006300  0.42063200  0.52732300  1
  N  N51  1  0.35667500  0.25402300  0.68288500  1
  N  N52  1  0.63218500  0.47790500  0.29049000  1
  N  N53  1  0.24898600  0.23924800  0.88190500  1
  N  N54  1  0.60734500  0.61618200  0.79791800  1
  N  N55  1  0.86781500  0.47790500  0.79049000  1
  N  N56  1  0.13218500  0.52209500  0.20951000  1
  N  N57  1  0.25101400  0.73924800  0.11809500  1
  N  N58  1  0.64332500  0.74597700  0.31711500  1
  N  N59  1  0.11120200  0.62124200  0.77778000  1
  N  N60  1  0.10734500  0.88381800  0.79791800  1
  N  N61  1  0.89265500  0.11618200  0.20208200  1
  N  N62  1  0.95778400  0.56755900  0.59745000  1
  N  N63  1  0.74898600  0.76075200  0.61809500  1
loop_
_geom_bond_atom_site_label_1
_geom_bond_atom_site_label_2
_geom_bond_distance
_geom_bond_site_symmetry_2
Ca0 N20 2.409029 1_545
Ca0 N47 2.437540 1_555
Ca0 N48 2.492701 1_545
Ca0 N16 2.509379 1_555
Ca0 N34 2.662359 1_555
Ca0 N51 2.746794 1_555
Ca1 N8 2.407001 1_556
Ca1 N44 2.431249 1_555
Ca1 N27 2.443402 1_556
Ca1 N23 2.605365 1_555
Ca1 N3 2.787276 1_555
Ca1 N41 3.079578 1_545
Ca2 N20 2.407001 1_555
Ca2 N1 2.431249 1_555
Ca2 N26 2.443402 1_455
Ca2 N46 2.605365 1_455
Ca2 N60 2.787276 1_555
Ca2 N49 3.079578 1_565
Ca3 N4 2.409029 1_554
Ca3 N44 2.437540 1_554
Ca3 N18 2.492701 1_555
Ca3 N28 2.509379 1_554
Ca3 N27 2.662359 1_555
Ca3 N42 2.746794 1_555
Ca4 N4 2.407001 1_554
Ca4 N17 2.431249 1_555
Ca4 N30 2.443402 1_654
Ca4 N56 2.605365 1_655
Ca4 N24 2.787276 1_555
Ca4 N39 3.079578 1_555
Ca5 N45 2.407001 1_555
Ca5 N63 2.431249 1_555
Ca5 N33 2.443402 1_555
Ca5 N36 2.605365 1_555
Ca5 N54 2.787276 1_555
Ca5 N35 3.079578 1_555
Ca6 N50 2.409029 1_555
Ca6 N1 2.437540 1_555
Ca6 N10 2.492701 1_555
Ca6 N62 2.509379 1_455
Ca6 N26 2.662359 1_455
Ca6 N13 2.746794 1_555
Ca7 N45 2.409029 1_555
Ca7 N9 2.437540 1_555
Ca7 N62 2.492701 1_555
Ca7 N10 2.509379 1_655
Ca7 N2 2.662359 1_655
Ca7 N32 2.746794 1_555
Ca8 N31 2.409029 1_544
Ca8 N53 2.437540 1_554
Ca8 N0 2.492701 1_545
Ca8 N12 2.509379 1_454
Ca8 N25 2.662359 1_455
Ca8 N19 2.746794 1_555
Ca9 N37 2.407001 1_555
Ca9 N9 2.431249 1_555
Ca9 N2 2.443402 1_655
Ca9 N38 2.605365 1_655
Ca9 N61 2.787276 1_555
Ca9 N15 3.079578 1_545
Ca10 N29 2.409029 1_556
Ca10 N57 2.437540 1_556
Ca10 N28 2.492701 1_555
Ca10 N18 2.509379 1_556
Ca10 N21 2.662359 1_555
Ca10 N40 2.746794 1_555
Ca11 N8 2.409029 1_566
Ca11 N17 2.437540 1_556
Ca11 N12 2.492701 1_565
Ca11 N0 2.509379 1_656
Ca11 N30 2.662359 1_655
Ca11 N6 2.746794 1_555
Ca12 N37 2.409029 1_565
Ca12 N63 2.437540 1_555
Ca12 N16 2.492701 1_565
Ca12 N48 2.509379 1_555
Ca12 N33 2.662359 1_555
Ca12 N58 2.746794 1_555
Ca13 N31 2.407001 1_554
Ca13 N57 2.431249 1_555
Ca13 N21 2.443402 1_554
Ca13 N43 2.605365 1_555
Ca13 N22 2.787276 1_555
Ca13 N11 3.079578 1_565
Ca14 N29 2.407001 1_556
Ca14 N53 2.431249 1_555
Ca14 N25 2.443402 1_456
Ca14 N55 2.605365 1_455
Ca14 N14 2.787276 1_555
Ca14 N59 3.079578 1_555
Ca15 N50 2.407001 1_555
Ca15 N47 2.431249 1_555
Ca15 N34 2.443402 1_555
Ca15 N52 2.605365 1_555
Ca15 N5 2.787276 1_555
Ca15 N7 3.079578 1_555
N0 Si38 1.665400 1_455
N0 Si30 1.709825 1_555
N1 Si23 1.689426 1_555
N1 Si14 1.730163 1_555
N2 Si39 1.696573 1_555
N2 Si20 1.737884 1_555
N3 Si32 1.768961 1_555
N3 Si10 1.774242 1_545
N3 Si33 1.783891 1_555
N4 Si17 1.704809 1_555
N4 Si2 1.768225 1_556
N5 Si24 1.768961 1_555
N5 Si36 1.774242 1_555
N5 Si19 1.783891 1_555
N6 Si28 1.769645 1_655
N6 Si25 1.777432 1_555
N6 Si17 1.791106 1_555
N7 Si3 1.757937 1_555
N7 Si36 1.767985 1_555
N7 Si31 1.775579 1_555
N8 Si35 1.704809 1_555
N8 Si26 1.768225 1_554
N9 Si6 1.689426 1_555
N9 Si15 1.730163 1_555
N10 Si7 1.665400 1_455
N10 Si20 1.709825 1_555
N11 Si24 1.757937 1_555
N11 Si12 1.767985 1_555
N11 Si34 1.775579 1_555
N12 Si0 1.665400 1_655
N12 Si26 1.709825 1_555
N13 Si11 1.769645 1_455
N13 Si31 1.777432 1_555
N13 Si22 1.791106 1_555
N14 Si39 1.768961 1_555
N14 Si8 1.774242 1_555
N14 Si5 1.783891 1_555
N15 Si11 1.757937 1_555
N15 Si38 1.767985 1_555
N15 Si18 1.775579 1_555
N16 Si12 1.665400 1_555
N16 Si15 1.709825 1_555
N17 Si18 1.689426 1_555
N17 Si2 1.730163 1_555
N18 Si36 1.665400 1_555
N18 Si2 1.709825 1_555
N19 Si9 1.769645 1_455
N19 Si34 1.777432 1_555
N19 Si19 1.791106 1_555
N20 Si22 1.704809 1_555
N20 Si14 1.768225 1_555
N21 Si37 1.696573 1_555
N21 Si2 1.737884 1_556
N22 Si3 1.768961 1_555
N22 Si12 1.774242 1_565
N22 Si22 1.783891 1_555
N23 Si29 1.783736 1_545
N23 Si10 1.791523 1_545
N23 Si16 1.795689 1_555
N24 Si11 1.768961 1_555
N24 Si7 1.774242 1_555
N24 Si13 1.783891 1_555
N25 Si9 1.696573 1_555
N25 Si26 1.737884 1_554
N26 Si11 1.696573 1_555
N26 Si27 1.737884 1_555
N27 Si24 1.696573 1_555
N27 Si4 1.737884 1_554
N28 Si1 1.665400 1_555
N28 Si4 1.709825 1_555
N29 Si19 1.704809 1_555
N29 Si4 1.768225 1_554
N30 Si28 1.696573 1_555
N30 Si30 1.737884 1_556
N31 Si29 1.704809 1_555
N31 Si30 1.768225 1_556
N32 Si39 1.769645 1_655
N32 Si21 1.777432 1_555
N32 Si33 1.791106 1_555
N33 Si3 1.696573 1_555
N33 Si14 1.737884 1_555
N34 Si32 1.696573 1_555
N34 Si15 1.737884 1_555
N35 Si32 1.757937 1_555
N35 Si1 1.767985 1_555
N35 Si21 1.775579 1_555
N36 Si5 1.783736 1_555
N36 Si1 1.791523 1_555
N36 Si23 1.795689 1_555
N37 Si33 1.704809 1_555
N37 Si15 1.768225 1_555
N38 Si22 1.783736 1_545
N38 Si38 1.791523 1_445
N38 Si34 1.795689 1_555
N39 Si9 1.757937 1_555
N39 Si7 1.767985 1_555
N39 Si6 1.775579 1_555
N40 Si37 1.769645 1_555
N40 Si23 1.777432 1_555
N40 Si29 1.791106 1_555
N41 Si37 1.757937 1_555
N41 Si10 1.767985 1_555
N41 Si25 1.775579 1_555
N42 Si24 1.769645 1_555
N42 Si6 1.777432 1_555
N42 Si35 1.791106 1_555
N43 Si35 1.783736 1_565
N43 Si12 1.791523 1_565
N43 Si18 1.795689 1_555
N44 Si21 1.689426 1_555
N44 Si26 1.730163 1_555
N45 Si13 1.704809 1_555
N45 Si27 1.768225 1_555
N46 Si33 1.783736 1_565
N46 Si0 1.791523 1_665
N46 Si25 1.795689 1_555
N47 Si34 1.689426 1_555
N47 Si20 1.730163 1_555
N48 Si10 1.665400 1_555
N48 Si14 1.709825 1_555
N49 Si39 1.757937 1_555
N49 Si0 1.767985 1_555
N49 Si16 1.775579 1_555
N50 Si5 1.704809 1_555
N50 Si20 1.768225 1_555
N51 Si32 1.769645 1_555
N51 Si16 1.777432 1_555
N51 Si5 1.791106 1_555
N52 Si13 1.783736 1_555
N52 Si36 1.791523 1_555
N52 Si6 1.795689 1_555
N53 Si16 1.689426 1_555
N53 Si4 1.730163 1_555
N54 Si37 1.768961 1_555
N54 Si1 1.774242 1_555
N54 Si17 1.783891 1_555
N55 Si17 1.783736 1_555
N55 Si8 1.791523 1_655
N55 Si21 1.795689 1_555
N56 Si19 1.783736 1_555
N56 Si7 1.791523 1_455
N56 Si31 1.795689 1_555
N57 Si31 1.689426 1_555
N57 Si30 1.730163 1_555
N58 Si3 1.769645 1_555
N58 Si18 1.777432 1_555
N58 Si13 1.791106 1_555
N59 Si28 1.757937 1_555
N59 Si8 1.767985 1_555
N59 Si23 1.775579 1_555
N60 Si28 1.768961 1_555
N60 Si0 1.774242 1_565
N60 Si29 1.783891 1_555
N61 Si9 1.768961 1_555
N61 Si38 1.774242 1_545
N61 Si35 1.783891 1_555
N62 Si8 1.665400 1_655
N62 Si27 1.709825 1_555
N63 Si25 1.689426 1_555
N63 Si27 1.730163 1_555
