# generated using pymatgen
data_Rb3MnO3
_symmetry_space_group_name_H-M   'P 1'
_cell_length_a   6.89761846
_cell_length_b   7.04614347
_cell_length_c   11.85839221
_cell_angle_alpha   89.99713639
_cell_angle_beta   90.00164123
_cell_angle_gamma   98.41478587
_symmetry_Int_Tables_number   1
_chemical_formula_structural   Rb3MnO3
_chemical_formula_sum   'Rb12 Mn4 O12'
_cell_volume   570.13244693
_cell_formula_units_Z   4
loop_
 _symmetry_equiv_pos_site_id
 _symmetry_equiv_pos_as_xyz
  1  'x, y, z'
loop_
 _atom_site_type_symbol
 _atom_site_label
 _atom_site_symmetry_multiplicity
 _atom_site_fract_x
 _atom_site_fract_y
 _atom_site_fract_z
 _atom_site_occupancy
  Rb  Rb0  1  0.00808314  0.07385848  0.27411149  1
  Rb  Rb1  1  0.99195796  0.92612098  0.72591975  1
  Rb  Rb2  1  0.00808004  0.57384624  0.22586078  1
  Rb  Rb3  1  0.99192741  0.42613673  0.77411671  1
  Rb  Rb4  1  0.53076292  0.50383169  0.70900388  1
  Rb  Rb5  1  0.53079728  0.00382957  0.79101296  1
  Rb  Rb6  1  0.46923944  0.49616996  0.29100326  1
  Rb  Rb7  1  0.46924004  0.99617810  0.20898110  1
  Rb  Rb8  1  0.34058616  0.64368180  0.98847630  1
  Rb  Rb9  1  0.34058180  0.14368795  0.51154038  1
  Rb  Rb10  1  0.65943736  0.85635599  0.48845658  1
  Rb  Rb11  1  0.65937891  0.35629553  0.01153193  1
  Mn  Mn0  1  0.84156857  0.84384811  0.00352972  1
  Mn  Mn1  1  0.15841827  0.65616817  0.50351670  1
  Mn  Mn2  1  0.15841945  0.15613792  0.99649388  1
  Mn  Mn3  1  0.84158217  0.34382604  0.49646663  1
  O  O0  1  0.27247534  0.80018331  0.38423102  1
  O  O1  1  0.72751367  0.69978329  0.88423108  1
  O  O2  1  0.72754821  0.19982922  0.61577486  1
  O  O3  1  0.27247718  0.30020681  0.11577309  1
  O  O4  1  0.90065109  0.09080646  0.92751037  1
  O  O5  1  0.09931739  0.40922234  0.42751211  1
  O  O6  1  0.90071768  0.59086149  0.57247343  1
  O  O7  1  0.09929105  0.90917763  0.07249927  1
  O  O8  1  0.29982102  0.77269161  0.62404326  1
  O  O9  1  0.70016753  0.22730544  0.37592943  1
  O  O10  1  0.70011954  0.72730942  0.12404794  1
  O  O11  1  0.29984238  0.27264772  0.87594911  1
loop_
_geom_bond_atom_site_label_1
_geom_bond_atom_site_label_2
_geom_bond_distance
_geom_bond_site_symmetry_2
Mn0 O1 1.848523 1_554
Mn0 O10 1.853148 1_555
Mn0 O4 1.949102 1_564
Mn0 O7 1.949712 1_655
Mn1 O0 1.848197 1_555
Mn1 O8 1.853058 1_555
Mn1 O5 1.949025 1_555
Mn1 O6 1.949522 1_455
Mn2 O3 1.848368 1_556
Mn2 O11 1.853233 1_555
Mn2 O7 1.949062 1_546
Mn2 O4 1.950060 1_455
Mn3 O2 1.848284 1_555
Mn3 O9 1.853186 1_555
Mn3 O6 1.949600 1_555
Mn3 O5 1.949786 1_655
O0 Rb7 2.742142 1_555
O0 Rb9 2.832954 1_565
O0 Rb10 2.915317 1_555
O0 Rb6 2.916180 1_555
O0 Rb2 2.923198 1_555
O0 Rb0 3.127049 1_565
O1 Rb4 2.741812 1_555
O1 Rb11 2.832695 1_556
O1 Rb8 2.915250 1_555
O1 Rb5 2.916024 1_565
O1 Rb1 2.922900 1_555
O1 Rb3 3.127106 1_555
O2 Rb5 2.742011 1_555
O2 Rb10 2.832828 1_545
O2 Rb9 2.915388 1_555
O2 Rb4 2.916208 1_555
O2 Rb3 2.922827 1_555
O2 Rb1 3.127419 1_545
O3 Rb6 2.741907 1_555
O3 Rb8 2.832587 1_554
O3 Rb11 2.915070 1_555
O3 Rb7 2.916063 1_545
O3 Rb0 2.922952 1_555
O3 Rb2 3.126861 1_555
O4 Rb1 2.769858 1_545
O4 Rb11 2.858875 1_556
O4 Rb3 2.975258 1_555
O4 Rb5 3.007661 1_555
O5 Rb2 2.770013 1_555
O5 Rb9 2.859004 1_555
O5 Rb0 2.975584 1_555
O5 Rb6 3.008148 1_555
O6 Rb3 2.770197 1_555
O6 Rb10 2.858823 1_555
O6 Rb1 2.975358 1_555
O6 Rb4 3.008517 1_555
O7 Rb0 2.769867 1_565
O7 Rb8 2.859023 1_554
O7 Rb2 2.974988 1_555
O7 Rb7 3.008112 1_555
O8 Rb1 2.794594 1_455
O8 Rb4 2.832723 1_555
O8 Rb5 2.889945 1_565
O8 Rb9 2.911517 1_565
O8 Rb10 2.942396 1_555
O9 Rb0 2.794651 1_655
O9 Rb6 2.832539 1_555
O9 Rb7 2.889577 1_545
O9 Rb10 2.911364 1_545
O9 Rb9 2.942356 1_555
O10 Rb2 2.794836 1_655
O10 Rb7 2.832469 1_555
O10 Rb6 2.889473 1_555
O10 Rb11 2.911815 1_555
O10 Rb8 2.941767 1_554
O11 Rb3 2.794770 1_455
O11 Rb5 2.832558 1_555
O11 Rb4 2.889673 1_555
O11 Rb8 2.912000 1_555
O11 Rb11 2.941868 1_556
