# generated using pymatgen
data_Nb5Ga3
_symmetry_space_group_name_H-M   'P 1'
_cell_length_a   5.08749337
_cell_length_b   7.73366651
_cell_length_c   7.73366530
_cell_angle_alpha   83.82799633
_cell_angle_beta   70.85708027
_cell_angle_gamma   70.85707865
_symmetry_Int_Tables_number   1
_chemical_formula_structural   Nb5Ga3
_chemical_formula_sum   'Nb10 Ga6'
_cell_volume   271.55996447
_cell_formula_units_Z   2
loop_
 _symmetry_equiv_pos_site_id
 _symmetry_equiv_pos_as_xyz
  1  'x, y, z'
loop_
 _atom_site_type_symbol
 _atom_site_label
 _atom_site_symmetry_multiplicity
 _atom_site_fract_x
 _atom_site_fract_y
 _atom_site_fract_z
 _atom_site_occupancy
  Nb  Nb0  1  0.57560791  0.70295798  0.14488701  1
  Nb  Nb1  1  0.25000000  0.49898025  0.50101975  1
  Nb  Nb2  1  0.07560791  0.14488701  0.70295798  1
  Nb  Nb3  1  0.92439209  0.85511299  0.29704202  1
  Nb  Nb4  1  0.75000000  0.50101975  0.49898025  1
  Nb  Nb5  1  0.72084617  0.85514383  0.70301023  1
  Nb  Nb6  1  0.42439209  0.29704202  0.85511299  1
  Nb  Nb7  1  0.77915383  0.29698977  0.14485617  1
  Nb  Nb8  1  0.27915383  0.14485617  0.29698977  1
  Nb  Nb9  1  0.22084617  0.70301023  0.85514383  1
  Ga  Ga0  1  0.16465371  0.50000829  0.16970649  1
  Ga  Ga1  1  0.25000000  0.00016924  0.99983076  1
  Ga  Ga2  1  0.66465371  0.16970649  0.50000829  1
  Ga  Ga3  1  0.83534629  0.49999171  0.83029351  1
  Ga  Ga4  1  0.75000000  0.99983076  0.00016924  1
  Ga  Ga5  1  0.33534629  0.83029351  0.49999171  1
loop_
_geom_bond_atom_site_label_1
_geom_bond_atom_site_label_2
_geom_bond_distance
_geom_bond_site_symmetry_2
Nb0 Nb7 2.966019 1_555
Nb0 Nb3 2.988259 1_455
Nb0 Nb3 2.992413 1_555
Nb1 Nb4 2.543834 1_455
Nb1 Nb4 2.543834 1_555
Nb2 Nb8 2.966018 1_555
Nb2 Nb6 2.988259 1_455
Nb2 Nb6 2.992413 1_555
Nb3 Nb5 2.966018 1_555
Nb5 Nb9 2.990240 1_655
Nb5 Nb9 2.990240 1_555
Nb6 Nb9 2.966019 1_555
Nb7 Nb8 2.990240 1_655
Nb7 Nb8 2.990240 1_555
Ga0 Nb4 2.721239 1_455
Ga0 Nb1 2.734376 1_555
Ga0 Nb9 2.735251 1_554
Ga0 Nb6 2.735251 1_554
Ga0 Nb3 2.756138 1_455
Ga0 Nb8 2.756382 1_555
Ga0 Nb7 2.946206 1_455
Ga0 Nb0 2.948838 1_555
Ga0 Nb0 2.951028 1_455
Ga0 Nb7 2.954186 1_555
Ga1 Ga4 2.543749 1_546
Ga1 Ga4 2.543749 1_446
Ga1 Nb8 2.727785 1_556
Ga1 Nb9 2.727785 1_545
Ga1 Nb2 2.728217 1_555
Ga1 Nb6 2.728217 1_555
Ga1 Nb5 2.729576 1_545
Ga1 Nb7 2.729577 1_456
Ga1 Nb3 2.730005 1_446
Ga1 Nb0 2.730005 1_546
Ga2 Nb1 2.721239 1_555
Ga2 Nb4 2.734376 1_555
Ga2 Nb5 2.735251 1_545
Ga2 Nb3 2.735251 1_545
Ga2 Nb6 2.756138 1_555
Ga2 Nb7 2.756381 1_555
Ga2 Nb8 2.946206 1_555
Ga2 Nb2 2.948838 1_655
Ga2 Nb2 2.951028 1_555
Ga2 Nb8 2.954186 1_655
Ga3 Nb1 2.721239 1_655
Ga3 Nb4 2.734376 1_555
Ga3 Nb7 2.735251 1_556
Ga3 Nb0 2.735251 1_556
Ga3 Nb2 2.756138 1_655
Ga3 Nb5 2.756382 1_555
Ga3 Nb9 2.946206 1_655
Ga3 Nb6 2.948838 1_555
Ga3 Nb6 2.951028 1_655
Ga3 Nb9 2.954186 1_555
Ga4 Nb5 2.727785 1_554
Ga4 Nb7 2.727785 1_565
Ga4 Nb3 2.728217 1_555
Ga4 Nb0 2.728217 1_555
Ga4 Nb8 2.729576 1_565
Ga4 Nb9 2.729577 1_654
Ga4 Nb2 2.730005 1_664
Ga4 Nb6 2.730005 1_564
Ga5 Nb4 2.721239 1_555
Ga5 Nb1 2.734376 1_555
Ga5 Nb8 2.735251 1_565
Ga5 Nb2 2.735251 1_565
Ga5 Nb0 2.756138 1_555
Ga5 Nb9 2.756381 1_555
Ga5 Nb5 2.946206 1_555
Ga5 Nb3 2.948838 1_455
Ga5 Nb3 2.951028 1_555
Ga5 Nb5 2.954186 1_455
