# generated using pymatgen
data_Na2FeCoF7
_symmetry_space_group_name_H-M   'P 1'
_cell_length_a   7.40563681
_cell_length_b   7.40563681
_cell_length_c   24.89941829
_cell_angle_alpha   81.72226790
_cell_angle_beta   81.72226790
_cell_angle_gamma   60.52527439
_symmetry_Int_Tables_number   1
_chemical_formula_structural   Na2FeCoF7
_chemical_formula_sum   'Na16 Fe8 Co8 F56'
_cell_volume   1172.19641206
_cell_formula_units_Z   8
loop_
 _symmetry_equiv_pos_site_id
 _symmetry_equiv_pos_as_xyz
  1  'x, y, z'
loop_
 _atom_site_type_symbol
 _atom_site_label
 _atom_site_symmetry_multiplicity
 _atom_site_fract_x
 _atom_site_fract_y
 _atom_site_fract_z
 _atom_site_occupancy
  Na  Na0  1  0.78246000  0.21754000  0.75000000  1
  Na  Na1  1  0.12906500  0.12244300  0.62184800  1
  Na  Na2  1  0.70643400  0.78904300  0.25154000  1
  Na  Na3  1  0.21095700  0.29356600  0.24846100  1
  Na  Na4  1  0.29356600  0.21095700  0.74846000  1
  Na  Na5  1  0.50000000  0.50000000  0.50000000  1
  Na  Na6  1  0.21754000  0.78246000  0.25000000  1
  Na  Na7  1  0.00000000  0.00000000  0.00000000  1
  Na  Na8  1  0.12244300  0.12906500  0.12184800  1
  Na  Na9  1  0.00000000  0.50000000  0.00000000  1
  Na  Na10  1  0.78904300  0.70643400  0.75154000  1
  Na  Na11  1  0.50000000  0.50000000  0.00000000  1
  Na  Na12  1  0.87093500  0.87755700  0.37815200  1
  Na  Na13  1  0.87755700  0.87093500  0.87815200  1
  Na  Na14  1  0.00000000  0.00000000  0.50000000  1
  Na  Na15  1  0.50000000  0.00000000  0.50000000  1
  Fe  Fe0  1  0.24665800  0.75334200  0.75000000  1
  Fe  Fe1  1  0.36482500  0.88947900  0.37469300  1
  Fe  Fe2  1  0.11052100  0.63517500  0.12530700  1
  Fe  Fe3  1  0.00000000  0.50000000  0.50000000  1
  Fe  Fe4  1  0.75334200  0.24665800  0.25000000  1
  Fe  Fe5  1  0.50000000  0.00000000  0.00000000  1
  Fe  Fe6  1  0.63517500  0.11052100  0.62530700  1
  Fe  Fe7  1  0.88947900  0.36482500  0.87469300  1
  Co  Co0  1  0.86664400  0.38746700  0.37379600  1
  Co  Co1  1  0.61330700  0.63006400  0.12757100  1
  Co  Co2  1  0.38746700  0.86664400  0.87379600  1
  Co  Co3  1  0.38669300  0.36993600  0.87242900  1
  Co  Co4  1  0.61253300  0.13335600  0.12620400  1
  Co  Co5  1  0.13335600  0.61253300  0.62620400  1
  Co  Co6  1  0.36993600  0.38669300  0.37242900  1
  Co  Co7  1  0.63006400  0.61330700  0.62757100  1
  F  F0  1  0.36409300  0.47487300  0.79095700  1
  F  F1  1  0.13730400  0.02587600  0.70926700  1
  F  F2  1  0.69120000  0.35710700  0.09927800  1
  F  F3  1  0.63809900  0.03223700  0.70464200  1
  F  F4  1  0.69953300  0.66305000  0.85907200  1
  F  F5  1  0.02587600  0.13730400  0.20926700  1
  F  F6  1  0.86269600  0.97412400  0.29073300  1
  F  F7  1  0.52512700  0.63590700  0.70904300  1
  F  F8  1  0.58209400  0.13543900  0.04574300  1
  F  F9  1  0.66305000  0.69953300  0.35907200  1
  F  F10  1  0.93350000  0.92388700  0.60946100  1
  F  F11  1  0.69940000  0.26990800  0.85903800  1
  F  F12  1  0.07611300  0.06650000  0.89053900  1
  F  F13  1  0.90708000  0.53627600  0.65383900  1
  F  F14  1  0.53617200  0.92363300  0.61030600  1
  F  F15  1  0.92388700  0.93350000  0.10946100  1
  F  F16  1  0.20615400  0.13159400  0.03171200  1
  F  F17  1  0.30060000  0.73009200  0.14096200  1
  F  F18  1  0.13618800  0.63518200  0.70680800  1
  F  F19  1  0.86456100  0.41790600  0.45425700  1
  F  F20  1  0.47487300  0.36409300  0.29095700  1
  F  F21  1  0.41891300  0.25849300  0.95323900  1
  F  F22  1  0.86381200  0.36481800  0.29319200  1
  F  F23  1  0.53627600  0.90708000  0.15383900  1
  F  F24  1  0.36481800  0.86381200  0.79319200  1
  F  F25  1  0.41790600  0.86456100  0.95425700  1
  F  F26  1  0.33695000  0.30046700  0.64092800  1
  F  F27  1  0.13543900  0.58209400  0.54574300  1
  F  F28  1  0.97412400  0.86269600  0.79073300  1
  F  F29  1  0.36190100  0.96776300  0.29535800  1
  F  F30  1  0.25849300  0.41891300  0.45323900  1
  F  F31  1  0.03223700  0.63809900  0.20464200  1
  F  F32  1  0.74150700  0.58108700  0.54676100  1
  F  F33  1  0.92363300  0.53617200  0.11030600  1
  F  F34  1  0.26990800  0.69940000  0.35903800  1
  F  F35  1  0.79384600  0.86840600  0.96828800  1
  F  F36  1  0.06650000  0.07611300  0.39053900  1
  F  F37  1  0.63518200  0.13618800  0.20680800  1
  F  F38  1  0.46372400  0.09292000  0.84616100  1
  F  F39  1  0.18412900  0.63578000  0.04561300  1
  F  F40  1  0.63590700  0.52512700  0.20904300  1
  F  F41  1  0.36422000  0.81587100  0.45438700  1
  F  F42  1  0.30046700  0.33695000  0.14092800  1
  F  F43  1  0.09292000  0.46372400  0.34616100  1
  F  F44  1  0.30880000  0.64289300  0.90072200  1
  F  F45  1  0.46382800  0.07636700  0.38969400  1
  F  F46  1  0.58108700  0.74150700  0.04676100  1
  F  F47  1  0.35710700  0.69120000  0.59927800  1
  F  F48  1  0.07636700  0.46382800  0.88969400  1
  F  F49  1  0.13159400  0.20615400  0.53171200  1
  F  F50  1  0.81587100  0.36422000  0.95438700  1
  F  F51  1  0.86840600  0.79384600  0.46828800  1
  F  F52  1  0.73009200  0.30060000  0.64096200  1
  F  F53  1  0.96776300  0.36190100  0.79535800  1
  F  F54  1  0.64289300  0.30880000  0.40072200  1
  F  F55  1  0.63578000  0.18412900  0.54561300  1
loop_
_geom_bond_atom_site_label_1
_geom_bond_atom_site_label_2
_geom_bond_distance
_geom_bond_site_symmetry_2
Co0 F54 2.013014 1_555
Co0 F43 2.021827 1_655
Co0 F22 2.041839 1_555
Co0 F19 2.045119 1_555
Co0 F36 2.055116 1_655
Co0 F9 2.057875 1_555
Co1 F2 2.015125 1_555
Co1 F23 2.022140 1_555
Co1 F33 2.044234 1_555
Co1 F17 2.045347 1_555
Co1 F46 2.062278 1_555
Co1 F40 2.064705 1_555
Co2 F44 2.013014 1_555
Co2 F38 2.021827 1_565
Co2 F24 2.041839 1_555
Co2 F25 2.045119 1_555
Co2 F12 2.055116 1_565
Co2 F4 2.057875 1_555
Co3 F44 2.015125 1_555
Co3 F38 2.022140 1_555
Co3 F48 2.044234 1_555
Co3 F11 2.045347 1_555
Co3 F21 2.062278 1_555
Co3 F0 2.064705 1_555
Co4 F2 2.013014 1_555
Co4 F23 2.021827 1_545
Co4 F37 2.041839 1_555
Co4 F8 2.045119 1_555
Co4 F15 2.055116 1_545
Co4 F42 2.057875 1_555
Co5 F47 2.013014 1_555
Co5 F13 2.021827 1_455
Co5 F18 2.041839 1_555
Co5 F27 2.045119 1_555
Co5 F10 2.055116 1_455
Co5 F26 2.057875 1_555
Co6 F54 2.015125 1_555
Co6 F43 2.022140 1_555
Co6 F45 2.044234 1_555
Co6 F34 2.045347 1_555
Co6 F30 2.062278 1_555
Co6 F20 2.064705 1_555
Co7 F47 2.015125 1_555
Co7 F13 2.022140 1_555
Co7 F14 2.044234 1_555
Co7 F52 2.045347 1_555
Co7 F32 2.062278 1_555
Co7 F7 2.064705 1_555
F0 Fe0 1.983445 1_555
F0 Na4 2.640381 1_555
F0 Na0 2.847884 1_555
F1 Fe0 1.948487 1_545
F1 Na1 2.190930 1_555
F1 Na0 2.434221 1_455
F1 Na4 2.537986 1_555
F2 Na11 2.831160 1_555
F2 Na8 2.881512 1_655
F3 Fe6 1.977109 1_555
F3 Na10 2.311946 1_545
F3 Na4 2.396500 1_555
F3 Na0 2.557205 1_555
F4 Fe7 1.964851 1_555
F4 Na13 2.592733 1_555
F4 Na10 2.676263 1_555
F5 Fe4 1.948487 1_455
F5 Na8 2.190930 1_555
F5 Na6 2.434221 1_545
F5 Na3 2.537999 1_555
F6 Fe4 1.948487 1_565
F6 Na12 2.190930 1_555
F6 Na6 2.434221 1_655
F6 Na2 2.537986 1_555
F7 Fe0 1.983445 1_555
F7 Na10 2.640381 1_555
F7 Na0 2.847884 1_555
F8 Fe5 1.949698 1_555
F8 Na11 2.579641 1_555
F8 Na7 2.853183 1_655
F9 Fe1 1.964851 1_555
F9 Na12 2.592733 1_555
F9 Na2 2.676263 1_555
F10 Fe6 1.961641 1_565
F10 Na1 2.590316 1_665
F10 Na14 2.726353 1_665
F11 Fe7 1.959119 1_555
F11 Na13 2.576215 1_545
F11 Na0 2.736321 1_555
F12 Fe7 1.961641 1_455
F12 Na13 2.590316 1_445
F12 Na7 2.726353 1_556
F13 Na10 2.730650 1_555
F13 Na1 2.845578 1_655
F14 Fe6 1.954197 1_565
F14 Na1 2.616104 1_565
F14 Na15 2.747848 1_565
F15 Fe2 1.961641 1_655
F15 Na8 2.590316 1_665
F15 Na7 2.726353 1_665
F16 Fe5 1.987097 1_555
F16 Na8 2.240625 1_555
F16 Na7 2.436566 1_555
F16 Na9 2.454724 1_555
F17 Fe2 1.959119 1_555
F17 Na8 2.576215 1_565
F17 Na6 2.736321 1_555
F18 Fe0 1.954586 1_555
F18 Na10 2.477487 1_455
F18 Na4 2.847904 1_555
F19 Fe3 1.949698 1_655
F19 Na5 2.579641 1_555
F19 Na14 2.853183 1_655
F20 Fe4 1.983445 1_555
F20 Na3 2.640368 1_555
F20 Na6 2.847884 1_555
F21 Fe5 1.951693 1_556
F21 Na11 2.602473 1_556
F21 Na9 2.877175 1_556
F22 Fe4 1.954586 1_555
F22 Na3 2.477479 1_655
F22 Na2 2.847904 1_555
F23 Na2 2.730650 1_555
F23 Na8 2.845578 1_565
F24 Fe0 1.954586 1_555
F24 Na4 2.477487 1_565
F24 Na10 2.847904 1_555
F25 Fe5 1.949698 1_566
F25 Na11 2.579641 1_556
F25 Na7 2.853183 1_566
F26 Fe6 1.964851 1_555
F26 Na1 2.592733 1_555
F26 Na4 2.676263 1_555
F27 Fe3 1.949698 1_555
F27 Na5 2.579641 1_555
F27 Na14 2.853183 1_565
F28 Fe0 1.948487 1_655
F28 Na13 2.190930 1_555
F28 Na0 2.434221 1_565
F28 Na10 2.537986 1_555
F29 Fe1 1.977109 1_555
F29 Na3 2.311936 1_565
F29 Na2 2.396500 1_555
F29 Na6 2.557205 1_555
F30 Fe3 1.951693 1_555
F30 Na5 2.602473 1_555
F30 Na15 2.877175 1_555
F31 Fe2 1.977109 1_555
F31 Na2 2.311946 1_455
F31 Na3 2.396510 1_555
F31 Na6 2.557205 1_555
F32 Fe3 1.951693 1_655
F32 Na5 2.602473 1_555
F32 Na15 2.877175 1_565
F33 Fe2 1.954197 1_655
F33 Na8 2.616104 1_655
F33 Na9 2.747848 1_655
F34 Fe1 1.959119 1_555
F34 Na12 2.576215 1_455
F34 Na6 2.736321 1_555
F35 Fe5 1.987097 1_566
F35 Na13 2.240625 1_555
F35 Na7 2.436566 1_666
F35 Na9 2.454724 1_656
F36 Fe1 1.961641 1_545
F36 Na12 2.590316 1_445
F36 Na14 2.726353 1_555
F37 Fe4 1.954586 1_555
F37 Na2 2.477487 1_545
F37 Na3 2.847911 1_555
F38 Na4 2.730650 1_555
F38 Na13 2.845578 1_545
F39 Fe2 1.980689 1_555
F39 Na11 2.241004 1_555
F39 Na9 2.506885 1_555
F39 Na7 2.523692 1_565
F40 Fe4 1.983445 1_555
F40 Na2 2.640381 1_555
F40 Na6 2.847884 1_555
F41 Fe1 1.980689 1_555
F41 Na5 2.241004 1_555
F41 Na15 2.506885 1_565
F41 Na14 2.523692 1_565
F42 Fe2 1.964851 1_555
F42 Na8 2.592733 1_555
F42 Na3 2.676286 1_555
F43 Na3 2.730627 1_555
F43 Na12 2.845578 1_455
F44 Na11 2.831160 1_556
F44 Na13 2.881512 1_455
F45 Fe1 1.954197 1_545
F45 Na12 2.616104 1_545
F45 Na15 2.747848 1_555
F46 Fe5 1.951693 1_565
F46 Na11 2.602473 1_555
F46 Na9 2.877175 1_655
F47 Na5 2.831160 1_555
F47 Na1 2.881512 1_565
F48 Fe7 1.954197 1_455
F48 Na13 2.616104 1_455
F48 Na9 2.747848 1_556
F49 Fe3 1.987097 1_555
F49 Na1 2.240625 1_555
F49 Na14 2.436566 1_555
F49 Na15 2.454724 1_555
F50 Fe7 1.980689 1_555
F50 Na11 2.241004 1_556
F50 Na9 2.506885 1_656
F50 Na7 2.523692 1_656
F51 Fe3 1.987097 1_655
F51 Na12 2.240625 1_555
F51 Na14 2.436566 1_665
F51 Na15 2.454724 1_565
F52 Fe6 1.959119 1_555
F52 Na1 2.576215 1_655
F52 Na0 2.736321 1_555
F53 Fe7 1.977109 1_555
F53 Na4 2.311946 1_655
F53 Na10 2.396500 1_555
F53 Na0 2.557205 1_555
F54 Na5 2.831160 1_555
F54 Na12 2.881512 1_545
F55 Fe6 1.980689 1_555
F55 Na5 2.241004 1_555
F55 Na15 2.506885 1_555
F55 Na14 2.523692 1_655
