# generated using pymatgen
data_CaP4O11
_symmetry_space_group_name_H-M   'P 1'
_cell_length_a   8.90629139
_cell_length_b   8.90629139
_cell_length_c   12.94889500
_cell_angle_alpha   90.00000000
_cell_angle_beta   90.00000000
_cell_angle_gamma   92.08760837
_symmetry_Int_Tables_number   1
_chemical_formula_structural   CaP4O11
_chemical_formula_sum   'Ca4 P16 O44'
_cell_volume   1026.45087832
_cell_formula_units_Z   4
loop_
 _symmetry_equiv_pos_site_id
 _symmetry_equiv_pos_as_xyz
  1  'x, y, z'
loop_
 _atom_site_type_symbol
 _atom_site_label
 _atom_site_symmetry_multiplicity
 _atom_site_fract_x
 _atom_site_fract_y
 _atom_site_fract_z
 _atom_site_occupancy
  Ca  Ca0  1  0.73289100  0.73289100  0.96950800  1
  Ca  Ca1  1  0.76710900  0.76710900  0.46950800  1
  Ca  Ca2  1  0.23289100  0.23289100  0.53049200  1
  Ca  Ca3  1  0.26710900  0.26710900  0.03049200  1
  P  P0  1  0.40443900  0.40443900  0.28891200  1
  P  P1  1  0.67848300  0.32151700  0.00000000  1
  P  P2  1  0.26550000  0.61298500  0.66234200  1
  P  P3  1  0.76550000  0.11298500  0.83765800  1
  P  P4  1  0.38701500  0.73450000  0.33765800  1
  P  P5  1  0.73450000  0.38701500  0.33765800  1
  P  P6  1  0.32151700  0.67848300  0.00000000  1
  P  P7  1  0.61298500  0.26550000  0.66234200  1
  P  P8  1  0.59556100  0.59556100  0.71108800  1
  P  P9  1  0.11298500  0.76550000  0.83765800  1
  P  P10  1  0.88701500  0.23450000  0.16234200  1
  P  P11  1  0.17848300  0.82151700  0.50000000  1
  P  P12  1  0.23450000  0.88701500  0.16234200  1
  P  P13  1  0.90443900  0.90443900  0.21108800  1
  P  P14  1  0.82151700  0.17848300  0.50000000  1
  P  P15  1  0.09556100  0.09556100  0.78891200  1
  O  O0  1  0.76941300  0.02096100  0.51875200  1
  O  O1  1  0.97903900  0.23058700  0.48124800  1
  O  O2  1  0.22420700  0.47581000  0.60456700  1
  O  O3  1  0.38812400  0.58624900  0.27204600  1
  O  O4  1  0.78344800  0.26191400  0.90371800  1
  O  O5  1  0.77579300  0.52419000  0.39543300  1
  O  O6  1  0.36138100  0.36138100  0.39581200  1
  O  O7  1  0.35594400  0.85594400  0.25000000  1
  O  O8  1  0.72420700  0.97581000  0.89543300  1
  O  O9  1  0.73058700  0.47903900  0.01875200  1
  O  O10  1  0.28344800  0.76191400  0.59628200  1
  O  O11  1  0.13861900  0.13861900  0.89581200  1
  O  O12  1  0.86138100  0.86138100  0.10418800  1
  O  O13  1  0.26941300  0.52096100  0.98124800  1
  O  O14  1  0.47903900  0.73058700  0.01875200  1
  O  O15  1  0.83610700  0.83610700  0.30474200  1
  O  O16  1  0.64405600  0.14405600  0.75000000  1
  O  O17  1  0.63861900  0.63861900  0.60418800  1
  O  O18  1  0.61187600  0.41375100  0.72795400  1
  O  O19  1  0.58624900  0.38812400  0.27204600  1
  O  O20  1  0.91375100  0.11187600  0.77204600  1
  O  O21  1  0.33610700  0.33610700  0.19525800  1
  O  O22  1  0.97581000  0.72420700  0.89543300  1
  O  O23  1  0.16389300  0.16389300  0.69525800  1
  O  O24  1  0.71655200  0.23808600  0.40371800  1
  O  O25  1  0.27579300  0.02419000  0.10456700  1
  O  O26  1  0.76191400  0.28344800  0.59628200  1
  O  O27  1  0.73808600  0.21655200  0.09628200  1
  O  O28  1  0.66389300  0.66389300  0.80474200  1
  O  O29  1  0.02096100  0.76941300  0.51875200  1
  O  O30  1  0.21655200  0.73808600  0.09628200  1
  O  O31  1  0.14405600  0.64405600  0.75000000  1
  O  O32  1  0.11187600  0.91375100  0.77204600  1
  O  O33  1  0.52419000  0.77579300  0.39543300  1
  O  O34  1  0.23058700  0.97903900  0.48124800  1
  O  O35  1  0.26191400  0.78344800  0.90371800  1
  O  O36  1  0.85594400  0.35594400  0.25000000  1
  O  O37  1  0.52096100  0.26941300  0.98124800  1
  O  O38  1  0.47581000  0.22420700  0.60456700  1
  O  O39  1  0.23808600  0.71655200  0.40371800  1
  O  O40  1  0.02419000  0.27579300  0.10456700  1
  O  O41  1  0.41375100  0.61187600  0.72795400  1
  O  O42  1  0.08624900  0.88812400  0.22795400  1
  O  O43  1  0.88812400  0.08624900  0.22795400  1
loop_
_geom_bond_atom_site_label_1
_geom_bond_atom_site_label_2
_geom_bond_distance
_geom_bond_site_symmetry_2
Ca0 O28 2.297767 1_555
Ca0 O14 2.348451 1_556
Ca0 O9 2.348451 1_556
Ca0 O12 2.359055 1_556
Ca0 O8 2.370439 1_555
Ca0 O22 2.370439 1_555
Ca1 O15 2.297767 1_555
Ca1 O29 2.348451 1_655
Ca1 O0 2.348451 1_565
Ca1 O17 2.359055 1_555
Ca1 O5 2.370439 1_555
Ca1 O33 2.370439 1_555
Ca2 O23 2.297767 1_555
Ca2 O34 2.348451 1_545
Ca2 O1 2.348451 1_455
Ca2 O6 2.359055 1_555
Ca2 O2 2.370439 1_555
Ca2 O38 2.370439 1_555
Ca3 O21 2.297767 1_555
Ca3 O37 2.348451 1_554
Ca3 O13 2.348451 1_554
Ca3 O11 2.359055 1_554
Ca3 O40 2.370439 1_555
Ca3 O25 2.370439 1_555
O0 P14 1.481589 1_555
O1 P14 1.481589 1_555
O2 P2 1.467926 1_555
O3 P4 1.570427 1_555
O3 P0 1.645580 1_555
O4 P3 1.581509 1_555
O4 P1 1.657186 1_556
O5 P5 1.467926 1_555
O6 P0 1.483079 1_555
O7 P12 1.598959 1_555
O7 P4 1.598959 1_555
O8 P3 1.467926 1_565
O9 P1 1.481589 1_555
O10 P2 1.581509 1_555
O10 P11 1.657186 1_555
O11 P15 1.483079 1_555
O12 P13 1.483079 1_555
O13 P6 1.481589 1_556
O14 P6 1.481589 1_555
O15 P13 1.477987 1_555
O16 P7 1.598959 1_555
O16 P3 1.598959 1_555
O17 P8 1.483079 1_555
O18 P7 1.570427 1_555
O18 P8 1.645580 1_555
O19 P5 1.570427 1_555
O19 P0 1.645580 1_555
O20 P3 1.570427 1_555
O20 P15 1.645580 1_655
O21 P0 1.477987 1_555
O22 P9 1.467926 1_655
O23 P15 1.477987 1_555
O24 P5 1.581509 1_555
O24 P14 1.657186 1_555
O25 P12 1.467926 1_545
O26 P7 1.581509 1_555
O26 P14 1.657186 1_555
O27 P10 1.581509 1_555
O27 P1 1.657186 1_555
O28 P8 1.477987 1_555
O29 P11 1.481589 1_555
O30 P12 1.581509 1_555
O30 P6 1.657186 1_555
O31 P9 1.598959 1_555
O31 P2 1.598959 1_555
O32 P9 1.570427 1_555
O32 P15 1.645580 1_565
O33 P4 1.467926 1_555
O34 P11 1.481589 1_555
O35 P9 1.581509 1_555
O35 P6 1.657186 1_556
O36 P10 1.598959 1_555
O36 P5 1.598959 1_555
O37 P1 1.481589 1_556
O38 P7 1.467926 1_555
O39 P4 1.581509 1_555
O39 P11 1.657186 1_555
O40 P10 1.467926 1_455
O41 P2 1.570427 1_555
O41 P8 1.645580 1_555
O42 P12 1.570427 1_555
O42 P13 1.645580 1_455
O43 P10 1.570427 1_555
O43 P13 1.645580 1_545
