# generated using pymatgen
data_Sr2CuF6
_symmetry_space_group_name_H-M   'P 1'
_cell_length_a   5.81286000
_cell_length_b   5.81286000
_cell_length_c   16.58480300
_cell_angle_alpha   90.00000000
_cell_angle_beta   90.00000000
_cell_angle_gamma   90.00000000
_symmetry_Int_Tables_number   1
_chemical_formula_structural   Sr2CuF6
_chemical_formula_sum   'Sr8 Cu4 F24'
_cell_volume   560.38957028
_cell_formula_units_Z   4
loop_
 _symmetry_equiv_pos_site_id
 _symmetry_equiv_pos_as_xyz
  1  'x, y, z'
loop_
 _atom_site_type_symbol
 _atom_site_label
 _atom_site_symmetry_multiplicity
 _atom_site_fract_x
 _atom_site_fract_y
 _atom_site_fract_z
 _atom_site_occupancy
  Sr  Sr0  1  0.00000000  0.50000000  0.16240000  1
  Sr  Sr1  1  0.50000000  0.00000000  0.83760000  1
  Sr  Sr2  1  0.00000000  0.50000000  0.83760000  1
  Sr  Sr3  1  0.50000000  0.00000000  0.16240000  1
  Sr  Sr4  1  0.00000000  0.00000000  0.33858700  1
  Sr  Sr5  1  0.00000000  0.00000000  0.66141300  1
  Sr  Sr6  1  0.50000000  0.50000000  0.66141300  1
  Sr  Sr7  1  0.50000000  0.50000000  0.33858700  1
  Cu  Cu0  1  0.00000000  0.00000000  0.00000000  1
  Cu  Cu1  1  0.50000000  0.50000000  0.00000000  1
  Cu  Cu2  1  0.00000000  0.50000000  0.50000000  1
  Cu  Cu3  1  0.50000000  0.00000000  0.50000000  1
  F  F0  1  0.32760600  0.32803100  0.08064200  1
  F  F1  1  0.32803100  0.67239400  0.91935800  1
  F  F2  1  0.67196900  0.32760600  0.91935800  1
  F  F3  1  0.67239400  0.67196900  0.08064200  1
  F  F4  1  0.82803100  0.82760600  0.91935800  1
  F  F5  1  0.17196900  0.17239400  0.91935800  1
  F  F6  1  0.17239400  0.82803100  0.08064200  1
  F  F7  1  0.82760600  0.17196900  0.08064200  1
  F  F8  1  0.24220100  0.25085900  0.25050200  1
  F  F9  1  0.25085900  0.75779900  0.74949800  1
  F  F10  1  0.74914100  0.24220100  0.74949800  1
  F  F11  1  0.75779900  0.74914100  0.25050200  1
  F  F12  1  0.75085900  0.74220100  0.74949800  1
  F  F13  1  0.24914100  0.25779900  0.74949800  1
  F  F14  1  0.25779900  0.75085900  0.25050200  1
  F  F15  1  0.74220100  0.24914100  0.25050200  1
  F  F16  1  0.33489400  0.16694300  0.41892500  1
  F  F17  1  0.16694300  0.66510600  0.58107500  1
  F  F18  1  0.83305700  0.33489400  0.58107500  1
  F  F19  1  0.66510600  0.83305700  0.41892500  1
  F  F20  1  0.66694300  0.83489400  0.58107500  1
  F  F21  1  0.33305700  0.16510600  0.58107500  1
  F  F22  1  0.16510600  0.66694300  0.41892500  1
  F  F23  1  0.83489400  0.33305700  0.41892500  1
loop_
_geom_bond_atom_site_label_1
_geom_bond_atom_site_label_2
_geom_bond_distance
_geom_bond_site_symmetry_2
Cu0 F5 1.947356 1_554
Cu0 F7 1.947356 1_455
Cu0 F6 1.947356 1_545
Cu0 F4 1.947356 1_444
Cu1 F1 1.947356 1_554
Cu1 F2 1.947356 1_554
Cu1 F0 1.947356 1_555
Cu1 F3 1.947356 1_555
Cu2 F18 1.915930 1_455
Cu2 F23 1.915930 1_455
Cu2 F17 1.915930 1_555
Cu2 F22 1.915930 1_555
Cu3 F20 1.915930 1_545
Cu3 F19 1.915930 1_545
Cu3 F16 1.915930 1_555
Cu3 F21 1.915930 1_555
F0 Sr0 2.542499 1_555
F0 Sr3 2.545322 1_555
F1 Sr1 2.542499 1_565
F1 Sr2 2.545322 1_555
F2 Sr1 2.542499 1_555
F2 Sr2 2.545322 1_655
F3 Sr0 2.542499 1_655
F3 Sr3 2.545322 1_565
F4 Sr2 2.542499 1_655
F4 Sr1 2.545322 1_565
F5 Sr2 2.542499 1_555
F5 Sr1 2.545322 1_555
F6 Sr3 2.542499 1_565
F6 Sr0 2.545322 1_555
F7 Sr3 2.542499 1_555
F7 Sr0 2.545322 1_655
F8 Sr0 2.492879 1_555
F8 Sr4 2.498529 1_555
F8 Sr7 2.545024 1_555
F8 Sr3 2.550881 1_555
F9 Sr1 2.492879 1_565
F9 Sr5 2.498529 1_565
F9 Sr6 2.545024 1_555
F9 Sr2 2.550881 1_555
F10 Sr1 2.492879 1_555
F10 Sr5 2.498529 1_655
F10 Sr6 2.545024 1_555
F10 Sr2 2.550881 1_655
F11 Sr0 2.492879 1_655
F11 Sr4 2.498529 1_665
F11 Sr7 2.545024 1_555
F11 Sr3 2.550881 1_565
F12 Sr2 2.492879 1_655
F12 Sr6 2.498529 1_555
F12 Sr5 2.545024 1_665
F12 Sr1 2.550881 1_565
F13 Sr2 2.492879 1_555
F13 Sr6 2.498529 1_555
F13 Sr5 2.545024 1_555
F13 Sr1 2.550881 1_555
F14 Sr3 2.492879 1_565
F14 Sr7 2.498529 1_555
F14 Sr4 2.545024 1_565
F14 Sr0 2.550881 1_555
F15 Sr3 2.492879 1_555
F15 Sr7 2.498529 1_555
F15 Sr4 2.545024 1_655
F15 Sr0 2.550881 1_655
F16 Sr7 2.538604 1_555
F16 Sr4 2.550800 1_555
F17 Sr6 2.538604 1_555
F17 Sr5 2.550800 1_565
F18 Sr6 2.538604 1_555
F18 Sr5 2.550800 1_655
F19 Sr7 2.538604 1_555
F19 Sr4 2.550800 1_665
F20 Sr5 2.538604 1_665
F20 Sr6 2.550800 1_555
F21 Sr5 2.538604 1_555
F21 Sr6 2.550800 1_555
F22 Sr4 2.538604 1_565
F22 Sr7 2.550800 1_555
F23 Sr4 2.538604 1_655
F23 Sr7 2.550800 1_555
