# generated using pymatgen
data_CsMgH3
_symmetry_space_group_name_H-M   'P 1'
_cell_length_a   6.11707186
_cell_length_b   8.52803537
_cell_length_c   9.95206766
_cell_angle_alpha   90.00000000
_cell_angle_beta   90.00000000
_cell_angle_gamma   90.00000000
_symmetry_Int_Tables_number   1
_chemical_formula_structural   CsMgH3
_chemical_formula_sum   'Cs6 Mg6 H18'
_cell_volume   519.16558437
_cell_formula_units_Z   6
loop_
 _symmetry_equiv_pos_site_id
 _symmetry_equiv_pos_as_xyz
  1  'x, y, z'
loop_
 _atom_site_type_symbol
 _atom_site_label
 _atom_site_symmetry_multiplicity
 _atom_site_fract_x
 _atom_site_fract_y
 _atom_site_fract_z
 _atom_site_occupancy
  Cs  Cs0  1  0.50000000  0.66247373  0.27687162  1
  Cs  Cs1  1  0.50000000  0.17994235  0.50000000  1
  Cs  Cs2  1  -0.00000000  0.33752627  0.77687162  1
  Cs  Cs3  1  -0.00000000  0.82005765  0.00000000  1
  Cs  Cs4  1  -0.00000000  0.33752627  0.22312838  1
  Cs  Cs5  1  0.50000000  0.66247373  0.72312838  1
  Mg  Mg0  1  0.50000000  0.07326335  0.13936776  1
  Mg  Mg1  1  0.50000000  0.36516315  0.00000000  1
  Mg  Mg2  1  -0.00000000  0.92673665  0.63936776  1
  Mg  Mg3  1  0.50000000  0.07326335  0.86063224  1
  Mg  Mg4  1  -0.00000000  0.63483685  0.50000000  1
  Mg  Mg5  1  -0.00000000  0.92673665  0.36063224  1
  H  H0  1  0.80011938  0.83337966  0.50000000  1
  H  H1  1  0.69988062  0.16662034  0.00000000  1
  H  H2  1  0.73420000  0.50451936  0.00000000  1
  H  H3  1  0.23420000  0.49548064  0.50000000  1
  H  H4  1  0.76580000  0.49548064  0.50000000  1
  H  H5  1  0.26580000  0.50451936  0.00000000  1
  H  H6  1  0.50000000  0.90523213  0.00000000  1
  H  H7  1  -0.00000000  0.70703164  0.69747685  1
  H  H8  1  -0.00000000  0.09476787  0.50000000  1
  H  H9  1  0.50000000  0.29296836  0.19747685  1
  H  H10  1  -0.00000000  0.70703164  0.30252315  1
  H  H11  1  0.30011938  0.16662034  0.00000000  1
  H  H12  1  0.75000000  0.00000000  0.25000000  1
  H  H13  1  0.50000000  0.29296836  0.80252315  1
  H  H14  1  0.19988062  0.83337966  0.50000000  1
  H  H15  1  0.25000000  0.00000000  0.25000000  1
  H  H16  1  0.75000000  0.00000000  0.75000000  1
  H  H17  1  0.25000000  0.00000000  0.75000000  1
loop_
_geom_bond_atom_site_label_1
_geom_bond_atom_site_label_2
_geom_bond_distance
_geom_bond_site_symmetry_2
Cs0 H10 3.092605 1_655
Cs0 H10 3.092605 1_555
Cs0 H3 3.098830 1_555
Cs0 H4 3.098830 1_555
Cs0 H0 3.228877 1_555
Cs0 H14 3.228877 1_555
Cs0 H9 3.248708 1_555
Cs0 H12 3.270409 1_565
Cs0 H15 3.270409 1_565
Cs0 H5 3.385172 1_555
Cs0 H2 3.385172 1_555
Cs0 H6 3.446509 1_555
Cs1 H8 3.143606 1_555
Cs1 H8 3.143606 1_655
Cs1 H3 3.143989 1_555
Cs1 H4 3.143989 1_555
Cs1 H9 3.161263 1_555
Cs1 H13 3.161263 1_555
Cs1 H17 3.299052 1_555
Cs1 H15 3.299052 1_555
Cs1 H12 3.299052 1_555
Cs1 H16 3.299052 1_555
Cs2 H13 3.092605 1_455
Cs2 H13 3.092605 1_555
Cs2 H2 3.098830 1_456
Cs2 H5 3.098830 1_556
Cs2 H1 3.228877 1_456
Cs2 H11 3.228877 1_556
Cs2 H7 3.248708 1_555
Cs2 H16 3.270409 1_455
Cs2 H17 3.270409 1_555
Cs2 H4 3.385172 1_455
Cs2 H3 3.385172 1_555
Cs2 H8 3.446509 1_555
Cs3 H6 3.143606 1_555
Cs3 H6 3.143606 1_455
Cs3 H2 3.143989 1_455
Cs3 H5 3.143989 1_555
Cs3 H7 3.161263 1_554
Cs3 H10 3.161263 1_555
Cs3 H15 3.299052 1_565
Cs3 H16 3.299052 1_464
Cs3 H12 3.299052 1_465
Cs3 H17 3.299052 1_564
Cs4 H9 3.092605 1_555
Cs4 H9 3.092605 1_455
Cs4 H2 3.098830 1_455
Cs4 H5 3.098830 1_555
Cs4 H1 3.228877 1_455
Cs4 H11 3.228877 1_555
Cs4 H10 3.248708 1_555
Cs4 H15 3.270409 1_555
Cs4 H12 3.270409 1_455
Cs4 H4 3.385172 1_455
Cs4 H3 3.385172 1_555
Cs4 H8 3.446509 1_555
Cs5 H7 3.092605 1_555
Cs5 H7 3.092605 1_655
Cs5 H3 3.098830 1_555
Cs5 H4 3.098830 1_555
Cs5 H0 3.228877 1_555
Cs5 H14 3.228877 1_555
Cs5 H13 3.248708 1_555
Cs5 H17 3.270409 1_565
Cs5 H16 3.270409 1_565
Cs5 H5 3.385172 1_556
Cs5 H2 3.385172 1_556
Cs5 H6 3.446509 1_556
H0 Mg5 2.013101 1_655
H0 Mg2 2.013101 1_655
H0 Mg4 2.088496 1_655
H1 Mg3 2.013101 1_554
H1 Mg0 2.013101 1_555
H1 Mg1 2.088496 1_555
H2 Mg1 1.861390 1_555
H3 Mg4 1.861390 1_555
H4 Mg4 1.861390 1_655
H5 Mg1 1.861390 1_555
H6 Mg3 1.994287 1_564
H6 Mg0 1.994287 1_565
H7 Mg2 1.960870 1_555
H7 Mg4 2.059485 1_555
H8 Mg5 1.994287 1_545
H8 Mg2 1.994287 1_545
H9 Mg0 1.960870 1_555
H9 Mg1 2.059485 1_555
H10 Mg5 1.960870 1_555
H10 Mg4 2.059485 1_555
H11 Mg3 2.013101 1_554
H11 Mg0 2.013101 1_555
H11 Mg1 2.088496 1_555
H12 Mg5 1.985263 1_645
H12 Mg0 1.985263 1_555
H13 Mg3 1.960870 1_555
H13 Mg1 2.059485 1_556
H14 Mg5 2.013101 1_555
H14 Mg2 2.013101 1_555
H14 Mg4 2.088496 1_555
H15 Mg5 1.985263 1_545
H15 Mg0 1.985263 1_555
H16 Mg2 1.985263 1_645
H16 Mg3 1.985263 1_555
H17 Mg2 1.985263 1_545
H17 Mg3 1.985263 1_555
