# generated using pymatgen
data_KCa5Mg5Al(SiO3)12
_symmetry_space_group_name_H-M   'P 1'
_cell_length_a   6.66302055
_cell_length_b   6.66302055
_cell_length_c   15.95987558
_cell_angle_alpha   78.30423544
_cell_angle_beta   78.30423544
_cell_angle_gamma   85.14556226
_symmetry_Int_Tables_number   1
_chemical_formula_structural   KCa5Mg5Al(SiO3)12
_chemical_formula_sum   'K1 Ca5 Mg5 Al1 Si12 O36'
_cell_volume   678.73488545
_cell_formula_units_Z   1
loop_
 _symmetry_equiv_pos_site_id
 _symmetry_equiv_pos_as_xyz
  1  'x, y, z'
loop_
 _atom_site_type_symbol
 _atom_site_label
 _atom_site_symmetry_multiplicity
 _atom_site_fract_x
 _atom_site_fract_y
 _atom_site_fract_z
 _atom_site_occupancy
  K  K0  1  0.30560900  0.69439100  0.00000000  1
  Ca  Ca0  1  0.70088600  0.30529700  0.16763900  1
  Ca  Ca1  1  0.30313500  0.70093700  0.33216100  1
  Ca  Ca2  1  0.69962400  0.30037600  0.50000000  1
  Ca  Ca3  1  0.29906300  0.69686500  0.66783900  1
  Ca  Ca4  1  0.69470300  0.29911400  0.83236100  1
  Mg  Mg0  1  0.09440800  0.90381000  0.16588100  1
  Mg  Mg1  1  0.90770000  0.09086600  0.33392000  1
  Mg  Mg2  1  0.09370500  0.90629500  0.50000000  1
  Mg  Mg3  1  0.90913400  0.09230000  0.66608000  1
  Mg  Mg4  1  0.09619000  0.90559200  0.83411900  1
  Al  Al0  1  0.90565200  0.09434800  0.00000000  1
  Si  Si0  1  0.37809900  0.19571400  0.00949500  1
  Si  Si1  1  0.80428600  0.62190100  0.99050500  1
  Si  Si2  1  0.18855900  0.37609600  0.17633600  1
  Si  Si3  1  0.62420200  0.80626200  0.15666000  1
  Si  Si4  1  0.38102800  0.19240000  0.34041500  1
  Si  Si5  1  0.80924900  0.62172700  0.32630200  1
  Si  Si6  1  0.19467900  0.37916400  0.50638800  1
  Si  Si7  1  0.62083600  0.80532100  0.49361200  1
  Si  Si8  1  0.37827300  0.19075100  0.67369800  1
  Si  Si9  1  0.80760000  0.61897200  0.65958500  1
  Si  Si10  1  0.19373800  0.37579800  0.84334000  1
  Si  Si11  1  0.62390400  0.81144100  0.82366400  1
  O  O0  1  0.34636900  0.35666800  0.91602900  1
  O  O1  1  0.61706400  0.11556500  0.98213600  1
  O  O2  1  0.17835900  0.05312300  0.03467900  1
  O  O3  1  0.94687700  0.82164100  0.96532100  1
  O  O4  1  0.88443500  0.38293600  0.01786400  1
  O  O5  1  0.36895400  0.32245800  0.09061700  1
  O  O6  1  0.64333200  0.65363100  0.08397100  1
  O  O7  1  0.09115700  0.60262700  0.15280900  1
  O  O8  1  0.02617700  0.19494400  0.20393600  1
  O  O9  1  0.80030200  0.97877000  0.12118500  1
  O  O10  1  0.39152600  0.88582200  0.18439900  1
  O  O11  1  0.33108000  0.36883600  0.25342600  1
  O  O12  1  0.66816700  0.64296800  0.24800000  1
  O  O13  1  0.61242200  0.11237700  0.30812500  1
  O  O14  1  0.20476000  0.02592200  0.36964100  1
  O  O15  1  0.97510900  0.79850000  0.29784700  1
  O  O16  1  0.88427700  0.38808100  0.35627700  1
  O  O17  1  0.37194600  0.32961700  0.41892000  1
  O  O18  1  0.63291400  0.66824500  0.41476100  1
  O  O19  1  0.11638000  0.61120300  0.47509800  1
  O  O20  1  0.02762800  0.20312700  0.53564800  1
  O  O21  1  0.79687300  0.97237200  0.46435200  1
  O  O22  1  0.38879700  0.88362000  0.52490200  1
  O  O23  1  0.33175500  0.36708600  0.58523900  1
  O  O24  1  0.67038300  0.62805400  0.58108000  1
  O  O25  1  0.61191900  0.11572300  0.64372300  1
  O  O26  1  0.20150000  0.02489100  0.70215300  1
  O  O27  1  0.97407800  0.79524000  0.63035900  1
  O  O28  1  0.88762300  0.38757800  0.69187500  1
  O  O29  1  0.35703200  0.33183300  0.75200000  1
  O  O30  1  0.63116400  0.66892000  0.74657400  1
  O  O31  1  0.11417800  0.60847400  0.81560100  1
  O  O32  1  0.02123000  0.19969800  0.87881500  1
  O  O33  1  0.80505600  0.97382300  0.79606400  1
  O  O34  1  0.39737300  0.90884300  0.84719100  1
  O  O35  1  0.67754200  0.63104600  0.90938300  1
loop_
_geom_bond_atom_site_label_1
_geom_bond_atom_site_label_2
_geom_bond_distance
_geom_bond_site_symmetry_2
K0 O7 2.548305 1_555
K0 O34 2.548305 1_554
K0 O3 2.596450 1_454
K0 O2 2.596450 1_565
K0 O5 2.651145 1_555
K0 O35 2.651145 1_554
K0 O6 2.811604 1_555
K0 O0 2.811604 1_554
Ca0 O13 2.334712 1_555
Ca0 O8 2.374988 1_655
Ca0 O4 2.428533 1_555
Ca0 O9 2.435751 1_545
Ca0 O6 2.473348 1_555
Ca0 O11 2.610730 1_555
Ca0 O5 2.723620 1_555
Ca0 O12 2.779945 1_555
Ca1 O19 2.352035 1_555
Ca1 O15 2.366436 1_455
Ca1 O14 2.366917 1_565
Ca1 O10 2.409916 1_555
Ca1 O12 2.568242 1_555
Ca1 O17 2.631580 1_555
Ca1 O11 2.733665 1_555
Ca1 O18 2.755093 1_555
Ca2 O25 2.356017 1_555
Ca2 O16 2.356017 1_555
Ca2 O20 2.373800 1_655
Ca2 O21 2.373800 1_545
Ca2 O18 2.600981 1_555
Ca2 O23 2.600981 1_555
Ca2 O17 2.729581 1_555
Ca2 O24 2.729581 1_555
Ca3 O22 2.352035 1_555
Ca3 O26 2.366436 1_565
Ca3 O27 2.366917 1_455
Ca3 O31 2.409916 1_555
Ca3 O29 2.568242 1_555
Ca3 O24 2.631580 1_555
Ca3 O30 2.733665 1_555
Ca3 O23 2.755093 1_555
Ca4 O28 2.334712 1_555
Ca4 O33 2.374988 1_545
Ca4 O1 2.428533 1_555
Ca4 O32 2.435751 1_655
Ca4 O0 2.473348 1_555
Ca4 O30 2.610730 1_555
Ca4 O35 2.723620 1_555
Ca4 O29 2.779945 1_555
Mg0 O10 2.050276 1_555
Mg0 O7 2.061583 1_555
Mg0 O15 2.092033 1_455
Mg0 O2 2.112362 1_565
Mg0 O8 2.134236 1_565
Mg0 O9 2.203436 1_455
Mg1 O8 2.062324 1_655
Mg1 O16 2.070038 1_555
Mg1 O21 2.076330 1_545
Mg1 O13 2.077883 1_555
Mg1 O15 2.128339 1_545
Mg1 O14 2.154640 1_655
Mg2 O22 2.070974 1_555
Mg2 O19 2.070974 1_555
Mg2 O14 2.077195 1_565
Mg2 O27 2.077195 1_455
Mg2 O20 2.153251 1_565
Mg2 O21 2.153251 1_455
Mg3 O33 2.062324 1_545
Mg3 O25 2.070038 1_555
Mg3 O20 2.076330 1_655
Mg3 O28 2.077883 1_555
Mg3 O26 2.128339 1_655
Mg3 O27 2.154640 1_545
Mg4 O31 2.050276 1_555
Mg4 O34 2.061583 1_555
Mg4 O26 2.092033 1_565
Mg4 O3 2.112362 1_455
Mg4 O33 2.134236 1_455
Mg4 O32 2.203436 1_565
Al0 O32 1.940030 1_654
Al0 O9 1.940030 1_545
Al0 O2 1.986224 1_655
Al0 O3 1.986224 1_544
Al0 O4 1.989625 1_555
Al0 O1 1.989625 1_554
O0 Si10 1.671164 1_555
O0 Si0 1.691421 1_556
O1 Si0 1.637009 1_556
O2 Si0 1.636382 1_555
O3 Si1 1.636382 1_555
O4 Si1 1.637009 1_554
O5 Si0 1.672041 1_555
O5 Si2 1.703795 1_555
O6 Si3 1.671164 1_555
O6 Si1 1.691421 1_554
O7 Si2 1.594879 1_555
O8 Si2 1.622899 1_555
O9 Si3 1.647295 1_555
O10 Si3 1.599470 1_555
O11 Si2 1.691052 1_555
O11 Si4 1.696955 1_555
O12 Si5 1.687445 1_555
O12 Si3 1.694364 1_555
O13 Si4 1.605337 1_555
O14 Si4 1.617410 1_555
O15 Si5 1.617042 1_555
O16 Si5 1.601767 1_555
O17 Si4 1.683369 1_555
O17 Si6 1.704460 1_555
O18 Si7 1.684300 1_555
O18 Si5 1.706736 1_555
O19 Si6 1.602502 1_555
O20 Si6 1.618928 1_555
O21 Si7 1.618928 1_555
O22 Si7 1.602502 1_555
O23 Si6 1.684300 1_555
O23 Si8 1.706736 1_555
O24 Si9 1.683369 1_555
O24 Si7 1.704460 1_555
O25 Si8 1.601767 1_555
O26 Si8 1.617042 1_555
O27 Si9 1.617410 1_555
O28 Si9 1.605337 1_555
O29 Si8 1.687445 1_555
O29 Si10 1.694364 1_555
O30 Si11 1.691052 1_555
O30 Si9 1.696955 1_555
O31 Si10 1.599470 1_555
O32 Si10 1.647295 1_555
O33 Si11 1.622899 1_555
O34 Si11 1.594879 1_555
O35 Si1 1.672041 1_555
O35 Si11 1.703795 1_555
