# generated using pymatgen
data_Ba3YbRu2O9
_symmetry_space_group_name_H-M   'P 1'
_cell_length_a   5.96669883
_cell_length_b   5.96669883
_cell_length_c   14.44656800
_cell_angle_alpha   90.00000000
_cell_angle_beta   90.00000000
_cell_angle_gamma   120.00000917
_symmetry_Int_Tables_number   1
_chemical_formula_structural   Ba3YbRu2O9
_chemical_formula_sum   'Ba6 Yb2 Ru4 O18'
_cell_volume   445.41363953
_cell_formula_units_Z   2
loop_
 _symmetry_equiv_pos_site_id
 _symmetry_equiv_pos_as_xyz
  1  'x, y, z'
loop_
 _atom_site_type_symbol
 _atom_site_label
 _atom_site_symmetry_multiplicity
 _atom_site_fract_x
 _atom_site_fract_y
 _atom_site_fract_z
 _atom_site_occupancy
  Ba  Ba0  1  0.00000000  0.00000000  0.25000000  1
  Ba  Ba1  1  0.00000000  0.00000000  0.75000000  1
  Ba  Ba2  1  0.33333300  0.66666700  0.90775300  1
  Ba  Ba3  1  0.66666700  0.33333300  0.40775300  1
  Ba  Ba4  1  0.66666700  0.33333300  0.09224700  1
  Ba  Ba5  1  0.33333300  0.66666700  0.59224700  1
  Yb  Yb0  1  0.00000000  0.00000000  0.00000000  1
  Yb  Yb1  1  0.00000000  0.00000000  0.50000000  1
  Ru  Ru0  1  0.33333300  0.66666700  0.16383700  1
  Ru  Ru1  1  0.66666700  0.33333300  0.66383700  1
  Ru  Ru2  1  0.66666700  0.33333300  0.83616300  1
  Ru  Ru3  1  0.33333300  0.66666700  0.33616300  1
  O  O0  1  0.49205300  0.98410600  0.25000000  1
  O  O1  1  0.50794700  0.49205300  0.75000000  1
  O  O2  1  0.98410600  0.49205300  0.75000000  1
  O  O3  1  0.01589400  0.50794700  0.25000000  1
  O  O4  1  0.49205300  0.50794700  0.25000000  1
  O  O5  1  0.50794700  0.01589400  0.75000000  1
  O  O6  1  0.17846500  0.35692900  0.41025700  1
  O  O7  1  0.82153500  0.17846500  0.91025700  1
  O  O8  1  0.35692900  0.17846500  0.91025700  1
  O  O9  1  0.64307100  0.82153500  0.41025700  1
  O  O10  1  0.17846500  0.82153500  0.41025700  1
  O  O11  1  0.82153500  0.64307100  0.58974300  1
  O  O12  1  0.82153500  0.17846500  0.58974300  1
  O  O13  1  0.82153500  0.64307100  0.91025700  1
  O  O14  1  0.35692900  0.17846500  0.58974300  1
  O  O15  1  0.64307100  0.82153500  0.08974300  1
  O  O16  1  0.17846500  0.35692900  0.08974300  1
  O  O17  1  0.17846500  0.82153500  0.08974300  1
loop_
_geom_bond_atom_site_label_1
_geom_bond_atom_site_label_2
_geom_bond_distance
_geom_bond_site_symmetry_2
Ba0 O16 2.960010 1_555
Ba0 O6 2.960010 1_555
Ba0 O15 2.960010 1_445
Ba0 O9 2.960010 1_445
Ba0 O10 2.960013 1_545
Ba0 O17 2.960013 1_545
Ba0 O4 2.984479 1_445
Ba0 O4 2.984479 1_555
Ba0 O0 2.984480 1_445
Ba0 O3 2.984480 1_555
Ba0 O3 2.984480 1_545
Ba0 O0 2.984480 1_545
Ba1 O14 2.960010 1_555
Ba1 O8 2.960010 1_555
Ba1 O11 2.960010 1_445
Ba1 O13 2.960010 1_445
Ba1 O12 2.960013 1_455
Ba1 O7 2.960013 1_455
Ba1 O1 2.984479 1_445
Ba1 O1 2.984479 1_555
Ba1 O2 2.984480 1_445
Ba1 O5 2.984480 1_555
Ba1 O5 2.984480 1_455
Ba1 O2 2.984480 1_455
Ba2 O2 2.906931 1_455
Ba2 O5 2.906931 1_565
Ba2 O1 2.906934 1_555
Ba2 O7 2.986059 1_455
Ba2 O7 2.986059 1_565
Ba2 O13 2.986059 1_455
Ba2 O8 2.986059 1_565
Ba2 O13 2.986059 1_555
Ba2 O8 2.986059 1_555
Ba2 O17 3.077976 1_556
Ba2 O15 3.077982 1_556
Ba2 O16 3.077982 1_556
Ba3 O3 2.906931 1_655
Ba3 O0 2.906931 1_545
Ba3 O4 2.906934 1_555
Ba3 O10 2.986059 1_545
Ba3 O10 2.986059 1_655
Ba3 O9 2.986059 1_545
Ba3 O6 2.986059 1_655
Ba3 O6 2.986059 1_555
Ba3 O9 2.986059 1_555
Ba3 O12 3.077976 1_555
Ba3 O11 3.077982 1_555
Ba3 O14 3.077982 1_555
Ba4 O3 2.906931 1_655
Ba4 O0 2.906931 1_545
Ba4 O4 2.906934 1_555
Ba4 O17 2.986059 1_545
Ba4 O17 2.986059 1_655
Ba4 O15 2.986059 1_545
Ba4 O16 2.986059 1_655
Ba4 O16 2.986059 1_555
Ba4 O15 2.986059 1_555
Ba4 O7 3.077976 1_554
Ba4 O13 3.077982 1_554
Ba4 O8 3.077982 1_554
Ba5 O2 2.906931 1_455
Ba5 O5 2.906931 1_565
Ba5 O1 2.906934 1_555
Ba5 O12 2.986059 1_455
Ba5 O12 2.986059 1_565
Ba5 O11 2.986059 1_455
Ba5 O14 2.986059 1_565
Ba5 O14 2.986059 1_555
Ba5 O11 2.986059 1_555
Ba5 O10 3.077976 1_555
Ba5 O9 3.077982 1_555
Ba5 O6 3.077982 1_555
O0 Ru3 2.059134 1_555
O0 Ru0 2.059134 1_555
O1 Ru2 2.059138 1_555
O1 Ru1 2.059138 1_555
O2 Ru2 2.059134 1_555
O2 Ru1 2.059134 1_555
O3 Ru3 2.059134 1_555
O3 Ru0 2.059134 1_555
O4 Ru0 2.059138 1_555
O4 Ru3 2.059138 1_555
O5 Ru2 2.059134 1_555
O5 Ru1 2.059134 1_555
O6 Ru3 1.925463 1_555
O6 Yb1 2.254447 1_555
O7 Ru2 1.925454 1_555
O7 Yb0 2.254452 1_656
O8 Ru2 1.925463 1_555
O8 Yb0 2.254447 1_556
O9 Ru3 1.925463 1_555
O9 Yb1 2.254447 1_665
O10 Ru3 1.925454 1_555
O10 Yb1 2.254452 1_565
O11 Ru1 1.925463 1_555
O11 Yb1 2.254447 1_665
O12 Ru1 1.925454 1_555
O12 Yb1 2.254452 1_655
O13 Ru2 1.925463 1_555
O13 Yb0 2.254447 1_666
O14 Ru1 1.925463 1_555
O14 Yb1 2.254447 1_555
O15 Ru0 1.925463 1_555
O15 Yb0 2.254447 1_665
O16 Ru0 1.925463 1_555
O16 Yb0 2.254447 1_555
O17 Ru0 1.925454 1_555
O17 Yb0 2.254452 1_565
