# generated using pymatgen
data_Mg(FeO2)2
_symmetry_space_group_name_H-M   'P 1'
_cell_length_a   5.92478342
_cell_length_b   5.81774304
_cell_length_c   29.46112600
_cell_angle_alpha   60.42920295
_cell_angle_beta   60.07713210
_cell_angle_gamma   60.57877826
_symmetry_Int_Tables_number   1
_chemical_formula_structural   Mg(FeO2)2
_chemical_formula_sum   'Mg10 Fe20 O40'
_cell_volume   723.90720191
_cell_formula_units_Z   10
loop_
 _symmetry_equiv_pos_site_id
 _symmetry_equiv_pos_as_xyz
  1  'x, y, z'
loop_
 _atom_site_type_symbol
 _atom_site_label
 _atom_site_symmetry_multiplicity
 _atom_site_fract_x
 _atom_site_fract_y
 _atom_site_fract_z
 _atom_site_occupancy
  Mg  Mg0  1  0.14534400  0.11757500  0.02392100  1
  Mg  Mg1  1  0.13846000  0.12474200  0.22244800  1
  Mg  Mg2  1  0.13300100  0.11877600  0.42599000  1
  Mg  Mg3  1  0.00843800  0.49939700  0.09855600  1
  Mg  Mg4  1  0.99833200  0.50005000  0.50032500  1
  Mg  Mg5  1  0.00158100  0.49601800  0.30130400  1
  Mg  Mg6  1  0.00000900  0.50001000  0.70000100  1
  Mg  Mg7  1  0.49946700  0.50110400  0.59966600  1
  Mg  Mg8  1  0.00174400  0.50060700  0.89940800  1
  Mg  Mg9  1  0.50262600  0.49855900  0.80005000  1
  Fe  Fe0  1  0.50172300  0.49862300  0.00020900  1
  Fe  Fe1  1  0.50860600  0.49900900  0.09789500  1
  Fe  Fe2  1  0.49407600  0.49933900  0.20134500  1
  Fe  Fe3  1  0.50859600  0.00295900  0.09787400  1
  Fe  Fe4  1  0.49696100  0.49930900  0.30077500  1
  Fe  Fe5  1  0.49482800  0.49638200  0.40246300  1
  Fe  Fe6  1  0.49479500  0.00654100  0.50059300  1
  Fe  Fe7  1  0.86599800  0.88116400  0.17421900  1
  Fe  Fe8  1  0.49685300  0.00021500  0.30074300  1
  Fe  Fe9  1  0.13134500  0.11432200  0.62802200  1
  Fe  Fe10  1  0.49481400  0.49575200  0.50059200  1
  Fe  Fe11  1  0.85809700  0.87435000  0.37857000  1
  Fe  Fe12  1  0.13174500  0.11760300  0.82664300  1
  Fe  Fe13  1  0.49961400  0.00017800  0.70014300  1
  Fe  Fe14  1  0.49961500  0.49947400  0.70014600  1
  Fe  Fe15  1  0.86341500  0.88332700  0.57396800  1
  Fe  Fe16  1  0.49413600  0.50865200  0.90005600  1
  Fe  Fe17  1  0.86765100  0.88437000  0.77270100  1
  Fe  Fe18  1  0.49418600  0.99694600  0.90004900  1
  Fe  Fe19  1  0.85609100  0.88768000  0.97368300  1
  O  O0  1  0.29033200  0.25245300  0.04963400  1
  O  O1  1  0.28882800  0.25580900  0.13995500  1
  O  O2  1  0.29016700  0.70904900  0.04967800  1
  O  O3  1  0.73416000  0.24563800  0.05485400  1
  O  O4  1  0.27597900  0.75758400  0.14183900  1
  O  O5  1  0.26524100  0.25018800  0.25257100  1
  O  O6  1  0.73511500  0.74787000  0.05377800  1
  O  O7  1  0.73426800  0.28037400  0.14481400  1
  O  O8  1  0.26574600  0.72137000  0.25273600  1
  O  O9  1  0.27107200  0.25372900  0.34498200  1
  O  O10  1  0.73529300  0.25823000  0.24937100  1
  O  O11  1  0.73392900  0.76126400  0.14483900  1
  O  O12  1  0.25803200  0.72725800  0.35776800  1
  O  O13  1  0.28060100  0.25161500  0.45236900  1
  O  O14  1  0.73685100  0.74162600  0.25530600  1
  O  O15  1  0.72699500  0.27422600  0.35322700  1
  O  O16  1  0.26602000  0.25168200  0.54618300  1
  O  O17  1  0.28045000  0.70601000  0.45239700  1
  O  O18  1  0.72739900  0.73168500  0.35340000  1
  O  O19  1  0.71125200  0.26090900  0.45330100  1
  O  O20  1  0.27020800  0.23931200  0.65395100  1
  O  O21  1  0.27414200  0.75232000  0.54428000  1
  O  O22  1  0.73005800  0.27734000  0.54549900  1
  O  O23  1  0.71512800  0.74787700  0.45778600  1
  O  O24  1  0.27377500  0.25128200  0.74478400  1
  O  O25  1  0.27001600  0.72077700  0.65399500  1
  O  O26  1  0.72979900  0.76501000  0.54556300  1
  O  O27  1  0.72271400  0.25163800  0.65475100  1
  O  O28  1  0.27663800  0.74869000  0.74524600  1
  O  O29  1  0.26905400  0.23971300  0.85340700  1
  O  O30  1  0.73068800  0.27807900  0.74602600  1
  O  O31  1  0.72437500  0.74867300  0.65560300  1
  O  O32  1  0.26883300  0.72429800  0.85345400  1
  O  O33  1  0.27998500  0.25637800  0.94151500  1
  O  O34  1  0.73049400  0.76104700  0.74606300  1
  O  O35  1  0.72318200  0.24836100  0.85599400  1
  O  O36  1  0.26035800  0.75969300  0.94410700  1
  O  O37  1  0.71718600  0.28877300  0.94862700  1
  O  O38  1  0.72647400  0.74829700  0.85533100  1
  O  O39  1  0.71701600  0.75083800  0.94866300  1
loop_
_geom_bond_atom_site_label_1
_geom_bond_atom_site_label_2
_geom_bond_distance
_geom_bond_site_symmetry_2
Mg0 O0 1.955930 1_555
Mg0 O2 1.956212 1_545
Mg0 O33 1.987021 1_554
Mg0 O3 1.998131 1_455
Mg1 O5 1.930629 1_555
Mg1 O8 1.933367 1_545
Mg1 O10 1.957873 1_455
Mg1 O1 1.989941 1_555
Mg2 O9 1.953261 1_555
Mg2 O13 1.975038 1_555
Mg2 O17 1.976892 1_545
Mg2 O19 2.048384 1_455
Mg3 O0 2.053182 1_555
Mg3 O2 2.053308 1_555
Mg3 O11 2.056438 1_455
Mg3 O7 2.056831 1_455
Mg3 O1 2.063535 1_555
Mg3 O6 2.098007 1_455
Mg4 O13 2.040930 1_655
Mg4 O17 2.041200 1_655
Mg4 O26 2.046079 1_555
Mg4 O22 2.046283 1_555
Mg4 O16 2.094756 1_655
Mg4 O23 2.098230 1_555
Mg5 O5 2.034978 1_555
Mg5 O8 2.036161 1_555
Mg5 O9 2.059259 1_555
Mg5 O18 2.067769 1_455
Mg5 O15 2.069543 1_455
Mg5 O14 2.084655 1_455
Mg6 O20 2.045084 1_555
Mg6 O25 2.045245 1_555
Mg6 O34 2.046312 1_455
Mg6 O30 2.046782 1_455
Mg6 O24 2.100067 1_555
Mg6 O31 2.100728 1_455
Mg7 O20 2.045353 1_555
Mg7 O25 2.045607 1_555
Mg7 O26 2.057460 1_555
Mg7 O22 2.058112 1_555
Mg7 O27 2.102484 1_555
Mg7 O21 2.117408 1_555
Mg8 O29 2.043514 1_555
Mg8 O32 2.043890 1_555
Mg8 O33 2.067533 1_555
Mg8 O39 2.073852 1_455
Mg8 O37 2.074209 1_455
Mg8 O38 2.092777 1_455
Mg9 O34 2.042143 1_555
Mg9 O30 2.042287 1_555
Mg9 O29 2.048054 1_555
Mg9 O32 2.048597 1_555
Mg9 O28 2.107319 1_555
Mg9 O35 2.110674 1_555
Fe0 O0 1.903802 1_555
Fe0 O2 1.903879 1_555
Fe0 O39 1.947617 1_554
Fe0 O37 1.947836 1_554
Fe0 O3 2.129890 1_555
Fe0 O36 2.197768 1_554
Fe1 O1 1.924250 1_555
Fe1 O2 1.937328 1_555
Fe1 O7 1.937485 1_555
Fe1 O3 1.945646 1_555
Fe1 O6 1.974301 1_555
Fe1 O4 1.985890 1_555
Fe2 O5 1.986735 1_555
Fe2 O8 1.990228 1_555
Fe2 O10 2.025099 1_555
Fe2 O7 2.090489 1_555
Fe2 O11 2.091962 1_555
Fe2 O4 2.180242 1_555
Fe3 O1 1.924581 1_555
Fe3 O11 1.937098 1_545
Fe3 O0 1.937104 1_555
Fe3 O3 1.945094 1_555
Fe3 O6 1.974319 1_545
Fe3 O4 1.985433 1_545
Fe4 O9 1.957462 1_555
Fe4 O8 1.984837 1_555
Fe4 O14 2.001753 1_555
Fe4 O10 2.066814 1_555
Fe4 O15 2.076235 1_555
Fe4 O12 2.136337 1_555
Fe5 O13 1.909951 1_555
Fe5 O17 1.910379 1_555
Fe5 O12 1.937100 1_555
Fe5 O18 1.942966 1_555
Fe5 O15 1.944157 1_555
Fe5 O19 1.982237 1_555
Fe6 O13 1.919284 1_555
Fe6 O26 1.936277 1_545
Fe6 O19 1.955182 1_555
Fe6 O16 1.962230 1_555
Fe6 O23 1.964645 1_545
Fe6 O21 1.973612 1_545
Fe7 O11 1.912048 1_555
Fe7 O7 1.913507 1_565
Fe7 O14 1.955483 1_555
Fe7 O4 1.994143 1_655
Fe8 O9 1.970512 1_555
Fe8 O5 1.989320 1_555
Fe8 O14 2.015954 1_545
Fe8 O10 2.060947 1_555
Fe8 O18 2.082924 1_545
Fe8 O12 2.132849 1_545
Fe9 O20 1.884734 1_555
Fe9 O25 1.884815 1_545
Fe9 O16 1.973306 1_555
Fe9 O27 1.984558 1_455
Fe10 O17 1.919364 1_555
Fe10 O22 1.935983 1_555
Fe10 O19 1.956337 1_555
Fe10 O16 1.962134 1_555
Fe10 O23 1.964364 1_555
Fe10 O21 1.973331 1_555
Fe11 O18 1.910538 1_555
Fe11 O23 1.910681 1_555
Fe11 O15 1.913570 1_565
Fe11 O12 1.949170 1_655
Fe12 O29 1.883841 1_555
Fe12 O32 1.884028 1_545
Fe12 O24 1.973867 1_555
Fe12 O35 1.984390 1_455
Fe13 O20 1.937470 1_555
Fe13 O34 1.938001 1_545
Fe13 O31 1.968130 1_545
Fe13 O24 1.968351 1_555
Fe13 O28 1.969855 1_545
Fe13 O27 1.970039 1_555
Fe14 O25 1.937420 1_555
Fe14 O30 1.937981 1_555
Fe14 O31 1.967931 1_555
Fe14 O24 1.968028 1_555
Fe14 O28 1.970078 1_555
Fe14 O27 1.970251 1_555
Fe15 O26 1.888295 1_555
Fe15 O22 1.888495 1_565
Fe15 O31 1.968355 1_555
Fe15 O21 1.994996 1_655
Fe16 O32 1.929736 1_555
Fe16 O33 1.941598 1_555
Fe16 O36 1.955956 1_555
Fe16 O38 1.958985 1_555
Fe16 O37 1.962023 1_555
Fe16 O35 1.995888 1_555
Fe17 O34 1.885677 1_555
Fe17 O30 1.885735 1_565
Fe17 O28 1.986106 1_655
Fe17 O38 1.992358 1_555
Fe18 O29 1.929875 1_565
Fe18 O33 1.942230 1_565
Fe18 O36 1.955906 1_555
Fe18 O38 1.959205 1_555
Fe18 O39 1.962044 1_555
Fe18 O35 1.995955 1_565
Fe19 O39 1.919825 1_555
Fe19 O37 1.920029 1_565
Fe19 O6 1.932480 1_556
Fe19 O36 1.963837 1_655
