# generated using pymatgen
data_BaMgSiO4
_symmetry_space_group_name_H-M   'P 1'
_cell_length_a   9.24189848
_cell_length_b   9.24189848
_cell_length_c   8.88308200
_cell_angle_alpha   90.00000000
_cell_angle_beta   90.00000000
_cell_angle_gamma   120.00000343
_symmetry_Int_Tables_number   1
_chemical_formula_structural   BaMgSiO4
_chemical_formula_sum   'Ba6 Mg6 Si6 O24'
_cell_volume   657.07761918
_cell_formula_units_Z   6
loop_
 _symmetry_equiv_pos_site_id
 _symmetry_equiv_pos_as_xyz
  1  'x, y, z'
loop_
 _atom_site_type_symbol
 _atom_site_label
 _atom_site_symmetry_multiplicity
 _atom_site_fract_x
 _atom_site_fract_y
 _atom_site_fract_z
 _atom_site_occupancy
  Ba  Ba0  1  0.66666700  0.33333300  0.73916700  1
  Ba  Ba1  1  0.00000000  0.00000000  0.24824000  1
  Ba  Ba2  1  0.33333300  0.66666700  0.23916700  1
  Ba  Ba3  1  0.33333300  0.66666700  0.73125600  1
  Ba  Ba4  1  0.00000000  0.00000000  0.74824000  1
  Ba  Ba5  1  0.66666700  0.33333300  0.23125600  1
  Mg  Mg0  1  0.67756700  0.66625300  0.53906000  1
  Mg  Mg1  1  0.01131400  0.67756700  0.03906000  1
  Mg  Mg2  1  0.98868600  0.32243300  0.53906000  1
  Mg  Mg3  1  0.33374700  0.01131400  0.53906000  1
  Mg  Mg4  1  0.66625300  0.98868600  0.03906000  1
  Mg  Mg5  1  0.32243300  0.33374700  0.03906000  1
  Si  Si0  1  0.32763200  0.33884700  0.43447600  1
  Si  Si1  1  0.01121500  0.67236800  0.43447600  1
  Si  Si2  1  0.66115300  0.98878500  0.43447600  1
  Si  Si3  1  0.98878500  0.32763200  0.93447600  1
  Si  Si4  1  0.67236800  0.66115300  0.93447600  1
  Si  Si5  1  0.33884700  0.01121500  0.93447600  1
  O  O0  1  0.65003000  0.94322900  0.25370600  1
  O  O1  1  0.53274500  0.09541400  0.99650100  1
  O  O2  1  0.09541400  0.56266900  0.49650100  1
  O  O3  1  0.76445700  0.90693800  0.51511900  1
  O  O4  1  0.19351100  0.43037500  0.95558400  1
  O  O5  1  0.46725500  0.90458600  0.49650100  1
  O  O6  1  0.29319900  0.34997000  0.25370600  1
  O  O7  1  0.56962500  0.76313700  0.95558400  1
  O  O8  1  0.56266900  0.46725500  0.99650100  1
  O  O9  1  0.94322900  0.29319900  0.75370600  1
  O  O10  1  0.70680100  0.65003000  0.75370600  1
  O  O11  1  0.80648900  0.56962500  0.45558400  1
  O  O12  1  0.90458600  0.43733100  0.99650100  1
  O  O13  1  0.23686300  0.80648900  0.95558400  1
  O  O14  1  0.43733100  0.53274500  0.49650100  1
  O  O15  1  0.14248000  0.23554300  0.51511900  1
  O  O16  1  0.23554300  0.09306200  0.01511900  1
  O  O17  1  0.85752000  0.76445700  0.01511900  1
  O  O18  1  0.90693800  0.14248000  0.01511900  1
  O  O19  1  0.05677100  0.70680100  0.25370600  1
  O  O20  1  0.43037500  0.23686300  0.45558400  1
  O  O21  1  0.76313700  0.19351100  0.45558400  1
  O  O22  1  0.09306200  0.85752000  0.51511900  1
  O  O23  1  0.34997000  0.05677100  0.75370600  1
loop_
_geom_bond_atom_site_label_1
_geom_bond_atom_site_label_2
_geom_bond_distance
_geom_bond_site_symmetry_2
Ba0 O9 2.763190 1_555
Ba0 O23 2.763196 1_555
Ba0 O10 2.763199 1_555
Ba0 O12 2.978366 1_555
Ba0 O1 2.978366 1_555
Ba0 O8 2.978371 1_555
Ba0 O11 3.156366 1_555
Ba0 O20 3.156366 1_555
Ba0 O21 3.156366 1_555
Ba1 O18 2.809719 1_455
Ba1 O17 2.809724 1_445
Ba1 O16 2.809725 1_555
Ba1 O6 3.006976 1_555
Ba1 O0 3.006976 1_445
Ba1 O19 3.006976 1_545
Ba1 O22 3.037504 1_545
Ba1 O15 3.037508 1_555
Ba1 O3 3.037509 1_445
Ba2 O19 2.763190 1_555
Ba2 O0 2.763196 1_555
Ba2 O6 2.763199 1_555
Ba2 O2 2.978366 1_555
Ba2 O5 2.978366 1_555
Ba2 O14 2.978371 1_555
Ba2 O4 3.156366 1_554
Ba2 O7 3.156366 1_554
Ba2 O13 3.156366 1_554
Ba3 O4 2.754591 1_555
Ba3 O7 2.754591 1_555
Ba3 O13 2.754591 1_555
Ba3 O2 2.827351 1_555
Ba3 O5 2.827351 1_555
Ba3 O14 2.827357 1_555
Ba4 O22 2.809719 1_545
Ba4 O15 2.809724 1_555
Ba4 O3 2.809725 1_445
Ba4 O10 3.006976 1_445
Ba4 O23 3.006976 1_555
Ba4 O9 3.006976 1_455
Ba4 O18 3.037504 1_456
Ba4 O17 3.037508 1_446
Ba4 O16 3.037509 1_556
Ba5 O11 2.754591 1_555
Ba5 O20 2.754591 1_555
Ba5 O21 2.754591 1_555
Ba5 O12 2.827351 1_554
Ba5 O1 2.827351 1_554
Ba5 O8 2.827357 1_554
Mg0 O10 1.942050 1_555
Mg0 O11 1.957298 1_555
Mg0 O3 1.962583 1_555
Mg0 O14 1.963499 1_555
Mg1 O19 1.942050 1_555
Mg1 O13 1.957291 1_554
Mg1 O17 1.962574 1_455
Mg1 O12 1.963499 1_454
Mg2 O9 1.942050 1_555
Mg2 O21 1.957291 1_555
Mg2 O15 1.962574 1_655
Mg2 O2 1.963499 1_655
Mg3 O23 1.942050 1_555
Mg3 O20 1.957290 1_555
Mg3 O22 1.962581 1_545
Mg3 O5 1.963499 1_545
Mg4 O0 1.942050 1_555
Mg4 O7 1.957290 1_554
Mg4 O18 1.962581 1_565
Mg4 O1 1.963499 1_564
Mg5 O6 1.942050 1_555
Mg5 O4 1.957298 1_554
Mg5 O16 1.962583 1_555
Mg5 O8 1.963499 1_554
O0 Si2 1.650189 1_555
O1 Si5 1.651020 1_555
O2 Si1 1.651020 1_555
O3 Si2 1.648944 1_555
O4 Si3 1.649266 1_455
O5 Si2 1.651020 1_555
O6 Si0 1.650189 1_555
O7 Si4 1.649274 1_555
O8 Si4 1.651020 1_555
O9 Si3 1.650189 1_555
O10 Si4 1.650189 1_555
O11 Si1 1.649266 1_655
O12 Si3 1.651020 1_555
O13 Si5 1.649266 1_565
O14 Si0 1.651020 1_555
O15 Si0 1.648951 1_555
O16 Si5 1.648944 1_554
O17 Si4 1.648951 1_554
O18 Si3 1.648952 1_554
O19 Si1 1.650189 1_555
O20 Si0 1.649274 1_555
O21 Si2 1.649266 1_545
O22 Si1 1.648952 1_555
O23 Si5 1.650189 1_555
