# generated using pymatgen
data_Tb3(CuSn)4
_symmetry_space_group_name_H-M   'P 1'
_cell_length_a   4.45581776
_cell_length_b   6.91798534
_cell_length_c   8.42643913
_cell_angle_alpha   114.28813014
_cell_angle_beta   105.30752454
_cell_angle_gamma   89.94790996
_symmetry_Int_Tables_number   1
_chemical_formula_structural   Tb3(CuSn)4
_chemical_formula_sum   'Tb3 Cu4 Sn4'
_cell_volume   226.63788212
_cell_formula_units_Z   1
loop_
 _symmetry_equiv_pos_site_id
 _symmetry_equiv_pos_as_xyz
  1  'x, y, z'
loop_
 _atom_site_type_symbol
 _atom_site_label
 _atom_site_symmetry_multiplicity
 _atom_site_fract_x
 _atom_site_fract_y
 _atom_site_fract_z
 _atom_site_occupancy
  Tb  Tb0  1  0.86810100  0.36898126  0.73569295  1
  Tb  Tb1  1  -0.00000000  0.00000000  0.00000000  1
  Tb  Tb2  1  0.13189900  0.63101874  0.26430705  1
  Cu  Cu0  1  0.67383894  0.98442360  0.34207033  1
  Cu  Cu1  1  0.32984754  0.64362884  0.66198553  1
  Cu  Cu2  1  0.67015246  0.35637116  0.33801447  1
  Cu  Cu3  1  0.32616106  0.01557640  0.65792967  1
  Sn  Sn0  1  0.50109376  0.70314620  0.00169822  1
  Sn  Sn1  1  0.49890624  0.29685380  0.99830178  1
  Sn  Sn2  1  0.78202702  0.78218186  0.56740377  1
  Sn  Sn3  1  0.21797298  0.21781814  0.43259623  1
loop_
_geom_bond_atom_site_label_1
_geom_bond_atom_site_label_2
_geom_bond_distance
_geom_bond_site_symmetry_2
Cu0 Cu2 2.587353 1_565
Cu0 Sn0 2.617421 1_555
Cu0 Sn3 2.661720 1_665
Cu0 Sn3 2.667173 1_565
Cu0 Sn2 2.737896 1_555
Cu0 Tb2 3.154624 1_655
Cu0 Tb0 3.171342 1_565
Cu0 Tb2 3.177296 1_555
Cu1 Cu3 2.587353 1_565
Cu1 Sn0 2.612229 1_556
Cu1 Sn2 2.663320 1_555
Cu1 Sn2 2.666336 1_455
Cu1 Sn3 2.733491 1_555
Cu1 Tb0 3.143491 1_455
Cu1 Tb0 3.150224 1_555
Cu1 Tb2 3.195924 1_555
Cu2 Sn1 2.612229 1_554
Cu2 Sn3 2.663320 1_555
Cu2 Sn3 2.666336 1_655
Cu2 Sn2 2.733491 1_555
Cu2 Tb2 3.143491 1_655
Cu2 Tb2 3.150224 1_555
Cu2 Tb0 3.195924 1_555
Cu3 Sn1 2.617421 1_555
Cu3 Sn2 2.661720 1_445
Cu3 Sn2 2.667173 1_545
Cu3 Sn3 2.737896 1_555
Cu3 Tb0 3.154624 1_455
Cu3 Tb2 3.171342 1_545
Cu3 Tb0 3.177296 1_555
Sn0 Sn1 2.799074 1_554
Sn0 Tb1 3.033461 1_565
Sn0 Tb1 3.034594 1_665
Sn0 Tb2 3.266159 1_655
Sn0 Tb2 3.268617 1_555
Sn0 Tb0 3.272373 1_554
Sn0 Tb0 3.276380 1_454
Sn1 Tb1 3.033461 1_656
Sn1 Tb1 3.034594 1_556
Sn1 Tb0 3.266159 1_455
Sn1 Tb0 3.268617 1_555
Sn1 Tb2 3.272373 1_556
Sn1 Tb2 3.276380 1_656
Sn2 Tb2 3.148052 1_555
Sn2 Tb2 3.154229 1_655
Sn2 Tb1 3.180622 1_666
Sn3 Tb0 3.148052 1_555
Sn3 Tb0 3.154229 1_455
Sn3 Tb1 3.180622 1_555
