# generated using pymatgen
data_ZnGa3N3O
_symmetry_space_group_name_H-M   'P 1'
_cell_length_a   6.49284800
_cell_length_b   6.49326352
_cell_length_c   10.54161906
_cell_angle_alpha   90.01331118
_cell_angle_beta   90.01234877
_cell_angle_gamma   119.95472295
_symmetry_Int_Tables_number   1
_chemical_formula_structural   ZnGa3N3O
_chemical_formula_sum   'Zn4 Ga12 N12 O4'
_cell_volume   385.06507722
_cell_formula_units_Z   4
loop_
 _symmetry_equiv_pos_site_id
 _symmetry_equiv_pos_as_xyz
  1  'x, y, z'
loop_
 _atom_site_type_symbol
 _atom_site_label
 _atom_site_symmetry_multiplicity
 _atom_site_fract_x
 _atom_site_fract_y
 _atom_site_fract_z
 _atom_site_occupancy
  Zn  Zn0  1  0.17274500  0.84432000  0.73472400  1
  Zn  Zn1  1  0.83337600  0.66666500  0.48663400  1
  Zn  Zn2  1  0.16167100  0.32265200  0.73436600  1
  Zn  Zn3  1  0.33350500  0.66649200  0.48928200  1
  Ga  Ga0  1  0.34367400  0.67144100  0.00693100  1
  Ga  Ga1  1  0.65882100  0.32200400  0.74545400  1
  Ga  Ga2  1  0.66946200  0.84238000  0.74721900  1
  Ga  Ga3  1  0.82377500  0.16239000  0.00498400  1
  Ga  Ga4  1  0.82287300  0.66074500  0.00515000  1
  Ga  Ga5  1  0.83114200  0.16416800  0.49503700  1
  Ga  Ga6  1  0.16626900  0.83421500  0.25648000  1
  Ga  Ga7  1  0.66706200  0.33271900  0.25475400  1
  Ga  Ga8  1  0.16486300  0.33155900  0.25483900  1
  Ga  Ga9  1  0.66820600  0.83509400  0.25676300  1
  Ga  Ga10  1  0.34382900  0.17225400  0.00577700  1
  Ga  Ga11  1  0.33418700  0.16613900  0.49658500  1
  N  N0  1  0.66826800  0.83426200  0.93680200  1
  N  N1  1  0.34460100  0.17491200  0.68474300  1
  N  N2  1  0.67078400  0.84199400  0.43717200  1
  N  N3  1  0.66294500  0.32514800  0.43661200  1
  N  N4  1  0.17168900  0.84299400  0.43739800  1
  N  N5  1  0.33271700  0.66609100  0.18791000  1
  N  N6  1  0.33301200  0.16681900  0.18649100  1
  N  N7  1  0.16167400  0.32427100  0.43741400  1
  N  N8  1  0.82433600  0.16337700  0.68640800  1
  N  N9  1  0.66794500  0.33365900  0.93636400  1
  N  N10  1  0.83314600  0.66629900  0.18744400  1
  N  N11  1  0.83357300  0.16707100  0.18664800  1
  O  O0  1  0.34521600  0.67085900  0.70129400  1
  O  O1  1  0.16713200  0.33410800  0.94853500  1
  O  O2  1  0.16657700  0.83253700  0.94730500  1
  O  O3  1  0.82092400  0.66036000  0.70246400  1
loop_
_geom_bond_atom_site_label_1
_geom_bond_atom_site_label_2
_geom_bond_distance
_geom_bond_site_symmetry_2
Ga0 N5 1.908831 1_555
Ga0 N0 1.970257 1_554
Ga0 O1 1.995602 1_554
Ga0 O2 2.003151 1_554
Ga1 N1 1.880796 1_555
Ga1 N8 1.925782 1_555
Ga1 O3 1.957434 1_555
Ga1 N9 2.013652 1_555
Ga2 O0 1.888063 1_555
Ga2 N8 1.916855 1_565
Ga2 O3 1.935783 1_555
Ga2 N0 1.999134 1_555
Ga3 N11 1.915805 1_555
Ga3 N9 1.976721 1_554
Ga3 N0 1.981483 1_544
Ga3 O1 2.021370 1_654
Ga4 N10 1.922522 1_555
Ga4 N9 1.978357 1_554
Ga4 N0 1.981348 1_554
Ga4 O2 2.027617 1_654
Ga5 N2 1.912185 1_545
Ga5 N3 1.950528 1_555
Ga5 N7 1.956605 1_655
Ga5 N8 2.017805 1_555
Ga6 N4 1.907799 1_555
Ga6 N10 2.010109 1_455
Ga6 N6 2.011671 1_565
Ga6 N5 2.015032 1_555
Ga7 N3 1.917569 1_555
Ga7 N11 2.000611 1_555
Ga7 N10 2.006608 1_555
Ga7 N6 2.012028 1_555
Ga8 N7 1.925090 1_555
Ga8 N11 1.997264 1_455
Ga8 N6 2.005386 1_555
Ga8 N5 2.010209 1_555
Ga9 N2 1.902193 1_555
Ga9 N11 2.008875 1_565
Ga9 N10 2.013524 1_555
Ga9 N5 2.021826 1_555
Ga10 N6 1.906013 1_555
Ga10 N9 1.964934 1_554
Ga10 O1 1.997232 1_554
Ga10 O2 2.008526 1_544
Ga11 N4 1.921847 1_545
Ga11 N3 1.955023 1_555
Ga11 N7 1.961259 1_555
Ga11 N1 1.984463 1_555
N1 Zn0 1.933767 1_545
N1 Zn2 1.934562 1_555
N2 Zn1 1.970449 1_555
N2 Zn3 1.976038 1_555
N3 Zn1 1.992187 1_555
N4 Zn1 1.973477 1_455
N4 Zn3 1.979647 1_555
N7 Zn3 2.001237 1_555
N8 Zn2 1.964592 1_655
O0 Zn0 1.976454 1_555
O0 Zn2 1.990884 1_555
O0 Zn3 2.235918 1_555
O1 Zn2 2.258583 1_555
O2 Zn0 2.241955 1_555
O3 Zn0 2.008778 1_655
O3 Zn1 2.276303 1_555
