# generated using pymatgen
data_Na2Ca2(CO3)3
_symmetry_space_group_name_H-M   'P 1'
_cell_length_a   6.63845401
_cell_length_b   6.63845401
_cell_length_c   5.00689700
_cell_angle_alpha   90.00000000
_cell_angle_beta   90.00000000
_cell_angle_gamma   114.34372355
_symmetry_Int_Tables_number   1
_chemical_formula_structural   Na2Ca2(CO3)3
_chemical_formula_sum   'Na2 Ca2 C3 O9'
_cell_volume   201.03114706
_cell_formula_units_Z   1
loop_
 _symmetry_equiv_pos_site_id
 _symmetry_equiv_pos_as_xyz
  1  'x, y, z'
loop_
 _atom_site_type_symbol
 _atom_site_label
 _atom_site_symmetry_multiplicity
 _atom_site_fract_x
 _atom_site_fract_y
 _atom_site_fract_z
 _atom_site_occupancy
  Na  Na0  1  0.07412300  0.07412300  0.00000000  1
  Na  Na1  1  0.38762900  0.38762900  0.50000000  1
  Ca  Ca0  1  0.78499100  0.21775300  0.50000000  1
  Ca  Ca1  1  0.21775300  0.78499100  0.50000000  1
  C  C0  1  0.12609800  0.53428900  0.00000000  1
  C  C1  1  0.53428900  0.12609800  0.00000000  1
  C  C2  1  0.77427500  0.77427500  0.50000000  1
  O  O0  1  0.58677500  0.78981800  0.50000000  1
  O  O1  1  0.78981800  0.58677500  0.50000000  1
  O  O2  1  0.12337400  0.72753600  0.00000000  1
  O  O3  1  0.95816300  0.95816300  0.50000000  1
  O  O4  1  0.72753600  0.12337400  0.00000000  1
  O  O5  1  0.13038200  0.43915500  0.77389300  1
  O  O6  1  0.43915500  0.13038200  0.22610700  1
  O  O7  1  0.13038200  0.43915500  0.22610700  1
  O  O8  1  0.43915500  0.13038200  0.77389300  1
loop_
_geom_bond_atom_site_label_1
_geom_bond_atom_site_label_2
_geom_bond_distance
_geom_bond_site_symmetry_2
Na0 O4 2.453722 1_455
Na0 O2 2.453722 1_545
Na0 O5 2.558737 1_554
Na0 O8 2.558737 1_554
Na0 O6 2.558737 1_555
Na0 O7 2.558737 1_555
Na0 O3 2.638917 1_444
Na0 O3 2.638917 1_445
Na1 O8 2.322821 1_555
Na1 O5 2.322821 1_555
Na1 O7 2.322821 1_555
Na1 O6 2.322821 1_555
Na1 O1 2.442588 1_555
Na1 O0 2.442588 1_555
Ca0 O3 2.434025 1_545
Ca0 O1 2.436702 1_555
Ca0 O8 2.527846 1_555
Ca0 O6 2.527846 1_555
Ca0 O7 2.553385 1_655
Ca0 O5 2.553385 1_655
Ca0 O4 2.570654 1_555
Ca0 O4 2.570654 1_556
Ca0 O0 2.592295 1_545
Ca1 O3 2.434025 1_455
Ca1 O0 2.436702 1_555
Ca1 O7 2.527846 1_555
Ca1 O5 2.527846 1_555
Ca1 O6 2.553385 1_565
Ca1 O8 2.553385 1_565
Ca1 O2 2.570654 1_555
Ca1 O2 2.570654 1_556
Ca1 O1 2.592295 1_455
C0 O2 1.290421 1_555
C0 O5 1.302344 1_554
C0 O7 1.302344 1_555
C1 O4 1.290421 1_555
C1 O8 1.302344 1_554
C1 O6 1.302344 1_555
C2 O0 1.290671 1_555
C2 O1 1.290671 1_555
C2 O3 1.323569 1_555
