# generated using pymatgen
data_CuGeO3
_symmetry_space_group_name_H-M   'P 1'
_cell_length_a   7.73822104
_cell_length_b   7.73822104
_cell_length_c   8.71447000
_cell_angle_alpha   90.00000000
_cell_angle_beta   90.00000000
_cell_angle_gamma   100.64867754
_symmetry_Int_Tables_number   1
_chemical_formula_structural   CuGeO3
_chemical_formula_sum   'Cu8 Ge8 O24'
_cell_volume   512.83656410
_cell_formula_units_Z   8
loop_
 _symmetry_equiv_pos_site_id
 _symmetry_equiv_pos_as_xyz
  1  'x, y, z'
loop_
 _atom_site_type_symbol
 _atom_site_label
 _atom_site_symmetry_multiplicity
 _atom_site_fract_x
 _atom_site_fract_y
 _atom_site_fract_z
 _atom_site_occupancy
  Cu  Cu0  1  0.24781400  0.75218600  0.50000000  1
  Cu  Cu1  1  0.00000000  0.00000000  0.50000000  1
  Cu  Cu2  1  0.74781400  0.25218600  0.00000000  1
  Cu  Cu3  1  0.00000000  0.00000000  0.00000000  1
  Cu  Cu4  1  0.50000000  0.50000000  0.50000000  1
  Cu  Cu5  1  0.75218600  0.24781400  0.50000000  1
  Cu  Cu6  1  0.25218600  0.74781400  0.00000000  1
  Cu  Cu7  1  0.50000000  0.50000000  0.00000000  1
  Ge  Ge0  1  0.67129100  0.92144300  0.25052200  1
  Ge  Ge1  1  0.32870900  0.07855700  0.74947800  1
  Ge  Ge2  1  0.42144300  0.17129100  0.24947800  1
  Ge  Ge3  1  0.57855700  0.82870900  0.75052200  1
  Ge  Ge4  1  0.82870900  0.57855700  0.75052200  1
  Ge  Ge5  1  0.92144300  0.67129100  0.25052200  1
  Ge  Ge6  1  0.17129100  0.42144300  0.24947800  1
  Ge  Ge7  1  0.07855700  0.32870900  0.74947800  1
  O  O0  1  0.73170900  0.48322500  0.92173900  1
  O  O1  1  0.19519100  0.19519100  0.25160400  1
  O  O2  1  0.02760400  0.77573100  0.08689200  1
  O  O3  1  0.44474100  0.94474100  0.25000000  1
  O  O4  1  0.22426900  0.97239600  0.91310800  1
  O  O5  1  0.80480900  0.80480900  0.74839600  1
  O  O6  1  0.30480900  0.30480900  0.75160400  1
  O  O7  1  0.97239600  0.22426900  0.91310800  1
  O  O8  1  0.69519100  0.69519100  0.24839600  1
  O  O9  1  0.26829100  0.51677500  0.07826100  1
  O  O10  1  0.48322500  0.73170900  0.92173900  1
  O  O11  1  0.27573100  0.52760400  0.41310800  1
  O  O12  1  0.51677500  0.26829100  0.07826100  1
  O  O13  1  0.76829100  0.01677500  0.42173900  1
  O  O14  1  0.01677500  0.76829100  0.42173900  1
  O  O15  1  0.94474100  0.44474100  0.25000000  1
  O  O16  1  0.77573100  0.02760400  0.08689200  1
  O  O17  1  0.23170900  0.98322500  0.57826100  1
  O  O18  1  0.98322500  0.23170900  0.57826100  1
  O  O19  1  0.05525900  0.55525900  0.75000000  1
  O  O20  1  0.52760400  0.27573100  0.41310800  1
  O  O21  1  0.47239600  0.72426900  0.58689200  1
  O  O22  1  0.55525900  0.05525900  0.75000000  1
  O  O23  1  0.72426900  0.47239600  0.58689200  1
loop_
_geom_bond_atom_site_label_1
_geom_bond_atom_site_label_2
_geom_bond_distance
_geom_bond_site_symmetry_2
Cu0 O17 1.938902 1_555
Cu0 O14 1.938902 1_555
Cu0 O11 1.943957 1_555
Cu0 O21 1.943957 1_555
Cu1 O14 1.944968 1_545
Cu1 O13 1.944968 1_455
Cu1 O17 1.944968 1_545
Cu1 O18 1.944968 1_455
Cu2 O12 1.938902 1_555
Cu2 O0 1.938902 1_554
Cu2 O16 1.943957 1_555
Cu2 O7 1.943957 1_554
Cu3 O16 1.941074 1_455
Cu3 O2 1.941074 1_545
Cu3 O4 1.941074 1_544
Cu3 O7 1.941074 1_454
Cu4 O23 1.941074 1_555
Cu4 O21 1.941074 1_555
Cu4 O11 1.941074 1_555
Cu4 O20 1.941074 1_555
Cu5 O18 1.938902 1_555
Cu5 O13 1.938902 1_555
Cu5 O20 1.943957 1_555
Cu5 O23 1.943957 1_555
Cu6 O10 1.938902 1_554
Cu6 O9 1.938902 1_555
Cu6 O2 1.943957 1_555
Cu6 O4 1.943957 1_554
Cu7 O10 1.944968 1_554
Cu7 O0 1.944968 1_554
Cu7 O12 1.944968 1_555
Cu7 O9 1.944968 1_555
Ge0 O16 1.765213 1_565
Ge0 O13 1.768963 1_565
Ge0 O8 1.794289 1_555
Ge0 O3 1.795179 1_555
Ge1 O4 1.765213 1_545
Ge1 O17 1.768963 1_545
Ge1 O6 1.794289 1_555
Ge1 O22 1.795179 1_555
Ge2 O20 1.765213 1_555
Ge2 O12 1.768963 1_555
Ge2 O1 1.794289 1_555
Ge2 O3 1.795179 1_545
Ge3 O21 1.765213 1_555
Ge3 O10 1.768963 1_555
Ge3 O5 1.794289 1_555
Ge3 O22 1.795179 1_565
Ge4 O23 1.765213 1_555
Ge4 O0 1.768963 1_555
Ge4 O5 1.794289 1_555
Ge4 O19 1.795179 1_655
Ge5 O2 1.765213 1_655
Ge5 O14 1.768963 1_655
Ge5 O8 1.794289 1_555
Ge5 O15 1.795179 1_555
Ge6 O11 1.765213 1_555
Ge6 O9 1.768963 1_555
Ge6 O1 1.794289 1_555
Ge6 O15 1.795179 1_455
Ge7 O7 1.765213 1_455
Ge7 O18 1.768963 1_455
Ge7 O6 1.794289 1_555
Ge7 O19 1.795179 1_555
