# generated using pymatgen
data_Mn5(P2O7)4
_symmetry_space_group_name_H-M   'P 1'
_cell_length_a   9.59424400
_cell_length_b   10.48230713
_cell_length_c   13.00148616
_cell_angle_alpha   80.61428125
_cell_angle_beta   72.26641615
_cell_angle_gamma   65.39781848
_symmetry_Int_Tables_number   1
_chemical_formula_structural   Mn5(P2O7)4
_chemical_formula_sum   'Mn10 P16 O56'
_cell_volume   1131.37276250
_cell_formula_units_Z   2
loop_
 _symmetry_equiv_pos_site_id
 _symmetry_equiv_pos_as_xyz
  1  'x, y, z'
loop_
 _atom_site_type_symbol
 _atom_site_label
 _atom_site_symmetry_multiplicity
 _atom_site_fract_x
 _atom_site_fract_y
 _atom_site_fract_z
 _atom_site_occupancy
  Mn  Mn0  1  0.19065100  0.00392100  0.75684600  1
  Mn  Mn1  1  0.61088500  0.29351700  0.61687700  1
  Mn  Mn2  1  0.25777100  0.24822400  0.55712900  1
  Mn  Mn3  1  0.74222900  0.75177600  0.44287100  1
  Mn  Mn4  1  0.80934900  0.99607900  0.24315400  1
  Mn  Mn5  1  0.38911500  0.70648300  0.38312300  1
  Mn  Mn6  1  0.60630400  0.28811800  0.10422300  1
  Mn  Mn7  1  0.23696200  0.24870800  0.06893200  1
  Mn  Mn8  1  0.76303800  0.75129200  0.93106800  1
  Mn  Mn9  1  0.39369600  0.71188200  0.89577700  1
  P  P0  1  0.63945100  0.79521500  0.70160800  1
  P  P1  1  0.28738200  0.54000600  0.60093100  1
  P  P2  1  0.90932900  0.28366200  0.71307900  1
  P  P3  1  0.64196000  0.04292900  0.54724900  1
  P  P4  1  0.35804000  0.95707100  0.45275100  1
  P  P5  1  0.09067100  0.71633800  0.28692100  1
  P  P6  1  0.71261800  0.45999400  0.39906900  1
  P  P7  1  0.36054900  0.20478500  0.29839200  1
  P  P8  1  0.65183400  0.81140400  0.18311700  1
  P  P9  1  0.26456100  0.53496500  0.10063300  1
  P  P10  1  0.85749000  0.28611000  0.20602300  1
  P  P11  1  0.65040800  0.04389100  0.03675600  1
  P  P12  1  0.34959200  0.95610900  0.96324400  1
  P  P13  1  0.14251000  0.71389000  0.79397700  1
  P  P14  1  0.73543900  0.46503500  0.89936700  1
  P  P15  1  0.34816600  0.18859600  0.81688300  1
  O  O0  1  0.14337800  0.85316600  0.73259700  1
  O  O1  1  0.47236600  0.24169100  0.75013500  1
  O  O2  1  0.15673300  0.61116400  0.70942200  1
  O  O3  1  0.26074700  0.15909300  0.74515200  1
  O  O4  1  0.45243000  0.48174800  0.62131700  1
  O  O5  1  0.75045400  0.09523900  0.57707600  1
  O  O6  1  0.58146400  0.95546500  0.65074700  1
  O  O7  1  0.74901100  0.30829200  0.70207900  1
  O  O8  1  0.23395600  0.43092100  0.58122900  1
  O  O9  1  0.26438000  0.66317400  0.51814300  1
  O  O10  1  0.49486400  0.17424100  0.53178500  1
  O  O11  1  0.73060300  0.70117700  0.60759600  1
  O  O12  1  0.02808500  0.30520300  0.61022100  1
  O  O13  1  0.27853300  0.05200900  0.55148700  1
  O  O14  1  0.72146700  0.94799100  0.44851300  1
  O  O15  1  0.97191500  0.69479700  0.38977900  1
  O  O16  1  0.26939700  0.29882300  0.39240400  1
  O  O17  1  0.50513600  0.82575900  0.46821500  1
  O  O18  1  0.73562000  0.33682600  0.48185700  1
  O  O19  1  0.76604400  0.56907900  0.41877100  1
  O  O20  1  0.25098900  0.69170800  0.29792100  1
  O  O21  1  0.41853600  0.04453500  0.34925300  1
  O  O22  1  0.24954600  0.90476100  0.42292400  1
  O  O23  1  0.53266500  0.20259900  0.24223800  1
  O  O24  1  0.02284400  0.86174400  0.22853700  1
  O  O25  1  0.54757000  0.51825200  0.37868300  1
  O  O26  1  0.73925300  0.84090700  0.25484800  1
  O  O27  1  0.84326700  0.38883600  0.29057800  1
  O  O28  1  0.12411800  0.59546800  0.20629300  1
  O  O29  1  0.26810400  0.22260200  0.21678000  1
  O  O30  1  0.42414900  0.45610500  0.13099500  1
  O  O31  1  0.52763400  0.75830900  0.24986500  1
  O  O32  1  0.85662200  0.14683400  0.26740300  1
  O  O33  1  0.76685800  0.07759600  0.08147300  1
  O  O34  1  0.55977500  0.96682000  0.13323500  1
  O  O35  1  0.27111300  0.66735400  0.03146300  1
  O  O36  1  0.70155400  0.36409400  0.16942300  1
  O  O37  1  0.52403100  0.19401600  0.02541400  1
  O  O38  1  0.21649700  0.44213100  0.05188900  1
  O  O39  1  0.00302300  0.27560200  0.11709800  1
  O  O40  1  0.76731200  0.72694400  0.08527500  1
  O  O41  1  0.27975600  0.04394000  0.06128100  1
  O  O42  1  0.72024400  0.95606000  0.93871900  1
  O  O43  1  0.23268800  0.27305600  0.91472500  1
  O  O44  1  0.99697700  0.72439800  0.88290200  1
  O  O45  1  0.78350300  0.55786900  0.94811100  1
  O  O46  1  0.47596900  0.80598400  0.97458600  1
  O  O47  1  0.29844600  0.63590600  0.83057700  1
  O  O48  1  0.72888700  0.33264600  0.96853700  1
  O  O49  1  0.44022500  0.03318000  0.86676500  1
  O  O50  1  0.23314200  0.92240400  0.91852700  1
  O  O51  1  0.57585100  0.54389500  0.86900500  1
  O  O52  1  0.73189600  0.77739800  0.78322000  1
  O  O53  1  0.87588200  0.40453200  0.79370700  1
  O  O54  1  0.97715600  0.13825600  0.77146300  1
  O  O55  1  0.46733500  0.79740100  0.75776200  1
loop_
_geom_bond_atom_site_label_1
_geom_bond_atom_site_label_2
_geom_bond_distance
_geom_bond_site_symmetry_2
Mn0 O0 1.910157 1_545
Mn0 O54 1.913941 1_455
Mn0 O3 1.972043 1_555
Mn0 O50 2.227394 1_545
Mn0 O13 2.576291 1_555
Mn0 O55 2.638051 1_545
Mn1 O18 1.905929 1_555
Mn1 O4 1.921909 1_555
Mn1 O1 1.988606 1_555
Mn1 O5 1.998003 1_555
Mn1 O7 2.031854 1_555
Mn1 O10 2.527131 1_555
Mn2 O8 1.898870 1_555
Mn2 O12 1.949685 1_555
Mn2 O13 1.993641 1_555
Mn2 O10 2.010546 1_555
Mn2 O16 2.100892 1_555
Mn2 O3 2.474886 1_555
Mn3 O19 1.898870 1_555
Mn3 O15 1.949685 1_555
Mn3 O14 1.993641 1_555
Mn3 O17 2.010546 1_555
Mn3 O11 2.100892 1_555
Mn3 O26 2.474886 1_555
Mn4 O32 1.910157 1_565
Mn4 O24 1.913941 1_655
Mn4 O26 1.972043 1_555
Mn4 O33 2.227394 1_565
Mn4 O14 2.576291 1_555
Mn4 O23 2.638051 1_565
Mn5 O9 1.905929 1_555
Mn5 O25 1.921909 1_555
Mn5 O31 1.988606 1_555
Mn5 O22 1.998003 1_555
Mn5 O20 2.031854 1_555
Mn5 O17 2.527131 1_555
Mn6 O36 1.867101 1_555
Mn6 O30 1.882322 1_555
Mn6 O48 1.907292 1_554
Mn6 O23 1.937271 1_555
Mn6 O37 2.028940 1_555
Mn6 O33 2.105960 1_555
Mn7 O38 1.935714 1_555
Mn7 O43 1.990225 1_554
Mn7 O29 1.992337 1_555
Mn7 O41 2.024020 1_555
Mn7 O39 2.045428 1_555
Mn7 O37 2.465005 1_555
Mn8 O45 1.935714 1_555
Mn8 O40 1.990225 1_556
Mn8 O52 1.992337 1_555
Mn8 O42 2.024020 1_555
Mn8 O44 2.045428 1_555
Mn8 O46 2.465005 1_555
Mn9 O47 1.867101 1_555
Mn9 O51 1.882322 1_555
Mn9 O35 1.907292 1_556
Mn9 O55 1.937271 1_555
Mn9 O46 2.028940 1_555
Mn9 O50 2.105960 1_555
O0 P13 1.547386 1_555
O1 P15 1.499168 1_555
O2 P13 1.599703 1_555
O2 P1 1.613939 1_555
O3 P15 1.566969 1_555
O4 P1 1.532450 1_555
O5 P3 1.524814 1_555
O6 P3 1.597832 1_565
O6 P0 1.628551 1_555
O7 P2 1.498088 1_555
O8 P1 1.516378 1_555
O9 P1 1.525902 1_555
O10 P3 1.546577 1_555
O11 P0 1.501503 1_555
O12 P2 1.524816 1_455
O13 P4 1.551850 1_545
O14 P3 1.551850 1_565
O15 P5 1.524816 1_655
O16 P7 1.501503 1_555
O17 P4 1.546577 1_555
O18 P6 1.525902 1_555
O19 P6 1.516378 1_555
O20 P5 1.498088 1_555
O21 P4 1.597832 1_545
O21 P7 1.628551 1_555
O22 P4 1.524814 1_555
O23 P7 1.581118 1_555
O24 P5 1.555805 1_555
O25 P6 1.532450 1_555
O26 P8 1.566969 1_555
O27 P10 1.599703 1_555
O27 P6 1.613939 1_555
O28 P9 1.596870 1_555
O28 P5 1.642223 1_555
O29 P7 1.522557 1_555
O30 P9 1.546422 1_555
O31 P8 1.499168 1_555
O32 P10 1.547386 1_555
O33 P11 1.581911 1_555
O34 P11 1.603801 1_565
O34 P8 1.631261 1_555
O35 P9 1.539379 1_555
O36 P10 1.556108 1_555
O37 P11 1.553323 1_555
O38 P9 1.521197 1_555
O39 P10 1.492813 1_455
O40 P8 1.523672 1_555
O41 P12 1.506687 1_544
O42 P11 1.506687 1_566
O43 P15 1.523672 1_555
O44 P13 1.492813 1_655
O45 P14 1.521197 1_555
O46 P12 1.553323 1_555
O47 P13 1.556108 1_555
O48 P14 1.539379 1_555
O49 P12 1.603801 1_545
O49 P15 1.631261 1_555
O50 P12 1.581911 1_555
O51 P14 1.546422 1_555
O52 P0 1.522557 1_555
O53 P14 1.596870 1_555
O53 P2 1.642223 1_555
O54 P2 1.555805 1_555
O55 P0 1.581118 1_555
