# generated using pymatgen
data_Na3Ga3(TeO6)2
_symmetry_space_group_name_H-M   'P 1'
_cell_length_a   10.86438222
_cell_length_b   10.86438222
_cell_length_c   10.86438222
_cell_angle_alpha   109.47122063
_cell_angle_beta   109.47122063
_cell_angle_gamma   109.47122063
_symmetry_Int_Tables_number   1
_chemical_formula_structural   Na3Ga3(TeO6)2
_chemical_formula_sum   'Na12 Ga12 Te8 O48'
_cell_volume   987.17288461
_cell_formula_units_Z   4
loop_
 _symmetry_equiv_pos_site_id
 _symmetry_equiv_pos_as_xyz
  1  'x, y, z'
loop_
 _atom_site_type_symbol
 _atom_site_label
 _atom_site_symmetry_multiplicity
 _atom_site_fract_x
 _atom_site_fract_y
 _atom_site_fract_z
 _atom_site_occupancy
  Na  Na0  1  0.25000000  0.37500000  0.12500000  1
  Na  Na1  1  0.87500000  0.62500000  0.25000000  1
  Na  Na2  1  0.75000000  0.62500000  0.87500000  1
  Na  Na3  1  0.37500000  0.75000000  0.12500000  1
  Na  Na4  1  0.12500000  0.37500000  0.75000000  1
  Na  Na5  1  0.37500000  0.12500000  0.25000000  1
  Na  Na6  1  0.62500000  0.25000000  0.87500000  1
  Na  Na7  1  0.25000000  0.87500000  0.62500000  1
  Na  Na8  1  0.87500000  0.75000000  0.62500000  1
  Na  Na9  1  0.12500000  0.25000000  0.37500000  1
  Na  Na10  1  0.62500000  0.87500000  0.75000000  1
  Na  Na11  1  0.75000000  0.12500000  0.37500000  1
  Ga  Ga0  1  0.87500000  0.12500000  0.75000000  1
  Ga  Ga1  1  0.62500000  0.75000000  0.37500000  1
  Ga  Ga2  1  0.25000000  0.62500000  0.37500000  1
  Ga  Ga3  1  0.12500000  0.75000000  0.87500000  1
  Ga  Ga4  1  0.25000000  0.12500000  0.87500000  1
  Ga  Ga5  1  0.87500000  0.25000000  0.12500000  1
  Ga  Ga6  1  0.37500000  0.25000000  0.62500000  1
  Ga  Ga7  1  0.37500000  0.62500000  0.75000000  1
  Ga  Ga8  1  0.62500000  0.37500000  0.25000000  1
  Ga  Ga9  1  0.75000000  0.37500000  0.62500000  1
  Ga  Ga10  1  0.75000000  0.87500000  0.12500000  1
  Ga  Ga11  1  0.12500000  0.87500000  0.25000000  1
  Te  Te0  1  0.00000000  0.00000000  0.50000000  1
  Te  Te1  1  0.50000000  0.00000000  0.50000000  1
  Te  Te2  1  0.50000000  0.00000000  0.00000000  1
  Te  Te3  1  0.00000000  0.00000000  0.00000000  1
  Te  Te4  1  0.00000000  0.50000000  0.00000000  1
  Te  Te5  1  0.00000000  0.50000000  0.50000000  1
  Te  Te6  1  0.50000000  0.50000000  0.50000000  1
  Te  Te7  1  0.50000000  0.50000000  0.00000000  1
  O  O0  1  0.17542900  0.48345400  0.59884900  1
  O  O1  1  0.57658000  0.17542900  0.19197500  1
  O  O2  1  0.19197500  0.57658000  0.17542900  1
  O  O3  1  0.82457100  0.51654600  0.40115100  1
  O  O4  1  0.51654600  0.61539500  0.69197500  1
  O  O5  1  0.07658000  0.69197500  0.67542900  1
  O  O6  1  0.09884900  0.61539500  0.42342000  1
  O  O7  1  0.92342000  0.11539500  0.59884900  1
  O  O8  1  0.01654600  0.19197500  0.11539500  1
  O  O9  1  0.30802500  0.48345400  0.38460500  1
  O  O10  1  0.01654600  0.32457100  0.90115100  1
  O  O11  1  0.67542900  0.09884900  0.98345400  1
  O  O12  1  0.30802500  0.32457100  0.92342000  1
  O  O13  1  0.98345400  0.67542900  0.09884900  1
  O  O14  1  0.07658000  0.88460500  0.40115100  1
  O  O15  1  0.38460500  0.30802500  0.48345400  1
  O  O16  1  0.90115100  0.38460500  0.57658000  1
  O  O17  1  0.90115100  0.01654600  0.32457100  1
  O  O18  1  0.17542900  0.19197500  0.57658000  1
  O  O19  1  0.11539500  0.59884900  0.92342000  1
  O  O20  1  0.57658000  0.90115100  0.38460500  1
  O  O21  1  0.32457100  0.90115100  0.01654600  1
  O  O22  1  0.67542900  0.07658000  0.69197500  1
  O  O23  1  0.11539500  0.01654600  0.19197500  1
  O  O24  1  0.82457100  0.80802500  0.42342000  1
  O  O25  1  0.69197500  0.67542900  0.07658000  1
  O  O26  1  0.88460500  0.40115100  0.07658000  1
  O  O27  1  0.61539500  0.69197500  0.51654600  1
  O  O28  1  0.88460500  0.98345400  0.80802500  1
  O  O29  1  0.48345400  0.59884900  0.17542900  1
  O  O30  1  0.98345400  0.80802500  0.88460500  1
  O  O31  1  0.40115100  0.82457100  0.51654600  1
  O  O32  1  0.48345400  0.38460500  0.30802500  1
  O  O33  1  0.38460500  0.57658000  0.90115100  1
  O  O34  1  0.80802500  0.88460500  0.98345400  1
  O  O35  1  0.61539500  0.42342000  0.09884900  1
  O  O36  1  0.59884900  0.92342000  0.11539500  1
  O  O37  1  0.42342000  0.82457100  0.80802500  1
  O  O38  1  0.32457100  0.92342000  0.30802500  1
  O  O39  1  0.51654600  0.40115100  0.82457100  1
  O  O40  1  0.69197500  0.51654600  0.61539500  1
  O  O41  1  0.42342000  0.09884900  0.61539500  1
  O  O42  1  0.92342000  0.30802500  0.32457100  1
  O  O43  1  0.09884900  0.98345400  0.67542900  1
  O  O44  1  0.59884900  0.17542900  0.48345400  1
  O  O45  1  0.80802500  0.42342000  0.82457100  1
  O  O46  1  0.40115100  0.07658000  0.88460500  1
  O  O47  1  0.19197500  0.11539500  0.01654600  1
loop_
_geom_bond_atom_site_label_1
_geom_bond_atom_site_label_2
_geom_bond_distance
_geom_bond_site_symmetry_2
Na0 O2 2.417564 1_555
Na0 O12 2.417564 1_554
Na0 O9 2.417564 1_555
Na0 O47 2.417564 1_555
Na0 O10 2.592448 1_554
Na0 O29 2.592448 1_555
Na0 O8 2.592448 1_555
Na0 O32 2.592448 1_555
Na1 O3 2.417564 1_555
Na1 O35 2.417564 1_555
Na1 O13 2.417564 1_555
Na1 O14 2.417564 1_655
Na1 O6 2.592448 1_655
Na1 O24 2.592448 1_555
Na1 O25 2.592448 1_555
Na1 O26 2.592448 1_555
Na2 O34 2.417564 1_555
Na2 O40 2.417564 1_555
Na2 O45 2.417564 1_555
Na2 O25 2.417564 1_556
Na2 O13 2.592448 1_556
Na2 O4 2.592448 1_555
Na2 O30 2.592448 1_555
Na2 O39 2.592448 1_555
Na3 O19 2.417564 1_554
Na3 O20 2.417564 1_555
Na3 O21 2.417564 1_555
Na3 O29 2.417564 1_555
Na3 O33 2.592448 1_554
Na3 O36 2.592448 1_555
Na3 O2 2.592448 1_555
Na3 O38 2.592448 1_555
Na4 O33 2.417564 1_555
Na4 O7 2.417564 1_455
Na4 O0 2.417564 1_555
Na4 O10 2.417564 1_555
Na4 O16 2.592448 1_455
Na4 O18 2.592448 1_555
Na4 O19 2.592448 1_555
Na4 O12 2.592448 1_555
Na5 O23 2.417564 1_555
Na5 O32 2.417564 1_555
Na5 O38 2.417564 1_545
Na5 O1 2.417564 1_555
Na5 O21 2.592448 1_545
Na5 O47 2.592448 1_555
Na5 O15 2.592448 1_555
Na5 O44 2.592448 1_555
Na6 O39 2.417564 1_555
Na6 O11 2.417564 1_555
Na6 O41 2.417564 1_555
Na6 O26 2.417564 1_556
Na6 O45 2.592448 1_555
Na6 O35 2.592448 1_556
Na6 O22 2.592448 1_555
Na6 O46 2.592448 1_555
Na7 O6 2.417564 1_555
Na7 O43 2.417564 1_555
Na7 O31 2.417564 1_555
Na7 O46 2.417564 1_565
Na7 O37 2.592448 1_555
Na7 O14 2.592448 1_555
Na7 O5 2.592448 1_555
Na7 O41 2.592448 1_565
Na8 O24 2.417564 1_555
Na8 O27 2.417564 1_555
Na8 O30 2.417564 1_555
Na8 O5 2.417564 1_655
Na8 O40 2.592448 1_555
Na8 O28 2.592448 1_555
Na8 O43 2.592448 1_655
Na8 O3 2.592448 1_555
Na9 O15 2.417564 1_555
Na9 O8 2.417564 1_555
Na9 O42 2.417564 1_455
Na9 O18 2.417564 1_555
Na9 O0 2.592448 1_555
Na9 O17 2.592448 1_455
Na9 O9 2.592448 1_555
Na9 O23 2.592448 1_555
Na10 O28 2.417564 1_555
Na10 O4 2.417564 1_555
Na10 O37 2.417564 1_555
Na10 O22 2.417564 1_565
Na10 O11 2.592448 1_565
Na10 O27 2.592448 1_555
Na10 O34 2.592448 1_555
Na10 O31 2.592448 1_555
Na11 O16 2.417564 1_555
Na11 O36 2.417564 1_545
Na11 O44 2.417564 1_555
Na11 O17 2.417564 1_555
Na11 O1 2.592448 1_555
Na11 O20 2.592448 1_545
Na11 O7 2.592448 1_555
Na11 O42 2.592448 1_555
Ga0 O28 1.866168 1_545
Ga0 O10 1.866168 1_655
Ga0 O22 1.866168 1_555
Ga0 O7 1.866168 1_555
Ga1 O27 1.866168 1_555
Ga1 O29 1.866168 1_555
Ga1 O24 1.866168 1_555
Ga1 O20 1.866168 1_555
Ga2 O2 1.866168 1_555
Ga2 O9 1.866168 1_555
Ga2 O6 1.866168 1_555
Ga2 O31 1.866168 1_555
Ga3 O30 1.866168 1_455
Ga3 O21 1.866168 1_556
Ga3 O19 1.866168 1_555
Ga3 O5 1.866168 1_555
Ga4 O47 1.866168 1_556
Ga4 O12 1.866168 1_555
Ga4 O46 1.866168 1_555
Ga4 O43 1.866168 1_545
Ga5 O8 1.866168 1_655
Ga5 O42 1.866168 1_555
Ga5 O26 1.866168 1_555
Ga5 O11 1.866168 1_554
Ga6 O41 1.866168 1_555
Ga6 O15 1.866168 1_555
Ga6 O39 1.866168 1_555
Ga6 O18 1.866168 1_555
Ga7 O4 1.866168 1_555
Ga7 O0 1.866168 1_555
Ga7 O33 1.866168 1_555
Ga7 O37 1.866168 1_555
Ga8 O1 1.866168 1_555
Ga8 O35 1.866168 1_555
Ga8 O32 1.866168 1_555
Ga8 O3 1.866168 1_555
Ga9 O40 1.866168 1_555
Ga9 O44 1.866168 1_555
Ga9 O16 1.866168 1_555
Ga9 O45 1.866168 1_555
Ga10 O34 1.866168 1_554
Ga10 O17 1.866168 1_565
Ga10 O36 1.866168 1_555
Ga10 O25 1.866168 1_555
Ga11 O23 1.866168 1_565
Ga11 O38 1.866168 1_555
Ga11 O14 1.866168 1_555
Ga11 O13 1.866168 1_455
O0 Te5 1.952116 1_555
O1 Te2 1.952116 1_555
O2 Te4 1.952116 1_555
O3 Te5 1.952116 1_655
O4 Te6 1.952116 1_555
O5 Te5 1.952116 1_555
O6 Te5 1.952116 1_555
O7 Te0 1.952116 1_655
O8 Te3 1.952116 1_555
O9 Te6 1.952116 1_555
O10 Te4 1.952116 1_556
O11 Te2 1.952116 1_556
O12 Te7 1.952116 1_556
O13 Te4 1.952116 1_655
O14 Te0 1.952116 1_565
O15 Te6 1.952116 1_555
O16 Te5 1.952116 1_655
O17 Te0 1.952116 1_655
O18 Te0 1.952116 1_555
O19 Te4 1.952116 1_556
O20 Te1 1.952116 1_565
O21 Te2 1.952116 1_565
O22 Te1 1.952116 1_555
O23 Te3 1.952116 1_555
O24 Te0 1.952116 1_665
O25 Te7 1.952116 1_555
O26 Te4 1.952116 1_655
O27 Te6 1.952116 1_555
O28 Te3 1.952116 1_666
O29 Te7 1.952116 1_555
O30 Te3 1.952116 1_666
O31 Te1 1.952116 1_565
O32 Te6 1.952116 1_555
O33 Te7 1.952116 1_556
O34 Te3 1.952116 1_666
O35 Te7 1.952116 1_555
O36 Te2 1.952116 1_565
O37 Te2 1.952116 1_566
O38 Te1 1.952116 1_565
O39 Te7 1.952116 1_556
O40 Te6 1.952116 1_555
O41 Te1 1.952116 1_555
O42 Te5 1.952116 1_655
O43 Te0 1.952116 1_565
O44 Te1 1.952116 1_555
O45 Te4 1.952116 1_656
O46 Te2 1.952116 1_556
O47 Te3 1.952116 1_555
