# generated using pymatgen
data_PrMg2Ni9
_symmetry_space_group_name_H-M   'P 1'
_cell_length_a   8.30102896
_cell_length_b   8.30104875
_cell_length_c   8.30103356
_cell_angle_alpha   34.04426591
_cell_angle_beta   34.04424842
_cell_angle_gamma   34.04428175
_symmetry_Int_Tables_number   1
_chemical_formula_structural   PrMg2Ni9
_chemical_formula_sum   'Pr1 Mg2 Ni9'
_cell_volume   159.81127812
_cell_formula_units_Z   1
loop_
 _symmetry_equiv_pos_site_id
 _symmetry_equiv_pos_as_xyz
  1  'x, y, z'
loop_
 _atom_site_type_symbol
 _atom_site_label
 _atom_site_symmetry_multiplicity
 _atom_site_fract_x
 _atom_site_fract_y
 _atom_site_fract_z
 _atom_site_occupancy
  Pr  Pr0  1  -0.00000000  -0.00000000  -0.00000000  1
  Mg  Mg0  1  0.85539767  0.85539667  0.85539767  1
  Mg  Mg1  1  0.14460233  0.14460333  0.14460233  1
  Ni  Ni0  1  0.08232550  0.58633603  0.58633603  1
  Ni  Ni1  1  0.91767450  0.41366397  0.41366397  1
  Ni  Ni2  1  0.66627767  0.66627867  0.66627867  1
  Ni  Ni3  1  0.58633603  0.58633603  0.08232550  1
  Ni  Ni4  1  0.41366397  0.91767350  0.41366397  1
  Ni  Ni5  1  0.33372233  0.33372133  0.33372133  1
  Ni  Ni6  1  0.50000000  0.50000000  0.50000000  1
  Ni  Ni7  1  0.41366397  0.41366397  0.91767450  1
  Ni  Ni8  1  0.58633603  0.08232650  0.58633603  1
loop_
_geom_bond_atom_site_label_1
_geom_bond_atom_site_label_2
_geom_bond_distance
_geom_bond_site_symmetry_2
Mg0 Ni8 2.801342 1_565
Mg0 Ni3 2.801350 1_556
Mg0 Ni0 2.801352 1_655
Mg0 Ni4 2.802979 1_655
Mg0 Ni7 2.802981 1_655
Mg0 Ni4 2.802981 1_556
Mg0 Ni1 2.802982 1_556
Mg0 Ni1 2.802993 1_565
Mg0 Ni7 2.802995 1_565
Mg0 Ni6 2.853235 1_556
Mg0 Ni6 2.853237 1_655
Mg0 Ni6 2.853242 1_565
Mg0 Mg1 2.990517 1_566
Mg0 Mg1 2.990518 1_665
Mg0 Mg1 2.990520 1_656
Mg0 Pr0 3.389083 1_666
Mg1 Ni4 2.801342 1_545
Mg1 Ni7 2.801350 1_554
Mg1 Ni1 2.801352 1_455
Mg1 Ni8 2.802979 1_455
Mg1 Ni3 2.802981 1_455
Mg1 Ni8 2.802981 1_554
Mg1 Ni0 2.802982 1_554
Mg1 Ni0 2.802993 1_545
Mg1 Ni3 2.802995 1_545
Mg1 Ni6 2.853235 1_554
Mg1 Ni6 2.853237 1_455
Mg1 Ni6 2.853242 1_545
Mg1 Pr0 3.389083 1_555
Ni0 Ni6 2.379852 1_555
Ni0 Ni3 2.410560 1_456
Ni0 Ni8 2.410567 1_465
Ni0 Ni5 2.435687 1_555
Ni0 Ni2 2.437604 1_455
Ni0 Ni3 2.449543 1_555
Ni0 Ni8 2.449546 1_555
Ni0 Pr0 3.142277 1_565
Ni0 Pr0 3.142287 1_556
Ni1 Ni6 2.379852 1_555
Ni1 Ni7 2.410560 1_654
Ni1 Ni4 2.410567 1_645
Ni1 Ni2 2.435687 1_555
Ni1 Ni5 2.437604 1_655
Ni1 Ni7 2.449543 1_555
Ni1 Ni4 2.449546 1_555
Ni1 Pr0 3.142277 1_656
Ni1 Pr0 3.142287 1_665
Ni2 Ni7 2.435683 1_555
Ni2 Ni4 2.435683 1_555
Ni2 Ni3 2.437603 1_556
Ni2 Ni8 2.437618 1_565
Ni2 Pr0 2.805996 1_566
Ni2 Pr0 2.806000 1_665
Ni2 Pr0 2.806005 1_656
Ni2 Ni5 2.806040 1_556
Ni2 Ni5 2.806045 1_565
Ni2 Ni5 2.806049 1_655
Ni3 Ni6 2.379853 1_555
Ni3 Ni8 2.410567 1_564
Ni3 Ni5 2.435683 1_555
Ni3 Ni8 2.449545 1_555
Ni3 Pr0 3.142276 1_565
Ni3 Pr0 3.142288 1_655
Ni4 Ni6 2.379853 1_555
Ni4 Ni7 2.410567 1_564
Ni4 Ni5 2.437618 1_565
Ni4 Ni7 2.449545 1_555
Ni4 Pr0 3.142282 1_665
Ni4 Pr0 3.142285 1_566
Ni5 Ni8 2.435683 1_555
Ni5 Ni7 2.437603 1_554
Ni5 Pr0 2.805996 1_655
Ni5 Pr0 2.806000 1_556
Ni5 Pr0 2.806005 1_565
Ni6 Ni8 2.379853 1_555
Ni6 Ni7 2.379853 1_555
Ni7 Pr0 3.142276 1_656
Ni7 Pr0 3.142288 1_566
Ni8 Pr0 3.142282 1_556
Ni8 Pr0 3.142285 1_655
