# generated using pymatgen
data_KUCuSe3
_symmetry_space_group_name_H-M   'P 1'
_cell_length_a   7.66130410
_cell_length_b   7.66130410
_cell_length_c   10.69996300
_cell_angle_alpha   90.00000000
_cell_angle_beta   90.00000000
_cell_angle_gamma   148.92135129
_symmetry_Int_Tables_number   1
_chemical_formula_structural   KUCuSe3
_chemical_formula_sum   'K2 U2 Cu2 Se6'
_cell_volume   324.20344821
_cell_formula_units_Z   2
loop_
 _symmetry_equiv_pos_site_id
 _symmetry_equiv_pos_as_xyz
  1  'x, y, z'
loop_
 _atom_site_type_symbol
 _atom_site_label
 _atom_site_symmetry_multiplicity
 _atom_site_fract_x
 _atom_site_fract_y
 _atom_site_fract_z
 _atom_site_occupancy
  K  K0  1  0.25348800  0.74651200  0.75000000  1
  K  K1  1  0.74651200  0.25348800  0.25000000  1
  U  U0  1  0.00000000  0.00000000  0.50000000  1
  U  U1  1  0.00000000  0.00000000  0.00000000  1
  Cu  Cu0  1  0.46737000  0.53263000  0.25000000  1
  Cu  Cu1  1  0.53263000  0.46737000  0.75000000  1
  Se  Se0  1  0.06506700  0.93493300  0.25000000  1
  Se  Se1  1  0.62626000  0.37374000  0.93828600  1
  Se  Se2  1  0.37374000  0.62626000  0.06171400  1
  Se  Se3  1  0.62626000  0.37374000  0.56171400  1
  Se  Se4  1  0.37374000  0.62626000  0.43828600  1
  Se  Se5  1  0.93493300  0.06506700  0.75000000  1
loop_
_geom_bond_atom_site_label_1
_geom_bond_atom_site_label_2
_geom_bond_distance
_geom_bond_site_symmetry_2
K0 Se5 3.374524 1_565
K0 Se5 3.374524 1_455
K0 Se1 3.434979 1_455
K0 Se1 3.434979 1_565
K0 Se3 3.434979 1_455
K0 Se3 3.434979 1_565
K0 Se2 3.778337 1_556
K0 Se4 3.778337 1_555
K1 Se0 3.374524 1_655
K1 Se0 3.374524 1_545
K1 Se4 3.434979 1_545
K1 Se4 3.434979 1_655
K1 Se2 3.434979 1_655
K1 Se2 3.434979 1_545
K1 Se3 3.778337 1_555
K1 Se1 3.778337 1_554
Cu0 Se4 2.443224 1_555
Cu0 Se2 2.443224 1_555
Cu0 Se0 2.508524 1_655
Cu0 Se0 2.508524 1_545
Cu1 Se1 2.443224 1_555
Cu1 Se3 2.443224 1_555
Cu1 Se5 2.508524 1_565
Cu1 Se5 2.508524 1_455
Se0 U1 2.842224 1_565
Se0 U0 2.842224 1_565
Se1 U1 2.850057 1_556
Se1 U1 2.850057 1_666
Se2 U1 2.850057 1_665
Se2 U1 2.850057 1_555
Se3 U0 2.850057 1_555
Se3 U0 2.850057 1_665
Se4 U0 2.850057 1_555
Se4 U0 2.850057 1_665
Se5 U0 2.842224 1_655
Se5 U1 2.842224 1_656
