# generated using pymatgen
data_SiO2
_symmetry_space_group_name_H-M   'P 1'
_cell_length_a   15.56206402
_cell_length_b   15.56206402
_cell_length_c   15.56206402
_cell_angle_alpha   60.00000000
_cell_angle_beta   60.00000000
_cell_angle_gamma   60.00000000
_symmetry_Int_Tables_number   1
_chemical_formula_structural   SiO2
_chemical_formula_sum   'Si48 O96'
_cell_volume   2664.93484389
_cell_formula_units_Z   48
loop_
 _symmetry_equiv_pos_site_id
 _symmetry_equiv_pos_as_xyz
  1  'x, y, z'
loop_
 _atom_site_type_symbol
 _atom_site_label
 _atom_site_symmetry_multiplicity
 _atom_site_fract_x
 _atom_site_fract_y
 _atom_site_fract_z
 _atom_site_occupancy
  Si  Si0  1  0.50534300  0.33038100  0.86447400  1
  Si  Si1  1  0.66961900  0.13552600  0.49465700  1
  Si  Si2  1  0.00534300  0.36447400  0.83038100  1
  Si  Si3  1  0.99465700  0.70019800  0.63552600  1
  Si  Si4  1  0.63552600  0.70019800  0.16961900  1
  Si  Si5  1  0.20019800  0.49465700  0.13552600  1
  Si  Si6  1  0.79980200  0.86447400  0.33038100  1
  Si  Si7  1  0.66961900  0.49465700  0.20019800  1
  Si  Si8  1  0.13552600  0.20019800  0.49465700  1
  Si  Si9  1  0.83038100  0.36447400  0.29980200  1
  Si  Si10  1  0.86447400  0.50534300  0.33038100  1
  Si  Si11  1  0.83038100  0.00534300  0.36447400  1
  Si  Si12  1  0.29980200  0.83038100  0.36447400  1
  Si  Si13  1  0.50534300  0.86447400  0.79980200  1
  Si  Si14  1  0.16961900  0.63552600  0.70019800  1
  Si  Si15  1  0.29980200  0.00534300  0.83038100  1
  Si  Si16  1  0.13552600  0.49465700  0.66961900  1
  Si  Si17  1  0.86447400  0.33038100  0.79980200  1
  Si  Si18  1  0.70019800  0.63552600  0.99465700  1
  Si  Si19  1  0.79980200  0.33038100  0.50534300  1
  Si  Si20  1  0.99465700  0.16961900  0.70019800  1
  Si  Si21  1  0.00534300  0.29980200  0.36447400  1
  Si  Si22  1  0.66961900  0.20019800  0.13552600  1
  Si  Si23  1  0.36447400  0.83038100  0.00534300  1
  Si  Si24  1  0.79980200  0.50534300  0.86447400  1
  Si  Si25  1  0.13552600  0.66961900  0.20019800  1
  Si  Si26  1  0.83038100  0.29980200  0.00534300  1
  Si  Si27  1  0.33038100  0.50534300  0.79980200  1
  Si  Si28  1  0.63552600  0.16961900  0.99465700  1
  Si  Si29  1  0.16961900  0.70019800  0.99465700  1
  Si  Si30  1  0.70019800  0.16961900  0.63552600  1
  Si  Si31  1  0.99465700  0.63552600  0.16961900  1
  Si  Si32  1  0.70019800  0.99465700  0.16961900  1
  Si  Si33  1  0.20019800  0.66961900  0.49465700  1
  Si  Si34  1  0.33038100  0.79980200  0.86447400  1
  Si  Si35  1  0.16961900  0.99465700  0.63552600  1
  Si  Si36  1  0.36447400  0.29980200  0.83038100  1
  Si  Si37  1  0.49465700  0.13552600  0.20019800  1
  Si  Si38  1  0.49465700  0.20019800  0.66961900  1
  Si  Si39  1  0.29980200  0.36447400  0.00534300  1
  Si  Si40  1  0.50534300  0.79980200  0.33038100  1
  Si  Si41  1  0.49465700  0.66961900  0.13552600  1
  Si  Si42  1  0.00534300  0.83038100  0.29980200  1
  Si  Si43  1  0.86447400  0.79980200  0.50534300  1
  Si  Si44  1  0.20019800  0.13552600  0.66961900  1
  Si  Si45  1  0.33038100  0.86447400  0.50534300  1
  Si  Si46  1  0.63552600  0.99465700  0.70019800  1
  Si  Si47  1  0.36447400  0.00534300  0.29980200  1
  O  O0  1  0.51977800  0.74347100  0.16013400  1
  O  O1  1  0.12357500  0.37642500  0.75000000  1
  O  O2  1  0.07661700  0.16013400  0.74347100  1
  O  O3  1  0.48022200  0.83986600  0.92338300  1
  O  O4  1  0.25000000  0.12357500  0.75000000  1
  O  O5  1  0.57661700  0.01977800  0.24347100  1
  O  O6  1  0.12357500  0.25000000  0.37642500  1
  O  O7  1  0.42338300  0.33986600  0.98022200  1
  O  O8  1  0.83986600  0.25652900  0.92338300  1
  O  O9  1  0.92338300  0.48022200  0.83986600  1
  O  O10  1  0.87642500  0.75000000  0.62357500  1
  O  O11  1  0.75652900  0.98022200  0.33986600  1
  O  O12  1  0.75000000  0.12357500  0.37642500  1
  O  O13  1  0.42338300  0.98022200  0.75652900  1
  O  O14  1  0.25000000  0.87642500  0.62357500  1
  O  O15  1  0.20990900  0.20990900  0.54009100  1
  O  O16  1  0.66013400  0.24347100  0.01977800  1
  O  O17  1  0.95990900  0.29009100  0.29009100  1
  O  O18  1  0.04009100  0.70990900  0.70990900  1
  O  O19  1  0.20990900  0.54009100  0.54009100  1
  O  O20  1  0.29009100  0.95990900  0.29009100  1
  O  O21  1  0.24347100  0.57661700  0.01977800  1
  O  O22  1  0.24347100  0.01977800  0.66013400  1
  O  O23  1  0.95990900  0.95990900  0.29009100  1
  O  O24  1  0.29009100  0.95990900  0.95990900  1
  O  O25  1  0.45990900  0.79009100  0.45990900  1
  O  O26  1  0.98022200  0.33986600  0.75652900  1
  O  O27  1  0.45990900  0.79009100  0.79009100  1
  O  O28  1  0.75000000  0.62357500  0.87642500  1
  O  O29  1  0.87642500  0.62357500  0.25000000  1
  O  O30  1  0.75000000  0.25000000  0.12357500  1
  O  O31  1  0.79009100  0.79009100  0.45990900  1
  O  O32  1  0.37642500  0.25000000  0.75000000  1
  O  O33  1  0.98022200  0.42338300  0.33986600  1
  O  O34  1  0.51977800  0.07661700  0.74347100  1
  O  O35  1  0.95990900  0.29009100  0.95990900  1
  O  O36  1  0.74347100  0.51977800  0.07661700  1
  O  O37  1  0.07661700  0.74347100  0.51977800  1
  O  O38  1  0.20990900  0.54009100  0.20990900  1
  O  O39  1  0.66013400  0.57661700  0.24347100  1
  O  O40  1  0.62357500  0.25000000  0.87642500  1
  O  O41  1  0.98022200  0.75652900  0.42338300  1
  O  O42  1  0.79009100  0.45990900  0.79009100  1
  O  O43  1  0.75000000  0.25000000  0.62357500  1
  O  O44  1  0.62357500  0.87642500  0.75000000  1
  O  O45  1  0.48022200  0.25652900  0.83986600  1
  O  O46  1  0.70990900  0.70990900  0.04009100  1
  O  O47  1  0.16013400  0.51977800  0.74347100  1
  O  O48  1  0.16013400  0.07661700  0.51977800  1
  O  O49  1  0.01977800  0.24347100  0.57661700  1
  O  O50  1  0.33986600  0.75652900  0.98022200  1
  O  O51  1  0.74347100  0.16013400  0.51977800  1
  O  O52  1  0.07661700  0.51977800  0.16013400  1
  O  O53  1  0.74347100  0.07661700  0.16013400  1
  O  O54  1  0.70990900  0.04009100  0.04009100  1
  O  O55  1  0.75652900  0.42338300  0.98022200  1
  O  O56  1  0.16013400  0.74347100  0.07661700  1
  O  O57  1  0.37642500  0.12357500  0.25000000  1
  O  O58  1  0.75652900  0.33986600  0.42338300  1
  O  O59  1  0.04009100  0.04009100  0.70990900  1
  O  O60  1  0.83986600  0.92338300  0.48022200  1
  O  O61  1  0.24347100  0.66013400  0.57661700  1
  O  O62  1  0.25000000  0.75000000  0.87642500  1
  O  O63  1  0.25000000  0.37642500  0.12357500  1
  O  O64  1  0.54009100  0.54009100  0.20990900  1
  O  O65  1  0.01977800  0.66013400  0.24347100  1
  O  O66  1  0.45990900  0.45990900  0.79009100  1
  O  O67  1  0.33986600  0.42338300  0.75652900  1
  O  O68  1  0.25652900  0.48022200  0.92338300  1
  O  O69  1  0.33986600  0.98022200  0.42338300  1
  O  O70  1  0.48022200  0.92338300  0.25652900  1
  O  O71  1  0.57661700  0.66013400  0.01977800  1
  O  O72  1  0.54009100  0.20990900  0.54009100  1
  O  O73  1  0.66013400  0.01977800  0.57661700  1
  O  O74  1  0.70990900  0.04009100  0.70990900  1
  O  O75  1  0.29009100  0.29009100  0.95990900  1
  O  O76  1  0.12357500  0.75000000  0.25000000  1
  O  O77  1  0.83986600  0.48022200  0.25652900  1
  O  O78  1  0.92338300  0.25652900  0.48022200  1
  O  O79  1  0.25000000  0.75000000  0.37642500  1
  O  O80  1  0.42338300  0.75652900  0.33986600  1
  O  O81  1  0.79009100  0.45990900  0.45990900  1
  O  O82  1  0.87642500  0.25000000  0.75000000  1
  O  O83  1  0.25652900  0.83986600  0.48022200  1
  O  O84  1  0.01977800  0.57661700  0.66013400  1
  O  O85  1  0.92338300  0.83986600  0.25652900  1
  O  O86  1  0.51977800  0.16013400  0.07661700  1
  O  O87  1  0.37642500  0.75000000  0.12357500  1
  O  O88  1  0.75000000  0.37642500  0.25000000  1
  O  O89  1  0.54009100  0.20990900  0.20990900  1
  O  O90  1  0.25652900  0.92338300  0.83986600  1
  O  O91  1  0.62357500  0.75000000  0.25000000  1
  O  O92  1  0.04009100  0.70990900  0.04009100  1
  O  O93  1  0.75000000  0.87642500  0.25000000  1
  O  O94  1  0.25000000  0.62357500  0.75000000  1
  O  O95  1  0.57661700  0.24347100  0.66013400  1
loop_
_geom_bond_atom_site_label_1
_geom_bond_atom_site_label_2
_geom_bond_distance
_geom_bond_site_symmetry_2
O0 Si41 1.630790 1_555
O0 Si4 1.635038 1_555
O1 Si2 1.671129 1_555
O1 Si16 1.671129 1_555
O2 Si44 1.630790 1_555
O2 Si20 1.635038 1_455
O3 Si13 1.630790 1_555
O3 Si23 1.635038 1_556
O4 Si15 1.671129 1_555
O4 Si44 1.671129 1_555
O5 Si32 1.630790 1_545
O5 Si37 1.635038 1_555
O6 Si21 1.671129 1_555
O6 Si8 1.671129 1_555
O7 Si39 1.630790 1_556
O7 Si0 1.635038 1_555
O8 Si17 1.630790 1_555
O8 Si26 1.635038 1_556
O9 Si24 1.630790 1_555
O9 Si2 1.635038 1_655
O10 Si3 1.671129 1_555
O10 Si43 1.671129 1_555
O11 Si11 1.630790 1_565
O11 Si6 1.635038 1_555
O12 Si11 1.671129 1_555
O12 Si1 1.671129 1_555
O13 Si15 1.630790 1_565
O13 Si13 1.635038 1_555
O14 Si35 1.671129 1_555
O14 Si45 1.671129 1_555
O15 Si8 1.721311 1_555
O15 Si44 1.721311 1_555
O16 Si28 1.630790 1_554
O16 Si22 1.635038 1_555
O17 Si21 1.721311 1_655
O17 Si9 1.721311 1_555
O18 Si14 1.721311 1_555
O18 Si3 1.721311 1_455
O19 Si16 1.721311 1_555
O19 Si33 1.721311 1_555
O20 Si47 1.721311 1_565
O20 Si12 1.721311 1_555
O21 Si29 1.630790 1_554
O21 Si5 1.635038 1_555
O22 Si35 1.630790 1_545
O22 Si44 1.635038 1_555
O23 Si11 1.721311 1_565
O23 Si42 1.721311 1_655
O24 Si23 1.721311 1_556
O24 Si15 1.721311 1_565
O25 Si40 1.721311 1_555
O25 Si45 1.721311 1_555
O26 Si2 1.630790 1_655
O26 Si17 1.635038 1_555
O27 Si34 1.721311 1_555
O27 Si13 1.721311 1_555
O28 Si18 1.671129 1_555
O28 Si24 1.671129 1_555
O29 Si31 1.671129 1_555
O29 Si10 1.671129 1_555
O30 Si26 1.671129 1_555
O30 Si22 1.671129 1_555
O31 Si6 1.721311 1_555
O31 Si43 1.721311 1_555
O32 Si36 1.671129 1_555
O32 Si38 1.671129 1_555
O33 Si21 1.630790 1_655
O33 Si10 1.635038 1_555
O34 Si38 1.630790 1_555
O34 Si46 1.635038 1_545
O35 Si2 1.721311 1_655
O35 Si26 1.721311 1_556
O36 Si7 1.630790 1_555
O36 Si18 1.635038 1_554
O37 Si33 1.630790 1_555
O37 Si3 1.635038 1_455
O38 Si5 1.721311 1_555
O38 Si25 1.721311 1_555
O39 Si4 1.630790 1_555
O39 Si7 1.635038 1_555
O40 Si28 1.671129 1_555
O40 Si0 1.671129 1_555
O41 Si42 1.630790 1_655
O41 Si43 1.635038 1_555
O42 Si17 1.721311 1_555
O42 Si24 1.721311 1_555
O43 Si19 1.671129 1_555
O43 Si30 1.671129 1_555
O44 Si46 1.671129 1_555
O44 Si13 1.671129 1_555
O45 Si0 1.630790 1_555
O45 Si36 1.635038 1_555
O46 Si4 1.721311 1_555
O46 Si18 1.721311 1_554
O47 Si16 1.630790 1_555
O47 Si14 1.635038 1_555
O48 Si8 1.630790 1_555
O48 Si35 1.635038 1_545
O49 Si20 1.630790 1_455
O49 Si8 1.635038 1_555
O50 Si23 1.630790 1_556
O50 Si34 1.635038 1_555
O51 Si1 1.630790 1_555
O51 Si30 1.635038 1_555
O52 Si5 1.630790 1_555
O52 Si31 1.635038 1_455
O53 Si22 1.630790 1_555
O53 Si32 1.635038 1_545
O54 Si32 1.721311 1_545
O54 Si28 1.721311 1_554
O55 Si26 1.630790 1_556
O55 Si24 1.635038 1_555
O56 Si25 1.630790 1_555
O56 Si29 1.635038 1_554
O57 Si47 1.671129 1_555
O57 Si37 1.671129 1_555
O58 Si9 1.630790 1_555
O58 Si19 1.635038 1_555
O59 Si20 1.721311 1_455
O59 Si35 1.721311 1_545
O60 Si43 1.630790 1_555
O60 Si11 1.635038 1_565
O61 Si14 1.630790 1_555
O61 Si33 1.635038 1_555
O62 Si29 1.671129 1_555
O62 Si34 1.671129 1_555
O63 Si39 1.671129 1_555
O63 Si5 1.671129 1_555
O64 Si41 1.721311 1_555
O64 Si7 1.721311 1_555
O65 Si31 1.630790 1_455
O65 Si25 1.635038 1_555
O66 Si27 1.721311 1_555
O66 Si0 1.721311 1_555
O67 Si36 1.630790 1_555
O67 Si27 1.635038 1_555
O68 Si27 1.630790 1_555
O68 Si39 1.635038 1_556
O69 Si47 1.630790 1_565
O69 Si45 1.635038 1_555
O70 Si40 1.630790 1_555
O70 Si47 1.635038 1_565
O71 Si18 1.630790 1_554
O71 Si41 1.635038 1_555
O72 Si1 1.721311 1_555
O72 Si38 1.721311 1_555
O73 Si46 1.630790 1_545
O73 Si1 1.635038 1_555
O74 Si30 1.721311 1_555
O74 Si46 1.721311 1_545
O75 Si39 1.721311 1_556
O75 Si36 1.721311 1_555
O76 Si42 1.671129 1_555
O76 Si25 1.671129 1_555
O77 Si10 1.630790 1_555
O77 Si9 1.635038 1_555
O78 Si19 1.630790 1_555
O78 Si21 1.635038 1_655
O79 Si12 1.671129 1_555
O79 Si33 1.671129 1_555
O80 Si12 1.630790 1_555
O80 Si40 1.635038 1_555
O81 Si19 1.721311 1_555
O81 Si10 1.721311 1_555
O82 Si20 1.671129 1_555
O82 Si17 1.671129 1_555
O83 Si45 1.630790 1_555
O83 Si12 1.635038 1_555
O84 Si3 1.630790 1_455
O84 Si16 1.635038 1_555
O85 Si6 1.630790 1_555
O85 Si42 1.635038 1_655
O86 Si37 1.630790 1_555
O86 Si28 1.635038 1_554
O87 Si23 1.671129 1_555
O87 Si41 1.671129 1_555
O88 Si9 1.671129 1_555
O88 Si7 1.671129 1_555
O89 Si37 1.721311 1_555
O89 Si22 1.721311 1_555
O90 Si34 1.630790 1_555
O90 Si15 1.635038 1_565
O91 Si40 1.671129 1_555
O91 Si4 1.671129 1_555
O92 Si29 1.721311 1_554
O92 Si31 1.721311 1_455
O93 Si32 1.671129 1_555
O93 Si6 1.671129 1_555
O94 Si27 1.671129 1_555
O94 Si14 1.671129 1_555
O95 Si30 1.630790 1_555
O95 Si38 1.635038 1_555
