# generated using pymatgen
data_Li5La3Ta2O12
_symmetry_space_group_name_H-M   'P 1'
_cell_length_a   11.35146782
_cell_length_b   11.35146782
_cell_length_c   11.35146782
_cell_angle_alpha   109.47122063
_cell_angle_beta   109.47122063
_cell_angle_gamma   109.47122063
_symmetry_Int_Tables_number   1
_chemical_formula_structural   Li5La3Ta2O12
_chemical_formula_sum   'Li20 La12 Ta8 O48'
_cell_volume   1125.98907272
_cell_formula_units_Z   4
loop_
 _symmetry_equiv_pos_site_id
 _symmetry_equiv_pos_as_xyz
  1  'x, y, z'
loop_
 _atom_site_type_symbol
 _atom_site_label
 _atom_site_symmetry_multiplicity
 _atom_site_fract_x
 _atom_site_fract_y
 _atom_site_fract_z
 _atom_site_occupancy
  Li  Li0  1  0.62500000  0.75000000  0.37500000  1
  Li  Li1  1  0.87500000  0.25000000  0.12500000  1
  Li  Li2  1  0.25000000  0.62500000  0.37500000  1
  Li  Li3  1  0.12500000  0.75000000  0.87500000  1
  Li  Li4  1  0.25000000  0.12500000  0.87500000  1
  Li  Li5  1  0.87500000  0.12500000  0.75000000  1
  Li  Li6  1  0.25000000  0.25000000  0.25000000  1
  Li  Li7  1  0.00000000  0.75000000  0.50000000  1
  Li  Li8  1  0.75000000  0.87500000  0.12500000  1
  Li  Li9  1  0.50000000  0.00000000  0.25000000  1
  Li  Li10  1  0.00000000  0.25000000  0.50000000  1
  Li  Li11  1  0.37500000  0.62500000  0.75000000  1
  Li  Li12  1  0.50000000  0.00000000  0.75000000  1
  Li  Li13  1  0.62500000  0.37500000  0.25000000  1
  Li  Li14  1  0.37500000  0.25000000  0.62500000  1
  Li  Li15  1  0.75000000  0.37500000  0.62500000  1
  Li  Li16  1  0.12500000  0.87500000  0.25000000  1
  Li  Li17  1  0.25000000  0.50000000  0.00000000  1
  Li  Li18  1  0.75000000  0.50000000  0.00000000  1
  Li  Li19  1  0.75000000  0.75000000  0.75000000  1
  La  La0  1  0.62500000  0.87500000  0.75000000  1
  La  La1  1  0.37500000  0.12500000  0.25000000  1
  La  La2  1  0.25000000  0.87500000  0.62500000  1
  La  La3  1  0.75000000  0.12500000  0.37500000  1
  La  La4  1  0.37500000  0.75000000  0.12500000  1
  La  La5  1  0.87500000  0.62500000  0.25000000  1
  La  La6  1  0.87500000  0.75000000  0.62500000  1
  La  La7  1  0.62500000  0.25000000  0.87500000  1
  La  La8  1  0.25000000  0.37500000  0.12500000  1
  La  La9  1  0.75000000  0.62500000  0.87500000  1
  La  La10  1  0.12500000  0.37500000  0.75000000  1
  La  La11  1  0.12500000  0.25000000  0.37500000  1
  Ta  Ta0  1  0.50000000  0.50000000  0.50000000  1
  Ta  Ta1  1  0.50000000  0.50000000  0.00000000  1
  Ta  Ta2  1  0.00000000  0.00000000  0.00000000  1
  Ta  Ta3  1  0.50000000  0.00000000  0.50000000  1
  Ta  Ta4  1  0.00000000  0.50000000  0.50000000  1
  Ta  Ta5  1  0.50000000  0.00000000  0.00000000  1
  Ta  Ta6  1  0.00000000  0.00000000  0.50000000  1
  Ta  Ta7  1  0.00000000  0.50000000  0.00000000  1
  O  O0  1  0.59014900  0.16522600  0.46716600  1
  O  O1  1  0.59014900  0.92492300  0.12298300  1
  O  O2  1  0.03283400  0.33477400  0.90985100  1
  O  O3  1  0.12298300  0.59014900  0.92492300  1
  O  O4  1  0.80194000  0.42492300  0.83477400  1
  O  O5  1  0.42492300  0.83477400  0.80194000  1
  O  O6  1  0.46716600  0.37701700  0.30194000  1
  O  O7  1  0.87701700  0.96716600  0.80194000  1
  O  O8  1  0.57507700  0.90985100  0.37701700  1
  O  O9  1  0.53283400  0.62298300  0.69806000  1
  O  O10  1  0.66522600  0.09014900  0.96716600  1
  O  O11  1  0.62298300  0.69806000  0.53283400  1
  O  O12  1  0.69806000  0.53283400  0.62298300  1
  O  O13  1  0.33477400  0.90985100  0.03283400  1
  O  O14  1  0.09014900  0.62298300  0.42492300  1
  O  O15  1  0.19806000  0.12298300  0.03283400  1
  O  O16  1  0.62298300  0.42492300  0.09014900  1
  O  O17  1  0.57507700  0.16522600  0.19806000  1
  O  O18  1  0.90985100  0.03283400  0.33477400  1
  O  O19  1  0.92492300  0.12298300  0.59014900  1
  O  O20  1  0.16522600  0.19806000  0.57507700  1
  O  O21  1  0.83477400  0.80194000  0.42492300  1
  O  O22  1  0.40985100  0.07507700  0.87701700  1
  O  O23  1  0.46716600  0.59014900  0.16522600  1
  O  O24  1  0.90985100  0.37701700  0.57507700  1
  O  O25  1  0.53283400  0.40985100  0.83477400  1
  O  O26  1  0.12298300  0.03283400  0.19806000  1
  O  O27  1  0.69806000  0.66522600  0.07507700  1
  O  O28  1  0.92492300  0.30194000  0.33477400  1
  O  O29  1  0.83477400  0.53283400  0.40985100  1
  O  O30  1  0.96716600  0.66522600  0.09014900  1
  O  O31  1  0.07507700  0.69806000  0.66522600  1
  O  O32  1  0.33477400  0.92492300  0.30194000  1
  O  O33  1  0.87701700  0.40985100  0.07507700  1
  O  O34  1  0.66522600  0.07507700  0.69806000  1
  O  O35  1  0.07507700  0.87701700  0.40985100  1
  O  O36  1  0.80194000  0.87701700  0.96716600  1
  O  O37  1  0.42492300  0.09014900  0.62298300  1
  O  O38  1  0.37701700  0.30194000  0.46716600  1
  O  O39  1  0.37701700  0.57507700  0.90985100  1
  O  O40  1  0.19806000  0.57507700  0.16522600  1
  O  O41  1  0.16522600  0.46716600  0.59014900  1
  O  O42  1  0.40985100  0.83477400  0.53283400  1
  O  O43  1  0.03283400  0.19806000  0.12298300  1
  O  O44  1  0.30194000  0.46716600  0.37701700  1
  O  O45  1  0.30194000  0.33477400  0.92492300  1
  O  O46  1  0.09014900  0.96716600  0.66522600  1
  O  O47  1  0.96716600  0.80194000  0.87701700  1
loop_
_geom_bond_atom_site_label_1
_geom_bond_atom_site_label_2
_geom_bond_distance
_geom_bond_site_symmetry_2
Li0 O8 2.068992 1_555
Li0 O23 2.068992 1_555
Li0 O11 2.068992 1_555
Li0 O21 2.068992 1_555
Li1 O33 2.068992 1_555
Li1 O43 2.068992 1_655
Li1 O28 2.068992 1_555
Li1 O10 2.068992 1_554
Li2 O40 2.068992 1_555
Li2 O44 2.068992 1_555
Li2 O14 2.068992 1_555
Li2 O42 2.068992 1_555
Li3 O3 2.068992 1_555
Li3 O13 2.068992 1_556
Li3 O47 2.068992 1_455
Li3 O31 2.068992 1_555
Li4 O45 2.068992 1_555
Li4 O46 2.068992 1_545
Li4 O22 2.068992 1_555
Li4 O15 2.068992 1_556
Li5 O2 2.068992 1_655
Li5 O7 2.068992 1_545
Li5 O34 2.068992 1_555
Li5 O19 2.068992 1_555
Li6 O15 2.144348 1_555
Li6 O43 2.144348 1_555
Li6 O6 2.144348 1_555
Li6 O26 2.144348 1_555
Li6 O38 2.144348 1_555
Li6 O44 2.144348 1_555
Li7 O31 2.144348 1_555
Li7 O46 2.144348 1_555
Li7 O29 2.144348 1_455
Li7 O35 2.144348 1_555
Li7 O21 2.144348 1_455
Li7 O14 2.144348 1_555
Li8 O1 2.068992 1_555
Li8 O18 2.068992 1_565
Li8 O27 2.068992 1_555
Li8 O36 2.068992 1_554
Li9 O32 2.144348 1_545
Li9 O13 2.144348 1_545
Li9 O1 2.144348 1_545
Li9 O17 2.144348 1_555
Li9 O8 2.144348 1_545
Li9 O0 2.144348 1_555
Li10 O18 2.144348 1_455
Li10 O28 2.144348 1_455
Li10 O20 2.144348 1_555
Li10 O24 2.144348 1_455
Li10 O19 2.144348 1_455
Li10 O41 2.144348 1_555
Li11 O41 2.068992 1_555
Li11 O39 2.068992 1_555
Li11 O9 2.068992 1_555
Li11 O5 2.068992 1_555
Li12 O10 2.144348 1_555
Li12 O42 2.144348 1_545
Li12 O22 2.144348 1_555
Li12 O34 2.144348 1_555
Li12 O5 2.144348 1_545
Li12 O37 2.144348 1_555
Li13 O17 2.068992 1_555
Li13 O6 2.068992 1_555
Li13 O16 2.068992 1_555
Li13 O29 2.068992 1_555
Li14 O37 2.068992 1_555
Li14 O38 2.068992 1_555
Li14 O20 2.068992 1_555
Li14 O25 2.068992 1_555
Li15 O0 2.068992 1_555
Li15 O12 2.068992 1_555
Li15 O24 2.068992 1_555
Li15 O4 2.068992 1_555
Li16 O32 2.068992 1_555
Li16 O30 2.068992 1_455
Li16 O35 2.068992 1_555
Li16 O26 2.068992 1_565
Li17 O45 2.144348 1_554
Li17 O39 2.144348 1_554
Li17 O2 2.144348 1_554
Li17 O3 2.144348 1_554
Li17 O40 2.144348 1_555
Li17 O23 2.144348 1_555
Li18 O25 2.144348 1_554
Li18 O4 2.144348 1_554
Li18 O30 2.144348 1_555
Li18 O27 2.144348 1_555
Li18 O33 2.144348 1_555
Li18 O16 2.144348 1_555
Li19 O36 2.144348 1_555
Li19 O11 2.144348 1_555
Li19 O9 2.144348 1_555
Li19 O12 2.144348 1_555
Li19 O47 2.144348 1_555
Li19 O7 2.144348 1_555
La0 Li19 2.317109 1_555
La0 Li12 2.317109 1_565
La0 O5 2.468835 1_555
La0 O7 2.468835 1_555
La0 O34 2.468835 1_565
La0 O9 2.468835 1_555
La0 O11 2.596636 1_555
La0 O36 2.596636 1_555
La0 O10 2.596636 1_565
La0 O42 2.596636 1_555
La1 Li9 2.317109 1_555
La1 Li6 2.317109 1_555
La1 O17 2.468835 1_555
La1 O32 2.468835 1_545
La1 O6 2.468835 1_555
La1 O26 2.468835 1_555
La1 O15 2.596636 1_555
La1 O38 2.596636 1_555
La1 O0 2.596636 1_555
La1 O13 2.596636 1_545
La2 Li7 2.317109 1_555
La2 Li12 2.317109 1_565
La2 O42 2.468835 1_555
La2 O46 2.468835 1_555
La2 O14 2.468835 1_555
La2 O22 2.468835 1_565
La2 O31 2.596636 1_555
La2 O5 2.596636 1_555
La2 O35 2.596636 1_555
La2 O37 2.596636 1_565
La3 Li10 2.317109 1_655
La3 Li9 2.317109 1_555
La3 O18 2.468835 1_555
La3 O1 2.468835 1_545
La3 O0 2.468835 1_555
La3 O24 2.468835 1_555
La3 O28 2.596636 1_555
La3 O19 2.596636 1_555
La3 O8 2.596636 1_545
La3 O17 2.596636 1_555
La4 Li17 2.317109 1_555
La4 Li9 2.317109 1_565
La4 O8 2.468835 1_555
La4 O13 2.468835 1_555
La4 O3 2.468835 1_554
La4 O23 2.468835 1_555
La4 O32 2.596636 1_555
La4 O40 2.596636 1_555
La4 O1 2.596636 1_555
La4 O39 2.596636 1_554
La5 Li7 2.317109 1_655
La5 Li18 2.317109 1_555
La5 O30 2.468835 1_555
La5 O29 2.468835 1_555
La5 O16 2.468835 1_555
La5 O35 2.468835 1_655
La5 O33 2.596636 1_555
La5 O27 2.596636 1_555
La5 O21 2.596636 1_555
La5 O14 2.596636 1_655
La6 Li7 2.317109 1_655
La6 Li19 2.317109 1_555
La6 O21 2.468835 1_555
La6 O11 2.468835 1_555
La6 O31 2.468835 1_655
La6 O47 2.468835 1_555
La6 O7 2.596636 1_555
La6 O12 2.596636 1_555
La6 O29 2.596636 1_555
La6 O46 2.596636 1_655
La7 Li12 2.317109 1_555
La7 Li18 2.317109 1_556
La7 O10 2.468835 1_555
La7 O25 2.468835 1_555
La7 O37 2.468835 1_555
La7 O33 2.468835 1_556
La7 O4 2.596636 1_555
La7 O34 2.596636 1_555
La7 O22 2.596636 1_555
La7 O16 2.596636 1_556
La8 Li17 2.317109 1_555
La8 Li6 2.317109 1_555
La8 O40 2.468835 1_555
La8 O45 2.468835 1_554
La8 O15 2.468835 1_555
La8 O44 2.468835 1_555
La8 O43 2.596636 1_555
La8 O2 2.596636 1_554
La8 O6 2.596636 1_555
La8 O23 2.596636 1_555
La9 Li18 2.317109 1_556
La9 Li19 2.317109 1_555
La9 O4 2.468835 1_555
La9 O27 2.468835 1_556
La9 O12 2.468835 1_555
La9 O36 2.468835 1_555
La9 O9 2.596636 1_555
La9 O47 2.596636 1_555
La9 O25 2.596636 1_555
La9 O30 2.596636 1_556
La10 Li17 2.317109 1_556
La10 Li10 2.317109 1_555
La10 O39 2.468835 1_555
La10 O2 2.468835 1_555
La10 O19 2.468835 1_455
La10 O41 2.468835 1_555
La10 O20 2.596636 1_555
La10 O45 2.596636 1_555
La10 O24 2.596636 1_455
La10 O3 2.596636 1_555
La11 Li10 2.317109 1_555
La11 Li6 2.317109 1_555
La11 O28 2.468835 1_455
La11 O20 2.468835 1_555
La11 O43 2.468835 1_555
La11 O38 2.468835 1_555
La11 O26 2.596636 1_555
La11 O18 2.596636 1_455
La11 O44 2.596636 1_555
La11 O41 2.596636 1_555
O0 Ta3 2.035827 1_555
O1 Ta5 2.035827 1_565
O2 Ta7 2.035827 1_556
O3 Ta7 2.035827 1_556
O4 Ta7 2.035827 1_656
O5 Ta5 2.035827 1_566
O6 Ta0 2.035827 1_555
O7 Ta2 2.035827 1_666
O8 Ta3 2.035827 1_565
O9 Ta0 2.035827 1_555
O10 Ta5 2.035827 1_556
O11 Ta0 2.035827 1_555
O12 Ta0 2.035827 1_555
O13 Ta5 2.035827 1_565
O14 Ta4 2.035827 1_555
O15 Ta2 2.035827 1_555
O16 Ta1 2.035827 1_555
O17 Ta5 2.035827 1_555
O18 Ta6 2.035827 1_655
O19 Ta6 2.035827 1_655
O20 Ta6 2.035827 1_555
O21 Ta6 2.035827 1_665
O22 Ta5 2.035827 1_556
O23 Ta1 2.035827 1_555
O24 Ta4 2.035827 1_655
O25 Ta1 2.035827 1_556
O26 Ta2 2.035827 1_555
O27 Ta1 2.035827 1_555
O28 Ta4 2.035827 1_655
O29 Ta4 2.035827 1_655
O30 Ta7 2.035827 1_655
O31 Ta4 2.035827 1_555
O32 Ta3 2.035827 1_565
O33 Ta7 2.035827 1_655
O34 Ta3 2.035827 1_555
O35 Ta6 2.035827 1_565
O36 Ta2 2.035827 1_666
O37 Ta3 2.035827 1_555
O38 Ta0 2.035827 1_555
O39 Ta1 2.035827 1_556
O40 Ta7 2.035827 1_555
O41 Ta4 2.035827 1_555
O42 Ta3 2.035827 1_565
O43 Ta2 2.035827 1_555
O44 Ta0 2.035827 1_555
O45 Ta1 2.035827 1_556
O46 Ta6 2.035827 1_565
O47 Ta2 2.035827 1_666
