# generated using pymatgen
data_Mn4Bi3NO15
_symmetry_space_group_name_H-M   'P 1'
_cell_length_a   5.03136800
_cell_length_b   5.03136756
_cell_length_c   13.33196800
_cell_angle_alpha   90.00000000
_cell_angle_beta   90.00000000
_cell_angle_gamma   120.00000287
_symmetry_Int_Tables_number   1
_chemical_formula_structural   Mn4Bi3NO15
_chemical_formula_sum   'Mn4 Bi3 N1 O15'
_cell_volume   292.27859475
_cell_formula_units_Z   1
loop_
 _symmetry_equiv_pos_site_id
 _symmetry_equiv_pos_as_xyz
  1  'x, y, z'
loop_
 _atom_site_type_symbol
 _atom_site_label
 _atom_site_symmetry_multiplicity
 _atom_site_fract_x
 _atom_site_fract_y
 _atom_site_fract_z
 _atom_site_occupancy
  Mn  Mn0  1  0.33333300  0.66666700  0.21640500  1
  Mn  Mn1  1  0.66666700  0.33333300  0.21608500  1
  Mn  Mn2  1  0.66666700  0.33333300  0.84796800  1
  Mn  Mn3  1  0.33333300  0.66666700  0.84751300  1
  Bi  Bi0  1  0.00000000  0.00000000  0.03127400  1
  Bi  Bi1  1  0.00000000  0.00000000  0.38371800  1
  Bi  Bi2  1  0.00000000  0.00000000  0.67964500  1
  N  N0  1  0.66666700  0.33333300  0.53556600  1
  O  O0  1  0.37617200  0.99970700  0.92407800  1
  O  O1  1  0.51953100  0.47757800  0.53563000  1
  O  O2  1  0.63417100  0.63358500  0.29943700  1
  O  O3  1  0.00023700  0.62480000  0.14037800  1
  O  O4  1  0.62353500  0.62382800  0.92407800  1
  O  O5  1  0.00029300  0.37646500  0.92407800  1
  O  O6  1  0.36585100  0.36521400  0.76508500  1
  O  O7  1  0.99941400  0.36582900  0.29943700  1
  O  O8  1  0.52242200  0.04195300  0.53563000  1
  O  O9  1  0.99936300  0.63414900  0.76508500  1
  O  O10  1  0.36641500  0.00058600  0.29943700  1
  O  O11  1  0.63478600  0.00063700  0.76508500  1
  O  O12  1  0.37520000  0.37543700  0.14037800  1
  O  O13  1  0.62456300  0.99976300  0.14037800  1
  O  O14  1  0.95804700  0.48046900  0.53563000  1
loop_
_geom_bond_atom_site_label_1
_geom_bond_atom_site_label_2
_geom_bond_distance
_geom_bond_site_symmetry_2
Mn0 O3 1.878148 1_555
Mn0 O13 1.878150 1_555
Mn0 O12 1.878153 1_555
Mn0 O10 1.948358 1_565
Mn0 O7 1.948360 1_455
Mn0 O2 1.948362 1_555
Mn1 O13 1.877448 1_545
Mn1 O3 1.877450 1_655
Mn1 O12 1.877452 1_555
Mn1 O7 1.946979 1_555
Mn1 O10 1.946981 1_555
Mn1 O2 1.946983 1_555
Mn2 O5 1.878858 1_655
Mn2 O0 1.878860 1_545
Mn2 O4 1.878862 1_555
Mn2 O11 1.944281 1_555
Mn2 O9 1.944283 1_555
Mn2 O6 1.944286 1_555
Mn3 O0 1.880169 1_555
Mn3 O5 1.880171 1_555
Mn3 O4 1.880174 1_555
Mn3 O9 1.944990 1_455
Mn3 O11 1.944992 1_565
Mn3 O6 1.944994 1_555
Bi0 O5 2.372209 1_554
Bi0 O4 2.372209 1_444
Bi0 O0 2.372209 1_544
Bi0 O12 2.383632 1_555
Bi0 O3 2.383632 1_545
Bi0 O13 2.383632 1_445
Bi1 O2 2.157746 1_445
Bi1 O7 2.157746 1_455
Bi1 O10 2.157746 1_555
Bi2 O9 2.163310 1_445
Bi2 O6 2.163310 1_555
Bi2 O11 2.163310 1_455
N0 O8 1.269649 1_555
N0 O14 1.269649 1_555
N0 O1 1.269653 1_555
