# generated using pymatgen
data_NaLa4I7N2
_symmetry_space_group_name_H-M   'P 1'
_cell_length_a   11.33630600
_cell_length_b   12.15869900
_cell_length_c   14.46636500
_cell_angle_alpha   90.00000000
_cell_angle_beta   90.00000000
_cell_angle_gamma   90.00000000
_symmetry_Int_Tables_number   1
_chemical_formula_structural   NaLa4I7N2
_chemical_formula_sum   'Na4 La16 I28 N8'
_cell_volume   1993.96754895
_cell_formula_units_Z   4
loop_
 _symmetry_equiv_pos_site_id
 _symmetry_equiv_pos_as_xyz
  1  'x, y, z'
loop_
 _atom_site_type_symbol
 _atom_site_label
 _atom_site_symmetry_multiplicity
 _atom_site_fract_x
 _atom_site_fract_y
 _atom_site_fract_z
 _atom_site_occupancy
  Na  Na0  1  0.54776800  0.75203800  0.59233100  1
  Na  Na1  1  0.95223200  0.75203800  0.09233100  1
  Na  Na2  1  0.04776800  0.25203800  0.90766900  1
  Na  Na3  1  0.45223200  0.25203800  0.40766900  1
  La  La0  1  0.08623400  0.81703300  0.60265500  1
  La  La1  1  0.62354800  0.07547900  0.08385900  1
  La  La2  1  0.10688900  0.05322600  0.41208000  1
  La  La3  1  0.39311100  0.05322600  0.91208000  1
  La  La4  1  0.62163200  0.81064600  0.91358500  1
  La  La5  1  0.37836800  0.31064600  0.08641500  1
  La  La6  1  0.12354800  0.57547900  0.41614100  1
  La  La7  1  0.91376600  0.31703300  0.39734500  1
  La  La8  1  0.60688900  0.55322600  0.08792000  1
  La  La9  1  0.41376600  0.81703300  0.10265500  1
  La  La10  1  0.12163200  0.31064600  0.58641500  1
  La  La11  1  0.89311100  0.55322600  0.58792000  1
  La  La12  1  0.58623400  0.31703300  0.89734500  1
  La  La13  1  0.37645200  0.57547900  0.91614100  1
  La  La14  1  0.87836800  0.81064600  0.41358500  1
  La  La15  1  0.87645200  0.07547900  0.58385900  1
  I  I0  1  0.57417000  0.53651100  0.75213400  1
  I  I1  1  0.68917900  0.28739400  0.52782800  1
  I  I2  1  0.65189400  0.95654300  0.48155400  1
  I  I3  1  0.92583000  0.53651100  0.25213400  1
  I  I4  1  0.82032500  0.61046900  0.94947400  1
  I  I5  1  0.40209300  0.82569800  0.76503700  1
  I  I6  1  0.62809900  0.08398800  0.77547300  1
  I  I7  1  0.07417000  0.03651100  0.74786600  1
  I  I8  1  0.81444000  0.79654200  0.70021200  1
  I  I9  1  0.84810600  0.95654300  0.98155400  1
  I  I10  1  0.15189400  0.45654300  0.01844600  1
  I  I11  1  0.59790700  0.32569800  0.23496300  1
  I  I12  1  0.09790700  0.82569800  0.26503700  1
  I  I13  1  0.68556000  0.79654200  0.20021200  1
  I  I14  1  0.17967500  0.11046900  0.05052600  1
  I  I15  1  0.31082100  0.78739400  0.47217200  1
  I  I16  1  0.31444000  0.29654200  0.79978800  1
  I  I17  1  0.90209300  0.32569800  0.73496300  1
  I  I18  1  0.18917900  0.78739400  0.97217200  1
  I  I19  1  0.81082100  0.28739400  0.02782800  1
  I  I20  1  0.42583000  0.03651100  0.24786600  1
  I  I21  1  0.37190100  0.58398800  0.22452700  1
  I  I22  1  0.32032500  0.11046900  0.55052600  1
  I  I23  1  0.87190100  0.08398800  0.27547300  1
  I  I24  1  0.12809900  0.58398800  0.72452700  1
  I  I25  1  0.67967500  0.61046900  0.44947400  1
  I  I26  1  0.18556000  0.29654200  0.29978800  1
  I  I27  1  0.34810600  0.45654300  0.51844600  1
  N  N0  1  0.99545500  0.68857300  0.50324800  1
  N  N1  1  0.01233500  0.43950200  0.49693100  1
  N  N2  1  0.98766500  0.93950200  0.50306900  1
  N  N3  1  0.51233500  0.93950200  0.00306900  1
  N  N4  1  0.48766500  0.43950200  0.99693100  1
  N  N5  1  0.00454500  0.18857300  0.49675200  1
  N  N6  1  0.50454500  0.68857300  0.00324800  1
  N  N7  1  0.49545500  0.18857300  0.99675200  1
loop_
_geom_bond_atom_site_label_1
_geom_bond_atom_site_label_2
_geom_bond_distance
_geom_bond_site_symmetry_2
La0 N2 2.354013 1_455
La0 N0 2.359366 1_455
La1 N7 2.363755 1_554
La1 N3 2.385128 1_545
La2 N2 2.339074 1_445
La2 N5 2.356816 1_555
La3 N3 2.339074 1_546
La3 N7 2.356816 1_555
La4 N6 2.376399 1_556
La4 N3 2.380241 1_556
La5 N7 2.376399 1_554
La5 N4 2.380241 1_554
La6 N0 2.363755 1_455
La6 N1 2.385128 1_555
La7 N1 2.354013 1_655
La7 N5 2.359366 1_655
La8 N4 2.339074 1_554
La8 N6 2.356816 1_555
La9 N3 2.354013 1_555
La9 N6 2.359366 1_555
La10 N5 2.376399 1_555
La10 N1 2.380241 1_555
La11 N1 2.339074 1_655
La11 N0 2.356816 1_555
La12 N4 2.354013 1_555
La12 N7 2.359366 1_555
La13 N6 2.363755 1_556
La13 N4 2.385128 1_555
La14 N0 2.376399 1_555
La14 N2 2.380241 1_555
La15 N5 2.363755 1_655
La15 N2 2.385128 1_545
I0 La13 3.298103 1_555
I0 La12 3.398940 1_555
I0 Na0 3.507281 1_555
I1 La7 3.189829 1_555
I1 Na3 3.228237 1_555
I1 La15 3.435549 1_555
I2 Na0 3.185003 1_555
I2 La14 3.271854 1_555
I2 La15 3.280541 1_565
I3 La6 3.298103 1_655
I3 La7 3.398940 1_555
I3 Na1 3.507281 1_555
I4 Na1 3.077307 1_556
I4 La8 3.217144 1_556
I4 La4 3.356619 1_555
I5 Na0 3.125930 1_555
I5 La4 3.293237 1_555
I5 La3 3.491199 1_565
I5 La13 3.757470 1_555
I6 La3 3.337908 1_555
I6 La12 3.370820 1_555
I6 La4 3.878509 1_545
I6 La15 3.952337 1_555
I7 La15 3.298103 1_455
I7 La0 3.398940 1_545
I7 Na2 3.507281 1_555
I8 La0 3.398125 1_655
I8 Na0 3.444909 1_555
I8 La11 3.490903 1_555
I8 La4 3.786124 1_555
I8 La15 3.850937 1_565
I9 Na1 3.185003 1_556
I9 La4 3.271854 1_555
I9 La1 3.280541 1_566
I10 Na2 3.185003 1_554
I10 La5 3.271854 1_555
I10 La13 3.280541 1_554
I11 Na3 3.125930 1_555
I11 La5 3.293237 1_555
I11 La8 3.491199 1_555
I11 La1 3.757470 1_555
I12 Na1 3.125930 1_455
I12 La14 3.293237 1_455
I12 La2 3.491199 1_565
I12 La6 3.757470 1_555
I13 La9 3.398125 1_555
I13 Na1 3.444909 1_555
I13 La8 3.490903 1_555
I13 La14 3.786124 1_555
I13 La1 3.850937 1_565
I14 Na2 3.077307 1_554
I14 La3 3.217144 1_554
I14 La5 3.356619 1_555
I15 La0 3.189829 1_555
I15 Na0 3.228237 1_555
I15 La6 3.435549 1_555
I16 La12 3.398125 1_555
I16 Na2 3.444909 1_555
I16 La3 3.490903 1_555
I16 La10 3.786124 1_555
I16 La13 3.850937 1_555
I17 Na2 3.125930 1_655
I17 La10 3.293237 1_655
I17 La11 3.491199 1_555
I17 La15 3.757470 1_555
I18 La9 3.189829 1_556
I18 Na1 3.228237 1_456
I18 La13 3.435549 1_555
I19 La12 3.189829 1_554
I19 Na2 3.228237 1_654
I19 La1 3.435549 1_555
I20 La1 3.298103 1_555
I20 La9 3.398940 1_545
I20 Na3 3.507281 1_555
I21 La8 3.337908 1_555
I21 La9 3.370820 1_555
I21 La5 3.878509 1_555
I21 La6 3.952337 1_555
I22 Na3 3.077307 1_555
I22 La2 3.217144 1_555
I22 La10 3.356619 1_555
I23 La2 3.337908 1_655
I23 La7 3.370820 1_555
I23 La14 3.878509 1_545
I23 La1 3.952337 1_555
I24 La11 3.337908 1_455
I24 La0 3.370820 1_555
I24 La10 3.878509 1_555
I24 La13 3.952337 1_555
I25 Na0 3.077307 1_555
I25 La11 3.217144 1_555
I25 La14 3.356619 1_555
I26 La7 3.398125 1_455
I26 Na3 3.444909 1_555
I26 La2 3.490903 1_555
I26 La5 3.786124 1_555
I26 La6 3.850937 1_555
I27 Na3 3.185003 1_555
I27 La10 3.271854 1_555
I27 La6 3.280541 1_555
