# generated using pymatgen
data_AsS
_symmetry_space_group_name_H-M   'P 1'
_cell_length_a   8.69631878
_cell_length_b   9.82759243
_cell_length_c   10.19306938
_cell_angle_alpha   90.00000000
_cell_angle_beta   97.68527511
_cell_angle_gamma   90.00000000
_symmetry_Int_Tables_number   1
_chemical_formula_structural   AsS
_chemical_formula_sum   'As16 S16'
_cell_volume   863.31430326
_cell_formula_units_Z   16
loop_
 _symmetry_equiv_pos_site_id
 _symmetry_equiv_pos_as_xyz
  1  'x, y, z'
loop_
 _atom_site_type_symbol
 _atom_site_label
 _atom_site_symmetry_multiplicity
 _atom_site_fract_x
 _atom_site_fract_y
 _atom_site_fract_z
 _atom_site_occupancy
  As  As0  1  0.54424050  0.86645237  0.31649582  1
  As  As1  1  0.34021134  0.36204451  0.36835388  1
  As  As2  1  0.84021134  0.13795549  0.36835388  1
  As  As3  1  0.83394798  0.65455212  0.85076789  1
  As  As4  1  0.32247479  0.54439315  0.08530031  1
  As  As5  1  0.82247479  0.95560685  0.08530031  1
  As  As6  1  0.15978866  0.86204451  0.63164612  1
  As  As7  1  0.45575950  0.13354763  0.68350418  1
  As  As8  1  0.66605202  0.15455212  0.14923211  1
  As  As9  1  0.65978866  0.63795549  0.63164612  1
  As  As10  1  0.04424050  0.63354763  0.31649582  1
  As  As11  1  0.17752521  0.04439315  0.91469969  1
  As  As12  1  0.16605202  0.34544788  0.14923211  1
  As  As13  1  0.95575950  0.36645237  0.68350418  1
  As  As14  1  0.33394798  0.84544788  0.85076789  1
  As  As15  1  0.67752521  0.45560685  0.91469969  1
  S  S0  1  0.50575418  0.47786134  0.25440780  1
  S  S1  1  0.95537578  0.44669622  0.19741071  1
  S  S2  1  0.78473491  0.47526900  0.53301992  1
  S  S3  1  0.71526509  0.97526900  0.46698008  1
  S  S4  1  0.54462422  0.94669622  0.80258929  1
  S  S5  1  0.45537578  0.05330378  0.19741071  1
  S  S6  1  0.80821742  0.28399822  0.83301571  1
  S  S7  1  0.49424582  0.52213866  0.74559220  1
  S  S8  1  0.00575418  0.02213866  0.25440780  1
  S  S9  1  0.30821742  0.21600178  0.83301571  1
  S  S10  1  0.21526509  0.52473100  0.46698008  1
  S  S11  1  0.28473491  0.02473100  0.53301992  1
  S  S12  1  0.99424582  0.97786134  0.74559220  1
  S  S13  1  0.04462422  0.55330378  0.80258929  1
  S  S14  1  0.19178258  0.71600178  0.16698429  1
  S  S15  1  0.69178258  0.78399822  0.16698429  1
loop_
_geom_bond_atom_site_label_1
_geom_bond_atom_site_label_2
_geom_bond_distance
_geom_bond_site_symmetry_2
As0 S3 2.257943 1_555
As0 S15 2.269012 1_555
As0 S5 2.278537 1_565
As1 S10 2.244916 1_555
As1 S0 2.272485 1_555
As2 S3 2.244916 1_545
As2 S8 2.272485 1_655
As3 S13 2.197387 1_655
As4 S14 2.254406 1_555
As4 S0 2.281293 1_555
As5 S15 2.254406 1_555
As5 S8 2.281293 1_665
As6 S11 2.244916 1_565
As6 S12 2.272485 1_455
As7 S11 2.257943 1_555
As7 S9 2.269012 1_555
As7 S4 2.278537 1_545
As8 S5 2.197387 1_555
As9 S2 2.244916 1_555
As9 S7 2.272485 1_555
As10 S10 2.257943 1_555
As10 S14 2.269012 1_555
As10 S1 2.278537 1_455
As11 S9 2.254406 1_555
As11 S12 2.281293 1_445
As12 S1 2.197387 1_455
As13 S2 2.257943 1_555
As13 S6 2.269012 1_555
As13 S13 2.278537 1_655
As14 S4 2.197387 1_555
As15 S6 2.254406 1_555
As15 S7 2.281293 1_555
