# generated using pymatgen
data_BaPrMn2O5
_symmetry_space_group_name_H-M   'P 1'
_cell_length_a   4.03597000
_cell_length_b   4.03597000
_cell_length_c   7.94206600
_cell_angle_alpha   90.00000000
_cell_angle_beta   90.00000000
_cell_angle_gamma   90.00000000
_symmetry_Int_Tables_number   1
_chemical_formula_structural   BaPrMn2O5
_chemical_formula_sum   'Ba1 Pr1 Mn2 O5'
_cell_volume   129.36874068
_cell_formula_units_Z   1
loop_
 _symmetry_equiv_pos_site_id
 _symmetry_equiv_pos_as_xyz
  1  'x, y, z'
loop_
 _atom_site_type_symbol
 _atom_site_label
 _atom_site_symmetry_multiplicity
 _atom_site_fract_x
 _atom_site_fract_y
 _atom_site_fract_z
 _atom_site_occupancy
  Ba  Ba0  1  0.00000000  0.00000000  0.50000000  1
  Pr  Pr0  1  0.00000000  0.00000000  0.00000000  1
  Mn  Mn0  1  0.50000000  0.50000000  0.75944300  1
  Mn  Mn1  1  0.50000000  0.50000000  0.24055700  1
  O  O0  1  0.50000000  0.00000000  0.19092700  1
  O  O1  1  0.00000000  0.50000000  0.80907300  1
  O  O2  1  0.50000000  0.00000000  0.80907300  1
  O  O3  1  0.00000000  0.50000000  0.19092700  1
  O  O4  1  0.50000000  0.50000000  0.50000000  1
loop_
_geom_bond_atom_site_label_1
_geom_bond_atom_site_label_2
_geom_bond_distance
_geom_bond_site_symmetry_2
Ba0 O4 2.853862 1_455
Ba0 O4 2.853862 1_555
Ba0 O4 2.853862 1_445
Ba0 O4 2.853862 1_545
Ba0 O1 3.177689 1_555
Ba0 O2 3.177689 1_455
Ba0 O1 3.177689 1_545
Ba0 O2 3.177689 1_555
Ba0 O0 3.177689 1_555
Ba0 O3 3.177689 1_545
Ba0 O0 3.177689 1_455
Ba0 O3 3.177689 1_555
Mn0 O1 2.056120 1_555
Mn0 O1 2.056120 1_655
Mn0 O2 2.056120 1_555
Mn0 O2 2.056120 1_565
Mn0 O4 2.060513 1_555
Mn1 O0 2.056120 1_565
Mn1 O3 2.056120 1_655
Mn1 O0 2.056120 1_555
Mn1 O3 2.056120 1_555
Mn1 O4 2.060513 1_555
O0 Pr0 2.524202 1_655
O0 Pr0 2.524202 1_555
O1 Pr0 2.524202 1_566
O1 Pr0 2.524202 1_556
O2 Pr0 2.524202 1_556
O2 Pr0 2.524202 1_656
O3 Pr0 2.524202 1_565
O3 Pr0 2.524202 1_555
