# generated using pymatgen
data_La2SiO5
_symmetry_space_group_name_H-M   'P 1'
_cell_length_a   7.57010749
_cell_length_b   7.01231481
_cell_length_c   9.29980509
_cell_angle_alpha   71.24504753
_cell_angle_beta   90.00000000
_cell_angle_gamma   90.00000000
_symmetry_Int_Tables_number   1
_chemical_formula_structural   La2SiO5
_chemical_formula_sum   'La8 Si4 O20'
_cell_volume   467.45788311
_cell_formula_units_Z   4
loop_
 _symmetry_equiv_pos_site_id
 _symmetry_equiv_pos_as_xyz
  1  'x, y, z'
loop_
 _atom_site_type_symbol
 _atom_site_label
 _atom_site_symmetry_multiplicity
 _atom_site_fract_x
 _atom_site_fract_y
 _atom_site_fract_z
 _atom_site_occupancy
  La  La0  1  0.12499764  0.73320377  0.48902825  1
  La  La1  1  0.62499764  0.76679623  0.51097175  1
  La  La2  1  0.87500236  0.26679623  0.51097175  1
  La  La3  1  0.37500236  0.23320377  0.48902825  1
  La  La4  1  0.65582982  0.90621792  0.88933543  1
  La  La5  1  0.15582982  0.59378208  0.11066457  1
  La  La6  1  0.34417018  0.09378208  0.11066457  1
  La  La7  1  0.84417018  0.40621792  0.88933543  1
  Si  Si0  1  0.07607309  0.95819455  0.79905391  1
  Si  Si1  1  0.57607309  0.54180545  0.20094609  1
  Si  Si2  1  0.92392691  0.04180545  0.20094609  1
  Si  Si3  1  0.42392691  0.45819455  0.79905391  1
  O  O0  1  0.87344227  0.54732073  0.61225847  1
  O  O1  1  0.37344227  0.95267927  0.38774153  1
  O  O2  1  0.12655773  0.45267927  0.38774153  1
  O  O3  1  0.62655773  0.04732073  0.61225847  1
  O  O4  1  0.24276066  0.94734840  0.90850170  1
  O  O5  1  0.74276066  0.55265160  0.09149830  1
  O  O6  1  0.75723934  0.05265160  0.09149830  1
  O  O7  1  0.25723934  0.44734840  0.90850170  1
  O  O8  1  0.13163457  0.00562883  0.62042676  1
  O  O9  1  0.63163457  0.49437117  0.37957324  1
  O  O10  1  0.86836543  0.99437117  0.37957324  1
  O  O11  1  0.36836543  0.50562883  0.62042676  1
  O  O12  1  0.57224106  0.63330427  0.79182462  1
  O  O13  1  0.07224106  0.86669573  0.20817538  1
  O  O14  1  0.42775894  0.36669573  0.20817538  1
  O  O15  1  0.92775894  0.13330427  0.79182462  1
  O  O16  1  0.53726720  0.24888619  0.86577716  1
  O  O17  1  0.03726720  0.25111381  0.13422284  1
  O  O18  1  0.46273280  0.75111381  0.13422284  1
  O  O19  1  0.96273280  0.74888619  0.86577716  1
loop_
_geom_bond_atom_site_label_1
_geom_bond_atom_site_label_2
_geom_bond_distance
_geom_bond_site_symmetry_2
La0 O0 2.382892 1_455
La0 O1 2.420930 1_555
La0 O2 2.438955 1_555
La0 O11 2.485974 1_555
La0 O13 2.507081 1_555
La0 O8 2.578029 1_565
La0 O10 2.639239 1_455
La1 O1 2.382892 1_555
La1 O0 2.420930 1_555
La1 O3 2.438955 1_565
La1 O10 2.485974 1_555
La1 O12 2.507081 1_555
La1 O9 2.578029 1_555
La1 O11 2.639239 1_555
La2 O2 2.382892 1_655
La2 O3 2.420930 1_555
La2 O0 2.438955 1_555
La2 O9 2.485974 1_555
La2 O15 2.507081 1_555
La2 O10 2.578029 1_545
La2 O8 2.639239 1_655
La3 O3 2.382892 1_555
La3 O2 2.420930 1_555
La3 O1 2.438955 1_545
La3 O8 2.485974 1_555
La3 O14 2.507081 1_555
La3 O11 2.578029 1_555
La3 O9 2.639239 1_555
La4 O12 2.449731 1_555
La4 O3 2.455266 1_565
La4 O16 2.507779 1_565
La4 O6 2.533739 1_566
La4 O15 2.582065 1_565
La4 O19 2.611184 1_555
La4 O18 2.629349 1_556
La4 O5 2.667836 1_556
La4 O4 3.150556 1_555
La5 O13 2.449731 1_555
La5 O2 2.455266 1_555
La5 O17 2.507779 1_555
La5 O7 2.533739 1_554
La5 O14 2.582065 1_555
La5 O18 2.611184 1_555
La5 O19 2.629349 1_454
La5 O4 2.667836 1_554
La5 O5 3.150556 1_455
La6 O14 2.449731 1_555
La6 O1 2.455266 1_545
La6 O18 2.507779 1_545
La6 O4 2.533739 1_544
La6 O13 2.582065 1_545
La6 O17 2.611184 1_555
La6 O16 2.629349 1_554
La6 O7 2.667836 1_554
La6 O6 3.150556 1_555
La7 O15 2.449731 1_555
La7 O0 2.455266 1_555
La7 O19 2.507779 1_555
La7 O5 2.533739 1_556
La7 O12 2.582065 1_555
La7 O16 2.611184 1_555
La7 O17 2.629349 1_656
La7 O6 2.667836 1_556
La7 O7 3.150556 1_655
O4 Si0 1.607562 1_555
O5 Si1 1.607562 1_555
O6 Si2 1.607562 1_555
O7 Si3 1.607562 1_555
O8 Si0 1.640674 1_545
O9 Si1 1.640674 1_555
O10 Si2 1.640674 1_565
O11 Si3 1.640674 1_555
O12 Si3 1.649184 1_555
O13 Si2 1.649184 1_465
O14 Si1 1.649184 1_555
O15 Si0 1.649184 1_645
O16 Si3 1.640060 1_555
O17 Si2 1.640060 1_455
O18 Si1 1.640060 1_555
O19 Si0 1.640060 1_655
