# generated using pymatgen
data_Ba2TeP2O9
_symmetry_space_group_name_H-M   'P 1'
_cell_length_a   7.06439300
_cell_length_b   7.51544337
_cell_length_c   9.03956756
_cell_angle_alpha   76.84057651
_cell_angle_beta   80.01598326
_cell_angle_gamma   75.47642815
_symmetry_Int_Tables_number   1
_chemical_formula_structural   Ba2TeP2O9
_chemical_formula_sum   'Ba4 Te2 P4 O18'
_cell_volume   448.93743691
_cell_formula_units_Z   2
loop_
 _symmetry_equiv_pos_site_id
 _symmetry_equiv_pos_as_xyz
  1  'x, y, z'
loop_
 _atom_site_type_symbol
 _atom_site_label
 _atom_site_symmetry_multiplicity
 _atom_site_fract_x
 _atom_site_fract_y
 _atom_site_fract_z
 _atom_site_occupancy
  Ba  Ba0  1  0.63059500  0.19503800  0.58274500  1
  Ba  Ba1  1  0.89696600  0.61672700  0.75699800  1
  Ba  Ba2  1  0.36940500  0.80496200  0.41725500  1
  Ba  Ba3  1  0.10303400  0.38327300  0.24300200  1
  Te  Te0  1  0.35590300  0.88680100  0.95439900  1
  Te  Te1  1  0.64409700  0.11319900  0.04560100  1
  P  P0  1  0.13461500  0.12052400  0.64847200  1
  P  P1  1  0.86538500  0.87947600  0.35152800  1
  P  P2  1  0.37639900  0.52144100  0.81645200  1
  P  P3  1  0.62360100  0.47855900  0.18354800  1
  O  O0  1  0.27699900  0.14761600  0.49722300  1
  O  O1  1  0.37887400  0.07131200  0.10231200  1
  O  O2  1  0.19857600  0.53026000  0.93869800  1
  O  O3  1  0.06523400  0.93619500  0.67610000  1
  O  O4  1  0.80142400  0.46974000  0.06130200  1
  O  O5  1  0.72902900  0.88991400  0.22073300  1
  O  O6  1  0.03856800  0.70878100  0.34735400  1
  O  O7  1  0.53179700  0.29865700  0.19808500  1
  O  O8  1  0.55062800  0.34904100  0.85553400  1
  O  O9  1  0.67067500  0.47730900  0.34338600  1
  O  O10  1  0.62112600  0.92868800  0.89768800  1
  O  O11  1  0.46820300  0.70134300  0.80191500  1
  O  O12  1  0.44937200  0.65095900  0.14446600  1
  O  O13  1  0.72300100  0.85238400  0.50277700  1
  O  O14  1  0.27097100  0.11008600  0.77926700  1
  O  O15  1  0.96143200  0.29121900  0.65264600  1
  O  O16  1  0.93476600  0.06380500  0.32390000  1
  O  O17  1  0.32932500  0.52269100  0.65661400  1
loop_
_geom_bond_atom_site_label_1
_geom_bond_atom_site_label_2
_geom_bond_distance
_geom_bond_site_symmetry_2
Ba0 O9 2.694615 1_555
Ba0 O13 2.724180 1_545
Ba0 O15 2.819835 1_555
Ba0 O0 2.864605 1_555
Ba0 O8 2.868429 1_555
Ba0 O17 2.943897 1_555
Ba0 O14 2.958027 1_555
Ba0 O16 3.051119 1_555
Ba0 O10 3.085913 1_545
Ba0 O3 3.328562 1_645
Ba1 O15 2.724839 1_555
Ba1 O4 2.754852 1_556
Ba1 O2 2.773617 1_655
Ba1 O13 2.821788 1_555
Ba1 O3 2.836007 1_655
Ba1 O11 2.910126 1_555
Ba1 O17 2.983331 1_655
Ba1 O10 3.019654 1_555
Ba2 O17 2.694615 1_555
Ba2 O0 2.724180 1_565
Ba2 O6 2.819835 1_555
Ba2 O13 2.864605 1_555
Ba2 O12 2.868429 1_555
Ba2 O9 2.943897 1_555
Ba2 O5 2.958027 1_555
Ba2 O3 3.051119 1_555
Ba2 O1 3.085913 1_565
Ba2 O16 3.328562 1_465
Ba3 O6 2.724839 1_555
Ba3 O2 2.754852 1_554
Ba3 O4 2.773617 1_455
Ba3 O0 2.821788 1_555
Ba3 O16 2.836007 1_455
Ba3 O7 2.910126 1_555
Ba3 O9 2.983331 1_455
Ba3 O1 3.019654 1_555
O0 P0 1.556155 1_555
O1 Te1 1.939516 1_555
O1 Te0 2.183869 1_544
O2 P2 1.521131 1_555
O3 P0 1.536970 1_565
O4 P3 1.521131 1_555
O5 P1 1.626878 1_555
O5 Te1 2.072917 1_565
O6 P1 1.537128 1_455
O7 P3 1.610974 1_555
O7 Te1 2.100715 1_555
O8 P2 1.568753 1_555
O8 Te1 2.224710 1_556
O9 P3 1.535310 1_555
O10 Te0 1.939516 1_555
O10 Te1 2.183869 1_566
O11 P2 1.610974 1_555
O11 Te0 2.100715 1_555
O12 P3 1.568753 1_555
O12 Te0 2.224710 1_554
O13 P1 1.556155 1_555
O14 P0 1.626878 1_555
O14 Te0 2.072917 1_545
O15 P0 1.537128 1_655
O16 P1 1.536970 1_545
O17 P2 1.535310 1_555
