# generated using pymatgen
data_SrU(SeO4)2
_symmetry_space_group_name_H-M   'P 1'
_cell_length_a   5.81231516
_cell_length_b   6.88887064
_cell_length_c   11.47307485
_cell_angle_alpha   104.76538343
_cell_angle_beta   94.04440518
_cell_angle_gamma   109.42836441
_symmetry_Int_Tables_number   1
_chemical_formula_structural   SrU(SeO4)2
_chemical_formula_sum   'Sr2 U2 Se4 O16'
_cell_volume   412.80089785
_cell_formula_units_Z   2
loop_
 _symmetry_equiv_pos_site_id
 _symmetry_equiv_pos_as_xyz
  1  'x, y, z'
loop_
 _atom_site_type_symbol
 _atom_site_label
 _atom_site_symmetry_multiplicity
 _atom_site_fract_x
 _atom_site_fract_y
 _atom_site_fract_z
 _atom_site_occupancy
  Sr  Sr0  1  0.33192600  0.75126500  0.56254800  1
  Sr  Sr1  1  0.66807400  0.24873500  0.43745200  1
  U  U0  1  0.16893200  0.26265600  0.16320400  1
  U  U1  1  0.83106800  0.73734400  0.83679600  1
  Se  Se0  1  0.69866700  0.19109000  0.87767100  1
  Se  Se1  1  0.72751700  0.69176600  0.34168900  1
  Se  Se2  1  0.30133300  0.80891000  0.12232900  1
  Se  Se3  1  0.27248300  0.30823400  0.65831100  1
  O  O0  1  0.09315900  0.86511200  0.02969200  1
  O  O1  1  0.11941300  0.58341200  0.15765900  1
  O  O2  1  0.56277100  0.66531200  0.91095200  1
  O  O3  1  0.43722900  0.33468800  0.08904800  1
  O  O4  1  0.91983600  0.62205200  0.42684500  1
  O  O5  1  0.68145300  0.97996500  0.75273600  1
  O  O6  1  0.09568500  0.81004900  0.75704700  1
  O  O7  1  0.67444400  0.89404700  0.44253200  1
  O  O8  1  0.90431500  0.18995100  0.24295300  1
  O  O9  1  0.90684100  0.13488800  0.97030800  1
  O  O10  1  0.08016400  0.37794800  0.57315500  1
  O  O11  1  0.31854700  0.02003500  0.24726400  1
  O  O12  1  0.32555600  0.10595300  0.55746800  1
  O  O13  1  0.55965400  0.52132400  0.65858800  1
  O  O14  1  0.44034600  0.47867600  0.34141200  1
  O  O15  1  0.88058700  0.41658800  0.84234100  1
loop_
_geom_bond_atom_site_label_1
_geom_bond_atom_site_label_2
_geom_bond_distance
_geom_bond_site_symmetry_2
O0 Se2 1.756001 1_555
O0 U1 2.373336 1_454
O0 U0 2.646620 1_565
O1 Se2 1.727477 1_555
O1 U0 2.337004 1_555
O2 U1 1.813687 1_555
O3 U0 1.813687 1_555
O4 Se1 1.696153 1_555
O4 Sr0 2.510486 1_655
O4 Sr1 2.539888 1_555
O5 Se0 1.732124 1_565
O5 U1 2.479943 1_555
O5 Sr0 2.619885 1_555
O6 U1 1.836628 1_455
O6 Sr0 2.714872 1_555
O7 Se1 1.700024 1_555
O7 Sr1 2.471323 1_565
O7 Sr0 2.569280 1_555
O8 U0 1.836628 1_655
O8 Sr1 2.714872 1_555
O9 Se0 1.756001 1_555
O9 U0 2.373336 1_656
O9 U1 2.646620 1_545
O10 Se3 1.696153 1_555
O10 Sr1 2.510486 1_455
O10 Sr0 2.539888 1_555
O11 Se2 1.732124 1_545
O11 U0 2.479943 1_555
O11 Sr1 2.619885 1_555
O12 Se3 1.700024 1_555
O12 Sr0 2.471323 1_545
O12 Sr1 2.569280 1_555
O13 Se3 1.818720 1_555
O13 U1 2.305628 1_555
O13 Sr0 2.748462 1_555
O13 Sr1 2.990752 1_555
O14 Se1 1.818720 1_555
O14 U0 2.305628 1_555
O14 Sr1 2.748462 1_555
O14 Sr0 2.990752 1_555
O15 Se0 1.727477 1_555
O15 U1 2.337004 1_555
