# generated using pymatgen
data_Cs2Bi4O7
_symmetry_space_group_name_H-M   'P 1'
_cell_length_a   12.57197057
_cell_length_b   12.57197057
_cell_length_c   15.96666354
_cell_angle_alpha   84.96658245
_cell_angle_beta   84.96658245
_cell_angle_gamma   62.58839429
_symmetry_Int_Tables_number   1
_chemical_formula_structural   Cs2Bi4O7
_chemical_formula_sum   'Cs16 Bi32 O56'
_cell_volume   2228.41770446
_cell_formula_units_Z   8
loop_
 _symmetry_equiv_pos_site_id
 _symmetry_equiv_pos_as_xyz
  1  'x, y, z'
loop_
 _atom_site_type_symbol
 _atom_site_label
 _atom_site_symmetry_multiplicity
 _atom_site_fract_x
 _atom_site_fract_y
 _atom_site_fract_z
 _atom_site_occupancy
  Cs  Cs0  1  0.37638202  0.97766972  0.20580536  1
  Cs  Cs1  1  0.03084586  0.12421047  0.29237952  1
  Cs  Cs2  1  0.13598442  0.54259378  0.79312410  1
  Cs  Cs3  1  0.12421047  0.03084586  0.79237952  1
  Cs  Cs4  1  0.02233028  0.62361798  0.29419464  1
  Cs  Cs5  1  0.36102662  0.46519400  0.21205633  1
  Cs  Cs6  1  0.54259378  0.13598442  0.29312410  1
  Cs  Cs7  1  0.96915414  0.87578953  0.70762048  1
  Cs  Cs8  1  0.45740622  0.86401558  0.70687590  1
  Cs  Cs9  1  0.63897338  0.53480600  0.78794367  1
  Cs  Cs10  1  0.46519400  0.36102662  0.71205633  1
  Cs  Cs11  1  0.62361798  0.02233028  0.79419464  1
  Cs  Cs12  1  0.86401558  0.45740622  0.20687590  1
  Cs  Cs13  1  0.97766972  0.37638202  0.70580536  1
  Cs  Cs14  1  0.87578953  0.96915414  0.20762048  1
  Cs  Cs15  1  0.53480600  0.63897338  0.28794367  1
  Bi  Bi0  1  0.69782395  0.29430713  0.38215723  1
  Bi  Bi1  1  0.45615939  0.39952502  0.96774119  1
  Bi  Bi2  1  0.90847476  0.89070584  0.46075737  1
  Bi  Bi3  1  0.39466775  0.90658900  0.95893181  1
  Bi  Bi4  1  0.54384061  0.60047498  0.03225881  1
  Bi  Bi5  1  0.60129675  0.04092875  0.53593441  1
  Bi  Bi6  1  0.20985625  0.29991714  0.11171136  1
  Bi  Bi7  1  0.09341100  0.60533225  0.54106819  1
  Bi  Bi8  1  0.89070584  0.90847476  0.96075737  1
  Bi  Bi9  1  0.09152524  0.10929416  0.53924263  1
  Bi  Bi10  1  0.60047498  0.54384061  0.53225881  1
  Bi  Bi11  1  0.29430713  0.69782395  0.88215723  1
  Bi  Bi12  1  0.23753991  0.78810931  0.12004048  1
  Bi  Bi13  1  0.30217605  0.70569287  0.61784277  1
  Bi  Bi14  1  0.20984674  0.26786646  0.37258782  1
  Bi  Bi15  1  0.76246009  0.21189069  0.87995952  1
  Bi  Bi16  1  0.79014375  0.70008286  0.88828864  1
  Bi  Bi17  1  0.39952502  0.45615939  0.46774119  1
  Bi  Bi18  1  0.78810931  0.23753991  0.62004048  1
  Bi  Bi19  1  0.73213354  0.79015326  0.12741218  1
  Bi  Bi20  1  0.29991714  0.20985625  0.61171136  1
  Bi  Bi21  1  0.60533225  0.09341100  0.04106819  1
  Bi  Bi22  1  0.95907125  0.39870325  0.96406559  1
  Bi  Bi23  1  0.70008286  0.79014375  0.38828864  1
  Bi  Bi24  1  0.79015326  0.73213354  0.62741218  1
  Bi  Bi25  1  0.21189069  0.76246009  0.37995952  1
  Bi  Bi26  1  0.26786646  0.20984674  0.87258782  1
  Bi  Bi27  1  0.70569287  0.30217605  0.11784277  1
  Bi  Bi28  1  0.39870325  0.95907125  0.46406559  1
  Bi  Bi29  1  0.10929416  0.09152524  0.03924263  1
  Bi  Bi30  1  0.90658900  0.39466775  0.45893181  1
  Bi  Bi31  1  0.04092875  0.60129675  0.03593441  1
  O  O0  1  0.58646502  0.23139024  0.89962943  1
  O  O1  1  0.43549673  0.74231936  0.88309712  1
  O  O2  1  0.09048230  0.77504906  0.52360601  1
  O  O3  1  0.61525040  0.41526633  0.97381703  1
  O  O4  1  0.02719387  0.84708335  0.34979646  1
  O  O5  1  0.64972243  0.97496308  0.15355885  1
  O  O6  1  0.41526633  0.61525040  0.47381703  1
  O  O7  1  0.11570315  0.41734699  0.97362276  1
  O  O8  1  0.25768064  0.56450327  0.61690288  1
  O  O9  1  0.26345010  0.24472106  0.24105179  1
  O  O10  1  0.74231936  0.43549673  0.38309712  1
  O  O11  1  0.35027757  0.02503692  0.84644115  1
  O  O12  1  0.74667901  0.25332099  0.25000000  1
  O  O13  1  0.22495094  0.90951770  0.97639399  1
  O  O14  1  0.84708335  0.02719387  0.84979646  1
  O  O15  1  0.27887552  0.08862101  0.02017782  1
  O  O16  1  0.76357308  0.91054335  0.60865214  1
  O  O17  1  0.91137899  0.72112448  0.47982218  1
  O  O18  1  0.51726558  0.89961404  0.35493035  1
  O  O19  1  0.41353498  0.76860976  0.10037057  1
  O  O20  1  0.90951770  0.22495094  0.47639399  1
  O  O21  1  0.08862101  0.27887552  0.52017782  1
  O  O22  1  0.41734699  0.11570315  0.47362276  1
  O  O23  1  0.75527894  0.73654990  0.25894821  1
  O  O24  1  0.40206051  0.51266175  0.85534514  1
  O  O25  1  0.02503692  0.35027757  0.34644115  1
  O  O26  1  0.73654990  0.75527894  0.75894821  1
  O  O27  1  0.24472106  0.26345010  0.74105179  1
  O  O28  1  0.25231611  0.06970259  0.61570174  1
  O  O29  1  0.89961404  0.51726558  0.85493035  1
  O  O30  1  0.91054335  0.76357308  0.10865214  1
  O  O31  1  0.23642692  0.08945665  0.39134786  1
  O  O32  1  0.58473367  0.38474960  0.52618297  1
  O  O33  1  0.76860976  0.41353498  0.60037057  1
  O  O34  1  0.97496308  0.64972243  0.65355885  1
  O  O35  1  0.74768389  0.93029741  0.38429826  1
  O  O36  1  0.27116953  0.72883047  0.25000000  1
  O  O37  1  0.25332099  0.74667901  0.75000000  1
  O  O38  1  0.38474960  0.58473367  0.02618297  1
  O  O39  1  0.72883047  0.27116953  0.75000000  1
  O  O40  1  0.72112448  0.91137899  0.97982218  1
  O  O41  1  0.48733825  0.59793949  0.64465486  1
  O  O42  1  0.48273442  0.10038596  0.64506965  1
  O  O43  1  0.06970259  0.25231611  0.11570174  1
  O  O44  1  0.93029741  0.74768389  0.88429826  1
  O  O45  1  0.77504906  0.09048230  0.02360601  1
  O  O46  1  0.51266175  0.40206051  0.35534514  1
  O  O47  1  0.56450327  0.25768064  0.11690288  1
  O  O48  1  0.15291665  0.97280613  0.15020354  1
  O  O49  1  0.08945665  0.23642692  0.89134786  1
  O  O50  1  0.59793949  0.48733825  0.14465486  1
  O  O51  1  0.97280613  0.15291665  0.65020354  1
  O  O52  1  0.10038596  0.48273442  0.14506965  1
  O  O53  1  0.88429685  0.58265301  0.02637724  1
  O  O54  1  0.23139024  0.58646502  0.39962943  1
  O  O55  1  0.58265301  0.88429685  0.52637724  1
loop_
_geom_bond_atom_site_label_1
_geom_bond_atom_site_label_2
_geom_bond_distance
_geom_bond_site_symmetry_2
Cs0 O18 2.915308 1_555
Cs0 O48 3.047943 1_555
Cs0 O9 3.067035 1_565
Cs0 O19 3.077035 1_555
Cs0 O15 3.251228 1_565
Cs0 O31 3.374377 1_565
Cs0 O5 3.449692 1_555
Cs1 O48 2.930664 1_545
Cs1 O31 2.987238 1_555
Cs1 O25 3.009371 1_555
Cs1 O43 3.236610 1_555
Cs1 O20 3.263570 1_455
Cs1 O12 3.278368 1_455
Cs1 O4 3.544077 1_545
Cs2 O34 2.938061 1_455
Cs2 O44 3.051737 1_455
Cs2 O8 3.135286 1_555
Cs2 O29 3.194909 1_455
Cs2 O7 3.208507 1_555
Cs2 O27 3.281934 1_555
Cs2 O24 3.417131 1_555
Cs2 O37 3.497141 1_555
Cs3 O51 2.930664 1_455
Cs3 O49 2.987238 1_555
Cs3 O11 3.009371 1_555
Cs3 O28 3.236610 1_555
Cs3 O13 3.263570 1_545
Cs3 O37 3.278368 1_545
Cs3 O14 3.544077 1_455
Cs4 O52 2.915308 1_555
Cs4 O4 3.047943 1_555
Cs4 O23 3.067035 1_455
Cs4 O54 3.077035 1_555
Cs4 O17 3.251228 1_455
Cs4 O30 3.374377 1_455
Cs4 O25 3.449692 1_555
Cs5 O46 2.924358 1_555
Cs5 O36 3.068121 1_555
Cs5 O47 3.086562 1_555
Cs5 O50 3.202399 1_555
Cs5 O38 3.260362 1_555
Cs5 O54 3.406906 1_555
Cs5 O52 3.440645 1_555
Cs5 O9 3.493983 1_555
Cs6 O5 2.938061 1_545
Cs6 O35 3.051737 1_545
Cs6 O47 3.135286 1_555
Cs6 O18 3.194909 1_545
Cs6 O22 3.208507 1_555
Cs6 O9 3.281934 1_555
Cs6 O46 3.417131 1_555
Cs6 O12 3.497141 1_555
Cs7 O14 2.930664 1_565
Cs7 O16 2.987238 1_555
Cs7 O34 3.009371 1_555
Cs7 O44 3.236610 1_555
Cs7 O2 3.263570 1_655
Cs7 O37 3.278368 1_655
Cs7 O51 3.544077 1_565
Cs8 O11 2.938061 1_565
Cs8 O28 3.051737 1_565
Cs8 O1 3.135286 1_555
Cs8 O42 3.194909 1_565
Cs8 O55 3.208507 1_555
Cs8 O26 3.281934 1_555
Cs8 O41 3.417131 1_555
Cs8 O37 3.497141 1_555
Cs9 O41 2.924358 1_555
Cs9 O39 3.068121 1_555
Cs9 O1 3.086562 1_555
Cs9 O24 3.202399 1_555
Cs9 O3 3.260362 1_555
Cs9 O33 3.406906 1_555
Cs9 O29 3.440645 1_555
Cs9 O26 3.493983 1_555
Cs10 O24 2.924358 1_555
Cs10 O39 3.068121 1_555
Cs10 O8 3.086562 1_555
Cs10 O41 3.202399 1_555
Cs10 O32 3.260362 1_555
Cs10 O0 3.406906 1_555
Cs10 O42 3.440645 1_555
Cs10 O27 3.493983 1_555
Cs11 O42 2.915308 1_555
Cs11 O14 3.047943 1_555
Cs11 O26 3.067035 1_545
Cs11 O0 3.077035 1_555
Cs11 O40 3.251228 1_545
Cs11 O16 3.374377 1_545
Cs11 O11 3.449692 1_555
Cs12 O25 2.938061 1_655
Cs12 O43 3.051737 1_655
Cs12 O10 3.135286 1_555
Cs12 O52 3.194909 1_655
Cs12 O53 3.208507 1_555
Cs12 O23 3.281934 1_555
Cs12 O50 3.417131 1_555
Cs12 O12 3.497141 1_555
Cs13 O29 2.915308 1_555
Cs13 O51 3.047943 1_555
Cs13 O27 3.067035 1_655
Cs13 O33 3.077035 1_555
Cs13 O21 3.251228 1_655
Cs13 O49 3.374377 1_655
Cs13 O34 3.449692 1_555
Cs14 O4 2.930664 1_655
Cs14 O30 2.987238 1_555
Cs14 O5 3.009371 1_555
Cs14 O35 3.236610 1_555
Cs14 O45 3.263570 1_565
Cs14 O12 3.278368 1_565
Cs14 O48 3.544077 1_655
Cs15 O50 2.924358 1_555
Cs15 O36 3.068121 1_555
Cs15 O10 3.086562 1_555
Cs15 O46 3.202399 1_555
Cs15 O6 3.260362 1_555
Cs15 O19 3.406906 1_555
Cs15 O18 3.440645 1_555
Cs15 O23 3.493983 1_555
Bi0 O10 2.093871 1_555
Bi0 O46 2.146350 1_555
Bi0 O12 2.183411 1_555
Bi0 O32 2.645580 1_555
Bi1 O3 2.109690 1_555
Bi1 O24 2.140504 1_555
Bi1 O0 2.288412 1_555
Bi1 O38 2.325474 1_556
Bi1 O47 2.880088 1_556
Bi2 O17 2.110852 1_555
Bi2 O4 2.149435 1_655
Bi2 O35 2.285685 1_555
Bi2 O2 2.332474 1_655
Bi2 O16 2.808399 1_555
Bi3 O13 2.111099 1_555
Bi3 O11 2.167092 1_565
Bi3 O1 2.312632 1_555
Bi3 O15 2.321231 1_566
Bi3 O19 2.681981 1_556
Bi4 O38 2.109690 1_555
Bi4 O50 2.140504 1_555
Bi4 O19 2.288412 1_555
Bi4 O3 2.325474 1_554
Bi4 O1 2.880088 1_554
Bi5 O55 2.107093 1_545
Bi5 O42 2.136309 1_555
Bi5 O16 2.280280 1_545
Bi5 O22 2.336583 1_555
Bi6 O43 2.100326 1_555
Bi6 O52 2.152665 1_555
Bi6 O9 2.182313 1_555
Bi6 O7 2.592221 1_554
Bi6 O15 2.877801 1_555
Bi7 O2 2.111099 1_555
Bi7 O34 2.167092 1_455
Bi7 O8 2.312632 1_555
Bi7 O17 2.321231 1_455
Bi7 O54 2.681981 1_555
Bi8 O40 2.110852 1_555
Bi8 O14 2.149435 1_565
Bi8 O44 2.285685 1_555
Bi8 O45 2.332474 1_566
Bi8 O30 2.808399 1_556
Bi9 O21 2.110852 1_555
Bi9 O51 2.149435 1_455
Bi9 O28 2.285685 1_555
Bi9 O20 2.332474 1_455
Bi9 O31 2.808399 1_555
Bi10 O32 2.109690 1_555
Bi10 O41 2.140504 1_555
Bi10 O33 2.288412 1_555
Bi10 O6 2.325474 1_555
Bi10 O10 2.880088 1_555
Bi11 O1 2.093871 1_555
Bi11 O24 2.146350 1_555
Bi11 O37 2.183411 1_555
Bi11 O38 2.645580 1_556
Bi12 O19 2.108671 1_555
Bi12 O48 2.141780 1_555
Bi12 O36 2.152285 1_555
Bi12 O13 2.615749 1_554
Bi12 O38 2.834959 1_555
Bi13 O8 2.093871 1_555
Bi13 O41 2.146350 1_555
Bi13 O37 2.183411 1_555
Bi13 O6 2.645580 1_555
Bi14 O31 2.107561 1_555
Bi14 O25 2.126935 1_555
Bi14 O9 2.151266 1_555
Bi14 O21 2.669806 1_555
Bi15 O0 2.108671 1_555
Bi15 O14 2.141780 1_555
Bi15 O39 2.152285 1_555
Bi15 O45 2.615749 1_556
Bi15 O3 2.834959 1_555
Bi16 O44 2.100326 1_555
Bi16 O29 2.152665 1_555
Bi16 O26 2.182313 1_555
Bi16 O53 2.592221 1_556
Bi16 O40 2.877801 1_555
Bi17 O6 2.109690 1_555
Bi17 O46 2.140504 1_555
Bi17 O54 2.288412 1_555
Bi17 O32 2.325474 1_555
Bi17 O8 2.880088 1_555
Bi18 O33 2.108671 1_555
Bi18 O51 2.141780 1_555
Bi18 O39 2.152285 1_555
Bi18 O20 2.615749 1_555
Bi18 O32 2.834959 1_555
Bi19 O30 2.107561 1_555
Bi19 O5 2.126935 1_555
Bi19 O23 2.151266 1_555
Bi19 O40 2.669806 1_554
Bi20 O28 2.100326 1_555
Bi20 O42 2.152665 1_555
Bi20 O27 2.182313 1_555
Bi20 O22 2.592221 1_555
Bi20 O21 2.877801 1_555
Bi21 O45 2.111099 1_555
Bi21 O5 2.167092 1_545
Bi21 O47 2.312632 1_555
Bi21 O40 2.321231 1_544
Bi21 O0 2.681981 1_554
Bi22 O7 2.107093 1_655
Bi22 O29 2.136309 1_555
Bi22 O49 2.280280 1_655
Bi22 O53 2.336583 1_556
Bi23 O35 2.100326 1_555
Bi23 O18 2.152665 1_555
Bi23 O23 2.182313 1_555
Bi23 O55 2.592221 1_555
Bi23 O17 2.877801 1_555
Bi24 O16 2.107561 1_555
Bi24 O34 2.126935 1_555
Bi24 O26 2.151266 1_555
Bi24 O17 2.669806 1_555
Bi25 O54 2.108671 1_555
Bi25 O4 2.141780 1_555
Bi25 O36 2.152285 1_555
Bi25 O2 2.615749 1_555
Bi25 O6 2.834959 1_555
Bi26 O49 2.107561 1_555
Bi26 O11 2.126935 1_555
Bi26 O27 2.151266 1_555
Bi26 O15 2.669806 1_556
Bi27 O47 2.093871 1_555
Bi27 O50 2.146350 1_555
Bi27 O12 2.183411 1_555
Bi27 O3 2.645580 1_554
Bi28 O22 2.107093 1_565
Bi28 O18 2.136309 1_555
Bi28 O31 2.280280 1_565
Bi28 O55 2.336583 1_555
Bi29 O15 2.110852 1_555
Bi29 O48 2.149435 1_545
Bi29 O43 2.285685 1_555
Bi29 O13 2.332474 1_544
Bi29 O49 2.808399 1_554
Bi30 O20 2.111099 1_555
Bi30 O25 2.167092 1_655
Bi30 O10 2.312632 1_555
Bi30 O21 2.321231 1_655
Bi30 O33 2.681981 1_555
Bi31 O53 2.107093 1_455
Bi31 O52 2.136309 1_555
Bi31 O30 2.280280 1_455
Bi31 O7 2.336583 1_554
