# generated using pymatgen
data_SbCNCl5
_symmetry_space_group_name_H-M   'P 1'
_cell_length_a   6.41590000
_cell_length_b   11.42728700
_cell_length_c   13.07430052
_cell_angle_alpha   88.76796894
_cell_angle_beta   90.00000000
_cell_angle_gamma   90.00000000
_symmetry_Int_Tables_number   1
_chemical_formula_structural   SbCNCl5
_chemical_formula_sum   'Sb4 C4 N4 Cl20'
_cell_volume   958.33814004
_cell_formula_units_Z   4
loop_
 _symmetry_equiv_pos_site_id
 _symmetry_equiv_pos_as_xyz
  1  'x, y, z'
loop_
 _atom_site_type_symbol
 _atom_site_label
 _atom_site_symmetry_multiplicity
 _atom_site_fract_x
 _atom_site_fract_y
 _atom_site_fract_z
 _atom_site_occupancy
  Sb  Sb0  1  0.97630800  0.73351300  0.36634200  1
  Sb  Sb1  1  0.02369200  0.26648700  0.63365800  1
  Sb  Sb2  1  0.47630800  0.26648700  0.13365800  1
  Sb  Sb3  1  0.52369200  0.73351300  0.86634200  1
  C  C0  1  0.07654500  0.03645400  0.01757900  1
  C  C1  1  0.92345500  0.96354600  0.98242100  1
  C  C2  1  0.57654500  0.96354600  0.48242100  1
  C  C3  1  0.42345500  0.03645400  0.51757900  1
  N  N0  1  0.29362900  0.09840700  0.54749200  1
  N  N1  1  0.20637100  0.09840700  0.04749200  1
  N  N2  1  0.79362900  0.90159300  0.95250800  1
  N  N3  1  0.70637100  0.90159300  0.45250800  1
  Cl  Cl0  1  0.15476100  0.75667400  0.52368300  1
  Cl  Cl1  1  0.26159400  0.39013000  0.54647500  1
  Cl  Cl2  1  0.34523900  0.75667400  0.02368300  1
  Cl  Cl3  1  0.14512700  0.90655300  0.30469000  1
  Cl  Cl4  1  0.64512700  0.09344700  0.19531000  1
  Cl  Cl5  1  0.81137400  0.40520800  0.70756900  1
  Cl  Cl6  1  0.31137400  0.59479200  0.79243100  1
  Cl  Cl7  1  0.84523900  0.24332600  0.47631700  1
  Cl  Cl8  1  0.76159400  0.60987000  0.95352500  1
  Cl  Cl9  1  0.73065500  0.75917700  0.23312200  1
  Cl  Cl10  1  0.65476100  0.24332600  0.97631700  1
  Cl  Cl11  1  0.68862600  0.40520800  0.20756900  1
  Cl  Cl12  1  0.26934500  0.24082300  0.76687800  1
  Cl  Cl13  1  0.73840600  0.60987000  0.45352500  1
  Cl  Cl14  1  0.18862600  0.59479200  0.29243100  1
  Cl  Cl15  1  0.23065500  0.24082300  0.26687800  1
  Cl  Cl16  1  0.85487300  0.09344700  0.69531000  1
  Cl  Cl17  1  0.76934500  0.75917700  0.73312200  1
  Cl  Cl18  1  0.35487300  0.90655300  0.80469000  1
  Cl  Cl19  1  0.23840600  0.39013000  0.04647500  1
loop_
_geom_bond_atom_site_label_1
_geom_bond_atom_site_label_2
_geom_bond_distance
_geom_bond_site_symmetry_2
C0 N1 1.166133 1_555
C0 C1 1.373543 1_444
C1 N2 1.166133 1_555
C2 N3 1.166133 1_555
C2 C3 1.373543 1_565
C3 N0 1.166133 1_555
Cl0 Sb0 2.374047 1_455
Cl1 Sb1 2.357133 1_555
Cl2 Sb3 2.374047 1_554
Cl3 Sb0 2.379994 1_455
Cl4 Sb2 2.379994 1_555
Cl5 Sb1 2.316931 1_655
Cl6 Sb3 2.316931 1_555
Cl7 Sb1 2.374047 1_655
Cl8 Sb3 2.357133 1_555
Cl9 Sb0 2.362585 1_555
Cl10 Sb2 2.374047 1_556
Cl11 Sb2 2.316931 1_555
Cl12 Sb1 2.362585 1_555
Cl13 Sb0 2.357133 1_555
Cl14 Sb0 2.316931 1_455
Cl15 Sb2 2.362585 1_555
Cl16 Sb1 2.379994 1_655
Cl17 Sb3 2.362585 1_555
Cl18 Sb3 2.379994 1_555
Cl19 Sb2 2.357133 1_555
