# generated using pymatgen
data_K3IrCl6
_symmetry_space_group_name_H-M   'P 1'
_cell_length_a   7.48693073
_cell_length_b   11.91599303
_cell_length_c   12.57407065
_cell_angle_alpha   71.80943077
_cell_angle_beta   90.00000000
_cell_angle_gamma   90.00000000
_symmetry_Int_Tables_number   1
_chemical_formula_structural   K3IrCl6
_chemical_formula_sum   'K12 Ir4 Cl24'
_cell_volume   1065.72284750
_cell_formula_units_Z   4
loop_
 _symmetry_equiv_pos_site_id
 _symmetry_equiv_pos_as_xyz
  1  'x, y, z'
loop_
 _atom_site_type_symbol
 _atom_site_label
 _atom_site_symmetry_multiplicity
 _atom_site_fract_x
 _atom_site_fract_y
 _atom_site_fract_z
 _atom_site_occupancy
  K  K0  1  0.93278630  0.38601514  0.81808339  1
  K  K1  1  0.43278630  0.11398486  0.18191661  1
  K  K2  1  0.06721370  0.61398486  0.18191661  1
  K  K3  1  0.56721370  0.88601514  0.81808339  1
  K  K4  1  0.07028202  0.73385826  0.81746301  1
  K  K5  1  0.57028202  0.76614174  0.18253699  1
  K  K6  1  0.92971798  0.26614174  0.18253699  1
  K  K7  1  0.42971798  0.23385826  0.81746301  1
  K  K8  1  0.54406037  0.64303547  0.59755476  1
  K  K9  1  0.04406037  0.85696453  0.40244524  1
  K  K10  1  0.45593963  0.35696453  0.40244524  1
  K  K11  1  0.95593963  0.14303547  0.59755476  1
  Ir  Ir0  1  -0.00000000  0.00000000  0.00000000  1
  Ir  Ir1  1  0.50000000  0.50000000  0.00000000  1
  Ir  Ir2  1  -0.00000000  0.50000000  0.50000000  1
  Ir  Ir3  1  0.50000000  0.00000000  0.50000000  1
  Cl  Cl0  1  0.99731952  0.62080734  0.61765305  1
  Cl  Cl1  1  0.49731952  0.87919266  0.38234695  1
  Cl  Cl2  1  0.00268048  0.37919266  0.38234695  1
  Cl  Cl3  1  0.50268048  0.12080734  0.61765305  1
  Cl  Cl4  1  0.81269778  0.64057079  0.37581946  1
  Cl  Cl5  1  0.31269778  0.85942921  0.62418054  1
  Cl  Cl6  1  0.18730222  0.35942921  0.62418054  1
  Cl  Cl7  1  0.68730222  0.14057079  0.37581946  1
  Cl  Cl8  1  0.25945266  0.60062669  0.40837368  1
  Cl  Cl9  1  0.75945266  0.89937331  0.59162632  1
  Cl  Cl10  1  0.74054734  0.39937331  0.59162632  1
  Cl  Cl11  1  0.24054734  0.10062669  0.40837368  1
  Cl  Cl12  1  0.20500493  0.89703169  0.14053838  1
  Cl  Cl13  1  0.70500493  0.60296831  0.85946162  1
  Cl  Cl14  1  0.79499507  0.10296831  0.85946162  1
  Cl  Cl15  1  0.29499507  0.39703169  0.14053838  1
  Cl  Cl16  1  0.80726003  0.00527298  0.14802471  1
  Cl  Cl17  1  0.30726003  0.49472702  0.85197529  1
  Cl  Cl18  1  0.19273997  0.99472702  0.85197529  1
  Cl  Cl19  1  0.69273997  0.50527298  0.14802471  1
  Cl  Cl20  1  0.87019104  0.81907773  0.99941355  1
  Cl  Cl21  1  0.37019104  0.68092227  0.00058645  1
  Cl  Cl22  1  0.12980896  0.18092227  0.00058645  1
  Cl  Cl23  1  0.62980896  0.31907773  0.99941355  1
loop_
_geom_bond_atom_site_label_1
_geom_bond_atom_site_label_2
_geom_bond_distance
_geom_bond_site_symmetry_2
Cl0 Ir2 2.364504 1_655
Cl0 K0 3.163889 1_555
Cl0 K4 3.246313 1_655
Cl0 K9 3.257229 1_655
Cl0 K8 3.407082 1_555
Cl1 Ir3 2.364504 1_565
Cl1 K1 3.163889 1_565
Cl1 K5 3.246313 1_555
Cl1 K8 3.257229 1_555
Cl1 K9 3.407082 1_555
Cl2 Ir2 2.364504 1_555
Cl2 K2 3.163889 1_555
Cl2 K6 3.246313 1_455
Cl2 K11 3.257229 1_455
Cl2 K10 3.407082 1_555
Cl3 Ir3 2.364504 1_555
Cl3 K3 3.163889 1_545
Cl3 K7 3.246313 1_555
Cl3 K10 3.257229 1_555
Cl3 K11 3.407082 1_555
Cl4 Ir2 2.361651 1_655
Cl4 K5 3.028045 1_555
Cl4 K2 3.187205 1_655
Cl4 K9 3.209437 1_655
Cl4 K8 3.445400 1_555
Cl5 Ir3 2.361651 1_565
Cl5 K4 3.028045 1_555
Cl5 K3 3.187205 1_555
Cl5 K8 3.209437 1_555
Cl5 K9 3.445400 1_555
Cl6 Ir2 2.361651 1_555
Cl6 K7 3.028045 1_555
Cl6 K0 3.187205 1_455
Cl6 K11 3.209437 1_455
Cl6 K10 3.445400 1_555
Cl7 Ir3 2.361651 1_555
Cl7 K6 3.028045 1_555
Cl7 K1 3.187205 1_555
Cl7 K10 3.209437 1_555
Cl7 K11 3.445400 1_555
Cl8 Ir2 2.382421 1_555
Cl8 K2 3.149930 1_555
Cl8 K10 3.276424 1_555
Cl8 K8 3.347381 1_555
Cl8 K9 3.434247 1_555
Cl8 K5 3.724588 1_555
Cl9 Ir3 2.382421 1_565
Cl9 K3 3.149930 1_555
Cl9 K11 3.276424 1_565
Cl9 K9 3.347381 1_655
Cl9 K8 3.434247 1_555
Cl9 K4 3.724588 1_655
Cl10 Ir2 2.382421 1_655
Cl10 K0 3.149930 1_555
Cl10 K8 3.276424 1_555
Cl10 K10 3.347381 1_555
Cl10 K11 3.434247 1_555
Cl10 K7 3.724588 1_555
Cl11 Ir3 2.382421 1_555
Cl11 K1 3.149930 1_555
Cl11 K9 3.276424 1_545
Cl11 K11 3.347381 1_455
Cl11 K10 3.434247 1_555
Cl11 K6 3.724588 1_455
Cl12 Ir0 2.372821 1_565
Cl12 K5 3.110690 1_555
Cl12 K1 3.271416 1_565
Cl12 K9 3.397593 1_555
Cl12 K2 3.408079 1_555
Cl13 Ir1 2.372821 1_556
Cl13 K4 3.110690 1_655
Cl13 K0 3.271416 1_555
Cl13 K8 3.397593 1_555
Cl13 K3 3.408079 1_555
Cl14 Ir0 2.372821 1_656
Cl14 K7 3.110690 1_555
Cl14 K3 3.271416 1_545
Cl14 K11 3.397593 1_555
Cl14 K0 3.408079 1_555
Cl15 Ir1 2.372821 1_555
Cl15 K6 3.110690 1_455
Cl15 K2 3.271416 1_555
Cl15 K10 3.397593 1_555
Cl15 K1 3.408079 1_555
Cl16 Ir0 2.371422 1_655
Cl16 K1 3.172519 1_555
Cl16 K5 3.268602 1_545
Cl16 K6 3.396171 1_555
Cl16 K9 3.601492 1_645
Cl17 Ir1 2.371422 1_556
Cl17 K0 3.172519 1_455
Cl17 K4 3.268602 1_555
Cl17 K7 3.396171 1_555
Cl17 K8 3.601492 1_555
Cl18 Ir0 2.371422 1_566
Cl18 K3 3.172519 1_555
Cl18 K7 3.268602 1_565
Cl18 K4 3.396171 1_555
Cl18 K11 3.601492 1_465
Cl19 Ir1 2.371422 1_555
Cl19 K2 3.172519 1_655
Cl19 K6 3.268602 1_555
Cl19 K5 3.396171 1_555
Cl19 K10 3.601492 1_555
Cl20 Ir0 2.366914 1_666
Cl20 K5 3.136057 1_556
Cl20 K3 3.137658 1_555
Cl20 K2 3.148503 1_656
Cl20 K4 3.155985 1_655
Cl21 Ir1 2.366914 1_555
Cl21 K4 3.136057 1_554
Cl21 K2 3.137658 1_555
Cl21 K3 3.148503 1_554
Cl21 K5 3.155985 1_555
Cl22 Ir0 2.366914 1_555
Cl22 K7 3.136057 1_554
Cl22 K1 3.137658 1_555
Cl22 K0 3.148503 1_454
Cl22 K6 3.155985 1_455
Cl23 Ir1 2.366914 1_556
Cl23 K6 3.136057 1_556
Cl23 K0 3.137658 1_555
Cl23 K1 3.148503 1_556
Cl23 K7 3.155985 1_555
