# generated using pymatgen
data_Na3OsO5
_symmetry_space_group_name_H-M   'P 1'
_cell_length_a   5.50457466
_cell_length_b   5.50453321
_cell_length_c   13.36012050
_cell_angle_alpha   90.00067267
_cell_angle_beta   90.00012937
_cell_angle_gamma   120.00383471
_symmetry_Int_Tables_number   1
_chemical_formula_structural   Na3OsO5
_chemical_formula_sum   'Na9 Os3 O15'
_cell_volume   350.56494549
_cell_formula_units_Z   3
loop_
 _symmetry_equiv_pos_site_id
 _symmetry_equiv_pos_as_xyz
  1  'x, y, z'
loop_
 _atom_site_type_symbol
 _atom_site_label
 _atom_site_symmetry_multiplicity
 _atom_site_fract_x
 _atom_site_fract_y
 _atom_site_fract_z
 _atom_site_occupancy
  Na  Na0  1  0.90632392  0.28995819  0.91429614  1
  Na  Na1  1  0.71004498  0.61636108  0.24765158  1
  Na  Na2  1  0.09362947  0.38357384  0.41903392  1
  Na  Na3  1  0.38357920  0.09363261  0.58097358  1
  Na  Na4  1  0.72754174  0.72750906  0.50001616  1
  Na  Na5  1  0.61636825  0.71006028  0.75236028  1
  Na  Na6  1  0.27250054  -0.00000470  0.83333557  1
  Na  Na7  1  0.00002683  0.27250891  0.16664961  1
  Na  Na8  1  0.28997165  0.90633063  0.08568364  1
  Os  Os0  1  0.39007326  0.00001271  0.33334803  1
  Os  Os1  1  0.00000120  0.39007697  0.66666995  1
  Os  Os2  1  0.60993717  0.60993888  -0.00001101  1
  O  O0  1  0.48955830  0.83160289  0.93507239  1
  O  O1  1  0.00001221  0.71118478  0.66666700  1
  O  O2  1  0.51047014  0.34205947  0.39826079  1
  O  O3  1  0.65793282  0.16842700  0.73158411  1
  O  O4  1  0.83735424  0.16026807  0.55884542  1
  O  O5  1  0.16262836  0.32291942  0.77448980  1
  O  O6  1  0.83160290  0.48955420  0.06490716  1
  O  O7  1  0.83972394  0.67708847  0.89216346  1
  O  O8  1  0.32292106  0.16263878  0.22551230  1
  O  O9  1  0.16025667  0.83734903  0.44116362  1
  O  O10  1  0.71117500  0.00000947  0.33334372  1
  O  O11  1  0.16840264  0.65791714  0.26842180  1
  O  O12  1  0.34206387  0.51048828  0.60175142  1
  O  O13  1  0.28881865  0.28881658  0.99999051  1
  O  O14  1  0.67707999  0.83971895  0.10782105  1
loop_
_geom_bond_atom_site_label_1
_geom_bond_atom_site_label_2
_geom_bond_distance
_geom_bond_site_symmetry_2
Na0 O5 2.292642 1_655
Na0 O7 2.354613 1_555
Na0 O13 2.399382 1_655
Na0 O6 2.424263 1_556
Na0 O0 2.432474 1_545
Na0 O3 2.713100 1_555
Na1 O14 2.292972 1_555
Na1 O8 2.354431 1_555
Na1 O10 2.399430 1_565
Na1 O2 2.424169 1_555
Na1 O11 2.432687 1_655
Na1 O6 2.713464 1_555
Na2 O4 2.292565 1_455
Na2 O9 2.354744 1_555
Na2 O10 2.398957 1_455
Na2 O11 2.424311 1_555
Na2 O2 2.432800 1_555
Na2 O12 2.713255 1_555
Na3 O9 2.292554 1_545
Na3 O4 2.354748 1_555
Na3 O1 2.398996 1_545
Na3 O3 2.424291 1_555
Na3 O12 2.432873 1_555
Na3 O2 2.713205 1_555
Na4 O9 2.284076 1_655
Na4 O4 2.284197 1_565
Na4 O12 2.289509 1_555
Na4 O2 2.289543 1_555
Na4 O1 2.711005 1_655
Na4 O10 2.711418 1_565
Na5 O7 2.292674 1_555
Na5 O5 2.354522 1_555
Na5 O1 2.399457 1_655
Na5 O12 2.424142 1_555
Na5 O3 2.432710 1_565
Na5 O0 2.713051 1_555
Na6 O7 2.284159 1_445
Na6 O5 2.284460 1_555
Na6 O3 2.289477 1_555
Na6 O0 2.289513 1_545
Na6 O13 2.711115 1_555
Na6 O1 2.711178 1_545
Na7 O14 2.284238 1_445
Na7 O8 2.284384 1_555
Na7 O11 2.289526 1_555
Na7 O6 2.289624 1_455
Na7 O13 2.711110 1_554
Na7 O10 2.711581 1_455
Na8 O8 2.292887 1_565
Na8 O14 2.354552 1_555
Na8 O13 2.399360 1_564
Na8 O0 2.424264 1_554
Na8 O6 2.432537 1_455
Na8 O11 2.713481 1_555
O0 Os2 1.867806 1_556
O1 Os1 1.767518 1_555
O2 Os0 1.867700 1_555
O3 Os1 1.867788 1_655
O4 Os1 1.828721 1_655
O5 Os1 1.828661 1_555
O6 Os2 1.867846 1_555
O7 Os2 1.828714 1_556
O8 Os0 1.828814 1_555
O9 Os0 1.828686 1_565
O10 Os0 1.767537 1_555
O11 Os0 1.867953 1_565
O12 Os1 1.867826 1_555
O13 Os2 1.767522 1_556
O14 Os2 1.828742 1_555
