# generated using pymatgen
data_Li4SiO4
_symmetry_space_group_name_H-M   'P 1'
_cell_length_a   6.12778800
_cell_length_b   11.64405100
_cell_length_c   16.83604301
_cell_angle_alpha   81.03006278
_cell_angle_beta   90.00000000
_cell_angle_gamma   90.00000000
_symmetry_Int_Tables_number   1
_chemical_formula_structural   Li4SiO4
_chemical_formula_sum   'Li56 Si14 O56'
_cell_volume   1186.59855308
_cell_formula_units_Z   14
loop_
 _symmetry_equiv_pos_site_id
 _symmetry_equiv_pos_as_xyz
  1  'x, y, z'
loop_
 _atom_site_type_symbol
 _atom_site_label
 _atom_site_symmetry_multiplicity
 _atom_site_fract_x
 _atom_site_fract_y
 _atom_site_fract_z
 _atom_site_occupancy
  Li  Li0  1  0.25000000  0.02743000  0.42982600  1
  Li  Li1  1  0.49432300  0.47693700  0.11719300  1
  Li  Li2  1  0.00655900  0.33668600  0.82683300  1
  Li  Li3  1  0.03925900  0.76206300  0.59811700  1
  Li  Li4  1  0.98592600  0.07932700  0.13285700  1
  Li  Li5  1  0.75000000  0.87334800  0.71141900  1
  Li  Li6  1  0.53058400  0.80705500  0.01488600  1
  Li  Li7  1  0.25000000  0.72544500  0.85974700  1
  Li  Li8  1  0.02938300  0.05084700  0.70709800  1
  Li  Li9  1  0.03058400  0.19294500  0.98511400  1
  Li  Li10  1  0.97061700  0.94915300  0.29290200  1
  Li  Li11  1  0.99635300  0.38341400  0.59181400  1
  Li  Li12  1  0.53461400  0.66588000  0.73240300  1
  Li  Li13  1  0.25000000  0.99448900  0.01061300  1
  Li  Li14  1  0.25000000  0.85993100  0.73241700  1
  Li  Li15  1  0.75000000  0.27455500  0.14025300  1
  Li  Li16  1  0.46074100  0.76206300  0.59811700  1
  Li  Li17  1  0.00364700  0.61658600  0.40818600  1
  Li  Li18  1  0.51407400  0.07932700  0.13285700  1
  Li  Li19  1  0.99678800  0.81212500  0.45453200  1
  Li  Li20  1  0.25000000  0.87135100  0.14646500  1
  Li  Li21  1  0.96074100  0.23793700  0.40188300  1
  Li  Li22  1  0.49678800  0.18787500  0.54546800  1
  Li  Li23  1  0.50364700  0.38341400  0.59181400  1
  Li  Li24  1  0.03461400  0.33412000  0.26759700  1
  Li  Li25  1  0.25000000  0.41048200  0.98328100  1
  Li  Li26  1  0.75000000  0.72806400  0.30416300  1
  Li  Li27  1  0.47061700  0.05084700  0.70709800  1
  Li  Li28  1  0.53925900  0.23793700  0.40188300  1
  Li  Li29  1  0.49635300  0.61658600  0.40818600  1
  Li  Li30  1  0.52938300  0.94915300  0.29290200  1
  Li  Li31  1  0.50655900  0.66331400  0.17316700  1
  Li  Li32  1  0.99344100  0.66331400  0.17316700  1
  Li  Li33  1  0.00567700  0.47693700  0.11719300  1
  Li  Li34  1  0.25000000  0.54718000  0.27736800  1
  Li  Li35  1  0.25000000  0.12665200  0.28858100  1
  Li  Li36  1  0.00321200  0.18787500  0.54546800  1
  Li  Li37  1  0.48592600  0.92067300  0.86714300  1
  Li  Li38  1  0.75000000  0.14006900  0.26758300  1
  Li  Li39  1  0.25000000  0.27193600  0.69583700  1
  Li  Li40  1  0.75000000  0.00551100  0.98938700  1
  Li  Li41  1  0.75000000  0.97257000  0.57017400  1
  Li  Li42  1  0.25000000  0.58273200  0.55011100  1
  Li  Li43  1  0.46538600  0.33412000  0.26759700  1
  Li  Li44  1  0.01407400  0.92067300  0.86714300  1
  Li  Li45  1  0.75000000  0.41726800  0.44988900  1
  Li  Li46  1  0.75000000  0.12864900  0.85353500  1
  Li  Li47  1  0.99432300  0.52306300  0.88280700  1
  Li  Li48  1  0.96538600  0.66588000  0.73240300  1
  Li  Li49  1  0.75000000  0.45282000  0.72263200  1
  Li  Li50  1  0.96941600  0.80705500  0.01488600  1
  Li  Li51  1  0.49344100  0.33668600  0.82683300  1
  Li  Li52  1  0.50567700  0.52306300  0.88280700  1
  Li  Li53  1  0.46941600  0.19294500  0.98511400  1
  Li  Li54  1  0.75000000  0.58951800  0.01671900  1
  Li  Li55  1  0.50321200  0.81212500  0.45453200  1
  Si  Si0  1  0.25000000  0.52272700  0.71387500  1
  Si  Si1  1  0.25000000  0.24787300  0.13789200  1
  Si  Si2  1  0.75000000  0.47727300  0.28612500  1
  Si  Si3  1  0.75000000  0.61583700  0.57118000  1
  Si  Si4  1  0.75000000  0.89543300  0.14360000  1
  Si  Si5  1  0.75000000  0.34112900  0.99384200  1
  Si  Si6  1  0.25000000  0.65887100  0.00615800  1
  Si  Si7  1  0.75000000  0.75212700  0.86210800  1
  Si  Si8  1  0.25000000  0.38416300  0.42882000  1
  Si  Si9  1  0.25000000  0.10456700  0.85640000  1
  Si  Si10  1  0.75000000  0.04012000  0.42118700  1
  Si  Si11  1  0.25000000  0.79816400  0.29247200  1
  Si  Si12  1  0.75000000  0.20183600  0.70752800  1
  Si  Si13  1  0.25000000  0.95988000  0.57881300  1
  O  O0  1  0.25000000  0.66627000  0.67580800  1
  O  O1  1  0.25000000  0.09140300  0.52959000  1
  O  O2  1  0.75000000  0.76189900  0.18738000  1
  O  O3  1  0.25000000  0.71761900  0.22065900  1
  O  O4  1  0.52596600  0.35759900  0.93948700  1
  O  O5  1  0.75000000  0.69602800  0.64709600  1
  O  O6  1  0.75000000  0.61649200  0.90150600  1
  O  O7  1  0.52773800  0.65512200  0.51849300  1
  O  O8  1  0.46903700  0.21475100  0.19623000  1
  O  O9  1  0.96903700  0.78524900  0.80377000  1
  O  O10  1  0.25000000  0.38350800  0.09849400  1
  O  O11  1  0.53201600  0.92757400  0.08383800  1
  O  O12  1  0.52799500  0.49799100  0.23003000  1
  O  O13  1  0.25000000  0.00759900  0.79307800  1
  O  O14  1  0.97509800  0.21759200  0.65375000  1
  O  O15  1  0.75000000  0.99240100  0.20692200  1
  O  O16  1  0.97403400  0.35759900  0.93948700  1
  O  O17  1  0.25000000  0.93757000  0.24607900  1
  O  O18  1  0.02799500  0.50200900  0.76997000  1
  O  O19  1  0.25000000  0.44419200  0.64089000  1
  O  O20  1  0.52490200  0.21759200  0.65375000  1
  O  O21  1  0.75000000  0.13291700  0.48576500  1
  O  O22  1  0.47226200  0.34487800  0.48150700  1
  O  O23  1  0.53144200  0.06937200  0.36175900  1
  O  O24  1  0.97226200  0.65512200  0.51849300  1
  O  O25  1  0.25000000  0.23810100  0.81262000  1
  O  O26  1  0.02490200  0.78240800  0.34625000  1
  O  O27  1  0.96855800  0.06937200  0.36175900  1
  O  O28  1  0.97200500  0.49799100  0.23003000  1
  O  O29  1  0.03144200  0.93062800  0.63824100  1
  O  O30  1  0.75000000  0.33373000  0.32419200  1
  O  O31  1  0.47200500  0.50200900  0.76997000  1
  O  O32  1  0.75000000  0.47656700  0.60498100  1
  O  O33  1  0.53096300  0.78524900  0.80377000  1
  O  O34  1  0.25000000  0.57900900  0.93371400  1
  O  O35  1  0.46798400  0.07242600  0.91616200  1
  O  O36  1  0.47509800  0.78240800  0.34625000  1
  O  O37  1  0.25000000  0.30397200  0.35290400  1
  O  O38  1  0.96798400  0.92757400  0.08383800  1
  O  O39  1  0.47403400  0.64240100  0.06051300  1
  O  O40  1  0.25000000  0.52343300  0.39501900  1
  O  O41  1  0.75000000  0.28238100  0.77934100  1
  O  O42  1  0.75000000  0.42099100  0.06628600  1
  O  O43  1  0.25000000  0.86708300  0.51423500  1
  O  O44  1  0.02773800  0.34487800  0.48150700  1
  O  O45  1  0.75000000  0.84425500  0.92911400  1
  O  O46  1  0.75000000  0.55580800  0.35911000  1
  O  O47  1  0.25000000  0.15574500  0.07088600  1
  O  O48  1  0.75000000  0.06243000  0.75392100  1
  O  O49  1  0.75000000  0.90859700  0.47041000  1
  O  O50  1  0.02596600  0.64240100  0.06051300  1
  O  O51  1  0.46855800  0.93062800  0.63824100  1
  O  O52  1  0.03096300  0.21475100  0.19623000  1
  O  O53  1  0.75000000  0.20019600  0.03966700  1
  O  O54  1  0.03201600  0.07242600  0.91616200  1
  O  O55  1  0.25000000  0.79980400  0.96033300  1
loop_
_geom_bond_atom_site_label_1
_geom_bond_atom_site_label_2
_geom_bond_distance
_geom_bond_site_symmetry_2
Li0 O1 1.940669 1_555
Li0 O23 2.086039 1_555
Li0 O27 2.086039 1_455
Li0 O43 2.162911 1_545
Li1 O10 1.905493 1_555
Li1 O42 1.946203 1_555
Li1 O12 1.963892 1_555
Li1 O39 2.016140 1_555
Li2 O41 1.915319 1_455
Li2 O25 1.919893 1_555
Li2 O16 1.959672 1_455
Li2 O18 2.016141 1_555
Li3 O24 2.009168 1_455
Li3 O0 2.041505 1_555
Li3 O5 2.053123 1_455
Li3 O43 2.149170 1_555
Li3 O29 2.173615 1_555
Li4 O47 2.051677 1_655
Li4 O52 2.055664 1_655
Li4 O38 2.066467 1_545
Li4 O15 2.067822 1_545
Li4 O53 2.417413 1_555
Li5 O29 2.163517 1_655
Li5 O51 2.163517 1_555
Li5 O9 2.184942 1_555
Li5 O33 2.184942 1_555
Li5 O48 2.418823 1_565
Li5 O5 2.476510 1_555
Li6 O11 1.955775 1_555
Li6 O55 1.957312 1_554
Li6 O45 1.971207 1_554
Li6 O39 1.981597 1_555
Li7 O34 1.948346 1_555
Li7 O55 2.018602 1_555
Li7 O33 2.032889 1_555
Li7 O9 2.032889 1_455
Li8 O48 1.898349 1_455
Li8 O29 1.951838 1_545
Li8 O13 1.987294 1_555
Li8 O14 2.035516 1_455
Li9 O54 1.955775 1_555
Li9 O53 1.957312 1_456
Li9 O47 1.971207 1_556
Li9 O16 1.981597 1_455
Li10 O17 1.898349 1_655
Li10 O27 1.951838 1_565
Li10 O15 1.987294 1_555
Li10 O26 2.035516 1_655
Li11 O32 1.891967 1_555
Li11 O19 1.944659 1_655
Li11 O44 1.986740 1_655
Li11 O14 2.050514 1_555
Li12 O5 1.941843 1_555
Li12 O31 1.952388 1_555
Li12 O33 1.974058 1_555
Li12 O0 1.987031 1_555
Li13 O35 2.164830 1_564
Li13 O54 2.164830 1_564
Li13 O11 2.194048 1_555
Li13 O38 2.194048 1_455
Li13 O47 2.269263 1_565
Li13 O55 2.540458 1_554
Li14 O13 2.132406 1_565
Li14 O51 2.139692 1_555
Li14 O29 2.139692 1_555
Li14 O33 2.199492 1_555
Li14 O9 2.199492 1_455
Li14 O0 2.581385 1_555
Li15 O42 1.948346 1_555
Li15 O53 2.018602 1_555
Li15 O52 2.032889 1_655
Li15 O8 2.032889 1_555
Li16 O7 2.009168 1_555
Li16 O0 2.041505 1_555
Li16 O5 2.053123 1_555
Li16 O43 2.149170 1_555
Li16 O51 2.173615 1_555
Li17 O40 1.891967 1_555
Li17 O46 1.944659 1_455
Li17 O24 1.986740 1_455
Li17 O26 2.050514 1_555
Li18 O47 2.051677 1_555
Li18 O8 2.055664 1_555
Li18 O11 2.066467 1_545
Li18 O15 2.067822 1_545
Li18 O53 2.417413 1_555
Li19 O26 1.915620 1_655
Li19 O49 1.927149 1_555
Li19 O24 1.977484 1_555
Li19 O43 2.006988 1_655
Li20 O17 1.952039 1_555
Li20 O3 2.016778 1_555
Li20 O11 2.076421 1_555
Li20 O38 2.076421 1_455
Li21 O44 2.009168 1_655
Li21 O30 2.041505 1_555
Li21 O37 2.053123 1_655
Li21 O21 2.149170 1_555
Li21 O27 2.173615 1_555
Li22 O20 1.915620 1_555
Li22 O1 1.927149 1_555
Li22 O22 1.977484 1_555
Li22 O21 2.006988 1_555
Li23 O32 1.891967 1_555
Li23 O19 1.944659 1_555
Li23 O22 1.986740 1_555
Li23 O20 2.050514 1_555
Li24 O37 1.941843 1_555
Li24 O28 1.952388 1_455
Li24 O52 1.974058 1_555
Li24 O30 1.987031 1_455
Li25 O10 1.916044 1_556
Li25 O4 1.980929 1_555
Li25 O16 1.980929 1_455
Li25 O34 2.009110 1_555
Li26 O2 1.944084 1_555
Li26 O26 1.969771 1_655
Li26 O36 1.969771 1_555
Li26 O46 2.073704 1_555
Li27 O48 1.898349 1_555
Li27 O51 1.951838 1_545
Li27 O13 1.987294 1_555
Li27 O20 2.035516 1_555
Li28 O22 2.009168 1_555
Li28 O30 2.041505 1_555
Li28 O37 2.053123 1_555
Li28 O21 2.149170 1_555
Li28 O23 2.173615 1_555
Li29 O40 1.891967 1_555
Li29 O46 1.944659 1_555
Li29 O7 1.986740 1_555
Li29 O36 2.050514 1_555
Li30 O17 1.898349 1_555
Li30 O23 1.951838 1_565
Li30 O15 1.987294 1_555
Li30 O36 2.035516 1_555
Li31 O3 1.915319 1_555
Li31 O2 1.919893 1_555
Li31 O39 1.959672 1_555
Li31 O12 2.016141 1_555
Li32 O3 1.915319 1_655
Li32 O2 1.919893 1_555
Li32 O50 1.959672 1_655
Li32 O28 2.016141 1_555
Li33 O10 1.905493 1_555
Li33 O42 1.946203 1_455
Li33 O28 1.963892 1_455
Li33 O50 2.016140 1_555
Li34 O40 1.956820 1_555
Li34 O12 2.001868 1_555
Li34 O28 2.001868 1_455
Li34 O3 2.063815 1_555
Li35 O23 2.163517 1_555
Li35 O27 2.163517 1_455
Li35 O8 2.184942 1_555
Li35 O52 2.184942 1_555
Li35 O17 2.418823 1_545
Li35 O37 2.476510 1_555
Li36 O14 1.915620 1_455
Li36 O1 1.927149 1_555
Li36 O44 1.977484 1_555
Li36 O21 2.006988 1_455
Li37 O45 2.051677 1_555
Li37 O33 2.055664 1_555
Li37 O35 2.066467 1_565
Li37 O13 2.067822 1_565
Li37 O55 2.417413 1_555
Li38 O15 2.132406 1_545
Li38 O27 2.139692 1_555
Li38 O23 2.139692 1_555
Li38 O52 2.199492 1_655
Li38 O8 2.199492 1_555
Li38 O30 2.581385 1_555
Li39 O25 1.944084 1_555
Li39 O20 1.969771 1_555
Li39 O14 1.969771 1_455
Li39 O19 2.073704 1_555
Li40 O38 2.164830 1_546
Li40 O11 2.164830 1_546
Li40 O54 2.194048 1_655
Li40 O35 2.194048 1_555
Li40 O45 2.269263 1_545
Li40 O53 2.540458 1_556
Li41 O49 1.940669 1_555
Li41 O29 2.086039 1_655
Li41 O51 2.086039 1_555
Li41 O21 2.162911 1_565
Li42 O7 1.936615 1_555
Li42 O24 1.936615 1_455
Li42 O19 2.041903 1_555
Li42 O0 2.463040 1_555
Li43 O37 1.941843 1_555
Li43 O12 1.952388 1_555
Li43 O8 1.974058 1_555
Li43 O30 1.987031 1_555
Li44 O45 2.051677 1_455
Li44 O9 2.055664 1_455
Li44 O54 2.066467 1_565
Li44 O13 2.067822 1_565
Li44 O55 2.417413 1_555
Li45 O44 1.936615 1_655
Li45 O22 1.936615 1_555
Li45 O46 2.041903 1_555
Li45 O30 2.463040 1_555
Li46 O48 1.952039 1_555
Li46 O41 2.016778 1_555
Li46 O54 2.076421 1_655
Li46 O35 2.076421 1_555
Li47 O6 1.905493 1_555
Li47 O34 1.946203 1_655
Li47 O18 1.963892 1_655
Li47 O16 2.016140 1_555
Li48 O5 1.941843 1_555
Li48 O18 1.952388 1_655
Li48 O9 1.974058 1_555
Li48 O0 1.987031 1_655
Li49 O32 1.956820 1_555
Li49 O18 2.001868 1_655
Li49 O31 2.001868 1_555
Li49 O41 2.063815 1_555
Li50 O38 1.955775 1_555
Li50 O55 1.957312 1_654
Li50 O45 1.971207 1_554
Li50 O50 1.981597 1_655
Li51 O41 1.915319 1_555
Li51 O25 1.919893 1_555
Li51 O4 1.959672 1_555
Li51 O31 2.016141 1_555
Li52 O6 1.905493 1_555
Li52 O34 1.946203 1_555
Li52 O31 1.963892 1_555
Li52 O4 2.016140 1_555
Li53 O35 1.955775 1_555
Li53 O53 1.957312 1_556
Li53 O47 1.971207 1_556
Li53 O4 1.981597 1_555
Li54 O6 1.916044 1_554
Li54 O50 1.980929 1_655
Li54 O39 1.980929 1_555
Li54 O42 2.009110 1_555
Li55 O36 1.915620 1_555
Li55 O49 1.927149 1_555
Li55 O7 1.977484 1_555
Li55 O43 2.006988 1_555
O0 Si0 1.694215 1_555
O1 Si13 1.623695 1_545
O2 Si4 1.613552 1_555
O3 Si11 1.641643 1_555
O4 Si5 1.644437 1_555
O5 Si3 1.696362 1_555
O6 Si7 1.614813 1_555
O7 Si3 1.650616 1_555
O8 Si1 1.672374 1_555
O9 Si7 1.672374 1_555
O10 Si1 1.614813 1_555
O11 Si4 1.679061 1_555
O12 Si2 1.652200 1_555
O13 Si9 1.669365 1_555
O14 Si12 1.644457 1_555
O15 Si4 1.669365 1_555
O16 Si5 1.644437 1_555
O17 Si11 1.688092 1_555
O18 Si0 1.652200 1_555
O19 Si0 1.642115 1_555
O20 Si12 1.644457 1_555
O21 Si10 1.648022 1_555
O22 Si8 1.650616 1_555
O23 Si10 1.674656 1_555
O24 Si3 1.650616 1_555
O25 Si9 1.613552 1_555
O26 Si11 1.644457 1_555
O27 Si10 1.674656 1_555
O28 Si2 1.652200 1_555
O29 Si13 1.674656 1_555
O30 Si2 1.694215 1_555
O31 Si0 1.652200 1_555
O32 Si3 1.632751 1_555
O33 Si7 1.672374 1_555
O34 Si6 1.644998 1_556
O35 Si9 1.679061 1_555
O36 Si11 1.644457 1_555
O37 Si8 1.696362 1_555
O38 Si4 1.679061 1_555
O39 Si6 1.644437 1_555
O40 Si8 1.632751 1_555
O41 Si12 1.641643 1_555
O42 Si5 1.644998 1_554
O43 Si13 1.648022 1_555
O44 Si8 1.650616 1_555
O45 Si7 1.673558 1_555
O46 Si2 1.642115 1_555
O47 Si1 1.673558 1_555
O48 Si12 1.688092 1_555
O49 Si10 1.623695 1_565
O50 Si6 1.644437 1_555
O51 Si13 1.674656 1_555
O52 Si1 1.672374 1_555
O53 Si5 1.701003 1_554
O54 Si9 1.679061 1_555
O55 Si6 1.701003 1_556
