# generated using pymatgen
data_ZrPb2F8
_symmetry_space_group_name_H-M   'P 1'
_cell_length_a   5.51727100
_cell_length_b   9.89905500
_cell_length_c   11.83574500
_cell_angle_alpha   90.00000000
_cell_angle_beta   90.00000000
_cell_angle_gamma   90.00000000
_symmetry_Int_Tables_number   1
_chemical_formula_structural   ZrPb2F8
_chemical_formula_sum   'Zr4 Pb8 F32'
_cell_volume   646.41831580
_cell_formula_units_Z   4
loop_
 _symmetry_equiv_pos_site_id
 _symmetry_equiv_pos_as_xyz
  1  'x, y, z'
loop_
 _atom_site_type_symbol
 _atom_site_label
 _atom_site_symmetry_multiplicity
 _atom_site_fract_x
 _atom_site_fract_y
 _atom_site_fract_z
 _atom_site_occupancy
  Zr  Zr0  1  0.75000000  0.25182600  0.63048200  1
  Zr  Zr1  1  0.25000000  0.74817400  0.36951800  1
  Zr  Zr2  1  0.75000000  0.75182600  0.86951800  1
  Zr  Zr3  1  0.25000000  0.24817400  0.13048200  1
  Pb  Pb0  1  0.75000000  0.63984200  0.57640600  1
  Pb  Pb1  1  0.25000000  0.36015800  0.42359400  1
  Pb  Pb2  1  0.75000000  0.13984200  0.92359400  1
  Pb  Pb3  1  0.25000000  0.86015800  0.07640600  1
  Pb  Pb4  1  0.75000000  0.03491500  0.34749100  1
  Pb  Pb5  1  0.25000000  0.96508500  0.65250900  1
  Pb  Pb6  1  0.75000000  0.53491500  0.15250900  1
  Pb  Pb7  1  0.25000000  0.46508500  0.84749100  1
  F  F0  1  0.00843300  0.40324800  0.62557800  1
  F  F1  1  0.50843300  0.59675200  0.37442200  1
  F  F2  1  0.49156700  0.90324800  0.87442200  1
  F  F3  1  0.99156700  0.09675200  0.12557800  1
  F  F4  1  0.99156700  0.59675200  0.37442200  1
  F  F5  1  0.49156700  0.40324800  0.62557800  1
  F  F6  1  0.50843300  0.09675200  0.12557800  1
  F  F7  1  0.00843300  0.90324800  0.87442200  1
  F  F8  1  0.49716700  0.36894400  0.03249900  1
  F  F9  1  0.99716700  0.63105600  0.96750100  1
  F  F10  1  0.00283300  0.86894400  0.46750100  1
  F  F11  1  0.50283300  0.13105600  0.53249900  1
  F  F12  1  0.50283300  0.63105600  0.96750100  1
  F  F13  1  0.00283300  0.36894400  0.03249900  1
  F  F14  1  0.99716700  0.13105600  0.53249900  1
  F  F15  1  0.49716700  0.86894400  0.46750100  1
  F  F16  1  0.98700500  0.13801200  0.73969300  1
  F  F17  1  0.48700500  0.86198800  0.26030700  1
  F  F18  1  0.51299500  0.63801200  0.76030700  1
  F  F19  1  0.01299500  0.36198800  0.23969300  1
  F  F20  1  0.01299500  0.86198800  0.26030700  1
  F  F21  1  0.51299500  0.13801200  0.73969300  1
  F  F22  1  0.48700500  0.36198800  0.23969300  1
  F  F23  1  0.98700500  0.63801200  0.76030700  1
  F  F24  1  0.75000000  0.32601600  0.45817200  1
  F  F25  1  0.25000000  0.67398400  0.54182800  1
  F  F26  1  0.75000000  0.82601600  0.04182800  1
  F  F27  1  0.25000000  0.17398400  0.95817200  1
  F  F28  1  0.75000000  0.34402700  0.80354900  1
  F  F29  1  0.25000000  0.65597300  0.19645100  1
  F  F30  1  0.75000000  0.84402700  0.69645100  1
  F  F31  1  0.25000000  0.15597300  0.30354900  1
loop_
_geom_bond_atom_site_label_1
_geom_bond_atom_site_label_2
_geom_bond_distance
_geom_bond_site_symmetry_2
F0 Zr0 2.069591 1_455
F1 Zr1 2.069591 1_555
F2 Zr2 2.069591 1_555
F3 Zr3 2.069591 1_655
F4 Zr1 2.069591 1_655
F5 Zr0 2.069591 1_555
F6 Zr3 2.069591 1_555
F7 Zr2 2.069591 1_455
F8 Zr3 2.152625 1_555
F8 Pb6 2.581229 1_555
F8 Pb7 2.749583 1_554
F9 Zr2 2.152625 1_555
F9 Pb7 2.581229 1_655
F9 Pb6 2.749583 1_556
F10 Zr1 2.152625 1_555
F10 Pb4 2.581229 1_465
F10 Pb5 2.749583 1_555
F11 Zr0 2.152625 1_555
F11 Pb5 2.581229 1_545
F11 Pb4 2.749583 1_555
F12 Zr2 2.152625 1_555
F12 Pb7 2.581229 1_555
F12 Pb6 2.749583 1_556
F13 Zr3 2.152625 1_555
F13 Pb6 2.581229 1_455
F13 Pb7 2.749583 1_554
F14 Zr0 2.152625 1_555
F14 Pb5 2.581229 1_645
F14 Pb4 2.749583 1_555
F15 Zr1 2.152625 1_555
F15 Pb4 2.581229 1_565
F15 Pb5 2.749583 1_555
F16 Zr0 2.156389 1_555
F16 Pb5 2.469928 1_645
F16 Pb2 2.539254 1_555
F17 Zr1 2.156389 1_555
F17 Pb4 2.469928 1_565
F17 Pb3 2.539254 1_555
F18 Zr2 2.156389 1_555
F18 Pb7 2.469928 1_555
F18 Pb0 2.539254 1_555
F19 Zr3 2.156389 1_555
F19 Pb6 2.469928 1_455
F19 Pb1 2.539254 1_555
F20 Zr1 2.156389 1_555
F20 Pb4 2.469928 1_465
F20 Pb3 2.539254 1_555
F21 Zr0 2.156389 1_555
F21 Pb5 2.469928 1_545
F21 Pb2 2.539254 1_555
F22 Zr3 2.156389 1_555
F22 Pb6 2.469928 1_555
F22 Pb1 2.539254 1_555
F23 Zr2 2.156389 1_555
F23 Pb7 2.469928 1_655
F23 Pb0 2.539254 1_555
F24 Zr0 2.167621 1_555
F25 Zr1 2.167621 1_555
F26 Zr2 2.167621 1_554
F27 Zr3 2.167621 1_556
F28 Zr0 2.242515 1_555
F28 Pb2 2.470656 1_555
F29 Zr1 2.242515 1_555
F29 Pb3 2.470656 1_555
F30 Zr2 2.242515 1_555
F30 Pb0 2.470656 1_555
F31 Zr3 2.242515 1_555
F31 Pb1 2.470656 1_555
