# generated using pymatgen
data_K2YHf(PO4)3
_symmetry_space_group_name_H-M   'P 1'
_cell_length_a   10.47077800
_cell_length_b   10.47652601
_cell_length_c   20.97800181
_cell_angle_alpha   90.07002584
_cell_angle_beta   90.00656861
_cell_angle_gamma   90.00194148
_symmetry_Int_Tables_number   1
_chemical_formula_structural   K2YHf(PO4)3
_chemical_formula_sum   'K16 Y8 Hf8 P24 O96'
_cell_volume   2301.23005902
_cell_formula_units_Z   8
loop_
 _symmetry_equiv_pos_site_id
 _symmetry_equiv_pos_as_xyz
  1  'x, y, z'
loop_
 _atom_site_type_symbol
 _atom_site_label
 _atom_site_symmetry_multiplicity
 _atom_site_fract_x
 _atom_site_fract_y
 _atom_site_fract_z
 _atom_site_occupancy
  K  K0  1  0.07966100  0.56499900  0.71275300  1
  K  K1  1  0.07206000  0.57395600  0.21452300  1
  K  K2  1  0.19453400  0.19725800  0.85179100  1
  K  K3  1  0.19922100  0.20199000  0.35095000  1
  K  K4  1  0.28967800  0.80703500  0.09841800  1
  K  K5  1  0.31075000  0.79947700  0.59689000  1
  K  K6  1  0.42788600  0.41978500  0.96528700  1
  K  K7  1  0.42952100  0.43066200  0.47252800  1
  K  K8  1  0.56737300  0.93854900  0.78403600  1
  K  K9  1  0.56667000  0.91848400  0.28428700  1
  K  K10  1  0.69195300  0.30012700  0.65270200  1
  K  K11  1  0.70572900  0.30057000  0.14650900  1
  K  K12  1  0.79553300  0.69462300  0.39932000  1
  K  K13  1  0.80490000  0.70524800  0.90630300  1
  K  K14  1  0.93074400  0.07045100  0.53985000  1
  K  K15  1  0.93955700  0.06674700  0.03473700  1
  Y  Y0  1  0.08009300  0.41298100  0.54286000  1
  Y  Y1  1  0.08483900  0.41897800  0.04183100  1
  Y  Y2  1  0.14673700  0.84849000  0.92344400  1
  Y  Y3  1  0.35002800  0.14989600  0.67498100  1
  Y  Y4  1  0.41730200  0.58063700  0.29235800  1
  Y  Y5  1  0.58166300  0.08185600  0.95816700  1
  Y  Y6  1  0.65000900  0.65171700  0.57409100  1
  Y  Y7  1  0.91416400  0.91760500  0.21011800  1
  Hf  Hf0  1  0.14581700  0.85941900  0.42695800  1
  Hf  Hf1  1  0.35683000  0.14445800  0.17972100  1
  Hf  Hf2  1  0.41390600  0.58667700  0.79320500  1
  Hf  Hf3  1  0.58833100  0.08416100  0.45871500  1
  Hf  Hf4  1  0.64576300  0.64194000  0.07187200  1
  Hf  Hf5  1  0.85687900  0.35413100  0.32275300  1
  Hf  Hf6  1  0.85202400  0.35776900  0.82190300  1
  Hf  Hf7  1  0.91690400  0.91129700  0.70602200  1
  P  P0  1  0.02859200  0.22845100  0.69040300  1
  P  P1  1  0.04421700  0.23895500  0.19111200  1
  P  P2  1  0.12536600  0.52950300  0.87734500  1
  P  P3  1  0.11803500  0.54539200  0.38387800  1
  P  P4  1  0.23120000  0.87147800  0.76467500  1
  P  P5  1  0.23672400  0.87704400  0.26957500  1
  P  P6  1  0.27344900  0.12408700  0.51410200  1
  P  P7  1  0.26278900  0.12068500  0.02402600  1
  P  P8  1  0.38214100  0.45673400  0.13190500  1
  P  P9  1  0.37393600  0.46981100  0.63554600  1
  P  P10  1  0.46161100  0.75668700  0.93891300  1
  P  P11  1  0.46250500  0.77463600  0.43642700  1
  P  P12  1  0.53410900  0.27701000  0.81434800  1
  P  P13  1  0.54409800  0.25767500  0.31417400  1
  P  P14  1  0.63144600  0.97148300  0.61670600  1
  P  P15  1  0.61783300  0.95475500  0.11769500  1
  P  P16  1  0.72991300  0.62653000  0.73495700  1
  P  P17  1  0.74038100  0.61625100  0.22867500  1
  P  P18  1  0.76850900  0.37488200  0.98079700  1
  P  P19  1  0.76192000  0.37138000  0.47784800  1
  P  P20  1  0.87323100  0.03931800  0.37112900  1
  P  P21  1  0.87181700  0.03972000  0.86085000  1
  P  P22  1  0.96735600  0.74202000  0.56079100  1
  P  P23  1  0.95692800  0.73726400  0.06282800  1
  O  O0  1  0.99279400  0.08467200  0.68360500  1
  O  O1  1  0.98923400  0.10685400  0.17540900  1
  O  O2  1  0.02566100  0.43787600  0.84560700  1
  O  O3  1  0.00304300  0.47014200  0.35468600  1
  O  O4  1  0.01127200  0.29146600  0.62486700  1
  O  O5  1  0.02421100  0.33211500  0.13576100  1
  O  O6  1  0.06139600  0.80704800  0.51273600  1
  O  O7  1  0.02297800  0.78798300  0.00261500  1
  O  O8  1  0.07305000  0.66673200  0.87593800  1
  O  O9  1  0.07757100  0.68939100  0.38775900  1
  O  O10  1  0.09072100  0.84447400  0.74286800  1
  O  O11  1  0.10334700  0.84590300  0.24414500  1
  O  O12  1  0.15600900  0.48360600  0.94497900  1
  O  O13  1  0.14954900  0.49478800  0.45046300  1
  O  O14  1  0.16599700  0.23833300  0.71614600  1
  O  O15  1  0.18858600  0.23197400  0.21007200  1
  O  O16  1  0.20616100  0.00331000  0.98999500  1
  O  O17  1  0.20793500  0.02726400  0.46805800  1
  O  O18  1  0.20460700  0.25253000  0.50648400  1
  O  O19  1  0.17430100  0.23468900  0.01069800  1
  O  O20  1  0.23325100  0.92802800  0.83246600  1
  O  O21  1  0.22862100  0.91582400  0.34140600  1
  O  O22  1  0.23813600  0.48253500  0.60776800  1
  O  O23  1  0.27101800  0.47271500  0.08516900  1
  O  O24  1  0.24756800  0.51850900  0.83529400  1
  O  O25  1  0.23178500  0.52838000  0.33845700  1
  O  O26  1  0.26854400  0.07182500  0.58247300  1
  O  O27  1  0.26429100  0.09095800  0.09723400  1
  O  O28  1  0.30591000  0.74230800  0.76388700  1
  O  O29  1  0.32796000  0.76469800  0.25907100  1
  O  O30  1  0.29884000  0.96014400  0.71722700  1
  O  O31  1  0.29445200  0.99339600  0.23338000  1
  O  O32  1  0.32478600  0.75524800  0.96554800  1
  O  O33  1  0.31754700  0.77810100  0.45409500  1
  O  O34  1  0.36781100  0.50937100  0.70733900  1
  O  O35  1  0.34835800  0.51106100  0.19757400  1
  O  O36  1  0.39858400  0.14917000  0.00056200  1
  O  O37  1  0.41488900  0.14264000  0.49291200  1
  O  O38  1  0.42326500  0.33148200  0.63001900  1
  O  O39  1  0.42271900  0.31350000  0.13798000  1
  O  O40  1  0.45546200  0.20989900  0.76258300  1
  O  O41  1  0.46720200  0.19667500  0.25835200  1
  O  O42  1  0.46752400  0.67282100  0.87758400  1
  O  O43  1  0.48516200  0.70192500  0.37398600  1
  O  O44  1  0.49706900  0.53006900  0.10210700  1
  O  O45  1  0.46336700  0.56110000  0.59958900  1
  O  O46  1  0.50766800  0.89168800  0.92251800  1
  O  O47  1  0.51193900  0.91377200  0.42836100  1
  O  O48  1  0.49217000  0.41833700  0.82309500  1
  O  O49  1  0.48679400  0.38791100  0.33180100  1
  O  O50  1  0.54295800  0.06552300  0.65131100  1
  O  O51  1  0.50261700  0.03070400  0.14612000  1
  O  O52  1  0.51249600  0.20648300  0.87742100  1
  O  O53  1  0.53416800  0.16414600  0.37129600  1
  O  O54  1  0.55351300  0.69304200  0.98804300  1
  O  O55  1  0.53569000  0.70802600  0.48986200  1
  O  O56  1  0.57817700  0.83489000  0.61861700  1
  O  O57  1  0.57516100  0.81170800  0.11149300  1
  O  O58  1  0.59315500  0.65572900  0.76021100  1
  O  O59  1  0.60699000  0.64559800  0.25469000  1
  O  O60  1  0.65543900  0.00895800  0.05239900  1
  O  O61  1  0.65177700  0.01569800  0.54621800  1
  O  O62  1  0.67797700  0.27888500  0.79425400  1
  O  O63  1  0.68625700  0.26755900  0.29285000  1
  O  O64  1  0.70246100  0.48042100  0.51670200  1
  O  O65  1  0.71291800  0.48868300  0.01975500  1
  O  O66  1  0.67725400  0.26205200  0.98945600  1
  O  O67  1  0.67014300  0.25498000  0.48396300  1
  O  O68  1  0.72638300  0.56950000  0.66747600  1
  O  O69  1  0.73351800  0.58118600  0.15647400  1
  O  O70  1  0.74416600  0.01813300  0.89514900  1
  O  O71  1  0.75989900  0.02738900  0.41827700  1
  O  O72  1  0.76377400  0.97663000  0.65118200  1
  O  O73  1  0.72734800  0.96851900  0.16581000  1
  O  O74  1  0.77745400  0.41752000  0.90938700  1
  O  O75  1  0.76663400  0.41170900  0.40612200  1
  O  O76  1  0.80898300  0.75259500  0.73545700  1
  O  O77  1  0.83218900  0.72812900  0.23985900  1
  O  O78  1  0.79813400  0.53202500  0.78116500  1
  O  O79  1  0.79763500  0.49867500  0.26440400  1
  O  O80  1  0.83030700  0.74864900  0.53435800  1
  O  O81  1  0.81097500  0.73206600  0.04690200  1
  O  O82  1  0.83634100  0.98408900  0.30615600  1
  O  O83  1  0.85791200  0.98883600  0.79129800  1
  O  O84  1  0.90117500  0.33952300  0.00592400  1
  O  O85  1  0.89513200  0.33498700  0.50215300  1
  O  O86  1  0.91554300  0.18143300  0.36627400  1
  O  O87  1  0.90702300  0.18455400  0.85917400  1
  O  O88  1  0.93346900  0.29668800  0.73687200  1
  O  O89  1  0.97318800  0.29426300  0.25047600  1
  O  O90  1  0.97890700  0.82129400  0.62360900  1
  O  O91  1  0.98059900  0.83159000  0.11781200  1
  O  O92  1  0.97901400  0.96921700  0.89591400  1
  O  O93  1  0.98394200  0.96046100  0.40109100  1
  O  O94  1  0.00690800  0.60413000  0.57496500  1
  O  O95  1  0.00802100  0.60416000  0.08028300  1
loop_
_geom_bond_atom_site_label_1
_geom_bond_atom_site_label_2
_geom_bond_distance
_geom_bond_site_symmetry_2
K0 O22 2.889047 1_555
K0 O10 2.996785 1_555
K0 O94 3.017594 1_555
K0 O34 3.075028 1_555
K0 O2 3.141692 1_555
K0 O24 3.152554 1_555
K0 O28 3.194949 1_555
K0 O88 3.241000 1_455
K0 O78 3.297069 1_455
K1 O95 2.912363 1_555
K1 O11 2.933629 1_555
K1 O35 2.988337 1_555
K1 O77 3.032845 1_455
K1 O5 3.064295 1_555
K1 O25 3.128349 1_555
K1 O79 3.158514 1_455
K1 O89 3.198772 1_455
K1 O3 3.218538 1_555
K2 O20 2.877807 1_545
K2 O14 2.893871 1_555
K2 O87 3.017404 1_455
K2 O2 3.082071 1_555
K3 O15 2.974441 1_555
K3 O86 2.995484 1_455
K3 O21 3.020202 1_545
K3 O17 3.066826 1_555
K4 O32 2.862752 1_554
K4 O27 2.986523 1_565
K4 O57 3.002148 1_555
K4 O16 3.190213 1_564
K4 O91 3.271915 1_455
K5 O56 2.861041 1_555
K5 O26 2.903452 1_565
K5 O45 2.965516 1_555
K5 O33 3.004492 1_555
K5 O30 3.035007 1_555
K5 O6 3.152638 1_555
K6 O36 2.946977 1_556
K6 O12 2.955192 1_555
K6 O52 3.027643 1_555
K6 O23 3.054119 1_556
K6 O48 3.058000 1_555
K6 O66 3.131703 1_555
K6 O44 3.176343 1_556
K6 O54 3.185905 1_555
K6 O42 3.255264 1_555
K6 O65 3.275813 1_556
K7 O45 3.014744 1_555
K7 O13 3.043027 1_555
K7 O49 3.045117 1_555
K7 O64 3.048961 1_555
K7 O37 3.051981 1_555
K7 O18 3.088626 1_555
K7 O67 3.129577 1_555
K7 O55 3.131914 1_555
K8 O46 3.012506 1_555
K8 O58 3.016346 1_555
K8 O70 3.090201 1_565
K8 O83 3.091140 1_555
K8 O50 3.097770 1_565
K8 O40 3.108121 1_565
K8 O30 3.149808 1_555
K9 O82 2.941896 1_555
K9 O59 2.955137 1_555
K9 O29 3.019990 1_555
K9 O73 3.047405 1_555
K9 O43 3.070384 1_555
K9 O47 3.076755 1_555
K9 O41 3.143066 1_565
K9 O31 3.143615 1_555
K9 O53 3.171753 1_565
K9 O51 3.200169 1_565
K10 O68 2.861468 1_555
K10 O38 2.872201 1_555
K10 O50 2.911228 1_555
K10 O62 2.981686 1_555
K10 O88 3.084369 1_555
K11 O69 2.961366 1_555
K11 O39 2.971814 1_555
K11 O63 3.096523 1_555
K12 O80 2.910959 1_555
K12 O9 2.963630 1_655
K12 O75 2.982942 1_555
K13 O8 2.907206 1_655
K13 O81 2.963171 1_556
K13 O74 3.028819 1_555
K13 O54 3.144330 1_555
K13 O7 3.168928 1_656
K13 O78 3.190316 1_555
K13 O92 3.319686 1_555
K13 O70 3.347549 1_565
K14 O85 2.906981 1_555
K14 O61 2.979815 1_555
K14 O4 3.040168 1_655
K14 O72 3.079578 1_545
K14 O0 3.088231 1_555
K14 O6 3.131571 1_645
K14 O71 3.147068 1_555
K14 O93 3.178613 1_545
K14 O90 3.188491 1_545
K14 O17 3.300953 1_655
K15 O84 2.949205 1_555
K15 O16 3.019043 1_654
K15 O1 3.025264 1_555
K15 O91 3.049870 1_545
K15 O60 3.058553 1_555
K15 O19 3.064907 1_655
K15 O92 3.112688 1_544
K15 O7 3.121177 1_645
Hf0 O17 2.062670 1_565
Hf0 O33 2.069843 1_555
Hf0 O93 2.071043 1_455
Hf0 O6 2.079225 1_555
Hf0 O21 2.079621 1_555
Hf0 O9 2.087122 1_555
Hf1 O31 2.050073 1_545
Hf1 O27 2.060234 1_555
Hf1 O51 2.060497 1_555
Hf1 O15 2.085273 1_555
Hf1 O41 2.086408 1_555
Hf1 O39 2.093542 1_555
Hf2 O34 2.032183 1_555
Hf2 O48 2.043957 1_555
Hf2 O42 2.063681 1_555
Hf2 O28 2.077940 1_555
Hf2 O24 2.079641 1_555
Hf2 O58 2.127559 1_555
Hf3 O37 2.046316 1_555
Hf3 O67 2.052916 1_555
Hf3 O47 2.056410 1_545
Hf3 O71 2.073597 1_555
Hf3 O61 2.080463 1_555
Hf3 O53 2.095345 1_555
Hf4 O81 2.039551 1_555
Hf4 O44 2.049857 1_555
Hf4 O65 2.064869 1_555
Hf4 O54 2.077051 1_554
Hf4 O57 2.096975 1_555
Hf4 O69 2.098024 1_555
Hf5 O89 2.042947 1_555
Hf5 O79 2.044671 1_555
Hf5 O3 2.065396 1_655
Hf5 O75 2.076853 1_555
Hf5 O63 2.099071 1_555
Hf5 O86 2.118564 1_555
Hf6 O87 2.059006 1_555
Hf6 O2 2.062961 1_655
Hf6 O88 2.077551 1_555
Hf6 O62 2.083042 1_555
Hf6 O74 2.089778 1_555
Hf6 O78 2.094117 1_555
Hf7 O0 2.038099 1_565
Hf7 O83 2.058740 1_555
Hf7 O90 2.072644 1_555
Hf7 O72 2.089120 1_555
Hf7 O10 2.097867 1_655
Hf7 O76 2.103607 1_555
O0 P0 1.558594 1_655
O1 P1 1.534306 1_655
O1 Y7 2.254456 1_545
O2 P2 1.566168 1_555
O3 P3 1.563607 1_555
O4 P0 1.536557 1_555
O4 Y0 2.259447 1_555
O5 P1 1.532139 1_555
O5 Y1 2.262410 1_555
O6 P22 1.565831 1_455
O7 P23 1.535580 1_455
O7 Y2 2.200568 1_554
O8 P2 1.538841 1_555
O8 Y2 2.282436 1_555
O9 P3 1.569011 1_555
O10 P4 1.566025 1_555
O11 P5 1.529962 1_555
O11 Y7 2.235810 1_455
O12 P2 1.532579 1_555
O12 Y1 2.268368 1_556
O13 P3 1.530611 1_555
O13 Y0 2.241609 1_555
O14 P0 1.540129 1_555
O14 Y3 2.305609 1_555
O15 P1 1.564798 1_555
O16 P7 1.539825 1_556
O16 Y2 2.227391 1_545
O17 P6 1.558816 1_555
O18 P6 1.535069 1_555
O18 Y0 2.259425 1_555
O19 P7 1.537527 1_555
O19 Y1 2.242508 1_555
O20 P4 1.540069 1_555
O20 Y2 2.271938 1_555
O21 P5 1.562516 1_555
O22 P9 1.542479 1_555
O22 Y0 2.262851 1_555
O23 P8 1.530770 1_555
O23 Y1 2.223076 1_555
O24 P2 1.558434 1_555
O25 P3 1.535622 1_555
O25 Y4 2.238287 1_555
O26 P6 1.536728 1_555
O26 Y3 2.271273 1_555
O27 P7 1.567468 1_555
O28 P4 1.563181 1_555
O29 P5 1.531661 1_555
O29 Y4 2.254866 1_555
O30 P4 1.535452 1_555
O30 Y3 2.242531 1_565
O31 P5 1.558876 1_555
O32 P10 1.537907 1_555
O32 Y2 2.282958 1_555
O33 P11 1.562875 1_555
O34 P9 1.562894 1_555
O35 P8 1.531363 1_555
O35 Y4 2.236559 1_555
O36 P7 1.534137 1_555
O36 Y5 2.227567 1_554
O37 P6 1.558540 1_555
O38 P9 1.542752 1_555
O38 Y3 2.258595 1_555
O39 P8 1.564944 1_555
O40 P12 1.532842 1_555
O40 Y3 2.233336 1_555
O41 P13 1.557541 1_555
O42 P10 1.558303 1_555
O43 P11 1.532973 1_555
O43 Y4 2.246358 1_555
O44 P8 1.558991 1_555
O45 P9 1.537008 1_555
O45 Y6 2.237851 1_555
O46 P10 1.533754 1_555
O46 Y5 2.263834 1_565
O47 P11 1.556247 1_555
O48 P12 1.555034 1_555
O49 P13 1.535342 1_555
O49 Y4 2.301067 1_555
O50 P14 1.534464 1_545
O50 Y3 2.260110 1_555
O51 P15 1.563060 1_545
O52 P12 1.533074 1_555
O52 Y5 2.259138 1_555
O53 P13 1.552341 1_555
O54 P10 1.560231 1_555
O55 P11 1.527254 1_555
O55 Y6 2.214742 1_555
O56 P14 1.536432 1_555
O56 Y6 2.262011 1_555
O57 P15 1.569057 1_555
O58 P16 1.557102 1_555
O59 P17 1.530670 1_555
O59 Y4 2.243676 1_555
O60 P15 1.534868 1_545
O60 Y5 2.256352 1_554
O61 P14 1.564665 1_545
O62 P12 1.564452 1_555
O63 P13 1.557808 1_555
O64 P19 1.534556 1_555
O64 Y6 2.228566 1_555
O65 P18 1.557544 1_554
O66 P18 1.530936 1_555
O66 Y5 2.234558 1_555
O67 P19 1.558000 1_555
O68 P16 1.536305 1_555
O68 Y6 2.285399 1_555
O69 P17 1.559757 1_555
O70 P21 1.534918 1_555
O70 Y5 2.255437 1_555
O71 P20 1.550044 1_555
O72 P14 1.563801 1_555
O73 P15 1.534242 1_555
O73 Y7 2.230628 1_555
O74 P18 1.566556 1_555
O75 P19 1.564144 1_555
O76 P16 1.558772 1_555
O77 P17 1.533671 1_555
O77 Y7 2.251548 1_555
O78 P16 1.559618 1_555
O79 P17 1.562269 1_555
O80 P22 1.539960 1_555
O80 Y6 2.300507 1_555
O81 P23 1.565228 1_555
O82 P20 1.529609 1_565
O82 Y7 2.281467 1_555
O83 P21 1.559579 1_565
O84 P18 1.531360 1_554
O84 Y1 2.226357 1_655
O85 P19 1.533377 1_555
O85 Y0 2.268359 1_655
O86 P20 1.556834 1_555
O87 P21 1.561920 1_555
O88 P0 1.565873 1_655
O89 P1 1.561481 1_655
O90 P22 1.561491 1_555
O91 P23 1.538043 1_555
O91 Y7 2.245364 1_555
O92 P21 1.532219 1_565
O92 Y2 2.240348 1_655
O93 P20 1.556460 1_565
O94 P22 1.532279 1_455
O94 Y0 2.246790 1_555
O95 P23 1.538207 1_455
O95 Y1 2.248983 1_555
