# generated using pymatgen
data_Dy3S4
_symmetry_space_group_name_H-M   'P 1'
_cell_length_a   7.19321393
_cell_length_b   7.19321393
_cell_length_c   7.19321393
_cell_angle_alpha   109.47122063
_cell_angle_beta   109.47122063
_cell_angle_gamma   109.47122063
_symmetry_Int_Tables_number   1
_chemical_formula_structural   Dy3S4
_chemical_formula_sum   'Dy6 S8'
_cell_volume   286.51478618
_cell_formula_units_Z   2
loop_
 _symmetry_equiv_pos_site_id
 _symmetry_equiv_pos_as_xyz
  1  'x, y, z'
loop_
 _atom_site_type_symbol
 _atom_site_label
 _atom_site_symmetry_multiplicity
 _atom_site_fract_x
 _atom_site_fract_y
 _atom_site_fract_z
 _atom_site_occupancy
  Dy  Dy0  1  0.25000000  0.12500000  0.87500000  1
  Dy  Dy1  1  0.12500000  0.87500000  0.25000000  1
  Dy  Dy2  1  0.75000000  0.37500000  0.62500000  1
  Dy  Dy3  1  0.87500000  0.25000000  0.12500000  1
  Dy  Dy4  1  0.62500000  0.75000000  0.37500000  1
  Dy  Dy5  1  0.37500000  0.62500000  0.75000000  1
  S  S0  1  0.50000000  0.00000000  0.64266800  1
  S  S1  1  0.00000000  0.64266800  0.50000000  1
  S  S2  1  0.64266800  0.50000000  0.00000000  1
  S  S3  1  0.00000000  0.14266800  0.50000000  1
  S  S4  1  0.85733200  0.85733200  0.85733200  1
  S  S5  1  0.35733200  0.35733200  0.35733200  1
  S  S6  1  0.14266800  0.50000000  0.00000000  1
  S  S7  1  0.50000000  0.00000000  0.14266800  1
loop_
_geom_bond_atom_site_label_1
_geom_bond_atom_site_label_2
_geom_bond_distance
_geom_bond_site_symmetry_2
Dy0 S4 2.770077 1_445
Dy0 S7 2.770077 1_556
Dy0 S2 2.770077 1_556
Dy0 S3 2.770077 1_555
Dy0 S1 2.985812 1_545
Dy0 S5 2.985812 1_556
Dy0 S6 2.985812 1_556
Dy0 S0 2.985812 1_555
Dy1 S4 2.770077 1_454
Dy1 S0 2.770077 1_565
Dy1 S6 2.770077 1_555
Dy1 S3 2.770077 1_565
Dy1 S1 2.985812 1_555
Dy1 S2 2.985812 1_455
Dy1 S5 2.985812 1_565
Dy1 S7 2.985812 1_565
Dy2 S5 2.770077 1_555
Dy2 S6 2.770077 1_656
Dy2 S1 2.770077 1_655
Dy2 S0 2.770077 1_555
Dy2 S7 2.985812 1_555
Dy2 S4 2.985812 1_555
Dy2 S2 2.985812 1_556
Dy2 S3 2.985812 1_655
Dy3 S6 2.770077 1_655
Dy3 S7 2.770077 1_555
Dy3 S4 2.770077 1_544
Dy3 S1 2.770077 1_655
Dy3 S2 2.985812 1_555
Dy3 S5 2.985812 1_655
Dy3 S0 2.985812 1_554
Dy3 S3 2.985812 1_655
Dy4 S5 2.770077 1_555
Dy4 S3 2.770077 1_665
Dy4 S0 2.770077 1_565
Dy4 S2 2.770077 1_555
Dy4 S4 2.985812 1_555
Dy4 S7 2.985812 1_565
Dy4 S6 2.985812 1_555
Dy4 S1 2.985812 1_655
Dy5 S7 2.770077 1_566
Dy5 S1 2.770077 1_555
Dy5 S5 2.770077 1_555
Dy5 S2 2.770077 1_556
Dy5 S4 2.985812 1_555
Dy5 S3 2.985812 1_555
Dy5 S0 2.985812 1_565
Dy5 S6 2.985812 1_556
