# generated using pymatgen
data_Sr5(GeN3)2
_symmetry_space_group_name_H-M   'P 1'
_cell_length_a   6.15121409
_cell_length_b   6.15121409
_cell_length_c   13.60662666
_cell_angle_alpha   81.38646639
_cell_angle_beta   81.38646639
_cell_angle_gamma   64.28504048
_symmetry_Int_Tables_number   1
_chemical_formula_structural   Sr5(GeN3)2
_chemical_formula_sum   'Sr10 Ge4 N12'
_cell_volume   456.53825016
_cell_formula_units_Z   2
loop_
 _symmetry_equiv_pos_site_id
 _symmetry_equiv_pos_as_xyz
  1  'x, y, z'
loop_
 _atom_site_type_symbol
 _atom_site_label
 _atom_site_symmetry_multiplicity
 _atom_site_fract_x
 _atom_site_fract_y
 _atom_site_fract_z
 _atom_site_occupancy
  Sr  Sr0  1  0.93218895  0.75762900  0.71546936  1
  Sr  Sr1  1  0.32416062  0.79530251  0.50288333  1
  Sr  Sr2  1  0.75762900  0.93218895  0.21546936  1
  Sr  Sr3  1  0.62102752  0.37897248  0.75000000  1
  Sr  Sr4  1  0.79530251  0.32416062  0.00288333  1
  Sr  Sr5  1  0.37897248  0.62102752  0.25000000  1
  Sr  Sr6  1  0.67583938  0.20469749  0.49711667  1
  Sr  Sr7  1  0.20469749  0.67583938  0.99711667  1
  Sr  Sr8  1  0.24237100  0.06781105  0.78453064  1
  Sr  Sr9  1  0.06781105  0.24237100  0.28453064  1
  Ge  Ge0  1  0.65059028  0.90357199  0.92366373  1
  Ge  Ge1  1  0.09642801  0.34940972  0.57633627  1
  Ge  Ge2  1  0.90357199  0.65059028  0.42366373  1
  Ge  Ge3  1  0.34940972  0.09642801  0.07633627  1
  N  N0  1  0.35360828  0.20879281  0.93686444  1
  N  N1  1  0.69173074  0.60549418  0.35191156  1
  N  N2  1  0.20879281  0.35360828  0.43686444  1
  N  N3  1  0.09713691  0.01588716  0.12740980  1
  N  N4  1  0.79120719  0.64639172  0.56313556  1
  N  N5  1  0.64639172  0.79120719  0.06313556  1
  N  N6  1  0.90286309  0.98411284  0.87259020  1
  N  N7  1  0.98411284  0.90286309  0.37259020  1
  N  N8  1  0.30826926  0.39450582  0.64808844  1
  N  N9  1  0.39450582  0.30826926  0.14808844  1
  N  N10  1  0.60549418  0.69173074  0.85191156  1
  N  N11  1  0.01588716  0.09713691  0.62740980  1
loop_
_geom_bond_atom_site_label_1
_geom_bond_atom_site_label_2
_geom_bond_distance
_geom_bond_site_symmetry_2
Ge0 N6 1.837776 1_555
Ge0 N10 1.871901 1_555
Ge0 N5 1.920346 1_556
Ge0 N0 1.980099 1_565
Ge1 N11 1.837776 1_555
Ge1 N8 1.871901 1_555
Ge1 N2 1.920346 1_555
Ge1 N4 1.980099 1_455
Ge2 N7 1.837776 1_555
Ge2 N1 1.871901 1_555
Ge2 N4 1.920346 1_555
Ge2 N2 1.980099 1_655
Ge3 N3 1.837776 1_555
Ge3 N9 1.871901 1_555
Ge3 N0 1.920346 1_554
Ge3 N5 1.980099 1_545
N0 Sr8 2.644751 1_555
N0 Sr7 2.821643 1_555
N0 Sr3 3.116201 1_555
N0 Sr4 3.202599 1_456
N1 Sr5 2.496607 1_555
N1 Sr9 2.583682 1_655
N1 Sr2 2.648263 1_555
N1 Sr1 2.780553 1_555
N1 Sr6 2.946781 1_555
N2 Sr9 2.644751 1_555
N2 Sr6 2.821643 1_555
N2 Sr5 3.116201 1_555
N2 Sr1 3.202599 1_545
N3 Sr2 2.461874 1_445
N3 Sr4 2.615064 1_455
N3 Sr9 2.665052 1_555
N3 Sr7 2.741249 1_544
N3 Sr5 2.772329 1_545
N4 Sr0 2.644751 1_555
N4 Sr1 2.821643 1_555
N4 Sr3 3.116201 1_555
N4 Sr6 3.202599 1_565
N5 Sr2 2.644751 1_555
N5 Sr4 2.821643 1_555
N5 Sr5 3.116201 1_555
N5 Sr7 3.202599 1_654
N6 Sr8 2.461874 1_665
N6 Sr7 2.615064 1_655
N6 Sr0 2.665052 1_555
N6 Sr4 2.741249 1_566
N6 Sr3 2.772329 1_565
N7 Sr9 2.461874 1_665
N7 Sr6 2.615064 1_565
N7 Sr2 2.665052 1_555
N7 Sr1 2.741249 1_655
N7 Sr5 2.772329 1_655
N8 Sr3 2.496607 1_555
N8 Sr0 2.583682 1_455
N8 Sr8 2.648263 1_555
N8 Sr6 2.780553 1_555
N8 Sr1 2.946781 1_555
N9 Sr5 2.496607 1_555
N9 Sr2 2.583682 1_545
N9 Sr9 2.648263 1_555
N9 Sr7 2.780553 1_554
N9 Sr4 2.946781 1_555
N10 Sr3 2.496607 1_555
N10 Sr8 2.583682 1_565
N10 Sr0 2.648263 1_555
N10 Sr4 2.780553 1_556
N10 Sr7 2.946781 1_555
N11 Sr0 2.461874 1_445
N11 Sr1 2.615064 1_545
N11 Sr8 2.665052 1_555
N11 Sr6 2.741249 1_455
N11 Sr3 2.772329 1_455
