# generated using pymatgen
data_PaH3
_symmetry_space_group_name_H-M   'P 1'
_cell_length_a   6.70599047
_cell_length_b   6.71743547
_cell_length_c   6.71744221
_cell_angle_alpha   90.00000000
_cell_angle_beta   90.00000000
_cell_angle_gamma   90.00000000
_symmetry_Int_Tables_number   1
_chemical_formula_structural   PaH3
_chemical_formula_sum   'Pa8 H24'
_cell_volume   302.60101049
_cell_formula_units_Z   8
loop_
 _symmetry_equiv_pos_site_id
 _symmetry_equiv_pos_as_xyz
  1  'x, y, z'
loop_
 _atom_site_type_symbol
 _atom_site_label
 _atom_site_symmetry_multiplicity
 _atom_site_fract_x
 _atom_site_fract_y
 _atom_site_fract_z
 _atom_site_occupancy
  Pa  Pa0  1  -0.00000000  0.00000000  -0.00000000  1
  Pa  Pa1  1  0.50000000  0.50000000  0.50000000  1
  Pa  Pa2  1  0.25001683  0.00000000  0.50000000  1
  Pa  Pa3  1  0.74998317  0.00000000  0.50000000  1
  Pa  Pa4  1  -0.00000000  0.50000000  0.24904309  1
  Pa  Pa5  1  -0.00000000  0.50000000  0.75095691  1
  Pa  Pa6  1  0.50000000  0.74904750  -0.00000000  1
  Pa  Pa7  1  0.50000000  0.25095250  -0.00000000  1
  H  H0  1  -0.00000000  0.15497051  0.30351168  1
  H  H1  1  0.50000000  0.19648381  0.65496923  1
  H  H2  1  0.50000000  0.80351619  0.34503077  1
  H  H3  1  0.80375617  0.65464240  0.50000000  1
  H  H4  1  0.19624383  0.65464240  0.50000000  1
  H  H5  1  0.34562684  0.50000000  0.80363321  1
  H  H6  1  0.65437316  0.50000000  0.80363321  1
  H  H7  1  0.30375007  0.00000000  0.15463458  1
  H  H8  1  0.15438315  0.30359982  -0.00000000  1
  H  H9  1  0.84561685  0.69640018  -0.00000000  1
  H  H10  1  0.30375007  0.00000000  0.84536542  1
  H  H11  1  0.84561685  0.30359982  -0.00000000  1
  H  H12  1  0.69624993  0.00000000  0.15463458  1
  H  H13  1  0.69624993  0.00000000  0.84536542  1
  H  H14  1  0.15438315  0.69640018  -0.00000000  1
  H  H15  1  -0.00000000  0.84502949  0.69648832  1
  H  H16  1  -0.00000000  0.15497051  0.69648832  1
  H  H17  1  -0.00000000  0.84502949  0.30351168  1
  H  H18  1  0.65437316  0.50000000  0.19636779  1
  H  H19  1  0.34562684  0.50000000  0.19636779  1
  H  H20  1  0.80375617  0.34535760  0.50000000  1
  H  H21  1  0.19624383  0.34535760  0.50000000  1
  H  H22  1  0.50000000  0.80351619  0.65496923  1
  H  H23  1  0.50000000  0.19648381  0.34503077  1
loop_
_geom_bond_atom_site_label_1
_geom_bond_atom_site_label_2
_geom_bond_distance
_geom_bond_site_symmetry_2
H0 Pa0 2.289211 1_555
H0 Pa4 2.346416 1_555
H0 Pa3 2.374204 1_455
H0 Pa2 2.374204 1_555
H1 Pa1 2.289233 1_555
H1 Pa7 2.346427 1_556
H1 Pa2 2.374024 1_555
H1 Pa3 2.374024 1_555
H2 Pa1 2.289233 1_555
H2 Pa6 2.346427 1_555
H2 Pa2 2.374024 1_565
H2 Pa3 2.374024 1_565
H3 Pa1 2.286573 1_555
H3 Pa3 2.347776 1_565
H3 Pa4 2.377576 1_655
H3 Pa5 2.377576 1_655
H4 Pa1 2.286573 1_555
H4 Pa2 2.347776 1_565
H4 Pa4 2.377576 1_555
H4 Pa5 2.377576 1_555
H5 Pa1 2.287316 1_555
H5 Pa5 2.344626 1_555
H5 Pa6 2.368642 1_556
H5 Pa7 2.368642 1_556
H6 Pa1 2.287316 1_555
H6 Pa5 2.344626 1_655
H6 Pa6 2.368642 1_556
H6 Pa7 2.368642 1_556
H7 Pa0 2.286514 1_555
H7 Pa2 2.347789 1_555
H7 Pa7 2.377554 1_555
H7 Pa6 2.377554 1_545
H8 Pa0 2.287145 1_555
H8 Pa7 2.344530 1_555
H8 Pa4 2.368776 1_555
H8 Pa5 2.368776 1_554
H9 Pa0 2.287145 1_665
H9 Pa6 2.344530 1_555
H9 Pa4 2.368776 1_655
H9 Pa5 2.368776 1_654
H10 Pa0 2.286514 1_556
H10 Pa2 2.347789 1_555
H10 Pa7 2.377554 1_556
H10 Pa6 2.377554 1_546
H11 Pa0 2.287145 1_655
H11 Pa7 2.344530 1_555
H11 Pa4 2.368776 1_655
H11 Pa5 2.368776 1_654
H12 Pa0 2.286514 1_655
H12 Pa3 2.347789 1_555
H12 Pa7 2.377554 1_555
H12 Pa6 2.377554 1_545
H13 Pa0 2.286514 1_656
H13 Pa3 2.347789 1_555
H13 Pa7 2.377554 1_556
H13 Pa6 2.377554 1_546
H14 Pa0 2.287145 1_565
H14 Pa6 2.344530 1_555
H14 Pa4 2.368776 1_555
H14 Pa5 2.368776 1_554
H15 Pa0 2.289211 1_566
H15 Pa5 2.346416 1_555
H15 Pa3 2.374204 1_465
H15 Pa2 2.374204 1_565
H16 Pa0 2.289211 1_556
H16 Pa5 2.346416 1_555
H16 Pa3 2.374204 1_455
H16 Pa2 2.374204 1_555
H17 Pa0 2.289211 1_565
H17 Pa4 2.346416 1_555
H17 Pa3 2.374204 1_465
H17 Pa2 2.374204 1_565
H18 Pa1 2.287310 1_555
H18 Pa4 2.344625 1_655
H18 Pa6 2.368646 1_555
H18 Pa7 2.368646 1_555
H19 Pa1 2.287310 1_555
H19 Pa4 2.344625 1_555
H19 Pa6 2.368646 1_555
H19 Pa7 2.368646 1_555
H20 Pa1 2.286573 1_555
H20 Pa3 2.347776 1_555
H20 Pa4 2.377576 1_655
H20 Pa5 2.377576 1_655
H21 Pa1 2.286573 1_555
H21 Pa2 2.347776 1_555
H21 Pa4 2.377576 1_555
H21 Pa5 2.377576 1_555
H22 Pa1 2.289233 1_555
H22 Pa6 2.346427 1_556
H22 Pa2 2.374024 1_565
H22 Pa3 2.374024 1_565
H23 Pa1 2.289233 1_555
H23 Pa7 2.346427 1_555
H23 Pa2 2.374024 1_555
H23 Pa3 2.374024 1_555
