# generated using pymatgen
data_ZrBrN
_symmetry_space_group_name_H-M   'P 1'
_cell_length_a   10.36772477
_cell_length_b   10.36772477
_cell_length_c   10.36772519
_cell_angle_alpha   20.30000415
_cell_angle_beta   20.30000415
_cell_angle_gamma   20.30001027
_symmetry_Int_Tables_number   1
_chemical_formula_structural   ZrBrN
_chemical_formula_sum   'Zr2 Br2 N2'
_cell_volume   117.38086358
_cell_formula_units_Z   2
loop_
 _symmetry_equiv_pos_site_id
 _symmetry_equiv_pos_as_xyz
  1  'x, y, z'
loop_
 _atom_site_type_symbol
 _atom_site_label
 _atom_site_symmetry_multiplicity
 _atom_site_fract_x
 _atom_site_fract_y
 _atom_site_fract_z
 _atom_site_occupancy
  Zr  Zr0  1  0.87597057  0.87597057  0.87597057  1
  Zr  Zr1  1  0.12402943  0.12402943  0.12402943  1
  Br  Br0  1  0.60762986  0.60762986  0.60762986  1
  Br  Br1  1  0.39237014  0.39237014  0.39237014  1
  N  N0  1  0.80494645  0.80494645  0.80494645  1
  N  N1  1  0.19505355  0.19505355  0.19505355  1
loop_
_geom_bond_atom_site_label_1
_geom_bond_atom_site_label_2
_geom_bond_distance
_geom_bond_site_symmetry_2
Br0 Zr0 2.892755 1_554
Br0 Zr0 2.892755 1_455
Br0 Zr0 2.892755 1_545
Br1 Zr1 2.892755 1_556
Br1 Zr1 2.892755 1_655
Br1 Zr1 2.892755 1_565
N0 Zr1 2.153877 1_665
N0 Zr1 2.153878 1_566
N0 Zr1 2.153878 1_656
N0 Zr0 2.162856 1_555
N1 Zr0 2.153877 1_445
N1 Zr0 2.153878 1_454
N1 Zr0 2.153878 1_544
N1 Zr1 2.162856 1_555
