# generated using pymatgen
data_Ca3N2
_symmetry_space_group_name_H-M   'P 1'
_cell_length_a   6.19102301
_cell_length_b   6.33643594
_cell_length_c   8.94037998
_cell_angle_alpha   90.00000000
_cell_angle_beta   90.00000000
_cell_angle_gamma   90.00000000
_symmetry_Int_Tables_number   1
_chemical_formula_structural   Ca3N2
_chemical_formula_sum   'Ca12 N8'
_cell_volume   350.72235135
_cell_formula_units_Z   4
loop_
 _symmetry_equiv_pos_site_id
 _symmetry_equiv_pos_as_xyz
  1  'x, y, z'
loop_
 _atom_site_type_symbol
 _atom_site_label
 _atom_site_symmetry_multiplicity
 _atom_site_fract_x
 _atom_site_fract_y
 _atom_site_fract_z
 _atom_site_occupancy
  Ca  Ca0  1  0.60664629  0.10501972  0.84718961  1
  Ca  Ca1  1  0.95576283  0.75000000  0.00000000  1
  Ca  Ca2  1  0.45576283  0.75000000  0.50000000  1
  Ca  Ca3  1  0.10664629  0.10501972  0.65281039  1
  Ca  Ca4  1  0.89335371  0.89498028  0.34718961  1
  Ca  Ca5  1  0.54423717  0.25000000  0.50000000  1
  Ca  Ca6  1  0.39335371  0.60501972  0.84718961  1
  Ca  Ca7  1  0.04423717  0.25000000  0.00000000  1
  Ca  Ca8  1  0.39335371  0.89498028  0.15281039  1
  Ca  Ca9  1  0.60664629  0.39498028  0.15281039  1
  Ca  Ca10  1  0.10664629  0.39498028  0.34718961  1
  Ca  Ca11  1  0.89335371  0.60501972  0.65281039  1
  N  N0  1  0.75288424  0.03163227  0.11224378  1
  N  N1  1  0.74711576  0.53163227  0.38775622  1
  N  N2  1  0.25288424  0.03163227  0.38775622  1
  N  N3  1  0.74711576  0.96836773  0.61224378  1
  N  N4  1  0.75288424  0.46836773  0.88775622  1
  N  N5  1  0.25288424  0.46836773  0.61224378  1
  N  N6  1  0.24711576  0.96836773  0.88775622  1
  N  N7  1  0.24711576  0.53163227  0.11224378  1
loop_
_geom_bond_atom_site_label_1
_geom_bond_atom_site_label_2
_geom_bond_distance
_geom_bond_site_symmetry_2
Ca0 N6 2.415731 1_545
Ca0 N3 2.432729 1_545
Ca0 N4 2.500390 1_555
Ca0 N0 2.579017 1_556
Ca1 N0 2.401920 1_565
Ca1 N4 2.401920 1_554
Ca1 N6 2.484988 1_654
Ca1 N7 2.484988 1_655
Ca2 N2 2.401920 1_565
Ca2 N5 2.401920 1_555
Ca2 N1 2.484988 1_555
Ca2 N3 2.484988 1_555
Ca3 N3 2.415731 1_445
Ca3 N6 2.432729 1_545
Ca3 N5 2.500390 1_555
Ca3 N2 2.579017 1_555
Ca4 N2 2.415731 1_665
Ca4 N0 2.432729 1_565
Ca4 N1 2.500390 1_555
Ca4 N3 2.579017 1_555
Ca5 N3 2.401920 1_545
Ca5 N1 2.401920 1_555
Ca5 N2 2.484988 1_555
Ca5 N5 2.484988 1_555
Ca6 N4 2.415731 1_555
Ca6 N5 2.432729 1_555
Ca6 N6 2.500390 1_555
Ca6 N7 2.579017 1_556
Ca7 N6 2.401920 1_544
Ca7 N7 2.401920 1_555
Ca7 N0 2.484988 1_455
Ca7 N4 2.484988 1_454
Ca8 N0 2.415731 1_565
Ca8 N2 2.432729 1_565
Ca8 N7 2.500390 1_555
Ca8 N6 2.579017 1_554
Ca9 N7 2.415731 1_555
Ca9 N1 2.432729 1_555
Ca9 N0 2.500390 1_555
Ca9 N4 2.579017 1_554
Ca10 N1 2.415731 1_455
Ca10 N7 2.432729 1_555
Ca10 N2 2.500390 1_555
Ca10 N5 2.579017 1_555
Ca11 N5 2.415731 1_655
Ca11 N4 2.432729 1_555
Ca11 N3 2.500390 1_555
Ca11 N1 2.579017 1_555
