# generated using pymatgen
data_P2W5O19
_symmetry_space_group_name_H-M   'P 1'
_cell_length_a   6.70999800
_cell_length_b   5.39530300
_cell_length_c   21.56974534
_cell_angle_alpha   75.85393600
_cell_angle_beta   90.00000000
_cell_angle_gamma   90.00000000
_symmetry_Int_Tables_number   1
_chemical_formula_structural   P2W5O19
_chemical_formula_sum   'P4 W10 O38'
_cell_volume   757.19863881
_cell_formula_units_Z   2
loop_
 _symmetry_equiv_pos_site_id
 _symmetry_equiv_pos_as_xyz
  1  'x, y, z'
loop_
 _atom_site_type_symbol
 _atom_site_label
 _atom_site_symmetry_multiplicity
 _atom_site_fract_x
 _atom_site_fract_y
 _atom_site_fract_z
 _atom_site_occupancy
  P  P0  1  0.03015700  0.68467600  0.80351700  1
  P  P1  1  0.46984300  0.68467600  0.30351700  1
  P  P2  1  0.53015700  0.31532400  0.69648300  1
  P  P3  1  0.96984300  0.31532400  0.19648300  1
  W  W0  1  0.33013600  0.42891000  0.07403800  1
  W  W1  1  0.83013600  0.57109000  0.42596200  1
  W  W2  1  0.16986400  0.42891000  0.57403800  1
  W  W3  1  0.66986400  0.57109000  0.92596200  1
  W  W4  1  0.16486300  0.14464100  0.35245100  1
  W  W5  1  0.00000000  0.00000000  0.00000000  1
  W  W6  1  0.83513700  0.85535900  0.64754900  1
  W  W7  1  0.66486300  0.85535900  0.14754900  1
  W  W8  1  0.50000000  0.00000000  0.50000000  1
  W  W9  1  0.33513700  0.14464100  0.85245100  1
  O  O0  1  0.98800200  0.61420300  0.62000900  1
  O  O1  1  0.01199800  0.38579700  0.37999100  1
  O  O2  1  0.67999700  0.26975100  0.45730500  1
  O  O3  1  0.17999700  0.73024900  0.04269500  1
  O  O4  1  0.64996300  0.76360500  0.46407200  1
  O  O5  1  0.33034700  0.88762500  0.31921900  1
  O  O6  1  0.65850500  0.65243600  0.34477700  1
  O  O7  1  0.48359900  0.11752800  0.11355800  1
  O  O8  1  0.34149500  0.34756400  0.65522300  1
  O  O9  1  0.82000300  0.26975100  0.95730500  1
  O  O10  1  0.51199800  0.61420300  0.12000900  1
  O  O11  1  0.84149500  0.65243600  0.84477700  1
  O  O12  1  0.51640100  0.88247200  0.88644200  1
  O  O13  1  0.66965300  0.11237500  0.68078100  1
  O  O14  1  0.15850500  0.34756400  0.15522300  1
  O  O15  1  0.97049300  0.77828500  0.73261400  1
  O  O16  1  0.67593600  0.92571100  0.57474000  1
  O  O17  1  0.47049300  0.22171500  0.76738600  1
  O  O18  1  0.63861800  0.57352200  0.68853600  1
  O  O19  1  0.17593600  0.07428900  0.92526000  1
  O  O20  1  0.32000300  0.73024900  0.54269500  1
  O  O21  1  0.32406400  0.07428900  0.42526000  1
  O  O22  1  0.82406400  0.92571100  0.07474000  1
  O  O23  1  0.86138200  0.57352200  0.18853600  1
  O  O24  1  0.48800200  0.38579700  0.87999100  1
  O  O25  1  0.02950700  0.22171500  0.26738600  1
  O  O26  1  0.13861800  0.42647800  0.81146400  1
  O  O27  1  0.85003700  0.76360500  0.96407200  1
  O  O28  1  0.52950700  0.77828500  0.23261400  1
  O  O29  1  0.98359900  0.88247200  0.38644200  1
  O  O30  1  0.16965300  0.88762500  0.81921900  1
  O  O31  1  0.14996300  0.23639500  0.03592800  1
  O  O32  1  0.36138200  0.42647800  0.31146400  1
  O  O33  1  0.01640100  0.11752800  0.61355800  1
  O  O34  1  0.83034700  0.11237500  0.18078100  1
  O  O35  1  0.35003700  0.23639500  0.53592800  1
  O  O36  1  0.00000000  0.50000000  0.50000000  1
  O  O37  1  0.50000000  0.50000000  0.00000000  1
loop_
_geom_bond_atom_site_label_1
_geom_bond_atom_site_label_2
_geom_bond_distance
_geom_bond_site_symmetry_2
O0 W6 1.864310 1_555
O0 W2 1.989048 1_655
O1 W4 1.864310 1_555
O1 W1 1.989048 1_455
O2 W1 1.891560 1_555
O2 W8 1.941612 1_555
O3 W0 1.891560 1_555
O3 W5 1.941612 1_565
O4 W1 1.906172 1_555
O4 W8 1.929488 1_565
O5 P1 1.539828 1_555
O5 W4 2.038509 1_565
O6 P1 1.532707 1_555
O6 W1 2.051764 1_555
O7 W7 1.873697 1_545
O7 W0 1.977224 1_555
O8 P2 1.532707 1_555
O8 W2 2.051764 1_555
O9 W3 1.891560 1_555
O9 W5 1.941612 1_656
O10 W7 1.864310 1_555
O10 W0 1.989048 1_555
O11 P0 1.532707 1_655
O11 W3 2.051764 1_555
O12 W9 1.873697 1_565
O12 W3 1.977224 1_555
O13 P2 1.539828 1_555
O13 W6 2.038509 1_545
O14 P3 1.532707 1_455
O14 W0 2.051764 1_555
O15 P0 1.541671 1_655
O15 W6 1.997868 1_555
O16 W6 1.860166 1_555
O16 W8 1.958930 1_565
O17 P2 1.541671 1_555
O17 W9 1.997868 1_555
O18 P2 1.543672 1_555
O18 W6 2.043412 1_555
O19 W9 1.860166 1_555
O19 W5 1.958930 1_556
O20 W2 1.891560 1_555
O20 W8 1.941612 1_565
O21 W4 1.860166 1_555
O21 W8 1.958930 1_555
O22 W7 1.860166 1_555
O22 W5 1.958930 1_665
O23 P3 1.543672 1_555
O23 W7 2.043412 1_555
O24 W9 1.864310 1_555
O24 W3 1.989048 1_555
O25 P3 1.541671 1_455
O25 W4 1.997868 1_555
O26 P0 1.543672 1_555
O26 W9 2.043412 1_555
O27 W3 1.906172 1_555
O27 W5 1.929488 1_666
O28 P1 1.541671 1_555
O28 W7 1.997868 1_555
O29 W4 1.873697 1_665
O29 W1 1.977224 1_555
O30 P0 1.539828 1_555
O30 W9 2.038509 1_565
O31 W0 1.906172 1_555
O31 W5 1.929488 1_555
O32 P1 1.543672 1_555
O32 W4 2.043412 1_555
O33 W6 1.873697 1_445
O33 W2 1.977224 1_555
O34 P3 1.539828 1_555
O34 W7 2.038509 1_545
O35 W2 1.906172 1_555
O35 W8 1.929488 1_555
O36 W1 1.922805 1_455
O36 W2 1.922805 1_555
O37 W0 1.922805 1_555
O37 W3 1.922805 1_554
