# generated using pymatgen
data_Li8Zn2Ge3
_symmetry_space_group_name_H-M   'P 1'
_cell_length_a   9.21039462
_cell_length_b   9.21039462
_cell_length_c   9.21039436
_cell_angle_alpha   48.49516259
_cell_angle_beta   48.49516259
_cell_angle_gamma   48.49515979
_symmetry_Int_Tables_number   1
_chemical_formula_structural   Li8Zn2Ge3
_chemical_formula_sum   'Li16 Zn4 Ge6'
_cell_volume   401.90024339
_cell_formula_units_Z   2
loop_
 _symmetry_equiv_pos_site_id
 _symmetry_equiv_pos_as_xyz
  1  'x, y, z'
loop_
 _atom_site_type_symbol
 _atom_site_label
 _atom_site_symmetry_multiplicity
 _atom_site_fract_x
 _atom_site_fract_y
 _atom_site_fract_z
 _atom_site_occupancy
  Li  Li0  1  0.06044000  0.06044000  0.06044000  1
  Li  Li1  1  0.29683300  0.59392200  0.95603100  1
  Li  Li2  1  0.56044000  0.56044000  0.56044000  1
  Li  Li3  1  0.20533900  0.90746300  0.55924600  1
  Li  Li4  1  0.59392200  0.95603100  0.29683300  1
  Li  Li5  1  0.05924600  0.40746300  0.70533900  1
  Li  Li6  1  0.90746300  0.55924600  0.20533900  1
  Li  Li7  1  0.79683300  0.45603100  0.09392200  1
  Li  Li8  1  0.95603100  0.29683300  0.59392200  1
  Li  Li9  1  0.55924600  0.20533900  0.90746300  1
  Li  Li10  1  0.45603100  0.09392200  0.79683300  1
  Li  Li11  1  0.70533900  0.05924600  0.40746300  1
  Li  Li12  1  0.09392200  0.79683300  0.45603100  1
  Li  Li13  1  0.45822500  0.45822500  0.45822500  1
  Li  Li14  1  0.95822500  0.95822500  0.95822500  1
  Li  Li15  1  0.40746300  0.70533900  0.05924600  1
  Zn  Zn0  1  0.67478300  0.67478300  0.67478300  1
  Zn  Zn1  1  0.33580800  0.33580800  0.33580800  1
  Zn  Zn2  1  0.83580800  0.83580800  0.83580800  1
  Zn  Zn3  1  0.17478300  0.17478300  0.17478300  1
  Ge  Ge0  1  0.17977700  0.50205500  0.82845000  1
  Ge  Ge1  1  0.67977700  0.32845000  0.00205500  1
  Ge  Ge2  1  0.82845000  0.17977700  0.50205500  1
  Ge  Ge3  1  0.32845000  0.00205500  0.67977700  1
  Ge  Ge4  1  0.00205500  0.67977700  0.32845000  1
  Ge  Ge5  1  0.50205500  0.82845000  0.17977700  1
loop_
_geom_bond_atom_site_label_1
_geom_bond_atom_site_label_2
_geom_bond_distance
_geom_bond_site_symmetry_2
Li0 Li14 2.486562 1_444
Li0 Li15 2.656897 1_545
Li0 Li5 2.656897 1_554
Li0 Li11 2.656897 1_455
Li0 Zn3 2.781597 1_555
Li0 Li7 2.835080 1_455
Li0 Li12 2.835080 1_545
Li0 Li10 2.835080 1_554
Li1 Li15 2.637748 1_556
Li1 Li14 2.668787 1_455
Li1 Zn1 2.743662 1_556
Li1 Li6 2.804948 1_456
Li1 Li2 2.835080 1_555
Li1 Li9 2.841689 1_555
Li1 Zn0 2.882800 1_555
Li1 Li3 3.045358 1_555
Li2 Li3 2.656897 1_555
Li2 Li6 2.656897 1_555
Li2 Li9 2.656897 1_555
Li2 Zn0 2.781597 1_555
Li2 Li8 2.835080 1_555
Li2 Li4 2.835080 1_555
Li3 Zn3 2.743637 1_565
Li3 Zn2 2.786859 1_455
Li3 Li8 2.804948 1_465
Li3 Li4 2.841689 1_555
Li4 Zn1 2.743662 1_565
Li4 Li9 2.804948 1_564
Li4 Zn0 2.882800 1_555
Li4 Li6 3.045358 1_555
Li5 Li8 2.637748 1_455
Li5 Zn0 2.743637 1_455
Li5 Zn1 2.786859 1_555
Li5 Li7 2.841689 1_456
Li6 Li7 2.637748 1_555
Li6 Zn3 2.743637 1_655
Li6 Zn2 2.786859 1_554
Li6 Li8 2.841689 1_555
Li7 Zn2 2.743663 1_554
Li7 Zn3 2.882800 1_655
Li8 Zn1 2.743663 1_655
Li8 Zn0 2.882800 1_555
Li8 Li9 3.045358 1_555
Li9 Zn3 2.743637 1_556
Li9 Zn2 2.786859 1_545
Li10 Li9 2.637748 1_555
Li10 Li13 2.668787 1_555
Li10 Zn2 2.743662 1_545
Li10 Li11 2.804948 1_555
Li10 Li15 2.841689 1_546
Li10 Zn3 2.882800 1_556
Li10 Li5 3.045358 1_555
Li11 Li4 2.637748 1_545
Li11 Zn0 2.743637 1_545
Li11 Zn1 2.786859 1_555
Li11 Li12 2.841689 1_645
Li11 Li13 2.946913 1_555
Li11 Li7 3.045358 1_555
Li12 Li3 2.637748 1_555
Li12 Li13 2.668787 1_555
Li12 Zn2 2.743662 1_455
Li12 Li5 2.804948 1_555
Li12 Zn3 2.882800 1_565
Li12 Li15 3.045358 1_555
Li13 Li2 2.486562 1_555
Li13 Li7 2.668787 1_555
Li13 Li15 2.946913 1_555
Li13 Li5 2.946913 1_555
Li13 Zn1 2.978011 1_555
Li14 Li8 2.668787 1_565
Li14 Li4 2.668787 1_556
Li14 Li9 2.946913 1_565
Li14 Li3 2.946913 1_655
Li14 Li6 2.946913 1_556
Li14 Zn2 2.978011 1_555
Li15 Zn0 2.743637 1_554
Li15 Zn1 2.786859 1_555
Li15 Li7 2.804948 1_555
Ge0 Zn3 2.551271 1_556
Ge0 Zn2 2.564185 1_455
Ge0 Li13 2.688779 1_555
Ge0 Li1 2.732215 1_555
Ge0 Li5 2.745309 1_555
Ge0 Li6 2.784107 1_456
Ge0 Li7 2.788596 1_456
Ge0 Li2 2.818499 1_555
Ge0 Li12 2.858130 1_555
Ge0 Li3 2.875166 1_555
Ge0 Li9 2.879145 1_555
Ge0 Li10 2.912317 1_555
Ge1 Zn0 2.551271 1_554
Ge1 Zn1 2.564185 1_555
Ge1 Li14 2.688779 1_544
Ge1 Li7 2.732216 1_555
Ge1 Li9 2.745309 1_554
Ge1 Li15 2.784107 1_555
Ge1 Li1 2.788596 1_554
Ge1 Li0 2.818499 1_655
Ge1 Li4 2.858130 1_545
Ge1 Li11 2.875166 1_555
Ge1 Li5 2.879145 1_654
Ge1 Li8 2.912317 1_554
Ge2 Zn3 2.551271 1_655
Ge2 Zn2 2.564185 1_545
Ge2 Li13 2.688779 1_555
Ge2 Li8 2.732216 1_555
Ge2 Li11 2.745309 1_555
Ge2 Li3 2.784107 1_645
Ge2 Li12 2.788596 1_645
Ge2 Li2 2.818499 1_555
Ge2 Li10 2.858130 1_555
Ge2 Li9 2.875166 1_555
Ge2 Li6 2.879145 1_555
Ge2 Li7 2.912317 1_555
Ge3 Zn0 2.551271 1_545
Ge3 Zn1 2.564185 1_555
Ge3 Li14 2.688779 1_445
Ge3 Li10 2.732215 1_555
Ge3 Li3 2.745309 1_545
Ge3 Li11 2.784108 1_555
Ge3 Li4 2.788596 1_545
Ge3 Li0 2.818499 1_556
Ge3 Li8 2.858130 1_455
Ge3 Li5 2.875166 1_555
Ge3 Li15 2.879145 1_546
Ge3 Li1 2.912317 1_545
Ge4 Zn0 2.551271 1_455
Ge4 Zn1 2.564185 1_555
Ge4 Li14 2.688779 1_454
Ge4 Li12 2.732215 1_555
Ge4 Li6 2.745309 1_455
Ge4 Li5 2.784107 1_555
Ge4 Li8 2.788596 1_455
Ge4 Li0 2.818499 1_565
Ge4 Li1 2.858130 1_554
Ge4 Li15 2.875166 1_555
Ge4 Li11 2.879145 1_465
Ge4 Li4 2.912317 1_455
Ge5 Zn3 2.551271 1_565
Ge5 Zn2 2.564185 1_554
Ge5 Li13 2.688779 1_555
Ge5 Li4 2.732215 1_555
Ge5 Li15 2.745309 1_555
Ge5 Li9 2.784108 1_564
Ge5 Li10 2.788596 1_564
Ge5 Li2 2.818499 1_555
Ge5 Li7 2.858130 1_555
Ge5 Li6 2.875166 1_555
Ge5 Li3 2.879145 1_555
Ge5 Li12 2.912317 1_555
