# generated using pymatgen
data_Na6Mg2C4SO16
_symmetry_space_group_name_H-M   'P 1'
_cell_length_a   10.05982291
_cell_length_b   10.05982291
_cell_length_c   10.05982291
_cell_angle_alpha   60.00000000
_cell_angle_beta   60.00000000
_cell_angle_gamma   60.00000000
_symmetry_Int_Tables_number   1
_chemical_formula_structural   Na6Mg2C4SO16
_chemical_formula_sum   'Na12 Mg4 C8 S2 O32'
_cell_volume   719.87320642
_cell_formula_units_Z   2
loop_
 _symmetry_equiv_pos_site_id
 _symmetry_equiv_pos_as_xyz
  1  'x, y, z'
loop_
 _atom_site_type_symbol
 _atom_site_label
 _atom_site_symmetry_multiplicity
 _atom_site_fract_x
 _atom_site_fract_y
 _atom_site_fract_z
 _atom_site_occupancy
  Na  Na0  1  0.97283600  0.97283600  0.52716400  1
  Na  Na1  1  0.72283600  0.27716400  0.27716400  1
  Na  Na2  1  0.27716400  0.72283600  0.72283600  1
  Na  Na3  1  0.72283600  0.72283600  0.27716400  1
  Na  Na4  1  0.72283600  0.27716400  0.72283600  1
  Na  Na5  1  0.27716400  0.72283600  0.27716400  1
  Na  Na6  1  0.52716400  0.97283600  0.52716400  1
  Na  Na7  1  0.52716400  0.97283600  0.97283600  1
  Na  Na8  1  0.97283600  0.52716400  0.52716400  1
  Na  Na9  1  0.97283600  0.52716400  0.97283600  1
  Na  Na10  1  0.27716400  0.27716400  0.72283600  1
  Na  Na11  1  0.52716400  0.52716400  0.97283600  1
  Mg  Mg0  1  0.12500000  0.62500000  0.12500000  1
  Mg  Mg1  1  0.12500000  0.12500000  0.62500000  1
  Mg  Mg2  1  0.62500000  0.12500000  0.12500000  1
  Mg  Mg3  1  0.12500000  0.12500000  0.12500000  1
  C  C0  1  0.34377100  0.96868700  0.34377100  1
  C  C1  1  0.90622900  0.90622900  0.28131300  1
  C  C2  1  0.28131300  0.90622900  0.90622900  1
  C  C3  1  0.90622900  0.90622900  0.90622900  1
  C  C4  1  0.96868700  0.34377100  0.34377100  1
  C  C5  1  0.34377100  0.34377100  0.34377100  1
  C  C6  1  0.34377100  0.34377100  0.96868700  1
  C  C7  1  0.90622900  0.28131300  0.90622900  1
  S  S0  1  0.75000000  0.75000000  0.75000000  1
  S  S1  1  0.50000000  0.50000000  0.50000000  1
  O  O0  1  0.68907700  0.93277000  0.68907700  1
  O  O1  1  0.56092300  0.56092300  0.31723000  1
  O  O2  1  0.31723000  0.56092300  0.56092300  1
  O  O3  1  0.56092300  0.56092300  0.56092300  1
  O  O4  1  0.93277000  0.68907700  0.68907700  1
  O  O5  1  0.68907700  0.68907700  0.68907700  1
  O  O6  1  0.68907700  0.68907700  0.93277000  1
  O  O7  1  0.56092300  0.31723000  0.56092300  1
  O  O8  1  0.27022300  0.96647000  0.49308500  1
  O  O9  1  0.97977700  0.97977700  0.28353000  1
  O  O10  1  0.28353000  0.75691500  0.97977700  1
  O  O11  1  0.97977700  0.75691500  0.97977700  1
  O  O12  1  0.75691500  0.97977700  0.28353000  1
  O  O13  1  0.75691500  0.97977700  0.97977700  1
  O  O14  1  0.28353000  0.97977700  0.97977700  1
  O  O15  1  0.49308500  0.96647000  0.27022300  1
  O  O16  1  0.27022300  0.96647000  0.27022300  1
  O  O17  1  0.96647000  0.27022300  0.49308500  1
  O  O18  1  0.27022300  0.27022300  0.49308500  1
  O  O19  1  0.96647000  0.49308500  0.27022300  1
  O  O20  1  0.49308500  0.27022300  0.96647000  1
  O  O21  1  0.27022300  0.27022300  0.96647000  1
  O  O22  1  0.27022300  0.49308500  0.27022300  1
  O  O23  1  0.28353000  0.97977700  0.75691500  1
  O  O24  1  0.97977700  0.97977700  0.75691500  1
  O  O25  1  0.97977700  0.75691500  0.28353000  1
  O  O26  1  0.97977700  0.28353000  0.75691500  1
  O  O27  1  0.75691500  0.28353000  0.97977700  1
  O  O28  1  0.97977700  0.28353000  0.97977700  1
  O  O29  1  0.49308500  0.27022300  0.27022300  1
  O  O30  1  0.96647000  0.27022300  0.27022300  1
  O  O31  1  0.27022300  0.49308500  0.96647000  1
loop_
_geom_bond_atom_site_label_1
_geom_bond_atom_site_label_2
_geom_bond_distance
_geom_bond_site_symmetry_2
Na0 O24 2.383126 1_555
Na0 O9 2.383136 1_555
Na0 O0 2.609315 1_555
Na0 O4 2.609315 1_555
Na0 O30 2.806489 1_565
Na0 O16 2.806489 1_655
Na0 O17 2.806493 1_565
Na0 O8 2.806493 1_655
Na1 O29 2.383126 1_555
Na1 O30 2.383136 1_555
Na1 O7 2.609315 1_555
Na1 O1 2.609315 1_555
Na1 O28 2.806489 1_554
Na1 O9 2.806489 1_545
Na1 O27 2.806493 1_554
Na1 O12 2.806493 1_545
Na2 O8 2.383132 1_555
Na2 O31 2.383132 1_555
Na2 O3 2.609319 1_555
Na2 O2 2.609324 1_555
Na2 O10 2.806483 1_555
Na2 O23 2.806483 1_555
Na2 O24 2.806489 1_455
Na2 O11 2.806489 1_455
Na3 O19 2.383132 1_555
Na3 O15 2.383132 1_555
Na3 O3 2.609319 1_555
Na3 O1 2.609324 1_555
Na3 O12 2.806483 1_555
Na3 O25 2.806483 1_555
Na3 O13 2.806489 1_554
Na3 O11 2.806489 1_554
Na4 O20 2.383132 1_555
Na4 O17 2.383132 1_555
Na4 O3 2.609319 1_555
Na4 O7 2.609324 1_555
Na4 O27 2.806483 1_555
Na4 O26 2.806483 1_555
Na4 O13 2.806489 1_545
Na4 O24 2.806489 1_545
Na5 O22 2.383126 1_555
Na5 O16 2.383136 1_555
Na5 O1 2.609315 1_555
Na5 O2 2.609315 1_555
Na5 O14 2.806489 1_554
Na5 O9 2.806489 1_455
Na5 O10 2.806493 1_554
Na5 O25 2.806493 1_455
Na6 O23 2.383132 1_555
Na6 O12 2.383132 1_555
Na6 O5 2.609319 1_555
Na6 O0 2.609324 1_555
Na6 O15 2.806483 1_555
Na6 O8 2.806483 1_555
Na6 O18 2.806489 1_565
Na6 O29 2.806489 1_565
Na7 O13 2.383126 1_555
Na7 O14 2.383136 1_555
Na7 O0 2.609315 1_555
Na7 O6 2.609315 1_555
Na7 O21 2.806489 1_565
Na7 O16 2.806489 1_556
Na7 O15 2.806493 1_556
Na7 O20 2.806493 1_565
Na8 O26 2.383132 1_555
Na8 O25 2.383132 1_555
Na8 O5 2.609319 1_555
Na8 O4 2.609324 1_555
Na8 O19 2.806483 1_555
Na8 O17 2.806483 1_555
Na8 O18 2.806489 1_655
Na8 O22 2.806489 1_655
Na9 O11 2.383126 1_555
Na9 O28 2.383136 1_555
Na9 O6 2.609315 1_555
Na9 O4 2.609315 1_555
Na9 O30 2.806489 1_556
Na9 O21 2.806489 1_655
Na9 O19 2.806493 1_556
Na9 O31 2.806493 1_655
Na10 O18 2.383126 1_555
Na10 O21 2.383136 1_555
Na10 O7 2.609315 1_555
Na10 O2 2.609315 1_555
Na10 O14 2.806489 1_545
Na10 O28 2.806489 1_455
Na10 O23 2.806493 1_545
Na10 O26 2.806493 1_455
Na11 O27 2.383132 1_555
Na11 O10 2.383132 1_555
Na11 O5 2.609319 1_555
Na11 O6 2.609324 1_555
Na11 O31 2.806483 1_555
Na11 O20 2.806483 1_555
Na11 O22 2.806489 1_556
Na11 O29 2.806489 1_556
Mg0 O19 2.070375 1_455
Mg0 O31 2.070375 1_554
Mg0 O10 2.070375 1_554
Mg0 O25 2.070375 1_455
Mg0 O22 2.070382 1_555
Mg0 O11 2.070382 1_454
Mg1 O8 2.070375 1_545
Mg1 O17 2.070375 1_455
Mg1 O23 2.070375 1_545
Mg1 O26 2.070375 1_455
Mg1 O24 2.070382 1_445
Mg1 O18 2.070382 1_555
Mg2 O20 2.070375 1_554
Mg2 O15 2.070375 1_545
Mg2 O27 2.070375 1_554
Mg2 O12 2.070375 1_545
Mg2 O13 2.070382 1_544
Mg2 O29 2.070382 1_555
Mg3 O9 2.070382 1_445
Mg3 O21 2.070382 1_554
Mg3 O28 2.070382 1_454
Mg3 O30 2.070382 1_455
Mg3 O16 2.070382 1_545
Mg3 O14 2.070382 1_544
C0 O16 1.294514 1_555
C0 O8 1.294523 1_555
C0 O15 1.294523 1_555
C1 O9 1.294514 1_555
C1 O25 1.294523 1_555
C1 O12 1.294523 1_555
C2 O14 1.294514 1_555
C2 O23 1.294523 1_555
C2 O10 1.294523 1_555
C3 O24 1.294520 1_555
C3 O13 1.294520 1_555
C3 O11 1.294520 1_555
C4 O30 1.294514 1_555
C4 O17 1.294523 1_555
C4 O19 1.294523 1_555
C5 O29 1.294520 1_555
C5 O18 1.294520 1_555
C5 O22 1.294520 1_555
C6 O21 1.294514 1_555
C6 O20 1.294523 1_555
C6 O31 1.294523 1_555
C7 O28 1.294514 1_555
C7 O27 1.294523 1_555
C7 O26 1.294523 1_555
O0 S0 1.501238 1_555
O1 S1 1.501238 1_555
O2 S1 1.501238 1_555
O3 S1 1.501230 1_555
O4 S0 1.501238 1_555
O5 S0 1.501230 1_555
O6 S0 1.501238 1_555
O7 S1 1.501238 1_555
