# generated using pymatgen
data_SrLi2Nb2O7
_symmetry_space_group_name_H-M   'P 1'
_cell_length_a   9.59698179
_cell_length_b   9.59698179
_cell_length_c   5.66558300
_cell_angle_alpha   90.00000000
_cell_angle_beta   90.00000000
_cell_angle_gamma   145.59507235
_symmetry_Int_Tables_number   1
_chemical_formula_structural   SrLi2Nb2O7
_chemical_formula_sum   'Sr2 Li4 Nb4 O14'
_cell_volume   294.84351229
_cell_formula_units_Z   2
loop_
 _symmetry_equiv_pos_site_id
 _symmetry_equiv_pos_as_xyz
  1  'x, y, z'
loop_
 _atom_site_type_symbol
 _atom_site_label
 _atom_site_symmetry_multiplicity
 _atom_site_fract_x
 _atom_site_fract_y
 _atom_site_fract_z
 _atom_site_occupancy
  Sr  Sr0  1  0.25506200  0.25506200  0.25000000  1
  Sr  Sr1  1  0.74493800  0.74493800  0.75000000  1
  Li  Li0  1  0.26158400  0.73841600  0.00000000  1
  Li  Li1  1  0.73841600  0.26158400  0.00000000  1
  Li  Li2  1  0.73841600  0.26158400  0.50000000  1
  Li  Li3  1  0.26158400  0.73841600  0.50000000  1
  Nb  Nb0  1  0.36156300  0.13078800  0.75000000  1
  Nb  Nb1  1  0.86921200  0.63843700  0.25000000  1
  Nb  Nb2  1  0.63843700  0.86921200  0.25000000  1
  Nb  Nb3  1  0.13078800  0.36156300  0.75000000  1
  O  O0  1  0.61631200  0.38368800  0.00000000  1
  O  O1  1  0.90519800  0.09480200  0.50000000  1
  O  O2  1  0.38368800  0.61631200  0.50000000  1
  O  O3  1  0.56283600  0.99929800  0.25000000  1
  O  O4  1  0.29698400  0.29698400  0.75000000  1
  O  O5  1  0.90519800  0.09480200  0.00000000  1
  O  O6  1  0.61631200  0.38368800  0.50000000  1
  O  O7  1  0.00070200  0.43716400  0.75000000  1
  O  O8  1  0.70301600  0.70301600  0.25000000  1
  O  O9  1  0.99929800  0.56283600  0.25000000  1
  O  O10  1  0.38368800  0.61631200  0.00000000  1
  O  O11  1  0.43716400  0.00070200  0.75000000  1
  O  O12  1  0.09480200  0.90519800  0.00000000  1
  O  O13  1  0.09480200  0.90519800  0.50000000  1
loop_
_geom_bond_atom_site_label_1
_geom_bond_atom_site_label_2
_geom_bond_distance
_geom_bond_site_symmetry_2
Li0 O11 2.045133 1_564
Li0 O9 2.045133 1_455
Li0 O7 2.165360 1_554
Li0 O3 2.165360 1_555
Li0 O10 2.238818 1_555
Li1 O3 2.045133 1_545
Li1 O7 2.045133 1_654
Li1 O9 2.165360 1_555
Li1 O11 2.165360 1_554
Li1 O0 2.238818 1_555
Li2 O7 2.045133 1_655
Li2 O3 2.045133 1_545
Li2 O9 2.165360 1_555
Li2 O11 2.165360 1_555
Li2 O6 2.238818 1_555
Li3 O9 2.045133 1_455
Li3 O11 2.045133 1_565
Li3 O7 2.165360 1_555
Li3 O3 2.165360 1_555
Li3 O2 2.238818 1_555
Nb0 O11 1.892001 1_555
Nb0 O6 2.020530 1_555
Nb0 O0 2.020530 1_556
Nb0 O12 2.025210 1_546
Nb0 O13 2.025210 1_545
Nb0 O4 2.135237 1_555
Nb1 O9 1.892001 1_555
Nb1 O6 2.020530 1_555
Nb1 O0 2.020530 1_555
Nb1 O13 2.025210 1_655
Nb1 O12 2.025210 1_655
Nb1 O8 2.135237 1_555
Nb2 O3 1.892001 1_555
Nb2 O10 2.020530 1_555
Nb2 O2 2.020530 1_555
Nb2 O1 2.025210 1_565
Nb2 O5 2.025210 1_565
Nb2 O8 2.135237 1_555
Nb3 O7 1.892001 1_555
Nb3 O2 2.020530 1_555
Nb3 O10 2.020530 1_556
Nb3 O1 2.025210 1_455
Nb3 O5 2.025210 1_456
Nb3 O4 2.135237 1_555
O0 Sr1 2.913331 1_554
O0 Sr0 2.913331 1_555
O1 Sr1 2.669078 1_545
O1 Sr0 2.669078 1_655
O2 Sr1 2.913331 1_555
O2 Sr0 2.913331 1_555
O4 Sr1 2.542855 1_555
O4 Sr0 2.842770 1_555
O4 Sr0 2.842770 1_556
O4 Sr1 3.133743 1_445
O5 Sr1 2.669078 1_544
O5 Sr0 2.669078 1_655
O6 Sr1 2.913331 1_555
O6 Sr0 2.913331 1_555
O8 Sr0 2.542855 1_555
O8 Sr1 2.842770 1_554
O8 Sr1 2.842770 1_555
O8 Sr0 3.133743 1_665
O10 Sr1 2.913331 1_554
O10 Sr0 2.913331 1_555
O12 Sr1 2.669078 1_454
O12 Sr0 2.669078 1_565
O13 Sr1 2.669078 1_455
O13 Sr0 2.669078 1_565
