# generated using pymatgen
data_SbPOF8
_symmetry_space_group_name_H-M   'P 1'
_cell_length_a   16.90407592
_cell_length_b   5.18840024
_cell_length_c   7.46715515
_cell_angle_alpha   82.15448173
_cell_angle_beta   90.00000000
_cell_angle_gamma   90.00000000
_symmetry_Int_Tables_number   1
_chemical_formula_structural   SbPOF8
_chemical_formula_sum   'Sb4 P4 O4 F32'
_cell_volume   648.77754973
_cell_formula_units_Z   4
loop_
 _symmetry_equiv_pos_site_id
 _symmetry_equiv_pos_as_xyz
  1  'x, y, z'
loop_
 _atom_site_type_symbol
 _atom_site_label
 _atom_site_symmetry_multiplicity
 _atom_site_fract_x
 _atom_site_fract_y
 _atom_site_fract_z
 _atom_site_occupancy
  Sb  Sb0  1  0.11978193  0.03129211  0.73947386  1
  Sb  Sb1  1  0.88021807  0.96870789  0.26052614  1
  Sb  Sb2  1  0.38021807  0.03129211  0.23947386  1
  Sb  Sb3  1  0.61978193  0.96870789  0.76052614  1
  P  P0  1  0.13141655  0.61520440  0.14695315  1
  P  P1  1  0.36858345  0.61520440  0.64695315  1
  P  P2  1  0.63141655  0.38479560  0.35304685  1
  P  P3  1  0.86858345  0.38479560  0.85304685  1
  O  O0  1  0.87070430  0.17954417  0.00718087  1
  O  O1  1  0.37070430  0.82045583  0.49281913  1
  O  O2  1  0.62929570  0.17954417  0.50718087  1
  O  O3  1  0.12929570  0.82045583  0.99281913  1
  F  F0  1  0.42429120  0.73289078  0.16479093  1
  F  F1  1  0.16187826  0.30519497  0.85079107  1
  F  F2  1  0.61560987  0.77648869  0.99212185  1
  F  F3  1  0.51831480  0.86908249  0.69126702  1
  F  F4  1  0.77674416  0.08466413  0.29943518  1
  F  F5  1  0.11560987  0.22351131  0.50787815  1
  F  F6  1  0.70551963  0.54662360  0.33916039  1
  F  F7  1  0.27674416  0.91533587  0.20056482  1
  F  F8  1  0.92429120  0.26710922  0.33520907  1
  F  F9  1  0.20551963  0.45337640  0.16083961  1
  F  F10  1  0.93465786  0.57971438  0.85081474  1
  F  F11  1  0.06534214  0.42028562  0.14918526  1
  F  F12  1  0.72325584  0.08466413  0.79943518  1
  F  F13  1  0.22325584  0.91533587  0.70056482  1
  F  F14  1  0.48168520  0.13091751  0.30873298  1
  F  F15  1  0.43465786  0.42028562  0.64918526  1
  F  F16  1  0.29448037  0.45337640  0.66083961  1
  F  F17  1  0.38439013  0.22351131  0.00787815  1
  F  F18  1  0.56534214  0.57971438  0.35081474  1
  F  F19  1  0.07570880  0.73289078  0.66479093  1
  F  F20  1  0.87307866  0.27865379  0.67612569  1
  F  F21  1  0.66187826  0.69480503  0.64920893  1
  F  F22  1  0.88439013  0.77648869  0.49212185  1
  F  F23  1  0.79448037  0.54662360  0.83916039  1
  F  F24  1  0.12692134  0.72134621  0.32387431  1
  F  F25  1  0.57570880  0.26710922  0.83520907  1
  F  F26  1  0.01831480  0.13091751  0.80873298  1
  F  F27  1  0.37307866  0.72134621  0.82387431  1
  F  F28  1  0.33812174  0.30519497  0.35079107  1
  F  F29  1  0.83812174  0.69480503  0.14920893  1
  F  F30  1  0.62692134  0.27865379  0.17612569  1
  F  F31  1  0.98168520  0.86908249  0.19126702  1
loop_
_geom_bond_atom_site_label_1
_geom_bond_atom_site_label_2
_geom_bond_distance
_geom_bond_site_symmetry_2
O0 P3 1.457878 1_554
O0 Sb1 2.058231 1_545
O1 P1 1.457878 1_555
O1 Sb2 2.058231 1_565
O2 P2 1.457878 1_555
O2 Sb3 2.058231 1_545
O3 P0 1.457878 1_556
O3 Sb0 2.058231 1_565
F0 Sb2 1.870497 1_565
F1 Sb0 1.881322 1_555
F2 Sb3 1.876016 1_555
F3 Sb3 1.884029 1_555
F4 Sb1 1.885086 1_545
F5 Sb0 1.876016 1_555
F6 P2 1.503688 1_555
F7 Sb2 1.885086 1_565
F8 Sb1 1.870497 1_545
F9 P0 1.503688 1_555
F10 P3 1.505312 1_555
F11 P0 1.505312 1_555
F12 Sb3 1.885086 1_545
F13 Sb0 1.885086 1_565
F14 Sb2 1.884029 1_555
F15 P1 1.505312 1_555
F16 P1 1.503688 1_555
F17 Sb2 1.876016 1_555
F18 P2 1.505312 1_555
F19 Sb0 1.870497 1_565
F20 P3 1.500990 1_555
F21 Sb3 1.881322 1_555
F22 Sb1 1.876016 1_555
F23 P3 1.503688 1_555
F24 P0 1.500990 1_555
F25 Sb3 1.870497 1_545
F26 Sb0 1.884029 1_555
F27 P1 1.500990 1_555
F28 Sb2 1.881322 1_555
F29 Sb1 1.881322 1_555
F30 P2 1.500990 1_555
F31 Sb1 1.884029 1_555
