# generated using pymatgen
data_Tb4MgIr
_symmetry_space_group_name_H-M   'P 1'
_cell_length_a   9.71825611
_cell_length_b   9.71817958
_cell_length_c   9.71824781
_cell_angle_alpha   59.99935651
_cell_angle_beta   59.99969610
_cell_angle_gamma   59.99932455
_symmetry_Int_Tables_number   1
_chemical_formula_structural   Tb4MgIr
_chemical_formula_sum   'Tb16 Mg4 Ir4'
_cell_volume   648.99433434
_cell_formula_units_Z   4
loop_
 _symmetry_equiv_pos_site_id
 _symmetry_equiv_pos_as_xyz
  1  'x, y, z'
loop_
 _atom_site_type_symbol
 _atom_site_label
 _atom_site_symmetry_multiplicity
 _atom_site_fract_x
 _atom_site_fract_y
 _atom_site_fract_z
 _atom_site_occupancy
  Tb  Tb0  1  0.18775167  0.81224531  0.81225097  1
  Tb  Tb1  1  0.81224834  0.18774697  0.18775932  1
  Tb  Tb2  1  0.06245719  0.43754216  0.06246311  1
  Tb  Tb3  1  0.03812195  0.65395546  0.65395619  1
  Tb  Tb4  1  0.65396618  0.65395588  0.65395646  1
  Tb  Tb5  1  0.06245458  0.06246704  0.43753675  1
  Tb  Tb6  1  0.18774777  0.81224576  0.18775617  1
  Tb  Tb7  1  0.81225054  0.81224455  0.18775727  1
  Tb  Tb8  1  0.81224722  0.18775157  0.81224665  1
  Tb  Tb9  1  0.43754313  0.06246610  0.43753882  1
  Tb  Tb10  1  0.43753869  0.43754349  0.06246216  1
  Tb  Tb11  1  0.43753656  0.06246675  0.06245971  1
  Tb  Tb12  1  0.06245717  0.43754837  0.43753882  1
  Tb  Tb13  1  0.18775476  0.18775132  0.81224788  1
  Tb  Tb14  1  0.65396169  0.65395158  0.03812333  1
  Tb  Tb15  1  0.65396390  0.03811789  0.65395311  1
  Mg  Mg0  1  0.42111137  0.42111819  0.73666038  1
  Mg  Mg1  1  0.42110937  0.73667336  0.42110979  1
  Mg  Mg2  1  0.42111219  0.42111976  0.42111258  1
  Mg  Mg3  1  0.73666240  0.42111778  0.42111129  1
  Ir  Ir0  1  0.85881466  0.85880112  0.42357176  1
  Ir  Ir1  1  0.85880958  0.42356685  0.85881173  1
  Ir  Ir2  1  0.85880905  0.85880252  0.85881015  1
  Ir  Ir3  1  0.42357606  0.85880221  0.85880860  1
loop_
_geom_bond_atom_site_label_1
_geom_bond_atom_site_label_2
_geom_bond_distance
_geom_bond_site_symmetry_2
Mg0 Mg2 3.066560 1_555
Mg0 Mg1 3.066580 1_555
Mg0 Mg3 3.066581 1_555
Mg0 Tb11 3.333438 1_556
Mg0 Tb2 3.333500 1_556
Mg0 Tb10 3.333512 1_556
Mg0 Tb3 3.517098 1_555
Mg0 Tb4 3.517108 1_555
Mg0 Tb15 3.517183 1_555
Mg0 Tb0 3.554812 1_555
Mg0 Tb8 3.554886 1_555
Mg0 Tb13 3.554911 1_555
Mg1 Mg2 3.066579 1_555
Mg1 Mg3 3.066594 1_555
Mg1 Tb11 3.333410 1_565
Mg1 Tb5 3.333436 1_565
Mg1 Tb9 3.333458 1_565
Mg1 Tb4 3.517149 1_555
Mg1 Tb3 3.517155 1_555
Mg1 Tb14 3.517160 1_555
Mg1 Tb0 3.554884 1_555
Mg1 Tb7 3.554884 1_555
Mg1 Tb6 3.554911 1_555
Mg2 Mg3 3.066582 1_555
Mg2 Tb9 3.333456 1_555
Mg2 Tb10 3.333481 1_555
Mg2 Tb12 3.333508 1_555
Mg2 Tb3 3.517037 1_555
Mg2 Tb14 3.517042 1_555
Mg2 Tb15 3.517114 1_555
Mg2 Tb6 3.554810 1_555
Mg2 Tb13 3.554896 1_555
Mg2 Tb1 3.554899 1_555
Mg3 Tb5 3.333402 1_655
Mg3 Tb2 3.333433 1_655
Mg3 Tb12 3.333476 1_655
Mg3 Tb4 3.517060 1_555
Mg3 Tb14 3.517069 1_555
Mg3 Tb15 3.517144 1_555
Mg3 Tb7 3.554801 1_555
Mg3 Tb8 3.554874 1_555
Mg3 Tb1 3.554909 1_555
Ir0 Tb6 2.817789 1_655
Ir0 Tb7 2.817815 1_555
Ir0 Tb1 2.817828 1_565
Ir0 Tb3 2.826234 1_655
Ir0 Tb4 2.826251 1_555
Ir0 Tb15 2.826278 1_565
Ir0 Tb12 3.507886 1_655
Ir0 Tb9 3.508073 1_565
Ir0 Tb5 3.508095 1_665
Ir1 Tb13 2.817848 1_655
Ir1 Tb8 2.817853 1_555
Ir1 Tb1 2.817877 1_556
Ir1 Tb14 2.826264 1_556
Ir1 Tb4 2.826277 1_555
Ir1 Tb3 2.826299 1_655
Ir1 Tb10 3.508056 1_556
Ir1 Tb12 3.508058 1_655
Ir1 Tb2 3.508104 1_656
Ir2 Tb0 2.817891 1_655
Ir2 Tb8 2.817895 1_565
Ir2 Tb7 2.817931 1_556
Ir2 Tb14 2.826285 1_556
Ir2 Tb3 2.826302 1_655
Ir2 Tb15 2.826308 1_565
Ir2 Tb2 3.507962 1_656
Ir2 Tb5 3.508094 1_665
Ir2 Tb11 3.508098 1_566
Ir3 Tb0 2.817872 1_555
Ir3 Tb13 2.817876 1_565
Ir3 Tb6 2.817920 1_556
Ir3 Tb4 2.826284 1_555
Ir3 Tb14 2.826290 1_556
Ir3 Tb15 2.826321 1_565
Ir3 Tb10 3.507949 1_556
Ir3 Tb9 3.508057 1_565
Ir3 Tb11 3.508150 1_566
