# generated using pymatgen
data_Nd3(CuGe)4
_symmetry_space_group_name_H-M   'P 1'
_cell_length_a   4.31234781
_cell_length_b   6.70309205
_cell_length_c   8.17007935
_cell_angle_alpha   114.21878951
_cell_angle_beta   105.30224536
_cell_angle_gamma   90.00000640
_symmetry_Int_Tables_number   1
_chemical_formula_structural   Nd3(CuGe)4
_chemical_formula_sum   'Nd3 Cu4 Ge4'
_cell_volume   206.16376743
_cell_formula_units_Z   1
loop_
 _symmetry_equiv_pos_site_id
 _symmetry_equiv_pos_as_xyz
  1  'x, y, z'
loop_
 _atom_site_type_symbol
 _atom_site_label
 _atom_site_symmetry_multiplicity
 _atom_site_fract_x
 _atom_site_fract_y
 _atom_site_fract_z
 _atom_site_occupancy
  Nd  Nd0  1  0.86663521  0.36663521  0.73327043  1
  Nd  Nd1  1  -0.00000000  0.00000000  0.00000000  1
  Nd  Nd2  1  0.13336479  0.63336479  0.26672957  1
  Cu  Cu0  1  0.66576338  0.35059077  0.33152776  1
  Cu  Cu1  1  0.33423662  0.64940923  0.66847224  1
  Cu  Cu2  1  0.33423662  0.01906300  0.66847224  1
  Cu  Cu3  1  0.66576338  0.98093700  0.33152776  1
  Ge  Ge0  1  0.50000000  0.31204660  1.00000000  1
  Ge  Ge1  1  0.21632506  0.21632506  0.43264912  1
  Ge  Ge2  1  0.78367494  0.78367494  0.56735088  1
  Ge  Ge3  1  0.50000000  0.68795340  0.00000000  1
loop_
_geom_bond_atom_site_label_1
_geom_bond_atom_site_label_2
_geom_bond_distance
_geom_bond_site_symmetry_2
Cu0 Cu3 2.477823 1_545
Cu0 Ge0 2.513597 1_554
Cu0 Ge1 2.589231 1_555
Cu0 Ge1 2.589238 1_655
Cu0 Ge2 2.700393 1_555
Cu0 Nd2 3.053832 1_555
Cu0 Nd2 3.053834 1_655
Cu0 Nd0 3.121681 1_555
Cu0 Nd1 3.431463 1_555
Cu0 Nd1 3.431466 1_655
Cu1 Cu2 2.477823 1_565
Cu1 Ge3 2.513597 1_556
Cu1 Ge2 2.589231 1_555
Cu1 Ge2 2.589238 1_455
Cu1 Ge1 2.700393 1_555
Cu1 Nd0 3.053832 1_555
Cu1 Nd0 3.053834 1_455
Cu1 Nd2 3.121681 1_555
Cu1 Nd1 3.431463 1_666
Cu1 Nd1 3.431466 1_566
Cu2 Ge0 2.513597 1_555
Cu2 Ge2 2.589234 1_545
Cu2 Ge2 2.589241 1_445
Cu2 Ge1 2.700399 1_555
Cu2 Nd0 3.053831 1_555
Cu2 Nd0 3.053835 1_455
Cu2 Nd2 3.121681 1_545
Cu2 Nd1 3.431464 1_656
Cu2 Nd1 3.431466 1_556
Cu3 Ge3 2.513597 1_555
Cu3 Ge1 2.589234 1_565
Cu3 Ge1 2.589241 1_665
Cu3 Ge2 2.700399 1_555
Cu3 Nd2 3.053831 1_555
Cu3 Nd2 3.053835 1_655
Cu3 Nd0 3.121681 1_565
Cu3 Nd1 3.431464 1_565
Cu3 Nd1 3.431466 1_665
Ge0 Ge3 2.519738 1_556
Ge0 Nd1 3.004030 1_556
Ge0 Nd1 3.004031 1_656
Ge0 Nd2 3.139324 1_556
Ge0 Nd0 3.139325 1_555
Ge0 Nd2 3.139325 1_656
Ge0 Nd0 3.139325 1_455
Ge1 Nd0 3.040757 1_555
Ge1 Nd0 3.040760 1_455
Ge1 Nd1 3.085739 1_555
Ge2 Nd2 3.040757 1_555
Ge2 Nd2 3.040760 1_655
Ge2 Nd1 3.085739 1_666
Ge3 Nd1 3.004030 1_665
Ge3 Nd1 3.004031 1_565
Ge3 Nd0 3.139324 1_554
Ge3 Nd2 3.139325 1_555
Ge3 Nd0 3.139325 1_454
Ge3 Nd2 3.139325 1_655
