# generated using pymatgen
data_NaV6O11
_symmetry_space_group_name_H-M   'P 1'
_cell_length_a   5.87278835
_cell_length_b   5.87278835
_cell_length_c   13.52697000
_cell_angle_alpha   90.00000000
_cell_angle_beta   90.00000000
_cell_angle_gamma   120.00000391
_symmetry_Int_Tables_number   1
_chemical_formula_structural   NaV6O11
_chemical_formula_sum   'Na2 V12 O22'
_cell_volume   404.03579274
_cell_formula_units_Z   2
loop_
 _symmetry_equiv_pos_site_id
 _symmetry_equiv_pos_as_xyz
  1  'x, y, z'
loop_
 _atom_site_type_symbol
 _atom_site_label
 _atom_site_symmetry_multiplicity
 _atom_site_fract_x
 _atom_site_fract_y
 _atom_site_fract_z
 _atom_site_occupancy
  Na  Na0  1  0.33333300  0.66666700  0.25000000  1
  Na  Na1  1  0.66666700  0.33333300  0.75000000  1
  V  V0  1  0.66666700  0.33333300  0.25000000  1
  V  V1  1  0.33333300  0.66666700  0.75000000  1
  V  V2  1  0.00000000  0.00000000  0.35143800  1
  V  V3  1  0.00000000  0.00000000  0.85143800  1
  V  V4  1  0.00000000  0.00000000  0.64856200  1
  V  V5  1  0.00000000  0.00000000  0.14856200  1
  V  V6  1  0.50000000  0.00000000  0.50000000  1
  V  V7  1  0.50000000  0.50000000  0.00000000  1
  V  V8  1  0.00000000  0.50000000  0.00000000  1
  V  V9  1  0.00000000  0.50000000  0.50000000  1
  V  V10  1  0.50000000  0.50000000  0.50000000  1
  V  V11  1  0.50000000  0.00000000  0.00000000  1
  O  O0  1  0.82563100  0.17436900  0.92530400  1
  O  O1  1  0.17436900  0.34873800  0.42530400  1
  O  O2  1  0.33333300  0.66666700  0.91698300  1
  O  O3  1  0.66666700  0.33333300  0.41698300  1
  O  O4  1  0.66666700  0.33333300  0.08301700  1
  O  O5  1  0.33333300  0.66666700  0.58301700  1
  O  O6  1  0.85249800  0.70499500  0.25000000  1
  O  O7  1  0.14750200  0.85249800  0.75000000  1
  O  O8  1  0.70499500  0.85249800  0.75000000  1
  O  O9  1  0.29500500  0.14750200  0.25000000  1
  O  O10  1  0.85249800  0.14750200  0.25000000  1
  O  O11  1  0.65126200  0.82563100  0.42530400  1
  O  O12  1  0.17436900  0.34873800  0.07469600  1
  O  O13  1  0.82563100  0.17436900  0.57469600  1
  O  O14  1  0.34873800  0.17436900  0.57469600  1
  O  O15  1  0.65126200  0.82563100  0.07469600  1
  O  O16  1  0.17436900  0.82563100  0.07469600  1
  O  O17  1  0.82563100  0.65126200  0.92530400  1
  O  O18  1  0.17436900  0.82563100  0.42530400  1
  O  O19  1  0.82563100  0.65126200  0.57469600  1
  O  O20  1  0.34873800  0.17436900  0.92530400  1
  O  O21  1  0.14750200  0.29500500  0.75000000  1
loop_
_geom_bond_atom_site_label_1
_geom_bond_atom_site_label_2
_geom_bond_distance
_geom_bond_site_symmetry_2
Na0 O18 2.870162 1_555
Na0 O16 2.870162 1_555
Na0 O1 2.870165 1_555
Na0 O11 2.870165 1_555
Na0 O15 2.870165 1_555
Na0 O12 2.870165 1_555
Na0 O6 2.942852 1_455
Na0 O9 2.942852 1_565
Na0 O10 2.942858 1_565
Na0 O10 2.942858 1_455
Na0 O9 2.942863 1_555
Na0 O6 2.942863 1_555
Na1 O0 2.870162 1_555
Na1 O13 2.870162 1_555
Na1 O20 2.870165 1_555
Na1 O17 2.870165 1_555
Na1 O14 2.870165 1_555
Na1 O19 2.870165 1_555
Na1 O8 2.942852 1_545
Na1 O21 2.942852 1_655
Na1 O7 2.942858 1_655
Na1 O7 2.942858 1_545
Na1 O21 2.942863 1_555
Na1 O8 2.942863 1_555
O0 V11 1.941231 1_556
O0 V8 1.941231 1_656
O0 V3 2.035754 1_655
O1 V10 1.941231 1_555
O1 V9 1.941231 1_555
O1 V2 2.035754 1_555
O2 V11 2.033516 1_566
O2 V8 2.033516 1_556
O2 V7 2.033521 1_556
O2 V1 2.258774 1_555
O3 V6 2.033516 1_555
O3 V9 2.033516 1_655
O3 V10 2.033521 1_555
O3 V0 2.258774 1_555
O4 V11 2.033516 1_555
O4 V8 2.033516 1_655
O4 V7 2.033521 1_555
O4 V0 2.258774 1_555
O5 V6 2.033516 1_565
O5 V9 2.033516 1_555
O5 V10 2.033521 1_555
O5 V1 2.258774 1_555
O6 V0 1.890267 1_555
O6 V2 2.033215 1_665
O6 V5 2.033215 1_665
O7 V1 1.890267 1_555
O7 V3 2.033212 1_565
O7 V4 2.033212 1_565
O8 V1 1.890267 1_555
O8 V3 2.033215 1_665
O8 V4 2.033215 1_665
O9 V0 1.890267 1_555
O9 V2 2.033215 1_555
O9 V5 2.033215 1_555
O10 V0 1.890267 1_555
O10 V2 2.033212 1_655
O10 V5 2.033212 1_655
O11 V10 1.941231 1_555
O11 V6 1.941231 1_565
O11 V2 2.035754 1_665
O12 V7 1.941231 1_555
O12 V8 1.941231 1_555
O12 V5 2.035754 1_555
O13 V9 1.941231 1_655
O13 V6 1.941231 1_555
O13 V4 2.035754 1_655
O14 V10 1.941231 1_555
O14 V6 1.941231 1_555
O14 V4 2.035754 1_555
O15 V7 1.941231 1_555
O15 V11 1.941231 1_565
O15 V5 2.035754 1_665
O16 V8 1.941231 1_555
O16 V11 1.941231 1_565
O16 V5 2.035754 1_565
O17 V7 1.941231 1_556
O17 V8 1.941231 1_656
O17 V3 2.035754 1_665
O18 V6 1.941231 1_565
O18 V9 1.941231 1_555
O18 V2 2.035754 1_565
O19 V10 1.941231 1_555
O19 V9 1.941231 1_655
O19 V4 2.035754 1_665
O20 V7 1.941231 1_556
O20 V11 1.941231 1_556
O20 V3 2.035754 1_555
O21 V1 1.890267 1_555
O21 V3 2.033215 1_555
O21 V4 2.033215 1_555
