# generated using pymatgen
data_Er2Al3Co
_symmetry_space_group_name_H-M   'P 1'
_cell_length_a   5.42839484
_cell_length_b   5.42839528
_cell_length_c   8.56027582
_cell_angle_alpha   90.00000352
_cell_angle_beta   89.99999307
_cell_angle_gamma   119.99990591
_symmetry_Int_Tables_number   1
_chemical_formula_structural   Er2Al3Co
_chemical_formula_sum   'Er4 Al6 Co2'
_cell_volume   218.45485186
_cell_formula_units_Z   2
loop_
 _symmetry_equiv_pos_site_id
 _symmetry_equiv_pos_as_xyz
  1  'x, y, z'
loop_
 _atom_site_type_symbol
 _atom_site_label
 _atom_site_symmetry_multiplicity
 _atom_site_fract_x
 _atom_site_fract_y
 _atom_site_fract_z
 _atom_site_occupancy
  Er  Er0  1  0.33333400  0.66666900  0.44149576  1
  Er  Er1  1  0.66666800  0.33333400  0.94154762  1
  Er  Er2  1  0.66666600  0.33333100  0.55850424  1
  Er  Er3  1  0.33333200  0.66666600  0.05845238  1
  Al  Al0  1  0.32628788  0.16314394  0.24992148  1
  Al  Al1  1  0.16314394  0.83685606  0.75007852  1
  Al  Al2  1  0.16314394  0.32628788  0.75007852  1
  Al  Al3  1  0.83685606  0.67371212  0.24992148  1
  Al  Al4  1  0.67371212  0.83685606  0.75007852  1
  Al  Al5  1  0.83685606  0.16314394  0.24992148  1
  Co  Co0  1  0.00000000  0.00000000  -0.00000000  1
  Co  Co1  1  0.00000000  0.00000000  0.50000000  1
loop_
_geom_bond_atom_site_label_1
_geom_bond_atom_site_label_2
_geom_bond_distance
_geom_bond_site_symmetry_2
Er0 Er3 3.278957 1_555
Er0 Er2 3.290232 1_565
Er0 Er2 3.290258 1_455
Er0 Er2 3.290263 1_555
Er1 Er2 3.278957 1_555
Er1 Er3 3.289970 1_656
Er1 Er3 3.289984 1_556
Er1 Er3 3.289988 1_546
Al0 Co0 2.632477 1_555
Al0 Co1 2.633570 1_555
Al0 Al5 2.656829 1_455
Al0 Al3 2.656833 1_445
Al0 Al5 2.771566 1_555
Al0 Al3 2.771570 1_555
Al0 Er1 3.086893 1_554
Al0 Er2 3.088418 1_555
Al0 Er3 3.170864 1_545
Al0 Er3 3.170864 1_555
Al0 Er0 3.171320 1_545
Al0 Er0 3.171339 1_555
Al1 Co0 2.632476 1_566
Al1 Co1 2.633569 1_565
Al1 Al4 2.656829 1_455
Al1 Al2 2.656829 1_565
Al1 Al4 2.771566 1_555
Al1 Al2 2.771566 1_555
Al1 Er3 3.086888 1_556
Al1 Er0 3.088414 1_555
Al1 Er1 3.170863 1_455
Al1 Er1 3.170872 1_565
Al1 Er2 3.171326 1_565
Al1 Er2 3.171340 1_455
Al2 Co0 2.632477 1_556
Al2 Co1 2.633570 1_555
Al2 Al4 2.656833 1_445
Al2 Al4 2.771570 1_555
Al2 Er3 3.086889 1_556
Al2 Er0 3.088425 1_555
Al2 Er1 3.170859 1_455
Al2 Er1 3.170869 1_555
Al2 Er2 3.171327 1_455
Al2 Er2 3.171332 1_555
Al3 Co0 2.632477 1_665
Al3 Co1 2.633570 1_665
Al3 Al5 2.656829 1_565
Al3 Al5 2.771566 1_555
Al3 Er1 3.086889 1_554
Al3 Er2 3.088425 1_555
Al3 Er3 3.170859 1_655
Al3 Er3 3.170869 1_555
Al3 Er0 3.171327 1_655
Al3 Er0 3.171332 1_555
Al4 Co0 2.632477 1_666
Al4 Co1 2.633570 1_665
Al4 Er3 3.086893 1_556
Al4 Er0 3.088418 1_555
Al4 Er1 3.170864 1_565
Al4 Er1 3.170864 1_555
Al4 Er2 3.171320 1_565
Al4 Er2 3.171339 1_555
Al5 Co0 2.632476 1_655
Al5 Co1 2.633569 1_655
Al5 Er1 3.086888 1_554
Al5 Er2 3.088414 1_555
Al5 Er3 3.170863 1_655
Al5 Er3 3.170872 1_545
Al5 Er0 3.171326 1_545
Al5 Er0 3.171340 1_655
Co0 Er1 3.173772 1_454
Co0 Er3 3.173772 1_545
Co0 Er3 3.173777 1_555
Co0 Er1 3.173777 1_444
Co0 Er1 3.173786 1_554
Co0 Er3 3.173786 1_445
Co1 Er0 3.173838 1_545
Co1 Er2 3.173838 1_455
Co1 Er2 3.173847 1_555
Co1 Er0 3.173847 1_445
Co1 Er0 3.173861 1_555
Co1 Er2 3.173861 1_445
