# generated using pymatgen
data_HfAlNi2
_symmetry_space_group_name_H-M   'P 1'
_cell_length_a   4.26385922
_cell_length_b   4.26385874
_cell_length_c   4.26385857
_cell_angle_alpha   59.99999351
_cell_angle_beta   59.99999722
_cell_angle_gamma   59.99999888
_symmetry_Int_Tables_number   1
_chemical_formula_structural   HfAlNi2
_chemical_formula_sum   'Hf1 Al1 Ni2'
_cell_volume   54.81424352
_cell_formula_units_Z   1
loop_
 _symmetry_equiv_pos_site_id
 _symmetry_equiv_pos_as_xyz
  1  'x, y, z'
loop_
 _atom_site_type_symbol
 _atom_site_label
 _atom_site_symmetry_multiplicity
 _atom_site_fract_x
 _atom_site_fract_y
 _atom_site_fract_z
 _atom_site_occupancy
  Hf  Hf0  1  0.50000000  0.50000000  0.50000000  1
  Al  Al0  1  0.00000000  -0.00000000  0.00000000  1
  Ni  Ni0  1  0.25000000  0.25000000  0.25000000  1
  Ni  Ni1  1  0.75000000  0.75000000  0.75000000  1
loop_
_geom_bond_atom_site_label_1
_geom_bond_atom_site_label_2
_geom_bond_distance
_geom_bond_site_symmetry_2
Hf0 Ni0 2.611069 1_556
Hf0 Ni1 2.611069 1_554
Hf0 Ni1 2.611069 1_545
Hf0 Ni0 2.611069 1_565
Hf0 Ni0 2.611070 1_555
Hf0 Ni1 2.611070 1_555
Hf0 Ni0 2.611070 1_655
Hf0 Ni1 2.611070 1_455
Al0 Ni1 2.611069 1_445
Al0 Ni0 2.611069 1_554
Al0 Ni1 2.611069 1_454
Al0 Ni0 2.611069 1_545
Al0 Ni0 2.611070 1_555
Al0 Ni1 2.611070 1_444
Al0 Ni0 2.611070 1_455
Al0 Ni1 2.611070 1_544
