# generated using pymatgen
data_CsBa2Br5
_symmetry_space_group_name_H-M   'P 1'
_cell_length_a   8.75967270
_cell_length_b   10.06693422
_cell_length_c   14.00603533
_cell_angle_alpha   89.79499706
_cell_angle_beta   90.00000000
_cell_angle_gamma   90.00000000
_symmetry_Int_Tables_number   1
_chemical_formula_structural   CsBa2Br5
_chemical_formula_sum   'Cs4 Ba8 Br20'
_cell_volume   1235.08699202
_cell_formula_units_Z   4
loop_
 _symmetry_equiv_pos_site_id
 _symmetry_equiv_pos_as_xyz
  1  'x, y, z'
loop_
 _atom_site_type_symbol
 _atom_site_label
 _atom_site_symmetry_multiplicity
 _atom_site_fract_x
 _atom_site_fract_y
 _atom_site_fract_z
 _atom_site_occupancy
  Cs  Cs0  1  0.94278888  0.01074791  0.16638807  1
  Cs  Cs1  1  0.44278888  0.98925209  0.33361193  1
  Cs  Cs2  1  0.05721112  0.98925209  0.83361193  1
  Cs  Cs3  1  0.55721112  0.01074791  0.66638807  1
  Ba  Ba0  1  0.97094007  0.49992054  0.17657482  1
  Ba  Ba1  1  0.47094007  0.50007946  0.32342518  1
  Ba  Ba2  1  0.02905993  0.50007946  0.82342518  1
  Ba  Ba3  1  0.52905993  0.49992054  0.67657482  1
  Ba  Ba4  1  0.43091659  0.25188837  0.00769152  1
  Ba  Ba5  1  0.93091659  0.74811163  0.49230848  1
  Ba  Ba6  1  0.56908341  0.74811163  0.99230848  1
  Ba  Ba7  1  0.06908341  0.25188837  0.50769152  1
  Br  Br0  1  0.04796535  0.28578298  0.00253152  1
  Br  Br1  1  0.54796535  0.71421702  0.49746848  1
  Br  Br2  1  0.95203465  0.71421702  0.99746848  1
  Br  Br3  1  0.45203465  0.28578298  0.50253152  1
  Br  Br4  1  0.69079308  0.72598316  0.21843537  1
  Br  Br5  1  0.19079308  0.27401684  0.28156463  1
  Br  Br6  1  0.30920692  0.27401684  0.78156463  1
  Br  Br7  1  0.80920692  0.72598316  0.71843537  1
  Br  Br8  1  0.83626641  0.46039204  0.40066585  1
  Br  Br9  1  0.33626641  0.53960796  0.09933415  1
  Br  Br10  1  0.16373359  0.53960796  0.59933415  1
  Br  Br11  1  0.66373359  0.46039204  0.90066585  1
  Br  Br12  1  0.66570346  0.28815841  0.18716709  1
  Br  Br13  1  0.16570346  0.71184159  0.31283291  1
  Br  Br14  1  0.33429654  0.71184159  0.81283291  1
  Br  Br15  1  0.83429654  0.28815841  0.68716709  1
  Br  Br16  1  0.82262685  0.03729771  0.42082959  1
  Br  Br17  1  0.32262685  0.96270229  0.07917041  1
  Br  Br18  1  0.17737315  0.96270229  0.57917041  1
  Br  Br19  1  0.67737315  0.03729771  0.92082959  1
loop_
_geom_bond_atom_site_label_1
_geom_bond_atom_site_label_2
_geom_bond_distance
_geom_bond_site_symmetry_2
Ba0 Br2 3.306902 1_554
Ba0 Br5 3.319498 1_655
Ba0 Br0 3.328978 1_655
Ba0 Br13 3.336658 1_655
Ba0 Br8 3.375215 1_555
Ba0 Br4 3.399186 1_555
Ba0 Br9 3.401145 1_655
Ba0 Br12 3.422478 1_555
Ba1 Br3 3.306902 1_555
Ba1 Br4 3.319498 1_555
Ba1 Br1 3.328978 1_555
Ba1 Br12 3.336658 1_555
Ba1 Br9 3.375215 1_555
Ba1 Br5 3.399186 1_555
Ba1 Br8 3.401145 1_555
Ba1 Br13 3.422478 1_555
Ba2 Br0 3.306902 1_556
Ba2 Br7 3.319498 1_455
Ba2 Br2 3.328978 1_455
Ba2 Br15 3.336658 1_455
Ba2 Br10 3.375215 1_555
Ba2 Br6 3.399186 1_555
Ba2 Br11 3.401145 1_455
Ba2 Br14 3.422478 1_555
Ba3 Br1 3.306902 1_555
Ba3 Br6 3.319498 1_555
Ba3 Br3 3.328978 1_555
Ba3 Br14 3.336658 1_555
Ba3 Br11 3.375215 1_555
Ba3 Br7 3.399186 1_555
Ba3 Br10 3.401145 1_555
Ba3 Br15 3.422478 1_555
Ba4 Br17 3.218138 1_545
Ba4 Br12 3.269345 1_555
Ba4 Br9 3.278867 1_555
Ba4 Br11 3.284726 1_554
Ba4 Br19 3.290353 1_554
Ba4 Br6 3.348434 1_554
Ba4 Br0 3.372585 1_555
Ba5 Br16 3.218138 1_565
Ba5 Br13 3.269345 1_655
Ba5 Br8 3.278867 1_555
Ba5 Br10 3.284726 1_655
Ba5 Br18 3.290353 1_655
Ba5 Br7 3.348434 1_555
Ba5 Br1 3.372585 1_555
Ba6 Br19 3.218138 1_565
Ba6 Br14 3.269345 1_555
Ba6 Br11 3.278867 1_555
Ba6 Br9 3.284726 1_556
Ba6 Br17 3.290353 1_556
Ba6 Br4 3.348434 1_556
Ba6 Br2 3.372585 1_555
Ba7 Br18 3.218138 1_545
Ba7 Br15 3.269345 1_455
Ba7 Br10 3.278867 1_555
Ba7 Br8 3.284726 1_455
Ba7 Br16 3.290353 1_455
Ba7 Br5 3.348434 1_555
Ba7 Br3 3.372585 1_555
Br0 Cs0 3.706253 1_455
Br0 Cs2 3.816505 1_544
Br1 Cs1 3.706253 1_555
Br1 Cs3 3.816505 1_565
Br2 Cs2 3.706253 1_655
Br2 Cs0 3.816505 1_566
Br3 Cs3 3.706253 1_555
Br3 Cs1 3.816505 1_545
Br4 Cs0 3.688778 1_565
Br4 Cs1 3.791639 1_555
Br5 Cs1 3.688778 1_545
Br5 Cs0 3.791639 1_455
Br6 Cs2 3.688778 1_545
Br6 Cs3 3.791639 1_555
Br7 Cs3 3.688778 1_565
Br7 Cs2 3.791639 1_655
Br12 Cs0 3.712241 1_555
Br12 Cs1 4.126775 1_545
Br13 Cs1 3.712241 1_555
Br13 Cs0 4.126775 1_465
Br14 Cs2 3.712241 1_555
Br14 Cs3 4.126775 1_565
Br15 Cs3 3.712241 1_555
Br15 Cs2 4.126775 1_645
Br16 Cs1 3.577855 1_545
Br16 Cs0 3.726427 1_555
Br16 Cs3 4.159214 1_555
Br17 Cs0 3.577855 1_465
Br17 Cs1 3.726427 1_555
Br17 Cs2 4.159214 1_554
Br18 Cs3 3.577855 1_565
Br18 Cs2 3.726427 1_555
Br18 Cs1 4.159214 1_555
Br19 Cs2 3.577855 1_645
Br19 Cs3 3.726427 1_555
Br19 Cs0 4.159214 1_556
