# generated using pymatgen
data_Sm3CuSiS7
_symmetry_space_group_name_H-M   'P 1'
_cell_length_a   10.09574866
_cell_length_b   10.09574866
_cell_length_c   5.75516700
_cell_angle_alpha   90.00000000
_cell_angle_beta   90.00000000
_cell_angle_gamma   120.00000432
_symmetry_Int_Tables_number   1
_chemical_formula_structural   Sm3CuSiS7
_chemical_formula_sum   'Sm6 Cu2 Si2 S14'
_cell_volume   508.00221160
_cell_formula_units_Z   2
loop_
 _symmetry_equiv_pos_site_id
 _symmetry_equiv_pos_as_xyz
  1  'x, y, z'
loop_
 _atom_site_type_symbol
 _atom_site_label
 _atom_site_symmetry_multiplicity
 _atom_site_fract_x
 _atom_site_fract_y
 _atom_site_fract_z
 _atom_site_occupancy
  Sm  Sm0  1  0.12477500  0.35645200  0.75011000  1
  Sm  Sm1  1  0.64354800  0.76832300  0.75011000  1
  Sm  Sm2  1  0.87522500  0.64354800  0.25011000  1
  Sm  Sm3  1  0.35645200  0.23167700  0.25011000  1
  Sm  Sm4  1  0.23167700  0.87522500  0.75011000  1
  Sm  Sm5  1  0.76832300  0.12477500  0.25011000  1
  Cu  Cu0  1  0.00000000  0.00000000  0.72010200  1
  Cu  Cu1  1  0.00000000  0.00000000  0.22010200  1
  Si  Si0  1  0.66666700  0.33333300  0.83740800  1
  Si  Si1  1  0.33333300  0.66666700  0.33740800  1
  S  S0  1  0.25389600  0.16503600  0.73222800  1
  S  S1  1  0.52344400  0.11040300  0.98351100  1
  S  S2  1  0.11040300  0.58695900  0.48351100  1
  S  S3  1  0.88959700  0.41304100  0.98351100  1
  S  S4  1  0.41304100  0.52344400  0.48351100  1
  S  S5  1  0.74610400  0.83496400  0.23222800  1
  S  S6  1  0.66666700  0.33333300  0.47023000  1
  S  S7  1  0.16503600  0.91114000  0.23222800  1
  S  S8  1  0.33333300  0.66666700  0.97023000  1
  S  S9  1  0.58695900  0.47655600  0.98351100  1
  S  S10  1  0.83496400  0.08886000  0.73222800  1
  S  S11  1  0.91114000  0.74610400  0.73222800  1
  S  S12  1  0.47655600  0.88959700  0.48351100  1
  S  S13  1  0.08886000  0.25389600  0.23222800  1
loop_
_geom_bond_atom_site_label_1
_geom_bond_atom_site_label_2
_geom_bond_distance
_geom_bond_site_symmetry_2
Cu0 S0 2.253996 1_555
Cu0 S11 2.253996 1_445
Cu0 S10 2.253996 1_455
Cu1 S5 2.253996 1_445
Cu1 S13 2.253996 1_555
Cu1 S7 2.253996 1_545
S0 Sm0 2.821975 1_555
S0 Sm4 2.822276 1_545
S0 Sm3 2.920078 1_555
S0 Sm3 3.116317 1_556
S1 Si0 2.146829 1_555
S1 Sm5 2.851042 1_556
S1 Sm3 2.959665 1_556
S1 Sm4 3.020677 1_545
S2 Si1 2.146827 1_555
S2 Sm0 2.851042 1_555
S2 Sm4 2.959665 1_555
S2 Sm2 3.020677 1_455
S3 Si0 2.146827 1_555
S3 Sm2 2.851042 1_556
S3 Sm5 2.959665 1_556
S3 Sm0 3.020677 1_655
S4 Si1 2.146836 1_555
S4 Sm1 2.851042 1_555
S4 Sm0 2.959665 1_555
S4 Sm3 3.020677 1_555
S5 Sm2 2.821975 1_555
S5 Sm5 2.822276 1_565
S5 Sm1 2.920078 1_554
S5 Sm1 3.116317 1_555
S6 Si0 2.113171 1_555
S6 Sm5 3.041772 1_555
S6 Sm2 3.041779 1_555
S6 Sm3 3.041781 1_555
S7 Sm3 2.821975 1_565
S7 Sm2 2.822275 1_455
S7 Sm4 2.920078 1_554
S7 Sm4 3.116317 1_555
S8 Si1 2.113171 1_556
S8 Sm4 3.041772 1_555
S8 Sm0 3.041779 1_555
S8 Sm1 3.041781 1_555
S9 Si0 2.146836 1_555
S9 Sm3 2.851042 1_556
S9 Sm2 2.959665 1_556
S9 Sm1 3.020677 1_555
S10 Sm1 2.821975 1_545
S10 Sm0 2.822275 1_655
S10 Sm5 2.920078 1_555
S10 Sm5 3.116317 1_556
S11 Sm4 2.821975 1_655
S11 Sm1 2.822276 1_555
S11 Sm2 2.920078 1_555
S11 Sm2 3.116317 1_556
S12 Si1 2.146829 1_555
S12 Sm4 2.851042 1_555
S12 Sm1 2.959665 1_555
S12 Sm5 3.020677 1_565
S13 Sm5 2.821975 1_455
S13 Sm3 2.822276 1_555
S13 Sm0 2.920078 1_554
S13 Sm0 3.116317 1_555
