# generated using pymatgen
data_NdIn5Rh
_symmetry_space_group_name_H-M   'P 1'
_cell_length_a   4.67059692
_cell_length_b   4.67059692
_cell_length_c   7.56314361
_cell_angle_alpha   90.00000000
_cell_angle_beta   90.00000000
_cell_angle_gamma   90.00000000
_symmetry_Int_Tables_number   1
_chemical_formula_structural   NdIn5Rh
_chemical_formula_sum   'Nd1 In5 Rh1'
_cell_volume   164.98601166
_cell_formula_units_Z   1
loop_
 _symmetry_equiv_pos_site_id
 _symmetry_equiv_pos_as_xyz
  1  'x, y, z'
loop_
 _atom_site_type_symbol
 _atom_site_label
 _atom_site_symmetry_multiplicity
 _atom_site_fract_x
 _atom_site_fract_y
 _atom_site_fract_z
 _atom_site_occupancy
  Nd  Nd0  1  0.00000000  0.00000000  0.00000000  1
  In  In0  1  0.50000000  0.50000000  0.00000000  1
  In  In1  1  0.00000000  0.50000000  0.30547747  1
  In  In2  1  0.50000000  0.00000000  0.30547747  1
  In  In3  1  -0.00000000  0.50000000  0.69452253  1
  In  In4  1  0.50000000  -0.00000000  0.69452253  1
  Rh  Rh0  1  0.00000000  0.00000000  0.50000000  1
loop_
_geom_bond_atom_site_label_1
_geom_bond_atom_site_label_2
_geom_bond_distance
_geom_bond_site_symmetry_2
In0 In2 3.285031 1_565
In0 In4 3.285031 1_554
In0 In3 3.285031 1_654
In0 In4 3.285031 1_564
In0 In1 3.285031 1_555
In0 In3 3.285031 1_554
In0 In2 3.285031 1_555
In0 In1 3.285031 1_655
In0 Nd0 3.302611 1_555
In0 Nd0 3.302611 1_655
In0 Nd0 3.302611 1_565
In0 Nd0 3.302611 1_665
In1 Rh0 2.760082 1_565
In1 Rh0 2.760082 1_555
In1 In3 2.942404 1_555
In1 Nd0 3.285031 1_565
In1 Nd0 3.285031 1_555
In1 In2 3.302611 1_465
In1 In2 3.302611 1_565
In1 In2 3.302611 1_555
In1 In2 3.302611 1_455
In2 Rh0 2.760082 1_655
In2 Rh0 2.760082 1_555
In2 In4 2.942404 1_555
In2 Nd0 3.285031 1_655
In2 Nd0 3.285031 1_555
In3 Rh0 2.760082 1_565
In3 Rh0 2.760082 1_555
In3 Nd0 3.285031 1_566
In3 Nd0 3.285031 1_556
In3 In4 3.302611 1_465
In3 In4 3.302611 1_455
In3 In4 3.302611 1_555
In3 In4 3.302611 1_565
In4 Rh0 2.760082 1_655
In4 Rh0 2.760082 1_555
In4 Nd0 3.285031 1_656
In4 Nd0 3.285031 1_556
