# generated using pymatgen
data_BaCoN
_symmetry_space_group_name_H-M   'P 1'
_cell_length_a   5.51933863
_cell_length_b   9.63391916
_cell_length_c   23.74146851
_cell_angle_alpha   90.00000000
_cell_angle_beta   90.00000000
_cell_angle_gamma   90.00000000
_symmetry_Int_Tables_number   1
_chemical_formula_structural   BaCoN
_chemical_formula_sum   'Ba20 Co20 N20'
_cell_volume   1262.40183299
_cell_formula_units_Z   20
loop_
 _symmetry_equiv_pos_site_id
 _symmetry_equiv_pos_as_xyz
  1  'x, y, z'
loop_
 _atom_site_type_symbol
 _atom_site_label
 _atom_site_symmetry_multiplicity
 _atom_site_fract_x
 _atom_site_fract_y
 _atom_site_fract_z
 _atom_site_occupancy
  Ba  Ba0  1  0.00492125  0.99849692  0.25000000  1
  Ba  Ba1  1  0.50711642  0.15822683  0.45081660  1
  Ba  Ba2  1  0.96071905  0.67178781  0.84956283  1
  Ba  Ba3  1  0.53928095  0.17178781  0.84956283  1
  Ba  Ba4  1  0.49288358  0.84177317  0.54918340  1
  Ba  Ba5  1  0.99288358  0.65822683  0.04918340  1
  Ba  Ba6  1  0.03928095  0.32821219  0.34956283  1
  Ba  Ba7  1  0.46071905  0.82821219  0.15043717  1
  Ba  Ba8  1  0.96071905  0.67178781  0.65043717  1
  Ba  Ba9  1  0.00711642  0.34177317  0.95081660  1
  Ba  Ba10  1  0.46071905  0.82821219  0.34956283  1
  Ba  Ba11  1  0.00711642  0.34177317  0.54918340  1
  Ba  Ba12  1  0.03928095  0.32821219  0.15043717  1
  Ba  Ba13  1  0.99288358  0.65822683  0.45081660  1
  Ba  Ba14  1  0.49288358  0.84177317  0.95081660  1
  Ba  Ba15  1  0.49507875  0.49849692  0.25000000  1
  Ba  Ba16  1  0.53928095  0.17178781  0.65043717  1
  Ba  Ba17  1  0.50492125  0.50150308  0.75000000  1
  Ba  Ba18  1  0.99507875  0.00150308  0.75000000  1
  Ba  Ba19  1  0.50711642  0.15822683  0.04918340  1
  Co  Co0  1  0.46414613  0.84658877  0.80270511  1
  Co  Co1  1  0.53585387  0.15341123  0.30270511  1
  Co  Co2  1  0.03585387  0.34658877  0.80270511  1
  Co  Co3  1  0.03859836  0.99477395  0.89674986  1
  Co  Co4  1  0.96140164  0.00522605  0.39674986  1
  Co  Co5  1  0.46140164  0.49477395  0.89674986  1
  Co  Co6  1  0.96414613  0.65341123  0.19729489  1
  Co  Co7  1  0.46140164  0.49477395  0.60325014  1
  Co  Co8  1  0.53859836  0.50522605  0.39674986  1
  Co  Co9  1  0.03859836  0.99477395  0.60325014  1
  Co  Co10  1  0.03585387  0.34658877  0.69729489  1
  Co  Co11  1  0.00000000  -0.00000000  0.50000000  1
  Co  Co12  1  0.53585387  0.15341123  0.19729489  1
  Co  Co13  1  0.96414613  0.65341123  0.30270511  1
  Co  Co14  1  0.46414613  0.84658877  0.69729489  1
  Co  Co15  1  0.00000000  -0.00000000  -0.00000000  1
  Co  Co16  1  0.53859836  0.50522605  0.10325014  1
  Co  Co17  1  0.96140164  0.00522605  0.10325014  1
  Co  Co18  1  0.50000000  0.50000000  0.50000000  1
  Co  Co19  1  0.50000000  0.50000000  -0.00000000  1
  N  N0  1  0.25379355  0.92046957  0.85059274  1
  N  N1  1  0.75379355  0.57953043  0.35059274  1
  N  N2  1  0.68353496  0.56999933  0.55710343  1
  N  N3  1  0.24620645  0.42046957  0.85059274  1
  N  N4  1  0.33265855  0.22372771  0.25000000  1
  N  N5  1  0.81646504  0.06999933  0.55710343  1
  N  N6  1  0.16734145  0.72372771  0.25000000  1
  N  N7  1  0.66734145  0.77627229  0.75000000  1
  N  N8  1  0.68353496  0.56999933  0.94289657  1
  N  N9  1  0.74620645  0.07953043  0.14940726  1
  N  N10  1  0.75379355  0.57953043  0.14940726  1
  N  N11  1  0.31646504  0.43000067  0.44289657  1
  N  N12  1  0.18353496  0.93000067  0.44289657  1
  N  N13  1  0.81646504  0.06999933  0.94289657  1
  N  N14  1  0.74620645  0.07953043  0.35059274  1
  N  N15  1  0.83265855  0.27627229  0.75000000  1
  N  N16  1  0.24620645  0.42046957  0.64940726  1
  N  N17  1  0.18353496  0.93000067  0.05710343  1
  N  N18  1  0.25379355  0.92046957  0.64940726  1
  N  N19  1  0.31646504  0.43000067  0.05710343  1
loop_
_geom_bond_atom_site_label_1
_geom_bond_atom_site_label_2
_geom_bond_distance
_geom_bond_site_symmetry_2
Ba0 N6 2.794779 1_555
Ba0 N4 2.824954 1_565
Ba0 N9 2.889989 1_465
Ba0 N14 2.889989 1_465
Ba1 N14 2.824541 1_555
Ba1 N11 2.828046 1_555
Ba1 N12 2.838896 1_545
Ba1 N5 3.163108 1_555
Ba2 N8 2.865703 1_555
Ba2 N3 2.888866 1_655
Ba2 N0 2.890833 1_655
Ba2 N7 3.036874 1_555
Ba3 N13 2.865703 1_555
Ba3 N0 2.888866 1_545
Ba3 N3 2.890833 1_555
Ba3 N15 3.036874 1_555
Ba4 N18 2.824541 1_555
Ba4 N2 2.828046 1_555
Ba4 N5 2.838896 1_565
Ba4 N12 3.163108 1_555
Ba5 N10 2.824541 1_555
Ba5 N17 2.828046 1_655
Ba5 N19 2.838896 1_655
Ba5 N8 3.163108 1_554
Ba6 N11 2.865703 1_555
Ba6 N1 2.888866 1_455
Ba6 N14 2.890833 1_455
Ba6 N4 3.036874 1_555
Ba7 N17 2.865703 1_555
Ba7 N9 2.888866 1_565
Ba7 N10 2.890833 1_555
Ba7 N6 3.036874 1_555
Ba8 N2 2.865703 1_555
Ba8 N16 2.888866 1_655
Ba8 N18 2.890833 1_655
Ba8 N7 3.036874 1_555
Ba9 N3 2.824541 1_555
Ba9 N13 2.828046 1_455
Ba9 N8 2.838896 1_455
Ba9 N19 3.163108 1_556
Ba10 N12 2.865703 1_555
Ba10 N14 2.888866 1_565
Ba10 N1 2.890833 1_555
Ba10 N6 3.036874 1_555
Ba11 N16 2.824541 1_555
Ba11 N5 2.828046 1_455
Ba11 N2 2.838896 1_455
Ba11 N11 3.163108 1_555
Ba12 N19 2.865703 1_555
Ba12 N10 2.888866 1_455
Ba12 N9 2.890833 1_455
Ba12 N4 3.036874 1_555
Ba13 N1 2.824541 1_555
Ba13 N12 2.828046 1_655
Ba13 N11 2.838896 1_655
Ba13 N2 3.163108 1_555
Ba14 N0 2.824541 1_555
Ba14 N8 2.828046 1_555
Ba14 N13 2.838896 1_565
Ba14 N17 3.163108 1_556
Ba15 N4 2.794779 1_555
Ba15 N6 2.824954 1_555
Ba15 N10 2.889989 1_555
Ba15 N1 2.889989 1_555
Ba16 N5 2.865703 1_555
Ba16 N18 2.888866 1_545
Ba16 N16 2.890833 1_555
Ba16 N15 3.036874 1_555
Ba17 N7 2.794779 1_555
Ba17 N15 2.824954 1_555
Ba17 N16 2.889989 1_555
Ba17 N3 2.889989 1_555
Ba18 N15 2.794779 1_555
Ba18 N7 2.824954 1_545
Ba18 N18 2.889989 1_645
Ba18 N0 2.889989 1_645
Ba19 N9 2.824541 1_555
Ba19 N19 2.828046 1_555
Ba19 N17 2.838896 1_545
Ba19 N13 3.163108 1_554
Co0 N0 1.774017 1_555
Co0 N7 1.811744 1_555
Co1 N14 1.774017 1_555
Co1 N4 1.811744 1_555
Co2 N3 1.774017 1_555
Co2 N15 1.811744 1_455
Co3 N0 1.767486 1_555
Co3 N13 1.796852 1_465
Co4 N14 1.767486 1_555
Co4 N12 1.796852 1_645
Co5 N3 1.767486 1_555
Co5 N8 1.796852 1_555
Co6 N10 1.774017 1_555
Co6 N6 1.811744 1_655
Co7 N16 1.767486 1_555
Co7 N2 1.796852 1_555
Co8 N1 1.767486 1_555
Co8 N11 1.796852 1_555
Co9 N18 1.767486 1_555
Co9 N5 1.796852 1_465
Co10 N16 1.774017 1_555
Co10 N15 1.811744 1_455
Co11 N12 1.821785 1_545
Co11 N5 1.821785 1_455
Co12 N9 1.774017 1_555
Co12 N4 1.811744 1_555
Co13 N1 1.774017 1_555
Co13 N6 1.811744 1_655
Co14 N18 1.774017 1_555
Co14 N7 1.811744 1_555
Co15 N13 1.821785 1_454
Co15 N17 1.821785 1_545
Co16 N10 1.767486 1_555
Co16 N19 1.796852 1_555
Co17 N9 1.767486 1_555
Co17 N17 1.796852 1_645
Co18 N11 1.821785 1_555
Co18 N2 1.821785 1_555
Co19 N8 1.821785 1_554
Co19 N19 1.821785 1_555
