# generated using pymatgen
data_Sr9(NiO3)7
_symmetry_space_group_name_H-M   'P 1'
_cell_length_a   13.30969650
_cell_length_b   13.28714504
_cell_length_c   13.29171725
_cell_angle_alpha   42.05638702
_cell_angle_beta   42.17439876
_cell_angle_gamma   42.21497624
_symmetry_Int_Tables_number   1
_chemical_formula_structural   Sr9(NiO3)7
_chemical_formula_sum   'Sr18 Ni14 O42'
_cell_volume   957.78105204
_cell_formula_units_Z   2
loop_
 _symmetry_equiv_pos_site_id
 _symmetry_equiv_pos_as_xyz
  1  'x, y, z'
loop_
 _atom_site_type_symbol
 _atom_site_label
 _atom_site_symmetry_multiplicity
 _atom_site_fract_x
 _atom_site_fract_y
 _atom_site_fract_z
 _atom_site_occupancy
  Sr  Sr0  1  0.01308900  0.70850500  0.36216700  1
  Sr  Sr1  1  0.36187500  0.99701900  0.72567900  1
  Sr  Sr2  1  0.08443900  0.42330500  0.74730700  1
  Sr  Sr3  1  0.71857800  0.36873200  0.99780200  1
  Sr  Sr4  1  0.41732300  0.74656600  0.08246600  1
  Sr  Sr5  1  0.14201300  0.77795600  0.49108700  1
  Sr  Sr6  1  0.75547600  0.07733000  0.41973500  1
  Sr  Sr7  1  0.50156500  0.13182000  0.78556200  1
  Sr  Sr8  1  0.22265600  0.50256500  0.86121000  1
  Sr  Sr9  1  0.79263000  0.49906900  0.12908300  1
  Sr  Sr10  1  0.50681400  0.86299700  0.21404400  1
  Sr  Sr11  1  0.24726800  0.91021000  0.58628000  1
  Sr  Sr12  1  0.87197700  0.20844900  0.49834100  1
  Sr  Sr13  1  0.57801600  0.25066500  0.91837300  1
  Sr  Sr14  1  0.29012400  0.63376500  0.99351100  1
  Sr  Sr15  1  0.92756500  0.57628500  0.24911200  1
  Sr  Sr16  1  0.63951200  0.99696500  0.27550200  1
  Sr  Sr17  1  0.00158200  0.28069200  0.63365700  1
  Ni  Ni0  1  0.99904600  0.00331400  0.99782100  1
  Ni  Ni1  1  0.06497300  0.07433000  0.06565800  1
  Ni  Ni2  1  0.13787200  0.14542300  0.13956300  1
  Ni  Ni3  1  0.22209400  0.20777300  0.21763400  1
  Ni  Ni4  1  0.27739200  0.28965200  0.28942700  1
  Ni  Ni5  1  0.42799700  0.29165300  0.35587800  1
  Ni  Ni6  1  0.42800000  0.43698900  0.42925600  1
  Ni  Ni7  1  0.51261900  0.49456600  0.49288200  1
  Ni  Ni8  1  0.56369100  0.56471100  0.57758700  1
  Ni  Ni9  1  0.70398400  0.64522600  0.57584900  1
  Ni  Ni10  1  0.70503400  0.71571000  0.72312200  1
  Ni  Ni11  1  0.78992400  0.78317000  0.77942500  1
  Ni  Ni12  1  0.85462600  0.86220400  0.86084200  1
  Ni  Ni13  1  0.92975700  0.93501200  0.93062700  1
  O  O0  1  0.04013100  0.33223400  0.17629600  1
  O  O1  1  0.18870100  0.01888100  0.34808600  1
  O  O2  1  0.35768100  0.17491500  0.02664400  1
  O  O3  1  0.10005300  0.24326000  0.40506800  1
  O  O4  1  0.25038300  0.39582200  0.10369800  1
  O  O5  1  0.40182100  0.09545800  0.25727700  1
  O  O6  1  0.12583400  0.48496700  0.31909000  1
  O  O7  1  0.32488400  0.16574300  0.46892800  1
  O  O8  1  0.46494000  0.32458500  0.16689400  1
  O  O9  1  0.04709300  0.18370400  0.86783900  1
  O  O10  1  0.17426100  0.87641400  0.04953800  1
  O  O11  1  0.22718800  0.58040500  0.42004700  1
  O  O12  1  0.07842700  0.96822800  0.25581200  1
  O  O13  1  0.40545800  0.24845000  0.54009000  1
  O  O14  1  0.25925600  0.08793600  0.95100400  1
  O  O15  1  0.53471500  0.41119500  0.24557400  1
  O  O16  1  0.86842300  0.05187900  0.18083400  1
  O  O17  1  0.33255700  0.44646200  0.62507500  1
  O  O18  1  0.46637500  0.62435600  0.31214100  1
  O  O19  1  0.63655100  0.31635400  0.44674400  1
  O  O20  1  0.95046500  0.26917200  0.07521700  1
  O  O21  1  0.03381000  0.74426100  0.91791600  1
  O  O22  1  0.38175400  0.67515400  0.53869500  1
  O  O23  1  0.55818100  0.36503600  0.67350900  1
  O  O24  1  0.69030800  0.54361600  0.36740800  1
  O  O25  1  0.13108300  0.95261500  0.81407300  1
  O  O26  1  0.41697800  0.57486700  0.77867200  1
  O  O27  1  0.73455300  0.92250900  0.05250300  1
  O  O28  1  0.58346900  0.75292400  0.47142800  1
  O  O29  1  0.91209300  0.04847900  0.73983300  1
  O  O30  1  0.74773300  0.45837100  0.60222600  1
  O  O31  1  0.82071400  0.13261900  0.94816100  1
  O  O32  1  0.95258600  0.82515800  0.12326600  1
  O  O33  1  0.51149300  0.68167800  0.87721900  1
  O  O34  1  0.67036600  0.83528600  0.53626500  1
  O  O35  1  0.83142100  0.53486700  0.67597500  1
  O  O36  1  0.59937200  0.90340800  0.74904200  1
  O  O37  1  0.75065100  0.59934900  0.90130000  1
  O  O38  1  0.89512000  0.75097000  0.59731700  1
  O  O39  1  0.67003900  0.82112400  0.96294200  1
  O  O40  1  0.82721300  0.96971200  0.64614900  1
  O  O41  1  0.98125500  0.64595000  0.81181600  1
loop_
_geom_bond_atom_site_label_1
_geom_bond_atom_site_label_2
_geom_bond_distance
_geom_bond_site_symmetry_2
Ni0 O32 1.882800 1_546
Ni0 O10 1.893262 1_646
Ni0 O31 1.902328 1_555
Ni0 O9 1.903244 1_655
Ni0 O16 1.938307 1_556
Ni0 O25 1.958301 1_645
Ni1 O20 1.843424 1_455
Ni1 O12 1.847518 1_545
Ni1 O14 1.866578 1_554
Ni1 O10 1.945747 1_545
Ni1 O16 1.953961 1_455
Ni1 O9 1.955246 1_554
Ni2 O12 2.025291 1_545
Ni2 O0 2.041345 1_555
Ni2 O14 2.118544 1_554
Ni2 O20 2.157627 1_455
Ni2 O1 2.267322 1_555
Ni2 O2 2.298203 1_555
Ni3 O1 1.884406 1_555
Ni3 O2 1.892136 1_555
Ni3 O0 1.895424 1_555
Ni3 O4 1.899393 1_555
Ni3 O5 1.907778 1_555
Ni3 O3 1.918142 1_555
Ni4 O6 1.883008 1_555
Ni4 O4 1.899026 1_555
Ni4 O7 1.913971 1_555
Ni4 O8 1.914888 1_555
Ni4 O3 1.919490 1_555
Ni4 O5 1.960056 1_555
Ni5 O15 1.867357 1_555
Ni5 O13 1.869177 1_555
Ni5 O7 1.884563 1_555
Ni5 O8 1.897048 1_555
Ni6 O11 1.839589 1_555
Ni6 O15 1.864712 1_555
Ni6 O13 1.874541 1_555
Ni6 O17 1.937244 1_555
Ni6 O18 1.957602 1_555
Ni6 O19 2.034867 1_555
Ni7 O22 1.889207 1_555
Ni7 O23 1.889424 1_555
Ni7 O19 1.890877 1_555
Ni7 O18 1.895096 1_555
Ni7 O17 1.897147 1_555
Ni7 O24 1.903213 1_555
Ni8 O26 1.839668 1_555
Ni8 O30 1.865229 1_555
Ni8 O28 1.870531 1_555
Ni8 O22 1.936421 1_555
Ni8 O23 1.948442 1_555
Ni8 O24 2.051330 1_555
Ni9 O30 1.869409 1_555
Ni9 O28 1.870145 1_555
Ni9 O34 1.885885 1_555
Ni9 O35 1.887338 1_555
Ni10 O33 1.888120 1_555
Ni10 O34 1.912761 1_555
Ni10 O37 1.916052 1_555
Ni10 O36 1.918032 1_555
Ni10 O35 1.918990 1_555
Ni10 O38 1.933468 1_555
Ni11 O40 1.877969 1_555
Ni11 O41 1.891150 1_555
Ni11 O39 1.901603 1_555
Ni11 O37 1.903575 1_555
Ni11 O38 1.905154 1_555
Ni11 O36 1.925071 1_555
Ni12 O21 2.024647 1_655
Ni12 O39 2.029791 1_555
Ni12 O29 2.089761 1_565
Ni12 O27 2.187647 1_556
Ni12 O40 2.243852 1_555
Ni12 O41 2.345375 1_555
Ni13 O27 1.844825 1_556
Ni13 O29 1.854874 1_565
Ni13 O21 1.860132 1_655
Ni13 O32 1.930103 1_556
Ni13 O31 1.953815 1_565
Ni13 O25 1.967797 1_655
O0 Sr9 2.518125 1_455
O0 Sr12 2.614414 1_455
O0 Sr8 2.748126 1_554
O0 Sr15 3.001932 1_455
O1 Sr5 2.531214 1_545
O1 Sr10 2.588393 1_545
O1 Sr12 2.714178 1_455
O1 Sr11 2.813964 1_545
O2 Sr7 2.503629 1_554
O2 Sr8 2.659056 1_554
O2 Sr10 2.670949 1_545
O2 Sr13 2.765867 1_554
O3 Sr17 2.563739 1_555
O3 Sr12 2.572164 1_455
O3 Sr15 2.744610 1_455
O3 Sr11 2.747205 1_545
O4 Sr8 2.595274 1_554
O4 Sr14 2.621689 1_554
O4 Sr15 2.694180 1_455
O4 Sr13 2.734762 1_554
O5 Sr16 2.512402 1_545
O5 Sr10 2.622074 1_545
O5 Sr11 2.756101 1_545
O5 Sr13 2.784779 1_554
O6 Sr0 2.459968 1_555
O6 Sr15 2.553525 1_455
O6 Sr14 2.662786 1_554
O6 Sr17 2.670503 1_555
O7 Sr1 2.531590 1_545
O7 Sr17 2.628500 1_555
O7 Sr16 2.805086 1_545
O7 Sr11 3.157686 1_545
O8 Sr3 2.553686 1_554
O8 Sr16 2.662708 1_545
O8 Sr14 2.707705 1_554
O8 Sr13 3.066089 1_554
O9 Sr2 2.557122 1_555
O9 Sr1 2.666219 1_545
O9 Sr3 2.708267 1_455
O9 Sr17 2.719954 1_555
O10 Sr4 2.518663 1_555
O10 Sr0 2.637490 1_555
O10 Sr1 2.661726 1_554
O10 Sr14 2.797516 1_554
O11 Sr0 2.393648 1_555
O11 Sr5 2.598641 1_555
O11 Sr2 2.651371 1_555
O11 Sr4 2.854221 1_555
O12 Sr5 2.429081 1_555
O12 Sr6 2.627493 1_465
O12 Sr4 3.053420 1_555
O13 Sr1 2.468679 1_545
O13 Sr6 2.845485 1_555
O13 Sr2 2.931732 1_555
O14 Sr7 2.438517 1_555
O14 Sr4 2.756337 1_546
O14 Sr2 2.943555 1_555
O14 Sr1 3.026559 1_545
O15 Sr3 2.433392 1_554
O15 Sr4 2.712930 1_555
O15 Sr6 3.032506 1_555
O16 Sr6 2.494716 1_555
O16 Sr3 2.676854 1_554
O16 Sr16 2.765047 1_545
O16 Sr0 2.805186 1_645
O17 Sr2 2.539732 1_555
O17 Sr7 2.650964 1_555
O17 Sr5 2.739278 1_555
O17 Sr8 2.756939 1_555
O18 Sr4 2.530812 1_555
O18 Sr9 2.682219 1_555
O18 Sr10 2.718905 1_555
O18 Sr5 2.719892 1_555
O19 Sr6 2.474957 1_555
O19 Sr9 2.699040 1_555
O19 Sr12 2.723025 1_555
O19 Sr7 2.767008 1_555
O20 Sr9 2.402040 1_555
O20 Sr2 2.646717 1_654
O20 Sr3 2.995398 1_554
O20 Sr6 3.008800 1_555
O21 Sr8 2.455389 1_555
O21 Sr15 2.686656 1_456
O21 Sr11 2.940718 1_555
O22 Sr11 2.516540 1_555
O22 Sr10 2.671130 1_555
O22 Sr8 2.694359 1_555
O22 Sr5 2.775078 1_555
O23 Sr13 2.511280 1_555
O23 Sr12 2.664929 1_555
O23 Sr7 2.707451 1_555
O23 Sr8 2.770325 1_555
O24 Sr15 2.507976 1_555
O24 Sr10 2.703697 1_555
O24 Sr9 2.726829 1_555
O24 Sr12 2.736017 1_555
O25 Sr11 2.485753 1_555
O25 Sr17 2.682860 1_565
O25 Sr14 2.704140 1_555
O25 Sr1 2.733150 1_555
O26 Sr14 2.415064 1_555
O26 Sr8 2.593358 1_555
O26 Sr13 2.634950 1_555
O26 Sr11 2.868492 1_555
O27 Sr10 2.409511 1_555
O27 Sr13 2.652693 1_564
O27 Sr16 2.882314 1_555
O27 Sr15 3.030604 1_555
O28 Sr16 2.452873 1_555
O28 Sr11 2.735260 1_555
O28 Sr15 3.087540 1_555
O29 Sr12 2.415335 1_555
O29 Sr11 2.715621 1_645
O29 Sr13 2.958493 1_555
O29 Sr17 3.068602 1_655
O30 Sr17 2.444530 1_655
O30 Sr15 2.862940 1_555
O30 Sr13 2.884558 1_555
O31 Sr13 2.553410 1_555
O31 Sr17 2.650935 1_655
O31 Sr16 2.689992 1_546
O31 Sr3 2.748262 1_555
O32 Sr15 2.536838 1_555
O32 Sr16 2.634517 1_555
O32 Sr14 2.780301 1_654
O32 Sr0 2.786863 1_655
O33 Sr14 2.458123 1_555
O33 Sr4 2.565288 1_556
O33 Sr1 2.575267 1_555
O33 Sr3 2.670319 1_555
O34 Sr16 2.557888 1_555
O34 Sr1 2.730849 1_555
O34 Sr0 2.785848 1_655
O34 Sr6 3.069861 1_565
O35 Sr17 2.540560 1_655
O35 Sr3 2.606329 1_555
O35 Sr0 2.755265 1_655
O35 Sr2 3.112577 1_655
O36 Sr7 2.557341 1_565
O36 Sr1 2.587079 1_555
O36 Sr6 2.725412 1_565
O36 Sr4 2.775447 1_556
O37 Sr3 2.550781 1_555
O37 Sr9 2.582271 1_556
O37 Sr4 2.759107 1_556
O37 Sr2 2.763415 1_655
O38 Sr0 2.566182 1_655
O38 Sr5 2.652692 1_655
O38 Sr6 2.682292 1_565
O38 Sr2 2.754179 1_655
O39 Sr10 2.527549 1_556
O39 Sr9 2.610758 1_556
O39 Sr7 2.701843 1_565
O39 Sr4 3.081758 1_556
O40 Sr12 2.467241 1_565
O40 Sr7 2.655752 1_565
O40 Sr5 2.734994 1_655
O40 Sr6 2.803458 1_565
O41 Sr8 2.566304 1_655
O41 Sr5 2.600705 1_655
O41 Sr9 2.690542 1_556
O41 Sr2 2.715917 1_655
