# generated using pymatgen
data_AlPO4
_symmetry_space_group_name_H-M   'P 1'
_cell_length_a   9.80533000
_cell_length_b   14.13297200
_cell_length_c   18.27797500
_cell_angle_alpha   90.00000000
_cell_angle_beta   90.00000000
_cell_angle_gamma   90.00000000
_symmetry_Int_Tables_number   1
_chemical_formula_structural   AlPO4
_chemical_formula_sum   'Al24 P24 O96'
_cell_volume   2532.93352398
_cell_formula_units_Z   24
loop_
 _symmetry_equiv_pos_site_id
 _symmetry_equiv_pos_as_xyz
  1  'x, y, z'
loop_
 _atom_site_type_symbol
 _atom_site_label
 _atom_site_symmetry_multiplicity
 _atom_site_fract_x
 _atom_site_fract_y
 _atom_site_fract_z
 _atom_site_occupancy
  Al  Al0  1  0.83923100  0.75668800  0.20057200  1
  Al  Al1  1  0.33923100  0.24331200  0.29942800  1
  Al  Al2  1  0.66076900  0.25668800  0.79942800  1
  Al  Al3  1  0.16076900  0.74331200  0.70057200  1
  Al  Al4  1  0.16076900  0.24331200  0.79942800  1
  Al  Al5  1  0.66076900  0.75668800  0.70057200  1
  Al  Al6  1  0.33923100  0.74331200  0.20057200  1
  Al  Al7  1  0.83923100  0.25668800  0.29942800  1
  Al  Al8  1  0.15454300  0.96340700  0.32125900  1
  Al  Al9  1  0.65454300  0.03659300  0.17874100  1
  Al  Al10  1  0.34545700  0.46340700  0.67874100  1
  Al  Al11  1  0.84545700  0.53659300  0.82125900  1
  Al  Al12  1  0.84545700  0.03659300  0.67874100  1
  Al  Al13  1  0.34545700  0.96340700  0.82125900  1
  Al  Al14  1  0.65454300  0.53659300  0.32125900  1
  Al  Al15  1  0.15454300  0.46340700  0.17874100  1
  Al  Al16  1  0.62815000  0.92969200  0.41403100  1
  Al  Al17  1  0.12815000  0.07030800  0.08596900  1
  Al  Al18  1  0.87185000  0.42969200  0.58596900  1
  Al  Al19  1  0.37185000  0.57030800  0.91403100  1
  Al  Al20  1  0.37185000  0.07030800  0.58596900  1
  Al  Al21  1  0.87185000  0.92969200  0.91403100  1
  Al  Al22  1  0.12815000  0.57030800  0.41403100  1
  Al  Al23  1  0.62815000  0.42969200  0.08596900  1
  P  P0  1  0.59314100  0.75259200  0.30295400  1
  P  P1  1  0.09314100  0.24740800  0.19704600  1
  P  P2  1  0.90685900  0.25259200  0.69704600  1
  P  P3  1  0.40685900  0.74740800  0.80295400  1
  P  P4  1  0.40685900  0.24740800  0.69704600  1
  P  P5  1  0.90685900  0.75259200  0.80295400  1
  P  P6  1  0.09314100  0.74740800  0.30295400  1
  P  P7  1  0.59314100  0.25259200  0.19704600  1
  P  P8  1  0.34168200  0.96291700  0.17611800  1
  P  P9  1  0.84168200  0.03708300  0.32388200  1
  P  P10  1  0.15831800  0.46291700  0.82388200  1
  P  P11  1  0.65831800  0.53708300  0.67611800  1
  P  P12  1  0.65831800  0.03708300  0.82388200  1
  P  P13  1  0.15831800  0.96291700  0.67611800  1
  P  P14  1  0.84168200  0.53708300  0.17611800  1
  P  P15  1  0.34168200  0.46291700  0.32388200  1
  P  P16  1  0.86966300  0.92816000  0.08694300  1
  P  P17  1  0.36966300  0.07184000  0.41305700  1
  P  P18  1  0.63033700  0.42816000  0.91305700  1
  P  P19  1  0.13033700  0.57184000  0.58694300  1
  P  P20  1  0.13033700  0.07184000  0.91305700  1
  P  P21  1  0.63033700  0.92816000  0.58694300  1
  P  P22  1  0.36966300  0.57184000  0.08694300  1
  P  P23  1  0.86966300  0.42816000  0.41305700  1
  O  O0  1  0.67657500  0.78335800  0.23520900  1
  O  O1  1  0.17657500  0.21664200  0.26479100  1
  O  O2  1  0.82342500  0.28335800  0.76479100  1
  O  O3  1  0.32342500  0.71664200  0.73520900  1
  O  O4  1  0.32342500  0.21664200  0.76479100  1
  O  O5  1  0.82342500  0.78335800  0.73520900  1
  O  O6  1  0.17657500  0.71664200  0.23520900  1
  O  O7  1  0.67657500  0.28335800  0.26479100  1
  O  O8  1  0.59963700  0.82780400  0.36275100  1
  O  O9  1  0.09963700  0.17219600  0.13724900  1
  O  O10  1  0.90036300  0.32780400  0.63724900  1
  O  O11  1  0.40036300  0.67219600  0.86275100  1
  O  O12  1  0.40036300  0.17219600  0.63724900  1
  O  O13  1  0.90036300  0.82780400  0.86275100  1
  O  O14  1  0.09963700  0.67219600  0.36275100  1
  O  O15  1  0.59963700  0.32780400  0.13724900  1
  O  O16  1  0.44447100  0.73916200  0.27820000  1
  O  O17  1  0.94447100  0.26083800  0.22180000  1
  O  O18  1  0.05552900  0.23916200  0.72180000  1
  O  O19  1  0.55552900  0.76083800  0.77820000  1
  O  O20  1  0.55552900  0.26083800  0.72180000  1
  O  O21  1  0.05552900  0.73916200  0.77820000  1
  O  O22  1  0.94447100  0.76083800  0.27820000  1
  O  O23  1  0.44447100  0.23916200  0.22180000  1
  O  O24  1  0.64880900  0.65941300  0.33484800  1
  O  O25  1  0.14880900  0.34058700  0.16515200  1
  O  O26  1  0.85119100  0.15941300  0.66515200  1
  O  O27  1  0.35119100  0.84058700  0.83484800  1
  O  O28  1  0.35119100  0.34058700  0.66515200  1
  O  O29  1  0.85119100  0.65941300  0.83484800  1
  O  O30  1  0.14880900  0.84058700  0.33484800  1
  O  O31  1  0.64880900  0.15941300  0.16515200  1
  O  O32  1  0.48890100  0.99427000  0.19053000  1
  O  O33  1  0.98890100  0.00573000  0.30947000  1
  O  O34  1  0.01109900  0.49427000  0.80947000  1
  O  O35  1  0.25363800  0.98658400  0.24345200  1
  O  O36  1  0.51109900  0.50573000  0.69053000  1
  O  O37  1  0.01109900  0.99427000  0.69053000  1
  O  O38  1  0.98890100  0.50573000  0.19053000  1
  O  O39  1  0.48890100  0.49427000  0.30947000  1
  O  O40  1  0.33937500  0.85594900  0.16041500  1
  O  O41  1  0.83937500  0.14405100  0.33958500  1
  O  O42  1  0.16062500  0.35594900  0.83958500  1
  O  O43  1  0.66062500  0.64405100  0.66041500  1
  O  O44  1  0.66062500  0.14405100  0.83958500  1
  O  O45  1  0.16062500  0.85594900  0.66041500  1
  O  O46  1  0.83937500  0.64405100  0.16041500  1
  O  O47  1  0.33937500  0.35594900  0.33958500  1
  O  O48  1  0.88397100  0.33879300  0.36599600  1
  O  O49  1  0.38397100  0.66120700  0.13400400  1
  O  O50  1  0.61602900  0.83879300  0.63400400  1
  O  O51  1  0.11602900  0.16120700  0.86599600  1
  O  O52  1  0.11602900  0.66120700  0.63400400  1
  O  O53  1  0.61602900  0.33879300  0.86599600  1
  O  O54  1  0.38397100  0.16120700  0.36599600  1
  O  O55  1  0.88397100  0.83879300  0.13400400  1
  O  O56  1  0.86594700  0.39825300  0.49366500  1
  O  O57  1  0.36594700  0.60174700  0.00633500  1
  O  O58  1  0.63405300  0.89825300  0.50633500  1
  O  O59  1  0.13405300  0.10174700  0.99366500  1
  O  O60  1  0.13405300  0.60174700  0.50633500  1
  O  O61  1  0.63405300  0.39825300  0.99366500  1
  O  O62  1  0.36594700  0.10174700  0.49366500  1
  O  O63  1  0.86594700  0.89825300  0.00633500  1
  O  O64  1  0.73634100  0.48113200  0.39494000  1
  O  O65  1  0.23634100  0.51886800  0.10506000  1
  O  O66  1  0.76365900  0.98113200  0.60506000  1
  O  O67  1  0.26365900  0.01886800  0.89494000  1
  O  O68  1  0.26365900  0.51886800  0.60506000  1
  O  O69  1  0.76365900  0.48113200  0.89494000  1
  O  O70  1  0.23634100  0.01886800  0.39494000  1
  O  O71  1  0.73634100  0.98113200  0.10506000  1
  O  O72  1  0.99319100  0.49203100  0.39787600  1
  O  O73  1  0.49319100  0.50796900  0.10212400  1
  O  O74  1  0.50680900  0.99203100  0.60212400  1
  O  O75  1  0.00680900  0.00796900  0.89787600  1
  O  O76  1  0.00680900  0.50796900  0.60212400  1
  O  O77  1  0.50680900  0.49203100  0.89787600  1
  O  O78  1  0.49319100  0.00796900  0.39787600  1
  O  O79  1  0.99319100  0.99203100  0.10212400  1
  O  O80  1  0.28383400  0.51625100  0.39043600  1
  O  O81  1  0.78383400  0.48374900  0.10956400  1
  O  O82  1  0.21616600  0.01625100  0.60956400  1
  O  O83  1  0.71616600  0.98374900  0.89043600  1
  O  O84  1  0.71616600  0.48374900  0.60956400  1
  O  O85  1  0.21616600  0.51625100  0.89043600  1
  O  O86  1  0.78383400  0.98374900  0.39043600  1
  O  O87  1  0.28383400  0.01625100  0.10956400  1
  O  O88  1  0.25363800  0.48658400  0.25654800  1
  O  O89  1  0.75363800  0.51341600  0.24345200  1
  O  O90  1  0.24636200  0.98658400  0.74345200  1
  O  O91  1  0.74636200  0.01341600  0.75654800  1
  O  O92  1  0.74636200  0.51341600  0.74345200  1
  O  O93  1  0.24636200  0.48658400  0.75654800  1
  O  O94  1  0.75363800  0.01341600  0.25654800  1
  O  O95  1  0.51109900  0.00573000  0.80947000  1
loop_
_geom_bond_atom_site_label_1
_geom_bond_atom_site_label_2
_geom_bond_distance
_geom_bond_site_symmetry_2
Al0 O55 1.737635 1_555
Al0 O46 1.752961 1_555
Al0 O22 1.755424 1_555
Al0 O0 1.756865 1_555
Al1 O54 1.737635 1_555
Al1 O47 1.752961 1_555
Al1 O23 1.755424 1_555
Al1 O1 1.756865 1_555
Al2 O53 1.737635 1_555
Al2 O44 1.752961 1_555
Al2 O20 1.755424 1_555
Al2 O2 1.756865 1_555
Al3 O52 1.737635 1_555
Al3 O45 1.752961 1_555
Al3 O21 1.755424 1_555
Al3 O3 1.756865 1_555
Al4 O51 1.737635 1_555
Al4 O42 1.752961 1_555
Al4 O18 1.755424 1_555
Al4 O4 1.756865 1_555
Al5 O50 1.737635 1_555
Al5 O43 1.752961 1_555
Al5 O19 1.755424 1_555
Al5 O5 1.756865 1_555
Al6 O49 1.737635 1_555
Al6 O40 1.752961 1_555
Al6 O16 1.755424 1_555
Al6 O6 1.756865 1_555
Al7 O48 1.737635 1_555
Al7 O41 1.752961 1_555
Al7 O17 1.755424 1_555
Al7 O7 1.756865 1_555
Al8 O33 1.744178 1_465
Al8 O70 1.752538 1_565
Al8 O35 1.753266 1_555
Al8 O30 1.754393 1_555
Al9 O32 1.744178 1_545
Al9 O71 1.752538 1_545
Al9 O94 1.753266 1_555
Al9 O31 1.754393 1_555
Al10 O36 1.744178 1_555
Al10 O68 1.752538 1_555
Al10 O93 1.753266 1_555
Al10 O28 1.754393 1_555
Al11 O34 1.744178 1_655
Al11 O69 1.752538 1_555
Al11 O92 1.753266 1_555
Al11 O29 1.754393 1_555
Al12 O37 1.744178 1_645
Al12 O66 1.752538 1_545
Al12 O91 1.753266 1_555
Al12 O26 1.754393 1_555
Al13 O95 1.744178 1_565
Al13 O67 1.752538 1_565
Al13 O90 1.753266 1_555
Al13 O27 1.754393 1_555
Al14 O39 1.744178 1_555
Al14 O64 1.752538 1_555
Al14 O89 1.753266 1_555
Al14 O24 1.754393 1_555
Al15 O38 1.744178 1_455
Al15 O65 1.752538 1_555
Al15 O88 1.753266 1_555
Al15 O25 1.754393 1_555
Al16 O8 1.740755 1_555
Al16 O58 1.745619 1_555
Al16 O78 1.749923 1_565
Al16 O86 1.760673 1_555
Al17 O9 1.740755 1_555
Al17 O59 1.745619 1_554
Al17 O79 1.749923 1_445
Al17 O87 1.760673 1_555
Al18 O10 1.740755 1_555
Al18 O56 1.745619 1_555
Al18 O76 1.749923 1_655
Al18 O84 1.760673 1_555
Al19 O11 1.740755 1_555
Al19 O57 1.745619 1_556
Al19 O77 1.749923 1_555
Al19 O85 1.760673 1_555
Al20 O12 1.740755 1_555
Al20 O62 1.745619 1_555
Al20 O74 1.749923 1_545
Al20 O82 1.760673 1_555
Al21 O13 1.740755 1_555
Al21 O63 1.745619 1_556
Al21 O75 1.749923 1_665
Al21 O83 1.760673 1_555
Al22 O14 1.740755 1_555
Al22 O60 1.745619 1_555
Al22 O72 1.749923 1_455
Al22 O80 1.760673 1_555
Al23 O15 1.740755 1_555
Al23 O61 1.745619 1_554
Al23 O73 1.749923 1_555
Al23 O81 1.760673 1_555
O0 P0 1.546477 1_555
O1 P1 1.546477 1_555
O2 P2 1.546477 1_555
O3 P3 1.546477 1_555
O4 P4 1.546477 1_555
O5 P5 1.546477 1_555
O6 P6 1.546477 1_555
O7 P7 1.546477 1_555
O8 P0 1.525955 1_555
O9 P1 1.525955 1_555
O10 P2 1.525955 1_555
O11 P3 1.525955 1_555
O12 P4 1.525955 1_555
O13 P5 1.525955 1_555
O14 P6 1.525955 1_555
O15 P7 1.525955 1_555
O16 P0 1.538116 1_555
O17 P1 1.538116 1_655
O18 P2 1.538116 1_455
O19 P3 1.538116 1_555
O20 P4 1.538116 1_555
O21 P5 1.538116 1_455
O22 P6 1.538116 1_655
O23 P7 1.538116 1_555
O24 P0 1.540130 1_555
O25 P1 1.540130 1_555
O26 P2 1.540130 1_555
O27 P3 1.540130 1_555
O28 P4 1.540130 1_555
O29 P5 1.540130 1_555
O30 P6 1.540130 1_555
O31 P7 1.540130 1_555
O32 P8 1.532814 1_555
O33 P9 1.532814 1_555
O34 P10 1.532814 1_555
O35 P8 1.540085 1_555
O36 P11 1.532814 1_555
O37 P13 1.532814 1_555
O38 P14 1.532814 1_555
O39 P15 1.532814 1_555
O40 P8 1.538947 1_555
O41 P9 1.538947 1_555
O42 P10 1.538947 1_555
O43 P11 1.538947 1_555
O44 P12 1.538947 1_555
O45 P13 1.538947 1_555
O46 P14 1.538947 1_555
O47 P15 1.538947 1_555
O48 P23 1.534541 1_555
O49 P22 1.534541 1_555
O50 P21 1.534541 1_555
O51 P20 1.534541 1_555
O52 P19 1.534541 1_555
O53 P18 1.534541 1_555
O54 P17 1.534541 1_555
O55 P16 1.534541 1_555
O56 P23 1.533214 1_555
O57 P22 1.533214 1_555
O58 P21 1.533214 1_555
O59 P20 1.533214 1_555
O60 P19 1.533214 1_555
O61 P18 1.533214 1_555
O62 P17 1.533214 1_555
O63 P16 1.533214 1_555
O64 P23 1.542427 1_555
O65 P22 1.542427 1_555
O66 P21 1.542427 1_555
O67 P20 1.542427 1_555
O68 P19 1.542427 1_555
O69 P18 1.542427 1_555
O70 P17 1.542427 1_555
O71 P16 1.542427 1_555
O72 P23 1.535879 1_555
O73 P22 1.535879 1_555
O74 P21 1.535879 1_555
O75 P20 1.535879 1_555
O76 P19 1.535879 1_555
O77 P18 1.535879 1_555
O78 P17 1.535879 1_555
O79 P16 1.535879 1_555
O80 P15 1.539386 1_555
O81 P14 1.539386 1_555
O82 P13 1.539386 1_545
O83 P12 1.539386 1_565
O84 P11 1.539386 1_555
O85 P10 1.539386 1_555
O86 P9 1.539386 1_565
O87 P8 1.539386 1_545
O88 P15 1.540085 1_555
O89 P14 1.540085 1_555
O90 P13 1.540085 1_555
O91 P12 1.540085 1_555
O92 P11 1.540085 1_555
O93 P10 1.540085 1_555
O94 P9 1.540085 1_555
O95 P12 1.532814 1_555
