# generated using pymatgen
data_Gd2Fe17
_symmetry_space_group_name_H-M   'P 1'
_cell_length_a   6.43641780
_cell_length_b   6.43619238
_cell_length_c   6.43606568
_cell_angle_alpha   83.52890138
_cell_angle_beta   83.53017632
_cell_angle_gamma   83.53084636
_symmetry_Int_Tables_number   1
_chemical_formula_structural   Gd2Fe17
_chemical_formula_sum   'Gd2 Fe17'
_cell_volume   261.88183258
_cell_formula_units_Z   1
loop_
 _symmetry_equiv_pos_site_id
 _symmetry_equiv_pos_as_xyz
  1  'x, y, z'
loop_
 _atom_site_type_symbol
 _atom_site_label
 _atom_site_symmetry_multiplicity
 _atom_site_fract_x
 _atom_site_fract_y
 _atom_site_fract_z
 _atom_site_occupancy
  Gd  Gd0  1  0.34046505  0.34050265  0.34052318  1
  Gd  Gd1  1  0.65953495  0.65949735  0.65947682  1
  Fe  Fe0  1  0.65588261  0.65590598  0.15350862  1
  Fe  Fe1  1  0.70771589  0.29226648  0.00000197  1
  Fe  Fe2  1  0.29228411  0.70773352  -0.00000197  1
  Fe  Fe3  1  0.84650104  0.34411334  0.34409554  1
  Fe  Fe4  1  0.09666217  0.09666577  0.09666776  1
  Fe  Fe5  1  0.34411739  0.34409402  0.84649138  1
  Fe  Fe6  1  0.15349896  0.65588666  0.65590446  1
  Fe  Fe7  1  -0.00000000  -0.00000000  0.50000000  1
  Fe  Fe8  1  0.65587783  0.15350687  0.65591300  1
  Fe  Fe9  1  0.00000028  0.70772178  0.29226727  1
  Fe  Fe10  1  0.00000072  0.29227822  0.70773273  1
  Fe  Fe11  1  0.90333783  0.90333423  0.90333224  1
  Fe  Fe12  1  0.34412217  0.84649313  0.34408700  1
  Fe  Fe13  1  0.50000000  -0.00000000  0.00000000  1
  Fe  Fe14  1  0.70771042  0.00000169  0.29226074  1
  Fe  Fe15  1  -0.00000000  0.50000000  0.00000000  1
  Fe  Fe16  1  0.29228958  -0.00000169  0.70773926  1
loop_
_geom_bond_atom_site_label_1
_geom_bond_atom_site_label_2
_geom_bond_distance
_geom_bond_site_symmetry_2
Fe0 Fe13 2.473253 1_565
Fe0 Fe15 2.473505 1_655
Fe0 Fe12 2.503101 1_555
Fe0 Fe3 2.503296 1_555
Fe0 Fe14 2.548118 1_565
Fe0 Fe9 2.548301 1_655
Fe0 Fe2 2.614417 1_555
Fe0 Fe1 2.614595 1_555
Fe0 Fe11 2.661022 1_554
Fe0 Gd0 3.085191 1_555
Fe0 Gd1 3.174553 1_554
Fe0 Gd1 3.261880 1_555
Fe1 Fe13 2.427470 1_555
Fe1 Fe15 2.427659 1_655
Fe1 Fe14 2.505801 1_555
Fe1 Fe10 2.506007 1_654
Fe1 Fe8 2.548088 1_554
Fe1 Fe3 2.548207 1_555
Fe1 Fe5 2.614417 1_554
Fe1 Fe11 2.775420 1_544
Fe1 Fe4 2.775491 1_655
Fe1 Gd1 3.050624 1_554
Fe1 Gd0 3.050828 1_555
Fe2 Fe9 2.506002 1_555
Fe2 Fe6 2.548207 1_554
Fe2 Fe5 2.614595 1_554
Fe2 Fe4 2.775420 1_565
Fe2 Gd0 3.050624 1_555
Fe2 Gd1 3.050828 1_554
Fe3 Fe7 2.473380 1_655
Fe3 Fe8 2.503443 1_555
Fe3 Fe9 2.614374 1_655
Fe3 Fe4 2.660998 1_655
Fe3 Gd1 3.084881 1_555
Fe3 Gd0 3.174333 1_655
Fe3 Gd0 3.262446 1_555
Fe4 Fe7 2.621438 1_555
Fe4 Fe5 2.661022 1_554
Fe4 Fe9 2.775355 1_545
Fe4 Gd0 3.008951 1_555
Fe5 Fe8 2.503101 1_555
Fe5 Fe6 2.503296 1_555
Fe5 Gd1 3.085191 1_555
Fe5 Gd0 3.174553 1_556
Fe5 Gd0 3.261880 1_555
Fe6 Fe7 2.473380 1_565
Fe6 Fe9 2.614512 1_555
Fe6 Gd0 3.084881 1_555
Fe6 Gd1 3.174333 1_455
Fe6 Gd1 3.262446 1_555
Fe7 Fe9 2.427588 1_545
Fe7 Fe8 2.473542 1_455
Fe7 Gd1 3.275171 1_445
Fe7 Gd0 3.275171 1_555
Fe8 Gd0 3.085084 1_555
Fe8 Gd1 3.174488 1_545
Fe8 Gd1 3.262069 1_555
Fe9 Gd1 3.050381 1_455
Fe9 Gd0 3.050494 1_555
Fe10 Fe15 2.427470 1_556
Fe10 Fe7 2.427589 1_555
Fe10 Fe16 2.506111 1_555
Fe10 Fe5 2.548295 1_555
Fe10 Fe8 2.548377 1_455
Fe10 Fe6 2.614371 1_555
Fe10 Fe3 2.614515 1_455
Fe10 Fe4 2.775305 1_556
Fe10 Fe11 2.775356 1_445
Fe10 Gd0 3.050377 1_555
Fe10 Gd1 3.050498 1_455
Fe11 Fe4 2.385752 1_666
Fe11 Fe7 2.621438 1_665
Fe11 Fe15 2.621507 1_656
Fe11 Fe13 2.621631 1_566
Fe11 Fe6 2.660998 1_655
Fe11 Fe8 2.661013 1_565
Fe11 Fe9 2.775307 1_656
Fe11 Fe14 2.775356 1_566
Fe11 Fe16 2.775478 1_665
Fe11 Fe2 2.775491 1_656
Fe11 Gd1 3.008951 1_555
Fe12 Fe13 2.473159 1_565
Fe12 Fe7 2.473542 1_565
Fe12 Fe6 2.503443 1_555
Fe12 Fe2 2.548088 1_555
Fe12 Fe9 2.548371 1_555
Fe12 Fe14 2.614346 1_565
Fe12 Fe16 2.614631 1_565
Fe12 Fe4 2.661013 1_565
Fe12 Gd1 3.085084 1_555
Fe12 Gd0 3.174488 1_565
Fe12 Gd0 3.262069 1_555
Fe13 Fe14 2.427397 1_555
Fe13 Fe16 2.427397 1_554
Fe13 Fe2 2.427470 1_545
Fe13 Fe8 2.473159 1_554
Fe13 Fe5 2.473253 1_554
Fe13 Fe4 2.621631 1_555
Fe13 Gd0 3.275494 1_555
Fe13 Gd1 3.275494 1_544
Fe14 Fe7 2.427707 1_655
Fe14 Fe9 2.506115 1_645
Fe14 Fe3 2.548341 1_555
Fe14 Fe8 2.614631 1_555
Fe14 Fe4 2.775478 1_655
Fe14 Gd1 3.050461 1_545
Fe14 Gd0 3.050780 1_555
Fe15 Fe9 2.427471 1_555
Fe15 Fe2 2.427659 1_555
Fe15 Fe6 2.473205 1_554
Fe15 Fe3 2.473205 1_455
Fe15 Fe5 2.473505 1_554
Fe15 Fe4 2.621507 1_555
Fe15 Gd0 3.275284 1_555
Fe15 Gd1 3.275284 1_454
Fe16 Fe7 2.427707 1_555
Fe16 Fe2 2.505801 1_546
Fe16 Fe5 2.548118 1_555
Fe16 Fe6 2.548341 1_545
Fe16 Fe8 2.614346 1_555
Fe16 Fe4 2.775356 1_556
Fe16 Gd0 3.050461 1_555
Fe16 Gd1 3.050780 1_545
