# generated using pymatgen
data_AgTeO3
_symmetry_space_group_name_H-M   'P 1'
_cell_length_a   5.46174568
_cell_length_b   6.91813729
_cell_length_c   7.39980156
_cell_angle_alpha   90.00000081
_cell_angle_beta   89.99999287
_cell_angle_gamma   101.30216516
_symmetry_Int_Tables_number   1
_chemical_formula_structural   AgTeO3
_chemical_formula_sum   'Ag4 Te4 O12'
_cell_volume   274.18003351
_cell_formula_units_Z   4
loop_
 _symmetry_equiv_pos_site_id
 _symmetry_equiv_pos_as_xyz
  1  'x, y, z'
loop_
 _atom_site_type_symbol
 _atom_site_label
 _atom_site_symmetry_multiplicity
 _atom_site_fract_x
 _atom_site_fract_y
 _atom_site_fract_z
 _atom_site_occupancy
  Ag  Ag0  1  0.00000330  -0.00000045  0.49999616  1
  Ag  Ag1  1  0.00000306  -0.00000035  0.00000374  1
  Ag  Ag2  1  0.56888113  0.82073887  0.75000039  1
  Ag  Ag3  1  0.43112475  0.17926026  0.24999991  1
  Te  Te0  1  0.51859755  0.68250154  0.25000001  1
  Te  Te1  1  0.48141223  0.31749900  0.75000002  1
  Te  Te2  1  0.00000125  0.50000096  0.00000090  1
  Te  Te3  1  0.00000128  0.50000095  0.49999909  1
  O  O0  1  0.22949888  0.32499019  0.48745645  1
  O  O1  1  0.73876186  0.27621876  0.93578014  1
  O  O2  1  0.66188279  0.94744618  0.24999985  1
  O  O3  1  0.89857719  0.43780272  0.24999999  1
  O  O4  1  0.22949880  0.32499014  0.01254340  1
  O  O5  1  0.10141165  0.56220323  0.75000000  1
  O  O6  1  0.73876191  0.27621876  0.56421986  1
  O  O7  1  0.26123205  0.72378304  0.06422267  1
  O  O8  1  0.77049058  0.67500585  0.98746528  1
  O  O9  1  0.77049052  0.67500574  0.51253480  1
  O  O10  1  0.26123190  0.72378319  0.43577723  1
  O  O11  1  0.33813733  0.05255142  0.75000011  1
loop_
_geom_bond_atom_site_label_1
_geom_bond_atom_site_label_2
_geom_bond_distance
_geom_bond_site_symmetry_2
Ag0 O0 2.351617 1_555
Ag0 O9 2.351668 1_445
Ag0 O2 2.588751 1_445
Ag0 O11 2.588842 1_555
Ag0 O10 2.642288 1_545
Ag0 O6 2.642359 1_455
Ag1 O4 2.351616 1_555
Ag1 O8 2.351667 1_444
Ag1 O2 2.588749 1_445
Ag1 O11 2.588841 1_554
Ag1 O7 2.642291 1_545
Ag1 O1 2.642357 1_454
Ag2 O11 2.225389 1_565
Ag2 O8 2.398303 1_555
Ag2 O9 2.398306 1_555
Ag3 O2 2.225453 1_545
Ag3 O0 2.398295 1_555
Ag3 O4 2.398295 1_555
O0 Te3 1.908020 1_555
O0 Te1 2.387060 1_555
O1 Te2 1.947463 1_656
O1 Te1 2.025943 1_555
O2 Te0 1.846566 1_555
O3 Te2 1.954707 1_655
O3 Te3 1.954707 1_655
O4 Te2 1.908020 1_555
O4 Te1 2.387059 1_554
O5 Te2 1.954706 1_556
O5 Te3 1.954706 1_555
O6 Te3 1.947463 1_655
O6 Te1 2.025943 1_555
O7 Te2 1.947438 1_555
O7 Te0 2.025994 1_555
O8 Te2 1.908042 1_656
O8 Te0 2.386946 1_556
O9 Te3 1.908042 1_655
O9 Te0 2.386947 1_555
O10 Te3 1.947438 1_555
O10 Te0 2.025994 1_555
O11 Te1 1.846572 1_555
