# generated using pymatgen
data_Hg9(AsO4)4
_symmetry_space_group_name_H-M   'P 1'
_cell_length_a   10.57428600
_cell_length_b   10.57428600
_cell_length_c   10.57428529
_cell_angle_alpha   108.37494123
_cell_angle_beta   108.37494123
_cell_angle_gamma   108.37494239
_symmetry_Int_Tables_number   1
_chemical_formula_structural   Hg9(AsO4)4
_chemical_formula_sum   'Hg18 As8 O32'
_cell_volume   945.32723264
_cell_formula_units_Z   2
loop_
 _symmetry_equiv_pos_site_id
 _symmetry_equiv_pos_as_xyz
  1  'x, y, z'
loop_
 _atom_site_type_symbol
 _atom_site_label
 _atom_site_symmetry_multiplicity
 _atom_site_fract_x
 _atom_site_fract_y
 _atom_site_fract_z
 _atom_site_occupancy
  Hg  Hg0  1  0.45196400  0.40255600  0.18136900  1
  Hg  Hg1  1  0.40255600  0.18136900  0.45196400  1
  Hg  Hg2  1  0.18136900  0.45196400  0.40255600  1
  Hg  Hg3  1  0.90255600  0.95196400  0.68136900  1
  Hg  Hg4  1  0.95196400  0.68136900  0.90255600  1
  Hg  Hg5  1  0.68136900  0.90255600  0.95196400  1
  Hg  Hg6  1  0.27384100  0.19684200  0.64103400  1
  Hg  Hg7  1  0.19684200  0.64103400  0.27384100  1
  Hg  Hg8  1  0.64103400  0.27384100  0.19684200  1
  Hg  Hg9  1  0.69684200  0.77384100  0.14103400  1
  Hg  Hg10  1  0.77384100  0.14103400  0.69684200  1
  Hg  Hg11  1  0.14103400  0.69684200  0.77384100  1
  Hg  Hg12  1  0.96617100  0.35145800  0.10851300  1
  Hg  Hg13  1  0.35145800  0.10851300  0.96617100  1
  Hg  Hg14  1  0.10851300  0.96617100  0.35145800  1
  Hg  Hg15  1  0.85145800  0.46617100  0.60851300  1
  Hg  Hg16  1  0.46617100  0.60851300  0.85145800  1
  Hg  Hg17  1  0.60851300  0.85145800  0.46617100  1
  As  As0  1  0.16487400  0.38276900  0.88485500  1
  As  As1  1  0.38276900  0.88485500  0.16487400  1
  As  As2  1  0.88485500  0.16487400  0.38276900  1
  As  As3  1  0.88276900  0.66487400  0.38485500  1
  As  As4  1  0.66487400  0.38485500  0.88276900  1
  As  As5  1  0.38485500  0.88276900  0.66487400  1
  As  As6  1  0.06255700  0.06255700  0.06255700  1
  As  As7  1  0.56255700  0.56255700  0.56255700  1
  O  O0  1  0.90921200  0.09619600  0.99407800  1
  O  O1  1  0.09619600  0.99407800  0.90921200  1
  O  O2  1  0.99407800  0.90921200  0.09619600  1
  O  O3  1  0.59619600  0.40921200  0.49407800  1
  O  O4  1  0.40921200  0.49407800  0.59619600  1
  O  O5  1  0.49407800  0.59619600  0.40921200  1
  O  O6  1  0.15104300  0.20905200  0.78243100  1
  O  O7  1  0.20905200  0.78243100  0.15104300  1
  O  O8  1  0.78243100  0.15104300  0.20905200  1
  O  O9  1  0.70905200  0.65104300  0.28243100  1
  O  O10  1  0.65104300  0.28243100  0.70905200  1
  O  O11  1  0.28243100  0.70905200  0.65104300  1
  O  O12  1  0.28094400  0.46340900  0.07455400  1
  O  O13  1  0.46340900  0.07455400  0.28094400  1
  O  O14  1  0.07455400  0.28094400  0.46340900  1
  O  O15  1  0.96340900  0.78094400  0.57455400  1
  O  O16  1  0.78094400  0.57455400  0.96340900  1
  O  O17  1  0.57455400  0.96340900  0.78094400  1
  O  O18  1  0.99143000  0.36181200  0.87503100  1
  O  O19  1  0.36181200  0.87503100  0.99143000  1
  O  O20  1  0.87503100  0.99143000  0.36181200  1
  O  O21  1  0.86181200  0.49143000  0.37503100  1
  O  O22  1  0.49143000  0.37503100  0.86181200  1
  O  O23  1  0.37503100  0.86181200  0.49143000  1
  O  O24  1  0.72478500  0.31081700  0.00037500  1
  O  O25  1  0.31081700  0.00037500  0.72478500  1
  O  O26  1  0.00037500  0.72478500  0.31081700  1
  O  O27  1  0.81081700  0.22478500  0.50037500  1
  O  O28  1  0.22478500  0.50037500  0.81081700  1
  O  O29  1  0.50037500  0.81081700  0.22478500  1
  O  O30  1  0.21480700  0.21480700  0.21480700  1
  O  O31  1  0.71480700  0.71480700  0.71480700  1
loop_
_geom_bond_atom_site_label_1
_geom_bond_atom_site_label_2
_geom_bond_distance
_geom_bond_site_symmetry_2
Hg0 O12 2.205510 1_555
Hg0 O5 2.415374 1_555
Hg1 O13 2.205510 1_555
Hg1 O3 2.415374 1_555
Hg2 O14 2.205510 1_555
Hg2 O4 2.415374 1_555
Hg3 O15 2.205510 1_555
Hg3 O1 2.415374 1_655
Hg4 O16 2.205510 1_555
Hg4 O2 2.415374 1_556
Hg5 O17 2.205510 1_555
Hg5 O0 2.415374 1_565
Hg6 O6 2.268557 1_555
Hg6 O22 2.324059 1_555
Hg6 O25 2.589779 1_555
Hg7 O7 2.268557 1_555
Hg7 O23 2.324059 1_555
Hg7 O26 2.589779 1_555
Hg8 O8 2.268557 1_555
Hg8 O21 2.324059 1_555
Hg8 O24 2.589778 1_555
Hg9 O9 2.268557 1_555
Hg9 O20 2.324059 1_555
Hg9 O29 2.589779 1_555
Hg10 O10 2.268557 1_555
Hg10 O18 2.324059 1_555
Hg10 O27 2.589778 1_555
Hg11 O11 2.268557 1_555
Hg11 O19 2.324059 1_555
Hg11 O28 2.589779 1_555
Hg12 O24 2.272852 1_555
Hg12 O0 2.359884 1_554
Hg12 O18 2.597414 1_554
Hg13 O25 2.272852 1_555
Hg13 O1 2.359884 1_545
Hg13 O19 2.597414 1_545
Hg14 O26 2.272852 1_555
Hg14 O2 2.359884 1_455
Hg14 O20 2.597414 1_455
Hg15 O27 2.272852 1_555
Hg15 O3 2.359884 1_555
Hg15 O21 2.597414 1_555
Hg16 O28 2.272852 1_555
Hg16 O4 2.359884 1_555
Hg16 O22 2.597414 1_555
Hg17 O29 2.272852 1_555
Hg17 O5 2.359884 1_555
Hg17 O23 2.597414 1_555
As0 O12 1.722450 1_556
As0 O28 1.729345 1_555
As0 O18 1.741479 1_455
As0 O6 1.745040 1_555
As1 O13 1.722450 1_565
As1 O29 1.729345 1_555
As1 O19 1.741479 1_554
As1 O7 1.745040 1_555
As2 O14 1.722450 1_655
As2 O27 1.729345 1_555
As2 O20 1.741479 1_545
As2 O8 1.745040 1_555
As3 O15 1.722450 1_555
As3 O26 1.729345 1_655
As3 O21 1.741479 1_555
As3 O9 1.745040 1_555
As4 O16 1.722450 1_555
As4 O24 1.729345 1_556
As4 O22 1.741479 1_555
As4 O10 1.745040 1_555
As5 O17 1.722450 1_555
As5 O25 1.729345 1_565
As5 O23 1.741479 1_555
As5 O11 1.745040 1_555
As6 O30 1.695099 1_555
As6 O1 1.750984 1_544
As6 O2 1.750984 1_445
As6 O0 1.750984 1_454
As7 O31 1.695099 1_555
As7 O5 1.750984 1_555
As7 O4 1.750984 1_555
As7 O3 1.750984 1_555
