# generated using pymatgen
data_K4VP2S9
_symmetry_space_group_name_H-M   'P 1'
_cell_length_a   6.90522400
_cell_length_b   13.08500600
_cell_length_c   19.59251800
_cell_angle_alpha   90.00000000
_cell_angle_beta   90.00000000
_cell_angle_gamma   90.00000000
_symmetry_Int_Tables_number   1
_chemical_formula_structural   K4VP2S9
_chemical_formula_sum   'K16 V4 P8 S36'
_cell_volume   1770.27995510
_cell_formula_units_Z   4
loop_
 _symmetry_equiv_pos_site_id
 _symmetry_equiv_pos_as_xyz
  1  'x, y, z'
loop_
 _atom_site_type_symbol
 _atom_site_label
 _atom_site_symmetry_multiplicity
 _atom_site_fract_x
 _atom_site_fract_y
 _atom_site_fract_z
 _atom_site_occupancy
  K  K0  1  0.74773900  0.32695200  0.56872900  1
  K  K1  1  0.25426000  0.37649300  0.81911100  1
  K  K2  1  0.74574000  0.87649300  0.18088900  1
  K  K3  1  0.74173900  0.03009700  0.46556900  1
  K  K4  1  0.24574000  0.37649300  0.31911100  1
  K  K5  1  0.25226100  0.82695200  0.43127100  1
  K  K6  1  0.25094200  0.67322000  0.21656800  1
  K  K7  1  0.75094200  0.17322000  0.28343200  1
  K  K8  1  0.25826100  0.53009700  0.53443100  1
  K  K9  1  0.24773900  0.82695200  0.93127100  1
  K  K10  1  0.24173900  0.53009700  0.03443100  1
  K  K11  1  0.24905800  0.67322000  0.71656800  1
  K  K12  1  0.75426000  0.87649300  0.68088900  1
  K  K13  1  0.74905800  0.17322000  0.78343200  1
  K  K14  1  0.75826100  0.03009700  0.96556900  1
  K  K15  1  0.75226100  0.32695200  0.06872900  1
  V  V0  1  0.14219100  0.10146200  0.12494200  1
  V  V1  1  0.64219100  0.60146200  0.37505800  1
  V  V2  1  0.85780900  0.60146200  0.87505800  1
  V  V3  1  0.35780900  0.10146200  0.62494200  1
  P  P0  1  0.25217900  0.00109900  0.76706700  1
  P  P1  1  0.24893300  0.20178000  0.48305100  1
  P  P2  1  0.74893300  0.70178000  0.01694900  1
  P  P3  1  0.25106700  0.20178000  0.98305100  1
  P  P4  1  0.75106700  0.70178000  0.51694900  1
  P  P5  1  0.75217900  0.50109900  0.73293300  1
  P  P6  1  0.74782100  0.50109900  0.23293300  1
  P  P7  1  0.24782100  0.00109900  0.26706700  1
  S  S0  1  0.74678400  0.54739900  0.48452800  1
  S  S1  1  0.83439700  0.10153600  0.12464300  1
  S  S2  1  0.49902600  0.24091100  0.93598000  1
  S  S3  1  0.50482900  0.46179900  0.68549900  1
  S  S4  1  0.74699400  0.76184800  0.41723000  1
  S  S5  1  0.00097400  0.24091100  0.43598000  1
  S  S6  1  0.00482900  0.96179900  0.81450100  1
  S  S7  1  0.24678400  0.04739900  0.01547200  1
  S  S8  1  0.99066000  0.74383200  0.06715200  1
  S  S9  1  0.99902600  0.74091100  0.56402000  1
  S  S10  1  0.99474000  0.45919600  0.68321600  1
  S  S11  1  0.75457000  0.44097600  0.83263400  1
  S  S12  1  0.24543000  0.94097600  0.16736600  1
  S  S13  1  0.75321600  0.54739900  0.98452800  1
  S  S14  1  0.25457000  0.94097600  0.66736600  1
  S  S15  1  0.16560300  0.60153600  0.87535700  1
  S  S16  1  0.50526000  0.45919600  0.18321600  1
  S  S17  1  0.74543000  0.44097600  0.33263400  1
  S  S18  1  0.24438400  0.15551900  0.23471600  1
  S  S19  1  0.33439700  0.60153600  0.37535700  1
  S  S20  1  0.00934000  0.24383200  0.93284800  1
  S  S21  1  0.99517100  0.46179900  0.18549900  1
  S  S22  1  0.25321600  0.04739900  0.51547200  1
  S  S23  1  0.74438400  0.65551900  0.26528400  1
  S  S24  1  0.66560300  0.10153600  0.62464300  1
  S  S25  1  0.25300600  0.26184800  0.58277000  1
  S  S26  1  0.75300600  0.76184800  0.91723000  1
  S  S27  1  0.49517100  0.96179900  0.31450100  1
  S  S28  1  0.49474000  0.95919600  0.81678400  1
  S  S29  1  0.25561600  0.15551900  0.73471600  1
  S  S30  1  0.50934000  0.74383200  0.56715200  1
  S  S31  1  0.75561600  0.65551900  0.76528400  1
  S  S32  1  0.24699400  0.26184800  0.08277000  1
  S  S33  1  0.50097400  0.74091100  0.06402000  1
  S  S34  1  0.49066000  0.24383200  0.43284800  1
  S  S35  1  0.00526000  0.95919600  0.31678400  1
loop_
_geom_bond_atom_site_label_1
_geom_bond_atom_site_label_2
_geom_bond_distance
_geom_bond_site_symmetry_2
K0 S24 3.197147 1_555
K0 S10 3.306787 1_555
K0 S0 3.322983 1_555
K0 S5 3.330151 1_655
K0 S3 3.340805 1_555
K0 S34 3.379616 1_555
K0 S25 3.531586 1_555
K0 S25 3.601997 1_655
K1 S15 3.203183 1_555
K1 S20 3.292299 1_555
K1 S3 3.330546 1_555
K1 S29 3.330863 1_555
K1 S2 3.353662 1_555
K1 S10 3.386968 1_455
K1 S11 3.562005 1_455
K1 S11 3.566153 1_555
K2 S1 3.203183 1_565
K2 S8 3.292299 1_555
K2 S27 3.330546 1_555
K2 S23 3.330863 1_555
K2 S33 3.353662 1_555
K2 S35 3.386968 1_655
K2 S12 3.562005 1_655
K2 S12 3.566153 1_555
K3 S24 3.296025 1_555
K3 S5 3.339129 1_655
K3 S34 3.352397 1_555
K3 S22 3.519484 1_555
K3 S27 3.529584 1_545
K3 S35 3.559432 1_645
K3 S4 3.635748 1_545
K3 S22 3.671684 1_655
K4 S19 3.203183 1_555
K4 S34 3.292299 1_555
K4 S21 3.330546 1_455
K4 S18 3.330863 1_555
K4 S5 3.353662 1_555
K4 S16 3.386968 1_555
K4 S17 3.562005 1_555
K4 S17 3.566153 1_455
K5 S19 3.197147 1_555
K5 S35 3.306787 1_555
K5 S22 3.322983 1_565
K5 S9 3.330151 1_455
K5 S27 3.340805 1_555
K5 S30 3.379616 1_555
K5 S4 3.531586 1_555
K5 S4 3.601997 1_455
K6 S19 3.300107 1_555
K6 S21 3.338123 1_455
K6 S16 3.369539 1_555
K6 S23 3.546060 1_555
K6 S8 3.557230 1_455
K6 S33 3.563474 1_555
K6 S23 3.633172 1_455
K6 S12 3.633987 1_555
K7 S1 3.300107 1_555
K7 S27 3.338123 1_545
K7 S35 3.369539 1_645
K7 S18 3.546060 1_655
K7 S34 3.557230 1_555
K7 S5 3.563474 1_655
K7 S18 3.633172 1_555
K7 S17 3.633987 1_555
K8 S19 3.296025 1_555
K8 S9 3.339129 1_455
K8 S30 3.352397 1_555
K8 S0 3.519484 1_555
K8 S3 3.529584 1_555
K8 S10 3.559432 1_455
K8 S25 3.635748 1_555
K8 S0 3.671684 1_455
K9 S15 3.197147 1_555
K9 S28 3.306787 1_555
K9 S7 3.322983 1_566
K9 S33 3.330151 1_556
K9 S6 3.340805 1_555
K9 S8 3.379616 1_456
K9 S26 3.531586 1_455
K9 S26 3.601997 1_555
K10 S15 3.296025 1_554
K10 S33 3.339129 1_555
K10 S8 3.352397 1_455
K10 S13 3.519484 1_454
K10 S21 3.529584 1_455
K10 S16 3.559432 1_555
K10 S32 3.635748 1_555
K10 S13 3.671684 1_554
K11 S15 3.300107 1_555
K11 S3 3.338123 1_555
K11 S10 3.369539 1_455
K11 S31 3.546060 1_455
K11 S30 3.557230 1_555
K11 S9 3.563474 1_455
K11 S31 3.633172 1_555
K11 S14 3.633987 1_555
K12 S24 3.203183 1_565
K12 S30 3.292299 1_555
K12 S6 3.330546 1_655
K12 S31 3.330863 1_555
K12 S9 3.353662 1_555
K12 S28 3.386968 1_555
K12 S14 3.562005 1_555
K12 S14 3.566153 1_655
K13 S24 3.300107 1_555
K13 S6 3.338123 1_645
K13 S28 3.369539 1_545
K13 S29 3.546060 1_555
K13 S20 3.557230 1_655
K13 S2 3.563474 1_555
K13 S29 3.633172 1_655
K13 S11 3.633987 1_555
K14 S1 3.296025 1_556
K14 S2 3.339129 1_555
K14 S20 3.352397 1_655
K14 S7 3.519484 1_656
K14 S6 3.529584 1_645
K14 S28 3.559432 1_545
K14 S26 3.635748 1_545
K14 S7 3.671684 1_556
K15 S1 3.197147 1_555
K15 S16 3.306787 1_555
K15 S13 3.322983 1_554
K15 S2 3.330151 1_554
K15 S21 3.340805 1_555
K15 S20 3.379616 1_654
K15 S32 3.531586 1_655
K15 S32 3.601997 1_555
P0 S6 2.011324 1_545
P0 S28 2.013675 1_545
P0 S14 2.105928 1_545
P0 S29 2.117802 1_555
P1 S5 2.011062 1_555
P1 S34 2.014053 1_555
P1 S25 2.106109 1_555
P1 S22 2.117799 1_555
P2 S33 2.011062 1_555
P2 S8 2.014053 1_555
P2 S26 2.106109 1_554
P2 S13 2.117799 1_554
P3 S2 2.011062 1_555
P3 S20 2.014053 1_555
P3 S32 2.106109 1_556
P3 S7 2.117799 1_556
P4 S9 2.011062 1_555
P4 S30 2.014053 1_555
P4 S4 2.106109 1_555
P4 S0 2.117799 1_555
P5 S3 2.011324 1_555
P5 S10 2.013675 1_555
P5 S11 2.105928 1_555
P5 S31 2.117802 1_555
P6 S21 2.011324 1_555
P6 S16 2.013675 1_555
P6 S17 2.105928 1_555
P6 S23 2.117802 1_555
P7 S27 2.011324 1_545
P7 S35 2.013675 1_545
P7 S12 2.105928 1_545
P7 S18 2.117802 1_555
S0 V1 2.371118 1_555
S1 V0 2.125395 1_655
S4 V1 2.368705 1_555
S7 V0 2.371118 1_555
S11 V2 2.368317 1_555
S12 V0 2.368317 1_565
S13 V2 2.371118 1_555
S14 V3 2.368317 1_565
S15 V2 2.125395 1_455
S17 V1 2.368317 1_555
S18 V0 2.371500 1_555
S19 V1 2.125395 1_555
S22 V3 2.371118 1_555
S23 V1 2.371500 1_555
S24 V3 2.125395 1_555
S25 V3 2.368705 1_555
S26 V2 2.368705 1_555
S29 V3 2.371500 1_555
S31 V2 2.371500 1_555
S32 V0 2.368705 1_555
