# generated using pymatgen
data_LaErS3
_symmetry_space_group_name_H-M   'P 1'
_cell_length_a   3.99160695
_cell_length_b   16.45025474
_cell_length_c   21.40339030
_cell_angle_alpha   90.00000000
_cell_angle_beta   90.00000000
_cell_angle_gamma   90.00000000
_symmetry_Int_Tables_number   1
_chemical_formula_structural   LaErS3
_chemical_formula_sum   'La12 Er12 S36'
_cell_volume   1405.40977170
_cell_formula_units_Z   12
loop_
 _symmetry_equiv_pos_site_id
 _symmetry_equiv_pos_as_xyz
  1  'x, y, z'
loop_
 _atom_site_type_symbol
 _atom_site_label
 _atom_site_symmetry_multiplicity
 _atom_site_fract_x
 _atom_site_fract_y
 _atom_site_fract_z
 _atom_site_occupancy
  La  La0  1  0.75000000  0.67014211  0.91283088  1
  La  La1  1  0.75000000  0.84096127  0.75414126  1
  La  La2  1  0.25000000  0.15903873  0.24585874  1
  La  La3  1  0.25000000  0.32985789  0.08716912  1
  La  La4  1  0.75000000  0.80640412  0.07911408  1
  La  La5  1  0.75000000  0.34096127  0.74585874  1
  La  La6  1  0.25000000  0.19359588  0.92088592  1
  La  La7  1  0.25000000  0.82985789  0.41283088  1
  La  La8  1  0.75000000  0.17014211  0.58716912  1
  La  La9  1  0.75000000  0.30640412  0.42088592  1
  La  La10  1  0.25000000  0.65903873  0.25414126  1
  La  La11  1  0.25000000  0.69359588  0.57911408  1
  Er  Er0  1  0.25000000  0.59447131  0.75022502  1
  Er  Er1  1  0.75000000  0.05712621  0.06923599  1
  Er  Er2  1  0.25000000  0.06560574  0.42063665  1
  Er  Er3  1  0.25000000  0.56560574  0.07936335  1
  Er  Er4  1  0.25000000  0.09447131  0.74977498  1
  Er  Er5  1  0.25000000  0.44287379  0.56923599  1
  Er  Er6  1  0.75000000  0.55712621  0.43076401  1
  Er  Er7  1  0.75000000  0.40552869  0.24977498  1
  Er  Er8  1  0.25000000  0.94287379  0.93076401  1
  Er  Er9  1  0.75000000  0.43439426  0.92063665  1
  Er  Er10  1  0.75000000  0.93439426  0.57936335  1
  Er  Er11  1  0.75000000  0.90552869  0.25022502  1
  S  S0  1  0.25000000  0.65828977  0.43670465  1
  S  S1  1  0.25000000  0.20824171  0.48258629  1
  S  S2  1  0.25000000  0.70824171  0.01741371  1
  S  S3  1  0.25000000  0.44113342  0.44243441  1
  S  S4  1  0.75000000  0.64557263  0.14807066  1
  S  S5  1  0.75000000  0.05117089  0.19286841  1
  S  S6  1  0.75000000  0.05886658  0.94243441  1
  S  S7  1  0.25000000  0.32405561  0.31524191  1
  S  S8  1  0.75000000  0.53654887  0.81750194  1
  S  S9  1  0.75000000  0.45798098  0.05232449  1
  S  S10  1  0.75000000  0.17594439  0.81524191  1
  S  S11  1  0.75000000  0.55117089  0.30713159  1
  S  S12  1  0.25000000  0.96345113  0.31750194  1
  S  S13  1  0.75000000  0.27020647  0.17880173  1
  S  S14  1  0.75000000  0.67594439  0.68475809  1
  S  S15  1  0.25000000  0.46345113  0.18249806  1
  S  S16  1  0.75000000  0.77020647  0.32119827  1
  S  S17  1  0.25000000  0.72979353  0.82119827  1
  S  S18  1  0.75000000  0.34171023  0.56329535  1
  S  S19  1  0.25000000  0.04201902  0.55232449  1
  S  S20  1  0.75000000  0.14557263  0.35192934  1
  S  S21  1  0.75000000  0.95798098  0.44767551  1
  S  S22  1  0.25000000  0.22979353  0.67880173  1
  S  S23  1  0.25000000  0.44882911  0.69286841  1
  S  S24  1  0.25000000  0.94113342  0.05756559  1
  S  S25  1  0.75000000  0.03654887  0.68249806  1
  S  S26  1  0.25000000  0.82405561  0.18475809  1
  S  S27  1  0.75000000  0.79175829  0.51741371  1
  S  S28  1  0.25000000  0.54201902  0.94767551  1
  S  S29  1  0.25000000  0.15828977  0.06329535  1
  S  S30  1  0.75000000  0.84171023  0.93670465  1
  S  S31  1  0.75000000  0.29175829  0.98258629  1
  S  S32  1  0.25000000  0.94882911  0.80713159  1
  S  S33  1  0.75000000  0.55886658  0.55756559  1
  S  S34  1  0.25000000  0.35442737  0.85192934  1
  S  S35  1  0.25000000  0.85442737  0.64807066  1
loop_
_geom_bond_atom_site_label_1
_geom_bond_atom_site_label_2
_geom_bond_distance
_geom_bond_site_symmetry_2
La0 S30 2.868222 1_555
La0 S17 2.965239 1_555
La0 S17 2.965239 1_655
La0 S28 2.996942 1_555
La0 S28 2.996942 1_655
La0 S8 2.998785 1_555
La0 S2 3.063756 1_556
La0 S2 3.063756 1_656
La1 S32 2.901425 1_555
La1 S32 2.901425 1_655
La1 S35 3.030913 1_555
La1 S35 3.030913 1_655
La1 S17 3.063894 1_555
La1 S17 3.063894 1_655
La1 S14 3.094223 1_555
La2 S5 2.901425 1_455
La2 S5 2.901425 1_555
La2 S20 3.030913 1_455
La2 S20 3.030913 1_555
La2 S13 3.063894 1_455
La2 S13 3.063894 1_555
La2 S7 3.094223 1_555
La3 S29 2.868222 1_555
La3 S13 2.965239 1_455
La3 S13 2.965239 1_555
La3 S9 2.996942 1_555
La3 S9 2.996942 1_455
La3 S15 2.998785 1_555
La3 S31 3.063756 1_554
La3 S31 3.063756 1_454
La4 S2 2.887001 1_555
La4 S2 2.887001 1_655
La4 S24 3.017958 1_655
La4 S24 3.017958 1_555
La4 S4 3.029542 1_555
La4 S26 3.029901 1_555
La4 S26 3.029901 1_655
La4 S30 3.102885 1_554
La5 S23 2.901425 1_655
La5 S23 2.901425 1_555
La5 S34 3.030913 1_655
La5 S34 3.030913 1_555
La5 S22 3.063894 1_555
La5 S22 3.063894 1_655
La5 S10 3.094223 1_555
La6 S31 2.887001 1_455
La6 S31 2.887001 1_555
La6 S6 3.017958 1_555
La6 S6 3.017958 1_455
La6 S34 3.029542 1_555
La6 S10 3.029901 1_455
La6 S10 3.029901 1_555
La6 S29 3.102885 1_556
La7 S0 2.868222 1_555
La7 S16 2.965239 1_455
La7 S16 2.965239 1_555
La7 S21 2.996942 1_455
La7 S21 2.996942 1_555
La7 S12 2.998785 1_555
La7 S27 3.063756 1_555
La7 S27 3.063756 1_455
La8 S18 2.868222 1_555
La8 S22 2.965239 1_555
La8 S22 2.965239 1_655
La8 S19 2.996942 1_655
La8 S19 2.996942 1_555
La8 S25 2.998785 1_555
La8 S1 3.063756 1_655
La8 S1 3.063756 1_555
La9 S1 2.887001 1_655
La9 S1 2.887001 1_555
La9 S3 3.017958 1_555
La9 S3 3.017958 1_655
La9 S20 3.029542 1_555
La9 S7 3.029901 1_655
La9 S7 3.029901 1_555
La9 S18 3.102885 1_555
La10 S11 2.901425 1_455
La10 S11 2.901425 1_555
La10 S4 3.030913 1_455
La10 S4 3.030913 1_555
La10 S16 3.063894 1_455
La10 S16 3.063894 1_555
La10 S26 3.094223 1_555
La11 S27 2.887001 1_555
La11 S27 2.887001 1_455
La11 S33 3.017958 1_455
La11 S33 3.017958 1_555
La11 S35 3.029542 1_555
La11 S14 3.029901 1_455
La11 S14 3.029901 1_555
La11 S0 3.102885 1_555
Er0 S8 2.639053 1_455
Er0 S8 2.639053 1_555
Er0 S23 2.692057 1_555
Er0 S17 2.695000 1_555
Er0 S14 2.782609 1_455
Er0 S14 2.782609 1_555
Er1 S29 2.601701 1_555
Er1 S29 2.601701 1_655
Er1 S5 2.647966 1_555
Er1 S6 2.714135 1_554
Er1 S24 2.772456 1_645
Er1 S24 2.772456 1_545
Er2 S1 2.695122 1_555
Er2 S21 2.729956 1_445
Er2 S21 2.729956 1_545
Er2 S12 2.774299 1_545
Er2 S20 2.806471 1_455
Er2 S20 2.806471 1_555
Er2 S19 2.845148 1_555
Er3 S2 2.695122 1_555
Er3 S9 2.729956 1_555
Er3 S9 2.729956 1_455
Er3 S15 2.774299 1_555
Er3 S4 2.806471 1_555
Er3 S4 2.806471 1_455
Er3 S28 2.845148 1_554
Er4 S25 2.639053 1_555
Er4 S25 2.639053 1_455
Er4 S32 2.692057 1_545
Er4 S22 2.695000 1_555
Er4 S10 2.782609 1_555
Er4 S10 2.782609 1_455
Er5 S18 2.601701 1_455
Er5 S18 2.601701 1_555
Er5 S23 2.647966 1_555
Er5 S3 2.714135 1_555
Er5 S33 2.772456 1_455
Er5 S33 2.772456 1_555
Er6 S0 2.601701 1_655
Er6 S0 2.601701 1_555
Er6 S11 2.647966 1_555
Er6 S33 2.714135 1_555
Er6 S3 2.772456 1_555
Er6 S3 2.772456 1_655
Er7 S15 2.639053 1_655
Er7 S15 2.639053 1_555
Er7 S11 2.692057 1_555
Er7 S13 2.695000 1_555
Er7 S7 2.782609 1_555
Er7 S7 2.782609 1_655
Er8 S30 2.601701 1_455
Er8 S30 2.601701 1_555
Er8 S32 2.647966 1_555
Er8 S24 2.714135 1_556
Er8 S6 2.772456 1_465
Er8 S6 2.772456 1_565
Er9 S31 2.695122 1_555
Er9 S28 2.729956 1_555
Er9 S28 2.729956 1_655
Er9 S8 2.774299 1_555
Er9 S34 2.806471 1_655
Er9 S34 2.806471 1_555
Er9 S9 2.845148 1_556
Er10 S27 2.695122 1_555
Er10 S19 2.729956 1_665
Er10 S19 2.729956 1_565
Er10 S25 2.774299 1_565
Er10 S35 2.806471 1_655
Er10 S35 2.806471 1_555
Er10 S21 2.845148 1_555
Er11 S12 2.639053 1_655
Er11 S12 2.639053 1_555
Er11 S5 2.692057 1_565
Er11 S16 2.695000 1_555
Er11 S26 2.782609 1_555
Er11 S26 2.782609 1_655
