# generated using pymatgen
data_La2Rh7
_symmetry_space_group_name_H-M   'P 1'
_cell_length_a   5.30488671
_cell_length_b   5.30488760
_cell_length_c   26.37154634
_cell_angle_alpha   90.00000000
_cell_angle_beta   90.00000000
_cell_angle_gamma   120.00000382
_symmetry_Int_Tables_number   1
_chemical_formula_structural   La2Rh7
_chemical_formula_sum   'La8 Rh28'
_cell_volume   642.71511196
_cell_formula_units_Z   4
loop_
 _symmetry_equiv_pos_site_id
 _symmetry_equiv_pos_as_xyz
  1  'x, y, z'
loop_
 _atom_site_type_symbol
 _atom_site_label
 _atom_site_symmetry_multiplicity
 _atom_site_fract_x
 _atom_site_fract_y
 _atom_site_fract_z
 _atom_site_occupancy
  La  La0  1  0.66666700  0.33333300  0.52992518  1
  La  La1  1  0.33333300  0.66666700  0.02992518  1
  La  La2  1  0.33333300  0.66666700  0.17430477  1
  La  La3  1  0.66666700  0.33333300  0.97007482  1
  La  La4  1  0.66666700  0.33333300  0.67430477  1
  La  La5  1  0.66666700  0.33333300  0.82569523  1
  La  La6  1  0.33333300  0.66666700  0.32569523  1
  La  La7  1  0.33333300  0.66666700  0.47007482  1
  Rh  Rh0  1  -0.00000000  -0.00000000  0.66760643  1
  Rh  Rh1  1  0.83351525  0.66703050  0.25000000  1
  Rh  Rh2  1  0.16645332  0.33290664  0.58638061  1
  Rh  Rh3  1  0.83354668  0.16645332  0.41361939  1
  Rh  Rh4  1  0.66709336  0.83354668  0.91361939  1
  Rh  Rh5  1  0.33333300  0.66666700  0.83302460  1
  Rh  Rh6  1  0.83354668  0.66709336  0.08638061  1
  Rh  Rh7  1  0.83354668  0.66709336  0.41361939  1
  Rh  Rh8  1  0.16645332  0.83354668  0.91361939  1
  Rh  Rh9  1  0.66666700  0.33333300  0.33302460  1
  Rh  Rh10  1  -0.00000000  -0.00000000  0.33239357  1
  Rh  Rh11  1  0.16645332  0.83354668  0.58638061  1
  Rh  Rh12  1  0.33290664  0.16645332  0.41361939  1
  Rh  Rh13  1  -0.00000000  -0.00000000  -0.00000000  1
  Rh  Rh14  1  -0.00000000  -0.00000000  0.16760643  1
  Rh  Rh15  1  0.33333300  0.66666700  0.66697540  1
  Rh  Rh16  1  0.66709336  0.83354668  0.58638061  1
  Rh  Rh17  1  0.66703050  0.83351525  0.75000000  1
  Rh  Rh18  1  0.83354668  0.16645332  0.08638061  1
  Rh  Rh19  1  0.83351525  0.16648375  0.25000000  1
  Rh  Rh20  1  0.33290664  0.16645332  0.08638061  1
  Rh  Rh21  1  0.66666700  0.33333300  0.16697540  1
  Rh  Rh22  1  0.16645332  0.33290664  0.91361939  1
  Rh  Rh23  1  -0.00000000  -0.00000000  0.50000000  1
  Rh  Rh24  1  0.16648475  0.33296950  0.75000000  1
  Rh  Rh25  1  -0.00000000  -0.00000000  0.83239357  1
  Rh  Rh26  1  0.16648475  0.83351625  0.75000000  1
  Rh  Rh27  1  0.33296950  0.16648475  0.25000000  1
loop_
_geom_bond_atom_site_label_1
_geom_bond_atom_site_label_2
_geom_bond_distance
_geom_bond_site_symmetry_2
La0 Rh2 3.041714 1_655
La0 Rh16 3.041714 1_545
La0 Rh11 3.041716 1_545
La0 Rh11 3.041716 1_655
La0 Rh2 3.041718 1_555
La0 Rh16 3.041719 1_555
La0 Rh23 3.162813 1_655
La0 Rh23 3.162817 1_555
La0 Rh23 3.162817 1_665
La0 Rh3 3.429088 1_555
La0 Rh12 3.429090 1_555
La0 Rh7 3.429090 1_555
La1 Rh6 3.041714 1_455
La1 Rh20 3.041714 1_565
La1 Rh18 3.041716 1_565
La1 Rh18 3.041716 1_455
La1 Rh6 3.041718 1_555
La1 Rh20 3.041719 1_555
La1 Rh13 3.162813 1_565
La1 Rh13 3.162817 1_665
La1 Rh13 3.162817 1_555
La1 Rh8 3.429088 1_554
La1 Rh4 3.429090 1_554
La1 Rh22 3.429090 1_554
La2 Rh14 3.067865 1_565
La2 Rh14 3.067869 1_665
La2 Rh14 3.067869 1_555
La2 Rh21 3.068868 1_455
La2 Rh21 3.068868 1_565
La2 Rh21 3.068877 1_555
La2 Rh1 3.319678 1_455
La2 Rh19 3.319678 1_565
La2 Rh27 3.319678 1_565
La2 Rh1 3.319682 1_555
La2 Rh19 3.319682 1_455
La2 Rh27 3.319682 1_555
La2 Rh6 3.523038 1_455
La2 Rh20 3.523038 1_565
La2 Rh18 3.523040 1_565
La2 Rh18 3.523040 1_455
La2 Rh6 3.523042 1_555
La2 Rh20 3.523042 1_555
La3 Rh22 3.041714 1_655
La3 Rh4 3.041714 1_545
La3 Rh8 3.041716 1_545
La3 Rh8 3.041716 1_655
La3 Rh22 3.041718 1_555
La3 Rh4 3.041719 1_555
La3 Rh13 3.162813 1_656
La3 Rh13 3.162817 1_556
La3 Rh13 3.162817 1_666
La3 Rh18 3.429088 1_556
La3 Rh20 3.429090 1_556
La3 Rh6 3.429090 1_556
La4 Rh0 3.067865 1_655
La4 Rh0 3.067869 1_555
La4 Rh0 3.067869 1_665
La4 Rh15 3.068868 1_655
La4 Rh15 3.068868 1_545
La4 Rh15 3.068877 1_555
La4 Rh24 3.319678 1_655
La4 Rh26 3.319678 1_545
La4 Rh17 3.319678 1_545
La4 Rh24 3.319682 1_555
La4 Rh26 3.319682 1_655
La4 Rh17 3.319682 1_555
La4 Rh2 3.523038 1_655
La4 Rh16 3.523038 1_545
La4 Rh11 3.523040 1_545
La4 Rh11 3.523040 1_655
La4 Rh2 3.523042 1_555
La4 Rh16 3.523042 1_555
La5 Rh25 3.067865 1_655
La5 Rh25 3.067869 1_555
La5 Rh25 3.067869 1_665
La5 Rh5 3.068868 1_655
La5 Rh5 3.068868 1_545
La5 Rh5 3.068877 1_555
La5 Rh24 3.319678 1_655
La5 Rh26 3.319678 1_545
La5 Rh17 3.319678 1_545
La5 Rh24 3.319682 1_555
La5 Rh26 3.319682 1_655
La5 Rh17 3.319682 1_555
La5 Rh22 3.523038 1_655
La5 Rh4 3.523038 1_545
La5 Rh8 3.523040 1_545
La5 Rh8 3.523040 1_655
La5 Rh22 3.523042 1_555
La5 Rh4 3.523042 1_555
La6 Rh10 3.067865 1_565
La6 Rh10 3.067869 1_665
La6 Rh10 3.067869 1_555
La6 Rh9 3.068868 1_455
La6 Rh9 3.068868 1_565
La6 Rh9 3.068877 1_555
La6 Rh1 3.319678 1_455
La6 Rh19 3.319678 1_565
La6 Rh27 3.319678 1_565
La6 Rh1 3.319682 1_555
La6 Rh19 3.319682 1_455
La6 Rh27 3.319682 1_555
La6 Rh7 3.523038 1_455
La6 Rh12 3.523038 1_565
La6 Rh3 3.523040 1_565
La6 Rh3 3.523040 1_455
La6 Rh7 3.523042 1_555
La6 Rh12 3.523042 1_555
La7 Rh7 3.041714 1_455
La7 Rh12 3.041714 1_565
La7 Rh3 3.041716 1_565
La7 Rh3 3.041716 1_455
La7 Rh7 3.041718 1_555
La7 Rh12 3.041719 1_555
La7 Rh23 3.162813 1_565
La7 Rh23 3.162817 1_665
La7 Rh23 3.162817 1_555
La7 Rh11 3.429088 1_555
La7 Rh16 3.429090 1_555
La7 Rh2 3.429090 1_555
Rh0 Rh16 2.632020 1_445
Rh0 Rh11 2.632021 1_545
Rh0 Rh2 2.632021 1_555
Rh0 Rh26 2.657307 1_545
Rh0 Rh17 2.657310 1_445
Rh0 Rh24 2.657310 1_555
Rh0 Rh15 3.062820 1_545
Rh0 Rh15 3.062824 1_445
Rh0 Rh15 3.062825 1_555
Rh1 Rh19 2.649543 1_565
Rh1 Rh27 2.649548 1_665
Rh1 Rh27 2.655339 1_555
Rh1 Rh19 2.655344 1_555
Rh1 Rh14 2.657310 1_665
Rh1 Rh10 2.657310 1_665
Rh1 Rh21 2.672851 1_555
Rh1 Rh9 2.672851 1_555
Rh2 Rh23 2.743792 1_555
Rh3 Rh9 2.620785 1_555
Rh3 Rh7 2.649048 1_545
Rh3 Rh7 2.655839 1_555
Rh4 Rh5 2.620788 1_555
Rh4 Rh8 2.649048 1_655
Rh4 Rh8 2.655839 1_555
Rh5 Rh8 2.620785 1_555
Rh7 Rh9 2.620788 1_555
Rh10 Rh12 2.632020 1_555
Rh10 Rh3 2.632021 1_455
Rh10 Rh7 2.632021 1_445
Rh10 Rh19 2.657307 1_455
Rh10 Rh27 2.657310 1_555
Rh10 Rh9 3.062820 1_455
Rh10 Rh9 3.062824 1_555
Rh10 Rh9 3.062825 1_445
Rh11 Rh15 2.620785 1_555
Rh11 Rh16 2.649048 1_455
Rh11 Rh2 2.649048 1_565
Rh11 Rh16 2.655839 1_555
Rh11 Rh2 2.655839 1_555
Rh11 Rh23 2.743792 1_565
Rh12 Rh9 2.620788 1_555
Rh12 Rh3 2.649048 1_455
Rh12 Rh7 2.649048 1_445
Rh12 Rh3 2.655839 1_555
Rh12 Rh7 2.655839 1_555
Rh12 Rh23 2.743791 1_555
Rh13 Rh4 2.743791 1_444
Rh13 Rh20 2.743791 1_555
Rh13 Rh18 2.743792 1_455
Rh13 Rh8 2.743792 1_544
Rh13 Rh22 2.743792 1_554
Rh13 Rh6 2.743792 1_445
Rh14 Rh20 2.632020 1_555
Rh14 Rh18 2.632021 1_455
Rh14 Rh6 2.632021 1_445
Rh14 Rh19 2.657307 1_455
Rh14 Rh27 2.657310 1_555
Rh14 Rh21 3.062820 1_455
Rh14 Rh21 3.062824 1_555
Rh14 Rh21 3.062825 1_445
Rh15 Rh16 2.620788 1_555
Rh15 Rh2 2.620788 1_555
Rh15 Rh17 2.672851 1_555
Rh15 Rh26 2.672851 1_555
Rh15 Rh24 2.672851 1_555
Rh16 Rh2 2.649048 1_665
Rh16 Rh2 2.655839 1_555
Rh16 Rh23 2.743791 1_665
Rh17 Rh26 2.649546 1_655
Rh17 Rh24 2.649548 1_665
Rh17 Rh24 2.655339 1_555
Rh17 Rh26 2.655341 1_555
Rh17 Rh25 2.657310 1_665
Rh17 Rh5 2.672851 1_555
Rh18 Rh21 2.620785 1_555
Rh18 Rh20 2.649048 1_655
Rh18 Rh6 2.649048 1_545
Rh18 Rh20 2.655839 1_555
Rh18 Rh6 2.655839 1_555
Rh19 Rh27 2.649546 1_655
Rh19 Rh27 2.655341 1_555
Rh19 Rh21 2.672851 1_555
Rh19 Rh9 2.672851 1_555
Rh20 Rh21 2.620788 1_555
Rh20 Rh6 2.649048 1_445
Rh20 Rh6 2.655839 1_555
Rh21 Rh6 2.620788 1_555
Rh21 Rh27 2.672851 1_555
Rh22 Rh5 2.620788 1_555
Rh22 Rh25 2.632021 1_555
Rh22 Rh4 2.649048 1_445
Rh22 Rh8 2.649048 1_545
Rh22 Rh4 2.655839 1_555
Rh22 Rh8 2.655839 1_555
Rh23 Rh3 2.743792 1_455
Rh23 Rh7 2.743792 1_445
Rh24 Rh26 2.649543 1_545
Rh24 Rh26 2.655344 1_555
Rh24 Rh25 2.657310 1_555
Rh24 Rh5 2.672851 1_555
Rh25 Rh4 2.632020 1_445
Rh25 Rh8 2.632021 1_545
Rh25 Rh26 2.657307 1_545
Rh25 Rh5 3.062820 1_545
Rh25 Rh5 3.062824 1_445
Rh25 Rh5 3.062825 1_555
Rh26 Rh5 2.672851 1_555
Rh27 Rh9 2.672851 1_555
