# generated using pymatgen
data_CsLiMoO4
_symmetry_space_group_name_H-M   'P 1'
_cell_length_a   5.93408391
_cell_length_b   5.93408391
_cell_length_c   5.93408391
_cell_angle_alpha   60.00000000
_cell_angle_beta   60.00000000
_cell_angle_gamma   60.00000000
_symmetry_Int_Tables_number   1
_chemical_formula_structural   CsLiMoO4
_chemical_formula_sum   'Cs1 Li1 Mo1 O4'
_cell_volume   147.75631472
_cell_formula_units_Z   1
loop_
 _symmetry_equiv_pos_site_id
 _symmetry_equiv_pos_as_xyz
  1  'x, y, z'
loop_
 _atom_site_type_symbol
 _atom_site_label
 _atom_site_symmetry_multiplicity
 _atom_site_fract_x
 _atom_site_fract_y
 _atom_site_fract_z
 _atom_site_occupancy
  Cs  Cs0  1  0.25000000  0.25000000  0.25000000  1
  Li  Li0  1  0.50000000  0.50000000  0.50000000  1
  Mo  Mo0  1  0.75000000  0.75000000  0.75000000  1
  O  O0  1  0.62878883  0.11363252  0.62878883  1
  O  O1  1  0.11363252  0.62878883  0.62878883  1
  O  O2  1  0.62878883  0.62878883  0.62878883  1
  O  O3  1  0.62878883  0.62878883  0.11363252  1
loop_
_geom_bond_atom_site_label_1
_geom_bond_atom_site_label_2
_geom_bond_distance
_geom_bond_site_symmetry_2
Cs0 O1 3.489171 1_555
Cs0 O3 3.489171 1_555
Cs0 O0 3.489171 1_555
Cs0 O2 3.489173 1_554
Cs0 O2 3.489173 1_545
Cs0 O2 3.489173 1_455
Cs0 O1 3.489176 1_554
Cs0 O3 3.489176 1_545
Cs0 O3 3.489176 1_455
Cs0 O1 3.489176 1_545
Cs0 O0 3.489176 1_455
Cs0 O0 3.489176 1_554
Li0 O2 1.872007 1_555
Li0 O1 1.872012 1_555
Li0 O3 1.872012 1_555
Li0 O0 1.872012 1_555
Mo0 O3 1.761857 1_556
Mo0 O0 1.761857 1_565
Mo0 O1 1.761857 1_655
Mo0 O2 1.761862 1_555
