# generated using pymatgen
data_KFeC6(NO)3
_symmetry_space_group_name_H-M   'P 1'
_cell_length_a   13.13962696
_cell_length_b   13.13962696
_cell_length_c   13.13962763
_cell_angle_alpha   31.80935795
_cell_angle_beta   31.80935795
_cell_angle_gamma   31.80935887
_symmetry_Int_Tables_number   1
_chemical_formula_structural   KFeC6(NO)3
_chemical_formula_sum   'K2 Fe2 C12 N6 O6'
_cell_volume   559.82297021
_cell_formula_units_Z   2
loop_
 _symmetry_equiv_pos_site_id
 _symmetry_equiv_pos_as_xyz
  1  'x, y, z'
loop_
 _atom_site_type_symbol
 _atom_site_label
 _atom_site_symmetry_multiplicity
 _atom_site_fract_x
 _atom_site_fract_y
 _atom_site_fract_z
 _atom_site_occupancy
  K  K0  1  0.33300800  0.33300800  0.33300800  1
  K  K1  1  0.66699200  0.66699200  0.66699200  1
  Fe  Fe0  1  0.09462400  0.09462400  0.09462400  1
  Fe  Fe1  1  0.90537600  0.90537600  0.90537600  1
  C  C0  1  0.15244400  0.72300200  0.93499000  1
  C  C1  1  0.65859400  0.09807600  0.88620900  1
  C  C2  1  0.72300200  0.93499000  0.15244400  1
  C  C3  1  0.11379100  0.34140600  0.90192400  1
  C  C4  1  0.88620900  0.65859400  0.09807600  1
  C  C5  1  0.84755600  0.27699800  0.06501000  1
  C  C6  1  0.34140600  0.90192400  0.11379100  1
  C  C7  1  0.90192400  0.11379100  0.34140600  1
  C  C8  1  0.09807600  0.88620900  0.65859400  1
  C  C9  1  0.93499000  0.15244400  0.72300200  1
  C  C10  1  0.27699800  0.06501000  0.84755600  1
  C  C11  1  0.06501000  0.84755600  0.27699800  1
  N  N0  1  0.30112500  0.61218400  0.95381600  1
  N  N1  1  0.38781600  0.04618400  0.69887500  1
  N  N2  1  0.95381600  0.30112500  0.61218400  1
  N  N3  1  0.61218400  0.95381600  0.30112500  1
  N  N4  1  0.69887500  0.38781600  0.04618400  1
  N  N5  1  0.04618400  0.69887500  0.38781600  1
  O  O0  1  0.49963600  0.22374600  0.87766600  1
  O  O1  1  0.12233400  0.50036400  0.77625400  1
  O  O2  1  0.50036400  0.77625400  0.12233400  1
  O  O3  1  0.77625400  0.12233400  0.50036400  1
  O  O4  1  0.22374600  0.87766600  0.49963600  1
  O  O5  1  0.87766600  0.49963600  0.22374600  1
loop_
_geom_bond_atom_site_label_1
_geom_bond_atom_site_label_2
_geom_bond_distance
_geom_bond_site_symmetry_2
K0 N4 2.882859 1_555
K0 N5 2.882859 1_555
K0 N1 2.882859 1_555
K0 N2 2.885900 1_455
K0 N3 2.885900 1_545
K0 N0 2.885900 1_554
K1 N0 2.882859 1_555
K1 N2 2.882859 1_555
K1 N3 2.882859 1_555
K1 N5 2.885900 1_655
K1 N1 2.885900 1_565
K1 N4 2.885900 1_556
C0 N0 1.171481 1_555
C0 Fe1 1.942425 1_455
C1 O0 1.150375 1_555
C1 Fe1 1.827254 1_545
C2 N3 1.171481 1_555
C2 Fe1 1.942425 1_554
C3 O1 1.150375 1_555
C3 Fe0 1.827254 1_556
C4 O5 1.150375 1_555
C4 Fe1 1.827254 1_554
C5 N4 1.171481 1_555
C5 Fe0 1.942425 1_655
C6 O2 1.150375 1_555
C6 Fe0 1.827254 1_565
C7 O3 1.150375 1_555
C7 Fe0 1.827254 1_655
C8 O4 1.150375 1_555
C8 Fe1 1.827254 1_455
C9 N2 1.171481 1_555
C9 Fe1 1.942425 1_545
C10 N1 1.171481 1_555
C10 Fe0 1.942425 1_556
C11 N5 1.171481 1_555
C11 Fe0 1.942425 1_565
