# generated using pymatgen
data_Rb5Si2NiO8
_symmetry_space_group_name_H-M   'P 1'
_cell_length_a   6.79742840
_cell_length_b   6.79742840
_cell_length_c   13.93194242
_cell_angle_alpha   84.60022530
_cell_angle_beta   84.60022530
_cell_angle_gamma   99.56292420
_symmetry_Int_Tables_number   1
_chemical_formula_structural   Rb5Si2NiO8
_chemical_formula_sum   'Rb10 Si4 Ni2 O16'
_cell_volume   628.00297112
_cell_formula_units_Z   2
loop_
 _symmetry_equiv_pos_site_id
 _symmetry_equiv_pos_as_xyz
  1  'x, y, z'
loop_
 _atom_site_type_symbol
 _atom_site_label
 _atom_site_symmetry_multiplicity
 _atom_site_fract_x
 _atom_site_fract_y
 _atom_site_fract_z
 _atom_site_occupancy
  Rb  Rb0  1  0.91493100  0.56821700  0.65306500  1
  Rb  Rb1  1  0.96165100  0.25323500  0.91390600  1
  Rb  Rb2  1  0.56821700  0.91493100  0.15306500  1
  Rb  Rb3  1  0.25323500  0.96165100  0.41390600  1
  Rb  Rb4  1  0.34796400  0.65203600  0.75000000  1
  Rb  Rb5  1  0.65203600  0.34796400  0.25000000  1
  Rb  Rb6  1  0.74676500  0.03834900  0.58609400  1
  Rb  Rb7  1  0.43178300  0.08506900  0.84693500  1
  Rb  Rb8  1  0.03834900  0.74676500  0.08609400  1
  Rb  Rb9  1  0.08506900  0.43178300  0.34693500  1
  Si  Si0  1  0.77992200  0.71615600  0.87362400  1
  Si  Si1  1  0.71615600  0.77992200  0.37362400  1
  Si  Si2  1  0.28384400  0.22007800  0.62637600  1
  Si  Si3  1  0.22007800  0.28384400  0.12637600  1
  Ni  Ni0  1  0.50000000  0.50000000  0.50000000  1
  Ni  Ni1  1  0.50000000  0.50000000  0.00000000  1
  O  O0  1  0.72207600  0.84610600  0.78070500  1
  O  O1  1  0.65781400  0.76218400  0.97955100  1
  O  O2  1  0.84610600  0.72207600  0.28070500  1
  O  O3  1  0.76218400  0.65781400  0.47955100  1
  O  O4  1  0.64071300  0.47536600  0.88433800  1
  O  O5  1  0.29187000  0.98585300  0.61865600  1
  O  O6  1  0.47536600  0.64071300  0.38433800  1
  O  O7  1  0.01414700  0.70813000  0.88134400  1
  O  O8  1  0.98585300  0.29187000  0.11865600  1
  O  O9  1  0.52463400  0.35928700  0.61566200  1
  O  O10  1  0.70813000  0.01414700  0.38134400  1
  O  O11  1  0.35928700  0.52463400  0.11566200  1
  O  O12  1  0.23781600  0.34218600  0.52044900  1
  O  O13  1  0.15389400  0.27792400  0.71929500  1
  O  O14  1  0.34218600  0.23781600  0.02044900  1
  O  O15  1  0.27792400  0.15389400  0.21929500  1
loop_
_geom_bond_atom_site_label_1
_geom_bond_atom_site_label_2
_geom_bond_distance
_geom_bond_site_symmetry_2
Ni0 O6 1.831235 1_555
Ni0 O9 1.831235 1_555
Ni0 O12 1.902570 1_555
Ni0 O3 1.902570 1_555
Ni1 O11 1.831235 1_555
Ni1 O4 1.831235 1_554
Ni1 O14 1.902570 1_555
Ni1 O1 1.902570 1_554
O0 Si0 1.614528 1_555
O0 Rb4 2.754341 1_555
O0 Rb6 2.874308 1_565
O0 Rb7 2.896193 1_565
O0 Rb0 3.076529 1_555
O1 Si0 1.705099 1_555
O1 Rb2 2.774549 1_556
O1 Rb8 3.112638 1_656
O1 Rb7 3.388632 1_565
O2 Si1 1.614528 1_555
O2 Rb5 2.754341 1_555
O2 Rb8 2.874308 1_655
O2 Rb9 2.896193 1_655
O2 Rb2 3.076529 1_555
O3 Si1 1.705099 1_555
O3 Rb0 2.774549 1_555
O3 Rb6 3.112638 1_565
O3 Rb9 3.388632 1_655
O4 Si0 1.734786 1_555
O4 Rb1 2.890546 1_555
O4 Rb7 2.911109 1_555
O4 Rb4 3.158611 1_555
O5 Si2 1.615364 1_565
O5 Rb4 2.877491 1_555
O5 Rb3 2.906565 1_555
O5 Rb6 3.038623 1_565
O5 Rb0 3.456840 1_455
O6 Si1 1.734786 1_555
O6 Rb3 2.890546 1_555
O6 Rb9 2.911109 1_555
O6 Rb5 3.158611 1_555
O7 Si0 1.615364 1_455
O7 Rb4 2.877491 1_555
O7 Rb8 2.906565 1_556
O7 Rb1 3.038623 1_455
O7 Rb7 3.456840 1_565
O8 Si3 1.615364 1_655
O8 Rb5 2.877491 1_555
O8 Rb1 2.906565 1_554
O8 Rb8 3.038623 1_655
O8 Rb2 3.456840 1_545
O9 Si2 1.734786 1_555
O9 Rb6 2.890546 1_555
O9 Rb0 2.911109 1_555
O9 Rb4 3.158611 1_555
O10 Si1 1.615364 1_545
O10 Rb5 2.877491 1_555
O10 Rb6 2.906565 1_555
O10 Rb3 3.038623 1_545
O10 Rb9 3.456840 1_655
O11 Si3 1.734786 1_555
O11 Rb8 2.890546 1_555
O11 Rb2 2.911109 1_555
O11 Rb5 3.158611 1_555
O12 Si2 1.705099 1_555
O12 Rb9 2.774549 1_555
O12 Rb3 3.112638 1_545
O12 Rb0 3.388632 1_455
O13 Si2 1.614528 1_555
O13 Rb4 2.754341 1_555
O13 Rb1 2.874308 1_455
O13 Rb0 2.896193 1_455
O13 Rb7 3.076529 1_555
O14 Si3 1.705099 1_555
O14 Rb7 2.774549 1_554
O14 Rb1 3.112638 1_454
O14 Rb2 3.388632 1_545
O15 Si3 1.614528 1_555
O15 Rb5 2.754341 1_555
O15 Rb3 2.874308 1_545
O15 Rb2 2.896193 1_545
O15 Rb9 3.076529 1_555
