# generated using pymatgen
data_Bi2Ir2O7
_symmetry_space_group_name_H-M   'P 1'
_cell_length_a   7.31495625
_cell_length_b   7.31495625
_cell_length_c   7.31495625
_cell_angle_alpha   60.00000000
_cell_angle_beta   60.00000000
_cell_angle_gamma   60.00000000
_symmetry_Int_Tables_number   1
_chemical_formula_structural   Bi2Ir2O7
_chemical_formula_sum   'Bi4 Ir4 O14'
_cell_volume   276.77075697
_cell_formula_units_Z   2
loop_
 _symmetry_equiv_pos_site_id
 _symmetry_equiv_pos_as_xyz
  1  'x, y, z'
loop_
 _atom_site_type_symbol
 _atom_site_label
 _atom_site_symmetry_multiplicity
 _atom_site_fract_x
 _atom_site_fract_y
 _atom_site_fract_z
 _atom_site_occupancy
  Bi  Bi0  1  0.62500000  0.12500000  0.12500000  1
  Bi  Bi1  1  0.12500000  0.62500000  0.12500000  1
  Bi  Bi2  1  0.12500000  0.12500000  0.62500000  1
  Bi  Bi3  1  0.12500000  0.12500000  0.12500000  1
  Ir  Ir0  1  0.12500000  0.62500000  0.62500000  1
  Ir  Ir1  1  0.62500000  0.12500000  0.62500000  1
  Ir  Ir2  1  0.62500000  0.62500000  0.12500000  1
  Ir  Ir3  1  0.62500000  0.62500000  0.62500000  1
  O  O0  1  0.70717248  0.70717248  0.29282752  1
  O  O1  1  0.29282752  0.29282752  0.70717248  1
  O  O2  1  0.70717248  0.29282752  0.70717248  1
  O  O3  1  0.29282752  0.70717248  0.29282752  1
  O  O4  1  0.29282752  0.70717248  0.70717248  1
  O  O5  1  0.70717248  0.29282752  0.29282752  1
  O  O6  1  0.54282752  0.54282752  0.95717248  1
  O  O7  1  0.95717248  0.95717248  0.54282752  1
  O  O8  1  0.54282752  0.95717248  0.54282752  1
  O  O9  1  0.95717248  0.54282752  0.95717248  1
  O  O10  1  0.95717248  0.54282752  0.54282752  1
  O  O11  1  0.54282752  0.95717248  0.95717248  1
  O  O12  1  0.25000000  0.25000000  0.25000000  1
  O  O13  1  -0.00000000  0.00000000  0.00000000  1
loop_
_geom_bond_atom_site_label_1
_geom_bond_atom_site_label_2
_geom_bond_distance
_geom_bond_site_symmetry_2
Bi0 O12 2.239739 1_555
Bi0 O13 2.239739 1_655
Bi0 O6 2.521615 1_554
Bi0 O8 2.521615 1_545
Bi0 O2 2.521615 1_554
Bi0 O0 2.521615 1_545
Bi0 O5 2.521615 1_555
Bi0 O11 2.521615 1_544
Bi1 O12 2.239739 1_555
Bi1 O13 2.239739 1_565
Bi1 O9 2.521615 1_454
Bi1 O6 2.521615 1_554
Bi1 O4 2.521615 1_554
Bi1 O10 2.521615 1_455
Bi1 O0 2.521615 1_455
Bi1 O3 2.521615 1_555
Bi2 O13 2.239739 1_556
Bi2 O12 2.239739 1_555
Bi2 O8 2.521615 1_545
Bi2 O1 2.521615 1_555
Bi2 O2 2.521615 1_455
Bi2 O7 2.521615 1_445
Bi2 O10 2.521615 1_455
Bi2 O4 2.521615 1_545
Bi3 O13 2.239739 1_555
Bi3 O12 2.239739 1_555
Bi3 O9 2.521615 1_454
Bi3 O5 2.521615 1_455
Bi3 O1 2.521615 1_554
Bi3 O3 2.521615 1_545
Bi3 O7 2.521615 1_445
Bi3 O11 2.521615 1_544
Ir0 O1 2.016656 1_555
Ir0 O9 2.016656 1_455
Ir0 O10 2.016656 1_455
Ir0 O3 2.016656 1_555
Ir0 O7 2.016656 1_455
Ir0 O4 2.016656 1_555
Ir1 O1 2.016656 1_555
Ir1 O5 2.016656 1_555
Ir1 O2 2.016656 1_555
Ir1 O7 2.016656 1_545
Ir1 O11 2.016656 1_545
Ir1 O8 2.016656 1_545
Ir2 O9 2.016656 1_554
Ir2 O5 2.016656 1_555
Ir2 O3 2.016656 1_555
Ir2 O6 2.016656 1_554
Ir2 O0 2.016656 1_555
Ir2 O11 2.016656 1_554
Ir3 O8 2.016656 1_555
Ir3 O2 2.016656 1_555
Ir3 O10 2.016656 1_555
Ir3 O6 2.016656 1_555
Ir3 O0 2.016656 1_555
Ir3 O4 2.016656 1_555
