# generated using pymatgen
data_K2CdSiO4
_symmetry_space_group_name_H-M   'P 1'
_cell_length_a   5.69295100
_cell_length_b   11.44653500
_cell_length_c   16.23032500
_cell_angle_alpha   90.00000000
_cell_angle_beta   90.00000000
_cell_angle_gamma   90.00000000
_symmetry_Int_Tables_number   1
_chemical_formula_structural   K2CdSiO4
_chemical_formula_sum   'K16 Cd8 Si8 O32'
_cell_volume   1057.64203394
_cell_formula_units_Z   8
loop_
 _symmetry_equiv_pos_site_id
 _symmetry_equiv_pos_as_xyz
  1  'x, y, z'
loop_
 _atom_site_type_symbol
 _atom_site_label
 _atom_site_symmetry_multiplicity
 _atom_site_fract_x
 _atom_site_fract_y
 _atom_site_fract_z
 _atom_site_occupancy
  K  K0  1  0.48951800  0.99128200  0.94023200  1
  K  K1  1  0.51048200  0.00871800  0.44023200  1
  K  K2  1  0.51048200  0.49128200  0.94023200  1
  K  K3  1  0.48951800  0.50871800  0.44023200  1
  K  K4  1  0.46112000  0.73917100  0.82025300  1
  K  K5  1  0.53888000  0.26082900  0.32025300  1
  K  K6  1  0.53888000  0.23917100  0.82025300  1
  K  K7  1  0.46112000  0.76082900  0.32025300  1
  K  K8  1  0.00521900  0.01452900  0.05996300  1
  K  K9  1  0.99478100  0.98547100  0.55996300  1
  K  K10  1  0.99478100  0.51452900  0.05996300  1
  K  K11  1  0.00521900  0.48547100  0.55996300  1
  K  K12  1  0.04747100  0.27200000  0.18708800  1
  K  K13  1  0.95252900  0.72800000  0.68708800  1
  K  K14  1  0.95252900  0.77200000  0.18708800  1
  K  K15  1  0.04747100  0.22800000  0.68708800  1
  Cd  Cd0  1  0.99005200  0.98862600  0.81179900  1
  Cd  Cd1  1  0.00994800  0.01137400  0.31179900  1
  Cd  Cd2  1  0.00994800  0.48862600  0.81179900  1
  Cd  Cd3  1  0.99005200  0.51137400  0.31179900  1
  Cd  Cd4  1  0.53512800  0.25818800  0.06443700  1
  Cd  Cd5  1  0.46487200  0.74181200  0.56443700  1
  Cd  Cd6  1  0.46487200  0.75818800  0.06443700  1
  Cd  Cd7  1  0.53512800  0.24181200  0.56443700  1
  Si  Si0  1  0.51463500  0.00788700  0.19001300  1
  Si  Si1  1  0.48536500  0.99211300  0.69001300  1
  Si  Si2  1  0.48536500  0.50788700  0.19001300  1
  Si  Si3  1  0.51463500  0.49211300  0.69001300  1
  Si  Si4  1  0.97720000  0.73226300  0.93340900  1
  Si  Si5  1  0.02280000  0.26773700  0.43340900  1
  Si  Si6  1  0.02280000  0.23226300  0.93340900  1
  Si  Si7  1  0.97720000  0.76773700  0.43340900  1
  O  O0  1  0.72307300  0.69326000  0.97491100  1
  O  O1  1  0.27692700  0.30674000  0.47491100  1
  O  O2  1  0.27692700  0.19326000  0.97491100  1
  O  O3  1  0.72307300  0.80674000  0.47491100  1
  O  O4  1  0.12261200  0.61046500  0.91030700  1
  O  O5  1  0.87738800  0.38953500  0.41030700  1
  O  O6  1  0.87738800  0.11046500  0.91030700  1
  O  O7  1  0.12261200  0.88953500  0.41030700  1
  O  O8  1  0.92922800  0.80611500  0.84736600  1
  O  O9  1  0.07077200  0.19388500  0.34736600  1
  O  O10  1  0.07077200  0.30611500  0.84736600  1
  O  O11  1  0.92922800  0.69388500  0.34736600  1
  O  O12  1  0.35555900  0.03064600  0.77768300  1
  O  O13  1  0.64444100  0.96935400  0.27768300  1
  O  O14  1  0.64444100  0.53064600  0.77768300  1
  O  O15  1  0.35555900  0.46935400  0.27768300  1
  O  O16  1  0.86037800  0.30908900  0.99870500  1
  O  O17  1  0.13962200  0.69091100  0.49870500  1
  O  O18  1  0.13962200  0.80908900  0.99870500  1
  O  O19  1  0.86037800  0.19091100  0.49870500  1
  O  O20  1  0.39504000  0.42663900  0.11137000  1
  O  O21  1  0.60496000  0.57336100  0.61137000  1
  O  O22  1  0.60496000  0.92663900  0.11137000  1
  O  O23  1  0.39504000  0.07336100  0.61137000  1
  O  O24  1  0.58839500  0.14642200  0.17188200  1
  O  O25  1  0.41160500  0.85357800  0.67188200  1
  O  O26  1  0.41160500  0.64642200  0.17188200  1
  O  O27  1  0.58839500  0.35357800  0.67188200  1
  O  O28  1  0.22773600  0.98855300  0.20058700  1
  O  O29  1  0.77226400  0.01144700  0.70058700  1
  O  O30  1  0.77226400  0.48855300  0.20058700  1
  O  O31  1  0.22773600  0.51144700  0.70058700  1
loop_
_geom_bond_atom_site_label_1
_geom_bond_atom_site_label_2
_geom_bond_distance
_geom_bond_site_symmetry_2
K0 O6 2.640614 1_565
K0 O2 2.669581 1_565
K0 O12 2.782955 1_565
K0 O22 2.948666 1_556
K0 O18 3.036069 1_555
K1 O7 2.640614 1_545
K1 O3 2.669581 1_545
K1 O13 2.782955 1_545
K1 O23 2.948666 1_555
K1 O19 3.036069 1_555
K2 O4 2.640614 1_555
K2 O0 2.669581 1_555
K2 O14 2.782955 1_555
K2 O20 2.948666 1_556
K2 O16 3.036069 1_555
K3 O5 2.640614 1_555
K3 O1 2.669581 1_555
K3 O15 2.782955 1_555
K3 O21 2.948666 1_555
K3 O17 3.036069 1_555
K4 O14 2.695143 1_555
K4 O25 2.755614 1_555
K4 O8 2.807597 1_555
K4 O4 2.832044 1_555
K4 O0 2.966641 1_555
K4 O8 3.154334 1_455
K5 O15 2.695143 1_555
K5 O24 2.755614 1_555
K5 O9 2.807597 1_555
K5 O5 2.832044 1_555
K5 O1 2.966641 1_555
K5 O9 3.154334 1_655
K6 O12 2.695143 1_555
K6 O27 2.755614 1_555
K6 O10 2.807597 1_555
K6 O6 2.832044 1_555
K6 O2 2.966641 1_555
K6 O10 3.154334 1_655
K7 O13 2.695143 1_555
K7 O26 2.755614 1_555
K7 O11 2.807597 1_555
K7 O7 2.832044 1_555
K7 O3 2.966641 1_555
K7 O11 3.154334 1_455
K8 O22 2.626884 1_445
K8 O28 2.627235 1_545
K8 O18 2.665309 1_544
K8 O6 2.763218 1_454
K8 O2 2.912683 1_554
K9 O23 2.626884 1_665
K9 O29 2.627235 1_565
K9 O19 2.665309 1_565
K9 O7 2.763218 1_655
K9 O3 2.912683 1_555
K10 O20 2.626884 1_655
K10 O30 2.627235 1_555
K10 O16 2.665309 1_554
K10 O4 2.763218 1_654
K10 O0 2.912683 1_554
K11 O21 2.626884 1_455
K11 O31 2.627235 1_555
K11 O17 2.665309 1_555
K11 O5 2.763218 1_455
K11 O1 2.912683 1_555
K12 O9 2.753941 1_555
K12 O20 2.925522 1_555
K12 O30 2.940584 1_455
K12 O24 2.992907 1_455
K12 O16 3.265442 1_454
K13 O8 2.753941 1_555
K13 O21 2.925522 1_555
K13 O31 2.940584 1_655
K13 O25 2.992907 1_655
K13 O17 3.265442 1_655
K14 O11 2.753941 1_555
K14 O22 2.925522 1_555
K14 O28 2.940584 1_655
K14 O26 2.992907 1_655
K14 O18 3.265442 1_654
K15 O10 2.753941 1_555
K15 O23 2.925522 1_555
K15 O29 2.940584 1_455
K15 O27 2.992907 1_455
K15 O19 3.265442 1_455
Cd0 O8 2.194892 1_555
Cd0 O29 2.205341 1_565
Cd0 O12 2.206293 1_665
Cd0 O6 2.216439 1_565
Cd1 O9 2.194892 1_555
Cd1 O28 2.205341 1_545
Cd1 O13 2.206293 1_445
Cd1 O7 2.216439 1_545
Cd2 O10 2.194892 1_555
Cd2 O31 2.205341 1_555
Cd2 O14 2.206293 1_455
Cd2 O4 2.216439 1_555
Cd3 O11 2.194892 1_555
Cd3 O30 2.205341 1_555
Cd3 O15 2.206293 1_655
Cd3 O5 2.216439 1_555
Cd4 O24 2.183970 1_555
Cd4 O2 2.196439 1_554
Cd4 O16 2.214991 1_554
Cd4 O20 2.221295 1_555
Cd5 O25 2.183970 1_555
Cd5 O3 2.196439 1_555
Cd5 O17 2.214991 1_555
Cd5 O21 2.221295 1_555
Cd6 O26 2.183970 1_555
Cd6 O0 2.196439 1_554
Cd6 O18 2.214991 1_554
Cd6 O22 2.221295 1_555
Cd7 O27 2.183970 1_555
Cd7 O1 2.196439 1_555
Cd7 O19 2.214991 1_555
Cd7 O23 2.221295 1_555
O0 Si4 1.657129 1_555
O1 Si5 1.657129 1_555
O2 Si6 1.657129 1_555
O3 Si7 1.657129 1_555
O4 Si4 1.664205 1_455
O5 Si5 1.664205 1_655
O6 Si6 1.664205 1_655
O7 Si7 1.664205 1_455
O8 Si4 1.655122 1_555
O9 Si5 1.655122 1_555
O10 Si6 1.655122 1_555
O11 Si7 1.655122 1_555
O12 Si1 1.662923 1_545
O13 Si0 1.662923 1_565
O14 Si3 1.662923 1_555
O15 Si2 1.662923 1_555
O16 Si6 1.658750 1_655
O17 Si7 1.658750 1_455
O18 Si4 1.658750 1_455
O19 Si5 1.658750 1_655
O20 Si2 1.660883 1_555
O21 Si3 1.660883 1_555
O22 Si0 1.660883 1_565
O23 Si1 1.660883 1_545
O24 Si0 1.666587 1_555
O25 Si1 1.666587 1_555
O26 Si2 1.666587 1_555
O27 Si3 1.666587 1_555
O28 Si0 1.657138 1_565
O29 Si1 1.657138 1_545
O30 Si2 1.657138 1_555
O31 Si3 1.657138 1_555
