# generated using pymatgen
data_Lu4Ge6Ru7
_symmetry_space_group_name_H-M   'P 1'
_cell_length_a   7.12725435
_cell_length_b   7.12725451
_cell_length_c   7.12725327
_cell_angle_alpha   109.47094318
_cell_angle_beta   109.47134097
_cell_angle_gamma   109.47136809
_symmetry_Int_Tables_number   1
_chemical_formula_structural   Lu4Ge6Ru7
_chemical_formula_sum   'Lu4 Ge6 Ru7'
_cell_volume   278.70507596
_cell_formula_units_Z   1
loop_
 _symmetry_equiv_pos_site_id
 _symmetry_equiv_pos_as_xyz
  1  'x, y, z'
loop_
 _atom_site_type_symbol
 _atom_site_label
 _atom_site_symmetry_multiplicity
 _atom_site_fract_x
 _atom_site_fract_y
 _atom_site_fract_z
 _atom_site_occupancy
  Lu  Lu0  1  0.50000000  0.50000000  0.50000000  1
  Lu  Lu1  1  0.50000000  -0.00000000  -0.00000000  1
  Lu  Lu2  1  -0.00000000  0.50000000  -0.00000000  1
  Lu  Lu3  1  -0.00000000  -0.00000000  0.50000000  1
  Ge  Ge0  1  0.00000000  0.31421119  0.31421119  1
  Ge  Ge1  1  0.31420719  0.00000000  0.31420719  1
  Ge  Ge2  1  0.68579281  -0.00000000  0.68579281  1
  Ge  Ge3  1  0.68579281  0.68579281  -0.00000000  1
  Ge  Ge4  1  0.31420719  0.31420719  0.00000000  1
  Ge  Ge5  1  -0.00000000  0.68578881  0.68578881  1
  Ru  Ru0  1  -0.00000000  -0.00000000  -0.00000000  1
  Ru  Ru1  1  0.50000000  0.75000000  0.25000000  1
  Ru  Ru2  1  0.75000000  0.50000000  0.25000000  1
  Ru  Ru3  1  0.25000000  0.50000000  0.75000000  1
  Ru  Ru4  1  0.75000000  0.25000000  0.50000000  1
  Ru  Ru5  1  0.25000000  0.75000000  0.50000000  1
  Ru  Ru6  1  0.50000000  0.25000000  0.75000000  1
loop_
_geom_bond_atom_site_label_1
_geom_bond_atom_site_label_2
_geom_bond_distance
_geom_bond_site_symmetry_2
Lu0 Ru6 2.909684 1_555
Lu0 Ru1 2.909684 1_555
Lu0 Ru2 2.909691 1_555
Lu0 Ru3 2.909691 1_555
Lu0 Ru5 2.909692 1_555
Lu0 Ru4 2.909692 1_555
Lu1 Ru1 2.909684 1_545
Lu1 Ru6 2.909684 1_554
Lu1 Ru4 2.909692 1_555
Lu1 Ru5 2.909692 1_544
Lu1 Ru2 2.909692 1_555
Lu1 Ru3 2.909692 1_544
Lu2 Ru6 2.909685 1_454
Lu2 Ru1 2.909685 1_555
Lu2 Ru2 2.909691 1_455
Lu2 Ru3 2.909691 1_554
Lu2 Ru4 2.909692 1_454
Lu2 Ru5 2.909692 1_555
Lu3 Ru6 2.909685 1_555
Lu3 Ru1 2.909685 1_445
Lu3 Ru3 2.909692 1_555
Lu3 Ru2 2.909692 1_445
Lu3 Ru5 2.909692 1_545
Lu3 Ru4 2.909692 1_455
Ge0 Ru4 2.563401 1_455
Ge0 Ru5 2.563402 1_555
Ge0 Ru3 2.563402 1_555
Ge0 Ru2 2.563402 1_455
Ge0 Ru0 2.585918 1_555
Ge0 Lu2 2.957283 1_555
Ge0 Lu3 2.957283 1_555
Ge0 Lu0 2.957283 1_555
Ge0 Lu1 2.957283 1_455
Ge1 Ru5 2.563416 1_545
Ge1 Ru4 2.563417 1_555
Ge1 Ru6 2.563425 1_555
Ge1 Ru1 2.563425 1_545
Ge1 Ru0 2.585872 1_555
Ge1 Lu1 2.957283 1_555
Ge1 Lu3 2.957284 1_555
Ge1 Lu0 2.957284 1_555
Ge1 Lu2 2.957284 1_545
Ge2 Ru4 2.563416 1_555
Ge2 Ru5 2.563417 1_545
Ge2 Ru1 2.563425 1_545
Ge2 Ru6 2.563425 1_555
Ge2 Ru0 2.585872 1_656
Ge2 Lu1 2.957283 1_556
Ge2 Lu3 2.957284 1_655
Ge2 Lu0 2.957284 1_545
Ge2 Lu2 2.957284 1_656
Ge3 Ru2 2.563417 1_555
Ge3 Ru3 2.563417 1_554
Ge3 Ru1 2.563425 1_555
Ge3 Ru6 2.563425 1_554
Ge3 Ru0 2.585872 1_665
Ge3 Lu0 2.957284 1_554
Ge3 Lu2 2.957284 1_655
Ge3 Lu1 2.957284 1_565
Ge3 Lu3 2.957284 1_665
Ge4 Ru3 2.563417 1_554
Ge4 Ru2 2.563417 1_555
Ge4 Ru6 2.563425 1_554
Ge4 Ru1 2.563425 1_555
Ge4 Ru0 2.585872 1_555
Ge4 Lu0 2.957284 1_555
Ge4 Lu2 2.957284 1_555
Ge4 Lu1 2.957284 1_555
Ge4 Lu3 2.957284 1_554
Ge5 Ru5 2.563401 1_555
Ge5 Ru4 2.563402 1_455
Ge5 Ru2 2.563402 1_455
Ge5 Ru3 2.563402 1_555
Ge5 Ru0 2.585918 1_566
Ge5 Lu2 2.957283 1_556
Ge5 Lu3 2.957283 1_565
Ge5 Lu0 2.957283 1_455
Ge5 Lu1 2.957283 1_566
