# generated using pymatgen
data_U2Ge4Mo3
_symmetry_space_group_name_H-M   'P 1'
_cell_length_a   7.03701026
_cell_length_b   6.91540299
_cell_length_c   7.05838387
_cell_angle_alpha   70.33630188
_cell_angle_beta   90.00000000
_cell_angle_gamma   90.00000000
_symmetry_Int_Tables_number   1
_chemical_formula_structural   U2Ge4Mo3
_chemical_formula_sum   'U4 Ge8 Mo6'
_cell_volume   323.45667136
_cell_formula_units_Z   2
loop_
 _symmetry_equiv_pos_site_id
 _symmetry_equiv_pos_as_xyz
  1  'x, y, z'
loop_
 _atom_site_type_symbol
 _atom_site_label
 _atom_site_symmetry_multiplicity
 _atom_site_fract_x
 _atom_site_fract_y
 _atom_site_fract_z
 _atom_site_occupancy
  U  U0  1  0.83408189  0.05194070  0.81132027  1
  U  U1  1  0.33408189  0.44805930  0.18867973  1
  U  U2  1  0.16591811  0.94805930  0.18867973  1
  U  U3  1  0.66591811  0.55194070  0.81132027  1
  Ge  Ge0  1  0.04755703  0.36637705  0.90333783  1
  Ge  Ge1  1  0.54755703  0.13362295  0.09666217  1
  Ge  Ge2  1  0.95244297  0.63362295  0.09666217  1
  Ge  Ge3  1  0.45244297  0.86637705  0.90333783  1
  Ge  Ge4  1  0.64089499  0.36441967  0.49345872  1
  Ge  Ge5  1  0.14089499  0.13558033  0.50654128  1
  Ge  Ge6  1  0.35910501  0.63558033  0.50654128  1
  Ge  Ge7  1  0.85910501  0.86441967  0.49345872  1
  Mo  Mo0  1  0.00000000  0.50000000  0.50000000  1
  Mo  Mo1  1  0.50000000  -0.00000000  0.50000000  1
  Mo  Mo2  1  0.34456457  0.25501299  0.75585904  1
  Mo  Mo3  1  0.84456457  0.24498701  0.24414096  1
  Mo  Mo4  1  0.65543543  0.74498701  0.24414096  1
  Mo  Mo5  1  0.15543543  0.75501299  0.75585904  1
loop_
_geom_bond_atom_site_label_1
_geom_bond_atom_site_label_2
_geom_bond_distance
_geom_bond_site_symmetry_2
Ge0 Mo2 2.566030 1_555
Ge0 Mo5 2.645776 1_555
Ge0 Mo3 2.678191 1_456
Ge0 Mo0 2.701913 1_555
Ge0 Ge2 2.724469 1_456
Ge0 U0 2.890891 1_455
Ge0 U3 2.952978 1_455
Ge0 U2 3.032745 1_546
Ge0 U1 3.034223 1_556
Ge1 Mo3 2.566030 1_555
Ge1 Mo4 2.645776 1_545
Ge1 Mo2 2.678191 1_554
Ge1 Mo1 2.701913 1_555
Ge1 Ge3 2.724469 1_544
Ge1 U1 2.890891 1_555
Ge1 U2 2.952978 1_545
Ge1 U3 3.032745 1_554
Ge1 U0 3.034223 1_554
Ge2 Mo4 2.566030 1_555
Ge2 Mo3 2.645776 1_555
Ge2 Mo5 2.678191 1_654
Ge2 Mo0 2.701913 1_655
Ge2 U2 2.890891 1_655
Ge2 U1 2.952978 1_655
Ge2 U0 3.032745 1_564
Ge2 U3 3.034223 1_554
Ge3 Mo5 2.566030 1_555
Ge3 Mo2 2.645776 1_565
Ge3 Mo4 2.678191 1_556
Ge3 Mo1 2.701913 1_565
Ge3 U3 2.890891 1_555
Ge3 U0 2.952978 1_565
Ge3 U1 3.032745 1_556
Ge3 U2 3.034223 1_556
Ge4 Mo3 2.609843 1_555
Ge4 Mo4 2.629954 1_555
Ge4 Mo1 2.694031 1_555
Ge4 Mo0 2.701149 1_655
Ge4 Mo2 2.721784 1_555
Ge4 Ge6 2.752001 1_555
Ge4 U0 2.878984 1_555
Ge4 U3 2.950321 1_555
Ge4 U1 2.964202 1_555
Ge5 Mo2 2.609843 1_555
Ge5 Mo5 2.629954 1_545
Ge5 Mo0 2.694031 1_555
Ge5 Mo1 2.701149 1_555
Ge5 Mo3 2.721784 1_455
Ge5 Ge7 2.752001 1_445
Ge5 U1 2.878984 1_555
Ge5 U2 2.950321 1_545
Ge5 U0 2.964202 1_455
Ge6 Mo5 2.609843 1_555
Ge6 Mo2 2.629954 1_555
Ge6 Mo1 2.694031 1_565
Ge6 Mo0 2.701149 1_555
Ge6 Mo4 2.721784 1_555
Ge6 U2 2.878984 1_555
Ge6 U1 2.950321 1_555
Ge6 U3 2.964202 1_555
Ge7 Mo4 2.609843 1_555
Ge7 Mo3 2.629954 1_565
Ge7 Mo0 2.694031 1_655
Ge7 Mo1 2.701149 1_565
Ge7 Mo5 2.721784 1_655
Ge7 U3 2.878984 1_555
Ge7 U0 2.950321 1_565
Ge7 U2 2.964202 1_655
Mo2 U3 3.166126 1_555
Mo2 U2 3.324917 1_546
Mo3 U2 3.166126 1_645
Mo3 U3 3.324917 1_554
Mo4 U1 3.166126 1_555
Mo4 U0 3.324917 1_564
Mo5 U0 3.166126 1_465
Mo5 U1 3.324917 1_556
