# generated using pymatgen
data_Na3Nd(BO3)2
_symmetry_space_group_name_H-M   'P 1'
_cell_length_a   8.88159700
_cell_length_b   6.67164600
_cell_length_c   12.18936188
_cell_angle_alpha   57.77745433
_cell_angle_beta   90.00000000
_cell_angle_gamma   90.00000000
_symmetry_Int_Tables_number   1
_chemical_formula_structural   Na3Nd(BO3)2
_chemical_formula_sum   'Na12 Nd4 B8 O24'
_cell_volume   611.03611226
_cell_formula_units_Z   4
loop_
 _symmetry_equiv_pos_site_id
 _symmetry_equiv_pos_as_xyz
  1  'x, y, z'
loop_
 _atom_site_type_symbol
 _atom_site_label
 _atom_site_symmetry_multiplicity
 _atom_site_fract_x
 _atom_site_fract_y
 _atom_site_fract_z
 _atom_site_occupancy
  Na  Na0  1  0.81219400  0.41865100  0.60268700  1
  Na  Na1  1  0.31219400  0.58134900  0.89731300  1
  Na  Na2  1  0.56315200  0.38853700  0.39317000  1
  Na  Na3  1  0.73642600  0.81917400  0.65757400  1
  Na  Na4  1  0.43684800  0.61146300  0.60683000  1
  Na  Na5  1  0.68780600  0.41865100  0.10268700  1
  Na  Na6  1  0.26357400  0.18082600  0.34242600  1
  Na  Na7  1  0.18780600  0.58134900  0.39731300  1
  Na  Na8  1  0.23642600  0.18082600  0.84242600  1
  Na  Na9  1  0.06315200  0.61146300  0.10683000  1
  Na  Na10  1  0.93684800  0.38853700  0.89317000  1
  Na  Na11  1  0.76357400  0.81917400  0.15757400  1
  Nd  Nd0  1  0.11440300  0.01320400  0.64589200  1
  Nd  Nd1  1  0.38559700  0.01320400  0.14589200  1
  Nd  Nd2  1  0.88559700  0.98679600  0.35410800  1
  Nd  Nd3  1  0.61440300  0.98679600  0.85410800  1
  B  B0  1  0.56840100  0.87031900  0.37441900  1
  B  B1  1  0.09882300  0.58249700  0.63865900  1
  B  B2  1  0.06840100  0.12968100  0.12558100  1
  B  B3  1  0.93159900  0.87031900  0.87441900  1
  B  B4  1  0.40117700  0.58249700  0.13865900  1
  B  B5  1  0.59882300  0.41750300  0.86134100  1
  B  B6  1  0.43159900  0.12968100  0.62558100  1
  B  B7  1  0.90117700  0.41750300  0.36134100  1
  O  O0  1  0.21174000  0.62209300  0.70467100  1
  O  O1  1  0.10112100  0.38551300  0.63034400  1
  O  O2  1  0.65307500  0.82186600  0.48133700  1
  O  O3  1  0.91950200  0.19920400  0.11702500  1
  O  O4  1  0.60112100  0.61448700  0.86965600  1
  O  O5  1  0.39887900  0.38551300  0.13034400  1
  O  O6  1  0.58049800  0.19920400  0.61702500  1
  O  O7  1  0.13652600  0.00918800  0.24844600  1
  O  O8  1  0.36347400  0.00918800  0.74844600  1
  O  O9  1  0.51831400  0.75018300  0.08467300  1
  O  O10  1  0.63652600  0.99081200  0.25155400  1
  O  O11  1  0.41950200  0.80079600  0.38297500  1
  O  O12  1  0.89887900  0.61448700  0.36965600  1
  O  O13  1  0.84692500  0.82186600  0.98133700  1
  O  O14  1  0.86347400  0.99081200  0.75155400  1
  O  O15  1  0.78826000  0.37790700  0.29532900  1
  O  O16  1  0.15307500  0.17813400  0.01866300  1
  O  O17  1  0.08049800  0.80079600  0.88297500  1
  O  O18  1  0.01831400  0.24981700  0.41532700  1
  O  O19  1  0.48168600  0.24981700  0.91532700  1
  O  O20  1  0.71174000  0.37790700  0.79532900  1
  O  O21  1  0.98168600  0.75018300  0.58467300  1
  O  O22  1  0.28826000  0.62209300  0.20467100  1
  O  O23  1  0.34692500  0.17813400  0.51866300  1
loop_
_geom_bond_atom_site_label_1
_geom_bond_atom_site_label_2
_geom_bond_distance
_geom_bond_site_symmetry_2
Na0 O20 2.388129 1_555
Na0 O14 2.474702 1_545
Na0 O6 2.477064 1_555
Na0 O12 2.531898 1_555
Na0 O1 2.582264 1_655
Na0 O21 2.586258 1_555
Na0 O2 2.679260 1_555
Na1 O0 2.388129 1_555
Na1 O8 2.474702 1_565
Na1 O17 2.477064 1_555
Na1 O5 2.531898 1_556
Na1 O4 2.582264 1_555
Na1 O19 2.586258 1_555
Na1 O16 2.679260 1_556
Na2 O6 2.321463 1_555
Na2 O15 2.348370 1_555
Na2 O23 2.389268 1_555
Na3 O2 2.263193 1_555
Na3 O14 2.301249 1_555
Na3 O21 2.486499 1_555
Na3 O4 2.495441 1_555
Na3 O20 2.502580 1_555
Na3 O6 2.693361 1_565
Na4 O11 2.321463 1_555
Na4 O0 2.348370 1_555
Na4 O2 2.389268 1_555
Na5 O15 2.388129 1_555
Na5 O10 2.474702 1_545
Na5 O3 2.477064 1_555
Na5 O4 2.531898 1_554
Na5 O5 2.582264 1_555
Na5 O9 2.586258 1_555
Na5 O13 2.679260 1_554
Na6 O23 2.263193 1_555
Na6 O7 2.301249 1_555
Na6 O18 2.486499 1_555
Na6 O5 2.495441 1_555
Na6 O22 2.502580 1_555
Na6 O11 2.693361 1_545
Na7 O22 2.388129 1_555
Na7 O7 2.474702 1_565
Na7 O11 2.477064 1_555
Na7 O1 2.531898 1_555
Na7 O12 2.582264 1_455
Na7 O18 2.586258 1_555
Na7 O23 2.679260 1_555
Na8 O16 2.263193 1_556
Na8 O8 2.301249 1_555
Na8 O19 2.486499 1_555
Na8 O1 2.495441 1_555
Na8 O0 2.502580 1_555
Na8 O17 2.693361 1_545
Na9 O17 2.321463 1_554
Na9 O22 2.348370 1_555
Na9 O13 2.389268 1_454
Na10 O3 2.321463 1_556
Na10 O20 2.348370 1_555
Na10 O16 2.389268 1_656
Na11 O13 2.263193 1_554
Na11 O10 2.301249 1_555
Na11 O9 2.486499 1_555
Na11 O12 2.495441 1_555
Na11 O15 2.502580 1_555
Na11 O3 2.693361 1_565
Nd0 O1 2.391159 1_555
Nd0 O23 2.461907 1_555
Nd0 O0 2.464899 1_545
Nd0 O17 2.466384 1_545
Nd0 O18 2.527381 1_555
Nd0 O8 2.534022 1_555
Nd0 O21 2.534159 1_445
Nd0 O14 2.538274 1_445
Nd1 O5 2.391159 1_555
Nd1 O16 2.461907 1_555
Nd1 O22 2.464899 1_545
Nd1 O11 2.466384 1_545
Nd1 O19 2.527381 1_554
Nd1 O7 2.534022 1_555
Nd1 O9 2.534159 1_545
Nd1 O10 2.538274 1_545
Nd2 O12 2.391159 1_555
Nd2 O2 2.461907 1_555
Nd2 O15 2.464899 1_565
Nd2 O3 2.466384 1_565
Nd2 O21 2.527381 1_555
Nd2 O10 2.534022 1_555
Nd2 O18 2.534159 1_665
Nd2 O7 2.538274 1_665
Nd3 O4 2.391159 1_555
Nd3 O13 2.461907 1_555
Nd3 O20 2.464899 1_565
Nd3 O6 2.466384 1_565
Nd3 O9 2.527381 1_556
Nd3 O14 2.534022 1_555
Nd3 O19 2.534159 1_565
Nd3 O8 2.538274 1_565
B0 O2 1.385380 1_555
B0 O11 1.386843 1_555
B0 O10 1.404056 1_555
B1 O1 1.371087 1_555
B1 O0 1.396315 1_555
B1 O21 1.407794 1_455
B2 O16 1.385380 1_555
B2 O3 1.386843 1_455
B2 O7 1.404056 1_555
B3 O13 1.385380 1_555
B3 O17 1.386843 1_655
B3 O14 1.404056 1_555
B4 O5 1.371087 1_555
B4 O22 1.396315 1_555
B4 O9 1.407794 1_555
B5 O4 1.371087 1_555
B5 O20 1.396315 1_555
B5 O19 1.407794 1_555
B6 O23 1.385380 1_555
B6 O6 1.386843 1_555
B6 O8 1.404056 1_555
B7 O12 1.371087 1_555
B7 O15 1.396315 1_555
B7 O18 1.407794 1_655
