# generated using pymatgen
data_Sr2VO4
_symmetry_space_group_name_H-M   'P 1'
_cell_length_a   5.90434900
_cell_length_b   10.23618600
_cell_length_c   14.25889400
_cell_angle_alpha   90.00000000
_cell_angle_beta   90.00000000
_cell_angle_gamma   90.00000000
_symmetry_Int_Tables_number   1
_chemical_formula_structural   Sr2VO4
_chemical_formula_sum   'Sr16 V8 O32'
_cell_volume   861.77924337
_cell_formula_units_Z   8
loop_
 _symmetry_equiv_pos_site_id
 _symmetry_equiv_pos_as_xyz
  1  'x, y, z'
loop_
 _atom_site_type_symbol
 _atom_site_label
 _atom_site_symmetry_multiplicity
 _atom_site_fract_x
 _atom_site_fract_y
 _atom_site_fract_z
 _atom_site_occupancy
  Sr  Sr0  1  0.80681800  0.14199600  0.79405100  1
  Sr  Sr1  1  0.30979100  0.91779700  0.87966800  1
  Sr  Sr2  1  0.22540600  0.27263100  0.45033600  1
  Sr  Sr3  1  0.30681800  0.64199600  0.70594900  1
  Sr  Sr4  1  0.77459400  0.77263100  0.54966400  1
  Sr  Sr5  1  0.72970700  0.49581200  0.37004700  1
  Sr  Sr6  1  0.69020900  0.41779700  0.12033200  1
  Sr  Sr7  1  0.69318200  0.14199600  0.29405100  1
  Sr  Sr8  1  0.72540600  0.77263100  0.04966400  1
  Sr  Sr9  1  0.80979100  0.41779700  0.62033200  1
  Sr  Sr10  1  0.77029300  0.49581200  0.87004700  1
  Sr  Sr11  1  0.22970700  0.99581200  0.12995300  1
  Sr  Sr12  1  0.19020900  0.91779700  0.37966800  1
  Sr  Sr13  1  0.19318200  0.64199600  0.20594900  1
  Sr  Sr14  1  0.27459400  0.27263100  0.95033600  1
  Sr  Sr15  1  0.27029300  0.99581200  0.62995300  1
  V  V0  1  0.22249800  0.62624200  0.97262600  1
  V  V1  1  0.80424300  0.78680800  0.77679000  1
  V  V2  1  0.69575700  0.78680800  0.27679000  1
  V  V3  1  0.30424300  0.28680800  0.72321000  1
  V  V4  1  0.27750200  0.62624200  0.47262600  1
  V  V5  1  0.72249800  0.12624200  0.52737400  1
  V  V6  1  0.77750200  0.12624200  0.02737400  1
  V  V7  1  0.19575700  0.28680800  0.22321000  1
  O  O0  1  0.96412800  0.55654200  0.02625200  1
  O  O1  1  0.49465500  0.42397300  0.74285300  1
  O  O2  1  0.04981400  0.34812400  0.79191000  1
  O  O3  1  0.03587200  0.05654200  0.97374800  1
  O  O4  1  0.56484600  0.00308800  0.01154800  1
  O  O5  1  0.06484600  0.50308800  0.48845200  1
  O  O6  1  0.85820100  0.73942100  0.37859300  1
  O  O7  1  0.45018600  0.34812400  0.29191000  1
  O  O8  1  0.86690600  0.64311400  0.69881500  1
  O  O9  1  0.35820100  0.23942100  0.12140700  1
  O  O10  1  0.78623200  0.26861800  0.45260700  1
  O  O11  1  0.63309400  0.64311400  0.19881500  1
  O  O12  1  0.93515400  0.00308800  0.51154800  1
  O  O13  1  0.62074600  0.19083300  0.63875100  1
  O  O14  1  0.99465500  0.92397300  0.75714700  1
  O  O15  1  0.28623200  0.76861800  0.04739300  1
  O  O16  1  0.50534500  0.92397300  0.25714700  1
  O  O17  1  0.71376800  0.26861800  0.95260700  1
  O  O18  1  0.95018600  0.84812400  0.20809000  1
  O  O19  1  0.87925400  0.19083300  0.13875100  1
  O  O20  1  0.54981400  0.84812400  0.70809000  1
  O  O21  1  0.37925400  0.69083300  0.36124900  1
  O  O22  1  0.36690600  0.14311400  0.80118500  1
  O  O23  1  0.13309400  0.14311400  0.30118500  1
  O  O24  1  0.64179900  0.73942100  0.87859300  1
  O  O25  1  0.53587200  0.55654200  0.52625200  1
  O  O26  1  0.21376800  0.76861800  0.54739300  1
  O  O27  1  0.14179900  0.23942100  0.62140700  1
  O  O28  1  0.43515400  0.50308800  0.98845200  1
  O  O29  1  0.00534500  0.42397300  0.24285300  1
  O  O30  1  0.12074600  0.69083300  0.86124900  1
  O  O31  1  0.46412800  0.05654200  0.47374800  1
loop_
_geom_bond_atom_site_label_1
_geom_bond_atom_site_label_2
_geom_bond_distance
_geom_bond_site_symmetry_2
O0 V0 1.849563 1_654
O0 Sr6 2.536195 1_555
O0 Sr10 2.580148 1_554
O0 Sr8 2.644002 1_555
O0 Sr13 3.026458 1_655
O1 V3 1.820372 1_555
O1 Sr10 2.545328 1_555
O1 Sr3 2.547056 1_555
O1 Sr9 2.553068 1_555
O2 V3 1.900063 1_555
O2 Sr10 2.500107 1_455
O2 Sr0 2.551733 1_455
O2 Sr14 2.731584 1_555
O2 Sr9 2.915897 1_455
O3 V6 1.849563 1_456
O3 Sr1 2.536195 1_545
O3 Sr11 2.580148 1_546
O3 Sr14 2.644002 1_555
O3 Sr0 3.026458 1_455
O4 V6 1.793495 1_555
O4 Sr1 2.562460 1_544
O4 Sr8 2.599803 1_545
O4 Sr11 2.602220 1_545
O5 V4 1.793495 1_555
O5 Sr9 2.562460 1_455
O5 Sr2 2.599803 1_555
O5 Sr5 2.602220 1_455
O6 V2 1.806196 1_555
O6 Sr4 2.511842 1_555
O6 Sr5 2.609331 1_555
O6 Sr12 2.678964 1_655
O7 V7 1.900063 1_555
O7 Sr5 2.500107 1_555
O7 Sr7 2.551733 1_555
O7 Sr2 2.731584 1_555
O7 Sr6 2.915897 1_555
O8 V1 1.880573 1_555
O8 Sr4 2.564700 1_555
O8 Sr9 2.585630 1_555
O8 Sr3 2.599410 1_655
O8 Sr10 2.925782 1_555
O9 V7 1.806196 1_555
O9 Sr14 2.511842 1_554
O9 Sr11 2.609331 1_545
O9 Sr6 2.678964 1_555
O10 V5 1.844490 1_555
O10 Sr2 2.593564 1_655
O10 Sr5 2.627857 1_555
O10 Sr7 2.663297 1_555
O10 Sr9 2.840911 1_555
O11 V2 1.880573 1_555
O11 Sr8 2.564700 1_555
O11 Sr6 2.585630 1_555
O11 Sr13 2.599410 1_555
O11 Sr5 2.925782 1_555
O12 V5 1.793495 1_555
O12 Sr12 2.562460 1_645
O12 Sr4 2.599803 1_545
O12 Sr15 2.602220 1_645
O13 V5 1.822136 1_555
O13 V3 2.430570 1_555
O13 Sr0 2.522002 1_555
O13 Sr9 2.590815 1_555
O13 Sr15 2.877918 1_545
O14 V1 1.820372 1_555
O14 Sr15 2.545328 1_655
O14 Sr0 2.547056 1_565
O14 Sr1 2.553068 1_655
O15 V0 1.844490 1_554
O15 Sr8 2.593564 1_555
O15 Sr11 2.627857 1_555
O15 Sr13 2.663297 1_555
O15 Sr1 2.840911 1_554
O16 V2 1.820372 1_555
O16 Sr11 2.545328 1_555
O16 Sr7 2.547056 1_565
O16 Sr12 2.553068 1_555
O17 V6 1.844490 1_556
O17 Sr14 2.593564 1_555
O17 Sr10 2.627857 1_555
O17 Sr0 2.663297 1_555
O17 Sr6 2.840911 1_556
O18 V2 1.900063 1_555
O18 Sr11 2.500107 1_655
O18 Sr13 2.551733 1_655
O18 Sr8 2.731584 1_555
O18 Sr12 2.915897 1_655
O19 V6 1.822136 1_555
O19 V7 2.430570 1_655
O19 Sr7 2.522002 1_555
O19 Sr6 2.590815 1_555
O19 Sr11 2.877918 1_645
O20 V1 1.900063 1_555
O20 Sr15 2.500107 1_555
O20 Sr3 2.551733 1_555
O20 Sr4 2.731584 1_555
O20 Sr1 2.915897 1_555
O21 V4 1.822136 1_555
O21 V2 2.430570 1_555
O21 Sr13 2.522002 1_555
O21 Sr12 2.590815 1_555
O21 Sr5 2.877918 1_555
O22 V3 1.880573 1_555
O22 Sr14 2.564700 1_555
O22 Sr1 2.585630 1_545
O22 Sr0 2.599410 1_555
O22 Sr15 2.925782 1_545
O23 V7 1.880573 1_555
O23 Sr2 2.564700 1_555
O23 Sr12 2.585630 1_545
O23 Sr7 2.599410 1_455
O23 Sr11 2.925782 1_545
O24 V1 1.806196 1_555
O24 Sr8 2.511842 1_556
O24 Sr10 2.609331 1_555
O24 Sr1 2.678964 1_555
O25 V4 1.849563 1_555
O25 Sr9 2.536195 1_555
O25 Sr5 2.580148 1_555
O25 Sr4 2.644002 1_555
O25 Sr3 3.026458 1_555
O26 V4 1.844490 1_555
O26 Sr4 2.593564 1_455
O26 Sr15 2.627857 1_555
O26 Sr3 2.663297 1_555
O26 Sr12 2.840911 1_555
O27 V3 1.806196 1_555
O27 Sr2 2.511842 1_555
O27 Sr15 2.609331 1_545
O27 Sr9 2.678964 1_455
O28 V0 1.793495 1_555
O28 Sr6 2.562460 1_556
O28 Sr14 2.599803 1_555
O28 Sr10 2.602220 1_555
O29 V7 1.820372 1_555
O29 Sr5 2.545328 1_455
O29 Sr13 2.547056 1_555
O29 Sr6 2.553068 1_455
O30 V0 1.822136 1_555
O30 V1 2.430570 1_455
O30 Sr3 2.522002 1_555
O30 Sr1 2.590815 1_555
O30 Sr10 2.877918 1_455
O31 V5 1.849563 1_555
O31 Sr12 2.536195 1_545
O31 Sr15 2.580148 1_545
O31 Sr2 2.644002 1_555
O31 Sr7 3.026458 1_555
