# generated using pymatgen
data_Na2Gd2MgSi4(O6F)2
_symmetry_space_group_name_H-M   'P 1'
_cell_length_a   7.59545900
_cell_length_b   5.22693500
_cell_length_c   14.49932706
_cell_angle_alpha   89.83647003
_cell_angle_beta   90.00000000
_cell_angle_gamma   90.00000000
_symmetry_Int_Tables_number   1
_chemical_formula_structural   Na2Gd2MgSi4(O6F)2
_chemical_formula_sum   'Na4 Gd4 Mg2 Si8 O24 F4'
_cell_volume   575.63501097
_cell_formula_units_Z   2
loop_
 _symmetry_equiv_pos_site_id
 _symmetry_equiv_pos_as_xyz
  1  'x, y, z'
loop_
 _atom_site_type_symbol
 _atom_site_label
 _atom_site_symmetry_multiplicity
 _atom_site_fract_x
 _atom_site_fract_y
 _atom_site_fract_z
 _atom_site_occupancy
  Na  Na0  1  0.54226400  0.49729700  0.21052600  1
  Na  Na1  1  0.45773600  0.50270300  0.78947400  1
  Na  Na2  1  0.95773600  0.49729700  0.71052600  1
  Na  Na3  1  0.04226400  0.50270300  0.28947400  1
  Gd  Gd0  1  0.77174700  0.48444900  0.95750100  1
  Gd  Gd1  1  0.72825300  0.48444900  0.45750100  1
  Gd  Gd2  1  0.22825300  0.51555100  0.04249900  1
  Gd  Gd3  1  0.27174700  0.51555100  0.54249900  1
  Mg  Mg0  1  0.50000000  0.00000000  0.00000000  1
  Mg  Mg1  1  0.00000000  0.00000000  0.50000000  1
  Si  Si0  1  0.74025300  0.97667900  0.31446100  1
  Si  Si1  1  0.24025300  0.02332100  0.18553900  1
  Si  Si2  1  0.37144600  0.03733800  0.38519700  1
  Si  Si3  1  0.62855400  0.96266200  0.61480300  1
  Si  Si4  1  0.12855400  0.03733800  0.88519700  1
  Si  Si5  1  0.87144600  0.96266200  0.11480300  1
  Si  Si6  1  0.25974700  0.02332100  0.68553900  1
  Si  Si7  1  0.75974700  0.97667900  0.81446100  1
  O  O0  1  0.73951200  0.13932200  0.05369100  1
  O  O1  1  0.54117400  0.86151300  0.34654800  1
  O  O2  1  0.26048800  0.86067800  0.94630900  1
  O  O3  1  0.94238500  0.71189200  0.05869700  1
  O  O4  1  0.76048800  0.13932200  0.55369100  1
  O  O5  1  0.77180400  0.85600500  0.21005100  1
  O  O6  1  0.55761500  0.71189200  0.55869700  1
  O  O7  1  0.87288300  0.83306600  0.38591000  1
  O  O8  1  0.45882600  0.13848700  0.65345200  1
  O  O9  1  0.05761500  0.28810800  0.94130300  1
  O  O10  1  0.12711700  0.16693400  0.61409000  1
  O  O11  1  0.62711700  0.83306600  0.88591000  1
  O  O12  1  0.95882600  0.86151300  0.84654800  1
  O  O13  1  0.04117400  0.13848700  0.15345200  1
  O  O14  1  0.72819600  0.85600500  0.71005100  1
  O  O15  1  0.74287600  0.28579300  0.31465100  1
  O  O16  1  0.37288300  0.16693400  0.11409000  1
  O  O17  1  0.44238500  0.28810800  0.44130300  1
  O  O18  1  0.27180400  0.14399500  0.28994900  1
  O  O19  1  0.24287600  0.71420700  0.18534900  1
  O  O20  1  0.75712400  0.28579300  0.81465100  1
  O  O21  1  0.22819600  0.14399500  0.78994900  1
  O  O22  1  0.25712400  0.71420700  0.68534900  1
  O  O23  1  0.23951200  0.86067800  0.44630900  1
  F  F0  1  0.46117300  0.33684300  0.93871600  1
  F  F1  1  0.53882700  0.66315700  0.06128400  1
  F  F2  1  0.96117300  0.66315700  0.56128400  1
  F  F3  1  0.03882700  0.33684300  0.43871600  1
loop_
_geom_bond_atom_site_label_1
_geom_bond_atom_site_label_2
_geom_bond_distance
_geom_bond_site_symmetry_2
Na0 O15 2.411172 1_555
Na0 O5 2.560282 1_555
Na0 O19 2.566587 1_555
Na0 O16 2.570184 1_555
Na0 O1 2.745065 1_555
Na0 O18 2.990696 1_555
Na1 O22 2.411172 1_555
Na1 O21 2.560282 1_555
Na1 O20 2.566587 1_555
Na1 O11 2.570184 1_555
Na1 O8 2.745065 1_555
Na1 O14 2.990696 1_555
Na2 O20 2.411172 1_555
Na2 O14 2.560282 1_555
Na2 O22 2.566587 1_655
Na2 O10 2.570184 1_655
Na2 O12 2.745065 1_555
Na2 O21 2.990696 1_655
Na3 O19 2.411172 1_555
Na3 O18 2.560282 1_555
Na3 O15 2.566587 1_455
Na3 O7 2.570184 1_455
Na3 O13 2.745065 1_555
Na3 O5 2.990696 1_455
Gd0 O0 2.290197 1_556
Gd0 O3 2.292591 1_556
Gd0 O20 2.322240 1_555
Gd0 O11 2.365136 1_555
Gd0 O9 2.413356 1_655
Gd0 O12 2.910921 1_555
Gd1 O4 2.290197 1_555
Gd1 O6 2.292591 1_555
Gd1 O15 2.322240 1_555
Gd1 O7 2.365136 1_555
Gd1 O17 2.413356 1_555
Gd1 O1 2.910921 1_555
Gd2 O2 2.290197 1_554
Gd2 O9 2.292591 1_554
Gd2 O19 2.322240 1_555
Gd2 O16 2.365136 1_555
Gd2 O3 2.413356 1_455
Gd2 O13 2.910921 1_555
Gd3 O23 2.290197 1_555
Gd3 O17 2.292591 1_555
Gd3 O22 2.322240 1_555
Gd3 O10 2.365136 1_555
Gd3 O6 2.413356 1_555
Gd3 O8 2.910921 1_555
Mg0 O16 2.106721 1_555
Mg0 O11 2.106721 1_544
Mg0 O0 2.109286 1_555
Mg0 O2 2.109286 1_544
Mg1 O10 2.106721 1_555
Mg1 O7 2.106721 1_445
Mg1 O23 2.109286 1_545
Mg1 O4 2.109286 1_455
O0 Si5 1.623984 1_545
O1 Si2 1.680333 1_565
O1 Si0 1.692231 1_555
O2 Si4 1.623984 1_565
O3 Si5 1.635933 1_555
O4 Si3 1.623984 1_545
O5 Si0 1.659081 1_555
O5 Si5 1.669262 1_555
O6 Si3 1.635933 1_555
O7 Si0 1.626988 1_555
O8 Si3 1.680333 1_545
O8 Si6 1.692231 1_555
O9 Si4 1.635933 1_555
O10 Si6 1.626988 1_555
O11 Si7 1.626988 1_555
O12 Si4 1.680333 1_665
O12 Si7 1.692231 1_555
O13 Si5 1.680333 1_445
O13 Si1 1.692231 1_555
O14 Si7 1.659081 1_555
O14 Si3 1.669262 1_555
O15 Si0 1.615852 1_545
O16 Si1 1.626988 1_555
O17 Si2 1.635933 1_555
O18 Si1 1.659081 1_555
O18 Si2 1.669262 1_555
O19 Si1 1.615852 1_565
O20 Si7 1.615852 1_545
O21 Si6 1.659081 1_555
O21 Si4 1.669262 1_555
O22 Si6 1.615852 1_565
O23 Si2 1.623984 1_565
F0 Mg0 1.991864 1_556
F0 Na1 2.328961 1_555
F0 Gd0 2.497057 1_555
F0 Gd2 2.504949 1_556
F1 Mg0 1.991864 1_565
F1 Na0 2.328961 1_555
F1 Gd2 2.497057 1_555
F1 Gd0 2.504949 1_554
F2 Mg1 1.991864 1_665
F2 Na2 2.328961 1_555
F2 Gd3 2.497057 1_655
F2 Gd1 2.504949 1_555
F3 Mg1 1.991864 1_555
F3 Na3 2.328961 1_555
F3 Gd1 2.497057 1_455
F3 Gd3 2.504949 1_555
