# generated using pymatgen
data_CaH2C2O5
_symmetry_space_group_name_H-M   'P 1'
_cell_length_a   14.78365400
_cell_length_b   6.38031200
_cell_length_c   10.16401894
_cell_angle_alpha   70.60755426
_cell_angle_beta   90.00000000
_cell_angle_gamma   90.00000000
_symmetry_Int_Tables_number   1
_chemical_formula_structural   CaH2C2O5
_chemical_formula_sum   'Ca8 H16 C16 O40'
_cell_volume   904.32295856
_cell_formula_units_Z   8
loop_
 _symmetry_equiv_pos_site_id
 _symmetry_equiv_pos_as_xyz
  1  'x, y, z'
loop_
 _atom_site_type_symbol
 _atom_site_label
 _atom_site_symmetry_multiplicity
 _atom_site_fract_x
 _atom_site_fract_y
 _atom_site_fract_z
 _atom_site_occupancy
  Ca  Ca0  1  0.12281700  0.00721000  0.43566100  1
  Ca  Ca1  1  0.62393900  0.96256800  0.44716100  1
  Ca  Ca2  1  0.62281700  0.99279000  0.06433900  1
  Ca  Ca3  1  0.37718300  0.00721000  0.93566100  1
  Ca  Ca4  1  0.87606100  0.96256800  0.94716100  1
  Ca  Ca5  1  0.87718300  0.99279000  0.56433900  1
  Ca  Ca6  1  0.37606100  0.03743200  0.55283900  1
  Ca  Ca7  1  0.12393900  0.03743200  0.05283900  1
  H  H0  1  0.62309800  0.47780700  0.56256400  1
  H  H1  1  0.13319800  0.51551200  0.54691600  1
  H  H2  1  0.37555400  0.48369200  0.28948200  1
  H  H3  1  0.36680200  0.51551200  0.04691600  1
  H  H4  1  0.87690200  0.47780700  0.06256400  1
  H  H5  1  0.62444600  0.51630800  0.71051800  1
  H  H6  1  0.12309800  0.52219300  0.93743600  1
  H  H7  1  0.27848700  0.61039800  0.09267900  1
  H  H8  1  0.22151300  0.61039800  0.59267900  1
  H  H9  1  0.86680200  0.48448800  0.45308400  1
  H  H10  1  0.72151300  0.38960200  0.90732100  1
  H  H11  1  0.37690200  0.52219300  0.43743600  1
  H  H12  1  0.87555400  0.51630800  0.21051800  1
  H  H13  1  0.77848700  0.38960200  0.40732100  1
  H  H14  1  0.63319800  0.48448800  0.95308400  1
  H  H15  1  0.12444600  0.48369200  0.78948200  1
  C  C0  1  0.87225100  0.51775100  0.81774100  1
  C  C1  1  0.57337300  0.99804300  0.75108300  1
  C  C2  1  0.62774900  0.51775100  0.31774100  1
  C  C3  1  0.12774900  0.48224900  0.18225900  1
  C  C4  1  0.88259900  0.44615900  0.68709100  1
  C  C5  1  0.37225100  0.48224900  0.68225900  1
  C  C6  1  0.42662700  0.00195700  0.24891700  1
  C  C7  1  0.61740100  0.44615900  0.18709100  1
  C  C8  1  0.32049200  0.02242300  0.24419700  1
  C  C9  1  0.92662700  0.99804300  0.25108300  1
  C  C10  1  0.82049200  0.97757700  0.25580300  1
  C  C11  1  0.67950800  0.97757700  0.75580300  1
  C  C12  1  0.17950800  0.02242300  0.74419700  1
  C  C13  1  0.38259900  0.55384100  0.81290900  1
  C  C14  1  0.07337300  0.00195700  0.74891700  1
  C  C15  1  0.11740100  0.55384100  0.31290900  1
  O  O0  1  0.53502000  0.00660400  0.63799100  1
  O  O1  1  0.39052300  0.41378400  0.38928600  1
  O  O2  1  0.89169100  0.60133200  0.57135400  1
  O  O3  1  0.84469900  0.38928300  0.39786800  1
  O  O4  1  0.87835500  0.24001900  0.70582700  1
  O  O5  1  0.53491000  0.00517300  0.86106500  1
  O  O6  1  0.64654200  0.36374600  0.43118900  1
  O  O7  1  0.37835500  0.75998100  0.79417300  1
  O  O8  1  0.12164500  0.75998100  0.29417300  1
  O  O9  1  0.15530100  0.61071700  0.60213200  1
  O  O10  1  0.46498000  0.99339600  0.36200900  1
  O  O11  1  0.21840000  0.02740100  0.85426700  1
  O  O12  1  0.78160000  0.97259900  0.14573300  1
  O  O13  1  0.39169100  0.39866800  0.92864600  1
  O  O14  1  0.14654200  0.63625400  0.06881100  1
  O  O15  1  0.28160000  0.02740100  0.35426700  1
  O  O16  1  0.46509000  0.99482700  0.13893500  1
  O  O17  1  0.96498000  0.00660400  0.13799100  1
  O  O18  1  0.60947700  0.58621600  0.61071400  1
  O  O19  1  0.03491000  0.99482700  0.63893500  1
  O  O20  1  0.89052300  0.58621600  0.11071400  1
  O  O21  1  0.35345800  0.63625400  0.56881100  1
  O  O22  1  0.78241600  0.96864300  0.36941600  1
  O  O23  1  0.03502000  0.99339600  0.86200900  1
  O  O24  1  0.87941300  0.72224500  0.80117900  1
  O  O25  1  0.10830900  0.39866800  0.42864600  1
  O  O26  1  0.12058700  0.27775500  0.19882100  1
  O  O27  1  0.96509000  0.00517300  0.36106500  1
  O  O28  1  0.62058700  0.72224500  0.30117900  1
  O  O29  1  0.10947700  0.41378400  0.88928600  1
  O  O30  1  0.37941300  0.27775500  0.69882100  1
  O  O31  1  0.71840000  0.97259900  0.64573300  1
  O  O32  1  0.62164500  0.24001900  0.20582700  1
  O  O33  1  0.34469900  0.61071700  0.10213200  1
  O  O34  1  0.28241600  0.03135700  0.13058400  1
  O  O35  1  0.85345800  0.36374600  0.93118900  1
  O  O36  1  0.21758400  0.03135700  0.63058400  1
  O  O37  1  0.65530100  0.38928300  0.89786800  1
  O  O38  1  0.71758400  0.96864300  0.86941600  1
  O  O39  1  0.60830900  0.60133200  0.07135400  1
loop_
_geom_bond_atom_site_label_1
_geom_bond_atom_site_label_2
_geom_bond_distance
_geom_bond_site_symmetry_2
Ca0 O19 2.419805 1_545
Ca0 O26 2.452781 1_555
Ca0 O27 2.453320 1_455
Ca0 O8 2.462313 1_545
Ca0 O36 2.472731 1_555
Ca0 O15 2.478000 1_555
Ca0 O25 2.484140 1_555
Ca0 O9 2.578892 1_545
Ca1 O18 2.433991 1_555
Ca1 O0 2.435347 1_565
Ca1 O28 2.462919 1_555
Ca1 O22 2.468728 1_555
Ca1 O31 2.472554 1_555
Ca1 O10 2.489414 1_555
Ca1 O32 2.503621 1_565
Ca1 O6 2.532554 1_565
Ca2 O5 2.419805 1_564
Ca2 O28 2.452781 1_555
Ca2 O16 2.453320 1_555
Ca2 O32 2.462313 1_565
Ca2 O38 2.472731 1_554
Ca2 O12 2.478000 1_555
Ca2 O39 2.484140 1_555
Ca2 O37 2.578892 1_564
Ca3 O16 2.419805 1_546
Ca3 O30 2.452781 1_555
Ca3 O5 2.453320 1_555
Ca3 O7 2.462313 1_545
Ca3 O34 2.472731 1_556
Ca3 O11 2.478000 1_555
Ca3 O13 2.484140 1_555
Ca3 O33 2.578892 1_546
Ca4 O20 2.433991 1_556
Ca4 O17 2.435347 1_566
Ca4 O24 2.462919 1_555
Ca4 O38 2.468728 1_555
Ca4 O12 2.472554 1_556
Ca4 O23 2.489414 1_655
Ca4 O4 2.503621 1_565
Ca4 O35 2.532554 1_565
Ca5 O27 2.419805 1_565
Ca5 O24 2.452781 1_555
Ca5 O19 2.453320 1_655
Ca5 O4 2.462313 1_565
Ca5 O22 2.472731 1_555
Ca5 O31 2.478000 1_555
Ca5 O2 2.484140 1_555
Ca5 O3 2.578892 1_565
Ca6 O1 2.433991 1_555
Ca6 O10 2.435347 1_545
Ca6 O30 2.462919 1_555
Ca6 O36 2.468728 1_555
Ca6 O15 2.472554 1_555
Ca6 O0 2.489414 1_555
Ca6 O7 2.503621 1_545
Ca6 O21 2.532554 1_545
Ca7 O29 2.433991 1_554
Ca7 O23 2.435347 1_544
Ca7 O26 2.462919 1_555
Ca7 O34 2.468728 1_555
Ca7 O11 2.472554 1_554
Ca7 O17 2.489414 1_455
Ca7 O8 2.503621 1_545
Ca7 O14 2.532554 1_545
H0 O18 0.991604 1_555
H1 O9 1.008516 1_555
H1 O25 1.652671 1_555
H2 O1 0.988169 1_555
H3 O33 1.008516 1_555
H3 O13 1.652671 1_554
H4 O20 0.991604 1_555
H5 O18 0.988169 1_555
H6 O29 0.991604 1_555
H7 O33 0.983628 1_555
H8 O9 0.983628 1_555
H9 O3 1.008516 1_555
H9 O2 1.652671 1_555
H10 O37 0.983628 1_555
H11 O1 0.991604 1_555
H12 O20 0.988169 1_555
H13 O3 0.983628 1_555
H14 O37 1.008516 1_555
H14 O39 1.652671 1_556
H15 O29 0.988169 1_555
C0 O24 1.263340 1_555
C0 O35 1.272750 1_555
C1 O0 1.266513 1_565
C1 O5 1.268378 1_565
C2 O28 1.263340 1_555
C2 O6 1.272750 1_555
C3 O26 1.263340 1_555
C3 O14 1.272750 1_555
C4 O4 1.266382 1_555
C4 O2 1.268331 1_555
C5 O30 1.263340 1_555
C5 O21 1.272750 1_555
C6 O10 1.266513 1_545
C6 O16 1.268378 1_545
C7 O32 1.266382 1_555
C7 O39 1.268331 1_555
C8 O15 1.267596 1_555
C8 O34 1.268810 1_555
C9 O17 1.266513 1_565
C9 O27 1.268378 1_565
C10 O12 1.267596 1_555
C10 O22 1.268810 1_555
C11 O31 1.267596 1_555
C11 O38 1.268810 1_555
C12 O11 1.267596 1_555
C12 O36 1.268810 1_555
C13 O7 1.266382 1_555
C13 O13 1.268331 1_555
C14 O23 1.266513 1_545
C14 O19 1.268378 1_545
C15 O8 1.266382 1_555
C15 O25 1.268331 1_555
