# generated using pymatgen
data_Ag2TeO4
_symmetry_space_group_name_H-M   'P 1'
_cell_length_a   6.45622840
_cell_length_b   6.45622840
_cell_length_c   13.71695292
_cell_angle_alpha   89.37438693
_cell_angle_beta   89.37438693
_cell_angle_gamma   91.84175966
_symmetry_Int_Tables_number   1
_chemical_formula_structural   Ag2TeO4
_chemical_formula_sum   'Ag12 Te6 O24'
_cell_volume   571.39640540
_cell_formula_units_Z   6
loop_
 _symmetry_equiv_pos_site_id
 _symmetry_equiv_pos_as_xyz
  1  'x, y, z'
loop_
 _atom_site_type_symbol
 _atom_site_label
 _atom_site_symmetry_multiplicity
 _atom_site_fract_x
 _atom_site_fract_y
 _atom_site_fract_z
 _atom_site_occupancy
  Ag  Ag0  1  0.28049574  0.71950426  0.75000000  1
  Ag  Ag1  1  0.73798570  0.61631728  0.67467959  1
  Ag  Ag2  1  0.04176225  0.95823775  0.25000000  1
  Ag  Ag3  1  0.71950426  0.28049574  0.25000000  1
  Ag  Ag4  1  0.95823775  0.04176225  0.75000000  1
  Ag  Ag5  1  0.26201430  0.38368272  0.32532041  1
  Ag  Ag6  1  0.48595732  0.78182528  0.93150344  1
  Ag  Ag7  1  0.21817472  0.51404268  0.56849656  1
  Ag  Ag8  1  0.38368272  0.26201430  0.82532041  1
  Ag  Ag9  1  0.78182528  0.48595732  0.43150344  1
  Ag  Ag10  1  0.61631728  0.73798570  0.17467959  1
  Ag  Ag11  1  0.51404268  0.21817472  0.06849656  1
  Te  Te0  1  0.50030122  0.08653521  0.60404497  1
  Te  Te1  1  0.49969878  0.91346479  0.39595503  1
  Te  Te2  1  0.91346479  0.49969878  0.89595503  1
  Te  Te3  1  0.00000000  0.00000000  0.50000000  1
  Te  Te4  1  0.08653521  0.50030122  0.10404497  1
  Te  Te5  1  0.00000000  0.00000000  0.00000000  1
  O  O0  1  0.95213541  0.72679936  0.54679619  1
  O  O1  1  0.81907868  0.51013773  0.03342954  1
  O  O2  1  0.64445554  0.52387249  0.84973721  1
  O  O3  1  0.11229162  0.80259309  0.09585560  1
  O  O4  1  0.52387249  0.64445554  0.34973721  1
  O  O5  1  0.47612751  0.35554446  0.65026279  1
  O  O6  1  0.80259309  0.11229162  0.59585560  1
  O  O7  1  0.95439491  0.80309074  0.89283860  1
  O  O8  1  0.35554446  0.47612751  0.15026279  1
  O  O9  1  0.72679936  0.95213541  0.04679619  1
  O  O10  1  0.19740691  0.88770838  0.40414440  1
  O  O11  1  0.04786459  0.27320064  0.45320381  1
  O  O12  1  0.47736238  0.05036604  0.27514311  1
  O  O13  1  0.80309074  0.95439491  0.39283860  1
  O  O14  1  0.18092132  0.48986227  0.96657046  1
  O  O15  1  0.05036604  0.47736238  0.77514311  1
  O  O16  1  0.88770838  0.19740691  0.90414440  1
  O  O17  1  0.27320064  0.04786459  0.95320381  1
  O  O18  1  0.52263762  0.94963396  0.72485689  1
  O  O19  1  0.51013773  0.81907868  0.53342954  1
  O  O20  1  0.04560509  0.19690926  0.10716140  1
  O  O21  1  0.19690926  0.04560509  0.60716140  1
  O  O22  1  0.94963396  0.52263762  0.22485689  1
  O  O23  1  0.48986227  0.18092132  0.46657046  1
loop_
_geom_bond_atom_site_label_1
_geom_bond_atom_site_label_2
_geom_bond_distance
_geom_bond_site_symmetry_2
Ag0 O15 2.144335 1_555
Ag0 O18 2.144335 1_555
Ag1 O0 2.313830 1_555
Ag1 O5 2.376261 1_555
Ag1 O2 2.529974 1_555
Ag1 O15 2.630843 1_655
Ag1 O18 2.691003 1_555
Ag1 O19 2.786081 1_555
Ag2 O10 2.396364 1_555
Ag2 O3 2.396364 1_555
Ag2 O13 2.478808 1_455
Ag2 O20 2.478808 1_565
Ag3 O22 2.144335 1_555
Ag3 O12 2.144335 1_555
Ag4 O16 2.396364 1_555
Ag4 O6 2.396364 1_555
Ag4 O7 2.478808 1_545
Ag4 O21 2.478808 1_655
Ag5 O11 2.313830 1_555
Ag5 O4 2.376261 1_555
Ag5 O8 2.529974 1_555
Ag5 O22 2.630843 1_455
Ag5 O12 2.691003 1_555
Ag5 O23 2.786081 1_555
Ag6 O17 2.253768 1_565
Ag6 O2 2.281212 1_555
Ag6 O9 2.471771 1_556
Ag6 O14 2.717330 1_555
Ag7 O0 2.253768 1_455
Ag7 O5 2.281212 1_555
Ag7 O11 2.471771 1_555
Ag7 O19 2.717330 1_555
Ag8 O17 2.313830 1_555
Ag8 O2 2.376261 1_555
Ag8 O5 2.529974 1_555
Ag8 O18 2.630843 1_545
Ag8 O15 2.691003 1_555
Ag8 O14 2.786081 1_555
Ag9 O11 2.253768 1_655
Ag9 O4 2.281212 1_555
Ag9 O0 2.471771 1_555
Ag9 O23 2.717330 1_555
Ag10 O9 2.313830 1_555
Ag10 O8 2.376261 1_555
Ag10 O4 2.529974 1_555
Ag10 O12 2.630843 1_565
Ag10 O22 2.691003 1_555
Ag10 O1 2.786081 1_555
Ag11 O9 2.253768 1_545
Ag11 O8 2.281212 1_555
Ag11 O17 2.471771 1_554
Ag11 O1 2.717330 1_555
O0 Te3 1.885363 1_665
O1 Te2 1.977925 1_554
O1 Te4 1.991534 1_655
O2 Te2 1.866013 1_555
O3 Te4 1.955304 1_555
O3 Te5 1.980503 1_565
O4 Te1 1.866013 1_555
O5 Te0 1.866013 1_555
O6 Te0 1.955304 1_555
O6 Te3 1.980503 1_655
O7 Te2 1.968015 1_555
O7 Te5 1.972248 1_666
O8 Te4 1.866013 1_555
O9 Te5 1.885363 1_665
O10 Te1 1.955304 1_555
O10 Te3 1.980503 1_565
O11 Te3 1.885363 1_555
O12 Te1 1.878738 1_545
O13 Te1 1.968015 1_555
O13 Te3 1.972248 1_665
O14 Te4 1.977925 1_556
O14 Te2 1.991534 1_455
O15 Te2 1.878738 1_455
O16 Te2 1.955304 1_555
O16 Te5 1.980503 1_656
O17 Te5 1.885363 1_556
O18 Te0 1.878738 1_565
O19 Te1 1.977925 1_555
O19 Te0 1.991534 1_565
O20 Te4 1.968015 1_555
O20 Te5 1.972248 1_555
O21 Te0 1.968015 1_555
O21 Te3 1.972248 1_555
O22 Te4 1.878738 1_655
O23 Te0 1.977925 1_555
O23 Te1 1.991534 1_545
