# generated using pymatgen
data_ErFe3
_symmetry_space_group_name_H-M   'P 1'
_cell_length_a   8.58575631
_cell_length_b   8.58575548
_cell_length_c   8.58575501
_cell_angle_alpha   34.81522469
_cell_angle_beta   34.81523372
_cell_angle_gamma   34.81522777
_symmetry_Int_Tables_number   1
_chemical_formula_structural   ErFe3
_chemical_formula_sum   'Er3 Fe9'
_cell_volume   184.14531815
_cell_formula_units_Z   3
loop_
 _symmetry_equiv_pos_site_id
 _symmetry_equiv_pos_as_xyz
  1  'x, y, z'
loop_
 _atom_site_type_symbol
 _atom_site_label
 _atom_site_symmetry_multiplicity
 _atom_site_fract_x
 _atom_site_fract_y
 _atom_site_fract_z
 _atom_site_occupancy
  Er  Er0  1  0.14229219  0.14229219  0.14229219  1
  Er  Er1  1  0.00000000  -0.00000000  0.00000000  1
  Er  Er2  1  0.85770781  0.85770781  0.85770781  1
  Fe  Fe0  1  0.41969033  0.41969033  0.91811462  1
  Fe  Fe1  1  0.91811462  0.41969033  0.41969033  1
  Fe  Fe2  1  0.58030967  0.08188538  0.58030967  1
  Fe  Fe3  1  0.58030967  0.58030967  0.08188538  1
  Fe  Fe4  1  0.41969033  0.91811462  0.41969033  1
  Fe  Fe5  1  0.08188538  0.58030967  0.58030967  1
  Fe  Fe6  1  0.33284027  0.33284027  0.33284027  1
  Fe  Fe7  1  0.66715973  0.66715973  0.66715973  1
  Fe  Fe8  1  0.50000000  0.50000000  0.50000000  1
loop_
_geom_bond_atom_site_label_1
_geom_bond_atom_site_label_2
_geom_bond_distance
_geom_bond_site_symmetry_2
Er0 Fe5 2.967219 1_554
Er0 Fe5 2.967220 1_545
Er0 Fe3 2.967220 1_545
Er0 Fe2 2.967220 1_554
Er0 Fe3 2.967220 1_455
Er0 Fe2 2.967221 1_455
Er0 Fe8 3.023892 1_545
Er0 Fe8 3.023892 1_554
Er0 Fe8 3.023893 1_455
Er0 Fe1 3.051103 1_455
Er0 Fe4 3.051103 1_545
Er0 Fe0 3.051104 1_554
Er0 Er2 3.191439 1_454
Er0 Er2 3.191440 1_445
Er0 Er2 3.191440 1_544
Er0 Er1 3.439428 1_555
Er1 Fe7 2.965964 1_454
Er1 Fe6 2.965964 1_545
Er1 Fe6 2.965965 1_554
Er1 Fe7 2.965965 1_445
Er1 Fe7 2.965965 1_544
Er1 Fe6 2.965965 1_455
Er1 Fe1 3.227286 1_454
Er1 Fe5 3.227286 1_545
Er1 Fe0 3.227287 1_544
Er1 Fe3 3.227287 1_455
Er1 Fe1 3.227287 1_445
Er1 Fe5 3.227287 1_554
Er1 Fe2 3.227287 1_455
Er1 Fe4 3.227287 1_544
Er1 Fe3 3.227287 1_545
Er1 Fe0 3.227287 1_454
Er1 Fe2 3.227288 1_554
Er1 Fe4 3.227288 1_445
Er1 Er2 3.439428 1_444
Er2 Fe1 2.967219 1_556
Er2 Fe1 2.967220 1_565
Er2 Fe0 2.967220 1_565
Er2 Fe4 2.967220 1_556
Er2 Fe0 2.967220 1_655
Er2 Fe4 2.967221 1_655
Er2 Fe8 3.023892 1_565
Er2 Fe8 3.023892 1_556
Er2 Fe8 3.023893 1_655
Er2 Fe5 3.051103 1_655
Er2 Fe2 3.051103 1_565
Er2 Fe3 3.051104 1_556
Fe0 Fe6 2.446305 1_556
Fe0 Fe7 2.459641 1_555
Fe0 Fe8 2.547489 1_555
Fe0 Fe4 2.560485 1_555
Fe0 Fe1 2.560486 1_555
Fe0 Fe4 2.576674 1_546
Fe0 Fe1 2.576675 1_456
Fe1 Fe6 2.446305 1_655
Fe1 Fe7 2.459641 1_555
Fe1 Fe8 2.547489 1_555
Fe1 Fe4 2.560485 1_555
Fe1 Fe4 2.576675 1_645
Fe2 Fe7 2.446305 1_545
Fe2 Fe6 2.459641 1_555
Fe2 Fe8 2.547489 1_555
Fe2 Fe3 2.560485 1_555
Fe2 Fe5 2.560485 1_555
Fe2 Fe3 2.576674 1_546
Fe2 Fe5 2.576675 1_645
Fe3 Fe7 2.446305 1_554
Fe3 Fe6 2.459641 1_555
Fe3 Fe8 2.547489 1_555
Fe3 Fe5 2.560486 1_555
Fe3 Fe5 2.576675 1_654
Fe4 Fe6 2.446305 1_565
Fe4 Fe7 2.459641 1_555
Fe4 Fe8 2.547489 1_555
Fe5 Fe7 2.446305 1_455
Fe5 Fe6 2.459641 1_555
Fe5 Fe8 2.547489 1_555
Fe6 Fe7 2.966036 1_545
Fe6 Fe7 2.966036 1_554
Fe6 Fe7 2.966037 1_455
