# generated using pymatgen
data_V2B(PO4)3
_symmetry_space_group_name_H-M   'P 1'
_cell_length_a   14.15680768
_cell_length_b   14.15680768
_cell_length_c   7.62706600
_cell_angle_alpha   90.00000000
_cell_angle_beta   90.00000000
_cell_angle_gamma   119.99999852
_symmetry_Int_Tables_number   1
_chemical_formula_structural   V2B(PO4)3
_chemical_formula_sum   'V12 B6 P18 O72'
_cell_volume   1323.78912003
_cell_formula_units_Z   6
loop_
 _symmetry_equiv_pos_site_id
 _symmetry_equiv_pos_as_xyz
  1  'x, y, z'
loop_
 _atom_site_type_symbol
 _atom_site_label
 _atom_site_symmetry_multiplicity
 _atom_site_fract_x
 _atom_site_fract_y
 _atom_site_fract_z
 _atom_site_occupancy
  V  V0  1  0.97504300  0.65538400  0.55461900  1
  V  V1  1  0.31965900  0.97504300  0.05461900  1
  V  V2  1  0.97504300  0.65538400  0.94538100  1
  V  V3  1  0.02495700  0.34461600  0.05461900  1
  V  V4  1  0.68034100  0.02495700  0.55461900  1
  V  V5  1  0.68034100  0.02495700  0.94538100  1
  V  V6  1  0.34461600  0.31965900  0.94538100  1
  V  V7  1  0.02495700  0.34461600  0.44538100  1
  V  V8  1  0.65538400  0.68034100  0.44538100  1
  V  V9  1  0.65538400  0.68034100  0.05461900  1
  V  V10  1  0.34461600  0.31965900  0.55461900  1
  V  V11  1  0.31965900  0.97504300  0.44538100  1
  B  B0  1  0.33333300  0.66666700  0.25000000  1
  B  B1  1  0.66666700  0.33333300  0.25000000  1
  B  B2  1  0.33333300  0.66666700  0.75000000  1
  B  B3  1  0.66666700  0.33333300  0.75000000  1
  B  B4  1  0.00000000  0.00000000  0.25000000  1
  B  B5  1  0.00000000  0.00000000  0.75000000  1
  P  P0  1  0.41018400  0.51650000  0.25000000  1
  P  P1  1  0.22148600  0.44468100  0.75000000  1
  P  P2  1  0.22319600  0.77851400  0.75000000  1
  P  P3  1  0.55531900  0.77680400  0.75000000  1
  P  P4  1  0.85359900  0.77879200  0.75000000  1
  P  P5  1  0.07480700  0.85359900  0.25000000  1
  P  P6  1  0.92519300  0.14640100  0.75000000  1
  P  P7  1  0.14640100  0.22120800  0.25000000  1
  P  P8  1  0.89368400  0.41018400  0.75000000  1
  P  P9  1  0.48350000  0.89368400  0.25000000  1
  P  P10  1  0.10631600  0.58981600  0.25000000  1
  P  P11  1  0.44468100  0.22319600  0.25000000  1
  P  P12  1  0.51650000  0.10631600  0.75000000  1
  P  P13  1  0.77680400  0.22148600  0.25000000  1
  P  P14  1  0.77851400  0.55531900  0.25000000  1
  P  P15  1  0.58981600  0.48350000  0.75000000  1
  P  P16  1  0.22120800  0.07480700  0.75000000  1
  P  P17  1  0.77879200  0.92519300  0.25000000  1
  O  O0  1  0.32608700  0.56598900  0.75000000  1
  O  O1  1  0.56590600  0.72518600  0.91803600  1
  O  O2  1  0.76009800  0.32608700  0.25000000  1
  O  O3  1  0.57069600  0.23583700  0.75000000  1
  O  O4  1  0.43409400  0.27481400  0.41803600  1
  O  O5  1  0.63243300  0.90236500  0.75000000  1
  O  O6  1  0.45192100  0.06904200  0.91968700  1
  O  O7  1  0.69592700  0.79894900  0.25000000  1
  O  O8  1  0.96650200  0.89135800  0.75000000  1
  O  O9  1  0.26993200  0.36756700  0.75000000  1
  O  O10  1  0.06904200  0.61712100  0.08031300  1
  O  O11  1  0.20643300  0.22942400  0.41875600  1
  O  O12  1  0.23583700  0.66514000  0.25000000  1
  O  O13  1  0.92485600  0.03349800  0.75000000  1
  O  O14  1  0.76416300  0.33486000  0.75000000  1
  O  O15  1  0.45192100  0.06904200  0.58031300  1
  O  O16  1  0.46773700  0.39417900  0.75000000  1
  O  O17  1  0.03349800  0.10864200  0.25000000  1
  O  O18  1  0.77057600  0.97701000  0.08124400  1
  O  O19  1  0.72518600  0.15928000  0.08196400  1
  O  O20  1  0.02299000  0.79356700  0.41875600  1
  O  O21  1  0.38287900  0.45192100  0.41968700  1
  O  O22  1  0.06904200  0.61712100  0.41968700  1
  O  O23  1  0.10864200  0.07514400  0.75000000  1
  O  O24  1  0.09763500  0.73006800  0.75000000  1
  O  O25  1  0.42930400  0.76416300  0.25000000  1
  O  O26  1  0.79356700  0.77057600  0.58124400  1
  O  O27  1  0.54807900  0.93095800  0.08031300  1
  O  O28  1  0.43409400  0.27481400  0.08196400  1
  O  O29  1  0.07514400  0.96650200  0.25000000  1
  O  O30  1  0.90236500  0.26993200  0.25000000  1
  O  O31  1  0.84072000  0.56590600  0.08196400  1
  O  O32  1  0.20105100  0.89697800  0.25000000  1
  O  O33  1  0.67391300  0.43401100  0.25000000  1
  O  O34  1  0.60582100  0.07355800  0.75000000  1
  O  O35  1  0.92644200  0.53226300  0.75000000  1
  O  O36  1  0.56598900  0.23990200  0.25000000  1
  O  O37  1  0.73006800  0.63243300  0.25000000  1
  O  O38  1  0.27481400  0.84072000  0.58196400  1
  O  O39  1  0.15928000  0.43409400  0.58196400  1
  O  O40  1  0.22942400  0.02299000  0.91875600  1
  O  O41  1  0.61712100  0.54807900  0.91968700  1
  O  O42  1  0.93095800  0.38287900  0.91968700  1
  O  O43  1  0.38287900  0.45192100  0.08031300  1
  O  O44  1  0.22942400  0.02299000  0.58124400  1
  O  O45  1  0.02299000  0.79356700  0.08124400  1
  O  O46  1  0.97701000  0.20643300  0.58124400  1
  O  O47  1  0.54807900  0.93095800  0.41968700  1
  O  O48  1  0.10302200  0.30407300  0.25000000  1
  O  O49  1  0.79894900  0.10302200  0.75000000  1
  O  O50  1  0.89697800  0.69592700  0.75000000  1
  O  O51  1  0.56590600  0.72518600  0.58196400  1
  O  O52  1  0.07355800  0.46773700  0.25000000  1
  O  O53  1  0.97701000  0.20643300  0.91875600  1
  O  O54  1  0.77057600  0.97701000  0.41875600  1
  O  O55  1  0.30407300  0.20105100  0.75000000  1
  O  O56  1  0.72518600  0.15928000  0.41803600  1
  O  O57  1  0.33486000  0.57069600  0.25000000  1
  O  O58  1  0.53226300  0.60582100  0.25000000  1
  O  O59  1  0.93095800  0.38287900  0.58031300  1
  O  O60  1  0.61712100  0.54807900  0.58031300  1
  O  O61  1  0.15928000  0.43409400  0.91803600  1
  O  O62  1  0.27481400  0.84072000  0.91803600  1
  O  O63  1  0.39417900  0.92644200  0.25000000  1
  O  O64  1  0.23990200  0.67391300  0.75000000  1
  O  O65  1  0.89135800  0.92485600  0.25000000  1
  O  O66  1  0.20643300  0.22942400  0.08124400  1
  O  O67  1  0.36756700  0.09763500  0.25000000  1
  O  O68  1  0.84072000  0.56590600  0.41803600  1
  O  O69  1  0.43401100  0.76009800  0.75000000  1
  O  O70  1  0.66514000  0.42930400  0.75000000  1
  O  O71  1  0.79356700  0.77057600  0.91875600  1
loop_
_geom_bond_atom_site_label_1
_geom_bond_atom_site_label_2
_geom_bond_distance
_geom_bond_site_symmetry_2
B0 O12 1.369551 1_555
B0 O25 1.369565 1_555
B0 O57 1.369580 1_555
B1 O2 1.376844 1_555
B1 O36 1.376852 1_555
B1 O33 1.376858 1_555
B2 O64 1.376844 1_555
B2 O69 1.376852 1_555
B2 O0 1.376858 1_555
B3 O14 1.369551 1_555
B3 O3 1.369565 1_555
B3 O70 1.369580 1_555
B4 O29 1.364199 1_545
B4 O17 1.364199 1_555
B4 O65 1.364199 1_445
B5 O13 1.364199 1_455
B5 O8 1.364199 1_445
B5 O23 1.364199 1_555
O0 P1 1.612140 1_555
O1 P3 1.519385 1_555
O1 V9 1.974089 1_556
O2 P13 1.612132 1_555
O3 P12 1.594975 1_555
O4 P11 1.519385 1_555
O4 V10 1.974089 1_555
O5 P3 1.552714 1_555
O5 V5 2.124987 1_565
O5 V4 2.124987 1_565
O6 P12 1.518827 1_555
O6 V1 1.960663 1_546
O7 P17 1.572805 1_555
O7 V9 2.098987 1_555
O7 V8 2.098987 1_555
O8 P4 1.595966 1_555
O9 P1 1.552702 1_555
O9 V6 2.124987 1_555
O9 V10 2.124987 1_555
O10 P10 1.518827 1_555
O10 V2 1.960663 1_454
O11 P7 1.514465 1_555
O11 V10 2.008359 1_555
O12 P10 1.594974 1_555
O13 P6 1.595966 1_555
O14 P8 1.594974 1_555
O15 P12 1.518827 1_555
O15 V11 1.960663 1_545
O16 P15 1.549333 1_555
O16 V10 2.129048 1_555
O16 V6 2.129048 1_555
O17 P7 1.595966 1_555
O18 P17 1.514472 1_555
O18 V5 2.008350 1_564
O19 P13 1.519390 1_555
O19 V5 1.974089 1_554
O20 P5 1.514468 1_555
O20 V0 2.008362 1_455
O21 P0 1.518827 1_555
O21 V10 1.960663 1_555
O22 P10 1.518827 1_555
O22 V0 1.960663 1_455
O23 P16 1.595966 1_555
O24 P2 1.552715 1_555
O24 V0 2.124987 1_455
O24 V2 2.124987 1_455
O25 P9 1.594975 1_555
O26 P4 1.514465 1_555
O26 V8 2.008359 1_555
O27 P9 1.518827 1_555
O27 V5 1.960663 1_564
O28 P11 1.519385 1_555
O28 V6 1.974089 1_554
O29 P5 1.595966 1_555
O30 P13 1.552715 1_555
O30 V7 2.124987 1_655
O30 V3 2.124987 1_655
O31 P14 1.519392 1_555
O31 V2 1.974089 1_554
O32 P5 1.572805 1_555
O32 V11 2.098987 1_555
O32 V1 2.098987 1_555
O33 P14 1.612140 1_555
O34 P12 1.549333 1_555
O34 V4 2.129048 1_555
O34 V5 2.129048 1_555
O35 P8 1.549333 1_555
O35 V2 2.129048 1_555
O35 V0 2.129048 1_555
O36 P11 1.612146 1_555
O37 P14 1.552702 1_555
O37 V8 2.124987 1_555
O37 V9 2.124987 1_555
O38 P2 1.519390 1_555
O38 V11 1.974089 1_555
O39 P1 1.519392 1_555
O39 V7 1.974089 1_555
O40 P16 1.514472 1_555
O40 V1 2.008350 1_546
O41 P15 1.518827 1_555
O41 V9 1.960663 1_556
O42 P8 1.518827 1_555
O42 V3 1.960663 1_656
O43 P0 1.518827 1_555
O43 V6 1.960663 1_554
O44 P16 1.514472 1_555
O44 V11 2.008350 1_545
O45 P5 1.514468 1_555
O45 V2 2.008362 1_454
O46 P6 1.514468 1_555
O46 V7 2.008362 1_655
O47 P9 1.518827 1_555
O47 V4 1.960663 1_565
O48 P7 1.572805 1_555
O48 V3 2.098987 1_555
O48 V7 2.098987 1_555
O49 P6 1.572805 1_555
O49 V4 2.098987 1_555
O49 V5 2.098987 1_555
O50 P4 1.572805 1_555
O50 V2 2.098987 1_555
O50 V0 2.098987 1_555
O51 P3 1.519385 1_555
O51 V8 1.974089 1_555
O52 P10 1.549333 1_555
O52 V3 2.129048 1_555
O52 V7 2.129048 1_555
O53 P6 1.514468 1_555
O53 V3 2.008362 1_656
O54 P17 1.514472 1_555
O54 V4 2.008350 1_565
O55 P16 1.572805 1_555
O55 V6 2.098987 1_555
O55 V10 2.098987 1_555
O56 P13 1.519390 1_555
O56 V4 1.974089 1_555
O57 P0 1.594962 1_555
O58 P0 1.549333 1_555
O58 V8 2.129048 1_555
O58 V9 2.129048 1_555
O59 P8 1.518827 1_555
O59 V7 1.960663 1_655
O60 P15 1.518827 1_555
O60 V8 1.960663 1_555
O61 P1 1.519392 1_555
O61 V3 1.974089 1_556
O62 P2 1.519390 1_555
O62 V1 1.974089 1_556
O63 P9 1.549333 1_555
O63 V1 2.129048 1_555
O63 V11 2.129048 1_555
O64 P2 1.612132 1_555
O65 P17 1.595966 1_555
O66 P7 1.514465 1_555
O66 V6 2.008359 1_554
O67 P11 1.552714 1_555
O67 V11 2.124987 1_545
O67 V1 2.124987 1_545
O68 P14 1.519392 1_555
O68 V0 1.974089 1_555
O69 P3 1.612146 1_555
O70 P15 1.594962 1_555
O71 P4 1.514465 1_555
O71 V9 2.008359 1_556
