# generated using pymatgen
data_Al3Pb5F19
_symmetry_space_group_name_H-M   'P 1'
_cell_length_a   10.84466501
_cell_length_b   10.84466501
_cell_length_c   10.84466501
_cell_angle_alpha   97.01428334
_cell_angle_beta   97.01428334
_cell_angle_gamma   139.09238601
_symmetry_Int_Tables_number   1
_chemical_formula_structural   Al3Pb5F19
_chemical_formula_sum   'Al6 Pb10 F38'
_cell_volume   782.53330390
_cell_formula_units_Z   2
loop_
 _symmetry_equiv_pos_site_id
 _symmetry_equiv_pos_as_xyz
  1  'x, y, z'
loop_
 _atom_site_type_symbol
 _atom_site_label
 _atom_site_symmetry_multiplicity
 _atom_site_fract_x
 _atom_site_fract_y
 _atom_site_fract_z
 _atom_site_occupancy
  Al  Al0  1  0.85951100  0.35951100  0.17798400  1
  Al  Al1  1  0.35951100  0.18152700  0.50000000  1
  Al  Al2  1  0.68152700  0.85951100  0.50000000  1
  Al  Al3  1  0.18152700  0.68152700  0.82201600  1
  Al  Al4  1  0.81674300  0.81674300  0.00000000  1
  Al  Al5  1  0.31674300  0.31674300  0.00000000  1
  Pb  Pb0  1  0.55310600  0.25450900  0.84850800  1
  Pb  Pb1  1  0.25450900  0.40600100  0.70140300  1
  Pb  Pb2  1  0.70459800  0.55310600  0.29859700  1
  Pb  Pb3  1  0.40600100  0.70459800  0.15149200  1
  Pb  Pb4  1  0.20459800  0.90600100  0.15149200  1
  Pb  Pb5  1  0.75450900  0.05310600  0.84850800  1
  Pb  Pb6  1  0.05310600  0.20459800  0.29859700  1
  Pb  Pb7  1  0.90600100  0.75450900  0.70140300  1
  Pb  Pb8  1  0.86154900  0.36154900  0.50000000  1
  Pb  Pb9  1  0.36154900  0.86154900  0.50000000  1
  F  F0  1  0.06095900  0.42381300  0.13954200  1
  F  F1  1  0.42381300  0.28427000  0.36285400  1
  F  F2  1  0.92141600  0.06095900  0.63714600  1
  F  F3  1  0.28427000  0.92141600  0.86045800  1
  F  F4  1  0.42141600  0.78427000  0.86045800  1
  F  F5  1  0.92381300  0.56095900  0.13954200  1
  F  F6  1  0.56095900  0.42141600  0.63714600  1
  F  F7  1  0.78427000  0.92381300  0.36285400  1
  F  F8  1  0.66622500  0.29158000  0.23599400  1
  F  F9  1  0.29158000  0.05558600  0.62535500  1
  F  F10  1  0.43023100  0.66622500  0.37464500  1
  F  F11  1  0.05558600  0.43023100  0.76400600  1
  F  F12  1  0.93023100  0.55558600  0.76400600  1
  F  F13  1  0.79158000  0.16622500  0.23599400  1
  F  F14  1  0.16622500  0.93023100  0.37464500  1
  F  F15  1  0.55558600  0.79158000  0.62535500  1
  F  F16  1  0.03216500  0.53216500  0.34587500  1
  F  F17  1  0.53216500  0.18629000  0.50000000  1
  F  F18  1  0.68629000  0.03216500  0.50000000  1
  F  F19  1  0.18629000  0.68629000  0.65412500  1
  F  F20  1  0.70101700  0.20101700  0.00978500  1
  F  F21  1  0.20101700  0.19123200  0.50000000  1
  F  F22  1  0.69123200  0.70101700  0.50000000  1
  F  F23  1  0.19123200  0.69123200  0.99021500  1
  F  F24  1  0.57158200  0.57158200  0.00000000  1
  F  F25  1  0.07158200  0.07158200  0.00000000  1
  F  F26  1  0.37819200  0.43904300  0.16712200  1
  F  F27  1  0.43904300  0.27192100  0.06085200  1
  F  F28  1  0.21107000  0.37819200  0.93914800  1
  F  F29  1  0.27192100  0.21107000  0.83287800  1
  F  F30  1  0.71107000  0.77192100  0.83287800  1
  F  F31  1  0.93904300  0.87819200  0.16712200  1
  F  F32  1  0.87819200  0.71107000  0.93914800  1
  F  F33  1  0.77192100  0.93904300  0.06085200  1
  F  F34  1  0.60349600  0.10349600  0.73050800  1
  F  F35  1  0.10349600  0.37298800  0.50000000  1
  F  F36  1  0.87298800  0.60349600  0.50000000  1
  F  F37  1  0.37298800  0.87298800  0.26949200  1
loop_
_geom_bond_atom_site_label_1
_geom_bond_atom_site_label_2
_geom_bond_distance
_geom_bond_site_symmetry_2
Al0 F20 1.799677 1_555
Al0 F16 1.833649 1_655
Al0 F0 1.850255 1_655
Al0 F5 1.850255 1_555
Al0 F8 1.852934 1_555
Al0 F13 1.852934 1_555
Al1 F21 1.799677 1_555
Al1 F17 1.833649 1_555
Al1 F6 1.850251 1_555
Al1 F1 1.850251 1_555
Al1 F14 1.852934 1_545
Al1 F9 1.852934 1_555
Al2 F22 1.799677 1_555
Al2 F18 1.833649 1_565
Al2 F2 1.850251 1_565
Al2 F7 1.850251 1_555
Al2 F15 1.852934 1_555
Al2 F10 1.852934 1_555
Al3 F23 1.799677 1_555
Al3 F19 1.833649 1_555
Al3 F4 1.850251 1_555
Al3 F3 1.850251 1_555
Al3 F11 1.852934 1_555
Al3 F12 1.852934 1_455
Al4 F30 1.808281 1_554
Al4 F31 1.808281 1_555
Al4 F33 1.808284 1_555
Al4 F32 1.808284 1_554
Al4 F24 1.858169 1_555
Al4 F25 1.931522 1_665
Al5 F26 1.808281 1_555
Al5 F29 1.808281 1_554
Al5 F27 1.808284 1_555
Al5 F28 1.808284 1_554
Al5 F25 1.858169 1_555
Al5 F24 1.931522 1_555
F0 Pb3 2.419338 1_555
F1 Pb2 2.419341 1_555
F2 Pb1 2.419341 1_655
F3 Pb0 2.419345 1_565
F4 Pb5 2.419345 1_565
F5 Pb4 2.419338 1_655
F6 Pb7 2.419341 1_555
F7 Pb6 2.419341 1_665
F8 Pb2 2.520843 1_555
F9 Pb0 2.520843 1_555
F10 Pb3 2.520843 1_555
F11 Pb1 2.520843 1_555
F12 Pb7 2.520843 1_555
F13 Pb6 2.520843 1_655
F14 Pb4 2.520843 1_555
F15 Pb5 2.520843 1_565
F16 Pb8 2.444709 1_455
F16 Pb9 2.471834 1_555
F17 Pb9 2.444709 1_545
F17 Pb8 2.471834 1_555
F18 Pb9 2.444709 1_545
F18 Pb8 2.471834 1_555
F19 Pb8 2.444709 1_455
F19 Pb9 2.471834 1_555
F20 Pb5 2.633927 1_554
F20 Pb0 2.633927 1_554
F21 Pb6 2.633927 1_555
F21 Pb1 2.633927 1_555
F22 Pb7 2.633927 1_555
F22 Pb2 2.633927 1_555
F23 Pb4 2.633927 1_556
F23 Pb3 2.633927 1_556
F26 Pb3 2.689271 1_555
F26 Pb2 2.794844 1_555
F27 Pb2 2.689263 1_555
F27 Pb0 2.794853 1_554
F28 Pb1 2.689260 1_555
F28 Pb3 2.794850 1_556
F29 Pb0 2.689271 1_555
F29 Pb1 2.794844 1_555
F30 Pb5 2.689271 1_565
F30 Pb7 2.794844 1_555
F31 Pb4 2.689271 1_655
F31 Pb6 2.794844 1_665
F32 Pb7 2.689260 1_555
F32 Pb4 2.794850 1_656
F33 Pb6 2.689263 1_665
F33 Pb5 2.794853 1_564
F34 Pb5 2.372734 1_555
F34 Pb0 2.372734 1_555
F34 Pb9 2.531384 1_545
F35 Pb6 2.372734 1_555
F35 Pb1 2.372734 1_555
F35 Pb8 2.531384 1_455
F36 Pb7 2.372734 1_555
F36 Pb2 2.372734 1_555
F36 Pb8 2.531384 1_555
F37 Pb4 2.372734 1_555
F37 Pb3 2.372734 1_555
F37 Pb9 2.531384 1_555
