# generated using pymatgen
data_Nd(MoO2)6
_symmetry_space_group_name_H-M   'P 1'
_cell_length_a   8.36088285
_cell_length_b   8.36088285
_cell_length_c   8.36088285
_cell_angle_alpha   105.83998732
_cell_angle_beta   105.83998732
_cell_angle_gamma   117.00682002
_symmetry_Int_Tables_number   1
_chemical_formula_structural   Nd(MoO2)6
_chemical_formula_sum   'Nd2 Mo12 O24'
_cell_volume   444.00982407
_cell_formula_units_Z   2
loop_
 _symmetry_equiv_pos_site_id
 _symmetry_equiv_pos_as_xyz
  1  'x, y, z'
loop_
 _atom_site_type_symbol
 _atom_site_label
 _atom_site_symmetry_multiplicity
 _atom_site_fract_x
 _atom_site_fract_y
 _atom_site_fract_z
 _atom_site_occupancy
  Nd  Nd0  1  0.79254000  0.79254000  0.00000000  1
  Nd  Nd1  1  0.20746000  0.20746000  0.00000000  1
  Mo  Mo0  1  0.81578200  0.33689300  0.15267500  1
  Mo  Mo1  1  0.00231400  0.15368400  0.47595900  1
  Mo  Mo2  1  0.33689300  0.18421800  0.52111000  1
  Mo  Mo3  1  0.15368400  0.67772500  0.15137000  1
  Mo  Mo4  1  0.18421800  0.66310700  0.84732500  1
  Mo  Mo5  1  0.52635500  0.00231400  0.84863000  1
  Mo  Mo6  1  0.66310700  0.81578200  0.47889000  1
  Mo  Mo7  1  0.67772500  0.52635500  0.52404100  1
  Mo  Mo8  1  0.84631600  0.32227500  0.84863000  1
  Mo  Mo9  1  0.99768600  0.84631600  0.52404100  1
  Mo  Mo10  1  0.47364500  0.99768600  0.15137000  1
  Mo  Mo11  1  0.32227500  0.47364500  0.47595900  1
  O  O0  1  0.50376700  0.20772700  0.04352700  1
  O  O1  1  0.16420000  0.46023900  0.95647300  1
  O  O2  1  0.83548900  0.12359400  0.62611400  1
  O  O3  1  0.12359400  0.49748000  0.28810500  1
  O  O4  1  0.83605600  0.53936400  0.37542000  1
  O  O5  1  0.46023900  0.50376700  0.29603900  1
  O  O6  1  0.46063600  0.83605600  0.29669200  1
  O  O7  1  0.49623300  0.79227300  0.95647300  1
  O  O8  1  0.49748000  0.20937500  0.37388600  1
  O  O9  1  0.87640600  0.50252000  0.71189500  1
  O  O10  1  0.12344500  0.15724200  0.28068700  1
  O  O11  1  0.15724200  0.87655500  0.03379800  1
  O  O12  1  0.79227300  0.83580000  0.29603900  1
  O  O13  1  0.83580000  0.53976100  0.04352700  1
  O  O14  1  0.16394400  0.46063600  0.62458000  1
  O  O15  1  0.53976100  0.49623300  0.70396100  1
  O  O16  1  0.20772700  0.16420000  0.70396100  1
  O  O17  1  0.87655500  0.84275800  0.71931300  1
  O  O18  1  0.50252000  0.79062500  0.62611400  1
  O  O19  1  0.20937500  0.83548900  0.71189500  1
  O  O20  1  0.53936400  0.16394400  0.70330800  1
  O  O21  1  0.79062500  0.16451100  0.28810500  1
  O  O22  1  0.84275800  0.12344500  0.96620200  1
  O  O23  1  0.16451100  0.87640600  0.37388600  1
loop_
_geom_bond_atom_site_label_1
_geom_bond_atom_site_label_2
_geom_bond_distance
_geom_bond_site_symmetry_2
Nd0 O13 2.402544 1_555
Nd0 O12 2.402544 1_555
Nd0 O15 2.402546 1_554
Nd0 O7 2.402552 1_554
Nd0 O11 2.710550 1_655
Nd0 O17 2.710552 1_554
Nd0 O10 2.710552 1_665
Nd0 O22 2.710556 1_564
Nd1 O1 2.402544 1_554
Nd1 O16 2.402544 1_554
Nd1 O5 2.402546 1_555
Nd1 O0 2.402552 1_555
Nd1 O22 2.710550 1_454
Nd1 O17 2.710552 1_444
Nd1 O10 2.710552 1_555
Nd1 O11 2.710556 1_545
Mo0 O21 2.036963 1_555
Mo0 O3 2.036963 1_655
Mo0 O4 2.051531 1_555
Mo0 O0 2.099586 1_555
Mo0 O13 2.099593 1_555
Mo0 O22 2.169116 1_554
Mo1 O14 2.036983 1_555
Mo1 O21 2.076829 1_455
Mo1 O2 2.096311 1_455
Mo1 O12 2.132395 1_445
Mo1 O16 2.139016 1_555
Mo1 O10 2.143338 1_555
Mo2 O8 2.036956 1_555
Mo2 O23 2.036962 1_545
Mo2 O20 2.051535 1_555
Mo2 O15 2.099589 1_555
Mo2 O16 2.099601 1_555
Mo2 O10 2.169106 1_555
Mo3 O6 2.036983 1_555
Mo3 O23 2.076829 1_555
Mo3 O3 2.096311 1_555
Mo3 O13 2.132395 1_455
Mo3 O1 2.139016 1_554
Mo3 O11 2.143333 1_555
Mo4 O9 2.036963 1_455
Mo4 O19 2.036963 1_555
Mo4 O14 2.051531 1_555
Mo4 O7 2.099586 1_555
Mo4 O1 2.099593 1_555
Mo4 O11 2.169116 1_556
Mo5 O20 2.036983 1_555
Mo5 O18 2.076829 1_545
Mo5 O19 2.096311 1_545
Mo5 O7 2.132394 1_545
Mo5 O0 2.139011 1_556
Mo5 O22 2.143338 1_555
Mo6 O18 2.036956 1_555
Mo6 O2 2.036962 1_565
Mo6 O6 2.051535 1_555
Mo6 O5 2.099589 1_555
Mo6 O12 2.099601 1_555
Mo6 O17 2.169106 1_555
Mo7 O4 2.036983 1_555
Mo7 O9 2.076829 1_555
Mo7 O8 2.096311 1_555
Mo7 O15 2.132396 1_555
Mo7 O5 2.139021 1_555
Mo7 O17 2.143338 1_555
Mo8 O20 2.036983 1_555
Mo8 O2 2.076829 1_555
Mo8 O9 2.096311 1_555
Mo8 O1 2.132395 1_655
Mo8 O13 2.139016 1_556
Mo8 O22 2.143333 1_555
Mo9 O4 2.036983 1_555
Mo9 O19 2.076829 1_655
Mo9 O23 2.096311 1_655
Mo9 O16 2.132395 1_665
Mo9 O12 2.139016 1_555
Mo9 O17 2.143338 1_555
Mo10 O6 2.036983 1_555
Mo10 O8 2.076829 1_565
Mo10 O21 2.096311 1_565
Mo10 O0 2.132394 1_565
Mo10 O7 2.139011 1_554
Mo10 O11 2.143338 1_555
Mo11 O14 2.036983 1_555
Mo11 O3 2.076829 1_555
Mo11 O18 2.096311 1_555
Mo11 O5 2.132396 1_555
Mo11 O15 2.139021 1_555
Mo11 O10 2.143338 1_555
