# generated using pymatgen
data_NdMgSi2
_symmetry_space_group_name_H-M   'P 1'
_cell_length_a   4.25962535
_cell_length_b   4.25962524
_cell_length_c   18.57314915
_cell_angle_alpha   96.58467332
_cell_angle_beta   96.58467079
_cell_angle_gamma   90.00000885
_symmetry_Int_Tables_number   1
_chemical_formula_structural   NdMgSi2
_chemical_formula_sum   'Nd4 Mg4 Si8'
_cell_volume   332.53788842
_cell_formula_units_Z   4
loop_
 _symmetry_equiv_pos_site_id
 _symmetry_equiv_pos_as_xyz
  1  'x, y, z'
loop_
 _atom_site_type_symbol
 _atom_site_label
 _atom_site_symmetry_multiplicity
 _atom_site_fract_x
 _atom_site_fract_y
 _atom_site_fract_z
 _atom_site_occupancy
  Nd  Nd0  1  0.70270542  0.95270542  0.90541084  1
  Nd  Nd1  1  0.54729458  0.79729458  0.59458916  1
  Nd  Nd2  1  0.45270542  0.20270542  0.40541084  1
  Nd  Nd3  1  0.29729458  0.04729458  0.09458916  1
  Mg  Mg0  1  0.62499628  0.37499628  0.74999357  1
  Mg  Mg1  1  0.87499628  0.12499628  0.24999357  1
  Mg  Mg2  1  0.37500372  0.62500372  0.25000643  1
  Mg  Mg3  1  0.12500372  0.87500372  0.75000643  1
  Si  Si0  1  0.07712249  0.32712249  0.65424498  1
  Si  Si1  1  0.76426661  0.51426661  0.02853423  1
  Si  Si2  1  0.17287751  0.42287751  0.84575502  1
  Si  Si3  1  0.92287751  0.67287751  0.34575502  1
  Si  Si4  1  0.98573339  0.73573339  0.47146577  1
  Si  Si5  1  0.82712249  0.57712249  0.15424498  1
  Si  Si6  1  0.01426661  0.26426661  0.52853423  1
  Si  Si7  1  0.23573339  0.48573339  0.97146577  1
loop_
_geom_bond_atom_site_label_1
_geom_bond_atom_site_label_2
_geom_bond_distance
_geom_bond_site_symmetry_2
Nd0 Si1 3.102897 1_566
Nd0 Si1 3.102900 1_556
Nd0 Si2 3.204305 1_665
Nd0 Si2 3.204306 1_555
Nd0 Si2 3.204306 1_655
Nd0 Si2 3.204306 1_565
Nd0 Si7 3.246191 1_555
Nd0 Si7 3.246194 1_565
Nd0 Si7 3.246194 1_655
Nd0 Si7 3.246197 1_665
Nd1 Si4 3.102897 1_455
Nd1 Si4 3.102899 1_555
Nd1 Si0 3.204305 1_555
Nd1 Si0 3.204306 1_665
Nd1 Si0 3.204306 1_565
Nd1 Si0 3.204306 1_655
Nd1 Si6 3.246191 1_665
Nd1 Si6 3.246194 1_655
Nd1 Si6 3.246194 1_565
Nd1 Si6 3.246197 1_555
Nd2 Si6 3.102897 1_655
Nd2 Si6 3.102899 1_555
Nd2 Si3 3.204305 1_555
Nd2 Si3 3.204306 1_445
Nd2 Si3 3.204306 1_545
Nd2 Si3 3.204306 1_455
Nd2 Si4 3.246191 1_445
Nd2 Si4 3.246194 1_455
Nd2 Si4 3.246194 1_545
Nd2 Si4 3.246197 1_555
Nd3 Si7 3.102897 1_544
Nd3 Si7 3.102900 1_554
Nd3 Si5 3.204305 1_445
Nd3 Si5 3.204306 1_555
Nd3 Si5 3.204306 1_455
Nd3 Si5 3.204306 1_545
Nd3 Si1 3.246191 1_555
Nd3 Si1 3.246194 1_545
Nd3 Si1 3.246194 1_455
Nd3 Si1 3.246197 1_445
Mg0 Si0 2.759613 1_555
Mg0 Si0 2.759615 1_655
Mg0 Si2 2.759762 1_555
Mg0 Si2 2.759766 1_655
Mg1 Si5 2.759612 1_545
Mg1 Si5 2.759615 1_555
Mg1 Si3 2.759762 1_545
Mg1 Si3 2.759766 1_555
Mg2 Si3 2.759613 1_555
Mg2 Si3 2.759615 1_455
Mg2 Si5 2.759762 1_555
Mg2 Si5 2.759766 1_455
Mg3 Si2 2.759612 1_565
Mg3 Si2 2.759615 1_555
Mg3 Si0 2.759762 1_565
Mg3 Si0 2.759766 1_555
Si0 Si6 2.303938 1_555
Si1 Si5 2.303938 1_555
Si1 Si7 2.372765 1_554
Si1 Si7 2.372772 1_654
Si2 Si7 2.303938 1_555
Si3 Si4 2.303938 1_555
Si4 Si6 2.372765 1_665
Si4 Si6 2.372772 1_655
