# generated using pymatgen
data_Sr2Be2B2O7
_symmetry_space_group_name_H-M   'P 1'
_cell_length_a   4.73032645
_cell_length_b   4.73032645
_cell_length_c   15.59167600
_cell_angle_alpha   90.00000000
_cell_angle_beta   90.00000000
_cell_angle_gamma   120.00000625
_symmetry_Int_Tables_number   1
_chemical_formula_structural   Sr2Be2B2O7
_chemical_formula_sum   'Sr4 Be4 B4 O14'
_cell_volume   302.13819607
_cell_formula_units_Z   2
loop_
 _symmetry_equiv_pos_site_id
 _symmetry_equiv_pos_as_xyz
  1  'x, y, z'
loop_
 _atom_site_type_symbol
 _atom_site_label
 _atom_site_symmetry_multiplicity
 _atom_site_fract_x
 _atom_site_fract_y
 _atom_site_fract_z
 _atom_site_occupancy
  Sr  Sr0  1  0.00000000  0.00000000  0.25000000  1
  Sr  Sr1  1  0.00000000  0.00000000  0.50000000  1
  Sr  Sr2  1  0.00000000  0.00000000  0.00000000  1
  Sr  Sr3  1  0.00000000  0.00000000  0.75000000  1
  Be  Be0  1  0.33333300  0.66666700  0.60138100  1
  Be  Be1  1  0.33333300  0.66666700  0.39861900  1
  Be  Be2  1  0.33333300  0.66666700  0.10138100  1
  Be  Be3  1  0.33333300  0.66666700  0.89861900  1
  B  B0  1  0.66666700  0.33333300  0.13551600  1
  B  B1  1  0.66666700  0.33333300  0.36448400  1
  B  B2  1  0.66666700  0.33333300  0.86448400  1
  B  B3  1  0.66666700  0.33333300  0.63551600  1
  O  O0  1  0.97553500  0.36881000  0.63658700  1
  O  O1  1  0.39327500  0.02446500  0.63658700  1
  O  O2  1  0.63119000  0.60672500  0.63658700  1
  O  O3  1  0.97553500  0.60672500  0.36341300  1
  O  O4  1  0.39327500  0.36881000  0.36341300  1
  O  O5  1  0.63119000  0.60672500  0.86341300  1
  O  O6  1  0.63119000  0.02446500  0.13658700  1
  O  O7  1  0.39327500  0.02446500  0.86341300  1
  O  O8  1  0.63119000  0.02446500  0.36341300  1
  O  O9  1  0.33333300  0.66666700  0.50000000  1
  O  O10  1  0.39327500  0.36881000  0.13658700  1
  O  O11  1  0.97553500  0.60672500  0.13658700  1
  O  O12  1  0.97553500  0.36881000  0.86341300  1
  O  O13  1  0.33333300  0.66666700  0.00000000  1
loop_
_geom_bond_atom_site_label_1
_geom_bond_atom_site_label_2
_geom_bond_distance
_geom_bond_site_symmetry_2
Be0 O9 1.580700 1_555
Be0 O1 1.663241 1_565
Be0 O0 1.663243 1_455
Be0 O2 1.663246 1_555
Be1 O9 1.580700 1_555
Be1 O3 1.663241 1_455
Be1 O8 1.663243 1_565
Be1 O4 1.663246 1_555
Be2 O13 1.580700 1_555
Be2 O11 1.663241 1_455
Be2 O6 1.663243 1_565
Be2 O10 1.663246 1_555
Be3 O13 1.580700 1_556
Be3 O7 1.663241 1_565
Be3 O12 1.663243 1_455
Be3 O5 1.663246 1_555
B0 O6 1.384886 1_555
B0 O11 1.384888 1_555
B0 O10 1.384891 1_555
B1 O8 1.384886 1_555
B1 O3 1.384888 1_555
B1 O4 1.384891 1_555
B2 O12 1.384886 1_555
B2 O7 1.384888 1_555
B2 O5 1.384891 1_555
B3 O0 1.384886 1_555
B3 O1 1.384888 1_555
B3 O2 1.384891 1_555
O0 Sr3 2.527008 1_655
O0 Sr1 2.791805 1_655
O1 Sr3 2.527008 1_555
O1 Sr1 2.791805 1_555
O2 Sr3 2.527008 1_665
O2 Sr1 2.791804 1_665
O3 Sr0 2.527008 1_665
O3 Sr1 2.791805 1_665
O4 Sr0 2.527008 1_555
O4 Sr1 2.791804 1_555
O5 Sr3 2.527008 1_665
O5 Sr2 2.791804 1_666
O6 Sr0 2.527008 1_655
O6 Sr2 2.791805 1_655
O7 Sr3 2.527008 1_555
O7 Sr2 2.791805 1_556
O8 Sr0 2.527008 1_655
O8 Sr1 2.791805 1_655
O9 Sr1 2.731053 1_565
O9 Sr1 2.731056 1_555
O9 Sr1 2.731056 1_665
O10 Sr0 2.527008 1_555
O10 Sr2 2.791804 1_555
O11 Sr0 2.527008 1_665
O11 Sr2 2.791805 1_665
O12 Sr3 2.527008 1_655
O12 Sr2 2.791805 1_656
O13 Sr2 2.731053 1_565
O13 Sr2 2.731056 1_665
O13 Sr2 2.731056 1_555
