# generated using pymatgen
data_U7(Te12O35)2
_symmetry_space_group_name_H-M   'P 1'
_cell_length_a   11.51770716
_cell_length_b   11.51770716
_cell_length_c   11.51770667
_cell_angle_alpha   90.42240620
_cell_angle_beta   90.42240620
_cell_angle_gamma   90.42241075
_symmetry_Int_Tables_number   1
_chemical_formula_structural   U7(Te12O35)2
_chemical_formula_sum   'U7 Te24 O70'
_cell_volume   1527.78588817
_cell_formula_units_Z   1
loop_
 _symmetry_equiv_pos_site_id
 _symmetry_equiv_pos_as_xyz
  1  'x, y, z'
loop_
 _atom_site_type_symbol
 _atom_site_label
 _atom_site_symmetry_multiplicity
 _atom_site_fract_x
 _atom_site_fract_y
 _atom_site_fract_z
 _atom_site_occupancy
  U  U0  1  0.00000000  0.00000000  0.50000000  1
  U  U1  1  0.50000000  0.50000000  0.50000000  1
  U  U2  1  0.00000000  0.50000000  0.50000000  1
  U  U3  1  0.50000000  0.50000000  0.00000000  1
  U  U4  1  0.00000000  0.50000000  0.00000000  1
  U  U5  1  0.50000000  0.00000000  0.50000000  1
  U  U6  1  0.50000000  0.00000000  0.00000000  1
  Te  Te0  1  0.25916100  0.04080700  0.28773800  1
  Te  Te1  1  0.23018700  0.02744500  0.79654800  1
  Te  Te2  1  0.54958000  0.21493100  0.26362900  1
  Te  Te3  1  0.97255500  0.20345200  0.76981300  1
  Te  Te4  1  0.79654800  0.23018700  0.02744500  1
  Te  Te5  1  0.71119900  0.24398700  0.55267900  1
  Te  Te6  1  0.28773800  0.25916100  0.04080700  1
  Te  Te7  1  0.21493100  0.26362900  0.54958000  1
  Te  Te8  1  0.04080700  0.28773800  0.25916100  1
  Te  Te9  1  0.44732100  0.28880100  0.75601300  1
  Te  Te10  1  0.75601300  0.44732100  0.28880100  1
  Te  Te11  1  0.73637100  0.45042000  0.78506900  1
  Te  Te12  1  0.26362900  0.54958000  0.21493100  1
  Te  Te13  1  0.24398700  0.55267900  0.71119900  1
  Te  Te14  1  0.55267900  0.71119900  0.24398700  1
  Te  Te15  1  0.95919300  0.71226200  0.74083900  1
  Te  Te16  1  0.78506900  0.73637100  0.45042000  1
  Te  Te17  1  0.71226200  0.74083900  0.95919300  1
  Te  Te18  1  0.28880100  0.75601300  0.44732100  1
  Te  Te19  1  0.20345200  0.76981300  0.97255500  1
  Te  Te20  1  0.02744500  0.79654800  0.23018700  1
  Te  Te21  1  0.45042000  0.78506900  0.73637100  1
  Te  Te22  1  0.74083900  0.95919300  0.71226200  1
  Te  Te23  1  0.76981300  0.97255500  0.20345200  1
  O  O0  1  0.60081100  0.08304700  0.17590800  1
  O  O1  1  0.91048500  0.07652300  0.68072900  1
  O  O2  1  0.85012800  0.09789100  0.12321400  1
  O  O3  1  0.90819000  0.09263500  0.41058800  1
  O  O4  1  0.41001100  0.09178400  0.59225300  1
  O  O5  1  0.58941200  0.09181000  0.90736500  1
  O  O6  1  0.65862000  0.09134300  0.61283300  1
  O  O7  1  0.17555600  0.09457200  0.41985100  1
  O  O8  1  0.31927100  0.08951500  0.92347700  1
  O  O9  1  0.40637700  0.11124300  0.34200300  1
  O  O10  1  0.09789100  0.12321400  0.85012800  1
  O  O11  1  0.60900400  0.15576400  0.41174200  1
  O  O12  1  0.87678600  0.14987200  0.90210900  1
  O  O13  1  0.08304700  0.17590800  0.60081100  1
  O  O14  1  0.41985100  0.17555600  0.09457200  1
  O  O15  1  0.20291100  0.20291100  0.20291100  1
  O  O16  1  0.27988400  0.23829100  0.71699000  1
  O  O17  1  0.71699000  0.27988400  0.23829100  1
  O  O18  1  0.76170900  0.28301000  0.72011600  1
  O  O19  1  0.57014600  0.32162200  0.59225900  1
  O  O20  1  0.92347700  0.31927100  0.08951500  1
  O  O21  1  0.38716700  0.34138000  0.90865700  1
  O  O22  1  0.11124300  0.34200300  0.40637700  1
  O  O23  1  0.58825800  0.39099600  0.84423600  1
  O  O24  1  0.90865700  0.38716700  0.34138000  1
  O  O25  1  0.67837800  0.40774100  0.42985400  1
  O  O26  1  0.82409200  0.39918900  0.91695300  1
  O  O27  1  0.15576400  0.41174200  0.60900400  1
  O  O28  1  0.34200300  0.40637700  0.11124300  1
  O  O29  1  0.09263500  0.41058800  0.90819000  1
  O  O30  1  0.40746200  0.40746200  0.40746200  1
  O  O31  1  0.59225300  0.41001100  0.09178400  1
  O  O32  1  0.90821600  0.40774700  0.58998900  1
  O  O33  1  0.09457200  0.41985100  0.17555600  1
  O  O34  1  0.40774100  0.42985400  0.67837800  1
  O  O35  1  0.59225900  0.57014600  0.32162200  1
  O  O36  1  0.90542800  0.58014900  0.82444400  1
  O  O37  1  0.09178400  0.59225300  0.41001100  1
  O  O38  1  0.59253800  0.59253800  0.59253800  1
  O  O39  1  0.40774700  0.58998900  0.90821600  1
  O  O40  1  0.84423600  0.58825800  0.39099600  1
  O  O41  1  0.90736500  0.58941200  0.09181000  1
  O  O42  1  0.65799700  0.59362300  0.88875700  1
  O  O43  1  0.17590800  0.60081100  0.08304700  1
  O  O44  1  0.32162200  0.59225900  0.57014600  1
  O  O45  1  0.41174200  0.60900400  0.15576400  1
  O  O46  1  0.09134300  0.61283300  0.65862000  1
  O  O47  1  0.88875700  0.65799700  0.59362300  1
  O  O48  1  0.61283300  0.65862000  0.09134300  1
  O  O49  1  0.07652300  0.68072900  0.91048500  1
  O  O50  1  0.42985400  0.67837800  0.40774100  1
  O  O51  1  0.23829100  0.71699000  0.27988400  1
  O  O52  1  0.28301000  0.72011600  0.76170900  1
  O  O53  1  0.72011600  0.76170900  0.28301000  1
  O  O54  1  0.79708900  0.79708900  0.79708900  1
  O  O55  1  0.58014900  0.82444400  0.90542800  1
  O  O56  1  0.91695300  0.82409200  0.39918900  1
  O  O57  1  0.12321400  0.85012800  0.09789100  1
  O  O58  1  0.39099600  0.84423600  0.58825800  1
  O  O59  1  0.59362300  0.88875700  0.65799700  1
  O  O60  1  0.90210900  0.87678600  0.14987200  1
  O  O61  1  0.68072900  0.91048500  0.07652300  1
  O  O62  1  0.82444400  0.90542800  0.58014900  1
  O  O63  1  0.09181000  0.90736500  0.58941200  1
  O  O64  1  0.14987200  0.90210900  0.87678600  1
  O  O65  1  0.34138000  0.90865700  0.38716700  1
  O  O66  1  0.41058800  0.90819000  0.09263500  1
  O  O67  1  0.58998900  0.90821600  0.40774700  1
  O  O68  1  0.08951500  0.92347700  0.31927100  1
  O  O69  1  0.39918900  0.91695300  0.82409200  1
loop_
_geom_bond_atom_site_label_1
_geom_bond_atom_site_label_2
_geom_bond_distance
_geom_bond_site_symmetry_2
O0 Te2 1.917215 1_555
O0 Te23 2.354249 1_545
O0 U6 2.507661 1_555
O1 Te3 1.911218 1_555
O1 Te22 2.398903 1_545
O1 U0 2.488126 1_655
O2 Te23 1.950973 1_545
O2 Te4 1.986944 1_555
O3 U0 1.825886 1_655
O4 U5 1.826647 1_555
O5 U6 1.825886 1_556
O6 Te5 1.986493 1_555
O6 Te22 2.134450 1_545
O6 U5 2.459661 1_555
O7 Te0 1.908562 1_555
O7 U0 2.477299 1_555
O7 Te7 2.482685 1_555
O8 Te1 1.911218 1_555
O8 Te6 2.398903 1_556
O8 U6 2.488126 1_556
O9 Te0 1.969879 1_555
O9 Te2 2.229417 1_555
O9 U5 2.478260 1_555
O10 Te3 1.950973 1_455
O10 Te1 1.986944 1_555
O11 Te2 1.962094 1_555
O11 Te5 2.232229 1_555
O11 U5 2.416742 1_555
O12 Te4 1.950973 1_556
O12 Te3 1.986944 1_555
O13 Te7 1.917215 1_555
O13 Te3 2.354249 1_455
O13 U0 2.507661 1_555
O14 Te6 1.908562 1_555
O14 U6 2.477300 1_555
O14 Te2 2.482685 1_555
O15 Te6 2.212606 1_555
O15 Te0 2.212606 1_555
O15 Te8 2.212606 1_555
O16 Te9 2.055809 1_555
O16 Te7 2.086374 1_555
O16 Te1 2.661723 1_555
O17 Te10 2.055809 1_555
O17 Te2 2.086375 1_555
O17 Te4 2.661723 1_555
O18 Te5 2.055809 1_555
O18 Te11 2.086375 1_555
O18 Te3 2.661723 1_555
O19 Te5 1.916520 1_555
O19 Te9 2.396539 1_555
O19 U1 2.459040 1_555
O20 Te4 1.911218 1_555
O20 Te8 2.398903 1_655
O20 U4 2.488126 1_655
O21 Te9 1.986493 1_555
O21 Te6 2.134449 1_556
O21 U3 2.459661 1_556
O22 Te8 1.969879 1_555
O22 Te7 2.229417 1_555
O22 U2 2.478260 1_555
O23 Te11 1.962094 1_555
O23 Te9 2.232229 1_555
O23 U3 2.416742 1_556
O24 Te10 1.986493 1_555
O24 Te8 2.134450 1_655
O24 U2 2.459661 1_655
O25 Te10 1.916520 1_555
O25 Te5 2.396539 1_555
O25 U1 2.459040 1_555
O26 Te11 1.917215 1_555
O26 Te4 2.354249 1_556
O26 U4 2.507661 1_656
O27 Te7 1.962094 1_555
O27 Te13 2.232229 1_555
O27 U2 2.416743 1_555
O28 Te6 1.969879 1_555
O28 Te12 2.229417 1_555
O28 U3 2.478260 1_555
O29 U4 1.825886 1_556
O30 U1 1.832404 1_555
O31 U3 1.826647 1_555
O32 U2 1.826647 1_655
O33 Te8 1.908562 1_555
O33 U4 2.477300 1_555
O33 Te12 2.482685 1_555
O34 Te9 1.916520 1_555
O34 Te13 2.396540 1_555
O34 U1 2.459040 1_555
O35 Te14 1.916520 1_555
O35 Te10 2.396540 1_555
O35 U1 2.459040 1_555
O36 Te15 1.908562 1_555
O36 U4 2.477300 1_656
O36 Te11 2.482685 1_555
O37 U2 1.826647 1_555
O38 U1 1.832404 1_555
O39 U3 1.826647 1_556
O40 Te16 1.962094 1_555
O40 Te10 2.232229 1_555
O40 U2 2.416743 1_655
O41 U4 1.825886 1_655
O42 Te17 1.969879 1_555
O42 Te11 2.229417 1_555
O42 U3 2.478260 1_556
O43 Te12 1.917215 1_555
O43 Te19 2.354249 1_554
O43 U4 2.507661 1_555
O44 Te13 1.916520 1_555
O44 Te18 2.396539 1_555
O44 U1 2.459040 1_555
O45 Te12 1.962094 1_555
O45 Te14 2.232229 1_555
O45 U3 2.416742 1_555
O46 Te13 1.986493 1_555
O46 Te15 2.134450 1_455
O46 U2 2.459661 1_555
O47 Te15 1.969879 1_555
O47 Te16 2.229417 1_555
O47 U2 2.478260 1_655
O48 Te14 1.986493 1_555
O48 Te17 2.134449 1_554
O48 U3 2.459661 1_555
O49 Te19 1.911218 1_555
O49 Te15 2.398903 1_455
O49 U4 2.488126 1_556
O50 Te18 1.916520 1_555
O50 Te14 2.396539 1_555
O50 U1 2.459040 1_555
O51 Te18 2.055809 1_555
O51 Te12 2.086375 1_555
O51 Te20 2.661723 1_555
O52 Te13 2.055809 1_555
O52 Te21 2.086375 1_555
O52 Te19 2.661723 1_555
O53 Te14 2.055809 1_555
O53 Te16 2.086374 1_555
O53 Te23 2.661723 1_555
O54 Te17 2.212606 1_555
O54 Te22 2.212606 1_555
O54 Te15 2.212606 1_555
O55 Te17 1.908562 1_555
O55 U6 2.477300 1_566
O55 Te21 2.482685 1_555
O56 Te16 1.917215 1_555
O56 Te20 2.354249 1_655
O56 U0 2.507661 1_665
O57 Te19 1.950973 1_554
O57 Te20 1.986944 1_555
O58 Te21 1.962094 1_555
O58 Te18 2.232229 1_555
O58 U5 2.416742 1_565
O59 Te22 1.969879 1_555
O59 Te21 2.229417 1_555
O59 U5 2.478260 1_565
O60 Te20 1.950973 1_655
O60 Te23 1.986944 1_555
O61 Te23 1.911218 1_555
O61 Te17 2.398903 1_554
O61 U6 2.488126 1_565
O62 Te22 1.908562 1_555
O62 U0 2.477299 1_665
O62 Te16 2.482685 1_555
O63 U0 1.825886 1_565
O64 Te1 1.950973 1_565
O64 Te19 1.986944 1_555
O65 Te18 1.986493 1_555
O65 Te0 2.134450 1_565
O65 U5 2.459661 1_565
O66 U6 1.825886 1_565
O67 U5 1.826647 1_565
O68 Te20 1.911218 1_555
O68 Te0 2.398903 1_565
O68 U0 2.488126 1_565
O69 Te21 1.917215 1_555
O69 Te1 2.354249 1_565
O69 U6 2.507661 1_566
