# generated using pymatgen
data_BS2N2OF7
_symmetry_space_group_name_H-M   'P 1'
_cell_length_a   8.04132500
_cell_length_b   6.13989700
_cell_length_c   8.24889454
_cell_angle_alpha   69.45716039
_cell_angle_beta   90.00000000
_cell_angle_gamma   90.00000000
_symmetry_Int_Tables_number   1
_chemical_formula_structural   BS2N2OF7
_chemical_formula_sum   'B2 S4 N4 O2 F14'
_cell_volume   381.37351732
_cell_formula_units_Z   2
loop_
 _symmetry_equiv_pos_site_id
 _symmetry_equiv_pos_as_xyz
  1  'x, y, z'
loop_
 _atom_site_type_symbol
 _atom_site_label
 _atom_site_symmetry_multiplicity
 _atom_site_fract_x
 _atom_site_fract_y
 _atom_site_fract_z
 _atom_site_occupancy
  B  B0  1  0.25000000  0.36771000  0.17364600  1
  B  B1  1  0.75000000  0.63229000  0.82635400  1
  S  S0  1  0.25000000  0.67669900  0.56927600  1
  S  S1  1  0.75000000  0.21055400  0.13529800  1
  S  S2  1  0.75000000  0.32330100  0.43072400  1
  S  S3  1  0.25000000  0.78944600  0.86470200  1
  N  N0  1  0.25000000  0.55613600  0.98156100  1
  N  N1  1  0.75000000  0.44386400  0.01843900  1
  N  N2  1  0.75000000  0.14521100  0.34018000  1
  N  N3  1  0.25000000  0.85478900  0.65982000  1
  O  O0  1  0.25000000  0.43312700  0.65098400  1
  O  O1  1  0.75000000  0.56687300  0.34901600  1
  F  F0  1  0.89313500  0.04348700  0.12172800  1
  F  F1  1  0.10736000  0.75723900  0.43595600  1
  F  F2  1  0.89411200  0.59642200  0.74288100  1
  F  F3  1  0.10588800  0.40357800  0.25711900  1
  F  F4  1  0.25000000  0.15014200  0.15704200  1
  F  F5  1  0.10686500  0.95651300  0.87827200  1
  F  F6  1  0.39313500  0.95651300  0.87827200  1
  F  F7  1  0.89264000  0.24276100  0.56404400  1
  F  F8  1  0.75000000  0.84985800  0.84295800  1
  F  F9  1  0.60686500  0.04348700  0.12172800  1
  F  F10  1  0.39264000  0.75723900  0.43595600  1
  F  F11  1  0.39411200  0.40357800  0.25711900  1
  F  F12  1  0.60736000  0.24276100  0.56404400  1
  F  F13  1  0.60588800  0.59642200  0.74288100  1
loop_
_geom_bond_atom_site_label_1
_geom_bond_atom_site_label_2
_geom_bond_distance
_geom_bond_site_symmetry_2
B0 F4 1.389837 1_555
B0 F11 1.404270 1_555
B0 F3 1.404270 1_555
B0 N0 1.600796 1_554
B1 F8 1.389837 1_555
B1 F2 1.404270 1_555
B1 F13 1.404270 1_555
B1 N1 1.600796 1_556
N0 S3 1.418504 1_555
N1 S1 1.418504 1_555
N2 S2 1.525335 1_555
N2 S1 1.594166 1_555
N3 S0 1.525335 1_555
N3 S3 1.594166 1_555
O0 S0 1.408335 1_555
O1 S2 1.408335 1_555
F0 S1 1.571660 1_555
F1 S0 1.545298 1_555
F5 S3 1.571660 1_555
F6 S3 1.571660 1_555
F7 S2 1.545298 1_555
F9 S1 1.571660 1_555
F10 S0 1.545298 1_555
F12 S2 1.545298 1_555
