# generated using pymatgen
data_Nd3Si2ClO8
_symmetry_space_group_name_H-M   'P 1'
_cell_length_a   6.39475442
_cell_length_b   7.74903337
_cell_length_c   8.74679845
_cell_angle_alpha   97.61416315
_cell_angle_beta   90.00000000
_cell_angle_gamma   114.36929079
_symmetry_Int_Tables_number   1
_chemical_formula_structural   Nd3Si2ClO8
_chemical_formula_sum   'Nd6 Si4 Cl2 O16'
_cell_volume   390.61566832
_cell_formula_units_Z   2
loop_
 _symmetry_equiv_pos_site_id
 _symmetry_equiv_pos_as_xyz
  1  'x, y, z'
loop_
 _atom_site_type_symbol
 _atom_site_label
 _atom_site_symmetry_multiplicity
 _atom_site_fract_x
 _atom_site_fract_y
 _atom_site_fract_z
 _atom_site_occupancy
  Nd  Nd0  1  0.79049276  0.37062670  0.17101299  1
  Nd  Nd1  1  0.41986506  0.62937330  0.32898701  1
  Nd  Nd2  1  0.58013494  0.37062670  0.67101299  1
  Nd  Nd3  1  0.92590795  0.00000000  0.75000000  1
  Nd  Nd4  1  0.20950724  0.62937330  0.82898701  1
  Nd  Nd5  1  0.07409205  0.00000000  0.25000000  1
  Si  Si0  1  0.21222858  0.31604679  0.02511433  1
  Si  Si1  1  0.10381920  0.31604679  0.52511433  1
  Si  Si2  1  0.89618080  0.68395321  0.47488567  1
  Si  Si3  1  0.78777142  0.68395321  0.97488567  1
  Cl  Cl0  1  0.47453730  0.00000000  0.75000000  1
  Cl  Cl1  1  0.52546270  0.00000000  0.25000000  1
  O  O0  1  0.95829510  0.69124296  0.65554323  1
  O  O1  1  0.09488279  0.71234336  0.35483762  1
  O  O2  1  0.04170490  0.30875704  0.34445677  1
  O  O3  1  0.31925726  0.52375545  0.58122728  1
  O  O4  1  0.94978661  0.15423119  0.03183456  1
  O  O5  1  0.20449819  0.52375545  0.08122728  1
  O  O6  1  0.05021339  0.84576881  0.96816544  1
  O  O7  1  0.38253843  0.28765664  0.14516238  1
  O  O8  1  0.26705114  0.30875704  0.84445677  1
  O  O9  1  0.61746157  0.71234336  0.85483762  1
  O  O10  1  0.79555442  0.84576881  0.46816544  1
  O  O11  1  0.79550181  0.47624455  0.91877272  1
  O  O12  1  0.90511721  0.28765664  0.64516238  1
  O  O13  1  0.68074274  0.47624455  0.41877272  1
  O  O14  1  0.73294886  0.69124296  0.15554323  1
  O  O15  1  0.20444558  0.15423119  0.53183456  1
loop_
_geom_bond_atom_site_label_1
_geom_bond_atom_site_label_2
_geom_bond_distance
_geom_bond_site_symmetry_2
Nd0 O7 2.418160 1_555
Nd0 O13 2.421308 1_555
Nd0 O2 2.437283 1_655
Nd0 O11 2.448568 1_554
Nd0 O4 2.489999 1_555
Nd0 O5 2.586182 1_655
Nd0 O14 2.677654 1_555
Nd0 O1 2.829158 1_655
Nd1 O1 2.418147 1_555
Nd1 O5 2.421305 1_555
Nd1 O14 2.437292 1_555
Nd1 O3 2.448567 1_555
Nd1 O10 2.489999 1_555
Nd1 O13 2.586187 1_555
Nd1 O2 2.677654 1_555
Nd1 O7 2.829158 1_555
Nd2 O12 2.418147 1_555
Nd2 O11 2.421305 1_555
Nd2 O8 2.437292 1_555
Nd2 O13 2.448567 1_555
Nd2 O15 2.489999 1_555
Nd2 O3 2.586187 1_555
Nd2 O0 2.677654 1_555
Nd2 O9 2.829158 1_555
Nd3 O8 2.516931 1_655
Nd3 O0 2.516934 1_545
Nd3 O4 2.568520 1_556
Nd3 O10 2.568520 1_545
Nd3 O9 2.571671 1_545
Nd3 O12 2.571673 1_555
Nd3 O6 2.662708 1_645
Nd3 O15 2.662711 1_655
Nd4 O9 2.418160 1_555
Nd4 O3 2.421308 1_555
Nd4 O0 2.437283 1_455
Nd4 O5 2.448568 1_556
Nd4 O6 2.489999 1_555
Nd4 O11 2.586182 1_455
Nd4 O8 2.677654 1_555
Nd4 O12 2.829158 1_455
Nd5 O14 2.516931 1_445
Nd5 O2 2.516934 1_555
Nd5 O6 2.568520 1_544
Nd5 O15 2.568520 1_555
Nd5 O7 2.571671 1_555
Nd5 O1 2.571673 1_545
Nd5 O4 2.662708 1_455
Nd5 O10 2.662711 1_445
Cl0 Nd2 2.847292 1_555
Cl0 Nd4 2.847293 1_545
Cl0 Nd3 2.886404 1_555
Cl1 Nd1 2.847292 1_545
Cl1 Nd0 2.847293 1_555
Cl1 Nd5 2.886404 1_555
O0 Si2 1.617327 1_555
O1 Si2 1.611229 1_455
O2 Si1 1.617327 1_555
O3 Si1 1.640203 1_555
O4 Si0 1.635608 1_655
O5 Si0 1.640206 1_555
O6 Si3 1.635608 1_455
O7 Si0 1.611220 1_555
O8 Si0 1.617324 1_556
O9 Si3 1.611220 1_555
O10 Si2 1.635608 1_555
O11 Si3 1.640206 1_555
O12 Si1 1.611229 1_655
O13 Si2 1.640203 1_555
O14 Si3 1.617324 1_554
O15 Si1 1.635608 1_555
