# generated using pymatgen
data_Yb3Pt4
_symmetry_space_group_name_H-M   'P 1'
_cell_length_a   7.75421955
_cell_length_b   7.75421955
_cell_length_c   7.75421860
_cell_angle_alpha   114.26271537
_cell_angle_beta   114.26271537
_cell_angle_gamma   114.26271699
_symmetry_Int_Tables_number   1
_chemical_formula_structural   Yb3Pt4
_chemical_formula_sum   'Yb6 Pt8'
_cell_volume   277.66374403
_cell_formula_units_Z   2
loop_
 _symmetry_equiv_pos_site_id
 _symmetry_equiv_pos_as_xyz
  1  'x, y, z'
loop_
 _atom_site_type_symbol
 _atom_site_label
 _atom_site_symmetry_multiplicity
 _atom_site_fract_x
 _atom_site_fract_y
 _atom_site_fract_z
 _atom_site_occupancy
  Yb  Yb0  1  0.60082000  0.72192600  0.97894500  1
  Yb  Yb1  1  0.27807400  0.02105500  0.39918000  1
  Yb  Yb2  1  0.72192600  0.97894500  0.60082000  1
  Yb  Yb3  1  0.39918000  0.27807400  0.02105500  1
  Yb  Yb4  1  0.97894500  0.60082000  0.72192600  1
  Yb  Yb5  1  0.02105500  0.39918000  0.27807400  1
  Pt  Pt0  1  0.55506800  0.06428100  0.22828900  1
  Pt  Pt1  1  0.93571900  0.77171100  0.44493200  1
  Pt  Pt2  1  0.06428100  0.22828900  0.55506800  1
  Pt  Pt3  1  0.22828900  0.55506800  0.06428100  1
  Pt  Pt4  1  0.77171100  0.44493200  0.93571900  1
  Pt  Pt5  1  0.44493200  0.93571900  0.77171100  1
  Pt  Pt6  1  0.50000000  0.50000000  0.50000000  1
  Pt  Pt7  1  0.00000000  0.00000000  0.00000000  1
loop_
_geom_bond_atom_site_label_1
_geom_bond_atom_site_label_2
_geom_bond_distance
_geom_bond_site_symmetry_2
Pt0 Yb0 2.833901 1_544
Pt0 Yb4 2.845720 1_555
Pt0 Pt5 2.858742 1_544
Pt0 Yb1 2.931578 1_555
Pt0 Pt2 2.937857 1_655
Pt0 Pt3 2.937857 1_545
Pt0 Yb3 3.005264 1_555
Pt0 Yb4 3.013721 1_444
Pt0 Yb2 3.107947 1_545
Pt0 Yb5 3.204244 1_655
Pt1 Yb1 2.833901 1_665
Pt1 Yb3 2.845721 1_555
Pt1 Pt2 2.858742 1_665
Pt1 Yb4 2.931578 1_555
Pt1 Pt4 2.937857 1_554
Pt1 Pt5 2.937857 1_655
Pt1 Yb2 3.005264 1_555
Pt1 Yb3 3.013721 1_666
Pt1 Yb5 3.107947 1_655
Pt1 Yb0 3.204244 1_554
Pt2 Yb2 2.833901 1_445
Pt2 Yb0 2.845721 1_555
Pt2 Yb5 2.931578 1_555
Pt2 Pt3 2.937857 1_556
Pt2 Yb1 3.005264 1_555
Pt2 Yb0 3.013721 1_444
Pt2 Yb4 3.107947 1_455
Pt2 Yb3 3.204244 1_556
Pt3 Yb4 2.833901 1_454
Pt3 Yb2 2.845720 1_555
Pt3 Pt4 2.858742 1_454
Pt3 Yb3 2.931579 1_555
Pt3 Yb5 3.005264 1_555
Pt3 Yb2 3.013721 1_444
Pt3 Yb0 3.107947 1_554
Pt3 Yb1 3.204244 1_565
Pt4 Yb5 2.833901 1_656
Pt4 Yb1 2.845720 1_555
Pt4 Yb0 2.931579 1_555
Pt4 Pt5 2.937857 1_545
Pt4 Yb4 3.005264 1_555
Pt4 Yb1 3.013721 1_666
Pt4 Yb3 3.107947 1_556
Pt4 Yb2 3.204244 1_545
Pt5 Yb3 2.833901 1_566
Pt5 Yb5 2.845720 1_555
Pt5 Yb2 2.931578 1_555
Pt5 Yb0 3.005264 1_555
Pt5 Yb5 3.013721 1_666
Pt5 Yb1 3.107947 1_565
Pt5 Yb4 3.204244 1_455
Pt6 Yb3 2.936150 1_555
Pt6 Yb0 2.936150 1_555
Pt6 Yb5 2.936151 1_555
Pt6 Yb4 2.936151 1_555
Pt6 Yb1 2.936151 1_555
Pt6 Yb2 2.936151 1_555
Pt7 Yb2 2.840291 1_444
Pt7 Yb1 2.840291 1_555
Pt7 Yb4 2.840291 1_444
Pt7 Yb5 2.840291 1_555
Pt7 Yb3 2.840291 1_555
Pt7 Yb0 2.840291 1_444
