# generated using pymatgen
data_Nd3Si2ClO8
_symmetry_space_group_name_H-M   'P 1'
_cell_length_a   6.31985148
_cell_length_b   7.10087168
_cell_length_c   18.15663736
_cell_angle_alpha   90.00000000
_cell_angle_beta   90.00000000
_cell_angle_gamma   90.00000000
_symmetry_Int_Tables_number   1
_chemical_formula_structural   Nd3Si2ClO8
_chemical_formula_sum   'Nd12 Si8 Cl4 O32'
_cell_volume   814.80550847
_cell_formula_units_Z   4
loop_
 _symmetry_equiv_pos_site_id
 _symmetry_equiv_pos_as_xyz
  1  'x, y, z'
loop_
 _atom_site_type_symbol
 _atom_site_label
 _atom_site_symmetry_multiplicity
 _atom_site_fract_x
 _atom_site_fract_y
 _atom_site_fract_z
 _atom_site_occupancy
  Nd  Nd0  1  0.87355494  0.97508128  0.59098052  1
  Nd  Nd1  1  0.62644506  0.47508128  0.59098052  1
  Nd  Nd2  1  0.12644506  0.02491872  0.09098052  1
  Nd  Nd3  1  0.12644506  0.02491872  0.40901948  1
  Nd  Nd4  1  0.38203778  0.19277588  0.75000000  1
  Nd  Nd5  1  0.88203778  0.30722412  0.25000000  1
  Nd  Nd6  1  0.37355494  0.52491872  0.09098052  1
  Nd  Nd7  1  0.37355494  0.52491872  0.40901948  1
  Nd  Nd8  1  0.61796222  0.80722412  0.25000000  1
  Nd  Nd9  1  0.11796222  0.69277588  0.75000000  1
  Nd  Nd10  1  0.62644506  0.47508128  0.90901948  1
  Nd  Nd11  1  0.87355494  0.97508128  0.90901948  1
  Si  Si0  1  0.12165890  0.46624131  0.59982608  1
  Si  Si1  1  0.37834110  0.96624131  0.90017392  1
  Si  Si2  1  0.87834110  0.53375869  0.09982608  1
  Si  Si3  1  0.62165890  0.03375869  0.40017392  1
  Si  Si4  1  0.37834110  0.96624131  0.59982608  1
  Si  Si5  1  0.62165890  0.03375869  0.09982608  1
  Si  Si6  1  0.87834110  0.53375869  0.40017392  1
  Si  Si7  1  0.12165890  0.46624131  0.90017392  1
  Cl  Cl0  1  0.75856259  0.94234767  0.75000000  1
  Cl  Cl1  1  0.24143741  0.05765233  0.25000000  1
  Cl  Cl2  1  0.25856259  0.55765233  0.25000000  1
  Cl  Cl3  1  0.74143741  0.44234767  0.75000000  1
  O  O0  1  0.04636341  0.70438106  0.09533560  1
  O  O1  1  0.97266532  0.65076776  0.61836619  1
  O  O2  1  0.21753178  0.98103626  0.53101502  1
  O  O3  1  0.95363659  0.29561894  0.59533560  1
  O  O4  1  0.27594033  0.45384653  0.82627874  1
  O  O5  1  0.27594033  0.45384653  0.67372126  1
  O  O6  1  0.22405967  0.95384653  0.82627874  1
  O  O7  1  0.72405967  0.54615347  0.17372126  1
  O  O8  1  0.52733468  0.15076776  0.61836619  1
  O  O9  1  0.54636341  0.79561894  0.59533560  1
  O  O10  1  0.71753178  0.51896374  0.46898498  1
  O  O11  1  0.45363659  0.20438106  0.40466440  1
  O  O12  1  0.28246822  0.48103626  0.53101502  1
  O  O13  1  0.28246822  0.48103626  0.96898498  1
  O  O14  1  0.54636341  0.79561894  0.90466440  1
  O  O15  1  0.52733468  0.15076776  0.88163381  1
  O  O16  1  0.47266532  0.84923224  0.38163381  1
  O  O17  1  0.97266532  0.65076776  0.88163381  1
  O  O18  1  0.22405967  0.95384653  0.67372126  1
  O  O19  1  0.77594033  0.04615347  0.17372126  1
  O  O20  1  0.77594033  0.04615347  0.32627874  1
  O  O21  1  0.02733468  0.34923224  0.38163381  1
  O  O22  1  0.71753178  0.51896374  0.03101502  1
  O  O23  1  0.47266532  0.84923224  0.11836619  1
  O  O24  1  0.78246822  0.01896374  0.03101502  1
  O  O25  1  0.95363659  0.29561894  0.90466440  1
  O  O26  1  0.21753178  0.98103626  0.96898498  1
  O  O27  1  0.04636341  0.70438106  0.40466440  1
  O  O28  1  0.78246822  0.01896374  0.46898498  1
  O  O29  1  0.72405967  0.54615347  0.32627874  1
  O  O30  1  0.45363659  0.20438106  0.09533560  1
  O  O31  1  0.02733468  0.34923224  0.11836619  1
loop_
_geom_bond_atom_site_label_1
_geom_bond_atom_site_label_2
_geom_bond_distance
_geom_bond_site_symmetry_2
Nd0 O28 2.309725 1_565
Nd0 O3 2.333026 1_565
Nd0 O9 2.430226 1_555
Nd0 O2 2.431661 1_655
Nd0 O1 2.437818 1_555
Nd0 O8 2.567328 1_565
Nd0 O18 2.680757 1_655
Nd1 O10 2.309725 1_555
Nd1 O9 2.333026 1_555
Nd1 O3 2.430226 1_555
Nd1 O12 2.431661 1_555
Nd1 O8 2.437818 1_555
Nd1 O1 2.567328 1_555
Nd1 O5 2.680757 1_555
Nd2 O26 2.309725 1_544
Nd2 O0 2.333026 1_545
Nd2 O30 2.430226 1_555
Nd2 O24 2.431661 1_455
Nd2 O31 2.437818 1_555
Nd2 O23 2.567328 1_545
Nd2 O19 2.680757 1_455
Nd3 O2 2.309725 1_545
Nd3 O27 2.333026 1_545
Nd3 O11 2.430226 1_555
Nd3 O28 2.431661 1_455
Nd3 O21 2.437818 1_555
Nd3 O16 2.567328 1_545
Nd3 O20 2.680757 1_455
Nd4 O18 2.406949 1_545
Nd4 O6 2.406949 1_545
Nd4 O5 2.409234 1_555
Nd4 O4 2.409234 1_555
Nd4 O8 2.577674 1_555
Nd4 O15 2.577674 1_555
Nd5 O7 2.406949 1_555
Nd5 O29 2.406949 1_555
Nd5 O19 2.409234 1_555
Nd5 O20 2.409234 1_555
Nd5 O21 2.577674 1_655
Nd5 O31 2.577674 1_655
Nd6 O13 2.309725 1_554
Nd6 O30 2.333026 1_555
Nd6 O0 2.430226 1_555
Nd6 O22 2.431661 1_555
Nd6 O23 2.437818 1_555
Nd6 O31 2.567328 1_555
Nd6 O7 2.680757 1_555
Nd7 O12 2.309725 1_555
Nd7 O11 2.333026 1_555
Nd7 O27 2.430226 1_555
Nd7 O10 2.431661 1_555
Nd7 O16 2.437818 1_555
Nd7 O21 2.567328 1_555
Nd7 O29 2.680757 1_555
Nd8 O19 2.406949 1_565
Nd8 O20 2.406949 1_565
Nd8 O7 2.409234 1_555
Nd8 O29 2.409234 1_555
Nd8 O16 2.577674 1_555
Nd8 O23 2.577674 1_555
Nd9 O5 2.406949 1_555
Nd9 O4 2.406949 1_555
Nd9 O6 2.409234 1_555
Nd9 O18 2.409234 1_555
Nd9 O1 2.577674 1_455
Nd9 O17 2.577674 1_455
Nd10 O22 2.309725 1_556
Nd10 O14 2.333026 1_555
Nd10 O25 2.430226 1_555
Nd10 O13 2.431661 1_555
Nd10 O15 2.437818 1_555
Nd10 O17 2.567328 1_555
Nd10 O4 2.680757 1_555
Nd11 O24 2.309725 1_566
Nd11 O25 2.333026 1_565
Nd11 O14 2.430226 1_555
Nd11 O26 2.431661 1_655
Nd11 O17 2.437818 1_555
Nd11 O15 2.567328 1_565
Nd11 O6 2.680757 1_655
Cl0 Nd9 2.880912 1_655
Cl0 Nd4 2.970624 1_565
Cl0 Nd0 2.986375 1_555
Cl0 Nd11 2.986375 1_555
Cl1 Nd5 2.880912 1_455
Cl1 Nd8 2.970624 1_545
Cl1 Nd2 2.986375 1_555
Cl1 Nd3 2.986375 1_555
Cl2 Nd8 2.880912 1_555
Cl2 Nd5 2.970624 1_455
Cl2 Nd6 2.986375 1_555
Cl2 Nd7 2.986375 1_555
Cl3 Nd4 2.880912 1_555
Cl3 Nd9 2.970624 1_655
Cl3 Nd10 2.986375 1_555
Cl3 Nd1 2.986375 1_555
O0 Si2 1.613110 1_455
O1 Si0 1.648285 1_655
O2 Si4 1.613948 1_555
O3 Si0 1.613110 1_655
O4 Si7 1.660894 1_555
O5 Si0 1.660894 1_555
O6 Si1 1.660894 1_555
O7 Si2 1.660894 1_555
O8 Si4 1.648285 1_545
O9 Si4 1.613110 1_555
O10 Si6 1.613948 1_555
O11 Si3 1.613110 1_555
O12 Si0 1.613948 1_555
O13 Si7 1.613948 1_555
O14 Si1 1.613110 1_555
O15 Si1 1.648285 1_545
O16 Si3 1.648285 1_565
O17 Si7 1.648285 1_655
O18 Si4 1.660894 1_555
O19 Si5 1.660894 1_555
O20 Si3 1.660894 1_555
O21 Si6 1.648285 1_455
O22 Si2 1.613948 1_555
O23 Si5 1.648285 1_565
O24 Si5 1.613948 1_555
O25 Si7 1.613110 1_655
O26 Si1 1.613948 1_555
O27 Si6 1.613110 1_455
O28 Si3 1.613948 1_555
O29 Si6 1.660894 1_555
O30 Si5 1.613110 1_555
O31 Si2 1.648285 1_455
