# generated using pymatgen
data_Eu2SiO4
_symmetry_space_group_name_H-M   'P 1'
_cell_length_a   5.55742555
_cell_length_b   7.05622568
_cell_length_c   9.81969236
_cell_angle_alpha   90.00000000
_cell_angle_beta   90.00000000
_cell_angle_gamma   90.00000000
_symmetry_Int_Tables_number   1
_chemical_formula_structural   Eu2SiO4
_chemical_formula_sum   'Eu8 Si4 O16'
_cell_volume   385.07382407
_cell_formula_units_Z   4
loop_
 _symmetry_equiv_pos_site_id
 _symmetry_equiv_pos_as_xyz
  1  'x, y, z'
loop_
 _atom_site_type_symbol
 _atom_site_label
 _atom_site_symmetry_multiplicity
 _atom_site_fract_x
 _atom_site_fract_y
 _atom_site_fract_z
 _atom_site_occupancy
  Eu  Eu0  1  0.75000000  0.84700375  0.07214545  1
  Eu  Eu1  1  0.25000000  0.15299625  0.92785455  1
  Eu  Eu2  1  0.75000000  0.34700375  0.42785455  1
  Eu  Eu3  1  0.25000000  0.65299625  0.57214545  1
  Eu  Eu4  1  0.75000000  0.50484672  0.80382236  1
  Eu  Eu5  1  0.25000000  0.49515328  0.19617764  1
  Eu  Eu6  1  0.75000000  0.00484672  0.69617764  1
  Eu  Eu7  1  0.25000000  0.99515328  0.30382236  1
  Si  Si0  1  0.75000000  0.27874640  0.07909838  1
  Si  Si1  1  0.25000000  0.72125360  0.92090162  1
  Si  Si2  1  0.75000000  0.77874640  0.42090162  1
  Si  Si3  1  0.25000000  0.22125360  0.57909838  1
  O  O0  1  0.75000000  0.50824747  0.07563435  1
  O  O1  1  0.25000000  0.49175253  0.92436565  1
  O  O2  1  0.75000000  0.00824747  0.42436565  1
  O  O3  1  0.25000000  0.99175253  0.57563435  1
  O  O4  1  0.75000000  0.18634184  0.92462194  1
  O  O5  1  0.25000000  0.81365816  0.07537806  1
  O  O6  1  0.75000000  0.68634184  0.57537806  1
  O  O7  1  0.25000000  0.31365816  0.42462194  1
  O  O8  1  0.50977492  0.19551187  0.15302157  1
  O  O9  1  0.00977492  0.80448813  0.84697843  1
  O  O10  1  0.99022508  0.69551187  0.34697843  1
  O  O11  1  0.49022508  0.30448813  0.65302157  1
  O  O12  1  0.49022508  0.80448813  0.84697843  1
  O  O13  1  0.99022508  0.19551187  0.15302157  1
  O  O14  1  0.00977492  0.30448813  0.65302157  1
  O  O15  1  0.50977492  0.69551187  0.34697843  1
loop_
_geom_bond_atom_site_label_1
_geom_bond_atom_site_label_2
_geom_bond_distance
_geom_bond_site_symmetry_2
Eu0 O0 2.390586 1_555
Eu0 O12 2.657639 1_554
Eu0 O9 2.657639 1_654
Eu0 O5 2.788838 1_655
Eu0 O5 2.788838 1_555
Eu0 O4 2.798556 1_564
Eu0 O13 2.908687 1_565
Eu0 O8 2.908687 1_565
Eu0 O15 3.195055 1_555
Eu0 O10 3.195055 1_555
Eu1 O1 2.390586 1_555
Eu1 O8 2.657639 1_556
Eu1 O13 2.657639 1_456
Eu1 O4 2.788838 1_455
Eu1 O4 2.788838 1_555
Eu1 O5 2.798556 1_546
Eu1 O9 2.908687 1_545
Eu1 O12 2.908687 1_545
Eu1 O11 3.195055 1_555
Eu1 O14 3.195055 1_555
Eu2 O2 2.390586 1_555
Eu2 O14 2.657639 1_655
Eu2 O11 2.657639 1_555
Eu2 O7 2.788838 1_555
Eu2 O7 2.788838 1_655
Eu2 O6 2.798556 1_555
Eu2 O15 2.908687 1_555
Eu2 O10 2.908687 1_555
Eu2 O8 3.195055 1_555
Eu2 O13 3.195055 1_555
Eu3 O3 2.390586 1_555
Eu3 O15 2.657639 1_555
Eu3 O10 2.657639 1_455
Eu3 O6 2.788838 1_555
Eu3 O6 2.788838 1_455
Eu3 O7 2.798556 1_555
Eu3 O11 2.908687 1_555
Eu3 O14 2.908687 1_555
Eu3 O9 3.195055 1_555
Eu3 O12 3.195055 1_555
Eu4 O14 2.505153 1_655
Eu4 O11 2.505153 1_555
Eu4 O4 2.541280 1_555
Eu4 O6 2.583080 1_555
Eu4 O12 2.595038 1_555
Eu4 O9 2.595038 1_655
Eu4 O0 2.669218 1_556
Eu4 O1 3.021742 1_655
Eu4 O1 3.021742 1_555
Eu5 O15 2.505153 1_555
Eu5 O10 2.505153 1_455
Eu5 O5 2.541280 1_555
Eu5 O7 2.583080 1_555
Eu5 O8 2.595038 1_555
Eu5 O13 2.595038 1_455
Eu5 O1 2.669218 1_554
Eu5 O0 3.021742 1_455
Eu5 O0 3.021742 1_555
Eu6 O9 2.505153 1_645
Eu6 O12 2.505153 1_545
Eu6 O6 2.541280 1_545
Eu6 O4 2.583080 1_555
Eu6 O14 2.595038 1_655
Eu6 O11 2.595038 1_555
Eu6 O2 2.669218 1_555
Eu6 O3 3.021742 1_545
Eu6 O3 3.021742 1_645
Eu7 O13 2.505153 1_465
Eu7 O8 2.505153 1_565
Eu7 O7 2.541280 1_565
Eu7 O5 2.583080 1_555
Eu7 O15 2.595038 1_555
Eu7 O10 2.595038 1_455
Eu7 O3 2.669218 1_555
Eu7 O2 3.021742 1_565
Eu7 O2 3.021742 1_465
O0 Si0 1.619769 1_555
O1 Si1 1.619769 1_555
O2 Si2 1.619769 1_545
O3 Si3 1.619769 1_565
O4 Si0 1.651108 1_556
O5 Si1 1.651108 1_554
O6 Si2 1.651108 1_555
O7 Si3 1.651108 1_555
O8 Si0 1.629170 1_555
O9 Si1 1.629170 1_555
O10 Si2 1.629170 1_555
O11 Si3 1.629170 1_555
O12 Si1 1.629170 1_555
O13 Si0 1.629170 1_555
O14 Si3 1.629170 1_555
O15 Si2 1.629170 1_555
