# generated using pymatgen
data_Sr4Al6CrO16
_symmetry_space_group_name_H-M   'P 1'
_cell_length_a   9.58658300
_cell_length_b   13.44389900
_cell_length_c   13.47741100
_cell_angle_alpha   90.00000000
_cell_angle_beta   90.00000000
_cell_angle_gamma   90.00000000
_symmetry_Int_Tables_number   1
_chemical_formula_structural   Sr4Al6CrO16
_chemical_formula_sum   'Sr16 Al24 Cr4 O64'
_cell_volume   1736.98292958
_cell_formula_units_Z   4
loop_
 _symmetry_equiv_pos_site_id
 _symmetry_equiv_pos_as_xyz
  1  'x, y, z'
loop_
 _atom_site_type_symbol
 _atom_site_label
 _atom_site_symmetry_multiplicity
 _atom_site_fract_x
 _atom_site_fract_y
 _atom_site_fract_z
 _atom_site_occupancy
  Sr  Sr0  1  0.46725300  0.20871400  0.00509500  1
  Sr  Sr1  1  0.97135100  0.98571500  0.26780200  1
  Sr  Sr2  1  0.02571100  0.75474700  0.00540200  1
  Sr  Sr3  1  0.03274700  0.70871400  0.50509500  1
  Sr  Sr4  1  0.53274700  0.70871400  0.99490500  1
  Sr  Sr5  1  0.45918200  0.48453200  0.28683000  1
  Sr  Sr6  1  0.52864900  0.48571500  0.76780200  1
  Sr  Sr7  1  0.96725300  0.20871400  0.49490500  1
  Sr  Sr8  1  0.04081800  0.98453200  0.78683000  1
  Sr  Sr9  1  0.95918200  0.48453200  0.21317000  1
  Sr  Sr10  1  0.02864900  0.48571500  0.73219800  1
  Sr  Sr11  1  0.54081800  0.98453200  0.71317000  1
  Sr  Sr12  1  0.47135100  0.98571500  0.23219800  1
  Sr  Sr13  1  0.97428900  0.25474700  0.99459800  1
  Sr  Sr14  1  0.47428900  0.25474700  0.50540200  1
  Sr  Sr15  1  0.52571100  0.75474700  0.49459800  1
  Al  Al0  1  0.25814100  0.61348100  0.12752500  1
  Al  Al1  1  0.00086000  0.73607200  0.25473100  1
  Al  Al2  1  0.26227300  0.61187500  0.87540900  1
  Al  Al3  1  0.26158000  0.86367300  0.62521500  1
  Al  Al4  1  0.24245100  0.86018300  0.37435400  1
  Al  Al5  1  0.76158000  0.86367300  0.87478500  1
  Al  Al6  1  0.25754900  0.36018300  0.87435400  1
  Al  Al7  1  0.48827700  0.23785100  0.25219100  1
  Al  Al8  1  0.99914000  0.23607200  0.74526900  1
  Al  Al9  1  0.49914000  0.23607200  0.75473100  1
  Al  Al10  1  0.73842000  0.36367300  0.37478500  1
  Al  Al11  1  0.23772700  0.11187500  0.37540900  1
  Al  Al12  1  0.74185900  0.11348100  0.87247500  1
  Al  Al13  1  0.98827700  0.23785100  0.24780900  1
  Al  Al14  1  0.76227300  0.61187500  0.62459100  1
  Al  Al15  1  0.01172300  0.73785100  0.75219100  1
  Al  Al16  1  0.74245100  0.86018300  0.12564600  1
  Al  Al17  1  0.24185900  0.11348100  0.62752500  1
  Al  Al18  1  0.50086000  0.73607200  0.24526900  1
  Al  Al19  1  0.75754900  0.36018300  0.62564600  1
  Al  Al20  1  0.75814100  0.61348100  0.37247500  1
  Al  Al21  1  0.73772700  0.11187500  0.12459100  1
  Al  Al22  1  0.23842000  0.36367300  0.12521500  1
  Al  Al23  1  0.51172300  0.73785100  0.74780900  1
  Cr  Cr0  1  0.70040800  0.99593700  0.48742600  1
  Cr  Cr1  1  0.79959200  0.49593700  0.98742600  1
  Cr  Cr2  1  0.20040800  0.99593700  0.01257400  1
  Cr  Cr3  1  0.29959200  0.49593700  0.51257400  1
  O  O0  1  0.77232700  0.64594900  0.49858600  1
  O  O1  1  0.39555000  0.15802900  0.33060700  1
  O  O2  1  0.27232700  0.64594900  0.00141400  1
  O  O3  1  0.92132000  0.65775600  0.67194900  1
  O  O4  1  0.85952600  0.03486400  0.45137900  1
  O  O5  1  0.20546000  0.90444700  0.92852700  1
  O  O6  1  0.72767300  0.14594900  0.99858600  1
  O  O7  1  0.88599600  0.58905100  0.04147000  1
  O  O8  1  0.76399900  0.82772900  0.00011800  1
  O  O9  1  0.73600100  0.32772900  0.50011800  1
  O  O10  1  0.92584100  0.63721100  0.32291100  1
  O  O11  1  0.26399900  0.82772900  0.49988200  1
  O  O12  1  0.11376100  0.95291700  0.10950300  1
  O  O13  1  0.57704100  0.31750000  0.33324800  1
  O  O14  1  0.88550300  0.18187600  0.83106200  1
  O  O15  1  0.29454000  0.40444700  0.42852700  1
  O  O16  1  0.07868000  0.15775600  0.32805100  1
  O  O17  1  0.64047400  0.53486400  0.95137900  1
  O  O18  1  0.11052100  0.31283100  0.81378300  1
  O  O19  1  0.23550000  0.98609700  0.34013900  1
  O  O20  1  0.10392300  0.81839600  0.67275200  1
  O  O21  1  0.39607700  0.31839600  0.17275200  1
  O  O22  1  0.07704100  0.31750000  0.16675200  1
  O  O23  1  0.38599600  0.58905100  0.45853000  1
  O  O24  1  0.77439100  0.98922100  0.83778000  1
  O  O25  1  0.60445000  0.65802900  0.66939300  1
  O  O26  1  0.61052100  0.31283100  0.68621700  1
  O  O27  1  0.38623900  0.45291700  0.60950300  1
  O  O28  1  0.14047400  0.53486400  0.54862100  1
  O  O29  1  0.42584100  0.63721100  0.17708900  1
  O  O30  1  0.79454000  0.40444700  0.07147300  1
  O  O31  1  0.76450000  0.48609700  0.65986100  1
  O  O32  1  0.88947900  0.81283100  0.18621700  1
  O  O33  1  0.11449700  0.68187600  0.16893800  1
  O  O34  1  0.61376100  0.95291700  0.39049700  1
  O  O35  1  0.61400400  0.08905100  0.54147000  1
  O  O36  1  0.73550000  0.98609700  0.15986100  1
  O  O37  1  0.89607700  0.31839600  0.32724800  1
  O  O38  1  0.10445000  0.65802900  0.83060700  1
  O  O39  1  0.57415900  0.13721100  0.82291100  1
  O  O40  1  0.22560900  0.48922100  0.16222000  1
  O  O41  1  0.72560900  0.48922100  0.33778000  1
  O  O42  1  0.70546000  0.90444700  0.57147300  1
  O  O43  1  0.61449700  0.68187600  0.33106200  1
  O  O44  1  0.89555000  0.15802900  0.16939300  1
  O  O45  1  0.07415900  0.13721100  0.67708900  1
  O  O46  1  0.57868000  0.15775600  0.17194900  1
  O  O47  1  0.07429200  0.81384600  0.34641100  1
  O  O48  1  0.88623900  0.45291700  0.89049700  1
  O  O49  1  0.11400400  0.08905100  0.95853000  1
  O  O50  1  0.42295900  0.81750000  0.66675200  1
  O  O51  1  0.38947900  0.81283100  0.31378300  1
  O  O52  1  0.38550300  0.18187600  0.66893800  1
  O  O53  1  0.57429200  0.81384600  0.15358900  1
  O  O54  1  0.35952600  0.03486400  0.04862100  1
  O  O55  1  0.60392300  0.81839600  0.82724800  1
  O  O56  1  0.42132000  0.65775600  0.82805100  1
  O  O57  1  0.42570800  0.31384600  0.84641100  1
  O  O58  1  0.23600100  0.32772900  0.99988200  1
  O  O59  1  0.92570800  0.31384600  0.65358900  1
  O  O60  1  0.27439100  0.98922100  0.66222000  1
  O  O61  1  0.26450000  0.48609700  0.84013900  1
  O  O62  1  0.22767300  0.14594900  0.50141400  1
  O  O63  1  0.92295900  0.81750000  0.83324800  1
loop_
_geom_bond_atom_site_label_1
_geom_bond_atom_site_label_2
_geom_bond_distance
_geom_bond_site_symmetry_2
Al0 O33 1.747362 1_555
Al0 O2 1.760066 1_555
Al0 O40 1.762558 1_555
Al0 O29 1.769914 1_555
Al1 O33 1.747739 1_555
Al1 O32 1.748620 1_455
Al1 O47 1.765090 1_555
Al1 O10 1.768621 1_455
Al2 O38 1.743192 1_555
Al2 O61 1.756620 1_555
Al2 O2 1.761559 1_556
Al2 O56 1.764259 1_555
Al3 O20 1.750796 1_555
Al3 O11 1.757078 1_555
Al3 O50 1.758451 1_555
Al3 O60 1.764276 1_555
Al4 O51 1.748812 1_555
Al4 O19 1.755724 1_555
Al4 O11 1.759318 1_555
Al4 O47 1.768803 1_555
Al5 O55 1.750796 1_555
Al5 O8 1.757078 1_556
Al5 O63 1.758451 1_555
Al5 O24 1.764276 1_555
Al6 O18 1.748812 1_555
Al6 O61 1.755724 1_555
Al6 O58 1.759318 1_555
Al6 O57 1.768803 1_555
Al7 O1 1.748917 1_555
Al7 O13 1.750464 1_555
Al7 O46 1.755024 1_555
Al7 O21 1.760694 1_555
Al8 O14 1.747739 1_555
Al8 O18 1.748620 1_655
Al8 O59 1.765090 1_555
Al8 O45 1.768621 1_655
Al9 O52 1.747739 1_555
Al9 O26 1.748620 1_555
Al9 O57 1.765090 1_555
Al9 O39 1.768621 1_555
Al10 O37 1.750796 1_555
Al10 O9 1.757078 1_555
Al10 O13 1.758451 1_555
Al10 O41 1.764276 1_555
Al11 O1 1.743192 1_555
Al11 O19 1.756620 1_545
Al11 O62 1.761559 1_555
Al11 O16 1.764259 1_555
Al12 O14 1.747362 1_555
Al12 O6 1.760066 1_555
Al12 O24 1.762558 1_545
Al12 O39 1.769914 1_555
Al13 O44 1.748917 1_555
Al13 O22 1.750464 1_655
Al13 O16 1.755024 1_655
Al13 O37 1.760694 1_555
Al14 O25 1.743192 1_555
Al14 O31 1.756620 1_555
Al14 O0 1.761559 1_555
Al14 O3 1.764259 1_555
Al15 O38 1.748917 1_555
Al15 O63 1.750464 1_455
Al15 O3 1.755024 1_455
Al15 O20 1.760694 1_555
Al16 O32 1.748812 1_555
Al16 O36 1.755724 1_555
Al16 O8 1.759318 1_555
Al16 O53 1.768803 1_555
Al17 O52 1.747362 1_555
Al17 O62 1.760066 1_555
Al17 O60 1.762558 1_545
Al17 O45 1.769914 1_555
Al18 O43 1.747739 1_555
Al18 O51 1.748620 1_555
Al18 O53 1.765090 1_555
Al18 O29 1.768621 1_555
Al19 O26 1.748812 1_555
Al19 O31 1.755724 1_555
Al19 O9 1.759318 1_555
Al19 O59 1.768803 1_555
Al20 O43 1.747362 1_555
Al20 O0 1.760066 1_555
Al20 O41 1.762558 1_555
Al20 O10 1.769914 1_555
Al21 O44 1.743192 1_555
Al21 O36 1.756620 1_545
Al21 O6 1.761559 1_554
Al21 O46 1.764259 1_555
Al22 O21 1.750796 1_555
Al22 O58 1.757078 1_554
Al22 O22 1.758451 1_555
Al22 O40 1.764276 1_555
Al23 O25 1.748917 1_555
Al23 O50 1.750464 1_555
Al23 O56 1.755024 1_555
Al23 O55 1.760694 1_555
Cr0 O34 1.652583 1_555
Cr0 O35 1.668437 1_565
Cr0 O42 1.672810 1_555
Cr0 O4 1.684261 1_565
Cr1 O48 1.652583 1_555
Cr1 O7 1.668437 1_556
Cr1 O30 1.672810 1_556
Cr1 O17 1.684261 1_555
Cr2 O12 1.652583 1_555
Cr2 O49 1.668437 1_564
Cr2 O5 1.672810 1_554
Cr2 O54 1.684261 1_565
Cr3 O27 1.652583 1_555
Cr3 O23 1.668437 1_555
Cr3 O15 1.672810 1_555
Cr3 O28 1.684261 1_555
O0 Sr3 2.636742 1_655
O0 Sr15 2.780603 1_555
O1 Sr12 2.766519 1_545
O1 Sr14 2.794672 1_555
O2 Sr4 2.636742 1_554
O2 Sr2 2.780603 1_555
O3 Sr3 2.582113 1_655
O3 Sr10 2.658483 1_655
O4 Sr7 2.621691 1_555
O4 Sr1 2.776185 1_545
O5 Sr8 2.701365 1_555
O5 Sr2 2.844848 1_556
O6 Sr0 2.636742 1_556
O6 Sr13 2.780603 1_555
O7 Sr2 2.644327 1_655
O7 Sr9 2.796713 1_555
O8 Sr2 2.694893 1_655
O8 Sr4 2.734911 1_554
O9 Sr14 2.694893 1_555
O9 Sr7 2.734911 1_555
O10 Sr9 2.550068 1_555
O10 Sr3 2.828999 1_655
O11 Sr15 2.694893 1_555
O11 Sr3 2.734911 1_555
O12 Sr1 2.570976 1_455
O12 Sr2 3.127105 1_555
O13 Sr5 2.590465 1_555
O13 Sr14 2.658068 1_555
O14 Sr13 2.557737 1_555
O14 Sr8 3.100179 1_645
O15 Sr5 2.701365 1_555
O15 Sr14 2.844848 1_555
O16 Sr7 2.582113 1_455
O16 Sr1 2.658483 1_445
O17 Sr4 2.621691 1_555
O17 Sr6 2.776185 1_555
O18 Sr10 2.688329 1_555
O18 Sr13 2.872972 1_455
O19 Sr12 2.688589 1_555
O19 Sr1 2.713478 1_455
O20 Sr8 2.778201 1_555
O20 Sr3 2.783092 1_555
O21 Sr5 2.778201 1_555
O21 Sr0 2.783092 1_555
O22 Sr9 2.590465 1_455
O22 Sr13 2.658068 1_454
O23 Sr15 2.644327 1_555
O23 Sr5 2.796713 1_555
O24 Sr8 2.645571 1_655
O24 Sr11 2.799695 1_555
O25 Sr6 2.766519 1_555
O25 Sr15 2.794672 1_555
O26 Sr6 2.688329 1_555
O26 Sr14 2.872972 1_555
O27 Sr6 2.570976 1_555
O27 Sr14 3.127105 1_555
O28 Sr3 2.621691 1_555
O28 Sr10 2.776185 1_555
O29 Sr5 2.550068 1_555
O29 Sr4 2.828999 1_554
O30 Sr9 2.701365 1_555
O30 Sr13 2.844848 1_554
O31 Sr6 2.688589 1_555
O31 Sr10 2.713478 1_655
O32 Sr1 2.688329 1_555
O32 Sr2 2.872972 1_655
O33 Sr2 2.557737 1_555
O33 Sr9 3.100179 1_455
O34 Sr12 2.570976 1_555
O34 Sr15 3.127105 1_555
O35 Sr14 2.644327 1_555
O35 Sr11 2.796713 1_545
O36 Sr1 2.688589 1_555
O36 Sr12 2.713478 1_555
O37 Sr9 2.778201 1_555
O37 Sr7 2.783092 1_555
O38 Sr10 2.766519 1_555
O38 Sr2 2.794672 1_556
O39 Sr11 2.550068 1_545
O39 Sr0 2.828999 1_556
O40 Sr9 2.645571 1_455
O40 Sr5 2.799695 1_555
O41 Sr5 2.645571 1_555
O41 Sr9 2.799695 1_555
O42 Sr11 2.701365 1_555
O42 Sr15 2.844848 1_555
O43 Sr15 2.557737 1_555
O43 Sr5 3.100179 1_555
O44 Sr1 2.766519 1_545
O44 Sr13 2.794672 1_554
O45 Sr8 2.550068 1_545
O45 Sr7 2.828999 1_455
O46 Sr0 2.582113 1_555
O46 Sr12 2.658483 1_545
O47 Sr3 2.594243 1_555
O47 Sr1 2.726743 1_455
O48 Sr10 2.570976 1_655
O48 Sr13 3.127105 1_555
O49 Sr13 2.644327 1_455
O49 Sr8 2.796713 1_545
O50 Sr11 2.590465 1_555
O50 Sr15 2.658068 1_555
O51 Sr12 2.688329 1_555
O51 Sr15 2.872972 1_555
O52 Sr14 2.557737 1_555
O52 Sr11 3.100179 1_545
O53 Sr4 2.594243 1_554
O53 Sr12 2.726743 1_555
O54 Sr0 2.621691 1_555
O54 Sr12 2.776185 1_545
O55 Sr11 2.778201 1_555
O55 Sr4 2.783092 1_555
O56 Sr4 2.582113 1_555
O56 Sr6 2.658483 1_555
O57 Sr0 2.594243 1_556
O57 Sr6 2.726743 1_555
O58 Sr13 2.694893 1_455
O58 Sr0 2.734911 1_556
O59 Sr7 2.594243 1_555
O59 Sr10 2.726743 1_655
O60 Sr11 2.645571 1_555
O60 Sr8 2.799695 1_555
O61 Sr10 2.688589 1_555
O61 Sr6 2.713478 1_555
O62 Sr7 2.636742 1_455
O62 Sr14 2.780603 1_555
O63 Sr8 2.590465 1_655
O63 Sr2 2.658068 1_656
