# generated using pymatgen
data_MnAsO4
_symmetry_space_group_name_H-M   'P 1'
_cell_length_a   5.07503600
_cell_length_b   6.14778800
_cell_length_c   10.28209400
_cell_angle_alpha   90.00001489
_cell_angle_beta   90.00015704
_cell_angle_gamma   90.00005054
_symmetry_Int_Tables_number   1
_chemical_formula_structural   MnAsO4
_chemical_formula_sum   'Mn4 As4 O16'
_cell_volume   320.80385623
_cell_formula_units_Z   4
loop_
 _symmetry_equiv_pos_site_id
 _symmetry_equiv_pos_as_xyz
  1  'x, y, z'
loop_
 _atom_site_type_symbol
 _atom_site_label
 _atom_site_symmetry_multiplicity
 _atom_site_fract_x
 _atom_site_fract_y
 _atom_site_fract_z
 _atom_site_occupancy
  Mn  Mn0  1  0.56157900  0.25000000  0.78106300  1
  Mn  Mn1  1  0.06156900  0.75000500  0.71893800  1
  Mn  Mn2  1  0.93844800  0.24999500  0.28105200  1
  Mn  Mn3  1  0.43844700  0.75000200  0.21894500  1
  As  As0  1  0.42594200  0.25000000  0.09857100  1
  As  As1  1  0.07404900  0.25000000  0.59856800  1
  As  As2  1  0.92594300  0.74999900  0.40142800  1
  As  As3  1  0.57404700  0.75000000  0.90143200  1
  O  O0  1  0.14678500  0.25000000  0.43579500  1
  O  O1  1  0.35324000  0.25000100  0.93580500  1
  O  O2  1  0.85323800  0.75000000  0.56419400  1
  O  O3  1  0.64678300  0.75000000  0.06420600  1
  O  O4  1  0.76201200  0.25000000  0.11681000  1
  O  O5  1  0.73797900  0.25000100  0.61680200  1
  O  O6  1  0.26201100  0.75000000  0.38319100  1
  O  O7  1  0.23798000  0.74999900  0.88319700  1
  O  O8  1  0.26544500  0.03828000  0.17700800  1
  O  O9  1  0.23454100  0.03828300  0.67699800  1
  O  O10  1  0.26544600  0.46171600  0.17700800  1
  O  O11  1  0.23453900  0.46171800  0.67699800  1
  O  O12  1  0.73454100  0.53828400  0.82300300  1
  O  O13  1  0.76544700  0.53828100  0.32299300  1
  O  O14  1  0.76544700  0.96171800  0.32299400  1
  O  O15  1  0.73454000  0.96171600  0.82300100  1
loop_
_geom_bond_atom_site_label_1
_geom_bond_atom_site_label_2
_geom_bond_distance
_geom_bond_site_symmetry_2
Mn0 O1 1.910356 1_555
Mn0 O5 1.911543 1_555
Mn0 O15 2.024235 1_545
Mn0 O12 2.024240 1_555
Mn0 O9 2.365109 1_555
Mn0 O11 2.365122 1_555
Mn1 O2 1.910346 1_455
Mn1 O7 1.911547 1_555
Mn1 O9 2.024231 1_565
Mn1 O11 2.024276 1_555
Mn1 O15 2.365053 1_455
Mn1 O12 2.365091 1_455
Mn2 O0 1.910354 1_655
Mn2 O4 1.911452 1_555
Mn2 O14 2.024293 1_545
Mn2 O13 2.024341 1_555
Mn2 O8 2.364864 1_655
Mn2 O10 2.364887 1_655
Mn3 O3 1.910322 1_555
Mn3 O6 1.911493 1_555
Mn3 O8 2.024290 1_565
Mn3 O10 2.024330 1_555
Mn3 O14 2.364896 1_555
Mn3 O13 2.364910 1_555
As0 O1 1.713764 1_554
As0 O4 1.715846 1_555
As0 O10 1.734362 1_555
As0 O8 1.734383 1_555
As1 O0 1.713873 1_555
As1 O5 1.715841 1_455
As1 O11 1.734321 1_555
As1 O9 1.734322 1_555
As2 O2 1.713769 1_555
As2 O6 1.715835 1_655
As2 O13 1.734359 1_555
As2 O14 1.734360 1_555
As3 O3 1.713881 1_556
As3 O7 1.715826 1_555
As3 O12 1.734319 1_555
As3 O15 1.734326 1_555
