# generated using pymatgen
data_Fe3TeC9SO9
_symmetry_space_group_name_H-M   'P 1'
_cell_length_a   8.10739300
_cell_length_b   9.90993219
_cell_length_c   14.84711036
_cell_angle_alpha   84.44743997
_cell_angle_beta   83.61285161
_cell_angle_gamma   65.87369438
_symmetry_Int_Tables_number   1
_chemical_formula_structural   Fe3TeC9SO9
_chemical_formula_sum   'Fe6 Te2 C18 S2 O18'
_cell_volume   1080.18196915
_cell_formula_units_Z   2
loop_
 _symmetry_equiv_pos_site_id
 _symmetry_equiv_pos_as_xyz
  1  'x, y, z'
loop_
 _atom_site_type_symbol
 _atom_site_label
 _atom_site_symmetry_multiplicity
 _atom_site_fract_x
 _atom_site_fract_y
 _atom_site_fract_z
 _atom_site_occupancy
  Fe  Fe0  1  0.35287400  0.24593200  0.14909300  1
  Fe  Fe1  1  0.64712600  0.75406800  0.85090700  1
  Fe  Fe2  1  0.41530700  0.29843700  0.34535800  1
  Fe  Fe3  1  0.58469300  0.70156300  0.65464200  1
  Fe  Fe4  1  0.27251900  0.57647000  0.23309700  1
  Fe  Fe5  1  0.72748100  0.42353000  0.76690300  1
  Te  Te0  1  0.02086800  0.46827300  0.25046000  1
  Te  Te1  1  0.97913200  0.53172700  0.74954000  1
  C  C0  1  0.29948600  0.30688400  0.02531200  1
  C  C1  1  0.70051400  0.69311600  0.97468800  1
  C  C2  1  0.65049600  0.86843400  0.61604300  1
  C  C3  1  0.34950400  0.13156600  0.38395700  1
  C  C4  1  0.06449300  0.73395800  0.31963400  1
  C  C5  1  0.93550700  0.26604200  0.68036600  1
  C  C6  1  0.30387000  0.42963000  0.44730400  1
  C  C7  1  0.69613000  0.57037000  0.55269600  1
  C  C8  1  0.68327000  0.20719500  0.39437600  1
  C  C9  1  0.31673000  0.79280500  0.60562400  1
  C  C10  1  0.78810800  0.88475000  0.82029100  1
  C  C11  1  0.21189200  0.11525000  0.17970900  1
  C  C12  1  0.44801500  0.68424800  0.27403500  1
  C  C13  1  0.55198500  0.31575200  0.72596500  1
  C  C14  1  0.60880100  0.05593300  0.12764000  1
  C  C15  1  0.39119900  0.94406700  0.87236000  1
  C  C16  1  0.19898800  0.69391200  0.11063000  1
  C  C17  1  0.80101200  0.30608800  0.88937000  1
  S  S0  1  0.53702100  0.35133100  0.20572300  1
  S  S1  1  0.46297900  0.64866900  0.79427700  1
  O  O0  1  0.86390500  0.96232400  0.81448000  1
  O  O1  1  0.13609500  0.03767600  0.18552000  1
  O  O2  1  0.75786900  0.97294300  0.12330800  1
  O  O3  1  0.24213100  0.02705700  0.87669200  1
  O  O4  1  0.71985900  0.65085800  0.05005900  1
  O  O5  1  0.28014100  0.34914200  0.94994100  1
  O  O6  1  0.52381600  0.75155400  0.29264900  1
  O  O7  1  0.47618400  0.24844600  0.70735100  1
  O  O8  1  0.24524500  0.49675000  0.51148000  1
  O  O9  1  0.75475500  0.50325000  0.48852000  1
  O  O10  1  0.68409200  0.96782400  0.58718900  1
  O  O11  1  0.31590800  0.03217600  0.41281100  1
  O  O12  1  0.16657400  0.82422900  0.59639800  1
  O  O13  1  0.83342600  0.17577100  0.40360200  1
  O  O14  1  0.95002000  0.80881600  0.36871900  1
  O  O15  1  0.04998000  0.19118400  0.63128100  1
  O  O16  1  0.16146100  0.73494300  0.03751300  1
  O  O17  1  0.83853900  0.26505700  0.96248700  1
loop_
_geom_bond_atom_site_label_1
_geom_bond_atom_site_label_2
_geom_bond_distance
_geom_bond_site_symmetry_2
Fe0 S0 2.398091 1_555
Fe0 Te0 3.042556 1_555
Fe1 S1 2.398091 1_555
Fe1 Te1 3.042556 1_555
Fe2 S0 2.303030 1_555
Fe2 Te0 3.344828 1_555
Fe3 S1 2.303030 1_555
Fe3 Te1 3.344828 1_555
Fe4 S0 2.410783 1_555
Fe4 Te0 2.645093 1_555
Fe5 S1 2.410783 1_555
Fe5 Te1 2.645093 1_555
C0 O5 1.160557 1_554
C0 Fe0 1.917839 1_555
C1 O4 1.160557 1_556
C1 Fe1 1.917839 1_555
C2 O10 1.157383 1_555
C2 Fe3 1.953840 1_555
C3 O11 1.157383 1_555
C3 Fe2 1.953840 1_555
C4 O14 1.155016 1_455
C4 Fe4 2.164510 1_555
C5 O15 1.155016 1_655
C5 Fe5 2.164510 1_555
C6 O8 1.157435 1_555
C6 Fe2 1.978348 1_555
C7 O9 1.157435 1_555
C7 Fe3 1.978348 1_555
C8 O13 1.147462 1_555
C8 Fe2 2.164597 1_555
C9 O12 1.147462 1_555
C9 Fe3 2.164597 1_555
C10 O0 1.156555 1_555
C10 Fe1 2.042252 1_555
C11 O1 1.156555 1_555
C11 Fe0 2.042252 1_555
C12 O6 1.143454 1_555
C12 Fe4 2.257207 1_555
C13 O7 1.143454 1_555
C13 Fe5 2.257207 1_555
C14 O2 1.149571 1_545
C14 Fe0 2.174193 1_555
C15 O3 1.149571 1_565
C15 Fe1 2.174193 1_555
C16 O16 1.150351 1_555
C16 Fe4 2.068942 1_555
C17 O17 1.150351 1_555
C17 Fe5 2.068942 1_555
