# generated using pymatgen
data_K4Na2TeO6
_symmetry_space_group_name_H-M   'P 1'
_cell_length_a   10.06244600
_cell_length_b   6.76621700
_cell_length_c   7.33783947
_cell_angle_alpha   57.26147277
_cell_angle_beta   90.00000000
_cell_angle_gamma   90.00000000
_symmetry_Int_Tables_number   1
_chemical_formula_structural   K4Na2TeO6
_chemical_formula_sum   'K8 Na4 Te2 O12'
_cell_volume   420.23261563
_cell_formula_units_Z   2
loop_
 _symmetry_equiv_pos_site_id
 _symmetry_equiv_pos_as_xyz
  1  'x, y, z'
loop_
 _atom_site_type_symbol
 _atom_site_label
 _atom_site_symmetry_multiplicity
 _atom_site_fract_x
 _atom_site_fract_y
 _atom_site_fract_z
 _atom_site_occupancy
  K  K0  1  0.51219300  0.68724000  0.06668200  1
  K  K1  1  0.67720500  0.49843500  0.51419000  1
  K  K2  1  0.01219300  0.31276000  0.43331800  1
  K  K3  1  0.32279500  0.50156500  0.48581000  1
  K  K4  1  0.82279500  0.49843500  0.01419000  1
  K  K5  1  0.98780700  0.68724000  0.56668200  1
  K  K6  1  0.17720500  0.50156500  0.98581000  1
  K  K7  1  0.48780700  0.31276000  0.93331800  1
  Na  Na0  1  0.74201000  0.01207900  0.21429200  1
  Na  Na1  1  0.25799000  0.98792100  0.78570800  1
  Na  Na2  1  0.24201000  0.98792100  0.28570800  1
  Na  Na3  1  0.75799000  0.01207900  0.71429200  1
  Te  Te0  1  0.00000000  0.00000000  0.00000000  1
  Te  Te1  1  0.50000000  0.00000000  0.50000000  1
  O  O0  1  0.84960900  0.22218700  0.84353700  1
  O  O1  1  0.87081700  0.74895500  0.19749900  1
  O  O2  1  0.62918300  0.74895500  0.69749900  1
  O  O3  1  0.00825200  0.11171900  0.20146100  1
  O  O4  1  0.49174800  0.11171900  0.70146100  1
  O  O5  1  0.65039100  0.22218700  0.34353700  1
  O  O6  1  0.99174800  0.88828100  0.79853900  1
  O  O7  1  0.37081700  0.25104500  0.30250100  1
  O  O8  1  0.15039100  0.77781300  0.15646300  1
  O  O9  1  0.34960900  0.77781300  0.65646300  1
  O  O10  1  0.50825200  0.88828100  0.29853900  1
  O  O11  1  0.12918300  0.25104500  0.80250100  1
loop_
_geom_bond_atom_site_label_1
_geom_bond_atom_site_label_2
_geom_bond_distance
_geom_bond_site_symmetry_2
K0 O4 2.673605 1_564
K0 O10 2.692517 1_555
K0 O2 2.770443 1_554
K0 O7 2.864413 1_555
K0 O5 3.008004 1_555
K0 O9 3.180819 1_554
K1 O2 2.717011 1_555
K1 O0 2.730911 1_555
K1 O5 2.768795 1_555
K1 O1 2.794358 1_555
K1 O10 2.799551 1_555
K1 O4 2.885892 1_555
K2 O6 2.673605 1_445
K2 O3 2.692517 1_555
K2 O11 2.770443 1_555
K2 O1 2.864413 1_455
K2 O8 3.008004 1_555
K2 O0 3.180819 1_455
K3 O7 2.717011 1_555
K3 O8 2.730911 1_555
K3 O9 2.768795 1_555
K3 O11 2.794358 1_555
K3 O4 2.799551 1_555
K3 O10 2.885892 1_555
K4 O1 2.717011 1_555
K4 O5 2.730911 1_555
K4 O0 2.768795 1_554
K4 O2 2.794358 1_554
K4 O6 2.799551 1_554
K4 O3 2.885892 1_655
K5 O3 2.673605 1_665
K5 O6 2.692517 1_555
K5 O1 2.770443 1_555
K5 O11 2.864413 1_655
K5 O0 3.008004 1_555
K5 O8 3.180819 1_655
K6 O11 2.717011 1_555
K6 O9 2.730911 1_555
K6 O8 2.768795 1_556
K6 O7 2.794358 1_556
K6 O3 2.799551 1_556
K6 O6 2.885892 1_455
K7 O10 2.673605 1_546
K7 O4 2.692517 1_555
K7 O7 2.770443 1_556
K7 O2 2.864413 1_555
K7 O9 3.008004 1_555
K7 O5 3.180819 1_556
Na0 O1 2.258770 1_545
Na0 O5 2.286630 1_555
Na0 O10 2.460988 1_545
Na0 O0 2.532072 1_554
Na0 O3 2.751731 1_655
Na1 O11 2.258770 1_565
Na1 O9 2.286630 1_555
Na1 O4 2.460988 1_565
Na1 O8 2.532072 1_556
Na1 O6 2.751731 1_455
Na2 O7 2.258770 1_565
Na2 O8 2.286630 1_555
Na2 O3 2.460988 1_565
Na2 O9 2.532072 1_555
Na2 O10 2.751731 1_555
Na3 O2 2.258770 1_545
Na3 O0 2.286630 1_555
Na3 O6 2.460988 1_545
Na3 O5 2.532072 1_555
Na3 O4 2.751731 1_555
O0 Te0 2.000361 1_656
O1 Te0 2.003175 1_665
O2 Te1 2.003175 1_565
O3 Te0 1.993062 1_555
O4 Te1 1.993062 1_555
O5 Te1 2.000361 1_555
O6 Te0 1.993062 1_666
O7 Te1 2.003175 1_555
O8 Te0 2.000361 1_565
O9 Te1 2.000361 1_565
O10 Te1 1.993062 1_565
O11 Te0 2.003175 1_556
