# generated using pymatgen
data_Ca19Ag8N7
_symmetry_space_group_name_H-M   'P 1'
_cell_length_a   10.31511675
_cell_length_b   10.31511675
_cell_length_c   10.31511675
_cell_angle_alpha   60.00000000
_cell_angle_beta   60.00000000
_cell_angle_gamma   60.00000000
_symmetry_Int_Tables_number   1
_chemical_formula_structural   Ca19Ag8N7
_chemical_formula_sum   'Ca19 Ag8 N7'
_cell_volume   776.08170408
_cell_formula_units_Z   1
loop_
 _symmetry_equiv_pos_site_id
 _symmetry_equiv_pos_as_xyz
  1  'x, y, z'
loop_
 _atom_site_type_symbol
 _atom_site_label
 _atom_site_symmetry_multiplicity
 _atom_site_fract_x
 _atom_site_fract_y
 _atom_site_fract_z
 _atom_site_occupancy
  Ca  Ca0  1  0.82926200  0.50000000  0.50000000  1
  Ca  Ca1  1  0.50000000  0.50000000  0.50000000  1
  Ca  Ca2  1  0.83486100  0.83486100  0.16513900  1
  Ca  Ca3  1  0.83486100  0.16513900  0.16513900  1
  Ca  Ca4  1  0.16513900  0.83486100  0.83486100  1
  Ca  Ca5  1  0.83486100  0.16513900  0.83486100  1
  Ca  Ca6  1  0.16513900  0.83486100  0.16513900  1
  Ca  Ca7  1  0.16513900  0.16513900  0.83486100  1
  Ca  Ca8  1  0.17073800  0.50000000  0.50000000  1
  Ca  Ca9  1  0.17073800  0.82926200  0.50000000  1
  Ca  Ca10  1  0.50000000  0.50000000  0.17073800  1
  Ca  Ca11  1  0.17073800  0.50000000  0.82926200  1
  Ca  Ca12  1  0.50000000  0.17073800  0.50000000  1
  Ca  Ca13  1  0.50000000  0.82926200  0.17073800  1
  Ca  Ca14  1  0.50000000  0.17073800  0.82926200  1
  Ca  Ca15  1  0.50000000  0.50000000  0.82926200  1
  Ca  Ca16  1  0.82926200  0.50000000  0.17073800  1
  Ca  Ca17  1  0.50000000  0.82926200  0.50000000  1
  Ca  Ca18  1  0.82926200  0.17073800  0.50000000  1
  Ag  Ag0  1  0.17617800  0.47146600  0.17617800  1
  Ag  Ag1  1  0.82382200  0.82382200  0.52853400  1
  Ag  Ag2  1  0.82382200  0.82382200  0.82382200  1
  Ag  Ag3  1  0.52853400  0.82382200  0.82382200  1
  Ag  Ag4  1  0.17617800  0.17617800  0.17617800  1
  Ag  Ag5  1  0.47146600  0.17617800  0.17617800  1
  Ag  Ag6  1  0.17617800  0.17617800  0.47146600  1
  Ag  Ag7  1  0.82382200  0.52853400  0.82382200  1
  N  N0  1  0.00000000  0.00000000  0.00000000  1
  N  N1  1  0.32590600  0.32590600  0.67409400  1
  N  N2  1  0.32590600  0.67409400  0.32590600  1
  N  N3  1  0.67409400  0.32590600  0.67409400  1
  N  N4  1  0.32590600  0.67409400  0.67409400  1
  N  N5  1  0.67409400  0.32590600  0.32590600  1
  N  N6  1  0.67409400  0.67409400  0.32590600  1
loop_
_geom_bond_atom_site_label_1
_geom_bond_atom_site_label_2
_geom_bond_distance
_geom_bond_site_symmetry_2
Ca0 N3 2.405565 1_555
Ca0 N6 2.405565 1_555
Ca1 N3 2.539645 1_555
Ca1 N4 2.539645 1_555
Ca1 N6 2.539645 1_555
Ca1 N1 2.539645 1_555
Ca1 N2 2.539645 1_555
Ca1 N5 2.539645 1_555
Ca2 N6 2.345233 1_555
Ca2 N0 2.409011 1_665
Ca3 N5 2.345233 1_555
Ca3 N0 2.409011 1_655
Ca4 N4 2.345233 1_555
Ca4 N0 2.409011 1_566
Ca5 N3 2.345233 1_555
Ca5 N0 2.409011 1_656
Ca6 N2 2.345233 1_555
Ca6 N0 2.409011 1_565
Ca7 N1 2.345233 1_555
Ca7 N0 2.409011 1_556
Ca8 N2 2.405565 1_555
Ca8 N1 2.405565 1_555
Ca9 N4 2.405565 1_555
Ca9 N2 2.405565 1_555
Ca10 N2 2.405565 1_555
Ca10 N5 2.405565 1_555
Ca11 N4 2.405565 1_555
Ca11 N1 2.405565 1_555
Ca12 N5 2.405565 1_555
Ca12 N1 2.405565 1_555
Ca13 N6 2.405565 1_555
Ca13 N2 2.405565 1_555
Ca14 N3 2.405565 1_555
Ca14 N1 2.405565 1_555
Ca15 N3 2.405565 1_555
Ca15 N4 2.405565 1_555
Ca16 N6 2.405565 1_555
Ca16 N5 2.405565 1_555
Ca17 N4 2.405565 1_555
Ca17 N6 2.405565 1_555
Ca18 N3 2.405565 1_555
Ca18 N5 2.405565 1_555
Ag0 Ag5 3.045930 1_555
Ag0 Ag6 3.045930 1_555
Ag0 Ag4 3.045930 1_555
Ag0 Ca16 3.467899 1_455
Ag0 Ca11 3.467899 1_554
Ag0 Ca15 3.467899 1_554
Ag0 Ca10 3.467899 1_555
Ag0 Ca0 3.467899 1_455
Ag0 Ca8 3.467899 1_555
Ag0 Ca6 3.638159 1_555
Ag0 Ca4 3.638159 1_554
Ag0 Ca2 3.638159 1_455
Ag1 Ag2 3.045930 1_555
Ag1 Ag7 3.045930 1_555
Ag1 Ag3 3.045930 1_555
Ag1 Ca17 3.467899 1_555
Ag1 Ca8 3.467899 1_655
Ag1 Ca12 3.467899 1_565
Ag1 Ca0 3.467899 1_555
Ag1 Ca9 3.467899 1_655
Ag1 Ca18 3.467899 1_565
Ag1 Ca6 3.638159 1_655
Ag1 Ca3 3.638159 1_565
Ag1 Ca2 3.638159 1_555
Ag2 Ag7 3.045930 1_555
Ag2 Ag3 3.045930 1_555
Ag2 Ca11 3.467899 1_655
Ag2 Ca14 3.467899 1_565
Ag2 Ca9 3.467899 1_655
Ag2 Ca16 3.467899 1_556
Ag2 Ca18 3.467899 1_565
Ag2 Ca13 3.467899 1_556
Ag2 Ca2 3.638159 1_556
Ag2 Ca4 3.638159 1_655
Ag2 Ca5 3.638159 1_565
Ag3 Ag7 3.045930 1_555
Ag3 Ca17 3.467899 1_555
Ag3 Ca14 3.467899 1_565
Ag3 Ca10 3.467899 1_556
Ag3 Ca15 3.467899 1_555
Ag3 Ca12 3.467899 1_565
Ag3 Ca13 3.467899 1_556
Ag3 Ca6 3.638159 1_556
Ag3 Ca7 3.638159 1_565
Ag3 Ca4 3.638159 1_555
Ag4 Ag5 3.045930 1_555
Ag4 Ag6 3.045930 1_555
Ag4 Ca18 3.467899 1_455
Ag4 Ca16 3.467899 1_455
Ag4 Ca13 3.467899 1_545
Ag4 Ca14 3.467899 1_554
Ag4 Ca11 3.467899 1_554
Ag4 Ca9 3.467899 1_545
Ag4 Ca7 3.638159 1_554
Ag4 Ca3 3.638159 1_455
Ag4 Ca6 3.638159 1_545
Ag5 Ag6 3.045930 1_555
Ag5 Ca14 3.467899 1_554
Ag5 Ca13 3.467899 1_545
Ag5 Ca15 3.467899 1_554
Ag5 Ca17 3.467899 1_545
Ag5 Ca12 3.467899 1_555
Ag5 Ca10 3.467899 1_555
Ag5 Ca3 3.638159 1_555
Ag5 Ca2 3.638159 1_545
Ag5 Ca5 3.638159 1_554
Ag6 Ca17 3.467899 1_545
Ag6 Ca18 3.467899 1_455
Ag6 Ca0 3.467899 1_455
Ag6 Ca9 3.467899 1_545
Ag6 Ca8 3.467899 1_555
Ag6 Ca12 3.467899 1_555
Ag6 Ca7 3.638159 1_555
Ag6 Ca4 3.638159 1_545
Ag6 Ca5 3.638159 1_455
Ag7 Ca11 3.467899 1_655
Ag7 Ca15 3.467899 1_555
Ag7 Ca10 3.467899 1_556
Ag7 Ca16 3.467899 1_556
Ag7 Ca8 3.467899 1_655
Ag7 Ca0 3.467899 1_555
Ag7 Ca7 3.638159 1_655
Ag7 Ca3 3.638159 1_556
Ag7 Ca5 3.638159 1_555
