# generated using pymatgen
data_Li2AlBO4
_symmetry_space_group_name_H-M   'P 1'
_cell_length_a   5.10917400
_cell_length_b   6.36818800
_cell_length_c   10.44953268
_cell_angle_alpha   83.72430622
_cell_angle_beta   90.00000000
_cell_angle_gamma   90.00000000
_symmetry_Int_Tables_number   1
_chemical_formula_structural   Li2AlBO4
_chemical_formula_sum   'Li8 Al4 B4 O16'
_cell_volume   337.95047679
_cell_formula_units_Z   4
loop_
 _symmetry_equiv_pos_site_id
 _symmetry_equiv_pos_as_xyz
  1  'x, y, z'
loop_
 _atom_site_type_symbol
 _atom_site_label
 _atom_site_symmetry_multiplicity
 _atom_site_fract_x
 _atom_site_fract_y
 _atom_site_fract_z
 _atom_site_occupancy
  Li  Li0  1  0.33083700  0.77485800  0.07145800  1
  Li  Li1  1  0.83083700  0.22514200  0.42854200  1
  Li  Li2  1  0.16916300  0.77485800  0.57145800  1
  Li  Li3  1  0.35772300  0.89478300  0.78923000  1
  Li  Li4  1  0.85772300  0.10521700  0.71077000  1
  Li  Li5  1  0.64227700  0.10521700  0.21077000  1
  Li  Li6  1  0.14227700  0.89478300  0.28923000  1
  Li  Li7  1  0.66916300  0.22514200  0.92854200  1
  Al  Al0  1  0.85652600  0.50184200  0.15883300  1
  Al  Al1  1  0.64347400  0.50184200  0.65883300  1
  Al  Al2  1  0.35652600  0.49815800  0.34116700  1
  Al  Al3  1  0.14347400  0.49815800  0.84116700  1
  B  B0  1  0.32286100  0.20269100  0.55857400  1
  B  B1  1  0.17713900  0.20269100  0.05857400  1
  B  B2  1  0.82286100  0.79730900  0.94142600  1
  B  B3  1  0.67713900  0.79730900  0.44142600  1
  O  O0  1  0.69950400  0.69888400  0.05146500  1
  O  O1  1  0.58526400  0.26634900  0.58051500  1
  O  O2  1  0.08526400  0.73365100  0.91948500  1
  O  O3  1  0.19950400  0.30111600  0.44853500  1
  O  O4  1  0.70033900  0.94668300  0.86116700  1
  O  O5  1  0.30049600  0.30111600  0.94853500  1
  O  O6  1  0.20033900  0.05331700  0.63883300  1
  O  O7  1  0.91473600  0.26634900  0.08051500  1
  O  O8  1  0.80049600  0.69888400  0.55146500  1
  O  O9  1  0.64871300  0.39966400  0.28397800  1
  O  O10  1  0.85128700  0.39966400  0.78397800  1
  O  O11  1  0.29966100  0.05331700  0.13883300  1
  O  O12  1  0.35128700  0.60033600  0.71602200  1
  O  O13  1  0.79966100  0.94668300  0.36116700  1
  O  O14  1  0.41473600  0.73365100  0.41948500  1
  O  O15  1  0.14871300  0.60033600  0.21602200  1
loop_
_geom_bond_atom_site_label_1
_geom_bond_atom_site_label_2
_geom_bond_distance
_geom_bond_site_symmetry_2
Li0 O0 1.961558 1_555
Li0 O11 1.984566 1_565
Li0 O15 2.003987 1_555
Li0 O2 2.063025 1_554
Li1 O3 1.961558 1_655
Li1 O13 1.984566 1_545
Li1 O9 2.003987 1_555
Li1 O1 2.063025 1_555
Li2 O8 1.961558 1_455
Li2 O6 1.984566 1_565
Li2 O12 2.003987 1_555
Li2 O14 2.063025 1_555
Li3 O6 1.946485 1_565
Li3 O4 1.947515 1_555
Li3 O12 2.101397 1_555
Li3 O2 2.130248 1_555
Li4 O4 1.946485 1_545
Li4 O6 1.947515 1_655
Li4 O10 2.101397 1_555
Li4 O1 2.130248 1_555
Li5 O13 1.946485 1_545
Li5 O11 1.947515 1_555
Li5 O9 2.101397 1_555
Li5 O7 2.130248 1_555
Li6 O11 1.946485 1_565
Li6 O13 1.947515 1_455
Li6 O15 2.101397 1_555
Li6 O14 2.130248 1_555
Li7 O5 1.961558 1_555
Li7 O4 1.984566 1_545
Li7 O10 2.003987 1_555
Li7 O7 2.063025 1_556
Al0 O15 1.749583 1_655
Al0 O9 1.753505 1_555
Al0 O0 1.780200 1_555
Al0 O7 1.809839 1_555
Al1 O12 1.749583 1_555
Al1 O10 1.753505 1_555
Al1 O8 1.780200 1_555
Al1 O1 1.809839 1_555
Al2 O9 1.749583 1_555
Al2 O15 1.753505 1_555
Al2 O3 1.780200 1_555
Al2 O14 1.809839 1_555
Al3 O10 1.749583 1_455
Al3 O12 1.753505 1_555
Al3 O5 1.780200 1_555
Al3 O2 1.809839 1_555
B0 O6 1.351174 1_555
B0 O3 1.398100 1_555
B0 O1 1.426394 1_555
B1 O11 1.351174 1_555
B1 O5 1.398100 1_554
B1 O7 1.426394 1_455
B2 O4 1.351174 1_555
B2 O0 1.398100 1_556
B2 O2 1.426394 1_655
B3 O13 1.351174 1_555
B3 O8 1.398100 1_555
B3 O14 1.426394 1_555
