# generated using pymatgen
data_TiS3
_symmetry_space_group_name_H-M   'P 1'
_cell_length_a   7.01607677
_cell_length_b   7.01607677
_cell_length_c   7.01607617
_cell_angle_alpha   117.96758600
_cell_angle_beta   117.96758600
_cell_angle_gamma   117.96757968
_symmetry_Int_Tables_number   1
_chemical_formula_structural   TiS3
_chemical_formula_sum   'Ti1 S3'
_cell_volume   126.38302320
_cell_formula_units_Z   1
loop_
 _symmetry_equiv_pos_site_id
 _symmetry_equiv_pos_as_xyz
  1  'x, y, z'
loop_
 _atom_site_type_symbol
 _atom_site_label
 _atom_site_symmetry_multiplicity
 _atom_site_fract_x
 _atom_site_fract_y
 _atom_site_fract_z
 _atom_site_occupancy
  Ti  Ti0  1  0.99990300  0.99990300  0.99990300  1
  S  S0  1  0.67726900  0.41141400  0.41141400  1
  S  S1  1  0.41141400  0.67726900  0.41141400  1
  S  S2  1  0.41141400  0.41141400  0.67726900  1
loop_
_geom_bond_atom_site_label_1
_geom_bond_atom_site_label_2
_geom_bond_distance
_geom_bond_site_symmetry_2
S0 Ti0 2.386857 1_555
S0 Ti0 2.387354 1_444
S1 Ti0 2.386857 1_555
S1 Ti0 2.387354 1_444
S2 Ti0 2.386858 1_555
S2 Ti0 2.387353 1_444
