# generated using pymatgen
data_Dy4CdCo
_symmetry_space_group_name_H-M   'P 1'
_cell_length_a   9.43740568
_cell_length_b   9.43740585
_cell_length_c   9.43740713
_cell_angle_alpha   59.99984618
_cell_angle_beta   59.99985855
_cell_angle_gamma   59.99992071
_symmetry_Int_Tables_number   1
_chemical_formula_structural   Dy4CdCo
_chemical_formula_sum   'Dy16 Cd4 Co4'
_cell_volume   594.34925086
_cell_formula_units_Z   4
loop_
 _symmetry_equiv_pos_site_id
 _symmetry_equiv_pos_as_xyz
  1  'x, y, z'
loop_
 _atom_site_type_symbol
 _atom_site_label
 _atom_site_symmetry_multiplicity
 _atom_site_fract_x
 _atom_site_fract_y
 _atom_site_fract_z
 _atom_site_occupancy
  Dy  Dy0  1  0.15354569  0.53928440  0.15358410  1
  Dy  Dy1  1  0.68859263  0.31142789  0.68855215  1
  Dy  Dy2  1  0.68859466  0.31142667  0.31142744  1
  Dy  Dy3  1  0.93877677  0.56122313  0.56122122  1
  Dy  Dy4  1  0.53929627  0.15356768  0.15356734  1
  Dy  Dy5  1  0.15354526  0.15358457  0.53928435  1
  Dy  Dy6  1  0.93877836  0.93877875  0.56122062  1
  Dy  Dy7  1  0.31141864  0.68857178  0.31143971  1
  Dy  Dy8  1  0.56123895  0.93877610  0.93877478  1
  Dy  Dy9  1  0.56124053  0.93877431  0.56121102  1
  Dy  Dy10  1  0.68859351  0.68855254  0.31142844  1
  Dy  Dy11  1  0.56123924  0.56121112  0.93877357  1
  Dy  Dy12  1  0.93877950  0.56122044  0.93877909  1
  Dy  Dy13  1  0.31142039  0.68856972  0.68857062  1
  Dy  Dy14  1  0.15354633  0.15358483  0.15358504  1
  Dy  Dy15  1  0.31141939  0.31143939  0.68857193  1
  Cd  Cd0  1  0.92012423  0.23963564  0.92012091  1
  Cd  Cd1  1  0.92012462  0.92012072  0.92012095  1
  Cd  Cd2  1  0.92012542  0.92012076  0.23963426  1
  Cd  Cd3  1  0.23961875  0.92012776  0.92012743  1
  Co  Co0  1  0.35931133  0.35931700  0.92205503  1
  Co  Co1  1  0.35930959  0.92205423  0.35931783  1
  Co  Co2  1  0.92205114  0.35931670  0.35931469  1
  Co  Co3  1  0.35931180  0.35931587  0.35931646  1
loop_
_geom_bond_atom_site_label_1
_geom_bond_atom_site_label_2
_geom_bond_distance
_geom_bond_site_symmetry_2
Cd0 Cd3 3.015259 1_645
Cd0 Cd2 3.015378 1_546
Cd0 Cd1 3.015390 1_545
Cd0 Dy11 3.220525 1_555
Cd0 Dy12 3.220638 1_555
Cd0 Dy3 3.220649 1_555
Cd0 Dy14 3.412062 1_656
Cd0 Dy4 3.412067 1_556
Cd0 Dy5 3.412068 1_655
Cd0 Dy15 3.438489 1_655
Cd0 Dy2 3.438532 1_556
Cd0 Dy1 3.438555 1_555
Cd1 Cd3 3.015260 1_655
Cd1 Cd2 3.015381 1_556
Cd1 Dy8 3.220536 1_555
Cd1 Dy12 3.220658 1_555
Cd1 Dy6 3.220664 1_555
Cd1 Dy5 3.412050 1_665
Cd1 Dy0 3.412051 1_656
Cd1 Dy4 3.412059 1_566
Cd1 Dy13 3.438501 1_655
Cd1 Dy10 3.438538 1_556
Cd1 Dy1 3.438546 1_565
Cd2 Cd3 3.015246 1_654
Cd2 Dy9 3.220528 1_555
Cd2 Dy3 3.220636 1_555
Cd2 Dy6 3.220640 1_555
Cd2 Dy14 3.412056 1_665
Cd2 Dy0 3.412064 1_655
Cd2 Dy4 3.412076 1_565
Cd2 Dy7 3.438483 1_655
Cd2 Dy2 3.438537 1_565
Cd2 Dy10 3.438543 1_555
Cd3 Dy8 3.220878 1_555
Cd3 Dy11 3.220879 1_555
Cd3 Dy9 3.220880 1_555
Cd3 Dy14 3.412208 1_566
Cd3 Dy0 3.412212 1_556
Cd3 Dy5 3.412213 1_565
Cd3 Dy15 3.438609 1_565
Cd3 Dy7 3.438613 1_556
Cd3 Dy13 3.438633 1_555
Co0 Dy13 2.731207 1_555
Co0 Dy15 2.731210 1_555
Co0 Dy1 2.731439 1_555
Co0 Dy4 2.756767 1_556
Co0 Dy0 2.756777 1_556
Co0 Dy14 2.756778 1_556
Co0 Dy12 3.393903 1_455
Co0 Dy8 3.393988 1_545
Co0 Dy11 3.393992 1_555
Co1 Dy7 2.731201 1_555
Co1 Dy13 2.731207 1_555
Co1 Dy10 2.731454 1_555
Co1 Dy14 2.756774 1_565
Co1 Dy5 2.756780 1_565
Co1 Dy4 2.756783 1_565
Co1 Dy6 3.393895 1_455
Co1 Dy8 3.393998 1_554
Co1 Dy9 3.394020 1_555
Co2 Dy2 2.731013 1_555
Co2 Dy10 2.731025 1_555
Co2 Dy1 2.731035 1_555
Co2 Dy14 2.756530 1_655
Co2 Dy0 2.756531 1_655
Co2 Dy5 2.756544 1_655
Co2 Dy12 3.393921 1_554
Co2 Dy6 3.393943 1_545
Co2 Dy3 3.393960 1_555
Co3 Dy15 2.731235 1_555
Co3 Dy7 2.731236 1_555
Co3 Dy2 2.731458 1_555
Co3 Dy4 2.756769 1_555
Co3 Dy5 2.756783 1_555
Co3 Dy0 2.756790 1_555
Co3 Dy3 3.393930 1_455
Co3 Dy9 3.393994 1_545
Co3 Dy11 3.393997 1_554
