# generated using pymatgen
data_Lu2Fe14C
_symmetry_space_group_name_H-M   'P 1'
_cell_length_a   8.68875900
_cell_length_b   8.68875900
_cell_length_c   11.60045300
_cell_angle_alpha   90.00000000
_cell_angle_beta   90.00000000
_cell_angle_gamma   90.00000000
_symmetry_Int_Tables_number   1
_chemical_formula_structural   Lu2Fe14C
_chemical_formula_sum   'Lu8 Fe56 C4'
_cell_volume   875.77078136
_cell_formula_units_Z   4
loop_
 _symmetry_equiv_pos_site_id
 _symmetry_equiv_pos_as_xyz
  1  'x, y, z'
loop_
 _atom_site_type_symbol
 _atom_site_label
 _atom_site_symmetry_multiplicity
 _atom_site_fract_x
 _atom_site_fract_y
 _atom_site_fract_z
 _atom_site_occupancy
  Lu  Lu0  1  0.35654800  0.35654800  0.50000000  1
  Lu  Lu1  1  0.85654800  0.14345200  0.00000000  1
  Lu  Lu2  1  0.14345200  0.85654800  0.00000000  1
  Lu  Lu3  1  0.74178700  0.74178700  0.00000000  1
  Lu  Lu4  1  0.24178700  0.75821300  0.50000000  1
  Lu  Lu5  1  0.75821300  0.24178700  0.50000000  1
  Lu  Lu6  1  0.64345200  0.64345200  0.50000000  1
  Lu  Lu7  1  0.25821300  0.25821300  0.00000000  1
  Fe  Fe0  1  0.09677600  0.09677600  0.79860600  1
  Fe  Fe1  1  0.64281600  0.96395600  0.82558200  1
  Fe  Fe2  1  0.68418700  0.68418700  0.75459200  1
  Fe  Fe3  1  0.56409300  0.22517600  0.11996600  1
  Fe  Fe4  1  0.93590700  0.72517600  0.38003400  1
  Fe  Fe5  1  0.14281600  0.53604400  0.67441800  1
  Fe  Fe6  1  0.64281600  0.96395600  0.17441800  1
  Fe  Fe7  1  0.77482400  0.43590700  0.88003400  1
  Fe  Fe8  1  0.53604400  0.14281600  0.67441800  1
  Fe  Fe9  1  0.85718400  0.46395600  0.67441800  1
  Fe  Fe10  1  0.68418700  0.68418700  0.24540800  1
  Fe  Fe11  1  0.00000000  0.00000000  0.60839800  1
  Fe  Fe12  1  0.40322400  0.59677600  0.29860600  1
  Fe  Fe13  1  0.22517600  0.56409300  0.88003400  1
  Fe  Fe14  1  0.96395600  0.64281600  0.17441800  1
  Fe  Fe15  1  0.35718400  0.03604400  0.82558200  1
  Fe  Fe16  1  0.72517600  0.93590700  0.38003400  1
  Fe  Fe17  1  0.06409300  0.27482400  0.61996600  1
  Fe  Fe18  1  0.81581300  0.18418700  0.25459200  1
  Fe  Fe19  1  0.27482400  0.06409300  0.38003400  1
  Fe  Fe20  1  0.40322400  0.59677600  0.70139400  1
  Fe  Fe21  1  0.22517600  0.56409300  0.11996600  1
  Fe  Fe22  1  0.90322400  0.90322400  0.79860600  1
  Fe  Fe23  1  0.46395600  0.85718400  0.32558200  1
  Fe  Fe24  1  0.93590700  0.72517600  0.61996600  1
  Fe  Fe25  1  0.14281600  0.53604400  0.32558200  1
  Fe  Fe26  1  0.35718400  0.03604400  0.17441800  1
  Fe  Fe27  1  0.72517600  0.93590700  0.61996600  1
  Fe  Fe28  1  0.56409300  0.22517600  0.88003400  1
  Fe  Fe29  1  0.90322400  0.90322400  0.20139400  1
  Fe  Fe30  1  0.18418700  0.81581300  0.25459200  1
  Fe  Fe31  1  0.53604400  0.14281600  0.32558200  1
  Fe  Fe32  1  0.03604400  0.35718400  0.17441800  1
  Fe  Fe33  1  0.27482400  0.06409300  0.61996600  1
  Fe  Fe34  1  0.59677600  0.40322400  0.70139400  1
  Fe  Fe35  1  0.50000000  0.00000000  0.00000000  1
  Fe  Fe36  1  0.06409300  0.27482400  0.38003400  1
  Fe  Fe37  1  0.31581300  0.31581300  0.24540800  1
  Fe  Fe38  1  0.00000000  0.00000000  0.39160200  1
  Fe  Fe39  1  0.18418700  0.81581300  0.74540800  1
  Fe  Fe40  1  0.50000000  0.50000000  0.89160200  1
  Fe  Fe41  1  0.43590700  0.77482400  0.11996600  1
  Fe  Fe42  1  0.09677600  0.09677600  0.20139400  1
  Fe  Fe43  1  0.46395600  0.85718400  0.67441800  1
  Fe  Fe44  1  0.81581300  0.18418700  0.74540800  1
  Fe  Fe45  1  0.96395600  0.64281600  0.82558200  1
  Fe  Fe46  1  0.31581300  0.31581300  0.75459200  1
  Fe  Fe47  1  0.85718400  0.46395600  0.32558200  1
  Fe  Fe48  1  0.77482400  0.43590700  0.11996600  1
  Fe  Fe49  1  0.50000000  0.00000000  0.50000000  1
  Fe  Fe50  1  0.03604400  0.35718400  0.82558200  1
  Fe  Fe51  1  0.59677600  0.40322400  0.29860600  1
  Fe  Fe52  1  0.43590700  0.77482400  0.88003400  1
  Fe  Fe53  1  0.00000000  0.50000000  0.00000000  1
  Fe  Fe54  1  0.50000000  0.50000000  0.10839800  1
  Fe  Fe55  1  0.00000000  0.50000000  0.50000000  1
  C  C0  1  0.12804500  0.12804500  0.50000000  1
  C  C1  1  0.87195500  0.87195500  0.50000000  1
  C  C2  1  0.37195500  0.62804500  0.00000000  1
  C  C3  1  0.62804500  0.37195500  0.00000000  1
loop_
_geom_bond_atom_site_label_1
_geom_bond_atom_site_label_2
_geom_bond_distance
_geom_bond_site_symmetry_2
Fe0 Fe15 2.344321 1_555
Fe0 Fe50 2.344321 1_555
Fe0 Fe22 2.378321 1_445
Fe0 Fe11 2.506539 1_555
Fe0 Fe33 2.601605 1_555
Fe0 Fe17 2.601605 1_555
Fe0 Fe39 2.630061 1_545
Fe0 Fe44 2.630061 1_455
Fe0 Fe46 2.739476 1_555
Fe0 Lu7 3.064830 1_556
Fe0 Lu2 3.159010 1_546
Fe0 Lu1 3.159010 1_456
Fe1 Fe22 2.344321 1_555
Fe1 Fe35 2.394108 1_566
Fe1 Fe28 2.453223 1_565
Fe1 Fe27 2.502169 1_555
Fe1 Fe52 2.516254 1_555
Fe1 Fe43 2.520081 1_555
Fe1 Fe8 2.520081 1_565
Fe1 Fe15 2.559608 1_565
Fe1 Fe2 2.591602 1_555
Fe1 Fe44 2.604998 1_565
Fe1 Lu3 2.925694 1_556
Fe1 Lu1 3.158305 1_566
Fe2 Fe45 2.591602 1_555
Fe2 Fe43 2.604998 1_555
Fe2 Fe9 2.604998 1_555
Fe2 Fe20 2.630061 1_555
Fe2 Fe34 2.630061 1_555
Fe2 Fe24 2.710973 1_555
Fe2 Fe27 2.710973 1_555
Fe2 Fe7 2.718724 1_555
Fe2 Fe52 2.718724 1_555
Fe2 Fe22 2.739476 1_555
Fe2 Fe40 2.765575 1_555
Fe2 Lu3 2.933507 1_556
Fe2 Lu6 2.995498 1_555
Fe3 Fe6 2.453223 1_545
Fe3 Fe35 2.464698 1_555
Fe3 Fe31 2.502169 1_555
Fe3 Fe51 2.601605 1_555
Fe3 Fe37 2.718724 1_555
Fe3 Lu1 2.982947 1_555
Fe3 Lu7 3.013732 1_555
Fe4 Fe47 2.453223 1_555
Fe4 Fe55 2.464698 1_655
Fe4 Lu6 2.982947 1_555
Fe4 Lu4 3.013732 1_655
Fe5 Fe55 2.394108 1_555
Fe5 Fe50 2.520081 1_555
Fe5 Fe9 2.559608 1_455
Fe5 Lu4 2.925694 1_555
Fe5 Lu0 3.158305 1_555
Fe6 Lu3 2.925694 1_555
Fe6 Lu1 3.158305 1_565
Fe7 Fe9 2.502169 1_555
Fe7 Lu1 2.982947 1_556
Fe7 Lu3 3.013732 1_556
Fe8 Lu5 2.925694 1_555
Fe8 Lu0 3.158305 1_555
Fe9 Lu5 2.925694 1_555
Fe9 Lu6 3.158305 1_555
Fe10 Fe6 2.591602 1_555
Fe10 Fe14 2.591602 1_555
Fe10 Fe47 2.604998 1_555
Fe10 Fe23 2.604998 1_555
Fe10 Fe12 2.630061 1_555
Fe10 Fe51 2.630061 1_555
Fe10 Fe16 2.710973 1_555
Fe10 Fe4 2.710973 1_555
Fe10 Fe41 2.718724 1_555
Fe10 Fe48 2.718724 1_555
Fe10 Fe29 2.739476 1_555
Fe10 Fe54 2.765575 1_555
Fe10 Lu3 2.933507 1_555
Fe10 Lu6 2.995498 1_555
Fe11 Fe22 2.506539 1_445
Fe11 Fe44 2.765575 1_455
Fe11 Fe39 2.765575 1_545
Fe11 Lu4 3.226172 1_545
Fe11 Lu5 3.226172 1_455
Fe12 Fe25 2.344321 1_555
Fe12 Fe23 2.344321 1_555
Fe12 Fe51 2.378321 1_555
Fe12 Fe54 2.506539 1_555
Fe12 Fe21 2.601605 1_555
Fe12 Fe41 2.601605 1_555
Fe12 Fe37 2.630061 1_555
Fe12 Fe30 2.739476 1_555
Fe12 Lu4 3.064830 1_555
Fe12 Lu0 3.159010 1_555
Fe12 Lu6 3.159010 1_555
Fe13 Fe45 2.453223 1_455
Fe13 Fe53 2.464698 1_556
Fe13 Fe5 2.502169 1_555
Fe13 Fe50 2.516254 1_555
Fe13 Fe20 2.601605 1_555
Fe13 Fe39 2.710973 1_555
Fe13 Fe46 2.718724 1_555
Fe13 Lu2 2.982947 1_556
Fe13 Lu7 3.013732 1_556
Fe14 Fe29 2.344321 1_555
Fe14 Fe53 2.394108 1_655
Fe14 Fe21 2.453223 1_655
Fe14 Fe4 2.502169 1_555
Fe14 Fe48 2.516254 1_555
Fe14 Fe47 2.520081 1_555
Fe14 Fe25 2.520081 1_655
Fe14 Fe32 2.559608 1_655
Fe14 Fe30 2.604998 1_655
Fe14 Lu3 2.925694 1_555
Fe14 Lu2 3.158305 1_655
Fe15 Fe35 2.394108 1_556
Fe15 Fe52 2.453223 1_545
Fe15 Fe33 2.502169 1_555
Fe15 Fe28 2.516254 1_555
Fe15 Fe8 2.520081 1_555
Fe15 Fe43 2.520081 1_545
Fe15 Fe46 2.591602 1_555
Fe15 Fe39 2.604998 1_545
Fe15 Lu7 2.925694 1_556
Fe15 Lu2 3.158305 1_546
Fe16 Fe23 2.453223 1_555
Fe16 Fe49 2.464698 1_565
Fe16 Fe6 2.502169 1_555
Fe16 Fe31 2.516254 1_565
Fe16 Fe29 2.601605 1_555
Fe16 Fe18 2.718724 1_565
Fe16 Lu6 2.982947 1_555
Fe16 Lu5 3.013732 1_565
Fe17 Fe5 2.453223 1_555
Fe17 Fe55 2.464698 1_555
Fe17 Fe50 2.502169 1_555
Fe17 Fe9 2.516254 1_455
Fe17 Fe46 2.710973 1_555
Fe17 Fe44 2.718724 1_455
Fe17 Lu0 2.982947 1_555
Fe17 Lu5 3.013732 1_455
Fe18 Fe47 2.591602 1_555
Fe18 Fe31 2.591602 1_555
Fe18 Fe32 2.604998 1_655
Fe18 Fe6 2.604998 1_545
Fe18 Fe42 2.630061 1_655
Fe18 Fe29 2.630061 1_545
Fe18 Fe48 2.710973 1_555
Fe18 Fe3 2.710973 1_555
Fe18 Fe36 2.718724 1_655
Fe18 Fe51 2.739476 1_555
Fe18 Fe38 2.765575 1_655
Fe18 Lu5 2.933507 1_555
Fe18 Lu1 2.995498 1_555
Fe19 Fe31 2.453223 1_555
Fe19 Fe49 2.464698 1_555
Fe19 Fe26 2.502169 1_555
Fe19 Fe23 2.516254 1_545
Fe19 Fe42 2.601605 1_555
Fe19 Fe37 2.710973 1_555
Fe19 Fe30 2.718724 1_545
Fe19 Lu0 2.982947 1_555
Fe19 Lu4 3.013732 1_545
Fe20 Fe5 2.344321 1_555
Fe20 Fe43 2.344321 1_555
Fe20 Fe34 2.378321 1_555
Fe20 Fe40 2.506539 1_555
Fe20 Fe52 2.601605 1_555
Fe20 Fe46 2.630061 1_555
Fe20 Fe39 2.739476 1_555
Fe20 Lu4 3.064830 1_555
Fe20 Lu0 3.159010 1_555
Fe20 Lu6 3.159010 1_555
Fe21 Fe53 2.464698 1_555
Fe21 Fe25 2.502169 1_555
Fe21 Fe32 2.516254 1_555
Fe21 Fe30 2.710973 1_555
Fe21 Fe37 2.718724 1_555
Fe21 Lu2 2.982947 1_555
Fe21 Lu7 3.013732 1_555
Fe22 Fe45 2.344321 1_555
Fe22 Fe24 2.601605 1_555
Fe22 Fe27 2.601605 1_555
Fe22 Fe44 2.630061 1_565
Fe22 Fe39 2.630061 1_655
Fe22 Lu3 3.064830 1_556
Fe22 Lu2 3.159010 1_656
Fe22 Lu1 3.159010 1_566
Fe23 Fe49 2.394108 1_565
Fe23 Fe41 2.502169 1_555
Fe23 Fe6 2.520081 1_555
Fe23 Fe26 2.520081 1_565
Fe23 Fe31 2.559608 1_565
Fe23 Fe30 2.591602 1_555
Fe23 Lu4 2.925694 1_555
Fe23 Lu6 3.158305 1_555
Fe24 Fe9 2.453223 1_555
Fe24 Fe55 2.464698 1_655
Fe24 Fe45 2.502169 1_555
Fe24 Fe5 2.516254 1_655
Fe24 Fe39 2.718724 1_655
Fe24 Lu6 2.982947 1_555
Fe24 Lu4 3.013732 1_655
Fe25 Fe55 2.394108 1_555
Fe25 Fe36 2.453223 1_555
Fe25 Fe4 2.516254 1_455
Fe25 Fe32 2.520081 1_555
Fe25 Fe47 2.559608 1_455
Fe25 Fe30 2.591602 1_555
Fe25 Fe37 2.604998 1_555
Fe25 Lu4 2.925694 1_555
Fe25 Lu0 3.158305 1_555
Fe26 Fe42 2.344321 1_555
Fe26 Fe35 2.394108 1_555
Fe26 Fe41 2.453223 1_545
Fe26 Fe3 2.516254 1_555
Fe26 Fe31 2.520081 1_555
Fe26 Fe6 2.559608 1_545
Fe26 Fe37 2.591602 1_555
Fe26 Fe30 2.604998 1_545
Fe26 Lu7 2.925694 1_555
Fe26 Lu2 3.158305 1_545
Fe27 Fe43 2.453223 1_555
Fe27 Fe49 2.464698 1_565
Fe27 Fe8 2.516254 1_565
Fe27 Fe44 2.718724 1_565
Fe27 Lu6 2.982947 1_555
Fe27 Lu5 3.013732 1_565
Fe28 Fe35 2.464698 1_556
Fe28 Fe8 2.502169 1_555
Fe28 Fe34 2.601605 1_555
Fe28 Fe44 2.710973 1_555
Fe28 Fe46 2.718724 1_555
Fe28 Lu1 2.982947 1_556
Fe28 Lu7 3.013732 1_556
Fe29 Fe6 2.344321 1_555
Fe29 Fe42 2.378321 1_665
Fe29 Fe38 2.506539 1_665
Fe29 Fe4 2.601605 1_555
Fe29 Fe30 2.630061 1_655
Fe29 Lu3 3.064830 1_555
Fe29 Lu1 3.159010 1_565
Fe29 Lu2 3.159010 1_655
Fe30 Fe42 2.630061 1_565
Fe30 Fe41 2.710973 1_555
Fe30 Fe4 2.718724 1_455
Fe30 Fe38 2.765575 1_565
Fe30 Lu4 2.933507 1_555
Fe30 Lu2 2.995498 1_555
Fe31 Fe51 2.344321 1_555
Fe31 Fe49 2.394108 1_555
Fe31 Fe6 2.520081 1_545
Fe31 Fe37 2.604998 1_555
Fe31 Lu5 2.925694 1_555
Fe31 Lu0 3.158305 1_555
Fe32 Fe42 2.344321 1_555
Fe32 Fe53 2.394108 1_555
Fe32 Fe48 2.453223 1_455
Fe32 Fe36 2.502169 1_555
Fe32 Fe47 2.520081 1_455
Fe32 Fe37 2.591602 1_555
Fe32 Lu7 2.925694 1_555
Fe32 Lu1 3.158305 1_455
Fe33 Fe8 2.453223 1_555
Fe33 Fe49 2.464698 1_555
Fe33 Fe43 2.516254 1_545
Fe33 Fe46 2.710973 1_555
Fe33 Fe39 2.718724 1_545
Fe33 Lu0 2.982947 1_555
Fe33 Lu4 3.013732 1_545
Fe34 Fe8 2.344321 1_555
Fe34 Fe9 2.344321 1_555
Fe34 Fe40 2.506539 1_555
Fe34 Fe7 2.601605 1_555
Fe34 Fe46 2.630061 1_555
Fe34 Fe44 2.739476 1_555
Fe34 Lu5 3.064830 1_555
Fe34 Lu0 3.159010 1_555
Fe34 Lu6 3.159010 1_555
Fe35 Fe6 2.394108 1_545
Fe35 Fe41 2.464698 1_545
Fe35 Fe52 2.464698 1_544
Fe35 Lu3 3.073597 1_545
Fe35 Lu7 3.073597 1_555
Fe35 Lu2 3.339299 1_545
Fe35 Lu1 3.339299 1_555
Fe36 Fe55 2.464698 1_555
Fe36 Fe47 2.516254 1_455
Fe36 Fe42 2.601605 1_555
Fe36 Fe37 2.710973 1_555
Fe36 Lu0 2.982947 1_555
Fe36 Lu5 3.013732 1_455
Fe37 Fe51 2.630061 1_555
Fe37 Fe42 2.739476 1_555
Fe37 Fe54 2.765575 1_555
Fe37 Lu7 2.933507 1_555
Fe37 Lu0 2.995498 1_555
Fe38 Fe42 2.506539 1_555
Fe38 Lu4 3.226172 1_545
Fe38 Lu5 3.226172 1_455
Fe39 Fe43 2.591602 1_555
Fe39 Fe5 2.591602 1_555
Fe39 Fe45 2.604998 1_455
Fe39 Fe52 2.710973 1_555
Fe39 Lu4 2.933507 1_555
Fe39 Lu2 2.995498 1_556
Fe40 Fe46 2.765575 1_555
Fe40 Lu3 3.226172 1_556
Fe40 Lu7 3.226172 1_556
Fe41 Fe6 2.516254 1_555
Fe41 Lu2 2.982947 1_555
Fe41 Lu3 3.013732 1_555
Fe42 Lu7 3.064830 1_555
Fe42 Lu1 3.159010 1_455
Fe42 Lu2 3.159010 1_545
Fe43 Fe49 2.394108 1_565
Fe43 Fe52 2.502169 1_555
Fe43 Fe8 2.559608 1_565
Fe43 Lu4 2.925694 1_555
Fe43 Lu6 3.158305 1_555
Fe44 Fe9 2.591602 1_555
Fe44 Fe8 2.591602 1_555
Fe44 Fe50 2.604998 1_655
Fe44 Fe7 2.710973 1_555
Fe44 Lu5 2.933507 1_555
Fe44 Lu1 2.995498 1_556
Fe45 Fe53 2.394108 1_656
Fe45 Fe7 2.516254 1_555
Fe45 Fe9 2.520081 1_555
Fe45 Fe5 2.520081 1_655
Fe45 Fe50 2.559608 1_655
Fe45 Lu3 2.925694 1_556
Fe45 Lu2 3.158305 1_656
Fe46 Fe50 2.591602 1_555
Fe46 Fe5 2.604998 1_555
Fe46 Fe8 2.604998 1_555
Fe46 Lu7 2.933507 1_556
Fe46 Lu0 2.995498 1_555
Fe47 Fe51 2.344321 1_555
Fe47 Fe55 2.394108 1_655
Fe47 Fe48 2.502169 1_555
Fe47 Lu5 2.925694 1_555
Fe47 Lu6 3.158305 1_555
Fe48 Fe53 2.464698 1_655
Fe48 Fe51 2.601605 1_555
Fe48 Lu1 2.982947 1_555
Fe48 Lu3 3.013732 1_555
Fe49 Fe8 2.394108 1_555
Fe49 Lu5 3.073597 1_555
Fe49 Lu4 3.073597 1_545
Fe49 Lu0 3.339299 1_555
Fe49 Lu6 3.339299 1_545
Fe50 Fe53 2.394108 1_556
Fe50 Fe7 2.453223 1_455
Fe50 Fe9 2.520081 1_455
Fe50 Lu7 2.925694 1_556
Fe50 Lu1 3.158305 1_456
Fe51 Fe54 2.506539 1_555
Fe51 Lu5 3.064830 1_555
Fe51 Lu0 3.159010 1_555
Fe51 Lu6 3.159010 1_555
Fe52 Lu2 2.982947 1_556
Fe52 Lu3 3.013732 1_556
Fe53 Fe7 2.464698 1_454
Fe53 Lu3 3.073597 1_455
Fe53 Lu7 3.073597 1_555
Fe53 Lu2 3.339299 1_555
Fe53 Lu1 3.339299 1_455
Fe54 Lu3 3.226172 1_555
Fe54 Lu7 3.226172 1_555
Fe55 Fe9 2.394108 1_455
Fe55 Lu4 3.073597 1_555
Fe55 Lu5 3.073597 1_455
Fe55 Lu6 3.339299 1_455
Fe55 Lu0 3.339299 1_555
C0 Fe33 1.967724 1_555
C0 Fe19 1.967724 1_555
C0 Fe36 1.967724 1_555
C0 Fe17 1.967724 1_555
C0 Fe38 2.014141 1_555
C0 Fe11 2.014141 1_555
C0 Lu0 2.807790 1_555
C1 Fe24 1.967724 1_555
C1 Fe4 1.967724 1_555
C1 Fe27 1.967724 1_555
C1 Fe16 1.967724 1_555
C1 Fe38 2.014141 1_665
C1 Fe11 2.014141 1_665
C1 Lu6 2.807790 1_555
C2 Fe21 1.967724 1_555
C2 Fe41 1.967724 1_555
C2 Fe52 1.967724 1_554
C2 Fe13 1.967724 1_554
C2 Fe40 2.014141 1_554
C2 Fe54 2.014141 1_555
C2 Lu2 2.807790 1_555
C3 Fe48 1.967724 1_555
C3 Fe3 1.967724 1_555
C3 Fe28 1.967724 1_554
C3 Fe7 1.967724 1_554
C3 Fe54 2.014141 1_555
C3 Fe40 2.014141 1_554
C3 Lu1 2.807790 1_555
