# generated using pymatgen
data_Gd3CuGeS7
_symmetry_space_group_name_H-M   'P 1'
_cell_length_a   9.99638804
_cell_length_b   9.99638804
_cell_length_c   5.83603100
_cell_angle_alpha   90.00000000
_cell_angle_beta   90.00000000
_cell_angle_gamma   120.00000026
_symmetry_Int_Tables_number   1
_chemical_formula_structural   Gd3CuGeS7
_chemical_formula_sum   'Gd6 Cu2 Ge2 S14'
_cell_volume   505.05006707
_cell_formula_units_Z   2
loop_
 _symmetry_equiv_pos_site_id
 _symmetry_equiv_pos_as_xyz
  1  'x, y, z'
loop_
 _atom_site_type_symbol
 _atom_site_label
 _atom_site_symmetry_multiplicity
 _atom_site_fract_x
 _atom_site_fract_y
 _atom_site_fract_z
 _atom_site_occupancy
  Gd  Gd0  1  0.35680600  0.12992900  0.24906900  1
  Gd  Gd1  1  0.22687800  0.35680600  0.74906900  1
  Gd  Gd2  1  0.64319400  0.87007100  0.74906900  1
  Gd  Gd3  1  0.87007100  0.22687800  0.24906900  1
  Gd  Gd4  1  0.77312200  0.64319400  0.24906900  1
  Gd  Gd5  1  0.12992900  0.77312200  0.74906900  1
  Cu  Cu0  1  0.00000000  0.00000000  0.70578600  1
  Cu  Cu1  1  0.00000000  0.00000000  0.20578600  1
  Ge  Ge0  1  0.66666700  0.33333300  0.83232400  1
  Ge  Ge1  1  0.33333300  0.66666700  0.33232400  1
  S  S0  1  0.16107500  0.25614100  0.21902400  1
  S  S1  1  0.83892500  0.74385900  0.71902400  1
  S  S2  1  0.90493500  0.16107500  0.71902400  1
  S  S3  1  0.25614100  0.09506500  0.71902400  1
  S  S4  1  0.41894000  0.89975900  0.49143800  1
  S  S5  1  0.09506500  0.83892500  0.21902400  1
  S  S6  1  0.48081900  0.58106000  0.49143800  1
  S  S7  1  0.33333300  0.66666700  0.95449600  1
  S  S8  1  0.89975900  0.48081900  0.99143800  1
  S  S9  1  0.74385900  0.90493500  0.21902400  1
  S  S10  1  0.66666700  0.33333300  0.45449600  1
  S  S11  1  0.10024100  0.51918100  0.49143800  1
  S  S12  1  0.58106000  0.10024100  0.99143800  1
  S  S13  1  0.51918100  0.41894000  0.99143800  1
loop_
_geom_bond_atom_site_label_1
_geom_bond_atom_site_label_2
_geom_bond_distance
_geom_bond_site_symmetry_2
Gd0 S5 2.779853 1_545
Gd0 S0 2.814145 1_555
Gd0 S12 2.835375 1_554
Gd0 S3 2.881947 1_555
Gd0 S13 2.924479 1_554
Gd0 S10 2.977909 1_555
Gd0 S4 3.018215 1_545
Gd0 S3 3.217490 1_554
Gd1 S3 2.779853 1_555
Gd1 S2 2.814145 1_455
Gd1 S6 2.835370 1_555
Gd1 S0 2.881948 1_556
Gd1 S11 2.924486 1_555
Gd1 S7 2.977913 1_555
Gd1 S13 3.018206 1_555
Gd1 S0 3.217491 1_555
Gd2 S2 2.779853 1_565
Gd2 S1 2.814145 1_555
Gd2 S4 2.835375 1_555
Gd2 S9 2.881947 1_556
Gd2 S6 2.924479 1_555
Gd2 S7 2.977909 1_555
Gd2 S12 3.018215 1_565
Gd2 S9 3.217490 1_555
Gd3 S0 2.779853 1_655
Gd3 S9 2.814145 1_545
Gd3 S8 2.835367 1_554
Gd3 S2 2.881953 1_555
Gd3 S12 2.924478 1_554
Gd3 S10 2.977895 1_555
Gd3 S11 3.018209 1_655
Gd3 S2 3.217495 1_554
Gd4 S9 2.779853 1_555
Gd4 S5 2.814145 1_655
Gd4 S13 2.835370 1_554
Gd4 S1 2.881948 1_555
Gd4 S8 2.924486 1_554
Gd4 S10 2.977913 1_555
Gd4 S6 3.018206 1_555
Gd4 S1 3.217491 1_554
Gd5 S1 2.779853 1_455
Gd5 S3 2.814145 1_565
Gd5 S11 2.835367 1_555
Gd5 S5 2.881953 1_556
Gd5 S4 2.924478 1_555
Gd5 S7 2.977895 1_555
Gd5 S8 3.018209 1_455
Gd5 S5 3.217495 1_555
Cu0 S2 2.243178 1_455
Cu0 S1 2.243186 1_445
Cu0 S3 2.243187 1_555
Cu0 Gd2 3.136878 1_445
Cu0 Gd1 3.136879 1_555
Cu0 Gd5 3.136887 1_545
Cu1 S5 2.243178 1_545
Cu1 S0 2.243186 1_555
Cu1 S9 2.243187 1_445
Cu1 Gd0 3.136878 1_555
Cu1 Gd4 3.136879 1_445
Cu1 Gd3 3.136887 1_455
Ge0 S10 2.205016 1_555
Ge0 S12 2.242741 1_555
Ge0 S8 2.242743 1_555
Ge0 S13 2.242750 1_555
Ge1 S7 2.205016 1_554
Ge1 S4 2.242741 1_555
Ge1 S11 2.242743 1_555
Ge1 S6 2.242750 1_555
