# generated using pymatgen
data_K2Th(PSe3)3
_symmetry_space_group_name_H-M   'P 1'
_cell_length_a   10.27558251
_cell_length_b   10.56160758
_cell_length_c   16.65115349
_cell_angle_alpha   90.22292894
_cell_angle_beta   107.49645778
_cell_angle_gamma   91.35584361
_symmetry_Int_Tables_number   1
_chemical_formula_structural   K2Th(PSe3)3
_chemical_formula_sum   'K8 Th4 P12 Se36'
_cell_volume   1722.89269789
_cell_formula_units_Z   4
loop_
 _symmetry_equiv_pos_site_id
 _symmetry_equiv_pos_as_xyz
  1  'x, y, z'
loop_
 _atom_site_type_symbol
 _atom_site_label
 _atom_site_symmetry_multiplicity
 _atom_site_fract_x
 _atom_site_fract_y
 _atom_site_fract_z
 _atom_site_occupancy
  K  K0  1  0.79379524  0.83266867  0.14861529  1
  K  K1  1  0.20620476  0.16733133  0.85138471  1
  K  K2  1  0.94732511  0.73618418  0.45306173  1
  K  K3  1  0.05267489  0.26381582  0.54693827  1
  K  K4  1  0.52802501  0.25753380  0.53402410  1
  K  K5  1  0.47197499  0.74246620  0.46597590  1
  K  K6  1  0.73697781  0.30503510  0.85969032  1
  K  K7  1  0.26302219  0.69496490  0.14030968  1
  Th  Th0  1  0.72610174  0.28127935  0.16934668  1
  Th  Th1  1  0.27389826  0.71872065  0.83065332  1
  Th  Th2  1  0.30560880  0.22208871  0.22214247  1
  Th  Th3  1  0.69439120  0.77791129  0.77785753  1
  P  P0  1  0.03726043  0.50158736  0.28259494  1
  P  P1  1  0.96273957  0.49841264  0.71740506  1
  P  P2  1  0.71961458  0.08631522  0.35036620  1
  P  P3  1  0.28038542  0.91368478  0.64963380  1
  P  P4  1  0.22459717  0.43320827  0.37664048  1
  P  P5  1  0.77540283  0.56679173  0.62335952  1
  P  P6  1  0.57063185  0.57507979  0.99140454  1
  P  P7  1  0.42936815  0.42492021  0.00859546  1
  P  P8  1  0.00961929  0.07129668  0.05262093  1
  P  P9  1  0.99038071  0.92870332  0.94737907  1
  P  P10  1  0.55133939  0.95905085  0.27565282  1
  P  P11  1  0.44866061  0.04094915  0.72434718  1
  Se  Se0  1  0.77302910  0.51430071  0.06621956  1
  Se  Se1  1  0.22697090  0.48569929  0.93378044  1
  Se  Se2  1  0.49674513  0.05807084  0.15023391  1
  Se  Se3  1  0.50325487  0.94192916  0.84976609  1
  Se  Se4  1  0.46531585  0.43392773  0.14696221  1
  Se  Se5  1  0.53468415  0.56607227  0.85303779  1
  Se  Se6  1  0.03109355  0.37736273  0.17197637  1
  Se  Se7  1  0.96890645  0.62263627  0.82802363  1
  Se  Se8  1  0.79545837  0.11789646  0.03536764  1
  Se  Se9  1  0.20454163  0.88210354  0.96463236  1
  Se  Se10  1  0.87379157  0.08011479  0.28350790  1
  Se  Se11  1  0.12620843  0.91988521  0.71649210  1
  Se  Se12  1  0.21327613  0.22626467  0.37705730  1
  Se  Se13  1  0.78672387  0.77373533  0.62294270  1
  Se  Se14  1  0.60971478  0.27035468  0.32694619  1
  Se  Se15  1  0.39028522  0.72964532  0.67305381  1
  Se  Se16  1  0.51105257  0.24594605  0.98422435  1
  Se  Se17  1  0.48894743  0.75405395  0.01577565  1
  Se  Se18  1  0.85675201  0.44633557  0.31946125  1
  Se  Se19  1  0.14324799  0.55366443  0.68053875  1
  Se  Se20  1  0.11982042  0.98845131  0.17334397  1
  Se  Se21  1  0.88017958  0.01154869  0.82665603  1
  Se  Se22  1  0.13541759  0.22923405  0.03135897  1
  Se  Se23  1  0.86458241  0.77076595  0.96864103  1
  Se  Se24  1  0.38991755  0.99267233  0.33339335  1
  Se  Se25  1  0.61008245  0.00732767  0.66660665  1
  Se  Se26  1  0.06978696  0.70153686  0.27245165  1
  Se  Se27  1  0.93021304  0.29846314  0.72754835  1
  Se  Se28  1  0.78580214  0.03548372  0.47929033  1
  Se  Se29  1  0.21419786  0.96451628  0.52070967  1
  Se  Se30  1  0.61139782  0.76670884  0.27938034  1
  Se  Se31  1  0.38860218  0.23329116  0.72061966  1
  Se  Se32  1  0.25137372  0.51743782  0.49718416  1
  Se  Se33  1  0.74862528  0.48256218  0.50281584  1
  Se  Se34  1  0.37354403  0.48364289  0.30992649  1
  Se  Se35  1  0.62645597  0.51635611  0.69007351  1
loop_
_geom_bond_atom_site_label_1
_geom_bond_atom_site_label_2
_geom_bond_distance
_geom_bond_site_symmetry_2
K0 Se26 3.302216 1_655
K0 Se17 3.330297 1_555
K0 Se30 3.338109 1_555
K0 Se23 3.354872 1_554
K0 Se10 3.360539 1_565
K0 Se8 3.562619 1_565
K0 Se0 3.603920 1_555
K0 Se20 3.606134 1_655
K1 Se27 3.302216 1_455
K1 Se16 3.330297 1_555
K1 Se31 3.338109 1_555
K1 Se22 3.354872 1_556
K1 Se11 3.360539 1_545
K1 Se9 3.562619 1_545
K1 Se1 3.603920 1_555
K1 Se21 3.606134 1_455
K2 Se29 3.523210 1_655
K2 Se33 3.578529 1_555
K2 Se26 3.612532 1_655
K2 Se28 3.689355 1_565
K2 Se13 3.702902 1_555
K2 Se18 3.708591 1_555
K2 Se30 3.800026 1_555
K2 Se32 3.822698 1_655
K3 Se28 3.523210 1_455
K3 Se32 3.578522 1_555
K3 Se27 3.612532 1_455
K3 Se29 3.689355 1_545
K3 Se12 3.702902 1_555
K3 Se19 3.708591 1_555
K3 Se31 3.800026 1_555
K3 Se33 3.822706 1_455
K4 Se33 3.394095 1_555
K4 Se25 3.405800 1_555
K4 Se12 3.501496 1_555
K4 Se35 3.671617 1_555
K4 Se14 3.788252 1_555
K4 Se31 3.799612 1_555
K4 Se28 3.882745 1_555
K4 Se32 3.914898 1_555
K5 Se32 3.394102 1_555
K5 Se24 3.405800 1_555
K5 Se13 3.501496 1_555
K5 Se34 3.671625 1_555
K5 Se15 3.788252 1_555
K5 Se30 3.799612 1_555
K5 Se29 3.882745 1_555
K5 Se33 3.914890 1_555
K6 Se27 3.379526 1_555
K6 Se8 3.445111 1_556
K6 Se5 3.474079 1_555
K6 Se35 3.533865 1_555
K6 Se21 3.572836 1_555
K6 Se16 3.593741 1_555
K6 Se31 3.691172 1_555
K7 Se26 3.379526 1_555
K7 Se9 3.445111 1_554
K7 Se4 3.474079 1_555
K7 Se34 3.533871 1_555
K7 Se20 3.572836 1_555
K7 Se17 3.593741 1_555
K7 Se30 3.691172 1_555
P0 Se26 2.145507 1_555
P0 Se18 2.189511 1_455
P0 P4 2.222931 1_555
P0 Se6 2.241687 1_555
P1 Se27 2.145507 1_555
P1 Se19 2.189511 1_655
P1 P5 2.222931 1_555
P1 Se7 2.241681 1_555
P2 Se28 2.123109 1_555
P2 Se10 2.195080 1_555
P2 Se14 2.247334 1_555
P3 Se29 2.123109 1_555
P3 Se11 2.195080 1_555
P3 Se15 2.247334 1_555
P4 Se32 2.130342 1_555
P4 Se12 2.186149 1_555
P4 Se34 2.201949 1_555
P5 Se33 2.130340 1_555
P5 Se13 2.186149 1_555
P5 Se35 2.201951 1_555
P6 Se17 2.171678 1_556
P6 Se0 2.191088 1_556
P6 P7 2.201949 1_556
P6 Se5 2.222309 1_555
P7 Se16 2.171678 1_554
P7 Se1 2.191088 1_554
P7 Se4 2.222309 1_555
P8 Se22 2.180937 1_555
P8 Se20 2.186447 1_545
P8 Se8 2.199941 1_455
P8 P9 2.266083 1_444
P9 Se23 2.180937 1_555
P9 Se21 2.186447 1_565
P9 Se9 2.199941 1_655
P10 Se30 2.132777 1_555
P10 Se24 2.187671 1_555
P10 P2 2.219854 1_565
P10 Se2 2.260537 1_565
P11 Se31 2.132777 1_555
P11 Se25 2.187671 1_555
P11 P3 2.219854 1_545
P11 Se3 2.260537 1_545
Se0 Th0 3.116534 1_555
Se1 Th1 3.116534 1_555
Se2 Th2 3.138607 1_555
Se2 Th0 3.239356 1_555
Se3 Th3 3.138607 1_555
Se3 Th1 3.239356 1_555
Se4 Th0 3.086688 1_555
Se4 Th2 3.217041 1_555
Se5 Th1 3.086688 1_555
Se5 Th3 3.217041 1_555
Se6 Th2 3.186985 1_555
Se6 Th0 3.258853 1_455
Se7 Th3 3.186991 1_555
Se7 Th1 3.258856 1_655
Se8 Th0 3.073557 1_555
Se9 Th1 3.073557 1_555
Se10 Th0 2.979931 1_555
Se11 Th1 2.979931 1_555
Se12 Th2 3.004775 1_555
Se13 Th3 3.004775 1_555
Se14 Th2 3.115886 1_555
Se14 Th0 3.195782 1_555
Se15 Th3 3.115886 1_555
Se15 Th1 3.195782 1_555
Se16 Th0 3.221856 1_556
Se17 Th1 3.221856 1_554
Se18 Th0 2.987768 1_555
Se19 Th1 2.987768 1_555
Se20 Th2 3.036864 1_565
Se21 Th3 3.036864 1_545
Se22 Th2 3.134241 1_555
Se23 Th3 3.134241 1_555
Se24 Th2 3.036833 1_565
Se25 Th3 3.036833 1_545
Se34 Th2 3.085239 1_555
Se35 Th3 3.085248 1_555
