# generated using pymatgen
data_K2MoP2O9
_symmetry_space_group_name_H-M   'P 1'
_cell_length_a   8.13392760
_cell_length_b   8.13392760
_cell_length_c   15.75430912
_cell_angle_alpha   82.38692620
_cell_angle_beta   82.38692620
_cell_angle_gamma   60.52475736
_symmetry_Int_Tables_number   1
_chemical_formula_structural   K2MoP2O9
_chemical_formula_sum   'K8 Mo4 P8 O36'
_cell_volume   896.67074794
_cell_formula_units_Z   4
loop_
 _symmetry_equiv_pos_site_id
 _symmetry_equiv_pos_as_xyz
  1  'x, y, z'
loop_
 _atom_site_type_symbol
 _atom_site_label
 _atom_site_symmetry_multiplicity
 _atom_site_fract_x
 _atom_site_fract_y
 _atom_site_fract_z
 _atom_site_occupancy
  K  K0  1  0.98657600  0.30235400  0.76270200  1
  K  K1  1  0.69764600  0.01342400  0.73729800  1
  K  K2  1  0.01342400  0.69764600  0.23729800  1
  K  K3  1  0.30235400  0.98657600  0.26270200  1
  K  K4  1  0.22677200  0.06335600  0.52577300  1
  K  K5  1  0.93664400  0.77322800  0.97422700  1
  K  K6  1  0.77322800  0.93664400  0.47422700  1
  K  K7  1  0.06335600  0.22677200  0.02577300  1
  Mo  Mo0  1  0.24464500  0.52867000  0.63586200  1
  Mo  Mo1  1  0.47133000  0.75535500  0.86413800  1
  Mo  Mo2  1  0.75535500  0.47133000  0.36413800  1
  Mo  Mo3  1  0.52867000  0.24464500  0.13586200  1
  P  P0  1  0.54772000  0.70880600  0.65515800  1
  P  P1  1  0.29119400  0.45228000  0.84484200  1
  P  P2  1  0.45228000  0.29119400  0.34484200  1
  P  P3  1  0.70880600  0.54772000  0.15515800  1
  P  P4  1  0.73427500  0.34139200  0.57673600  1
  P  P5  1  0.65860800  0.26572500  0.92326400  1
  P  P6  1  0.26572500  0.65860800  0.42326400  1
  P  P7  1  0.34139200  0.73427500  0.07673600  1
  O  O0  1  0.55776900  0.88505200  0.62084100  1
  O  O1  1  0.11494800  0.44223100  0.87915900  1
  O  O2  1  0.44223100  0.11494800  0.37915900  1
  O  O3  1  0.88505200  0.55776900  0.12084100  1
  O  O4  1  0.35982600  0.71587800  0.64433500  1
  O  O5  1  0.28412200  0.64017400  0.85566500  1
  O  O6  1  0.64017400  0.28412200  0.35566500  1
  O  O7  1  0.71587800  0.35982600  0.14433500  1
  O  O8  1  0.87577200  0.17924200  0.63096700  1
  O  O9  1  0.82075800  0.12422800  0.86903300  1
  O  O10  1  0.12422800  0.82075800  0.36903300  1
  O  O11  1  0.17924200  0.87577200  0.13096700  1
  O  O12  1  0.53699500  0.35850600  0.58388700  1
  O  O13  1  0.64149400  0.46300500  0.91611300  1
  O  O14  1  0.46300500  0.64149400  0.41611300  1
  O  O15  1  0.35850600  0.53699500  0.08388700  1
  O  O16  1  0.81780400  0.32637600  0.48110100  1
  O  O17  1  0.67362400  0.18219600  0.01889900  1
  O  O18  1  0.18219600  0.67362400  0.51889900  1
  O  O19  1  0.32637600  0.81780400  0.98110100  1
  O  O20  1  0.71573700  0.53738100  0.60181400  1
  O  O21  1  0.46261900  0.28426300  0.89818600  1
  O  O22  1  0.28426300  0.46261900  0.39818600  1
  O  O23  1  0.53738100  0.71573700  0.10181400  1
  O  O24  1  0.60427600  0.64032400  0.75018300  1
  O  O25  1  0.35967600  0.39572400  0.74981700  1
  O  O26  1  0.39572400  0.35967600  0.24981700  1
  O  O27  1  0.64032400  0.60427600  0.25018300  1
  O  O28  1  0.20490000  0.34769200  0.61310200  1
  O  O29  1  0.65230800  0.79510000  0.88689800  1
  O  O30  1  0.79510000  0.65230800  0.38689800  1
  O  O31  1  0.34769200  0.20490000  0.11310200  1
  O  O32  1  0.02857400  0.68272500  0.68618800  1
  O  O33  1  0.31727500  0.97142600  0.81381200  1
  O  O34  1  0.97142600  0.31727500  0.31381200  1
  O  O35  1  0.68272500  0.02857400  0.18618800  1
loop_
_geom_bond_atom_site_label_1
_geom_bond_atom_site_label_2
_geom_bond_distance
_geom_bond_site_symmetry_2
K0 O9 2.721371 1_555
K0 O1 2.825011 1_655
K0 O33 2.829062 1_645
K0 O8 2.838445 1_555
K0 O28 2.854731 1_655
K0 O24 2.978605 1_555
K1 O8 2.721371 1_555
K1 O0 2.825011 1_545
K1 O32 2.829062 1_645
K1 O9 2.838445 1_555
K1 O29 2.854731 1_545
K1 O25 2.978605 1_555
K2 O11 2.721371 1_555
K2 O3 2.825011 1_455
K2 O35 2.829062 1_465
K2 O10 2.838445 1_555
K2 O30 2.854731 1_455
K2 O26 2.978605 1_555
K3 O10 2.721371 1_555
K3 O2 2.825011 1_565
K3 O34 2.829062 1_465
K3 O11 2.838445 1_555
K3 O31 2.854731 1_565
K3 O27 2.978605 1_555
K4 O28 2.765272 1_555
K4 O2 2.824355 1_555
K4 O0 2.871483 1_545
K4 O8 2.880620 1_455
K4 O4 2.962283 1_545
K4 O16 3.058733 1_455
K5 O29 2.765272 1_555
K5 O3 2.824355 1_556
K5 O1 2.871483 1_655
K5 O9 2.880620 1_565
K5 O5 2.962283 1_655
K5 O17 3.058733 1_566
K6 O30 2.765272 1_555
K6 O0 2.824355 1_555
K6 O2 2.871483 1_565
K6 O10 2.880620 1_655
K6 O6 2.962283 1_565
K6 O18 3.058733 1_655
K7 O31 2.765272 1_555
K7 O1 2.824355 1_554
K7 O3 2.871483 1_455
K7 O11 2.880620 1_545
K7 O7 2.962283 1_455
K7 O19 3.058733 1_544
Mo0 O32 1.736204 1_555
Mo0 O28 1.743257 1_555
Mo0 O18 2.031397 1_555
Mo0 O25 2.050083 1_555
Mo0 O4 2.169146 1_555
Mo0 O12 2.187756 1_555
Mo1 O33 1.736204 1_555
Mo1 O29 1.743257 1_555
Mo1 O19 2.031397 1_555
Mo1 O24 2.050083 1_555
Mo1 O5 2.169146 1_555
Mo1 O13 2.187756 1_555
Mo2 O34 1.736204 1_555
Mo2 O30 1.743257 1_555
Mo2 O16 2.031397 1_555
Mo2 O27 2.050083 1_555
Mo2 O6 2.169146 1_555
Mo2 O14 2.187756 1_555
Mo3 O35 1.736204 1_555
Mo3 O31 1.743257 1_555
Mo3 O17 2.031397 1_555
Mo3 O26 2.050083 1_555
Mo3 O7 2.169146 1_555
Mo3 O15 2.187756 1_555
O0 P0 1.500782 1_555
O1 P1 1.500782 1_555
O2 P2 1.500782 1_555
O3 P3 1.500782 1_555
O4 P0 1.532340 1_555
O5 P1 1.532340 1_555
O6 P2 1.532340 1_555
O7 P3 1.532340 1_555
O8 P4 1.504082 1_555
O9 P5 1.504082 1_555
O10 P6 1.504082 1_555
O11 P7 1.504082 1_555
O12 P4 1.530830 1_555
O13 P5 1.530830 1_555
O14 P6 1.530830 1_555
O15 P7 1.530830 1_555
O16 P4 1.562826 1_555
O17 P5 1.562826 1_554
O18 P6 1.562826 1_555
O19 P7 1.562826 1_556
O20 P4 1.623182 1_555
O20 P0 1.627606 1_555
O21 P5 1.623182 1_555
O21 P1 1.627606 1_555
O22 P6 1.623182 1_555
O22 P2 1.627606 1_555
O23 P7 1.623182 1_555
O23 P3 1.627606 1_555
O24 P0 1.572393 1_555
O25 P1 1.572393 1_555
O26 P2 1.572393 1_555
O27 P3 1.572393 1_555
