# generated using pymatgen
data_Rb2Sn2Hg3S8
_symmetry_space_group_name_H-M   'P 1'
_cell_length_a   6.74129600
_cell_length_b   10.33559500
_cell_length_c   13.81850815
_cell_angle_alpha   82.33354289
_cell_angle_beta   90.00000000
_cell_angle_gamma   90.00000000
_symmetry_Int_Tables_number   1
_chemical_formula_structural   Rb2Sn2Hg3S8
_chemical_formula_sum   'Rb4 Sn4 Hg6 S16'
_cell_volume   954.20267806
_cell_formula_units_Z   2
loop_
 _symmetry_equiv_pos_site_id
 _symmetry_equiv_pos_as_xyz
  1  'x, y, z'
loop_
 _atom_site_type_symbol
 _atom_site_label
 _atom_site_symmetry_multiplicity
 _atom_site_fract_x
 _atom_site_fract_y
 _atom_site_fract_z
 _atom_site_occupancy
  Rb  Rb0  1  0.84026400  0.27797700  0.30810700  1
  Rb  Rb1  1  0.34026400  0.72202300  0.19189300  1
  Rb  Rb2  1  0.65973600  0.27797700  0.80810700  1
  Rb  Rb3  1  0.15973600  0.72202300  0.69189300  1
  Sn  Sn0  1  0.68308400  0.78510300  0.92445000  1
  Sn  Sn1  1  0.31691600  0.21489700  0.07555000  1
  Sn  Sn2  1  0.18308400  0.21489700  0.57555000  1
  Sn  Sn3  1  0.81691600  0.78510300  0.42445000  1
  Hg  Hg0  1  0.29607200  0.00209000  0.37966000  1
  Hg  Hg1  1  0.20392800  0.00209000  0.87966000  1
  Hg  Hg2  1  0.70392800  0.99791000  0.62034000  1
  Hg  Hg3  1  0.50000000  0.50000000  0.50000000  1
  Hg  Hg4  1  0.79607200  0.99791000  0.12034000  1
  Hg  Hg5  1  0.00000000  0.50000000  0.00000000  1
  S  S0  1  0.32324100  0.77535700  0.92524700  1
  S  S1  1  0.20504800  0.41877100  0.13425200  1
  S  S2  1  0.19593600  0.23379300  0.90859200  1
  S  S3  1  0.17675900  0.77535700  0.42524700  1
  S  S4  1  0.79495200  0.58122900  0.86574800  1
  S  S5  1  0.82324100  0.22464300  0.57475300  1
  S  S6  1  0.70504800  0.58122900  0.36574800  1
  S  S7  1  0.80406400  0.76620700  0.09140800  1
  S  S8  1  0.31893900  0.03159200  0.67735600  1
  S  S9  1  0.29495200  0.41877100  0.63425200  1
  S  S10  1  0.30406400  0.23379300  0.40859200  1
  S  S11  1  0.68106100  0.96840800  0.32264400  1
  S  S12  1  0.67675900  0.22464300  0.07475300  1
  S  S13  1  0.69593600  0.76620700  0.59140800  1
  S  S14  1  0.18106100  0.03159200  0.17735600  1
  S  S15  1  0.81893900  0.96840800  0.82264400  1
loop_
_geom_bond_atom_site_label_1
_geom_bond_atom_site_label_2
_geom_bond_distance
_geom_bond_site_symmetry_2
Rb0 S11 3.355295 1_545
Rb0 S10 3.426827 1_655
Rb0 S6 3.457628 1_555
Rb0 S12 3.520103 1_555
Rb0 S1 3.606060 1_655
Rb0 S5 3.654005 1_555
Rb0 S10 3.877289 1_555
Rb1 S14 3.355295 1_565
Rb1 S7 3.426827 1_555
Rb1 S1 3.457628 1_555
Rb1 S3 3.520103 1_555
Rb1 S6 3.606060 1_555
Rb1 S0 3.654005 1_554
Rb1 S7 3.877289 1_455
Rb2 S15 3.355295 1_545
Rb2 S2 3.426827 1_555
Rb2 S4 3.457628 1_555
Rb2 S5 3.520103 1_555
Rb2 S9 3.606060 1_555
Rb2 S12 3.654005 1_556
Rb2 S2 3.877289 1_655
Rb3 S8 3.355295 1_565
Rb3 S13 3.426827 1_455
Rb3 S9 3.457628 1_555
Rb3 S0 3.520103 1_555
Rb3 S4 3.606060 1_455
Rb3 S3 3.654005 1_555
Rb3 S13 3.877289 1_555
Hg0 S3 2.478207 1_545
Hg0 S10 2.480566 1_555
Hg0 S11 2.747877 1_545
Hg0 S14 2.877796 1_555
Hg1 S0 2.478207 1_545
Hg1 S2 2.480566 1_555
Hg1 S15 2.747877 1_445
Hg1 S8 2.877796 1_555
Hg2 S5 2.478207 1_565
Hg2 S13 2.480566 1_555
Hg2 S8 2.747877 1_565
Hg2 S15 2.877796 1_555
Hg3 S6 2.375213 1_555
Hg3 S9 2.375213 1_555
Hg4 S12 2.478207 1_565
Hg4 S7 2.480566 1_555
Hg4 S14 2.747877 1_665
Hg4 S11 2.877796 1_555
Hg5 S1 2.375213 1_555
Hg5 S4 2.375213 1_454
S0 Sn0 2.427863 1_555
S1 Sn1 2.474449 1_555
S2 Sn1 2.430190 1_556
S3 Sn3 2.427863 1_455
S4 Sn0 2.474449 1_555
S5 Sn2 2.427863 1_655
S6 Sn3 2.474449 1_555
S7 Sn0 2.430190 1_554
S8 Sn2 2.386654 1_555
S9 Sn2 2.474449 1_555
S10 Sn2 2.430190 1_555
S11 Sn3 2.386654 1_555
S12 Sn1 2.427863 1_555
S13 Sn3 2.430190 1_555
S14 Sn1 2.386654 1_555
S15 Sn0 2.386654 1_555
