# generated using pymatgen
data_Rb2Mo3O10
_symmetry_space_group_name_H-M   'P 1'
_cell_length_a   8.17281168
_cell_length_b   8.17281168
_cell_length_c   9.18705955
_cell_angle_alpha   83.01641602
_cell_angle_beta   83.01641602
_cell_angle_gamma   59.83957002
_symmetry_Int_Tables_number   1
_chemical_formula_structural   Rb2Mo3O10
_chemical_formula_sum   'Rb4 Mo6 O20'
_cell_volume   525.32733934
_cell_formula_units_Z   2
loop_
 _symmetry_equiv_pos_site_id
 _symmetry_equiv_pos_as_xyz
  1  'x, y, z'
loop_
 _atom_site_type_symbol
 _atom_site_label
 _atom_site_symmetry_multiplicity
 _atom_site_fract_x
 _atom_site_fract_y
 _atom_site_fract_z
 _atom_site_occupancy
  Rb  Rb0  1  0.40419876  0.23219794  0.15893832  1
  Rb  Rb1  1  0.76780206  0.59580124  0.34106168  1
  Rb  Rb2  1  0.59580124  0.76780206  0.84106168  1
  Rb  Rb3  1  0.23219794  0.40419876  0.65893832  1
  Mo  Mo0  1  0.18060571  0.03507416  0.47821212  1
  Mo  Mo1  1  0.96492584  0.81939429  0.02178788  1
  Mo  Mo2  1  0.81939429  0.96492584  0.52178788  1
  Mo  Mo3  1  0.03507416  0.18060571  0.97821212  1
  Mo  Mo4  1  0.28989693  0.71010307  0.25000000  1
  Mo  Mo5  1  0.71010307  0.28989693  0.75000000  1
  O  O0  1  0.34662029  0.89208111  0.31939280  1
  O  O1  1  0.10791889  0.65337971  0.18060720  1
  O  O2  1  0.65337971  0.10791889  0.68060720  1
  O  O3  1  0.89208111  0.34662029  0.81939280  1
  O  O4  1  0.94333060  0.10672848  0.59241017  1
  O  O5  1  0.89327152  0.05666940  0.90758983  1
  O  O6  1  0.05666940  0.89327152  0.40758983  1
  O  O7  1  0.10672848  0.94333060  0.09241017  1
  O  O8  1  0.33026098  0.95090532  0.61706201  1
  O  O9  1  0.04909468  0.66973902  0.88293799  1
  O  O10  1  0.66973902  0.04909468  0.38293799  1
  O  O11  1  0.95090532  0.33026098  0.11706201  1
  O  O12  1  0.14295400  0.25880567  0.41906723  1
  O  O13  1  0.74119433  0.85704600  0.08093277  1
  O  O14  1  0.85704600  0.74119433  0.58093277  1
  O  O15  1  0.25880567  0.14295400  0.91906723  1
  O  O16  1  0.47232145  0.63102342  0.11680806  1
  O  O17  1  0.36897658  0.52767855  0.38319194  1
  O  O18  1  0.52767855  0.36897658  0.88319194  1
  O  O19  1  0.63102342  0.47232145  0.61680806  1
loop_
_geom_bond_atom_site_label_1
_geom_bond_atom_site_label_2
_geom_bond_distance
_geom_bond_site_symmetry_2
Mo0 O8 1.707914 1_545
Mo0 O12 1.722518 1_555
Mo0 O0 1.917165 1_545
Mo0 O4 1.928135 1_455
Mo0 O6 2.076602 1_545
Mo1 O9 1.707914 1_654
Mo1 O13 1.722518 1_555
Mo1 O1 1.917165 1_655
Mo1 O5 1.928135 1_564
Mo1 O7 2.076602 1_655
Mo2 O10 1.707914 1_565
Mo2 O14 1.722518 1_555
Mo2 O2 1.917165 1_565
Mo2 O6 1.928135 1_655
Mo2 O4 2.076602 1_565
Mo3 O11 1.707914 1_456
Mo3 O15 1.722518 1_555
Mo3 O3 1.917165 1_455
Mo3 O7 1.928135 1_546
Mo3 O5 2.076602 1_455
Mo4 O17 1.708297 1_555
Mo4 O16 1.708297 1_555
Mo4 O1 1.956675 1_555
Mo4 O0 1.956675 1_555
Mo4 O7 2.226899 1_555
Mo4 O6 2.226899 1_555
Mo5 O18 1.708297 1_555
Mo5 O19 1.708297 1_555
Mo5 O2 1.956675 1_555
Mo5 O3 1.956675 1_555
Mo5 O5 2.226899 1_555
Mo5 O4 2.226899 1_555
O0 Rb1 3.070157 1_555
O0 Rb0 3.204768 1_565
O1 Rb0 3.070157 1_555
O1 Rb1 3.204768 1_455
O2 Rb3 3.070157 1_555
O2 Rb2 3.204768 1_545
O3 Rb2 3.070157 1_555
O3 Rb3 3.204768 1_655
O8 Rb2 2.873663 1_555
O8 Rb3 3.435564 1_565
O9 Rb3 2.873663 1_555
O9 Rb2 3.435564 1_455
O10 Rb0 2.873663 1_555
O10 Rb1 3.435564 1_545
O11 Rb1 2.873663 1_555
O11 Rb0 3.435564 1_655
O12 Rb3 2.949377 1_555
O12 Rb0 2.955714 1_555
O12 Rb1 3.011437 1_455
O13 Rb2 2.949377 1_554
O13 Rb1 2.955714 1_555
O13 Rb0 3.011437 1_565
O14 Rb1 2.949377 1_555
O14 Rb2 2.955714 1_555
O14 Rb3 3.011437 1_655
O15 Rb0 2.949377 1_556
O15 Rb3 2.955714 1_555
O15 Rb2 3.011437 1_545
O16 Rb2 2.917010 1_554
O16 Rb1 3.244423 1_555
O16 Rb0 3.542408 1_555
O17 Rb3 2.917010 1_555
O17 Rb0 3.244423 1_555
O17 Rb1 3.542408 1_555
O18 Rb0 2.917010 1_556
O18 Rb3 3.244423 1_555
O18 Rb2 3.542408 1_555
O19 Rb1 2.917010 1_555
O19 Rb2 3.244423 1_555
O19 Rb3 3.542408 1_555
