# generated using pymatgen
data_FeAs(H2O3)2
_symmetry_space_group_name_H-M   'P 1'
_cell_length_a   9.04496200
_cell_length_b   10.10360000
_cell_length_c   10.56580700
_cell_angle_alpha   90.00000000
_cell_angle_beta   90.00000000
_cell_angle_gamma   90.00000000
_symmetry_Int_Tables_number   1
_chemical_formula_structural   FeAs(H2O3)2
_chemical_formula_sum   'Fe8 As8 H32 O48'
_cell_volume   965.57400279
_cell_formula_units_Z   8
loop_
 _symmetry_equiv_pos_site_id
 _symmetry_equiv_pos_as_xyz
  1  'x, y, z'
loop_
 _atom_site_type_symbol
 _atom_site_label
 _atom_site_symmetry_multiplicity
 _atom_site_fract_x
 _atom_site_fract_y
 _atom_site_fract_z
 _atom_site_occupancy
  Fe  Fe0  1  0.64680500  0.81758700  0.37128800  1
  Fe  Fe1  1  0.14680500  0.68241300  0.62871200  1
  Fe  Fe2  1  0.35319500  0.31758700  0.12871200  1
  Fe  Fe3  1  0.85319500  0.18241300  0.87128800  1
  Fe  Fe4  1  0.35319500  0.18241300  0.62871200  1
  Fe  Fe5  1  0.85319500  0.31758700  0.37128800  1
  Fe  Fe6  1  0.64680500  0.68241300  0.87128800  1
  Fe  Fe7  1  0.14680500  0.81758700  0.12871200  1
  As  As0  1  0.53491600  0.13653100  0.35027500  1
  As  As1  1  0.03491600  0.36346900  0.64972500  1
  As  As2  1  0.46508400  0.63653100  0.14972500  1
  As  As3  1  0.96508400  0.86346900  0.85027500  1
  As  As4  1  0.46508400  0.86346900  0.64972500  1
  As  As5  1  0.96508400  0.63653100  0.35027500  1
  As  As6  1  0.53491600  0.36346900  0.85027500  1
  As  As7  1  0.03491600  0.13653100  0.14972500  1
  H  H0  1  0.68282800  0.82789500  0.12942400  1
  H  H1  1  0.18282800  0.67210500  0.87057600  1
  H  H2  1  0.31717200  0.32789500  0.37057600  1
  H  H3  1  0.81717200  0.17210500  0.62942400  1
  H  H4  1  0.31717200  0.17210500  0.87057600  1
  H  H5  1  0.81717200  0.32789500  0.12942400  1
  H  H6  1  0.68282800  0.67210500  0.62942400  1
  H  H7  1  0.18282800  0.82789500  0.37057600  1
  H  H8  1  0.83335400  0.89916400  0.18355300  1
  H  H9  1  0.33335400  0.60083600  0.81644700  1
  H  H10  1  0.16664600  0.39916400  0.31644700  1
  H  H11  1  0.66664600  0.10083600  0.68355300  1
  H  H12  1  0.16664600  0.10083600  0.81644700  1
  H  H13  1  0.66664600  0.39916400  0.18355300  1
  H  H14  1  0.83335400  0.60083600  0.68355300  1
  H  H15  1  0.33335400  0.89916400  0.31644700  1
  H  H16  1  0.86069200  0.90639300  0.52563100  1
  H  H17  1  0.36069200  0.59360700  0.47436900  1
  H  H18  1  0.13930800  0.40639300  0.97436900  1
  H  H19  1  0.63930800  0.09360700  0.02563100  1
  H  H20  1  0.13930800  0.09360700  0.47436900  1
  H  H21  1  0.63930800  0.40639300  0.52563100  1
  H  H22  1  0.86069200  0.59360700  0.02563100  1
  H  H23  1  0.36069200  0.90639300  0.97436900  1
  H  H24  1  0.80202400  0.02543400  0.43343600  1
  H  H25  1  0.30202400  0.47456600  0.56656400  1
  H  H26  1  0.19797600  0.52543400  0.06656400  1
  H  H27  1  0.69797600  0.97456600  0.93343600  1
  H  H28  1  0.19797600  0.97456600  0.56656400  1
  H  H29  1  0.69797600  0.52543400  0.43343600  1
  H  H30  1  0.80202400  0.47456600  0.93343600  1
  H  H31  1  0.30202400  0.02543400  0.06656400  1
  O  O0  1  0.50194900  0.96894500  0.35869700  1
  O  O1  1  0.00194900  0.53105500  0.64130300  1
  O  O2  1  0.49805100  0.46894500  0.14130300  1
  O  O3  1  0.99805100  0.03105500  0.85869700  1
  O  O4  1  0.49805100  0.03105500  0.64130300  1
  O  O5  1  0.99805100  0.46894500  0.35869700  1
  O  O6  1  0.50194900  0.53105500  0.85869700  1
  O  O7  1  0.00194900  0.96894500  0.14130300  1
  O  O8  1  0.71752100  0.16047600  0.39208400  1
  O  O9  1  0.21752100  0.33952400  0.60791600  1
  O  O10  1  0.28247900  0.66047600  0.10791600  1
  O  O11  1  0.78247900  0.83952400  0.89208400  1
  O  O12  1  0.28247900  0.83952400  0.60791600  1
  O  O13  1  0.78247900  0.66047600  0.39208400  1
  O  O14  1  0.71752100  0.33952400  0.89208400  1
  O  O15  1  0.21752100  0.16047600  0.10791600  1
  O  O16  1  0.50591500  0.19690000  0.20049700  1
  O  O17  1  0.00591500  0.30310000  0.79950300  1
  O  O18  1  0.49408500  0.69690000  0.29950300  1
  O  O19  1  0.99408500  0.80310000  0.70049700  1
  O  O20  1  0.49408500  0.80310000  0.79950300  1
  O  O21  1  0.99408500  0.69690000  0.20049700  1
  O  O22  1  0.50591500  0.30310000  0.70049700  1
  O  O23  1  0.00591500  0.19690000  0.29950300  1
  O  O24  1  0.41661600  0.22062900  0.45063700  1
  O  O25  1  0.91661600  0.27937100  0.54936300  1
  O  O26  1  0.58338400  0.72062900  0.04936300  1
  O  O27  1  0.08338400  0.77937100  0.95063700  1
  O  O28  1  0.58338400  0.77937100  0.54936300  1
  O  O29  1  0.08338400  0.72062900  0.45063700  1
  O  O30  1  0.41661600  0.27937100  0.95063700  1
  O  O31  1  0.91661600  0.22062900  0.04936300  1
  O  O32  1  0.72563000  0.88485600  0.19852600  1
  O  O33  1  0.22563000  0.61514400  0.80147400  1
  O  O34  1  0.27437000  0.38485600  0.30147400  1
  O  O35  1  0.77437000  0.11514400  0.69852600  1
  O  O36  1  0.27437000  0.11514400  0.80147400  1
  O  O37  1  0.77437000  0.38485600  0.19852600  1
  O  O38  1  0.72563000  0.61514400  0.69852600  1
  O  O39  1  0.22563000  0.88485600  0.30147400  1
  O  O40  1  0.82816200  0.92857800  0.43953300  1
  O  O41  1  0.32816200  0.57142200  0.56046700  1
  O  O42  1  0.17183800  0.42857800  0.06046700  1
  O  O43  1  0.67183800  0.07142200  0.93953300  1
  O  O44  1  0.17183800  0.07142200  0.56046700  1
  O  O45  1  0.67183800  0.42857800  0.43953300  1
  O  O46  1  0.82816200  0.57142200  0.93953300  1
  O  O47  1  0.32816200  0.92857800  0.06046700  1
loop_
_geom_bond_atom_site_label_1
_geom_bond_atom_site_label_2
_geom_bond_distance
_geom_bond_site_symmetry_2
Fe0 O18 1.992551 1_555
Fe0 O28 2.004549 1_555
Fe0 O0 2.018169 1_555
Fe0 O13 2.018418 1_555
Fe0 O32 2.074183 1_555
Fe0 O40 2.113834 1_555
Fe1 O19 1.992551 1_455
Fe1 O29 2.004549 1_555
Fe1 O1 2.018169 1_555
Fe1 O12 2.018418 1_555
Fe1 O33 2.074183 1_555
Fe1 O41 2.113834 1_555
Fe2 O16 1.992551 1_555
Fe2 O30 2.004549 1_554
Fe2 O2 2.018169 1_555
Fe2 O15 2.018418 1_555
Fe2 O34 2.074183 1_555
Fe2 O42 2.113834 1_555
Fe3 O17 1.992551 1_655
Fe3 O31 2.004549 1_556
Fe3 O3 2.018169 1_555
Fe3 O14 2.018418 1_555
Fe3 O35 2.074183 1_555
Fe3 O43 2.113834 1_555
Fe4 O22 1.992551 1_555
Fe4 O24 2.004549 1_555
Fe4 O4 2.018169 1_555
Fe4 O9 2.018418 1_555
Fe4 O36 2.074183 1_555
Fe4 O44 2.113834 1_555
Fe5 O23 1.992551 1_655
Fe5 O25 2.004549 1_555
Fe5 O5 2.018169 1_555
Fe5 O8 2.018418 1_555
Fe5 O37 2.074183 1_555
Fe5 O45 2.113834 1_555
Fe6 O20 1.992551 1_555
Fe6 O26 2.004549 1_556
Fe6 O6 2.018169 1_555
Fe6 O11 2.018418 1_555
Fe6 O38 2.074183 1_555
Fe6 O46 2.113834 1_555
Fe7 O21 1.992551 1_455
Fe7 O27 2.004549 1_554
Fe7 O7 2.018169 1_555
Fe7 O10 2.018418 1_555
Fe7 O39 2.074183 1_555
Fe7 O47 2.113834 1_555
As0 O16 1.716166 1_555
As0 O0 1.721579 1_545
As0 O8 1.726741 1_555
As0 O24 1.729560 1_555
As1 O17 1.716166 1_555
As1 O1 1.721579 1_555
As1 O9 1.726741 1_555
As1 O25 1.729560 1_455
As2 O18 1.716166 1_555
As2 O2 1.721579 1_555
As2 O10 1.726741 1_555
As2 O26 1.729560 1_555
As3 O19 1.716166 1_555
As3 O3 1.721579 1_565
As3 O11 1.726741 1_555
As3 O27 1.729560 1_655
As4 O20 1.716166 1_555
As4 O4 1.721579 1_565
As4 O12 1.726741 1_555
As4 O28 1.729560 1_555
As5 O21 1.716166 1_555
As5 O5 1.721579 1_555
As5 O13 1.726741 1_555
As5 O29 1.729560 1_655
As6 O22 1.716166 1_555
As6 O6 1.721579 1_555
As6 O14 1.726741 1_555
As6 O30 1.729560 1_555
As7 O23 1.716166 1_555
As7 O7 1.721579 1_545
As7 O15 1.726741 1_555
As7 O31 1.729560 1_455
H0 O32 1.007058 1_555
H0 O26 1.642914 1_555
H1 O33 1.007058 1_555
H1 O27 1.642914 1_555
H2 O34 1.007058 1_555
H2 O24 1.642914 1_555
H3 O35 1.007058 1_555
H3 O25 1.642914 1_555
H4 O36 1.007058 1_555
H4 O30 1.642914 1_555
H5 O37 1.007058 1_555
H5 O31 1.642914 1_555
H6 O38 1.007058 1_555
H6 O28 1.642914 1_555
H7 O39 1.007058 1_555
H7 O29 1.642914 1_555
H8 O32 0.997648 1_555
H8 O7 1.738329 1_655
H9 O33 0.997648 1_555
H9 O6 1.738329 1_555
H10 O34 0.997648 1_555
H10 O5 1.738329 1_455
H11 O35 0.997648 1_555
H11 O4 1.738329 1_555
H12 O36 0.997648 1_555
H12 O3 1.738329 1_455
H13 O37 0.997648 1_555
H13 O2 1.738329 1_555
H14 O38 0.997648 1_555
H14 O1 1.738329 1_655
H15 O39 0.997648 1_555
H15 O0 1.738329 1_555
H16 O40 0.982018 1_555
H17 O41 0.982018 1_555
H18 O42 0.982018 1_556
H19 O43 0.982018 1_554
H20 O44 0.982018 1_555
H21 O45 0.982018 1_555
H22 O46 0.982018 1_554
H23 O47 0.982018 1_556
H24 O40 1.008806 1_545
H24 O8 1.623794 1_555
H25 O41 1.008806 1_555
H25 O9 1.623794 1_555
H26 O42 1.008806 1_555
H26 O10 1.623794 1_555
H27 O43 1.008806 1_565
H27 O11 1.623794 1_555
H28 O44 1.008806 1_565
H28 O12 1.623794 1_555
H29 O45 1.008806 1_555
H29 O13 1.623794 1_555
H30 O46 1.008806 1_555
H30 O14 1.623794 1_555
H31 O47 1.008806 1_545
H31 O15 1.623794 1_555
