# generated using pymatgen
data_Sr2LiSiO4F
_symmetry_space_group_name_H-M   'P 1'
_cell_length_a   5.46643300
_cell_length_b   6.63821100
_cell_length_c   6.99738158
_cell_angle_alpha   67.71358899
_cell_angle_beta   90.00000000
_cell_angle_gamma   90.00000000
_symmetry_Int_Tables_number   1
_chemical_formula_structural   Sr2LiSiO4F
_chemical_formula_sum   'Sr4 Li2 Si2 O8 F2'
_cell_volume   234.94870509
_cell_formula_units_Z   2
loop_
 _symmetry_equiv_pos_site_id
 _symmetry_equiv_pos_as_xyz
  1  'x, y, z'
loop_
 _atom_site_type_symbol
 _atom_site_label
 _atom_site_symmetry_multiplicity
 _atom_site_fract_x
 _atom_site_fract_y
 _atom_site_fract_z
 _atom_site_occupancy
  Sr  Sr0  1  0.25000000  0.84129700  0.37351300  1
  Sr  Sr1  1  0.75000000  0.63516000  0.10162100  1
  Sr  Sr2  1  0.75000000  0.15870300  0.62648700  1
  Sr  Sr3  1  0.25000000  0.36484000  0.89837900  1
  Li  Li0  1  0.25000000  0.85180800  0.88076300  1
  Li  Li1  1  0.75000000  0.14819200  0.11923700  1
  Si  Si0  1  0.75000000  0.65473700  0.66471700  1
  Si  Si1  1  0.25000000  0.34526300  0.33528300  1
  O  O0  1  0.50705500  0.77643000  0.71128200  1
  O  O1  1  0.25000000  0.33719400  0.57088200  1
  O  O2  1  0.75000000  0.40422100  0.84161700  1
  O  O3  1  0.75000000  0.66280600  0.42911800  1
  O  O4  1  0.25000000  0.59577900  0.15838300  1
  O  O5  1  0.00705500  0.22357000  0.28871800  1
  O  O6  1  0.99294500  0.77643000  0.71128200  1
  O  O7  1  0.49294500  0.22357000  0.28871800  1
  F  F0  1  0.00000000  0.00000000  0.00000000  1
  F  F1  1  0.50000000  0.00000000  0.00000000  1
loop_
_geom_bond_atom_site_label_1
_geom_bond_atom_site_label_2
_geom_bond_distance
_geom_bond_site_symmetry_2
Li0 O6 2.020244 1_455
Li0 O0 2.020244 1_555
Li0 O4 2.039145 1_556
Li1 O7 2.020244 1_555
Li1 O5 2.020244 1_655
Li1 O2 2.039145 1_554
O0 Si0 1.649874 1_555
O0 Sr0 2.640860 1_555
O0 Sr2 2.722719 1_565
O0 Sr1 2.856685 1_556
O0 Sr3 2.905248 1_555
O1 Si1 1.629017 1_555
O1 Sr3 2.367317 1_555
O1 Sr2 2.945520 1_455
O1 Sr2 2.945520 1_555
O1 Sr0 3.098395 1_555
O2 Si0 1.654213 1_555
O2 Sr2 2.604451 1_555
O2 Sr3 2.760039 1_555
O2 Sr3 2.760039 1_655
O2 Sr1 2.788483 1_556
O3 Si0 1.629017 1_555
O3 Sr1 2.367317 1_555
O3 Sr0 2.945520 1_555
O3 Sr0 2.945520 1_655
O3 Sr2 3.098395 1_555
O4 Si1 1.654213 1_555
O4 Sr0 2.604451 1_555
O4 Sr1 2.760039 1_555
O4 Sr1 2.760039 1_455
O4 Sr3 2.788483 1_554
O5 Si1 1.649874 1_555
O5 Sr2 2.640860 1_455
O5 Sr0 2.722719 1_545
O5 Sr3 2.856685 1_554
O5 Sr1 2.905248 1_455
O6 Si0 1.649874 1_555
O6 Sr0 2.640860 1_655
O6 Sr2 2.722719 1_565
O6 Sr1 2.856685 1_556
O6 Sr3 2.905248 1_655
O7 Si1 1.649874 1_555
O7 Sr2 2.640860 1_555
O7 Sr0 2.722719 1_545
O7 Sr3 2.856685 1_554
O7 Sr1 2.905248 1_555
F0 Li1 2.038139 1_455
F0 Li0 2.038139 1_544
F0 Sr1 2.632978 1_445
F0 Sr3 2.632978 1_554
F0 Sr0 2.778496 1_545
F0 Sr2 2.778496 1_454
F1 Li1 2.038139 1_555
F1 Li0 2.038139 1_544
F1 Sr3 2.632978 1_554
F1 Sr1 2.632978 1_545
F1 Sr0 2.778496 1_545
F1 Sr2 2.778496 1_554
