# generated using pymatgen
data_Na7In3Se8
_symmetry_space_group_name_H-M   'P 1'
_cell_length_a   6.70288694
_cell_length_b   10.45146081
_cell_length_c   13.54245825
_cell_angle_alpha   91.57038223
_cell_angle_beta   90.04357376
_cell_angle_gamma   90.22907991
_symmetry_Int_Tables_number   1
_chemical_formula_structural   Na7In3Se8
_chemical_formula_sum   'Na14 In6 Se16'
_cell_volume   948.35211088
_cell_formula_units_Z   2
loop_
 _symmetry_equiv_pos_site_id
 _symmetry_equiv_pos_as_xyz
  1  'x, y, z'
loop_
 _atom_site_type_symbol
 _atom_site_label
 _atom_site_symmetry_multiplicity
 _atom_site_fract_x
 _atom_site_fract_y
 _atom_site_fract_z
 _atom_site_occupancy
  Na  Na0  1  0.74457699  0.12846455  0.48371302  1
  Na  Na1  1  0.25542301  0.87153545  0.51628698  1
  Na  Na2  1  0.28003072  0.10944628  0.27391911  1
  Na  Na3  1  0.71996928  0.89055372  0.72608089  1
  Na  Na4  1  0.73152208  0.38618370  0.23362351  1
  Na  Na5  1  0.26847792  0.61381630  0.76637649  1
  Na  Na6  1  0.25407693  0.36018825  0.02003833  1
  Na  Na7  1  0.74592307  0.63981175  0.97996167  1
  Na  Na8  1  0.48218227  0.62311063  0.36633207  1
  Na  Na9  1  0.51781773  0.37688937  0.63366793  1
  Na  Na10  1  0.47800066  0.86044132  0.12431772  1
  Na  Na11  1  0.52199934  0.13955868  0.87568228  1
  Na  Na12  1  0.14615389  0.62648797  0.17835113  1
  Na  Na13  1  0.85384611  0.37351203  0.82164887  1
  In  In0  1  0.12767376  0.15632623  0.69527968  1
  In  In1  1  0.87232624  0.84367377  0.30472032  1
  In  In2  1  0.13715962  0.38237829  0.43465054  1
  In  In3  1  0.86284038  0.61762171  0.56534946  1
  In  In4  1  0.13491845  0.88823173  0.92608179  1
  In  In5  1  0.86508155  0.11176827  0.07391821  1
  Se  Se0  1  0.25827699  0.16740549  0.50914256  1
  Se  Se1  1  0.74172301  0.83259451  0.49085744  1
  Se  Se2  1  0.25359568  0.92495876  0.74405155  1
  Se  Se3  1  0.74640432  0.07504124  0.25594845  1
  Se  Se4  1  0.25404792  0.66804159  0.97711616  1
  Se  Se5  1  0.74595208  0.33195841  0.02288384  1
  Se  Se6  1  0.74918444  0.15808737  0.69355729  1
  Se  Se7  1  0.25081556  0.84191263  0.30644271  1
  Se  Se8  1  0.25073090  0.07706183  0.04768219  1
  Se  Se9  1  0.74926910  0.92293817  0.95231781  1
  Se  Se10  1  0.27347982  0.33780217  0.80404873  1
  Se  Se11  1  0.72652018  0.66219783  0.19595127  1
  Se  Se12  1  0.75043766  0.41833906  0.45286398  1
  Se  Se13  1  0.24956234  0.58166094  0.54713602  1
  Se  Se14  1  0.26185962  0.38628663  0.25724435  1
  Se  Se15  1  0.73814038  0.61371337  0.74275565  1
loop_
_geom_bond_atom_site_label_1
_geom_bond_atom_site_label_2
_geom_bond_distance
_geom_bond_site_symmetry_2
Na0 Se6 2.850306 1_555
Na0 Se12 3.069702 1_555
Na0 Se1 3.096420 1_545
Na0 Se3 3.119570 1_555
Na0 Se0 3.303627 1_555
Na0 Se0 3.481332 1_655
Na1 Se7 2.850306 1_555
Na1 Se13 3.069702 1_555
Na1 Se0 3.096420 1_565
Na1 Se2 3.119570 1_555
Na1 Se1 3.303627 1_555
Na1 Se1 3.481332 1_455
Na2 Se7 2.848486 1_545
Na2 Se14 2.911374 1_555
Na2 Se8 3.079243 1_555
Na2 Se3 3.156907 1_555
Na2 Se0 3.229750 1_555
Na3 Se6 2.848486 1_565
Na3 Se15 2.911374 1_555
Na3 Se9 3.079243 1_555
Na3 Se2 3.156907 1_555
Na3 Se1 3.229750 1_555
Na4 Se5 2.896150 1_555
Na4 Se11 2.943570 1_555
Na4 Se12 2.981393 1_555
Na4 Se14 3.164548 1_555
Na4 Se3 3.276065 1_555
Na4 Se14 3.568907 1_655
Na5 Se4 2.896150 1_555
Na5 Se10 2.943570 1_555
Na5 Se13 2.981393 1_555
Na5 Se15 3.164548 1_555
Na5 Se2 3.276065 1_555
Na5 Se15 3.568907 1_455
Na6 Se10 2.931001 1_554
Na6 Se8 2.992830 1_555
Na6 Se14 3.216821 1_555
Na6 Se4 3.285241 1_554
Na6 Se5 3.311623 1_555
Na6 Se5 3.417821 1_455
Na7 Se11 2.931001 1_556
Na7 Se9 2.992830 1_555
Na7 Se15 3.216821 1_555
Na7 Se5 3.285241 1_556
Na7 Se4 3.311623 1_555
Na7 Se4 3.417821 1_655
Na8 Se11 2.867964 1_555
Na8 Se7 2.901795 1_555
Na8 Se13 2.944944 1_555
Na8 Se12 3.058051 1_555
Na8 Se14 3.202629 1_555
Na8 Se1 3.229021 1_555
Na9 Se10 2.867964 1_555
Na9 Se6 2.901795 1_555
Na9 Se12 2.944944 1_555
Na9 Se13 3.058051 1_555
Na9 Se15 3.202629 1_555
Na9 Se0 3.229021 1_555
Na10 Se11 2.853802 1_555
Na10 Se7 2.910184 1_555
Na10 Se8 2.945741 1_565
Na10 Se9 3.039536 1_554
Na10 Se4 3.165828 1_554
Na10 Se3 3.344937 1_565
Na11 Se10 2.853802 1_555
Na11 Se6 2.910184 1_555
Na11 Se9 2.945741 1_545
Na11 Se8 3.039536 1_556
Na11 Se5 3.165828 1_556
Na11 Se2 3.344937 1_545
Na12 Se11 2.848200 1_455
Na12 Se4 2.864226 1_554
Na12 Se14 2.864733 1_555
Na12 Se7 2.888246 1_555
Na13 Se10 2.848200 1_655
Na13 Se5 2.864226 1_556
Na13 Se15 2.864733 1_555
Na13 Se6 2.888246 1_555
In0 Se6 2.537206 1_455
In0 Se10 2.559721 1_555
In0 Se2 2.664396 1_545
In0 Se0 2.674418 1_555
In1 Se7 2.537206 1_655
In1 Se11 2.559721 1_555
In1 Se3 2.664396 1_565
In1 Se1 2.674418 1_555
In2 Se14 2.545694 1_555
In2 Se0 2.619610 1_555
In2 Se12 2.631547 1_455
In2 Se13 2.652927 1_555
In3 Se15 2.545694 1_555
In3 Se1 2.619610 1_555
In3 Se13 2.631547 1_655
In3 Se12 2.652927 1_555
In4 Se4 2.551927 1_555
In4 Se2 2.628580 1_555
In4 Se9 2.634707 1_455
In4 Se8 2.648967 1_566
In5 Se5 2.551927 1_555
In5 Se3 2.628580 1_555
In5 Se8 2.634707 1_655
In5 Se9 2.648967 1_544
