# generated using pymatgen
data_Na3SO4F
_symmetry_space_group_name_H-M   'P 1'
_cell_length_a   7.03592300
_cell_length_b   11.59844800
_cell_length_c   18.29677074
_cell_angle_alpha   72.40595465
_cell_angle_beta   90.00000000
_cell_angle_gamma   90.00000000
_symmetry_Int_Tables_number   1
_chemical_formula_structural   Na3SO4F
_chemical_formula_sum   'Na36 S12 O48 F12'
_cell_volume   1423.27722884
_cell_formula_units_Z   12
loop_
 _symmetry_equiv_pos_site_id
 _symmetry_equiv_pos_as_xyz
  1  'x, y, z'
loop_
 _atom_site_type_symbol
 _atom_site_label
 _atom_site_symmetry_multiplicity
 _atom_site_fract_x
 _atom_site_fract_y
 _atom_site_fract_z
 _atom_site_occupancy
  Na  Na0  1  0.97770400  0.55089400  0.22657600  1
  Na  Na1  1  0.25000000  0.69934100  0.34902100  1
  Na  Na2  1  0.52298000  0.70850600  0.02986100  1
  Na  Na3  1  0.02229600  0.44910600  0.77342400  1
  Na  Na4  1  0.52229600  0.55089400  0.22657600  1
  Na  Na5  1  0.75000000  0.87340800  0.88366400  1
  Na  Na6  1  0.50039600  0.73304300  0.75540300  1
  Na  Na7  1  0.00039600  0.26695700  0.24459700  1
  Na  Na8  1  0.25000000  0.56224500  0.89357500  1
  Na  Na9  1  0.99960400  0.73304300  0.75540300  1
  Na  Na10  1  0.25000000  0.18430700  0.85154800  1
  Na  Na11  1  0.97702000  0.70850600  0.02986100  1
  Na  Na12  1  0.51736300  0.18985500  0.53477000  1
  Na  Na13  1  0.25000000  0.12659200  0.11633600  1
  Na  Na14  1  0.97270300  0.02969200  0.72092800  1
  Na  Na15  1  0.48263700  0.81014500  0.46523000  1
  Na  Na16  1  0.00000000  0.50000000  0.50000000  1
  Na  Na17  1  0.75000000  0.43775500  0.10642500  1
  Na  Na18  1  0.50000000  0.00000000  0.00000000  1
  Na  Na19  1  0.47702000  0.29149400  0.97013900  1
  Na  Na20  1  0.75000000  0.30065900  0.65097900  1
  Na  Na21  1  0.47770400  0.44910600  0.77342400  1
  Na  Na22  1  0.25000000  0.09507600  0.39400100  1
  Na  Na23  1  0.98263700  0.18985500  0.53477000  1
  Na  Na24  1  0.01736300  0.81014500  0.46523000  1
  Na  Na25  1  0.50000000  0.50000000  0.50000000  1
  Na  Na26  1  0.75000000  0.90492400  0.60599900  1
  Na  Na27  1  0.52729700  0.02969200  0.72092800  1
  Na  Na28  1  0.75000000  0.39753800  0.38521000  1
  Na  Na29  1  0.47270300  0.97030800  0.27907200  1
  Na  Na30  1  0.75000000  0.81569300  0.14845200  1
  Na  Na31  1  0.49960400  0.26695700  0.24459700  1
  Na  Na32  1  0.25000000  0.60246200  0.61479000  1
  Na  Na33  1  0.02729700  0.97030800  0.27907200  1
  Na  Na34  1  0.00000000  0.00000000  0.00000000  1
  Na  Na35  1  0.02298000  0.29149400  0.97013900  1
  S  S0  1  0.75000000  0.19277600  0.83826200  1
  S  S1  1  0.75000000  0.54344300  0.91484700  1
  S  S2  1  0.75000000  0.70222400  0.34643600  1
  S  S3  1  0.75000000  0.61214200  0.62527400  1
  S  S4  1  0.25000000  0.38785800  0.37472600  1
  S  S5  1  0.75000000  0.08281400  0.40284200  1
  S  S6  1  0.75000000  0.11939600  0.13030600  1
  S  S7  1  0.25000000  0.29777600  0.65356400  1
  S  S8  1  0.25000000  0.80722400  0.16173800  1
  S  S9  1  0.25000000  0.91718600  0.59715800  1
  S  S10  1  0.25000000  0.88060400  0.86969400  1
  S  S11  1  0.25000000  0.45655700  0.08515300  1
  O  O0  1  0.75000000  0.72163800  0.55638700  1
  O  O1  1  0.25000000  0.68384400  0.21956900  1
  O  O2  1  0.75000000  0.00034700  0.19225600  1
  O  O3  1  0.42283400  0.82125500  0.11266800  1
  O  O4  1  0.75000000  0.96197100  0.46262700  1
  O  O5  1  0.92362400  0.09501300  0.35407100  1
  O  O6  1  0.07637600  0.90498700  0.64592900  1
  O  O7  1  0.07716600  0.82125500  0.11266800  1
  O  O8  1  0.75000000  0.42246100  0.97548000  1
  O  O9  1  0.07621500  0.22438900  0.65278300  1
  O  O10  1  0.25000000  0.90153300  0.20194100  1
  O  O11  1  0.42378500  0.22438900  0.65278300  1
  O  O12  1  0.25000000  0.99965300  0.80774400  1
  O  O13  1  0.57702600  0.12808200  0.08176800  1
  O  O14  1  0.07666200  0.44634400  0.13363800  1
  O  O15  1  0.25000000  0.35862400  0.04770700  1
  O  O16  1  0.57716600  0.17874500  0.88733200  1
  O  O17  1  0.75000000  0.65053500  0.69625300  1
  O  O18  1  0.57621500  0.77561100  0.34721700  1
  O  O19  1  0.75000000  0.18036500  0.44049600  1
  O  O20  1  0.25000000  0.81963500  0.55950400  1
  O  O21  1  0.75000000  0.21965900  0.16581800  1
  O  O22  1  0.25000000  0.03802900  0.53737300  1
  O  O23  1  0.25000000  0.40529400  0.58412700  1
  O  O24  1  0.42362400  0.90498700  0.64592900  1
  O  O25  1  0.25000000  0.27836200  0.44361300  1
  O  O26  1  0.92283400  0.17874500  0.88733200  1
  O  O27  1  0.42297400  0.87191800  0.91823200  1
  O  O28  1  0.75000000  0.59470600  0.41587300  1
  O  O29  1  0.92297400  0.12808200  0.08176800  1
  O  O30  1  0.07715100  0.46286200  0.37501000  1
  O  O31  1  0.25000000  0.34946500  0.30374700  1
  O  O32  1  0.25000000  0.33629200  0.72450200  1
  O  O33  1  0.42333800  0.44634400  0.13363800  1
  O  O34  1  0.92333800  0.55365600  0.86636200  1
  O  O35  1  0.07702600  0.87191800  0.91823200  1
  O  O36  1  0.75000000  0.66370800  0.27549800  1
  O  O37  1  0.57637600  0.09501300  0.35407100  1
  O  O38  1  0.92284900  0.53713800  0.62499000  1
  O  O39  1  0.75000000  0.09846700  0.79805900  1
  O  O40  1  0.25000000  0.57753900  0.02452000  1
  O  O41  1  0.25000000  0.78034100  0.83418200  1
  O  O42  1  0.92378500  0.77561100  0.34721700  1
  O  O43  1  0.57666200  0.55365600  0.86636200  1
  O  O44  1  0.42284900  0.46286200  0.37501000  1
  O  O45  1  0.75000000  0.64137600  0.95229300  1
  O  O46  1  0.75000000  0.31615600  0.78043100  1
  O  O47  1  0.57715100  0.53713800  0.62499000  1
  F  F0  1  0.25000000  0.37333700  0.87542500  1
  F  F1  1  0.25000000  0.13683500  0.23727000  1
  F  F2  1  0.25000000  0.12385300  0.98955600  1
  F  F3  1  0.75000000  0.39475600  0.25781100  1
  F  F4  1  0.75000000  0.09306100  0.62203100  1
  F  F5  1  0.25000000  0.60524400  0.74218900  1
  F  F6  1  0.75000000  0.87614700  0.01044400  1
  F  F7  1  0.75000000  0.62666300  0.12457500  1
  F  F8  1  0.75000000  0.86316500  0.76273000  1
  F  F9  1  0.25000000  0.90693900  0.37796900  1
  F  F10  1  0.25000000  0.64351300  0.47896800  1
  F  F11  1  0.75000000  0.35648700  0.52103200  1
loop_
_geom_bond_atom_site_label_1
_geom_bond_atom_site_label_2
_geom_bond_distance
_geom_bond_site_symmetry_2
Na0 O36 2.405852 1_555
Na0 O1 2.438283 1_655
Na0 O14 2.468477 1_655
Na0 O30 2.689167 1_655
Na1 O1 2.428934 1_555
Na1 O18 2.456426 1_555
Na1 O42 2.456426 1_455
Na1 O30 2.905094 1_555
Na1 O44 2.905094 1_555
Na1 O10 2.987693 1_555
Na2 O3 2.387451 1_555
Na2 O45 2.416581 1_554
Na2 O27 2.432841 1_554
Na2 O40 2.468937 1_555
Na3 O32 2.405852 1_555
Na3 O46 2.438283 1_455
Na3 O34 2.468477 1_455
Na3 O38 2.689167 1_455
Na4 O36 2.405852 1_555
Na4 O1 2.438283 1_555
Na4 O33 2.468477 1_555
Na4 O44 2.689167 1_555
Na5 O35 2.384953 1_655
Na5 O27 2.384953 1_555
Na5 O45 2.603158 1_555
Na5 O39 2.606804 1_565
Na6 O17 2.407776 1_555
Na6 O24 2.422011 1_555
Na6 O41 2.441400 1_555
Na6 O43 2.486957 1_555
Na7 O31 2.407776 1_555
Na7 O5 2.422011 1_455
Na7 O21 2.441400 1_455
Na7 O14 2.486957 1_555
Na8 O34 2.360153 1_455
Na8 O43 2.360153 1_555
Na8 O41 2.432663 1_555
Na8 O40 2.455319 1_556
Na9 O17 2.407776 1_555
Na9 O6 2.422011 1_655
Na9 O41 2.441400 1_655
Na9 O34 2.486957 1_555
Na10 O16 2.388747 1_555
Na10 O26 2.388747 1_455
Na10 O32 2.456353 1_555
Na10 O12 2.503385 1_545
Na11 O7 2.387451 1_655
Na11 O45 2.416581 1_554
Na11 O35 2.432841 1_654
Na11 O40 2.468937 1_655
Na12 O11 2.403991 1_555
Na12 O19 2.404449 1_555
Na12 O25 2.517787 1_555
Na12 O22 2.567334 1_555
Na13 O13 2.384953 1_555
Na13 O29 2.384953 1_455
Na13 O15 2.603158 1_555
Na13 O10 2.606804 1_545
Na14 O9 2.341426 1_655
Na14 O6 2.388939 1_645
Na14 O39 2.400773 1_555
Na14 O12 2.473167 1_645
Na15 O18 2.403991 1_555
Na15 O20 2.404449 1_555
Na15 O0 2.517787 1_555
Na15 O4 2.567334 1_555
Na16 O23 2.376497 1_555
Na16 O28 2.376497 1_455
Na16 O30 2.511114 1_555
Na16 O38 2.511114 1_455
Na17 O14 2.360153 1_655
Na17 O33 2.360153 1_555
Na17 O21 2.432663 1_555
Na17 O8 2.455319 1_554
Na18 O13 2.466266 1_555
Na18 O27 2.466266 1_544
Na18 O3 2.501749 1_545
Na18 O16 2.501749 1_554
Na19 O16 2.387451 1_555
Na19 O15 2.416581 1_556
Na19 O13 2.432841 1_556
Na19 O8 2.468937 1_555
Na20 O46 2.428934 1_555
Na20 O9 2.456426 1_655
Na20 O11 2.456426 1_555
Na20 O38 2.905094 1_555
Na20 O47 2.905094 1_555
Na20 O39 2.987693 1_555
Na21 O32 2.405852 1_555
Na21 O46 2.438283 1_555
Na21 O43 2.468477 1_555
Na21 O47 2.689167 1_555
Na22 O5 2.409842 1_455
Na22 O37 2.409842 1_555
Na22 O22 2.503978 1_555
Na22 O25 2.551420 1_555
Na22 O31 2.913244 1_555
Na23 O9 2.403991 1_655
Na23 O19 2.404449 1_555
Na23 O25 2.517787 1_655
Na23 O22 2.567334 1_655
Na24 O42 2.403991 1_455
Na24 O20 2.404449 1_555
Na24 O0 2.517787 1_455
Na24 O4 2.567334 1_455
Na25 O23 2.376497 1_555
Na25 O28 2.376497 1_555
Na25 O44 2.511114 1_555
Na25 O47 2.511114 1_555
Na26 O6 2.409842 1_655
Na26 O24 2.409842 1_555
Na26 O4 2.503978 1_555
Na26 O0 2.551420 1_555
Na26 O17 2.913244 1_555
Na27 O11 2.341426 1_555
Na27 O24 2.388939 1_545
Na27 O39 2.400773 1_555
Na27 O12 2.473167 1_545
Na28 O30 2.412824 1_655
Na28 O44 2.412824 1_555
Na28 O19 2.414040 1_555
Na28 O28 2.513968 1_555
Na29 O18 2.341426 1_555
Na29 O37 2.388939 1_565
Na29 O10 2.400773 1_555
Na29 O2 2.473167 1_565
Na30 O3 2.388747 1_555
Na30 O7 2.388747 1_655
Na30 O36 2.456353 1_555
Na30 O2 2.503385 1_565
Na31 O31 2.407776 1_555
Na31 O37 2.422011 1_555
Na31 O21 2.441400 1_555
Na31 O33 2.486957 1_555
Na32 O47 2.412824 1_555
Na32 O38 2.412824 1_455
Na32 O20 2.414040 1_555
Na32 O23 2.513968 1_555
Na33 O42 2.341426 1_455
Na33 O5 2.388939 1_465
Na33 O10 2.400773 1_555
Na33 O2 2.473167 1_465
Na34 O29 2.466266 1_455
Na34 O35 2.466266 1_544
Na34 O7 2.501749 1_545
Na34 O26 2.501749 1_454
Na35 O26 2.387451 1_455
Na35 O15 2.416581 1_556
Na35 O29 2.432841 1_456
Na35 O8 2.468937 1_455
O0 S3 1.494591 1_555
O1 S8 1.500679 1_555
O2 S6 1.498394 1_555
O3 S8 1.490976 1_555
O4 S5 1.494709 1_565
O5 S5 1.494089 1_555
O6 S9 1.494089 1_555
O7 S8 1.490976 1_555
O8 S1 1.502875 1_555
O9 S7 1.492362 1_555
O10 S8 1.491304 1_555
O11 S7 1.492362 1_555
O12 S10 1.498394 1_555
O13 S6 1.491955 1_555
O14 S11 1.491607 1_555
O15 S11 1.493350 1_555
O16 S0 1.490976 1_555
O17 S3 1.494820 1_555
O18 S2 1.492362 1_555
O19 S5 1.491994 1_555
O20 S9 1.491994 1_555
O21 S6 1.493752 1_555
O22 S9 1.494709 1_545
O23 S7 1.487084 1_555
O24 S9 1.494089 1_555
O25 S4 1.494591 1_555
O26 S0 1.490976 1_555
O27 S10 1.491955 1_555
O28 S2 1.487084 1_555
O29 S6 1.491955 1_555
O30 S4 1.496183 1_555
O31 S4 1.494820 1_555
O32 S7 1.494901 1_555
O33 S11 1.491607 1_555
O34 S1 1.491607 1_555
O35 S10 1.491955 1_555
O36 S2 1.494901 1_555
O37 S5 1.494089 1_555
O38 S3 1.496183 1_555
O39 S0 1.491304 1_555
O40 S11 1.502875 1_555
O41 S10 1.493752 1_555
O42 S2 1.492362 1_555
O43 S1 1.491607 1_555
O44 S4 1.496183 1_555
O45 S1 1.493350 1_555
O46 S0 1.500679 1_555
O47 S3 1.496183 1_555
F0 Na8 2.313182 1_555
F0 Na19 2.336900 1_555
F0 Na35 2.336900 1_555
F0 Na10 2.361516 1_555
F0 Na21 2.414657 1_555
F0 Na3 2.414657 1_555
F1 Na13 2.251462 1_555
F1 Na7 2.345683 1_555
F1 Na31 2.345683 1_555
F1 Na33 2.424392 1_545
F1 Na29 2.424392 1_545
F1 Na22 2.760156 1_555
F2 Na18 2.242347 1_556
F2 Na34 2.242347 1_556
F2 Na13 2.329464 1_556
F2 Na10 2.407783 1_555
F2 Na19 2.457755 1_555
F2 Na35 2.457755 1_555
F3 Na28 2.340946 1_555
F3 Na0 2.355261 1_555
F3 Na4 2.355261 1_555
F3 Na31 2.361367 1_555
F3 Na7 2.361367 1_655
F3 Na17 2.661920 1_555
F4 Na26 2.287914 1_545
F4 Na12 2.324876 1_555
F4 Na23 2.324876 1_555
F4 Na14 2.337885 1_555
F4 Na27 2.337885 1_555
F4 Na20 2.617075 1_555
F5 Na32 2.340946 1_555
F5 Na21 2.355261 1_555
F5 Na3 2.355261 1_555
F5 Na6 2.361367 1_555
F5 Na9 2.361367 1_455
F5 Na8 2.661920 1_555
F6 Na34 2.242347 1_665
F6 Na18 2.242347 1_565
F6 Na5 2.329464 1_554
F6 Na30 2.407783 1_555
F6 Na2 2.457755 1_555
F6 Na11 2.457755 1_555
F7 Na17 2.313182 1_555
F7 Na2 2.336900 1_555
F7 Na11 2.336900 1_555
F7 Na30 2.361516 1_555
F7 Na0 2.414657 1_555
F7 Na4 2.414657 1_555
F8 Na5 2.251462 1_555
F8 Na9 2.345683 1_555
F8 Na6 2.345683 1_555
F8 Na27 2.424392 1_565
F8 Na14 2.424392 1_565
F8 Na26 2.760156 1_555
F9 Na22 2.287914 1_565
F9 Na15 2.324876 1_555
F9 Na24 2.324876 1_555
F9 Na29 2.337885 1_555
F9 Na33 2.337885 1_555
F9 Na1 2.617075 1_555
F10 Na1 2.267508 1_555
F10 Na25 2.371818 1_555
F10 Na16 2.371818 1_555
F10 Na32 2.384770 1_555
F10 Na15 2.486742 1_555
F10 Na24 2.486742 1_555
F11 Na20 2.267508 1_555
F11 Na25 2.371818 1_555
F11 Na16 2.371818 1_655
F11 Na28 2.384770 1_555
F11 Na12 2.486742 1_555
F11 Na23 2.486742 1_555
