# generated using pymatgen
data_Cs4Sn2Te7
_symmetry_space_group_name_H-M   'P 1'
_cell_length_a   9.29380344
_cell_length_b   9.29380344
_cell_length_c   19.45132859
_cell_angle_alpha   75.64878702
_cell_angle_beta   75.64878702
_cell_angle_gamma   50.99223140
_symmetry_Int_Tables_number   1
_chemical_formula_structural   Cs4Sn2Te7
_chemical_formula_sum   'Cs8 Sn4 Te14'
_cell_volume   1255.35297382
_cell_formula_units_Z   2
loop_
 _symmetry_equiv_pos_site_id
 _symmetry_equiv_pos_as_xyz
  1  'x, y, z'
loop_
 _atom_site_type_symbol
 _atom_site_label
 _atom_site_symmetry_multiplicity
 _atom_site_fract_x
 _atom_site_fract_y
 _atom_site_fract_z
 _atom_site_occupancy
  Cs  Cs0  1  0.02970107  0.46044646  0.14733831  1
  Cs  Cs1  1  0.68243731  0.14108560  0.93779223  1
  Cs  Cs2  1  0.85891440  0.31756269  0.56220777  1
  Cs  Cs3  1  0.14108560  0.68243731  0.43779223  1
  Cs  Cs4  1  0.53955354  0.97029893  0.35266169  1
  Cs  Cs5  1  0.31756269  0.85891440  0.06220777  1
  Cs  Cs6  1  0.46044646  0.02970107  0.64733831  1
  Cs  Cs7  1  0.97029893  0.53955354  0.85266169  1
  Sn  Sn0  1  0.22068682  0.68712607  0.65418897  1
  Sn  Sn1  1  0.68712607  0.22068682  0.15418897  1
  Sn  Sn2  1  0.31287393  0.77931318  0.84581103  1
  Sn  Sn3  1  0.77931318  0.31287393  0.34581103  1
  Te  Te0  1  0.19228669  0.63748294  0.96317904  1
  Te  Te1  1  0.40578123  -0.00348772  0.85647593  1
  Te  Te2  1  -0.00348772  0.40578123  0.35647593  1
  Te  Te3  1  0.00348772  0.59421877  0.64352407  1
  Te  Te4  1  0.36251706  0.80771331  0.53682096  1
  Te  Te5  1  0.80771331  0.36251706  0.03682096  1
  Te  Te6  1  0.48810287  0.35988965  0.73654935  1
  Te  Te7  1  0.04265405  0.95734595  0.75000000  1
  Te  Te8  1  0.63748294  0.19228669  0.46317904  1
  Te  Te9  1  0.95734595  0.04265405  0.25000000  1
  Te  Te10  1  0.35988965  0.48810287  0.23654935  1
  Te  Te11  1  0.64011035  0.51189713  0.76345065  1
  Te  Te12  1  0.51189713  0.64011035  0.26345065  1
  Te  Te13  1  0.59421877  0.00348772  0.14352407  1
loop_
_geom_bond_atom_site_label_1
_geom_bond_atom_site_label_2
_geom_bond_distance
_geom_bond_site_symmetry_2
Cs0 Te5 3.903627 1_455
Cs0 Te0 3.917504 1_554
Cs0 Te2 3.930981 1_555
Cs0 Te13 4.013346 1_465
Cs0 Te10 4.043270 1_555
Cs0 Te12 4.173001 1_455
Cs0 Te13 4.181123 1_555
Cs0 Te9 4.277158 1_455
Cs1 Te5 3.923550 1_556
Cs1 Te13 3.934226 1_556
Cs1 Te0 3.979605 1_555
Cs1 Te11 4.085664 1_555
Cs1 Te0 4.086369 1_645
Cs1 Te7 4.159339 1_645
Cs1 Te6 4.201824 1_555
Cs1 Te1 4.282148 1_555
Cs2 Te8 3.923550 1_555
Cs2 Te2 3.934226 1_655
Cs2 Te4 3.979605 1_555
Cs2 Te6 4.085664 1_555
Cs2 Te4 4.086369 1_645
Cs2 Te7 4.159339 1_645
Cs2 Te11 4.201824 1_555
Cs2 Te3 4.282148 1_655
Cs3 Te4 3.923550 1_555
Cs3 Te3 3.934226 1_555
Cs3 Te8 3.979605 1_555
Cs3 Te12 4.085664 1_555
Cs3 Te8 4.086369 1_465
Cs3 Te9 4.159339 1_465
Cs3 Te10 4.201824 1_555
Cs3 Te2 4.282148 1_555
Cs4 Te8 3.903627 1_565
Cs4 Te4 3.917504 1_555
Cs4 Te13 3.930981 1_565
Cs4 Te2 4.013346 1_565
Cs4 Te12 4.043270 1_555
Cs4 Te10 4.173001 1_565
Cs4 Te2 4.181123 1_655
Cs4 Te9 4.277158 1_565
Cs5 Te0 3.923550 1_554
Cs5 Te1 3.934226 1_564
Cs5 Te5 3.979605 1_555
Cs5 Te10 4.085664 1_555
Cs5 Te5 4.086369 1_465
Cs5 Te9 4.159339 1_465
Cs5 Te12 4.201824 1_555
Cs5 Te13 4.282148 1_565
Cs6 Te4 3.903627 1_545
Cs6 Te8 3.917504 1_555
Cs6 Te1 3.930981 1_555
Cs6 Te3 4.013346 1_645
Cs6 Te6 4.043270 1_555
Cs6 Te11 4.173001 1_545
Cs6 Te3 4.181123 1_555
Cs6 Te7 4.277158 1_545
Cs7 Te0 3.903627 1_655
Cs7 Te5 3.917504 1_556
Cs7 Te3 3.930981 1_655
Cs7 Te1 4.013346 1_655
Cs7 Te11 4.043270 1_555
Cs7 Te6 4.173001 1_655
Cs7 Te1 4.181123 1_565
Cs7 Te7 4.277158 1_655
Sn0 Te4 2.702765 1_555
Sn0 Te3 2.711811 1_555
Sn0 Te6 2.834785 1_555
Sn0 Te7 2.842270 1_555
Sn1 Te5 2.702765 1_555
Sn1 Te13 2.711811 1_555
Sn1 Te10 2.834785 1_555
Sn1 Te9 2.842270 1_555
Sn2 Te0 2.702765 1_555
Sn2 Te1 2.711811 1_565
Sn2 Te11 2.834785 1_555
Sn2 Te7 2.842270 1_555
Sn3 Te8 2.702765 1_555
Sn3 Te2 2.711811 1_655
Sn3 Te12 2.834785 1_555
Sn3 Te9 2.842270 1_555
Te10 Te12 2.740573 1_555
Te11 Te6 2.740573 1_555
