# generated using pymatgen
data_Fe3O4
_symmetry_space_group_name_H-M   'P 1'
_cell_length_a   6.04535600
_cell_length_b   6.09708100
_cell_length_c   8.57602600
_cell_angle_alpha   90.00000000
_cell_angle_beta   90.00000000
_cell_angle_gamma   90.00000000
_symmetry_Int_Tables_number   1
_chemical_formula_structural   Fe3O4
_chemical_formula_sum   'Fe12 O16'
_cell_volume   316.10395850
_cell_formula_units_Z   4
loop_
 _symmetry_equiv_pos_site_id
 _symmetry_equiv_pos_as_xyz
  1  'x, y, z'
loop_
 _atom_site_type_symbol
 _atom_site_label
 _atom_site_symmetry_multiplicity
 _atom_site_fract_x
 _atom_site_fract_y
 _atom_site_fract_z
 _atom_site_occupancy
  Fe  Fe0  1  0.00000000  0.75000000  0.12720600  1
  Fe  Fe1  1  0.00000000  0.25000000  0.87279400  1
  Fe  Fe2  1  0.50000000  0.75000000  0.37763300  1
  Fe  Fe3  1  0.50000000  0.25000000  0.62236700  1
  Fe  Fe4  1  0.00000000  0.50000000  0.50000000  1
  Fe  Fe5  1  0.50000000  0.50000000  0.00000000  1
  Fe  Fe6  1  0.50000000  0.00000000  0.00000000  1
  Fe  Fe7  1  0.00000000  0.00000000  0.50000000  1
  Fe  Fe8  1  0.74179400  0.25000000  0.24618000  1
  Fe  Fe9  1  0.74179400  0.75000000  0.75382000  1
  Fe  Fe10  1  0.25820600  0.75000000  0.75382000  1
  Fe  Fe11  1  0.25820600  0.25000000  0.24618000  1
  O  O0  1  0.00000000  0.99054500  0.73735400  1
  O  O1  1  0.00000000  0.00945500  0.26264600  1
  O  O2  1  0.00000000  0.49054500  0.26264600  1
  O  O3  1  0.00000000  0.50945500  0.73735400  1
  O  O4  1  0.50000000  0.99049000  0.74582100  1
  O  O5  1  0.50000000  0.00951000  0.25417900  1
  O  O6  1  0.50000000  0.49049000  0.25417900  1
  O  O7  1  0.50000000  0.50951000  0.74582100  1
  O  O8  1  0.77009600  0.25000000  0.49299900  1
  O  O9  1  0.77009600  0.75000000  0.50700100  1
  O  O10  1  0.22990400  0.75000000  0.50700100  1
  O  O11  1  0.22990400  0.25000000  0.49299900  1
  O  O12  1  0.74783100  0.25000000  0.00832500  1
  O  O13  1  0.74783100  0.75000000  0.99167500  1
  O  O14  1  0.25216900  0.75000000  0.99167500  1
  O  O15  1  0.25216900  0.25000000  0.00832500  1
loop_
_geom_bond_atom_site_label_1
_geom_bond_atom_site_label_2
_geom_bond_distance
_geom_bond_site_symmetry_2
Fe0 O14 1.917012 1_554
Fe0 O13 1.917012 1_454
Fe0 O1 1.962558 1_565
Fe0 O2 1.962558 1_555
Fe1 O15 1.917012 1_556
Fe1 O12 1.917012 1_456
Fe1 O0 1.962558 1_545
Fe1 O3 1.962558 1_555
Fe2 O5 1.903803 1_565
Fe2 O6 1.903803 1_555
Fe2 O10 1.974090 1_555
Fe2 O9 1.974090 1_555
Fe3 O4 1.903803 1_545
Fe3 O7 1.903803 1_555
Fe3 O11 1.974090 1_555
Fe3 O8 1.974090 1_555
Fe4 O3 2.036370 1_555
Fe4 O2 2.036370 1_555
Fe4 O9 2.063660 1_455
Fe4 O10 2.063660 1_555
Fe4 O8 2.063660 1_455
Fe4 O11 2.063660 1_555
Fe5 O12 2.138500 1_555
Fe5 O13 2.138500 1_554
Fe5 O15 2.138500 1_555
Fe5 O14 2.138500 1_554
Fe5 O6 2.180617 1_555
Fe5 O7 2.180617 1_554
Fe6 O12 2.138500 1_555
Fe6 O13 2.138500 1_544
Fe6 O15 2.138500 1_555
Fe6 O14 2.138500 1_544
Fe6 O5 2.180617 1_555
Fe6 O4 2.180617 1_544
Fe7 O0 2.036370 1_545
Fe7 O1 2.036370 1_555
Fe7 O10 2.063660 1_545
Fe7 O9 2.063660 1_445
Fe7 O8 2.063660 1_455
Fe7 O11 2.063660 1_555
Fe8 O12 2.040177 1_555
Fe8 O5 2.071560 1_555
Fe8 O6 2.071560 1_555
Fe8 O8 2.123630 1_555
Fe8 O2 2.146504 1_655
Fe8 O1 2.146504 1_655
Fe9 O13 2.040177 1_555
Fe9 O7 2.071560 1_555
Fe9 O4 2.071560 1_555
Fe9 O9 2.123630 1_555
Fe9 O3 2.146504 1_655
Fe9 O0 2.146504 1_655
Fe10 O14 2.040177 1_555
Fe10 O7 2.071560 1_555
Fe10 O4 2.071560 1_555
Fe10 O10 2.123630 1_555
Fe10 O3 2.146504 1_555
Fe10 O0 2.146504 1_555
Fe11 O15 2.040177 1_555
Fe11 O6 2.071560 1_555
Fe11 O5 2.071560 1_555
Fe11 O11 2.123630 1_555
Fe11 O2 2.146504 1_555
Fe11 O1 2.146504 1_555
