# generated using pymatgen
data_Ce2Co7B3
_symmetry_space_group_name_H-M   'P 1'
_cell_length_a   5.02194753
_cell_length_b   5.02194753
_cell_length_c   12.89092400
_cell_angle_alpha   90.00000000
_cell_angle_beta   90.00000000
_cell_angle_gamma   119.99999379
_symmetry_Int_Tables_number   1
_chemical_formula_structural   Ce2Co7B3
_chemical_formula_sum   'Ce4 Co14 B6'
_cell_volume   281.55227978
_cell_formula_units_Z   2
loop_
 _symmetry_equiv_pos_site_id
 _symmetry_equiv_pos_as_xyz
  1  'x, y, z'
loop_
 _atom_site_type_symbol
 _atom_site_label
 _atom_site_symmetry_multiplicity
 _atom_site_fract_x
 _atom_site_fract_y
 _atom_site_fract_z
 _atom_site_occupancy
  Ce  Ce0  1  0.00000000  0.00000000  0.00000000  1
  Ce  Ce1  1  0.00000000  0.00000000  0.50000000  1
  Ce  Ce2  1  0.00000000  0.00000000  0.25753200  1
  Ce  Ce3  1  0.00000000  0.00000000  0.74246800  1
  Co  Co0  1  0.33333300  0.66666700  0.00000000  1
  Co  Co1  1  0.66666700  0.33333300  0.00000000  1
  Co  Co2  1  0.50000000  0.00000000  0.15659900  1
  Co  Co3  1  0.50000000  0.50000000  0.15659900  1
  Co  Co4  1  0.00000000  0.50000000  0.15659900  1
  Co  Co5  1  0.50000000  0.00000000  0.84340100  1
  Co  Co6  1  0.50000000  0.50000000  0.84340100  1
  Co  Co7  1  0.00000000  0.50000000  0.84340100  1
  Co  Co8  1  0.50000000  0.00000000  0.38386000  1
  Co  Co9  1  0.50000000  0.50000000  0.38386000  1
  Co  Co10  1  0.00000000  0.50000000  0.38386000  1
  Co  Co11  1  0.50000000  0.00000000  0.61614000  1
  Co  Co12  1  0.50000000  0.50000000  0.61614000  1
  Co  Co13  1  0.00000000  0.50000000  0.61614000  1
  B  B0  1  0.33333300  0.66666700  0.50000000  1
  B  B1  1  0.66666700  0.33333300  0.50000000  1
  B  B2  1  0.33333300  0.66666700  0.26853500  1
  B  B3  1  0.66666700  0.33333300  0.26853500  1
  B  B4  1  0.66666700  0.33333300  0.73146500  1
  B  B5  1  0.33333300  0.66666700  0.73146500  1
loop_
_geom_bond_atom_site_label_1
_geom_bond_atom_site_label_2
_geom_bond_distance
_geom_bond_site_symmetry_2
Ce0 Co0 2.899420 1_545
Ce0 Co1 2.899420 1_455
Ce0 Co0 2.899424 1_555
Ce0 Co1 2.899424 1_445
Ce0 Co1 2.899424 1_555
Ce0 Co0 2.899424 1_445
Ce1 Co10 2.923432 1_555
Ce1 Co13 2.923432 1_545
Ce1 Co13 2.923432 1_555
Ce1 Co8 2.923432 1_455
Ce1 Co11 2.923432 1_455
Ce1 Co11 2.923432 1_555
Ce1 Co8 2.923432 1_555
Ce1 Co10 2.923432 1_545
Ce1 Co12 2.923432 1_555
Ce1 Co9 2.923432 1_555
Ce1 Co9 2.923432 1_445
Ce1 Co12 2.923432 1_445
Ce2 Co2 2.828056 1_455
Ce2 Co4 2.828056 1_555
Ce2 Co2 2.828056 1_555
Ce2 Co4 2.828056 1_545
Ce2 Co3 2.828056 1_445
Ce2 Co3 2.828056 1_555
Ce2 Co10 2.992817 1_555
Ce2 Co8 2.992817 1_455
Ce2 Co10 2.992817 1_545
Ce2 Co8 2.992817 1_555
Ce2 Co9 2.992817 1_555
Ce2 Co9 2.992817 1_445
Ce3 Co5 2.828056 1_455
Ce3 Co5 2.828056 1_555
Ce3 Co7 2.828056 1_545
Ce3 Co7 2.828056 1_555
Ce3 Co6 2.828056 1_555
Ce3 Co6 2.828056 1_445
Ce3 Co13 2.992817 1_545
Ce3 Co11 2.992817 1_455
Ce3 Co13 2.992817 1_555
Ce3 Co11 2.992817 1_555
Ce3 Co12 2.992817 1_555
Ce3 Co12 2.992817 1_445
Co0 Co4 2.485323 1_555
Co0 Co2 2.485323 1_565
Co0 Co5 2.485323 1_564
Co0 Co7 2.485323 1_554
Co0 Co6 2.485326 1_554
Co0 Co3 2.485326 1_555
Co1 Co2 2.485323 1_555
Co1 Co4 2.485323 1_655
Co1 Co7 2.485323 1_654
Co1 Co5 2.485323 1_554
Co1 Co6 2.485326 1_554
Co1 Co3 2.485326 1_555
B0 Co8 2.084016 1_565
B0 Co10 2.084016 1_555
B0 Co13 2.084016 1_555
B0 Co11 2.084016 1_565
B0 Co12 2.084019 1_555
B0 Co9 2.084019 1_555
B0 Ce1 2.899420 1_565
B0 Ce1 2.899424 1_555
B0 Ce1 2.899424 1_665
B1 Co11 2.084016 1_555
B1 Co13 2.084016 1_655
B1 Co8 2.084016 1_555
B1 Co10 2.084016 1_655
B1 Co12 2.084019 1_555
B1 Co9 2.084019 1_555
B1 Ce1 2.899420 1_655
B1 Ce1 2.899424 1_665
B1 Ce1 2.899424 1_555
B2 Co4 2.045431 1_555
B2 Co2 2.045431 1_565
B2 Co3 2.045434 1_555
B2 Co8 2.076481 1_565
B2 Co10 2.076481 1_555
B2 Co9 2.076484 1_555
B2 Ce2 2.902887 1_565
B2 Ce2 2.902892 1_555
B2 Ce2 2.902892 1_665
B3 Co2 2.045431 1_555
B3 Co4 2.045431 1_655
B3 Co3 2.045434 1_555
B3 Co10 2.076481 1_655
B3 Co8 2.076481 1_555
B3 Co9 2.076484 1_555
B3 Ce2 2.902887 1_655
B3 Ce2 2.902892 1_665
B3 Ce2 2.902892 1_555
B4 Co5 2.045431 1_555
B4 Co7 2.045431 1_655
B4 Co6 2.045434 1_555
B4 Co13 2.076481 1_655
B4 Co11 2.076481 1_555
B4 Co12 2.076484 1_555
B4 Ce3 2.902887 1_655
B4 Ce3 2.902892 1_665
B4 Ce3 2.902892 1_555
B5 Co7 2.045431 1_555
B5 Co5 2.045431 1_565
B5 Co6 2.045434 1_555
B5 Co13 2.076481 1_555
B5 Co11 2.076481 1_565
B5 Co12 2.076484 1_555
B5 Ce3 2.902887 1_565
B5 Ce3 2.902892 1_555
B5 Ce3 2.902892 1_665
