# generated using pymatgen
data_Ga2S5N5Cl7
_symmetry_space_group_name_H-M   'P 1'
_cell_length_a   13.69674100
_cell_length_b   8.81212600
_cell_length_c   18.91516592
_cell_angle_alpha   66.99448841
_cell_angle_beta   90.00000000
_cell_angle_gamma   90.00000000
_symmetry_Int_Tables_number   1
_chemical_formula_structural   Ga2S5N5Cl7
_chemical_formula_sum   'Ga8 S20 N20 Cl28'
_cell_volume   2101.43733590
_cell_formula_units_Z   4
loop_
 _symmetry_equiv_pos_site_id
 _symmetry_equiv_pos_as_xyz
  1  'x, y, z'
loop_
 _atom_site_type_symbol
 _atom_site_label
 _atom_site_symmetry_multiplicity
 _atom_site_fract_x
 _atom_site_fract_y
 _atom_site_fract_z
 _atom_site_occupancy
  Ga  Ga0  1  0.31614900  0.93931900  0.13868700  1
  Ga  Ga1  1  0.74593900  0.22592800  0.01799900  1
  Ga  Ga2  1  0.18385100  0.93931900  0.63868700  1
  Ga  Ga3  1  0.81614900  0.06068100  0.36131300  1
  Ga  Ga4  1  0.25406100  0.77407200  0.98200100  1
  Ga  Ga5  1  0.75406100  0.22592800  0.51799900  1
  Ga  Ga6  1  0.24593900  0.77407200  0.48200100  1
  Ga  Ga7  1  0.68385100  0.06068100  0.86131300  1
  S  S0  1  0.99522900  0.35635700  0.12959500  1
  S  S1  1  0.06202800  0.57379900  0.31720200  1
  S  S2  1  0.61339400  0.69145900  0.23275400  1
  S  S3  1  0.11339400  0.30854100  0.26724600  1
  S  S4  1  0.88660600  0.69145900  0.73275400  1
  S  S5  1  0.08378600  0.22193700  0.80020500  1
  S  S6  1  0.56202800  0.42620100  0.18279800  1
  S  S7  1  0.85583800  0.64845400  0.07698400  1
  S  S8  1  0.91621400  0.77806300  0.19979500  1
  S  S9  1  0.49522900  0.64364300  0.37040500  1
  S  S10  1  0.41621400  0.22193700  0.30020500  1
  S  S11  1  0.58378600  0.77806300  0.69979500  1
  S  S12  1  0.14416200  0.35154600  0.92301600  1
  S  S13  1  0.00477100  0.64364300  0.87040500  1
  S  S14  1  0.50477100  0.35635700  0.62959500  1
  S  S15  1  0.43797200  0.57379900  0.81720200  1
  S  S16  1  0.38660600  0.30854100  0.76724600  1
  S  S17  1  0.35583800  0.35154600  0.42301600  1
  S  S18  1  0.64416200  0.64845400  0.57698400  1
  S  S19  1  0.93797200  0.42620100  0.68279800  1
  N  N0  1  0.61460000  0.58877700  0.18021600  1
  N  N1  1  0.12919300  0.25612100  0.86904400  1
  N  N2  1  0.00778900  0.35384400  0.75302500  1
  N  N3  1  0.11460000  0.41122300  0.31978400  1
  N  N4  1  0.41498500  0.51196500  0.41302300  1
  N  N5  1  0.62919300  0.74387900  0.63095600  1
  N  N6  1  0.08501500  0.51196500  0.91302300  1
  N  N7  1  0.38540000  0.41122300  0.81978400  1
  N  N8  1  0.45927200  0.38791700  0.69853600  1
  N  N9  1  0.95927200  0.61208300  0.80146400  1
  N  N10  1  0.04072800  0.38791700  0.19853600  1
  N  N11  1  0.91498500  0.48803500  0.08697700  1
  N  N12  1  0.37080700  0.25612100  0.36904400  1
  N  N13  1  0.49221100  0.35384400  0.25302500  1
  N  N14  1  0.50778900  0.64615600  0.74697500  1
  N  N15  1  0.88540000  0.58877700  0.68021600  1
  N  N16  1  0.58501500  0.48803500  0.58697700  1
  N  N17  1  0.87080700  0.74387900  0.13095600  1
  N  N18  1  0.54072800  0.61208300  0.30146400  1
  N  N19  1  0.99221100  0.64615600  0.24697500  1
  Cl  Cl0  1  0.17507600  0.53664400  0.53426300  1
  Cl  Cl1  1  0.82492400  0.46335600  0.46573700  1
  Cl  Cl2  1  0.89139100  0.20890300  0.97576000  1
  Cl  Cl3  1  0.69436100  0.32421400  0.79449300  1
  Cl  Cl4  1  0.65251900  0.03330200  0.98763000  1
  Cl  Cl5  1  0.26301100  0.87829200  0.85717800  1
  Cl  Cl6  1  0.67507600  0.46335600  0.96573700  1
  Cl  Cl7  1  0.81785400  0.92745800  0.86293000  1
  Cl  Cl8  1  0.94754200  0.95017100  0.33661500  1
  Cl  Cl9  1  0.39139100  0.79109700  0.52424000  1
  Cl  Cl10  1  0.31785400  0.07254200  0.63707000  1
  Cl  Cl11  1  0.05245800  0.04982900  0.66338500  1
  Cl  Cl12  1  0.23698900  0.87829200  0.35717800  1
  Cl  Cl13  1  0.76301100  0.12170800  0.64282200  1
  Cl  Cl14  1  0.84748100  0.03330200  0.48763000  1
  Cl  Cl15  1  0.34748100  0.96669800  0.01237000  1
  Cl  Cl16  1  0.18214600  0.07254200  0.13707000  1
  Cl  Cl17  1  0.30563900  0.67578600  0.20550700  1
  Cl  Cl18  1  0.10860900  0.79109700  0.02424000  1
  Cl  Cl19  1  0.73698900  0.12170800  0.14282200  1
  Cl  Cl20  1  0.80563900  0.32421400  0.29449300  1
  Cl  Cl21  1  0.68214600  0.92745800  0.36293000  1
  Cl  Cl22  1  0.55245800  0.95017100  0.83661500  1
  Cl  Cl23  1  0.19436100  0.67578600  0.70550700  1
  Cl  Cl24  1  0.44754200  0.04982900  0.16338500  1
  Cl  Cl25  1  0.60860900  0.20890300  0.47576000  1
  Cl  Cl26  1  0.15251900  0.96669800  0.51237000  1
  Cl  Cl27  1  0.32492400  0.53664400  0.03426300  1
loop_
_geom_bond_atom_site_label_1
_geom_bond_atom_site_label_2
_geom_bond_distance
_geom_bond_site_symmetry_2
N0 S2 1.584122 1_555
N0 S6 1.587024 1_555
N1 S12 1.569193 1_555
N1 S5 1.574672 1_555
N2 S5 1.555705 1_555
N2 S19 1.556757 1_455
N3 S3 1.584122 1_555
N3 S1 1.587024 1_555
N4 S9 1.572615 1_555
N4 S17 1.575285 1_555
N5 S18 1.569193 1_555
N5 S11 1.574672 1_555
N6 S13 1.572615 1_555
N6 S12 1.575285 1_555
N7 S16 1.584122 1_555
N7 S15 1.587024 1_555
N8 S14 1.565145 1_555
N8 S16 1.567931 1_555
N9 S13 1.565145 1_655
N9 S4 1.567931 1_555
N10 S0 1.565145 1_455
N10 S3 1.567931 1_555
N11 S0 1.572615 1_555
N11 S7 1.575285 1_555
N12 S17 1.569193 1_555
N12 S10 1.574672 1_555
N13 S10 1.555705 1_555
N13 S6 1.556757 1_555
N14 S11 1.555705 1_555
N14 S15 1.556757 1_555
N15 S4 1.584122 1_555
N15 S19 1.587024 1_555
N16 S14 1.572615 1_555
N16 S18 1.575285 1_555
N17 S7 1.569193 1_555
N17 S8 1.574672 1_555
N18 S9 1.565145 1_555
N18 S2 1.567931 1_555
N19 S8 1.555705 1_555
N19 S1 1.556757 1_655
Cl0 Ga6 2.163357 1_555
Cl1 Ga5 2.163357 1_555
Cl2 Ga1 2.173354 1_556
Cl3 Ga7 2.171858 1_555
Cl4 Ga7 2.345331 1_555
Cl4 Ga1 2.368690 1_556
Cl5 Ga4 2.176726 1_555
Cl6 Ga1 2.163357 1_556
Cl7 Ga7 2.172511 1_565
Cl8 Ga3 2.181959 1_565
Cl9 Ga6 2.173354 1_555
Cl10 Ga2 2.172511 1_545
Cl11 Ga2 2.181959 1_545
Cl12 Ga6 2.176726 1_555
Cl13 Ga5 2.176726 1_555
Cl14 Ga3 2.345331 1_555
Cl14 Ga5 2.368690 1_555
Cl15 Ga0 2.345331 1_555
Cl15 Ga4 2.368690 1_554
Cl16 Ga0 2.172511 1_545
Cl17 Ga0 2.171858 1_555
Cl18 Ga4 2.173354 1_554
Cl19 Ga1 2.176726 1_555
Cl20 Ga3 2.171858 1_555
Cl21 Ga3 2.172511 1_565
Cl22 Ga7 2.181959 1_565
Cl23 Ga2 2.171858 1_555
Cl24 Ga0 2.181959 1_545
Cl25 Ga5 2.173354 1_555
Cl26 Ga2 2.345331 1_555
Cl26 Ga6 2.368690 1_555
Cl27 Ga4 2.163357 1_554
