# generated using pymatgen
data_V2Hg2O7
_symmetry_space_group_name_H-M   'P 1'
_cell_length_a   3.61536336
_cell_length_b   7.19112210
_cell_length_c   21.76713486
_cell_angle_alpha   90.00000000
_cell_angle_beta   90.00000000
_cell_angle_gamma   90.00000000
_symmetry_Int_Tables_number   1
_chemical_formula_structural   V2Hg2O7
_chemical_formula_sum   'V8 Hg8 O28'
_cell_volume   565.91327702
_cell_formula_units_Z   4
loop_
 _symmetry_equiv_pos_site_id
 _symmetry_equiv_pos_as_xyz
  1  'x, y, z'
loop_
 _atom_site_type_symbol
 _atom_site_label
 _atom_site_symmetry_multiplicity
 _atom_site_fract_x
 _atom_site_fract_y
 _atom_site_fract_z
 _atom_site_occupancy
  V  V0  1  0.75000000  0.02291733  0.88137432  1
  V  V1  1  0.75000000  0.52291733  0.61862568  1
  V  V2  1  0.25000000  0.97708267  0.11862568  1
  V  V3  1  0.25000000  0.47708267  0.38137432  1
  V  V4  1  0.25000000  0.20261541  0.98010850  1
  V  V5  1  0.25000000  0.70261541  0.51989150  1
  V  V6  1  0.75000000  0.79738459  0.01989150  1
  V  V7  1  0.75000000  0.29738459  0.48010850  1
  Hg  Hg0  1  0.25000000  0.27149453  0.75293846  1
  Hg  Hg1  1  0.25000000  0.77149453  0.74706154  1
  Hg  Hg2  1  0.75000000  0.72850547  0.24706154  1
  Hg  Hg3  1  0.75000000  0.22850547  0.25293846  1
  Hg  Hg4  1  0.25000000  0.46687715  0.12756693  1
  Hg  Hg5  1  0.25000000  0.96687715  0.37243307  1
  Hg  Hg6  1  0.75000000  0.53312285  0.87243307  1
  Hg  Hg7  1  0.75000000  0.03312285  0.62756693  1
  O  O0  1  0.25000000  0.52748023  0.79970433  1
  O  O1  1  0.25000000  0.02748023  0.70029567  1
  O  O2  1  0.75000000  0.47251977  0.20029567  1
  O  O3  1  0.75000000  0.97251977  0.29970433  1
  O  O4  1  0.75000000  0.85962667  0.82639278  1
  O  O5  1  0.75000000  0.35962667  0.67360722  1
  O  O6  1  0.25000000  0.14037333  0.17360722  1
  O  O7  1  0.25000000  0.64037333  0.32639278  1
  O  O8  1  0.75000000  0.22403800  0.84071666  1
  O  O9  1  0.75000000  0.72403800  0.65928334  1
  O  O10  1  0.25000000  0.77596200  0.15928334  1
  O  O11  1  0.25000000  0.27596200  0.34071666  1
  O  O12  1  0.75000000  0.12514237  0.97131548  1
  O  O13  1  0.75000000  0.62514237  0.52868452  1
  O  O14  1  0.25000000  0.87485763  0.02868452  1
  O  O15  1  0.25000000  0.37485763  0.47131548  1
  O  O16  1  0.25000000  0.02884685  0.90561619  1
  O  O17  1  0.25000000  0.52884685  0.59438381  1
  O  O18  1  0.75000000  0.97115315  0.09438381  1
  O  O19  1  0.75000000  0.47115315  0.40561619  1
  O  O20  1  0.25000000  0.40621229  0.94561552  1
  O  O21  1  0.25000000  0.90621229  0.55438448  1
  O  O22  1  0.75000000  0.59378771  0.05438448  1
  O  O23  1  0.75000000  0.09378771  0.44561552  1
  O  O24  1  0.25000000  0.23994009  0.05747469  1
  O  O25  1  0.25000000  0.73994009  0.44252531  1
  O  O26  1  0.75000000  0.76005991  0.94252531  1
  O  O27  1  0.75000000  0.26005991  0.55747469  1
loop_
_geom_bond_atom_site_label_1
_geom_bond_atom_site_label_2
_geom_bond_distance
_geom_bond_site_symmetry_2
Hg0 O1 2.095745 1_555
Hg0 O0 2.103539 1_555
Hg0 O5 2.579004 1_455
Hg0 O5 2.579004 1_555
Hg0 O8 2.652334 1_455
Hg0 O8 2.652334 1_555
Hg1 O0 2.095745 1_555
Hg1 O1 2.103539 1_565
Hg1 O4 2.579004 1_555
Hg1 O4 2.579004 1_455
Hg1 O9 2.652334 1_455
Hg1 O9 2.652334 1_555
Hg2 O3 2.095745 1_555
Hg2 O2 2.103539 1_555
Hg2 O7 2.579004 1_655
Hg2 O7 2.579004 1_555
Hg2 O10 2.652334 1_555
Hg2 O10 2.652334 1_655
Hg3 O2 2.095745 1_555
Hg3 O3 2.103539 1_545
Hg3 O6 2.579004 1_555
Hg3 O6 2.579004 1_655
Hg3 O11 2.652334 1_555
Hg3 O11 2.652334 1_655
Hg4 O24 2.234051 1_555
Hg4 O10 2.327416 1_555
Hg4 O2 2.403238 1_555
Hg4 O2 2.403238 1_455
Hg4 O6 2.552862 1_555
Hg4 O22 2.576464 1_455
Hg4 O22 2.576464 1_555
Hg5 O25 2.234051 1_555
Hg5 O11 2.327416 1_565
Hg5 O3 2.403238 1_455
Hg5 O3 2.403238 1_555
Hg5 O7 2.552862 1_555
Hg5 O23 2.576464 1_565
Hg5 O23 2.576464 1_465
Hg6 O26 2.234051 1_555
Hg6 O8 2.327416 1_555
Hg6 O0 2.403238 1_655
Hg6 O0 2.403238 1_555
Hg6 O4 2.552862 1_555
Hg6 O20 2.576464 1_655
Hg6 O20 2.576464 1_555
Hg7 O27 2.234051 1_555
Hg7 O9 2.327416 1_545
Hg7 O1 2.403238 1_655
Hg7 O1 2.403238 1_555
Hg7 O5 2.552862 1_555
Hg7 O21 2.576464 1_645
Hg7 O21 2.576464 1_545
O4 V0 1.676650 1_565
O5 V1 1.676650 1_555
O6 V2 1.676650 1_545
O7 V3 1.676650 1_555
O8 V0 1.695571 1_555
O9 V1 1.695571 1_555
O10 V2 1.695571 1_555
O11 V3 1.695571 1_555
O12 V4 1.901244 1_555
O12 V4 1.901244 1_655
O12 V0 2.091225 1_555
O13 V5 1.901244 1_655
O13 V5 1.901244 1_555
O13 V1 2.091225 1_555
O14 V6 1.901244 1_555
O14 V6 1.901244 1_455
O14 V2 2.091225 1_555
O15 V7 1.901244 1_555
O15 V7 1.901244 1_455
O15 V3 2.091225 1_555
O16 V0 1.883606 1_555
O16 V0 1.883606 1_455
O16 V4 2.047117 1_555
O17 V1 1.883606 1_455
O17 V1 1.883606 1_555
O17 V5 2.047117 1_555
O18 V2 1.883606 1_555
O18 V2 1.883606 1_655
O18 V6 2.047117 1_555
O19 V3 1.883606 1_555
O19 V3 1.883606 1_655
O19 V7 2.047117 1_555
O20 V4 1.645381 1_555
O21 V5 1.645381 1_555
O22 V6 1.645381 1_555
O23 V7 1.645381 1_555
O24 V4 1.705296 1_554
O24 V2 2.311879 1_545
O25 V5 1.705296 1_555
O25 V3 2.311879 1_555
O26 V6 1.705296 1_556
O26 V0 2.311879 1_565
O27 V7 1.705296 1_555
O27 V1 2.311879 1_555
