# generated using pymatgen
data_Ta24Cu13O72
_symmetry_space_group_name_H-M   'P 1'
_cell_length_a   7.59553700
_cell_length_b   10.75290300
_cell_length_c   16.96898890
_cell_angle_alpha   71.84521840
_cell_angle_beta   90.00000000
_cell_angle_gamma   90.00000000
_symmetry_Int_Tables_number   1
_chemical_formula_structural   Ta24Cu13O72
_chemical_formula_sum   'Ta24 Cu13 O72'
_cell_volume   1316.93259330
_cell_formula_units_Z   1
loop_
 _symmetry_equiv_pos_site_id
 _symmetry_equiv_pos_as_xyz
  1  'x, y, z'
loop_
 _atom_site_type_symbol
 _atom_site_label
 _atom_site_symmetry_multiplicity
 _atom_site_fract_x
 _atom_site_fract_y
 _atom_site_fract_z
 _atom_site_occupancy
  Ta  Ta0  1  0.25149400  0.08381800  0.33088500  1
  Ta  Ta1  1  0.25401800  0.41595100  0.66707800  1
  Ta  Ta2  1  0.25521000  0.74969300  0.99946200  1
  Ta  Ta3  1  0.25494500  0.41603200  0.16561000  1
  Ta  Ta4  1  0.25436600  0.91652600  0.16645700  1
  Ta  Ta5  1  0.25144200  0.74703000  0.49941700  1
  Ta  Ta6  1  0.25144200  0.25297000  0.50058300  1
  Ta  Ta7  1  0.25436600  0.08347400  0.83354300  1
  Ta  Ta8  1  0.25494500  0.58396800  0.83439000  1
  Ta  Ta9  1  0.25521000  0.25030700  0.00053800  1
  Ta  Ta10  1  0.25401800  0.58404900  0.33292200  1
  Ta  Ta11  1  0.25149400  0.91618200  0.66911500  1
  Ta  Ta12  1  0.74850600  0.08381800  0.33088500  1
  Ta  Ta13  1  0.74598200  0.41595100  0.66707800  1
  Ta  Ta14  1  0.74479000  0.74969300  0.99946200  1
  Ta  Ta15  1  0.74505500  0.41603200  0.16561000  1
  Ta  Ta16  1  0.74563400  0.91652600  0.16645700  1
  Ta  Ta17  1  0.74855800  0.74703000  0.49941700  1
  Ta  Ta18  1  0.74563400  0.08347400  0.83354300  1
  Ta  Ta19  1  0.74855800  0.25297000  0.50058300  1
  Ta  Ta20  1  0.74505500  0.58396800  0.83439000  1
  Ta  Ta21  1  0.74479000  0.25030700  0.00053800  1
  Ta  Ta22  1  0.74598200  0.58404900  0.33292200  1
  Ta  Ta23  1  0.74850600  0.91618200  0.66911500  1
  Cu  Cu0  1  0.00000000  0.16759500  0.16543100  1
  Cu  Cu1  1  0.00000000  0.50000000  0.50000000  1
  Cu  Cu2  1  0.00000000  0.66592500  0.16674200  1
  Cu  Cu3  1  0.00000000  0.83240500  0.83456900  1
  Cu  Cu4  1  0.00000000  0.00000000  0.50000000  1
  Cu  Cu5  1  0.00000000  0.33407500  0.83325800  1
  Cu  Cu6  1  0.50000000  0.00000000  0.00000000  1
  Cu  Cu7  1  0.50000000  0.33410300  0.33310800  1
  Cu  Cu8  1  0.50000000  0.66589700  0.66689200  1
  Cu  Cu9  1  0.50000000  0.00000000  0.50000000  1
  Cu  Cu10  1  0.00000000  0.50000000  0.00000000  1
  Cu  Cu11  1  0.00000000  0.83341900  0.33308500  1
  Cu  Cu12  1  0.00000000  0.16658100  0.66691500  1
  O  O0  1  0.00000000  0.22212400  0.04170700  1
  O  O1  1  0.00000000  0.35012500  0.17183000  1
  O  O2  1  0.00000000  0.68598900  0.50546600  1
  O  O3  1  0.00000000  0.88797400  0.70849100  1
  O  O4  1  0.00000000  0.01652600  0.83688300  1
  O  O5  1  0.00000000  0.77787600  0.95829300  1
  O  O6  1  0.18222700  0.54011100  0.23022600  1
  O  O7  1  0.18197900  0.79248400  0.10422200  1
  O  O8  1  0.18249300  0.87489900  0.56266500  1
  O  O9  1  0.18249300  0.12510100  0.43733500  1
  O  O10  1  0.18197900  0.20751600  0.89577800  1
  O  O11  1  0.18222700  0.45988900  0.76977400  1
  O  O12  1  0.18685700  0.56244300  0.06288300  1
  O  O13  1  0.18701000  0.77048200  0.27093300  1
  O  O14  1  0.18634600  0.89615100  0.39615100  1
  O  O15  1  0.18634600  0.10384900  0.60384900  1
  O  O16  1  0.18701000  0.22951800  0.72906700  1
  O  O17  1  0.18685700  0.43755700  0.93711700  1
  O  O18  1  0.29940600  0.30439700  0.09764400  1
  O  O19  1  0.30139100  0.63913000  0.43130700  1
  O  O20  1  0.30181100  0.97169000  0.76341300  1
  O  O21  1  0.30181100  0.02831000  0.23658700  1
  O  O22  1  0.30139100  0.36087000  0.56869300  1
  O  O23  1  0.29940600  0.69560300  0.90235600  1
  O  O24  1  0.30576200  0.06038700  0.06064500  1
  O  O25  1  0.30782000  0.27123800  0.27299400  1
  O  O26  1  0.30751800  0.39358000  0.39485900  1
  O  O27  1  0.30751800  0.60642000  0.60514100  1
  O  O28  1  0.30782000  0.72876200  0.72700600  1
  O  O29  1  0.30576200  0.93961300  0.93935500  1
  O  O30  1  0.50000000  0.72891300  0.03353200  1
  O  O31  1  0.50000000  0.60436800  0.30123400  1
  O  O32  1  0.50000000  0.05810500  0.37561000  1
  O  O33  1  0.50000000  0.46733400  0.16420800  1
  O  O34  1  0.50000000  0.86623700  0.17044700  1
  O  O35  1  0.50000000  0.81478400  0.49745500  1
  O  O36  1  0.50000000  0.18521600  0.50254500  1
  O  O37  1  0.50000000  0.94189500  0.62439000  1
  O  O38  1  0.50000000  0.39563200  0.69876600  1
  O  O39  1  0.50000000  0.13376300  0.82955300  1
  O  O40  1  0.50000000  0.27108700  0.96646800  1
  O  O41  1  0.50000000  0.53266600  0.83579200  1
  O  O42  1  0.69423800  0.06038700  0.06064500  1
  O  O43  1  0.69218000  0.27123800  0.27299400  1
  O  O44  1  0.69248200  0.39358000  0.39485900  1
  O  O45  1  0.69248200  0.60642000  0.60514100  1
  O  O46  1  0.69218000  0.72876200  0.72700600  1
  O  O47  1  0.69423800  0.93961300  0.93935500  1
  O  O48  1  0.70059400  0.30439700  0.09764400  1
  O  O49  1  0.69860900  0.63913000  0.43130700  1
  O  O50  1  0.69818900  0.02831000  0.23658700  1
  O  O51  1  0.69818900  0.97169000  0.76341300  1
  O  O52  1  0.69860900  0.36087000  0.56869300  1
  O  O53  1  0.70059400  0.69560300  0.90235600  1
  O  O54  1  0.81314300  0.56244300  0.06288300  1
  O  O55  1  0.81299000  0.77048200  0.27093300  1
  O  O56  1  0.81365400  0.89615100  0.39615100  1
  O  O57  1  0.81365400  0.10384900  0.60384900  1
  O  O58  1  0.81299000  0.22951800  0.72906700  1
  O  O59  1  0.81314300  0.43755700  0.93711700  1
  O  O60  1  0.81777300  0.54011100  0.23022600  1
  O  O61  1  0.81802100  0.79248400  0.10422200  1
  O  O62  1  0.81750700  0.87489900  0.56266500  1
  O  O63  1  0.81802100  0.20751600  0.89577800  1
  O  O64  1  0.81750700  0.12510100  0.43733500  1
  O  O65  1  0.81777300  0.45988900  0.76977400  1
  O  O66  1  0.00000000  0.55550900  0.37657900  1
  O  O67  1  0.00000000  0.98347400  0.16311700  1
  O  O68  1  0.00000000  0.11202600  0.29150900  1
  O  O69  1  0.00000000  0.31401100  0.49453400  1
  O  O70  1  0.00000000  0.44449100  0.62342100  1
  O  O71  1  0.00000000  0.64987500  0.82817000  1
loop_
_geom_bond_atom_site_label_1
_geom_bond_atom_site_label_2
_geom_bond_distance
_geom_bond_site_symmetry_2
Cu0 O67 1.992419 1_545
Cu0 O0 1.996108 1_555
Cu0 O1 1.999225 1_555
Cu0 O68 2.034086 1_555
Cu1 O66 1.990849 1_555
Cu1 O70 1.990849 1_555
Cu1 O2 2.030735 1_555
Cu1 O69 2.030735 1_555
Cu2 O7 1.997084 1_555
Cu2 O61 1.997084 1_455
Cu2 O6 1.999575 1_555
Cu2 O60 1.999575 1_455
Cu3 O4 1.992419 1_565
Cu3 O5 1.996108 1_555
Cu3 O71 1.999225 1_555
Cu3 O3 2.034086 1_555
Cu4 O8 1.992551 1_545
Cu4 O9 1.992551 1_555
Cu4 O62 1.992551 1_445
Cu4 O64 1.992551 1_455
Cu5 O10 1.997084 1_555
Cu5 O63 1.997084 1_455
Cu5 O11 1.999575 1_555
Cu5 O65 1.999575 1_455
Cu6 O47 2.018341 1_544
Cu6 O29 2.018341 1_544
Cu6 O24 2.018341 1_555
Cu6 O42 2.018341 1_555
Cu7 O43 2.014439 1_555
Cu7 O25 2.014439 1_555
Cu7 O26 2.015464 1_555
Cu7 O44 2.015464 1_555
Cu8 O28 2.014439 1_555
Cu8 O46 2.014439 1_555
Cu8 O27 2.015464 1_555
Cu8 O45 2.015464 1_555
Cu9 O36 2.005486 1_555
Cu9 O35 2.005486 1_545
Cu9 O32 2.005964 1_555
Cu9 O37 2.005964 1_545
Cu10 O12 2.012534 1_555
Cu10 O54 2.012534 1_455
Cu10 O59 2.012534 1_454
Cu10 O17 2.012534 1_554
Cu11 O13 2.008167 1_555
Cu11 O55 2.008167 1_455
Cu11 O14 2.013326 1_555
Cu11 O56 2.013326 1_455
Cu12 O16 2.008167 1_555
Cu12 O58 2.008167 1_455
Cu12 O57 2.013326 1_455
Cu12 O15 2.013326 1_555
O0 Ta9 2.050746 1_555
O0 Ta21 2.050746 1_455
O1 Ta3 2.053433 1_555
O1 Ta15 2.053433 1_455
O2 Ta5 2.011678 1_555
O2 Ta17 2.011678 1_455
O3 Ta23 2.015228 1_455
O3 Ta11 2.015228 1_555
O4 Ta18 2.056411 1_455
O4 Ta7 2.056411 1_555
O5 Ta2 2.050746 1_555
O5 Ta14 2.050746 1_455
O6 Ta10 2.017538 1_555
O6 Ta3 2.049165 1_555
O7 Ta4 2.018519 1_555
O7 Ta2 2.047181 1_554
O8 Ta11 2.057749 1_555
O8 Ta5 2.058220 1_555
O9 Ta0 2.057749 1_555
O9 Ta6 2.058220 1_555
O10 Ta7 2.018519 1_555
O10 Ta9 2.047181 1_556
O11 Ta1 2.017538 1_555
O11 Ta8 2.049165 1_555
O12 Ta3 2.018532 1_555
O12 Ta2 2.032608 1_554
O13 Ta10 2.017481 1_555
O13 Ta4 2.033700 1_555
O14 Ta5 2.033534 1_555
O14 Ta0 2.037370 1_565
O15 Ta6 2.033534 1_555
O15 Ta11 2.037370 1_545
O16 Ta1 2.017481 1_555
O16 Ta7 2.033700 1_555
O17 Ta8 2.018532 1_555
O17 Ta9 2.032608 1_556
O18 Ta3 1.935944 1_555
O18 Ta9 1.939957 1_555
O19 Ta5 1.913507 1_555
O19 Ta10 1.970704 1_555
O20 Ta11 1.912577 1_555
O20 Ta7 1.970345 1_565
O21 Ta0 1.912577 1_555
O21 Ta4 1.970345 1_545
O22 Ta6 1.913507 1_555
O22 Ta1 1.970704 1_555
O23 Ta8 1.935944 1_555
O23 Ta2 1.939957 1_555
O24 Ta4 2.009575 1_545
O24 Ta9 2.015008 1_555
O25 Ta0 1.993942 1_555
O25 Ta3 2.034165 1_555
O26 Ta6 1.998910 1_555
O26 Ta10 2.030523 1_555
O27 Ta5 1.998910 1_555
O27 Ta1 2.030523 1_555
O28 Ta11 1.993942 1_555
O28 Ta8 2.034165 1_555
O29 Ta7 2.009575 1_565
O29 Ta2 2.015008 1_555
O30 Ta14 1.939253 1_554
O30 Ta2 1.939253 1_554
O31 Ta10 1.937640 1_555
O31 Ta22 1.937640 1_555
O32 Ta12 2.021005 1_555
O32 Ta0 2.021005 1_555
O33 Ta15 1.939389 1_555
O33 Ta3 1.939389 1_555
O34 Ta4 1.937808 1_555
O34 Ta16 1.937808 1_555
O35 Ta17 2.020165 1_555
O35 Ta5 2.020165 1_555
O36 Ta19 2.020165 1_555
O36 Ta6 2.020165 1_555
O37 Ta23 2.021005 1_555
O37 Ta11 2.021005 1_555
O38 Ta1 1.937640 1_555
O38 Ta13 1.937640 1_555
O39 Ta7 1.937808 1_555
O39 Ta18 1.937808 1_555
O40 Ta21 1.939253 1_556
O40 Ta9 1.939253 1_556
O41 Ta8 1.939389 1_555
O41 Ta20 1.939389 1_555
O42 Ta16 2.009575 1_545
O42 Ta21 2.015008 1_555
O43 Ta12 1.993942 1_555
O43 Ta15 2.034165 1_555
O44 Ta19 1.998910 1_555
O44 Ta22 2.030523 1_555
O45 Ta17 1.998910 1_555
O45 Ta13 2.030523 1_555
O46 Ta23 1.993942 1_555
O46 Ta20 2.034165 1_555
O47 Ta18 2.009575 1_565
O47 Ta14 2.015008 1_555
O48 Ta15 1.935944 1_555
O48 Ta21 1.939957 1_555
O49 Ta17 1.913507 1_555
O49 Ta22 1.970704 1_555
O50 Ta12 1.912577 1_555
O50 Ta16 1.970345 1_545
O51 Ta23 1.912577 1_555
O51 Ta18 1.970345 1_565
O52 Ta19 1.913507 1_555
O52 Ta13 1.970704 1_555
O53 Ta20 1.935944 1_555
O53 Ta14 1.939957 1_555
O54 Ta15 2.018532 1_555
O54 Ta14 2.032608 1_554
O55 Ta22 2.017481 1_555
O55 Ta16 2.033700 1_555
O56 Ta17 2.033534 1_555
O56 Ta12 2.037370 1_565
O57 Ta19 2.033534 1_555
O57 Ta23 2.037370 1_545
O58 Ta13 2.017481 1_555
O58 Ta18 2.033700 1_555
O59 Ta20 2.018532 1_555
O59 Ta21 2.032608 1_556
O60 Ta22 2.017538 1_555
O60 Ta15 2.049165 1_555
O61 Ta16 2.018519 1_555
O61 Ta14 2.047181 1_554
O62 Ta23 2.057749 1_555
O62 Ta17 2.058220 1_555
O63 Ta18 2.018519 1_555
O63 Ta21 2.047181 1_556
O64 Ta12 2.057749 1_555
O64 Ta19 2.058220 1_555
O65 Ta13 2.017538 1_555
O65 Ta20 2.049165 1_555
O66 Ta22 2.055215 1_455
O66 Ta10 2.055215 1_555
O67 Ta4 2.056411 1_555
O67 Ta16 2.056411 1_455
O68 Ta12 2.015228 1_455
O68 Ta0 2.015228 1_555
O69 Ta6 2.011678 1_555
O69 Ta19 2.011678 1_455
O70 Ta13 2.055215 1_455
O70 Ta1 2.055215 1_555
O71 Ta20 2.053433 1_455
O71 Ta8 2.053433 1_555
