# generated using pymatgen
data_Ag2Bi2S3Cl2
_symmetry_space_group_name_H-M   'P 1'
_cell_length_a   7.31741900
_cell_length_b   11.18092455
_cell_length_c   11.42075444
_cell_angle_alpha   104.92426220
_cell_angle_beta   89.65925611
_cell_angle_gamma   91.87502258
_symmetry_Int_Tables_number   1
_chemical_formula_structural   Ag2Bi2S3Cl2
_chemical_formula_sum   'Ag8 Bi8 S12 Cl8'
_cell_volume   902.38861002
_cell_formula_units_Z   4
loop_
 _symmetry_equiv_pos_site_id
 _symmetry_equiv_pos_as_xyz
  1  'x, y, z'
loop_
 _atom_site_type_symbol
 _atom_site_label
 _atom_site_symmetry_multiplicity
 _atom_site_fract_x
 _atom_site_fract_y
 _atom_site_fract_z
 _atom_site_occupancy
  Ag  Ag0  1  0.51364200  0.70971200  0.30042100  1
  Ag  Ag1  1  0.98315600  0.30926800  0.20436100  1
  Ag  Ag2  1  0.25481700  0.50541400  0.35207400  1
  Ag  Ag3  1  0.74518300  0.49458600  0.64792600  1
  Ag  Ag4  1  0.25587900  0.49446000  0.85198200  1
  Ag  Ag5  1  0.74412100  0.50554000  0.14801800  1
  Ag  Ag6  1  0.01684400  0.69073200  0.79563900  1
  Ag  Ag7  1  0.48635800  0.29028800  0.69957900  1
  Bi  Bi0  1  0.92668200  0.79870000  0.48710600  1
  Bi  Bi1  1  0.10988100  0.79795200  0.15810500  1
  Bi  Bi2  1  0.38831300  0.20548100  0.01567200  1
  Bi  Bi3  1  0.61168700  0.79451900  0.98432800  1
  Bi  Bi4  1  0.89011900  0.20204800  0.84189500  1
  Bi  Bi5  1  0.07331800  0.20130000  0.51289400  1
  Bi  Bi6  1  0.57290200  0.20032800  0.34033100  1
  Bi  Bi7  1  0.42709800  0.79967200  0.65966900  1
  S  S0  1  0.99299400  0.36685100  0.71798300  1
  S  S1  1  0.38123300  0.34064300  0.51394800  1
  S  S2  1  0.09740100  0.34697200  0.01340400  1
  S  S3  1  0.00700600  0.63314900  0.28201700  1
  S  S4  1  0.40386700  0.65491700  0.08904900  1
  S  S5  1  0.87496900  0.34342000  0.41481000  1
  S  S6  1  0.49405800  0.36920200  0.22077600  1
  S  S7  1  0.59613300  0.34508300  0.91095100  1
  S  S8  1  0.50594200  0.63079800  0.77922400  1
  S  S9  1  0.90259900  0.65302800  0.98659600  1
  S  S10  1  0.61876700  0.65935700  0.48605200  1
  S  S11  1  0.12503100  0.65658000  0.58519000  1
  Cl  Cl0  1  0.78675800  0.89478400  0.76343200  1
  Cl  Cl1  1  0.72216100  0.09313100  0.56722600  1
  Cl  Cl2  1  0.21324200  0.10521600  0.23656800  1
  Cl  Cl3  1  0.73659700  0.10185800  0.05953800  1
  Cl  Cl4  1  0.23469200  0.09560000  0.73902500  1
  Cl  Cl5  1  0.26340300  0.89814200  0.94046200  1
  Cl  Cl6  1  0.76530800  0.90440000  0.26097500  1
  Cl  Cl7  1  0.27783900  0.90686900  0.43277400  1
loop_
_geom_bond_atom_site_label_1
_geom_bond_atom_site_label_2
_geom_bond_distance
_geom_bond_site_symmetry_2
Ag0 S10 2.462899 1_555
Ag0 S4 2.465195 1_555
Ag0 Cl6 2.926704 1_555
Ag0 Cl7 2.936500 1_555
Ag1 S2 2.462031 1_655
Ag1 S5 2.464485 1_555
Ag1 Cl2 2.977601 1_655
Ag1 Cl3 3.025668 1_555
Ag2 S6 2.568978 1_555
Ag2 S3 2.596809 1_555
Ag2 S11 2.933249 1_555
Ag2 S1 3.090905 1_555
Ag3 S8 2.568978 1_555
Ag3 S0 2.596809 1_555
Ag3 S5 2.933249 1_555
Ag3 S10 3.090905 1_555
Ag4 S0 2.609379 1_455
Ag4 S8 2.610419 1_555
Ag4 S2 2.979636 1_556
Ag4 S4 3.021182 1_556
Ag5 S3 2.609379 1_655
Ag5 S6 2.610419 1_555
Ag5 S9 2.979636 1_554
Ag5 S7 3.021182 1_554
Ag6 S9 2.462031 1_455
Ag6 S11 2.464485 1_555
Ag6 Cl0 2.977601 1_455
Ag6 Cl5 3.025668 1_555
Ag7 S1 2.462899 1_555
Ag7 S7 2.465195 1_555
Ag7 Cl4 2.926704 1_555
Ag7 Cl1 2.936500 1_555
Bi0 S11 2.640748 1_655
Bi0 S3 2.660749 1_655
Bi0 S10 2.695377 1_555
Bi0 Cl7 2.935069 1_655
Bi1 S9 2.646250 1_454
Bi1 S3 2.684112 1_555
Bi1 S4 2.713424 1_555
Bi1 Cl6 2.931742 1_455
Bi1 Cl5 3.164489 1_554
Bi2 S7 2.638918 1_554
Bi2 S6 2.675238 1_555
Bi2 S2 2.697592 1_555
Bi2 Cl3 2.931856 1_555
Bi3 S4 2.638918 1_556
Bi3 S8 2.675238 1_555
Bi3 S9 2.697592 1_555
Bi3 Cl5 2.931856 1_555
Bi4 S2 2.646250 1_656
Bi4 S0 2.684112 1_555
Bi4 S7 2.713424 1_555
Bi4 Cl4 2.931742 1_655
Bi4 Cl3 3.164489 1_556
Bi5 S5 2.640748 1_455
Bi5 S0 2.660749 1_455
Bi5 S1 2.695377 1_555
Bi5 Cl1 2.935069 1_455
Bi6 S1 2.620803 1_555
Bi6 S6 2.677867 1_555
Bi6 S5 2.694224 1_555
Bi6 Cl2 2.943868 1_555
Bi7 S10 2.620803 1_555
Bi7 S8 2.677867 1_555
Bi7 S11 2.694224 1_555
Bi7 Cl0 2.943868 1_555
