# generated using pymatgen
data_Sc3Zn17
_symmetry_space_group_name_H-M   'P 1'
_cell_length_a   11.95203045
_cell_length_b   11.95203045
_cell_length_c   11.95203045
_cell_angle_alpha   109.47122063
_cell_angle_beta   109.47122063
_cell_angle_gamma   109.47122063
_symmetry_Int_Tables_number   1
_chemical_formula_structural   Sc3Zn17
_chemical_formula_sum   'Sc12 Zn68'
_cell_volume   1314.32625193
_cell_formula_units_Z   4
loop_
 _symmetry_equiv_pos_site_id
 _symmetry_equiv_pos_as_xyz
  1  'x, y, z'
loop_
 _atom_site_type_symbol
 _atom_site_label
 _atom_site_symmetry_multiplicity
 _atom_site_fract_x
 _atom_site_fract_y
 _atom_site_fract_z
 _atom_site_occupancy
  Sc  Sc0  1  0.69992300  0.51174100  0.81181800  1
  Sc  Sc1  1  0.18818200  0.30007700  0.48825900  1
  Sc  Sc2  1  0.48825900  0.18818200  0.30007700  1
  Sc  Sc3  1  0.88810500  0.18818200  0.69992300  1
  Sc  Sc4  1  0.18818200  0.69992300  0.88810500  1
  Sc  Sc5  1  0.69992300  0.88810500  0.18818200  1
  Sc  Sc6  1  0.11189500  0.81181800  0.30007700  1
  Sc  Sc7  1  0.30007700  0.11189500  0.81181800  1
  Sc  Sc8  1  0.81181800  0.30007700  0.11189500  1
  Sc  Sc9  1  0.51174100  0.81181800  0.69992300  1
  Sc  Sc10  1  0.30007700  0.48825900  0.18818200  1
  Sc  Sc11  1  0.81181800  0.69992300  0.51174100  1
  Zn  Zn0  1  0.77619300  0.91560700  0.46027900  1
  Zn  Zn1  1  0.40438800  0.00000000  0.40438800  1
  Zn  Zn2  1  0.74947400  0.40388700  0.34558800  1
  Zn  Zn3  1  0.46027900  0.54467200  0.68408700  1
  Zn  Zn4  1  0.00000000  0.40438800  0.40438800  1
  Zn  Zn5  1  0.13941400  0.45532800  0.91560700  1
  Zn  Zn6  1  0.23093600  0.90971700  0.14065300  1
  Zn  Zn7  1  0.00000000  0.59561200  0.59561200  1
  Zn  Zn8  1  0.31539500  0.31539500  0.31539500  1
  Zn  Zn9  1  0.31591300  0.53972100  0.45532800  1
  Zn  Zn10  1  0.68408700  0.46027900  0.54467200  1
  Zn  Zn11  1  0.94170100  0.59611300  0.34558800  1
  Zn  Zn12  1  0.85934700  0.76906400  0.09028300  1
  Zn  Zn13  1  0.86058600  0.77619300  0.31591300  1
  Zn  Zn14  1  0.80987700  0.30987700  0.50000000  1
  Zn  Zn15  1  0.68408700  0.13941400  0.22380700  1
  Zn  Zn16  1  0.91560700  0.13941400  0.45532800  1
  Zn  Zn17  1  0.50000000  0.19012300  0.69012300  1
  Zn  Zn18  1  0.00000000  0.00000000  0.31539500  1
  Zn  Zn19  1  0.40438800  0.40438800  0.00000000  1
  Zn  Zn20  1  0.00000000  0.31539500  0.00000000  1
  Zn  Zn21  1  0.14065300  0.23093600  0.90971700  1
  Zn  Zn22  1  0.59611300  0.65441200  0.25052600  1
  Zn  Zn23  1  0.30987700  0.50000000  0.80987700  1
  Zn  Zn24  1  0.90971700  0.67878100  0.76906400  1
  Zn  Zn25  1  0.40388700  0.65441200  0.05829900  1
  Zn  Zn26  1  0.22380700  0.08439300  0.53972100  1
  Zn  Zn27  1  0.08439300  0.86058600  0.54467200  1
  Zn  Zn28  1  0.09028300  0.85934700  0.76906400  1
  Zn  Zn29  1  0.67878100  0.76906400  0.90971700  1
  Zn  Zn30  1  0.54467200  0.08439300  0.86058600  1
  Zn  Zn31  1  0.59561200  0.00000000  0.59561200  1
  Zn  Zn32  1  0.31591300  0.86058600  0.77619300  1
  Zn  Zn33  1  0.22380700  0.68408700  0.13941400  1
  Zn  Zn34  1  0.25052600  0.59611300  0.65441200  1
  Zn  Zn35  1  0.19012300  0.69012300  0.50000000  1
  Zn  Zn36  1  0.00000000  0.68460500  0.00000000  1
  Zn  Zn37  1  0.59611300  0.34558800  0.94170100  1
  Zn  Zn38  1  0.09028300  0.32121900  0.23093600  1
  Zn  Zn39  1  0.53972100  0.22380700  0.08439300  1
  Zn  Zn40  1  0.46027900  0.77619300  0.91560700  1
  Zn  Zn41  1  0.05829900  0.40388700  0.65441200  1
  Zn  Zn42  1  0.68460500  0.00000000  0.00000000  1
  Zn  Zn43  1  0.68460500  0.68460500  0.68460500  1
  Zn  Zn44  1  0.86058600  0.54467200  0.08439300  1
  Zn  Zn45  1  0.45532800  0.91560700  0.13941400  1
  Zn  Zn46  1  0.31539500  0.00000000  0.00000000  1
  Zn  Zn47  1  0.34558800  0.94170100  0.59611300  1
  Zn  Zn48  1  0.53972100  0.45532800  0.31591300  1
  Zn  Zn49  1  0.69012300  0.50000000  0.19012300  1
  Zn  Zn50  1  0.59561200  0.59561200  0.00000000  1
  Zn  Zn51  1  0.65441200  0.25052600  0.59611300  1
  Zn  Zn52  1  0.65441200  0.05829900  0.40388700  1
  Zn  Zn53  1  0.34558800  0.74947400  0.40388700  1
  Zn  Zn54  1  0.50000000  0.80987700  0.30987700  1
  Zn  Zn55  1  0.76906400  0.90971700  0.67878100  1
  Zn  Zn56  1  0.91560700  0.46027900  0.77619300  1
  Zn  Zn57  1  0.23093600  0.09028300  0.32121900  1
  Zn  Zn58  1  0.08439300  0.53972100  0.22380700  1
  Zn  Zn59  1  0.90971700  0.14065300  0.23093600  1
  Zn  Zn60  1  0.13941400  0.22380700  0.68408700  1
  Zn  Zn61  1  0.77619300  0.31591300  0.86058600  1
  Zn  Zn62  1  0.32121900  0.23093600  0.09028300  1
  Zn  Zn63  1  0.45532800  0.31591300  0.53972100  1
  Zn  Zn64  1  0.40388700  0.34558800  0.74947400  1
  Zn  Zn65  1  0.76906400  0.09028300  0.85934700  1
  Zn  Zn66  1  0.00000000  0.00000000  0.68460500  1
  Zn  Zn67  1  0.54467200  0.68408700  0.46027900  1
loop_
_geom_bond_atom_site_label_1
_geom_bond_atom_site_label_2
_geom_bond_distance
_geom_bond_site_symmetry_2
Sc0 Zn63 2.937085 1_555
Sc0 Zn61 2.937096 1_555
Sc0 Zn24 2.954882 1_555
Sc0 Zn43 2.962231 1_555
Sc0 Zn36 2.962231 1_656
Sc0 Zn50 2.969408 1_556
Sc0 Zn56 2.969713 1_555
Sc0 Zn10 2.969718 1_555
Sc0 Zn3 2.987711 1_555
Sc0 Zn44 2.987714 1_556
Sc0 Zn12 3.034465 1_556
Sc0 Zn29 3.034465 1_555
Sc0 Zn51 3.042479 1_555
Sc0 Zn64 3.096697 1_555
Sc0 Zn37 3.096701 1_555
Sc0 Zn17 3.230112 1_555
Sc1 Zn3 2.937085 1_555
Sc1 Zn60 2.937096 1_555
Sc1 Zn57 2.954882 1_555
Sc1 Zn18 2.962231 1_555
Sc1 Zn8 2.962231 1_555
Sc1 Zn4 2.969408 1_555
Sc1 Zn26 2.969713 1_555
Sc1 Zn63 2.969718 1_555
Sc1 Zn9 2.987711 1_555
Sc1 Zn16 2.987714 1_455
Sc1 Zn59 3.034465 1_455
Sc1 Zn38 3.034465 1_555
Sc1 Zn64 3.042479 1_555
Sc1 Zn34 3.096697 1_555
Sc1 Zn41 3.096701 1_555
Sc1 Zn23 3.230112 1_555
Sc2 Zn10 2.937085 1_555
Sc2 Zn15 2.937096 1_555
Sc2 Zn62 2.954882 1_555
Sc2 Zn46 2.962231 1_555
Sc2 Zn8 2.962231 1_555
Sc2 Zn1 2.969408 1_555
Sc2 Zn39 2.969713 1_555
Sc2 Zn48 2.969718 1_555
Sc2 Zn63 2.987711 1_555
Sc2 Zn45 2.987714 1_545
Sc2 Zn57 3.034465 1_555
Sc2 Zn6 3.034465 1_545
Sc2 Zn2 3.042479 1_555
Sc2 Zn51 3.096697 1_555
Sc2 Zn52 3.096701 1_555
Sc2 Zn14 3.230112 1_555
Sc3 Zn16 2.937084 1_555
Sc3 Zn56 2.937084 1_555
Sc3 Zn21 2.954882 1_655
Sc3 Zn66 2.962231 1_655
Sc3 Zn20 2.962231 1_656
Sc3 Zn31 2.969408 1_555
Sc3 Zn60 2.969708 1_655
Sc3 Zn5 2.969713 1_655
Sc3 Zn61 2.987709 1_555
Sc3 Zn0 2.987714 1_545
Sc3 Zn55 3.034465 1_545
Sc3 Zn65 3.034465 1_555
Sc3 Zn41 3.042487 1_655
Sc3 Zn52 3.096701 1_555
Sc3 Zn51 3.096709 1_555
Sc3 Zn14 3.230112 1_555
Sc4 Zn5 2.937084 1_555
Sc4 Zn40 2.937084 1_555
Sc4 Zn6 2.954882 1_556
Sc4 Zn36 2.962231 1_556
Sc4 Zn46 2.962231 1_566
Sc4 Zn7 2.969408 1_555
Sc4 Zn33 2.969708 1_556
Sc4 Zn45 2.969713 1_556
Sc4 Zn32 2.987709 1_555
Sc4 Zn56 2.987714 1_455
Sc4 Zn24 3.034465 1_455
Sc4 Zn28 3.034465 1_555
Sc4 Zn25 3.042487 1_556
Sc4 Zn41 3.096701 1_555
Sc4 Zn34 3.096709 1_555
Sc4 Zn23 3.230112 1_555
Sc5 Zn45 2.937084 1_555
Sc5 Zn0 2.937084 1_555
Sc5 Zn59 2.954882 1_565
Sc5 Zn42 2.962231 1_565
Sc5 Zn18 2.962231 1_665
Sc5 Zn50 2.969408 1_555
Sc5 Zn15 2.969708 1_565
Sc5 Zn16 2.969713 1_565
Sc5 Zn13 2.987709 1_555
Sc5 Zn40 2.987714 1_554
Sc5 Zn29 3.034465 1_554
Sc5 Zn12 3.034465 1_555
Sc5 Zn52 3.042487 1_565
Sc5 Zn25 3.096701 1_555
Sc5 Zn22 3.096709 1_555
Sc5 Zn54 3.230112 1_555
Sc6 Zn58 2.937084 1_555
Sc6 Zn27 2.937084 1_555
Sc6 Zn12 2.954882 1_455
Sc6 Zn18 2.962231 1_565
Sc6 Zn36 2.962231 1_555
Sc6 Zn1 2.969408 1_565
Sc6 Zn13 2.969708 1_455
Sc6 Zn44 2.969713 1_455
Sc6 Zn33 2.987709 1_555
Sc6 Zn26 2.987714 1_565
Sc6 Zn57 3.034465 1_565
Sc6 Zn6 3.034465 1_555
Sc6 Zn11 3.042487 1_455
Sc6 Zn47 3.096701 1_555
Sc6 Zn53 3.096709 1_555
Sc6 Zn35 3.230112 1_555
Sc7 Zn26 2.937084 1_555
Sc7 Zn30 2.937084 1_555
Sc7 Zn28 2.954882 1_545
Sc7 Zn46 2.962231 1_556
Sc7 Zn66 2.962231 1_555
Sc7 Zn19 2.969408 1_556
Sc7 Zn32 2.969708 1_545
Sc7 Zn27 2.969713 1_545
Sc7 Zn60 2.987709 1_555
Sc7 Zn39 2.987714 1_556
Sc7 Zn62 3.034465 1_556
Sc7 Zn21 3.034465 1_555
Sc7 Zn47 3.042487 1_545
Sc7 Zn37 3.096701 1_555
Sc7 Zn64 3.096709 1_555
Sc7 Zn17 3.230112 1_555
Sc8 Zn44 2.937084 1_555
Sc8 Zn39 2.937084 1_555
Sc8 Zn65 2.954882 1_554
Sc8 Zn42 2.962231 1_555
Sc8 Zn20 2.962231 1_655
Sc8 Zn4 2.969408 1_655
Sc8 Zn61 2.969708 1_554
Sc8 Zn30 2.969713 1_554
Sc8 Zn15 2.987709 1_555
Sc8 Zn58 2.987714 1_655
Sc8 Zn38 3.034465 1_655
Sc8 Zn59 3.034465 1_555
Sc8 Zn37 3.042487 1_554
Sc8 Zn11 3.096701 1_555
Sc8 Zn2 3.096709 1_555
Sc8 Zn49 3.230112 1_555
Sc9 Zn9 2.937085 1_555
Sc9 Zn32 2.937096 1_555
Sc9 Zn29 2.954882 1_555
Sc9 Zn43 2.962231 1_555
Sc9 Zn42 2.962231 1_566
Sc9 Zn31 2.969408 1_565
Sc9 Zn40 2.969713 1_555
Sc9 Zn3 2.969718 1_555
Sc9 Zn67 2.987711 1_555
Sc9 Zn30 2.987714 1_565
Sc9 Zn65 3.034465 1_565
Sc9 Zn55 3.034465 1_555
Sc9 Zn34 3.042479 1_555
Sc9 Zn53 3.096697 1_555
Sc9 Zn47 3.096701 1_555
Sc9 Zn35 3.230112 1_555
Sc10 Zn67 2.937085 1_555
Sc10 Zn33 2.937096 1_555
Sc10 Zn38 2.954882 1_555
Sc10 Zn20 2.962231 1_555
Sc10 Zn8 2.962231 1_555
Sc10 Zn19 2.969408 1_555
Sc10 Zn58 2.969713 1_555
Sc10 Zn9 2.969718 1_555
Sc10 Zn48 2.987711 1_555
Sc10 Zn5 2.987714 1_554
Sc10 Zn21 3.034465 1_554
Sc10 Zn62 3.034465 1_555
Sc10 Zn53 3.042479 1_555
Sc10 Zn22 3.096697 1_555
Sc10 Zn25 3.096701 1_555
Sc10 Zn54 3.230112 1_555
Sc11 Zn48 2.937085 1_555
Sc11 Zn13 2.937096 1_555
Sc11 Zn55 2.954882 1_555
Sc11 Zn43 2.962231 1_555
Sc11 Zn66 2.962231 1_665
Sc11 Zn7 2.969408 1_655
Sc11 Zn0 2.969713 1_555
Sc11 Zn67 2.969718 1_555
Sc11 Zn10 2.987711 1_555
Sc11 Zn27 2.987714 1_655
Sc11 Zn28 3.034465 1_655
Sc11 Zn24 3.034465 1_555
Sc11 Zn22 3.042479 1_555
Sc11 Zn2 3.096697 1_555
Sc11 Zn11 3.096701 1_555
Sc11 Zn49 3.230112 1_555
Zn0 Zn66 2.641657 1_665
Zn0 Zn55 2.664448 1_555
Zn0 Zn16 2.671165 1_565
Zn0 Zn13 2.671172 1_555
Zn0 Zn52 2.692329 1_565
Zn0 Zn22 2.714579 1_555
Zn0 Zn54 2.733845 1_555
Zn1 Zn31 2.639085 1_555
Zn1 Zn6 2.698676 1_545
Zn1 Zn57 2.698676 1_555
Zn1 Zn52 2.835846 1_555
Zn1 Zn47 2.835846 1_545
Zn1 Zn51 2.835851 1_555
Zn1 Zn53 2.835858 1_545
Zn1 Zn17 2.937004 1_555
Zn1 Zn54 2.937004 1_545
Zn2 Zn49 2.522493 1_555
Zn2 Zn48 2.714570 1_555
Zn2 Zn39 2.714579 1_555
Zn2 Zn7 2.835851 1_655
Zn2 Zn4 2.835858 1_655
Zn3 Zn43 2.641664 1_555
Zn3 Zn9 2.671178 1_555
Zn3 Zn63 2.671178 1_555
Zn3 Zn64 2.692313 1_555
Zn3 Zn34 2.714570 1_555
Zn4 Zn7 2.639085 1_555
Zn4 Zn59 2.698676 1_455
Zn4 Zn41 2.835846 1_555
Zn5 Zn56 2.671165 1_455
Zn8 Zn9 2.641664 1_555
Zn10 Zn43 2.641664 1_555
Zn10 Zn24 2.664444 1_555
Zn10 Zn63 2.671178 1_555
Zn10 Zn48 2.671178 1_555
Zn10 Zn2 2.692313 1_555
Zn10 Zn51 2.714570 1_555
Zn10 Zn14 2.733835 1_555
Zn11 Zn35 2.494930 1_655
Zn11 Zn49 2.522495 1_555
Zn11 Zn2 2.652921 1_555
Zn11 Zn58 2.692329 1_655
Zn11 Zn27 2.692329 1_655
Zn11 Zn44 2.714582 1_555
Zn11 Zn13 2.714586 1_555
Zn11 Zn4 2.835846 1_655
Zn11 Zn7 2.835846 1_655
Zn12 Zn29 2.491994 1_554
Zn12 Zn18 2.573699 1_665
Zn12 Zn36 2.573699 1_655
Zn12 Zn13 2.664436 1_555
Zn12 Zn44 2.664448 1_555
Zn12 Zn50 2.698676 1_555
Zn13 Zn18 2.641651 1_665
Zn13 Zn27 2.671172 1_655
Zn13 Zn22 2.692335 1_555
Zn13 Zn49 2.733846 1_555
Zn14 Zn41 2.494930 1_655
Zn14 Zn2 2.494932 1_555
Zn14 Zn51 2.522493 1_555
Zn14 Zn52 2.522495 1_555
Zn14 Zn16 2.733845 1_555
Zn14 Zn56 2.733845 1_555
Zn14 Zn15 2.733846 1_555
Zn14 Zn4 2.937004 1_655
Zn14 Zn7 2.937004 1_655
Zn15 Zn42 2.641651 1_555
Zn15 Zn59 2.664436 1_555
Zn15 Zn39 2.671172 1_555
Zn15 Zn45 2.671172 1_545
Zn15 Zn2 2.692335 1_555
Zn15 Zn52 2.714586 1_555
Zn16 Zn18 2.641657 1_655
Zn16 Zn59 2.664448 1_555
Zn16 Zn60 2.671172 1_655
Zn16 Zn41 2.692329 1_655
Zn16 Zn52 2.714582 1_555
Zn17 Zn47 2.494930 1_545
Zn17 Zn51 2.494932 1_555
Zn17 Zn64 2.522493 1_555
Zn17 Zn37 2.522495 1_555
Zn17 Zn63 2.733835 1_555
Zn17 Zn30 2.733845 1_555
Zn17 Zn26 2.733845 1_555
Zn17 Zn61 2.733846 1_555
Zn17 Zn31 2.937004 1_555
Zn18 Zn59 2.573699 1_455
Zn18 Zn57 2.573699 1_555
Zn18 Zn26 2.641657 1_555
Zn19 Zn50 2.639085 1_555
Zn19 Zn62 2.698676 1_555
Zn19 Zn21 2.698676 1_554
Zn19 Zn37 2.835846 1_554
Zn19 Zn25 2.835846 1_555
Zn19 Zn22 2.835851 1_555
Zn19 Zn64 2.835858 1_554
Zn19 Zn23 2.937004 1_554
Zn19 Zn49 2.937004 1_555
Zn20 Zn21 2.573699 1_554
Zn20 Zn38 2.573699 1_555
Zn20 Zn65 2.573699 1_454
Zn20 Zn61 2.641651 1_454
Zn20 Zn58 2.641657 1_555
Zn20 Zn5 2.641657 1_554
Zn21 Zn62 2.491994 1_556
Zn21 Zn66 2.573699 1_555
Zn21 Zn60 2.664436 1_555
Zn21 Zn5 2.664448 1_555
Zn22 Zn49 2.494932 1_555
Zn22 Zn54 2.522493 1_555
Zn22 Zn25 2.652921 1_555
Zn22 Zn48 2.692313 1_555
Zn22 Zn67 2.714570 1_555
Zn22 Zn50 2.835858 1_555
Zn23 Zn25 2.494930 1_556
Zn23 Zn64 2.494932 1_555
Zn23 Zn34 2.522493 1_555
Zn23 Zn41 2.522495 1_555
Zn23 Zn3 2.733835 1_555
Zn23 Zn5 2.733845 1_555
Zn23 Zn40 2.733845 1_555
Zn23 Zn60 2.733846 1_555
Zn23 Zn50 2.937004 1_556
Zn24 Zn28 2.491994 1_655
Zn24 Zn43 2.573699 1_555
Zn24 Zn36 2.573699 1_656
Zn24 Zn56 2.664448 1_555
Zn24 Zn7 2.698676 1_655
Zn25 Zn54 2.522495 1_555
Zn25 Zn5 2.692329 1_554
Zn25 Zn40 2.692329 1_554
Zn25 Zn45 2.714582 1_555
Zn25 Zn33 2.714586 1_555
Zn25 Zn50 2.835846 1_555
Zn26 Zn57 2.664448 1_555
Zn26 Zn27 2.671165 1_545
Zn26 Zn60 2.671172 1_555
Zn26 Zn47 2.692329 1_545
Zn26 Zn64 2.714579 1_555
Zn27 Zn66 2.641657 1_565
Zn27 Zn28 2.664448 1_555
Zn27 Zn47 2.714582 1_555
Zn27 Zn35 2.733845 1_555
Zn28 Zn46 2.573699 1_566
Zn28 Zn66 2.573699 1_565
Zn28 Zn32 2.664436 1_555
Zn28 Zn7 2.698676 1_555
Zn29 Zn42 2.573699 1_566
Zn29 Zn43 2.573699 1_555
Zn29 Zn3 2.664444 1_555
Zn29 Zn40 2.664448 1_555
Zn29 Zn50 2.698676 1_556
Zn30 Zn42 2.641657 1_556
Zn30 Zn65 2.664448 1_555
Zn30 Zn39 2.671165 1_556
Zn30 Zn32 2.671172 1_545
Zn30 Zn47 2.692329 1_545
Zn30 Zn37 2.714582 1_555
Zn31 Zn65 2.698676 1_555
Zn31 Zn55 2.698676 1_545
Zn31 Zn47 2.835846 1_545
Zn31 Zn52 2.835846 1_555
Zn31 Zn53 2.835851 1_545
Zn31 Zn51 2.835858 1_555
Zn31 Zn54 2.937004 1_545
Zn32 Zn46 2.641651 1_566
Zn32 Zn40 2.671172 1_555
Zn32 Zn34 2.692335 1_555
Zn32 Zn47 2.714586 1_555
Zn32 Zn35 2.733846 1_555
Zn33 Zn36 2.641651 1_555
Zn33 Zn6 2.664436 1_555
Zn33 Zn58 2.671172 1_555
Zn33 Zn5 2.671172 1_554
Zn33 Zn53 2.692335 1_555
Zn33 Zn54 2.733846 1_555
Zn34 Zn35 2.494932 1_555
Zn34 Zn41 2.652921 1_555
Zn34 Zn9 2.692313 1_555
Zn34 Zn40 2.714579 1_555
Zn34 Zn4 2.835851 1_555
Zn34 Zn7 2.835858 1_555
Zn35 Zn53 2.522493 1_555
Zn35 Zn47 2.522495 1_555
Zn35 Zn9 2.733835 1_555
Zn35 Zn58 2.733845 1_555
Zn35 Zn4 2.937004 1_555
Zn35 Zn7 2.937004 1_555
Zn36 Zn6 2.573699 1_555
Zn36 Zn44 2.641657 1_455
Zn36 Zn56 2.641657 1_454
Zn37 Zn49 2.494930 1_556
Zn37 Zn64 2.652921 1_555
Zn37 Zn44 2.692329 1_556
Zn37 Zn39 2.692329 1_556
Zn37 Zn61 2.714586 1_555
Zn37 Zn50 2.835846 1_556
Zn38 Zn59 2.491994 1_455
Zn38 Zn8 2.573699 1_555
Zn38 Zn9 2.664444 1_555
Zn38 Zn58 2.664448 1_555
Zn38 Zn4 2.698676 1_555
Zn39 Zn46 2.641657 1_555
Zn39 Zn62 2.664448 1_555
Zn39 Zn49 2.733845 1_555
Zn40 Zn42 2.641657 1_566
Zn40 Zn45 2.671165 1_556
Zn41 Zn56 2.692329 1_455
Zn41 Zn5 2.714582 1_555
Zn41 Zn60 2.714586 1_555
Zn41 Zn7 2.835846 1_555
Zn42 Zn59 2.573699 1_555
Zn42 Zn65 2.573699 1_554
Zn43 Zn55 2.573699 1_555
Zn43 Zn67 2.641664 1_555
Zn44 Zn58 2.671165 1_655
Zn44 Zn61 2.671172 1_554
Zn44 Zn49 2.733845 1_555
Zn45 Zn46 2.641657 1_565
Zn45 Zn6 2.664448 1_555
Zn45 Zn52 2.692329 1_565
Zn45 Zn54 2.733845 1_555
Zn46 Zn62 2.573699 1_555
Zn46 Zn6 2.573699 1_545
Zn47 Zn53 2.652921 1_555
Zn48 Zn8 2.641664 1_555
Zn48 Zn62 2.664444 1_555
Zn48 Zn67 2.671178 1_555
Zn48 Zn49 2.733835 1_555
Zn49 Zn50 2.937004 1_555
Zn50 Zn64 2.835851 1_554
Zn51 Zn52 2.652921 1_555
Zn51 Zn63 2.692313 1_555
Zn51 Zn61 2.692335 1_555
Zn51 Zn56 2.714579 1_555
Zn52 Zn54 2.494930 1_545
Zn53 Zn54 2.494932 1_555
Zn53 Zn67 2.692313 1_555
Zn53 Zn9 2.714570 1_555
Zn53 Zn58 2.714579 1_555
Zn54 Zn67 2.733835 1_555
Zn55 Zn65 2.491994 1_565
Zn55 Zn66 2.573699 1_665
Zn55 Zn67 2.664444 1_555
Zn56 Zn61 2.671172 1_555
Zn57 Zn6 2.491994 1_545
Zn57 Zn8 2.573699 1_555
Zn57 Zn63 2.664444 1_555
Zn60 Zn66 2.641651 1_555
Zn60 Zn64 2.692335 1_555
Zn61 Zn65 2.664436 1_555
Zn62 Zn8 2.573699 1_555
Zn63 Zn8 2.641664 1_555
Zn63 Zn64 2.714570 1_555
Zn67 Zn9 2.671178 1_555
