# generated using pymatgen
data_Cs2TeOF4
_symmetry_space_group_name_H-M   'P 1'
_cell_length_a   8.27594434
_cell_length_b   8.27594434
_cell_length_c   7.32636300
_cell_angle_alpha   90.00000000
_cell_angle_beta   90.00000000
_cell_angle_gamma   131.34966168
_symmetry_Int_Tables_number   1
_chemical_formula_structural   Cs2TeOF4
_chemical_formula_sum   'Cs4 Te2 O2 F8'
_cell_volume   376.69097933
_cell_formula_units_Z   2
loop_
 _symmetry_equiv_pos_site_id
 _symmetry_equiv_pos_as_xyz
  1  'x, y, z'
loop_
 _atom_site_type_symbol
 _atom_site_label
 _atom_site_symmetry_multiplicity
 _atom_site_fract_x
 _atom_site_fract_y
 _atom_site_fract_z
 _atom_site_occupancy
  Cs  Cs0  1  0.43578900  0.56421100  0.25000000  1
  Cs  Cs1  1  0.24356500  0.75643500  0.75000000  1
  Cs  Cs2  1  0.75643500  0.24356500  0.25000000  1
  Cs  Cs3  1  0.56421100  0.43578900  0.75000000  1
  Te  Te0  1  0.10940400  0.89059600  0.25000000  1
  Te  Te1  1  0.89059600  0.10940400  0.75000000  1
  O  O0  1  0.23018100  0.76981900  0.25000000  1
  O  O1  1  0.76981900  0.23018100  0.75000000  1
  F  F0  1  0.33208100  0.11434200  0.04983000  1
  F  F1  1  0.66791900  0.88565800  0.95017000  1
  F  F2  1  0.88565800  0.66791900  0.45017000  1
  F  F3  1  0.11434200  0.33208100  0.95017000  1
  F  F4  1  0.66791900  0.88565800  0.54983000  1
  F  F5  1  0.88565800  0.66791900  0.04983000  1
  F  F6  1  0.11434200  0.33208100  0.54983000  1
  F  F7  1  0.33208100  0.11434200  0.45017000  1
loop_
_geom_bond_atom_site_label_1
_geom_bond_atom_site_label_2
_geom_bond_distance
_geom_bond_site_symmetry_2
Cs0 F1 2.973262 1_554
Cs0 F4 2.973262 1_555
Cs0 F6 2.973262 1_555
Cs0 F3 2.973262 1_554
Cs0 O0 3.101073 1_555
Cs0 F0 3.539287 1_555
Cs0 F7 3.539287 1_555
Cs0 F2 3.539287 1_555
Cs0 F5 3.539287 1_555
Cs1 F4 3.265803 1_555
Cs1 F1 3.265803 1_555
Cs1 F6 3.265803 1_555
Cs1 F3 3.265803 1_555
Cs1 F2 3.356859 1_455
Cs1 F5 3.356859 1_456
Cs1 F7 3.356859 1_565
Cs1 F0 3.356859 1_566
Cs1 O1 3.431903 1_565
Cs1 O1 3.431903 1_455
Cs1 O0 3.668739 1_556
Cs1 O0 3.668739 1_555
Cs2 F2 3.265803 1_555
Cs2 F5 3.265803 1_555
Cs2 F0 3.265803 1_555
Cs2 F7 3.265803 1_555
Cs2 F1 3.356859 1_544
Cs2 F4 3.356859 1_545
Cs2 F3 3.356859 1_654
Cs2 F6 3.356859 1_655
Cs2 O0 3.431903 1_545
Cs2 O0 3.431903 1_655
Cs2 O1 3.668739 1_555
Cs2 O1 3.668739 1_554
Cs3 F2 2.973262 1_555
Cs3 F5 2.973262 1_556
Cs3 F0 2.973262 1_556
Cs3 F7 2.973262 1_555
Cs3 O1 3.101073 1_555
Cs3 F6 3.539287 1_555
Cs3 F3 3.539287 1_555
Cs3 F4 3.539287 1_555
Cs3 F1 3.539287 1_555
O0 Te0 1.821613 1_555
O1 Te1 1.821613 1_555
F0 Te0 2.113472 1_545
F1 Te1 2.113472 1_565
F2 Te0 2.113472 1_655
F3 Te1 2.113472 1_455
F4 Te1 2.113472 1_565
F5 Te0 2.113472 1_655
F6 Te1 2.113472 1_455
F7 Te0 2.113472 1_545
