# generated using pymatgen
data_Ce3Se4
_symmetry_space_group_name_H-M   'P 1'
_cell_length_a   7.82519610
_cell_length_b   7.83164935
_cell_length_c   7.83164902
_cell_angle_alpha   109.51647838
_cell_angle_beta   109.46529545
_cell_angle_gamma   109.46526495
_symmetry_Int_Tables_number   1
_chemical_formula_structural   Ce3Se4
_chemical_formula_sum   'Ce6 Se8'
_cell_volume   369.31817509
_cell_formula_units_Z   2
loop_
 _symmetry_equiv_pos_site_id
 _symmetry_equiv_pos_as_xyz
  1  'x, y, z'
loop_
 _atom_site_type_symbol
 _atom_site_label
 _atom_site_symmetry_multiplicity
 _atom_site_fract_x
 _atom_site_fract_y
 _atom_site_fract_z
 _atom_site_occupancy
  Ce  Ce0  1  0.12288104  0.74875092  0.87337016  1
  Ce  Ce1  1  0.62288104  0.37337016  0.24875092  1
  Ce  Ce2  1  0.37711896  0.25049012  0.62586988  1
  Ce  Ce3  1  0.75000000  0.87569434  0.12569434  1
  Ce  Ce4  1  0.25000000  0.62569434  0.37569434  1
  Ce  Ce5  1  0.87711896  0.12586988  0.75049012  1
  Se  Se0  1  0.64821169  0.64765810  0.64747945  1
  Se  Se1  1  0.00044633  0.85354517  0.50004092  1
  Se  Se2  1  0.85178831  0.49926776  -0.00055360  1
  Se  Se3  1  0.99955367  0.35309884  0.49959459  1
  Se  Se4  1  0.49955367  0.99959459  0.85309884  1
  Se  Se5  1  0.50044633  0.00004092  0.35354517  1
  Se  Se6  1  0.35178831  0.49944640  0.99926776  1
  Se  Se7  1  0.14821169  0.14747945  0.14765810  1
loop_
_geom_bond_atom_site_label_1
_geom_bond_atom_site_label_2
_geom_bond_distance
_geom_bond_site_symmetry_2
Ce0 Se3 3.027444 1_455
Ce0 Se2 3.035663 1_456
Ce0 Se7 3.037554 1_566
Ce0 Se4 3.038681 1_555
Ce0 Se0 3.205921 1_455
Ce0 Se1 3.224966 1_555
Ce0 Se6 3.230001 1_555
Ce0 Se5 3.243305 1_566
Ce1 Se4 3.027444 1_544
Ce1 Se6 3.035662 1_554
Ce1 Se0 3.037554 1_555
Ce1 Se3 3.038680 1_555
Ce1 Se7 3.205921 1_555
Ce1 Se5 3.224967 1_555
Ce1 Se2 3.230002 1_555
Ce1 Se1 3.243306 1_655
Ce2 Se5 3.027448 1_555
Ce2 Se0 3.035657 1_555
Ce2 Se6 3.037551 1_555
Ce2 Se1 3.038685 1_545
Ce2 Se2 3.205921 1_556
Ce2 Se4 3.224973 1_545
Ce2 Se7 3.229999 1_555
Ce2 Se3 3.243300 1_455
Ce3 Se1 3.033662 1_655
Ce3 Se4 3.033662 1_554
Ce3 Se7 3.041028 1_665
Ce3 Se6 3.041028 1_554
Ce3 Se5 3.221002 1_565
Ce3 Se3 3.221002 1_565
Ce3 Se0 3.231913 1_554
Ce3 Se2 3.231913 1_555
Ce4 Se3 3.033663 1_455
Ce4 Se5 3.033663 1_565
Ce4 Se0 3.041027 1_555
Ce4 Se2 3.041027 1_455
Ce4 Se1 3.221001 1_555
Ce4 Se4 3.221002 1_555
Ce4 Se6 3.231913 1_554
Ce4 Se7 3.231913 1_555
Ce5 Se1 3.027448 1_645
Ce5 Se7 3.035656 1_656
Ce5 Se2 3.037551 1_556
Ce5 Se5 3.038684 1_555
Ce5 Se6 3.205922 1_655
Ce5 Se3 3.224974 1_555
Ce5 Se0 3.230000 1_545
Ce5 Se4 3.243301 1_545
