# generated using pymatgen
data_Mo4P9O32
_symmetry_space_group_name_H-M   'P 1'
_cell_length_a   14.40389700
_cell_length_b   14.40389700
_cell_length_c   6.50437600
_cell_angle_alpha   90.00000000
_cell_angle_beta   90.00000000
_cell_angle_gamma   90.00000000
_symmetry_Int_Tables_number   1
_chemical_formula_structural   Mo4P9O32
_chemical_formula_sum   'Mo8 P18 O64'
_cell_volume   1349.47751567
_cell_formula_units_Z   2
loop_
 _symmetry_equiv_pos_site_id
 _symmetry_equiv_pos_as_xyz
  1  'x, y, z'
loop_
 _atom_site_type_symbol
 _atom_site_label
 _atom_site_symmetry_multiplicity
 _atom_site_fract_x
 _atom_site_fract_y
 _atom_site_fract_z
 _atom_site_occupancy
  Mo  Mo0  1  0.69618500  0.38649300  0.87190100  1
  Mo  Mo1  1  0.80381500  0.88649300  0.62809900  1
  Mo  Mo2  1  0.61350700  0.69618500  0.12809900  1
  Mo  Mo3  1  0.88649300  0.19618500  0.37190100  1
  Mo  Mo4  1  0.38649300  0.30381500  0.12809900  1
  Mo  Mo5  1  0.11350700  0.80381500  0.37190100  1
  Mo  Mo6  1  0.30381500  0.61350700  0.87190100  1
  Mo  Mo7  1  0.19618500  0.11350700  0.62809900  1
  P  P0  1  0.80443600  0.56053900  0.11718900  1
  P  P1  1  0.39474800  0.24961900  0.63972100  1
  P  P2  1  0.30443600  0.93946100  0.38281100  1
  P  P3  1  0.69556400  0.06053900  0.38281100  1
  P  P4  1  0.56053900  0.19556400  0.88281100  1
  P  P5  1  0.43946100  0.80443600  0.88281100  1
  P  P6  1  0.89474800  0.25038100  0.86027900  1
  P  P7  1  0.60525200  0.75038100  0.63972100  1
  P  P8  1  0.06053900  0.30443600  0.61718900  1
  P  P9  1  0.74961900  0.89474800  0.13972100  1
  P  P10  1  0.50000000  0.50000000  0.00000000  1
  P  P11  1  0.10525200  0.74961900  0.86027900  1
  P  P12  1  0.93946100  0.69556400  0.61718900  1
  P  P13  1  0.24961900  0.60525200  0.36027900  1
  P  P14  1  0.25038100  0.10525200  0.13972100  1
  P  P15  1  0.00000000  0.00000000  0.50000000  1
  P  P16  1  0.75038100  0.39474800  0.36027900  1
  P  P17  1  0.19556400  0.43946100  0.11718900  1
  O  O0  1  0.59824800  0.69781200  0.43573100  1
  O  O1  1  0.00442500  0.25310400  0.44093000  1
  O  O2  1  0.08359500  0.40158600  0.58139700  1
  O  O3  1  0.12993000  0.81721400  0.68505000  1
  O  O4  1  0.23815400  0.85427000  0.34264600  1
  O  O5  1  0.93160500  0.94567100  0.63871900  1
  O  O6  1  0.99557500  0.74689600  0.44093000  1
  O  O7  1  0.71310000  0.99732600  0.17959500  1
  O  O8  1  0.80218800  0.90175200  0.93573100  1
  O  O9  1  0.37007000  0.31721400  0.81495000  1
  O  O10  1  0.19781200  0.09824800  0.93573100  1
  O  O11  1  0.40158600  0.91640500  0.41860300  1
  O  O12  1  0.67140300  0.83257400  0.62980000  1
  O  O13  1  0.75310400  0.50442500  0.94093000  1
  O  O14  1  0.17140300  0.66742600  0.87020000  1
  O  O15  1  0.99732600  0.28690000  0.82040500  1
  O  O16  1  0.90158600  0.58359500  0.08139700  1
  O  O17  1  0.76184600  0.14573000  0.34264600  1
  O  O18  1  0.78690000  0.49732600  0.32040500  1
  O  O19  1  0.50442500  0.24689600  0.05907000  1
  O  O20  1  0.33257400  0.17140300  0.12980000  1
  O  O21  1  0.35427000  0.73815400  0.84264600  1
  O  O22  1  0.85427000  0.76184600  0.65735400  1
  O  O23  1  0.49732600  0.21310000  0.67959500  1
  O  O24  1  0.87007000  0.18278600  0.68505000  1
  O  O25  1  0.32859700  0.16742600  0.62980000  1
  O  O26  1  0.14573000  0.23815400  0.65735400  1
  O  O27  1  0.94567100  0.06839500  0.36128100  1
  O  O28  1  0.81721400  0.87007000  0.31495000  1
  O  O29  1  0.43160500  0.55432900  0.86128100  1
  O  O30  1  0.58359500  0.09841400  0.91860300  1
  O  O31  1  0.68278600  0.37007000  0.18505000  1
  O  O32  1  0.69781200  0.40175200  0.56426900  1
  O  O33  1  0.50267400  0.78690000  0.67959500  1
  O  O34  1  0.91640500  0.59841400  0.58139700  1
  O  O35  1  0.44567100  0.43160500  0.13871900  1
  O  O36  1  0.49557500  0.75310400  0.05907000  1
  O  O37  1  0.82859700  0.33257400  0.87020000  1
  O  O38  1  0.55432900  0.56839500  0.13871900  1
  O  O39  1  0.66742600  0.82859700  0.12980000  1
  O  O40  1  0.26184600  0.35427000  0.15735400  1
  O  O41  1  0.16742600  0.67140300  0.37020000  1
  O  O42  1  0.56839500  0.44567100  0.86128100  1
  O  O43  1  0.25310400  0.99557500  0.55907000  1
  O  O44  1  0.24689600  0.49557500  0.94093000  1
  O  O45  1  0.09824800  0.80218800  0.06426900  1
  O  O46  1  0.05432900  0.93160500  0.36128100  1
  O  O47  1  0.00267400  0.71310000  0.82040500  1
  O  O48  1  0.06839500  0.05432900  0.63871900  1
  O  O49  1  0.40175200  0.30218800  0.43573100  1
  O  O50  1  0.74689600  0.00442500  0.55907000  1
  O  O51  1  0.31721400  0.62993000  0.18505000  1
  O  O52  1  0.21310000  0.50267400  0.32040500  1
  O  O53  1  0.90175200  0.19781200  0.06426900  1
  O  O54  1  0.59841400  0.08359500  0.41860300  1
  O  O55  1  0.18278600  0.12993000  0.31495000  1
  O  O56  1  0.41640500  0.90158600  0.91860300  1
  O  O57  1  0.73815400  0.64573000  0.15735400  1
  O  O58  1  0.30218800  0.59824800  0.56426900  1
  O  O59  1  0.62993000  0.68278600  0.81495000  1
  O  O60  1  0.28690000  0.00267400  0.17959500  1
  O  O61  1  0.64573000  0.26184600  0.84264600  1
  O  O62  1  0.09841400  0.41640500  0.08139700  1
  O  O63  1  0.83257400  0.32859700  0.37020000  1
loop_
_geom_bond_atom_site_label_1
_geom_bond_atom_site_label_2
_geom_bond_distance
_geom_bond_site_symmetry_2
Mo0 O13 1.938884 1_555
Mo0 O61 1.946238 1_555
Mo0 O32 2.013125 1_555
Mo0 O42 2.029637 1_555
Mo0 O37 2.059344 1_555
Mo0 O31 2.059592 1_556
Mo1 O50 1.938884 1_565
Mo1 O22 1.946238 1_555
Mo1 O8 2.013125 1_555
Mo1 O5 2.029637 1_555
Mo1 O12 2.059344 1_555
Mo1 O28 2.059592 1_555
Mo2 O36 1.938884 1_555
Mo2 O57 1.946238 1_555
Mo2 O0 2.013125 1_555
Mo2 O38 2.029637 1_555
Mo2 O39 2.059344 1_555
Mo2 O59 2.059592 1_554
Mo3 O1 1.938884 1_655
Mo3 O17 1.946238 1_555
Mo3 O53 2.013125 1_555
Mo3 O27 2.029637 1_555
Mo3 O63 2.059344 1_555
Mo3 O24 2.059592 1_555
Mo4 O19 1.938884 1_555
Mo4 O40 1.946238 1_555
Mo4 O49 2.013125 1_555
Mo4 O35 2.029637 1_555
Mo4 O20 2.059344 1_555
Mo4 O9 2.059592 1_554
Mo5 O6 1.938884 1_455
Mo5 O4 1.946238 1_555
Mo5 O45 2.013125 1_555
Mo5 O46 2.029637 1_555
Mo5 O41 2.059344 1_555
Mo5 O3 2.059592 1_555
Mo6 O44 1.938884 1_555
Mo6 O21 1.946238 1_555
Mo6 O58 2.013125 1_555
Mo6 O29 2.029637 1_555
Mo6 O14 2.059344 1_555
Mo6 O51 2.059592 1_556
Mo7 O43 1.938884 1_545
Mo7 O26 1.946238 1_555
Mo7 O10 2.013125 1_555
Mo7 O48 2.029637 1_555
Mo7 O25 2.059344 1_555
Mo7 O55 2.059592 1_555
O0 P7 1.531012 1_555
O1 P8 1.585663 1_555
O2 P8 1.456926 1_555
O3 P11 1.540569 1_555
O4 P2 1.576537 1_555
O5 P15 1.548232 1_665
O6 P12 1.585663 1_555
O7 P9 1.589664 1_555
O7 P3 1.624799 1_565
O8 P9 1.531012 1_556
O9 P1 1.540569 1_555
O10 P14 1.531012 1_556
O11 P2 1.456926 1_555
O12 P7 1.521076 1_555
O13 P0 1.585663 1_556
O14 P11 1.521076 1_555
O15 P6 1.589664 1_555
O15 P8 1.624799 1_655
O16 P0 1.456926 1_555
O17 P3 1.576537 1_555
O18 P16 1.589664 1_555
O18 P0 1.624799 1_555
O19 P4 1.585663 1_554
O20 P14 1.521076 1_555
O21 P5 1.576537 1_555
O22 P12 1.576537 1_555
O23 P1 1.589664 1_555
O23 P4 1.624799 1_555
O24 P6 1.540569 1_555
O25 P1 1.521076 1_555
O26 P8 1.576537 1_555
O27 P15 1.548232 1_655
O28 P9 1.540569 1_555
O29 P10 1.548232 1_556
O30 P4 1.456926 1_555
O31 P16 1.540569 1_555
O32 P16 1.531012 1_555
O33 P7 1.589664 1_555
O33 P5 1.624799 1_555
O34 P12 1.456926 1_555
O35 P10 1.548232 1_555
O36 P5 1.585663 1_554
O37 P6 1.521076 1_555
O38 P10 1.548232 1_555
O39 P9 1.521076 1_555
O40 P17 1.576537 1_555
O41 P13 1.521076 1_555
O42 P10 1.548232 1_556
O43 P2 1.585663 1_555
O44 P17 1.585663 1_556
O45 P11 1.531012 1_554
O46 P15 1.548232 1_565
O47 P11 1.589664 1_555
O47 P12 1.624799 1_455
O48 P15 1.548232 1_555
O49 P1 1.531012 1_555
O50 P3 1.585663 1_555
O51 P13 1.540569 1_555
O52 P13 1.589664 1_555
O52 P17 1.624799 1_555
O53 P6 1.531012 1_554
O54 P3 1.456926 1_555
O55 P14 1.540569 1_555
O56 P5 1.456926 1_555
O57 P0 1.576537 1_555
O58 P13 1.531012 1_555
O59 P7 1.540569 1_555
O60 P14 1.589664 1_555
O60 P2 1.624799 1_545
O61 P4 1.576537 1_555
O62 P17 1.456926 1_555
O63 P16 1.521076 1_555
