# generated using pymatgen
data_K4CO4
_symmetry_space_group_name_H-M   'P 1'
_cell_length_a   6.11228834
_cell_length_b   6.11228834
_cell_length_c   5.67910082
_cell_angle_alpha   67.55580268
_cell_angle_beta   67.55580268
_cell_angle_gamma   55.65219367
_symmetry_Int_Tables_number   1
_chemical_formula_structural   K4CO4
_chemical_formula_sum   'K4 C1 O4'
_cell_volume   158.01051460
_cell_formula_units_Z   1
loop_
 _symmetry_equiv_pos_site_id
 _symmetry_equiv_pos_as_xyz
  1  'x, y, z'
loop_
 _atom_site_type_symbol
 _atom_site_label
 _atom_site_symmetry_multiplicity
 _atom_site_fract_x
 _atom_site_fract_y
 _atom_site_fract_z
 _atom_site_occupancy
  K  K0  1  0.81288100  0.88535100  0.48197000  1
  K  K1  1  0.51307500  0.76111600  0.13291100  1
  K  K2  1  0.11464900  0.18711900  0.51803000  1
  K  K3  1  0.23888400  0.48692500  0.86708900  1
  C  C0  1  0.74292100  0.25707900  0.00000000  1
  O  O0  1  0.80192600  0.03087300  0.91909100  1
  O  O1  1  0.96912700  0.19807400  0.08090900  1
  O  O2  1  0.50459800  0.31545600  0.21425800  1
  O  O3  1  0.68454400  0.49540200  0.78574200  1
loop_
_geom_bond_atom_site_label_1
_geom_bond_atom_site_label_2
_geom_bond_distance
_geom_bond_site_symmetry_2
K0 O2 2.513772 1_565
K0 O1 2.613078 1_565
K0 O3 2.685009 1_555
K0 O0 2.906906 1_565
K1 O3 2.563176 1_554
K1 O2 2.610822 1_555
K1 O0 2.725702 1_564
K1 O1 2.898574 1_465
K2 O3 2.513772 1_455
K2 O0 2.613078 1_455
K2 O2 2.685009 1_555
K2 O1 2.906906 1_455
K3 O2 2.563176 1_556
K3 O3 2.610822 1_555
K3 O1 2.725702 1_456
K3 O0 2.898574 1_465
C0 O1 1.431346 1_555
C0 O0 1.431346 1_554
C0 O2 1.456517 1_555
C0 O3 1.456517 1_554
