# generated using pymatgen
data_Ba5B3CNO9
_symmetry_space_group_name_H-M   'P 1'
_cell_length_a   9.18132303
_cell_length_b   9.18132303
_cell_length_c   8.09524200
_cell_angle_alpha   90.00000000
_cell_angle_beta   90.00000000
_cell_angle_gamma   109.60231090
_symmetry_Int_Tables_number   1
_chemical_formula_structural   Ba5B3CNO9
_chemical_formula_sum   'Ba10 B6 C2 N2 O18'
_cell_volume   642.85277540
_cell_formula_units_Z   2
loop_
 _symmetry_equiv_pos_site_id
 _symmetry_equiv_pos_as_xyz
  1  'x, y, z'
loop_
 _atom_site_type_symbol
 _atom_site_label
 _atom_site_symmetry_multiplicity
 _atom_site_fract_x
 _atom_site_fract_y
 _atom_site_fract_z
 _atom_site_occupancy
  Ba  Ba0  1  0.74104400  0.74104400  0.50000000  1
  Ba  Ba1  1  0.25895600  0.25895600  0.00000000  1
  Ba  Ba2  1  0.13843000  0.86157000  0.75000000  1
  Ba  Ba3  1  0.23469200  0.49339600  0.56492600  1
  Ba  Ba4  1  0.85490800  0.14509200  0.75000000  1
  Ba  Ba5  1  0.86157000  0.13843000  0.25000000  1
  Ba  Ba6  1  0.14509200  0.85490800  0.25000000  1
  Ba  Ba7  1  0.50660400  0.76530800  0.93507400  1
  Ba  Ba8  1  0.76530800  0.50660400  0.06492600  1
  Ba  Ba9  1  0.49339600  0.23469200  0.43507400  1
  B  B0  1  0.09534700  0.51497500  0.96837900  1
  B  B1  1  0.12736300  0.12736300  0.50000000  1
  B  B2  1  0.87263700  0.87263700  0.00000000  1
  B  B3  1  0.51497500  0.09534700  0.03162100  1
  B  B4  1  0.48502500  0.90465300  0.53162100  1
  B  B5  1  0.90465300  0.48502500  0.46837900  1
  C  C0  1  0.38423200  0.61576800  0.25000000  1
  C  C1  1  0.61576800  0.38423200  0.75000000  1
  N  N0  1  0.46304600  0.53695400  0.25000000  1
  N  N1  1  0.53695400  0.46304600  0.75000000  1
  O  O0  1  0.99205300  0.36787200  0.01073600  1
  O  O1  1  0.36787200  0.99205300  0.98926400  1
  O  O2  1  0.06207700  0.64798300  0.00786500  1
  O  O3  1  0.76994000  0.47283700  0.38215100  1
  O  O4  1  0.99467300  0.99467300  0.50000000  1
  O  O5  1  0.35201700  0.93792300  0.49213500  1
  O  O6  1  0.23006000  0.52716300  0.88215100  1
  O  O7  1  0.47283700  0.76994000  0.61784900  1
  O  O8  1  0.80771800  0.80936100  0.15078000  1
  O  O9  1  0.19228200  0.19063900  0.65078000  1
  O  O10  1  0.00532700  0.00532700  0.00000000  1
  O  O11  1  0.64798300  0.06207700  0.99213500  1
  O  O12  1  0.00794700  0.63212800  0.51073600  1
  O  O13  1  0.63212800  0.00794700  0.48926400  1
  O  O14  1  0.80936100  0.80771800  0.84922000  1
  O  O15  1  0.93792300  0.35201700  0.50786500  1
  O  O16  1  0.19063900  0.19228200  0.34922000  1
  O  O17  1  0.52716300  0.23006000  0.11784900  1
loop_
_geom_bond_atom_site_label_1
_geom_bond_atom_site_label_2
_geom_bond_distance
_geom_bond_site_symmetry_2
Ba0 O4 2.684541 1_555
Ba0 O7 2.735465 1_555
Ba0 O3 2.735465 1_555
Ba0 O8 2.915917 1_555
Ba0 O14 2.915917 1_555
Ba0 O13 2.942251 1_565
Ba0 O12 2.942251 1_655
Ba0 N0 3.303421 1_555
Ba0 N1 3.303421 1_555
Ba1 O10 2.684541 1_555
Ba1 O17 2.735465 1_555
Ba1 O6 2.735465 1_554
Ba1 O9 2.915917 1_554
Ba1 O16 2.915917 1_555
Ba1 O0 2.942251 1_455
Ba1 O1 2.942251 1_544
Ba1 N1 3.303421 1_554
Ba1 N0 3.303421 1_555
Ba2 O5 2.787860 1_555
Ba2 O2 2.787860 1_556
Ba2 O1 2.816227 1_555
Ba2 O12 2.816227 1_555
Ba2 O4 2.900620 1_455
Ba2 O10 2.900620 1_566
Ba2 O14 3.002577 1_455
Ba2 O9 3.002577 1_565
Ba3 O6 2.588718 1_555
Ba3 O15 2.636157 1_455
Ba3 O9 2.763186 1_555
Ba3 O7 2.772364 1_555
Ba3 O12 2.815683 1_555
Ba3 C0 2.934587 1_555
Ba3 O16 3.178938 1_555
Ba3 N0 3.239211 1_555
Ba3 N1 3.246956 1_555
Ba4 O15 2.657234 1_555
Ba4 O11 2.657234 1_555
Ba4 O0 2.914834 1_556
Ba4 O13 2.914834 1_555
Ba4 O4 2.973025 1_545
Ba4 O10 2.973025 1_656
Ba4 O9 3.089601 1_655
Ba4 O14 3.089601 1_545
Ba5 O15 2.787860 1_555
Ba5 O11 2.787860 1_554
Ba5 O13 2.816227 1_555
Ba5 O0 2.816227 1_555
Ba5 O4 2.900620 1_545
Ba5 O10 2.900620 1_655
Ba5 O8 3.002577 1_545
Ba5 O16 3.002577 1_655
Ba6 O5 2.657234 1_555
Ba6 O2 2.657234 1_555
Ba6 O12 2.914834 1_555
Ba6 O1 2.914834 1_554
Ba6 O10 2.973025 1_565
Ba6 O4 2.973025 1_455
Ba6 O16 3.089601 1_565
Ba6 O8 3.089601 1_455
Ba7 O7 2.588718 1_555
Ba7 O11 2.636157 1_565
Ba7 O14 2.763186 1_555
Ba7 O6 2.772364 1_555
Ba7 O1 2.815683 1_555
Ba7 C0 2.934587 1_556
Ba7 O8 3.178938 1_556
Ba7 N0 3.239211 1_556
Ba7 N1 3.246956 1_555
Ba8 O3 2.588718 1_555
Ba8 O2 2.636157 1_655
Ba8 O8 2.763186 1_555
Ba8 O17 2.772364 1_555
Ba8 O0 2.815683 1_555
Ba8 C1 2.934587 1_554
Ba8 O14 3.178938 1_554
Ba8 N1 3.239211 1_554
Ba8 N0 3.246956 1_555
Ba9 O17 2.588718 1_555
Ba9 O5 2.636157 1_545
Ba9 O16 2.763186 1_555
Ba9 O3 2.772364 1_555
Ba9 O13 2.815683 1_555
Ba9 C1 2.934587 1_555
Ba9 O9 3.178938 1_555
Ba9 N1 3.239211 1_555
Ba9 N0 3.246956 1_555
B0 O6 1.391651 1_555
B0 O2 1.391790 1_556
B0 O0 1.407718 1_456
B1 O16 1.396532 1_555
B1 O9 1.396532 1_555
B1 O4 1.404460 1_445
B2 O14 1.396532 1_554
B2 O8 1.396532 1_555
B2 O10 1.404460 1_665
B3 O17 1.391651 1_555
B3 O11 1.391790 1_554
B3 O1 1.407718 1_544
B4 O7 1.391651 1_555
B4 O5 1.391790 1_555
B4 O13 1.407718 1_565
B5 O3 1.391651 1_555
B5 O15 1.391790 1_555
B5 O12 1.407718 1_655
C0 N0 1.182616 1_555
C1 N1 1.182616 1_555
