# generated using pymatgen
data_Y3GaO6
_symmetry_space_group_name_H-M   'P 1'
_cell_length_a   7.09278887
_cell_length_b   7.09278887
_cell_length_c   5.40752064
_cell_angle_alpha   90.00000000
_cell_angle_beta   90.00000000
_cell_angle_gamma   102.86144665
_symmetry_Int_Tables_number   1
_chemical_formula_structural   Y3GaO6
_chemical_formula_sum   'Y6 Ga2 O12'
_cell_volume   265.21452625
_cell_formula_units_Z   2
loop_
 _symmetry_equiv_pos_site_id
 _symmetry_equiv_pos_as_xyz
  1  'x, y, z'
loop_
 _atom_site_type_symbol
 _atom_site_label
 _atom_site_symmetry_multiplicity
 _atom_site_fract_x
 _atom_site_fract_y
 _atom_site_fract_z
 _atom_site_occupancy
  Y  Y0  1  0.08792123  0.29856963  0.46796850  1
  Y  Y1  1  0.70143037  0.91207877  0.46796850  1
  Y  Y2  1  0.39765893  0.60234107  0.92151314  1
  Y  Y3  1  0.60234107  0.39765893  0.42151314  1
  Y  Y4  1  0.91207877  0.70143037  0.96796850  1
  Y  Y5  1  0.29856963  0.08792123  0.96796850  1
  Ga  Ga0  1  0.19336357  0.80663643  0.49939158  1
  Ga  Ga1  1  0.80663643  0.19336357  0.99939158  1
  O  O0  1  0.32279289  0.35627792  0.19554617  1
  O  O1  1  0.78455547  0.21544453  0.66214208  1
  O  O2  1  0.57810077  0.10605370  0.17837725  1
  O  O3  1  0.67720711  0.64372208  0.69554617  1
  O  O4  1  0.42189923  0.89394630  0.67837725  1
  O  O5  1  0.35627792  0.32279289  0.69554617  1
  O  O6  1  0.89394630  0.42189923  0.17837725  1
  O  O7  1  0.96062976  0.03937024  0.14238836  1
  O  O8  1  0.10605370  0.57810077  0.67837725  1
  O  O9  1  0.03937024  0.96062976  0.64238836  1
  O  O10  1  0.64372208  0.67720711  0.19554617  1
  O  O11  1  0.21544453  0.78455547  0.16214208  1
loop_
_geom_bond_atom_site_label_1
_geom_bond_atom_site_label_2
_geom_bond_distance
_geom_bond_site_symmetry_2
Ga0 O11 1.840054 1_555
Ga0 O4 1.871063 1_555
Ga0 O8 1.871063 1_555
Ga0 O9 1.874839 1_555
Ga1 O1 1.840054 1_555
Ga1 O6 1.871063 1_556
Ga1 O2 1.871063 1_556
Ga1 O7 1.874839 1_556
O0 Y0 2.193010 1_555
O0 Y5 2.240827 1_554
O0 Y2 2.260800 1_554
O0 Y3 2.291628 1_555
O1 Y1 2.348443 1_545
O1 Y0 2.348443 1_655
O1 Y3 2.403618 1_555
O2 Y5 2.264621 1_554
O2 Y1 2.376158 1_545
O2 Y3 2.424395 1_555
O3 Y4 2.193010 1_555
O3 Y1 2.240827 1_555
O3 Y3 2.260800 1_555
O3 Y2 2.291628 1_555
O4 Y1 2.264621 1_555
O4 Y5 2.376158 1_565
O4 Y2 2.424395 1_555
O5 Y5 2.193010 1_555
O5 Y0 2.240827 1_555
O5 Y3 2.260800 1_555
O5 Y2 2.291628 1_555
O6 Y4 2.264621 1_554
O6 Y0 2.376158 1_655
O6 Y3 2.424395 1_555
O7 Y5 2.527056 1_654
O7 Y4 2.527056 1_544
O7 Y1 2.560416 1_545
O7 Y0 2.560416 1_655
O8 Y0 2.264621 1_555
O8 Y4 2.376158 1_455
O8 Y2 2.424395 1_555
O9 Y0 2.527056 1_565
O9 Y1 2.527056 1_455
O9 Y5 2.560416 1_565
O9 Y4 2.560416 1_455
O10 Y1 2.193010 1_555
O10 Y4 2.240827 1_554
O10 Y2 2.260800 1_554
O10 Y3 2.291628 1_555
O11 Y4 2.348443 1_454
O11 Y5 2.348443 1_564
O11 Y2 2.403618 1_554
