# generated using pymatgen
data_Ba2PrIrO6
_symmetry_space_group_name_H-M   'P 1'
_cell_length_a   6.03839495
_cell_length_b   6.03469015
_cell_length_c   8.59674804
_cell_angle_alpha   90.00000000
_cell_angle_beta   90.00000000
_cell_angle_gamma   89.99983727
_symmetry_Int_Tables_number   1
_chemical_formula_structural   Ba2PrIrO6
_chemical_formula_sum   'Ba4 Pr2 Ir2 O12'
_cell_volume   313.26414486
_cell_formula_units_Z   2
loop_
 _symmetry_equiv_pos_site_id
 _symmetry_equiv_pos_as_xyz
  1  'x, y, z'
loop_
 _atom_site_type_symbol
 _atom_site_label
 _atom_site_symmetry_multiplicity
 _atom_site_fract_x
 _atom_site_fract_y
 _atom_site_fract_z
 _atom_site_occupancy
  Ba  Ba0  1  0.50000000  -0.00000000  0.24941412  1
  Ba  Ba1  1  0.50000000  -0.00000000  0.75058588  1
  Ba  Ba2  1  -0.00000000  0.50000000  0.74970435  1
  Ba  Ba3  1  -0.00000000  0.50000000  0.25029565  1
  Pr  Pr0  1  0.50000000  0.50000000  0.00000000  1
  Pr  Pr1  1  -0.00000000  -0.00000000  0.50000000  1
  Ir  Ir0  1  0.50000000  0.50000000  0.50000000  1
  Ir  Ir1  1  -0.00000000  -0.00000000  0.00000000  1
  O  O0  1  0.78759177  0.23878807  0.00000000  1
  O  O1  1  0.50000000  0.50000000  0.26892747  1
  O  O2  1  -0.00000000  -0.00000000  0.76895234  1
  O  O3  1  0.21240823  0.76121193  0.00000000  1
  O  O4  1  0.71315058  0.73801328  0.50000000  1
  O  O5  1  0.28684942  0.26198672  0.50000000  1
  O  O6  1  -0.00000000  -0.00000000  0.23104766  1
  O  O7  1  0.50000000  0.50000000  0.73107253  1
  O  O8  1  0.25559029  0.71894648  0.50000000  1
  O  O9  1  0.74440971  0.28105352  0.50000000  1
  O  O10  1  0.75469813  0.78192308  0.00000000  1
  O  O11  1  0.24530187  0.21807692  0.00000000  1
loop_
_geom_bond_atom_site_label_1
_geom_bond_atom_site_label_2
_geom_bond_distance
_geom_bond_site_symmetry_2
Ba0 O11 2.948668 1_555
Ba0 O10 2.948668 1_545
Ba0 O5 2.965948 1_555
Ba0 O4 2.965948 1_545
Ba0 O1 3.022005 1_555
Ba0 O1 3.022005 1_545
Ba0 O6 3.023323 1_655
Ba0 O6 3.023323 1_555
Ba0 O3 3.112823 1_545
Ba0 O0 3.112823 1_555
Ba0 O9 3.113754 1_555
Ba0 O8 3.113754 1_545
Ba1 O11 2.948668 1_556
Ba1 O10 2.948668 1_546
Ba1 O5 2.965948 1_555
Ba1 O4 2.965948 1_545
Ba1 O7 3.022005 1_555
Ba1 O7 3.022005 1_545
Ba1 O2 3.023323 1_655
Ba1 O2 3.023323 1_555
Ba1 O0 3.112823 1_556
Ba1 O3 3.112823 1_546
Ba1 O9 3.113754 1_555
Ba1 O8 3.113754 1_545
Ba2 O9 2.955640 1_455
Ba2 O8 2.955640 1_555
Ba2 O0 2.959704 1_456
Ba2 O3 2.959704 1_556
Ba2 O2 3.021879 1_565
Ba2 O2 3.021879 1_555
Ba2 O7 3.023443 1_455
Ba2 O7 3.023443 1_555
Ba2 O5 3.109878 1_555
Ba2 O4 3.109878 1_455
Ba2 O10 3.117442 1_456
Ba2 O11 3.117442 1_556
Ba3 O9 2.955640 1_455
Ba3 O8 2.955640 1_555
Ba3 O0 2.959704 1_455
Ba3 O3 2.959704 1_555
Ba3 O6 3.021879 1_555
Ba3 O6 3.021879 1_565
Ba3 O1 3.023443 1_455
Ba3 O1 3.023443 1_555
Ba3 O5 3.109878 1_555
Ba3 O4 3.109878 1_455
Ba3 O10 3.117442 1_455
Ba3 O11 3.117442 1_555
Ir0 O4 1.928644 1_555
Ir0 O5 1.928644 1_555
Ir0 O9 1.980875 1_555
Ir0 O8 1.980875 1_555
Ir0 O1 1.986472 1_555
Ir0 O7 1.986472 1_555
Ir1 O3 1.929140 1_545
Ir1 O0 1.929140 1_455
Ir1 O11 1.981408 1_555
Ir1 O10 1.981408 1_445
Ir1 O2 1.986259 1_554
Ir1 O6 1.986259 1_555
O0 Pr0 2.345328 1_555
O1 Pr0 2.311902 1_555
O2 Pr1 2.312116 1_555
O3 Pr0 2.345328 1_555
O4 Pr1 2.345167 1_665
O5 Pr1 2.345167 1_555
O6 Pr1 2.312116 1_555
O7 Pr0 2.311902 1_556
O8 Pr1 2.293161 1_565
O9 Pr1 2.293161 1_655
O10 Pr0 2.293435 1_555
O11 Pr0 2.293435 1_555
