# generated using pymatgen
data_Yb4Ge6Rh7
_symmetry_space_group_name_H-M   'P 1'
_cell_length_a   7.23007717
_cell_length_b   7.23007717
_cell_length_c   7.23007717
_cell_angle_alpha   109.47122063
_cell_angle_beta   109.47122063
_cell_angle_gamma   109.47122063
_symmetry_Int_Tables_number   1
_chemical_formula_structural   Yb4Ge6Rh7
_chemical_formula_sum   'Yb4 Ge6 Rh7'
_cell_volume   290.94232654
_cell_formula_units_Z   1
loop_
 _symmetry_equiv_pos_site_id
 _symmetry_equiv_pos_as_xyz
  1  'x, y, z'
loop_
 _atom_site_type_symbol
 _atom_site_label
 _atom_site_symmetry_multiplicity
 _atom_site_fract_x
 _atom_site_fract_y
 _atom_site_fract_z
 _atom_site_occupancy
  Yb  Yb0  1  0.00000000  0.00000000  0.50000000  1
  Yb  Yb1  1  0.00000000  0.50000000  0.00000000  1
  Yb  Yb2  1  0.50000000  0.00000000  0.00000000  1
  Yb  Yb3  1  0.50000000  0.50000000  0.50000000  1
  Ge  Ge0  1  0.67971100  0.67971100  0.00000000  1
  Ge  Ge1  1  0.32028900  0.00000000  0.32028900  1
  Ge  Ge2  1  0.00000000  0.32028900  0.32028900  1
  Ge  Ge3  1  0.32028900  0.32028900  0.00000000  1
  Ge  Ge4  1  0.67971100  0.00000000  0.67971100  1
  Ge  Ge5  1  0.00000000  0.67971100  0.67971100  1
  Rh  Rh0  1  0.75000000  0.25000000  0.50000000  1
  Rh  Rh1  1  0.75000000  0.50000000  0.25000000  1
  Rh  Rh2  1  0.50000000  0.25000000  0.75000000  1
  Rh  Rh3  1  0.25000000  0.50000000  0.75000000  1
  Rh  Rh4  1  0.25000000  0.75000000  0.50000000  1
  Rh  Rh5  1  0.50000000  0.75000000  0.25000000  1
  Rh  Rh6  1  0.00000000  0.00000000  0.00000000  1
loop_
_geom_bond_atom_site_label_1
_geom_bond_atom_site_label_2
_geom_bond_distance
_geom_bond_site_symmetry_2
Ge0 Rh2 2.570440 1_554
Ge0 Rh5 2.570440 1_555
Ge0 Rh1 2.570440 1_555
Ge0 Rh3 2.570440 1_554
Ge0 Rh6 2.673956 1_665
Ge0 Yb2 3.009433 1_565
Ge0 Yb1 3.009433 1_655
Ge0 Yb0 3.009433 1_665
Ge0 Yb3 3.009433 1_554
Ge1 Rh0 2.570440 1_555
Ge1 Rh5 2.570440 1_545
Ge1 Rh2 2.570440 1_555
Ge1 Rh4 2.570440 1_545
Ge1 Rh6 2.673956 1_555
Ge1 Yb0 3.009433 1_555
Ge1 Yb1 3.009433 1_545
Ge1 Yb3 3.009433 1_555
Ge1 Yb2 3.009433 1_555
Ge2 Rh4 2.570440 1_555
Ge2 Rh0 2.570440 1_455
Ge2 Rh1 2.570440 1_455
Ge2 Rh3 2.570440 1_555
Ge2 Rh6 2.673956 1_555
Ge2 Yb0 3.009433 1_555
Ge2 Yb1 3.009433 1_555
Ge2 Yb2 3.009433 1_455
Ge2 Yb3 3.009433 1_555
Ge3 Rh1 2.570440 1_555
Ge3 Rh3 2.570440 1_554
Ge3 Rh2 2.570440 1_554
Ge3 Rh5 2.570440 1_555
Ge3 Rh6 2.673956 1_555
Ge3 Yb0 3.009433 1_554
Ge3 Yb1 3.009433 1_555
Ge3 Yb2 3.009433 1_555
Ge3 Yb3 3.009433 1_555
Ge4 Rh2 2.570440 1_555
Ge4 Rh4 2.570440 1_545
Ge4 Rh0 2.570440 1_555
Ge4 Rh5 2.570440 1_545
Ge4 Rh6 2.673956 1_656
Ge4 Yb3 3.009433 1_545
Ge4 Yb0 3.009433 1_655
Ge4 Yb1 3.009433 1_656
Ge4 Yb2 3.009433 1_556
Ge5 Rh1 2.570440 1_455
Ge5 Rh3 2.570440 1_555
Ge5 Rh4 2.570440 1_555
Ge5 Rh0 2.570440 1_455
Ge5 Rh6 2.673956 1_566
Ge5 Yb2 3.009433 1_566
Ge5 Yb1 3.009433 1_556
Ge5 Yb3 3.009433 1_455
Ge5 Yb0 3.009433 1_565
Rh0 Yb0 2.951667 1_655
Rh0 Yb2 2.951667 1_555
Rh0 Yb1 2.951667 1_656
Rh0 Yb3 2.951667 1_555
Rh1 Yb2 2.951667 1_555
Rh1 Yb0 2.951667 1_665
Rh1 Yb3 2.951667 1_555
Rh1 Yb1 2.951667 1_655
Rh2 Yb2 2.951667 1_556
Rh2 Yb1 2.951667 1_656
Rh2 Yb3 2.951667 1_555
Rh2 Yb0 2.951667 1_555
Rh3 Yb2 2.951667 1_566
Rh3 Yb3 2.951667 1_555
Rh3 Yb0 2.951667 1_555
Rh3 Yb1 2.951667 1_556
Rh4 Yb0 2.951667 1_565
Rh4 Yb2 2.951667 1_566
Rh4 Yb3 2.951667 1_555
Rh4 Yb1 2.951667 1_555
Rh5 Yb0 2.951667 1_665
Rh5 Yb3 2.951667 1_555
Rh5 Yb2 2.951667 1_565
Rh5 Yb1 2.951667 1_555
