# generated using pymatgen
data_RbBa4Sb3O
_symmetry_space_group_name_H-M   'P 1'
_cell_length_a   10.55673321
_cell_length_b   10.55673321
_cell_length_c   10.55673321
_cell_angle_alpha   129.12287568
_cell_angle_beta   129.12287568
_cell_angle_gamma   74.81294182
_symmetry_Int_Tables_number   1
_chemical_formula_structural   RbBa4Sb3O
_chemical_formula_sum   'Rb2 Ba8 Sb6 O2'
_cell_volume   689.71817981
_cell_formula_units_Z   2
loop_
 _symmetry_equiv_pos_site_id
 _symmetry_equiv_pos_as_xyz
  1  'x, y, z'
loop_
 _atom_site_type_symbol
 _atom_site_label
 _atom_site_symmetry_multiplicity
 _atom_site_fract_x
 _atom_site_fract_y
 _atom_site_fract_z
 _atom_site_occupancy
  Rb  Rb0  1  0.50000000  0.50000000  0.00000000  1
  Rb  Rb1  1  0.00000000  0.00000000  0.00000000  1
  Ba  Ba0  1  0.18876300  0.00246900  0.50000000  1
  Ba  Ba1  1  0.50246900  0.68876300  0.50000000  1
  Ba  Ba2  1  0.49753100  0.31123700  0.50000000  1
  Ba  Ba3  1  0.00246900  0.50246900  0.81370700  1
  Ba  Ba4  1  0.81123700  0.99753100  0.50000000  1
  Ba  Ba5  1  0.68876300  0.18876300  0.18629300  1
  Ba  Ba6  1  0.99753100  0.49753100  0.18629300  1
  Ba  Ba7  1  0.31123700  0.81123700  0.81370700  1
  Sb  Sb0  1  0.11361400  0.38638600  0.50000000  1
  Sb  Sb1  1  0.61361400  0.11361400  0.72722800  1
  Sb  Sb2  1  0.88638600  0.61361400  0.50000000  1
  Sb  Sb3  1  0.38638600  0.88638600  0.27277200  1
  Sb  Sb4  1  0.75000000  0.75000000  0.00000000  1
  Sb  Sb5  1  0.25000000  0.25000000  0.00000000  1
  O  O0  1  0.75000000  0.25000000  0.50000000  1
  O  O1  1  0.25000000  0.75000000  0.50000000  1
loop_
_geom_bond_atom_site_label_1
_geom_bond_atom_site_label_2
_geom_bond_distance
_geom_bond_site_symmetry_2
Rb0 Sb2 3.652537 1_555
Rb0 Sb3 3.652537 1_555
Rb0 Sb0 3.652537 1_554
Rb0 Sb1 3.652537 1_554
Rb0 Sb4 4.192850 1_555
Rb0 Sb5 4.192850 1_555
Rb1 Sb1 3.652537 1_454
Rb1 Sb3 3.652537 1_545
Rb1 Sb2 3.652537 1_444
Rb1 Sb0 3.652537 1_555
Rb1 Sb4 4.192850 1_445
Rb1 Sb5 4.192850 1_555
Ba0 O1 2.572687 1_545
Ba0 Sb1 3.588126 1_555
Ba0 Sb3 3.588126 1_545
Ba0 Sb5 3.778888 1_556
Ba0 Sb4 3.778888 1_445
Ba0 Sb0 3.920564 1_555
Ba1 O1 2.572687 1_555
Ba1 Sb1 3.588126 1_565
Ba1 Sb3 3.588126 1_555
Ba1 Sb5 3.778888 1_555
Ba1 Sb4 3.778888 1_556
Ba1 Sb2 3.920564 1_555
Ba2 O0 2.572687 1_555
Ba2 Sb3 3.588126 1_545
Ba2 Sb1 3.588126 1_555
Ba2 Sb5 3.778888 1_555
Ba2 Sb4 3.778888 1_556
Ba2 Sb0 3.920564 1_555
Ba3 O0 2.572686 1_455
Ba3 Sb0 3.588136 1_555
Ba3 Sb2 3.588136 1_455
Ba3 Sb5 3.778883 1_556
Ba3 Sb4 3.778883 1_456
Ba3 Sb3 3.920564 1_556
Ba4 O0 2.572687 1_565
Ba4 Sb3 3.588126 1_555
Ba4 Sb1 3.588126 1_565
Ba4 Sb4 3.778888 1_555
Ba4 Sb5 3.778888 1_666
Ba4 Sb2 3.920564 1_555
Ba5 O0 2.572697 1_555
Ba5 Sb0 3.588124 1_655
Ba5 Sb2 3.588124 1_555
Ba5 Sb4 3.778890 1_545
Ba5 Sb5 3.778890 1_555
Ba5 Sb1 3.920553 1_554
Ba6 O1 2.572686 1_655
Ba6 Sb2 3.588136 1_555
Ba6 Sb0 3.588136 1_655
Ba6 Sb4 3.778883 1_555
Ba6 Sb5 3.778883 1_655
Ba6 Sb1 3.920564 1_554
Ba7 O1 2.572697 1_555
Ba7 Sb2 3.588124 1_455
Ba7 Sb0 3.588124 1_555
Ba7 Sb5 3.778890 1_566
Ba7 Sb4 3.778890 1_556
Ba7 Sb3 3.920553 1_556
Sb0 Sb2 2.914359 1_455
Sb1 Sb3 2.914359 1_545
