# generated using pymatgen
data_KSnAsS5
_symmetry_space_group_name_H-M   'P 1'
_cell_length_a   7.49390376
_cell_length_b   8.27731173
_cell_length_c   13.99012673
_cell_angle_alpha   90.00000000
_cell_angle_beta   90.00000000
_cell_angle_gamma   90.00000000
_symmetry_Int_Tables_number   1
_chemical_formula_structural   KSnAsS5
_chemical_formula_sum   'K4 Sn4 As4 S20'
_cell_volume   867.79885215
_cell_formula_units_Z   4
loop_
 _symmetry_equiv_pos_site_id
 _symmetry_equiv_pos_as_xyz
  1  'x, y, z'
loop_
 _atom_site_type_symbol
 _atom_site_label
 _atom_site_symmetry_multiplicity
 _atom_site_fract_x
 _atom_site_fract_y
 _atom_site_fract_z
 _atom_site_occupancy
  K  K0  1  0.50000000  0.88757033  0.83703572  1
  K  K1  1  0.50000000  0.61242967  0.33703572  1
  K  K2  1  0.50000000  0.38757033  0.66296428  1
  K  K3  1  0.50000000  0.11242967  0.16296428  1
  Sn  Sn0  1  0.73244439  0.00000000  0.50000000  1
  Sn  Sn1  1  0.73244439  0.50000000  0.00000000  1
  Sn  Sn2  1  0.26755561  0.50000000  0.00000000  1
  Sn  Sn3  1  0.26755561  0.00000000  0.50000000  1
  As  As0  1  -0.00000000  0.69648815  0.77795734  1
  As  As1  1  -0.00000000  0.80351185  0.27795734  1
  As  As2  1  -0.00000000  0.30351185  0.22204266  1
  As  As3  1  -0.00000000  0.19648815  0.72204266  1
  S  S0  1  -0.00000000  0.71284155  0.02379794  1
  S  S1  1  0.23580905  0.54831971  0.81801212  1
  S  S2  1  -0.00000000  0.78715845  0.52379794  1
  S  S3  1  0.50000000  0.20832358  0.46269104  1
  S  S4  1  0.76419095  0.04831971  0.68198788  1
  S  S5  1  0.23580905  0.95168029  0.31801212  1
  S  S6  1  0.76419095  0.54831971  0.81801212  1
  S  S7  1  -0.00000000  0.86419429  0.91035090  1
  S  S8  1  -0.00000000  0.36419429  0.58964910  1
  S  S9  1  -0.00000000  0.28715845  0.97620206  1
  S  S10  1  0.76419095  0.95168029  0.31801212  1
  S  S11  1  -0.00000000  0.13580571  0.08964910  1
  S  S12  1  0.76419095  0.45168029  0.18198788  1
  S  S13  1  0.50000000  0.29167642  0.96269104  1
  S  S14  1  0.23580905  0.45168029  0.18198788  1
  S  S15  1  -0.00000000  0.21284155  0.47620206  1
  S  S16  1  0.50000000  0.70832358  0.03730896  1
  S  S17  1  0.23580905  0.04831971  0.68198788  1
  S  S18  1  0.50000000  0.79167642  0.53730896  1
  S  S19  1  -0.00000000  0.63580571  0.41035090  1
loop_
_geom_bond_atom_site_label_1
_geom_bond_atom_site_label_2
_geom_bond_distance
_geom_bond_site_symmetry_2
K0 S16 3.170436 1_556
K0 S17 3.224171 1_565
K0 S4 3.224171 1_565
K0 S6 3.446136 1_555
K0 S1 3.446136 1_555
K0 S13 3.778726 1_565
K1 S18 3.170436 1_555
K1 S14 3.224171 1_555
K1 S12 3.224171 1_555
K1 S10 3.446136 1_555
K1 S5 3.446136 1_555
K1 S3 3.778726 1_555
K2 S3 3.170436 1_555
K2 S6 3.224171 1_555
K2 S1 3.224171 1_555
K2 S17 3.446136 1_555
K2 S4 3.446136 1_555
K2 S18 3.778726 1_555
K3 S13 3.170436 1_554
K3 S10 3.224171 1_545
K3 S5 3.224171 1_545
K3 S14 3.446136 1_555
K3 S12 3.446136 1_555
K3 S16 3.778726 1_545
As0 S1 2.222816 1_555
As0 S6 2.222816 1_455
As0 S7 2.314656 1_555
As1 S10 2.222816 1_455
As1 S5 2.222816 1_555
As1 S19 2.314656 1_555
As2 S12 2.222816 1_455
As2 S14 2.222816 1_555
As2 S11 2.314656 1_555
As3 S4 2.222816 1_455
As3 S17 2.222816 1_555
As3 S8 2.314656 1_555
S0 S7 2.022004 1_554
S0 Sn1 2.689758 1_455
S0 Sn2 2.689758 1_555
S1 Sn2 2.588214 1_556
S2 Sn0 2.689758 1_465
S2 Sn3 2.689758 1_565
S3 Sn3 2.506018 1_555
S3 Sn0 2.506018 1_555
S4 Sn0 2.588214 1_555
S5 Sn3 2.588214 1_565
S6 Sn1 2.588214 1_556
S9 Sn1 2.689758 1_456
S9 Sn2 2.689758 1_556
S10 Sn0 2.588214 1_565
S11 S9 2.022004 1_554
S12 Sn1 2.588214 1_555
S13 Sn1 2.506018 1_556
S13 Sn2 2.506018 1_556
S14 Sn2 2.588214 1_555
S15 S8 2.022004 1_555
S15 Sn0 2.689758 1_455
S15 Sn3 2.689758 1_555
S16 Sn2 2.506018 1_555
S16 Sn1 2.506018 1_555
S17 Sn3 2.588214 1_555
S18 Sn0 2.506018 1_565
S18 Sn3 2.506018 1_565
S19 S2 2.022004 1_555
