# generated using pymatgen
data_NaLuP2O7
_symmetry_space_group_name_H-M   'P 1'
_cell_length_a   5.33710537
_cell_length_b   8.95505819
_cell_length_c   13.72506141
_cell_angle_alpha   63.91395538
_cell_angle_beta   90.00000000
_cell_angle_gamma   90.00000000
_symmetry_Int_Tables_number   1
_chemical_formula_structural   NaLuP2O7
_chemical_formula_sum   'Na4 Lu4 P8 O28'
_cell_volume   589.15553648
_cell_formula_units_Z   4
loop_
 _symmetry_equiv_pos_site_id
 _symmetry_equiv_pos_as_xyz
  1  'x, y, z'
loop_
 _atom_site_type_symbol
 _atom_site_label
 _atom_site_symmetry_multiplicity
 _atom_site_fract_x
 _atom_site_fract_y
 _atom_site_fract_z
 _atom_site_occupancy
  Na  Na0  1  0.77325912  0.55312276  0.80645201  1
  Na  Na1  1  0.22674088  0.44687724  0.19354799  1
  Na  Na2  1  0.72674088  0.55312276  0.30645201  1
  Na  Na3  1  0.27325912  0.44687724  0.69354799  1
  Lu  Lu0  1  0.26265361  0.25627208  0.47469067  1
  Lu  Lu1  1  0.76265361  0.74372792  0.02530933  1
  Lu  Lu2  1  0.73734639  0.74372792  0.52530933  1
  Lu  Lu3  1  0.23734639  0.25627208  0.97469067  1
  P  P0  1  0.24881851  0.82085122  0.15203638  1
  P  P1  1  0.72055524  0.31393749  0.11746784  1
  P  P2  1  0.75118149  0.17914878  0.84796362  1
  P  P3  1  0.27944476  0.68606251  0.88253216  1
  P  P4  1  0.22055524  0.68606251  0.38253216  1
  P  P5  1  0.74881851  0.17914878  0.34796362  1
  P  P6  1  0.25118149  0.82085122  0.65203638  1
  P  P7  1  0.77944476  0.31393749  0.61746784  1
  O  O0  1  0.46439533  0.71460741  0.14404882  1
  O  O1  1  0.11736984  0.72158737  0.95936265  1
  O  O2  1  0.77978943  0.16679778  0.23542669  1
  O  O3  1  0.24124653  0.99652041  0.56559758  1
  O  O4  1  0.05735820  0.31028921  0.59417818  1
  O  O5  1  0.70798879  0.47243421  0.62541563  1
  O  O6  1  0.99958913  0.26656581  0.84061766  1
  O  O7  1  0.29201121  0.52756579  0.37458437  1
  O  O8  1  0.00041087  0.73343419  0.15938234  1
  O  O9  1  0.75875347  0.00347959  0.43440242  1
  O  O10  1  0.27978943  0.83320222  0.26457331  1
  O  O11  1  0.61736984  0.27841263  0.54063735  1
  O  O12  1  0.72021057  0.16679778  0.73542669  1
  O  O13  1  0.55735820  0.68971079  0.90582182  1
  O  O14  1  0.22021057  0.83320222  0.76457331  1
  O  O15  1  0.94264180  0.68971079  0.40582182  1
  O  O16  1  0.38263016  0.72158737  0.45936265  1
  O  O17  1  0.53560467  0.28539259  0.85595118  1
  O  O18  1  0.50041087  0.26656581  0.34061766  1
  O  O19  1  0.44264180  0.31028921  0.09417818  1
  O  O20  1  0.20798879  0.52756579  0.87458437  1
  O  O21  1  0.96439533  0.28539259  0.35595118  1
  O  O22  1  0.74124653  0.00347959  0.93440242  1
  O  O23  1  0.25875347  0.99652041  0.06559758  1
  O  O24  1  0.88263016  0.27841263  0.04063735  1
  O  O25  1  0.03560467  0.71460741  0.64404882  1
  O  O26  1  0.49958913  0.73343419  0.65938234  1
  O  O27  1  0.79201121  0.47243421  0.12541563  1
loop_
_geom_bond_atom_site_label_1
_geom_bond_atom_site_label_2
_geom_bond_distance
_geom_bond_site_symmetry_2
Na0 O26 2.439003 1_555
Na0 O20 2.474254 1_655
Na0 O13 2.480134 1_555
Na0 O25 2.487035 1_655
Na0 O17 2.527071 1_555
Na0 O6 2.684365 1_555
Na0 O5 2.897640 1_555
Na1 O18 2.439003 1_555
Na1 O27 2.474254 1_455
Na1 O19 2.480134 1_555
Na1 O21 2.487035 1_455
Na1 O0 2.527071 1_555
Na1 O8 2.684365 1_555
Na1 O7 2.897640 1_555
Na2 O8 2.439003 1_655
Na2 O7 2.474254 1_555
Na2 O15 2.480134 1_555
Na2 O0 2.487035 1_555
Na2 O21 2.527071 1_555
Na2 O18 2.684365 1_555
Na2 O27 2.897640 1_555
Na3 O6 2.439003 1_455
Na3 O5 2.474254 1_555
Na3 O4 2.480134 1_555
Na3 O17 2.487035 1_555
Na3 O25 2.527071 1_555
Na3 O26 2.684365 1_555
Na3 O20 2.897640 1_555
Lu0 O3 2.104315 1_545
Lu0 O11 2.144861 1_555
Lu0 O4 2.195834 1_555
Lu0 O18 2.203567 1_555
Lu0 O7 2.208847 1_555
Lu0 O21 2.210009 1_455
Lu1 O22 2.104315 1_564
Lu1 O1 2.144861 1_654
Lu1 O13 2.195834 1_554
Lu1 O8 2.203567 1_655
Lu1 O27 2.208847 1_555
Lu1 O0 2.210009 1_555
Lu2 O9 2.104315 1_565
Lu2 O16 2.144861 1_555
Lu2 O15 2.195834 1_555
Lu2 O26 2.203567 1_555
Lu2 O5 2.208847 1_555
Lu2 O25 2.210009 1_655
Lu3 O23 2.104315 1_546
Lu3 O24 2.144861 1_456
Lu3 O19 2.195834 1_556
Lu3 O6 2.203567 1_455
Lu3 O20 2.208847 1_555
Lu3 O17 2.210009 1_555
O0 P0 1.527327 1_555
O1 P3 1.502148 1_555
O2 P5 1.604840 1_555
O2 P1 1.606610 1_555
O3 P6 1.497903 1_555
O4 P7 1.520681 1_455
O5 P7 1.519227 1_555
O6 P2 1.520281 1_555
O7 P4 1.519227 1_555
O8 P0 1.520281 1_555
O9 P5 1.497903 1_555
O10 P0 1.604840 1_555
O10 P4 1.606610 1_555
O11 P7 1.502148 1_555
O12 P2 1.604840 1_555
O12 P7 1.606610 1_555
O13 P3 1.520681 1_555
O14 P6 1.604840 1_555
O14 P3 1.606610 1_555
O15 P4 1.520681 1_655
O16 P4 1.502148 1_555
O17 P2 1.527327 1_555
O18 P5 1.520281 1_555
O19 P1 1.520681 1_555
O20 P3 1.519227 1_555
O21 P5 1.527327 1_555
O22 P2 1.497903 1_555
O23 P0 1.497903 1_555
O24 P1 1.502148 1_555
O25 P6 1.527327 1_555
O26 P6 1.520281 1_555
O27 P1 1.519227 1_555
