# generated using pymatgen
data_Na2UO4
_symmetry_space_group_name_H-M   'P 1'
_cell_length_a   6.03367688
_cell_length_b   6.03367688
_cell_length_c   3.50104700
_cell_angle_alpha   90.00000000
_cell_angle_beta   90.00000000
_cell_angle_gamma   111.83491669
_symmetry_Int_Tables_number   1
_chemical_formula_structural   Na2UO4
_chemical_formula_sum   'Na2 U1 O4'
_cell_volume   118.31270025
_cell_formula_units_Z   1
loop_
 _symmetry_equiv_pos_site_id
 _symmetry_equiv_pos_as_xyz
  1  'x, y, z'
loop_
 _atom_site_type_symbol
 _atom_site_label
 _atom_site_symmetry_multiplicity
 _atom_site_fract_x
 _atom_site_fract_y
 _atom_site_fract_z
 _atom_site_occupancy
  Na  Na0  1  0.50000000  0.00000000  0.50000000  1
  Na  Na1  1  0.00000000  0.50000000  0.50000000  1
  U  U0  1  0.00000000  0.00000000  0.00000000  1
  O  O0  1  0.19201900  0.19201900  0.50000000  1
  O  O1  1  0.19559800  0.80440200  0.00000000  1
  O  O2  1  0.80798100  0.80798100  0.50000000  1
  O  O3  1  0.80440200  0.19559800  0.00000000  1
loop_
_geom_bond_atom_site_label_1
_geom_bond_atom_site_label_2
_geom_bond_distance
_geom_bond_site_symmetry_2
Na0 O1 2.493608 1_546
Na0 O1 2.493608 1_545
Na0 O3 2.493608 1_556
Na0 O3 2.493608 1_555
Na0 O0 2.529216 1_555
Na0 O2 2.529216 1_545
Na1 O3 2.493608 1_455
Na1 O3 2.493608 1_456
Na1 O1 2.493608 1_555
Na1 O1 2.493608 1_556
Na1 O2 2.529216 1_455
Na1 O0 2.529216 1_555
O0 U0 2.179553 1_555
O0 U0 2.179553 1_556
O1 U0 1.954916 1_565
O2 U0 2.179553 1_665
O2 U0 2.179553 1_666
O3 U0 1.954916 1_655
