# generated using pymatgen
data_Na5Y(CO3)4
_symmetry_space_group_name_H-M   'P 1'
_cell_length_a   10.20851700
_cell_length_b   8.87630600
_cell_length_c   12.36584041
_cell_angle_alpha   89.73186466
_cell_angle_beta   90.00000000
_cell_angle_gamma   90.00000000
_symmetry_Int_Tables_number   1
_chemical_formula_structural   Na5Y(CO3)4
_chemical_formula_sum   'Na20 Y4 C16 O48'
_cell_volume   1120.50501225
_cell_formula_units_Z   4
loop_
 _symmetry_equiv_pos_site_id
 _symmetry_equiv_pos_as_xyz
  1  'x, y, z'
loop_
 _atom_site_type_symbol
 _atom_site_label
 _atom_site_symmetry_multiplicity
 _atom_site_fract_x
 _atom_site_fract_y
 _atom_site_fract_z
 _atom_site_occupancy
  Na  Na0  1  0.62553800  0.45333900  0.07461600  1
  Na  Na1  1  0.37430700  0.19548800  0.78842800  1
  Na  Na2  1  0.82311900  0.98702100  0.36549700  1
  Na  Na3  1  0.92028400  0.57676600  0.59870700  1
  Na  Na4  1  0.87299400  0.58445500  0.89488100  1
  Na  Na5  1  0.12569300  0.69548800  0.78842800  1
  Na  Na6  1  0.07971600  0.42323400  0.40129300  1
  Na  Na7  1  0.87430700  0.30451200  0.21157200  1
  Na  Na8  1  0.62700600  0.08445500  0.89488100  1
  Na  Na9  1  0.67688100  0.48702100  0.36549700  1
  Na  Na10  1  0.12553800  0.04666100  0.92538400  1
  Na  Na11  1  0.12700600  0.41554500  0.10511900  1
  Na  Na12  1  0.57971600  0.07676600  0.59870700  1
  Na  Na13  1  0.42028400  0.92323400  0.40129300  1
  Na  Na14  1  0.87446200  0.95333900  0.07461600  1
  Na  Na15  1  0.17688100  0.01297900  0.63450300  1
  Na  Na16  1  0.62569300  0.80451200  0.21157200  1
  Na  Na17  1  0.32311900  0.51297900  0.63450300  1
  Na  Na18  1  0.37446200  0.54666100  0.92538400  1
  Na  Na19  1  0.37299400  0.91554500  0.10511900  1
  Y  Y0  1  0.37630200  0.28535100  0.27639700  1
  Y  Y1  1  0.62369800  0.71464900  0.72360300  1
  Y  Y2  1  0.12369800  0.78535100  0.27639700  1
  Y  Y3  1  0.87630200  0.21464900  0.72360300  1
  C  C0  1  0.86577000  0.26197800  0.49626400  1
  C  C1  1  0.36577000  0.23802200  0.50373600  1
  C  C2  1  0.61841900  0.14268200  0.21830600  1
  C  C3  1  0.39152900  0.24472800  0.01321100  1
  C  C4  1  0.86632800  0.88851400  0.72227900  1
  C  C5  1  0.13367200  0.11148600  0.27772100  1
  C  C6  1  0.13423000  0.73802200  0.50373600  1
  C  C7  1  0.63423000  0.76197800  0.49626400  1
  C  C8  1  0.63367200  0.38851400  0.72227900  1
  C  C9  1  0.38158100  0.85731800  0.78169400  1
  C  C10  1  0.10847100  0.74472800  0.01321100  1
  C  C11  1  0.36632800  0.61148600  0.27772100  1
  C  C12  1  0.11841900  0.35731800  0.78169400  1
  C  C13  1  0.89152900  0.25527200  0.98678900  1
  C  C14  1  0.88158100  0.64268200  0.21830600  1
  C  C15  1  0.60847100  0.75527200  0.98678900  1
  O  O0  1  0.83669800  0.38008800  0.01312800  1
  O  O1  1  0.84754000  0.17612700  0.90391400  1
  O  O2  1  0.65246000  0.67612700  0.90391400  1
  O  O3  1  0.86800100  0.74354600  0.73150400  1
  O  O4  1  0.74694500  0.45706900  0.72881300  1
  O  O5  1  0.75305500  0.95706900  0.72881300  1
  O  O6  1  0.98982700  0.56408500  0.22282000  1
  O  O7  1  0.29899800  0.34950300  0.46196200  1
  O  O8  1  0.36800100  0.75645400  0.26849600  1
  O  O9  1  0.98855700  0.20083800  0.04249800  1
  O  O10  1  0.51144300  0.70083800  0.04249800  1
  O  O11  1  0.48982700  0.93591500  0.77718000  1
  O  O12  1  0.97021900  0.96810500  0.70690600  1
  O  O13  1  0.15177600  0.68883400  0.59986100  1
  O  O14  1  0.34822400  0.18883400  0.59986100  1
  O  O15  1  0.79899800  0.15049700  0.53803800  1
  O  O16  1  0.70100200  0.65049700  0.53803800  1
  O  O17  1  0.13199900  0.25645400  0.26849600  1
  O  O18  1  0.39425000  0.71104800  0.77087400  1
  O  O19  1  0.01144300  0.79916200  0.95750200  1
  O  O20  1  0.95481200  0.32372800  0.55964100  1
  O  O21  1  0.51017300  0.06408500  0.22282000  1
  O  O22  1  0.52978100  0.46810500  0.70690600  1
  O  O23  1  0.20100200  0.84950300  0.46196200  1
  O  O24  1  0.73096600  0.08144600  0.20604000  1
  O  O25  1  0.23096600  0.41855400  0.79396000  1
  O  O26  1  0.04518800  0.67627200  0.44035900  1
  O  O27  1  0.66330200  0.88008800  0.01312800  1
  O  O28  1  0.48855700  0.29916200  0.95750200  1
  O  O29  1  0.15246000  0.82387300  0.09608600  1
  O  O30  1  0.84822400  0.31116600  0.40013900  1
  O  O31  1  0.89425000  0.78895200  0.22912600  1
  O  O32  1  0.76903400  0.58144600  0.20604000  1
  O  O33  1  0.02978100  0.03189500  0.29309400  1
  O  O34  1  0.63199900  0.24354600  0.73150400  1
  O  O35  1  0.16330200  0.61991200  0.98687200  1
  O  O36  1  0.01017300  0.43591500  0.77718000  1
  O  O37  1  0.65177600  0.81116600  0.40013900  1
  O  O38  1  0.34754000  0.32387300  0.09608600  1
  O  O39  1  0.60575000  0.28895200  0.22912600  1
  O  O40  1  0.26903400  0.91855400  0.79396000  1
  O  O41  1  0.45481200  0.17627200  0.44035900  1
  O  O42  1  0.47021900  0.53189500  0.29309400  1
  O  O43  1  0.25305500  0.54293100  0.27118700  1
  O  O44  1  0.54518800  0.82372800  0.55964100  1
  O  O45  1  0.33669800  0.11991200  0.98687200  1
  O  O46  1  0.24694500  0.04293100  0.27118700  1
  O  O47  1  0.10575000  0.21104800  0.77087400  1
loop_
_geom_bond_atom_site_label_1
_geom_bond_atom_site_label_2
_geom_bond_distance
_geom_bond_site_symmetry_2
Na0 O0 2.377448 1_555
Na0 O39 2.407155 1_555
Na0 O28 2.438067 1_554
Na0 O32 2.469287 1_555
Na0 O10 2.516439 1_555
Na1 O14 2.347960 1_555
Na1 O25 2.463250 1_555
Na1 O28 2.568339 1_555
Na1 O45 2.569781 1_555
Na1 O11 2.592626 1_545
Na1 O40 2.683384 1_545
Na1 O47 2.753564 1_555
Na1 O34 2.755901 1_555
Na2 O33 2.325470 1_665
Na2 O24 2.336684 1_565
Na2 O37 2.381878 1_555
Na2 O31 2.547503 1_555
Na2 O15 2.597596 1_565
Na3 O3 2.279435 1_555
Na3 O20 2.326473 1_555
Na3 O16 2.449007 1_555
Na3 O26 2.494786 1_655
Na3 O13 2.564085 1_655
Na3 O4 2.613915 1_555
Na3 O36 2.692588 1_655
Na4 O0 2.353985 1_556
Na4 O2 2.396646 1_555
Na4 O36 2.415755 1_655
Na4 O3 2.460005 1_555
Na4 O19 2.498625 1_655
Na4 O4 2.678281 1_555
Na5 O13 2.347960 1_555
Na5 O40 2.463250 1_555
Na5 O19 2.568339 1_555
Na5 O35 2.569781 1_555
Na5 O36 2.592626 1_555
Na5 O25 2.683384 1_555
Na5 O18 2.753564 1_555
Na5 O3 2.755901 1_455
Na6 O17 2.279435 1_555
Na6 O26 2.326473 1_555
Na6 O7 2.449007 1_555
Na6 O20 2.494786 1_455
Na6 O30 2.564085 1_455
Na6 O43 2.613915 1_555
Na6 O6 2.692588 1_455
Na7 O30 2.347960 1_555
Na7 O24 2.463250 1_555
Na7 O9 2.568339 1_555
Na7 O0 2.569781 1_555
Na7 O6 2.592626 1_555
Na7 O32 2.683384 1_555
Na7 O39 2.753564 1_555
Na7 O17 2.755901 1_655
Na8 O27 2.353985 1_546
Na8 O1 2.396646 1_555
Na8 O11 2.415755 1_545
Na8 O34 2.460005 1_555
Na8 O28 2.498625 1_555
Na8 O5 2.678281 1_545
Na9 O42 2.325470 1_555
Na9 O32 2.336684 1_555
Na9 O30 2.381878 1_555
Na9 O39 2.547503 1_555
Na9 O16 2.597596 1_555
Na10 O45 2.377448 1_555
Na10 O47 2.407155 1_555
Na10 O9 2.438067 1_456
Na10 O40 2.469287 1_545
Na10 O19 2.516439 1_545
Na11 O35 2.353985 1_554
Na11 O38 2.396646 1_555
Na11 O6 2.415755 1_455
Na11 O17 2.460005 1_555
Na11 O9 2.498625 1_455
Na11 O43 2.678281 1_555
Na12 O34 2.279435 1_555
Na12 O44 2.326473 1_545
Na12 O15 2.449007 1_555
Na12 O41 2.494786 1_555
Na12 O14 2.564085 1_555
Na12 O5 2.613915 1_545
Na12 O11 2.692588 1_545
Na13 O8 2.279435 1_555
Na13 O41 2.326473 1_565
Na13 O23 2.449007 1_555
Na13 O44 2.494786 1_555
Na13 O37 2.564085 1_555
Na13 O46 2.613915 1_565
Na13 O21 2.692588 1_565
Na14 O27 2.377448 1_555
Na14 O31 2.407155 1_555
Na14 O19 2.438067 1_654
Na14 O24 2.469287 1_565
Na14 O9 2.516439 1_565
Na15 O12 2.325470 1_445
Na15 O40 2.336684 1_545
Na15 O14 2.381878 1_555
Na15 O47 2.547503 1_555
Na15 O23 2.597596 1_545
Na16 O37 2.347960 1_555
Na16 O32 2.463250 1_555
Na16 O10 2.568339 1_555
Na16 O27 2.569781 1_555
Na16 O21 2.592626 1_565
Na16 O24 2.683384 1_565
Na16 O31 2.753564 1_555
Na16 O8 2.755901 1_555
Na17 O22 2.325470 1_555
Na17 O25 2.336684 1_555
Na17 O13 2.381878 1_555
Na17 O18 2.547503 1_555
Na17 O7 2.597596 1_555
Na18 O35 2.377448 1_555
Na18 O18 2.407155 1_555
Na18 O10 2.438067 1_556
Na18 O25 2.469287 1_555
Na18 O28 2.516439 1_555
Na19 O45 2.353985 1_564
Na19 O29 2.396646 1_555
Na19 O21 2.415755 1_565
Na19 O8 2.460005 1_555
Na19 O10 2.498625 1_555
Na19 O46 2.678281 1_565
C0 O30 1.277020 1_555
C0 O15 1.306096 1_555
C0 O20 1.320949 1_555
C1 O14 1.277020 1_555
C1 O7 1.306096 1_555
C1 O41 1.320949 1_555
C2 O24 1.280345 1_555
C2 O21 1.307885 1_555
C2 O39 1.312225 1_555
C3 O45 1.284611 1_554
C3 O28 1.298469 1_554
C3 O38 1.323698 1_555
C4 O12 1.287945 1_555
C4 O3 1.291408 1_555
C4 O5 1.309360 1_555
C5 O33 1.287945 1_555
C5 O17 1.291408 1_555
C5 O46 1.309360 1_555
C6 O13 1.277020 1_555
C6 O23 1.306096 1_555
C6 O26 1.320949 1_555
C7 O37 1.277020 1_555
C7 O16 1.306096 1_555
C7 O44 1.320949 1_555
C8 O22 1.287945 1_555
C8 O34 1.291408 1_555
C8 O4 1.309360 1_555
C9 O40 1.280345 1_555
C9 O11 1.307885 1_555
C9 O18 1.312225 1_555
C10 O35 1.284611 1_554
C10 O19 1.298469 1_554
C10 O29 1.323698 1_555
C11 O42 1.287945 1_555
C11 O8 1.291408 1_555
C11 O43 1.309360 1_555
C12 O25 1.280345 1_555
C12 O36 1.307885 1_555
C12 O47 1.312225 1_555
C13 O0 1.284611 1_556
C13 O9 1.298469 1_556
C13 O1 1.323698 1_555
C14 O32 1.280345 1_555
C14 O6 1.307885 1_555
C14 O31 1.312225 1_555
C15 O27 1.284611 1_556
C15 O10 1.298469 1_556
C15 O2 1.323698 1_555
O1 Y3 2.273223 1_555
O2 Y1 2.273223 1_555
O3 Y1 2.509076 1_555
O4 Y3 2.525767 1_555
O4 Y1 2.610210 1_555
O5 Y1 2.525767 1_555
O5 Y3 2.610210 1_565
O6 Y2 2.485191 1_655
O7 Y0 2.494946 1_555
O8 Y2 2.509076 1_555
O11 Y1 2.485191 1_555
O12 Y3 2.398992 1_565
O15 Y3 2.494946 1_555
O16 Y1 2.494946 1_555
O17 Y0 2.509076 1_555
O18 Y1 2.414337 1_555
O20 Y3 2.381659 1_555
O21 Y0 2.485191 1_555
O22 Y1 2.398992 1_555
O23 Y2 2.494946 1_555
O26 Y2 2.381659 1_555
O29 Y2 2.273223 1_555
O31 Y2 2.414337 1_655
O33 Y2 2.398992 1_545
O34 Y3 2.509076 1_555
O36 Y3 2.485191 1_455
O38 Y0 2.273223 1_555
O39 Y0 2.414337 1_555
O41 Y0 2.381659 1_555
O42 Y0 2.398992 1_555
O43 Y2 2.525767 1_555
O43 Y0 2.610210 1_555
O44 Y1 2.381659 1_555
O46 Y0 2.525767 1_555
O46 Y2 2.610210 1_545
O47 Y3 2.414337 1_455
