# generated using pymatgen
data_As4C3
_symmetry_space_group_name_H-M   'P 1'
_cell_length_a   4.60825500
_cell_length_b   4.60825500
_cell_length_c   4.60825500
_cell_angle_alpha   90.00000000
_cell_angle_beta   90.00000000
_cell_angle_gamma   90.00000000
_symmetry_Int_Tables_number   1
_chemical_formula_structural   As4C3
_chemical_formula_sum   'As4 C3'
_cell_volume   97.86096836
_cell_formula_units_Z   1
loop_
 _symmetry_equiv_pos_site_id
 _symmetry_equiv_pos_as_xyz
  1  'x, y, z'
loop_
 _atom_site_type_symbol
 _atom_site_label
 _atom_site_symmetry_multiplicity
 _atom_site_fract_x
 _atom_site_fract_y
 _atom_site_fract_z
 _atom_site_occupancy
  As  As0  1  0.72817100  0.27182900  0.27182900  1
  As  As1  1  0.27182900  0.27182900  0.72817100  1
  As  As2  1  0.27182900  0.72817100  0.27182900  1
  As  As3  1  0.72817100  0.72817100  0.72817100  1
  C  C0  1  0.00000000  0.00000000  0.50000000  1
  C  C1  1  0.50000000  0.00000000  0.00000000  1
  C  C2  1  0.00000000  0.50000000  0.00000000  1
loop_
_geom_bond_atom_site_label_1
_geom_bond_atom_site_label_2
_geom_bond_distance
_geom_bond_site_symmetry_2
As0 C1 2.060070 1_555
As0 C2 2.060070 1_655
As0 C0 2.060070 1_655
As1 C2 2.060070 1_556
As1 C1 2.060070 1_556
As1 C0 2.060070 1_555
As2 C1 2.060070 1_565
As2 C2 2.060070 1_555
As2 C0 2.060070 1_565
As3 C1 2.060070 1_566
As3 C2 2.060070 1_656
As3 C0 2.060070 1_665
