# generated using pymatgen
data_KCO2
_symmetry_space_group_name_H-M   'P 1'
_cell_length_a   3.39509558
_cell_length_b   6.11207438
_cell_length_c   10.89217047
_cell_angle_alpha   90.00000000
_cell_angle_beta   90.00000000
_cell_angle_gamma   90.00000000
_symmetry_Int_Tables_number   1
_chemical_formula_structural   KCO2
_chemical_formula_sum   'K4 C4 O8'
_cell_volume   226.02426498
_cell_formula_units_Z   4
loop_
 _symmetry_equiv_pos_site_id
 _symmetry_equiv_pos_as_xyz
  1  'x, y, z'
loop_
 _atom_site_type_symbol
 _atom_site_label
 _atom_site_symmetry_multiplicity
 _atom_site_fract_x
 _atom_site_fract_y
 _atom_site_fract_z
 _atom_site_occupancy
  K  K0  1  0.50000000  0.90423920  0.85008536  1
  K  K1  1  0.50000000  0.09576080  0.14991464  1
  K  K2  1  0.50000000  0.40423920  0.64991464  1
  K  K3  1  0.50000000  0.59576080  0.35008536  1
  C  C0  1  -0.00000000  0.43020184  0.93901806  1
  C  C1  1  0.00000000  0.93020184  0.56098194  1
  C  C2  1  0.00000000  0.06979816  0.43901806  1
  C  C3  1  -0.00000000  0.56979816  0.06098194  1
  O  O0  1  -0.00000000  0.53510780  0.83910658  1
  O  O1  1  0.00000000  0.03510780  0.66089342  1
  O  O2  1  -0.00000000  0.22513206  0.95069782  1
  O  O3  1  0.00000000  0.96489220  0.33910658  1
  O  O4  1  -0.00000000  0.27486794  0.45069782  1
  O  O5  1  0.00000000  0.77486794  0.04930218  1
  O  O6  1  -0.00000000  0.46489220  0.16089342  1
  O  O7  1  0.00000000  0.72513206  0.54930218  1
loop_
_geom_bond_atom_site_label_1
_geom_bond_atom_site_label_2
_geom_bond_distance
_geom_bond_site_symmetry_2
K0 O1 2.787114 1_665
K0 O1 2.787114 1_565
K0 O2 2.815922 1_665
K0 O2 2.815922 1_565
K0 O0 2.825990 1_555
K0 O0 2.825990 1_655
K0 O5 2.866252 1_556
K0 O5 2.866252 1_656
K1 O3 2.787114 1_545
K1 O3 2.787114 1_645
K1 O5 2.815922 1_645
K1 O5 2.815922 1_545
K1 O6 2.825990 1_555
K1 O6 2.825990 1_655
K1 O2 2.866252 1_654
K1 O2 2.866252 1_554
K2 O0 2.787114 1_555
K2 O0 2.787114 1_655
K2 O7 2.815922 1_555
K2 O7 2.815922 1_655
K2 O1 2.825990 1_555
K2 O1 2.825990 1_655
K2 O4 2.866252 1_555
K2 O4 2.866252 1_655
K3 O6 2.787114 1_655
K3 O6 2.787114 1_555
K3 O4 2.815922 1_555
K3 O4 2.815922 1_655
K3 O3 2.825990 1_555
K3 O3 2.825990 1_655
K3 O7 2.866252 1_555
K3 O7 2.866252 1_655
C0 O2 1.259841 1_555
C0 O0 1.263100 1_555
C1 O7 1.259841 1_555
C1 O1 1.263100 1_565
C2 O4 1.259841 1_555
C2 O3 1.263100 1_545
C3 O5 1.259841 1_555
C3 O6 1.263100 1_555
