# generated using pymatgen
data_CdBiS2Br
_symmetry_space_group_name_H-M   'P 1'
_cell_length_a   4.05881400
_cell_length_b   6.90901240
_cell_length_c   9.71252756
_cell_angle_alpha   91.67546495
_cell_angle_beta   90.00000000
_cell_angle_gamma   107.08159593
_symmetry_Int_Tables_number   1
_chemical_formula_structural   CdBiS2Br
_chemical_formula_sum   'Cd2 Bi2 S4 Br2'
_cell_volume   260.22611174
_cell_formula_units_Z   2
loop_
 _symmetry_equiv_pos_site_id
 _symmetry_equiv_pos_as_xyz
  1  'x, y, z'
loop_
 _atom_site_type_symbol
 _atom_site_label
 _atom_site_symmetry_multiplicity
 _atom_site_fract_x
 _atom_site_fract_y
 _atom_site_fract_z
 _atom_site_occupancy
  Cd  Cd0  1  0.00000000  0.00000000  0.50000000  1
  Cd  Cd1  1  0.00000000  0.00000000  0.00000000  1
  Bi  Bi0  1  0.28237600  0.56475200  0.69397800  1
  Bi  Bi1  1  0.71762400  0.43524800  0.30602200  1
  S  S0  1  0.35561800  0.71123600  0.44609000  1
  S  S1  1  0.91811600  0.83623200  0.74380900  1
  S  S2  1  0.64438200  0.28876400  0.55391000  1
  S  S3  1  0.08188400  0.16376800  0.25619100  1
  Br  Br0  1  0.36171700  0.72343400  0.07191100  1
  Br  Br1  1  0.63828300  0.27656600  0.92808900  1
loop_
_geom_bond_atom_site_label_1
_geom_bond_atom_site_label_2
_geom_bond_distance
_geom_bond_site_symmetry_2
Cd0 S3 2.633228 1_555
Cd0 S1 2.633228 1_445
Cd0 S0 2.822847 1_545
Cd0 S2 2.822847 1_455
Cd0 S2 2.822847 1_555
Cd0 S0 2.822847 1_445
Cd1 S1 2.682646 1_444
Cd1 S3 2.682646 1_555
Bi0 S0 2.622024 1_555
Bi0 S1 2.741205 1_455
Bi0 S1 2.741205 1_555
Bi0 S2 3.023199 1_455
Bi0 S2 3.023199 1_555
Bi1 S2 2.622024 1_555
Bi1 S3 2.741205 1_555
Bi1 S3 2.741205 1_655
Bi1 S0 3.023199 1_555
Bi1 S0 3.023199 1_655
Br0 Cd1 2.832045 1_665
Br0 Cd1 2.832045 1_565
Br1 Cd1 2.832045 1_656
Br1 Cd1 2.832045 1_556
