# generated using pymatgen
data_ZnAgPS4
_symmetry_space_group_name_H-M   'P 1'
_cell_length_a   6.18035100
_cell_length_b   7.66490900
_cell_length_c   12.73057900
_cell_angle_alpha   90.00000000
_cell_angle_beta   90.00000000
_cell_angle_gamma   90.00000000
_symmetry_Int_Tables_number   1
_chemical_formula_structural   ZnAgPS4
_chemical_formula_sum   'Zn4 Ag4 P4 S16'
_cell_volume   603.07079877
_cell_formula_units_Z   4
loop_
 _symmetry_equiv_pos_site_id
 _symmetry_equiv_pos_as_xyz
  1  'x, y, z'
loop_
 _atom_site_type_symbol
 _atom_site_label
 _atom_site_symmetry_multiplicity
 _atom_site_fract_x
 _atom_site_fract_y
 _atom_site_fract_z
 _atom_site_occupancy
  Zn  Zn0  1  0.50302200  0.51299800  0.65895700  1
  Zn  Zn1  1  0.00302200  0.48700200  0.34104300  1
  Zn  Zn2  1  0.50302200  0.98700200  0.15895700  1
  Zn  Zn3  1  0.00302200  0.01299800  0.84104300  1
  Ag  Ag0  1  0.50011100  0.22044700  0.42825500  1
  Ag  Ag1  1  0.00011100  0.72044700  0.07174500  1
  Ag  Ag2  1  0.00011100  0.77955300  0.57174500  1
  Ag  Ag3  1  0.50011100  0.27955300  0.92825500  1
  P  P0  1  0.50557000  0.73113600  0.40489500  1
  P  P1  1  0.00557000  0.23113600  0.09510500  1
  P  P2  1  0.50557000  0.76886400  0.90489500  1
  P  P3  1  0.00557000  0.26886400  0.59510500  1
  S  S0  1  0.61772800  0.98991400  0.83038200  1
  S  S1  1  0.11772800  0.48991400  0.66961800  1
  S  S2  1  0.17188900  0.74945100  0.88672000  1
  S  S3  1  0.17188900  0.75054900  0.38672000  1
  S  S4  1  0.64348900  0.55309400  0.83291400  1
  S  S5  1  0.64348900  0.94690600  0.33291400  1
  S  S6  1  0.58749000  0.76560300  0.56165900  1
  S  S7  1  0.11772800  0.01008600  0.16961800  1
  S  S8  1  0.58749000  0.73439700  0.06165900  1
  S  S9  1  0.67188900  0.24945100  0.61328000  1
  S  S10  1  0.08749000  0.23439700  0.43834100  1
  S  S11  1  0.14348900  0.44690600  0.16708600  1
  S  S12  1  0.14348900  0.05309400  0.66708600  1
  S  S13  1  0.67188900  0.25054900  0.11328000  1
  S  S14  1  0.08749000  0.26560300  0.93834100  1
  S  S15  1  0.61772800  0.51008600  0.33038200  1
loop_
_geom_bond_atom_site_label_1
_geom_bond_atom_site_label_2
_geom_bond_distance
_geom_bond_site_symmetry_2
Ag0 S10 2.555611 1_555
Ag0 S5 2.579615 1_545
Ag0 S9 2.593219 1_555
Ag0 S15 2.647550 1_555
Ag1 S8 2.555611 1_455
Ag1 S11 2.579615 1_555
Ag1 S2 2.593219 1_554
Ag1 S7 2.647550 1_565
Ag2 S6 2.555611 1_455
Ag2 S12 2.579615 1_565
Ag2 S3 2.593219 1_555
Ag2 S1 2.647550 1_555
Ag3 S14 2.555611 1_555
Ag3 S4 2.579615 1_555
Ag3 S13 2.593219 1_556
Ag3 S0 2.647550 1_545
P0 S15 2.061812 1_555
P0 S5 2.074012 1_555
P0 S6 2.075797 1_555
P0 S3 2.080533 1_555
P1 S7 2.061812 1_555
P1 S11 2.074012 1_555
P1 S14 2.075797 1_554
P1 S13 2.080533 1_455
P2 S0 2.061812 1_555
P2 S4 2.074012 1_555
P2 S8 2.075797 1_556
P2 S2 2.080533 1_555
P3 S1 2.061812 1_555
P3 S12 2.074012 1_555
P3 S10 2.075797 1_555
P3 S9 2.080533 1_455
S0 Zn3 2.391671 1_665
S1 Zn0 2.391671 1_555
S2 Zn3 2.346916 1_565
S3 Zn1 2.346916 1_555
S4 Zn0 2.398426 1_555
S5 Zn2 2.398426 1_555
S6 Zn0 2.357044 1_555
S7 Zn2 2.391671 1_545
S8 Zn2 2.357044 1_555
S9 Zn0 2.346916 1_555
S10 Zn1 2.357044 1_555
S11 Zn1 2.398426 1_555
S12 Zn3 2.398426 1_555
S13 Zn2 2.346916 1_545
S14 Zn3 2.357044 1_555
S15 Zn1 2.391671 1_655
