# generated using pymatgen
data_Bi4Te2Br2O9
_symmetry_space_group_name_H-M   'P 1'
_cell_length_a   5.66514000
_cell_length_b   5.66514000
_cell_length_c   9.91386000
_cell_angle_alpha   90.00000000
_cell_angle_beta   90.00000000
_cell_angle_gamma   90.00000000
_symmetry_Int_Tables_number   1
_chemical_formula_structural   Bi4Te2Br2O9
_chemical_formula_sum   'Bi4 Te2 Br2 O9'
_cell_volume   318.17355130
_cell_formula_units_Z   1
loop_
 _symmetry_equiv_pos_site_id
 _symmetry_equiv_pos_as_xyz
  1  'x, y, z'
loop_
 _atom_site_type_symbol
 _atom_site_label
 _atom_site_symmetry_multiplicity
 _atom_site_fract_x
 _atom_site_fract_y
 _atom_site_fract_z
 _atom_site_occupancy
  Bi  Bi0  1  0.00000000  0.00000000  0.79659000  1
  Bi  Bi1  1  0.50000000  0.00000000  0.55430900  1
  Bi  Bi2  1  0.00000000  0.50000000  0.55430900  1
  Bi  Bi3  1  0.50000000  0.50000000  0.81027300  1
  Te  Te0  1  0.00000000  0.00000000  0.29338400  1
  Te  Te1  1  0.50000000  0.50000000  0.36318700  1
  Br  Br0  1  0.00000000  0.50000000  0.96780700  1
  Br  Br1  1  0.50000000  0.00000000  0.96780700  1
  O  O0  1  0.25958800  0.25958800  0.32337300  1
  O  O1  1  0.00000000  0.00000000  0.48591600  1
  O  O2  1  0.25601200  0.25601200  0.68034800  1
  O  O3  1  0.74041200  0.25958800  0.32337300  1
  O  O4  1  0.25601200  0.74398800  0.68034800  1
  O  O5  1  0.74398800  0.74398800  0.68034800  1
  O  O6  1  0.74041200  0.74041200  0.32337300  1
  O  O7  1  0.25958800  0.74041200  0.32337300  1
  O  O8  1  0.74398800  0.25601200  0.68034800  1
loop_
_geom_bond_atom_site_label_1
_geom_bond_atom_site_label_2
_geom_bond_distance
_geom_bond_site_symmetry_2
Bi0 O2 2.352666 1_555
Bi0 O8 2.352666 1_455
Bi0 O4 2.352666 1_545
Bi0 O5 2.352666 1_445
Bi0 Br0 3.302225 1_555
Bi0 Br1 3.302225 1_555
Bi0 Br0 3.302225 1_545
Bi0 Br1 3.302225 1_455
Bi1 O8 2.361224 1_555
Bi1 O2 2.361224 1_555
Bi1 O5 2.361224 1_545
Bi1 O4 2.361224 1_545
Bi2 O4 2.361224 1_555
Bi2 O2 2.361224 1_555
Bi2 O5 2.361224 1_455
Bi2 O8 2.361224 1_455
Bi3 O5 2.340981 1_555
Bi3 O8 2.340981 1_555
Bi3 O4 2.340981 1_555
Bi3 O2 2.340981 1_555
Bi3 Br1 3.234591 1_555
Bi3 Br1 3.234591 1_565
Bi3 Br0 3.234591 1_555
Bi3 Br0 3.234591 1_655
O0 Te1 1.966140 1_555
O0 Te0 2.100889 1_555
O1 Te0 1.908735 1_555
O3 Te1 1.966140 1_555
O3 Te0 2.100889 1_655
O6 Te1 1.966140 1_555
O6 Te0 2.100889 1_665
O7 Te1 1.966140 1_555
O7 Te0 2.100889 1_565
