# generated using pymatgen
data_NaSbS2
_symmetry_space_group_name_H-M   'P 1'
_cell_length_a   7.01485616
_cell_length_b   7.01485616
_cell_length_c   5.94227761
_cell_angle_alpha   66.50738084
_cell_angle_beta   66.50738084
_cell_angle_gamma   46.94472574
_symmetry_Int_Tables_number   1
_chemical_formula_structural   NaSbS2
_chemical_formula_sum   'Na2 Sb2 S4'
_cell_volume   192.42962671
_cell_formula_units_Z   2
loop_
 _symmetry_equiv_pos_site_id
 _symmetry_equiv_pos_as_xyz
  1  'x, y, z'
loop_
 _atom_site_type_symbol
 _atom_site_label
 _atom_site_symmetry_multiplicity
 _atom_site_fract_x
 _atom_site_fract_y
 _atom_site_fract_z
 _atom_site_occupancy
  Na  Na0  1  0.62632800  0.62632800  0.13544400  1
  Na  Na1  1  0.37367200  0.37367200  0.86455600  1
  Sb  Sb0  1  0.86862600  0.86862600  0.41056000  1
  Sb  Sb1  1  0.13137400  0.13137400  0.58944000  1
  S  S0  1  0.11829900  0.11829900  0.19012400  1
  S  S1  1  0.63734300  0.63734300  0.63244600  1
  S  S2  1  0.88170100  0.88170100  0.80987600  1
  S  S3  1  0.36265700  0.36265700  0.36755400  1
loop_
_geom_bond_atom_site_label_1
_geom_bond_atom_site_label_2
_geom_bond_distance
_geom_bond_site_symmetry_2
Na0 S0 2.809602 1_565
Na0 S0 2.809602 1_655
Na0 S1 2.930133 1_554
Na0 S2 3.002776 1_554
Na0 S1 3.017629 1_555
Na0 S3 3.057429 1_555
Na1 S2 2.809602 1_545
Na1 S2 2.809602 1_455
Na1 S3 2.930133 1_556
Na1 S0 3.002776 1_556
Na1 S3 3.017629 1_555
Na1 S1 3.057429 1_555
S0 Sb1 2.450661 1_555
S0 Sb0 2.894996 1_445
S1 Sb0 2.680682 1_555
S1 Sb1 2.809816 1_655
S1 Sb1 2.809816 1_565
S2 Sb0 2.450661 1_555
S2 Sb1 2.894996 1_665
S3 Sb1 2.680682 1_555
S3 Sb0 2.809816 1_545
S3 Sb0 2.809816 1_455
