# generated using pymatgen
data_P4S(NF)6
_symmetry_space_group_name_H-M   'P 1'
_cell_length_a   11.86889200
_cell_length_b   9.62541600
_cell_length_c   20.69857422
_cell_angle_alpha   76.77492839
_cell_angle_beta   90.00000000
_cell_angle_gamma   90.00000000
_symmetry_Int_Tables_number   1
_chemical_formula_structural   P4S(NF)6
_chemical_formula_sum   'P32 S8 N48 F48'
_cell_volume   2301.95407149
_cell_formula_units_Z   8
loop_
 _symmetry_equiv_pos_site_id
 _symmetry_equiv_pos_as_xyz
  1  'x, y, z'
loop_
 _atom_site_type_symbol
 _atom_site_label
 _atom_site_symmetry_multiplicity
 _atom_site_fract_x
 _atom_site_fract_y
 _atom_site_fract_z
 _atom_site_occupancy
  P  P0  1  0.03106500  0.39406500  0.14162500  1
  P  P1  1  0.70343800  0.80017700  0.36043300  1
  P  P2  1  0.79656200  0.80017700  0.86043300  1
  P  P3  1  0.21045000  0.28528100  0.36671900  1
  P  P4  1  0.87137700  0.32873700  0.34996400  1
  P  P5  1  0.36147600  0.81048800  0.36855400  1
  P  P6  1  0.54408700  0.47944800  0.12830200  1
  P  P7  1  0.12862300  0.67126300  0.65003600  1
  P  P8  1  0.02414700  0.10969400  0.34997900  1
  P  P9  1  0.96893500  0.60593500  0.85837500  1
  P  P10  1  0.86147600  0.18951200  0.13144600  1
  P  P11  1  0.54902100  0.02116400  0.37391600  1
  P  P12  1  0.29656200  0.19982300  0.63956700  1
  P  P13  1  0.04902100  0.97883600  0.12608400  1
  P  P14  1  0.52414700  0.89030600  0.15002100  1
  P  P15  1  0.78955000  0.71471900  0.63328100  1
  P  P16  1  0.53106500  0.60593500  0.35837500  1
  P  P17  1  0.47585300  0.10969400  0.84997900  1
  P  P18  1  0.37137700  0.67126300  0.15003600  1
  P  P19  1  0.04408700  0.52055200  0.37169800  1
  P  P20  1  0.71045000  0.71471900  0.13328100  1
  P  P21  1  0.62862300  0.32873700  0.84996400  1
  P  P22  1  0.97585300  0.89030600  0.65002100  1
  P  P23  1  0.28955000  0.28528100  0.86671900  1
  P  P24  1  0.45097900  0.97883600  0.62608400  1
  P  P25  1  0.20343800  0.19982300  0.13956700  1
  P  P26  1  0.95591300  0.47944800  0.62830200  1
  P  P27  1  0.45591300  0.52055200  0.87169800  1
  P  P28  1  0.95097900  0.02116400  0.87391600  1
  P  P29  1  0.13852400  0.81048800  0.86855400  1
  P  P30  1  0.46893500  0.39406500  0.64162500  1
  P  P31  1  0.63852400  0.18951200  0.63144600  1
  S  S0  1  0.85758300  0.07494000  0.45013900  1
  S  S1  1  0.69092000  0.54912600  0.46230200  1
  S  S2  1  0.30908000  0.45087400  0.53769800  1
  S  S3  1  0.64241700  0.07494000  0.95013900  1
  S  S4  1  0.14241700  0.92506000  0.54986100  1
  S  S5  1  0.35758300  0.92506000  0.04986100  1
  S  S6  1  0.19092000  0.45087400  0.03769800  1
  S  S7  1  0.80908000  0.54912600  0.96230200  1
  N  N0  1  0.58460400  0.50452000  0.42850100  1
  N  N1  1  0.31550800  0.77192200  0.08061500  1
  N  N2  1  0.88052500  0.72076500  0.82146200  1
  N  N3  1  0.18449200  0.77192200  0.58061500  1
  N  N4  1  0.14753600  0.41933100  0.37797400  1
  N  N5  1  0.94772500  0.23796700  0.31210200  1
  N  N6  1  0.33170300  0.05041100  0.62584900  1
  N  N7  1  0.38052500  0.27923500  0.67853800  1
  N  N8  1  0.24813200  0.30616900  0.06850100  1
  N  N9  1  0.74813200  0.69383100  0.43149900  1
  N  N10  1  0.08049200  0.52943000  0.63451100  1
  N  N11  1  0.40899600  0.65635000  0.37307300  1
  N  N12  1  0.03968800  0.98397500  0.58151000  1
  N  N13  1  0.93638700  0.05982000  0.12702600  1
  N  N14  1  0.91950800  0.47057000  0.36548900  1
  N  N15  1  0.66829700  0.94958900  0.37415100  1
  N  N16  1  0.41950800  0.52943000  0.13451100  1
  N  N17  1  0.55227500  0.23796700  0.81210200  1
  N  N18  1  0.15012400  0.13998000  0.36726700  1
  N  N19  1  0.85246400  0.58066900  0.62202600  1
  N  N20  1  0.09100400  0.65635000  0.87307300  1
  N  N21  1  0.35246400  0.41933100  0.87797400  1
  N  N22  1  0.56361300  0.05982000  0.62702600  1
  N  N23  1  0.75186800  0.69383100  0.93149900  1
  N  N24  1  0.64753600  0.58066900  0.12202600  1
  N  N25  1  0.61947500  0.72076500  0.32146200  1
  N  N26  1  0.43638700  0.94018000  0.37297400  1
  N  N27  1  0.83170300  0.94958900  0.87415100  1
  N  N28  1  0.84987600  0.86002000  0.63273300  1
  N  N29  1  0.90899600  0.34365000  0.12692700  1
  N  N30  1  0.59100400  0.34365000  0.62692700  1
  N  N31  1  0.68449200  0.22807800  0.91938500  1
  N  N32  1  0.34987600  0.13998000  0.86726700  1
  N  N33  1  0.91539600  0.50452000  0.92850100  1
  N  N34  1  0.08460400  0.49548000  0.07149900  1
  N  N35  1  0.81550800  0.22807800  0.41938500  1
  N  N36  1  0.11947500  0.27923500  0.17853800  1
  N  N37  1  0.53968800  0.01602500  0.91849000  1
  N  N38  1  0.41539600  0.49548000  0.57149900  1
  N  N39  1  0.05227500  0.76203300  0.68789800  1
  N  N40  1  0.65012400  0.86002000  0.13273300  1
  N  N41  1  0.58049200  0.47057000  0.86548900  1
  N  N42  1  0.96031200  0.01602500  0.41849000  1
  N  N43  1  0.44772500  0.76203300  0.18789800  1
  N  N44  1  0.16829700  0.05041100  0.12584900  1
  N  N45  1  0.25186800  0.30616900  0.56850100  1
  N  N46  1  0.46031200  0.98397500  0.08151000  1
  N  N47  1  0.06361300  0.94018000  0.87297400  1
  F  F0  1  0.71382100  0.67151000  0.69639200  1
  F  F1  1  0.03074700  0.99814200  0.30590200  1
  F  F2  1  0.78442800  0.14588600  0.19390500  1
  F  F3  1  0.43339200  0.65582600  0.81534100  1
  F  F4  1  0.06660800  0.65582600  0.31534100  1
  F  F5  1  0.04755400  0.59142700  0.43250900  1
  F  F6  1  0.54755400  0.40857300  0.06749100  1
  F  F7  1  0.69452300  0.74992800  0.57963000  1
  F  F8  1  0.54652700  0.15909800  0.31715700  1
  F  F9  1  0.53074700  0.00185800  0.19409800  1
  F  F10  1  0.45275100  0.90812600  0.56523000  1
  F  F11  1  0.45244600  0.59142700  0.93250900  1
  F  F12  1  0.68548000  0.82960500  0.81917800  1
  F  F13  1  0.73584800  0.37545000  0.80659400  1
  F  F14  1  0.31452000  0.17039500  0.18082200  1
  F  F15  1  0.04652700  0.84090200  0.18284300  1
  F  F16  1  0.73095100  0.20557900  0.57636700  1
  F  F17  1  0.04724900  0.90812600  0.06523000  1
  F  F18  1  0.21382100  0.32849000  0.80360800  1
  F  F19  1  0.18548000  0.17039500  0.68082200  1
  F  F20  1  0.81452000  0.82960500  0.31917800  1
  F  F21  1  0.96925300  0.00185800  0.69409800  1
  F  F22  1  0.51466200  0.49390100  0.31520500  1
  F  F23  1  0.01466200  0.50609900  0.18479500  1
  F  F24  1  0.71557200  0.14588600  0.69390500  1
  F  F25  1  0.93339200  0.34417400  0.68465900  1
  F  F26  1  0.21557200  0.85411400  0.80609500  1
  F  F27  1  0.95347300  0.15909800  0.81715700  1
  F  F28  1  0.54724900  0.09187400  0.43477000  1
  F  F29  1  0.98533800  0.49390100  0.81520500  1
  F  F30  1  0.46925300  0.99814200  0.80590200  1
  F  F31  1  0.19452300  0.25007200  0.92037000  1
  F  F32  1  0.95244600  0.40857300  0.56749100  1
  F  F33  1  0.45347300  0.84090200  0.68284300  1
  F  F34  1  0.28442800  0.85411400  0.30609500  1
  F  F35  1  0.76415200  0.37545000  0.30659400  1
  F  F36  1  0.80547700  0.74992800  0.07963000  1
  F  F37  1  0.23584800  0.62455000  0.69340600  1
  F  F38  1  0.95275100  0.09187400  0.93477000  1
  F  F39  1  0.48533800  0.50609900  0.68479500  1
  F  F40  1  0.26904900  0.79442100  0.42363300  1
  F  F41  1  0.78617900  0.67151000  0.19639200  1
  F  F42  1  0.30547700  0.25007200  0.42037000  1
  F  F43  1  0.28617900  0.32849000  0.30360800  1
  F  F44  1  0.76904900  0.20557900  0.07636700  1
  F  F45  1  0.23095100  0.79442100  0.92363300  1
  F  F46  1  0.26415200  0.62455000  0.19340600  1
  F  F47  1  0.56660800  0.34417400  0.18465900  1
loop_
_geom_bond_atom_site_label_1
_geom_bond_atom_site_label_2
_geom_bond_distance
_geom_bond_site_symmetry_2
N0 S1 1.550337 1_555
N0 P16 1.677871 1_555
N1 S5 1.548547 1_555
N1 P18 1.675160 1_555
N2 P2 1.584350 1_555
N2 P9 1.587487 1_555
N3 S4 1.548547 1_555
N3 P7 1.675160 1_555
N4 P3 1.553782 1_555
N4 P19 1.554274 1_555
N5 P4 1.584912 1_555
N5 P8 1.587109 1_655
N6 P24 1.573931 1_545
N6 P12 1.584206 1_555
N7 P12 1.584350 1_555
N7 P30 1.587487 1_555
N8 S6 1.549611 1_555
N8 P25 1.674514 1_555
N9 S1 1.549611 1_555
N9 P1 1.674514 1_555
N10 P26 1.569256 1_455
N10 P7 1.579274 1_555
N11 P5 1.569890 1_555
N11 P16 1.579454 1_555
N12 S4 1.551561 1_555
N12 P22 1.677161 1_455
N13 P13 1.549873 1_645
N13 P10 1.552255 1_555
N14 P19 1.569256 1_655
N14 P4 1.579274 1_555
N15 P11 1.573931 1_565
N15 P1 1.584206 1_555
N16 P6 1.569256 1_555
N16 P18 1.579274 1_555
N17 P21 1.584912 1_555
N17 P17 1.587109 1_555
N18 P3 1.568937 1_555
N18 P8 1.580001 1_555
N19 P15 1.553782 1_555
N19 P26 1.554274 1_555
N20 P29 1.569890 1_555
N20 P9 1.579454 1_455
N21 P23 1.553782 1_555
N21 P27 1.554274 1_555
N22 P24 1.549873 1_545
N22 P31 1.552255 1_555
N23 S7 1.549611 1_555
N23 P2 1.674514 1_555
N24 P20 1.553782 1_555
N24 P6 1.554274 1_555
N25 P1 1.584350 1_555
N25 P16 1.587487 1_555
N26 P11 1.549873 1_565
N26 P5 1.552255 1_555
N27 P28 1.573931 1_565
N27 P2 1.584206 1_555
N28 P15 1.568937 1_555
N28 P22 1.580001 1_555
N29 P10 1.569890 1_555
N29 P0 1.579454 1_655
N30 P31 1.569890 1_555
N30 P30 1.579454 1_555
N31 S3 1.548547 1_555
N31 P21 1.675160 1_555
N32 P23 1.568937 1_555
N32 P17 1.580001 1_555
N33 S7 1.550337 1_555
N33 P9 1.677871 1_555
N34 S6 1.550337 1_555
N34 P0 1.677871 1_555
N35 S0 1.548547 1_555
N35 P4 1.675160 1_555
N36 P25 1.584350 1_555
N36 P0 1.587487 1_555
N37 S3 1.551561 1_555
N37 P17 1.677161 1_555
N38 S2 1.550337 1_555
N38 P30 1.677871 1_555
N39 P7 1.584912 1_555
N39 P22 1.587109 1_455
N40 P20 1.568937 1_555
N40 P14 1.580001 1_555
N41 P27 1.569256 1_555
N41 P21 1.579274 1_555
N42 S0 1.551561 1_555
N42 P8 1.677161 1_655
N43 P18 1.584912 1_555
N43 P14 1.587109 1_555
N44 P13 1.573931 1_545
N44 P25 1.584206 1_555
N45 S2 1.549611 1_555
N45 P12 1.674514 1_555
N46 S5 1.551561 1_555
N46 P14 1.677161 1_555
N47 P28 1.549873 1_465
N47 P29 1.552255 1_555
F0 P15 1.561635 1_555
F1 P8 1.561925 1_565
F2 P10 1.560629 1_555
F3 P27 1.559682 1_555
F4 P19 1.559682 1_555
F5 P19 1.563431 1_555
F6 P6 1.563431 1_555
F7 P15 1.564590 1_555
F8 P11 1.558887 1_555
F9 P14 1.561925 1_545
F10 P24 1.562851 1_555
F11 P27 1.563431 1_555
F12 P2 1.561081 1_555
F13 P21 1.562998 1_555
F14 P25 1.561081 1_555
F15 P13 1.558887 1_555
F16 P31 1.564096 1_555
F17 P13 1.562851 1_555
F18 P23 1.561635 1_555
F19 P12 1.561081 1_555
F20 P1 1.561081 1_555
F21 P22 1.561925 1_545
F22 P16 1.562092 1_555
F23 P0 1.562092 1_555
F24 P31 1.560629 1_555
F25 P26 1.559682 1_555
F26 P29 1.560629 1_555
F27 P28 1.558887 1_555
F28 P11 1.562851 1_555
F29 P9 1.562092 1_555
F30 P17 1.561925 1_565
F31 P23 1.564590 1_555
F32 P26 1.563431 1_555
F33 P24 1.558887 1_555
F34 P5 1.560629 1_555
F35 P4 1.562998 1_555
F36 P20 1.564590 1_555
F37 P7 1.562998 1_555
F38 P28 1.562851 1_555
F39 P30 1.562092 1_555
F40 P5 1.564096 1_555
F41 P20 1.561635 1_555
F42 P3 1.564590 1_555
F43 P3 1.561635 1_555
F44 P10 1.564096 1_555
F45 P29 1.564096 1_555
F46 P18 1.562998 1_555
F47 P6 1.559682 1_555
