# generated using pymatgen
data_NaCuAsO4
_symmetry_space_group_name_H-M   'P 1'
_cell_length_a   10.90796300
_cell_length_b   6.13959700
_cell_length_c   10.58280978
_cell_angle_alpha   88.51510849
_cell_angle_beta   90.00000000
_cell_angle_gamma   90.00000000
_symmetry_Int_Tables_number   1
_chemical_formula_structural   NaCuAsO4
_chemical_formula_sum   'Na8 Cu8 As8 O32'
_cell_volume   708.49803127
_cell_formula_units_Z   8
loop_
 _symmetry_equiv_pos_site_id
 _symmetry_equiv_pos_as_xyz
  1  'x, y, z'
loop_
 _atom_site_type_symbol
 _atom_site_label
 _atom_site_symmetry_multiplicity
 _atom_site_fract_x
 _atom_site_fract_y
 _atom_site_fract_z
 _atom_site_occupancy
  Na  Na0  1  0.63068400  0.36791700  0.38142900  1
  Na  Na1  1  0.34740200  0.12831400  0.61764100  1
  Na  Na2  1  0.36931600  0.63208300  0.61857100  1
  Na  Na3  1  0.84740200  0.87168600  0.88235900  1
  Na  Na4  1  0.86931600  0.36791700  0.88142900  1
  Na  Na5  1  0.65259800  0.87168600  0.38235900  1
  Na  Na6  1  0.13068400  0.63208300  0.11857100  1
  Na  Na7  1  0.15259800  0.12831400  0.11764100  1
  Cu  Cu0  1  0.09969700  0.38433200  0.72294200  1
  Cu  Cu1  1  0.12035400  0.83118700  0.51085400  1
  Cu  Cu2  1  0.59969700  0.61566800  0.77705800  1
  Cu  Cu3  1  0.40030300  0.38433200  0.22294200  1
  Cu  Cu4  1  0.37964600  0.83118700  0.01085400  1
  Cu  Cu5  1  0.90030300  0.61566800  0.27705800  1
  Cu  Cu6  1  0.87964600  0.16881300  0.48914600  1
  Cu  Cu7  1  0.62035400  0.16881300  0.98914600  1
  As  As0  1  0.63547600  0.62227100  0.09118400  1
  As  As1  1  0.86452400  0.62227100  0.59118400  1
  As  As2  1  0.62095100  0.12711800  0.67862600  1
  As  As3  1  0.36452400  0.37772900  0.90881600  1
  As  As4  1  0.87904900  0.12711800  0.17862600  1
  As  As5  1  0.37904900  0.87288200  0.32137400  1
  As  As6  1  0.12095100  0.87288200  0.82137400  1
  As  As7  1  0.13547600  0.37772900  0.40881600  1
  O  O0  1  0.03526500  0.63489100  0.84024800  1
  O  O1  1  0.20529000  0.40235100  0.55252900  1
  O  O2  1  0.70401700  0.12927400  0.81707300  1
  O  O3  1  0.03837100  0.15467100  0.41186600  1
  O  O4  1  0.46162900  0.15467100  0.91186600  1
  O  O5  1  0.78443100  0.12089700  0.04631400  1
  O  O6  1  0.20401700  0.87072600  0.68292700  1
  O  O7  1  0.52914100  0.90085100  0.66573700  1
  O  O8  1  0.55350000  0.37424600  0.12229200  1
  O  O9  1  0.94650000  0.37424600  0.62229200  1
  O  O10  1  0.26824200  0.34660000  0.78350600  1
  O  O11  1  0.47085900  0.09914900  0.33426300  1
  O  O12  1  0.53526500  0.36510900  0.65975200  1
  O  O13  1  0.97085900  0.90085100  0.16573700  1
  O  O14  1  0.76824200  0.65340000  0.71649400  1
  O  O15  1  0.79471000  0.59764900  0.44747100  1
  O  O16  1  0.96162900  0.84532900  0.58813400  1
  O  O17  1  0.70529000  0.59764900  0.94747100  1
  O  O18  1  0.71556900  0.12089700  0.54631400  1
  O  O19  1  0.46473500  0.63489100  0.34024800  1
  O  O20  1  0.05350000  0.62575400  0.37770800  1
  O  O21  1  0.44650000  0.62575400  0.87770800  1
  O  O22  1  0.29471000  0.40235100  0.05252900  1
  O  O23  1  0.73175800  0.65340000  0.21649400  1
  O  O24  1  0.23175800  0.34660000  0.28350600  1
  O  O25  1  0.53837100  0.84532900  0.08813400  1
  O  O26  1  0.29598300  0.87072600  0.18292700  1
  O  O27  1  0.28443100  0.87910300  0.45368600  1
  O  O28  1  0.96473500  0.36510900  0.15975200  1
  O  O29  1  0.79598300  0.12927400  0.31707300  1
  O  O30  1  0.02914100  0.09914900  0.83426300  1
  O  O31  1  0.21556900  0.87910300  0.95368600  1
loop_
_geom_bond_atom_site_label_1
_geom_bond_atom_site_label_2
_geom_bond_distance
_geom_bond_site_symmetry_2
Na0 O15 2.393777 1_555
Na0 O29 2.431744 1_555
Na0 O11 2.460504 1_555
Na0 O18 2.462743 1_555
Na0 O19 2.473115 1_555
Na0 O23 2.678767 1_555
Na0 O8 2.868024 1_555
Na1 O6 2.316904 1_545
Na1 O1 2.376643 1_555
Na1 O10 2.396821 1_555
Na1 O27 2.441528 1_545
Na1 O7 2.470314 1_545
Na1 O12 2.558325 1_555
Na2 O1 2.393777 1_555
Na2 O6 2.431744 1_555
Na2 O7 2.460504 1_555
Na2 O27 2.462743 1_555
Na2 O12 2.473115 1_555
Na2 O10 2.678767 1_555
Na2 O21 2.868024 1_555
Na3 O2 2.316904 1_565
Na3 O17 2.376643 1_555
Na3 O14 2.396821 1_555
Na3 O5 2.441528 1_566
Na3 O30 2.470314 1_665
Na3 O0 2.558325 1_655
Na4 O17 2.393777 1_555
Na4 O2 2.431744 1_555
Na4 O30 2.460504 1_655
Na4 O5 2.462743 1_556
Na4 O0 2.473115 1_655
Na4 O14 2.678767 1_555
Na4 O9 2.868024 1_555
Na5 O29 2.316904 1_565
Na5 O15 2.376643 1_555
Na5 O23 2.396821 1_555
Na5 O18 2.441528 1_565
Na5 O11 2.470314 1_565
Na5 O19 2.558325 1_555
Na6 O22 2.393777 1_555
Na6 O26 2.431744 1_555
Na6 O13 2.460504 1_455
Na6 O31 2.462743 1_554
Na6 O28 2.473115 1_455
Na6 O24 2.678767 1_555
Na6 O20 2.868024 1_555
Na7 O26 2.316904 1_545
Na7 O22 2.376643 1_555
Na7 O24 2.396821 1_555
Na7 O31 2.441528 1_544
Na7 O13 2.470314 1_445
Na7 O28 2.558325 1_455
Cu0 O10 1.958773 1_555
Cu0 O9 1.983503 1_455
Cu0 O0 2.121447 1_555
Cu0 O1 2.140322 1_555
Cu0 O30 2.222384 1_555
Cu1 O27 1.909590 1_555
Cu1 O16 1.917736 1_455
Cu1 O20 2.049430 1_555
Cu1 O6 2.056882 1_555
Cu1 O3 2.394521 1_565
Cu2 O14 1.958773 1_555
Cu2 O21 1.983503 1_555
Cu2 O12 2.121447 1_555
Cu2 O17 2.140322 1_555
Cu2 O7 2.222384 1_555
Cu3 O24 1.958773 1_555
Cu3 O8 1.983503 1_555
Cu3 O19 2.121447 1_555
Cu3 O22 2.140322 1_555
Cu3 O11 2.222384 1_555
Cu4 O31 1.909590 1_554
Cu4 O25 1.917736 1_555
Cu4 O21 2.049430 1_554
Cu4 O26 2.056882 1_555
Cu4 O4 2.394521 1_564
Cu5 O23 1.958773 1_555
Cu5 O20 1.983503 1_655
Cu5 O28 2.121447 1_555
Cu5 O15 2.140322 1_555
Cu5 O13 2.222384 1_555
Cu6 O18 1.909590 1_555
Cu6 O3 1.917736 1_655
Cu6 O9 2.049430 1_555
Cu6 O29 2.056882 1_555
Cu6 O16 2.394521 1_545
Cu7 O5 1.909590 1_556
Cu7 O4 1.917736 1_555
Cu7 O8 2.049430 1_556
Cu7 O2 2.056882 1_555
Cu7 O25 2.394521 1_546
As0 O23 1.706251 1_555
As0 O17 1.711079 1_554
As0 O25 1.730949 1_555
As0 O8 1.789082 1_555
As1 O14 1.706251 1_555
As1 O15 1.711079 1_555
As1 O16 1.730949 1_555
As1 O9 1.789082 1_555
As2 O7 1.720811 1_545
As2 O2 1.723036 1_555
As2 O18 1.740716 1_555
As2 O12 1.741658 1_555
As3 O10 1.706251 1_555
As3 O22 1.711079 1_556
As3 O4 1.730949 1_555
As3 O21 1.789082 1_555
As4 O13 1.720811 1_545
As4 O29 1.723036 1_555
As4 O5 1.740716 1_555
As4 O28 1.741658 1_555
As5 O11 1.720811 1_565
As5 O26 1.723036 1_555
As5 O27 1.740716 1_555
As5 O19 1.741658 1_555
As6 O30 1.720811 1_565
As6 O6 1.723036 1_555
As6 O31 1.740716 1_555
As6 O0 1.741658 1_555
As7 O24 1.706251 1_555
As7 O1 1.711079 1_555
As7 O3 1.730949 1_555
As7 O20 1.789082 1_555
