# generated using pymatgen
data_BaAl2
_symmetry_space_group_name_H-M   'P 1'
_cell_length_a   6.03170860
_cell_length_b   6.03170994
_cell_length_c   6.03170891
_cell_angle_alpha   59.99999987
_cell_angle_beta   59.99999256
_cell_angle_gamma   59.99999905
_symmetry_Int_Tables_number   1
_chemical_formula_structural   BaAl2
_chemical_formula_sum   'Ba2 Al4'
_cell_volume   155.16942434
_cell_formula_units_Z   2
loop_
 _symmetry_equiv_pos_site_id
 _symmetry_equiv_pos_as_xyz
  1  'x, y, z'
loop_
 _atom_site_type_symbol
 _atom_site_label
 _atom_site_symmetry_multiplicity
 _atom_site_fract_x
 _atom_site_fract_y
 _atom_site_fract_z
 _atom_site_occupancy
  Ba  Ba0  1  0.12500000  0.12500000  0.12500000  1
  Ba  Ba1  1  0.87500000  0.87500000  0.87500000  1
  Al  Al0  1  0.50000000  -0.00000000  0.50000000  1
  Al  Al1  1  -0.00000000  0.50000000  0.50000000  1
  Al  Al2  1  0.50000000  0.50000000  0.50000000  1
  Al  Al3  1  0.50000000  0.50000000  -0.00000000  1
loop_
_geom_bond_atom_site_label_1
_geom_bond_atom_site_label_2
_geom_bond_distance
_geom_bond_site_symmetry_2
Ba0 Ba1 3.693652 1_544
Ba0 Ba1 3.693652 1_445
Ba0 Ba1 3.693653 1_444
Ba0 Ba1 3.693653 1_454
Al0 Al1 3.015855 1_645
Al0 Al1 3.015855 1_555
Al0 Al3 3.015855 1_555
Al0 Al3 3.015855 1_546
Al0 Al2 3.015855 1_555
Al0 Al2 3.015855 1_545
Al0 Ba0 3.536402 1_655
Al0 Ba1 3.536402 1_445
Al0 Ba0 3.536403 1_556
Al0 Ba1 3.536403 1_544
Al0 Ba1 3.536403 1_545
Al0 Ba0 3.536403 1_555
Al1 Al3 3.015854 1_456
Al1 Al3 3.015854 1_555
Al1 Al2 3.015854 1_455
Al1 Al2 3.015854 1_555
Al1 Ba1 3.536403 1_454
Al1 Ba0 3.536403 1_556
Al1 Ba1 3.536403 1_455
Al1 Ba0 3.536403 1_555
Al1 Ba0 3.536403 1_565
Al1 Ba1 3.536403 1_445
Al2 Al3 3.015854 1_555
Al2 Al3 3.015854 1_556
Al2 Ba1 3.536403 1_455
Al2 Ba0 3.536403 1_655
Al2 Ba1 3.536403 1_554
Al2 Ba0 3.536403 1_556
Al2 Ba1 3.536403 1_545
Al2 Ba0 3.536403 1_565
Al3 Ba1 3.536403 1_454
Al3 Ba0 3.536403 1_655
Al3 Ba1 3.536403 1_554
Al3 Ba0 3.536403 1_555
Al3 Ba1 3.536403 1_544
Al3 Ba0 3.536403 1_565
