# generated using pymatgen
data_Dy2Ti2O7
_symmetry_space_group_name_H-M   'P 1'
_cell_length_a   7.24247993
_cell_length_b   7.24247993
_cell_length_c   23.77533748
_cell_angle_alpha   80.77355742
_cell_angle_beta   80.77355742
_cell_angle_gamma   59.60585403
_symmetry_Int_Tables_number   1
_chemical_formula_structural   Dy2Ti2O7
_chemical_formula_sum   'Dy16 Ti16 O56'
_cell_volume   1057.18255189
_cell_formula_units_Z   8
loop_
 _symmetry_equiv_pos_site_id
 _symmetry_equiv_pos_as_xyz
  1  'x, y, z'
loop_
 _atom_site_type_symbol
 _atom_site_label
 _atom_site_symmetry_multiplicity
 _atom_site_fract_x
 _atom_site_fract_y
 _atom_site_fract_z
 _atom_site_occupancy
  Dy  Dy0  1  0.86621300  0.36060000  0.87063600  1
  Dy  Dy1  1  0.50000000  0.50000000  0.00000000  1
  Dy  Dy2  1  0.36060000  0.86621300  0.87063600  1
  Dy  Dy3  1  0.13378700  0.63940000  0.12936400  1
  Dy  Dy4  1  0.85947700  0.85947700  0.88692700  1
  Dy  Dy5  1  0.63940000  0.13378700  0.12936400  1
  Dy  Dy6  1  0.87419000  0.87419000  0.37557900  1
  Dy  Dy7  1  0.00000000  0.00000000  0.50000000  1
  Dy  Dy8  1  0.37542700  0.87496300  0.37572000  1
  Dy  Dy9  1  0.74331400  0.74331400  0.25017700  1
  Dy  Dy10  1  0.14052300  0.14052300  0.11307300  1
  Dy  Dy11  1  0.87496300  0.37542700  0.37572000  1
  Dy  Dy12  1  0.62457300  0.12503700  0.62428000  1
  Dy  Dy13  1  0.25668600  0.25668600  0.74982300  1
  Dy  Dy14  1  0.12581000  0.12581000  0.62442100  1
  Dy  Dy15  1  0.12503700  0.62457300  0.62428000  1
  Ti  Ti0  1  0.37200300  0.37200300  0.86890200  1
  Ti  Ti1  1  0.62799700  0.62799700  0.13109800  1
  Ti  Ti2  1  0.00000000  0.50000000  0.00000000  1
  Ti  Ti3  1  0.50000000  0.00000000  0.00000000  1
  Ti  Ti4  1  0.00000000  0.00000000  0.00000000  1
  Ti  Ti5  1  0.24953800  0.76386200  0.24846700  1
  Ti  Ti6  1  0.26013400  0.26013400  0.24885000  1
  Ti  Ti7  1  0.50000000  0.00000000  0.50000000  1
  Ti  Ti8  1  0.00000000  0.50000000  0.50000000  1
  Ti  Ti9  1  0.76386200  0.24953800  0.24846700  1
  Ti  Ti10  1  0.37791300  0.37791300  0.37347400  1
  Ti  Ti11  1  0.50000000  0.50000000  0.50000000  1
  Ti  Ti12  1  0.75046200  0.23613800  0.75153300  1
  Ti  Ti13  1  0.23613800  0.75046200  0.75153300  1
  Ti  Ti14  1  0.62208700  0.62208700  0.62652600  1
  Ti  Ti15  1  0.73986600  0.73986600  0.75115000  1
  O  O0  1  0.50600900  0.50600900  0.90416400  1
  O  O1  1  0.74072100  0.74072100  0.97397700  1
  O  O2  1  0.11521100  0.49884100  0.91731500  1
  O  O3  1  0.11703300  0.67720200  0.01566700  1
  O  O4  1  0.49884100  0.11521100  0.91731500  1
  O  O5  1  0.77738400  0.77738400  0.15806600  1
  O  O6  1  0.67720200  0.11703300  0.01566700  1
  O  O7  1  0.01539400  0.01539400  0.91821900  1
  O  O8  1  0.94574200  0.94574200  0.27007700  1
  O  O9  1  0.24962700  0.82710500  0.16801700  1
  O  O10  1  0.32279800  0.88296700  0.98433300  1
  O  O11  1  0.98460600  0.98460600  0.08178100  1
  O  O12  1  0.88296700  0.32279800  0.98433300  1
  O  O13  1  0.82710500  0.24962700  0.16801700  1
  O  O14  1  0.50115900  0.88478900  0.08268500  1
  O  O15  1  0.34867600  0.94298400  0.26871900  1
  O  O16  1  0.03053600  0.03053600  0.40579300  1
  O  O17  1  0.25927900  0.25927900  0.02602300  1
  O  O18  1  0.27381200  0.27381200  0.16053700  1
  O  O19  1  0.88478900  0.50115900  0.08268500  1
  O  O20  1  0.94298400  0.34867600  0.26871900  1
  O  O21  1  0.49922100  0.08710700  0.41717800  1
  O  O22  1  0.25419100  0.25419100  0.33162000  1
  O  O23  1  0.56371200  0.14482600  0.23239600  1
  O  O24  1  0.18989000  0.18989000  0.51996700  1
  O  O25  1  0.14482600  0.56371200  0.23239600  1
  O  O26  1  0.28104600  0.28104600  0.65535300  1
  O  O27  1  0.66083700  0.25878700  0.33183900  1
  O  O28  1  0.60071100  0.18906500  0.52022700  1
  O  O29  1  0.49399100  0.49399100  0.09583600  1
  O  O30  1  0.08710700  0.49922100  0.41717800  1
  O  O31  1  0.25878700  0.66083700  0.33183900  1
  O  O32  1  0.49796100  0.49796100  0.41761800  1
  O  O33  1  0.57013300  0.57013300  0.22331700  1
  O  O34  1  0.18906500  0.60071100  0.52022700  1
  O  O35  1  0.42986700  0.42986700  0.77668300  1
  O  O36  1  0.81093500  0.39928900  0.47977300  1
  O  O37  1  0.50203900  0.50203900  0.58238200  1
  O  O38  1  0.74121300  0.33916300  0.66816100  1
  O  O39  1  0.85517400  0.43628800  0.76760400  1
  O  O40  1  0.39928900  0.81093500  0.47977300  1
  O  O41  1  0.91289300  0.50077900  0.58282200  1
  O  O42  1  0.33916300  0.74121300  0.66816100  1
  O  O43  1  0.71895400  0.71895400  0.34464700  1
  O  O44  1  0.50077900  0.91289300  0.58282200  1
  O  O45  1  0.43628800  0.85517400  0.76760400  1
  O  O46  1  0.81011000  0.81011000  0.48003300  1
  O  O47  1  0.74580900  0.74580900  0.66838000  1
  O  O48  1  0.72618800  0.72618800  0.83946300  1
  O  O49  1  0.05701600  0.65132400  0.73128100  1
  O  O50  1  0.96946400  0.96946400  0.59420700  1
  O  O51  1  0.17289500  0.75037300  0.83198300  1
  O  O52  1  0.65132400  0.05701600  0.73128100  1
  O  O53  1  0.75037300  0.17289500  0.83198300  1
  O  O54  1  0.05425800  0.05425800  0.72992300  1
  O  O55  1  0.22261600  0.22261600  0.84193400  1
loop_
_geom_bond_atom_site_label_1
_geom_bond_atom_site_label_2
_geom_bond_distance
_geom_bond_site_symmetry_2
Dy0 O55 2.273935 1_655
Dy0 O53 2.280016 1_555
Dy0 O0 2.317865 1_555
Dy0 O7 2.334419 1_655
Dy0 O48 2.341591 1_555
Dy0 O39 2.428039 1_555
Dy0 O12 2.689076 1_555
Dy0 O2 2.882938 1_655
Dy1 O29 2.265794 1_555
Dy1 O0 2.265794 1_554
Dy1 O10 2.387233 1_554
Dy1 O12 2.387233 1_554
Dy1 O6 2.387233 1_555
Dy1 O3 2.387233 1_555
Dy2 O55 2.273935 1_565
Dy2 O51 2.280016 1_555
Dy2 O0 2.317865 1_555
Dy2 O7 2.334419 1_565
Dy2 O48 2.341591 1_555
Dy2 O45 2.428039 1_555
Dy2 O10 2.689076 1_555
Dy2 O4 2.882938 1_565
Dy3 O5 2.273935 1_455
Dy3 O9 2.280016 1_555
Dy3 O29 2.317865 1_555
Dy3 O11 2.334419 1_455
Dy3 O18 2.341591 1_555
Dy3 O25 2.428039 1_555
Dy3 O3 2.689076 1_555
Dy3 O19 2.882938 1_455
Dy4 O48 2.186059 1_555
Dy4 O7 2.221019 1_665
Dy4 O53 2.246897 1_565
Dy4 O51 2.246897 1_655
Dy4 O1 2.317289 1_555
Dy4 O2 2.388155 1_655
Dy4 O4 2.388155 1_565
Dy5 O5 2.273935 1_545
Dy5 O13 2.280016 1_555
Dy5 O29 2.317865 1_555
Dy5 O11 2.334419 1_545
Dy5 O18 2.341591 1_555
Dy5 O23 2.428039 1_555
Dy5 O6 2.689076 1_555
Dy5 O14 2.882938 1_545
Dy6 O43 2.208679 1_555
Dy6 O16 2.213477 1_665
Dy6 O46 2.465148 1_555
Dy6 O21 2.474140 1_565
Dy6 O30 2.474140 1_655
Dy6 O8 2.503391 1_555
Dy6 O31 2.541443 1_655
Dy6 O27 2.541443 1_565
Dy7 O16 2.201441 1_555
Dy7 O50 2.201441 1_445
Dy7 O34 2.495460 1_545
Dy7 O36 2.495460 1_455
Dy7 O40 2.495460 1_545
Dy7 O28 2.495460 1_455
Dy7 O24 2.518077 1_555
Dy7 O46 2.518077 1_445
Dy8 O43 2.201408 1_555
Dy8 O16 2.204045 1_565
Dy8 O40 2.460324 1_555
Dy8 O32 2.488867 1_555
Dy8 O21 2.509789 1_565
Dy8 O31 2.516773 1_555
Dy8 O22 2.518994 1_565
Dy8 O15 2.532128 1_555
Dy9 O5 2.152390 1_555
Dy9 O43 2.210062 1_555
Dy9 O33 2.379019 1_555
Dy9 O20 2.464278 1_555
Dy9 O15 2.464278 1_555
Dy9 O25 2.506278 1_655
Dy9 O23 2.506278 1_565
Dy9 O8 2.672537 1_555
Dy10 O18 2.186059 1_555
Dy10 O11 2.221019 1_445
Dy10 O9 2.246897 1_545
Dy10 O13 2.246897 1_455
Dy10 O17 2.317289 1_555
Dy10 O19 2.388155 1_455
Dy10 O14 2.388155 1_545
Dy11 O43 2.201408 1_555
Dy11 O16 2.204045 1_655
Dy11 O36 2.460324 1_555
Dy11 O32 2.488867 1_555
Dy11 O30 2.509789 1_655
Dy11 O27 2.516773 1_555
Dy11 O22 2.518994 1_655
Dy11 O20 2.532128 1_555
Dy12 O26 2.201408 1_555
Dy12 O50 2.204045 1_545
Dy12 O28 2.460324 1_555
Dy12 O37 2.488867 1_555
Dy12 O44 2.509789 1_545
Dy12 O38 2.516773 1_555
Dy12 O47 2.518994 1_545
Dy12 O52 2.532128 1_555
Dy13 O55 2.152390 1_555
Dy13 O26 2.210062 1_555
Dy13 O35 2.379019 1_555
Dy13 O52 2.464278 1_555
Dy13 O49 2.464278 1_555
Dy13 O45 2.506278 1_545
Dy13 O39 2.506278 1_455
Dy13 O54 2.672537 1_555
Dy14 O26 2.208679 1_555
Dy14 O50 2.213477 1_445
Dy14 O24 2.465148 1_555
Dy14 O41 2.474140 1_455
Dy14 O44 2.474140 1_545
Dy14 O54 2.503391 1_555
Dy14 O38 2.541443 1_455
Dy14 O42 2.541443 1_545
Dy15 O26 2.201408 1_555
Dy15 O50 2.204045 1_455
Dy15 O34 2.460324 1_555
Dy15 O37 2.488867 1_555
Dy15 O41 2.509789 1_455
Dy15 O42 2.516773 1_555
Dy15 O47 2.518994 1_455
Dy15 O49 2.532128 1_555
O0 Ti0 2.015371 1_555
O1 Ti2 1.913747 1_656
O1 Ti3 1.913747 1_566
O2 Ti0 1.884534 1_555
O2 Ti2 2.008264 1_556
O3 Ti2 1.964571 1_555
O3 Ti4 2.034603 1_565
O4 Ti0 1.884534 1_555
O4 Ti3 2.008264 1_556
O5 Ti1 2.093242 1_555
O6 Ti3 1.964571 1_555
O6 Ti4 2.034603 1_655
O7 Ti4 1.918068 1_556
O8 Ti9 1.939579 1_565
O8 Ti5 1.939579 1_655
O9 Ti5 1.894012 1_555
O9 Ti1 2.448527 1_555
O10 Ti3 1.964571 1_566
O10 Ti4 2.034603 1_566
O11 Ti4 1.918068 1_665
O12 Ti2 1.964571 1_656
O12 Ti4 2.034603 1_656
O13 Ti9 1.894012 1_555
O13 Ti1 2.448527 1_555
O14 Ti1 1.884534 1_555
O14 Ti3 2.008264 1_565
O15 Ti5 1.919383 1_555
O15 Ti6 2.041834 1_565
O17 Ti3 1.913747 1_555
O17 Ti2 1.913747 1_555
O18 Ti6 2.074796 1_555
O19 Ti1 1.884534 1_555
O19 Ti2 2.008264 1_655
O20 Ti9 1.919383 1_555
O20 Ti6 2.041834 1_655
O21 Ti7 1.969027 1_555
O21 Ti10 2.001503 1_555
O22 Ti6 1.955461 1_555
O22 Ti10 1.995083 1_555
O23 Ti6 1.911944 1_555
O23 Ti9 2.050695 1_555
O24 Ti8 1.975603 1_555
O24 Ti7 1.975603 1_555
O25 Ti6 1.911944 1_555
O25 Ti5 2.050695 1_555
O27 Ti10 1.938420 1_555
O27 Ti9 2.002014 1_555
O28 Ti11 1.984348 1_555
O28 Ti7 1.993127 1_555
O29 Ti1 2.015371 1_555
O30 Ti8 1.969027 1_555
O30 Ti10 2.001503 1_555
O31 Ti10 1.938420 1_555
O31 Ti5 2.002014 1_555
O32 Ti11 1.963557 1_555
O32 Ti10 1.990870 1_555
O33 Ti9 2.060260 1_555
O33 Ti5 2.060260 1_555
O33 Ti1 2.178736 1_555
O34 Ti11 1.984348 1_555
O34 Ti8 1.993127 1_555
O35 Ti13 2.060260 1_555
O35 Ti12 2.060260 1_555
O35 Ti0 2.178736 1_555
O36 Ti11 1.984348 1_555
O36 Ti8 1.993127 1_655
O37 Ti11 1.963557 1_555
O37 Ti14 1.990870 1_555
O38 Ti14 1.938420 1_555
O38 Ti12 2.002014 1_555
O39 Ti15 1.911944 1_555
O39 Ti12 2.050695 1_555
O40 Ti11 1.984348 1_555
O40 Ti7 1.993127 1_565
O41 Ti8 1.969027 1_655
O41 Ti14 2.001503 1_555
O42 Ti14 1.938420 1_555
O42 Ti13 2.002014 1_555
O44 Ti7 1.969027 1_565
O44 Ti14 2.001503 1_555
O45 Ti15 1.911944 1_555
O45 Ti13 2.050695 1_555
O46 Ti7 1.975603 1_565
O46 Ti8 1.975603 1_655
O47 Ti15 1.955461 1_555
O47 Ti14 1.995083 1_555
O48 Ti15 2.074796 1_555
O49 Ti13 1.919383 1_555
O49 Ti15 2.041834 1_455
O51 Ti13 1.894012 1_555
O51 Ti0 2.448527 1_555
O52 Ti12 1.919383 1_555
O52 Ti15 2.041834 1_545
O53 Ti12 1.894012 1_555
O53 Ti0 2.448527 1_555
O54 Ti13 1.939579 1_545
O54 Ti12 1.939579 1_455
O55 Ti0 2.093242 1_555
