# generated using pymatgen
data_CdI2
_symmetry_space_group_name_H-M   'P 1'
_cell_length_a   4.28205776
_cell_length_b   4.28205813
_cell_length_c   57.25308378
_cell_angle_alpha   90.00000000
_cell_angle_beta   90.00000000
_cell_angle_gamma   120.00001321
_symmetry_Int_Tables_number   1
_chemical_formula_structural   CdI2
_chemical_formula_sum   'Cd8 I16'
_cell_volume   909.14789412
_cell_formula_units_Z   8
loop_
 _symmetry_equiv_pos_site_id
 _symmetry_equiv_pos_as_xyz
  1  'x, y, z'
loop_
 _atom_site_type_symbol
 _atom_site_label
 _atom_site_symmetry_multiplicity
 _atom_site_fract_x
 _atom_site_fract_y
 _atom_site_fract_z
 _atom_site_occupancy
  Cd  Cd0  1  0.66666700  0.33333300  0.90622932  1
  Cd  Cd1  1  0.66666700  0.33333300  0.78113885  1
  Cd  Cd2  1  0.66666700  0.33333300  0.53123939  1
  Cd  Cd3  1  0.66666700  0.33333300  0.15633493  1
  Cd  Cd4  1  0.33333300  0.66666700  0.03123939  1
  Cd  Cd5  1  0.33333300  0.66666700  0.40622932  1
  Cd  Cd6  1  0.33333300  0.66666700  0.65633493  1
  Cd  Cd7  1  0.33333300  0.66666700  0.28113885  1
  I  I0  1  0.33333300  0.66666700  0.75103722  1
  I  I1  1  0.33333300  0.66666700  0.50115433  1
  I  I2  1  -0.00000000  0.00000000  0.43634248  1
  I  I3  1  0.33333300  0.66666700  0.12616869  1
  I  I4  1  0.00000000  -0.00000000  0.18656420  1
  I  I5  1  -0.00000000  -0.00000000  0.31129536  1
  I  I6  1  -0.00000000  -0.00000000  0.93634248  1
  I  I7  1  0.66666700  0.33333300  0.62616869  1
  I  I8  1  0.66666700  0.33333300  0.00115433  1
  I  I9  1  -0.00000000  0.00000000  0.06134363  1
  I  I10  1  0.33333300  0.66666700  0.87615458  1
  I  I11  1  0.00000000  -0.00000000  0.81129536  1
  I  I12  1  0.66666700  0.33333300  0.37615458  1
  I  I13  1  0.66666700  0.33333300  0.25103722  1
  I  I14  1  0.00000000  -0.00000000  0.56134363  1
  I  I15  1  0.00000000  0.00000000  0.68656420  1
loop_
_geom_bond_atom_site_label_1
_geom_bond_atom_site_label_2
_geom_bond_distance
_geom_bond_site_symmetry_2
Cd0 I10 3.012778 1_655
Cd0 I10 3.012779 1_545
Cd0 I10 3.012785 1_555
Cd0 I6 3.014037 1_655
Cd0 I6 3.014039 1_555
Cd0 I6 3.014039 1_665
Cd1 I0 3.013659 1_655
Cd1 I0 3.013659 1_545
Cd1 I0 3.013665 1_555
Cd1 I11 3.015457 1_655
Cd1 I11 3.015460 1_555
Cd1 I11 3.015460 1_665
Cd2 I1 3.013116 1_655
Cd2 I1 3.013116 1_545
Cd2 I1 3.013123 1_555
Cd2 I14 3.013745 1_655
Cd2 I14 3.013747 1_555
Cd2 I14 3.013747 1_665
Cd3 I3 3.015776 1_655
Cd3 I3 3.015776 1_545
Cd3 I3 3.015782 1_555
Cd3 I4 3.017844 1_655
Cd3 I4 3.017847 1_555
Cd3 I4 3.017847 1_665
Cd4 I8 3.013116 1_455
Cd4 I8 3.013116 1_565
Cd4 I8 3.013123 1_555
Cd4 I9 3.013745 1_565
Cd4 I9 3.013747 1_665
Cd4 I9 3.013747 1_555
Cd5 I12 3.012778 1_455
Cd5 I12 3.012779 1_565
Cd5 I12 3.012785 1_555
Cd5 I2 3.014037 1_565
Cd5 I2 3.014039 1_665
Cd5 I2 3.014039 1_555
Cd6 I7 3.015776 1_455
Cd6 I7 3.015776 1_565
Cd6 I7 3.015782 1_555
Cd6 I15 3.017844 1_565
Cd6 I15 3.017847 1_665
Cd6 I15 3.017847 1_555
Cd7 I13 3.013659 1_455
Cd7 I13 3.013659 1_565
Cd7 I13 3.013665 1_555
Cd7 I5 3.015457 1_565
Cd7 I5 3.015460 1_665
Cd7 I5 3.015460 1_555
