# generated using pymatgen
data_ZnS
_symmetry_space_group_name_H-M   'P 1'
_cell_length_a   3.80877931
_cell_length_b   3.80877846
_cell_length_c   74.66027518
_cell_angle_alpha   90.00000000
_cell_angle_beta   90.00000000
_cell_angle_gamma   120.00000751
_symmetry_Int_Tables_number   1
_chemical_formula_structural   ZnS
_chemical_formula_sum   'Zn24 S24'
_cell_volume   937.97595691
_cell_formula_units_Z   24
loop_
 _symmetry_equiv_pos_site_id
 _symmetry_equiv_pos_as_xyz
  1  'x, y, z'
loop_
 _atom_site_type_symbol
 _atom_site_label
 _atom_site_symmetry_multiplicity
 _atom_site_fract_x
 _atom_site_fract_y
 _atom_site_fract_z
 _atom_site_occupancy
  Zn  Zn0  1  0.66666700  0.33333300  0.58330472  1
  Zn  Zn1  1  0.33333300  0.66666700  0.54167082  1
  Zn  Zn2  1  0.66666700  0.33333300  0.33332503  1
  Zn  Zn3  1  0.33333300  0.66666700  0.29167779  1
  Zn  Zn4  1  -0.00000000  0.00000000  0.25000084  1
  Zn  Zn5  1  0.33333300  0.66666700  0.83332841  1
  Zn  Zn6  1  0.66666700  0.33333300  0.08333069  1
  Zn  Zn7  1  0.66666700  0.33333300  0.66670036  1
  Zn  Zn8  1  0.66666700  0.33333300  0.20832442  1
  Zn  Zn9  1  0.00000000  0.00000000  0.37499831  1
  Zn  Zn10  1  0.33333300  0.66666700  0.04170949  1
  Zn  Zn11  1  0.66666700  0.33333300  0.45832110  1
  Zn  Zn12  1  -0.00000000  0.00000000  0.75000113  1
  Zn  Zn13  1  0.33333300  0.66666700  0.16667741  1
  Zn  Zn14  1  0.33333300  0.66666700  0.41667388  1
  Zn  Zn15  1  -0.00000000  0.00000000  0.49999388  1
  Zn  Zn16  1  -0.00000000  0.00000000  0.62498844  1
  Zn  Zn17  1  0.33333300  0.66666700  0.95831052  1
  Zn  Zn18  1  0.66666700  0.33333300  0.91667764  1
  Zn  Zn19  1  0.33333300  0.66666700  0.70832471  1
  Zn  Zn20  1  -0.00000000  0.00000000  0.12500329  1
  Zn  Zn21  1  0.66666700  0.33333300  0.79167912  1
  Zn  Zn22  1  -0.00000000  -0.00000000  0.99999621  1
  Zn  Zn23  1  0.00000000  0.00000000  0.87500352  1
  S  S0  1  0.66666700  0.33333300  0.82292320  1
  S  S1  1  0.33333300  0.66666700  0.19792047  1
  S  S2  1  0.33333300  0.66666700  0.98953755  1
  S  S3  1  -0.00000000  0.00000000  0.40625220  1
  S  S4  1  -0.00000000  0.00000000  0.28125511  1
  S  S5  1  -0.00000000  0.00000000  0.53125016  1
  S  S6  1  0.66666700  0.33333300  0.69792569  1
  S  S7  1  0.33333300  0.66666700  0.44791685  1
  S  S8  1  0.33333300  0.66666700  0.86457816  1
  S  S9  1  -0.00000000  0.00000000  0.03128809  1
  S  S10  1  -0.00000000  0.00000000  0.90625780  1
  S  S11  1  0.66666700  0.33333300  0.61453094  1
  S  S12  1  -0.00000000  0.00000000  0.78125670  1
  S  S13  1  0.33333300  0.66666700  0.73957451  1
  S  S14  1  -0.00000000  0.00000000  0.15625697  1
  S  S15  1  0.66666700  0.33333300  0.48957078  1
  S  S16  1  -0.00000000  0.00000000  0.65628032  1
  S  S17  1  0.33333300  0.66666700  0.57291062  1
  S  S18  1  0.66666700  0.33333300  0.36457254  1
  S  S19  1  0.33333300  0.66666700  0.07293236  1
  S  S20  1  0.66666700  0.33333300  0.11457880  1
  S  S21  1  0.66666700  0.33333300  0.94791763  1
  S  S22  1  0.66666700  0.33333300  0.23957496  1
  S  S23  1  0.33333300  0.66666700  0.32291985  1
loop_
_geom_bond_atom_site_label_1
_geom_bond_atom_site_label_2
_geom_bond_distance
_geom_bond_site_symmetry_2
S0 Zn5 2.332186 1_545
S0 Zn5 2.332187 1_655
S0 Zn5 2.332193 1_555
S0 Zn21 2.332692 1_555
S1 Zn8 2.332155 1_565
S1 Zn8 2.332155 1_455
S1 Zn8 2.332162 1_555
S1 Zn13 2.332615 1_555
S2 Zn17 2.331419 1_555
S2 Zn22 2.333519 1_565
S2 Zn22 2.333522 1_555
S2 Zn22 2.333522 1_665
S3 Zn14 2.332597 1_545
S3 Zn14 2.332599 1_555
S3 Zn14 2.332600 1_445
S3 Zn9 2.333424 1_555
S4 Zn3 2.332621 1_545
S4 Zn3 2.332624 1_555
S4 Zn3 2.332625 1_445
S4 Zn4 2.333452 1_555
S5 Zn1 2.332571 1_545
S5 Zn1 2.332574 1_555
S5 Zn1 2.332574 1_445
S5 Zn15 2.333602 1_555
S6 Zn7 2.331292 1_555
S6 Zn19 2.332032 1_545
S6 Zn19 2.332033 1_655
S6 Zn19 2.332039 1_555
S7 Zn11 2.332162 1_565
S7 Zn11 2.332163 1_455
S7 Zn11 2.332169 1_555
S7 Zn14 2.332609 1_555
S8 Zn23 2.332688 1_565
S8 Zn23 2.332691 1_555
S8 Zn23 2.332691 1_665
S8 Zn5 2.333115 1_555
S9 Zn10 2.332590 1_545
S9 Zn10 2.332592 1_555
S9 Zn10 2.332593 1_445
S9 Zn22 2.336260 1_554
S10 Zn18 2.332551 1_455
S10 Zn18 2.332553 1_445
S10 Zn18 2.332554 1_555
S10 Zn23 2.333453 1_555
S11 Zn0 2.331358 1_555
S11 Zn16 2.333490 1_655
S11 Zn16 2.333493 1_665
S11 Zn16 2.333493 1_555
S12 Zn21 2.332615 1_455
S12 Zn21 2.332618 1_445
S12 Zn21 2.332618 1_555
S12 Zn12 2.333549 1_555
S13 Zn12 2.332720 1_565
S13 Zn12 2.332722 1_555
S13 Zn12 2.332723 1_665
S13 Zn19 2.333119 1_555
S14 Zn13 2.332566 1_545
S14 Zn13 2.332568 1_555
S14 Zn13 2.332569 1_445
S14 Zn20 2.333408 1_555
S15 Zn15 2.332632 1_655
S15 Zn15 2.332635 1_665
S15 Zn15 2.332635 1_555
S15 Zn11 2.333110 1_555
S16 Zn7 2.332556 1_455
S16 Zn7 2.332558 1_445
S16 Zn7 2.332559 1_555
S16 Zn16 2.336260 1_555
S17 Zn0 2.331910 1_565
S17 Zn0 2.331910 1_455
S17 Zn0 2.331917 1_555
S17 Zn1 2.332372 1_555
S18 Zn9 2.332698 1_655
S18 Zn9 2.332701 1_665
S18 Zn9 2.332702 1_555
S18 Zn2 2.332948 1_555
S19 Zn10 2.331108 1_555
S19 Zn6 2.332015 1_565
S19 Zn6 2.332016 1_455
S19 Zn6 2.332022 1_555
S20 Zn20 2.332667 1_655
S20 Zn20 2.332669 1_665
S20 Zn20 2.332670 1_555
S20 Zn6 2.332992 1_555
S21 Zn17 2.331880 1_545
S21 Zn17 2.331880 1_655
S21 Zn17 2.331887 1_555
S21 Zn18 2.332386 1_555
S22 Zn4 2.332701 1_655
S22 Zn4 2.332704 1_665
S22 Zn4 2.332704 1_555
S22 Zn8 2.333174 1_555
S23 Zn2 2.332185 1_565
S23 Zn2 2.332186 1_455
S23 Zn2 2.332192 1_555
S23 Zn3 2.332541 1_555
