# generated using pymatgen
data_Hf4NbGe4
_symmetry_space_group_name_H-M   'P 1'
_cell_length_a   6.90293544
_cell_length_b   7.02499660
_cell_length_c   13.41021363
_cell_angle_alpha   90.00000000
_cell_angle_beta   90.00000000
_cell_angle_gamma   90.00000000
_symmetry_Int_Tables_number   1
_chemical_formula_structural   Hf4NbGe4
_chemical_formula_sum   'Hf16 Nb4 Ge16'
_cell_volume   650.30280371
_cell_formula_units_Z   4
loop_
 _symmetry_equiv_pos_site_id
 _symmetry_equiv_pos_as_xyz
  1  'x, y, z'
loop_
 _atom_site_type_symbol
 _atom_site_label
 _atom_site_symmetry_multiplicity
 _atom_site_fract_x
 _atom_site_fract_y
 _atom_site_fract_z
 _atom_site_occupancy
  Hf  Hf0  1  0.34804108  0.67039310  0.87551252  1
  Hf  Hf1  1  0.84804108  0.82960690  0.87551252  1
  Hf  Hf2  1  0.65195892  0.32960690  0.37551252  1
  Hf  Hf3  1  0.98683844  0.67727720  0.09544051  1
  Hf  Hf4  1  0.48683844  0.82272280  0.40455949  1
  Hf  Hf5  1  0.51316156  0.17727720  0.90455949  1
  Hf  Hf6  1  0.51316156  0.17727720  0.59544051  1
  Hf  Hf7  1  0.01316156  0.32272280  0.90455949  1
  Hf  Hf8  1  0.15195892  0.17039310  0.12448748  1
  Hf  Hf9  1  0.15195892  0.17039310  0.37551252  1
  Hf  Hf10  1  0.98683844  0.67727720  0.40455949  1
  Hf  Hf11  1  0.65195892  0.32960690  0.12448748  1
  Hf  Hf12  1  0.48683844  0.82272280  0.09544051  1
  Hf  Hf13  1  0.01316156  0.32272280  0.59544051  1
  Hf  Hf14  1  0.34804108  0.67039310  0.62448748  1
  Hf  Hf15  1  0.84804108  0.82960690  0.62448748  1
  Nb  Nb0  1  0.67495420  0.50249351  0.75000000  1
  Nb  Nb1  1  0.17495420  0.99750649  0.75000000  1
  Nb  Nb2  1  0.32504580  0.49750649  0.25000000  1
  Nb  Nb3  1  0.82504580  0.00249351  0.25000000  1
  Ge  Ge0  1  0.69089407  0.53266158  0.53932742  1
  Ge  Ge1  1  0.19089407  0.96733842  0.96067258  1
  Ge  Ge2  1  0.31405241  0.35265085  0.75000000  1
  Ge  Ge3  1  0.80910593  0.03266158  0.03932742  1
  Ge  Ge4  1  0.30910593  0.46733842  0.03932742  1
  Ge  Ge5  1  0.45296105  0.10899163  0.25000000  1
  Ge  Ge6  1  0.68594759  0.64734915  0.25000000  1
  Ge  Ge7  1  0.95296105  0.39100837  0.25000000  1
  Ge  Ge8  1  0.81405241  0.14734915  0.75000000  1
  Ge  Ge9  1  0.69089407  0.53266158  0.96067258  1
  Ge  Ge10  1  0.19089407  0.96733842  0.53932742  1
  Ge  Ge11  1  0.04703895  0.60899163  0.75000000  1
  Ge  Ge12  1  0.30910593  0.46733842  0.46067258  1
  Ge  Ge13  1  0.54703895  0.89100837  0.75000000  1
  Ge  Ge14  1  0.80910593  0.03266158  0.46067258  1
  Ge  Ge15  1  0.18594759  0.85265085  0.25000000  1
loop_
_geom_bond_atom_site_label_1
_geom_bond_atom_site_label_2
_geom_bond_distance
_geom_bond_site_symmetry_2
Ge0 Hf15 2.613905 1_555
Ge0 Hf2 2.633043 1_555
Ge0 Hf13 2.773110 1_655
Ge0 Hf14 2.800287 1_555
Ge0 Nb0 2.835238 1_555
Ge0 Hf6 2.881726 1_555
Ge0 Hf10 2.910617 1_555
Ge0 Hf4 3.066342 1_555
Ge1 Hf0 2.613905 1_555
Ge1 Hf8 2.633043 1_566
Ge1 Hf5 2.773110 1_565
Ge1 Hf1 2.800287 1_455
Ge1 Nb1 2.835238 1_555
Ge1 Hf7 2.881726 1_565
Ge1 Hf12 2.910617 1_556
Ge1 Hf3 3.066342 1_456
Ge2 Nb1 2.673279 1_545
Ge2 Nb0 2.704541 1_555
Ge2 Hf6 2.775407 1_555
Ge2 Hf5 2.775407 1_555
Ge2 Hf14 2.805438 1_555
Ge2 Hf0 2.805438 1_555
Ge2 Hf13 2.941809 1_555
Ge2 Hf7 2.941809 1_555
Ge3 Hf11 2.613905 1_555
Ge3 Hf1 2.633043 1_544
Ge3 Hf12 2.773110 1_545
Ge3 Hf8 2.800287 1_655
Ge3 Nb3 2.835238 1_555
Ge3 Hf3 2.881726 1_545
Ge3 Hf5 2.910617 1_554
Ge3 Hf7 3.066342 1_654
Ge4 Hf8 2.613905 1_555
Ge4 Hf0 2.633043 1_554
Ge4 Hf3 2.773110 1_455
Ge4 Hf11 2.800287 1_555
Ge4 Nb2 2.835238 1_555
Ge4 Hf12 2.881726 1_555
Ge4 Hf7 2.910617 1_554
Ge4 Hf5 3.066342 1_554
Ge5 Hf2 2.668690 1_555
Ge5 Hf11 2.668690 1_555
Ge5 Nb3 2.675220 1_555
Ge5 Hf8 2.708560 1_555
Ge5 Hf9 2.708560 1_555
Ge5 Nb2 2.868595 1_555
Ge5 Hf4 2.897403 1_545
Ge5 Hf12 2.897403 1_545
Ge6 Ge7 2.576850 1_555
Ge6 Nb3 2.673279 1_565
Ge6 Nb2 2.704541 1_555
Ge6 Hf12 2.775407 1_555
Ge6 Hf4 2.775407 1_555
Ge6 Hf2 2.805438 1_555
Ge6 Hf11 2.805438 1_555
Ge6 Hf3 2.941809 1_555
Ge6 Hf10 2.941809 1_555
Ge7 Hf9 2.668690 1_655
Ge7 Hf8 2.668690 1_655
Ge7 Nb2 2.675220 1_655
Ge7 Hf11 2.708560 1_555
Ge7 Hf2 2.708560 1_555
Ge7 Nb3 2.868595 1_555
Ge7 Hf3 2.897403 1_555
Ge7 Hf10 2.897403 1_555
Ge8 Nb0 2.673279 1_555
Ge8 Nb1 2.704541 1_645
Ge8 Hf7 2.775407 1_655
Ge8 Hf13 2.775407 1_655
Ge8 Hf15 2.805438 1_545
Ge8 Hf1 2.805438 1_545
Ge8 Hf5 2.941809 1_555
Ge8 Hf6 2.941809 1_555
Ge9 Hf1 2.613905 1_555
Ge9 Hf11 2.633043 1_556
Ge9 Hf7 2.773110 1_655
Ge9 Hf0 2.800287 1_555
Ge9 Nb0 2.835238 1_555
Ge9 Hf5 2.881726 1_555
Ge9 Hf3 2.910617 1_556
Ge9 Hf12 3.066342 1_556
Ge10 Hf14 2.613905 1_555
Ge10 Hf9 2.633043 1_565
Ge10 Hf6 2.773110 1_565
Ge10 Hf15 2.800287 1_455
Ge10 Nb1 2.835238 1_555
Ge10 Hf13 2.881726 1_565
Ge10 Hf4 2.910617 1_555
Ge10 Hf10 3.066342 1_455
Ge11 Ge2 2.576850 1_555
Ge11 Hf15 2.668690 1_455
Ge11 Hf1 2.668690 1_455
Ge11 Nb0 2.675220 1_455
Ge11 Hf14 2.708560 1_555
Ge11 Hf0 2.708560 1_555
Ge11 Nb1 2.868595 1_555
Ge11 Hf7 2.897403 1_555
Ge11 Hf13 2.897403 1_555
Ge12 Hf9 2.613905 1_555
Ge12 Hf14 2.633043 1_555
Ge12 Hf10 2.773110 1_455
Ge12 Hf2 2.800287 1_555
Ge12 Nb2 2.835238 1_555
Ge12 Hf4 2.881726 1_555
Ge12 Hf13 2.910617 1_555
Ge12 Hf6 3.066342 1_555
Ge13 Ge8 2.576850 1_565
Ge13 Hf0 2.668690 1_555
Ge13 Hf14 2.668690 1_555
Ge13 Nb1 2.675220 1_555
Ge13 Hf15 2.708560 1_555
Ge13 Hf1 2.708560 1_555
Ge13 Nb0 2.868595 1_555
Ge13 Hf6 2.897403 1_565
Ge13 Hf5 2.897403 1_565
Ge14 Hf2 2.613905 1_555
Ge14 Hf15 2.633043 1_545
Ge14 Hf4 2.773110 1_545
Ge14 Hf9 2.800287 1_655
Ge14 Nb3 2.835238 1_555
Ge14 Hf10 2.881726 1_545
Ge14 Hf6 2.910617 1_555
Ge14 Hf13 3.066342 1_655
Ge15 Ge5 2.576850 1_565
Ge15 Nb2 2.673279 1_555
Ge15 Nb3 2.704541 1_465
Ge15 Hf3 2.775407 1_455
Ge15 Hf10 2.775407 1_455
Ge15 Hf8 2.805438 1_565
Ge15 Hf9 2.805438 1_565
Ge15 Hf12 2.941809 1_555
Ge15 Hf4 2.941809 1_555
