# generated using pymatgen
data_OsO2F3
_symmetry_space_group_name_H-M   'P 1'
_cell_length_a   10.32882900
_cell_length_b   5.76357900
_cell_length_c   12.90978007
_cell_angle_alpha   78.51781320
_cell_angle_beta   90.00000000
_cell_angle_gamma   90.00000000
_symmetry_Int_Tables_number   1
_chemical_formula_structural   OsO2F3
_chemical_formula_sum   'Os8 O16 F24'
_cell_volume   753.15148508
_cell_formula_units_Z   8
loop_
 _symmetry_equiv_pos_site_id
 _symmetry_equiv_pos_as_xyz
  1  'x, y, z'
loop_
 _atom_site_type_symbol
 _atom_site_label
 _atom_site_symmetry_multiplicity
 _atom_site_fract_x
 _atom_site_fract_y
 _atom_site_fract_z
 _atom_site_occupancy
  Os  Os0  1  0.74163900  0.97053100  0.49654500  1
  Os  Os1  1  0.00844200  0.65899700  0.21743100  1
  Os  Os2  1  0.25836100  0.02946900  0.50345500  1
  Os  Os3  1  0.99155800  0.34100300  0.78256900  1
  Os  Os4  1  0.49155800  0.65899700  0.71743100  1
  Os  Os5  1  0.50844200  0.34100300  0.28256900  1
  Os  Os6  1  0.24163900  0.02946900  0.00345500  1
  Os  Os7  1  0.75836100  0.97053100  0.99654500  1
  O  O0  1  0.15531500  0.53093900  0.25255600  1
  O  O1  1  0.44086900  0.52854800  0.35513200  1
  O  O2  1  0.66588900  0.74108300  0.46037100  1
  O  O3  1  0.42212000  0.39521400  0.16725900  1
  O  O4  1  0.57788000  0.60478600  0.83274100  1
  O  O5  1  0.84468500  0.46906100  0.74744400  1
  O  O6  1  0.55913100  0.47145200  0.64486800  1
  O  O7  1  0.83411100  0.74108300  0.96037100  1
  O  O8  1  0.05913100  0.52854800  0.85513200  1
  O  O9  1  0.33411100  0.25891700  0.53962900  1
  O  O10  1  0.65531500  0.46906100  0.24744400  1
  O  O11  1  0.07788000  0.39521400  0.66725900  1
  O  O12  1  0.92212000  0.60478600  0.33274100  1
  O  O13  1  0.34468500  0.53093900  0.75255600  1
  O  O14  1  0.16588900  0.25891700  0.03962900  1
  O  O15  1  0.94086900  0.47145200  0.14486800  1
  F  F0  1  0.83459500  0.09208600  0.37112500  1
  F  F1  1  0.44350600  0.97433500  0.72451900  1
  F  F2  1  0.39440800  0.18331200  0.94496800  1
  F  F3  1  0.66540500  0.09208600  0.87112500  1
  F  F4  1  0.94350600  0.02566500  0.77548100  1
  F  F5  1  0.55649400  0.02566500  0.27548100  1
  F  F6  1  0.10559200  0.18331200  0.44496800  1
  F  F7  1  0.78984600  0.23854600  0.55078700  1
  F  F8  1  0.33459500  0.90791400  0.12887500  1
  F  F9  1  0.84395600  0.88261400  0.14255300  1
  F  F10  1  0.05649400  0.97433500  0.22451900  1
  F  F11  1  0.21015400  0.76145400  0.44921300  1
  F  F12  1  0.89440800  0.81668800  0.55503200  1
  F  F13  1  0.58950400  0.18742400  0.44220900  1
  F  F14  1  0.60559200  0.81668800  0.05503200  1
  F  F15  1  0.34395600  0.11738600  0.35744700  1
  F  F16  1  0.28984600  0.76145400  0.94921300  1
  F  F17  1  0.91049600  0.18742400  0.94220900  1
  F  F18  1  0.65604400  0.88261400  0.64255300  1
  F  F19  1  0.41049600  0.81257600  0.55779100  1
  F  F20  1  0.71015400  0.23854600  0.05078700  1
  F  F21  1  0.16540500  0.90791400  0.62887500  1
  F  F22  1  0.08950400  0.81257600  0.05779100  1
  F  F23  1  0.15604400  0.11738600  0.85744700  1
loop_
_geom_bond_atom_site_label_1
_geom_bond_atom_site_label_2
_geom_bond_distance
_geom_bond_site_symmetry_2
O0 Os1 1.708360 1_555
O1 Os5 1.713541 1_555
O2 Os0 1.680767 1_555
O3 Os5 1.709800 1_555
O4 Os4 1.709800 1_555
O5 Os3 1.708360 1_555
O6 Os4 1.713541 1_555
O7 Os7 1.680767 1_555
O8 Os3 1.713541 1_455
O9 Os2 1.680767 1_555
O10 Os5 1.708360 1_555
O11 Os3 1.709800 1_455
O12 Os1 1.709800 1_655
O13 Os4 1.708360 1_555
O14 Os6 1.680767 1_555
O15 Os1 1.713541 1_655
F0 Os0 1.892798 1_545
F1 Os4 1.903716 1_555
F2 Os6 1.891989 1_556
F3 Os7 1.892798 1_545
F4 Os3 1.903716 1_555
F5 Os5 1.903716 1_555
F6 Os2 1.891989 1_555
F7 Os0 1.885500 1_545
F8 Os6 1.892798 1_565
F9 Os7 2.052095 1_554
F9 Os1 2.232921 1_655
F10 Os1 1.903716 1_555
F11 Os2 1.885500 1_565
F12 Os0 1.891989 1_555
F13 Os0 2.043249 1_545
F13 Os5 2.237330 1_555
F14 Os7 1.891989 1_554
F15 Os2 2.052095 1_555
F15 Os5 2.232921 1_555
F16 Os6 1.885500 1_566
F17 Os7 2.043249 1_545
F17 Os3 2.237330 1_555
F18 Os0 2.052095 1_555
F18 Os4 2.232921 1_555
F19 Os2 2.043249 1_565
F19 Os4 2.237330 1_555
F20 Os7 1.885500 1_544
F21 Os2 1.892798 1_565
F22 Os6 2.043249 1_565
F22 Os1 2.237330 1_555
F23 Os6 2.052095 1_556
F23 Os3 2.232921 1_455
