# generated using pymatgen
data_RbB5O8
_symmetry_space_group_name_H-M   'P 1'
_cell_length_a   7.49008105
_cell_length_b   11.84213767
_cell_length_c   14.84193918
_cell_angle_alpha   90.00143203
_cell_angle_beta   90.00013154
_cell_angle_gamma   90.00011233
_symmetry_Int_Tables_number   1
_chemical_formula_structural   RbB5O8
_chemical_formula_sum   'Rb8 B40 O64'
_cell_volume   1316.45879524
_cell_formula_units_Z   8
loop_
 _symmetry_equiv_pos_site_id
 _symmetry_equiv_pos_as_xyz
  1  'x, y, z'
loop_
 _atom_site_type_symbol
 _atom_site_label
 _atom_site_symmetry_multiplicity
 _atom_site_fract_x
 _atom_site_fract_y
 _atom_site_fract_z
 _atom_site_occupancy
  Rb  Rb0  1  0.43775867  0.70981199  0.12055032  1
  Rb  Rb1  1  0.06244406  0.29020983  0.62055011  1
  Rb  Rb2  1  0.43756679  0.79020521  0.62054193  1
  Rb  Rb3  1  0.06224295  0.20980854  0.12055198  1
  Rb  Rb4  1  0.93779316  0.79017280  0.87945806  1
  Rb  Rb5  1  0.56246604  0.20977740  0.37943812  1
  Rb  Rb6  1  0.93754656  0.70978224  0.37944331  1
  Rb  Rb7  1  0.56221507  0.29017937  0.87945875  1
  B  B0  1  0.69304940  0.43390325  0.54286379  1
  B  B1  1  0.02425012  0.97542199  0.65499558  1
  B  B2  1  0.52422654  0.52457812  0.34499855  1
  B  B3  1  0.80695270  0.56609037  0.04291688  1
  B  B4  1  0.02433404  0.52459891  0.15504184  1
  B  B5  1  0.90858516  0.40764948  0.41774259  1
  B  B6  1  0.44908062  0.72495863  0.37421470  1
  B  B7  1  0.97564029  0.47538808  0.84495748  1
  B  B8  1  0.59141850  0.90765904  0.41773954  1
  B  B9  1  0.47575245  0.47542291  0.65499475  1
  B  B10  1  0.59139669  0.59232964  0.91777482  1
  B  B11  1  0.05091534  0.22495846  0.37421452  1
  B  B12  1  0.94915225  0.72496536  0.12581523  1
  B  B13  1  0.08621536  0.10070875  0.78633952  1
  B  B14  1  0.19311817  0.06611826  0.45710909  1
  B  B15  1  0.58628954  0.10071328  0.71364819  1
  B  B16  1  0.80695351  0.93390609  0.54286522  1
  B  B17  1  0.58622927  0.39928166  0.21368478  1
  B  B18  1  0.97577271  0.02458336  0.34500292  1
  B  B19  1  0.40855257  0.40766569  0.08225598  1
  B  B20  1  0.91377213  0.89929269  0.21368554  1
  B  B21  1  0.47566153  0.02460683  0.15504257  1
  B  B22  1  0.55084030  0.22496543  0.12581428  1
  B  B23  1  0.69304845  0.06610342  0.04291716  1
  B  B24  1  0.19297890  0.43389967  0.95711215  1
  B  B25  1  0.55094839  0.27504763  0.62578541  1
  B  B26  1  0.91371499  0.60070916  0.71364551  1
  B  B27  1  0.41377965  0.60070359  0.78633769  1
  B  B28  1  0.08629081  0.39928344  0.28633666  1
  B  B29  1  0.94905774  0.77504529  0.62578081  1
  B  B30  1  0.05085216  0.27503180  0.87419117  1
  B  B31  1  0.30688022  0.56610662  0.45710395  1
  B  B32  1  0.90860870  0.09233622  0.91778163  1
  B  B33  1  0.09133552  0.59234597  0.58221831  1
  B  B34  1  0.41371038  0.89929058  0.28633600  1
  B  B35  1  0.30701855  0.93391024  0.95711162  1
  B  B36  1  0.09145161  0.90767461  0.08225977  1
  B  B37  1  0.52435518  0.97539275  0.84495966  1
  B  B38  1  0.40866068  0.09235263  0.58222315  1
  B  B39  1  0.44913818  0.77503147  0.87418650  1
  O  O0  1  0.68271956  0.32354246  0.56415782  1
  O  O1  1  0.31731168  0.67647435  0.43585486  1
  O  O2  1  0.00609198  0.96501142  0.15153003  1
  O  O3  1  0.88602100  0.94076907  0.29854969  1
  O  O4  1  0.59455873  0.51372514  0.58969724  1
  O  O5  1  0.99392626  0.46498493  0.34847653  1
  O  O6  1  0.36044006  0.79295312  0.30477616  1
  O  O7  1  0.57287047  0.79526272  0.42724658  1
  O  O8  1  0.38586391  0.94081924  0.20149423  1
  O  O9  1  0.86041048  0.70703757  0.69520960  1
  O  O10  1  0.50608933  0.96499508  0.34847112  1
  O  O11  1  0.42703985  0.29526391  0.07278201  1
  O  O12  1  0.68260937  0.17646793  0.06416987  1
  O  O13  1  0.63959749  0.20704184  0.69521344  1
  O  O14  1  0.40554421  0.01371694  0.91026224  1
  O  O15  1  0.11393390  0.05923600  0.70147491  1
  O  O16  1  0.49395975  0.03500981  0.65149682  1
  O  O17  1  0.80414762  0.02748990  0.97490885  1
  O  O18  1  0.07280959  0.70474492  0.57272676  1
  O  O19  1  0.94792899  0.36523851  0.82867938  1
  O  O20  1  0.63953894  0.29296207  0.19523807  1
  O  O21  1  0.18261752  0.32353773  0.93582527  1
  O  O22  1  0.30415938  0.02749767  0.52513057  1
  O  O23  1  0.61408438  0.05919353  0.79849599  1
  O  O24  1  0.80407177  0.47251391  0.47482842  1
  O  O25  1  0.13955883  0.20702892  0.80478030  1
  O  O26  1  0.00604837  0.53500315  0.65149512  1
  O  O27  1  0.50606638  0.53498251  0.84850247  1
  O  O28  1  0.86045355  0.79297147  0.19523420  1
  O  O29  1  0.07295312  0.79527008  0.07278730  1
  O  O30  1  0.92712075  0.29525736  0.42724610  1
  O  O31  1  0.05199186  0.86527606  0.67127434  1
  O  O32  1  0.36043178  0.70701810  0.80478071  1
  O  O33  1  0.55205604  0.86524629  0.82867656  1
  O  O34  1  0.69593815  0.97251561  0.47482684  1
  O  O35  1  0.40531362  0.48627736  0.41024485  1
  O  O36  1  0.92707084  0.20474336  0.92723973  1
  O  O37  1  0.55199627  0.63471907  0.32872450  1
  O  O38  1  0.59456680  0.98628983  0.08978382  1
  O  O39  1  0.57292587  0.70473441  0.92723223  1
  O  O40  1  0.31737752  0.82355139  0.93582012  1
  O  O41  1  0.09468647  0.98628648  0.41025102  1
  O  O42  1  0.13955350  0.29294805  0.30477191  1
  O  O43  1  0.19594531  0.97251841  0.02513515  1
  O  O44  1  0.81728672  0.82354427  0.56415604  1
  O  O45  1  0.49391585  0.46499963  0.15152660  1
  O  O46  1  0.30405438  0.47250931  0.02513190  1
  O  O47  1  0.05205463  0.63474231  0.17131341  1
  O  O48  1  0.99394668  0.03499309  0.84851179  1
  O  O49  1  0.88591311  0.55918549  0.79849167  1
  O  O50  1  0.81738722  0.67645742  0.06417334  1
  O  O51  1  0.94800193  0.13471887  0.32872615  1
  O  O52  1  0.69585533  0.52747924  0.97490564  1
  O  O53  1  0.38605605  0.55923158  0.70146983  1
  O  O54  1  0.09445736  0.51370254  0.91025888  1
  O  O55  1  0.61397900  0.44076551  0.29854783  1
  O  O56  1  0.18269112  0.17648187  0.43585675  1
  O  O57  1  0.42718276  0.20475204  0.57273263  1
  O  O58  1  0.44792969  0.13474759  0.17131233  1
  O  O59  1  0.90543869  0.48627557  0.08978113  1
  O  O60  1  0.90544309  0.01372717  0.58970049  1
  O  O61  1  0.11412835  0.44081333  0.20149215  1
  O  O62  1  0.44801863  0.36527864  0.67127996  1
  O  O63  1  0.19583351  0.52748908  0.52512464  1
loop_
_geom_bond_atom_site_label_1
_geom_bond_atom_site_label_2
_geom_bond_distance
_geom_bond_site_symmetry_2
B0 O0 1.346811 1_555
B0 O24 1.385727 1_555
B0 O4 1.385951 1_555
B1 O31 1.342732 1_555
B1 O15 1.382826 1_565
B1 O60 1.391700 1_465
B2 O37 1.342694 1_555
B2 O55 1.382856 1_555
B2 O35 1.391688 1_555
B3 O50 1.346782 1_555
B3 O52 1.385786 1_554
B3 O59 1.386127 1_555
B4 O47 1.342647 1_555
B4 O61 1.382799 1_555
B4 O59 1.391821 1_455
B5 O30 1.345601 1_555
B5 O24 1.385877 1_555
B5 O5 1.387986 1_555
B6 O1 1.463128 1_555
B6 O6 1.466740 1_555
B6 O7 1.473877 1_555
B6 O37 1.480536 1_555
B7 O19 1.342725 1_555
B7 O49 1.382769 1_555
B7 O54 1.391832 1_655
B8 O7 1.345665 1_555
B8 O34 1.385862 1_555
B8 O10 1.387973 1_555
B9 O62 1.342721 1_555
B9 O53 1.382798 1_555
B9 O4 1.391712 1_555
B10 O39 1.345621 1_555
B10 O52 1.385983 1_555
B10 O27 1.388058 1_555
B11 O56 1.463145 1_555
B11 O42 1.466743 1_555
B11 O30 1.473867 1_455
B11 O51 1.480511 1_455
B12 O50 1.463213 1_555
B12 O28 1.466782 1_555
B12 O29 1.473927 1_655
B12 O47 1.480420 1_655
B13 O25 1.348983 1_555
B13 O15 1.367757 1_555
B13 O48 1.390954 1_455
B14 O56 1.346740 1_555
B14 O22 1.385699 1_555
B14 O41 1.385976 1_545
B15 O13 1.348992 1_555
B15 O23 1.367836 1_555
B15 O16 1.390867 1_555
B16 O44 1.346813 1_555
B16 O34 1.385722 1_555
B16 O60 1.385950 1_565
B17 O20 1.348921 1_555
B17 O55 1.367817 1_555
B17 O45 1.390997 1_555
B18 O51 1.342641 1_555
B18 O3 1.382882 1_545
B18 O41 1.391694 1_645
B19 O11 1.345624 1_555
B19 O46 1.386045 1_555
B19 O45 1.388077 1_555
B20 O28 1.348971 1_555
B20 O3 1.367803 1_555
B20 O2 1.391000 1_655
B21 O58 1.342626 1_555
B21 O8 1.382837 1_545
B21 O38 1.391828 1_545
B22 O12 1.463213 1_555
B22 O20 1.466767 1_555
B22 O11 1.473917 1_555
B22 O58 1.480406 1_555
B23 O12 1.346742 1_555
B23 O17 1.385775 1_554
B23 O38 1.386117 1_545
B24 O21 1.346797 1_555
B24 O46 1.385773 1_556
B24 O54 1.386090 1_555
B25 O0 1.463071 1_555
B25 O13 1.466733 1_555
B25 O57 1.473872 1_555
B25 O62 1.480548 1_555
B26 O9 1.348987 1_555
B26 O49 1.367839 1_555
B26 O26 1.390891 1_655
B27 O32 1.348939 1_555
B27 O53 1.367803 1_555
B27 O27 1.390983 1_555
B28 O42 1.348970 1_555
B28 O61 1.367883 1_555
B28 O5 1.390874 1_455
B29 O44 1.463063 1_555
B29 O9 1.466748 1_555
B29 O18 1.473853 1_655
B29 O31 1.480552 1_655
B30 O21 1.463133 1_555
B30 O25 1.466704 1_555
B30 O36 1.473889 1_455
B30 O19 1.480454 1_455
B31 O1 1.346778 1_555
B31 O63 1.385705 1_555
B31 O35 1.385974 1_555
B32 O36 1.345642 1_555
B32 O17 1.385935 1_555
B32 O48 1.388038 1_555
B33 O18 1.345655 1_555
B33 O63 1.385834 1_555
B33 O26 1.387961 1_555
B34 O6 1.349023 1_555
B34 O8 1.367850 1_555
B34 O10 1.390897 1_555
B35 O40 1.346777 1_555
B35 O43 1.385802 1_556
B35 O14 1.386108 1_565
B36 O29 1.345662 1_555
B36 O43 1.386033 1_555
B36 O2 1.388080 1_555
B37 O33 1.342691 1_555
B37 O23 1.382789 1_565
B37 O14 1.391857 1_565
B38 O57 1.345655 1_555
B38 O22 1.385822 1_555
B38 O16 1.387967 1_555
B39 O40 1.463175 1_555
B39 O32 1.466715 1_555
B39 O39 1.473954 1_555
B39 O33 1.480489 1_555
O0 Rb1 2.990924 1_655
O0 Rb5 3.184720 1_555
O1 Rb6 2.991255 1_455
O1 Rb2 3.184136 1_555
O2 Rb3 2.965145 1_565
O3 Rb6 3.012123 1_555
O4 Rb2 3.508853 1_555
O5 Rb6 2.965344 1_555
O6 Rb0 2.963251 1_555
O6 Rb6 3.497334 1_455
O7 Rb6 2.998149 1_555
O7 Rb2 3.043209 1_555
O8 Rb0 3.012942 1_555
O9 Rb4 2.963629 1_555
O9 Rb2 3.496987 1_555
O10 Rb5 2.965165 1_565
O11 Rb3 2.998764 1_555
O11 Rb7 3.043283 1_554
O12 Rb3 2.990240 1_655
O12 Rb7 3.184700 1_554
O13 Rb7 2.963597 1_555
O13 Rb1 3.496988 1_655
O14 Rb7 3.507790 1_555
O15 Rb1 3.012133 1_555
O16 Rb2 2.965413 1_545
O17 Rb4 3.302551 1_545
O18 Rb2 2.998657 1_555
O18 Rb6 3.042932 1_455
O19 Rb7 3.115221 1_555
O19 Rb1 3.326738 1_655
O20 Rb5 2.962755 1_555
O20 Rb3 3.496068 1_655
O21 Rb7 2.989952 1_555
O21 Rb3 3.184948 1_556
O22 Rb2 3.301569 1_545
O23 Rb7 3.012799 1_555
O24 Rb6 3.301310 1_555
O25 Rb1 2.963213 1_555
O25 Rb7 3.495689 1_555
O26 Rb1 2.965264 1_555
O27 Rb7 2.965163 1_555
O28 Rb6 2.962925 1_555
O28 Rb0 3.496007 1_555
O29 Rb0 2.998810 1_555
O29 Rb4 3.043327 1_454
O30 Rb5 2.998011 1_555
O30 Rb1 3.043372 1_655
O31 Rb2 3.114119 1_555
O31 Rb4 3.327155 1_455
O32 Rb2 2.963386 1_555
O32 Rb4 3.495587 1_455
O33 Rb4 3.115438 1_555
O33 Rb2 3.326797 1_555
O34 Rb5 3.301263 1_565
O35 Rb5 3.509402 1_555
O36 Rb7 2.999128 1_555
O36 Rb3 3.043112 1_656
O37 Rb6 3.113867 1_555
O37 Rb0 3.327063 1_555
O38 Rb0 3.508233 1_555
O39 Rb4 2.999192 1_555
O39 Rb0 3.043189 1_556
O40 Rb4 2.989866 1_455
O40 Rb0 3.185056 1_556
O41 Rb6 3.509415 1_455
O42 Rb3 2.963149 1_555
O42 Rb5 3.497457 1_555
O43 Rb3 3.302192 1_565
O44 Rb2 2.990878 1_555
O44 Rb6 3.184635 1_555
O45 Rb0 2.965325 1_555
O46 Rb0 3.302327 1_555
O47 Rb0 3.115130 1_555
O47 Rb6 3.326769 1_455
O48 Rb4 2.965343 1_545
O49 Rb4 3.012844 1_555
O50 Rb0 2.990210 1_555
O50 Rb4 3.184800 1_554
O51 Rb5 3.113733 1_555
O51 Rb3 3.327062 1_655
O52 Rb7 3.302335 1_555
O53 Rb2 3.012169 1_555
O54 Rb4 3.507858 1_455
O55 Rb5 3.012104 1_555
O56 Rb5 2.991337 1_555
O56 Rb1 3.184189 1_555
O57 Rb1 2.998535 1_555
O57 Rb5 3.043139 1_555
O58 Rb3 3.114970 1_555
O58 Rb5 3.326730 1_555
O59 Rb3 3.508116 1_655
O60 Rb1 3.508909 1_655
O61 Rb3 3.012882 1_555
O62 Rb1 3.114094 1_555
O62 Rb7 3.327067 1_555
O63 Rb1 3.301484 1_555
