# generated using pymatgen
data_YbCuGe
_symmetry_space_group_name_H-M   'P 1'
_cell_length_a   4.30272462
_cell_length_b   4.30272462
_cell_length_c   7.05644900
_cell_angle_alpha   90.00000000
_cell_angle_beta   90.00000000
_cell_angle_gamma   120.00000946
_symmetry_Int_Tables_number   1
_chemical_formula_structural   YbCuGe
_chemical_formula_sum   'Yb2 Cu2 Ge2'
_cell_volume   113.13680226
_cell_formula_units_Z   2
loop_
 _symmetry_equiv_pos_site_id
 _symmetry_equiv_pos_as_xyz
  1  'x, y, z'
loop_
 _atom_site_type_symbol
 _atom_site_label
 _atom_site_symmetry_multiplicity
 _atom_site_fract_x
 _atom_site_fract_y
 _atom_site_fract_z
 _atom_site_occupancy
  Yb  Yb0  1  0.00000000  0.00000000  0.50000000  1
  Yb  Yb1  1  0.00000000  0.00000000  0.00000000  1
  Cu  Cu0  1  0.33333300  0.66666700  0.25000000  1
  Cu  Cu1  1  0.66666700  0.33333300  0.75000000  1
  Ge  Ge0  1  0.66666700  0.33333300  0.25000000  1
  Ge  Ge1  1  0.33333300  0.66666700  0.75000000  1
loop_
_geom_bond_atom_site_label_1
_geom_bond_atom_site_label_2
_geom_bond_distance
_geom_bond_site_symmetry_2
Cu0 Ge0 2.484176 1_455
Cu0 Ge0 2.484176 1_565
Cu0 Ge0 2.484184 1_555
Cu0 Yb1 3.046839 1_565
Cu0 Yb0 3.046839 1_565
Cu0 Yb0 3.046842 1_665
Cu0 Yb1 3.046842 1_665
Cu0 Yb0 3.046842 1_555
Cu0 Yb1 3.046842 1_555
Cu1 Ge1 2.484176 1_545
Cu1 Ge1 2.484176 1_655
Cu1 Ge1 2.484184 1_555
Cu1 Yb1 3.046839 1_656
Cu1 Yb0 3.046839 1_655
Cu1 Yb0 3.046842 1_555
Cu1 Yb1 3.046842 1_556
Cu1 Yb0 3.046842 1_665
Cu1 Yb1 3.046842 1_666
Ge0 Yb1 3.046839 1_655
Ge0 Yb0 3.046839 1_655
Ge0 Yb0 3.046842 1_555
Ge0 Yb1 3.046842 1_555
Ge0 Yb0 3.046842 1_665
Ge0 Yb1 3.046842 1_665
Ge1 Yb1 3.046839 1_566
Ge1 Yb0 3.046839 1_565
Ge1 Yb1 3.046842 1_666
Ge1 Yb0 3.046842 1_665
Ge1 Yb0 3.046842 1_555
Ge1 Yb1 3.046842 1_556
