# generated using pymatgen
data_Dy3CuGeS7
_symmetry_space_group_name_H-M   'P 1'
_cell_length_a   9.88426784
_cell_length_b   9.88426784
_cell_length_c   5.81478900
_cell_angle_alpha   90.00000000
_cell_angle_beta   90.00000000
_cell_angle_gamma   119.99999892
_symmetry_Int_Tables_number   1
_chemical_formula_structural   Dy3CuGeS7
_chemical_formula_sum   'Dy6 Cu2 Ge2 S14'
_cell_volume   491.98697693
_cell_formula_units_Z   2
loop_
 _symmetry_equiv_pos_site_id
 _symmetry_equiv_pos_as_xyz
  1  'x, y, z'
loop_
 _atom_site_type_symbol
 _atom_site_label
 _atom_site_symmetry_multiplicity
 _atom_site_fract_x
 _atom_site_fract_y
 _atom_site_fract_z
 _atom_site_occupancy
  Dy  Dy0  1  0.35695200  0.13105500  0.25413900  1
  Dy  Dy1  1  0.13105500  0.77410200  0.75413900  1
  Dy  Dy2  1  0.22589800  0.35695200  0.75413900  1
  Dy  Dy3  1  0.64304800  0.86894500  0.75413900  1
  Dy  Dy4  1  0.86894500  0.22589800  0.25413900  1
  Dy  Dy5  1  0.77410200  0.64304800  0.25413900  1
  Cu  Cu0  1  0.00000000  0.00000000  0.69572300  1
  Cu  Cu1  1  0.00000000  0.00000000  0.19572300  1
  Ge  Ge0  1  0.66666700  0.33333300  0.83619800  1
  Ge  Ge1  1  0.33333300  0.66666700  0.33619800  1
  S  S0  1  0.41983800  0.90151400  0.49901500  1
  S  S1  1  0.09800100  0.83903000  0.21690300  1
  S  S2  1  0.48167600  0.58016200  0.49901500  1
  S  S3  1  0.90151400  0.48167600  0.99901500  1
  S  S4  1  0.09848600  0.51832400  0.49901500  1
  S  S5  1  0.58016200  0.09848600  0.99901500  1
  S  S6  1  0.51832400  0.41983800  0.99901500  1
  S  S7  1  0.16097000  0.25897100  0.21690300  1
  S  S8  1  0.74102900  0.90199900  0.21690300  1
  S  S9  1  0.33333300  0.66666700  0.95720800  1
  S  S10  1  0.66666700  0.33333300  0.45720800  1
  S  S11  1  0.83903000  0.74102900  0.71690300  1
  S  S12  1  0.90199900  0.16097000  0.71690300  1
  S  S13  1  0.25897100  0.09800100  0.71690300  1
loop_
_geom_bond_atom_site_label_1
_geom_bond_atom_site_label_2
_geom_bond_distance
_geom_bond_site_symmetry_2
Dy0 S1 2.746224 1_545
Dy0 S7 2.801288 1_555
Dy0 S5 2.807533 1_554
Dy0 S13 2.822955 1_555
Dy0 S6 2.887846 1_554
Dy0 S10 2.939845 1_555
Dy0 S0 2.995295 1_545
Dy0 S13 3.238380 1_554
Dy1 S11 2.746228 1_455
Dy1 S13 2.801297 1_565
Dy1 S4 2.807525 1_555
Dy1 S1 2.822957 1_556
Dy1 S0 2.887846 1_555
Dy1 S9 2.939831 1_555
Dy1 S3 2.995289 1_455
Dy1 S1 3.238382 1_555
Dy2 S13 2.746219 1_555
Dy2 S12 2.801296 1_455
Dy2 S2 2.807528 1_555
Dy2 S7 2.822955 1_556
Dy2 S4 2.887853 1_555
Dy2 S9 2.939848 1_555
Dy2 S6 2.995286 1_555
Dy2 S7 3.238380 1_555
Dy3 S12 2.746224 1_565
Dy3 S11 2.801288 1_555
Dy3 S0 2.807533 1_555
Dy3 S8 2.822955 1_556
Dy3 S2 2.887846 1_555
Dy3 S9 2.939845 1_555
Dy3 S5 2.995295 1_565
Dy3 S8 3.238380 1_555
Dy4 S7 2.746228 1_655
Dy4 S8 2.801297 1_545
Dy4 S3 2.807525 1_554
Dy4 S12 2.822957 1_555
Dy4 S5 2.887846 1_554
Dy4 S10 2.939831 1_555
Dy4 S4 2.995289 1_655
Dy4 S12 3.238382 1_554
Dy5 S8 2.746219 1_555
Dy5 S1 2.801296 1_655
Dy5 S6 2.807528 1_554
Dy5 S11 2.822955 1_555
Dy5 S3 2.887853 1_554
Dy5 S10 2.939848 1_555
Dy5 S2 2.995286 1_555
Dy5 S11 3.238380 1_554
Cu0 S12 2.241921 1_455
Cu0 S13 2.241921 1_555
Cu0 S11 2.241921 1_445
Cu0 Dy3 3.109867 1_445
Cu0 Dy2 3.109869 1_555
Cu0 Dy1 3.109877 1_545
Cu1 S1 2.241921 1_545
Cu1 S8 2.241921 1_445
Cu1 S7 2.241921 1_555
Cu1 Dy0 3.109867 1_555
Cu1 Dy5 3.109869 1_445
Cu1 Dy4 3.109877 1_455
Ge0 S10 2.203747 1_555
Ge0 S5 2.242993 1_555
Ge0 S3 2.242994 1_555
Ge0 S6 2.243001 1_555
Ge1 S9 2.203747 1_554
Ge1 S0 2.242993 1_555
Ge1 S4 2.242994 1_555
Ge1 S2 2.243001 1_555
