# generated using pymatgen
data_K2Si3SnO9
_symmetry_space_group_name_H-M   'P 1'
_cell_length_a   7.78409408
_cell_length_b   7.78409408
_cell_length_c   7.78409416
_cell_angle_alpha   83.12306168
_cell_angle_beta   83.12306168
_cell_angle_gamma   83.12306793
_symmetry_Int_Tables_number   1
_chemical_formula_structural   K2Si3SnO9
_chemical_formula_sum   'K4 Si6 Sn2 O18'
_cell_volume   462.22705457
_cell_formula_units_Z   2
loop_
 _symmetry_equiv_pos_site_id
 _symmetry_equiv_pos_as_xyz
  1  'x, y, z'
loop_
 _atom_site_type_symbol
 _atom_site_label
 _atom_site_symmetry_multiplicity
 _atom_site_fract_x
 _atom_site_fract_y
 _atom_site_fract_z
 _atom_site_occupancy
  K  K0  1  0.01017900  0.22666100  0.77182500  1
  K  K1  1  0.50166300  0.50166300  0.50166300  1
  K  K2  1  0.77182500  0.01017900  0.22666100  1
  K  K3  1  0.22666100  0.77182500  0.01017900  1
  Si  Si0  1  0.45115700  0.98214100  0.55513000  1
  Si  Si1  1  0.55513000  0.45115700  0.98214100  1
  Si  Si2  1  0.48749300  0.10458900  0.89869700  1
  Si  Si3  1  0.10458900  0.89869700  0.48749300  1
  Si  Si4  1  0.98214100  0.55513000  0.45115700  1
  Si  Si5  1  0.89869700  0.48749300  0.10458900  1
  Sn  Sn0  1  0.25439400  0.25439400  0.25439400  1
  Sn  Sn1  1  0.77351200  0.77351200  0.77351200  1
  O  O0  1  0.89979800  0.67738100  0.99146300  1
  O  O1  1  0.55705500  0.64348300  0.87543500  1
  O  O2  1  0.08164900  0.36497000  0.07811700  1
  O  O3  1  0.15104100  0.41007700  0.45148200  1
  O  O4  1  0.51737500  0.31323200  0.84705500  1
  O  O5  1  0.87543500  0.55705500  0.64348300  1
  O  O6  1  0.99146300  0.89979800  0.67738100  1
  O  O7  1  0.07811700  0.08164900  0.36497000  1
  O  O8  1  0.36497000  0.07811700  0.08164900  1
  O  O9  1  0.67738100  0.99146300  0.89979800  1
  O  O10  1  0.74889900  0.37685100  0.04789300  1
  O  O11  1  0.41007700  0.45148200  0.15104100  1
  O  O12  1  0.64348300  0.87543500  0.55705500  1
  O  O13  1  0.04789300  0.74889900  0.37685100  1
  O  O14  1  0.45148200  0.15104100  0.41007700  1
  O  O15  1  0.31323200  0.84705500  0.51737500  1
  O  O16  1  0.84705500  0.51737500  0.31323200  1
  O  O17  1  0.37685100  0.04789300  0.74889900  1
loop_
_geom_bond_atom_site_label_1
_geom_bond_atom_site_label_2
_geom_bond_distance
_geom_bond_site_symmetry_2
K0 O6 2.756386 1_445
K0 O5 2.775262 1_455
K0 O2 2.868588 1_556
K0 O3 2.885513 1_555
K0 O17 3.016806 1_555
K0 O10 3.017741 1_456
K1 O16 2.913100 1_555
K1 O4 2.913100 1_555
K1 O15 2.913100 1_555
K1 O3 2.982903 1_555
K1 O14 2.982903 1_555
K1 O11 2.982903 1_555
K1 O12 3.324639 1_555
K1 O5 3.324639 1_555
K1 O1 3.324639 1_555
K2 O9 2.756386 1_544
K2 O12 2.775262 1_545
K2 O7 2.868588 1_655
K2 O14 2.885513 1_555
K2 O10 3.016806 1_555
K2 O13 3.017741 1_645
K3 O0 2.756386 1_454
K3 O1 2.775262 1_554
K3 O8 2.868588 1_565
K3 O11 2.885513 1_555
K3 O13 3.016806 1_555
K3 O17 3.017741 1_564
O0 Si5 1.627828 1_556
O0 Sn1 2.079368 1_555
O1 Si1 1.623577 1_555
O1 Sn1 2.094957 1_555
O2 Si5 1.622251 1_455
O2 Sn0 2.076932 1_555
O3 Si4 1.627277 1_455
O3 Sn0 2.094187 1_555
O4 Si1 1.662723 1_555
O4 Si2 1.662865 1_555
O5 Si4 1.623577 1_555
O5 Sn1 2.094958 1_555
O6 Si3 1.627828 1_655
O6 Sn1 2.079368 1_555
O7 Si3 1.622251 1_545
O7 Sn0 2.076932 1_555
O8 Si2 1.622251 1_554
O8 Sn0 2.076932 1_555
O9 Si2 1.627829 1_565
O9 Sn1 2.079368 1_555
O10 Si5 1.658590 1_555
O10 Si1 1.666309 1_554
O11 Si1 1.627277 1_554
O11 Sn0 2.094187 1_555
O12 Si0 1.623577 1_555
O12 Sn1 2.094957 1_555
O13 Si3 1.658590 1_555
O13 Si4 1.666309 1_455
O14 Si0 1.627277 1_545
O14 Sn0 2.094187 1_555
O15 Si0 1.662723 1_555
O15 Si3 1.662865 1_555
O16 Si4 1.662723 1_555
O16 Si5 1.662865 1_555
O17 Si2 1.658590 1_555
O17 Si0 1.666309 1_545
