# generated using pymatgen
data_Na3Sc2(PO4)3
_symmetry_space_group_name_H-M   'P 1'
_cell_length_a   9.02606875
_cell_length_b   9.02607015
_cell_length_c   9.02606951
_cell_angle_alpha   60.00361212
_cell_angle_beta   60.00361154
_cell_angle_gamma   60.00360717
_symmetry_Int_Tables_number   1
_chemical_formula_structural   Na3Sc2(PO4)3
_chemical_formula_sum   'Na6 Sc4 P6 O24'
_cell_volume   520.01582962
_cell_formula_units_Z   2
loop_
 _symmetry_equiv_pos_site_id
 _symmetry_equiv_pos_as_xyz
  1  'x, y, z'
loop_
 _atom_site_type_symbol
 _atom_site_label
 _atom_site_symmetry_multiplicity
 _atom_site_fract_x
 _atom_site_fract_y
 _atom_site_fract_z
 _atom_site_occupancy
  Na  Na0  1  0.25000000  0.87567097  0.62432903  1
  Na  Na1  1  0.62432903  0.25000000  0.87567097  1
  Na  Na2  1  0.37567097  0.75000000  0.12432903  1
  Na  Na3  1  0.87567097  0.62432903  0.25000000  1
  Na  Na4  1  0.12432903  0.37567097  0.75000000  1
  Na  Na5  1  0.75000000  0.12432903  0.37567097  1
  Sc  Sc0  1  0.14692279  0.14692279  0.14692279  1
  Sc  Sc1  1  0.35307721  0.35307721  0.35307721  1
  Sc  Sc2  1  0.85307721  0.85307721  0.85307721  1
  Sc  Sc3  1  0.64692279  0.64692279  0.64692279  1
  P  P0  1  0.45800436  0.04199664  0.75000000  1
  P  P1  1  0.75000000  0.45800436  0.04199664  1
  P  P2  1  0.04199664  0.75000000  0.45800436  1
  P  P3  1  0.54199664  0.95800336  0.25000000  1
  P  P4  1  0.95800336  0.25000000  0.54199664  1
  P  P5  1  0.25000000  0.54199664  0.95800336  1
  O  O0  1  0.27471819  0.51590372  0.12627975  1
  O  O1  1  0.78935629  0.41642866  0.56833436  1
  O  O2  1  0.01590372  0.77471819  0.62627975  1
  O  O3  1  0.43166564  0.21064371  0.58357134  1
  O  O4  1  0.71064371  0.93166564  0.08357134  1
  O  O5  1  0.08357134  0.71064371  0.93166564  1
  O  O6  1  0.28935629  0.06833436  0.91642866  1
  O  O7  1  0.72528181  0.48409628  0.87372025  1
  O  O8  1  0.98409628  0.22528181  0.37372025  1
  O  O9  1  0.21064371  0.58357134  0.43166564  1
  O  O10  1  0.37372025  0.98409628  0.22528181  1
  O  O11  1  0.87372025  0.72528181  0.48409628  1
  O  O12  1  0.93166564  0.08357134  0.71064371  1
  O  O13  1  0.48409628  0.87372025  0.72528181  1
  O  O14  1  0.41642866  0.56833436  0.78935629  1
  O  O15  1  0.51590372  0.12627975  0.27471819  1
  O  O16  1  0.06833436  0.91642866  0.28935629  1
  O  O17  1  0.91642866  0.28935629  0.06833436  1
  O  O18  1  0.12627975  0.27471819  0.51590372  1
  O  O19  1  0.22528181  0.37372025  0.98409628  1
  O  O20  1  0.56833436  0.78935629  0.41642866  1
  O  O21  1  0.58357134  0.43166564  0.21064371  1
  O  O22  1  0.62627975  0.01590372  0.77471819  1
  O  O23  1  0.77471819  0.62627975  0.01590372  1
loop_
_geom_bond_atom_site_label_1
_geom_bond_atom_site_label_2
_geom_bond_distance
_geom_bond_site_symmetry_2
Na0 O14 2.471778 1_555
Na0 O5 2.471778 1_555
Na0 O12 2.493286 1_465
Na0 O20 2.493286 1_555
Na0 O13 2.677153 1_555
Na0 O2 2.677153 1_555
Na0 O10 2.953711 1_555
Na0 O18 2.953711 1_565
Na1 O12 2.471778 1_555
Na1 O1 2.471778 1_555
Na1 O14 2.493286 1_555
Na1 O4 2.493286 1_546
Na1 O7 2.677153 1_555
Na1 O22 2.677153 1_555
Na1 O19 2.953710 1_555
Na1 O15 2.953711 1_556
Na2 O16 2.471778 1_555
Na2 O9 2.471778 1_555
Na2 O21 2.493286 1_555
Na2 O6 2.493286 1_564
Na2 O0 2.677153 1_555
Na2 O10 2.677153 1_555
Na2 O23 2.953710 1_555
Na2 O13 2.953711 1_554
Na3 O20 2.471778 1_555
Na3 O4 2.471778 1_555
Na3 O5 2.493286 1_654
Na3 O1 2.493286 1_555
Na3 O23 2.677153 1_555
Na3 O11 2.677153 1_555
Na3 O0 2.953710 1_655
Na3 O8 2.953711 1_555
Na4 O3 2.471778 1_555
Na4 O6 2.471778 1_555
Na4 O17 2.493286 1_456
Na4 O9 2.493286 1_555
Na4 O19 2.677153 1_555
Na4 O18 2.677153 1_555
Na4 O7 2.953710 1_455
Na4 O2 2.953711 1_555
Na5 O21 2.471778 1_555
Na5 O17 2.471778 1_555
Na5 O16 2.493286 1_645
Na5 O3 2.493286 1_555
Na5 O15 2.677153 1_555
Na5 O8 2.677153 1_555
Na5 O22 2.953711 1_555
Na5 O11 2.953711 1_545
O0 P5 1.529980 1_554
O0 Sc1 2.061765 1_555
O1 P4 1.529405 1_555
O1 Sc3 2.091328 1_555
O2 P2 1.529971 1_555
O2 Sc2 2.061765 1_455
O3 P0 1.529406 1_555
O3 Sc1 2.091328 1_555
O4 P3 1.529405 1_555
O4 Sc2 2.091328 1_554
O5 P5 1.529405 1_555
O5 Sc2 2.091328 1_455
O6 P0 1.529408 1_555
O6 Sc0 2.091328 1_556
O7 P1 1.529984 1_556
O7 Sc3 2.061765 1_555
O8 P4 1.529980 1_555
O8 Sc0 2.061765 1_655
O9 P2 1.529406 1_555
O9 Sc1 2.091328 1_555
O10 P3 1.529980 1_555
O10 Sc0 2.061765 1_565
O11 P2 1.529984 1_655
O11 Sc3 2.061765 1_555
O12 P4 1.529405 1_555
O12 Sc2 2.091329 1_545
O13 P0 1.529984 1_565
O13 Sc3 2.061765 1_555
O14 P5 1.529405 1_555
O14 Sc3 2.091328 1_555
O15 P3 1.529980 1_545
O15 Sc1 2.061765 1_555
O16 P2 1.529409 1_555
O16 Sc0 2.091329 1_565
O17 P1 1.529408 1_555
O17 Sc0 2.091328 1_655
O18 P4 1.529980 1_455
O18 Sc1 2.061765 1_555
O19 P5 1.529981 1_555
O19 Sc0 2.061765 1_556
O20 P3 1.529405 1_555
O20 Sc3 2.091328 1_555
O21 P1 1.529406 1_555
O21 Sc1 2.091328 1_555
O22 P0 1.529971 1_555
O22 Sc2 2.061765 1_545
O23 P1 1.529972 1_555
O23 Sc2 2.061765 1_554
