# generated using pymatgen
data_Eu2B5ClO9
_symmetry_space_group_name_H-M   'P 1'
_cell_length_a   6.56968200
_cell_length_b   11.40592400
_cell_length_c   11.49806400
_cell_angle_alpha   90.00000000
_cell_angle_beta   90.00000000
_cell_angle_gamma   90.00000000
_symmetry_Int_Tables_number   1
_chemical_formula_structural   Eu2B5ClO9
_chemical_formula_sum   'Eu8 B20 Cl4 O36'
_cell_volume   861.58780550
_cell_formula_units_Z   4
loop_
 _symmetry_equiv_pos_site_id
 _symmetry_equiv_pos_as_xyz
  1  'x, y, z'
loop_
 _atom_site_type_symbol
 _atom_site_label
 _atom_site_symmetry_multiplicity
 _atom_site_fract_x
 _atom_site_fract_y
 _atom_site_fract_z
 _atom_site_occupancy
  Eu  Eu0  1  0.33191700  0.75890600  0.97374300  1
  Eu  Eu1  1  0.49448800  0.54653400  0.24732400  1
  Eu  Eu2  1  0.99448800  0.95346600  0.74732400  1
  Eu  Eu3  1  0.99448800  0.04653400  0.25267600  1
  Eu  Eu4  1  0.49448800  0.45346600  0.75267600  1
  Eu  Eu5  1  0.83191700  0.74109400  0.47374300  1
  Eu  Eu6  1  0.83191700  0.25890600  0.52625700  1
  Eu  Eu7  1  0.33191700  0.24109400  0.02625700  1
  B  B0  1  0.19016400  0.32313500  0.27305500  1
  B  B1  1  0.33853500  0.20167100  0.68611300  1
  B  B2  1  0.96474100  0.49654200  0.25319200  1
  B  B3  1  0.29859800  0.76789000  0.53773600  1
  B  B4  1  0.79859800  0.26789000  0.96226400  1
  B  B5  1  0.46474100  0.99654200  0.24680800  1
  B  B6  1  0.96474100  0.50345800  0.74680800  1
  B  B7  1  0.83853500  0.70167100  0.81388700  1
  B  B8  1  0.33853500  0.79832900  0.31388700  1
  B  B9  1  0.83853500  0.29832900  0.18611300  1
  B  B10  1  0.02153800  0.71793800  0.20845900  1
  B  B11  1  0.02153800  0.28206200  0.79154100  1
  B  B12  1  0.46474100  0.00345800  0.75319200  1
  B  B13  1  0.69016400  0.17686500  0.77305500  1
  B  B14  1  0.19016400  0.67686500  0.72694500  1
  B  B15  1  0.52153800  0.78206200  0.70845900  1
  B  B16  1  0.69016400  0.82313500  0.22694500  1
  B  B17  1  0.29859800  0.23211000  0.46226400  1
  B  B18  1  0.79859800  0.73211000  0.03773600  1
  B  B19  1  0.52153800  0.21793800  0.29154100  1
  Cl  Cl0  1  0.88878400  0.00000000  0.50000000  1
  Cl  Cl1  1  0.13978500  0.00000000  0.00000000  1
  Cl  Cl2  1  0.63978500  0.50000000  0.50000000  1
  Cl  Cl3  1  0.38878400  0.50000000  0.00000000  1
  O  O0  1  0.64945900  0.04869100  0.78510100  1
  O  O1  1  0.14945900  0.54869100  0.71489900  1
  O  O2  1  0.23743800  0.22934800  0.57540000  1
  O  O3  1  0.48989100  0.20814800  0.42139500  1
  O  O4  1  0.48989100  0.79185200  0.57860500  1
  O  O5  1  0.31144800  0.92646400  0.28921900  1
  O  O6  1  0.73743800  0.72934800  0.92460000  1
  O  O7  1  0.42241200  0.88613100  0.76799000  1
  O  O8  1  0.14383900  0.26278500  0.38514900  1
  O  O9  1  0.24132300  0.27413400  0.77740700  1
  O  O10  1  0.64383900  0.23721500  0.88514900  1
  O  O11  1  0.92241200  0.38613100  0.73201000  1
  O  O12  1  0.90708300  0.18215500  0.74370500  1
  O  O13  1  0.24132300  0.72586600  0.22259300  1
  O  O14  1  0.90708300  0.81784500  0.25629500  1
  O  O15  1  0.23743800  0.77065200  0.42460000  1
  O  O16  1  0.31144800  0.07353600  0.71078100  1
  O  O17  1  0.81144800  0.57353600  0.78921900  1
  O  O18  1  0.64945900  0.95130900  0.21489900  1
  O  O19  1  0.14945900  0.45130900  0.28510100  1
  O  O20  1  0.55894200  0.76994900  0.31766500  1
  O  O21  1  0.74132300  0.77413400  0.72259300  1
  O  O22  1  0.98989100  0.70814800  0.07860500  1
  O  O23  1  0.73743800  0.27065200  0.07540000  1
  O  O24  1  0.40708300  0.31784500  0.24370500  1
  O  O25  1  0.64383900  0.76278500  0.11485100  1
  O  O26  1  0.05894200  0.26994900  0.18233500  1
  O  O27  1  0.55894200  0.23005100  0.68233500  1
  O  O28  1  0.40708300  0.68215500  0.75629500  1
  O  O29  1  0.81144800  0.42646400  0.21078100  1
  O  O30  1  0.05894200  0.73005100  0.81766500  1
  O  O31  1  0.74132300  0.22586600  0.27740700  1
  O  O32  1  0.14383900  0.73721500  0.61485100  1
  O  O33  1  0.42241200  0.11386900  0.23201000  1
  O  O34  1  0.98989100  0.29185200  0.92139500  1
  O  O35  1  0.92241200  0.61386900  0.26799000  1
loop_
_geom_bond_atom_site_label_1
_geom_bond_atom_site_label_2
_geom_bond_distance
_geom_bond_site_symmetry_2
Eu0 O30 2.558325 1_555
Eu0 O25 2.614135 1_556
Eu0 O22 2.614943 1_456
Eu0 O28 2.694692 1_555
Eu0 O6 2.744195 1_555
Eu0 O7 2.838315 1_555
Eu0 O13 2.946735 1_556
Eu1 O29 2.527486 1_555
Eu1 O19 2.550768 1_555
Eu1 O13 2.651602 1_555
Eu1 O24 2.671191 1_555
Eu1 O20 2.706850 1_555
Eu1 O35 2.924014 1_555
Eu1 O25 3.060498 1_555
Eu2 O16 2.527486 1_665
Eu2 O0 2.550768 1_565
Eu2 O21 2.651602 1_555
Eu2 O12 2.671191 1_565
Eu2 O30 2.706850 1_655
Eu2 O7 2.924014 1_655
Eu2 O32 3.060498 1_655
Eu3 O5 2.527486 1_645
Eu3 O18 2.550768 1_545
Eu3 O31 2.651602 1_555
Eu3 O14 2.671191 1_545
Eu3 O26 2.706850 1_655
Eu3 O33 2.924014 1_655
Eu3 O8 3.060498 1_655
Eu4 O17 2.527486 1_555
Eu4 O1 2.550768 1_555
Eu4 O9 2.651602 1_555
Eu4 O28 2.671191 1_555
Eu4 O27 2.706850 1_555
Eu4 O11 2.924014 1_555
Eu4 O10 3.060498 1_555
Eu5 O20 2.558325 1_555
Eu5 O32 2.614135 1_655
Eu5 O4 2.614943 1_555
Eu5 O14 2.694692 1_555
Eu5 O15 2.744195 1_655
Eu5 O35 2.838315 1_555
Eu5 O21 2.946735 1_555
Eu6 O27 2.558325 1_555
Eu6 O8 2.614135 1_655
Eu6 O3 2.614943 1_555
Eu6 O12 2.694692 1_555
Eu6 O2 2.744195 1_655
Eu6 O11 2.838315 1_555
Eu6 O31 2.946735 1_555
Eu7 O26 2.558325 1_555
Eu7 O10 2.614135 1_554
Eu7 O34 2.614943 1_454
Eu7 O24 2.694692 1_555
Eu7 O23 2.744195 1_555
Eu7 O33 2.838315 1_555
Eu7 O9 2.946735 1_554
B0 O24 1.465743 1_555
B0 O26 1.482993 1_555
B0 O8 1.492520 1_555
B0 O19 1.492640 1_555
B1 O2 1.470127 1_555
B1 O9 1.480834 1_555
B1 O27 1.484380 1_555
B1 O16 1.499364 1_555
B2 O19 1.368745 1_655
B2 O29 1.375103 1_555
B2 O35 1.377361 1_555
B3 O15 1.361850 1_555
B3 O4 1.369269 1_555
B3 O32 1.393670 1_555
B4 O23 1.361850 1_556
B4 O34 1.369269 1_555
B4 O10 1.393670 1_555
B5 O18 1.368745 1_555
B5 O5 1.375103 1_555
B5 O33 1.377361 1_565
B6 O1 1.368745 1_655
B6 O17 1.375103 1_555
B6 O11 1.377361 1_555
B7 O6 1.470127 1_555
B7 O21 1.480834 1_555
B7 O30 1.484380 1_655
B7 O17 1.499364 1_555
B8 O15 1.470127 1_555
B8 O13 1.480834 1_555
B8 O20 1.484380 1_555
B8 O5 1.499364 1_555
B9 O23 1.470127 1_555
B9 O31 1.480834 1_555
B9 O26 1.484380 1_655
B9 O29 1.499364 1_555
B10 O13 1.455845 1_555
B10 O14 1.471890 1_455
B10 O22 1.511606 1_455
B10 O35 1.517103 1_455
B11 O9 1.455845 1_555
B11 O12 1.471890 1_455
B11 O34 1.511606 1_455
B11 O11 1.517103 1_455
B12 O0 1.368745 1_555
B12 O16 1.375103 1_555
B12 O7 1.377361 1_545
B13 O12 1.465743 1_555
B13 O27 1.482993 1_555
B13 O10 1.492520 1_555
B13 O0 1.492640 1_555
B14 O28 1.465743 1_555
B14 O30 1.482993 1_555
B14 O32 1.492520 1_555
B14 O1 1.492640 1_555
B15 O21 1.455845 1_555
B15 O28 1.471890 1_555
B15 O4 1.511606 1_555
B15 O7 1.517103 1_555
B16 O14 1.465743 1_555
B16 O20 1.482993 1_555
B16 O25 1.492520 1_555
B16 O18 1.492640 1_555
B17 O2 1.361850 1_555
B17 O3 1.369269 1_555
B17 O8 1.393670 1_555
B18 O6 1.361850 1_554
B18 O22 1.369269 1_555
B18 O25 1.393670 1_555
B19 O31 1.455845 1_555
B19 O24 1.471890 1_555
B19 O3 1.511606 1_555
B19 O33 1.517103 1_555
Cl0 Eu3 2.975039 1_555
Cl0 Eu2 2.975039 1_545
Cl0 Eu6 2.991872 1_555
Cl0 Eu5 2.991872 1_545
Cl1 Eu7 3.040783 1_555
Cl1 Eu0 3.040783 1_544
Cl1 Eu3 3.103798 1_455
Cl1 Eu2 3.103798 1_444
Cl2 Eu5 3.040783 1_555
Cl2 Eu6 3.040783 1_555
Cl2 Eu1 3.103798 1_555
Cl2 Eu4 3.103798 1_555
Cl3 Eu1 2.975039 1_555
Cl3 Eu4 2.975039 1_554
Cl3 Eu7 2.991872 1_555
Cl3 Eu0 2.991872 1_554
