# generated using pymatgen
data_TiH8C4NO10
_symmetry_space_group_name_H-M   'P 1'
_cell_length_a   8.97904965
_cell_length_b   8.97904965
_cell_length_c   11.03027200
_cell_angle_alpha   90.00000000
_cell_angle_beta   90.00000000
_cell_angle_gamma   119.99999744
_symmetry_Int_Tables_number   1
_chemical_formula_structural   TiH8C4NO10
_chemical_formula_sum   'Ti3 H24 C12 N3 O30'
_cell_volume   770.15406344
_cell_formula_units_Z   3
loop_
 _symmetry_equiv_pos_site_id
 _symmetry_equiv_pos_as_xyz
  1  'x, y, z'
loop_
 _atom_site_type_symbol
 _atom_site_label
 _atom_site_symmetry_multiplicity
 _atom_site_fract_x
 _atom_site_fract_y
 _atom_site_fract_z
 _atom_site_occupancy
  Ti  Ti0  1  0.50000000  0.00000000  0.00000000  1
  Ti  Ti1  1  0.00000000  0.50000000  0.66666700  1
  Ti  Ti2  1  0.50000000  0.50000000  0.33333300  1
  H  H0  1  0.02506200  0.10446000  0.27891900  1
  H  H1  1  0.10143000  0.74243500  0.15438600  1
  H  H2  1  0.92060200  0.89554000  0.72108100  1
  H  H3  1  0.74243500  0.10143000  0.51228100  1
  H  H4  1  0.10446000  0.07939800  0.94558600  1
  H  H5  1  0.25756500  0.89857000  0.51228100  1
  H  H6  1  0.02506200  0.92060200  0.05441400  1
  H  H7  1  0.89857000  0.64100600  0.17894800  1
  H  H8  1  0.07939800  0.97493800  0.61225300  1
  H  H9  1  0.92060200  0.02506200  0.61225300  1
  H  H10  1  0.07939800  0.10446000  0.72108100  1
  H  H11  1  0.89554000  0.97493800  0.38774700  1
  H  H12  1  0.10143000  0.35899400  0.17894800  1
  H  H13  1  0.35899400  0.10143000  0.48771900  1
  H  H14  1  0.64100600  0.74243500  0.84561400  1
  H  H15  1  0.89554000  0.92060200  0.94558600  1
  H  H16  1  0.25756500  0.35899400  0.82105200  1
  H  H17  1  0.10446000  0.02506200  0.38774700  1
  H  H18  1  0.97493800  0.89554000  0.27891900  1
  H  H19  1  0.97493800  0.07939800  0.05441400  1
  H  H20  1  0.74243500  0.64100600  0.82105200  1
  H  H21  1  0.35899400  0.25756500  0.84561400  1
  H  H22  1  0.64100600  0.89857000  0.48771900  1
  H  H23  1  0.89857000  0.25756500  0.15438600  1
  C  C0  1  0.37734800  0.68867400  0.16666700  1
  C  C1  1  0.68867400  0.31132600  0.83333300  1
  C  C2  1  0.21490700  0.42981400  0.50000000  1
  C  C3  1  0.31132600  0.68867400  0.83333300  1
  C  C4  1  0.78509300  0.21490700  0.83333300  1
  C  C5  1  0.68867400  0.37734800  0.50000000  1
  C  C6  1  0.31132600  0.62265200  0.50000000  1
  C  C7  1  0.78509300  0.57018600  0.50000000  1
  C  C8  1  0.57018600  0.78509300  0.16666700  1
  C  C9  1  0.21490700  0.78509300  0.83333300  1
  C  C10  1  0.62265200  0.31132600  0.16666700  1
  C  C11  1  0.42981400  0.21490700  0.16666700  1
  N  N0  1  0.00000000  0.00000000  0.66666700  1
  N  N1  1  0.00000000  0.00000000  0.33333300  1
  N  N2  1  0.00000000  0.00000000  0.00000000  1
  O  O0  1  0.72226200  0.07802900  0.89600200  1
  O  O1  1  0.92197100  0.27773800  0.77066500  1
  O  O2  1  0.69339900  0.45292200  0.22454900  1
  O  O3  1  0.00000000  0.24414900  0.16666700  1
  O  O4  1  0.64423300  0.72226200  0.22933500  1
  O  O5  1  0.75952200  0.30660100  0.55788200  1
  O  O6  1  0.30660100  0.54707800  0.22454900  1
  O  O7  1  0.35576700  0.27773800  0.22933500  1
  O  O8  1  0.54707800  0.24047800  0.89121600  1
  O  O9  1  0.72226200  0.64423300  0.43733100  1
  O  O10  1  0.64423300  0.92197100  0.10399800  1
  O  O11  1  0.24414900  0.24414900  0.83333300  1
  O  O12  1  0.24047800  0.69339900  0.55788200  1
  O  O13  1  0.24047800  0.54707800  0.77545100  1
  O  O14  1  0.45292200  0.75952200  0.89121600  1
  O  O15  1  0.35576700  0.07802900  0.10399800  1
  O  O16  1  0.07802900  0.35576700  0.56266900  1
  O  O17  1  0.54707800  0.30660100  0.44211800  1
  O  O18  1  0.07802900  0.72226200  0.77066500  1
  O  O19  1  0.75952200  0.45292200  0.77545100  1
  O  O20  1  0.30660100  0.75952200  0.10878400  1
  O  O21  1  0.69339900  0.24047800  0.10878400  1
  O  O22  1  0.24414900  0.00000000  0.50000000  1
  O  O23  1  0.27773800  0.92197100  0.89600200  1
  O  O24  1  0.92197100  0.64423300  0.56266900  1
  O  O25  1  0.00000000  0.75585100  0.16666700  1
  O  O26  1  0.27773800  0.35576700  0.43733100  1
  O  O27  1  0.75585100  0.75585100  0.83333300  1
  O  O28  1  0.75585100  0.00000000  0.50000000  1
  O  O29  1  0.45292200  0.69339900  0.44211800  1
loop_
_geom_bond_atom_site_label_1
_geom_bond_atom_site_label_2
_geom_bond_distance
_geom_bond_site_symmetry_2
H0 N1 1.039021 1_555
H1 O25 0.985915 1_555
H2 N0 1.039021 1_665
H3 O28 0.985915 1_555
H4 N2 1.039021 1_556
H5 O22 0.985915 1_565
H6 N2 1.039021 1_565
H7 O25 0.985910 1_655
H8 N0 1.039021 1_565
H9 N0 1.039021 1_655
H10 N0 1.039021 1_555
H11 N1 1.039021 1_665
H12 O3 0.985910 1_555
H13 O22 0.985910 1_555
H14 O27 0.985906 1_555
H15 N2 1.039021 1_666
H16 O11 0.985906 1_555
H17 N1 1.039021 1_555
H18 N1 1.039021 1_665
H19 N2 1.039021 1_655
H20 O27 0.985906 1_555
H21 O11 0.985906 1_555
H22 O28 0.985910 1_565
H23 O3 0.985915 1_655
C0 O20 1.272776 1_555
C0 O6 1.272778 1_555
C1 O19 1.272778 1_555
C1 O8 1.272783 1_555
C2 O26 1.270144 1_555
C2 O16 1.270144 1_555
C3 O13 1.272778 1_555
C3 O14 1.272783 1_555
C4 O1 1.270138 1_555
C4 O0 1.270144 1_555
C5 O5 1.272771 1_555
C5 O17 1.272778 1_555
C6 O12 1.272771 1_555
C6 O29 1.272778 1_555
C7 O9 1.270144 1_555
C7 O24 1.270144 1_555
C8 O4 1.270138 1_555
C8 O10 1.270144 1_555
C9 O18 1.270138 1_555
C9 O23 1.270144 1_555
C10 O21 1.272776 1_555
C10 O2 1.272778 1_555
C11 O7 1.270138 1_555
C11 O15 1.270144 1_555
O0 Ti0 2.095557 1_556
O1 Ti1 2.095557 1_655
O2 Ti2 2.316920 1_555
O4 Ti2 2.095557 1_555
O5 Ti1 2.316931 1_655
O6 Ti2 2.316920 1_555
O7 Ti2 2.095557 1_555
O8 Ti0 2.316928 1_556
O9 Ti2 2.095557 1_555
O10 Ti0 2.095557 1_565
O12 Ti1 2.316931 1_555
O13 Ti1 2.316928 1_555
O14 Ti0 2.316928 1_566
O15 Ti0 2.095557 1_555
O16 Ti1 2.095557 1_555
O17 Ti2 2.316926 1_555
O18 Ti1 2.095557 1_555
O19 Ti1 2.316928 1_655
O20 Ti0 2.316926 1_565
O21 Ti0 2.316926 1_555
O23 Ti0 2.095557 1_566
O24 Ti1 2.095557 1_655
O26 Ti2 2.095557 1_555
O29 Ti2 2.316926 1_555
