# generated using pymatgen
data_ZnHg2H14C4N6O13
_symmetry_space_group_name_H-M   'P 1'
_cell_length_a   9.58101293
_cell_length_b   9.58101293
_cell_length_c   16.50508782
_cell_angle_alpha   85.26706763
_cell_angle_beta   85.26706763
_cell_angle_gamma   40.41945440
_symmetry_Int_Tables_number   1
_chemical_formula_structural   ZnHg2H14C4N6O13
_chemical_formula_sum   'Zn2 Hg4 H28 C8 N12 O26'
_cell_volume   978.55227581
_cell_formula_units_Z   2
loop_
 _symmetry_equiv_pos_site_id
 _symmetry_equiv_pos_as_xyz
  1  'x, y, z'
loop_
 _atom_site_type_symbol
 _atom_site_label
 _atom_site_symmetry_multiplicity
 _atom_site_fract_x
 _atom_site_fract_y
 _atom_site_fract_z
 _atom_site_occupancy
  Zn  Zn0  1  0.00000000  0.00000000  0.50000000  1
  Zn  Zn1  1  0.00000000  0.00000000  0.00000000  1
  Hg  Hg0  1  0.79270400  0.52148600  0.08586700  1
  Hg  Hg1  1  0.47851400  0.20729600  0.41413300  1
  Hg  Hg2  1  0.20729600  0.47851400  0.91413300  1
  Hg  Hg3  1  0.52148600  0.79270400  0.58586700  1
  H  H0  1  0.19966800  0.88825600  0.25210100  1
  H  H1  1  0.11174400  0.80033200  0.24789900  1
  H  H2  1  0.80033200  0.11174400  0.74789900  1
  H  H3  1  0.88825600  0.19966800  0.75210100  1
  H  H4  1  0.18379900  0.64854000  0.09260700  1
  H  H5  1  0.35146000  0.81620100  0.40739300  1
  H  H6  1  0.81620100  0.35146000  0.90739300  1
  H  H7  1  0.64854000  0.18379900  0.59260700  1
  H  H8  1  0.93487300  0.79590800  0.08682600  1
  H  H9  1  0.20409200  0.06512700  0.41317400  1
  H  H10  1  0.06512700  0.20409200  0.91317400  1
  H  H11  1  0.79590800  0.93487300  0.58682600  1
  H  H12  1  0.93363300  0.08688500  0.16192100  1
  H  H13  1  0.91311500  0.06636700  0.33807900  1
  H  H14  1  0.06636700  0.91311500  0.83807900  1
  H  H15  1  0.08688500  0.93363300  0.66192100  1
  H  H16  1  0.70248800  0.25896500  0.12316600  1
  H  H17  1  0.74103500  0.29751200  0.37683400  1
  H  H18  1  0.29751200  0.74103500  0.87683400  1
  H  H19  1  0.25896500  0.70248800  0.62316600  1
  H  H20  1  0.57928000  0.98595700  0.12920600  1
  H  H21  1  0.01404300  0.42072000  0.37079400  1
  H  H22  1  0.42072000  0.01404300  0.87079400  1
  H  H23  1  0.98595700  0.57928000  0.62920600  1
  H  H24  1  0.75106000  0.83280100  0.19610500  1
  H  H25  1  0.16719900  0.24894000  0.30389500  1
  H  H26  1  0.24894000  0.16719900  0.80389500  1
  H  H27  1  0.83280100  0.75106000  0.69610500  1
  C  C0  1  0.48046700  0.72484400  0.05464000  1
  C  C1  1  0.27515600  0.51953300  0.44536000  1
  C  C2  1  0.51953300  0.27515600  0.94536000  1
  C  C3  1  0.72484400  0.48046700  0.55464000  1
  C  C4  1  0.11044200  0.32428200  0.10378700  1
  C  C5  1  0.67571800  0.88955800  0.39621300  1
  C  C6  1  0.88955800  0.67571800  0.89621300  1
  C  C7  1  0.32428200  0.11044200  0.60378700  1
  N  N0  1  0.30619700  0.83339400  0.03589600  1
  N  N1  1  0.16660600  0.69380300  0.46410400  1
  N  N2  1  0.69380300  0.16660600  0.96410400  1
  N  N3  1  0.83339400  0.30619700  0.53589600  1
  N  N4  1  0.29054900  0.21262600  0.11428500  1
  N  N5  1  0.78737400  0.70945100  0.38571500  1
  N  N6  1  0.70945100  0.78737400  0.88571500  1
  N  N7  1  0.21262600  0.29054900  0.61428500  1
  N  N8  1  0.59311100  0.60902000  0.28286000  1
  N  N9  1  0.39098000  0.40688900  0.21714000  1
  N  N10  1  0.40688900  0.39098000  0.71714000  1
  N  N11  1  0.60902000  0.59311100  0.78286000  1
  O  O0  1  0.06540300  0.93459700  0.25000000  1
  O  O1  1  0.93459700  0.06540300  0.75000000  1
  O  O2  1  0.94097900  0.25031000  0.94391300  1
  O  O3  1  0.74969000  0.05902100  0.55608700  1
  O  O4  1  0.05902100  0.74969000  0.05608700  1
  O  O5  1  0.25031000  0.94097900  0.44391300  1
  O  O6  1  0.85362800  0.17594700  0.11130000  1
  O  O7  1  0.82405300  0.14637200  0.38870000  1
  O  O8  1  0.14637200  0.82405300  0.88870000  1
  O  O9  1  0.17594700  0.85362800  0.61130000  1
  O  O10  1  0.73484200  0.84761900  0.13745100  1
  O  O11  1  0.15238100  0.26515800  0.36254900  1
  O  O12  1  0.26515800  0.15238100  0.86254900  1
  O  O13  1  0.84761900  0.73484200  0.63745100  1
  O  O14  1  0.55323400  0.57526900  0.35313600  1
  O  O15  1  0.42473100  0.44676600  0.14686400  1
  O  O16  1  0.44676600  0.42473100  0.64686400  1
  O  O17  1  0.57526900  0.55323400  0.85313600  1
  O  O18  1  0.44754600  0.79386200  0.24868800  1
  O  O19  1  0.20613800  0.55245400  0.25131200  1
  O  O20  1  0.55245400  0.20613800  0.75131200  1
  O  O21  1  0.79386200  0.44754600  0.74868800  1
  O  O22  1  0.77559000  0.45738900  0.24909100  1
  O  O23  1  0.54261100  0.22441000  0.25090900  1
  O  O24  1  0.22441000  0.54261100  0.75090900  1
  O  O25  1  0.45738900  0.77559000  0.74909100  1
loop_
_geom_bond_atom_site_label_1
_geom_bond_atom_site_label_2
_geom_bond_distance
_geom_bond_site_symmetry_2
H0 O0 0.994137 1_555
H1 O0 0.994137 1_555
H2 O1 0.994137 1_555
H3 O1 0.994137 1_555
H4 O4 0.995067 1_555
H5 O5 0.995067 1_555
H6 O2 0.995067 1_555
H7 O3 0.995067 1_555
H8 O4 1.001902 1_655
H9 O5 1.001902 1_545
H10 O2 1.001902 1_455
H11 O3 1.001902 1_565
H12 O6 1.002930 1_555
H13 O7 1.002930 1_555
H14 O8 1.002930 1_555
H15 O9 1.002930 1_555
H16 O6 0.996532 1_555
H17 O7 0.996532 1_555
H18 O8 0.996532 1_555
H19 O9 0.996532 1_555
H20 O10 0.996228 1_555
H21 O11 0.996228 1_555
H22 O12 0.996228 1_555
H23 O13 0.996228 1_555
H24 O10 0.974705 1_555
H25 O11 0.974705 1_555
H26 O12 0.974705 1_555
H27 O13 0.974705 1_555
C0 N0 1.163304 1_555
C0 Hg0 2.055471 1_555
C1 N1 1.163304 1_555
C1 Hg1 2.055471 1_555
C2 N2 1.163304 1_555
C2 Hg2 2.055471 1_555
C3 N3 1.163304 1_555
C3 Hg3 2.055471 1_555
C4 N4 1.166237 1_555
C4 Hg0 2.055048 1_455
C5 N5 1.166237 1_555
C5 Hg1 2.055048 1_565
C6 N6 1.166237 1_555
C6 Hg2 2.055048 1_655
C7 N7 1.166237 1_555
C7 Hg3 2.055048 1_545
N0 Zn1 2.122716 1_565
N1 Zn0 2.122716 1_565
N2 Zn1 2.122716 1_656
N3 Zn0 2.122716 1_655
N8 O22 1.258290 1_555
N8 O18 1.266388 1_555
N8 O14 1.284143 1_555
N9 O23 1.258290 1_555
N9 O19 1.266388 1_555
N9 O15 1.284143 1_555
N10 O24 1.258290 1_555
N10 O20 1.266388 1_555
N10 O16 1.284143 1_555
N11 O25 1.258290 1_555
N11 O21 1.266388 1_555
N11 O17 1.284143 1_555
O2 Zn1 2.140865 1_656
O3 Zn0 2.140865 1_655
O4 Zn1 2.140865 1_565
O5 Zn0 2.140865 1_565
O6 Zn1 2.160867 1_655
O7 Zn0 2.160867 1_655
O8 Zn1 2.160867 1_566
O9 Zn0 2.160867 1_565
