# generated using pymatgen
data_BrN(OF2)2
_symmetry_space_group_name_H-M   'P 1'
_cell_length_a   5.90705700
_cell_length_b   5.92798200
_cell_length_c   14.22465300
_cell_angle_alpha   90.00000000
_cell_angle_beta   90.00000000
_cell_angle_gamma   90.00000000
_symmetry_Int_Tables_number   1
_chemical_formula_structural   BrN(OF2)2
_chemical_formula_sum   'Br4 N4 O8 F16'
_cell_volume   498.10364379
_cell_formula_units_Z   4
loop_
 _symmetry_equiv_pos_site_id
 _symmetry_equiv_pos_as_xyz
  1  'x, y, z'
loop_
 _atom_site_type_symbol
 _atom_site_label
 _atom_site_symmetry_multiplicity
 _atom_site_fract_x
 _atom_site_fract_y
 _atom_site_fract_z
 _atom_site_occupancy
  Br  Br0  1  0.25000000  0.66786900  0.35361700  1
  Br  Br1  1  0.75000000  0.83213100  0.85361700  1
  Br  Br2  1  0.25000000  0.16786900  0.14638300  1
  Br  Br3  1  0.75000000  0.33213100  0.64638300  1
  N  N0  1  0.25000000  0.44002200  0.84949600  1
  N  N1  1  0.25000000  0.94002200  0.65050400  1
  N  N2  1  0.75000000  0.05997800  0.34949600  1
  N  N3  1  0.75000000  0.55997800  0.15050400  1
  O  O0  1  0.25000000  0.45314500  0.42200600  1
  O  O1  1  0.75000000  0.72671000  0.11536100  1
  O  O2  1  0.25000000  0.27329000  0.88463900  1
  O  O3  1  0.75000000  0.04685500  0.92200600  1
  O  O4  1  0.75000000  0.22671000  0.38463900  1
  O  O5  1  0.25000000  0.77329000  0.61536100  1
  O  O6  1  0.25000000  0.95314500  0.07799400  1
  O  O7  1  0.75000000  0.54685500  0.57799400  1
  F  F0  1  0.48266000  0.54052400  0.26928200  1
  F  F1  1  0.02311800  0.83189800  0.42350000  1
  F  F2  1  0.52311800  0.16810200  0.57650000  1
  F  F3  1  0.47688200  0.33189800  0.07650000  1
  F  F4  1  0.52311800  0.66810200  0.92350000  1
  F  F5  1  0.01734000  0.54052400  0.26928200  1
  F  F6  1  0.98266000  0.45947600  0.73071800  1
  F  F7  1  0.48266000  0.04052400  0.23071800  1
  F  F8  1  0.02311800  0.33189800  0.07650000  1
  F  F9  1  0.01734000  0.04052400  0.23071800  1
  F  F10  1  0.98266000  0.95947600  0.76928200  1
  F  F11  1  0.97688200  0.16810200  0.57650000  1
  F  F12  1  0.97688200  0.66810200  0.92350000  1
  F  F13  1  0.47688200  0.83189800  0.42350000  1
  F  F14  1  0.51734000  0.45947600  0.73071800  1
  F  F15  1  0.51734000  0.95947600  0.76928200  1
loop_
_geom_bond_atom_site_label_1
_geom_bond_atom_site_label_2
_geom_bond_distance
_geom_bond_site_symmetry_2
Br0 O0 1.602056 1_555
Br0 F13 1.931267 1_555
Br0 F1 1.931267 1_555
Br0 F5 1.974284 1_555
Br0 F0 1.974284 1_555
Br1 O3 1.602056 1_565
Br1 F12 1.931267 1_555
Br1 F4 1.931267 1_555
Br1 F15 1.974284 1_555
Br1 F10 1.974284 1_555
Br2 O6 1.602056 1_545
Br2 F3 1.931267 1_555
Br2 F8 1.931267 1_555
Br2 F9 1.974284 1_555
Br2 F7 1.974284 1_555
Br3 O7 1.602056 1_555
Br3 F11 1.931267 1_555
Br3 F2 1.931267 1_555
Br3 F14 1.974284 1_555
Br3 F6 1.974284 1_555
N0 O2 1.107610 1_555
N1 O5 1.107610 1_555
N2 O4 1.107610 1_555
N3 O1 1.107610 1_555
