# generated using pymatgen
data_Na2FeH4C5(N2O)3
_symmetry_space_group_name_H-M   'P 1'
_cell_length_a   6.17365000
_cell_length_b   11.94717600
_cell_length_c   15.63341300
_cell_angle_alpha   90.00000000
_cell_angle_beta   90.00000000
_cell_angle_gamma   90.00000000
_symmetry_Int_Tables_number   1
_chemical_formula_structural   Na2FeH4C5(N2O)3
_chemical_formula_sum   'Na8 Fe4 H16 C20 N24 O12'
_cell_volume   1153.08432202
_cell_formula_units_Z   4
loop_
 _symmetry_equiv_pos_site_id
 _symmetry_equiv_pos_as_xyz
  1  'x, y, z'
loop_
 _atom_site_type_symbol
 _atom_site_label
 _atom_site_symmetry_multiplicity
 _atom_site_fract_x
 _atom_site_fract_y
 _atom_site_fract_z
 _atom_site_occupancy
  Na  Na0  1  0.50000000  0.50000000  0.62123200  1
  Na  Na1  1  0.50000000  0.50000000  0.37876800  1
  Na  Na2  1  0.00000000  0.50000000  0.75436600  1
  Na  Na3  1  0.00000000  0.00000000  0.87876800  1
  Na  Na4  1  0.00000000  0.00000000  0.12123200  1
  Na  Na5  1  0.50000000  0.00000000  0.74563400  1
  Na  Na6  1  0.00000000  0.50000000  0.24563400  1
  Na  Na7  1  0.50000000  0.00000000  0.25436600  1
  Fe  Fe0  1  0.99952000  0.78045400  0.50000000  1
  Fe  Fe1  1  0.00048000  0.21954600  0.50000000  1
  Fe  Fe2  1  0.50048000  0.28045400  0.00000000  1
  Fe  Fe3  1  0.49952000  0.71954600  0.00000000  1
  H  H0  1  0.05525600  0.12206000  0.72611200  1
  H  H1  1  0.31439800  0.69964600  0.28841100  1
  H  H2  1  0.94474400  0.87794000  0.72611200  1
  H  H3  1  0.55525600  0.37794000  0.22611200  1
  H  H4  1  0.81439800  0.80035400  0.21158900  1
  H  H5  1  0.31439800  0.69964600  0.71158900  1
  H  H6  1  0.68560200  0.30035400  0.71158900  1
  H  H7  1  0.18560200  0.19964600  0.78841100  1
  H  H8  1  0.81439800  0.80035400  0.78841100  1
  H  H9  1  0.68560200  0.30035400  0.28841100  1
  H  H10  1  0.44474400  0.62206000  0.77388800  1
  H  H11  1  0.05525600  0.12206000  0.27388800  1
  H  H12  1  0.55525600  0.37794000  0.77388800  1
  H  H13  1  0.44474400  0.62206000  0.22611200  1
  H  H14  1  0.18560200  0.19964600  0.21158900  1
  H  H15  1  0.94474400  0.87794000  0.27388800  1
  C  C0  1  0.34601600  0.35985800  0.91169700  1
  C  C1  1  0.15398400  0.85985800  0.58830300  1
  C  C2  1  0.65398400  0.64014200  0.08830300  1
  C  C3  1  0.34601600  0.35985800  0.08830300  1
  C  C4  1  0.60444200  0.18035500  0.08707000  1
  C  C5  1  0.10444200  0.31964500  0.41293000  1
  C  C6  1  0.84601600  0.14014200  0.58830300  1
  C  C7  1  0.65398400  0.64014200  0.91169700  1
  C  C8  1  0.89555800  0.68035500  0.58707000  1
  C  C9  1  0.60444200  0.18035500  0.91293000  1
  C  C10  1  0.84601600  0.14014200  0.41169700  1
  C  C11  1  0.24671300  0.68383100  0.50000000  1
  C  C12  1  0.74671300  0.81616900  0.00000000  1
  C  C13  1  0.75328700  0.31616900  0.50000000  1
  C  C14  1  0.39555800  0.81964500  0.08707000  1
  C  C15  1  0.10444200  0.31964500  0.58707000  1
  C  C16  1  0.39555800  0.81964500  0.91293000  1
  C  C17  1  0.89555800  0.68035500  0.41293000  1
  C  C18  1  0.25328700  0.18383100  0.00000000  1
  C  C19  1  0.15398400  0.85985800  0.41169700  1
  N  N0  1  0.27507600  0.64256600  0.00000000  1
  N  N1  1  0.66644400  0.12031300  0.85868600  1
  N  N2  1  0.25172600  0.40427800  0.85574600  1
  N  N3  1  0.83355600  0.62031300  0.35868600  1
  N  N4  1  0.77507600  0.85743400  0.50000000  1
  N  N5  1  0.75172600  0.09572200  0.35574600  1
  N  N6  1  0.74827400  0.59572200  0.85574600  1
  N  N7  1  0.10231900  0.12433400  0.00000000  1
  N  N8  1  0.60231900  0.37566600  0.50000000  1
  N  N9  1  0.33355600  0.87968700  0.14131400  1
  N  N10  1  0.25172600  0.40427800  0.14425400  1
  N  N11  1  0.83355600  0.62031300  0.64131400  1
  N  N12  1  0.24827400  0.90427800  0.64425400  1
  N  N13  1  0.22492400  0.14256600  0.50000000  1
  N  N14  1  0.16644400  0.37968700  0.64131400  1
  N  N15  1  0.75172600  0.09572200  0.64425400  1
  N  N16  1  0.16644400  0.37968700  0.35868600  1
  N  N17  1  0.74827400  0.59572200  0.14425400  1
  N  N18  1  0.24827400  0.90427800  0.35574600  1
  N  N19  1  0.89768100  0.87566600  0.00000000  1
  N  N20  1  0.66644400  0.12031300  0.14131400  1
  N  N21  1  0.72492400  0.35743400  0.00000000  1
  N  N22  1  0.39768100  0.62433400  0.50000000  1
  N  N23  1  0.33355600  0.87968700  0.85868600  1
  O  O0  1  0.32862500  0.62203900  0.26908500  1
  O  O1  1  0.17137500  0.12203900  0.23091500  1
  O  O2  1  0.82862500  0.87796100  0.76908500  1
  O  O3  1  0.32862500  0.62203900  0.73091500  1
  O  O4  1  0.61361100  0.90499700  0.50000000  1
  O  O5  1  0.17137500  0.12203900  0.76908500  1
  O  O6  1  0.82862500  0.87796100  0.23091500  1
  O  O7  1  0.67137500  0.37796100  0.26908500  1
  O  O8  1  0.11361100  0.59500300  0.00000000  1
  O  O9  1  0.67137500  0.37796100  0.73091500  1
  O  O10  1  0.38638900  0.09500300  0.50000000  1
  O  O11  1  0.88638900  0.40499700  0.00000000  1
loop_
_geom_bond_atom_site_label_1
_geom_bond_atom_site_label_2
_geom_bond_distance
_geom_bond_site_symmetry_2
Na0 O3 2.487061 1_555
Na0 O9 2.487061 1_555
Na1 O0 2.487061 1_555
Na1 O7 2.487061 1_555
Na2 O9 2.525139 1_455
Na2 O3 2.525139 1_555
Na3 O5 2.487061 1_555
Na3 O2 2.487061 1_445
Na4 O1 2.487061 1_555
Na4 O6 2.487061 1_445
Na5 O5 2.525139 1_555
Na5 O2 2.525139 1_545
Na6 O7 2.525139 1_455
Na6 O0 2.525139 1_555
Na7 O6 2.525139 1_545
Na7 O1 2.525139 1_555
Fe0 N4 1.663079 1_555
Fe1 N13 1.663079 1_555
Fe2 N21 1.663079 1_555
Fe3 N0 1.663079 1_555
H0 O5 0.982471 1_555
H1 O0 0.979116 1_555
H2 O2 0.982471 1_555
H3 O7 0.982471 1_555
H4 O6 0.979116 1_555
H5 O3 0.979116 1_555
H6 O9 0.979116 1_555
H7 O5 0.979116 1_555
H8 O2 0.979116 1_555
H9 O7 0.979116 1_555
H10 O3 0.982471 1_555
H11 O1 0.982471 1_555
H12 O9 0.982471 1_555
H13 O0 0.982471 1_555
H14 O1 0.979116 1_555
H15 O6 0.982471 1_555
C0 N2 1.177115 1_555
C0 Fe2 1.927440 1_556
C1 N12 1.177115 1_555
C1 Fe0 1.927440 1_455
C2 N17 1.177115 1_555
C2 Fe3 1.927440 1_555
C3 N10 1.177115 1_555
C3 Fe2 1.927440 1_555
C4 N20 1.174828 1_555
C4 Fe2 1.922235 1_555
C5 N16 1.174828 1_555
C5 Fe1 1.922235 1_555
C6 N15 1.177115 1_555
C6 Fe1 1.927440 1_655
C7 N6 1.177115 1_555
C7 Fe3 1.927440 1_556
C8 N11 1.174828 1_555
C8 Fe0 1.922235 1_555
C9 N1 1.174828 1_555
C9 Fe2 1.922235 1_556
C10 N5 1.177115 1_555
C10 Fe1 1.927440 1_655
C11 N22 1.172150 1_555
C11 Fe0 1.913506 1_455
C12 N19 1.172150 1_555
C12 Fe3 1.913506 1_555
C13 N8 1.172150 1_555
C13 Fe1 1.913506 1_655
C14 N9 1.174828 1_555
C14 Fe3 1.922235 1_555
C15 N14 1.174828 1_555
C15 Fe1 1.922235 1_555
C16 N23 1.174828 1_555
C16 Fe3 1.922235 1_556
C17 N3 1.174828 1_555
C17 Fe0 1.922235 1_555
C18 N7 1.172150 1_555
C18 Fe2 1.913506 1_555
C19 N18 1.177115 1_555
C19 Fe0 1.927440 1_455
N0 O8 1.147418 1_555
N1 Na5 2.499135 1_555
N1 Na3 2.530855 1_655
N2 Na2 2.496983 1_555
N3 Na6 2.499135 1_655
N3 Na1 2.530855 1_555
N4 O4 1.147418 1_555
N5 Na7 2.496983 1_555
N6 Na2 2.496983 1_655
N7 Na3 2.489498 1_554
N7 Na4 2.489498 1_555
N8 Na0 2.489498 1_555
N8 Na1 2.489498 1_555
N9 Na7 2.499135 1_565
N9 Na4 2.530855 1_565
N10 Na6 2.496983 1_555
N11 Na2 2.499135 1_655
N11 Na0 2.530855 1_555
N12 Na5 2.496983 1_565
N13 O10 1.147418 1_555
N14 Na2 2.499135 1_555
N14 Na0 2.530855 1_555
N15 Na5 2.496983 1_555
N16 Na6 2.499135 1_555
N16 Na1 2.530855 1_555
N17 Na6 2.496983 1_655
N18 Na7 2.496983 1_565
N19 Na4 2.489498 1_665
N19 Na3 2.489498 1_664
N20 Na7 2.499135 1_555
N20 Na4 2.530855 1_655
N21 O11 1.147418 1_555
N22 Na0 2.489498 1_555
N22 Na1 2.489498 1_555
N23 Na5 2.499135 1_565
N23 Na3 2.530855 1_565
