# generated using pymatgen
data_S2XeNO4F3
_symmetry_space_group_name_H-M   'P 1'
_cell_length_a   7.11321400
_cell_length_b   9.95028100
_cell_length_c   12.31248109
_cell_angle_alpha   67.36555823
_cell_angle_beta   90.00000000
_cell_angle_gamma   90.00000000
_symmetry_Int_Tables_number   1
_chemical_formula_structural   S2XeNO4F3
_chemical_formula_sum   'S8 Xe4 N4 O16 F12'
_cell_volume   804.33809139
_cell_formula_units_Z   4
loop_
 _symmetry_equiv_pos_site_id
 _symmetry_equiv_pos_as_xyz
  1  'x, y, z'
loop_
 _atom_site_type_symbol
 _atom_site_label
 _atom_site_symmetry_multiplicity
 _atom_site_fract_x
 _atom_site_fract_y
 _atom_site_fract_z
 _atom_site_occupancy
  S  S0  1  0.01396100  0.62531200  0.31040200  1
  S  S1  1  0.98603900  0.37468800  0.68959800  1
  S  S2  1  0.04941500  0.75566100  0.05744300  1
  S  S3  1  0.45058500  0.75566100  0.55744300  1
  S  S4  1  0.54941500  0.24433900  0.44255700  1
  S  S5  1  0.48603900  0.62531200  0.81040200  1
  S  S6  1  0.95058500  0.24433900  0.94255700  1
  S  S7  1  0.51396100  0.37468800  0.18959800  1
  Xe  Xe0  1  0.82677400  0.86960400  0.67007000  1
  Xe  Xe1  1  0.17322600  0.13039600  0.32993000  1
  Xe  Xe2  1  0.67322600  0.86960400  0.17007000  1
  Xe  Xe3  1  0.32677400  0.13039600  0.82993000  1
  N  N0  1  0.06124600  0.26258000  0.82004400  1
  N  N1  1  0.43875400  0.26258000  0.32004400  1
  N  N2  1  0.56124600  0.73742000  0.67995600  1
  N  N3  1  0.93875400  0.73742000  0.17995600  1
  O  O0  1  0.37156200  0.38128600  0.10655700  1
  O  O1  1  0.95492800  0.86667900  0.96293800  1
  O  O2  1  0.60122500  0.49915300  0.19813100  1
  O  O3  1  0.54507200  0.86667900  0.46293800  1
  O  O4  1  0.62843800  0.61871400  0.89344300  1
  O  O5  1  0.04507200  0.13332100  0.03706200  1
  O  O6  1  0.87156200  0.61871400  0.39344300  1
  O  O7  1  0.75186200  0.24640400  0.92677700  1
  O  O8  1  0.12843800  0.38128600  0.60655700  1
  O  O9  1  0.25186200  0.75359600  0.57322300  1
  O  O10  1  0.45492800  0.13332100  0.53706200  1
  O  O11  1  0.89877500  0.49915300  0.69813100  1
  O  O12  1  0.74813800  0.24640400  0.42677700  1
  O  O13  1  0.24813800  0.75359600  0.07322300  1
  O  O14  1  0.39877500  0.50084700  0.80186900  1
  O  O15  1  0.10122500  0.50084700  0.30186900  1
  F  F0  1  0.68164100  0.28102600  0.16793100  1
  F  F1  1  0.93535600  0.00608500  0.34042600  1
  F  F2  1  0.43535600  0.99391500  0.15957400  1
  F  F3  1  0.99795400  0.60657300  0.04593000  1
  F  F4  1  0.50204600  0.60657300  0.54593000  1
  F  F5  1  0.49795400  0.39342700  0.45407000  1
  F  F6  1  0.00204600  0.39342700  0.95407000  1
  F  F7  1  0.31835900  0.71897400  0.83206900  1
  F  F8  1  0.56464400  0.00608500  0.84042600  1
  F  F9  1  0.81835900  0.28102600  0.66793100  1
  F  F10  1  0.18164100  0.71897400  0.33206900  1
  F  F11  1  0.06464400  0.99391500  0.65957400  1
loop_
_geom_bond_atom_site_label_1
_geom_bond_atom_site_label_2
_geom_bond_distance
_geom_bond_site_symmetry_2
N0 S6 1.648397 1_455
N0 S1 1.652611 1_455
N0 Xe3 2.277921 1_555
N1 S4 1.648397 1_555
N1 S7 1.652611 1_555
N1 Xe1 2.277921 1_555
N2 S3 1.648397 1_555
N2 S5 1.652611 1_555
N2 Xe0 2.277921 1_555
N3 S2 1.648397 1_655
N3 S0 1.652611 1_655
N3 Xe2 2.277921 1_555
O0 S7 1.422682 1_555
O1 S2 1.427093 1_656
O2 S7 1.424878 1_555
O3 S3 1.427093 1_555
O4 S5 1.422682 1_555
O5 S6 1.427093 1_454
O6 S0 1.422682 1_655
O7 S6 1.425920 1_555
O8 S1 1.422682 1_455
O9 S3 1.425920 1_555
O10 S4 1.427093 1_555
O11 S1 1.424878 1_555
O12 S4 1.425920 1_555
O13 S2 1.425920 1_555
O14 S5 1.424878 1_555
O15 S0 1.424878 1_555
F0 S7 1.598039 1_555
F1 Xe1 2.070408 1_655
F2 Xe2 2.070408 1_555
F3 S2 1.586387 1_655
F4 S3 1.586387 1_555
F5 S4 1.586387 1_555
F6 S6 1.586387 1_455
F7 S5 1.598039 1_555
F8 Xe3 2.070408 1_555
F9 S1 1.598039 1_555
F10 S0 1.598039 1_555
F11 Xe0 2.070408 1_455
