# generated using pymatgen
data_H6CN2O3
_symmetry_space_group_name_H-M   'P 1'
_cell_length_a   6.58609100
_cell_length_b   6.58995700
_cell_length_c   10.71576800
_cell_angle_alpha   90.00000000
_cell_angle_beta   90.00000000
_cell_angle_gamma   90.00000000
_symmetry_Int_Tables_number   1
_chemical_formula_structural   H6CN2O3
_chemical_formula_sum   'H24 C4 N8 O12'
_cell_volume   465.08636805
_cell_formula_units_Z   4
loop_
 _symmetry_equiv_pos_site_id
 _symmetry_equiv_pos_as_xyz
  1  'x, y, z'
loop_
 _atom_site_type_symbol
 _atom_site_label
 _atom_site_symmetry_multiplicity
 _atom_site_fract_x
 _atom_site_fract_y
 _atom_site_fract_z
 _atom_site_occupancy
  H  H0  1  0.25000000  0.47700400  0.95358500  1
  H  H1  1  0.25000000  0.02605200  0.93741900  1
  H  H2  1  0.11384700  0.18989900  0.55596800  1
  H  H3  1  0.38615300  0.31010100  0.05596800  1
  H  H4  1  0.11384700  0.31010100  0.05596800  1
  H  H5  1  0.87910000  0.81455900  0.15700000  1
  H  H6  1  0.75000000  0.52299600  0.04641500  1
  H  H7  1  0.37910000  0.18544100  0.84300000  1
  H  H8  1  0.37910000  0.31455900  0.34300000  1
  H  H9  1  0.75000000  0.97394800  0.06258100  1
  H  H10  1  0.12090000  0.18544100  0.84300000  1
  H  H11  1  0.61384700  0.68989900  0.94403200  1
  H  H12  1  0.12090000  0.31455900  0.34300000  1
  H  H13  1  0.25000000  0.47394800  0.43741900  1
  H  H14  1  0.25000000  0.02299600  0.45358500  1
  H  H15  1  0.75000000  0.52605200  0.56258100  1
  H  H16  1  0.62090000  0.68544100  0.65700000  1
  H  H17  1  0.75000000  0.97700400  0.54641500  1
  H  H18  1  0.61384700  0.81010100  0.44403200  1
  H  H19  1  0.62090000  0.81455900  0.15700000  1
  H  H20  1  0.87910000  0.68544100  0.65700000  1
  H  H21  1  0.88615300  0.68989900  0.94403200  1
  H  H22  1  0.38615300  0.18989900  0.55596800  1
  H  H23  1  0.88615300  0.81010100  0.44403200  1
  C  C0  1  0.25000000  0.17239300  0.49836900  1
  C  C1  1  0.75000000  0.67239300  0.00163100  1
  C  C2  1  0.75000000  0.82760700  0.50163100  1
  C  C3  1  0.25000000  0.32760700  0.99836900  1
  N  N0  1  0.25000000  0.33061500  0.39943100  1
  N  N1  1  0.25000000  0.16938500  0.89943100  1
  N  N2  1  0.25000000  0.73430400  0.70088200  1
  N  N3  1  0.75000000  0.83061500  0.10056900  1
  N  N4  1  0.25000000  0.76569600  0.20088200  1
  N  N5  1  0.75000000  0.66938500  0.60056900  1
  N  N6  1  0.75000000  0.26569600  0.29911800  1
  N  N7  1  0.75000000  0.23430400  0.79911800  1
  O  O0  1  0.91666000  0.22567600  0.24422500  1
  O  O1  1  0.08334000  0.77432400  0.75577500  1
  O  O2  1  0.75000000  0.15782500  0.90714600  1
  O  O3  1  0.91666000  0.27432400  0.74422500  1
  O  O4  1  0.41666000  0.72567600  0.25577500  1
  O  O5  1  0.58334000  0.27432400  0.74422500  1
  O  O6  1  0.75000000  0.34217500  0.40714600  1
  O  O7  1  0.25000000  0.84217500  0.09285400  1
  O  O8  1  0.08334000  0.72567600  0.25577500  1
  O  O9  1  0.41666000  0.77432400  0.75577500  1
  O  O10  1  0.58334000  0.22567600  0.24422500  1
  O  O11  1  0.25000000  0.65782500  0.59285400  1
loop_
_geom_bond_atom_site_label_1
_geom_bond_atom_site_label_2
_geom_bond_distance
_geom_bond_site_symmetry_2
H1 N1 1.028541 1_555
H5 N3 1.048718 1_555
H7 N1 1.048718 1_555
H8 N0 1.048718 1_555
H9 N3 1.028541 1_555
H10 N1 1.048718 1_555
H12 N0 1.048718 1_555
H13 N0 1.028541 1_555
H15 N5 1.028541 1_555
H16 N5 1.048718 1_555
H19 N3 1.048718 1_555
H20 N5 1.048718 1_555
C0 H22 1.094699 1_555
C0 H2 1.094699 1_555
C0 H14 1.095253 1_555
C0 N0 1.487007 1_555
C1 H11 1.094699 1_554
C1 H21 1.094699 1_554
C1 H6 1.095253 1_555
C1 N3 1.487007 1_555
C2 H18 1.094699 1_555
C2 H23 1.094699 1_555
C2 H17 1.095253 1_555
C2 N5 1.487007 1_555
C3 H4 1.094699 1_556
C3 H3 1.094699 1_556
C3 H0 1.095253 1_555
C3 N1 1.487007 1_555
N2 O11 1.262558 1_555
N2 O9 1.272936 1_555
N2 O1 1.272936 1_555
N4 O7 1.262558 1_555
N4 O4 1.272936 1_555
N4 O8 1.272936 1_555
N6 O6 1.262558 1_555
N6 O10 1.272936 1_555
N6 O0 1.272936 1_555
N7 O2 1.262558 1_555
N7 O5 1.272936 1_555
N7 O3 1.272936 1_555
