# generated using pymatgen
data_Nd5Co19B6
_symmetry_space_group_name_H-M   'P 1'
_cell_length_a   5.12156441
_cell_length_b   5.12156441
_cell_length_c   16.55490300
_cell_angle_alpha   90.00000000
_cell_angle_beta   90.00000000
_cell_angle_gamma   120.00000525
_symmetry_Int_Tables_number   1
_chemical_formula_structural   Nd5Co19B6
_chemical_formula_sum   'Nd5 Co19 B6'
_cell_volume   376.06466257
_cell_formula_units_Z   1
loop_
 _symmetry_equiv_pos_site_id
 _symmetry_equiv_pos_as_xyz
  1  'x, y, z'
loop_
 _atom_site_type_symbol
 _atom_site_label
 _atom_site_symmetry_multiplicity
 _atom_site_fract_x
 _atom_site_fract_y
 _atom_site_fract_z
 _atom_site_occupancy
  Nd  Nd0  1  0.00000000  0.00000000  0.70481100  1
  Nd  Nd1  1  0.00000000  0.00000000  0.09348800  1
  Nd  Nd2  1  0.00000000  0.00000000  0.29518900  1
  Nd  Nd3  1  0.00000000  0.00000000  0.50000000  1
  Nd  Nd4  1  0.00000000  0.00000000  0.90651200  1
  Co  Co0  1  0.50000000  0.50000000  0.58654300  1
  Co  Co1  1  0.50000000  0.50000000  0.41345700  1
  Co  Co2  1  0.33333300  0.66666700  0.70572200  1
  Co  Co3  1  0.50000000  0.00000000  0.41345700  1
  Co  Co4  1  0.00000000  0.50000000  0.58654300  1
  Co  Co5  1  0.50000000  0.50000000  0.17439000  1
  Co  Co6  1  0.33333300  0.66666700  0.29427800  1
  Co  Co7  1  0.66666700  0.33333300  0.70572200  1
  Co  Co8  1  0.50000000  0.50000000  0.82561000  1
  Co  Co9  1  0.50000000  0.00000000  0.82561000  1
  Co  Co10  1  0.66666700  0.33333300  0.29427800  1
  Co  Co11  1  0.00000000  0.50000000  0.41345700  1
  Co  Co12  1  0.50000000  0.00000000  0.58654300  1
  Co  Co13  1  0.50000000  0.00000000  0.17439000  1
  Co  Co14  1  0.00000000  0.50000000  0.17439000  1
  Co  Co15  1  0.50000000  0.00000000  0.00000000  1
  Co  Co16  1  0.00000000  0.50000000  0.82561000  1
  Co  Co17  1  0.00000000  0.50000000  0.00000000  1
  Co  Co18  1  0.50000000  0.50000000  0.00000000  1
  B  B0  1  0.33333300  0.66666700  0.91164600  1
  B  B1  1  0.66666700  0.33333300  0.91164600  1
  B  B2  1  0.66666700  0.33333300  0.08835400  1
  B  B3  1  0.33333300  0.66666700  0.08835400  1
  B  B4  1  0.66666700  0.33333300  0.50000000  1
  B  B5  1  0.33333300  0.66666700  0.50000000  1
loop_
_geom_bond_atom_site_label_1
_geom_bond_atom_site_label_2
_geom_bond_distance
_geom_bond_site_symmetry_2
Co0 Co2 2.465480 1_555
Co0 Co7 2.465480 1_555
Co0 Nd3 2.934325 1_555
Co0 Nd3 2.934325 1_665
Co1 Co6 2.465480 1_555
Co1 Co10 2.465480 1_555
Co1 Nd3 2.934325 1_555
Co1 Nd3 2.934325 1_665
Co2 Co4 2.465478 1_555
Co2 Co9 2.474881 1_565
Co2 Co8 2.474883 1_555
Co2 Nd0 2.956972 1_565
Co2 Nd0 2.956976 1_665
Co2 Nd0 2.956976 1_555
Co3 Co6 2.465478 1_545
Co3 Nd3 2.934326 1_655
Co3 Nd3 2.934326 1_555
Co4 Co7 2.465478 1_455
Co4 Nd3 2.934326 1_555
Co4 Nd3 2.934326 1_565
Co5 Co6 2.474883 1_555
Co5 Nd1 2.889878 1_555
Co5 Nd1 2.889878 1_665
Co6 Nd2 2.956972 1_565
Co6 Nd2 2.956976 1_665
Co6 Nd2 2.956976 1_555
Co7 Co9 2.474881 1_555
Co7 Co8 2.474883 1_555
Co7 Nd0 2.956972 1_655
Co7 Nd0 2.956976 1_665
Co7 Nd0 2.956976 1_555
Co8 Nd4 2.889878 1_555
Co8 Nd4 2.889878 1_665
Co9 Nd4 2.889878 1_655
Co9 Nd4 2.889878 1_555
Co10 Co11 2.465478 1_655
Co10 Co3 2.465478 1_555
Co10 Co13 2.474881 1_555
Co10 Co14 2.474881 1_655
Co10 Co5 2.474883 1_555
Co10 Nd2 2.956972 1_655
Co10 Nd2 2.956976 1_665
Co10 Nd2 2.956976 1_555
Co11 Co6 2.465478 1_555
Co11 Nd3 2.934326 1_555
Co11 Nd3 2.934326 1_565
Co12 Co7 2.465478 1_555
Co12 Co2 2.465478 1_545
Co12 Nd3 2.934326 1_655
Co12 Nd3 2.934326 1_555
Co13 Co6 2.474881 1_545
Co13 Nd1 2.889878 1_555
Co13 Nd1 2.889878 1_655
Co14 Co6 2.474881 1_555
Co14 Nd1 2.889878 1_555
Co14 Nd1 2.889878 1_565
Co15 Nd1 2.992145 1_655
Co15 Nd1 2.992145 1_555
Co15 Nd4 2.992145 1_654
Co15 Nd4 2.992145 1_554
Co16 Co2 2.474881 1_555
Co16 Co7 2.474881 1_455
Co16 Nd4 2.889878 1_555
Co16 Nd4 2.889878 1_565
Co17 Nd1 2.992145 1_565
Co17 Nd1 2.992145 1_555
Co17 Nd4 2.992145 1_564
Co17 Nd4 2.992145 1_554
Co18 Nd1 2.992145 1_665
Co18 Nd1 2.992145 1_555
Co18 Nd4 2.992145 1_664
Co18 Nd4 2.992145 1_554
B0 Co16 2.052936 1_555
B0 Co9 2.052936 1_565
B0 Co8 2.052939 1_555
B0 Co15 2.079743 1_566
B0 Co17 2.079743 1_556
B0 Co18 2.079746 1_556
B0 Nd4 2.958155 1_565
B0 Nd4 2.958159 1_665
B0 Nd4 2.958159 1_555
B1 Co16 2.052936 1_655
B1 Co9 2.052936 1_555
B1 Co8 2.052939 1_555
B1 Co15 2.079743 1_556
B1 Co17 2.079743 1_656
B1 Co18 2.079746 1_556
B1 Nd4 2.958155 1_655
B1 Nd4 2.958159 1_555
B1 Nd4 2.958159 1_665
B2 Co13 2.052936 1_555
B2 Co14 2.052936 1_655
B2 Co5 2.052939 1_555
B2 Co17 2.079743 1_655
B2 Co15 2.079743 1_555
B2 Co18 2.079746 1_555
B2 Nd1 2.958155 1_655
B2 Nd1 2.958159 1_555
B2 Nd1 2.958159 1_665
B3 Co14 2.052936 1_555
B3 Co13 2.052936 1_565
B3 Co5 2.052939 1_555
B3 Co15 2.079743 1_565
B3 Co17 2.079743 1_555
B3 Co18 2.079746 1_555
B3 Nd1 2.958155 1_565
B3 Nd1 2.958159 1_665
B3 Nd1 2.958159 1_555
B4 Co4 2.058768 1_655
B4 Co12 2.058768 1_555
B4 Co11 2.058768 1_655
B4 Co3 2.058768 1_555
B4 Co0 2.058771 1_555
B4 Co1 2.058771 1_555
B4 Nd3 2.956934 1_655
B4 Nd3 2.956938 1_555
B4 Nd3 2.956938 1_665
B5 Co12 2.058768 1_565
B5 Co4 2.058768 1_555
B5 Co3 2.058768 1_565
B5 Co11 2.058768 1_555
B5 Co0 2.058771 1_555
B5 Co1 2.058771 1_555
B5 Nd3 2.956934 1_565
B5 Nd3 2.956938 1_665
B5 Nd3 2.956938 1_555
