# generated using pymatgen
data_MnVH4O2F5
_symmetry_space_group_name_H-M   'P 1'
_cell_length_a   6.63685184
_cell_length_b   7.55549490
_cell_length_c   7.55621979
_cell_angle_alpha   61.98880178
_cell_angle_beta   116.05738696
_cell_angle_gamma   116.04619358
_symmetry_Int_Tables_number   1
_chemical_formula_structural   MnVH4O2F5
_chemical_formula_sum   'Mn2 V2 H8 O4 F10'
_cell_volume   287.27901975
_cell_formula_units_Z   2
loop_
 _symmetry_equiv_pos_site_id
 _symmetry_equiv_pos_as_xyz
  1  'x, y, z'
loop_
 _atom_site_type_symbol
 _atom_site_label
 _atom_site_symmetry_multiplicity
 _atom_site_fract_x
 _atom_site_fract_y
 _atom_site_fract_z
 _atom_site_occupancy
  Mn  Mn0  1  0.99999500  0.99999800  0.00000300  1
  Mn  Mn1  1  0.49999100  0.49998800  0.49999600  1
  V  V0  1  0.00000000  0.50000100  0.00000000  1
  V  V1  1  0.00000100  0.00000100  0.50000000  1
  H  H0  1  0.47593500  0.19320700  0.99088600  1
  H  H1  1  0.79185000  0.30679200  0.50911700  1
  H  H2  1  0.52406100  0.00911800  0.80679200  1
  H  H3  1  0.20815800  0.49088700  0.69320600  1
  H  H4  1  0.52406600  0.80679500  0.00911400  1
  H  H5  1  0.20815100  0.69320900  0.49088300  1
  H  H6  1  0.47594000  0.99088300  0.19320800  1
  H  H7  1  0.79184300  0.50911400  0.30679400  1
  O  O0  1  0.37353100  0.07057200  0.07055600  1
  O  O1  1  0.73240800  0.42944300  0.42942700  1
  O  O2  1  0.62647000  0.92942900  0.92944400  1
  O  O3  1  0.26759300  0.57055800  0.57057200  1
  F  F0  1  0.92854200  0.24988700  0.25011200  1
  F  F1  1  0.07146000  0.75011400  0.74988800  1
  F  F2  1  0.07738100  0.91193600  0.33718500  1
  F  F3  1  0.32811700  0.58806800  0.16265200  1
  F  F4  1  0.92262500  0.66266600  0.08806200  1
  F  F5  1  0.67172600  0.83720100  0.41192800  1
  F  F6  1  0.92262100  0.08806500  0.66281600  1
  F  F7  1  0.67188400  0.41193300  0.83734800  1
  F  F8  1  0.07737600  0.33733500  0.91193800  1
  F  F9  1  0.32827500  0.16280100  0.58807200  1
loop_
_geom_bond_atom_site_label_1
_geom_bond_atom_site_label_2
_geom_bond_distance
_geom_bond_site_symmetry_2
Mn0 O2 2.158515 1_554
Mn0 O0 2.158584 1_665
Mn1 O1 2.158562 1_555
Mn1 O3 2.158608 1_555
H0 O0 0.982518 1_556
H1 O1 0.982446 1_555
H2 O2 0.982468 1_545
H3 O3 0.982496 1_555
H4 O2 0.982515 1_554
H5 O3 0.982446 1_555
H6 O0 0.982468 1_565
H7 O1 0.982490 1_555
F0 V1 2.001481 1_655
F0 V0 2.003383 1_655
F1 V1 2.001485 1_565
F1 V0 2.003383 1_556
F2 V1 1.960631 1_565
F2 Mn0 2.180841 1_455
F3 V0 1.959536 1_555
F3 Mn1 2.181847 1_555
F4 V0 1.959484 1_655
F4 Mn0 2.181802 1_555
F5 V1 1.960679 1_665
F5 Mn1 2.181028 1_555
F6 V1 1.960632 1_655
F6 Mn0 2.180882 1_546
F7 V0 1.959532 1_656
F7 Mn1 2.181916 1_555
F8 V0 1.959496 1_556
F8 Mn0 2.181820 1_446
F9 V1 1.960675 1_555
F9 Mn1 2.180852 1_555
