# generated using pymatgen
data_K8NbAs5Pb
_symmetry_space_group_name_H-M   'P 1'
_cell_length_a   16.73683998
_cell_length_b   16.73683998
_cell_length_c   13.62018214
_cell_angle_alpha   85.13573790
_cell_angle_beta   85.13573790
_cell_angle_gamma   32.90499451
_symmetry_Int_Tables_number   1
_chemical_formula_structural   K8NbAs5Pb
_chemical_formula_sum   'K32 Nb4 As20 Pb4'
_cell_volume   2064.54098896
_cell_formula_units_Z   4
loop_
 _symmetry_equiv_pos_site_id
 _symmetry_equiv_pos_as_xyz
  1  'x, y, z'
loop_
 _atom_site_type_symbol
 _atom_site_label
 _atom_site_symmetry_multiplicity
 _atom_site_fract_x
 _atom_site_fract_y
 _atom_site_fract_z
 _atom_site_occupancy
  K  K0  1  0.63813200  0.71486900  0.28252100  1
  K  K1  1  0.98601200  0.93357900  0.61862900  1
  K  K2  1  0.39284700  0.73433900  0.28964400  1
  K  K3  1  0.19151900  0.27639100  0.94528000  1
  K  K4  1  0.59902100  0.36171300  0.39276700  1
  K  K5  1  0.80848100  0.72360900  0.05472000  1
  K  K6  1  0.36186800  0.28513100  0.71747900  1
  K  K7  1  0.82091300  0.47808700  0.04151500  1
  K  K8  1  0.28513100  0.36186800  0.21747900  1
  K  K9  1  0.15582800  0.07343400  0.10134900  1
  K  K10  1  0.47808700  0.82091300  0.54151500  1
  K  K11  1  0.06642100  0.01398800  0.88137100  1
  K  K12  1  0.84417200  0.92656600  0.89865100  1
  K  K13  1  0.52191300  0.17908700  0.45848500  1
  K  K14  1  0.17908700  0.52191300  0.95848500  1
  K  K15  1  0.06874400  0.37913200  0.66889300  1
  K  K16  1  0.92656600  0.84417200  0.39865100  1
  K  K17  1  0.36171300  0.59902100  0.89276700  1
  K  K18  1  0.63828700  0.40097900  0.10723300  1
  K  K19  1  0.07343400  0.15582800  0.60134900  1
  K  K20  1  0.37913200  0.06874400  0.16889300  1
  K  K21  1  0.60715300  0.26566100  0.71035600  1
  K  K22  1  0.62086800  0.93125600  0.83110700  1
  K  K23  1  0.40097900  0.63828700  0.60723300  1
  K  K24  1  0.72360900  0.80848100  0.55472000  1
  K  K25  1  0.27639100  0.19151900  0.44528000  1
  K  K26  1  0.93357900  0.98601200  0.11862900  1
  K  K27  1  0.26566100  0.60715300  0.21035600  1
  K  K28  1  0.93125600  0.62086800  0.33110700  1
  K  K29  1  0.71486900  0.63813200  0.78252100  1
  K  K30  1  0.01398800  0.06642100  0.38137100  1
  K  K31  1  0.73433900  0.39284700  0.78964400  1
  Nb  Nb0  1  0.68254800  0.00371100  0.18217500  1
  Nb  Nb1  1  0.00371100  0.68254800  0.68217500  1
  Nb  Nb2  1  0.31745200  0.99628900  0.81782500  1
  Nb  Nb3  1  0.99628900  0.31745200  0.31782500  1
  As  As0  1  0.23703500  0.04606700  0.35037900  1
  As  As1  1  0.40153900  0.02871500  0.68568300  1
  As  As2  1  0.52947300  0.11781400  0.02802100  1
  As  As3  1  0.88218600  0.47052700  0.47197900  1
  As  As4  1  0.19867900  0.61438400  0.73769100  1
  As  As5  1  0.97128500  0.59846100  0.81431700  1
  As  As6  1  0.72920400  0.21392100  0.92184300  1
  As  As7  1  0.78607900  0.27079600  0.57815700  1
  As  As8  1  0.21392100  0.72920400  0.42184300  1
  As  As9  1  0.04606700  0.23703500  0.85037900  1
  As  As10  1  0.61438400  0.19867900  0.23769100  1
  As  As11  1  0.59846100  0.97128500  0.31431700  1
  As  As12  1  0.02871500  0.40153900  0.18568300  1
  As  As13  1  0.95393300  0.76296500  0.14962100  1
  As  As14  1  0.27079600  0.78607900  0.07815700  1
  As  As15  1  0.47052700  0.88218600  0.97197900  1
  As  As16  1  0.11781400  0.52947300  0.52802100  1
  As  As17  1  0.38561600  0.80132100  0.76230900  1
  As  As18  1  0.76296500  0.95393300  0.64962100  1
  As  As19  1  0.80132100  0.38561600  0.26230900  1
  Pb  Pb0  1  0.47527300  0.70551100  0.96433600  1
  Pb  Pb1  1  0.52472700  0.29448900  0.03566400  1
  Pb  Pb2  1  0.70551100  0.47527300  0.46433600  1
  Pb  Pb3  1  0.29448900  0.52472700  0.53566400  1
loop_
_geom_bond_atom_site_label_1
_geom_bond_atom_site_label_2
_geom_bond_distance
_geom_bond_site_symmetry_2
K0 K20 3.568969 1_565
K0 Nb3 3.660941 1_555
K0 K10 3.774275 1_555
K0 K28 3.794108 1_555
K0 K2 3.828910 1_555
K0 Pb2 3.831560 1_555
K0 K7 3.998123 1_555
K0 K5 4.110961 1_555
K1 Pb3 3.969472 1_655
K2 Pb2 3.756082 1_555
K3 K6 4.110961 1_555
K4 Pb3 3.616373 1_555
K4 Pb2 3.746492 1_555
K6 Nb1 3.660941 1_555
K6 Pb3 3.831560 1_555
K7 Pb0 3.526684 1_554
K8 Nb0 3.660941 1_555
K8 Pb1 3.831560 1_555
K9 Pb0 3.867959 1_544
K10 Pb2 3.526684 1_555
K10 K29 3.998123 1_555
K11 Pb0 3.969472 1_545
K12 Pb1 3.867959 1_566
K13 Pb3 3.526684 1_555
K13 K6 3.774275 1_555
K13 K8 3.998123 1_555
K14 Pb1 3.526684 1_556
K14 K8 3.774275 1_556
K14 K6 3.998123 1_555
K15 K29 3.568969 1_455
K15 K6 3.794108 1_555
K16 Pb3 3.867959 1_655
K17 Pb1 3.616373 1_556
K17 Pb0 3.746492 1_555
K18 Pb0 3.616373 1_554
K18 Pb1 3.746492 1_555
K19 Pb2 3.867959 1_455
K20 K8 3.794108 1_555
K21 Pb3 3.756082 1_555
K21 K6 3.828910 1_555
K22 K6 3.568969 1_565
K22 K29 3.794108 1_555
K23 Pb2 3.616373 1_555
K23 Pb3 3.746492 1_555
K24 K29 4.110961 1_555
K25 K8 4.110961 1_555
K26 Pb1 3.969472 1_565
K27 Pb1 3.756082 1_555
K27 K8 3.828910 1_555
K28 K8 3.568969 1_655
K29 Nb2 3.660941 1_555
K29 K7 3.774275 1_556
K29 K31 3.828910 1_555
K29 Pb0 3.831560 1_555
K30 Pb2 3.969472 1_455
K31 Pb0 3.756082 1_555
Nb0 Pb1 3.507911 1_555
Nb1 Pb3 3.507911 1_555
Nb2 Pb0 3.507911 1_555
Nb3 Pb2 3.507911 1_555
As0 Nb3 2.508624 1_455
As0 K25 3.376617 1_555
As0 K10 3.441443 1_545
As0 K30 3.442676 1_555
As0 K2 3.496509 1_545
As0 K20 3.502840 1_555
As0 K9 3.610350 1_555
As0 K19 3.686198 1_555
As0 K0 3.738873 1_545
As1 Nb2 2.490327 1_545
As1 K15 3.257178 1_555
As1 K22 3.269556 1_545
As1 K10 3.292834 1_545
As1 K24 3.456343 1_545
As1 K25 3.549609 1_555
As1 K29 3.757878 1_545
As1 K6 3.811551 1_555
As2 Nb0 2.576024 1_555
As2 Pb1 2.901256 1_555
As2 K22 3.462202 1_544
As2 K8 3.466459 1_555
As2 K12 3.487958 1_544
As2 K20 3.615429 1_555
As2 K5 3.689994 1_545
As2 K14 3.779777 1_554
As3 Nb3 2.576024 1_555
As3 Pb2 2.901256 1_555
As3 K15 3.462202 1_655
As3 K0 3.466459 1_555
As3 K19 3.487958 1_655
As3 K28 3.615429 1_555
As3 K25 3.689994 1_655
As3 K10 3.779777 1_555
As4 Nb1 2.557834 1_555
As4 Pb3 2.882040 1_555
As4 K1 3.379265 1_455
As4 K14 3.382602 1_555
As4 K17 3.417632 1_555
As4 K6 3.572079 1_555
As4 K21 3.725350 1_555
As5 Nb1 2.490327 1_655
As5 K22 3.257178 1_555
As5 K15 3.269556 1_655
As5 K14 3.292834 1_655
As5 K3 3.456343 1_655
As5 K5 3.549609 1_556
As5 K6 3.757878 1_655
As5 K29 3.811551 1_555
As6 Pb1 2.763982 1_556
As6 K21 3.290060 1_555
As6 K18 3.344046 1_556
As6 K26 3.368434 1_546
As6 K11 3.380557 1_655
As6 K12 3.398247 1_545
As6 K31 3.421825 1_555
As6 K17 3.597717 1_555
As7 Pb2 2.763982 1_555
As7 K31 3.290060 1_555
As7 K4 3.344046 1_555
As7 K30 3.368434 1_655
As7 K1 3.380557 1_545
As7 K19 3.398247 1_655
As7 K21 3.421825 1_555
As7 K23 3.597717 1_555
As8 Pb3 2.763982 1_555
As8 K27 3.290060 1_555
As8 K23 3.344046 1_555
As8 K1 3.368434 1_455
As8 K30 3.380557 1_565
As8 K16 3.398247 1_455
As8 K2 3.421825 1_555
As8 K4 3.597717 1_555
As9 Nb2 2.508624 1_545
As9 K3 3.376617 1_555
As9 K7 3.441443 1_456
As9 K11 3.442676 1_555
As9 K31 3.496509 1_455
As9 K15 3.502840 1_555
As9 K19 3.610350 1_555
As9 K9 3.686198 1_556
As9 K29 3.738873 1_455
As10 Nb0 2.557834 1_555
As10 Pb1 2.882040 1_555
As10 K26 3.379265 1_545
As10 K13 3.382602 1_555
As10 K4 3.417632 1_555
As10 K8 3.572079 1_555
As10 K27 3.725350 1_555
As11 Nb0 2.490327 1_565
As11 K28 3.257178 1_555
As11 K20 3.269556 1_565
As11 K13 3.292834 1_565
As11 K25 3.456343 1_565
As11 K24 3.549609 1_555
As11 K8 3.757878 1_565
As11 K0 3.811551 1_555
As12 Nb3 2.490327 1_455
As12 K20 3.257178 1_555
As12 K28 3.269556 1_455
As12 K7 3.292834 1_455
As12 K5 3.456343 1_455
As12 K3 3.549609 1_554
As12 K0 3.757878 1_455
As12 K8 3.811551 1_555
As13 Nb0 2.508624 1_565
As13 K5 3.376617 1_555
As13 K14 3.441443 1_654
As13 K26 3.442676 1_555
As13 K27 3.496509 1_655
As13 K28 3.502840 1_555
As13 K16 3.610350 1_555
As13 K12 3.686198 1_554
As13 K8 3.738873 1_655
As14 Pb0 2.763982 1_554
As14 K2 3.290060 1_555
As14 K17 3.344046 1_554
As14 K11 3.368434 1_564
As14 K26 3.380557 1_455
As14 K9 3.398247 1_565
As14 K27 3.421825 1_555
As14 K18 3.597717 1_555
As15 Nb2 2.576024 1_555
As15 Pb0 2.901256 1_555
As15 K20 3.462202 1_566
As15 K29 3.466459 1_555
As15 K9 3.487958 1_566
As15 K22 3.615429 1_555
As15 K3 3.689994 1_565
As15 K7 3.779777 1_556
As16 Nb1 2.576024 1_555
As16 Pb3 2.901256 1_555
As16 K28 3.462202 1_455
As16 K6 3.466459 1_555
As16 K16 3.487958 1_455
As16 K15 3.615429 1_555
As16 K24 3.689994 1_455
As16 K13 3.779777 1_555
As17 Nb2 2.557834 1_555
As17 Pb0 2.882040 1_555
As17 K11 3.379265 1_565
As17 K10 3.382602 1_555
As17 K23 3.417632 1_555
As17 K29 3.572079 1_555
As17 K31 3.725350 1_555
As18 Nb1 2.508624 1_655
As18 K24 3.376617 1_555
As18 K13 3.441443 1_565
As18 K1 3.442676 1_555
As18 K21 3.496509 1_565
As18 K22 3.502840 1_555
As18 K12 3.610350 1_555
As18 K16 3.686198 1_555
As18 K6 3.738873 1_565
As19 Nb3 2.557834 1_555
As19 Pb2 2.882040 1_555
As19 K30 3.379265 1_655
As19 K7 3.382602 1_555
As19 K18 3.417632 1_555
As19 K0 3.572079 1_555
As19 K2 3.725350 1_555
