# generated using pymatgen
data_RbCr2FeO8
_symmetry_space_group_name_H-M   'P 1'
_cell_length_a   5.54434800
_cell_length_b   8.97785100
_cell_length_c   14.97124400
_cell_angle_alpha   90.00000000
_cell_angle_beta   90.00000000
_cell_angle_gamma   90.00000000
_symmetry_Int_Tables_number   1
_chemical_formula_structural   RbCr2FeO8
_chemical_formula_sum   'Rb4 Cr8 Fe4 O32'
_cell_volume   745.21358539
_cell_formula_units_Z   4
loop_
 _symmetry_equiv_pos_site_id
 _symmetry_equiv_pos_as_xyz
  1  'x, y, z'
loop_
 _atom_site_type_symbol
 _atom_site_label
 _atom_site_symmetry_multiplicity
 _atom_site_fract_x
 _atom_site_fract_y
 _atom_site_fract_z
 _atom_site_occupancy
  Rb  Rb0  1  0.25000000  0.94938600  0.37954900  1
  Rb  Rb1  1  0.75000000  0.05061400  0.62045100  1
  Rb  Rb2  1  0.75000000  0.44938600  0.12045100  1
  Rb  Rb3  1  0.25000000  0.55061400  0.87954900  1
  Cr  Cr0  1  0.75000000  0.24426000  0.33612900  1
  Cr  Cr1  1  0.25000000  0.75574000  0.66387100  1
  Cr  Cr2  1  0.25000000  0.74426000  0.16387100  1
  Cr  Cr3  1  0.75000000  0.25574000  0.83612900  1
  Cr  Cr4  1  0.75000000  0.68160200  0.43668400  1
  Cr  Cr5  1  0.25000000  0.31839800  0.56331600  1
  Cr  Cr6  1  0.25000000  0.18160200  0.06331600  1
  Cr  Cr7  1  0.75000000  0.81839800  0.93668400  1
  Fe  Fe0  1  0.25000000  0.49313200  0.34356600  1
  Fe  Fe1  1  0.75000000  0.50686800  0.65643400  1
  Fe  Fe2  1  0.75000000  0.99313200  0.15643400  1
  Fe  Fe3  1  0.25000000  0.00686800  0.84356600  1
  O  O0  1  0.75000000  0.85879600  0.45974400  1
  O  O1  1  0.25000000  0.14120400  0.54025600  1
  O  O2  1  0.25000000  0.35879600  0.04025600  1
  O  O3  1  0.75000000  0.64120400  0.95974400  1
  O  O4  1  0.25000000  0.71243300  0.05798900  1
  O  O5  1  0.75000000  0.28756700  0.94201100  1
  O  O6  1  0.75000000  0.21243300  0.44201100  1
  O  O7  1  0.25000000  0.78756700  0.55798900  1
  O  O8  1  0.25000000  0.41893400  0.47008300  1
  O  O9  1  0.75000000  0.58106600  0.52991700  1
  O  O10  1  0.75000000  0.91893400  0.02991700  1
  O  O11  1  0.25000000  0.08106600  0.97008300  1
  O  O12  1  0.25000000  0.57794000  0.21750500  1
  O  O13  1  0.75000000  0.42206000  0.78249500  1
  O  O14  1  0.75000000  0.07794000  0.28249500  1
  O  O15  1  0.25000000  0.92206000  0.71750500  1
  O  O16  1  0.99637700  0.34291400  0.30760400  1
  O  O17  1  0.49637700  0.65708600  0.69239600  1
  O  O18  1  0.00362300  0.84291400  0.19239600  1
  O  O19  1  0.50362300  0.15708600  0.80760400  1
  O  O20  1  0.00362300  0.65708600  0.69239600  1
  O  O21  1  0.50362300  0.34291400  0.30760400  1
  O  O22  1  0.99637700  0.15708600  0.80760400  1
  O  O23  1  0.49637700  0.84291400  0.19239600  1
  O  O24  1  0.00234900  0.14386800  0.12464400  1
  O  O25  1  0.50234900  0.85613200  0.87535600  1
  O  O26  1  0.99765100  0.64386800  0.37535600  1
  O  O27  1  0.49765100  0.35613200  0.62464400  1
  O  O28  1  0.99765100  0.85613200  0.87535600  1
  O  O29  1  0.49765100  0.14386800  0.12464400  1
  O  O30  1  0.00234900  0.35613200  0.62464400  1
  O  O31  1  0.50234900  0.64386800  0.37535600  1
loop_
_geom_bond_atom_site_label_1
_geom_bond_atom_site_label_2
_geom_bond_distance
_geom_bond_site_symmetry_2
Cr0 O6 1.610732 1_555
Cr0 O16 1.683092 1_555
Cr0 O21 1.683092 1_555
Cr0 O14 1.695403 1_555
Cr1 O7 1.610732 1_555
Cr1 O17 1.683092 1_555
Cr1 O20 1.683092 1_555
Cr1 O15 1.695403 1_555
Cr2 O4 1.610732 1_555
Cr2 O23 1.683092 1_555
Cr2 O18 1.683092 1_555
Cr2 O12 1.695403 1_555
Cr3 O5 1.610732 1_555
Cr3 O22 1.683092 1_555
Cr3 O19 1.683092 1_555
Cr3 O13 1.695403 1_555
Cr4 O0 1.627852 1_555
Cr4 O9 1.662221 1_555
Cr4 O26 1.686143 1_555
Cr4 O31 1.686143 1_555
Cr5 O1 1.627852 1_555
Cr5 O8 1.662221 1_555
Cr5 O27 1.686143 1_555
Cr5 O30 1.686143 1_555
Cr6 O2 1.627852 1_555
Cr6 O11 1.662221 1_554
Cr6 O29 1.686143 1_555
Cr6 O24 1.686143 1_555
Cr7 O3 1.627852 1_555
Cr7 O10 1.662221 1_556
Cr7 O28 1.686143 1_555
Cr7 O25 1.686143 1_555
Fe0 O31 2.003848 1_555
Fe0 O26 2.003848 1_455
Fe0 O8 2.007839 1_555
Fe0 O21 2.021389 1_555
Fe0 O16 2.021389 1_455
Fe0 O12 2.035088 1_555
Fe1 O30 2.003848 1_655
Fe1 O27 2.003848 1_555
Fe1 O9 2.007839 1_555
Fe1 O20 2.021389 1_655
Fe1 O17 2.021389 1_555
Fe1 O13 2.035088 1_555
Fe2 O24 2.003848 1_665
Fe2 O29 2.003848 1_565
Fe2 O10 2.007839 1_555
Fe2 O18 2.021389 1_655
Fe2 O23 2.021389 1_555
Fe2 O14 2.035088 1_565
Fe3 O25 2.003848 1_545
Fe3 O28 2.003848 1_445
Fe3 O11 2.007839 1_555
Fe3 O19 2.021389 1_555
Fe3 O22 2.021389 1_455
Fe3 O15 2.035088 1_545
O0 Rb1 2.958789 1_565
O0 Rb0 3.128562 1_655
O0 Rb0 3.128562 1_555
O1 Rb0 2.958789 1_545
O1 Rb1 3.128562 1_455
O1 Rb1 3.128562 1_555
O2 Rb3 2.958789 1_554
O2 Rb2 3.128562 1_555
O2 Rb2 3.128562 1_455
O3 Rb2 2.958789 1_556
O3 Rb3 3.128562 1_555
O3 Rb3 3.128562 1_655
O4 Rb3 3.040943 1_554
O5 Rb2 3.040943 1_556
O6 Rb1 3.040943 1_555
O7 Rb0 3.040943 1_555
O12 Rb2 3.335903 1_555
O12 Rb2 3.335903 1_455
O13 Rb3 3.335903 1_555
O13 Rb3 3.335903 1_655
O14 Rb0 3.335903 1_545
O14 Rb0 3.335903 1_645
O15 Rb1 3.335903 1_565
O15 Rb1 3.335903 1_465
O16 Rb2 3.260429 1_555
O17 Rb3 3.260429 1_555
O18 Rb0 3.260429 1_555
O19 Rb1 3.260429 1_555
O20 Rb3 3.260429 1_555
O21 Rb2 3.260429 1_555
O22 Rb1 3.260429 1_555
O23 Rb0 3.260429 1_555
O24 Rb2 3.079760 1_455
O25 Rb3 3.079760 1_555
O26 Rb0 3.079760 1_655
O27 Rb1 3.079760 1_555
O28 Rb3 3.079760 1_655
O29 Rb2 3.079760 1_555
O30 Rb1 3.079760 1_455
O31 Rb0 3.079760 1_555
