# generated using pymatgen
data_CdH12C4Br3N
_symmetry_space_group_name_H-M   'P 1'
_cell_length_a   9.55045419
_cell_length_b   9.55045419
_cell_length_c   21.56541400
_cell_angle_alpha   90.00000000
_cell_angle_beta   90.00000000
_cell_angle_gamma   120.00000131
_symmetry_Int_Tables_number   1
_chemical_formula_structural   CdH12C4Br3N
_chemical_formula_sum   'Cd6 H72 C24 Br18 N6'
_cell_volume   1703.47779676
_cell_formula_units_Z   6
loop_
 _symmetry_equiv_pos_site_id
 _symmetry_equiv_pos_as_xyz
  1  'x, y, z'
loop_
 _atom_site_type_symbol
 _atom_site_label
 _atom_site_symmetry_multiplicity
 _atom_site_fract_x
 _atom_site_fract_y
 _atom_site_fract_z
 _atom_site_occupancy
  Cd  Cd0  1  0.97795200  0.98213500  0.50011200  1
  Cd  Cd1  1  0.00418300  0.02204800  0.16677800  1
  Cd  Cd2  1  0.99581700  0.97795200  0.66677800  1
  Cd  Cd3  1  0.01786500  0.99581700  0.83344500  1
  Cd  Cd4  1  0.98213500  0.00418300  0.33344500  1
  Cd  Cd5  1  0.02204800  0.01786500  0.00011200  1
  H  H0  1  0.26685100  0.78368400  0.69262800  1
  H  H1  1  0.32923200  0.66407600  0.31857100  1
  H  H2  1  0.66515600  0.32923200  0.48523800  1
  H  H3  1  0.48469700  0.86881600  0.80107500  1
  H  H4  1  0.36958100  0.51996800  0.35574500  1
  H  H5  1  0.69277800  0.33289500  0.68030400  1
  H  H6  1  0.73314900  0.21631600  0.19262800  1
  H  H7  1  0.54679500  0.08843000  0.91803600  1
  H  H8  1  0.73066500  0.21021900  0.30467600  1
  H  H9  1  0.47048300  0.92251700  0.12386700  1
  H  H10  1  0.45836500  0.54679500  0.08470200  1
  H  H11  1  0.66407600  0.33484400  0.15190500  1
  H  H12  1  0.33592400  0.66515600  0.65190500  1
  H  H13  1  0.42706400  0.26071100  0.54614100  1
  H  H14  1  0.87356800  0.59140400  0.92003200  1
  H  H15  1  0.33289500  0.64011700  0.51363700  1
  H  H16  1  0.91157000  0.45836500  0.25136900  1
  H  H17  1  0.84961300  0.36958100  0.52241200  1
  H  H18  1  0.30722200  0.66710500  0.18030400  1
  H  H19  1  0.33484400  0.67076800  0.98523800  1
  H  H20  1  0.28216400  0.87356800  0.08669800  1
  H  H21  1  0.78978100  0.52044600  0.63800900  1
  H  H22  1  0.64011700  0.30722200  0.34697000  1
  H  H23  1  0.53656200  0.45840600  0.20776900  1
  H  H24  1  0.54163500  0.45320500  0.58470200  1
  H  H25  1  0.66710500  0.35988300  0.01363700  1
  H  H26  1  0.45320500  0.91157000  0.41803600  1
  H  H27  1  0.45840600  0.92184500  0.04110200  1
  H  H28  1  0.43928500  0.26849000  0.62901700  1
  H  H29  1  0.16635200  0.42706400  0.71280800  1
  H  H30  1  0.86881600  0.38411900  0.63440900  1
  H  H31  1  0.48316700  0.26685100  0.85929400  1
  H  H32  1  0.35988300  0.69277800  0.84697000  1
  H  H33  1  0.52951700  0.07748300  0.62386700  1
  H  H34  1  0.21631600  0.48316700  0.02596100  1
  H  H35  1  0.21021900  0.47955400  0.13800900  1
  H  H36  1  0.56071500  0.73151000  0.12901700  1
  H  H37  1  0.40859600  0.28216400  0.25336500  1
  H  H38  1  0.47955400  0.26933500  0.97134300  1
  H  H39  1  0.45203400  0.52951700  0.79053300  1
  H  H40  1  0.38411900  0.51530300  0.46774200  1
  H  H41  1  0.57293600  0.73928900  0.04614100  1
  H  H42  1  0.54159400  0.07815500  0.54110200  1
  H  H43  1  0.73151000  0.17079500  0.96235000  1
  H  H44  1  0.73928900  0.16635200  0.87947400  1
  H  H45  1  0.26933500  0.78978100  0.80467600  1
  H  H46  1  0.51683300  0.73314900  0.35929400  1
  H  H47  1  0.51530300  0.13118400  0.30107500  1
  H  H48  1  0.26071100  0.83364800  0.37947400  1
  H  H49  1  0.67076800  0.33592400  0.81857100  1
  H  H50  1  0.17079500  0.43928500  0.79568300  1
  H  H51  1  0.51996800  0.15038700  0.18907800  1
  H  H52  1  0.15038700  0.63041900  0.02241200  1
  H  H53  1  0.59140400  0.71783600  0.75336500  1
  H  H54  1  0.52044600  0.73066500  0.47134300  1
  H  H55  1  0.78368400  0.51683300  0.52596100  1
  H  H56  1  0.07748300  0.54796600  0.45720000  1
  H  H57  1  0.48003200  0.84961300  0.68907800  1
  H  H58  1  0.63041900  0.48003200  0.85574500  1
  H  H59  1  0.46343800  0.54159400  0.70776900  1
  H  H60  1  0.82920500  0.56071500  0.29568300  1
  H  H61  1  0.08843000  0.54163500  0.75136900  1
  H  H62  1  0.92251700  0.45203400  0.95720000  1
  H  H63  1  0.07815500  0.53656200  0.37443600  1
  H  H64  1  0.92184500  0.46343800  0.87443600  1
  H  H65  1  0.71783600  0.12643200  0.58669800  1
  H  H66  1  0.12643200  0.40859600  0.42003200  1
  H  H67  1  0.26849000  0.82920500  0.46235000  1
  H  H68  1  0.54796600  0.47048300  0.29053300  1
  H  H69  1  0.13118400  0.61588100  0.13440900  1
  H  H70  1  0.83364800  0.57293600  0.21280800  1
  H  H71  1  0.61588100  0.48469700  0.96774200  1
  C  C0  1  0.25471200  0.61211800  0.02483200  1
  C  C1  1  0.24066300  0.60638600  0.13813500  1
  C  C2  1  0.67567900  0.17989200  0.91925300  1
  C  C3  1  0.32432100  0.82010800  0.41925300  1
  C  C4  1  0.86499800  0.47282100  0.91710300  1
  C  C5  1  0.36572400  0.75933700  0.80480200  1
  C  C6  1  0.82010800  0.49578700  0.25258600  1
  C  C7  1  0.13500200  0.52717900  0.41710200  1
  C  C8  1  0.64259400  0.25471200  0.19149900  1
  C  C9  1  0.60638600  0.36572400  0.97146900  1
  C  C10  1  0.17989200  0.50421300  0.75258600  1
  C  C11  1  0.50421300  0.32432100  0.58592000  1
  C  C12  1  0.60782300  0.13500200  0.58376900  1
  C  C13  1  0.39361400  0.63427600  0.47146900  1
  C  C14  1  0.35740600  0.74528800  0.69149900  1
  C  C15  1  0.74528800  0.38788200  0.52483200  1
  C  C16  1  0.52717900  0.39217700  0.25043600  1
  C  C17  1  0.47282100  0.60782300  0.75043600  1
  C  C18  1  0.75933700  0.39361400  0.63813500  1
  C  C19  1  0.39217700  0.86499800  0.08376900  1
  C  C20  1  0.63427600  0.24066300  0.30480200  1
  C  C21  1  0.61211800  0.35740600  0.85816600  1
  C  C22  1  0.38788200  0.64259400  0.35816600  1
  C  C23  1  0.49578700  0.67567900  0.08592000  1
  Br  Br0  1  0.75737700  0.83650500  0.91886600  1
  Br  Br1  1  0.08212100  0.27545100  0.25528400  1
  Br  Br2  1  0.86012300  0.13027600  0.07656300  1
  Br  Br3  1  0.72454900  0.80666900  0.58861700  1
  Br  Br4  1  0.72984800  0.86012300  0.24323000  1
  Br  Br5  1  0.91787900  0.72454900  0.75528400  1
  Br  Br6  1  0.83650500  0.07912800  0.75219900  1
  Br  Br7  1  0.07912800  0.24262300  0.58553200  1
  Br  Br8  1  0.24262300  0.16349500  0.41886600  1
  Br  Br9  1  0.86972400  0.72984800  0.40989600  1
  Br  Br10  1  0.16349500  0.92087200  0.25219900  1
  Br  Br11  1  0.27015200  0.13987700  0.74323000  1
  Br  Br12  1  0.92087200  0.75737700  0.08553200  1
  Br  Br13  1  0.13027600  0.27015200  0.90989600  1
  Br  Br14  1  0.13987700  0.86972400  0.57656300  1
  Br  Br15  1  0.27545100  0.19333100  0.08861700  1
  Br  Br16  1  0.19333100  0.91787900  0.92195000  1
  Br  Br17  1  0.80666900  0.08212100  0.42195000  1
  N  N0  1  0.65619800  0.34627200  0.24982600  1
  N  N1  1  0.34627200  0.69007400  0.08315900  1
  N  N2  1  0.65372800  0.30992600  0.58315900  1
  N  N3  1  0.69007400  0.34380200  0.91649200  1
  N  N4  1  0.30992600  0.65619800  0.41649200  1
  N  N5  1  0.34380200  0.65372800  0.74982600  1
loop_
_geom_bond_atom_site_label_1
_geom_bond_atom_site_label_2
_geom_bond_distance
_geom_bond_site_symmetry_2
C0 H19 1.095372 1_554
C0 H52 1.095506 1_555
C0 H34 1.095513 1_555
C0 N1 1.500030 1_555
C1 H18 1.094863 1_555
C1 H35 1.095267 1_555
C1 H69 1.096686 1_555
C1 N1 1.501857 1_555
C2 H44 1.095559 1_555
C2 H43 1.096349 1_555
C2 H7 1.097095 1_555
C2 N3 1.502584 1_555
C3 H48 1.095559 1_555
C3 H67 1.096349 1_555
C3 H26 1.097095 1_555
C3 N4 1.502584 1_555
C4 H62 1.094512 1_555
C4 H64 1.094569 1_555
C4 H14 1.095719 1_555
C4 N3 1.500294 1_555
C5 H32 1.094843 1_555
C5 H45 1.095276 1_555
C5 H3 1.096682 1_555
C5 N5 1.501855 1_555
C6 H70 1.095536 1_555
C6 H60 1.096349 1_555
C6 H16 1.097095 1_555
C6 N0 1.502583 1_555
C7 H56 1.094529 1_555
C7 H63 1.094550 1_555
C7 H66 1.095720 1_555
C7 N4 1.500294 1_555
C8 H11 1.095372 1_555
C8 H51 1.095507 1_555
C8 H6 1.095513 1_555
C8 N0 1.500030 1_555
C9 H25 1.094848 1_556
C9 H38 1.095270 1_555
C9 H71 1.096678 1_555
C9 N3 1.501878 1_555
C10 H29 1.095536 1_555
C10 H50 1.096349 1_555
C10 H61 1.097095 1_555
C10 N5 1.502583 1_555
C11 H13 1.095555 1_555
C11 H28 1.096349 1_555
C11 H24 1.097096 1_555
C11 N2 1.502584 1_555
C12 H33 1.094529 1_555
C12 H42 1.094565 1_555
C12 H65 1.095719 1_555
C12 N2 1.500294 1_555
C13 H15 1.094848 1_555
C13 H54 1.095270 1_555
C13 H40 1.096678 1_555
C13 N4 1.501878 1_555
C14 H12 1.095372 1_555
C14 H57 1.095507 1_555
C14 H0 1.095513 1_555
C14 N5 1.500030 1_555
C15 H2 1.095372 1_555
C15 H17 1.095506 1_555
C15 H55 1.095513 1_555
C15 N2 1.500030 1_555
C16 H68 1.094512 1_555
C16 H23 1.094563 1_555
C16 H37 1.095719 1_555
C16 N0 1.500294 1_555
C17 H39 1.094512 1_555
C17 H59 1.094563 1_555
C17 H53 1.095719 1_555
C17 N5 1.500294 1_555
C18 H5 1.094863 1_555
C18 H21 1.095267 1_555
C18 H30 1.096686 1_555
C18 N2 1.501857 1_555
C19 H9 1.094529 1_555
C19 H27 1.094565 1_555
C19 H20 1.095719 1_555
C19 N1 1.500294 1_555
C20 H22 1.094843 1_555
C20 H8 1.095276 1_555
C20 H47 1.096682 1_555
C20 N0 1.501855 1_555
C21 H49 1.095389 1_555
C21 H58 1.095507 1_555
C21 H31 1.095512 1_555
C21 N3 1.500012 1_555
C22 H1 1.095389 1_555
C22 H4 1.095507 1_555
C22 H46 1.095512 1_555
C22 N4 1.500012 1_555
C23 H41 1.095555 1_555
C23 H36 1.096349 1_555
C23 H10 1.097096 1_555
C23 N1 1.502584 1_555
Br0 Cd5 2.842735 1_666
Br0 Cd3 2.848215 1_655
Br1 Cd4 2.826834 1_455
Br1 Cd1 2.872737 1_555
Br2 Cd5 2.814700 1_655
Br2 Cd1 2.858056 1_655
Br3 Cd2 2.826835 1_555
Br3 Cd0 2.872724 1_555
Br4 Cd1 2.814707 1_665
Br4 Cd4 2.858050 1_565
Br5 Cd3 2.826834 1_655
Br5 Cd2 2.872737 1_555
Br6 Cd3 2.842735 1_645
Br6 Cd2 2.848215 1_545
Br7 Cd2 2.842735 1_445
Br7 Cd0 2.848201 1_445
Br8 Cd0 2.842735 1_445
Br8 Cd4 2.848215 1_455
Br9 Cd4 2.814693 1_565
Br9 Cd0 2.858064 1_555
Br10 Cd4 2.842735 1_465
Br10 Cd1 2.848215 1_565
Br11 Cd2 2.814707 1_445
Br11 Cd3 2.858050 1_545
Br12 Cd1 2.842735 1_665
Br12 Cd5 2.848201 1_665
Br13 Cd3 2.814693 1_545
Br13 Cd5 2.858064 1_556
Br14 Cd0 2.814700 1_455
Br14 Cd2 2.858056 1_455
Br15 Cd1 2.826835 1_555
Br15 Cd5 2.872724 1_555
Br16 Cd5 2.826854 1_566
Br16 Cd3 2.872729 1_555
Br17 Cd0 2.826854 1_545
Br17 Cd4 2.872729 1_555
