# generated using pymatgen
data_ReO2F3
_symmetry_space_group_name_H-M   'P 1'
_cell_length_a   7.46898575
_cell_length_b   7.46898575
_cell_length_c   13.54776242
_cell_angle_alpha   90.00000000
_cell_angle_beta   90.00000000
_cell_angle_gamma   96.41792956
_symmetry_Int_Tables_number   1
_chemical_formula_structural   ReO2F3
_chemical_formula_sum   'Re8 O16 F24'
_cell_volume   751.03562917
_cell_formula_units_Z   8
loop_
 _symmetry_equiv_pos_site_id
 _symmetry_equiv_pos_as_xyz
  1  'x, y, z'
loop_
 _atom_site_type_symbol
 _atom_site_label
 _atom_site_symmetry_multiplicity
 _atom_site_fract_x
 _atom_site_fract_y
 _atom_site_fract_z
 _atom_site_occupancy
  Re  Re0  1  0.23399271  0.76600729  0.50000000  1
  Re  Re1  1  0.73399271  0.26600729  0.00000000  1
  Re  Re2  1  0.67181193  0.67181193  0.67877868  1
  Re  Re3  1  0.76600729  0.23399271  0.50000000  1
  Re  Re4  1  0.82818807  0.82818807  0.17877868  1
  Re  Re5  1  0.26600729  0.73399271  0.00000000  1
  Re  Re6  1  0.17181193  0.17181193  0.82122132  1
  Re  Re7  1  0.32818807  0.32818807  0.32122132  1
  O  O0  1  0.14466410  0.38122559  0.25992667  1
  O  O1  1  0.92965561  0.20812351  0.58318409  1
  O  O2  1  0.85533590  0.61877441  0.74007333  1
  O  O3  1  0.64466410  0.88122559  0.24007333  1
  O  O4  1  0.42965561  0.70812351  0.91681591  1
  O  O5  1  0.61877441  0.85533590  0.74007333  1
  O  O6  1  0.07034439  0.79187649  0.41681591  1
  O  O7  1  0.20812351  0.92965561  0.58318409  1
  O  O8  1  0.70812351  0.42965561  0.91681591  1
  O  O9  1  0.35533590  0.11877441  0.75992667  1
  O  O10  1  0.79187649  0.07034439  0.41681591  1
  O  O11  1  0.88122559  0.64466410  0.24007333  1
  O  O12  1  0.11877441  0.35533590  0.75992667  1
  O  O13  1  0.38122559  0.14466410  0.25992667  1
  O  O14  1  0.29187649  0.57034439  0.08318409  1
  O  O15  1  0.57034439  0.29187649  0.08318409  1
  F  F0  1  0.79121942  0.79121942  0.57250290  1
  F  F1  1  0.68781819  0.45317887  0.58140697  1
  F  F2  1  0.81218181  0.04682113  0.08140697  1
  F  F3  1  0.42567948  0.88140336  0.42852496  1
  F  F4  1  0.99838259  0.99838259  0.23516040  1
  F  F5  1  0.49838259  0.49838259  0.26483960  1
  F  F6  1  0.20878058  0.20878058  0.42749710  1
  F  F7  1  0.38140336  0.92567948  0.07147504  1
  F  F8  1  0.88140336  0.42567948  0.42852496  1
  F  F9  1  0.07432052  0.61859664  0.92852496  1
  F  F10  1  0.29121942  0.29121942  0.92749710  1
  F  F11  1  0.00161741  0.00161741  0.76483960  1
  F  F12  1  0.54682113  0.31218181  0.41859303  1
  F  F13  1  0.50161741  0.50161741  0.73516040  1
  F  F14  1  0.18781819  0.95317887  0.91859303  1
  F  F15  1  0.11859664  0.57432052  0.57147504  1
  F  F16  1  0.92567948  0.38140336  0.07147504  1
  F  F17  1  0.95317887  0.18781819  0.91859303  1
  F  F18  1  0.70878058  0.70878058  0.07250290  1
  F  F19  1  0.45317887  0.68781819  0.58140697  1
  F  F20  1  0.61859664  0.07432052  0.92852496  1
  F  F21  1  0.57432052  0.11859664  0.57147504  1
  F  F22  1  0.31218181  0.54682113  0.41859303  1
  F  F23  1  0.04682113  0.81218181  0.08140697  1
loop_
_geom_bond_atom_site_label_1
_geom_bond_atom_site_label_2
_geom_bond_distance
_geom_bond_site_symmetry_2
O0 Re7 1.687250 1_555
O1 Re3 1.689423 1_555
O2 Re2 1.687250 1_555
O3 Re4 1.687250 1_555
O4 Re5 1.689423 1_556
O5 Re2 1.687250 1_555
O6 Re0 1.689423 1_555
O7 Re0 1.689423 1_555
O8 Re1 1.689423 1_556
O9 Re6 1.687250 1_555
O10 Re3 1.689423 1_555
O11 Re4 1.687250 1_555
O12 Re6 1.687250 1_555
O13 Re7 1.687250 1_555
O14 Re5 1.689423 1_555
O15 Re1 1.689423 1_555
F0 Re2 1.867084 1_555
F1 Re3 2.109792 1_555
F1 Re2 2.112989 1_555
F2 Re1 2.109792 1_555
F2 Re4 2.112989 1_545
F3 Re0 1.858609 1_555
F4 Re4 1.858497 1_555
F5 Re7 1.858497 1_555
F6 Re7 1.867084 1_555
F7 Re5 1.858609 1_555
F8 Re3 1.858609 1_555
F9 Re5 1.858609 1_556
F10 Re6 1.867084 1_555
F11 Re6 1.858497 1_555
F12 Re3 2.109792 1_555
F12 Re7 2.112989 1_555
F13 Re2 1.858497 1_555
F14 Re5 2.109792 1_556
F14 Re6 2.112989 1_565
F15 Re0 1.858609 1_555
F16 Re1 1.858609 1_555
F17 Re1 2.109792 1_556
F17 Re6 2.112989 1_655
F18 Re4 1.867084 1_555
F19 Re0 2.109792 1_555
F19 Re2 2.112989 1_555
F20 Re1 1.858609 1_556
F21 Re3 1.858609 1_555
F22 Re0 2.109792 1_555
F22 Re7 2.112989 1_555
F23 Re5 2.109792 1_555
F23 Re4 2.112989 1_455
