# generated using pymatgen
data_Ba3GaP3
_symmetry_space_group_name_H-M   'P 1'
_cell_length_a   10.36178027
_cell_length_b   10.36178027
_cell_length_c   13.11472199
_cell_angle_alpha   90.00000000
_cell_angle_beta   90.00000000
_cell_angle_gamma   141.92936515
_symmetry_Int_Tables_number   1
_chemical_formula_structural   Ba3GaP3
_chemical_formula_sum   'Ba12 Ga4 P12'
_cell_volume   868.26888739
_cell_formula_units_Z   4
loop_
 _symmetry_equiv_pos_site_id
 _symmetry_equiv_pos_as_xyz
  1  'x, y, z'
loop_
 _atom_site_type_symbol
 _atom_site_label
 _atom_site_symmetry_multiplicity
 _atom_site_fract_x
 _atom_site_fract_y
 _atom_site_fract_z
 _atom_site_occupancy
  Ba  Ba0  1  0.82830133  0.82830133  0.34868864  1
  Ba  Ba1  1  0.32830133  0.32830133  0.15131136  1
  Ba  Ba2  1  0.67169867  0.67169867  0.84868864  1
  Ba  Ba3  1  0.17169867  0.17169867  0.65131136  1
  Ba  Ba4  1  0.48579404  0.13486734  0.87034335  1
  Ba  Ba5  1  0.63486734  0.98579404  0.62965665  1
  Ba  Ba6  1  0.01420596  0.36513266  0.37034335  1
  Ba  Ba7  1  0.86513266  0.51420596  0.12965665  1
  Ba  Ba8  1  0.51420596  0.86513266  0.12965665  1
  Ba  Ba9  1  0.36513266  0.01420596  0.37034335  1
  Ba  Ba10  1  0.98579404  0.63486734  0.62965665  1
  Ba  Ba11  1  0.13486734  0.48579404  0.87034335  1
  Ga  Ga0  1  0.08382543  0.91617457  0.00000000  1
  Ga  Ga1  1  0.41617457  0.58382543  0.50000000  1
  Ga  Ga2  1  0.91617457  0.08382543  -0.00000000  1
  Ga  Ga3  1  0.58382543  0.41617457  0.50000000  1
  P  P0  1  0.30404081  0.30404081  0.40593762  1
  P  P1  1  0.80404081  0.80404081  0.09406238  1
  P  P2  1  0.19595919  0.19595919  0.90593762  1
  P  P3  1  0.69595919  0.69595919  0.59406238  1
  P  P4  1  0.84622654  0.53388865  0.38354965  1
  P  P5  1  0.03388865  0.34622654  0.11645035  1
  P  P6  1  0.65377346  0.96611135  0.88354965  1
  P  P7  1  0.46611135  0.15377346  0.61645035  1
  P  P8  1  0.15377346  0.46611135  0.61645035  1
  P  P9  1  0.96611135  0.65377346  0.88354965  1
  P  P10  1  0.34622654  0.03388865  0.11645035  1
  P  P11  1  0.53388865  0.84622654  0.38354965  1
loop_
_geom_bond_atom_site_label_1
_geom_bond_atom_site_label_2
_geom_bond_distance
_geom_bond_site_symmetry_2
Ba0 P4 3.231418 1_555
Ba0 P11 3.231418 1_555
Ba0 P0 3.302018 1_665
Ba0 P3 3.340017 1_555
Ba0 P1 3.343376 1_555
Ba0 Ga3 3.399781 1_555
Ba0 Ga1 3.399781 1_555
Ba0 P0 3.622149 1_555
Ba1 P10 3.231418 1_555
Ba1 P5 3.231418 1_555
Ba1 P1 3.302018 1_555
Ba1 P2 3.340017 1_554
Ba1 P0 3.343376 1_555
Ba1 Ga0 3.399781 1_545
Ba1 Ga2 3.399781 1_455
Ba1 P1 3.622149 1_445
Ba2 P6 3.231418 1_555
Ba2 P9 3.231418 1_555
Ba2 P2 3.302018 1_555
Ba2 P1 3.340017 1_556
Ba2 P3 3.343376 1_555
Ba2 Ga2 3.399781 1_566
Ba2 Ga0 3.399781 1_656
Ba2 P2 3.622149 1_665
Ba3 P7 3.231418 1_555
Ba3 P8 3.231418 1_555
Ba3 P3 3.302018 1_445
Ba3 P0 3.340017 1_555
Ba3 P2 3.343376 1_555
Ba3 Ga1 3.399781 1_555
Ba3 Ga3 3.399781 1_555
Ba3 P3 3.622149 1_555
Ba4 Ga0 3.242504 1_546
Ba4 P6 3.302927 1_545
Ba4 P10 3.349819 1_556
Ba4 P7 3.351122 1_555
Ba4 P9 3.402379 1_555
Ba4 P9 3.407589 1_445
Ba4 P2 3.554031 1_555
Ba5 Ga1 3.242504 1_555
Ba5 P7 3.302927 1_565
Ba5 P11 3.349819 1_555
Ba5 P6 3.351122 1_555
Ba5 P8 3.402379 1_665
Ba5 P8 3.407589 1_555
Ba5 P3 3.554031 1_555
Ba6 Ga1 3.242504 1_555
Ba6 P4 3.302927 1_455
Ba6 P8 3.349819 1_555
Ba6 P5 3.351122 1_555
Ba6 P11 3.402379 1_445
Ba6 P11 3.407589 1_555
Ba6 P0 3.554031 1_555
Ba7 Ga0 3.242504 1_655
Ba7 P5 3.302927 1_655
Ba7 P9 3.349819 1_554
Ba7 P4 3.351122 1_555
Ba7 P10 3.402379 1_555
Ba7 P10 3.407589 1_665
Ba7 P1 3.554031 1_555
Ba8 Ga2 3.242504 1_565
Ba8 P10 3.302927 1_565
Ba8 P6 3.349819 1_554
Ba8 P11 3.351122 1_555
Ba8 P5 3.402379 1_555
Ba8 P5 3.407589 1_665
Ba8 P1 3.554031 1_555
Ba9 Ga3 3.242504 1_555
Ba9 P11 3.302927 1_545
Ba9 P7 3.349819 1_555
Ba9 P10 3.351122 1_555
Ba9 P4 3.402379 1_445
Ba9 P4 3.407589 1_555
Ba9 P0 3.554031 1_555
Ba10 Ga3 3.242504 1_555
Ba10 P8 3.302927 1_655
Ba10 P4 3.349819 1_555
Ba10 P9 3.351122 1_555
Ba10 P7 3.402379 1_665
Ba10 P7 3.407589 1_555
Ba10 P3 3.554031 1_555
Ba11 Ga2 3.242504 1_456
Ba11 P9 3.302927 1_455
Ba11 P5 3.349819 1_556
Ba11 P8 3.351122 1_555
Ba11 P6 3.402379 1_555
Ba11 P6 3.407589 1_445
Ba11 P2 3.554031 1_555
Ga0 P2 2.443925 1_564
Ga0 P1 2.443925 1_455
Ga0 P10 2.447680 1_565
Ga0 P9 2.447680 1_454
Ga1 P3 2.443925 1_555
Ga1 P0 2.443925 1_555
Ga1 P11 2.447680 1_555
Ga1 P8 2.447680 1_555
Ga2 P1 2.443925 1_545
Ga2 P2 2.443925 1_654
Ga2 P6 2.447680 1_544
Ga2 P5 2.447680 1_655
Ga3 P3 2.443925 1_555
Ga3 P0 2.443925 1_555
Ga3 P4 2.447680 1_555
Ga3 P7 2.447680 1_555
