# generated using pymatgen
data_Ce3Bi4Pd3
_symmetry_space_group_name_H-M   'P 1'
_cell_length_a   8.67470147
_cell_length_b   8.67470147
_cell_length_c   8.67470147
_cell_angle_alpha   109.47122063
_cell_angle_beta   109.47122063
_cell_angle_gamma   109.47122063
_symmetry_Int_Tables_number   1
_chemical_formula_structural   Ce3Bi4Pd3
_chemical_formula_sum   'Ce6 Bi8 Pd6'
_cell_volume   502.50654589
_cell_formula_units_Z   2
loop_
 _symmetry_equiv_pos_site_id
 _symmetry_equiv_pos_as_xyz
  1  'x, y, z'
loop_
 _atom_site_type_symbol
 _atom_site_label
 _atom_site_symmetry_multiplicity
 _atom_site_fract_x
 _atom_site_fract_y
 _atom_site_fract_z
 _atom_site_occupancy
  Ce  Ce0  1  0.62500000  0.37500000  0.25000000  1
  Ce  Ce1  1  0.25000000  0.62500000  0.37500000  1
  Ce  Ce2  1  0.75000000  0.87500000  0.12500000  1
  Ce  Ce3  1  0.87500000  0.12500000  0.75000000  1
  Ce  Ce4  1  0.37500000  0.25000000  0.62500000  1
  Ce  Ce5  1  0.12500000  0.75000000  0.87500000  1
  Bi  Bi0  1  0.50000000  -0.00000000  0.83016127  1
  Bi  Bi1  1  0.16983873  0.16983873  0.16983873  1
  Bi  Bi2  1  -0.00000000  0.83016127  0.50000000  1
  Bi  Bi3  1  0.50000000  0.00000000  0.33016127  1
  Bi  Bi4  1  0.33016127  0.50000000  0.00000000  1
  Bi  Bi5  1  0.83016127  0.50000000  -0.00000000  1
  Bi  Bi6  1  0.66983873  0.66983873  0.66983873  1
  Bi  Bi7  1  0.00000000  0.33016127  0.50000000  1
  Pd  Pd0  1  0.87500000  0.25000000  0.12500000  1
  Pd  Pd1  1  0.25000000  0.12500000  0.87500000  1
  Pd  Pd2  1  0.12500000  0.87500000  0.25000000  1
  Pd  Pd3  1  0.62500000  0.75000000  0.37500000  1
  Pd  Pd4  1  0.75000000  0.37500000  0.62500000  1
  Pd  Pd5  1  0.37500000  0.62500000  0.75000000  1
loop_
_geom_bond_atom_site_label_1
_geom_bond_atom_site_label_2
_geom_bond_distance
_geom_bond_site_symmetry_2
Ce0 Pd0 3.066970 1_555
Ce0 Pd4 3.066970 1_555
Ce0 Pd1 3.066970 1_554
Ce0 Pd3 3.066970 1_555
Ce1 Pd3 3.066970 1_555
Ce1 Pd2 3.066970 1_555
Ce1 Pd5 3.066970 1_555
Ce1 Pd0 3.066970 1_455
Ce2 Pd2 3.066970 1_655
Ce2 Pd0 3.066970 1_565
Ce2 Pd3 3.066970 1_555
Ce2 Pd5 3.066970 1_554
Ce3 Pd0 3.066970 1_556
Ce3 Pd3 3.066970 1_545
Ce3 Pd4 3.066970 1_555
Ce3 Pd1 3.066970 1_655
Ce4 Pd2 3.066970 1_545
Ce4 Pd4 3.066970 1_555
Ce4 Pd1 3.066970 1_555
Ce4 Pd5 3.066970 1_555
Ce5 Pd4 3.066970 1_455
Ce5 Pd1 3.066970 1_565
Ce5 Pd5 3.066970 1_555
Ce5 Pd2 3.066970 1_556
Bi0 Pd0 2.806979 1_556
Bi0 Pd5 2.806979 1_545
Bi0 Pd1 2.806979 1_555
Bi0 Ce1 3.449721 1_545
Bi0 Ce4 3.449721 1_555
Bi0 Ce3 3.449721 1_555
Bi0 Ce0 3.484146 1_556
Bi0 Ce2 3.484146 1_546
Bi0 Ce5 3.484146 1_545
Bi1 Pd0 2.806979 1_455
Bi1 Pd2 2.806979 1_545
Bi1 Pd1 2.806979 1_554
Bi1 Ce1 3.449721 1_555
Bi1 Ce0 3.449721 1_555
Bi1 Ce4 3.449721 1_555
Bi1 Ce3 3.484146 1_454
Bi1 Ce2 3.484146 1_445
Bi1 Ce5 3.484146 1_544
Bi2 Pd1 2.806979 1_565
Bi2 Pd3 2.806979 1_455
Bi2 Pd2 2.806979 1_555
Bi2 Ce1 3.449721 1_555
Bi2 Ce5 3.449721 1_555
Bi2 Ce0 3.449721 1_455
Bi2 Ce3 3.484146 1_465
Bi2 Ce2 3.484146 1_455
Bi2 Ce4 3.484146 1_565
Bi3 Pd3 2.806979 1_545
Bi3 Pd2 2.806979 1_545
Bi3 Pd4 2.806979 1_555
Bi3 Ce5 3.449721 1_544
Bi3 Ce0 3.449721 1_555
Bi3 Ce2 3.449721 1_545
Bi3 Ce3 3.484146 1_555
Bi3 Ce1 3.484146 1_545
Bi3 Ce4 3.484146 1_555
Bi4 Pd5 2.806979 1_554
Bi4 Pd3 2.806979 1_555
Bi4 Pd1 2.806979 1_554
Bi4 Ce3 3.449721 1_454
Bi4 Ce5 3.449721 1_554
Bi4 Ce1 3.449721 1_555
Bi4 Ce4 3.484146 1_554
Bi4 Ce0 3.484146 1_555
Bi4 Ce2 3.484146 1_555
Bi5 Pd0 2.806979 1_555
Bi5 Pd4 2.806979 1_554
Bi5 Pd2 2.806979 1_655
Bi5 Ce0 3.449721 1_555
Bi5 Ce2 3.449721 1_555
Bi5 Ce4 3.449721 1_554
Bi5 Ce3 3.484146 1_554
Bi5 Ce1 3.484146 1_655
Bi5 Ce5 3.484146 1_654
Bi6 Pd5 2.806979 1_555
Bi6 Pd3 2.806979 1_555
Bi6 Pd4 2.806979 1_555
Bi6 Ce3 3.449721 1_565
Bi6 Ce2 3.449721 1_556
Bi6 Ce5 3.449721 1_655
Bi6 Ce4 3.484146 1_555
Bi6 Ce0 3.484146 1_555
Bi6 Ce1 3.484146 1_555
Bi7 Pd5 2.806979 1_555
Bi7 Pd0 2.806979 1_455
Bi7 Pd4 2.806979 1_455
Bi7 Ce2 3.449721 1_445
Bi7 Ce3 3.449721 1_455
Bi7 Ce4 3.449721 1_555
Bi7 Ce1 3.484146 1_555
Bi7 Ce5 3.484146 1_555
Bi7 Ce0 3.484146 1_455
