# generated using pymatgen
data_CaMgGeO4
_symmetry_space_group_name_H-M   'P 1'
_cell_length_a   5.05135100
_cell_length_b   6.45656100
_cell_length_c   11.37664900
_cell_angle_alpha   90.00000000
_cell_angle_beta   90.00000000
_cell_angle_gamma   90.00000000
_symmetry_Int_Tables_number   1
_chemical_formula_structural   CaMgGeO4
_chemical_formula_sum   'Ca4 Mg4 Ge4 O16'
_cell_volume   371.04207902
_cell_formula_units_Z   4
loop_
 _symmetry_equiv_pos_site_id
 _symmetry_equiv_pos_as_xyz
  1  'x, y, z'
loop_
 _atom_site_type_symbol
 _atom_site_label
 _atom_site_symmetry_multiplicity
 _atom_site_fract_x
 _atom_site_fract_y
 _atom_site_fract_z
 _atom_site_occupancy
  Ca  Ca0  1  0.51148100  0.25000000  0.77539700  1
  Ca  Ca1  1  0.98851900  0.25000000  0.27539700  1
  Ca  Ca2  1  0.48851900  0.75000000  0.22460300  1
  Ca  Ca3  1  0.01148100  0.75000000  0.72460300  1
  Mg  Mg0  1  0.00000000  0.50000000  0.00000000  1
  Mg  Mg1  1  0.50000000  0.00000000  0.50000000  1
  Mg  Mg2  1  0.50000000  0.50000000  0.50000000  1
  Mg  Mg3  1  0.00000000  0.00000000  0.00000000  1
  Ge  Ge0  1  0.07881800  0.25000000  0.58081000  1
  Ge  Ge1  1  0.42118200  0.25000000  0.08081000  1
  Ge  Ge2  1  0.57881800  0.75000000  0.91919000  1
  Ge  Ge3  1  0.92118200  0.75000000  0.41919000  1
  O  O0  1  0.26408100  0.46804600  0.14818400  1
  O  O1  1  0.76408100  0.53195400  0.35181600  1
  O  O2  1  0.75615000  0.75000000  0.05710800  1
  O  O3  1  0.23591900  0.03195400  0.64818400  1
  O  O4  1  0.23591900  0.46804600  0.64818400  1
  O  O5  1  0.73058600  0.25000000  0.57981200  1
  O  O6  1  0.76408100  0.96804600  0.35181600  1
  O  O7  1  0.23058600  0.75000000  0.92018800  1
  O  O8  1  0.74385000  0.75000000  0.55710800  1
  O  O9  1  0.26408100  0.03195400  0.14818400  1
  O  O10  1  0.73591900  0.53195400  0.85181600  1
  O  O11  1  0.26941400  0.75000000  0.42018800  1
  O  O12  1  0.76941400  0.25000000  0.07981200  1
  O  O13  1  0.73591900  0.96804600  0.85181600  1
  O  O14  1  0.24385000  0.25000000  0.94289200  1
  O  O15  1  0.25615000  0.25000000  0.44289200  1
loop_
_geom_bond_atom_site_label_1
_geom_bond_atom_site_label_2
_geom_bond_distance
_geom_bond_site_symmetry_2
Ca0 O10 2.314131 1_555
Ca0 O13 2.314131 1_545
Ca0 O14 2.336382 1_555
Ca0 O4 2.452363 1_555
Ca0 O3 2.452363 1_555
Ca0 O5 2.485162 1_555
Ca1 O1 2.314131 1_555
Ca1 O6 2.314131 1_545
Ca1 O15 2.336382 1_655
Ca1 O0 2.452363 1_655
Ca1 O9 2.452363 1_655
Ca1 O12 2.485162 1_555
Ca2 O9 2.314131 1_565
Ca2 O0 2.314131 1_555
Ca2 O2 2.336382 1_555
Ca2 O6 2.452363 1_555
Ca2 O1 2.452363 1_555
Ca2 O11 2.485162 1_555
Ca3 O3 2.314131 1_565
Ca3 O4 2.314131 1_555
Ca3 O8 2.336382 1_455
Ca3 O13 2.452363 1_455
Ca3 O10 2.452363 1_455
Ca3 O7 2.485162 1_555
Mg0 O2 2.131858 1_455
Mg0 O14 2.131858 1_554
Mg0 O0 2.159648 1_555
Mg0 O10 2.159648 1_454
Mg0 O7 2.187828 1_554
Mg0 O12 2.187828 1_455
Mg1 O8 2.131858 1_545
Mg1 O15 2.131858 1_555
Mg1 O3 2.159648 1_555
Mg1 O6 2.159648 1_545
Mg1 O5 2.187828 1_555
Mg1 O11 2.187828 1_545
Mg2 O8 2.131858 1_555
Mg2 O15 2.131858 1_555
Mg2 O4 2.159648 1_555
Mg2 O1 2.159648 1_555
Mg2 O5 2.187828 1_555
Mg2 O11 2.187828 1_555
Mg3 O2 2.131858 1_445
Mg3 O14 2.131858 1_554
Mg3 O9 2.159648 1_555
Mg3 O13 2.159648 1_444
Mg3 O7 2.187828 1_544
Mg3 O12 2.187828 1_455
Ge0 O5 1.759079 1_455
Ge0 O4 1.788643 1_555
Ge0 O3 1.788643 1_555
Ge0 O15 1.806737 1_555
Ge1 O12 1.759079 1_555
Ge1 O0 1.788643 1_555
Ge1 O9 1.788643 1_555
Ge1 O14 1.806737 1_554
Ge2 O7 1.759079 1_555
Ge2 O13 1.788643 1_555
Ge2 O10 1.788643 1_555
Ge2 O2 1.806737 1_556
Ge3 O11 1.759079 1_655
Ge3 O6 1.788643 1_555
Ge3 O1 1.788643 1_555
Ge3 O8 1.806737 1_555
