# generated using pymatgen
data_CdMoPO6
_symmetry_space_group_name_H-M   'P 1'
_cell_length_a   8.67668200
_cell_length_b   4.98770000
_cell_length_c   11.84035941
_cell_angle_alpha   70.99841325
_cell_angle_beta   90.00000000
_cell_angle_gamma   90.00000000
_symmetry_Int_Tables_number   1
_chemical_formula_structural   CdMoPO6
_chemical_formula_sum   'Cd4 Mo4 P4 O24'
_cell_volume   484.48999572
_cell_formula_units_Z   4
loop_
 _symmetry_equiv_pos_site_id
 _symmetry_equiv_pos_as_xyz
  1  'x, y, z'
loop_
 _atom_site_type_symbol
 _atom_site_label
 _atom_site_symmetry_multiplicity
 _atom_site_fract_x
 _atom_site_fract_y
 _atom_site_fract_z
 _atom_site_occupancy
  Cd  Cd0  1  0.82831700  0.67146100  0.42398100  1
  Cd  Cd1  1  0.32831700  0.32853900  0.07601900  1
  Cd  Cd2  1  0.67168300  0.67146100  0.92398100  1
  Cd  Cd3  1  0.17168300  0.32853900  0.57601900  1
  Mo  Mo0  1  0.91022900  0.98875200  0.11388500  1
  Mo  Mo1  1  0.08977100  0.01124800  0.88611500  1
  Mo  Mo2  1  0.41022900  0.01124800  0.38611500  1
  Mo  Mo3  1  0.58977100  0.98875200  0.61388500  1
  P  P0  1  0.55759000  0.68142500  0.20937800  1
  P  P1  1  0.44241000  0.31857500  0.79062200  1
  P  P2  1  0.05759000  0.31857500  0.29062200  1
  P  P3  1  0.94241000  0.68142500  0.70937800  1
  O  O0  1  0.39007300  0.12774700  0.53478100  1
  O  O1  1  0.01959000  0.59034800  0.18887800  1
  O  O2  1  0.53639100  0.05945200  0.77689600  1
  O  O3  1  0.46360900  0.94054800  0.22310400  1
  O  O4  1  0.98119700  0.65719400  0.58596900  1
  O  O5  1  0.03639100  0.94054800  0.72310400  1
  O  O6  1  0.60992700  0.87225300  0.46521900  1
  O  O7  1  0.48119700  0.34280600  0.91403100  1
  O  O8  1  0.48041000  0.59034800  0.68887800  1
  O  O9  1  0.98041000  0.40965200  0.81112200  1
  O  O10  1  0.51959000  0.40965200  0.31112200  1
  O  O11  1  0.10992700  0.12774700  0.03478100  1
  O  O12  1  0.71323900  0.27806700  0.56183700  1
  O  O13  1  0.23238800  0.26118400  0.27611800  1
  O  O14  1  0.51880300  0.65719400  0.08596900  1
  O  O15  1  0.26761200  0.26118400  0.77611800  1
  O  O16  1  0.76761200  0.73881600  0.72388200  1
  O  O17  1  0.28676100  0.72193300  0.43816300  1
  O  O18  1  0.73238800  0.73881600  0.22388200  1
  O  O19  1  0.96360900  0.05945200  0.27689600  1
  O  O20  1  0.89007300  0.87225300  0.96521900  1
  O  O21  1  0.01880300  0.34280600  0.41403100  1
  O  O22  1  0.21323900  0.72193300  0.93816300  1
  O  O23  1  0.78676100  0.27806700  0.06183700  1
loop_
_geom_bond_atom_site_label_1
_geom_bond_atom_site_label_2
_geom_bond_distance
_geom_bond_site_symmetry_2
Cd0 O6 2.269465 1_555
Cd0 O4 2.313974 1_555
Cd0 O12 2.329306 1_555
Cd0 O21 2.357631 1_655
Cd0 O18 2.429129 1_555
Cd0 O19 2.441570 1_565
Cd1 O11 2.269465 1_555
Cd1 O7 2.313974 1_554
Cd1 O22 2.329306 1_554
Cd1 O14 2.357631 1_555
Cd1 O13 2.429129 1_555
Cd1 O3 2.441570 1_545
Cd2 O20 2.269465 1_555
Cd2 O14 2.313974 1_556
Cd2 O23 2.329306 1_556
Cd2 O7 2.357631 1_555
Cd2 O16 2.429129 1_555
Cd2 O2 2.441570 1_565
Cd3 O0 2.269465 1_555
Cd3 O21 2.313974 1_555
Cd3 O17 2.329306 1_555
Cd3 O4 2.357631 1_455
Cd3 O15 2.429129 1_555
Cd3 O5 2.441570 1_545
Mo0 O23 1.740878 1_565
Mo0 O11 1.984274 1_665
Mo0 O20 2.032924 1_554
Mo0 O1 2.118606 1_655
Mo0 O19 2.123063 1_565
Mo0 O18 2.138711 1_555
Mo1 O22 1.740878 1_545
Mo1 O20 1.984274 1_445
Mo1 O11 2.032924 1_556
Mo1 O9 2.118606 1_455
Mo1 O5 2.123063 1_545
Mo1 O15 2.138711 1_555
Mo2 O17 1.740878 1_545
Mo2 O6 1.984274 1_545
Mo2 O0 2.032924 1_555
Mo2 O10 2.118606 1_555
Mo2 O3 2.123063 1_545
Mo2 O13 2.138711 1_555
Mo3 O12 1.740878 1_565
Mo3 O0 1.984274 1_565
Mo3 O6 2.032924 1_555
Mo3 O8 2.118606 1_555
Mo3 O2 2.123063 1_565
Mo3 O16 2.138711 1_555
O1 P2 1.527757 1_555
O2 P1 1.580668 1_555
O3 P0 1.580668 1_555
O4 P3 1.542074 1_555
O5 P3 1.580668 1_455
O7 P1 1.542074 1_555
O8 P1 1.527757 1_555
O9 P3 1.527757 1_555
O10 P0 1.527757 1_555
O13 P2 1.563240 1_555
O14 P0 1.542074 1_555
O15 P1 1.563240 1_555
O16 P3 1.563240 1_555
O18 P0 1.563240 1_555
O19 P2 1.580668 1_655
O21 P2 1.542074 1_555
