# generated using pymatgen
data_Dy5In3
_symmetry_space_group_name_H-M   'P 1'
_cell_length_a   6.04402178
_cell_length_b   9.12041727
_cell_length_c   9.12042838
_cell_angle_alpha   83.72537972
_cell_angle_beta   70.68030263
_cell_angle_gamma   70.68035680
_symmetry_Int_Tables_number   1
_chemical_formula_structural   Dy5In3
_chemical_formula_sum   'Dy10 In6'
_cell_volume   447.72598066
_cell_formula_units_Z   2
loop_
 _symmetry_equiv_pos_site_id
 _symmetry_equiv_pos_as_xyz
  1  'x, y, z'
loop_
 _atom_site_type_symbol
 _atom_site_label
 _atom_site_symmetry_multiplicity
 _atom_site_fract_x
 _atom_site_fract_y
 _atom_site_fract_z
 _atom_site_occupancy
  Dy  Dy0  1  0.58281749  0.69876964  0.13517221  1
  Dy  Dy1  1  0.41718251  0.30123036  0.86482779  1
  Dy  Dy2  1  0.28181306  0.13556452  0.30106679  1
  Dy  Dy3  1  0.91718351  0.86482779  0.30123036  1
  Dy  Dy4  1  0.78181206  0.30106679  0.13556452  1
  Dy  Dy5  1  0.75000000  0.49976757  0.50023243  1
  Dy  Dy6  1  0.25000000  0.50023243  0.49976757  1
  Dy  Dy7  1  0.08281649  0.13517221  0.69876964  1
  Dy  Dy8  1  0.71818694  0.86443548  0.69893321  1
  Dy  Dy9  1  0.21818794  0.69893321  0.86443548  1
  In  In0  1  0.33957199  0.82201371  0.49972113  1
  In  In1  1  0.16042801  0.50027887  0.17798529  1
  In  In2  1  0.25000000  0.00002037  0.99997963  1
  In  In3  1  0.83957199  0.49972113  0.82201471  1
  In  In4  1  0.66042801  0.17798629  0.50027887  1
  In  In5  1  0.75000000  0.99997963  0.00002037  1
loop_
_geom_bond_atom_site_label_1
_geom_bond_atom_site_label_2
_geom_bond_distance
_geom_bond_site_symmetry_2
Dy0 In3 3.193425 1_554
Dy0 In2 3.218583 1_564
Dy0 In5 3.218651 1_555
Dy0 In0 3.311885 1_555
Dy0 Dy4 3.422963 1_555
Dy0 In1 3.490433 1_655
Dy0 In1 3.491573 1_555
Dy0 Dy3 3.634697 1_455
Dy0 Dy3 3.636406 1_555
Dy0 Dy9 3.814670 1_554
Dy0 Dy9 3.817452 1_654
Dy0 Dy6 3.879502 1_555
Dy0 Dy5 3.884902 1_555
Dy0 Dy8 4.016502 1_554
Dy0 Dy2 4.021191 1_565
Dy1 In1 3.193425 1_556
Dy1 In5 3.218583 1_546
Dy1 In2 3.218651 1_555
Dy1 In4 3.311885 1_555
Dy1 Dy9 3.422963 1_555
Dy1 In3 3.490433 1_455
Dy1 In3 3.491573 1_555
Dy1 Dy7 3.634697 1_655
Dy1 Dy7 3.636406 1_555
Dy1 Dy4 3.814670 1_556
Dy1 Dy4 3.817452 1_456
Dy1 Dy5 3.879502 1_555
Dy1 Dy6 3.884902 1_555
Dy1 Dy2 4.016502 1_556
Dy1 Dy8 4.021191 1_545
Dy2 In0 3.194978 1_545
Dy2 In2 3.217866 1_554
Dy2 In5 3.218875 1_545
Dy2 In1 3.313147 1_555
Dy2 Dy7 3.422966 1_555
Dy2 In4 3.489693 1_555
Dy2 In4 3.497565 1_455
Dy2 Dy4 3.631989 1_555
Dy2 Dy4 3.632002 1_455
Dy2 Dy3 3.814666 1_445
Dy2 Dy3 3.817453 1_545
Dy2 Dy6 3.879012 1_555
Dy2 Dy5 3.880179 1_455
Dy3 In4 3.193431 1_565
Dy3 In2 3.218580 1_664
Dy3 In5 3.218658 1_555
Dy3 In1 3.311885 1_655
Dy3 Dy8 3.422966 1_555
Dy3 In0 3.490440 1_555
Dy3 In0 3.491570 1_655
Dy3 Dy6 3.879501 1_655
Dy3 Dy5 3.884901 1_555
Dy3 Dy4 4.016499 1_565
Dy3 Dy9 4.021194 1_654
Dy4 In3 3.194972 1_554
Dy4 In5 3.217860 1_545
Dy4 In2 3.218877 1_654
Dy4 In4 3.313147 1_555
Dy4 In1 3.489692 1_655
Dy4 In1 3.497562 1_555
Dy4 Dy5 3.879017 1_555
Dy4 Dy6 3.880178 1_555
Dy4 Dy7 4.021194 1_654
Dy5 Dy6 3.022016 1_655
Dy5 Dy6 3.022016 1_555
Dy5 In4 3.155452 1_555
Dy5 In3 3.155465 1_555
Dy5 In0 3.157852 1_555
Dy5 In1 3.157859 1_655
Dy5 Dy8 3.879012 1_555
Dy5 Dy7 3.879501 1_655
Dy5 Dy9 3.880178 1_555
Dy6 In0 3.155452 1_555
Dy6 In1 3.155465 1_555
Dy6 In4 3.157852 1_555
Dy6 In3 3.157859 1_455
Dy6 Dy9 3.879017 1_555
Dy6 Dy8 3.880179 1_455
Dy6 Dy7 3.884901 1_555
Dy7 In0 3.193431 1_545
Dy7 In5 3.218580 1_446
Dy7 In2 3.218658 1_555
Dy7 In3 3.311885 1_455
Dy7 In4 3.490440 1_555
Dy7 In4 3.491570 1_455
Dy7 Dy8 3.814666 1_445
Dy7 Dy8 3.817453 1_545
Dy7 Dy9 4.016499 1_545
Dy8 In4 3.194978 1_565
Dy8 In5 3.217866 1_556
Dy8 In2 3.218875 1_565
Dy8 In3 3.313147 1_555
Dy8 In0 3.489693 1_555
Dy8 In0 3.497565 1_655
Dy8 Dy9 3.631989 1_555
Dy8 Dy9 3.632002 1_655
Dy9 In1 3.194972 1_556
Dy9 In2 3.217860 1_565
Dy9 In5 3.218877 1_456
Dy9 In0 3.313147 1_555
Dy9 In3 3.489692 1_455
Dy9 In3 3.497562 1_555
In2 In5 3.022011 1_446
In2 In5 3.022011 1_546
