# generated using pymatgen
data_Ca3Cr3(PO4)4
_symmetry_space_group_name_H-M   'P 1'
_cell_length_a   9.09631200
_cell_length_b   9.14079408
_cell_length_c   10.02109039
_cell_angle_alpha   104.82262514
_cell_angle_beta   106.23175431
_cell_angle_gamma   109.88760553
_symmetry_Int_Tables_number   1
_chemical_formula_structural   Ca3Cr3(PO4)4
_chemical_formula_sum   'Ca6 Cr6 P8 O32'
_cell_volume   693.15789316
_cell_formula_units_Z   2
loop_
 _symmetry_equiv_pos_site_id
 _symmetry_equiv_pos_as_xyz
  1  'x, y, z'
loop_
 _atom_site_type_symbol
 _atom_site_label
 _atom_site_symmetry_multiplicity
 _atom_site_fract_x
 _atom_site_fract_y
 _atom_site_fract_z
 _atom_site_occupancy
  Ca  Ca0  1  0.67750800  0.65050300  0.21093200  1
  Ca  Ca1  1  0.52047800  0.00008600  0.80031900  1
  Ca  Ca2  1  0.32249200  0.34949700  0.78906800  1
  Ca  Ca3  1  0.47952200  0.99991400  0.19968100  1
  Ca  Ca4  1  0.27146800  0.28445500  0.29237700  1
  Ca  Ca5  1  0.72853200  0.71554500  0.70762300  1
  Cr  Cr0  1  0.94173000  0.18980500  0.41647700  1
  Cr  Cr1  1  0.04957900  0.80335800  0.11189400  1
  Cr  Cr2  1  0.05827000  0.81019500  0.58352300  1
  Cr  Cr3  1  0.04693500  0.51744200  0.26999300  1
  Cr  Cr4  1  0.95042100  0.19664200  0.88810700  1
  Cr  Cr5  1  0.95306500  0.48255800  0.73000700  1
  P  P0  1  0.73263100  0.42052500  0.39112400  1
  P  P1  1  0.26736900  0.57947500  0.60887600  1
  P  P2  1  0.81201000  0.98915300  0.07490200  1
  P  P3  1  0.75917000  0.44085600  0.94302800  1
  P  P4  1  0.24083000  0.55914400  0.05697200  1
  P  P5  1  0.26291800  0.06236800  0.48385000  1
  P  P6  1  0.18799000  0.01084700  0.92509800  1
  P  P7  1  0.73708200  0.93763200  0.51615000  1
  O  O0  1  0.36791800  0.03364400  0.94675500  1
  O  O1  1  0.62751700  0.88506200  0.34690500  1
  O  O2  1  0.55736400  0.40913400  0.30396100  1
  O  O3  1  0.08791600  0.43508400  0.89888800  1
  O  O4  1  0.82479600  0.81499900  0.51492200  1
  O  O5  1  0.12472700  0.87462400  0.41461900  1
  O  O6  1  0.59548000  0.43080000  0.95997600  1
  O  O7  1  0.75990100  0.26569000  0.90111200  1
  O  O8  1  0.84129100  0.84317900  0.11333400  1
  O  O9  1  0.13074700  0.46070300  0.64814400  1
  O  O10  1  0.86925300  0.53929700  0.35185600  1
  O  O11  1  0.78553600  0.50544100  0.56375700  1
  O  O12  1  0.17520400  0.18500100  0.48507800  1
  O  O13  1  0.20607300  0.47673800  0.16950800  1
  O  O14  1  0.79392700  0.52326200  0.83049200  1
  O  O15  1  0.21446400  0.49455900  0.43624300  1
  O  O16  1  0.91208400  0.56491600  0.10111200  1
  O  O17  1  0.63208200  0.96635600  0.05324500  1
  O  O18  1  0.17432700  0.02051500  0.08018600  1
  O  O19  1  0.95424900  0.16238000  0.20242700  1
  O  O20  1  0.37248300  0.11493800  0.65309500  1
  O  O21  1  0.82567300  0.97948500  0.91981400  1
  O  O22  1  0.26597300  0.75394700  0.64727200  1
  O  O23  1  0.63723200  0.90769300  0.61628900  1
  O  O24  1  0.24009900  0.73430900  0.09888800  1
  O  O25  1  0.04575100  0.83762000  0.79757300  1
  O  O26  1  0.44263600  0.59086600  0.69603900  1
  O  O27  1  0.73402700  0.24605300  0.35272800  1
  O  O28  1  0.15870900  0.15682100  0.88666600  1
  O  O29  1  0.40452000  0.56920000  0.04002400  1
  O  O30  1  0.36276800  0.09230700  0.38371100  1
  O  O31  1  0.87527300  0.12537600  0.58538100  1
loop_
_geom_bond_atom_site_label_1
_geom_bond_atom_site_label_2
_geom_bond_distance
_geom_bond_site_symmetry_2
Ca0 O29 2.316771 1_555
Ca0 O1 2.485027 1_555
Ca0 O8 2.487721 1_555
Ca0 O6 2.502342 1_554
Ca0 O10 2.575559 1_555
Ca0 O2 2.629207 1_555
Ca0 O4 2.709243 1_555
Ca0 O16 2.895544 1_555
Ca1 O0 2.317555 1_555
Ca1 O22 2.340847 1_545
Ca1 O7 2.361323 1_555
Ca1 O20 2.394740 1_555
Ca1 O23 2.480008 1_545
Ca1 O17 2.593096 1_546
Ca1 O21 2.790874 1_545
Ca2 O6 2.316771 1_555
Ca2 O20 2.485027 1_555
Ca2 O28 2.487721 1_555
Ca2 O29 2.502342 1_556
Ca2 O9 2.575559 1_555
Ca2 O26 2.629207 1_555
Ca2 O12 2.709243 1_555
Ca2 O3 2.895544 1_555
Ca3 O17 2.317555 1_555
Ca3 O27 2.340847 1_565
Ca3 O24 2.361329 1_555
Ca3 O1 2.394740 1_555
Ca3 O30 2.480008 1_565
Ca3 O0 2.593096 1_564
Ca3 O18 2.790874 1_565
Ca4 O15 2.390504 1_555
Ca4 O2 2.412992 1_555
Ca4 O18 2.448950 1_555
Ca4 O30 2.449959 1_555
Ca4 O19 2.494906 1_455
Ca4 O13 2.523545 1_555
Ca4 O12 2.573751 1_555
Ca5 O11 2.390504 1_555
Ca5 O26 2.412992 1_555
Ca5 O21 2.448950 1_555
Ca5 O23 2.449959 1_555
Ca5 O25 2.494906 1_655
Ca5 O14 2.523545 1_555
Ca5 O4 2.573751 1_555
Cr0 O12 2.060957 1_655
Cr0 O27 2.096720 1_555
Cr0 O31 2.101669 1_555
Cr0 O19 2.134888 1_555
Cr0 O9 2.531414 1_655
Cr1 O8 2.050417 1_455
Cr1 O24 2.060853 1_555
Cr1 O16 2.067778 1_455
Cr1 O18 2.078608 1_565
Cr2 O4 2.060957 1_455
Cr2 O22 2.096720 1_555
Cr2 O5 2.101669 1_555
Cr2 O25 2.134888 1_555
Cr2 O10 2.531414 1_455
Cr3 O15 2.029146 1_555
Cr3 O16 2.033338 1_455
Cr3 O10 2.049932 1_455
Cr3 O13 2.058522 1_555
Cr4 O28 2.050419 1_655
Cr4 O7 2.060845 1_555
Cr4 O3 2.067781 1_655
Cr4 O21 2.078603 1_545
Cr5 O11 2.029146 1_555
Cr5 O3 2.033338 1_655
Cr5 O9 2.049932 1_655
Cr5 O14 2.058522 1_555
O0 P6 1.521676 1_555
O1 P7 1.553347 1_555
O2 P0 1.541931 1_555
O3 P4 1.583079 1_556
O4 P7 1.581215 1_555
O5 P5 1.562738 1_565
O6 P3 1.520061 1_555
O7 P3 1.550765 1_555
O8 P2 1.564306 1_555
O9 P1 1.565889 1_555
O10 P0 1.565889 1_555
O11 P0 1.555720 1_555
O12 P5 1.581215 1_555
O13 P4 1.552762 1_555
O14 P3 1.552762 1_555
O15 P1 1.555720 1_555
O16 P3 1.583079 1_554
O17 P2 1.521676 1_555
O18 P6 1.576015 1_554
O19 P2 1.568716 1_545
O20 P5 1.553347 1_555
O21 P2 1.576015 1_556
O22 P1 1.547313 1_555
O23 P7 1.545252 1_555
O24 P4 1.550756 1_555
O25 P6 1.568716 1_565
O26 P1 1.541931 1_555
O27 P0 1.547313 1_555
O28 P6 1.564306 1_555
O29 P4 1.520061 1_555
O30 P5 1.545252 1_555
O31 P7 1.562738 1_545
