# generated using pymatgen
data_CeCoSb3
_symmetry_space_group_name_H-M   'P 1'
_cell_length_a   6.17476530
_cell_length_b   12.11587185
_cell_length_c   12.79168944
_cell_angle_alpha   90.00072113
_cell_angle_beta   90.03978436
_cell_angle_gamma   90.00042549
_symmetry_Int_Tables_number   1
_chemical_formula_structural   CeCoSb3
_chemical_formula_sum   'Ce8 Co8 Sb24'
_cell_volume   956.98014694
_cell_formula_units_Z   8
loop_
 _symmetry_equiv_pos_site_id
 _symmetry_equiv_pos_as_xyz
  1  'x, y, z'
loop_
 _atom_site_type_symbol
 _atom_site_label
 _atom_site_symmetry_multiplicity
 _atom_site_fract_x
 _atom_site_fract_y
 _atom_site_fract_z
 _atom_site_occupancy
  Ce  Ce0  1  0.22594965  0.24972826  0.30189915  1
  Ce  Ce1  1  0.77399518  0.74971046  0.69811019  1
  Ce  Ce2  1  0.74901578  0.50024757  0.29786885  1
  Ce  Ce3  1  0.24976399  0.49992615  0.70059137  1
  Ce  Ce4  1  0.72626840  0.25136974  0.69760021  1
  Ce  Ce5  1  0.27372532  0.75134158  0.30238473  1
  Ce  Ce6  1  0.75022305  -0.00007748  0.29941399  1
  Ce  Ce7  1  0.25097996  0.00025467  0.70213342  1
  Co  Co0  1  0.54034849  0.86460786  0.90269788  1
  Co  Co1  1  0.45963991  0.36460570  0.09730916  1
  Co  Co2  1  0.53959589  0.63537962  0.90470672  1
  Co  Co3  1  0.46040052  0.13539057  0.09528270  1
  Co  Co4  1  0.96101853  0.13530176  0.90345420  1
  Co  Co5  1  0.04152236  0.86410790  0.09549723  1
  Co  Co6  1  0.03900463  0.63529651  0.09654719  1
  Co  Co7  1  0.95848406  0.36411628  0.90450470  1
  Sb  Sb0  1  0.38714555  0.74944893  0.05520915  1
  Sb  Sb1  1  0.26943081  0.74985507  0.78726710  1
  Sb  Sb2  1  0.11319933  0.24973885  0.05542658  1
  Sb  Sb3  1  0.75053177  0.00015600  0.78193262  1
  Sb  Sb4  1  0.01333528  0.87591745  0.49805766  1
  Sb  Sb5  1  0.76925977  0.75030060  0.21205522  1
  Sb  Sb6  1  0.23077847  0.25030661  0.78793700  1
  Sb  Sb7  1  0.74958321  0.49990231  0.02771850  1
  Sb  Sb8  1  0.73052220  0.24985060  0.21271649  1
  Sb  Sb9  1  0.48568110  0.12425087  0.49798069  1
  Sb  Sb10  1  0.74966052  0.50022429  0.78186290  1
  Sb  Sb11  1  0.98691148  0.12452520  0.50288477  1
  Sb  Sb12  1  0.61289350  0.24943374  0.94478569  1
  Sb  Sb13  1  0.88682502  0.74972691  0.94459157  1
  Sb  Sb14  1  0.24947711  0.50013765  0.21807556  1
  Sb  Sb15  1  0.25041815  -0.00007978  0.97229531  1
  Sb  Sb16  1  0.01314703  0.62450181  0.49716731  1
  Sb  Sb17  1  0.48696953  0.37523131  0.49673531  1
  Sb  Sb18  1  0.25035470  0.00021210  0.21812599  1
  Sb  Sb19  1  0.75075763  -0.00018768  0.02742901  1
  Sb  Sb20  1  0.51429481  0.62424583  0.50202619  1
  Sb  Sb21  1  0.98662197  0.37594963  0.50191206  1
  Sb  Sb22  1  0.24927871  0.49982709  0.97257553  1
  Sb  Sb23  1  0.51298862  0.87522148  0.50323009  1
loop_
_geom_bond_atom_site_label_1
_geom_bond_atom_site_label_2
_geom_bond_distance
_geom_bond_site_symmetry_2
Ce0 Sb18 3.210974 1_555
Ce0 Sb14 3.221153 1_555
Ce0 Sb2 3.228282 1_555
Ce0 Sb8 3.264194 1_455
Ce0 Co1 3.297527 1_555
Ce0 Co3 3.317438 1_555
Ce0 Sb8 3.318648 1_555
Ce0 Sb21 3.327716 1_455
Ce0 Sb11 3.330887 1_455
Ce0 Sb17 3.334010 1_555
Ce0 Sb9 3.342007 1_555
Ce1 Sb10 3.210547 1_555
Ce1 Sb3 3.221519 1_565
Ce1 Sb13 3.228498 1_555
Ce1 Sb1 3.264126 1_655
Ce1 Co0 3.297469 1_555
Ce1 Co2 3.317080 1_555
Ce1 Sb1 3.318487 1_555
Ce1 Sb4 3.328080 1_655
Ce1 Sb16 3.330787 1_655
Ce1 Sb23 3.334474 1_555
Ce1 Sb20 3.341829 1_555
Ce2 Sb5 3.224807 1_555
Ce2 Sb8 3.225374 1_555
Ce2 Sb14 3.248352 1_555
Ce2 Sb14 3.255107 1_655
Ce2 Sb20 3.344079 1_555
Ce2 Sb21 3.350783 1_555
Ce2 Sb17 3.374805 1_555
Ce2 Sb16 3.379307 1_655
Ce2 Sb7 3.455686 1_555
Ce2 Co1 3.531125 1_555
Ce2 Co6 3.538631 1_655
Ce3 Sb6 3.226314 1_555
Ce3 Sb1 3.226946 1_555
Ce3 Sb10 3.256426 1_555
Ce3 Sb10 3.259006 1_455
Ce3 Sb16 3.343466 1_555
Ce3 Sb17 3.351557 1_555
Ce3 Sb21 3.368892 1_455
Ce3 Sb20 3.375522 1_555
Ce3 Sb22 3.479141 1_555
Ce4 Sb10 3.205170 1_555
Ce4 Sb3 3.232641 1_555
Ce4 Sb12 3.239051 1_555
Ce4 Sb6 3.271260 1_555
Ce4 Co7 3.304759 1_555
Ce4 Co4 3.317737 1_555
Ce4 Sb17 3.321460 1_555
Ce4 Sb6 3.321920 1_655
Ce4 Sb9 3.330737 1_555
Ce4 Sb21 3.336808 1_555
Ce4 Sb11 3.340860 1_555
Ce5 Sb18 3.205356 1_565
Ce5 Sb14 3.232398 1_555
Ce5 Sb0 3.238984 1_555
Ce5 Sb5 3.271483 1_555
Ce5 Co5 3.304686 1_555
Ce5 Co6 3.317336 1_555
Ce5 Sb23 3.321231 1_555
Ce5 Sb5 3.321629 1_455
Ce5 Sb20 3.330814 1_555
Ce5 Sb4 3.336731 1_555
Ce5 Sb16 3.341299 1_555
Ce6 Sb5 3.226386 1_545
Ce6 Sb8 3.227068 1_555
Ce6 Sb18 3.256328 1_555
Ce6 Sb18 3.259238 1_655
Ce6 Sb11 3.344232 1_555
Ce6 Sb23 3.351291 1_545
Ce6 Sb4 3.368653 1_645
Ce6 Sb9 3.375599 1_555
Ce6 Sb19 3.479151 1_555
Ce7 Sb6 3.224717 1_555
Ce7 Sb1 3.225341 1_545
Ce7 Sb3 3.248453 1_555
Ce7 Sb3 3.255054 1_455
Ce7 Sb9 3.343989 1_555
Ce7 Sb4 3.351386 1_545
Ce7 Sb23 3.375124 1_545
Ce7 Sb11 3.378767 1_455
Ce7 Sb15 3.455834 1_555
Ce7 Co0 3.531217 1_545
Ce7 Co4 3.538509 1_455
Co0 Sb0 2.578790 1_556
Co0 Sb15 2.586024 1_565
Co0 Sb3 2.602050 1_565
Co0 Sb13 2.607694 1_555
Co0 Sb1 2.628336 1_555
Co0 Sb19 2.629476 1_566
Co1 Sb12 2.579090 1_554
Co1 Sb7 2.585926 1_555
Co1 Sb14 2.601859 1_555
Co1 Sb2 2.607368 1_555
Co1 Sb8 2.628077 1_555
Co1 Sb22 2.629514 1_554
Co2 Sb0 2.550486 1_556
Co2 Sb22 2.581992 1_555
Co2 Sb13 2.602899 1_555
Co2 Sb10 2.614572 1_555
Co2 Sb7 2.617014 1_556
Co2 Sb1 2.638174 1_555
Co3 Sb12 2.550378 1_554
Co3 Sb19 2.582299 1_555
Co3 Sb2 2.602716 1_555
Co3 Sb18 2.614699 1_555
Co3 Sb15 2.616722 1_554
Co3 Sb8 2.637831 1_555
Co4 Sb2 2.565510 1_656
Co4 Sb15 2.580134 1_655
Co4 Sb3 2.604574 1_555
Co4 Sb12 2.610369 1_555
Co4 Sb19 2.626438 1_556
Co4 Sb6 2.627357 1_655
Co5 Sb13 2.560569 1_454
Co5 Sb19 2.585118 1_465
Co5 Sb0 2.598377 1_555
Co5 Sb18 2.615291 1_565
Co5 Sb15 2.618764 1_564
Co5 Sb5 2.637060 1_455
Co6 Sb13 2.565336 1_454
Co6 Sb7 2.580239 1_455
Co6 Sb14 2.604719 1_555
Co6 Sb0 2.610588 1_555
Co6 Sb22 2.626290 1_554
Co6 Sb5 2.627220 1_455
Co7 Sb2 2.560778 1_656
Co7 Sb22 2.585276 1_655
Co7 Sb12 2.598336 1_555
Co7 Sb10 2.615430 1_555
Co7 Sb7 2.618658 1_556
Co7 Sb6 2.637264 1_655
Sb0 Sb5 3.096119 1_555
Sb1 Sb13 3.104505 1_455
Sb2 Sb8 3.104554 1_455
Sb11 Sb4 3.017150 1_645
Sb11 Sb21 3.046252 1_555
Sb11 Sb9 3.080470 1_655
Sb11 Sb9 3.095574 1_555
Sb12 Sb6 3.096146 1_555
Sb16 Sb21 3.016490 1_455
Sb16 Sb4 3.046141 1_555
Sb16 Sb20 3.080967 1_455
Sb16 Sb20 3.095052 1_555
Sb17 Sb20 3.022495 1_555
Sb17 Sb9 3.040899 1_555
Sb17 Sb21 3.085913 1_555
Sb17 Sb21 3.090297 1_455
Sb20 Sb23 3.040838 1_555
Sb23 Sb9 3.022662 1_565
Sb23 Sb4 3.085917 1_555
Sb23 Sb4 3.090289 1_655
