# generated using pymatgen
data_Na8Hf(MoO4)6
_symmetry_space_group_name_H-M   'P 1'
_cell_length_a   11.70560400
_cell_length_b   9.91196900
_cell_length_c   12.02157506
_cell_angle_alpha   61.48606042
_cell_angle_beta   90.00000000
_cell_angle_gamma   90.00000000
_symmetry_Int_Tables_number   1
_chemical_formula_structural   Na8Hf(MoO4)6
_chemical_formula_sum   'Na16 Hf2 Mo12 O48'
_cell_volume   1225.62117299
_cell_formula_units_Z   2
loop_
 _symmetry_equiv_pos_site_id
 _symmetry_equiv_pos_as_xyz
  1  'x, y, z'
loop_
 _atom_site_type_symbol
 _atom_site_label
 _atom_site_symmetry_multiplicity
 _atom_site_fract_x
 _atom_site_fract_y
 _atom_site_fract_z
 _atom_site_occupancy
  Na  Na0  1  0.43271800  0.83402000  0.28928900  1
  Na  Na1  1  0.78191000  0.41410800  0.89912000  1
  Na  Na2  1  0.21809000  0.58589200  0.10088000  1
  Na  Na3  1  0.93271800  0.16598000  0.21071100  1
  Na  Na4  1  0.03719500  0.33209200  0.37253000  1
  Na  Na5  1  0.71809000  0.41410800  0.39912000  1
  Na  Na6  1  0.46280500  0.33209200  0.87253000  1
  Na  Na7  1  0.68445000  0.77488200  0.81051000  1
  Na  Na8  1  0.96280500  0.66790800  0.62747000  1
  Na  Na9  1  0.28191000  0.58589200  0.60088000  1
  Na  Na10  1  0.31555000  0.22511800  0.18949000  1
  Na  Na11  1  0.56728200  0.16598000  0.71071100  1
  Na  Na12  1  0.53719500  0.66790800  0.12747000  1
  Na  Na13  1  0.06728200  0.83402000  0.78928900  1
  Na  Na14  1  0.81555000  0.77488200  0.31051000  1
  Na  Na15  1  0.18445000  0.22511800  0.68949000  1
  Hf  Hf0  1  0.50000000  0.00000000  0.50000000  1
  Hf  Hf1  1  0.00000000  0.00000000  0.00000000  1
  Mo  Mo0  1  0.39074700  0.72706100  0.82020300  1
  Mo  Mo1  1  0.18607000  0.98997400  0.49338500  1
  Mo  Mo2  1  0.68607000  0.01002600  0.00661500  1
  Mo  Mo3  1  0.31393000  0.98997400  0.99338500  1
  Mo  Mo4  1  0.10925300  0.72706100  0.32020300  1
  Mo  Mo5  1  0.60352500  0.60611600  0.58838600  1
  Mo  Mo6  1  0.39647500  0.39388400  0.41161400  1
  Mo  Mo7  1  0.81393000  0.01002600  0.50661500  1
  Mo  Mo8  1  0.10352500  0.39388400  0.91161400  1
  Mo  Mo9  1  0.89647500  0.60611600  0.08838600  1
  Mo  Mo10  1  0.60925300  0.27293900  0.17979700  1
  Mo  Mo11  1  0.89074700  0.27293900  0.67979700  1
  O  O0  1  0.43979300  0.90753900  0.68174900  1
  O  O1  1  0.61797400  0.41741200  0.22698200  1
  O  O2  1  0.84904100  0.20730300  0.41008700  1
  O  O3  1  0.52127500  0.43415900  0.65038400  1
  O  O4  1  0.34904100  0.79269700  0.08991300  1
  O  O5  1  0.70295400  0.60353600  0.47781900  1
  O  O6  1  0.47872500  0.56584100  0.34961600  1
  O  O7  1  0.11797400  0.58258800  0.27301800  1
  O  O8  1  0.74390700  0.24712000  0.12279400  1
  O  O9  1  0.17144300  0.07419600  0.59339200  1
  O  O10  1  0.32855700  0.07419600  0.09339200  1
  O  O11  1  0.01125700  0.21752300  0.99135900  1
  O  O12  1  0.66493800  0.97998300  0.57128400  1
  O  O13  1  0.65095900  0.20730300  0.91008700  1
  O  O14  1  0.25609300  0.75288000  0.87720600  1
  O  O15  1  0.75609300  0.24712000  0.62279400  1
  O  O16  1  0.83506200  0.97998300  0.07128400  1
  O  O17  1  0.90901200  0.91114800  0.63690900  1
  O  O18  1  0.88202600  0.41741200  0.72698200  1
  O  O19  1  0.98874300  0.78247700  0.00864100  1
  O  O20  1  0.00102300  0.67514200  0.43602300  1
  O  O21  1  0.50102300  0.32485800  0.06397700  1
  O  O22  1  0.99897700  0.32485800  0.56397700  1
  O  O23  1  0.93979300  0.09246100  0.81825100  1
  O  O24  1  0.56020700  0.09246100  0.31825100  1
  O  O25  1  0.40901200  0.08885200  0.86309100  1
  O  O26  1  0.38202600  0.58258800  0.77301800  1
  O  O27  1  0.59098800  0.91114800  0.13690900  1
  O  O28  1  0.24390700  0.75288000  0.37720600  1
  O  O29  1  0.49897700  0.67514200  0.93602300  1
  O  O30  1  0.48874300  0.21752300  0.49135900  1
  O  O31  1  0.16493800  0.02001700  0.92871600  1
  O  O32  1  0.15095900  0.79269700  0.58991300  1
  O  O33  1  0.02127500  0.56584100  0.84961600  1
  O  O34  1  0.97872500  0.43415900  0.15038400  1
  O  O35  1  0.17768800  0.38783800  0.78440500  1
  O  O36  1  0.29704600  0.39646400  0.52218100  1
  O  O37  1  0.67768800  0.61216200  0.71559500  1
  O  O38  1  0.09098800  0.08885200  0.36309100  1
  O  O39  1  0.06020700  0.90753900  0.18174900  1
  O  O40  1  0.82855700  0.92580400  0.40660800  1
  O  O41  1  0.33506200  0.02001700  0.42871600  1
  O  O42  1  0.79704600  0.60353600  0.97781900  1
  O  O43  1  0.32231200  0.38783800  0.28440500  1
  O  O44  1  0.51125700  0.78247700  0.50864100  1
  O  O45  1  0.20295400  0.39646400  0.02218100  1
  O  O46  1  0.67144300  0.92580400  0.90660800  1
  O  O47  1  0.82231200  0.61216200  0.21559500  1
loop_
_geom_bond_atom_site_label_1
_geom_bond_atom_site_label_2
_geom_bond_distance
_geom_bond_site_symmetry_2
Na0 O28 2.416002 1_555
Na0 O27 2.456696 1_555
Na0 O6 2.457920 1_555
Na0 O44 2.602598 1_555
Na0 O10 2.710593 1_565
Na0 O4 2.794489 1_555
Na1 O18 2.364752 1_555
Na1 O8 2.432806 1_556
Na1 O37 2.464671 1_555
Na1 O42 2.479487 1_555
Na1 O13 2.512147 1_555
Na2 O7 2.364752 1_555
Na2 O14 2.432806 1_554
Na2 O43 2.464671 1_555
Na2 O45 2.479487 1_555
Na2 O4 2.512147 1_555
Na3 O8 2.416002 1_555
Na3 O38 2.456696 1_655
Na3 O34 2.457920 1_555
Na3 O11 2.602598 1_654
Na3 O40 2.710593 1_545
Na3 O2 2.794489 1_555
Na4 O22 2.311838 1_455
Na4 O7 2.377853 1_555
Na4 O34 2.458510 1_455
Na4 O2 2.459962 1_455
Na4 O38 2.546258 1_555
Na5 O1 2.364752 1_555
Na5 O15 2.432806 1_555
Na5 O47 2.464671 1_555
Na5 O5 2.479487 1_555
Na5 O2 2.512147 1_555
Na6 O21 2.311838 1_556
Na6 O26 2.377853 1_555
Na6 O3 2.458510 1_555
Na6 O13 2.459962 1_555
Na6 O25 2.546258 1_555
Na7 O46 2.290321 1_555
Na7 O42 2.325001 1_555
Na7 O37 2.380468 1_555
Na7 O29 2.558010 1_555
Na7 O12 2.621790 1_555
Na8 O20 2.311838 1_655
Na8 O18 2.377853 1_555
Na8 O33 2.458510 1_655
Na8 O32 2.459962 1_655
Na8 O17 2.546258 1_555
Na9 O26 2.364752 1_555
Na9 O28 2.432806 1_555
Na9 O35 2.464671 1_555
Na9 O36 2.479487 1_555
Na9 O32 2.512147 1_555
Na10 O10 2.290321 1_555
Na10 O45 2.325001 1_555
Na10 O43 2.380468 1_555
Na10 O21 2.558010 1_555
Na10 O41 2.621790 1_555
Na11 O15 2.416002 1_555
Na11 O25 2.456696 1_555
Na11 O3 2.457920 1_555
Na11 O30 2.602598 1_555
Na11 O46 2.710593 1_545
Na11 O13 2.794489 1_555
Na12 O29 2.311838 1_554
Na12 O1 2.377853 1_555
Na12 O6 2.458510 1_555
Na12 O4 2.459962 1_555
Na12 O27 2.546258 1_555
Na13 O14 2.416002 1_555
Na13 O17 2.456696 1_455
Na13 O33 2.457920 1_555
Na13 O19 2.602598 1_456
Na13 O9 2.710593 1_565
Na13 O32 2.794489 1_555
Na14 O40 2.290321 1_555
Na14 O5 2.325001 1_555
Na14 O47 2.380468 1_555
Na14 O20 2.558010 1_655
Na14 O16 2.621790 1_555
Na15 O9 2.290321 1_555
Na15 O36 2.325001 1_555
Na15 O35 2.380468 1_555
Na15 O22 2.558010 1_455
Na15 O31 2.621790 1_555
Hf0 O0 2.049060 1_545
Hf0 O24 2.049060 1_555
Hf0 O12 2.083024 1_545
Hf0 O41 2.083024 1_555
Hf0 O44 2.112583 1_545
Hf0 O30 2.112583 1_555
Hf1 O39 2.049060 1_545
Hf1 O23 2.049060 1_454
Hf1 O16 2.083024 1_445
Hf1 O31 2.083024 1_554
Hf1 O11 2.112583 1_554
Hf1 O19 2.112583 1_445
Mo0 O29 1.767589 1_555
Mo0 O26 1.777180 1_555
Mo0 O14 1.785201 1_555
Mo0 O0 1.859392 1_555
Mo1 O9 1.769130 1_565
Mo1 O32 1.781205 1_555
Mo1 O38 1.785234 1_565
Mo1 O41 1.874491 1_565
Mo2 O46 1.769130 1_544
Mo2 O13 1.781205 1_554
Mo2 O27 1.785234 1_545
Mo2 O16 1.874491 1_545
Mo3 O10 1.769130 1_566
Mo3 O4 1.781205 1_556
Mo3 O25 1.785234 1_565
Mo3 O31 1.874491 1_565
Mo4 O20 1.767589 1_555
Mo4 O7 1.777180 1_555
Mo4 O28 1.785201 1_555
Mo4 O39 1.859392 1_555
Mo5 O5 1.776080 1_555
Mo5 O3 1.781766 1_555
Mo5 O37 1.784191 1_555
Mo5 O44 1.881851 1_555
Mo6 O36 1.776080 1_555
Mo6 O6 1.781766 1_555
Mo6 O43 1.784191 1_555
Mo6 O30 1.881851 1_555
Mo7 O40 1.769130 1_545
Mo7 O2 1.781205 1_555
Mo7 O17 1.785234 1_545
Mo7 O12 1.874491 1_545
Mo8 O45 1.776080 1_556
Mo8 O33 1.781766 1_555
Mo8 O35 1.784191 1_555
Mo8 O11 1.881851 1_555
Mo9 O42 1.776080 1_554
Mo9 O34 1.781766 1_555
Mo9 O47 1.784191 1_555
Mo9 O19 1.881851 1_555
Mo10 O21 1.767589 1_555
Mo10 O1 1.777180 1_555
Mo10 O8 1.785201 1_555
Mo10 O24 1.859392 1_555
Mo11 O22 1.767589 1_555
Mo11 O18 1.777180 1_555
Mo11 O15 1.785201 1_555
Mo11 O23 1.859392 1_555
