# generated using pymatgen
data_SmCoSb3
_symmetry_space_group_name_H-M   'P 1'
_cell_length_a   6.18340600
_cell_length_b   12.10737800
_cell_length_c   12.59718800
_cell_angle_alpha   90.00000000
_cell_angle_beta   90.00000000
_cell_angle_gamma   90.00000000
_symmetry_Int_Tables_number   1
_chemical_formula_structural   SmCoSb3
_chemical_formula_sum   'Sm8 Co8 Sb24'
_cell_volume   943.08638558
_cell_formula_units_Z   8
loop_
 _symmetry_equiv_pos_site_id
 _symmetry_equiv_pos_as_xyz
  1  'x, y, z'
loop_
 _atom_site_type_symbol
 _atom_site_label
 _atom_site_symmetry_multiplicity
 _atom_site_fract_x
 _atom_site_fract_y
 _atom_site_fract_z
 _atom_site_occupancy
  Sm  Sm0  1  0.72241400  0.25000000  0.69645600  1
  Sm  Sm1  1  0.75000000  0.00000000  0.29995800  1
  Sm  Sm2  1  0.22241400  0.25000000  0.30354400  1
  Sm  Sm3  1  0.25000000  0.00000000  0.70004200  1
  Sm  Sm4  1  0.75000000  0.50000000  0.29995800  1
  Sm  Sm5  1  0.25000000  0.50000000  0.70004200  1
  Sm  Sm6  1  0.77758600  0.75000000  0.69645600  1
  Sm  Sm7  1  0.27758600  0.75000000  0.30354400  1
  Co  Co0  1  0.53746000  0.63604200  0.89997200  1
  Co  Co1  1  0.53746000  0.86395800  0.89997200  1
  Co  Co2  1  0.96254000  0.13604200  0.89997200  1
  Co  Co3  1  0.03746000  0.86395800  0.10002800  1
  Co  Co4  1  0.46254000  0.13604200  0.10002800  1
  Co  Co5  1  0.96254000  0.36395800  0.89997200  1
  Co  Co6  1  0.46254000  0.36395800  0.10002800  1
  Co  Co7  1  0.03746000  0.63604200  0.10002800  1
  Sb  Sb0  1  0.25000000  0.00000000  0.22282200  1
  Sb  Sb1  1  0.25000000  0.50000000  0.22282200  1
  Sb  Sb2  1  0.48626500  0.12430900  0.49716500  1
  Sb  Sb3  1  0.73261800  0.25000000  0.21734700  1
  Sb  Sb4  1  0.38518600  0.75000000  0.05578000  1
  Sb  Sb5  1  0.51373500  0.62430900  0.50283500  1
  Sb  Sb6  1  0.88518600  0.75000000  0.94422000  1
  Sb  Sb7  1  0.11481400  0.25000000  0.05578000  1
  Sb  Sb8  1  0.61481400  0.25000000  0.94422000  1
  Sb  Sb9  1  0.25000000  0.50000000  0.97218000  1
  Sb  Sb10  1  0.75000000  0.50000000  0.02782000  1
  Sb  Sb11  1  0.01373500  0.87569100  0.49716500  1
  Sb  Sb12  1  0.98626500  0.37569100  0.50283500  1
  Sb  Sb13  1  0.76738200  0.75000000  0.21734700  1
  Sb  Sb14  1  0.25000000  0.00000000  0.97218000  1
  Sb  Sb15  1  0.51373500  0.87569100  0.50283500  1
  Sb  Sb16  1  0.75000000  0.00000000  0.02782000  1
  Sb  Sb17  1  0.23261800  0.25000000  0.78265300  1
  Sb  Sb18  1  0.48626500  0.37569100  0.49716500  1
  Sb  Sb19  1  0.75000000  0.00000000  0.77717800  1
  Sb  Sb20  1  0.26738200  0.75000000  0.78265300  1
  Sb  Sb21  1  0.01373500  0.62430900  0.49716500  1
  Sb  Sb22  1  0.98626500  0.12430900  0.50283500  1
  Sb  Sb23  1  0.75000000  0.50000000  0.77717800  1
loop_
_geom_bond_atom_site_label_1
_geom_bond_atom_site_label_2
_geom_bond_distance
_geom_bond_site_symmetry_2
Co0 Sb4 2.577320 1_556
Co0 Sb9 2.588402 1_555
Co0 Sb23 2.613987 1_555
Co0 Sb6 2.614846 1_555
Co0 Sb20 2.622351 1_555
Co0 Sb10 2.652159 1_556
Co0 Co1 2.759465 1_555
Co0 Sm6 3.268179 1_555
Co0 Sm5 3.495074 1_555
Co1 Sb4 2.577320 1_556
Co1 Sb14 2.588402 1_565
Co1 Sb19 2.613987 1_565
Co1 Sb6 2.614846 1_555
Co1 Sb20 2.622351 1_555
Co1 Sb16 2.652159 1_566
Co1 Sm6 3.268179 1_555
Co1 Sm3 3.495074 1_565
Co2 Sb7 2.577320 1_656
Co2 Sb14 2.588402 1_655
Co2 Sb19 2.613987 1_555
Co2 Sb8 2.614846 1_555
Co2 Sb17 2.622351 1_655
Co2 Sb16 2.652159 1_556
Co2 Co5 2.759465 1_555
Co2 Sm0 3.268179 1_555
Co2 Sm3 3.495074 1_655
Co3 Sb6 2.577320 1_454
Co3 Sb16 2.588402 1_465
Co3 Sb0 2.613987 1_565
Co3 Sb4 2.614846 1_555
Co3 Sb13 2.622351 1_455
Co3 Sb14 2.652159 1_564
Co3 Co7 2.759465 1_555
Co3 Sm7 3.268179 1_555
Co3 Sm1 3.495074 1_465
Co4 Sb8 2.577320 1_554
Co4 Sb16 2.588402 1_555
Co4 Sb0 2.613987 1_555
Co4 Sb7 2.614846 1_555
Co4 Sb3 2.622351 1_555
Co4 Sb14 2.652159 1_554
Co4 Co6 2.759465 1_555
Co4 Sm2 3.268179 1_555
Co4 Sm1 3.495074 1_555
Co5 Sb7 2.577320 1_656
Co5 Sb9 2.588402 1_655
Co5 Sb23 2.613987 1_555
Co5 Sb8 2.614846 1_555
Co5 Sb17 2.622351 1_655
Co5 Sb10 2.652159 1_556
Co5 Sm0 3.268179 1_555
Co5 Sm5 3.495074 1_655
Co6 Sb8 2.577320 1_554
Co6 Sb10 2.588402 1_555
Co6 Sb1 2.613987 1_555
Co6 Sb7 2.614846 1_555
Co6 Sb3 2.622351 1_555
Co6 Sb9 2.652159 1_554
Co6 Sm2 3.268179 1_555
Co6 Sm4 3.495074 1_555
Co7 Sb6 2.577320 1_454
Co7 Sb10 2.588402 1_455
Co7 Sb1 2.613987 1_555
Co7 Sb4 2.614846 1_555
Co7 Sb13 2.622351 1_455
Co7 Sb9 2.652159 1_554
Co7 Sm7 3.268179 1_555
Co7 Sm4 3.495074 1_455
Sb0 Sm7 3.197641 1_545
Sb0 Sm2 3.197641 1_555
Sb0 Sm1 3.240806 1_555
Sb0 Sm1 3.240806 1_455
Sb1 Sm7 3.197641 1_555
Sb1 Sm2 3.197641 1_555
Sb1 Sm4 3.240806 1_455
Sb1 Sm4 3.240806 1_555
Sb2 Sb22 3.092528 1_555
Sb2 Sb22 3.092528 1_455
Sb2 Sm0 3.278823 1_555
Sb2 Sm2 3.305562 1_555
Sb2 Sm3 3.306204 1_555
Sb2 Sm1 3.331089 1_555
Sb3 Sb7 3.118888 1_655
Sb3 Sm1 3.202550 1_555
Sb3 Sm4 3.202550 1_555
Sb3 Sm2 3.217377 1_655
Sb3 Sm2 3.336435 1_555
Sb4 Sm7 3.191257 1_555
Sb5 Sm7 3.278823 1_555
Sb5 Sm6 3.305562 1_555
Sb5 Sm4 3.306204 1_555
Sb5 Sm5 3.331089 1_555
Sb6 Sm6 3.191257 1_555
Sb7 Sm2 3.191257 1_555
Sb8 Sm0 3.191257 1_555
Sb9 Sm5 3.428174 1_555
Sb10 Sm4 3.428174 1_555
Sb11 Sb22 3.015747 1_465
Sb11 Sb21 3.043577 1_555
Sb11 Sb15 3.092528 1_455
Sb11 Sb15 3.092528 1_555
Sb11 Sm6 3.278823 1_455
Sb11 Sm7 3.305562 1_555
Sb11 Sm3 3.306204 1_565
Sb11 Sm1 3.331089 1_465
Sb12 Sb21 3.015747 1_655
Sb12 Sb22 3.043577 1_555
Sb12 Sb18 3.092528 1_555
Sb12 Sb18 3.092528 1_655
Sb12 Sm2 3.278823 1_655
Sb12 Sm0 3.305562 1_555
Sb12 Sm4 3.306204 1_555
Sb12 Sm5 3.331089 1_655
Sb13 Sb4 3.118888 1_555
Sb13 Sm4 3.202550 1_555
Sb13 Sm1 3.202550 1_565
Sb13 Sm7 3.217377 1_555
Sb13 Sm7 3.336435 1_655
Sb14 Sm3 3.428174 1_555
Sb15 Sb2 3.015747 1_565
Sb15 Sb5 3.043577 1_555
Sb15 Sm7 3.278823 1_555
Sb15 Sm6 3.305562 1_555
Sb15 Sm1 3.306204 1_565
Sb15 Sm3 3.331089 1_565
Sb16 Sm1 3.428174 1_555
Sb17 Sb8 3.118888 1_555
Sb17 Sm5 3.202550 1_555
Sb17 Sm3 3.202550 1_555
Sb17 Sm0 3.217377 1_555
Sb17 Sm0 3.336435 1_455
Sb18 Sb5 3.015747 1_555
Sb18 Sb2 3.043577 1_555
Sb18 Sm0 3.278823 1_555
Sb18 Sm2 3.305562 1_555
Sb18 Sm5 3.306204 1_555
Sb18 Sm4 3.331089 1_555
Sb19 Sm0 3.197641 1_555
Sb19 Sm6 3.197641 1_545
Sb19 Sm3 3.240806 1_555
Sb19 Sm3 3.240806 1_655
Sb20 Sb6 3.118888 1_455
Sb20 Sm5 3.202550 1_555
Sb20 Sm3 3.202550 1_565
Sb20 Sm6 3.217377 1_455
Sb20 Sm6 3.336435 1_555
Sb21 Sb5 3.092528 1_455
Sb21 Sb5 3.092528 1_555
Sb21 Sm6 3.278823 1_455
Sb21 Sm7 3.305562 1_555
Sb21 Sm5 3.306204 1_555
Sb21 Sm4 3.331089 1_455
Sb22 Sm2 3.278823 1_655
Sb22 Sm0 3.305562 1_555
Sb22 Sm1 3.306204 1_555
Sb22 Sm3 3.331089 1_655
Sb23 Sm6 3.197641 1_555
Sb23 Sm0 3.197641 1_555
Sb23 Sm5 3.240806 1_655
Sb23 Sm5 3.240806 1_555
