# generated using pymatgen
data_Cs4Cu3F10
_symmetry_space_group_name_H-M   'P 1'
_cell_length_a   6.24947350
_cell_length_b   7.66065658
_cell_length_c   7.90329785
_cell_angle_alpha   114.31805869
_cell_angle_beta   89.99481031
_cell_angle_gamma   114.05094466
_symmetry_Int_Tables_number   1
_chemical_formula_structural   Cs4Cu3F10
_chemical_formula_sum   'Cs4 Cu3 F10'
_cell_volume   308.40222379
_cell_formula_units_Z   1
loop_
 _symmetry_equiv_pos_site_id
 _symmetry_equiv_pos_as_xyz
  1  'x, y, z'
loop_
 _atom_site_type_symbol
 _atom_site_label
 _atom_site_symmetry_multiplicity
 _atom_site_fract_x
 _atom_site_fract_y
 _atom_site_fract_z
 _atom_site_occupancy
  Cs  Cs0  1  0.18685390  0.37414909  0.28353237  1
  Cs  Cs1  1  0.81314610  0.62585091  0.71646763  1
  Cs  Cs2  1  0.53522847  0.07025864  0.78562749  1
  Cs  Cs3  1  0.46477153  0.92974136  0.21437251  1
  Cu  Cu0  1  0.00000000  0.00000000  0.50000000  1
  Cu  Cu1  1  0.19808693  0.39514616  0.81596952  1
  Cu  Cu2  1  0.80191307  0.60485384  0.18403048  1
  F  F0  1  0.10081323  0.77918820  0.43605979  1
  F  F1  1  0.89918677  0.22081180  0.56394021  1
  F  F2  1  0.32126065  0.22113230  0.56317381  1
  F  F3  1  0.67873935  0.77886770  0.43682619  1
  F  F4  1  0.93434905  0.87031779  0.17096502  1
  F  F5  1  0.06565095  0.12968221  0.82903498  1
  F  F6  1  0.67969875  0.35923549  0.22051100  1
  F  F7  1  0.32030125  0.64076451  0.77948900  1
  F  F8  1  0.50000000  0.50000000  0.00000000  1
  F  F9  1  0.00000000  0.50000000  0.00000000  1
loop_
_geom_bond_atom_site_label_1
_geom_bond_atom_site_label_2
_geom_bond_distance
_geom_bond_site_symmetry_2
Cs0 F0 3.106328 1_555
Cs0 F3 3.109425 1_555
Cs0 F2 3.146541 1_555
Cs0 F1 3.153588 1_455
Cs0 F6 3.156712 1_455
Cs0 F6 3.160275 1_555
Cs0 F9 3.164159 1_555
Cs0 F8 3.165649 1_555
Cs0 F5 3.207414 1_554
Cs0 F4 3.222803 1_445
Cs0 F7 3.499960 1_555
Cs1 F1 3.106328 1_555
Cs1 F2 3.109425 1_555
Cs1 F3 3.146541 1_555
Cs1 F0 3.153588 1_655
Cs1 F7 3.156712 1_655
Cs1 F7 3.160275 1_555
Cs1 F9 3.164159 1_656
Cs1 F8 3.165649 1_556
Cs1 F4 3.207414 1_556
Cs1 F5 3.222803 1_665
Cs1 F6 3.499960 1_555
Cs2 F7 2.983002 1_545
Cs2 F1 3.016414 1_555
Cs2 F2 3.024672 1_555
Cs2 F6 3.103835 1_556
Cs2 F8 3.123111 1_556
Cs2 F9 3.123782 1_656
Cs2 F5 3.145943 1_555
Cs2 F3 3.154341 1_545
Cs2 F5 3.155127 1_655
Cs2 F0 3.157312 1_545
Cs3 F6 2.983002 1_565
Cs3 F0 3.016414 1_555
Cs3 F3 3.024672 1_555
Cs3 F7 3.103835 1_554
Cs3 F8 3.123111 1_555
Cs3 F9 3.123782 1_555
Cs3 F4 3.145943 1_555
Cs3 F2 3.154341 1_565
Cs3 F4 3.155127 1_455
Cs3 F1 3.157312 1_565
Cu0 F1 1.917886 1_455
Cu0 F0 1.917886 1_545
Cu0 F2 1.918655 1_555
Cu0 F3 1.918655 1_445
Cu0 F4 2.336219 1_445
Cu0 F5 2.336219 1_555
Cu1 F7 1.866081 1_555
Cu1 F5 1.905867 1_555
Cu1 F8 2.030663 1_556
Cu1 F9 2.034970 1_556
Cu1 F2 2.236934 1_555
Cu1 F1 2.239812 1_455
Cu2 F6 1.866081 1_555
Cu2 F4 1.905867 1_555
Cu2 F8 2.030663 1_555
Cu2 F9 2.034970 1_655
Cu2 F3 2.236934 1_555
Cu2 F0 2.239812 1_655
