# generated using pymatgen
data_Sm(SiOs)2
_symmetry_space_group_name_H-M   'P 1'
_cell_length_a   4.19133075
_cell_length_b   4.19133018
_cell_length_c   5.70106884
_cell_angle_alpha   111.56715871
_cell_angle_beta   111.56715515
_cell_angle_gamma   89.99999463
_symmetry_Int_Tables_number   1
_chemical_formula_structural   Sm(SiOs)2
_chemical_formula_sum   'Sm1 Si2 Os2'
_cell_volume   85.55551844
_cell_formula_units_Z   1
loop_
 _symmetry_equiv_pos_site_id
 _symmetry_equiv_pos_as_xyz
  1  'x, y, z'
loop_
 _atom_site_type_symbol
 _atom_site_label
 _atom_site_symmetry_multiplicity
 _atom_site_fract_x
 _atom_site_fract_y
 _atom_site_fract_z
 _atom_site_occupancy
  Sm  Sm0  1  -0.00000000  0.00000000  0.00000000  1
  Si  Si0  1  0.36771574  0.36771574  0.73543148  1
  Si  Si1  1  0.63228426  0.63228426  0.26456852  1
  Os  Os0  1  0.75000000  0.25000000  0.50000000  1
  Os  Os1  1  0.25000000  0.75000000  0.50000000  1
loop_
_geom_bond_atom_site_label_1
_geom_bond_atom_site_label_2
_geom_bond_distance
_geom_bond_site_symmetry_2
Si0 Sm0 3.231693 1_566
Si0 Sm0 3.231693 1_556
Si0 Sm0 3.231693 1_656
Si0 Sm0 3.231694 1_666
Si1 Sm0 3.231693 1_655
Si1 Sm0 3.231693 1_665
Si1 Sm0 3.231693 1_565
Si1 Sm0 3.231694 1_555
Os0 Si1 2.388825 1_555
Os0 Si0 2.388825 1_555
Os0 Si1 2.388825 1_545
Os0 Si0 2.388825 1_655
Os0 Sm0 3.212702 1_655
Os0 Sm0 3.212702 1_656
Os0 Sm0 3.212702 1_666
Os0 Sm0 3.212703 1_555
Os1 Si0 2.388825 1_555
Os1 Si1 2.388825 1_555
Os1 Si0 2.388825 1_565
Os1 Si1 2.388825 1_455
Os1 Sm0 3.212702 1_566
Os1 Sm0 3.212702 1_565
Os1 Sm0 3.212702 1_555
Os1 Sm0 3.212703 1_666
