# generated using pymatgen
data_Na3B(PO4)2
_symmetry_space_group_name_H-M   'P 1'
_cell_length_a   8.21118036
_cell_length_b   8.21118036
_cell_length_c   10.33790007
_cell_angle_alpha   88.16906915
_cell_angle_beta   88.16906915
_cell_angle_gamma   78.57458170
_symmetry_Int_Tables_number   1
_chemical_formula_structural   Na3B(PO4)2
_chemical_formula_sum   'Na12 B4 P8 O32'
_cell_volume   682.62234401
_cell_formula_units_Z   4
loop_
 _symmetry_equiv_pos_site_id
 _symmetry_equiv_pos_as_xyz
  1  'x, y, z'
loop_
 _atom_site_type_symbol
 _atom_site_label
 _atom_site_symmetry_multiplicity
 _atom_site_fract_x
 _atom_site_fract_y
 _atom_site_fract_z
 _atom_site_occupancy
  Na  Na0  1  0.14289900  0.36351200  0.73181100  1
  Na  Na1  1  0.95789300  0.04210700  0.75000000  1
  Na  Na2  1  0.70355800  0.47367800  0.62004600  1
  Na  Na3  1  0.63648800  0.85710100  0.76818900  1
  Na  Na4  1  0.29644200  0.52632200  0.37995400  1
  Na  Na5  1  0.47367800  0.70355800  0.12004600  1
  Na  Na6  1  0.34719600  0.65280400  0.75000000  1
  Na  Na7  1  0.85710100  0.63648800  0.26818900  1
  Na  Na8  1  0.04210700  0.95789300  0.25000000  1
  Na  Na9  1  0.52632200  0.29644200  0.87995400  1
  Na  Na10  1  0.36351200  0.14289900  0.23181100  1
  Na  Na11  1  0.65280400  0.34719600  0.25000000  1
  B  B0  1  0.75485200  0.97809000  0.49859900  1
  B  B1  1  0.24514800  0.02191000  0.50140100  1
  B  B2  1  0.02191000  0.24514800  0.00140100  1
  B  B3  1  0.97809000  0.75485200  0.99859900  1
  P  P0  1  0.94525300  0.22706200  0.45775000  1
  P  P1  1  0.46887700  0.21017100  0.56134100  1
  P  P2  1  0.21017100  0.46887700  0.06134100  1
  P  P3  1  0.77293800  0.05474700  0.04225000  1
  P  P4  1  0.53112300  0.78982900  0.43865900  1
  P  P5  1  0.05474700  0.77293800  0.54225000  1
  P  P6  1  0.22706200  0.94525300  0.95775000  1
  P  P7  1  0.78982900  0.53112300  0.93865900  1
  O  O0  1  0.25718900  0.93539700  0.10257400  1
  O  O1  1  0.93539700  0.25718900  0.60257400  1
  O  O2  1  0.08960200  0.84124600  0.91994800  1
  O  O3  1  0.91039800  0.15875400  0.08005200  1
  O  O4  1  0.74281100  0.06460300  0.89742600  1
  O  O5  1  0.27285900  0.46856400  0.92159900  1
  O  O6  1  0.06979400  0.62973100  0.08958500  1
  O  O7  1  0.65851400  0.53982200  0.83679700  1
  O  O8  1  0.62973100  0.06979400  0.58958500  1
  O  O9  1  0.37939000  0.88623000  0.87371800  1
  O  O10  1  0.93020600  0.37026900  0.91041500  1
  O  O11  1  0.12101600  0.31599500  0.09344800  1
  O  O12  1  0.62061000  0.11377000  0.12628200  1
  O  O13  1  0.11377000  0.62061000  0.62628200  1
  O  O14  1  0.13842000  0.12991600  0.91314900  1
  O  O15  1  0.37026900  0.93020600  0.41041500  1
  O  O16  1  0.68400500  0.87898400  0.40655200  1
  O  O17  1  0.34148600  0.46017800  0.16320300  1
  O  O18  1  0.15875400  0.91039800  0.58005200  1
  O  O19  1  0.87008400  0.86158000  0.58685100  1
  O  O20  1  0.72714100  0.53143600  0.07840100  1
  O  O21  1  0.46856400  0.27285900  0.42159900  1
  O  O22  1  0.31599500  0.12101600  0.59344800  1
  O  O23  1  0.88623000  0.37939000  0.37371800  1
  O  O24  1  0.84124600  0.08960200  0.41994800  1
  O  O25  1  0.53143600  0.72714100  0.57840100  1
  O  O26  1  0.53982200  0.65851400  0.33679700  1
  O  O27  1  0.06460300  0.74281100  0.39742600  1
  O  O28  1  0.86158000  0.87008400  0.08685100  1
  O  O29  1  0.46017800  0.34148600  0.66320300  1
  O  O30  1  0.12991600  0.13842000  0.41314900  1
  O  O31  1  0.87898400  0.68400500  0.90655200  1
loop_
_geom_bond_atom_site_label_1
_geom_bond_atom_site_label_2
_geom_bond_distance
_geom_bond_site_symmetry_2
Na0 O13 2.318078 1_555
Na0 O10 2.494887 1_455
Na0 O1 2.501915 1_455
Na0 O5 2.517726 1_555
Na0 O22 2.638520 1_555
Na0 O14 2.643587 1_555
Na0 O29 2.650747 1_555
Na1 O4 2.278750 1_555
Na1 O1 2.278750 1_555
Na1 O18 2.491208 1_645
Na1 O2 2.491208 1_645
Na1 O19 2.494550 1_545
Na1 O14 2.494550 1_655
Na2 O25 2.308814 1_555
Na2 O7 2.323352 1_555
Na2 O1 2.339745 1_555
Na2 O29 2.478406 1_555
Na3 O9 2.318078 1_555
Na3 O8 2.494887 1_565
Na3 O4 2.501915 1_565
Na3 O25 2.517726 1_555
Na3 O31 2.638520 1_555
Na3 O19 2.643587 1_555
Na3 O7 2.650747 1_555
Na4 O21 2.308814 1_555
Na4 O17 2.323352 1_555
Na4 O27 2.339745 1_555
Na4 O26 2.478406 1_555
Na5 O20 2.308814 1_555
Na5 O26 2.323352 1_555
Na5 O0 2.339745 1_555
Na5 O17 2.478406 1_555
Na6 O13 2.399672 1_555
Na6 O9 2.399672 1_555
Na6 O5 2.435851 1_555
Na6 O25 2.435851 1_555
Na6 O7 2.711869 1_555
Na6 O29 2.711869 1_555
Na6 O2 2.931624 1_555
Na6 O18 2.931624 1_555
Na7 O23 2.318078 1_555
Na7 O6 2.494887 1_655
Na7 O27 2.501915 1_655
Na7 O20 2.517726 1_555
Na7 O16 2.638520 1_555
Na7 O28 2.643587 1_555
Na7 O26 2.650747 1_555
Na8 O0 2.278750 1_555
Na8 O27 2.278750 1_555
Na8 O3 2.491208 1_465
Na8 O24 2.491208 1_465
Na8 O30 2.494550 1_565
Na8 O28 2.494550 1_455
Na9 O5 2.308814 1_555
Na9 O29 2.323352 1_555
Na9 O4 2.339745 1_555
Na9 O7 2.478406 1_555
Na10 O12 2.318078 1_555
Na10 O15 2.494887 1_545
Na10 O0 2.501915 1_545
Na10 O21 2.517726 1_555
Na10 O11 2.638520 1_555
Na10 O30 2.643587 1_555
Na10 O17 2.650747 1_555
Na11 O12 2.399672 1_555
Na11 O23 2.399672 1_555
Na11 O21 2.435851 1_555
Na11 O20 2.435851 1_555
Na11 O26 2.711869 1_555
Na11 O17 2.711869 1_555
Na11 O24 2.931624 1_555
Na11 O3 2.931624 1_555
B0 O24 1.475016 1_565
B0 O16 1.475993 1_555
B0 O8 1.477933 1_565
B0 O19 1.511174 1_555
B1 O18 1.475016 1_545
B1 O22 1.475993 1_555
B1 O15 1.477933 1_545
B1 O30 1.511174 1_555
B2 O3 1.475016 1_455
B2 O11 1.475993 1_555
B2 O10 1.477933 1_454
B2 O14 1.511174 1_554
B3 O2 1.475016 1_655
B3 O31 1.475993 1_555
B3 O6 1.477933 1_656
B3 O28 1.511174 1_556
O0 P6 1.522260 1_554
O1 P0 1.522260 1_555
O2 P6 1.608560 1_555
O3 P3 1.608560 1_555
O4 P3 1.522260 1_556
O5 P2 1.517940 1_556
O6 P2 1.599490 1_555
O7 P7 1.521136 1_555
O8 P1 1.599490 1_555
O9 P6 1.507095 1_555
O10 P7 1.599490 1_555
O11 P2 1.594966 1_555
O12 P3 1.507095 1_555
O13 P5 1.507095 1_555
O14 P6 1.606568 1_545
O15 P4 1.599490 1_555
O16 P4 1.594966 1_555
O17 P2 1.521136 1_555
O18 P5 1.608560 1_555
O19 P5 1.606568 1_655
O20 P7 1.517940 1_554
O21 P1 1.517940 1_555
O22 P1 1.594966 1_555
O23 P0 1.507095 1_555
O24 P0 1.608560 1_555
O25 P4 1.517940 1_555
O26 P4 1.521136 1_555
O27 P5 1.522260 1_555
O28 P3 1.606568 1_565
O29 P1 1.521136 1_555
O30 P0 1.606568 1_455
O31 P7 1.594966 1_555
