# generated using pymatgen
data_K4H6C2O9
_symmetry_space_group_name_H-M   'P 1'
_cell_length_a   9.21079976
_cell_length_b   9.21079976
_cell_length_c   7.21738095
_cell_angle_alpha   70.37797996
_cell_angle_beta   70.37797996
_cell_angle_gamma   97.66289504
_symmetry_Int_Tables_number   1
_chemical_formula_structural   K4H6C2O9
_chemical_formula_sum   'K8 H12 C4 O18'
_cell_volume   521.94280116
_cell_formula_units_Z   2
loop_
 _symmetry_equiv_pos_site_id
 _symmetry_equiv_pos_as_xyz
  1  'x, y, z'
loop_
 _atom_site_type_symbol
 _atom_site_label
 _atom_site_symmetry_multiplicity
 _atom_site_fract_x
 _atom_site_fract_y
 _atom_site_fract_z
 _atom_site_occupancy
  K  K0  1  0.61685400  0.38314600  0.25000000  1
  K  K1  1  0.38314600  0.61685400  0.75000000  1
  K  K2  1  0.31450400  0.68549600  0.25000000  1
  K  K3  1  0.68549600  0.31450400  0.75000000  1
  K  K4  1  0.29306900  0.99499300  0.45969000  1
  K  K5  1  0.00500700  0.70693100  0.04031000  1
  K  K6  1  0.70693100  0.00500700  0.54031000  1
  K  K7  1  0.99499300  0.29306900  0.95969000  1
  H  H0  1  0.11481800  0.02315000  0.15468400  1
  H  H1  1  0.97685000  0.88518200  0.34531600  1
  H  H2  1  0.88518200  0.97685000  0.84531600  1
  H  H3  1  0.02315000  0.11481800  0.65468400  1
  H  H4  1  0.29954000  0.35368900  0.13084900  1
  H  H5  1  0.64631100  0.70046000  0.36915100  1
  H  H6  1  0.70046000  0.64631100  0.86915100  1
  H  H7  1  0.35368900  0.29954000  0.63084900  1
  H  H8  1  0.35906000  0.21980800  0.04947700  1
  H  H9  1  0.78019200  0.64094000  0.45052300  1
  H  H10  1  0.64094000  0.78019200  0.95052300  1
  H  H11  1  0.21980800  0.35906000  0.54947700  1
  C  C0  1  0.63705900  0.97634300  0.15010200  1
  C  C1  1  0.02365700  0.36294100  0.34989800  1
  C  C2  1  0.36294100  0.02365700  0.84989800  1
  C  C3  1  0.97634300  0.63705900  0.65010200  1
  O  O0  1  0.66915100  0.11772800  0.14843100  1
  O  O1  1  0.88227200  0.33084900  0.35156900  1
  O  O2  1  0.33084900  0.88227200  0.85156900  1
  O  O3  1  0.11772800  0.66915100  0.64843100  1
  O  O4  1  0.55386200  0.85117400  0.33296200  1
  O  O5  1  0.14882600  0.44613800  0.16703800  1
  O  O6  1  0.44613800  0.14882600  0.66703800  1
  O  O7  1  0.85117400  0.55386200  0.83296200  1
  O  O8  1  0.68597000  0.95674100  0.96957800  1
  O  O9  1  0.04325900  0.31403000  0.53042200  1
  O  O10  1  0.31403000  0.04325900  0.03042200  1
  O  O11  1  0.95674100  0.68597000  0.46957800  1
  O  O12  1  0.99960200  0.00039800  0.25000000  1
  O  O13  1  0.00039800  0.99960200  0.75000000  1
  O  O14  1  0.39393100  0.31102500  0.08595100  1
  O  O15  1  0.68897500  0.60606900  0.41404900  1
  O  O16  1  0.60606900  0.68897500  0.91404900  1
  O  O17  1  0.31102500  0.39393100  0.58595100  1
loop_
_geom_bond_atom_site_label_1
_geom_bond_atom_site_label_2
_geom_bond_distance
_geom_bond_site_symmetry_2
K0 O7 2.782707 1_554
K0 O6 2.782707 1_555
K0 O15 2.802941 1_555
K0 O14 2.802941 1_555
K0 O1 2.833119 1_555
K0 O0 2.833119 1_555
K1 O4 2.782707 1_555
K1 O5 2.782707 1_556
K1 O16 2.802941 1_555
K1 O17 2.802941 1_555
K1 O2 2.833119 1_555
K1 O3 2.833119 1_555
K2 O3 2.777209 1_555
K2 O2 2.777209 1_554
K2 O4 2.854985 1_555
K2 O5 2.854985 1_555
K2 O16 2.940031 1_554
K2 O17 2.940031 1_555
K2 O11 3.141892 1_455
K2 O10 3.141892 1_565
K3 O0 2.777209 1_556
K3 O1 2.777209 1_555
K3 O7 2.854985 1_555
K3 O6 2.854985 1_555
K3 O15 2.940031 1_555
K3 O14 2.940031 1_556
K3 O9 3.141892 1_655
K3 O8 3.141892 1_545
K4 O3 2.820535 1_555
K4 O13 2.820581 1_555
K4 O2 2.825543 1_555
K4 O10 2.912731 1_565
K4 O6 2.922919 1_565
K4 O4 2.923743 1_555
K4 O14 2.989093 1_565
K4 O0 3.216759 1_565
K5 O2 2.820535 1_554
K5 O13 2.820581 1_554
K5 O3 2.825543 1_554
K5 O11 2.912731 1_455
K5 O7 2.922919 1_454
K5 O5 2.923743 1_555
K5 O15 2.989093 1_455
K5 O1 3.216759 1_455
K6 O1 2.820535 1_555
K6 O12 2.820581 1_555
K6 O0 2.825543 1_555
K6 O8 2.912731 1_545
K6 O4 2.922919 1_545
K6 O6 2.923743 1_555
K6 O16 2.989093 1_545
K6 O2 3.216759 1_545
K7 O0 2.820535 1_556
K7 O12 2.820581 1_556
K7 O1 2.825543 1_556
K7 O9 2.912731 1_655
K7 O5 2.922919 1_656
K7 O7 2.923743 1_555
K7 O17 2.989093 1_655
K7 O3 3.216759 1_655
H0 O12 0.998458 1_455
H0 K7 2.967292 1_454
H1 O12 0.998458 1_565
H1 K6 2.967292 1_565
H2 O13 0.998458 1_655
H2 K5 2.967292 1_656
H3 O13 0.998458 1_545
H3 K4 2.967292 1_545
H4 O14 1.001368 1_555
H4 K1 2.762197 1_554
H5 O15 1.001368 1_555
H5 K1 2.762197 1_555
H6 O16 1.001368 1_555
H6 K0 2.762197 1_556
H7 O17 1.001368 1_555
H7 K0 2.762197 1_555
H8 O14 1.005850 1_555
H8 K4 2.785860 1_545
H8 K3 2.853531 1_554
H9 O15 1.005850 1_555
H9 K5 2.785860 1_655
H9 K3 2.853531 1_555
H10 O16 1.005850 1_555
H10 K6 2.785860 1_565
H10 K2 2.853531 1_556
H11 O17 1.005850 1_555
H11 K7 2.785860 1_455
H11 K2 2.853531 1_555
C0 O0 1.291442 1_565
C0 O8 1.310951 1_554
C0 O4 1.312030 1_555
C1 O1 1.291442 1_455
C1 O9 1.310951 1_555
C1 O5 1.312030 1_555
C2 O2 1.291442 1_545
C2 O10 1.310951 1_556
C2 O6 1.312030 1_555
C3 O3 1.291442 1_655
C3 O11 1.310951 1_555
C3 O7 1.312030 1_555
