# generated using pymatgen
data_SeN
_symmetry_space_group_name_H-M   'P 1'
_cell_length_a   7.90360600
_cell_length_b   9.24748300
_cell_length_c   12.95086306
_cell_angle_alpha   48.10623466
_cell_angle_beta   90.00000000
_cell_angle_gamma   90.00000000
_symmetry_Int_Tables_number   1
_chemical_formula_structural   SeN
_chemical_formula_sum   'Se16 N16'
_cell_volume   704.60332585
_cell_formula_units_Z   16
loop_
 _symmetry_equiv_pos_site_id
 _symmetry_equiv_pos_as_xyz
  1  'x, y, z'
loop_
 _atom_site_type_symbol
 _atom_site_label
 _atom_site_symmetry_multiplicity
 _atom_site_fract_x
 _atom_site_fract_y
 _atom_site_fract_z
 _atom_site_occupancy
  Se  Se0  1  0.71029300  0.43713900  0.15335400  1
  Se  Se1  1  0.21029300  0.56286100  0.34664600  1
  Se  Se2  1  0.28970700  0.56286100  0.84664600  1
  Se  Se3  1  0.78970700  0.43713900  0.65335400  1
  Se  Se4  1  0.79189100  0.69350300  0.84961500  1
  Se  Se5  1  0.29189100  0.30649700  0.65038500  1
  Se  Se6  1  0.20810900  0.30649700  0.15038500  1
  Se  Se7  1  0.70810900  0.69350300  0.34961500  1
  Se  Se8  1  0.54512800  0.80053400  0.96584700  1
  Se  Se9  1  0.04512800  0.19946600  0.53415300  1
  Se  Se10  1  0.45487200  0.19946600  0.03415300  1
  Se  Se11  1  0.95487200  0.80053400  0.46584700  1
  Se  Se12  1  0.92232100  0.79938600  0.99457900  1
  Se  Se13  1  0.42232100  0.20061400  0.50542100  1
  Se  Se14  1  0.07767900  0.20061400  0.00542100  1
  Se  Se15  1  0.57767900  0.79938600  0.49457900  1
  N  N0  1  0.76091400  0.44801700  0.01198400  1
  N  N1  1  0.26091400  0.55198300  0.48801600  1
  N  N2  1  0.23908600  0.55198300  0.98801600  1
  N  N3  1  0.73908600  0.44801700  0.51198400  1
  N  N4  1  0.59488800  0.81214200  0.82389900  1
  N  N5  1  0.09488800  0.18785800  0.67610100  1
  N  N6  1  0.40511200  0.18785800  0.17610100  1
  N  N7  1  0.90511200  0.81214200  0.32389900  1
  N  N8  1  0.72464500  0.91695700  0.97001200  1
  N  N9  1  0.22464500  0.08304300  0.52998800  1
  N  N10  1  0.27535500  0.08304300  0.02998800  1
  N  N11  1  0.77535500  0.91695700  0.47001200  1
  N  N12  1  0.89014500  0.55338200  0.15726900  1
  N  N13  1  0.39014500  0.44661800  0.34273100  1
  N  N14  1  0.10985500  0.44661800  0.84273100  1
  N  N15  1  0.60985500  0.55338200  0.65726900  1
loop_
_geom_bond_atom_site_label_1
_geom_bond_atom_site_label_2
_geom_bond_distance
_geom_bond_site_symmetry_2
N0 Se4 1.805553 1_554
N0 Se0 1.810051 1_555
N1 Se5 1.805553 1_555
N1 Se1 1.810051 1_555
N2 Se6 1.805553 1_556
N2 Se2 1.810051 1_555
N3 Se7 1.805553 1_555
N3 Se3 1.810051 1_555
N4 Se4 1.803040 1_555
N4 Se8 1.811678 1_555
N5 Se5 1.803040 1_555
N5 Se9 1.811678 1_555
N6 Se6 1.803040 1_555
N6 Se10 1.811678 1_555
N7 Se7 1.803040 1_555
N7 Se11 1.811678 1_555
N8 Se8 1.803513 1_555
N8 Se12 1.806179 1_555
N9 Se9 1.803513 1_555
N9 Se13 1.806179 1_555
N10 Se10 1.803513 1_555
N10 Se14 1.806179 1_555
N11 Se11 1.803513 1_555
N11 Se15 1.806179 1_555
N12 Se0 1.803189 1_555
N12 Se12 1.810508 1_554
N13 Se1 1.803189 1_555
N13 Se13 1.810508 1_555
N14 Se2 1.803189 1_555
N14 Se14 1.810508 1_556
N15 Se3 1.803189 1_555
N15 Se15 1.810508 1_555
