# generated using pymatgen
data_In4GeS4
_symmetry_space_group_name_H-M   'P 1'
_cell_length_a   12.30395158
_cell_length_b   12.30395158
_cell_length_c   12.30395158
_cell_angle_alpha   90.00000000
_cell_angle_beta   90.00000000
_cell_angle_gamma   90.00000000
_symmetry_Int_Tables_number   1
_chemical_formula_structural   In4GeS4
_chemical_formula_sum   'In32 Ge8 S32'
_cell_volume   1862.66107987
_cell_formula_units_Z   8
loop_
 _symmetry_equiv_pos_site_id
 _symmetry_equiv_pos_as_xyz
  1  'x, y, z'
loop_
 _atom_site_type_symbol
 _atom_site_label
 _atom_site_symmetry_multiplicity
 _atom_site_fract_x
 _atom_site_fract_y
 _atom_site_fract_z
 _atom_site_occupancy
  In  In0  1  0.27429655  0.46484128  0.56002957  1
  In  In1  1  0.72367554  0.77632446  0.22367554  1
  In  In2  1  0.96484128  0.56002957  0.22570345  1
  In  In3  1  0.43997043  0.77429655  0.03515872  1
  In  In4  1  0.27632446  0.27632446  0.27632446  1
  In  In5  1  0.03515872  0.06002957  0.27429655  1
  In  In6  1  0.96484128  0.93997043  0.72570345  1
  In  In7  1  0.22367554  0.72367554  0.77632446  1
  In  In8  1  0.56002957  0.27429655  0.46484128  1
  In  In9  1  0.22570345  0.53515872  0.06002957  1
  In  In10  1  0.56002957  0.22570345  0.96484128  1
  In  In11  1  0.72570345  0.96484128  0.93997043  1
  In  In12  1  0.53515872  0.06002957  0.22570345  1
  In  In13  1  0.22570345  0.96484128  0.56002957  1
  In  In14  1  0.06002957  0.22570345  0.53515872  1
  In  In15  1  0.46484128  0.56002957  0.27429655  1
  In  In16  1  0.27429655  0.03515872  0.06002957  1
  In  In17  1  0.93997043  0.72570345  0.96484128  1
  In  In18  1  0.46484128  0.93997043  0.77429655  1
  In  In19  1  0.93997043  0.77429655  0.46484128  1
  In  In20  1  0.72367554  0.72367554  0.72367554  1
  In  In21  1  0.77632446  0.22367554  0.72367554  1
  In  In22  1  0.77429655  0.03515872  0.43997043  1
  In  In23  1  0.77632446  0.27632446  0.22367554  1
  In  In24  1  0.27632446  0.22367554  0.77632446  1
  In  In25  1  0.53515872  0.43997043  0.72570345  1
  In  In26  1  0.03515872  0.43997043  0.77429655  1
  In  In27  1  0.43997043  0.72570345  0.53515872  1
  In  In28  1  0.22367554  0.77632446  0.27632446  1
  In  In29  1  0.72570345  0.53515872  0.43997043  1
  In  In30  1  0.77429655  0.46484128  0.93997043  1
  In  In31  1  0.06002957  0.27429655  0.03515872  1
  Ge  Ge0  1  0.60077048  0.60077048  0.60077048  1
  Ge  Ge1  1  0.39922952  0.39922952  0.39922952  1
  Ge  Ge2  1  0.89922952  0.10077048  0.60077048  1
  Ge  Ge3  1  0.10077048  0.60077048  0.89922952  1
  Ge  Ge4  1  0.89922952  0.39922952  0.10077048  1
  Ge  Ge5  1  0.60077048  0.89922952  0.10077048  1
  Ge  Ge6  1  0.39922952  0.10077048  0.89922952  1
  Ge  Ge7  1  0.10077048  0.89922952  0.39922952  1
  S  S0  1  0.83054400  0.42310270  0.74660677  1
  S  S1  1  0.24660677  0.83054400  0.07689730  1
  S  S2  1  0.24660677  0.66945600  0.57689730  1
  S  S3  1  0.92310270  0.75339323  0.16945600  1
  S  S4  1  0.92347368  0.57652632  0.42347368  1
  S  S5  1  0.57689730  0.25339323  0.16945600  1
  S  S6  1  0.07689730  0.24660677  0.83054400  1
  S  S7  1  0.07689730  0.25339323  0.33054400  1
  S  S8  1  0.33054400  0.07689730  0.25339323  1
  S  S9  1  0.57652632  0.07652632  0.42347368  1
  S  S10  1  0.75339323  0.33054400  0.42310270  1
  S  S11  1  0.66945600  0.57689730  0.24660677  1
  S  S12  1  0.83054400  0.07689730  0.24660677  1
  S  S13  1  0.42310270  0.75339323  0.33054400  1
  S  S14  1  0.75339323  0.16945600  0.92310270  1
  S  S15  1  0.07652632  0.42347368  0.57652632  1
  S  S16  1  0.33054400  0.42310270  0.75339323  1
  S  S17  1  0.74660677  0.83054400  0.42310270  1
  S  S18  1  0.25339323  0.33054400  0.07689730  1
  S  S19  1  0.42310270  0.74660677  0.83054400  1
  S  S20  1  0.42347368  0.57652632  0.07652632  1
  S  S21  1  0.92347368  0.92347368  0.92347368  1
  S  S22  1  0.16945600  0.57689730  0.25339323  1
  S  S23  1  0.66945600  0.92310270  0.74660677  1
  S  S24  1  0.16945600  0.92310270  0.75339323  1
  S  S25  1  0.92310270  0.74660677  0.66945600  1
  S  S26  1  0.57689730  0.24660677  0.66945600  1
  S  S27  1  0.25339323  0.16945600  0.57689730  1
  S  S28  1  0.74660677  0.66945600  0.92310270  1
  S  S29  1  0.42347368  0.92347368  0.57652632  1
  S  S30  1  0.07652632  0.07652632  0.07652632  1
  S  S31  1  0.57652632  0.42347368  0.92347368  1
loop_
_geom_bond_atom_site_label_1
_geom_bond_atom_site_label_2
_geom_bond_distance
_geom_bond_site_symmetry_2
In0 S15 2.494290 1_555
In0 S16 2.530411 1_555
In0 S2 2.548981 1_555
In1 S3 2.558417 1_555
In1 S17 2.558417 1_555
In1 S11 2.558417 1_555
In2 S4 2.494290 1_555
In2 S3 2.530411 1_555
In2 S22 2.548981 1_655
In3 S20 2.494290 1_555
In3 S1 2.530411 1_555
In3 S19 2.548981 1_554
In4 S7 2.558417 1_555
In4 S8 2.558417 1_555
In4 S18 2.558417 1_555
In5 S30 2.494290 1_555
In5 S7 2.530411 1_555
In5 S12 2.548981 1_455
In6 S21 2.494290 1_555
In6 S25 2.530411 1_555
In6 S24 2.548981 1_655
In7 S24 2.558417 1_555
In7 S19 2.558417 1_555
In7 S2 2.558417 1_555
In8 S9 2.494290 1_555
In8 S10 2.530411 1_555
In8 S26 2.548981 1_555
In9 S20 2.494290 1_555
In9 S22 2.530411 1_555
In9 S18 2.548981 1_555
In10 S31 2.494290 1_555
In10 S14 2.530411 1_555
In10 S5 2.548981 1_556
In11 S21 2.494290 1_555
In11 S23 2.530411 1_555
In11 S14 2.548981 1_565
In12 S9 2.494290 1_555
In12 S5 2.530411 1_555
In12 S8 2.548981 1_555
In13 S29 2.494290 1_555
In13 S24 2.530411 1_555
In13 S27 2.548981 1_565
In14 S15 2.494290 1_555
In14 S27 2.530411 1_555
In14 S7 2.548981 1_555
In15 S20 2.494290 1_555
In15 S13 2.530411 1_555
In15 S11 2.548981 1_555
In16 S30 2.494290 1_555
In16 S8 2.530411 1_555
In16 S1 2.548981 1_545
In17 S21 2.494290 1_555
In17 S28 2.530411 1_555
In17 S3 2.548981 1_556
In18 S29 2.494290 1_555
In18 S19 2.530411 1_555
In18 S23 2.548981 1_555
In19 S4 2.494290 1_555
In19 S17 2.530411 1_555
In19 S25 2.548981 1_555
In20 S23 2.558417 1_555
In20 S25 2.558417 1_555
In20 S28 2.558417 1_555
In21 S14 2.558417 1_555
In21 S0 2.558417 1_555
In21 S26 2.558417 1_555
In22 S9 2.494290 1_555
In22 S12 2.530411 1_555
In22 S17 2.548981 1_545
In23 S10 2.558417 1_555
In23 S12 2.558417 1_555
In23 S5 2.558417 1_555
In24 S6 2.558417 1_555
In24 S16 2.558417 1_555
In24 S27 2.558417 1_555
In25 S31 2.494290 1_555
In25 S26 2.530411 1_555
In25 S16 2.548981 1_555
In26 S15 2.494290 1_555
In26 S6 2.530411 1_555
In26 S0 2.548981 1_455
In27 S29 2.494290 1_555
In27 S2 2.530411 1_555
In27 S13 2.548981 1_555
In28 S13 2.558417 1_555
In28 S1 2.558417 1_555
In28 S22 2.558417 1_555
In29 S4 2.494290 1_555
In29 S11 2.530411 1_555
In29 S10 2.548981 1_555
In30 S31 2.494290 1_555
In30 S0 2.530411 1_555
In30 S28 2.548981 1_555
In31 S30 2.494290 1_555
In31 S18 2.530411 1_555
In31 S6 2.548981 1_554
Ge0 In20 2.619238 1_555
Ge0 In27 2.632293 1_555
Ge0 In25 2.632293 1_555
Ge0 In29 2.632293 1_555
Ge1 In4 2.619238 1_555
Ge1 In8 2.632293 1_555
Ge1 In0 2.632293 1_555
Ge1 In15 2.632293 1_555
Ge2 In21 2.619238 1_555
Ge2 In14 2.632293 1_655
Ge2 In22 2.632293 1_555
Ge2 In6 2.632293 1_545
Ge3 In7 2.619238 1_555
Ge3 In9 2.632293 1_556
Ge3 In17 2.632293 1_455
Ge3 In26 2.632293 1_555
Ge4 In23 2.619238 1_555
Ge4 In31 2.632293 1_655
Ge4 In2 2.632293 1_555
Ge4 In30 2.632293 1_554
Ge5 In1 2.619238 1_555
Ge5 In12 2.632293 1_565
Ge5 In3 2.632293 1_555
Ge5 In11 2.632293 1_554
Ge6 In24 2.619238 1_555
Ge6 In10 2.632293 1_555
Ge6 In16 2.632293 1_556
Ge6 In18 2.632293 1_545
Ge7 In28 2.619238 1_555
Ge7 In5 2.632293 1_565
Ge7 In13 2.632293 1_555
Ge7 In19 2.632293 1_455
