# generated using pymatgen
data_Rb5NdHf(MoO4)6
_symmetry_space_group_name_H-M   'P 1'
_cell_length_a   14.74979350
_cell_length_b   14.74979350
_cell_length_c   14.74979413
_cell_angle_alpha   43.98461902
_cell_angle_beta   43.98461902
_cell_angle_gamma   43.98461713
_symmetry_Int_Tables_number   1
_chemical_formula_structural   Rb5NdHf(MoO4)6
_chemical_formula_sum   'Rb10 Nd2 Hf2 Mo12 O48'
_cell_volume   1405.59633992
_cell_formula_units_Z   2
loop_
 _symmetry_equiv_pos_site_id
 _symmetry_equiv_pos_as_xyz
  1  'x, y, z'
loop_
 _atom_site_type_symbol
 _atom_site_label
 _atom_site_symmetry_multiplicity
 _atom_site_fract_x
 _atom_site_fract_y
 _atom_site_fract_z
 _atom_site_occupancy
  Rb  Rb0  1  0.64658000  0.64658000  0.64658000  1
  Rb  Rb1  1  0.13884600  0.36115400  0.75000000  1
  Rb  Rb2  1  0.36115400  0.75000000  0.13884600  1
  Rb  Rb3  1  0.75000000  0.13884600  0.36115400  1
  Rb  Rb4  1  0.85342000  0.85342000  0.85342000  1
  Rb  Rb5  1  0.14658000  0.14658000  0.14658000  1
  Rb  Rb6  1  0.25000000  0.86115400  0.63884600  1
  Rb  Rb7  1  0.63884600  0.25000000  0.86115400  1
  Rb  Rb8  1  0.86115400  0.63884600  0.25000000  1
  Rb  Rb9  1  0.35342000  0.35342000  0.35342000  1
  Nd  Nd0  1  0.00000000  0.00000000  0.00000000  1
  Nd  Nd1  1  0.50000000  0.50000000  0.50000000  1
  Hf  Hf0  1  0.25000000  0.25000000  0.25000000  1
  Hf  Hf1  1  0.75000000  0.75000000  0.75000000  1
  Mo  Mo0  1  0.89057700  0.23966100  0.47204200  1
  Mo  Mo1  1  0.23966100  0.47204200  0.89057700  1
  Mo  Mo2  1  0.47204200  0.89057700  0.23966100  1
  Mo  Mo3  1  0.26033900  0.60942300  0.02795800  1
  Mo  Mo4  1  0.60942300  0.02795800  0.26033900  1
  Mo  Mo5  1  0.97204200  0.73966100  0.39057700  1
  Mo  Mo6  1  0.02795800  0.26033900  0.60942300  1
  Mo  Mo7  1  0.39057700  0.97204200  0.73966100  1
  Mo  Mo8  1  0.73966100  0.39057700  0.97204200  1
  Mo  Mo9  1  0.52795800  0.10942300  0.76033900  1
  Mo  Mo10  1  0.76033900  0.52795800  0.10942300  1
  Mo  Mo11  1  0.10942300  0.76033900  0.52795800  1
  O  O0  1  0.88389200  0.16125200  0.42806800  1
  O  O1  1  0.16125200  0.42806800  0.88389200  1
  O  O2  1  0.91161000  0.11467800  0.63411000  1
  O  O3  1  0.71928200  0.39278900  0.49911800  1
  O  O4  1  0.04258300  0.29591000  0.32026400  1
  O  O5  1  0.29591000  0.32026400  0.04258300  1
  O  O6  1  0.39278900  0.49911800  0.71928200  1
  O  O7  1  0.42806800  0.88389200  0.16125200  1
  O  O8  1  0.49911800  0.71928200  0.39278900  1
  O  O9  1  0.11467800  0.63411000  0.91161000  1
  O  O10  1  0.63411000  0.91161000  0.11467800  1
  O  O11  1  0.32026400  0.04258300  0.29591000  1
  O  O12  1  0.20409000  0.45741700  0.17973600  1
  O  O13  1  0.38532200  0.58839000  0.86589000  1
  O  O14  1  0.58839000  0.86589000  0.38532200  1
  O  O15  1  0.10721100  0.78071800  0.00088200  1
  O  O16  1  0.92806800  0.66125200  0.38389200  1
  O  O17  1  0.33874800  0.61610800  0.07193200  1
  O  O18  1  0.78071800  0.00088200  0.10721100  1
  O  O19  1  0.45741700  0.17973600  0.20409000  1
  O  O20  1  0.17973600  0.20409000  0.45741700  1
  O  O21  1  0.00088200  0.10721100  0.78071800  1
  O  O22  1  0.38389200  0.92806800  0.66125200  1
  O  O23  1  0.86589000  0.38532200  0.58839000  1
  O  O24  1  0.13411000  0.61467800  0.41161000  1
  O  O25  1  0.61610800  0.07193200  0.33874800  1
  O  O26  1  0.99911800  0.89278900  0.21928200  1
  O  O27  1  0.82026400  0.79591000  0.54258300  1
  O  O28  1  0.54258300  0.82026400  0.79591000  1
  O  O29  1  0.21928200  0.99911800  0.89278900  1
  O  O30  1  0.66125200  0.38389200  0.92806800  1
  O  O31  1  0.07193200  0.33874800  0.61610800  1
  O  O32  1  0.89278900  0.21928200  0.99911800  1
  O  O33  1  0.41161000  0.13411000  0.61467800  1
  O  O34  1  0.61467800  0.41161000  0.13411000  1
  O  O35  1  0.79591000  0.54258300  0.82026400  1
  O  O36  1  0.67973600  0.95741700  0.70409000  1
  O  O37  1  0.36589000  0.08839000  0.88532200  1
  O  O38  1  0.88532200  0.36589000  0.08839000  1
  O  O39  1  0.50088200  0.28071800  0.60721100  1
  O  O40  1  0.57193200  0.11610800  0.83874800  1
  O  O41  1  0.60721100  0.50088200  0.28071800  1
  O  O42  1  0.70409000  0.67973600  0.95741700  1
  O  O43  1  0.95741700  0.70409000  0.67973600  1
  O  O44  1  0.28071800  0.60721100  0.50088200  1
  O  O45  1  0.08839000  0.88532200  0.36589000  1
  O  O46  1  0.83874800  0.57193200  0.11610800  1
  O  O47  1  0.11610800  0.83874800  0.57193200  1
loop_
_geom_bond_atom_site_label_1
_geom_bond_atom_site_label_2
_geom_bond_distance
_geom_bond_site_symmetry_2
Nd0 O32 2.360244 1_454
Nd0 O15 2.360244 1_545
Nd0 O18 2.360244 1_455
Nd0 O29 2.360244 1_544
Nd0 O21 2.360244 1_554
Nd0 O26 2.360244 1_445
Nd1 O44 2.360244 1_555
Nd1 O3 2.360244 1_555
Nd1 O39 2.360244 1_555
Nd1 O8 2.360244 1_555
Nd1 O6 2.360244 1_555
Nd1 O41 2.360244 1_555
Hf0 O11 2.087636 1_555
Hf0 O19 2.087636 1_555
Hf0 O4 2.087636 1_555
Hf0 O12 2.087636 1_555
Hf0 O5 2.087636 1_555
Hf0 O20 2.087636 1_555
Hf1 O28 2.087636 1_555
Hf1 O36 2.087636 1_555
Hf1 O35 2.087636 1_555
Hf1 O43 2.087636 1_555
Hf1 O42 2.087636 1_555
Hf1 O27 2.087636 1_555
Mo0 O0 1.761690 1_555
Mo0 O2 1.763977 1_555
Mo0 O3 1.810622 1_555
Mo0 O4 1.872943 1_655
Mo1 O1 1.761690 1_555
Mo1 O9 1.763977 1_555
Mo1 O6 1.810622 1_555
Mo1 O5 1.872943 1_556
Mo2 O7 1.761690 1_555
Mo2 O10 1.763977 1_555
Mo2 O8 1.810622 1_555
Mo2 O11 1.872943 1_565
Mo3 O17 1.761690 1_555
Mo3 O13 1.763977 1_554
Mo3 O15 1.810622 1_555
Mo3 O12 1.872943 1_555
Mo4 O25 1.761690 1_555
Mo4 O14 1.763977 1_545
Mo4 O18 1.810622 1_555
Mo4 O19 1.872943 1_555
Mo5 O16 1.761690 1_555
Mo5 O24 1.763977 1_655
Mo5 O26 1.810622 1_555
Mo5 O27 1.872943 1_555
Mo6 O31 1.761690 1_555
Mo6 O23 1.763977 1_455
Mo6 O21 1.810622 1_555
Mo6 O20 1.872943 1_555
Mo7 O22 1.761690 1_555
Mo7 O33 1.763977 1_565
Mo7 O29 1.810622 1_555
Mo7 O28 1.872943 1_555
Mo8 O30 1.761690 1_555
Mo8 O34 1.763977 1_556
Mo8 O32 1.810622 1_555
Mo8 O35 1.872943 1_555
Mo9 O40 1.761690 1_555
Mo9 O37 1.763977 1_555
Mo9 O39 1.810622 1_555
Mo9 O36 1.872943 1_545
Mo10 O46 1.761690 1_555
Mo10 O38 1.763977 1_555
Mo10 O41 1.810622 1_555
Mo10 O42 1.872943 1_554
Mo11 O47 1.761690 1_555
Mo11 O45 1.763977 1_555
Mo11 O44 1.810622 1_555
Mo11 O43 1.872943 1_455
O0 Rb3 3.032655 1_555
O0 Rb5 3.038747 1_655
O1 Rb1 3.032655 1_555
O1 Rb5 3.038747 1_556
O2 Rb4 2.979265 1_545
O2 Rb7 3.171659 1_555
O2 Rb6 3.488154 1_645
O3 Rb8 3.424260 1_555
O3 Rb7 3.557088 1_555
O4 Rb8 3.284681 1_455
O4 Rb5 3.371972 1_555
O5 Rb7 3.284681 1_554
O5 Rb5 3.371972 1_555
O6 Rb7 3.424260 1_555
O6 Rb6 3.557088 1_555
O7 Rb2 3.032655 1_555
O7 Rb5 3.038747 1_565
O8 Rb6 3.424260 1_555
O8 Rb8 3.557088 1_555
O9 Rb4 2.979265 1_455
O9 Rb6 3.171659 1_555
O9 Rb8 3.488154 1_456
O10 Rb4 2.979265 1_554
O10 Rb8 3.171659 1_555
O10 Rb7 3.488154 1_564
O11 Rb6 3.284681 1_545
O11 Rb5 3.371972 1_555
O12 Rb8 3.284681 1_455
O12 Rb9 3.371972 1_555
O13 Rb0 2.979265 1_555
O13 Rb6 3.171659 1_555
O13 Rb7 3.488154 1_555
O14 Rb0 2.979265 1_555
O14 Rb8 3.171659 1_555
O14 Rb6 3.488154 1_555
O15 Rb8 3.424260 1_455
O15 Rb6 3.557088 1_554
O16 Rb8 3.032655 1_555
O16 Rb0 3.038747 1_555
O17 Rb2 3.032655 1_555
O17 Rb9 3.038747 1_555
O18 Rb7 3.424260 1_554
O18 Rb8 3.557088 1_545
O19 Rb7 3.284681 1_554
O19 Rb9 3.371972 1_555
O20 Rb6 3.284681 1_545
O20 Rb9 3.371972 1_555
O21 Rb6 3.424260 1_545
O21 Rb7 3.557088 1_455
O22 Rb6 3.032655 1_555
O22 Rb0 3.038747 1_555
O23 Rb0 2.979265 1_555
O23 Rb7 3.171659 1_555
O23 Rb8 3.488154 1_555
O24 Rb9 2.979265 1_555
O24 Rb2 3.171659 1_555
O24 Rb1 3.488154 1_555
O25 Rb3 3.032655 1_555
O25 Rb9 3.038747 1_555
O26 Rb3 3.424260 1_565
O26 Rb2 3.557088 1_655
O27 Rb3 3.284681 1_565
O27 Rb0 3.371972 1_555
O28 Rb2 3.284681 1_556
O28 Rb0 3.371972 1_555
O29 Rb2 3.424260 1_556
O29 Rb1 3.557088 1_565
O30 Rb7 3.032655 1_555
O30 Rb0 3.038747 1_555
O31 Rb1 3.032655 1_555
O31 Rb9 3.038747 1_555
O32 Rb1 3.424260 1_655
O32 Rb3 3.557088 1_556
O33 Rb9 2.979265 1_555
O33 Rb1 3.171659 1_555
O33 Rb3 3.488154 1_555
O34 Rb9 2.979265 1_555
O34 Rb3 3.171659 1_555
O34 Rb2 3.488154 1_555
O35 Rb1 3.284681 1_655
O35 Rb0 3.371972 1_555
O36 Rb3 3.284681 1_565
O36 Rb4 3.371972 1_555
O37 Rb5 2.979265 1_556
O37 Rb1 3.171659 1_555
O37 Rb2 3.488154 1_546
O38 Rb5 2.979265 1_655
O38 Rb3 3.171659 1_555
O38 Rb1 3.488154 1_654
O39 Rb3 3.424260 1_555
O39 Rb1 3.557088 1_555
O40 Rb7 3.032655 1_555
O40 Rb4 3.038747 1_545
O41 Rb2 3.424260 1_555
O41 Rb3 3.557088 1_555
O42 Rb2 3.284681 1_556
O42 Rb4 3.371972 1_555
O43 Rb1 3.284681 1_655
O43 Rb4 3.371972 1_555
O44 Rb1 3.424260 1_555
O44 Rb2 3.557088 1_555
O45 Rb5 2.979265 1_565
O45 Rb2 3.171659 1_555
O45 Rb3 3.488154 1_465
O46 Rb8 3.032655 1_555
O46 Rb4 3.038747 1_554
O47 Rb6 3.032655 1_555
O47 Rb4 3.038747 1_455
