# generated using pymatgen
data_Nd(CoB)2
_symmetry_space_group_name_H-M   'P 1'
_cell_length_a   3.56677168
_cell_length_b   3.56677132
_cell_length_c   5.56966126
_cell_angle_alpha   108.67481455
_cell_angle_beta   108.67479852
_cell_angle_gamma   89.99999345
_symmetry_Int_Tables_number   1
_chemical_formula_structural   Nd(CoB)2
_chemical_formula_sum   'Nd1 Co2 B2'
_cell_volume   63.17552325
_cell_formula_units_Z   1
loop_
 _symmetry_equiv_pos_site_id
 _symmetry_equiv_pos_as_xyz
  1  'x, y, z'
loop_
 _atom_site_type_symbol
 _atom_site_label
 _atom_site_symmetry_multiplicity
 _atom_site_fract_x
 _atom_site_fract_y
 _atom_site_fract_z
 _atom_site_occupancy
  Nd  Nd0  1  -0.00000000  -0.00000000  0.00000000  1
  Co  Co0  1  0.25000000  0.75000000  0.50000000  1
  Co  Co1  1  0.75000000  0.25000000  0.50000000  1
  B  B0  1  0.66439254  0.66439254  0.32878608  1
  B  B1  1  0.33560746  0.33560746  0.67121392  1
loop_
_geom_bond_atom_site_label_1
_geom_bond_atom_site_label_2
_geom_bond_distance
_geom_bond_site_symmetry_2
Co0 Nd0 3.057043 1_555
Co0 Nd0 3.057043 1_566
Co0 Nd0 3.057044 1_565
Co0 Nd0 3.057044 1_666
Co1 Nd0 3.057043 1_666
Co1 Nd0 3.057043 1_655
Co1 Nd0 3.057044 1_656
Co1 Nd0 3.057044 1_555
B0 Co0 1.975690 1_555
B0 Co1 1.975690 1_555
B0 Co1 1.975693 1_565
B0 Co0 1.975694 1_655
B0 Nd0 3.004445 1_555
B0 Nd0 3.004447 1_655
B0 Nd0 3.004448 1_565
B0 Nd0 3.004450 1_665
B1 Co1 1.975690 1_555
B1 Co0 1.975690 1_555
B1 Co0 1.975693 1_545
B1 Co1 1.975694 1_455
B1 Nd0 3.004445 1_666
B1 Nd0 3.004447 1_566
B1 Nd0 3.004448 1_656
B1 Nd0 3.004450 1_556
