# generated using pymatgen
data_CsLa(PO3)4
_symmetry_space_group_name_H-M   'P 1'
_cell_length_a   9.39531100
_cell_length_b   7.32161900
_cell_length_c   8.96746513
_cell_angle_alpha   80.71352236
_cell_angle_beta   90.00000000
_cell_angle_gamma   90.00000000
_symmetry_Int_Tables_number   1
_chemical_formula_structural   CsLa(PO3)4
_chemical_formula_sum   'Cs2 La2 P8 O24'
_cell_volume   608.77725214
_cell_formula_units_Z   2
loop_
 _symmetry_equiv_pos_site_id
 _symmetry_equiv_pos_as_xyz
  1  'x, y, z'
loop_
 _atom_site_type_symbol
 _atom_site_label
 _atom_site_symmetry_multiplicity
 _atom_site_fract_x
 _atom_site_fract_y
 _atom_site_fract_z
 _atom_site_occupancy
  Cs  Cs0  1  0.43371000  0.67330400  0.82530700  1
  Cs  Cs1  1  0.93371000  0.32669600  0.17469300  1
  La  La0  1  0.59907200  0.79790700  0.30268700  1
  La  La1  1  0.09907200  0.20209300  0.69731300  1
  P  P0  1  0.47405200  0.35444000  0.54356300  1
  P  P1  1  0.52367600  0.30564000  0.22778700  1
  P  P2  1  0.20734500  0.93977900  0.37461100  1
  P  P3  1  0.32251000  0.08268400  0.07272700  1
  P  P4  1  0.97405200  0.64556000  0.45643700  1
  P  P5  1  0.70734500  0.06022100  0.62538900  1
  P  P6  1  0.82251000  0.91731600  0.92727300  1
  P  P7  1  0.02367600  0.69436000  0.77221300  1
  O  O0  1  0.65226400  0.92309000  0.53225300  1
  O  O1  1  0.69818200  0.95887300  0.80114600  1
  O  O2  1  0.56629400  0.50500800  0.18268900  1
  O  O3  1  0.44128000  0.27603500  0.38886400  1
  O  O4  1  0.54476200  0.54014600  0.50956600  1
  O  O5  1  0.15226400  0.07691000  0.46774700  1
  O  O6  1  0.33993100  0.33747300  0.63479400  1
  O  O7  1  0.85051700  0.14757100  0.59365200  1
  O  O8  1  0.24992200  0.14280000  0.92557600  1
  O  O9  1  0.08656900  0.78671800  0.36440700  1
  O  O10  1  0.06629400  0.49499200  0.81731100  1
  O  O11  1  0.19818200  0.04112700  0.19885400  1
  O  O12  1  0.58656900  0.21328200  0.63559300  1
  O  O13  1  0.94128000  0.72396500  0.61113600  1
  O  O14  1  0.13403000  0.84344700  0.76761500  1
  O  O15  1  0.92786400  0.07361200  0.91020600  1
  O  O16  1  0.74992200  0.85720000  0.07442400  1
  O  O17  1  0.35051700  0.85242900  0.40634800  1
  O  O18  1  0.63403000  0.15655300  0.23238500  1
  O  O19  1  0.42786400  0.92638800  0.08979400  1
  O  O20  1  0.04476200  0.45985400  0.49043400  1
  O  O21  1  0.83993100  0.66252700  0.36520600  1
  O  O22  1  0.89445900  0.72923100  0.88342300  1
  O  O23  1  0.39445900  0.27076900  0.11657700  1
loop_
_geom_bond_atom_site_label_1
_geom_bond_atom_site_label_2
_geom_bond_distance
_geom_bond_site_symmetry_2
Cs0 O14 3.088528 1_555
Cs0 O1 3.232107 1_555
Cs0 O19 3.237330 1_556
Cs0 O4 3.308598 1_555
Cs0 O6 3.331152 1_555
Cs0 O2 3.473661 1_556
Cs0 O0 3.593888 1_555
Cs0 O23 3.627654 1_556
Cs0 O10 3.695401 1_555
Cs1 O18 3.088528 1_555
Cs1 O11 3.232107 1_655
Cs1 O15 3.237330 1_554
Cs1 O20 3.308598 1_655
Cs1 O21 3.331152 1_555
Cs1 O10 3.473661 1_654
Cs1 O5 3.593888 1_655
Cs1 O22 3.627654 1_554
Cs1 O2 3.695401 1_555
La0 O0 2.436534 1_555
La0 O16 2.469883 1_555
La0 O4 2.476635 1_555
La0 O21 2.497672 1_555
La0 O19 2.556841 1_555
La0 O2 2.568349 1_555
La0 O17 2.568390 1_555
La0 O18 2.620349 1_565
La1 O5 2.436534 1_555
La1 O8 2.469883 1_555
La1 O20 2.476635 1_555
La1 O6 2.497672 1_555
La1 O15 2.556841 1_455
La1 O10 2.568349 1_555
La1 O7 2.568390 1_455
La1 O14 2.620349 1_545
O0 P5 1.498016 1_565
O1 P6 1.620253 1_555
O1 P5 1.632374 1_565
O2 P1 1.504683 1_555
O3 P0 1.614262 1_555
O3 P1 1.622240 1_555
O4 P0 1.499737 1_555
O5 P2 1.498016 1_545
O6 P0 1.496600 1_555
O7 P5 1.496892 1_555
O8 P3 1.487499 1_556
O9 P2 1.607776 1_555
O9 P4 1.609803 1_455
O10 P7 1.504683 1_555
O11 P3 1.620253 1_555
O11 P2 1.632374 1_545
O12 P5 1.607776 1_555
O12 P0 1.609803 1_555
O13 P4 1.614262 1_555
O13 P7 1.622240 1_655
O14 P7 1.501216 1_555
O15 P6 1.502060 1_545
O16 P6 1.487499 1_554
O17 P2 1.496892 1_555
O18 P1 1.501216 1_555
O19 P3 1.502060 1_565
O20 P4 1.499737 1_455
O21 P4 1.496600 1_555
O22 P7 1.617340 1_655
O22 P6 1.637898 1_555
O23 P1 1.617340 1_555
O23 P3 1.637898 1_555
