# generated using pymatgen
data_LiTi3MnCr(PO4)6
_symmetry_space_group_name_H-M   'P 1'
_cell_length_a   14.94168487
_cell_length_b   14.94168487
_cell_length_c   14.94168477
_cell_angle_alpha   33.49189684
_cell_angle_beta   33.49189684
_cell_angle_gamma   33.49189635
_symmetry_Int_Tables_number   1
_chemical_formula_structural   LiTi3MnCr(PO4)6
_chemical_formula_sum   'Li2 Ti6 Mn2 Cr2 P12 O48'
_cell_volume   904.66614638
_cell_formula_units_Z   2
loop_
 _symmetry_equiv_pos_site_id
 _symmetry_equiv_pos_as_xyz
  1  'x, y, z'
loop_
 _atom_site_type_symbol
 _atom_site_label
 _atom_site_symmetry_multiplicity
 _atom_site_fract_x
 _atom_site_fract_y
 _atom_site_fract_z
 _atom_site_occupancy
  Li  Li0  1  0.37457800  0.37457800  0.37457800  1
  Li  Li1  1  0.62542200  0.62542200  0.62542200  1
  Ti  Ti0  1  0.44560300  0.44560300  0.44560300  1
  Ti  Ti1  1  0.55439700  0.55439700  0.55439700  1
  Ti  Ti2  1  0.94730300  0.94730300  0.94730300  1
  Ti  Ti3  1  0.69696200  0.69696200  0.69696200  1
  Ti  Ti4  1  0.05269700  0.05269700  0.05269700  1
  Ti  Ti5  1  0.30303800  0.30303800  0.30303800  1
  Mn  Mn0  1  0.87484700  0.87484700  0.87484700  1
  Mn  Mn1  1  0.12515300  0.12515300  0.12515300  1
  Cr  Cr0  1  0.80434300  0.80434300  0.80434300  1
  Cr  Cr1  1  0.19565700  0.19565700  0.19565700  1
  P  P0  1  0.46144700  0.75200700  0.03972200  1
  P  P1  1  0.20906300  0.79093700  0.50000000  1
  P  P2  1  0.24799300  0.53855300  0.96027800  1
  P  P3  1  0.96027800  0.24799300  0.53855300  1
  P  P4  1  0.00000000  0.70637500  0.29362500  1
  P  P5  1  0.70637500  0.29362500  0.00000000  1
  P  P6  1  0.03972200  0.46144700  0.75200700  1
  P  P7  1  0.75200700  0.03972200  0.46144700  1
  P  P8  1  0.79093700  0.50000000  0.20906300  1
  P  P9  1  0.50000000  0.20906300  0.79093700  1
  P  P10  1  0.53855300  0.96027800  0.24799300  1
  P  P11  1  0.29362500  0.00000000  0.70637500  1
  O  O0  1  0.96762600  0.78380900  0.15958700  1
  O  O1  1  0.03237400  0.84041300  0.21619100  1
  O  O2  1  0.43783800  0.58167800  0.22666100  1
  O  O3  1  0.28057200  0.65623300  0.47365100  1
  O  O4  1  0.02420100  0.81185400  0.67304400  1
  O  O5  1  0.65623300  0.47365100  0.28057200  1
  O  O6  1  0.47365100  0.28057200  0.65623300  1
  O  O7  1  0.34376700  0.71942800  0.52634900  1
  O  O8  1  0.71942800  0.52634900  0.34376700  1
  O  O9  1  0.52634900  0.34376700  0.71942800  1
  O  O10  1  0.56216200  0.77333900  0.41832200  1
  O  O11  1  0.07881900  0.73069000  0.93576900  1
  O  O12  1  0.41832200  0.56216200  0.77333900  1
  O  O13  1  0.77333900  0.41832200  0.56216200  1
  O  O14  1  0.93576900  0.07881900  0.73069000  1
  O  O15  1  0.47841000  0.82929200  0.68843900  1
  O  O16  1  0.82929200  0.68843900  0.47841000  1
  O  O17  1  0.17070800  0.52159000  0.31156100  1
  O  O18  1  0.68843900  0.47841000  0.82929200  1
  O  O19  1  0.78380900  0.15958700  0.96762600  1
  O  O20  1  0.52159000  0.31156100  0.17070800  1
  O  O21  1  0.15958700  0.96762600  0.78380900  1
  O  O22  1  0.53316800  0.72198900  0.90729400  1
  O  O23  1  0.90729400  0.53316800  0.72198900  1
  O  O24  1  0.84041300  0.21619100  0.03237400  1
  O  O25  1  0.21619100  0.03237400  0.84041300  1
  O  O26  1  0.58335200  0.79107600  0.96866900  1
  O  O27  1  0.22666100  0.43783800  0.58167800  1
  O  O28  1  0.96866900  0.58335200  0.79107600  1
  O  O29  1  0.06423100  0.26931000  0.92118100  1
  O  O30  1  0.58167800  0.22666100  0.43783800  1
  O  O31  1  0.92118100  0.06423100  0.26931000  1
  O  O32  1  0.26931000  0.92118100  0.06423100  1
  O  O33  1  0.81185400  0.67304400  0.02420100  1
  O  O34  1  0.97579900  0.32695600  0.18814600  1
  O  O35  1  0.32695600  0.18814600  0.97579900  1
  O  O36  1  0.67304400  0.02420100  0.81185400  1
  O  O37  1  0.18814600  0.97579900  0.32695600  1
  O  O38  1  0.20892400  0.41664800  0.03133100  1
  O  O39  1  0.03133100  0.20892400  0.41664800  1
  O  O40  1  0.41664800  0.03133100  0.20892400  1
  O  O41  1  0.27801100  0.46683200  0.09270600  1
  O  O42  1  0.09270600  0.27801100  0.46683200  1
  O  O43  1  0.73069000  0.93576900  0.07881900  1
  O  O44  1  0.46683200  0.09270600  0.27801100  1
  O  O45  1  0.31156100  0.17070800  0.52159000  1
  O  O46  1  0.72198900  0.90729400  0.53316800  1
  O  O47  1  0.79107600  0.96866900  0.58335200  1
loop_
_geom_bond_atom_site_label_1
_geom_bond_atom_site_label_2
_geom_bond_distance
_geom_bond_site_symmetry_2
Li0 O20 2.272553 1_555
Li0 O17 2.272553 1_555
Li0 O45 2.272553 1_555
Li0 O27 2.310972 1_555
Li0 O30 2.310972 1_555
Li0 O2 2.310972 1_555
Li1 O18 2.272553 1_555
Li1 O15 2.272553 1_555
Li1 O16 2.272553 1_555
Li1 O10 2.310972 1_555
Li1 O13 2.310972 1_555
Li1 O12 2.310972 1_555
Mn0 O4 2.228186 1_655
Mn0 O36 2.228186 1_565
Mn0 O33 2.228186 1_556
Mn0 O43 2.272491 1_556
Mn0 O11 2.272492 1_655
Mn0 O14 2.272492 1_565
Mn1 O37 2.228186 1_545
Mn1 O34 2.228186 1_455
Mn1 O35 2.228186 1_554
Mn1 O29 2.272491 1_554
Mn1 O32 2.272492 1_545
Mn1 O31 2.272492 1_455
Cr0 O28 1.930885 1_555
Cr0 O47 1.930886 1_555
Cr0 O26 1.930886 1_555
Cr0 O33 2.037475 1_556
Cr0 O36 2.037475 1_565
Cr0 O4 2.037475 1_655
Cr1 O40 1.930885 1_555
Cr1 O39 1.930886 1_555
Cr1 O38 1.930886 1_555
Cr1 O35 2.037475 1_554
Cr1 O34 2.037475 1_455
Cr1 O37 2.037475 1_545
O0 P4 1.549560 1_655
O0 Ti2 1.888373 1_554
O1 P4 1.549560 1_555
O1 Ti4 1.888373 1_565
O2 P0 1.549386 1_555
O2 Ti0 1.998713 1_555
O3 P1 1.542970 1_555
O3 Ti0 1.921745 1_555
O4 P1 1.551896 1_555
O5 P8 1.542970 1_555
O5 Ti0 1.921745 1_555
O6 P9 1.542970 1_555
O6 Ti0 1.921745 1_555
O7 P1 1.542970 1_555
O7 Ti1 1.921745 1_555
O8 P8 1.542970 1_555
O8 Ti1 1.921745 1_555
O9 P9 1.542970 1_555
O9 Ti1 1.921745 1_555
O10 P10 1.549386 1_555
O10 Ti1 1.998713 1_555
O11 P2 1.565896 1_555
O11 Ti2 2.030735 1_455
O12 P2 1.549386 1_555
O12 Ti1 1.998713 1_555
O13 P3 1.549386 1_555
O13 Ti1 1.998713 1_555
O14 P3 1.565897 1_555
O14 Ti2 2.030735 1_545
O15 P11 1.536432 1_565
O15 Ti3 2.023285 1_555
O16 P4 1.536432 1_655
O16 Ti3 2.023285 1_555
O17 P4 1.536432 1_555
O17 Ti5 2.023285 1_555
O18 P5 1.536432 1_556
O18 Ti3 2.023285 1_555
O19 P5 1.549560 1_556
O19 Ti2 1.888373 1_545
O20 P5 1.536432 1_555
O20 Ti5 2.023285 1_555
O21 P11 1.549560 1_565
O21 Ti2 1.888373 1_455
O22 P0 1.551338 1_556
O22 Ti3 1.900301 1_555
O23 P6 1.551338 1_655
O23 Ti3 1.900301 1_555
O24 P5 1.549560 1_555
O24 Ti4 1.888373 1_655
O25 P11 1.549560 1_555
O25 Ti4 1.888373 1_556
O26 P0 1.516589 1_556
O27 P6 1.549386 1_555
O27 Ti0 1.998713 1_555
O28 P6 1.516589 1_655
O29 P6 1.565896 1_555
O29 Ti4 2.030735 1_556
O30 P7 1.549386 1_555
O30 Ti0 1.998713 1_555
O31 P7 1.565897 1_555
O31 Ti4 2.030735 1_655
O32 P0 1.565896 1_555
O32 Ti4 2.030735 1_565
O33 P8 1.551896 1_555
O34 P8 1.551896 1_555
O35 P9 1.551896 1_555
O36 P9 1.551896 1_555
O37 P1 1.551896 1_555
O38 P2 1.516589 1_554
O39 P3 1.516589 1_455
O40 P10 1.516589 1_545
O41 P2 1.551338 1_554
O41 Ti5 1.900301 1_555
O42 P3 1.551338 1_455
O42 Ti5 1.900301 1_555
O43 P10 1.565896 1_555
O43 Ti2 2.030735 1_554
O44 P10 1.551338 1_545
O44 Ti5 1.900301 1_555
O45 P11 1.536432 1_555
O45 Ti5 2.023285 1_555
O46 P7 1.551338 1_565
O46 Ti3 1.900301 1_555
O47 P7 1.516589 1_565
