# generated using pymatgen
data_Cs(WCl3)3
_symmetry_space_group_name_H-M   'P 1'
_cell_length_a   9.60203058
_cell_length_b   9.60161263
_cell_length_c   8.53846716
_cell_angle_alpha   90.00002990
_cell_angle_beta   90.00174237
_cell_angle_gamma   119.99300896
_symmetry_Int_Tables_number   1
_chemical_formula_structural   Cs(WCl3)3
_chemical_formula_sum   'Cs2 W6 Cl18'
_cell_volume   681.78650315
_cell_formula_units_Z   2
loop_
 _symmetry_equiv_pos_site_id
 _symmetry_equiv_pos_as_xyz
  1  'x, y, z'
loop_
 _atom_site_type_symbol
 _atom_site_label
 _atom_site_symmetry_multiplicity
 _atom_site_fract_x
 _atom_site_fract_y
 _atom_site_fract_z
 _atom_site_occupancy
  Cs  Cs0  1  0.66666098  0.33333682  0.41634346  1
  Cs  Cs1  1  0.33333903  0.66666507  0.58365734  1
  W  W0  1  0.16801525  0.19298085  0.12879427  1
  W  W1  1  0.19298320  0.02496564  0.87120550  1
  W  W2  1  0.97500919  0.16803120  0.87120648  1
  W  W3  1  0.02498975  0.83197072  0.12878352  1
  W  W4  1  0.83198410  0.80701531  0.87120910  1
  W  W5  1  0.80702583  0.97503361  0.12880195  1
  Cl  Cl0  1  0.64102728  0.58909868  0.69811548  1
  Cl  Cl1  1  0.05192781  0.64098623  0.30188198  1
  Cl  Cl2  1  0.83791120  0.58749004  0.99893560  1
  Cl  Cl3  1  0.58909487  0.94809317  0.30188027  1
  Cl  Cl4  1  0.41247433  0.25038598  0.99894703  1
  Cl  Cl5  1  0.58752431  0.74961271  0.00104905  1
  Cl  Cl6  1  0.97252709  0.18516970  0.31184249  1
  Cl  Cl7  1  0.81486045  0.78739974  0.31183951  1
  Cl  Cl8  1  0.74959576  0.16213516  0.99894035  1
  Cl  Cl9  1  0.25039998  0.83786693  0.00106109  1
  Cl  Cl10  1  0.18513876  0.21260431  0.68816142  1
  Cl  Cl11  1  0.02746473  0.81482254  0.68815401  1
  Cl  Cl12  1  0.78738678  0.97256886  0.68816360  1
  Cl  Cl13  1  0.21261530  0.02743453  0.31183947  1
  Cl  Cl14  1  0.16208915  0.41250613  0.00106282  1
  Cl  Cl15  1  0.94807442  0.35901475  0.69811902  1
  Cl  Cl16  1  0.35897037  0.41090369  0.30188606  1
  Cl  Cl17  1  0.41091011  0.05190763  0.69811910  1
loop_
_geom_bond_atom_site_label_1
_geom_bond_atom_site_label_2
_geom_bond_distance
_geom_bond_site_symmetry_2
Cl0 W4 2.467476 1_555
Cl0 Cs1 3.526777 1_555
Cl0 Cs0 3.533253 1_555
Cl1 W3 2.467437 1_555
Cl1 Cs0 3.527172 1_455
Cl1 Cs1 3.533306 1_555
Cl2 W3 2.397999 1_656
Cl2 W4 2.399033 1_555
Cl3 W5 2.467544 1_555
Cl3 Cs0 3.526726 1_565
Cl3 Cs1 3.533688 1_555
Cl4 W0 2.397808 1_556
Cl4 W1 2.399024 1_555
Cl5 W4 2.397792 1_554
Cl5 W5 2.399113 1_555
Cl6 W0 2.414811 1_655
Cl6 W5 2.415177 1_545
Cl7 W5 2.414417 1_555
Cl7 W3 2.415380 1_655
Cl8 W5 2.398190 1_546
Cl8 W2 2.398980 1_555
Cl9 W1 2.398065 1_564
Cl9 W3 2.398908 1_555
Cl10 W1 2.414526 1_555
Cl10 W2 2.415316 1_455
Cl11 W4 2.414807 1_455
Cl11 W1 2.415312 1_565
Cl12 W2 2.414528 1_565
Cl12 W4 2.415244 1_555
Cl13 W3 2.414617 1_545
Cl13 W0 2.415204 1_555
Cl14 W2 2.398003 1_454
Cl14 W0 2.399048 1_555
Cl15 W2 2.467359 1_555
Cl15 Cs1 3.527162 1_655
Cl15 Cs0 3.533325 1_555
Cl16 W0 2.467490 1_555
Cl16 Cs0 3.526800 1_555
Cl16 Cs1 3.533236 1_555
Cl17 W1 2.467550 1_555
Cl17 Cs1 3.526697 1_545
Cl17 Cs0 3.533669 1_555
