# generated using pymatgen
data_CsSmGeS4
_symmetry_space_group_name_H-M   'P 1'
_cell_length_a   6.59068300
_cell_length_b   6.86142500
_cell_length_c   18.08606300
_cell_angle_alpha   90.00000000
_cell_angle_beta   90.00000000
_cell_angle_gamma   90.00000000
_symmetry_Int_Tables_number   1
_chemical_formula_structural   CsSmGeS4
_chemical_formula_sum   'Cs4 Sm4 Ge4 S16'
_cell_volume   817.87848384
_cell_formula_units_Z   4
loop_
 _symmetry_equiv_pos_site_id
 _symmetry_equiv_pos_as_xyz
  1  'x, y, z'
loop_
 _atom_site_type_symbol
 _atom_site_label
 _atom_site_symmetry_multiplicity
 _atom_site_fract_x
 _atom_site_fract_y
 _atom_site_fract_z
 _atom_site_occupancy
  Cs  Cs0  1  0.49472100  0.99388600  0.53229300  1
  Cs  Cs1  1  0.50527900  0.49388600  0.96770700  1
  Cs  Cs2  1  0.00527900  0.00611400  0.03229300  1
  Cs  Cs3  1  0.99472100  0.50611400  0.46770700  1
  Sm  Sm0  1  0.70693100  0.48024400  0.22745900  1
  Sm  Sm1  1  0.79306900  0.51975600  0.72745900  1
  Sm  Sm2  1  0.20693100  0.01975600  0.77254100  1
  Sm  Sm3  1  0.29306900  0.98024400  0.27254100  1
  Ge  Ge0  1  0.20828800  0.51511400  0.16671400  1
  Ge  Ge1  1  0.70828800  0.98488600  0.83328600  1
  Ge  Ge2  1  0.79171200  0.01511400  0.33328600  1
  Ge  Ge3  1  0.29171200  0.48488600  0.66671400  1
  S  S0  1  0.89874200  0.08079200  0.21899100  1
  S  S1  1  0.60039600  0.74651600  0.34470900  1
  S  S2  1  0.39874200  0.41920800  0.78100900  1
  S  S3  1  0.89960400  0.25348400  0.84470900  1
  S  S4  1  0.43772400  0.75061000  0.14701300  1
  S  S5  1  0.39960400  0.24651600  0.15529100  1
  S  S6  1  0.10039600  0.75348400  0.65529100  1
  S  S7  1  0.93772400  0.74939000  0.85298700  1
  S  S8  1  0.06227600  0.24939000  0.64701300  1
  S  S9  1  0.94051100  0.51143300  0.09360400  1
  S  S10  1  0.56227600  0.25060900  0.35298700  1
  S  S11  1  0.10125800  0.58079200  0.28100900  1
  S  S12  1  0.60125800  0.91920800  0.71899100  1
  S  S13  1  0.55948900  0.48856700  0.59360400  1
  S  S14  1  0.44051100  0.98856700  0.90639600  1
  S  S15  1  0.05948900  0.01143300  0.40639600  1
loop_
_geom_bond_atom_site_label_1
_geom_bond_atom_site_label_2
_geom_bond_distance
_geom_bond_site_symmetry_2
Cs0 S12 3.486719 1_555
Cs0 S13 3.596182 1_565
Cs0 S15 3.664327 1_565
Cs0 S13 3.665154 1_555
Cs0 S10 3.717220 1_565
Cs0 S6 3.797842 1_555
Cs0 S1 3.856948 1_555
Cs0 S8 3.937192 1_565
Cs1 S2 3.486719 1_555
Cs1 S14 3.596182 1_555
Cs1 S9 3.664327 1_556
Cs1 S14 3.665154 1_545
Cs1 S4 3.717223 1_556
Cs1 S3 3.797842 1_555
Cs1 S5 3.856948 1_556
Cs1 S7 3.937192 1_555
Cs2 S0 3.486719 1_455
Cs2 S9 3.596182 1_445
Cs2 S14 3.664327 1_544
Cs2 S9 3.665154 1_455
Cs2 S7 3.717223 1_444
Cs2 S5 3.797842 1_555
Cs2 S3 3.856948 1_454
Cs2 S4 3.937192 1_545
Cs3 S11 3.486719 1_655
Cs3 S15 3.596182 1_655
Cs3 S13 3.664327 1_555
Cs3 S15 3.665154 1_665
Cs3 S8 3.717223 1_655
Cs3 S1 3.797842 1_555
Cs3 S6 3.856948 1_655
Cs3 S10 3.937195 1_555
Ge0 S9 2.205375 1_455
Ge0 S11 2.230194 1_555
Ge0 S4 2.241531 1_555
Ge0 S5 2.242561 1_555
Ge1 S14 2.205375 1_555
Ge1 S12 2.230194 1_555
Ge1 S7 2.241531 1_555
Ge1 S3 2.242561 1_565
Ge2 S15 2.205375 1_655
Ge2 S0 2.230194 1_555
Ge2 S10 2.241526 1_555
Ge2 S1 2.242561 1_545
Ge3 S13 2.205375 1_555
Ge3 S2 2.230194 1_555
Ge3 S8 2.241531 1_555
Ge3 S6 2.242561 1_555
S0 Sm3 2.858002 1_645
S0 Sm0 3.022186 1_555
S1 Sm0 2.885802 1_555
S1 Sm3 2.894502 1_555
S2 Sm1 2.858002 1_555
S2 Sm2 3.022186 1_555
S3 Sm1 2.885802 1_555
S3 Sm2 2.894502 1_655
S4 Sm3 2.923318 1_555
S4 Sm0 2.950637 1_555
S5 Sm3 2.885802 1_545
S5 Sm0 2.894502 1_555
S6 Sm2 2.885802 1_565
S6 Sm1 2.894502 1_455
S7 Sm1 2.923318 1_555
S7 Sm2 2.950637 1_665
S8 Sm2 2.923318 1_555
S8 Sm1 2.950637 1_455
S9 Sm0 2.876893 1_555
S10 Sm0 2.923321 1_555
S10 Sm3 2.950632 1_545
S11 Sm0 2.858002 1_455
S11 Sm3 3.022186 1_555
S12 Sm2 2.858002 1_565
S12 Sm1 3.022186 1_555
S13 Sm1 2.876893 1_555
S14 Sm2 2.876893 1_565
S15 Sm3 2.876893 1_545
