# generated using pymatgen
data_Rb3SnP3Se11
_symmetry_space_group_name_H-M   'P 1'
_cell_length_a   7.56291200
_cell_length_b   14.33407500
_cell_length_c   22.51441058
_cell_angle_alpha   74.01819373
_cell_angle_beta   90.00000000
_cell_angle_gamma   90.00000000
_symmetry_Int_Tables_number   1
_chemical_formula_structural   Rb3SnP3Se11
_chemical_formula_sum   'Rb12 Sn4 P12 Se44'
_cell_volume   2346.39140190
_cell_formula_units_Z   4
loop_
 _symmetry_equiv_pos_site_id
 _symmetry_equiv_pos_as_xyz
  1  'x, y, z'
loop_
 _atom_site_type_symbol
 _atom_site_label
 _atom_site_symmetry_multiplicity
 _atom_site_fract_x
 _atom_site_fract_y
 _atom_site_fract_z
 _atom_site_occupancy
  Rb  Rb0  1  0.53541700  0.15529300  0.06841700  1
  Rb  Rb1  1  0.82125500  0.11583900  0.50799500  1
  Rb  Rb2  1  0.36912000  0.48877500  0.23040300  1
  Rb  Rb3  1  0.96458300  0.65529300  0.06841700  1
  Rb  Rb4  1  0.03541700  0.34470700  0.93158300  1
  Rb  Rb5  1  0.17874500  0.88416100  0.49200500  1
  Rb  Rb6  1  0.67874500  0.61583900  0.50799500  1
  Rb  Rb7  1  0.86912000  0.01122500  0.76959700  1
  Rb  Rb8  1  0.46458300  0.84470700  0.93158300  1
  Rb  Rb9  1  0.63088000  0.51122500  0.76959700  1
  Rb  Rb10  1  0.32125500  0.38416100  0.49200500  1
  Rb  Rb11  1  0.13088000  0.98877500  0.23040300  1
  Sn  Sn0  1  0.64015300  0.77859500  0.28019300  1
  Sn  Sn1  1  0.85984700  0.27859500  0.28019300  1
  Sn  Sn2  1  0.35984700  0.22140500  0.71980700  1
  Sn  Sn3  1  0.14015300  0.72140500  0.71980700  1
  P  P0  1  0.85333300  0.37192800  0.39721500  1
  P  P1  1  0.35333300  0.12807200  0.60278500  1
  P  P2  1  0.63119700  0.02001700  0.32614300  1
  P  P3  1  0.43682700  0.80340400  0.11379200  1
  P  P4  1  0.14666700  0.62807200  0.60278500  1
  P  P5  1  0.86880300  0.52001700  0.32614300  1
  P  P6  1  0.06317300  0.30340400  0.11379200  1
  P  P7  1  0.13119700  0.47998300  0.67385700  1
  P  P8  1  0.64666700  0.87192800  0.39721500  1
  P  P9  1  0.93682700  0.69659600  0.88620800  1
  P  P10  1  0.56317300  0.19659600  0.88620800  1
  P  P11  1  0.36880300  0.97998300  0.67385700  1
  Se  Se0  1  0.65415700  0.88265100  0.49084600  1
  Se  Se1  1  0.90705700  0.70268300  0.62619200  1
  Se  Se2  1  0.45976500  0.67420500  0.08132900  1
  Se  Se3  1  0.36768700  0.01690300  0.76520900  1
  Se  Se4  1  0.10811500  0.91737200  0.65652700  1
  Se  Se5  1  0.21742300  0.42306000  0.05803600  1
  Se  Se6  1  0.71742300  0.07694000  0.94196400  1
  Se  Se7  1  0.63231300  0.98309700  0.23479100  1
  Se  Se8  1  0.87569000  0.77578100  0.19080300  1
  Se  Se9  1  0.15197600  0.26012300  0.21410500  1
  Se  Se10  1  0.37928800  0.70437700  0.63024900  1
  Se  Se11  1  0.29610600  0.11710000  0.88597600  1
  Se  Se12  1  0.89188500  0.08262800  0.34347300  1
  Se  Se13  1  0.54023500  0.32579500  0.91867100  1
  Se  Se14  1  0.62431000  0.27578100  0.19080300  1
  Se  Se15  1  0.34802400  0.76012300  0.21410500  1
  Se  Se16  1  0.12431000  0.22421900  0.80919700  1
  Se  Se17  1  0.79610600  0.38290000  0.11402400  1
  Se  Se18  1  0.60811500  0.58262800  0.34347300  1
  Se  Se19  1  0.40096000  0.09956700  0.34066000  1
  Se  Se20  1  0.65197600  0.23987700  0.78589500  1
  Se  Se21  1  0.87928800  0.79562300  0.36975100  1
  Se  Se22  1  0.59294300  0.20268300  0.62619200  1
  Se  Se23  1  0.90096000  0.40043300  0.65934000  1
  Se  Se24  1  0.04023500  0.17420500  0.08132900  1
  Se  Se25  1  0.20389400  0.61710000  0.88597600  1
  Se  Se26  1  0.13231300  0.51690300  0.76520900  1
  Se  Se27  1  0.78257700  0.57694000  0.94196400  1
  Se  Se28  1  0.84584300  0.38265100  0.49084600  1
  Se  Se29  1  0.12071200  0.20437700  0.63024900  1
  Se  Se30  1  0.59904000  0.90043300  0.65934000  1
  Se  Se31  1  0.39188500  0.41737200  0.65652700  1
  Se  Se32  1  0.70389400  0.88290000  0.11402400  1
  Se  Se33  1  0.84802400  0.73987700  0.78589500  1
  Se  Se34  1  0.86768700  0.48309700  0.23479100  1
  Se  Se35  1  0.28257700  0.92306000  0.05803600  1
  Se  Se36  1  0.62071200  0.29562300  0.36975100  1
  Se  Se37  1  0.09294300  0.29731700  0.37380800  1
  Se  Se38  1  0.09904000  0.59956700  0.34066000  1
  Se  Se39  1  0.15415700  0.61734900  0.50915400  1
  Se  Se40  1  0.37569000  0.72421900  0.80919700  1
  Se  Se41  1  0.34584300  0.11734900  0.50915400  1
  Se  Se42  1  0.95976500  0.82579500  0.91867100  1
  Se  Se43  1  0.40705700  0.79731700  0.37380800  1
loop_
_geom_bond_atom_site_label_1
_geom_bond_atom_site_label_2
_geom_bond_distance
_geom_bond_site_symmetry_2
Rb0 Se13 3.578224 1_554
Rb0 Se6 3.608655 1_554
Rb0 Se14 3.694298 1_555
Rb0 Se24 3.771810 1_555
Rb0 Se24 3.844179 1_655
Rb0 Se35 3.901385 1_545
Rb0 Se7 3.945786 1_545
Rb0 Se32 3.964251 1_545
Rb1 Se41 3.595702 1_555
Rb1 Se22 3.665639 1_555
Rb1 Se0 3.691792 1_545
Rb1 Se28 3.741303 1_555
Rb1 Se36 3.769900 1_555
Rb1 Se12 3.899159 1_555
Rb1 Se41 3.967597 1_655
Rb1 Se37 3.973477 1_655
Rb1 Se29 4.029828 1_655
Rb2 Se18 3.666518 1_555
Rb2 Se2 3.726545 1_555
Rb2 Se34 3.772204 1_555
Rb2 Se9 3.773057 1_555
Rb2 Se34 3.793870 1_455
Rb2 Se15 3.808224 1_555
Rb2 Se38 3.876502 1_555
Rb2 Se14 3.916617 1_555
Rb2 Se36 4.042980 1_555
Rb3 Se42 3.578224 1_554
Rb3 Se27 3.608655 1_554
Rb3 Se8 3.694298 1_555
Rb3 Se2 3.771810 1_655
Rb3 Se2 3.844179 1_555
Rb3 Se5 3.901385 1_655
Rb3 Se34 3.945786 1_555
Rb3 Se17 3.964251 1_555
Rb4 Se24 3.578224 1_556
Rb4 Se5 3.608655 1_556
Rb4 Se16 3.694298 1_555
Rb4 Se13 3.771810 1_455
Rb4 Se13 3.844179 1_555
Rb4 Se27 3.901385 1_455
Rb4 Se26 3.945786 1_555
Rb4 Se25 3.964251 1_555
Rb5 Se0 3.595702 1_555
Rb5 Se43 3.665639 1_555
Rb5 Se41 3.691792 1_565
Rb5 Se39 3.741303 1_555
Rb5 Se10 3.769900 1_555
Rb5 Se4 3.899159 1_555
Rb5 Se0 3.967597 1_455
Rb5 Se1 3.973477 1_455
Rb5 Se21 4.029828 1_455
Rb6 Se39 3.595702 1_655
Rb6 Se1 3.665639 1_555
Rb6 Se28 3.691792 1_555
Rb6 Se0 3.741303 1_555
Rb6 Se21 3.769900 1_555
Rb6 Se18 3.899159 1_555
Rb6 Se39 3.967597 1_555
Rb6 Se43 3.973477 1_555
Rb6 Se10 4.029828 1_555
Rb7 Se4 3.666518 1_645
Rb7 Se42 3.726545 1_545
Rb7 Se3 3.772204 1_655
Rb7 Se20 3.773057 1_555
Rb7 Se3 3.793870 1_555
Rb7 Se33 3.808224 1_545
Rb7 Se30 3.876502 1_545
Rb7 Se16 3.916617 1_655
Rb7 Se29 4.042980 1_655
Rb8 Se2 3.578224 1_556
Rb8 Se35 3.608655 1_556
Rb8 Se40 3.694298 1_555
Rb8 Se42 3.771810 1_555
Rb8 Se42 3.844179 1_455
Rb8 Se6 3.901385 1_565
Rb8 Se3 3.945786 1_565
Rb8 Se11 3.964251 1_565
Rb9 Se31 3.666518 1_555
Rb9 Se13 3.726545 1_555
Rb9 Se26 3.772204 1_555
Rb9 Se33 3.773057 1_555
Rb9 Se26 3.793870 1_655
Rb9 Se20 3.808224 1_555
Rb9 Se23 3.876502 1_555
Rb9 Se40 3.916617 1_555
Rb9 Se10 4.042980 1_555
Rb10 Se28 3.595702 1_455
Rb10 Se37 3.665639 1_555
Rb10 Se39 3.691792 1_555
Rb10 Se41 3.741303 1_555
Rb10 Se29 3.769900 1_555
Rb10 Se31 3.899159 1_555
Rb10 Se28 3.967597 1_555
Rb10 Se22 3.973477 1_555
Rb10 Se36 4.029828 1_555
Rb11 Se12 3.666518 1_465
Rb11 Se24 3.726545 1_565
Rb11 Se7 3.772204 1_455
Rb11 Se15 3.773057 1_555
Rb11 Se7 3.793870 1_555
Rb11 Se9 3.808224 1_565
Rb11 Se19 3.876502 1_565
Rb11 Se8 3.916617 1_455
Rb11 Se21 4.042980 1_455
P0 Se28 2.156182 1_555
P0 Se37 2.239588 1_655
P0 Se36 2.246371 1_555
P0 P5 2.282470 1_555
P0 Rb1 3.835724 1_555
P1 Se41 2.156182 1_555
P1 Se22 2.239588 1_555
P1 Se29 2.246371 1_555
P1 P11 2.282470 1_545
P1 Rb10 3.835724 1_555
P2 Se19 2.155058 1_555
P2 Se12 2.244452 1_555
P2 Se7 2.260459 1_545
P2 P8 2.282470 1_545
P3 Se35 2.166304 1_555
P3 Se2 2.177007 1_555
P3 Se15 2.272697 1_555
P3 Se32 2.319780 1_555
P4 Se39 2.156182 1_555
P4 Se1 2.239588 1_455
P4 Se10 2.246371 1_555
P4 P7 2.282470 1_555
P4 Rb5 3.835724 1_555
P5 Se38 2.155058 1_655
P5 Se18 2.244452 1_555
P5 Se34 2.260459 1_555
P6 Se5 2.166304 1_555
P6 Se24 2.177007 1_555
P6 Se9 2.272697 1_555
P6 Se17 2.319780 1_455
P7 Se23 2.155058 1_455
P7 Se31 2.244452 1_555
P7 Se26 2.260459 1_555
P8 Se0 2.156182 1_555
P8 Se43 2.239588 1_555
P8 Se21 2.246371 1_555
P8 Rb6 3.835724 1_555
P9 Se27 2.166304 1_555
P9 Se42 2.177007 1_555
P9 Se33 2.272697 1_555
P9 Se25 2.319780 1_655
P10 Se6 2.166304 1_555
P10 Se13 2.177007 1_555
P10 Se20 2.272697 1_555
P10 Se11 2.319780 1_555
P11 Se30 2.155058 1_555
P11 Se4 2.244452 1_555
P11 Se3 2.260459 1_565
Se1 Sn3 2.816663 1_655
Se3 Sn2 2.826868 1_555
Se4 Sn3 2.788414 1_555
Se7 Sn0 2.826868 1_555
Se8 Sn0 2.696281 1_555
Se9 Sn1 2.717022 1_455
Se10 Sn3 2.768955 1_555
Se11 Se16 2.360576 1_555
Se12 Sn1 2.788414 1_555
Se14 Se17 2.360576 1_555
Se14 Sn1 2.696281 1_555
Se15 Sn0 2.717022 1_555
Se16 Sn2 2.696281 1_555
Se18 Sn0 2.788414 1_555
Se20 Sn2 2.717022 1_555
Se21 Sn0 2.768955 1_555
Se22 Sn2 2.816663 1_555
Se25 Se40 2.360576 1_555
Se26 Sn3 2.826868 1_555
Se29 Sn2 2.768955 1_555
Se31 Sn2 2.788414 1_555
Se32 Se8 2.360576 1_555
Se33 Sn3 2.717022 1_655
Se34 Sn1 2.826868 1_555
Se36 Sn1 2.768955 1_555
Se37 Sn1 2.816663 1_455
Se40 Sn3 2.696281 1_555
Se43 Sn0 2.816663 1_555
