# generated using pymatgen
data_Ba6Hf5S16
_symmetry_space_group_name_H-M   'P 1'
_cell_length_a   28.10845651
_cell_length_b   28.10845651
_cell_length_c   28.10845651
_cell_angle_alpha   169.78399426
_cell_angle_beta   169.78399426
_cell_angle_gamma   14.46688245
_symmetry_Int_Tables_number   1
_chemical_formula_structural   Ba6Hf5S16
_chemical_formula_sum   'Ba6 Hf5 S16'
_cell_volume   698.56509491
_cell_formula_units_Z   1
loop_
 _symmetry_equiv_pos_site_id
 _symmetry_equiv_pos_as_xyz
  1  'x, y, z'
loop_
 _atom_site_type_symbol
 _atom_site_label
 _atom_site_symmetry_multiplicity
 _atom_site_fract_x
 _atom_site_fract_y
 _atom_site_fract_z
 _atom_site_occupancy
  Ba  Ba0  1  0.71789200  0.71789200  0.00000000  1
  Ba  Ba1  1  0.36723000  0.36723000  0.00000000  1
  Ba  Ba2  1  0.54450400  0.54450400  0.00000000  1
  Ba  Ba3  1  0.63277000  0.63277000  0.00000000  1
  Ba  Ba4  1  0.45549600  0.45549600  0.00000000  1
  Ba  Ba5  1  0.28210800  0.28210800  0.00000000  1
  Hf  Hf0  1  0.90958900  0.90958900  0.00000000  1
  Hf  Hf1  1  0.00000000  0.00000000  0.00000000  1
  Hf  Hf2  1  0.81863800  0.81863800  0.00000000  1
  Hf  Hf3  1  0.18136200  0.18136200  0.00000000  1
  Hf  Hf4  1  0.09041100  0.09041100  0.00000000  1
  S  S0  1  0.77407800  0.77407800  0.00000000  1
  S  S1  1  0.95494500  0.95494500  0.00000000  1
  S  S2  1  0.17895000  0.67895000  0.50000000  1
  S  S3  1  0.91013300  0.41013300  0.50000000  1
  S  S4  1  0.41013300  0.91013300  0.50000000  1
  S  S5  1  0.82105000  0.32105000  0.50000000  1
  S  S6  1  0.67895000  0.17895000  0.50000000  1
  S  S7  1  0.32105000  0.82105000  0.50000000  1
  S  S8  1  0.08986700  0.58986700  0.50000000  1
  S  S9  1  0.13498600  0.13498600  0.00000000  1
  S  S10  1  0.86501400  0.86501400  0.00000000  1
  S  S11  1  0.22592200  0.22592200  0.00000000  1
  S  S12  1  0.58986700  0.08986700  0.50000000  1
  S  S13  1  0.50000000  0.00000000  0.50000000  1
  S  S14  1  0.04505500  0.04505500  0.00000000  1
  S  S15  1  0.00000000  0.50000000  0.50000000  1
loop_
_geom_bond_atom_site_label_1
_geom_bond_atom_site_label_2
_geom_bond_distance
_geom_bond_site_symmetry_2
Ba0 S0 3.133465 1_555
Ba0 S2 3.313545 1_554
Ba0 S6 3.313545 1_554
Ba0 S6 3.313545 1_565
Ba0 S2 3.313545 1_655
Ba0 S11 3.567420 1_655
Ba0 S11 3.567420 1_554
Ba0 S11 3.567420 1_565
Ba0 S11 3.567420 1_666
Ba1 S3 3.462352 1_454
Ba1 S4 3.462352 1_544
Ba1 S3 3.462352 1_555
Ba1 S4 3.462352 1_555
Ba1 S10 3.541357 1_545
Ba1 S10 3.541357 1_444
Ba1 S10 3.541357 1_455
Ba1 S10 3.541357 1_556
Ba1 S5 3.591077 1_454
Ba1 S7 3.591077 1_544
Ba1 S7 3.591077 1_555
Ba1 S5 3.591077 1_555
Ba2 S15 3.524645 1_554
Ba2 S13 3.524645 1_554
Ba2 S15 3.524645 1_655
Ba2 S13 3.524645 1_565
Ba2 S14 3.539333 1_554
Ba2 S14 3.539333 1_655
Ba2 S14 3.539333 1_565
Ba2 S14 3.539333 1_666
Ba2 S8 3.558542 1_554
Ba2 S12 3.558542 1_554
Ba2 S12 3.558542 1_565
Ba2 S8 3.558542 1_655
Ba3 S12 3.462352 1_554
Ba3 S8 3.462352 1_554
Ba3 S8 3.462352 1_655
Ba3 S12 3.462352 1_565
Ba3 S9 3.541357 1_565
Ba3 S9 3.541357 1_554
Ba3 S9 3.541357 1_655
Ba3 S9 3.541357 1_666
Ba3 S6 3.591077 1_565
Ba3 S2 3.591077 1_655
Ba3 S6 3.591077 1_554
Ba3 S2 3.591077 1_554
Ba4 S15 3.524645 1_655
Ba4 S13 3.524645 1_565
Ba4 S15 3.524645 1_554
Ba4 S13 3.524645 1_554
Ba4 S1 3.539333 1_444
Ba4 S1 3.539333 1_545
Ba4 S1 3.539333 1_455
Ba4 S1 3.539333 1_556
Ba4 S3 3.558542 1_454
Ba4 S4 3.558542 1_544
Ba4 S4 3.558542 1_555
Ba4 S3 3.558542 1_555
Ba5 S11 3.133465 1_555
Ba5 S5 3.313545 1_454
Ba5 S7 3.313545 1_544
Ba5 S7 3.313545 1_555
Ba5 S5 3.313545 1_555
Ba5 S0 3.567420 1_444
Ba5 S0 3.567420 1_545
Ba5 S0 3.567420 1_455
Ba5 S0 3.567420 1_556
Hf0 S10 2.485926 1_555
Hf0 S4 2.502776 1_655
Hf0 S3 2.502776 1_565
Hf0 S4 2.502776 1_554
Hf0 S3 2.502776 1_554
Hf0 S1 2.529482 1_555
Hf1 S15 2.502592 1_555
Hf1 S13 2.502592 1_454
Hf1 S15 2.502592 1_544
Hf1 S13 2.502592 1_555
Hf1 S14 2.512695 1_555
Hf1 S1 2.512695 1_445
Hf2 S0 2.485089 1_555
Hf2 S5 2.506205 1_565
Hf2 S5 2.506205 1_554
Hf2 S7 2.506205 1_554
Hf2 S7 2.506205 1_655
Hf2 S10 2.586367 1_555
Hf3 S11 2.485089 1_555
Hf3 S6 2.506205 1_555
Hf3 S6 2.506205 1_454
Hf3 S2 2.506205 1_544
Hf3 S2 2.506205 1_555
Hf3 S9 2.586367 1_555
Hf4 S9 2.485926 1_555
Hf4 S8 2.502776 1_555
Hf4 S12 2.502776 1_555
Hf4 S12 2.502776 1_454
Hf4 S8 2.502776 1_544
Hf4 S14 2.529482 1_555
