# generated using pymatgen
data_La3TiCl5O4
_symmetry_space_group_name_H-M   'P 1'
_cell_length_a   4.08248100
_cell_length_b   14.80485200
_cell_length_c   16.95447300
_cell_angle_alpha   90.00000000
_cell_angle_beta   90.00000000
_cell_angle_gamma   90.00000000
_symmetry_Int_Tables_number   1
_chemical_formula_structural   La3TiCl5O4
_chemical_formula_sum   'La12 Ti4 Cl20 O16'
_cell_volume   1024.73728309
_cell_formula_units_Z   4
loop_
 _symmetry_equiv_pos_site_id
 _symmetry_equiv_pos_as_xyz
  1  'x, y, z'
loop_
 _atom_site_type_symbol
 _atom_site_label
 _atom_site_symmetry_multiplicity
 _atom_site_fract_x
 _atom_site_fract_y
 _atom_site_fract_z
 _atom_site_occupancy
  La  La0  1  0.75000000  0.08066900  0.62046200  1
  La  La1  1  0.25000000  0.91933100  0.37953800  1
  La  La2  1  0.75000000  0.91564300  0.87915700  1
  La  La3  1  0.25000000  0.23918800  0.86995500  1
  La  La4  1  0.75000000  0.41933100  0.12046200  1
  La  La5  1  0.25000000  0.08435700  0.12084300  1
  La  La6  1  0.75000000  0.58435700  0.37915700  1
  La  La7  1  0.25000000  0.58066900  0.87953800  1
  La  La8  1  0.75000000  0.73918800  0.63004500  1
  La  La9  1  0.25000000  0.26081200  0.36995500  1
  La  La10  1  0.25000000  0.41564300  0.62084300  1
  La  La11  1  0.75000000  0.76081200  0.13004500  1
  Ti  Ti0  1  0.75000000  0.41078000  0.79160200  1
  Ti  Ti1  1  0.25000000  0.91078000  0.70839800  1
  Ti  Ti2  1  0.75000000  0.08922000  0.29160200  1
  Ti  Ti3  1  0.25000000  0.58922000  0.20839800  1
  Cl  Cl0  1  0.25000000  0.89921700  0.20198400  1
  Cl  Cl1  1  0.75000000  0.39921700  0.29801600  1
  Cl  Cl2  1  0.75000000  0.55649600  0.55449600  1
  Cl  Cl3  1  0.25000000  0.71568600  0.47872400  1
  Cl  Cl4  1  0.25000000  0.09638400  0.48364300  1
  Cl  Cl5  1  0.25000000  0.44350400  0.44550400  1
  Cl  Cl6  1  0.75000000  0.59638400  0.01635700  1
  Cl  Cl7  1  0.25000000  0.22490700  0.67977300  1
  Cl  Cl8  1  0.75000000  0.77509300  0.32022700  1
  Cl  Cl9  1  0.25000000  0.27509300  0.17977300  1
  Cl  Cl10  1  0.75000000  0.90361600  0.51635700  1
  Cl  Cl11  1  0.25000000  0.40361600  0.98364300  1
  Cl  Cl12  1  0.25000000  0.05649600  0.94550400  1
  Cl  Cl13  1  0.75000000  0.72490700  0.82022700  1
  Cl  Cl14  1  0.25000000  0.78431400  0.97872400  1
  Cl  Cl15  1  0.75000000  0.94350400  0.05449600  1
  Cl  Cl16  1  0.25000000  0.60078300  0.70198400  1
  Cl  Cl17  1  0.75000000  0.10078300  0.79801600  1
  Cl  Cl18  1  0.75000000  0.28431400  0.52127600  1
  Cl  Cl19  1  0.75000000  0.21568600  0.02127600  1
  O  O0  1  0.25000000  0.90999100  0.81767800  1
  O  O1  1  0.25000000  0.48206600  0.15198600  1
  O  O2  1  0.75000000  0.51793400  0.84801400  1
  O  O3  1  0.75000000  0.09000900  0.18232200  1
  O  O4  1  0.25000000  0.59000900  0.31767800  1
  O  O5  1  0.75000000  0.98206600  0.34801400  1
  O  O6  1  0.75000000  0.30171300  0.84537100  1
  O  O7  1  0.25000000  0.01793400  0.65198600  1
  O  O8  1  0.75000000  0.59144900  0.20841700  1
  O  O9  1  0.75000000  0.90855100  0.70841700  1
  O  O10  1  0.25000000  0.69828700  0.15462900  1
  O  O11  1  0.75000000  0.19828700  0.34537100  1
  O  O12  1  0.25000000  0.40855100  0.79158300  1
  O  O13  1  0.25000000  0.80171300  0.65462900  1
  O  O14  1  0.25000000  0.09144900  0.29158300  1
  O  O15  1  0.75000000  0.40999100  0.68232200  1
loop_
_geom_bond_atom_site_label_1
_geom_bond_atom_site_label_2
_geom_bond_distance
_geom_bond_site_symmetry_2
La0 O7 2.305420 1_555
La0 O7 2.305420 1_655
La1 O5 2.305420 1_455
La1 O5 2.305420 1_555
La2 O0 2.293501 1_655
La2 O0 2.293501 1_555
La3 O6 2.279751 1_455
La3 O6 2.279751 1_555
La4 O1 2.305420 1_555
La4 O1 2.305420 1_655
La5 O3 2.293501 1_555
La5 O3 2.293501 1_455
La6 O4 2.293501 1_655
La6 O4 2.293501 1_555
La7 O2 2.305420 1_455
La7 O2 2.305420 1_555
La8 O13 2.279751 1_555
La8 O13 2.279751 1_655
La9 O11 2.279751 1_455
La9 O11 2.279751 1_555
La10 O15 2.293501 1_555
La10 O15 2.293501 1_455
La11 O10 2.279751 1_555
La11 O10 2.279751 1_655
Cl0 La1 3.025027 1_555
Cl0 La5 3.066835 1_565
Cl0 La11 3.138944 1_455
Cl0 La11 3.138944 1_555
Cl1 La4 3.025027 1_555
Cl1 La6 3.066835 1_555
Cl1 La9 3.138944 1_655
Cl1 La9 3.138944 1_555
Cl2 La8 2.992698 1_555
Cl2 La6 3.001260 1_555
Cl2 La10 3.127383 1_555
Cl2 La10 3.127383 1_655
Cl3 La6 3.285832 1_455
Cl3 La6 3.285832 1_555
Cl3 La8 3.296948 1_555
Cl3 La8 3.296948 1_455
Cl3 La1 3.452211 1_555
Cl4 La0 3.098673 1_455
Cl4 La0 3.098673 1_555
Cl4 La9 3.105045 1_555
Cl4 La1 3.160111 1_545
Cl5 La9 2.992698 1_555
Cl5 La10 3.001260 1_555
Cl5 La6 3.127383 1_455
Cl5 La6 3.127383 1_555
Cl6 La7 3.098673 1_554
Cl6 La7 3.098673 1_654
Cl6 La11 3.105045 1_555
Cl6 La4 3.160111 1_555
Cl7 La10 2.995364 1_555
Cl7 La0 3.120560 1_555
Cl7 La0 3.120560 1_455
Cl7 La3 3.231360 1_555
Cl8 La6 2.995364 1_555
Cl8 La1 3.120560 1_555
Cl8 La1 3.120560 1_655
Cl8 La11 3.231360 1_555
Cl9 La5 2.995364 1_555
Cl9 La4 3.120560 1_555
Cl9 La4 3.120560 1_455
Cl9 La9 3.231360 1_555
Cl10 La1 3.098673 1_555
Cl10 La1 3.098673 1_655
Cl10 La8 3.105045 1_555
Cl10 La0 3.160111 1_565
Cl11 La4 3.098673 1_556
Cl11 La4 3.098673 1_456
Cl11 La3 3.105045 1_555
Cl11 La7 3.160111 1_555
Cl12 La3 2.992698 1_555
Cl12 La5 3.001260 1_556
Cl12 La2 3.127383 1_445
Cl12 La2 3.127383 1_545
Cl13 La2 2.995364 1_555
Cl13 La7 3.120560 1_555
Cl13 La7 3.120560 1_655
Cl13 La8 3.231360 1_555
Cl14 La2 3.285832 1_455
Cl14 La2 3.285832 1_555
Cl14 La11 3.296948 1_556
Cl14 La11 3.296948 1_456
Cl14 La7 3.452211 1_555
Cl15 La11 2.992698 1_555
Cl15 La2 3.001260 1_554
Cl15 La5 3.127383 1_665
Cl15 La5 3.127383 1_565
Cl16 La7 3.025027 1_555
Cl16 La10 3.066835 1_555
Cl16 La8 3.138944 1_455
Cl16 La8 3.138944 1_555
Cl17 La0 3.025027 1_555
Cl17 La2 3.066835 1_545
Cl17 La3 3.138944 1_655
Cl17 La3 3.138944 1_555
Cl18 La10 3.285832 1_555
Cl18 La10 3.285832 1_655
Cl18 La9 3.296948 1_555
Cl18 La9 3.296948 1_655
Cl18 La0 3.452211 1_555
Cl19 La5 3.285832 1_655
Cl19 La5 3.285832 1_555
Cl19 La3 3.296948 1_654
Cl19 La3 3.296948 1_554
Cl19 La4 3.452211 1_555
O0 Ti1 1.852822 1_555
O1 Ti3 1.852412 1_555
O2 Ti0 1.852412 1_555
O3 Ti2 1.852822 1_555
O4 Ti3 1.852822 1_555
O5 Ti2 1.852412 1_565
O6 Ti0 1.854288 1_555
O7 Ti1 1.852412 1_545
O8 Ti3 2.041507 1_555
O8 Ti3 2.041507 1_655
O9 Ti1 2.041507 1_555
O9 Ti1 2.041507 1_655
O10 Ti3 1.854288 1_555
O11 Ti2 1.854288 1_555
O12 Ti0 2.041507 1_555
O12 Ti0 2.041507 1_455
O13 Ti1 1.854288 1_555
O14 Ti2 2.041507 1_455
O14 Ti2 2.041507 1_555
O15 Ti0 1.852822 1_555
