# generated using pymatgen
data_Sc2CrB2Rh5
_symmetry_space_group_name_H-M   'P 1'
_cell_length_a   9.38279100
_cell_length_b   9.38279100
_cell_length_c   3.07598600
_cell_angle_alpha   90.00000000
_cell_angle_beta   90.00000000
_cell_angle_gamma   90.00000000
_symmetry_Int_Tables_number   1
_chemical_formula_structural   Sc2CrB2Rh5
_chemical_formula_sum   'Sc4 Cr2 B4 Rh10'
_cell_volume   270.79986262
_cell_formula_units_Z   2
loop_
 _symmetry_equiv_pos_site_id
 _symmetry_equiv_pos_as_xyz
  1  'x, y, z'
loop_
 _atom_site_type_symbol
 _atom_site_label
 _atom_site_symmetry_multiplicity
 _atom_site_fract_x
 _atom_site_fract_y
 _atom_site_fract_z
 _atom_site_occupancy
  Sc  Sc0  1  0.82412000  0.32412000  0.00000000  1
  Sc  Sc1  1  0.32412000  0.17588000  0.00000000  1
  Sc  Sc2  1  0.67588000  0.82412000  0.00000000  1
  Sc  Sc3  1  0.17588000  0.67588000  0.00000000  1
  Cr  Cr0  1  0.00000000  0.00000000  0.00000000  1
  Cr  Cr1  1  0.50000000  0.50000000  0.00000000  1
  B  B0  1  0.62265900  0.12265900  0.00000000  1
  B  B1  1  0.12265900  0.37734100  0.00000000  1
  B  B2  1  0.87734100  0.62265900  0.00000000  1
  B  B3  1  0.37734100  0.87734100  0.00000000  1
  Rh  Rh0  1  0.07067100  0.21859300  0.50000000  1
  Rh  Rh1  1  0.21859300  0.92932900  0.50000000  1
  Rh  Rh2  1  0.78140700  0.07067100  0.50000000  1
  Rh  Rh3  1  0.92932900  0.78140700  0.50000000  1
  Rh  Rh4  1  0.42932900  0.71859300  0.50000000  1
  Rh  Rh5  1  0.57067100  0.28140700  0.50000000  1
  Rh  Rh6  1  0.71859300  0.57067100  0.50000000  1
  Rh  Rh7  1  0.28140700  0.42932900  0.50000000  1
  Rh  Rh8  1  0.50000000  0.00000000  0.50000000  1
  Rh  Rh9  1  0.00000000  0.50000000  0.50000000  1
loop_
_geom_bond_atom_site_label_1
_geom_bond_atom_site_label_2
_geom_bond_distance
_geom_bond_site_symmetry_2
Cr0 Rh1 2.647974 1_544
Cr0 Rh1 2.647974 1_545
Cr0 Rh0 2.647974 1_555
Cr0 Rh0 2.647974 1_554
Cr0 Rh3 2.647974 1_444
Cr0 Rh2 2.647974 1_455
Cr0 Rh3 2.647974 1_445
Cr0 Rh2 2.647974 1_454
Cr1 Rh6 2.647974 1_555
Cr1 Rh6 2.647974 1_554
Cr1 Rh4 2.647974 1_555
Cr1 Rh4 2.647974 1_554
Cr1 Rh5 2.647974 1_554
Cr1 Rh5 2.647974 1_555
Cr1 Rh7 2.647974 1_555
Cr1 Rh7 2.647974 1_554
B0 Rh2 2.195899 1_554
B0 Rh2 2.195899 1_555
B0 Rh5 2.195899 1_554
B0 Rh5 2.195899 1_555
B0 Rh8 2.239306 1_555
B0 Rh8 2.239306 1_554
B0 Sc0 2.673240 1_555
B0 Sc2 2.845292 1_545
B0 Sc1 2.845292 1_555
B1 Rh7 2.195899 1_554
B1 Rh7 2.195899 1_555
B1 Rh0 2.195899 1_555
B1 Rh0 2.195899 1_554
B1 Rh9 2.239306 1_555
B1 Rh9 2.239306 1_554
B1 Sc1 2.673240 1_555
B1 Sc0 2.845292 1_455
B1 Sc3 2.845292 1_555
B2 Rh6 2.195899 1_555
B2 Rh3 2.195899 1_555
B2 Rh6 2.195899 1_554
B2 Rh3 2.195899 1_554
B2 Rh9 2.239306 1_654
B2 Rh9 2.239306 1_655
B2 Sc2 2.673240 1_555
B2 Sc0 2.845292 1_555
B2 Sc3 2.845292 1_655
B3 Rh4 2.195899 1_555
B3 Rh4 2.195899 1_554
B3 Rh1 2.195899 1_555
B3 Rh1 2.195899 1_554
B3 Rh8 2.239306 1_565
B3 Rh8 2.239306 1_564
B3 Sc3 2.673240 1_555
B3 Sc2 2.845292 1_555
B3 Sc1 2.845292 1_565
Rh0 Sc1 2.860280 1_555
Rh0 Sc1 2.860280 1_556
Rh0 Sc0 2.949122 1_455
Rh0 Sc0 2.949122 1_456
Rh1 Sc3 2.860280 1_555
Rh1 Sc3 2.860280 1_556
Rh1 Sc1 2.949122 1_565
Rh1 Sc1 2.949122 1_566
Rh2 Sc0 2.860280 1_555
Rh2 Sc0 2.860280 1_556
Rh2 Sc2 2.949122 1_546
Rh2 Sc2 2.949122 1_545
Rh3 Sc2 2.860280 1_555
Rh3 Sc2 2.860280 1_556
Rh3 Sc3 2.949122 1_656
Rh3 Sc3 2.949122 1_655
Rh4 Sc3 2.860280 1_556
Rh4 Sc3 2.860280 1_555
Rh4 Sc2 2.949122 1_555
Rh4 Sc2 2.949122 1_556
Rh5 Sc0 2.860280 1_555
Rh5 Sc0 2.860280 1_556
Rh5 Sc1 2.949122 1_555
Rh5 Sc1 2.949122 1_556
Rh6 Sc2 2.860280 1_555
Rh6 Sc2 2.860280 1_556
Rh6 Sc0 2.949122 1_555
Rh6 Sc0 2.949122 1_556
Rh7 Sc1 2.860280 1_555
Rh7 Sc1 2.860280 1_556
Rh7 Sc3 2.949122 1_555
Rh7 Sc3 2.949122 1_556
Rh8 Sc2 2.795003 1_546
Rh8 Sc2 2.795003 1_545
Rh8 Sc1 2.795003 1_555
Rh8 Sc1 2.795003 1_556
Rh9 Sc0 2.795003 1_455
Rh9 Sc0 2.795003 1_456
Rh9 Sc3 2.795003 1_556
Rh9 Sc3 2.795003 1_555
