# generated using pymatgen
data_K5NaS4(ClO6)2
_symmetry_space_group_name_H-M   'P 1'
_cell_length_a   8.74199200
_cell_length_b   8.74199200
_cell_length_c   11.77411500
_cell_angle_alpha   90.00000000
_cell_angle_beta   90.00000000
_cell_angle_gamma   90.00000000
_symmetry_Int_Tables_number   1
_chemical_formula_structural   K5NaS4(ClO6)2
_chemical_formula_sum   'K10 Na2 S8 Cl4 O24'
_cell_volume   899.80641026
_cell_formula_units_Z   2
loop_
 _symmetry_equiv_pos_site_id
 _symmetry_equiv_pos_as_xyz
  1  'x, y, z'
loop_
 _atom_site_type_symbol
 _atom_site_label
 _atom_site_symmetry_multiplicity
 _atom_site_fract_x
 _atom_site_fract_y
 _atom_site_fract_z
 _atom_site_occupancy
  K  K0  1  0.00000000  0.00000000  0.50000000  1
  K  K1  1  0.50000000  0.50000000  0.00000000  1
  K  K2  1  0.81158100  0.68841900  0.25000000  1
  K  K3  1  0.18841900  0.31158100  0.25000000  1
  K  K4  1  0.68841900  0.18841900  0.75000000  1
  K  K5  1  0.31158100  0.81158100  0.75000000  1
  K  K6  1  0.68841900  0.18841900  0.25000000  1
  K  K7  1  0.31158100  0.81158100  0.25000000  1
  K  K8  1  0.18841900  0.31158100  0.75000000  1
  K  K9  1  0.81158100  0.68841900  0.75000000  1
  Na  Na0  1  0.50000000  0.50000000  0.50000000  1
  Na  Na1  1  0.00000000  0.00000000  0.00000000  1
  S  S0  1  0.57458300  0.90026400  0.50000000  1
  S  S1  1  0.42541700  0.09973600  0.50000000  1
  S  S2  1  0.92541700  0.40026400  0.00000000  1
  S  S3  1  0.07458300  0.59973600  0.00000000  1
  S  S4  1  0.90026400  0.42541700  0.50000000  1
  S  S5  1  0.09973600  0.57458300  0.50000000  1
  S  S6  1  0.40026400  0.07458300  0.00000000  1
  S  S7  1  0.59973600  0.92541700  0.00000000  1
  Cl  Cl0  1  0.50000000  0.50000000  0.26404000  1
  Cl  Cl1  1  0.00000000  0.00000000  0.76404000  1
  Cl  Cl2  1  0.50000000  0.50000000  0.73596000  1
  Cl  Cl3  1  0.00000000  0.00000000  0.23596000  1
  O  O0  1  0.77147800  0.53313500  0.50000000  1
  O  O1  1  0.22852200  0.46686500  0.50000000  1
  O  O2  1  0.72852200  0.03313500  0.00000000  1
  O  O3  1  0.27147800  0.96686500  0.00000000  1
  O  O4  1  0.53313500  0.22852200  0.50000000  1
  O  O5  1  0.46686500  0.77147800  0.50000000  1
  O  O6  1  0.03313500  0.27147800  0.00000000  1
  O  O7  1  0.96686500  0.72852200  0.00000000  1
  O  O8  1  0.08451700  0.66579400  0.39534100  1
  O  O9  1  0.91548300  0.33420600  0.39534100  1
  O  O10  1  0.41548300  0.16579400  0.89534100  1
  O  O11  1  0.58451700  0.83420600  0.89534100  1
  O  O12  1  0.66579400  0.91548300  0.39534100  1
  O  O13  1  0.33420600  0.08451700  0.39534100  1
  O  O14  1  0.16579400  0.58451700  0.89534100  1
  O  O15  1  0.83420600  0.41548300  0.89534100  1
  O  O16  1  0.91548300  0.33420600  0.60465900  1
  O  O17  1  0.08451700  0.66579400  0.60465900  1
  O  O18  1  0.58451700  0.83420600  0.10465900  1
  O  O19  1  0.41548300  0.16579400  0.10465900  1
  O  O20  1  0.33420600  0.08451700  0.60465900  1
  O  O21  1  0.66579400  0.91548300  0.60465900  1
  O  O22  1  0.83420600  0.41548300  0.10465900  1
  O  O23  1  0.16579400  0.58451700  0.10465900  1
loop_
_geom_bond_atom_site_label_1
_geom_bond_atom_site_label_2
_geom_bond_distance
_geom_bond_site_symmetry_2
K0 O12 3.255807 1_445
K0 O9 3.255807 1_455
K0 O8 3.255807 1_545
K0 O20 3.255807 1_555
K0 O17 3.255807 1_545
K0 O16 3.255807 1_455
K0 O13 3.255807 1_555
K0 O21 3.255807 1_445
K1 O14 3.255807 1_554
K1 O23 3.255807 1_555
K1 O11 3.255807 1_554
K1 O18 3.255807 1_555
K1 O15 3.255807 1_554
K1 O19 3.255807 1_555
K1 O22 3.255807 1_555
K1 O10 3.255807 1_554
K2 O18 2.914254 1_555
K2 O12 2.914254 1_555
K2 O22 2.942882 1_555
K2 O8 2.942882 1_655
K2 O0 3.260376 1_555
K2 O7 3.260376 1_555
K3 O19 2.914254 1_555
K3 O13 2.914254 1_555
K3 O23 2.942882 1_555
K3 O9 2.942882 1_455
K3 O1 3.260376 1_555
K3 O6 3.260376 1_555
K4 O15 2.914254 1_555
K4 O16 2.914254 1_555
K4 O21 2.942882 1_545
K4 O10 2.942882 1_555
K4 O4 3.260376 1_555
K4 O2 3.260376 1_556
K5 O17 2.914254 1_555
K5 O14 2.914254 1_555
K5 O11 2.942882 1_555
K5 O20 2.942882 1_565
K5 O3 3.260376 1_556
K5 O5 3.260376 1_555
K6 O22 2.914254 1_555
K6 O9 2.914254 1_555
K6 O12 2.942882 1_545
K6 O19 2.942882 1_555
K6 O2 3.260376 1_555
K6 O4 3.260376 1_555
K7 O8 2.914254 1_555
K7 O23 2.914254 1_555
K7 O13 2.942882 1_565
K7 O18 2.942882 1_555
K7 O3 3.260376 1_555
K7 O5 3.260376 1_555
K8 O20 2.914254 1_555
K8 O10 2.914254 1_555
K8 O14 2.942882 1_555
K8 O16 2.942882 1_455
K8 O1 3.260376 1_555
K8 O6 3.260376 1_556
K9 O11 2.914254 1_555
K9 O21 2.914254 1_555
K9 O17 2.942882 1_655
K9 O15 2.942882 1_555
K9 O0 3.260376 1_555
K9 O7 3.260376 1_556
Na0 O0 2.390871 1_555
Na0 O4 2.390871 1_555
Na0 O1 2.390871 1_555
Na0 O5 2.390871 1_555
Na1 O2 2.390871 1_455
Na1 O6 2.390871 1_555
Na1 O7 2.390871 1_445
Na1 O3 2.390871 1_545
Cl0 Na0 2.778220 1_555
Cl0 K1 3.108837 1_555
Cl0 K3 3.187436 1_555
Cl0 K7 3.187436 1_555
Cl0 K2 3.187436 1_555
Cl0 K6 3.187436 1_555
Cl1 Na1 2.778220 1_556
Cl1 K0 3.108837 1_555
Cl1 K9 3.187436 1_445
Cl1 K8 3.187436 1_555
Cl1 K5 3.187436 1_545
Cl1 K4 3.187436 1_455
Cl2 Na0 2.778220 1_555
Cl2 K1 3.108837 1_556
Cl2 K4 3.187436 1_555
Cl2 K8 3.187436 1_555
Cl2 K5 3.187436 1_555
Cl2 K9 3.187436 1_555
Cl3 Na1 2.778220 1_555
Cl3 K0 3.108837 1_555
Cl3 K2 3.187436 1_445
Cl3 K3 3.187436 1_555
Cl3 K7 3.187436 1_545
Cl3 K6 3.187436 1_455
O0 S4 1.467744 1_555
O1 S5 1.467744 1_555
O2 S7 1.467744 1_545
O3 S6 1.467744 1_565
O4 S1 1.467744 1_555
O5 S0 1.467744 1_555
O6 S2 1.467744 1_455
O7 S3 1.467744 1_655
O8 S5 1.473762 1_555
O9 S4 1.473762 1_555
O10 S6 1.473762 1_556
O11 S7 1.473762 1_556
O12 S0 1.473762 1_555
O13 S1 1.473762 1_555
O14 S3 1.473762 1_556
O15 S2 1.473762 1_556
O16 S4 1.473762 1_555
O17 S5 1.473762 1_555
O18 S7 1.473762 1_555
O19 S6 1.473762 1_555
O20 S1 1.473762 1_555
O21 S0 1.473762 1_555
O22 S2 1.473762 1_555
O23 S3 1.473762 1_555
