# generated using pymatgen
data_CuBiSCl2
_symmetry_space_group_name_H-M   'P 1'
_cell_length_a   6.82319842
_cell_length_b   6.82319842
_cell_length_c   8.48403200
_cell_angle_alpha   90.00000000
_cell_angle_beta   90.00000000
_cell_angle_gamma   145.38625778
_symmetry_Int_Tables_number   1
_chemical_formula_structural   CuBiSCl2
_chemical_formula_sum   'Cu2 Bi2 S2 Cl4'
_cell_volume   224.36654563
_cell_formula_units_Z   2
loop_
 _symmetry_equiv_pos_site_id
 _symmetry_equiv_pos_as_xyz
  1  'x, y, z'
loop_
 _atom_site_type_symbol
 _atom_site_label
 _atom_site_symmetry_multiplicity
 _atom_site_fract_x
 _atom_site_fract_y
 _atom_site_fract_z
 _atom_site_occupancy
  Cu  Cu0  1  0.00000000  0.00000000  0.00000000  1
  Cu  Cu1  1  0.00000000  0.00000000  0.50000000  1
  Bi  Bi0  1  0.29767800  0.70232200  0.25000000  1
  Bi  Bi1  1  0.70232200  0.29767800  0.75000000  1
  S  S0  1  0.06319100  0.93680900  0.75000000  1
  S  S1  1  0.93680900  0.06319100  0.25000000  1
  Cl  Cl0  1  0.64842500  0.35157500  0.06301300  1
  Cl  Cl1  1  0.64842500  0.35157500  0.43698700  1
  Cl  Cl2  1  0.35157500  0.64842500  0.93698700  1
  Cl  Cl3  1  0.35157500  0.64842500  0.56301300  1
loop_
_geom_bond_atom_site_label_1
_geom_bond_atom_site_label_2
_geom_bond_distance
_geom_bond_site_symmetry_2
Cu0 S1 2.275187 1_455
Cu0 S0 2.275187 1_544
Cu1 S1 2.275187 1_455
Cu1 S0 2.275187 1_545
Bi0 S1 2.721397 1_455
Bi0 S1 2.721397 1_565
Bi0 Cl3 2.746882 1_555
Bi0 Cl2 2.746882 1_554
Bi1 S0 2.721397 1_545
Bi1 S0 2.721397 1_655
Bi1 Cl0 2.746882 1_556
Bi1 Cl1 2.746882 1_555
Cl0 Cu0 2.854023 1_555
Cl0 Cu0 2.854023 1_665
Cl1 Cu1 2.854023 1_555
Cl1 Cu1 2.854023 1_665
Cl2 Cu0 2.854023 1_556
Cl2 Cu0 2.854023 1_666
Cl3 Cu1 2.854023 1_555
Cl3 Cu1 2.854023 1_665
