# generated using pymatgen
data_ZnS
_symmetry_space_group_name_H-M   'P 1'
_cell_length_a   3.80709203
_cell_length_b   3.80709227
_cell_length_c   62.29608516
_cell_angle_alpha   90.00000000
_cell_angle_beta   90.00000000
_cell_angle_gamma   119.99999785
_symmetry_Int_Tables_number   1
_chemical_formula_structural   ZnS
_chemical_formula_sum   'Zn20 S20'
_cell_volume   781.94854193
_cell_formula_units_Z   20
loop_
 _symmetry_equiv_pos_site_id
 _symmetry_equiv_pos_as_xyz
  1  'x, y, z'
loop_
 _atom_site_type_symbol
 _atom_site_label
 _atom_site_symmetry_multiplicity
 _atom_site_fract_x
 _atom_site_fract_y
 _atom_site_fract_z
 _atom_site_occupancy
  Zn  Zn0  1  0.66666700  0.33333300  0.45001830  1
  Zn  Zn1  1  0.33333300  0.66666700  0.70001455  1
  Zn  Zn2  1  0.33333300  0.66666700  0.19999428  1
  Zn  Zn3  1  -0.00000000  0.00000000  0.15001014  1
  Zn  Zn4  1  0.66666700  0.33333300  0.90001896  1
  Zn  Zn5  1  0.33333300  0.66666700  0.95003312  1
  Zn  Zn6  1  -0.00000000  -0.00000000  0.54999125  1
  Zn  Zn7  1  -0.00000000  0.00000000  0.80001165  1
  Zn  Zn8  1  0.66666700  0.33333300  0.75002089  1
  Zn  Zn9  1  0.66666700  0.33333300  0.10002452  1
  Zn  Zn10  1  0.00000000  -0.00000000  0.65003940  1
  Zn  Zn11  1  0.33333300  0.66666700  0.40002395  1
  Zn  Zn12  1  0.66666700  0.33333300  0.60000913  1
  Zn  Zn13  1  -0.00000000  -0.00000000  0.00001099  1
  Zn  Zn14  1  0.33333300  0.66666700  0.05004398  1
  Zn  Zn15  1  0.33333300  0.66666700  0.30003057  1
  Zn  Zn16  1  -0.00000000  0.00000000  0.35000624  1
  Zn  Zn17  1  0.66666700  0.33333300  0.25001494  1
  Zn  Zn18  1  0.33333300  0.66666700  0.84999740  1
  Zn  Zn19  1  0.33333300  0.66666700  0.50004608  1
  S  S0  1  0.33333300  0.66666700  0.33744808  1
  S  S1  1  0.33333300  0.66666700  0.88744008  1
  S  S2  1  0.00000000  0.00000000  0.58743297  1
  S  S3  1  0.66666700  0.33333300  0.13748429  1
  S  S4  1  0.33333300  0.66666700  0.73748351  1
  S  S5  1  0.33333300  0.66666700  0.08749108  1
  S  S6  1  0.00000000  -0.00000000  0.03751761  1
  S  S7  1  0.66666700  0.33333300  0.28752163  1
  S  S8  1  0.66666700  0.33333300  0.78748396  1
  S  S9  1  0.33333300  0.66666700  0.98744671  1
  S  S10  1  0.66666700  0.33333300  0.63752321  1
  S  S11  1  0.33333300  0.66666700  0.23743912  1
  S  S12  1  0.66666700  0.33333300  0.93752062  1
  S  S13  1  0.00000000  -0.00000000  0.38751384  1
  S  S14  1  0.66666700  0.33333300  0.48752509  1
  S  S15  1  0.33333300  0.66666700  0.43744688  1
  S  S16  1  -0.00000000  0.00000000  0.18747384  1
  S  S17  1  0.00000000  0.00000000  0.83747491  1
  S  S18  1  0.33333300  0.66666700  0.53748507  1
  S  S19  1  0.00000000  -0.00000000  0.68748615  1
loop_
_geom_bond_atom_site_label_1
_geom_bond_atom_site_label_2
_geom_bond_distance
_geom_bond_site_symmetry_2
S0 Zn15 2.330964 1_555
S0 Zn16 2.333096 1_565
S0 Zn16 2.333099 1_665
S0 Zn16 2.333100 1_555
S1 Zn18 2.332532 1_555
S1 Zn4 2.333529 1_455
S1 Zn4 2.333530 1_565
S1 Zn4 2.333536 1_555
S2 Zn6 2.332473 1_555
S2 Zn12 2.333473 1_455
S2 Zn12 2.333476 1_555
S2 Zn12 2.333476 1_445
S3 Zn3 2.332422 1_655
S3 Zn3 2.332425 1_555
S3 Zn3 2.332425 1_665
S3 Zn9 2.333597 1_555
S4 Zn8 2.332663 1_455
S4 Zn8 2.332663 1_565
S4 Zn8 2.332669 1_555
S4 Zn1 2.334170 1_555
S5 Zn9 2.332580 1_455
S5 Zn9 2.332580 1_565
S5 Zn9 2.332587 1_555
S5 Zn14 2.332808 1_555
S6 Zn14 2.332433 1_545
S6 Zn14 2.332436 1_445
S6 Zn14 2.332436 1_555
S6 Zn13 2.336516 1_555
S7 Zn15 2.332070 1_655
S7 Zn15 2.332070 1_545
S7 Zn15 2.332076 1_555
S7 Zn17 2.336520 1_555
S8 Zn7 2.332460 1_655
S8 Zn7 2.332464 1_555
S8 Zn7 2.332464 1_665
S8 Zn8 2.333803 1_555
S9 Zn5 2.330720 1_555
S9 Zn13 2.333224 1_566
S9 Zn13 2.333227 1_666
S9 Zn13 2.333227 1_556
S10 Zn10 2.332221 1_655
S10 Zn10 2.332224 1_555
S10 Zn10 2.332224 1_665
S10 Zn12 2.336980 1_555
S11 Zn2 2.332667 1_555
S11 Zn17 2.333465 1_455
S11 Zn17 2.333466 1_565
S11 Zn17 2.333472 1_555
S12 Zn5 2.332144 1_655
S12 Zn5 2.332144 1_545
S12 Zn5 2.332150 1_555
S12 Zn4 2.336207 1_555
S13 Zn11 2.332094 1_545
S13 Zn11 2.332097 1_445
S13 Zn11 2.332098 1_555
S13 Zn16 2.336577 1_555
S14 Zn19 2.332321 1_655
S14 Zn19 2.332321 1_545
S14 Zn19 2.332327 1_555
S14 Zn0 2.336526 1_555
S15 Zn11 2.331302 1_555
S15 Zn0 2.333373 1_455
S15 Zn0 2.333374 1_565
S15 Zn0 2.333380 1_555
S16 Zn2 2.332309 1_545
S16 Zn2 2.332313 1_445
S16 Zn2 2.332313 1_555
S16 Zn3 2.333842 1_555
S17 Zn18 2.332352 1_545
S17 Zn18 2.332355 1_445
S17 Zn18 2.332355 1_555
S17 Zn7 2.333814 1_555
S18 Zn6 2.332012 1_565
S18 Zn6 2.332016 1_665
S18 Zn6 2.332016 1_555
S18 Zn19 2.332303 1_555
S19 Zn1 2.332475 1_545
S19 Zn1 2.332478 1_445
S19 Zn1 2.332479 1_555
S19 Zn10 2.332786 1_555
