# generated using pymatgen
data_Th(TeI)2
_symmetry_space_group_name_H-M   'P 1'
_cell_length_a   7.81070729
_cell_length_b   7.98434663
_cell_length_c   8.21996282
_cell_angle_alpha   81.41838637
_cell_angle_beta   61.69032511
_cell_angle_gamma   71.79716781
_symmetry_Int_Tables_number   1
_chemical_formula_structural   Th(TeI)2
_chemical_formula_sum   'Th2 Te4 I4'
_cell_volume   428.72785919
_cell_formula_units_Z   2
loop_
 _symmetry_equiv_pos_site_id
 _symmetry_equiv_pos_as_xyz
  1  'x, y, z'
loop_
 _atom_site_type_symbol
 _atom_site_label
 _atom_site_symmetry_multiplicity
 _atom_site_fract_x
 _atom_site_fract_y
 _atom_site_fract_z
 _atom_site_occupancy
  Th  Th0  1  0.85698293  0.99988801  0.28585851  1
  Th  Th1  1  0.14301707  0.00011199  0.71414149  1
  Te  Te0  1  0.11563559  0.67318760  0.00005558  1
  Te  Te1  1  0.88436441  0.32681240  -0.00005558  1
  Te  Te2  1  0.66980422  0.11304537  -0.00100129  1
  Te  Te3  1  0.33019578  0.88695463  0.00100129  1
  I  I0  1  0.02643265  0.24647849  0.41976831  1
  I  I1  1  0.55316407  0.75354726  0.42028984  1
  I  I2  1  0.97356735  0.75352151  0.58023169  1
  I  I3  1  0.44683593  0.24645274  0.57971016  1
loop_
_geom_bond_atom_site_label_1
_geom_bond_atom_site_label_2
_geom_bond_distance
_geom_bond_site_symmetry_2
Te0 Te3 2.743189 1_555
Te0 Th1 3.228618 1_564
Te0 Th0 3.231045 1_455
Te1 Te2 2.743189 1_555
Te1 Th0 3.228618 1_545
Te1 Th1 3.231045 1_654
Te2 Th1 3.208800 1_654
Te2 Th0 3.212861 1_545
Te3 Th0 3.208800 1_455
Te3 Th1 3.212861 1_564
I0 Th1 3.178681 1_555
I0 Th0 3.239804 1_445
I1 Th1 3.179990 1_565
I1 Th0 3.240564 1_555
I2 Th0 3.178681 1_555
I2 Th1 3.239804 1_665
I3 Th0 3.179990 1_545
I3 Th1 3.240564 1_555
