# generated using pymatgen
data_Ba3Al3Ga2
_symmetry_space_group_name_H-M   'P 1'
_cell_length_a   5.95590472
_cell_length_b   5.95590724
_cell_length_c   14.80706267
_cell_angle_alpha   90.00000000
_cell_angle_beta   90.00000000
_cell_angle_gamma   120.00002306
_symmetry_Int_Tables_number   1
_chemical_formula_structural   Ba3Al3Ga2
_chemical_formula_sum   'Ba6 Al6 Ga4'
_cell_volume   454.87818731
_cell_formula_units_Z   2
loop_
 _symmetry_equiv_pos_site_id
 _symmetry_equiv_pos_as_xyz
  1  'x, y, z'
loop_
 _atom_site_type_symbol
 _atom_site_label
 _atom_site_symmetry_multiplicity
 _atom_site_fract_x
 _atom_site_fract_y
 _atom_site_fract_z
 _atom_site_occupancy
  Ba  Ba0  1  0.33333300  0.66666700  0.87699543  1
  Ba  Ba1  1  0.66666700  0.33333300  0.37699543  1
  Ba  Ba2  1  0.66666700  0.33333300  0.12300457  1
  Ba  Ba3  1  0.00000000  0.00000000  -0.00000000  1
  Ba  Ba4  1  0.33333300  0.66666700  0.62300457  1
  Ba  Ba5  1  0.00000000  0.00000000  0.50000000  1
  Al  Al0  1  0.84052741  0.68105682  0.75000000  1
  Al  Al1  1  0.68105682  0.84052741  0.25000000  1
  Al  Al2  1  0.84052741  0.15947259  0.75000000  1
  Al  Al3  1  0.15947259  0.84052741  0.25000000  1
  Al  Al4  1  0.31894318  0.15947259  0.75000000  1
  Al  Al5  1  0.15947259  0.31894318  0.25000000  1
  Ga  Ga0  1  0.66666600  0.33333300  0.88514596  1
  Ga  Ga1  1  0.33333400  0.66666700  0.11485404  1
  Ga  Ga2  1  0.33333400  0.66666700  0.38514596  1
  Ga  Ga3  1  0.66666600  0.33333300  0.61485404  1
loop_
_geom_bond_atom_site_label_1
_geom_bond_atom_site_label_2
_geom_bond_distance
_geom_bond_site_symmetry_2
Ba0 Ga0 3.440758 1_565
Ba0 Ga0 3.440761 1_455
Ba0 Ga0 3.440763 1_555
Ba0 Ga1 3.521987 1_556
Ba0 Ba4 3.760859 1_555
Ba0 Ba3 3.891210 1_566
Ba0 Ba3 3.891213 1_666
Ba0 Ba3 3.891214 1_556
Ba1 Ga2 3.440758 1_545
Ba1 Ga2 3.440761 1_655
Ba1 Ga2 3.440763 1_555
Ba1 Ga3 3.521987 1_555
Ba1 Ba2 3.760859 1_555
Ba1 Ba5 3.891210 1_655
Ba1 Ba5 3.891213 1_555
Ba1 Ba5 3.891214 1_665
Ba2 Ga1 3.440758 1_545
Ba2 Ga1 3.440761 1_655
Ba2 Ga1 3.440763 1_555
Ba2 Ga0 3.521987 1_554
Ba2 Ba3 3.891210 1_655
Ba2 Ba3 3.891213 1_555
Ba2 Ba3 3.891214 1_665
Ba3 Ga0 3.836203 1_554
Ba3 Ga1 3.836203 1_445
Ba3 Ga0 3.836209 1_444
Ba3 Ga1 3.836209 1_555
Ba3 Ga1 3.836209 1_545
Ba3 Ga0 3.836209 1_454
Ba4 Ga3 3.440758 1_565
Ba4 Ga3 3.440761 1_455
Ba4 Ga3 3.440763 1_555
Ba4 Ga2 3.521987 1_555
Ba4 Ba5 3.891210 1_565
Ba4 Ba5 3.891213 1_665
Ba4 Ba5 3.891214 1_555
Ba5 Ga3 3.836203 1_555
Ba5 Ga2 3.836203 1_445
Ba5 Ga3 3.836209 1_445
Ba5 Ga2 3.836209 1_555
Ba5 Ga2 3.836209 1_545
Ba5 Ga3 3.836209 1_455
Al0 Ga3 2.687243 1_555
Al0 Ga0 2.687243 1_555
Al0 Al4 2.849398 1_665
Al0 Al2 2.849400 1_565
Al0 Ba4 3.522741 1_555
Al0 Ba0 3.522741 1_555
Al0 Ba4 3.522746 1_655
Al0 Ba0 3.522746 1_655
Al1 Ga1 2.687239 1_555
Al1 Ga2 2.687239 1_555
Al1 Al5 2.849398 1_665
Al1 Al3 2.849399 1_655
Al1 Ba2 3.522742 1_555
Al1 Ba1 3.522742 1_555
Al1 Ba2 3.522747 1_565
Al1 Ba1 3.522747 1_565
Al2 Ga0 2.687236 1_555
Al2 Ga3 2.687236 1_555
Al2 Al4 2.849399 1_655
Al2 Ba0 3.522743 1_545
Al2 Ba4 3.522743 1_545
Al2 Ba4 3.522743 1_655
Al2 Ba0 3.522743 1_655
Al3 Ga2 2.687236 1_555
Al3 Ga1 2.687236 1_555
Al3 Al5 2.849400 1_565
Al3 Ba2 3.522743 1_565
Al3 Ba1 3.522743 1_565
Al3 Ba2 3.522743 1_455
Al3 Ba1 3.522743 1_455
Al4 Ga3 2.687239 1_555
Al4 Ga0 2.687239 1_555
Al4 Ba0 3.522742 1_555
Al4 Ba4 3.522742 1_555
Al4 Ba0 3.522747 1_545
Al4 Ba4 3.522747 1_545
Al5 Ga1 2.687243 1_555
Al5 Ga2 2.687243 1_555
Al5 Ba2 3.522741 1_555
Al5 Ba1 3.522741 1_555
Al5 Ba2 3.522746 1_455
Al5 Ba1 3.522746 1_455
