# generated using pymatgen
data_Sr4Pt4PbO11
_symmetry_space_group_name_H-M   'P 1'
_cell_length_a   5.76505400
_cell_length_b   10.12320308
_cell_length_c   10.22092290
_cell_angle_alpha   89.54840868
_cell_angle_beta   89.82540352
_cell_angle_gamma   89.99267616
_symmetry_Int_Tables_number   1
_chemical_formula_structural   Sr4Pt4PbO11
_chemical_formula_sum   'Sr8 Pt8 Pb2 O22'
_cell_volume   596.48006344
_cell_formula_units_Z   2
loop_
 _symmetry_equiv_pos_site_id
 _symmetry_equiv_pos_as_xyz
  1  'x, y, z'
loop_
 _atom_site_type_symbol
 _atom_site_label
 _atom_site_symmetry_multiplicity
 _atom_site_fract_x
 _atom_site_fract_y
 _atom_site_fract_z
 _atom_site_occupancy
  Sr  Sr0  1  0.25020900  0.12443000  0.95298800  1
  Sr  Sr1  1  0.24882400  0.03389200  0.60506800  1
  Sr  Sr2  1  0.75090700  0.61557300  0.48434300  1
  Sr  Sr3  1  0.25109300  0.46710300  0.87273700  1
  Sr  Sr4  1  0.74890700  0.53289700  0.12726300  1
  Sr  Sr5  1  0.24909300  0.38442700  0.51565700  1
  Sr  Sr6  1  0.74979100  0.87557000  0.04701200  1
  Sr  Sr7  1  0.75117600  0.96610800  0.39493200  1
  Pt  Pt0  1  0.24915400  0.37119400  0.18406000  1
  Pt  Pt1  1  0.74977500  0.20296400  0.10729800  1
  Pt  Pt2  1  0.75084600  0.62880600  0.81594000  1
  Pt  Pt3  1  0.74916200  0.29285700  0.35406800  1
  Pt  Pt4  1  0.75052900  0.87686800  0.72352700  1
  Pt  Pt5  1  0.25083800  0.70714300  0.64593200  1
  Pt  Pt6  1  0.25022500  0.79703600  0.89270200  1
  Pt  Pt7  1  0.24947100  0.12313200  0.27647300  1
  Pb  Pb0  1  0.71573900  0.25531300  0.72901000  1
  Pb  Pb1  1  0.28426100  0.74468700  0.27099000  1
  O  O0  1  0.67641700  0.74739300  0.26356700  1
  O  O1  1  0.24989600  0.63205000  0.46356800  1
  O  O2  1  0.00316300  0.33227200  0.04432400  1
  O  O3  1  0.99582200  0.43230000  0.30948600  1
  O  O4  1  0.75507100  0.05550000  0.63408900  1
  O  O5  1  0.00905300  0.93887600  0.84931400  1
  O  O6  1  0.24492900  0.94450000  0.36591100  1
  O  O7  1  0.50147200  0.66670100  0.95462500  1
  O  O8  1  0.01240800  0.17131000  0.41568000  1
  O  O9  1  0.49852800  0.33329900  0.04537500  1
  O  O10  1  0.51130700  0.83093700  0.58531900  1
  O  O11  1  0.75010400  0.36795000  0.53643200  1
  O  O12  1  0.00417800  0.56770000  0.69051400  1
  O  O13  1  0.49438200  0.93802200  0.85157800  1
  O  O14  1  0.99094700  0.06112400  0.15068600  1
  O  O15  1  0.48869300  0.16906300  0.41468100  1
  O  O16  1  0.32358300  0.25260700  0.73643300  1
  O  O17  1  0.98759200  0.82869000  0.58432000  1
  O  O18  1  0.49983200  0.56926000  0.68981400  1
  O  O19  1  0.50561800  0.06197800  0.14842200  1
  O  O20  1  0.99683700  0.66772800  0.95567600  1
  O  O21  1  0.50016800  0.43074000  0.31018600  1
loop_
_geom_bond_atom_site_label_1
_geom_bond_atom_site_label_2
_geom_bond_distance
_geom_bond_site_symmetry_2
O0 Pb1 2.262004 1_555
O0 Sr6 2.590534 1_555
O0 Sr4 2.621898 1_555
O0 Sr7 2.634649 1_555
O0 Sr2 2.648658 1_555
O1 Pt5 2.018547 1_555
O1 Pb1 2.275087 1_555
O1 Sr5 2.558545 1_555
O1 Sr2 2.888624 1_455
O1 Sr2 2.901476 1_555
O2 Pt0 2.056113 1_555
O2 Pt1 2.059903 1_455
O2 Sr3 2.632341 1_554
O2 Sr4 2.647795 1_455
O2 Sr0 2.710896 1_554
O3 Pt0 2.039592 1_655
O3 Pt3 2.051538 1_555
O3 Sr4 2.553058 1_555
O3 Sr5 2.609564 1_655
O3 Sr2 2.943820 1_555
O4 Pt4 2.019949 1_545
O4 Pb0 2.261338 1_555
O4 Sr7 2.613376 1_545
O4 Sr1 2.869527 1_655
O4 Sr1 2.942818 1_555
O5 Pt6 2.045663 1_555
O5 Pt4 2.071931 1_455
O5 Sr0 2.573932 1_565
O5 Sr6 2.586346 1_456
O5 Sr1 3.001581 1_565
O6 Pt7 2.019949 1_565
O6 Pb1 2.261338 1_555
O6 Sr1 2.613376 1_565
O6 Sr7 2.869527 1_455
O6 Sr7 2.942818 1_555
O7 Pt2 2.054093 1_555
O7 Pt6 2.057027 1_555
O7 Sr3 2.627078 1_555
O7 Sr4 2.638233 1_556
O7 Sr6 2.729897 1_556
O8 Pt7 2.032001 1_555
O8 Pt3 2.051069 1_455
O8 Sr7 2.576418 1_445
O8 Sr1 2.740982 1_555
O8 Sr5 2.757635 1_555
O9 Pt0 2.054093 1_555
O9 Pt1 2.057027 1_555
O9 Sr4 2.627078 1_555
O9 Sr3 2.638233 1_554
O9 Sr0 2.729897 1_554
O10 Pt4 2.033730 1_555
O10 Pt5 2.047370 1_555
O10 Sr1 2.560407 1_565
O10 Sr7 2.741071 1_555
O10 Sr2 2.784302 1_555
O11 Pt3 2.018547 1_555
O11 Pb0 2.275087 1_555
O11 Sr2 2.558545 1_555
O11 Sr5 2.888624 1_655
O11 Sr5 2.901476 1_555
O12 Pt2 2.039592 1_455
O12 Pt5 2.051538 1_555
O12 Sr3 2.553058 1_555
O12 Sr2 2.609564 1_455
O12 Sr5 2.943820 1_555
O13 Pt6 2.045088 1_555
O13 Pt4 2.068240 1_555
O13 Sr6 2.560399 1_556
O13 Sr0 2.576447 1_565
O13 Sr1 3.045816 1_565
O14 Pt1 2.045663 1_555
O14 Pt7 2.071931 1_655
O14 Sr6 2.573932 1_545
O14 Sr0 2.586346 1_654
O14 Sr7 3.001581 1_545
O15 Pt7 2.033730 1_555
O15 Pt3 2.047370 1_555
O15 Sr7 2.560407 1_545
O15 Sr1 2.741071 1_555
O15 Sr5 2.784302 1_555
O16 Pb0 2.262004 1_555
O16 Sr0 2.590534 1_555
O16 Sr3 2.621898 1_555
O16 Sr1 2.634649 1_555
O16 Sr5 2.648658 1_555
O17 Pt4 2.032001 1_555
O17 Pt5 2.051069 1_655
O17 Sr1 2.576418 1_665
O17 Sr7 2.740982 1_555
O17 Sr2 2.757635 1_555
O18 Pt2 2.035478 1_555
O18 Pt5 2.050261 1_555
O18 Sr3 2.564164 1_555
O18 Sr2 2.586795 1_555
O18 Sr5 2.971195 1_555
O19 Pt1 2.045088 1_555
O19 Pt7 2.068240 1_555
O19 Sr0 2.560399 1_554
O19 Sr6 2.576447 1_545
O19 Sr7 3.045816 1_545
O20 Pt2 2.056113 1_555
O20 Pt6 2.059903 1_655
O20 Sr4 2.632341 1_556
O20 Sr3 2.647795 1_655
O20 Sr6 2.710896 1_556
O21 Pt0 2.035478 1_555
O21 Pt3 2.050261 1_555
O21 Sr4 2.564164 1_555
O21 Sr5 2.586795 1_555
O21 Sr2 2.971195 1_555
