# generated using pymatgen
data_S5N2(O2F)4
_symmetry_space_group_name_H-M   'P 1'
_cell_length_a   6.89680800
_cell_length_b   13.12015500
_cell_length_c   13.99979577
_cell_angle_alpha   88.59570353
_cell_angle_beta   90.00000000
_cell_angle_gamma   90.00000000
_symmetry_Int_Tables_number   1
_chemical_formula_structural   S5N2(O2F)4
_chemical_formula_sum   'S20 N8 O32 F16'
_cell_volume   1266.42170149
_cell_formula_units_Z   4
loop_
 _symmetry_equiv_pos_site_id
 _symmetry_equiv_pos_as_xyz
  1  'x, y, z'
loop_
 _atom_site_type_symbol
 _atom_site_label
 _atom_site_symmetry_multiplicity
 _atom_site_fract_x
 _atom_site_fract_y
 _atom_site_fract_z
 _atom_site_occupancy
  S  S0  1  0.86565100  0.64023400  0.27599500  1
  S  S1  1  0.71998700  0.35970100  0.50933500  1
  S  S2  1  0.68284200  0.86299500  0.79537600  1
  S  S3  1  0.28001300  0.64029900  0.49066500  1
  S  S4  1  0.78001300  0.35970100  0.00933500  1
  S  S5  1  0.63434900  0.64023400  0.77599500  1
  S  S6  1  0.18284200  0.13700500  0.70462400  1
  S  S7  1  0.73666800  0.13636100  0.99399400  1
  S  S8  1  0.21998700  0.64029900  0.99066500  1
  S  S9  1  0.23666800  0.86363900  0.50600600  1
  S  S10  1  0.36565100  0.35976600  0.22400500  1
  S  S11  1  0.26333200  0.86363900  0.00600600  1
  S  S12  1  0.29043900  0.77020300  0.81568800  1
  S  S13  1  0.20956100  0.77020300  0.31568800  1
  S  S14  1  0.79043900  0.22979700  0.68431200  1
  S  S15  1  0.70956100  0.22979700  0.18431200  1
  S  S16  1  0.13434900  0.35976600  0.72400500  1
  S  S17  1  0.76333200  0.13636100  0.49399400  1
  S  S18  1  0.31715800  0.13700500  0.20462400  1
  S  S19  1  0.81715800  0.86299500  0.29537600  1
  N  N0  1  0.75809900  0.24138900  0.56464300  1
  N  N1  1  0.25809900  0.75861100  0.93535700  1
  N  N2  1  0.46860800  0.24207500  0.20358400  1
  N  N3  1  0.74190100  0.24138900  0.06464300  1
  N  N4  1  0.03139200  0.24207500  0.70358400  1
  N  N5  1  0.53139200  0.75792500  0.79641600  1
  N  N6  1  0.96860800  0.75792500  0.29641600  1
  N  N7  1  0.24190100  0.75861100  0.43535700  1
  O  O0  1  0.32978100  0.83854100  0.59412800  1
  O  O1  1  0.85288900  0.83969500  0.84924000  1
  O  O2  1  0.83451100  0.36764100  0.42518500  1
  O  O3  1  0.18400500  0.34338900  0.26955600  1
  O  O4  1  0.64711100  0.83969500  0.34924000  1
  O  O5  1  0.77991400  0.04887100  0.05139600  1
  O  O6  1  0.82978100  0.16145900  0.90587200  1
  O  O7  1  0.81599500  0.65661100  0.73044400  1
  O  O8  1  0.35288900  0.16030500  0.65076000  1
  O  O9  1  0.72008600  0.04887100  0.55139600  1
  O  O10  1  0.31599500  0.34338900  0.76955600  1
  O  O11  1  0.33451100  0.63235900  0.07481500  1
  O  O12  1  0.68400500  0.65661100  0.23044400  1
  O  O13  1  0.43492400  0.05006300  0.18967900  1
  O  O14  1  0.78340500  0.43253600  0.08261200  1
  O  O15  1  0.67021900  0.16145900  0.40587200  1
  O  O16  1  0.48610100  0.57496200  0.74344100  1
  O  O17  1  0.01389900  0.57496200  0.24344100  1
  O  O18  1  0.93492400  0.94993700  0.31032100  1
  O  O19  1  0.16548900  0.63235900  0.57481500  1
  O  O20  1  0.17021900  0.83854100  0.09412800  1
  O  O21  1  0.71659500  0.43253600  0.58261200  1
  O  O22  1  0.27991400  0.95112900  0.44860400  1
  O  O23  1  0.06507600  0.05006300  0.68967900  1
  O  O24  1  0.66548900  0.36764100  0.92518500  1
  O  O25  1  0.14711100  0.16030500  0.15076000  1
  O  O26  1  0.98610100  0.42503800  0.75655900  1
  O  O27  1  0.21659500  0.56746400  0.91738800  1
  O  O28  1  0.28340500  0.56746400  0.41738800  1
  O  O29  1  0.22008600  0.95112900  0.94860400  1
  O  O30  1  0.56507600  0.94993700  0.81032100  1
  O  O31  1  0.51389900  0.42503800  0.25655900  1
  F  F0  1  0.50163200  0.34343000  0.47693600  1
  F  F1  1  0.75766500  0.86487700  0.18663400  1
  F  F2  1  0.51000600  0.13419900  0.97303600  1
  F  F3  1  0.82155300  0.60780300  0.38425200  1
  F  F4  1  0.25766500  0.13512300  0.31336600  1
  F  F5  1  0.98999400  0.13419900  0.47303600  1
  F  F6  1  0.24233500  0.13512300  0.81336600  1
  F  F7  1  0.74233500  0.86487700  0.68663400  1
  F  F8  1  0.67844700  0.60780300  0.88425200  1
  F  F9  1  0.17844700  0.39219700  0.61574800  1
  F  F10  1  0.32155300  0.39219700  0.11574800  1
  F  F11  1  0.99836800  0.34343000  0.97693600  1
  F  F12  1  0.00163200  0.65657000  0.02306400  1
  F  F13  1  0.48999400  0.86580100  0.02696400  1
  F  F14  1  0.01000600  0.86580100  0.52696400  1
  F  F15  1  0.49836800  0.65657000  0.52306400  1
loop_
_geom_bond_atom_site_label_1
_geom_bond_atom_site_label_2
_geom_bond_distance
_geom_bond_site_symmetry_2
N0 S14 1.693269 1_555
N0 S17 1.716160 1_555
N0 S1 1.737604 1_555
N1 S12 1.693269 1_555
N1 S11 1.716160 1_556
N1 S8 1.737604 1_555
N2 S15 1.691885 1_555
N2 S18 1.729338 1_555
N2 S10 1.729710 1_555
N3 S15 1.693269 1_555
N3 S7 1.716160 1_554
N3 S4 1.737604 1_555
N4 S14 1.691885 1_455
N4 S6 1.729338 1_555
N4 S16 1.729710 1_555
N5 S12 1.691885 1_555
N5 S2 1.729338 1_555
N5 S5 1.729710 1_555
N6 S13 1.691885 1_655
N6 S19 1.729338 1_555
N6 S0 1.729710 1_555
N7 S13 1.693269 1_555
N7 S9 1.716160 1_555
N7 S3 1.737604 1_555
O0 S9 1.422290 1_555
O1 S2 1.423451 1_555
O2 S1 1.420063 1_555
O3 S10 1.419708 1_555
O4 S19 1.423451 1_555
O5 S7 1.416749 1_554
O6 S7 1.422290 1_555
O7 S5 1.419708 1_555
O8 S6 1.423451 1_555
O9 S17 1.416749 1_555
O10 S16 1.419708 1_555
O11 S8 1.420063 1_554
O12 S0 1.419708 1_555
O13 S18 1.419978 1_555
O14 S4 1.419217 1_555
O15 S17 1.422290 1_555
O16 S5 1.416193 1_555
O17 S0 1.416193 1_455
O18 S19 1.419978 1_555
O19 S3 1.420063 1_555
O20 S11 1.422290 1_555
O21 S1 1.419217 1_555
O22 S9 1.416749 1_555
O23 S6 1.419978 1_555
O24 S4 1.420063 1_556
O25 S18 1.423451 1_555
O26 S16 1.416193 1_655
O27 S8 1.419217 1_555
O28 S3 1.419217 1_555
O29 S11 1.416749 1_556
O30 S2 1.419978 1_555
O31 S10 1.416193 1_555
F0 S1 1.588693 1_555
F1 S19 1.576300 1_555
F2 S7 1.590922 1_555
F3 S0 1.593396 1_555
F4 S18 1.576300 1_555
F5 S17 1.590922 1_555
F6 S6 1.576300 1_555
F7 S2 1.576300 1_555
F8 S5 1.593396 1_555
F9 S16 1.593396 1_555
F10 S10 1.593396 1_555
F11 S4 1.588693 1_556
F12 S8 1.588693 1_554
F13 S11 1.590922 1_555
F14 S9 1.590922 1_555
F15 S3 1.588693 1_555
