# generated using pymatgen
data_Na2Hg3S4
_symmetry_space_group_name_H-M   'P 1'
_cell_length_a   7.44463837
_cell_length_b   8.29965135
_cell_length_c   14.01858074
_cell_angle_alpha   90.00000000
_cell_angle_beta   90.00000000
_cell_angle_gamma   90.00000000
_symmetry_Int_Tables_number   1
_chemical_formula_structural   Na2Hg3S4
_chemical_formula_sum   'Na8 Hg12 S16'
_cell_volume   866.17870553
_cell_formula_units_Z   4
loop_
 _symmetry_equiv_pos_site_id
 _symmetry_equiv_pos_as_xyz
  1  'x, y, z'
loop_
 _atom_site_type_symbol
 _atom_site_label
 _atom_site_symmetry_multiplicity
 _atom_site_fract_x
 _atom_site_fract_y
 _atom_site_fract_z
 _atom_site_occupancy
  Na  Na0  1  0.43371988  0.61802045  0.60878530  1
  Na  Na1  1  0.93371988  0.38197955  0.89121470  1
  Na  Na2  1  0.06628012  0.11802045  0.39121470  1
  Na  Na3  1  0.56628012  0.88197955  0.10878530  1
  Na  Na4  1  0.56628012  0.38197955  0.39121470  1
  Na  Na5  1  0.06628012  0.61802045  0.10878530  1
  Na  Na6  1  0.93371988  0.88197955  0.60878530  1
  Na  Na7  1  0.43371988  0.11802045  0.89121470  1
  Hg  Hg0  1  0.26717706  0.77255196  0.30856319  1
  Hg  Hg1  1  0.76717706  0.22744804  0.19143681  1
  Hg  Hg2  1  0.23282294  0.27255196  0.69143681  1
  Hg  Hg3  1  0.73282294  0.72744804  0.80856319  1
  Hg  Hg4  1  0.73282294  0.22744804  0.69143681  1
  Hg  Hg5  1  0.23282294  0.77255196  0.80856319  1
  Hg  Hg6  1  0.76717706  0.72744804  0.30856319  1
  Hg  Hg7  1  0.26717706  0.27255196  0.19143681  1
  Hg  Hg8  1  0.50000000  -0.00000000  0.50000000  1
  Hg  Hg9  1  0.00000000  -0.00000000  0.00000000  1
  Hg  Hg10  1  0.00000000  0.50000000  0.50000000  1
  Hg  Hg11  1  0.50000000  0.50000000  0.00000000  1
  S  S0  1  0.73630995  0.65586896  0.48498354  1
  S  S1  1  0.23630995  0.34413104  0.01501646  1
  S  S2  1  0.76369005  0.15586896  0.51501646  1
  S  S3  1  0.26369005  0.84413104  0.98498354  1
  S  S4  1  0.26369005  0.34413104  0.51501646  1
  S  S5  1  0.76369005  0.65586896  0.98498354  1
  S  S6  1  0.23630995  0.84413104  0.48498354  1
  S  S7  1  0.73630995  0.15586896  0.01501646  1
  S  S8  1  0.51075541  0.89852559  0.73109814  1
  S  S9  1  0.01075541  0.10147441  0.76890186  1
  S  S10  1  0.98924459  0.39852559  0.26890186  1
  S  S11  1  0.48924459  0.60147441  0.23109814  1
  S  S12  1  0.48924459  0.10147441  0.26890186  1
  S  S13  1  0.98924459  0.89852559  0.23109814  1
  S  S14  1  0.01075541  0.60147441  0.73109814  1
  S  S15  1  0.51075541  0.39852559  0.76890186  1
loop_
_geom_bond_atom_site_label_1
_geom_bond_atom_site_label_2
_geom_bond_distance
_geom_bond_site_symmetry_2
Na0 S0 2.860990 1_555
Na0 S4 2.915061 1_555
Na0 S15 2.947180 1_555
Na0 S8 2.947705 1_555
Na0 S6 2.948505 1_555
Na1 S1 2.860990 1_656
Na1 S5 2.915061 1_555
Na1 S14 2.947180 1_655
Na1 S9 2.947705 1_655
Na1 S7 2.948505 1_556
Na2 S2 2.860990 1_455
Na2 S6 2.915061 1_545
Na2 S13 2.947180 1_445
Na2 S10 2.947705 1_455
Na2 S4 2.948505 1_555
Na3 S3 2.860990 1_554
Na3 S7 2.915061 1_565
Na3 S12 2.947180 1_565
Na3 S11 2.947705 1_555
Na3 S5 2.948505 1_554
Na4 S4 2.860990 1_555
Na4 S0 2.915061 1_555
Na4 S11 2.947180 1_555
Na4 S12 2.947705 1_555
Na4 S2 2.948505 1_555
Na5 S5 2.860990 1_454
Na5 S1 2.915061 1_555
Na5 S10 2.947180 1_455
Na5 S13 2.947705 1_455
Na5 S3 2.948505 1_554
Na6 S6 2.860990 1_655
Na6 S2 2.915061 1_565
Na6 S9 2.947180 1_665
Na6 S14 2.947705 1_655
Na6 S0 2.948505 1_555
Na7 S7 2.860990 1_556
Na7 S3 2.915061 1_545
Na7 S8 2.947180 1_545
Na7 S15 2.947705 1_555
Na7 S1 2.948505 1_556
Hg0 S11 2.434845 1_555
Hg0 S6 2.553874 1_555
Hg0 S13 2.560007 1_455
Hg1 S10 2.434845 1_555
Hg1 S7 2.553874 1_555
Hg1 S12 2.560007 1_555
Hg2 S9 2.434845 1_555
Hg2 S4 2.553874 1_555
Hg2 S15 2.560007 1_555
Hg3 S8 2.434845 1_555
Hg3 S5 2.553874 1_555
Hg3 S14 2.560007 1_655
Hg4 S15 2.434845 1_555
Hg4 S2 2.553874 1_555
Hg4 S9 2.560007 1_655
Hg5 S14 2.434845 1_555
Hg5 S3 2.553874 1_555
Hg5 S8 2.560007 1_555
Hg6 S13 2.434845 1_555
Hg6 S0 2.553874 1_555
Hg6 S11 2.560007 1_555
Hg7 S12 2.434845 1_555
Hg7 S1 2.553874 1_555
Hg7 S10 2.560007 1_455
Hg8 S6 2.360410 1_545
Hg8 S2 2.360410 1_555
Hg9 S3 2.360410 1_544
Hg9 S7 2.360410 1_455
Hg10 S4 2.360410 1_555
Hg10 S0 2.360410 1_455
Hg11 S5 2.360410 1_554
Hg11 S1 2.360410 1_555
