# generated using pymatgen
data_Rb2U(MoO5)2
_symmetry_space_group_name_H-M   'P 1'
_cell_length_a   13.92551600
_cell_length_b   12.52570300
_cell_length_c   13.91531856
_cell_angle_alpha   85.22468733
_cell_angle_beta   90.00000000
_cell_angle_gamma   90.00000000
_symmetry_Int_Tables_number   1
_chemical_formula_structural   Rb2U(MoO5)2
_chemical_formula_sum   'Rb16 U8 Mo16 O80'
_cell_volume   2418.78030165
_cell_formula_units_Z   8
loop_
 _symmetry_equiv_pos_site_id
 _symmetry_equiv_pos_as_xyz
  1  'x, y, z'
loop_
 _atom_site_type_symbol
 _atom_site_label
 _atom_site_symmetry_multiplicity
 _atom_site_fract_x
 _atom_site_fract_y
 _atom_site_fract_z
 _atom_site_occupancy
  Rb  Rb0  1  0.04379900  0.73322900  0.81409700  1
  Rb  Rb1  1  0.84436800  0.45658800  0.78612800  1
  Rb  Rb2  1  0.37530000  0.24191700  0.21671400  1
  Rb  Rb3  1  0.17368100  0.96305400  0.30541000  1
  Rb  Rb4  1  0.65563200  0.45658800  0.28612800  1
  Rb  Rb5  1  0.95620100  0.26677100  0.18590300  1
  Rb  Rb6  1  0.34436800  0.54341200  0.71387200  1
  Rb  Rb7  1  0.87530000  0.75808300  0.28328600  1
  Rb  Rb8  1  0.62470000  0.75808300  0.78328600  1
  Rb  Rb9  1  0.12470000  0.24191700  0.71671400  1
  Rb  Rb10  1  0.54379900  0.26677100  0.68590300  1
  Rb  Rb11  1  0.82631900  0.03694600  0.69459000  1
  Rb  Rb12  1  0.15563200  0.54341200  0.21387200  1
  Rb  Rb13  1  0.45620100  0.73322900  0.31409700  1
  Rb  Rb14  1  0.32631900  0.96305400  0.80541000  1
  Rb  Rb15  1  0.67368100  0.03694600  0.19459000  1
  U  U0  1  0.32083200  0.66852400  0.98812100  1
  U  U1  1  0.18230200  0.15611500  0.02810500  1
  U  U2  1  0.67916800  0.33147600  0.01187900  1
  U  U3  1  0.31769800  0.15611500  0.52810500  1
  U  U4  1  0.81769800  0.84388500  0.97189500  1
  U  U5  1  0.82083200  0.33147600  0.51187900  1
  U  U6  1  0.17916800  0.66852400  0.48812100  1
  U  U7  1  0.68230200  0.84388500  0.47189500  1
  Mo  Mo0  1  0.59599800  0.64117500  0.04951700  1
  Mo  Mo1  1  0.08857200  0.84921200  0.06012300  1
  Mo  Mo2  1  0.37287000  0.44675700  0.42552600  1
  Mo  Mo3  1  0.87287000  0.55324300  0.07447400  1
  Mo  Mo4  1  0.62713000  0.55324300  0.57447400  1
  Mo  Mo5  1  0.11605600  0.94422200  0.59419800  1
  Mo  Mo6  1  0.58857200  0.15078800  0.43987700  1
  Mo  Mo7  1  0.90400200  0.64117500  0.54951700  1
  Mo  Mo8  1  0.41142800  0.84921200  0.56012300  1
  Mo  Mo9  1  0.09599800  0.35882500  0.45048300  1
  Mo  Mo10  1  0.88394400  0.05577800  0.40580200  1
  Mo  Mo11  1  0.91142800  0.15078800  0.93987700  1
  Mo  Mo12  1  0.61605600  0.05577800  0.90580200  1
  Mo  Mo13  1  0.38394400  0.94422200  0.09419800  1
  Mo  Mo14  1  0.40400200  0.35882500  0.95048300  1
  Mo  Mo15  1  0.12713000  0.44675700  0.92552600  1
  O  O0  1  0.83351200  0.36384200  0.38196400  1
  O  O1  1  0.19219900  0.12918000  0.90070500  1
  O  O2  1  0.82997900  0.92289700  0.43552900  1
  O  O3  1  0.50828900  0.31775800  0.02253200  1
  O  O4  1  0.29999300  0.29311400  0.00842300  1
  O  O5  1  0.33155100  0.75561400  0.50907200  1
  O  O6  1  0.88729800  0.49799500  0.55263600  1
  O  O7  1  0.49129900  0.04256800  0.89225400  1
  O  O8  1  0.80780100  0.87082000  0.09929500  1
  O  O9  1  0.84592400  0.02832400  0.92501500  1
  O  O10  1  0.84070100  0.10525800  0.29135800  1
  O  O11  1  0.33351200  0.63615800  0.11803600  1
  O  O12  1  0.91828900  0.67326000  0.66884200  1
  O  O13  1  0.19467600  0.70236800  0.35837300  1
  O  O14  1  0.85502300  0.15271300  0.49441400  1
  O  O15  1  0.38729800  0.50200500  0.94736400  1
  O  O16  1  0.35502300  0.84728700  0.00558600  1
  O  O17  1  0.99129900  0.95743200  0.60774600  1
  O  O18  1  0.14497700  0.84728700  0.50558600  1
  O  O19  1  0.48858600  0.12478700  0.52148700  1
  O  O20  1  0.69219900  0.87082000  0.59929500  1
  O  O21  1  0.20000700  0.29311400  0.50842300  1
  O  O22  1  0.39813400  0.31801900  0.49369100  1
  O  O23  1  0.00828900  0.68224200  0.47746800  1
  O  O24  1  0.19178400  0.42102800  0.82058700  1
  O  O25  1  0.65407600  0.02832400  0.42501500  1
  O  O26  1  0.61270200  0.49799500  0.05263600  1
  O  O27  1  0.16844900  0.75561400  0.00907200  1
  O  O28  1  0.95004200  0.20350700  0.82484100  1
  O  O29  1  0.89813400  0.68198100  0.00630900  1
  O  O30  1  0.30308300  0.53933700  0.49337100  1
  O  O31  1  0.98149600  0.49121800  0.11455100  1
  O  O32  1  0.54995800  0.20350700  0.32484100  1
  O  O33  1  0.98858600  0.87521300  0.97851300  1
  O  O34  1  0.04995800  0.79649300  0.17515900  1
  O  O35  1  0.69467600  0.29763200  0.14162700  1
  O  O36  1  0.11270200  0.50200500  0.44736400  1
  O  O37  1  0.80532400  0.29763200  0.64162700  1
  O  O38  1  0.64497700  0.15271300  0.99441400  1
  O  O39  1  0.66844900  0.24438600  0.49092800  1
  O  O40  1  0.49171100  0.68224200  0.97746800  1
  O  O41  1  0.32997900  0.07710300  0.06447100  1
  O  O42  1  0.19691700  0.53933700  0.99337100  1
  O  O43  1  0.80308300  0.46066300  0.00662900  1
  O  O44  1  0.67153700  0.82208100  0.34349000  1
  O  O45  1  0.51141400  0.87521300  0.47851300  1
  O  O46  1  0.65929900  0.10525800  0.79135800  1
  O  O47  1  0.66648800  0.36384200  0.88196400  1
  O  O48  1  0.32846300  0.17791900  0.65651000  1
  O  O49  1  0.17153700  0.17791900  0.15651000  1
  O  O50  1  0.45004200  0.79649300  0.67515900  1
  O  O51  1  0.30532400  0.70236800  0.85837300  1
  O  O52  1  0.08171100  0.32674000  0.33115800  1
  O  O53  1  0.99171100  0.31775800  0.52253200  1
  O  O54  1  0.50870100  0.95743200  0.10774600  1
  O  O55  1  0.15929900  0.89474200  0.70864200  1
  O  O56  1  0.01850400  0.50878200  0.88544900  1
  O  O57  1  0.17002100  0.07710300  0.56447100  1
  O  O58  1  0.15407600  0.97167600  0.07498500  1
  O  O59  1  0.69178400  0.57897200  0.67941300  1
  O  O60  1  0.48149600  0.50878200  0.38544900  1
  O  O61  1  0.34592400  0.97167600  0.57498500  1
  O  O62  1  0.41828900  0.32674000  0.83115800  1
  O  O63  1  0.30821600  0.42102800  0.32058700  1
  O  O64  1  0.51850400  0.49121800  0.61455100  1
  O  O65  1  0.83155100  0.24438600  0.99092800  1
  O  O66  1  0.80821600  0.57897200  0.17941300  1
  O  O67  1  0.60186600  0.68198100  0.50630900  1
  O  O68  1  0.30780100  0.12918000  0.40070500  1
  O  O69  1  0.16648800  0.63615800  0.61803600  1
  O  O70  1  0.34070100  0.89474200  0.20864200  1
  O  O71  1  0.10186600  0.31801900  0.99369100  1
  O  O72  1  0.82846300  0.82208100  0.84349000  1
  O  O73  1  0.79999300  0.70688600  0.49157700  1
  O  O74  1  0.69691700  0.46066300  0.50662900  1
  O  O75  1  0.70000700  0.70688600  0.99157700  1
  O  O76  1  0.01141400  0.12478700  0.02148700  1
  O  O77  1  0.00870100  0.04256800  0.39225400  1
  O  O78  1  0.58171100  0.67326000  0.16884200  1
  O  O79  1  0.67002100  0.92289700  0.93552900  1
loop_
_geom_bond_atom_site_label_1
_geom_bond_atom_site_label_2
_geom_bond_distance
_geom_bond_site_symmetry_2
Mo0 O78 1.751936 1_555
Mo0 O26 1.805387 1_555
Mo0 O40 1.814646 1_554
Mo0 O75 1.820663 1_554
Mo1 O34 1.763984 1_555
Mo1 O27 1.804182 1_555
Mo1 O33 1.809088 1_454
Mo1 O58 1.811257 1_555
Mo2 O63 1.767819 1_555
Mo2 O60 1.769361 1_555
Mo2 O30 1.833780 1_555
Mo2 O22 1.835510 1_555
Mo3 O66 1.767819 1_555
Mo3 O31 1.769361 1_555
Mo3 O43 1.833780 1_555
Mo3 O29 1.835510 1_555
Mo4 O59 1.767819 1_555
Mo4 O64 1.769361 1_555
Mo4 O74 1.833780 1_555
Mo4 O67 1.835510 1_555
Mo5 O17 1.756800 1_455
Mo5 O55 1.765939 1_555
Mo5 O57 1.841613 1_565
Mo5 O18 1.845576 1_555
Mo6 O32 1.763984 1_555
Mo6 O39 1.804182 1_555
Mo6 O19 1.809088 1_555
Mo6 O25 1.811257 1_555
Mo7 O12 1.751936 1_555
Mo7 O6 1.805387 1_555
Mo7 O23 1.814646 1_655
Mo7 O73 1.820663 1_555
Mo8 O50 1.763984 1_555
Mo8 O5 1.804182 1_555
Mo8 O45 1.809088 1_555
Mo8 O61 1.811257 1_555
Mo9 O52 1.751936 1_555
Mo9 O36 1.805387 1_555
Mo9 O53 1.814646 1_455
Mo9 O21 1.820663 1_555
Mo10 O77 1.756800 1_655
Mo10 O10 1.765939 1_555
Mo10 O2 1.841613 1_545
Mo10 O14 1.845576 1_555
Mo11 O28 1.763984 1_555
Mo11 O65 1.804182 1_555
Mo11 O76 1.809088 1_656
Mo11 O9 1.811257 1_555
Mo12 O7 1.756800 1_555
Mo12 O46 1.765939 1_555
Mo12 O79 1.841613 1_545
Mo12 O38 1.845576 1_555
Mo13 O54 1.756800 1_555
Mo13 O70 1.765939 1_555
Mo13 O41 1.841613 1_565
Mo13 O16 1.845576 1_555
Mo14 O62 1.751936 1_555
Mo14 O15 1.805387 1_555
Mo14 O3 1.814646 1_556
Mo14 O4 1.820663 1_556
Mo15 O24 1.767819 1_555
Mo15 O56 1.769361 1_555
Mo15 O42 1.833780 1_555
Mo15 O71 1.835510 1_555
O0 U5 1.828026 1_555
O0 Rb4 3.000993 1_555
O0 Rb5 3.520374 1_555
O1 U1 1.837189 1_556
O1 Rb9 2.971653 1_555
O1 Rb14 3.167971 1_545
O2 U7 2.319756 1_555
O2 Rb7 3.142667 1_555
O3 U2 2.389488 1_555
O3 Rb2 3.347551 1_555
O4 U1 2.372228 1_555
O4 Rb2 3.098781 1_555
O5 U6 2.414718 1_555
O5 Rb13 3.252608 1_555
O6 U5 2.392848 1_555
O6 Rb1 3.301904 1_555
O7 Rb14 2.816189 1_545
O8 U4 1.837189 1_554
O8 Rb7 2.971653 1_555
O8 Rb15 3.167971 1_565
O9 U4 2.380397 1_545
O9 Rb11 3.210885 1_555
O10 Rb15 2.854248 1_555
O10 Rb5 2.887702 1_555
O11 U0 1.828026 1_554
O11 Rb12 3.000993 1_555
O11 Rb13 3.520374 1_555
O12 Rb0 2.820874 1_655
O12 Rb1 3.217366 1_555
O13 U6 1.832672 1_555
O13 Rb12 2.994936 1_555
O13 Rb3 3.299999 1_555
O14 U5 2.321654 1_555
O14 Rb11 3.057618 1_555
O15 U0 2.392848 1_555
O15 Rb6 3.301904 1_555
O16 U0 2.321654 1_554
O16 Rb14 3.057618 1_554
O17 Rb11 2.816189 1_565
O18 U6 2.321654 1_555
O18 Rb3 3.057618 1_555
O19 U3 2.414843 1_555
O19 Rb10 3.109018 1_555
O20 U7 1.837189 1_555
O20 Rb8 2.971653 1_555
O20 Rb11 3.167971 1_565
O21 U3 2.372228 1_555
O21 Rb9 3.098781 1_555
O22 U3 2.331290 1_555
O22 Rb10 3.375621 1_555
O23 U6 2.389488 1_555
O23 Rb7 3.347551 1_455
O24 Rb9 2.921492 1_555
O24 Rb6 2.948030 1_555
O25 U7 2.380397 1_545
O25 Rb15 3.210885 1_555
O26 U2 2.392848 1_555
O26 Rb4 3.301904 1_555
O27 U0 2.414718 1_554
O27 Rb0 3.252608 1_554
O28 Rb9 2.879312 1_655
O28 Rb11 3.351972 1_555
O28 Rb1 3.495767 1_555
O29 U4 2.331290 1_554
O29 Rb0 3.375621 1_654
O30 U6 2.362566 1_555
O30 Rb6 3.126328 1_555
O31 Rb12 2.892803 1_655
O31 Rb5 2.923845 1_555
O32 Rb2 2.879312 1_555
O32 Rb15 3.351972 1_555
O32 Rb4 3.495767 1_555
O33 U4 2.414843 1_555
O33 Rb0 3.109018 1_655
O34 Rb7 2.879312 1_455
O34 Rb3 3.351972 1_555
O34 Rb12 3.495767 1_555
O35 U2 1.832672 1_555
O35 Rb4 2.994936 1_555
O35 Rb15 3.299999 1_555
O36 U6 2.392848 1_555
O36 Rb12 3.301904 1_555
O37 U5 1.832672 1_555
O37 Rb1 2.994936 1_555
O37 Rb11 3.299999 1_555
O38 U2 2.321654 1_556
O38 Rb15 3.057618 1_556
O39 U5 2.414718 1_555
O39 Rb10 3.252608 1_555
O40 U0 2.389488 1_555
O40 Rb8 3.347551 1_555
O41 U1 2.319756 1_555
O41 Rb2 3.142667 1_555
O42 U0 2.362566 1_555
O42 Rb12 3.126328 1_556
O43 U2 2.362566 1_555
O43 Rb1 3.126328 1_554
O44 U7 1.836015 1_555
O44 Rb7 3.083453 1_555
O44 Rb13 3.236309 1_555
O44 Rb15 3.257125 1_565
O45 U7 2.414843 1_555
O45 Rb13 3.109018 1_555
O46 Rb11 2.854248 1_555
O46 Rb10 2.887702 1_555
O47 U2 1.828026 1_556
O47 Rb1 3.000993 1_555
O47 Rb10 3.520374 1_555
O48 U3 1.836015 1_555
O48 Rb9 3.083453 1_555
O48 Rb10 3.236309 1_555
O48 Rb14 3.257125 1_545
O49 U1 1.836015 1_555
O49 Rb2 3.083453 1_555
O49 Rb5 3.236309 1_455
O49 Rb3 3.257125 1_545
O50 Rb8 2.879312 1_555
O50 Rb14 3.351972 1_555
O50 Rb6 3.495767 1_555
O51 U0 1.832672 1_555
O51 Rb6 2.994936 1_555
O51 Rb14 3.299999 1_555
O52 Rb5 2.820874 1_455
O52 Rb12 3.217366 1_555
O53 U5 2.389488 1_555
O53 Rb9 3.347551 1_655
O54 Rb15 2.816189 1_565
O55 Rb14 2.854248 1_555
O55 Rb0 2.887702 1_555
O56 Rb1 2.892803 1_455
O56 Rb0 2.923845 1_555
O57 U3 2.319756 1_555
O57 Rb9 3.142667 1_555
O58 U1 2.380397 1_565
O58 Rb3 3.210885 1_555
O59 Rb8 2.921492 1_555
O59 Rb1 2.948030 1_555
O60 Rb4 2.892803 1_555
O60 Rb13 2.923845 1_555
O61 U3 2.380397 1_565
O61 Rb14 3.210885 1_555
O62 Rb10 2.820874 1_555
O62 Rb6 3.217366 1_555
O63 Rb2 2.921492 1_555
O63 Rb12 2.948030 1_555
O64 Rb6 2.892803 1_555
O64 Rb10 2.923845 1_555
O65 U2 2.414718 1_556
O65 Rb5 3.252608 1_556
O66 Rb7 2.921492 1_555
O66 Rb4 2.948030 1_555
O67 U7 2.331290 1_555
O67 Rb13 3.375621 1_555
O68 U3 1.837189 1_555
O68 Rb2 2.971653 1_555
O68 Rb3 3.167971 1_545
O69 U6 1.828026 1_555
O69 Rb6 3.000993 1_555
O69 Rb0 3.520374 1_555
O70 Rb3 2.854248 1_555
O70 Rb13 2.887702 1_555
O71 U1 2.331290 1_556
O71 Rb5 3.375621 1_456
O72 U4 1.836015 1_555
O72 Rb8 3.083453 1_555
O72 Rb0 3.236309 1_655
O72 Rb11 3.257125 1_565
O73 U7 2.372228 1_555
O73 Rb7 3.098781 1_555
O74 U5 2.362566 1_555
O74 Rb4 3.126328 1_555
O75 U4 2.372228 1_555
O75 Rb8 3.098781 1_555
O76 U1 2.414843 1_555
O76 Rb5 3.109018 1_455
O77 Rb3 2.816189 1_545
O78 Rb13 2.820874 1_555
O78 Rb4 3.217366 1_555
O79 U4 2.319756 1_555
O79 Rb8 3.142667 1_555
