# generated using pymatgen
data_Ce(BO2)3
_symmetry_space_group_name_H-M   'P 1'
_cell_length_a   11.71713044
_cell_length_b   4.23015493
_cell_length_c   7.26505619
_cell_angle_alpha   88.73775862
_cell_angle_beta   90.00000000
_cell_angle_gamma   90.00000000
_symmetry_Int_Tables_number   1
_chemical_formula_structural   Ce(BO2)3
_chemical_formula_sum   'Ce4 B12 O24'
_cell_volume   360.00714391
_cell_formula_units_Z   4
loop_
 _symmetry_equiv_pos_site_id
 _symmetry_equiv_pos_as_xyz
  1  'x, y, z'
loop_
 _atom_site_type_symbol
 _atom_site_label
 _atom_site_symmetry_multiplicity
 _atom_site_fract_x
 _atom_site_fract_y
 _atom_site_fract_z
 _atom_site_occupancy
  Ce  Ce0  1  0.87830900  0.21583382  0.61851118  1
  Ce  Ce1  1  0.37830900  0.78416618  0.88148882  1
  Ce  Ce2  1  0.12169100  0.78416618  0.38148882  1
  Ce  Ce3  1  0.62169100  0.21583382  0.11851118  1
  B  B0  1  0.90590465  0.19288449  0.12579603  1
  B  B1  1  0.87865720  0.68789246  0.92535337  1
  B  B2  1  0.16664957  0.32509597  0.71219602  1
  B  B3  1  0.83335043  0.67490403  0.28780398  1
  B  B4  1  0.12134280  0.31210754  0.07464663  1
  B  B5  1  0.40590465  0.80711551  0.37420397  1
  B  B6  1  0.09409535  0.80711551  0.87420397  1
  B  B7  1  0.33335043  0.32509597  0.21219602  1
  B  B8  1  0.59409535  0.19288449  0.62579603  1
  B  B9  1  0.37865720  0.31210754  0.57464663  1
  B  B10  1  0.62134280  0.68789246  0.42535337  1
  B  B11  1  0.66664957  0.67490403  0.78780398  1
  O  O0  1  0.90952992  0.74756643  0.43754946  1
  O  O1  1  0.11920394  0.65247328  0.04865626  1
  O  O2  1  0.61920394  0.34752672  0.45134374  1
  O  O3  1  0.87316105  0.84434363  0.10961894  1
  O  O4  1  0.40952992  0.25243357  0.06245054  1
  O  O5  1  0.21542514  0.21982104  0.19419980  1
  O  O6  1  0.78457486  0.78017896  0.80580020  1
  O  O7  1  0.28457486  0.21982104  0.69419980  1
  O  O8  1  0.62683895  0.84434363  0.60961894  1
  O  O9  1  0.37316105  0.15565637  0.39038106  1
  O  O10  1  0.12683895  0.15565637  0.89038106  1
  O  O11  1  0.09047008  0.25243357  0.56245054  1
  O  O12  1  0.38079606  0.65247328  0.54865626  1
  O  O13  1  0.88079606  0.34752672  0.95134374  1
  O  O14  1  0.97646746  0.79477950  0.81635866  1
  O  O15  1  0.33064079  0.66980075  0.23714512  1
  O  O16  1  0.59047008  0.74756643  0.93754946  1
  O  O17  1  0.71542514  0.78017896  0.30580020  1
  O  O18  1  0.66935921  0.33019925  0.76285488  1
  O  O19  1  0.47646746  0.20522050  0.68364134  1
  O  O20  1  0.02353254  0.20522050  0.18364134  1
  O  O21  1  0.83064079  0.33019925  0.26285488  1
  O  O22  1  0.16935921  0.66980075  0.73714512  1
  O  O23  1  0.52353254  0.79477950  0.31635866  1
loop_
_geom_bond_atom_site_label_1
_geom_bond_atom_site_label_2
_geom_bond_distance
_geom_bond_site_symmetry_2
Ce0 O0 2.429141 1_545
Ce0 O13 2.493489 1_555
Ce0 O6 2.518615 1_545
Ce0 O11 2.523265 1_655
Ce0 O14 2.539383 1_545
Ce0 O0 2.606026 1_555
Ce0 O21 2.677178 1_555
Ce0 O18 2.711131 1_555
Ce1 O4 2.429141 1_566
Ce1 O12 2.493489 1_555
Ce1 O7 2.518615 1_565
Ce1 O16 2.523265 1_555
Ce1 O19 2.539383 1_565
Ce1 O4 2.606026 1_556
Ce1 O15 2.677178 1_556
Ce1 O22 2.711131 1_555
Ce2 O11 2.429141 1_565
Ce2 O1 2.493489 1_555
Ce2 O5 2.518615 1_565
Ce2 O0 2.523265 1_455
Ce2 O20 2.539383 1_565
Ce2 O11 2.606026 1_555
Ce2 O22 2.677178 1_555
Ce2 O15 2.711131 1_555
Ce3 O16 2.429141 1_544
Ce3 O2 2.493489 1_555
Ce3 O17 2.518615 1_545
Ce3 O4 2.523265 1_555
Ce3 O23 2.539383 1_545
Ce3 O16 2.606026 1_554
Ce3 O18 2.677178 1_554
Ce3 O21 2.711131 1_555
B0 O20 1.442187 1_655
B0 O13 1.443700 1_554
B0 O21 1.460167 1_555
B0 O3 1.530505 1_545
B1 O13 1.448215 1_555
B1 O6 1.451582 1_555
B1 O14 1.459157 1_555
B1 O3 1.507744 1_556
B2 O11 1.445511 1_555
B2 O7 1.458492 1_555
B2 O22 1.473676 1_555
B2 O10 1.538260 1_555
B3 O0 1.445511 1_555
B3 O17 1.458492 1_555
B3 O21 1.473676 1_555
B3 O3 1.538260 1_555
B4 O1 1.448215 1_555
B4 O5 1.451582 1_555
B4 O20 1.459157 1_555
B4 O10 1.507744 1_554
B5 O23 1.442187 1_555
B5 O12 1.443700 1_555
B5 O15 1.460167 1_555
B5 O9 1.530505 1_565
B6 O14 1.442187 1_455
B6 O1 1.443700 1_556
B6 O22 1.460167 1_555
B6 O10 1.530505 1_565
B7 O4 1.445511 1_555
B7 O5 1.458492 1_555
B7 O15 1.473676 1_555
B7 O9 1.538260 1_555
B8 O19 1.442187 1_555
B8 O2 1.443700 1_555
B8 O18 1.460167 1_555
B8 O8 1.530505 1_545
B9 O12 1.448215 1_555
B9 O7 1.451582 1_555
B9 O19 1.459157 1_555
B9 O9 1.507744 1_555
B10 O2 1.448215 1_555
B10 O17 1.451582 1_555
B10 O23 1.459157 1_555
B10 O8 1.507744 1_555
B11 O16 1.445511 1_555
B11 O6 1.458492 1_555
B11 O18 1.473676 1_555
B11 O8 1.538260 1_555
