# generated using pymatgen
data_SiO2
_symmetry_space_group_name_H-M   'P 1'
_cell_length_a   7.30055069
_cell_length_b   7.30055035
_cell_length_c   7.00512373
_cell_angle_alpha   90.00000000
_cell_angle_beta   90.00000000
_cell_angle_gamma   120.00000160
_symmetry_Int_Tables_number   1
_chemical_formula_structural   SiO2
_chemical_formula_sum   'Si6 O12'
_cell_volume   323.33867650
_cell_formula_units_Z   6
loop_
 _symmetry_equiv_pos_site_id
 _symmetry_equiv_pos_as_xyz
  1  'x, y, z'
loop_
 _atom_site_type_symbol
 _atom_site_label
 _atom_site_symmetry_multiplicity
 _atom_site_fract_x
 _atom_site_fract_y
 _atom_site_fract_z
 _atom_site_occupancy
  Si  Si0  1  0.53386035  0.76693117  0.41666700  1
  Si  Si1  1  0.46613965  0.23306883  0.91666700  1
  Si  Si2  1  0.23306883  0.46613965  0.75000000  1
  Si  Si3  1  0.76693117  0.23306883  0.58333300  1
  Si  Si4  1  0.76693117  0.53386035  0.25000000  1
  Si  Si5  1  0.23306883  0.76693117  0.08333300  1
  O  O0  1  0.61232604  0.38767396  0.08333300  1
  O  O1  1  -0.00000000  0.68289812  0.16666700  1
  O  O2  1  0.77534792  0.38767396  0.41666700  1
  O  O3  1  0.68289812  0.68289812  0.33333300  1
  O  O4  1  0.31710188  0.31710188  0.83333300  1
  O  O5  1  0.61232604  0.22465208  0.75000000  1
  O  O6  1  0.22465208  0.61232604  0.91666700  1
  O  O7  1  0.31710188  0.00000000  -0.00000000  1
  O  O8  1  0.00000000  0.31710188  0.66666700  1
  O  O9  1  0.38767396  0.77534792  0.25000000  1
  O  O10  1  0.38767396  0.61232604  0.58333300  1
  O  O11  1  0.68289812  0.00000000  0.50000000  1
loop_
_geom_bond_atom_site_label_1
_geom_bond_atom_site_label_2
_geom_bond_distance
_geom_bond_site_symmetry_2
O0 Si1 1.603580 1_554
O0 Si4 1.603585 1_555
O1 Si4 1.602650 1_455
O1 Si5 1.602650 1_555
O2 Si4 1.603580 1_555
O2 Si3 1.603585 1_555
O3 Si4 1.602660 1_555
O3 Si0 1.602663 1_555
O4 Si2 1.602660 1_555
O4 Si1 1.602663 1_555
O5 Si1 1.603580 1_555
O5 Si3 1.603590 1_555
O6 Si2 1.603580 1_555
O6 Si5 1.603585 1_556
O7 Si5 1.602648 1_545
O7 Si1 1.602650 1_554
O8 Si2 1.602650 1_555
O8 Si3 1.602650 1_455
O9 Si0 1.603580 1_555
O9 Si5 1.603590 1_555
O10 Si0 1.603580 1_555
O10 Si2 1.603585 1_555
O11 Si3 1.602648 1_555
O11 Si0 1.602650 1_545
