# generated using pymatgen
data_PrAlSi2
_symmetry_space_group_name_H-M   'P 1'
_cell_length_a   4.15587840
_cell_length_b   4.15587887
_cell_length_c   11.29962063
_cell_angle_alpha   90.00000000
_cell_angle_beta   90.00000000
_cell_angle_gamma   120.00000424
_symmetry_Int_Tables_number   1
_chemical_formula_structural   PrAlSi2
_chemical_formula_sum   'Pr2 Al2 Si4'
_cell_volume   169.01303021
_cell_formula_units_Z   2
loop_
 _symmetry_equiv_pos_site_id
 _symmetry_equiv_pos_as_xyz
  1  'x, y, z'
loop_
 _atom_site_type_symbol
 _atom_site_label
 _atom_site_symmetry_multiplicity
 _atom_site_fract_x
 _atom_site_fract_y
 _atom_site_fract_z
 _atom_site_occupancy
  Pr  Pr0  1  -0.00000000  -0.00000000  0.18178261  1
  Pr  Pr1  1  0.00000000  0.00000000  0.81821739  1
  Al  Al0  1  0.66666700  0.33333300  0.41824581  1
  Al  Al1  1  0.33333300  0.66666700  0.58175419  1
  Si  Si0  1  0.66666700  0.33333300  0.64279845  1
  Si  Si1  1  0.33333300  0.66666700  0.99507286  1
  Si  Si2  1  0.66666700  0.33333300  0.00492714  1
  Si  Si3  1  0.33333300  0.66666700  0.35720155  1
loop_
_geom_bond_atom_site_label_1
_geom_bond_atom_site_label_2
_geom_bond_distance
_geom_bond_site_symmetry_2
Pr0 Si3 3.112248 1_545
Pr0 Si3 3.112250 1_445
Pr0 Si3 3.112250 1_555
Pr0 Si2 3.122611 1_455
Pr0 Si2 3.122614 1_555
Pr0 Si2 3.122614 1_445
Pr0 Si1 3.195018 1_544
Pr0 Si1 3.195020 1_444
Pr0 Si1 3.195021 1_554
Pr1 Si0 3.112248 1_455
Pr1 Si0 3.112250 1_555
Pr1 Si0 3.112250 1_445
Pr1 Si1 3.122611 1_545
Pr1 Si1 3.122614 1_445
Pr1 Si1 3.122614 1_555
Pr1 Si2 3.195018 1_456
Pr1 Si2 3.195020 1_556
Pr1 Si2 3.195021 1_446
Al0 Si3 2.496575 1_655
Al0 Si3 2.496576 1_545
Al0 Si3 2.496583 1_555
Al0 Si0 2.537360 1_555
Al1 Si0 2.496575 1_455
Al1 Si0 2.496576 1_565
Al1 Si0 2.496583 1_555
Al1 Si3 2.537360 1_555
Si1 Si2 2.401977 1_456
Si1 Si2 2.401978 1_566
Si1 Si2 2.401985 1_556
