# generated using pymatgen
data_Y2Si2O7
_symmetry_space_group_name_H-M   'P 1'
_cell_length_a   5.66003872
_cell_length_b   5.66003872
_cell_length_c   4.73603621
_cell_angle_alpha   82.84865353
_cell_angle_beta   82.84865353
_cell_angle_gamma   105.19776936
_symmetry_Int_Tables_number   1
_chemical_formula_structural   Y2Si2O7
_chemical_formula_sum   'Y2 Si2 O7'
_cell_volume   143.30917099
_cell_formula_units_Z   1
loop_
 _symmetry_equiv_pos_site_id
 _symmetry_equiv_pos_as_xyz
  1  'x, y, z'
loop_
 _atom_site_type_symbol
 _atom_site_label
 _atom_site_symmetry_multiplicity
 _atom_site_fract_x
 _atom_site_fract_y
 _atom_site_fract_z
 _atom_site_occupancy
  Y  Y0  1  0.30676309  0.69323691  -0.00000000  1
  Y  Y1  1  0.69323691  0.30676309  -0.00000000  1
  Si  Si0  1  0.78216211  0.78216211  0.41253928  1
  Si  Si1  1  0.21783789  0.21783789  0.58746072  1
  O  O0  1  0.38416682  0.08630510  0.77815142  1
  O  O1  1  0.91369490  0.61583318  0.22184858  1
  O  O2  1  0.61583318  0.91369490  0.22184858  1
  O  O3  1  0.08630510  0.38416682  0.77815142  1
  O  O4  1  -0.00000000  -0.00000000  0.50000000  1
  O  O5  1  0.38038560  0.38038560  0.28610843  1
  O  O6  1  0.61961440  0.61961440  0.71389157  1
loop_
_geom_bond_atom_site_label_1
_geom_bond_atom_site_label_2
_geom_bond_distance
_geom_bond_site_symmetry_2
O0 Si1 1.633376 1_555
O0 Y0 2.244521 1_546
O0 Y1 2.315329 1_556
O1 Si0 1.633376 1_555
O1 Y0 2.244521 1_655
O1 Y1 2.315329 1_555
O2 Si0 1.633376 1_555
O2 Y1 2.244521 1_565
O2 Y0 2.315329 1_555
O3 Si1 1.633376 1_555
O3 Y1 2.244521 1_456
O3 Y0 2.315329 1_556
O4 Si0 1.633791 1_445
O4 Si1 1.633791 1_555
O5 Si1 1.622400 1_555
O5 Y0 2.252850 1_555
O5 Y1 2.252850 1_555
O6 Si0 1.622400 1_555
O6 Y1 2.252850 1_556
O6 Y0 2.252850 1_556
