# generated using pymatgen
data_Tl4Hg3Sb2(As2S5)4
_symmetry_space_group_name_H-M   'P 1'
_cell_length_a   14.02225512
_cell_length_b   14.02225512
_cell_length_c   11.58472600
_cell_angle_alpha   90.00000000
_cell_angle_beta   90.00000000
_cell_angle_gamma   121.92771610
_symmetry_Int_Tables_number   1
_chemical_formula_structural   Tl4Hg3Sb2(As2S5)4
_chemical_formula_sum   'Tl8 Hg6 Sb4 As16 S40'
_cell_volume   1933.23151392
_cell_formula_units_Z   2
loop_
 _symmetry_equiv_pos_site_id
 _symmetry_equiv_pos_as_xyz
  1  'x, y, z'
loop_
 _atom_site_type_symbol
 _atom_site_label
 _atom_site_symmetry_multiplicity
 _atom_site_fract_x
 _atom_site_fract_y
 _atom_site_fract_z
 _atom_site_occupancy
  Tl  Tl0  1  0.01760900  0.48008600  0.44225700  1
  Tl  Tl1  1  0.85300000  0.63524000  0.70289000  1
  Tl  Tl2  1  0.51760900  0.98008600  0.05774300  1
  Tl  Tl3  1  0.48008600  0.01760900  0.55774300  1
  Tl  Tl4  1  0.35300000  0.13524000  0.79711000  1
  Tl  Tl5  1  0.63524000  0.85300000  0.29711000  1
  Tl  Tl6  1  0.98008600  0.51760900  0.94225700  1
  Tl  Tl7  1  0.13524000  0.35300000  0.20289000  1
  Hg  Hg0  1  0.05412100  0.93915400  0.42571600  1
  Hg  Hg1  1  0.55412100  0.43915400  0.07428400  1
  Hg  Hg2  1  0.93915400  0.05412100  0.57428400  1
  Hg  Hg3  1  0.43915400  0.55412100  0.92571600  1
  Hg  Hg4  1  0.99661200  0.99661200  0.00000000  1
  Hg  Hg5  1  0.49661200  0.49661200  0.50000000  1
  Sb  Sb0  1  0.34735700  0.67100100  0.70776100  1
  Sb  Sb1  1  0.17100100  0.84735700  0.20776100  1
  Sb  Sb2  1  0.84735700  0.17100100  0.79223900  1
  Sb  Sb3  1  0.67100100  0.34735700  0.29223900  1
  As  As0  1  0.81286300  0.70223500  0.10354900  1
  As  As1  1  0.29667200  0.69139700  0.09407400  1
  As  As2  1  0.29084700  0.70805400  0.38702100  1
  As  As3  1  0.68785600  0.78813500  0.60444100  1
  As  As4  1  0.20223500  0.31286300  0.60354900  1
  As  As5  1  0.79667200  0.19139700  0.40592600  1
  As  As6  1  0.19139700  0.79667200  0.59407400  1
  As  As7  1  0.69139700  0.29667200  0.90592600  1
  As  As8  1  0.79084700  0.20805400  0.11297900  1
  As  As9  1  0.28813500  0.18785600  0.10444100  1
  As  As10  1  0.70805400  0.29084700  0.61297900  1
  As  As11  1  0.18785600  0.28813500  0.89555900  1
  As  As12  1  0.78813500  0.68785600  0.39555900  1
  As  As13  1  0.20805400  0.79084700  0.88702100  1
  As  As14  1  0.31286300  0.20223500  0.39645100  1
  As  As15  1  0.70223500  0.81286300  0.89645100  1
  S  S0  1  0.37685600  0.36880800  0.17387400  1
  S  S1  1  0.36880800  0.37685600  0.82612600  1
  S  S2  1  0.13660100  0.85860600  0.75400800  1
  S  S3  1  0.27590500  0.93697900  0.01842600  1
  S  S4  1  0.98247500  0.80241900  0.01786300  1
  S  S5  1  0.62004600  0.85524500  0.74529200  1
  S  S6  1  0.35111500  0.88215300  0.30987200  1
  S  S7  1  0.54274800  0.22798000  0.02007900  1
  S  S8  1  0.63660100  0.35860600  0.74599200  1
  S  S9  1  0.88215300  0.35111500  0.69012800  1
  S  S10  1  0.61601700  0.62584000  0.32321100  1
  S  S11  1  0.30241900  0.48247500  0.51786300  1
  S  S12  1  0.86880800  0.87685600  0.67387400  1
  S  S13  1  0.80241900  0.98247500  0.98213700  1
  S  S14  1  0.22798000  0.54274800  0.97992100  1
  S  S15  1  0.11601700  0.12584000  0.17678900  1
  S  S16  1  0.05227300  0.23447200  0.47936000  1
  S  S17  1  0.65110600  0.12375800  0.83013800  1
  S  S18  1  0.77590500  0.43697900  0.48157400  1
  S  S19  1  0.12375800  0.65110600  0.16986200  1
  S  S20  1  0.23447200  0.05227300  0.52064000  1
  S  S21  1  0.35860600  0.63660100  0.25400800  1
  S  S22  1  0.12004600  0.35524500  0.75470800  1
  S  S23  1  0.04274800  0.72798000  0.47992100  1
  S  S24  1  0.93697900  0.27590500  0.98157400  1
  S  S25  1  0.55227300  0.73447200  0.02064000  1
  S  S26  1  0.48247500  0.30241900  0.48213700  1
  S  S27  1  0.73447200  0.55227300  0.97936000  1
  S  S28  1  0.87685600  0.86880800  0.32612600  1
  S  S29  1  0.62584000  0.61601700  0.67678900  1
  S  S30  1  0.43697900  0.77590500  0.51842600  1
  S  S31  1  0.85524500  0.62004600  0.25470800  1
  S  S32  1  0.85860600  0.13660100  0.24599200  1
  S  S33  1  0.62375800  0.15110600  0.33013800  1
  S  S34  1  0.72798000  0.04274800  0.52007900  1
  S  S35  1  0.38215300  0.85111500  0.80987200  1
  S  S36  1  0.35524500  0.12004600  0.24529200  1
  S  S37  1  0.12584000  0.11601700  0.82321100  1
  S  S38  1  0.85111500  0.38215300  0.19012800  1
  S  S39  1  0.15110600  0.62375800  0.66986200  1
loop_
_geom_bond_atom_site_label_1
_geom_bond_atom_site_label_2
_geom_bond_distance
_geom_bond_site_symmetry_2
Hg0 S20 2.424445 1_565
Hg0 S28 2.426771 1_455
Hg0 S23 2.947644 1_555
Hg1 S27 2.424445 1_554
Hg1 S0 2.426771 1_555
Hg1 S7 2.947644 1_555
Hg2 S16 2.424445 1_655
Hg2 S12 2.426771 1_545
Hg2 S34 2.947644 1_555
Hg3 S25 2.424445 1_556
Hg3 S1 2.426771 1_555
Hg3 S14 2.947644 1_555
Hg4 S4 2.631737 1_555
Hg4 S13 2.631737 1_554
Hg4 S15 2.659404 1_665
Hg4 S37 2.659404 1_664
Hg5 S11 2.631737 1_555
Hg5 S26 2.631737 1_555
Hg5 S29 2.659404 1_555
Hg5 S10 2.659404 1_555
As0 S4 2.254209 1_555
As0 S27 2.292402 1_554
As0 S31 2.339291 1_555
As1 S14 2.213085 1_554
As1 S21 2.341628 1_555
As1 S19 2.349480 1_555
As2 S21 2.299555 1_555
As2 S6 2.300130 1_555
As2 S30 2.315025 1_555
As3 S29 2.250268 1_555
As3 S12 2.300891 1_555
As3 S5 2.323484 1_555
As4 S11 2.254209 1_555
As4 S16 2.292402 1_555
As4 S22 2.339291 1_555
As5 S34 2.213085 1_555
As5 S32 2.341628 1_555
As5 S33 2.349480 1_555
As6 S23 2.213085 1_555
As6 S2 2.341628 1_555
As6 S39 2.349480 1_555
As7 S7 2.213085 1_556
As7 S8 2.341628 1_555
As7 S17 2.349480 1_555
As8 S32 2.299555 1_555
As8 S38 2.300130 1_555
As8 S24 2.315025 1_554
As9 S15 2.250268 1_555
As9 S0 2.300891 1_555
As9 S36 2.323484 1_555
As10 S8 2.299555 1_555
As10 S9 2.300130 1_555
As10 S18 2.315025 1_555
As11 S37 2.250268 1_555
As11 S1 2.300891 1_555
As11 S22 2.323484 1_555
As12 S10 2.250268 1_555
As12 S28 2.300891 1_555
As12 S31 2.323484 1_555
As13 S2 2.299555 1_555
As13 S35 2.300130 1_555
As13 S3 2.315025 1_556
As14 S26 2.254209 1_555
As14 S20 2.292402 1_555
As14 S36 2.339291 1_555
As15 S13 2.254209 1_555
As15 S25 2.292402 1_556
As15 S5 2.339291 1_555
S3 Sb1 2.568820 1_555
S3 Tl2 3.145297 1_555
S6 Sb1 2.590882 1_555
S9 Sb2 2.590882 1_555
S10 Tl5 3.066278 1_555
S15 Tl7 3.066278 1_555
S17 Sb2 2.505251 1_555
S18 Sb3 2.568820 1_555
S18 Tl0 3.145297 1_655
S19 Sb1 2.505251 1_555
S24 Sb2 2.568820 1_555
S24 Tl6 3.145297 1_555
S29 Tl1 3.066278 1_555
S30 Sb0 2.568820 1_555
S30 Tl3 3.145297 1_565
S33 Sb3 2.505251 1_555
S35 Sb0 2.590882 1_555
S37 Tl4 3.066278 1_555
S38 Sb3 2.590882 1_555
S39 Sb0 2.505251 1_555
