# generated using pymatgen
data_RbCrCl3
_symmetry_space_group_name_H-M   'P 1'
_cell_length_a   7.18530351
_cell_length_b   7.18530351
_cell_length_c   12.82195607
_cell_angle_alpha   87.60145923
_cell_angle_beta   87.60145923
_cell_angle_gamma   59.62082835
_symmetry_Int_Tables_number   1
_chemical_formula_structural   RbCrCl3
_chemical_formula_sum   'Rb4 Cr4 Cl12'
_cell_volume   570.42340554
_cell_formula_units_Z   4
loop_
 _symmetry_equiv_pos_site_id
 _symmetry_equiv_pos_as_xyz
  1  'x, y, z'
loop_
 _atom_site_type_symbol
 _atom_site_label
 _atom_site_symmetry_multiplicity
 _atom_site_fract_x
 _atom_site_fract_y
 _atom_site_fract_z
 _atom_site_occupancy
  Rb  Rb0  1  0.32030200  0.34159200  0.12002500  1
  Rb  Rb1  1  0.29126100  0.38178800  0.62290200  1
  Rb  Rb2  1  0.61821200  0.70873900  0.37709800  1
  Rb  Rb3  1  0.65840800  0.67969800  0.87997500  1
  Cr  Cr0  1  0.00814200  0.99185800  0.00000000  1
  Cr  Cr1  1  0.96862500  0.02605200  0.25032700  1
  Cr  Cr2  1  0.97394800  0.03137500  0.74967300  1
  Cr  Cr3  1  0.94021200  0.05978800  0.50000000  1
  Cl  Cl0  1  0.82007600  0.84907800  0.15830100  1
  Cl  Cl1  1  0.69439800  0.15905000  0.88903200  1
  Cl  Cl2  1  0.15092200  0.17992400  0.84169900  1
  Cl  Cl3  1  0.16072500  0.68159000  0.89343600  1
  Cl  Cl4  1  0.25311900  0.90076600  0.61055800  1
  Cl  Cl5  1  0.79616400  0.88286000  0.66069700  1
  Cl  Cl6  1  0.09923400  0.74688100  0.38944200  1
  Cl  Cl7  1  0.11714000  0.20383600  0.33930300  1
  Cl  Cl8  1  0.79333800  0.37828700  0.60194800  1
  Cl  Cl9  1  0.84095000  0.30560200  0.11096800  1
  Cl  Cl10  1  0.62171300  0.20666200  0.39805200  1
  Cl  Cl11  1  0.31841000  0.83927500  0.10656400  1
loop_
_geom_bond_atom_site_label_1
_geom_bond_atom_site_label_2
_geom_bond_distance
_geom_bond_site_symmetry_2
Cl0 Cr1 2.398411 1_565
Cl0 Cr0 2.827839 1_655
Cl0 Rb2 3.448611 1_555
Cl0 Rb0 3.578895 1_565
Cl0 Rb0 3.633469 1_655
Cl1 Cr0 2.436373 1_646
Cl1 Cr2 2.458074 1_555
Cl1 Rb3 3.588922 1_545
Cl1 Rb3 3.614306 1_555
Cl1 Rb0 3.716267 1_556
Cl2 Cr2 2.398411 1_455
Cl2 Cr0 2.827839 1_546
Cl2 Rb1 3.448611 1_555
Cl2 Rb3 3.578895 1_455
Cl2 Rb3 3.633469 1_545
Cl3 Cr0 2.386725 1_556
Cl3 Cr2 2.814850 1_465
Cl3 Rb0 3.546168 1_556
Cl3 Rb3 3.566110 1_555
Cl3 Rb3 3.627532 1_455
Cl4 Cr3 2.429587 1_465
Cl4 Cr2 2.454128 1_465
Cl4 Rb1 3.595312 1_555
Cl4 Rb1 3.612975 1_565
Cl4 Rb2 3.711264 1_555
Cl5 Cr2 2.382179 1_565
Cl5 Cr3 2.804641 1_565
Cl5 Rb3 3.449729 1_555
Cl5 Rb1 3.591640 1_655
Cl5 Rb1 3.618758 1_565
Cl6 Cr3 2.429587 1_465
Cl6 Cr1 2.454128 1_465
Cl6 Rb2 3.595312 1_555
Cl6 Rb2 3.612975 1_455
Cl6 Rb1 3.711264 1_555
Cl7 Cr1 2.382179 1_455
Cl7 Cr3 2.804641 1_455
Cl7 Rb0 3.449729 1_555
Cl7 Rb2 3.591640 1_545
Cl7 Rb2 3.618758 1_455
Cl8 Cr3 2.398305 1_555
Cl8 Cr2 2.832656 1_555
Cl8 Rb2 3.498810 1_555
Cl8 Rb1 3.593754 1_555
Cl8 Rb1 3.611787 1_655
Cl9 Cr0 2.436373 1_645
Cl9 Cr1 2.458074 1_555
Cl9 Rb0 3.588922 1_655
Cl9 Rb0 3.614306 1_555
Cl9 Rb3 3.716267 1_554
Cl10 Cr3 2.398305 1_555
Cl10 Cr1 2.832656 1_555
Cl10 Rb1 3.498810 1_555
Cl10 Rb2 3.593754 1_555
Cl10 Rb2 3.611787 1_545
Cl11 Cr0 2.386725 1_555
Cl11 Cr1 2.814850 1_465
Cl11 Rb3 3.546168 1_554
Cl11 Rb0 3.566110 1_555
Cl11 Rb0 3.627532 1_565
