# generated using pymatgen
data_Mn(NO3)2
_symmetry_space_group_name_H-M   'P 1'
_cell_length_a   7.64690518
_cell_length_b   7.64690518
_cell_length_c   7.64690518
_cell_angle_alpha   90.00000000
_cell_angle_beta   90.00000000
_cell_angle_gamma   90.00000000
_symmetry_Int_Tables_number   1
_chemical_formula_structural   Mn(NO3)2
_chemical_formula_sum   'Mn4 N8 O24'
_cell_volume   447.15399497
_cell_formula_units_Z   4
loop_
 _symmetry_equiv_pos_site_id
 _symmetry_equiv_pos_as_xyz
  1  'x, y, z'
loop_
 _atom_site_type_symbol
 _atom_site_label
 _atom_site_symmetry_multiplicity
 _atom_site_fract_x
 _atom_site_fract_y
 _atom_site_fract_z
 _atom_site_occupancy
  Mn  Mn0  1  0.50000000  0.50000000  -0.00000000  1
  Mn  Mn1  1  0.00000000  0.50000000  0.50000000  1
  Mn  Mn2  1  0.50000000  0.00000000  0.50000000  1
  Mn  Mn3  1  0.00000000  0.00000000  -0.00000000  1
  N  N0  1  0.32561894  0.17438106  0.82561894  1
  N  N1  1  0.82561894  0.32561894  0.17438106  1
  N  N2  1  0.17438106  0.82561894  0.32561894  1
  N  N3  1  0.67438106  0.67438106  0.67438106  1
  N  N4  1  0.67438106  0.82561894  0.17438106  1
  N  N5  1  0.17438106  0.67438106  0.82561894  1
  N  N6  1  0.82561894  0.17438106  0.67438106  1
  N  N7  1  0.32561894  0.32561894  0.32561894  1
  O  O0  1  0.44580772  0.28611204  0.81732756  1
  O  O1  1  0.81732756  0.44580772  0.28611204  1
  O  O2  1  0.28611204  0.81732756  0.44580772  1
  O  O3  1  0.21388796  0.18267244  0.94580772  1
  O  O4  1  0.31732756  0.05419228  0.71388796  1
  O  O5  1  0.71388796  0.31732756  0.05419228  1
  O  O6  1  0.68267244  0.55419228  0.78611204  1
  O  O7  1  0.18267244  0.94580772  0.21388796  1
  O  O8  1  0.78611204  0.68267244  0.55419228  1
  O  O9  1  0.94580772  0.21388796  0.18267244  1
  O  O10  1  0.55419228  0.78611204  0.68267244  1
  O  O11  1  0.05419228  0.71388796  0.31732756  1
  O  O12  1  0.55419228  0.71388796  0.18267244  1
  O  O13  1  0.18267244  0.55419228  0.71388796  1
  O  O14  1  0.71388796  0.18267244  0.55419228  1
  O  O15  1  0.78611204  0.81732756  0.05419228  1
  O  O16  1  0.68267244  0.94580772  0.28611204  1
  O  O17  1  0.28611204  0.68267244  0.94580772  1
  O  O18  1  0.31732756  0.44580772  0.21388796  1
  O  O19  1  0.81732756  0.05419228  0.78611204  1
  O  O20  1  0.21388796  0.31732756  0.44580772  1
  O  O21  1  0.05419228  0.78611204  0.81732756  1
  O  O22  1  0.44580772  0.21388796  0.31732756  1
  O  O23  1  0.94580772  0.28611204  0.68267244  1
loop_
_geom_bond_atom_site_label_1
_geom_bond_atom_site_label_2
_geom_bond_distance
_geom_bond_site_symmetry_2
Mn0 O0 2.190462 1_554
Mn0 O5 2.190462 1_555
Mn0 O18 2.190462 1_555
Mn0 O12 2.190462 1_555
Mn0 O6 2.190462 1_554
Mn0 O17 2.190462 1_554
Mn1 O1 2.190462 1_455
Mn1 O20 2.190462 1_555
Mn1 O23 2.190462 1_455
Mn1 O8 2.190462 1_455
Mn1 O13 2.190462 1_555
Mn1 O11 2.190462 1_555
Mn2 O2 2.190462 1_545
Mn2 O4 2.190462 1_555
Mn2 O16 2.190462 1_545
Mn2 O10 2.190462 1_545
Mn2 O22 2.190462 1_555
Mn2 O14 2.190462 1_555
Mn3 O19 2.190462 1_454
Mn3 O21 2.190462 1_544
Mn3 O15 2.190462 1_445
Mn3 O7 2.190462 1_545
Mn3 O9 2.190462 1_455
Mn3 O3 2.190462 1_554
N0 O0 1.256466 1_555
N0 O4 1.256466 1_555
N0 O3 1.256466 1_555
N1 O9 1.256466 1_555
N1 O1 1.256466 1_555
N1 O5 1.256466 1_555
N2 O11 1.256466 1_555
N2 O7 1.256466 1_555
N2 O2 1.256466 1_555
N3 O6 1.256466 1_555
N3 O10 1.256466 1_555
N3 O8 1.256466 1_555
N4 O15 1.256466 1_555
N4 O16 1.256466 1_555
N4 O12 1.256466 1_555
N5 O21 1.256466 1_555
N5 O13 1.256466 1_555
N5 O17 1.256466 1_555
N6 O14 1.256466 1_555
N6 O23 1.256466 1_555
N6 O19 1.256466 1_555
N7 O20 1.256466 1_555
N7 O18 1.256466 1_555
N7 O22 1.256466 1_555
