# generated using pymatgen
data_Ca2NiWO6
_symmetry_space_group_name_H-M   'P 1'
_cell_length_a   5.25966977
_cell_length_b   5.59461000
_cell_length_c   9.81346657
_cell_angle_alpha   90.00001581
_cell_angle_beta   89.70679526
_cell_angle_gamma   90.00015827
_symmetry_Int_Tables_number   1
_chemical_formula_structural   Ca2NiWO6
_chemical_formula_sum   'Ca4 Ni2 W2 O12'
_cell_volume   288.76533424
_cell_formula_units_Z   2
loop_
 _symmetry_equiv_pos_site_id
 _symmetry_equiv_pos_as_xyz
  1  'x, y, z'
loop_
 _atom_site_type_symbol
 _atom_site_label
 _atom_site_symmetry_multiplicity
 _atom_site_fract_x
 _atom_site_fract_y
 _atom_site_fract_z
 _atom_site_occupancy
  Ca  Ca0  1  0.50095300  0.50016500  0.68237500  1
  Ca  Ca1  1  0.00095400  0.99983600  0.18238000  1
  Ca  Ca2  1  0.49904700  0.49983500  0.31762500  1
  Ca  Ca3  1  0.99904700  0.00016400  0.81762000  1
  Ni  Ni0  1  0.50000000  0.50000000  0.00000000  1
  Ni  Ni1  1  0.00000000  0.00000000  0.50000000  1
  W  W0  1  0.00000000  0.50000000  0.00000000  1
  W  W1  1  0.50000000  0.99999900  0.50000000  1
  O  O0  1  0.29630600  0.71191600  0.50102600  1
  O  O1  1  0.23407000  0.63375700  0.86175700  1
  O  O2  1  0.76835000  0.36939800  0.86080600  1
  O  O3  1  0.73406700  0.86624300  0.36176100  1
  O  O4  1  0.20369400  0.21191600  0.99897400  1
  O  O5  1  0.23165000  0.63060200  0.13919400  1
  O  O6  1  0.70369400  0.28808400  0.49897400  1
  O  O7  1  0.26835300  0.13060000  0.36081000  1
  O  O8  1  0.79630600  0.78808400  0.00102600  1
  O  O9  1  0.73164700  0.86939900  0.63919000  1
  O  O10  1  0.76593000  0.36624300  0.13824300  1
  O  O11  1  0.26593300  0.13375700  0.63823900  1
loop_
_geom_bond_atom_site_label_1
_geom_bond_atom_site_label_2
_geom_bond_distance
_geom_bond_site_symmetry_2
Ca0 O1 2.366981 1_555
Ca0 O2 2.367392 1_555
Ca0 O0 2.397671 1_555
Ca0 O6 2.400948 1_555
Ca0 O9 2.431831 1_555
Ca0 O11 2.433764 1_555
Ca1 O3 2.366986 1_455
Ca1 O7 2.367384 1_565
Ca1 O8 2.397709 1_455
Ca1 O4 2.400977 1_564
Ca1 O5 2.431844 1_555
Ca1 O10 2.433778 1_465
Ca2 O10 2.366981 1_555
Ca2 O5 2.367392 1_555
Ca2 O6 2.397671 1_555
Ca2 O0 2.400948 1_555
Ca2 O7 2.431836 1_555
Ca2 O3 2.433764 1_555
Ca3 O11 2.366983 1_655
Ca3 O9 2.367388 1_545
Ca3 O4 2.397707 1_655
Ca3 O8 2.400980 1_546
Ca3 O2 2.431846 1_555
Ca3 O1 2.433775 1_645
Ni0 O5 2.090975 1_555
Ni0 O2 2.090975 1_554
Ni0 O1 2.091951 1_554
Ni0 O10 2.091951 1_555
Ni0 O8 2.242034 1_555
Ni0 O4 2.242034 1_554
Ni1 O7 2.090954 1_555
Ni1 O9 2.090956 1_445
Ni1 O3 2.091933 1_445
Ni1 O11 2.091933 1_555
Ni1 O6 2.242040 1_455
Ni1 O0 2.242040 1_545
O0 W1 1.935308 1_555
O1 W0 1.974600 1_556
O2 W0 1.975170 1_656
O3 W1 1.974564 1_555
O4 W0 1.935317 1_556
O5 W0 1.975170 1_555
O6 W1 1.935317 1_545
O7 W1 1.975134 1_545
O8 W0 1.935317 1_655
O9 W1 1.975132 1_555
O10 W0 1.974600 1_655
O11 W1 1.974568 1_545
