# generated using pymatgen
data_CaGaGe
_symmetry_space_group_name_H-M   'P 1'
_cell_length_a   4.19258104
_cell_length_b   4.19258163
_cell_length_c   17.48947605
_cell_angle_alpha   90.00000000
_cell_angle_beta   90.00000000
_cell_angle_gamma   120.00000324
_symmetry_Int_Tables_number   1
_chemical_formula_structural   CaGaGe
_chemical_formula_sum   'Ca4 Ga4 Ge4'
_cell_volume   266.23822528
_cell_formula_units_Z   4
loop_
 _symmetry_equiv_pos_site_id
 _symmetry_equiv_pos_as_xyz
  1  'x, y, z'
loop_
 _atom_site_type_symbol
 _atom_site_label
 _atom_site_symmetry_multiplicity
 _atom_site_fract_x
 _atom_site_fract_y
 _atom_site_fract_z
 _atom_site_occupancy
  Ca  Ca0  1  -0.00000000  -0.00000000  0.00000000  1
  Ca  Ca1  1  -0.00000000  -0.00000000  0.50000000  1
  Ca  Ca2  1  -0.00000000  0.00000000  0.25000000  1
  Ca  Ca3  1  -0.00000000  -0.00000000  0.75000000  1
  Ga  Ga0  1  0.33333300  0.66666700  0.15203096  1
  Ga  Ga1  1  0.66666700  0.33333300  0.65203096  1
  Ga  Ga2  1  0.66666700  0.33333300  0.84796904  1
  Ga  Ga3  1  0.33333300  0.66666700  0.34796904  1
  Ge  Ge0  1  0.33333300  0.66666700  0.61129076  1
  Ge  Ge1  1  0.66666700  0.33333300  0.11129076  1
  Ge  Ge2  1  0.66666700  0.33333300  0.38870924  1
  Ge  Ge3  1  0.33333300  0.66666700  0.88870924  1
loop_
_geom_bond_atom_site_label_1
_geom_bond_atom_site_label_2
_geom_bond_distance
_geom_bond_site_symmetry_2
Ca0 Ge1 3.106087 1_455
Ca0 Ge3 3.106087 1_544
Ca0 Ge1 3.106089 1_555
Ca0 Ge3 3.106089 1_444
Ca0 Ge1 3.106089 1_445
Ca0 Ge3 3.106089 1_554
Ca1 Ge2 3.106087 1_455
Ca1 Ge0 3.106087 1_545
Ca1 Ge2 3.106089 1_555
Ca1 Ge0 3.106089 1_445
Ca1 Ge2 3.106089 1_445
Ca1 Ge0 3.106089 1_555
Ca2 Ga0 2.965648 1_545
Ca2 Ga3 2.965648 1_545
Ca2 Ga3 2.965651 1_445
Ca2 Ga0 2.965651 1_445
Ca2 Ga0 2.965651 1_555
Ca2 Ga3 2.965651 1_555
Ca3 Ga1 2.965648 1_455
Ca3 Ga2 2.965648 1_455
Ca3 Ga2 2.965651 1_555
Ca3 Ga1 2.965651 1_555
Ca3 Ga1 2.965651 1_445
Ca3 Ga2 2.965651 1_445
Ga0 Ge1 2.523277 1_455
Ga0 Ge1 2.523277 1_565
Ga0 Ge1 2.523284 1_555
Ga1 Ge0 2.523277 1_655
Ga1 Ge0 2.523277 1_545
Ga1 Ge0 2.523284 1_555
Ga2 Ge3 2.523277 1_655
Ga2 Ge3 2.523277 1_545
Ga2 Ge3 2.523284 1_555
Ga3 Ge2 2.523277 1_455
Ga3 Ge2 2.523277 1_565
Ga3 Ge2 2.523284 1_555
