# generated using pymatgen
data_V2NiH24(N4O5)2
_symmetry_space_group_name_H-M   'P 1'
_cell_length_a   6.08913900
_cell_length_b   7.58932383
_cell_length_c   9.40622173
_cell_angle_alpha   105.20758696
_cell_angle_beta   94.84199954
_cell_angle_gamma   97.11527963
_symmetry_Int_Tables_number   1
_chemical_formula_structural   V2NiH24(N4O5)2
_chemical_formula_sum   'V2 Ni1 H24 N8 O10'
_cell_volume   413.11888651
_cell_formula_units_Z   1
loop_
 _symmetry_equiv_pos_site_id
 _symmetry_equiv_pos_as_xyz
  1  'x, y, z'
loop_
 _atom_site_type_symbol
 _atom_site_label
 _atom_site_symmetry_multiplicity
 _atom_site_fract_x
 _atom_site_fract_y
 _atom_site_fract_z
 _atom_site_occupancy
  V  V0  1  0.54111500  0.88403500  0.67332300  1
  V  V1  1  0.45888500  0.11596500  0.32667700  1
  Ni  Ni0  1  0.00000000  0.50000000  0.00000000  1
  H  H0  1  0.99346400  0.56428700  0.73206800  1
  H  H1  1  0.95710300  0.13915300  0.84811200  1
  H  H2  1  0.07204100  0.19760500  0.43329100  1
  H  H3  1  0.84896500  0.82493000  0.01022200  1
  H  H4  1  0.15103500  0.17507000  0.98977800  1
  H  H5  1  0.78722400  0.77229200  0.16178300  1
  H  H6  1  0.81124300  0.37449600  0.70931200  1
  H  H7  1  0.72774700  0.62415400  0.48944300  1
  H  H8  1  0.57350600  0.43765100  0.07277200  1
  H  H9  1  0.74591300  0.58226700  0.77931500  1
  H  H10  1  0.00653600  0.43571300  0.26793200  1
  H  H11  1  0.21277600  0.22770800  0.83821700  1
  H  H12  1  0.60904500  0.26400400  0.93349100  1
  H  H13  1  0.25408700  0.41773300  0.22068500  1
  H  H14  1  0.42649400  0.56234900  0.92722800  1
  H  H15  1  0.70767800  0.27851600  0.10646700  1
  H  H16  1  0.92795900  0.80239500  0.56670900  1
  H  H17  1  0.18875700  0.62550400  0.29068800  1
  H  H18  1  0.26813500  0.18688900  0.56918200  1
  H  H19  1  0.04289700  0.86084700  0.15188800  1
  H  H20  1  0.39095500  0.73599600  0.06650900  1
  H  H21  1  0.73186500  0.81311100  0.43081800  1
  H  H22  1  0.27225300  0.37584600  0.51055700  1
  H  H23  1  0.29232200  0.72148400  0.89353300  1
  N  N0  1  0.12924800  0.49668800  0.22056300  1
  N  N1  1  0.23749700  0.23378400  0.47677300  1
  N  N2  1  0.31367700  0.64544600  0.96828000  1
  N  N3  1  0.90773700  0.76938800  0.09197500  1
  N  N4  1  0.87075200  0.50331200  0.77943700  1
  N  N5  1  0.76250300  0.76621600  0.52322700  1
  N  N6  1  0.68632300  0.35455400  0.03172000  1
  N  N7  1  0.09226300  0.23061200  0.90802500  1
  O  O0  1  0.65408800  0.10778700  0.62858800  1
  O  O1  1  0.24052000  0.78483200  0.68658700  1
  O  O2  1  0.75947900  0.21516800  0.31341300  1
  O  O3  1  0.69294700  0.88015900  0.82626800  1
  O  O4  1  0.30705300  0.11984100  0.17373200  1
  O  O5  1  0.53349700  0.87027500  0.28300200  1
  O  O6  1  0.34591200  0.89221300  0.37141200  1
  O  O7  1  0.46650300  0.12972500  0.71699800  1
  O  O8  1  0.36177800  0.65060200  0.59543900  1
  O  O9  1  0.63822200  0.34939800  0.40456100  1
loop_
_geom_bond_atom_site_label_1
_geom_bond_atom_site_label_2
_geom_bond_distance
_geom_bond_site_symmetry_2
H0 N4 1.024555 1_555
H1 N7 1.025519 1_655
H2 N1 1.029897 1_555
H3 N3 1.028625 1_555
H4 N7 1.028625 1_555
H5 N3 1.023669 1_555
H6 N4 1.027484 1_555
H7 N5 1.029836 1_555
H8 N6 1.021315 1_555
H9 N4 1.024677 1_555
H10 N0 1.024555 1_555
H11 N7 1.023669 1_555
H12 N6 1.029935 1_556
H13 N0 1.024677 1_555
H14 N2 1.021315 1_555
H15 N6 1.029697 1_555
H16 N5 1.029897 1_555
H17 N0 1.027484 1_555
H18 N1 1.033627 1_555
H19 N3 1.025519 1_455
H20 N2 1.029935 1_554
H21 N5 1.033627 1_555
H22 N1 1.029836 1_555
H23 N2 1.029697 1_555
N0 Ni0 2.163531 1_555
N1 V1 2.137216 1_555
N2 Ni0 2.168490 1_556
N3 Ni0 2.163932 1_655
N4 Ni0 2.163531 1_656
N5 V0 2.137216 1_555
N6 Ni0 2.168490 1_655
N7 Ni0 2.163932 1_556
O0 O7 1.469288 1_555
O0 V0 1.915272 1_545
O1 O8 1.467311 1_555
O1 V0 1.918093 1_555
O2 O9 1.467307 1_555
O2 V1 1.918087 1_555
O3 V0 1.652177 1_555
O4 V1 1.652177 1_555
O5 O6 1.469288 1_555
O5 V1 1.921324 1_565
O6 V1 1.915272 1_565
O7 V0 1.921324 1_545
O8 V0 1.890111 1_555
O9 V1 1.890111 1_555
