# generated using pymatgen
data_Rb2CoCl4
_symmetry_space_group_name_H-M   'P 1'
_cell_length_a   7.38708500
_cell_length_b   9.38057000
_cell_length_c   12.93292500
_cell_angle_alpha   90.00000000
_cell_angle_beta   90.00000000
_cell_angle_gamma   90.00000000
_symmetry_Int_Tables_number   1
_chemical_formula_structural   Rb2CoCl4
_chemical_formula_sum   'Rb8 Co4 Cl16'
_cell_volume   896.18791652
_cell_formula_units_Z   4
loop_
 _symmetry_equiv_pos_site_id
 _symmetry_equiv_pos_as_xyz
  1  'x, y, z'
loop_
 _atom_site_type_symbol
 _atom_site_label
 _atom_site_symmetry_multiplicity
 _atom_site_fract_x
 _atom_site_fract_y
 _atom_site_fract_z
 _atom_site_occupancy
  Rb  Rb0  1  0.25054900  0.48893800  0.17839400  1
  Rb  Rb1  1  0.25158700  0.63036800  0.59093600  1
  Rb  Rb2  1  0.75158700  0.86963200  0.09093600  1
  Rb  Rb3  1  0.75158700  0.36963200  0.40906400  1
  Rb  Rb4  1  0.25158700  0.13036800  0.90906400  1
  Rb  Rb5  1  0.75054900  0.01106200  0.67839400  1
  Rb  Rb6  1  0.25054900  0.98893800  0.32160600  1
  Rb  Rb7  1  0.75054900  0.51106200  0.82160600  1
  Co  Co0  1  0.25097900  0.72345600  0.92168200  1
  Co  Co1  1  0.75097900  0.27654400  0.07831800  1
  Co  Co2  1  0.25097900  0.22345600  0.57831800  1
  Co  Co3  1  0.75097900  0.77654400  0.42168200  1
  Cl  Cl0  1  0.75529600  0.17744000  0.91842400  1
  Cl  Cl1  1  0.50099800  0.18733900  0.15438600  1
  Cl  Cl2  1  0.75529600  0.67744000  0.58157600  1
  Cl  Cl3  1  0.50099800  0.68733900  0.34561400  1
  Cl  Cl4  1  0.00099800  0.31266100  0.65438600  1
  Cl  Cl5  1  0.00099800  0.81266100  0.84561400  1
  Cl  Cl6  1  0.75639100  0.51603000  0.08069700  1
  Cl  Cl7  1  0.25639100  0.98397000  0.58069700  1
  Cl  Cl8  1  0.25639100  0.48397000  0.91930300  1
  Cl  Cl9  1  0.49320000  0.80710000  0.83524700  1
  Cl  Cl10  1  0.99320000  0.19290000  0.16475300  1
  Cl  Cl11  1  0.75639100  0.01603000  0.41930300  1
  Cl  Cl12  1  0.25529600  0.82256000  0.08157600  1
  Cl  Cl13  1  0.99320000  0.69290000  0.33524700  1
  Cl  Cl14  1  0.49320000  0.30710000  0.66475300  1
  Cl  Cl15  1  0.25529600  0.32256000  0.41842400  1
loop_
_geom_bond_atom_site_label_1
_geom_bond_atom_site_label_2
_geom_bond_distance
_geom_bond_site_symmetry_2
Cl0 Co1 2.267481 1_556
Cl0 Rb7 3.370943 1_555
Cl0 Rb5 3.474722 1_555
Cl0 Rb2 3.649062 1_546
Cl0 Rb4 3.694623 1_655
Cl0 Rb4 3.749004 1_555
Cl1 Co1 2.253463 1_555
Cl1 Rb0 3.394619 1_555
Cl1 Rb6 3.400529 1_545
Cl1 Rb2 3.603062 1_545
Cl1 Rb4 3.707606 1_554
Cl2 Co3 2.267481 1_555
Cl2 Rb5 3.370943 1_565
Cl2 Rb7 3.474722 1_555
Cl2 Rb3 3.649062 1_555
Cl2 Rb1 3.694623 1_655
Cl2 Rb1 3.749004 1_555
Cl3 Co3 2.253463 1_555
Cl3 Rb6 3.394619 1_555
Cl3 Rb0 3.400529 1_555
Cl3 Rb3 3.603062 1_555
Cl3 Rb1 3.707606 1_555
Cl4 Co2 2.253463 1_555
Cl4 Rb5 3.394619 1_455
Cl4 Rb7 3.400529 1_455
Cl4 Rb1 3.603062 1_555
Cl4 Rb3 3.707606 1_455
Cl5 Co0 2.253463 1_555
Cl5 Rb7 3.394619 1_455
Cl5 Rb5 3.400529 1_465
Cl5 Rb4 3.603062 1_565
Cl5 Rb2 3.707606 1_456
Cl6 Co1 2.247082 1_555
Cl6 Rb2 3.319820 1_555
Cl6 Rb7 3.351406 1_554
Cl7 Co2 2.247082 1_565
Cl7 Rb1 3.319820 1_555
Cl7 Rb6 3.351406 1_555
Cl8 Co0 2.247082 1_555
Cl8 Rb4 3.319820 1_555
Cl8 Rb0 3.351406 1_556
Cl9 Co0 2.250970 1_555
Cl9 Rb7 3.370001 1_555
Cl9 Rb5 3.374871 1_565
Cl9 Rb4 3.645908 1_565
Cl9 Rb2 3.862938 1_556
Cl10 Co1 2.250970 1_555
Cl10 Rb0 3.370001 1_655
Cl10 Rb6 3.374871 1_645
Cl10 Rb2 3.645908 1_545
Cl10 Rb4 3.862938 1_654
Cl11 Co3 2.247082 1_545
Cl11 Rb3 3.319820 1_555
Cl11 Rb5 3.351406 1_555
Cl12 Co0 2.267481 1_554
Cl12 Rb0 3.370943 1_555
Cl12 Rb6 3.474722 1_555
Cl12 Rb4 3.649062 1_564
Cl12 Rb2 3.694623 1_555
Cl12 Rb2 3.749004 1_455
Cl13 Co3 2.250970 1_555
Cl13 Rb6 3.370001 1_655
Cl13 Rb0 3.374871 1_655
Cl13 Rb3 3.645908 1_555
Cl13 Rb1 3.862938 1_655
Cl14 Co2 2.250970 1_555
Cl14 Rb5 3.370001 1_555
Cl14 Rb7 3.374871 1_555
Cl14 Rb1 3.645908 1_555
Cl14 Rb3 3.862938 1_555
Cl15 Co2 2.267481 1_555
Cl15 Rb6 3.370943 1_545
Cl15 Rb0 3.474722 1_555
Cl15 Rb1 3.649062 1_555
Cl15 Rb3 3.694623 1_555
Cl15 Rb3 3.749004 1_455
