# generated using pymatgen
data_Cr11Ge8
_symmetry_space_group_name_H-M   'P 1'
_cell_length_a   4.91784600
_cell_length_b   13.18063700
_cell_length_c   15.75546800
_cell_angle_alpha   90.00000000
_cell_angle_beta   90.00000000
_cell_angle_gamma   90.00000000
_symmetry_Int_Tables_number   1
_chemical_formula_structural   Cr11Ge8
_chemical_formula_sum   'Cr44 Ge32'
_cell_volume   1021.27483906
_cell_formula_units_Z   4
loop_
 _symmetry_equiv_pos_site_id
 _symmetry_equiv_pos_as_xyz
  1  'x, y, z'
loop_
 _atom_site_type_symbol
 _atom_site_label
 _atom_site_symmetry_multiplicity
 _atom_site_fract_x
 _atom_site_fract_y
 _atom_site_fract_z
 _atom_site_occupancy
  Cr  Cr0  1  0.00432200  0.55996700  0.87774300  1
  Cr  Cr1  1  0.75000000  0.75127000  0.46855300  1
  Cr  Cr2  1  0.75000000  0.86442600  0.65816800  1
  Cr  Cr3  1  0.49567800  0.55996700  0.87774300  1
  Cr  Cr4  1  0.25000000  0.06517600  0.80941800  1
  Cr  Cr5  1  0.25000000  0.30784500  0.25115300  1
  Cr  Cr6  1  0.25000000  0.86902100  0.54177300  1
  Cr  Cr7  1  0.75000000  0.38037700  0.50805800  1
  Cr  Cr8  1  0.25000000  0.80784500  0.24884700  1
  Cr  Cr9  1  0.50432200  0.44003300  0.12225700  1
  Cr  Cr10  1  0.25000000  0.61962300  0.49194200  1
  Cr  Cr11  1  0.25000000  0.96003300  0.09287000  1
  Cr  Cr12  1  0.75000000  0.25127000  0.03144700  1
  Cr  Cr13  1  0.75000000  0.88037700  0.99194200  1
  Cr  Cr14  1  0.25000000  0.13557400  0.34183200  1
  Cr  Cr15  1  0.25000000  0.46003300  0.40713000  1
  Cr  Cr16  1  0.50945300  0.86297700  0.82569300  1
  Cr  Cr17  1  0.25000000  0.11962300  0.00805800  1
  Cr  Cr18  1  0.00945300  0.63702300  0.32569300  1
  Cr  Cr19  1  0.25000000  0.63557400  0.15816800  1
  Cr  Cr20  1  0.75000000  0.03996700  0.90713000  1
  Cr  Cr21  1  0.75000000  0.43482400  0.30941800  1
  Cr  Cr22  1  0.50945300  0.36297700  0.67430700  1
  Cr  Cr23  1  0.99054700  0.36297700  0.67430700  1
  Cr  Cr24  1  0.99567800  0.94003300  0.37774300  1
  Cr  Cr25  1  0.49054700  0.13702300  0.17430700  1
  Cr  Cr26  1  0.25000000  0.24873000  0.53144700  1
  Cr  Cr27  1  0.99054700  0.86297700  0.82569300  1
  Cr  Cr28  1  0.75000000  0.93482400  0.19058200  1
  Cr  Cr29  1  0.25000000  0.74873000  0.96855300  1
  Cr  Cr30  1  0.75000000  0.19215500  0.75115300  1
  Cr  Cr31  1  0.75000000  0.63097900  0.04177300  1
  Cr  Cr32  1  0.75000000  0.36442600  0.84183200  1
  Cr  Cr33  1  0.99567800  0.44003300  0.12225700  1
  Cr  Cr34  1  0.25000000  0.36902100  0.95822700  1
  Cr  Cr35  1  0.49054700  0.63702300  0.32569300  1
  Cr  Cr36  1  0.50432200  0.94003300  0.37774300  1
  Cr  Cr37  1  0.25000000  0.56517600  0.69058200  1
  Cr  Cr38  1  0.75000000  0.69215500  0.74884700  1
  Cr  Cr39  1  0.49567800  0.05996700  0.62225700  1
  Cr  Cr40  1  0.00432200  0.05996700  0.62225700  1
  Cr  Cr41  1  0.75000000  0.13097900  0.45822700  1
  Cr  Cr42  1  0.75000000  0.53996700  0.59287000  1
  Cr  Cr43  1  0.00945300  0.13702300  0.17430700  1
  Ge  Ge0  1  0.25000000  0.70345600  0.80074800  1
  Ge  Ge1  1  0.25000000  0.49150000  0.25525700  1
  Ge  Ge2  1  0.75000000  0.55142200  0.43914100  1
  Ge  Ge3  1  0.25000000  0.55635400  0.01714800  1
  Ge  Ge4  1  0.99841900  0.28768500  0.38836600  1
  Ge  Ge5  1  0.25000000  0.05635400  0.48285200  1
  Ge  Ge6  1  0.75000000  0.08772200  0.30412900  1
  Ge  Ge7  1  0.25000000  0.99150000  0.24474300  1
  Ge  Ge8  1  0.75000000  0.58772200  0.19587100  1
  Ge  Ge9  1  0.00158100  0.21231500  0.88836600  1
  Ge  Ge10  1  0.49841900  0.71231500  0.61163400  1
  Ge  Ge11  1  0.25000000  0.27597400  0.09475000  1
  Ge  Ge12  1  0.25000000  0.77597400  0.40525000  1
  Ge  Ge13  1  0.99841900  0.78768500  0.11163400  1
  Ge  Ge14  1  0.75000000  0.50850000  0.74474300  1
  Ge  Ge15  1  0.75000000  0.94364600  0.51714800  1
  Ge  Ge16  1  0.75000000  0.05142200  0.06085900  1
  Ge  Ge17  1  0.75000000  0.00850000  0.75525700  1
  Ge  Ge18  1  0.25000000  0.41227800  0.80412900  1
  Ge  Ge19  1  0.00158100  0.71231500  0.61163400  1
  Ge  Ge20  1  0.75000000  0.72402600  0.90525000  1
  Ge  Ge21  1  0.25000000  0.91227800  0.69587100  1
  Ge  Ge22  1  0.75000000  0.29654400  0.19925200  1
  Ge  Ge23  1  0.50158100  0.28768500  0.38836600  1
  Ge  Ge24  1  0.25000000  0.20345600  0.69925200  1
  Ge  Ge25  1  0.75000000  0.79654400  0.30074800  1
  Ge  Ge26  1  0.75000000  0.22402600  0.59475000  1
  Ge  Ge27  1  0.49841900  0.21231500  0.88836600  1
  Ge  Ge28  1  0.50158100  0.78768500  0.11163400  1
  Ge  Ge29  1  0.75000000  0.44364600  0.98285200  1
  Ge  Ge30  1  0.25000000  0.44857800  0.56085900  1
  Ge  Ge31  1  0.25000000  0.94857800  0.93914100  1
loop_
_geom_bond_atom_site_label_1
_geom_bond_atom_site_label_2
_geom_bond_distance
_geom_bond_site_symmetry_2
Cr0 Cr3 2.416413 1_555
Cr0 Cr3 2.501433 1_455
Cr0 Ge3 2.507222 1_556
Cr0 Ge14 2.532884 1_455
Cr0 Ge20 2.535369 1_455
Cr0 Ge0 2.551134 1_555
Cr0 Ge18 2.567945 1_555
Cr0 Ge29 2.580198 1_455
Cr1 Ge19 2.622269 1_655
Cr1 Ge10 2.622269 1_555
Cr1 Ge15 2.648709 1_555
Cr1 Ge12 2.673401 1_555
Cr1 Ge12 2.673401 1_655
Cr1 Ge2 2.674574 1_555
Cr1 Ge25 2.710355 1_555
Cr2 Ge17 2.438459 1_565
Cr2 Ge15 2.454964 1_555
Cr2 Ge10 2.467385 1_555
Cr2 Ge19 2.467385 1_655
Cr2 Ge21 2.607102 1_655
Cr2 Ge21 2.607102 1_555
Cr3 Ge3 2.507222 1_556
Cr3 Ge14 2.532884 1_555
Cr3 Ge20 2.535369 1_555
Cr3 Ge0 2.551134 1_555
Cr3 Ge18 2.567945 1_555
Cr3 Ge29 2.580198 1_555
Cr4 Ge24 2.516873 1_555
Cr4 Ge31 2.557181 1_545
Cr4 Ge27 2.607859 1_555
Cr4 Ge9 2.607859 1_555
Cr4 Ge21 2.694787 1_545
Cr4 Ge17 2.707864 1_555
Cr4 Ge17 2.707864 1_455
Cr5 Ge1 2.421553 1_555
Cr5 Ge11 2.499752 1_555
Cr5 Ge23 2.504991 1_555
Cr5 Ge4 2.504991 1_455
Cr5 Ge22 2.595605 1_455
Cr5 Ge22 2.595605 1_555
Cr6 Ge12 2.476052 1_555
Cr6 Ge21 2.493934 1_555
Cr6 Ge5 2.637913 1_565
Cr6 Ge10 2.640127 1_555
Cr6 Ge19 2.640127 1_555
Cr6 Ge15 2.676623 1_455
Cr6 Ge15 2.676623 1_555
Cr7 Ge26 2.472353 1_555
Cr7 Ge2 2.502338 1_555
Cr7 Ge23 2.557620 1_555
Cr7 Ge4 2.557620 1_555
Cr7 Ge30 2.747080 1_555
Cr7 Ge30 2.747080 1_655
Cr8 Ge7 2.421553 1_555
Cr8 Ge12 2.499752 1_555
Cr8 Ge13 2.504991 1_455
Cr8 Ge28 2.504991 1_555
Cr8 Ge25 2.595605 1_455
Cr8 Ge25 2.595605 1_555
Cr9 Ge29 2.507222 1_554
Cr9 Ge1 2.532884 1_555
Cr9 Ge11 2.535369 1_555
Cr9 Ge22 2.551134 1_555
Cr9 Ge8 2.567945 1_555
Cr9 Ge3 2.580198 1_555
Cr10 Ge12 2.472353 1_555
Cr10 Cr15 2.492042 1_555
Cr10 Ge30 2.502338 1_555
Cr10 Ge10 2.557620 1_555
Cr10 Ge19 2.557620 1_555
Cr10 Ge2 2.747080 1_455
Cr10 Ge2 2.747080 1_555
Cr11 Ge31 2.426774 1_554
Cr11 Ge7 2.428509 1_555
Cr11 Cr17 2.492042 1_565
Cr11 Ge28 2.603570 1_555
Cr11 Ge13 2.603570 1_455
Cr11 Ge16 2.784178 1_465
Cr11 Ge16 2.784178 1_565
Cr12 Ge9 2.622269 1_654
Cr12 Ge27 2.622269 1_554
Cr12 Ge29 2.648709 1_554
Cr12 Ge11 2.673401 1_655
Cr12 Ge11 2.673401 1_555
Cr12 Ge16 2.674574 1_555
Cr12 Ge22 2.710355 1_555
Cr13 Ge20 2.472353 1_555
Cr13 Cr20 2.492042 1_565
Cr13 Ge16 2.502338 1_566
Cr13 Ge13 2.557620 1_556
Cr13 Ge28 2.557620 1_556
Cr13 Ge31 2.747080 1_655
Cr13 Ge31 2.747080 1_555
Cr14 Ge7 2.438459 1_545
Cr14 Ge5 2.454964 1_555
Cr14 Ge23 2.467385 1_555
Cr14 Ge4 2.467385 1_455
Cr14 Ge6 2.607102 1_455
Cr14 Ge6 2.607102 1_555
Cr15 Ge30 2.426774 1_555
Cr15 Ge1 2.428509 1_555
Cr15 Ge23 2.603570 1_555
Cr15 Ge4 2.603570 1_455
Cr15 Ge2 2.784178 1_455
Cr15 Ge2 2.784178 1_555
Cr16 Ge31 2.468997 1_555
Cr16 Ge0 2.490661 1_555
Cr16 Ge21 2.496798 1_555
Cr16 Ge17 2.511977 1_565
Cr16 Ge20 2.514923 1_555
Cr17 Ge11 2.472353 1_555
Cr17 Ge31 2.502338 1_544
Cr17 Ge27 2.557620 1_554
Cr17 Ge9 2.557620 1_554
Cr17 Ge16 2.747080 1_455
Cr17 Ge16 2.747080 1_555
Cr18 Ge2 2.468997 1_455
Cr18 Ge25 2.490661 1_455
Cr18 Ge8 2.496798 1_455
Cr18 Ge1 2.511977 1_555
Cr18 Ge12 2.514923 1_555
Cr19 Ge1 2.438459 1_555
Cr19 Ge3 2.454964 1_555
Cr19 Ge28 2.467385 1_555
Cr19 Ge13 2.467385 1_455
Cr19 Ge8 2.607102 1_455
Cr19 Ge8 2.607102 1_555
Cr20 Ge16 2.426774 1_556
Cr20 Ge17 2.428509 1_555
Cr20 Ge27 2.603570 1_555
Cr20 Ge9 2.603570 1_655
Cr20 Ge31 2.784178 1_545
Cr20 Ge31 2.784178 1_645
Cr21 Ge22 2.516873 1_555
Cr21 Ge2 2.557181 1_555
Cr21 Ge4 2.607859 1_555
Cr21 Ge23 2.607859 1_555
Cr21 Ge8 2.694787 1_555
Cr21 Ge1 2.707864 1_655
Cr21 Ge1 2.707864 1_555
Cr22 Ge30 2.468997 1_555
Cr22 Ge24 2.490661 1_555
Cr22 Ge18 2.496798 1_555
Cr22 Ge14 2.511977 1_555
Cr22 Ge26 2.514923 1_555
Cr23 Ge30 2.468997 1_655
Cr23 Ge24 2.490661 1_655
Cr23 Ge18 2.496798 1_655
Cr23 Ge14 2.511977 1_555
Cr23 Ge26 2.514923 1_555
Cr24 Cr36 2.416413 1_555
Cr24 Cr36 2.501433 1_655
Cr24 Ge15 2.507222 1_555
Cr24 Ge7 2.532884 1_655
Cr24 Ge12 2.535369 1_655
Cr24 Ge25 2.551134 1_555
Cr24 Ge6 2.567945 1_565
Cr24 Ge5 2.580198 1_665
Cr25 Ge16 2.468997 1_555
Cr25 Ge22 2.490661 1_555
Cr25 Ge6 2.496798 1_555
Cr25 Ge7 2.511977 1_545
Cr25 Ge11 2.514923 1_555
Cr26 Ge4 2.622269 1_455
Cr26 Ge23 2.622269 1_555
Cr26 Ge5 2.648709 1_555
Cr26 Ge26 2.673401 1_455
Cr26 Ge26 2.673401 1_555
Cr26 Ge30 2.674574 1_555
Cr26 Ge24 2.710355 1_555
Cr27 Ge31 2.468997 1_655
Cr27 Ge0 2.490661 1_655
Cr27 Ge21 2.496798 1_655
Cr27 Ge17 2.511977 1_565
Cr27 Ge20 2.514923 1_555
Cr28 Ge25 2.516873 1_555
Cr28 Ge16 2.557181 1_565
Cr28 Ge28 2.607859 1_555
Cr28 Ge13 2.607859 1_555
Cr28 Ge6 2.694787 1_565
Cr28 Ge7 2.707864 1_655
Cr28 Ge7 2.707864 1_555
Cr29 Ge28 2.622269 1_556
Cr29 Ge13 2.622269 1_456
Cr29 Ge3 2.648709 1_556
Cr29 Ge20 2.673401 1_455
Cr29 Ge20 2.673401 1_555
Cr29 Ge31 2.674574 1_555
Cr29 Ge0 2.710355 1_555
Cr30 Ge17 2.421553 1_555
Cr30 Ge26 2.499752 1_555
Cr30 Ge9 2.504991 1_655
Cr30 Ge27 2.504991 1_555
Cr30 Ge24 2.595605 1_655
Cr30 Ge24 2.595605 1_555
Cr31 Ge20 2.476052 1_554
Cr31 Ge8 2.493934 1_555
Cr31 Ge29 2.637913 1_554
Cr31 Ge28 2.640127 1_555
Cr31 Ge13 2.640127 1_555
Cr31 Ge3 2.676623 1_555
Cr31 Ge3 2.676623 1_655
Cr32 Ge14 2.438459 1_555
Cr32 Ge29 2.454964 1_555
Cr32 Ge27 2.467385 1_555
Cr32 Ge9 2.467385 1_655
Cr32 Ge18 2.607102 1_655
Cr32 Ge18 2.607102 1_555
Cr33 Cr9 2.416413 1_555
Cr33 Cr9 2.501433 1_655
Cr33 Ge29 2.507222 1_554
Cr33 Ge1 2.532884 1_655
Cr33 Ge11 2.535369 1_655
Cr33 Ge22 2.551134 1_555
Cr33 Ge8 2.567945 1_555
Cr33 Ge3 2.580198 1_655
Cr34 Ge11 2.476052 1_556
Cr34 Ge18 2.493934 1_555
Cr34 Ge3 2.637913 1_556
Cr34 Ge27 2.640127 1_555
Cr34 Ge9 2.640127 1_555
Cr34 Ge29 2.676623 1_455
Cr34 Ge29 2.676623 1_555
Cr35 Ge2 2.468997 1_555
Cr35 Ge25 2.490661 1_555
Cr35 Ge8 2.496798 1_555
Cr35 Ge1 2.511977 1_555
Cr35 Ge12 2.514923 1_555
Cr36 Ge15 2.507222 1_555
Cr36 Ge7 2.532884 1_555
Cr36 Ge12 2.535369 1_555
Cr36 Ge25 2.551134 1_555
Cr36 Ge6 2.567945 1_565
Cr36 Ge5 2.580198 1_565
Cr37 Ge0 2.516873 1_555
Cr37 Ge30 2.557181 1_555
Cr37 Ge19 2.607859 1_555
Cr37 Ge10 2.607859 1_555
Cr37 Ge18 2.694787 1_555
Cr37 Ge14 2.707864 1_555
Cr37 Ge14 2.707864 1_455
Cr38 Ge14 2.421553 1_555
Cr38 Ge20 2.499752 1_555
Cr38 Ge10 2.504991 1_555
Cr38 Ge19 2.504991 1_655
Cr38 Ge0 2.595605 1_555
Cr38 Ge0 2.595605 1_655
Cr39 Cr40 2.416413 1_555
Cr39 Cr40 2.501433 1_655
Cr39 Ge5 2.507222 1_555
Cr39 Ge17 2.532884 1_555
Cr39 Ge26 2.535369 1_555
Cr39 Ge24 2.551134 1_555
Cr39 Ge21 2.567945 1_545
Cr39 Ge15 2.580198 1_545
Cr40 Ge5 2.507222 1_555
Cr40 Ge17 2.532884 1_455
Cr40 Ge26 2.535369 1_455
Cr40 Ge24 2.551134 1_555
Cr40 Ge21 2.567945 1_545
Cr40 Ge15 2.580198 1_445
Cr41 Ge26 2.476052 1_555
Cr41 Ge6 2.493934 1_555
Cr41 Ge15 2.637913 1_545
Cr41 Ge4 2.640127 1_555
Cr41 Ge23 2.640127 1_555
Cr41 Ge5 2.676623 1_555
Cr41 Ge5 2.676623 1_655
Cr42 Ge2 2.426774 1_555
Cr42 Ge14 2.428509 1_555
Cr42 Cr7 2.492042 1_555
Cr42 Ge10 2.603570 1_555
Cr42 Ge19 2.603570 1_655
Cr42 Ge30 2.784178 1_655
Cr42 Ge30 2.784178 1_555
Cr43 Ge16 2.468997 1_455
Cr43 Ge22 2.490661 1_455
Cr43 Ge6 2.496798 1_455
Cr43 Ge7 2.511977 1_545
Cr43 Ge11 2.514923 1_555
Ge10 Ge19 2.443373 1_555
Ge10 Ge19 2.474473 1_655
Ge13 Ge28 2.443373 1_555
Ge13 Ge28 2.474473 1_655
Ge23 Ge4 2.443373 1_555
Ge23 Ge4 2.474473 1_455
Ge27 Ge9 2.443373 1_555
Ge27 Ge9 2.474473 1_655
