# generated using pymatgen
data_Dy2Co17
_symmetry_space_group_name_H-M   'P 1'
_cell_length_a   8.29986800
_cell_length_b   8.29986840
_cell_length_c   8.10510500
_cell_angle_alpha   90.00000000
_cell_angle_beta   90.00000000
_cell_angle_gamma   119.99999840
_symmetry_Int_Tables_number   1
_chemical_formula_structural   Dy2Co17
_chemical_formula_sum   'Dy4 Co34'
_cell_volume   483.53918714
_cell_formula_units_Z   2
loop_
 _symmetry_equiv_pos_site_id
 _symmetry_equiv_pos_as_xyz
  1  'x, y, z'
loop_
 _atom_site_type_symbol
 _atom_site_label
 _atom_site_symmetry_multiplicity
 _atom_site_fract_x
 _atom_site_fract_y
 _atom_site_fract_z
 _atom_site_occupancy
  Dy  Dy0  1  0.33333300  0.66666700  0.75000000  1
  Dy  Dy1  1  0.00000000  0.00000000  0.25000000  1
  Dy  Dy2  1  0.66666700  0.33333300  0.25000000  1
  Dy  Dy3  1  0.00000000  0.00000000  0.75000000  1
  Co  Co0  1  0.62379900  0.95266000  0.25000000  1
  Co  Co1  1  0.67113900  0.62379900  0.75000000  1
  Co  Co2  1  0.50000000  0.00000000  0.00000000  1
  Co  Co3  1  0.66666700  0.33333300  0.60722300  1
  Co  Co4  1  0.32886100  0.37620100  0.25000000  1
  Co  Co5  1  0.16675400  0.33350700  0.52024600  1
  Co  Co6  1  0.33350700  0.16675400  0.02024600  1
  Co  Co7  1  0.83324600  0.66649300  0.47975400  1
  Co  Co8  1  0.04734000  0.37620100  0.25000000  1
  Co  Co9  1  0.32886100  0.95266000  0.25000000  1
  Co  Co10  1  0.04734000  0.67113900  0.25000000  1
  Co  Co11  1  0.83324600  0.16675400  0.02024600  1
  Co  Co12  1  0.33333300  0.66666700  0.39277700  1
  Co  Co13  1  0.62379900  0.67113900  0.25000000  1
  Co  Co14  1  0.66649300  0.83324600  0.97975400  1
  Co  Co15  1  0.16675400  0.83324600  0.97975400  1
  Co  Co16  1  0.16675400  0.83324600  0.52024600  1
  Co  Co17  1  0.66649300  0.83324600  0.52024600  1
  Co  Co18  1  0.33333300  0.66666700  0.10722300  1
  Co  Co19  1  0.50000000  0.00000000  0.50000000  1
  Co  Co20  1  0.37620100  0.32886100  0.75000000  1
  Co  Co21  1  0.50000000  0.50000000  0.00000000  1
  Co  Co22  1  0.67113900  0.04734000  0.75000000  1
  Co  Co23  1  0.37620100  0.04734000  0.75000000  1
  Co  Co24  1  0.16675400  0.33350700  0.97975400  1
  Co  Co25  1  0.66666700  0.33333300  0.89277700  1
  Co  Co26  1  0.83324600  0.16675400  0.47975400  1
  Co  Co27  1  0.83324600  0.66649300  0.02024600  1
  Co  Co28  1  0.00000000  0.50000000  0.00000000  1
  Co  Co29  1  0.95266000  0.32886100  0.75000000  1
  Co  Co30  1  0.95266000  0.62379900  0.75000000  1
  Co  Co31  1  0.00000000  0.50000000  0.50000000  1
  Co  Co32  1  0.33350700  0.16675400  0.47975400  1
  Co  Co33  1  0.50000000  0.50000000  0.50000000  1
loop_
_geom_bond_atom_site_label_1
_geom_bond_atom_site_label_2
_geom_bond_distance
_geom_bond_site_symmetry_2
Co0 Co13 2.336587 1_555
Co0 Co19 2.391588 1_565
Co0 Co2 2.391588 1_565
Co0 Co9 2.447946 1_555
Co0 Co17 2.501365 1_555
Co0 Co14 2.501365 1_554
Co0 Co26 2.560903 1_565
Co0 Co11 2.560903 1_565
Co0 Co18 2.657657 1_555
Co0 Co12 2.657657 1_555
Co0 Dy1 2.945680 1_665
Co0 Dy2 2.997516 1_565
Co1 Co30 2.336587 1_555
Co1 Co21 2.391588 1_556
Co1 Co33 2.391588 1_555
Co1 Co20 2.447947 1_555
Co1 Co27 2.501361 1_556
Co1 Co7 2.501361 1_555
Co1 Co14 2.560900 1_555
Co1 Co17 2.560900 1_555
Co1 Co25 2.657660 1_555
Co1 Co3 2.657660 1_555
Co1 Dy3 2.945681 1_665
Co1 Dy0 2.997524 1_555
Co2 Co22 2.391588 1_554
Co2 Co23 2.391588 1_554
Co2 Co9 2.391588 1_545
Co2 Co6 2.400959 1_555
Co2 Co25 2.548704 1_554
Co2 Dy0 3.137903 1_544
Co2 Dy2 3.137903 1_555
Co3 Co31 2.548704 1_655
Co3 Co33 2.548711 1_555
Co3 Co32 2.608080 1_555
Co3 Co7 2.608080 1_555
Co3 Co30 2.657657 1_555
Co3 Dy2 2.895330 1_555
Co4 Co8 2.336587 1_555
Co4 Co5 2.501361 1_555
Co4 Co6 2.560900 1_555
Co4 Dy1 2.945681 1_555
Co4 Dy2 2.997524 1_555
Co5 Co8 2.501365 1_555
Co5 Dy0 3.033545 1_555
Co5 Dy3 3.035515 1_555
Co5 Dy1 3.247209 1_555
Co6 Co9 2.560906 1_545
Co6 Dy2 3.033545 1_555
Co6 Dy1 3.035515 1_555
Co6 Dy3 3.247209 1_554
Co7 Dy2 3.033545 1_555
Co7 Dy1 3.035515 1_665
Co7 Dy3 3.247209 1_665
Co8 Dy1 2.945681 1_555
Co8 Dy2 2.997516 1_455
Co9 Dy1 2.945680 1_565
Co9 Dy2 2.997519 1_565
Co10 Co9 2.336587 1_555
Co10 Co28 2.391588 1_555
Co10 Co31 2.391588 1_555
Co10 Co8 2.447947 1_555
Co10 Co16 2.501362 1_555
Co10 Co15 2.501362 1_554
Co10 Co7 2.560906 1_455
Co10 Co27 2.560906 1_455
Co10 Co18 2.657653 1_555
Co10 Co12 2.657653 1_555
Co10 Dy1 2.945681 1_565
Co10 Dy2 2.997519 1_455
Co11 Co2 2.400952 1_555
Co11 Co28 2.400952 1_655
Co11 Co24 2.419582 1_654
Co11 Co14 2.419582 1_544
Co11 Co22 2.501362 1_554
Co11 Co29 2.501362 1_554
Co11 Co8 2.560903 1_655
Co11 Co25 2.608067 1_554
Co11 Dy2 3.033534 1_555
Co11 Dy1 3.035520 1_655
Co11 Dy3 3.247214 1_654
Co12 Co18 2.314445 1_555
Co12 Co31 2.548704 1_555
Co12 Co19 2.548704 1_565
Co12 Co33 2.548711 1_555
Co12 Co16 2.608067 1_555
Co12 Co17 2.608080 1_555
Co12 Co5 2.608080 1_555
Co12 Co9 2.657653 1_555
Co12 Co8 2.657657 1_555
Co12 Co13 2.657660 1_555
Co12 Co4 2.657660 1_555
Co12 Dy0 2.895330 1_555
Co13 Co33 2.391588 1_555
Co13 Co21 2.391588 1_555
Co13 Co4 2.447947 1_555
Co13 Co17 2.501361 1_555
Co13 Co14 2.501361 1_554
Co13 Co7 2.560900 1_555
Co13 Co27 2.560900 1_555
Co13 Co18 2.657660 1_555
Co13 Dy1 2.945681 1_665
Co13 Dy2 2.997524 1_555
Co14 Co21 2.400952 1_556
Co14 Co2 2.400959 1_566
Co14 Co27 2.419568 1_556
Co14 Co22 2.560906 1_565
Co14 Co18 2.608080 1_556
Co14 Dy0 3.033545 1_555
Co14 Dy3 3.035515 1_665
Co14 Dy1 3.247209 1_666
Co15 Co2 2.400952 1_566
Co15 Co28 2.400952 1_556
Co15 Co27 2.419582 1_456
Co15 Co6 2.419582 1_566
Co15 Co9 2.501362 1_556
Co15 Co30 2.560903 1_455
Co15 Co23 2.560903 1_565
Co15 Co18 2.608067 1_556
Co15 Dy0 3.033534 1_555
Co15 Dy3 3.035520 1_565
Co15 Dy1 3.247214 1_566
Co16 Co19 2.400952 1_565
Co16 Co31 2.400952 1_555
Co16 Co7 2.419582 1_455
Co16 Co32 2.419582 1_565
Co16 Co9 2.501362 1_555
Co16 Co30 2.560903 1_455
Co16 Co23 2.560903 1_565
Co16 Dy0 3.033534 1_555
Co16 Dy3 3.035520 1_565
Co16 Dy1 3.247214 1_565
Co17 Co33 2.400952 1_555
Co17 Co19 2.400959 1_565
Co17 Co7 2.419568 1_555
Co17 Co26 2.419582 1_565
Co17 Co22 2.560906 1_565
Co17 Dy0 3.033545 1_555
Co17 Dy3 3.035515 1_665
Co17 Dy1 3.247209 1_665
Co18 Co28 2.548704 1_555
Co18 Co2 2.548704 1_565
Co18 Co21 2.548711 1_555
Co18 Co24 2.608080 1_554
Co18 Co9 2.657653 1_555
Co18 Co8 2.657657 1_555
Co18 Co4 2.657660 1_555
Co18 Dy0 2.895330 1_554
Co19 Co22 2.391588 1_555
Co19 Co23 2.391588 1_555
Co19 Co9 2.391588 1_545
Co19 Co26 2.400952 1_555
Co19 Co32 2.400959 1_555
Co19 Co3 2.548704 1_555
Co19 Dy0 3.137903 1_545
Co19 Dy2 3.137903 1_555
Co20 Co23 2.336587 1_555
Co20 Co33 2.391588 1_555
Co20 Co21 2.391588 1_556
Co20 Co6 2.501361 1_556
Co20 Co32 2.501361 1_555
Co20 Co24 2.560900 1_555
Co20 Co5 2.560900 1_555
Co20 Co25 2.657660 1_555
Co20 Co3 2.657660 1_555
Co20 Dy3 2.945681 1_555
Co20 Dy0 2.997524 1_555
Co21 Co4 2.391588 1_555
Co21 Co27 2.400952 1_555
Co21 Co24 2.400952 1_554
Co21 Co6 2.400952 1_555
Co21 Co25 2.548711 1_554
Co21 Dy0 3.137908 1_554
Co21 Dy2 3.137908 1_555
Co22 Co29 2.336587 1_555
Co22 Co23 2.447946 1_555
Co22 Co26 2.501362 1_555
Co22 Co25 2.657653 1_555
Co22 Co3 2.657653 1_555
Co22 Dy3 2.945680 1_655
Co22 Dy0 2.997519 1_545
Co23 Co6 2.501365 1_556
Co23 Co32 2.501365 1_555
Co23 Co25 2.657657 1_555
Co23 Co3 2.657657 1_555
Co23 Dy3 2.945680 1_555
Co23 Dy0 2.997516 1_545
Co24 Co28 2.400959 1_556
Co24 Co6 2.419568 1_556
Co24 Co4 2.501361 1_556
Co24 Co8 2.501365 1_556
Co24 Co29 2.560906 1_455
Co24 Dy0 3.033545 1_555
Co24 Dy3 3.035515 1_555
Co24 Dy1 3.247209 1_556
Co25 Co3 2.314445 1_555
Co25 Co28 2.548704 1_656
Co25 Co6 2.608080 1_556
Co25 Co27 2.608080 1_556
Co25 Co29 2.657653 1_555
Co25 Co30 2.657657 1_555
Co25 Dy2 2.895330 1_556
Co26 Co31 2.400952 1_655
Co26 Co5 2.419582 1_655
Co26 Co29 2.501362 1_555
Co26 Co8 2.560903 1_655
Co26 Co3 2.608067 1_555
Co26 Dy2 3.033534 1_555
Co26 Dy1 3.035520 1_655
Co26 Dy3 3.247214 1_655
Co27 Co28 2.400959 1_655
Co27 Co30 2.501365 1_554
Co27 Dy2 3.033545 1_555
Co27 Dy1 3.035515 1_665
Co27 Dy3 3.247209 1_664
Co28 Co30 2.391588 1_454
Co28 Co8 2.391588 1_555
Co28 Co29 2.391588 1_454
Co28 Dy2 3.137903 1_455
Co28 Dy0 3.137903 1_554
Co29 Co31 2.391588 1_655
Co29 Co30 2.447947 1_555
Co29 Co5 2.560906 1_655
Co29 Co3 2.657653 1_555
Co29 Dy3 2.945681 1_655
Co29 Dy0 2.997519 1_655
Co30 Co31 2.391588 1_655
Co30 Co7 2.501365 1_555
Co30 Dy3 2.945681 1_665
Co30 Dy0 2.997516 1_655
Co31 Co8 2.391588 1_555
Co31 Co5 2.400959 1_555
Co31 Co7 2.400959 1_455
Co31 Dy2 3.137903 1_455
Co31 Dy0 3.137903 1_555
Co32 Co33 2.400952 1_555
Co32 Co5 2.419568 1_555
Co32 Co4 2.560900 1_555
Co32 Co9 2.560906 1_545
Co32 Dy2 3.033545 1_555
Co32 Dy1 3.035515 1_555
Co32 Dy3 3.247209 1_555
Co33 Co4 2.391588 1_555
Co33 Co7 2.400952 1_555
Co33 Co5 2.400952 1_555
Co33 Dy2 3.137908 1_555
Co33 Dy0 3.137908 1_555
