# generated using pymatgen
data_NaNd(GaSe2)4
_symmetry_space_group_name_H-M   'P 1'
_cell_length_a   15.14430967
_cell_length_b   12.50537918
_cell_length_c   12.48149581
_cell_angle_alpha   74.61465212
_cell_angle_beta   52.76454471
_cell_angle_gamma   52.62080317
_symmetry_Int_Tables_number   1
_chemical_formula_structural   NaNd(GaSe2)4
_chemical_formula_sum   'Na4 Nd4 Ga16 Se32'
_cell_volume   1475.89579294
_cell_formula_units_Z   4
loop_
 _symmetry_equiv_pos_site_id
 _symmetry_equiv_pos_as_xyz
  1  'x, y, z'
loop_
 _atom_site_type_symbol
 _atom_site_label
 _atom_site_symmetry_multiplicity
 _atom_site_fract_x
 _atom_site_fract_y
 _atom_site_fract_z
 _atom_site_occupancy
  Na  Na0  1  0.62162600  0.62162600  0.12837400  1
  Na  Na1  1  0.12837400  0.12837400  0.62162600  1
  Na  Na2  1  0.87162600  0.87162600  0.37837400  1
  Na  Na3  1  0.37837400  0.37837400  0.87162600  1
  Nd  Nd0  1  0.37500000  0.37500000  0.37500000  1
  Nd  Nd1  1  0.62500000  0.62500000  0.62500000  1
  Nd  Nd2  1  0.12500000  0.12500000  0.12500000  1
  Nd  Nd3  1  0.87500000  0.87500000  0.87500000  1
  Ga  Ga0  1  0.13691200  0.86832700  0.88375300  1
  Ga  Ga1  1  0.64029800  0.36148700  0.46955600  1
  Ga  Ga2  1  0.61100900  0.88375300  0.86832700  1
  Ga  Ga3  1  0.53044400  0.97134100  0.35970200  1
  Ga  Ga4  1  0.86308800  0.13167300  0.11624700  1
  Ga  Ga5  1  0.63851300  0.35970200  0.97134100  1
  Ga  Ga6  1  0.88375300  0.61100900  0.13691200  1
  Ga  Ga7  1  0.46955600  0.02865900  0.64029800  1
  Ga  Ga8  1  0.35970200  0.63851300  0.53044400  1
  Ga  Ga9  1  0.36148700  0.64029800  0.02865900  1
  Ga  Ga10  1  0.11624700  0.38899100  0.86308800  1
  Ga  Ga11  1  0.02865900  0.46955600  0.36148700  1
  Ga  Ga12  1  0.13167300  0.86308800  0.38899100  1
  Ga  Ga13  1  0.86832700  0.13691200  0.61100900  1
  Ga  Ga14  1  0.38899100  0.11624700  0.13167300  1
  Ga  Ga15  1  0.97134100  0.53044400  0.63851300  1
  Se  Se0  1  0.09010400  0.08331500  0.40476000  1
  Se  Se1  1  0.90654200  0.41935200  0.58891900  1
  Se  Se2  1  0.14885100  0.85021900  0.18282200  1
  Se  Se3  1  0.58891900  0.58518700  0.90654200  1
  Se  Se4  1  0.07817900  0.59524000  0.91668500  1
  Se  Se5  1  0.68189100  0.81717800  0.14978100  1
  Se  Se6  1  0.41108100  0.41481300  0.09345800  1
  Se  Se7  1  0.65666700  0.83677200  0.65783200  1
  Se  Se8  1  0.41935200  0.90654200  0.58518700  1
  Se  Se9  1  0.31810900  0.18282200  0.85021900  1
  Se  Se10  1  0.90989600  0.91668500  0.59524000  1
  Se  Se11  1  0.34333300  0.16322800  0.34216800  1
  Se  Se12  1  0.92182100  0.40476000  0.08331500  1
  Se  Se13  1  0.83677200  0.65666700  0.34872900  1
  Se  Se14  1  0.16322800  0.34333300  0.65127100  1
  Se  Se15  1  0.58518700  0.58891900  0.41935200  1
  Se  Se16  1  0.85114900  0.14978100  0.81717800  1
  Se  Se17  1  0.34872900  0.65783200  0.83677200  1
  Se  Se18  1  0.18282200  0.31810900  0.14885100  1
  Se  Se19  1  0.14978100  0.85114900  0.68189100  1
  Se  Se20  1  0.81717800  0.68189100  0.85114900  1
  Se  Se21  1  0.40476000  0.92182100  0.09010400  1
  Se  Se22  1  0.65783200  0.34872900  0.65666700  1
  Se  Se23  1  0.09345800  0.58064800  0.41108100  1
  Se  Se24  1  0.59524000  0.07817900  0.90989600  1
  Se  Se25  1  0.08331500  0.09010400  0.92182100  1
  Se  Se26  1  0.34216800  0.65127100  0.34333300  1
  Se  Se27  1  0.85021900  0.14885100  0.31810900  1
  Se  Se28  1  0.41481300  0.41108100  0.58064800  1
  Se  Se29  1  0.65127100  0.34216800  0.16322800  1
  Se  Se30  1  0.91668500  0.90989600  0.07817900  1
  Se  Se31  1  0.58064800  0.09345800  0.41481300  1
loop_
_geom_bond_atom_site_label_1
_geom_bond_atom_site_label_2
_geom_bond_distance
_geom_bond_site_symmetry_2
Na0 Se29 3.182544 1_555
Na0 Se26 3.182544 1_555
Na0 Se5 3.199426 1_555
Na0 Se20 3.199432 1_554
Na0 Se15 3.274517 1_555
Na0 Se3 3.274517 1_554
Na0 Se21 3.329357 1_555
Na0 Se12 3.329357 1_555
Na1 Se11 3.182544 1_555
Na1 Se14 3.182544 1_555
Na1 Se19 3.199438 1_545
Na1 Se16 3.199438 1_455
Na1 Se1 3.274517 1_455
Na1 Se8 3.274517 1_545
Na1 Se25 3.329357 1_555
Na1 Se0 3.329357 1_555
Na2 Se7 3.182544 1_555
Na2 Se13 3.182544 1_555
Na2 Se27 3.199438 1_565
Na2 Se2 3.199438 1_655
Na2 Se31 3.274517 1_565
Na2 Se23 3.274517 1_655
Na2 Se10 3.329357 1_555
Na2 Se30 3.329357 1_555
Na3 Se17 3.182544 1_555
Na3 Se22 3.182544 1_555
Na3 Se9 3.199426 1_555
Na3 Se18 3.199432 1_556
Na3 Se28 3.274517 1_555
Na3 Se6 3.274517 1_556
Na3 Se24 3.329357 1_555
Na3 Se4 3.329357 1_555
Nd0 Se11 3.125238 1_555
Nd0 Se14 3.125238 1_555
Nd0 Se26 3.125238 1_555
Nd0 Se29 3.125238 1_555
Nd0 Se31 3.158057 1_555
Nd0 Se28 3.158057 1_555
Nd0 Se6 3.158057 1_555
Nd0 Se23 3.158057 1_555
Nd1 Se7 3.125238 1_555
Nd1 Se13 3.125238 1_555
Nd1 Se17 3.125238 1_555
Nd1 Se22 3.125238 1_555
Nd1 Se3 3.158057 1_555
Nd1 Se1 3.158057 1_555
Nd1 Se8 3.158057 1_555
Nd1 Se15 3.158057 1_555
Nd2 Se25 3.143133 1_554
Nd2 Se0 3.143133 1_555
Nd2 Se12 3.143133 1_455
Nd2 Se21 3.143133 1_545
Nd2 Se27 3.154618 1_455
Nd2 Se2 3.154619 1_545
Nd2 Se9 3.154625 1_554
Nd2 Se18 3.154631 1_555
Nd3 Se10 3.143133 1_555
Nd3 Se30 3.143133 1_556
Nd3 Se4 3.143133 1_655
Nd3 Se24 3.143133 1_565
Nd3 Se19 3.154618 1_655
Nd3 Se16 3.154619 1_565
Nd3 Se5 3.154625 1_556
Nd3 Se20 3.154631 1_555
Ga0 Se17 2.419343 1_555
Ga0 Se30 2.460137 1_456
Ga0 Se19 2.464614 1_555
Ga0 Se25 2.464873 1_565
Ga1 Se27 2.425124 1_555
Ga1 Se15 2.446094 1_555
Ga1 Se22 2.459984 1_555
Ga1 Se28 2.474459 1_555
Ga2 Se7 2.419351 1_555
Ga2 Se24 2.460127 1_565
Ga2 Se20 2.464596 1_555
Ga2 Se21 2.464881 1_556
Ga3 Se5 2.425131 1_555
Ga3 Se31 2.446094 1_565
Ga3 Se11 2.459984 1_565
Ga3 Se8 2.474459 1_555
Ga4 Se29 2.419343 1_555
Ga4 Se25 2.460137 1_654
Ga4 Se27 2.464614 1_555
Ga4 Se30 2.464873 1_545
Ga5 Se16 2.425128 1_555
Ga5 Se6 2.446094 1_556
Ga5 Se29 2.459984 1_556
Ga5 Se3 2.474459 1_555
Ga6 Se13 2.419338 1_555
Ga6 Se4 2.460132 1_654
Ga6 Se5 2.464606 1_555
Ga6 Se12 2.464886 1_555
Ga7 Se9 2.425131 1_555
Ga7 Se8 2.446094 1_545
Ga7 Se7 2.459984 1_545
Ga7 Se31 2.474459 1_555
Ga8 Se19 2.425124 1_555
Ga8 Se28 2.446094 1_555
Ga8 Se26 2.459984 1_555
Ga8 Se15 2.474459 1_555
Ga9 Se2 2.425128 1_555
Ga9 Se3 2.446094 1_554
Ga9 Se17 2.459984 1_554
Ga9 Se6 2.474459 1_555
Ga10 Se14 2.419338 1_555
Ga10 Se12 2.460132 1_456
Ga10 Se9 2.464606 1_555
Ga10 Se4 2.464886 1_555
Ga11 Se18 2.425122 1_555
Ga11 Se1 2.446094 1_455
Ga11 Se13 2.459984 1_455
Ga11 Se23 2.474459 1_555
Ga12 Se26 2.419346 1_555
Ga12 Se0 2.460140 1_565
Ga12 Se2 2.464589 1_555
Ga12 Se10 2.464877 1_455
Ga13 Se22 2.419346 1_555
Ga13 Se10 2.460140 1_545
Ga13 Se16 2.464589 1_555
Ga13 Se0 2.464877 1_655
Ga14 Se11 2.419351 1_555
Ga14 Se21 2.460127 1_545
Ga14 Se18 2.464596 1_555
Ga14 Se24 2.464881 1_554
Ga15 Se20 2.425122 1_555
Ga15 Se23 2.446094 1_655
Ga15 Se14 2.459984 1_655
Ga15 Se1 2.474459 1_555
