# generated using pymatgen
data_NaLa(GaSe2)4
_symmetry_space_group_name_H-M   'P 1'
_cell_length_a   15.10789304
_cell_length_b   12.46803561
_cell_length_c   12.42159636
_cell_angle_alpha   74.74487718
_cell_angle_beta   52.76752375
_cell_angle_gamma   52.48759908
_symmetry_Int_Tables_number   1
_chemical_formula_structural   NaLa(GaSe2)4
_chemical_formula_sum   'Na4 La4 Ga16 Se32'
_cell_volume   1457.01762160
_cell_formula_units_Z   4
loop_
 _symmetry_equiv_pos_site_id
 _symmetry_equiv_pos_as_xyz
  1  'x, y, z'
loop_
 _atom_site_type_symbol
 _atom_site_label
 _atom_site_symmetry_multiplicity
 _atom_site_fract_x
 _atom_site_fract_y
 _atom_site_fract_z
 _atom_site_occupancy
  Na  Na0  1  0.49692418  0.49692418  0.00307582  1
  Na  Na1  1  0.75307582  0.75307582  0.24692418  1
  Na  Na2  1  0.00307582  0.00307582  0.49692418  1
  Na  Na3  1  0.24692418  0.24692418  0.75307582  1
  La  La0  1  0.75000000  0.75000000  0.75000000  1
  La  La1  1  0.50000000  0.50000000  0.50000000  1
  La  La2  1  0.25000000  0.25000000  0.25000000  1
  La  La3  1  0.00000000  0.00000000  0.00000000  1
  Ga  Ga0  1  0.76137677  0.49275519  0.50896033  1
  Ga  Ga1  1  0.49275519  0.76137677  0.23690771  1
  Ga  Ga2  1  0.98564091  0.26351428  0.15395388  1
  Ga  Ga3  1  0.50896033  0.23690771  0.76137677  1
  Ga  Ga4  1  0.26435909  0.98648572  0.09604612  1
  Ga  Ga5  1  0.23690771  0.50896033  0.49275519  1
  Ga  Ga6  1  0.65311007  0.09604612  0.98648572  1
  Ga  Ga7  1  0.59688993  0.15395388  0.26351428  1
  Ga  Ga8  1  0.15395388  0.59688993  0.98564091  1
  Ga  Ga9  1  0.48862323  0.75724481  0.74103967  1
  Ga  Ga10  1  0.09604612  0.65311007  0.26435909  1
  Ga  Ga11  1  0.01309229  0.74103967  0.75724481  1
  Ga  Ga12  1  0.26351428  0.98564091  0.59688993  1
  Ga  Ga13  1  0.74103967  0.01309229  0.48862323  1
  Ga  Ga14  1  0.75724481  0.48862323  0.01309229  1
  Ga  Ga15  1  0.98648572  0.26435909  0.65311007  1
  Se  Se0  1  0.77870135  0.47441812  0.30565831  1
  Se  Se1  1  0.53650011  0.54256936  0.21627402  1
  Se  Se2  1  0.04233646  0.53595571  0.21056982  1
  Se  Se3  1  0.54256936  0.53650011  0.70465651  1
  Se  Se4  1  0.71404429  0.20766354  0.03886299  1
  Se  Se5  1  0.96990964  0.28342962  0.46514703  1
  Se  Se6  1  0.44122122  0.30565831  0.47441812  1
  Se  Se7  1  0.20766354  0.71404429  0.03943018  1
  Se  Se8  1  0.28342962  0.96990964  0.28151371  1
  Se  Se9  1  0.54534349  0.03372598  0.70743064  1
  Se  Se10  1  0.70743064  0.71349989  0.54534349  1
  Se  Se11  1  0.77558188  0.47129865  0.80877878  1
  Se  Se12  1  0.78485297  0.96848629  0.28009036  1
  Se  Se13  1  0.46514703  0.28151371  0.96990964  1
  Se  Se14  1  0.21113701  0.21056982  0.53595571  1
  Se  Se15  1  0.70465651  0.21627402  0.54256936  1
  Se  Se16  1  0.80877878  0.94434169  0.77558188  1
  Se  Se17  1  0.96657038  0.28009036  0.96848629  1
  Se  Se18  1  0.47129865  0.77558188  0.94434169  1
  Se  Se19  1  0.47441812  0.77870135  0.44122122  1
  Se  Se20  1  0.21627402  0.70465651  0.53650011  1
  Se  Se21  1  0.71349989  0.70743064  0.03372598  1
  Se  Se22  1  0.30565831  0.44122122  0.77870135  1
  Se  Se23  1  0.96848629  0.78485297  0.96657038  1
  Se  Se24  1  0.28009036  0.96657038  0.78485297  1
  Se  Se25  1  0.03886299  0.03943018  0.71404429  1
  Se  Se26  1  0.03372598  0.54534349  0.71349989  1
  Se  Se27  1  0.21056982  0.21113701  0.04233646  1
  Se  Se28  1  0.94434169  0.80877878  0.47129865  1
  Se  Se29  1  0.53595571  0.04233646  0.21113701  1
  Se  Se30  1  0.28151371  0.46514703  0.28342962  1
  Se  Se31  1  0.03943018  0.03886299  0.20766354  1
loop_
_geom_bond_atom_site_label_1
_geom_bond_atom_site_label_2
_geom_bond_distance
_geom_bond_site_symmetry_2
Na0 Se13 3.163121 1_554
Na0 Se30 3.163121 1_555
Na0 Se18 3.181637 1_554
Na0 Se11 3.181637 1_554
Na0 Se7 3.236925 1_555
Na0 Se4 3.236931 1_555
Na0 Se3 3.289116 1_554
Na0 Se1 3.289116 1_555
Na1 Se23 3.163121 1_554
Na1 Se12 3.163121 1_555
Na1 Se0 3.181637 1_555
Na1 Se19 3.181637 1_555
Na1 Se2 3.236925 1_655
Na1 Se29 3.236931 1_565
Na1 Se10 3.289116 1_555
Na1 Se21 3.289116 1_555
Na2 Se5 3.163121 1_455
Na2 Se8 3.163121 1_545
Na2 Se28 3.181625 1_445
Na2 Se16 3.181631 1_445
Na2 Se31 3.236925 1_555
Na2 Se25 3.236937 1_555
Na2 Se20 3.289116 1_545
Na2 Se15 3.289116 1_455
Na3 Se17 3.163121 1_455
Na3 Se24 3.163121 1_545
Na3 Se22 3.181625 1_555
Na3 Se6 3.181631 1_555
Na3 Se27 3.236925 1_556
Na3 Se14 3.236937 1_555
Na3 Se9 3.289116 1_555
Na3 Se26 3.289116 1_555
La0 Se10 3.166544 1_555
La0 Se9 3.166544 1_565
La0 Se21 3.166544 1_556
La0 Se26 3.166544 1_655
La0 Se18 3.182433 1_555
La0 Se11 3.182434 1_555
La0 Se28 3.182440 1_555
La0 Se16 3.182445 1_555
La1 Se1 3.166544 1_555
La1 Se15 3.166544 1_555
La1 Se20 3.166544 1_555
La1 Se3 3.166544 1_555
La1 Se0 3.182433 1_555
La1 Se19 3.182434 1_555
La1 Se22 3.182440 1_555
La1 Se6 3.182445 1_555
La2 Se5 3.158400 1_455
La2 Se8 3.158400 1_545
La2 Se13 3.158400 1_554
La2 Se30 3.158400 1_555
La2 Se14 3.179970 1_555
La2 Se29 3.179971 1_555
La2 Se2 3.179976 1_555
La2 Se27 3.179982 1_555
La3 Se24 3.158400 1_544
La3 Se17 3.158400 1_454
La3 Se23 3.158400 1_444
La3 Se12 3.158400 1_445
La3 Se25 3.179970 1_554
La3 Se4 3.179971 1_455
La3 Se7 3.179976 1_545
La3 Se31 3.179982 1_555
Ga0 Se5 2.385810 1_555
Ga0 Se3 2.431497 1_555
Ga0 Se10 2.433187 1_555
Ga0 Se0 2.434995 1_555
Ga1 Se8 2.385810 1_555
Ga1 Se1 2.431497 1_555
Ga1 Se21 2.433187 1_555
Ga1 Se19 2.434982 1_555
Ga2 Se0 2.388765 1_555
Ga2 Se31 2.418985 1_655
Ga2 Se17 2.431744 1_554
Ga2 Se27 2.443146 1_655
Ga3 Se13 2.385810 1_555
Ga3 Se15 2.431497 1_555
Ga3 Se9 2.433187 1_555
Ga3 Se22 2.434991 1_555
Ga4 Se18 2.388765 1_554
Ga4 Se27 2.418985 1_565
Ga4 Se8 2.431744 1_555
Ga4 Se31 2.443146 1_565
Ga5 Se30 2.385810 1_555
Ga5 Se20 2.431497 1_555
Ga5 Se26 2.433187 1_555
Ga5 Se6 2.434986 1_555
Ga6 Se16 2.388765 1_545
Ga6 Se29 2.418991 1_556
Ga6 Se13 2.431754 1_555
Ga6 Se4 2.443146 1_556
Ga7 Se6 2.388765 1_555
Ga7 Se4 2.418991 1_555
Ga7 Se12 2.431754 1_545
Ga7 Se29 2.443146 1_555
Ga8 Se22 2.388765 1_555
Ga8 Se7 2.419007 1_556
Ga8 Se23 2.431747 1_455
Ga8 Se2 2.443146 1_556
Ga9 Se24 2.385810 1_555
Ga9 Se10 2.431497 1_555
Ga9 Se3 2.433187 1_555
Ga9 Se18 2.434995 1_555
Ga10 Se28 2.388765 1_455
Ga10 Se2 2.419007 1_555
Ga10 Se30 2.431747 1_555
Ga10 Se7 2.443146 1_555
Ga11 Se23 2.385810 1_455
Ga11 Se26 2.431497 1_555
Ga11 Se20 2.433187 1_555
Ga11 Se16 2.434986 1_455
Ga12 Se19 2.388765 1_555
Ga12 Se25 2.418981 1_565
Ga12 Se24 2.431756 1_555
Ga12 Se14 2.443146 1_565
Ga13 Se12 2.385810 1_545
Ga13 Se9 2.431497 1_555
Ga13 Se15 2.433187 1_555
Ga13 Se28 2.434991 1_545
Ga14 Se17 2.385810 1_554
Ga14 Se21 2.431497 1_555
Ga14 Se1 2.433187 1_555
Ga14 Se11 2.434982 1_554
Ga15 Se11 2.388765 1_555
Ga15 Se14 2.418981 1_655
Ga15 Se5 2.431756 1_555
Ga15 Se25 2.443146 1_655
