# generated using pymatgen
data_K12In2Se9
_symmetry_space_group_name_H-M   'P 1'
_cell_length_a   17.26750000
_cell_length_b   12.88381700
_cell_length_c   14.72802068
_cell_angle_alpha   76.68265149
_cell_angle_beta   90.00000000
_cell_angle_gamma   90.00000000
_symmetry_Int_Tables_number   1
_chemical_formula_structural   K12In2Se9
_chemical_formula_sum   'K48 In8 Se36'
_cell_volume   3188.45258640
_cell_formula_units_Z   4
loop_
 _symmetry_equiv_pos_site_id
 _symmetry_equiv_pos_as_xyz
  1  'x, y, z'
loop_
 _atom_site_type_symbol
 _atom_site_label
 _atom_site_symmetry_multiplicity
 _atom_site_fract_x
 _atom_site_fract_y
 _atom_site_fract_z
 _atom_site_occupancy
  K  K0  1  0.05314100  0.58830400  0.05303800  1
  K  K1  1  0.07224400  0.09274100  0.03725700  1
  K  K2  1  0.42775600  0.09274100  0.53725700  1
  K  K3  1  0.10470600  0.31285800  0.81662700  1
  K  K4  1  0.89529400  0.68714200  0.18337300  1
  K  K5  1  0.96168000  0.41313000  0.29353100  1
  K  K6  1  0.72870400  0.04354500  0.96691200  1
  K  K7  1  0.03832000  0.58687000  0.70646900  1
  K  K8  1  0.94685900  0.41169600  0.94696200  1
  K  K9  1  0.81459600  0.32622300  0.55391300  1
  K  K10  1  0.92775600  0.90725900  0.96274300  1
  K  K11  1  0.25345600  0.68035400  0.18576800  1
  K  K12  1  0.60306400  0.16743400  0.69077000  1
  K  K13  1  0.25494400  0.15384500  0.21573500  1
  K  K14  1  0.94669000  0.72368100  0.43770900  1
  K  K15  1  0.44685900  0.58830400  0.55303800  1
  K  K16  1  0.75345600  0.31964600  0.31423200  1
  K  K17  1  0.57224400  0.90725900  0.46274300  1
  K  K18  1  0.31459600  0.67377700  0.94608700  1
  K  K19  1  0.24505600  0.15384500  0.71573500  1
  K  K20  1  0.89693600  0.16743400  0.19077000  1
  K  K21  1  0.75494400  0.84615500  0.28426500  1
  K  K22  1  0.55314100  0.41169600  0.44696200  1
  K  K23  1  0.60470600  0.68714200  0.68337300  1
  K  K24  1  0.94723200  0.97839000  0.62489200  1
  K  K25  1  0.18540400  0.67377700  0.44608700  1
  K  K26  1  0.27129600  0.95645500  0.03308800  1
  K  K27  1  0.24654400  0.68035400  0.68576800  1
  K  K28  1  0.81477700  0.58922300  0.70424100  1
  K  K29  1  0.22870400  0.95645500  0.53308800  1
  K  K30  1  0.68522300  0.58922300  0.20424100  1
  K  K31  1  0.68540400  0.32622300  0.05391300  1
  K  K32  1  0.18522300  0.41077700  0.29575900  1
  K  K33  1  0.77129600  0.04354500  0.46691200  1
  K  K34  1  0.10306400  0.83256600  0.80923000  1
  K  K35  1  0.44723200  0.02161000  0.87510800  1
  K  K36  1  0.39693600  0.83256600  0.30923000  1
  K  K37  1  0.74505600  0.84615500  0.78426500  1
  K  K38  1  0.44669000  0.27631900  0.06229100  1
  K  K39  1  0.05276800  0.02161000  0.37510800  1
  K  K40  1  0.39529400  0.31285800  0.31662700  1
  K  K41  1  0.55331000  0.72368100  0.93770900  1
  K  K42  1  0.74654400  0.31964600  0.81423200  1
  K  K43  1  0.05331000  0.27631900  0.56229100  1
  K  K44  1  0.55276800  0.97839000  0.12489200  1
  K  K45  1  0.31477700  0.41077700  0.79575900  1
  K  K46  1  0.46168000  0.58687000  0.20646900  1
  K  K47  1  0.53832000  0.41313000  0.79353100  1
  In  In0  1  0.58253700  0.17578100  0.29065500  1
  In  In1  1  0.79795500  0.62244100  0.97294800  1
  In  In2  1  0.70204500  0.62244100  0.47294800  1
  In  In3  1  0.20204500  0.37755900  0.02705200  1
  In  In4  1  0.41746300  0.82421900  0.70934500  1
  In  In5  1  0.29795500  0.37755900  0.52705200  1
  In  In6  1  0.91746300  0.17578100  0.79065500  1
  In  In7  1  0.08253700  0.82421900  0.20934500  1
  Se  Se0  1  0.20433400  0.90513700  0.27503700  1
  Se  Se1  1  0.61056800  0.16788000  0.46707500  1
  Se  Se2  1  0.25500900  0.21331700  0.96333600  1
  Se  Se3  1  0.42953300  0.61757900  0.78620300  1
  Se  Se4  1  0.04998500  0.08560500  0.76985300  1
  Se  Se5  1  0.91600700  0.69233000  0.86137300  1
  Se  Se6  1  0.42201500  0.80997400  0.07550800  1
  Se  Se7  1  0.31179600  0.44411800  0.12218500  1
  Se  Se8  1  0.41600700  0.30767000  0.63862700  1
  Se  Se9  1  0.92953300  0.38242100  0.71379700  1
  Se  Se10  1  0.57046700  0.38242100  0.21379700  1
  Se  Se11  1  0.65854600  0.46707300  0.61462500  1
  Se  Se12  1  0.92201500  0.19002600  0.42449200  1
  Se  Se13  1  0.54998500  0.91439500  0.73014700  1
  Se  Se14  1  0.11056800  0.83212000  0.03292500  1
  Se  Se15  1  0.70433400  0.09486300  0.22496300  1
  Se  Se16  1  0.95001500  0.91439500  0.23014700  1
  Se  Se17  1  0.58399300  0.69233000  0.36137300  1
  Se  Se18  1  0.75500900  0.78668300  0.53666400  1
  Se  Se19  1  0.24499100  0.21331700  0.46333600  1
  Se  Se20  1  0.81179600  0.55588200  0.37781500  1
  Se  Se21  1  0.38943200  0.83212000  0.53292500  1
  Se  Se22  1  0.07798500  0.80997400  0.57550800  1
  Se  Se23  1  0.79566600  0.09486300  0.72496300  1
  Se  Se24  1  0.29566600  0.90513700  0.77503700  1
  Se  Se25  1  0.07046700  0.61757900  0.28620300  1
  Se  Se26  1  0.15854600  0.53292700  0.88537500  1
  Se  Se27  1  0.68820400  0.55588200  0.87781500  1
  Se  Se28  1  0.88943200  0.16788000  0.96707500  1
  Se  Se29  1  0.57798500  0.19002600  0.92449200  1
  Se  Se30  1  0.18820400  0.44411800  0.62218500  1
  Se  Se31  1  0.84145400  0.46707300  0.11462500  1
  Se  Se32  1  0.74499100  0.78668300  0.03666400  1
  Se  Se33  1  0.08399300  0.30767000  0.13862700  1
  Se  Se34  1  0.45001500  0.08560500  0.26985300  1
  Se  Se35  1  0.34145400  0.53292700  0.38537500  1
loop_
_geom_bond_atom_site_label_1
_geom_bond_atom_site_label_2
_geom_bond_distance
_geom_bond_site_symmetry_2
K0 Se14 3.241917 1_555
K0 Se26 3.275825 1_554
K0 Se25 3.552637 1_555
K0 Se33 3.584125 1_555
K0 Se5 3.691753 1_454
K1 Se28 3.392550 1_454
K1 Se14 3.437363 1_545
K1 Se33 3.441320 1_555
K1 Se2 3.574787 1_554
K2 Se1 3.392550 1_555
K2 Se21 3.437363 1_545
K2 Se8 3.441320 1_555
K2 Se19 3.574787 1_555
K3 Se4 3.296834 1_555
K3 Se30 3.302825 1_555
K3 Se26 3.354275 1_555
K3 Se9 3.408959 1_455
K3 Se2 3.431147 1_555
K4 Se16 3.296834 1_555
K4 Se20 3.302825 1_555
K4 Se31 3.354275 1_555
K4 Se25 3.408959 1_655
K4 Se32 3.431147 1_555
K5 Se12 3.146041 1_555
K5 Se25 3.216794 1_655
K5 Se31 3.300307 1_555
K5 Se20 3.560013 1_555
K5 Se33 3.597198 1_655
K6 Se29 3.190927 1_555
K6 Se28 3.204774 1_555
K6 Se32 3.243473 1_546
K6 Se23 3.658788 1_555
K7 Se22 3.146041 1_555
K7 Se9 3.216794 1_455
K7 Se26 3.300307 1_555
K7 Se30 3.560013 1_555
K7 Se5 3.597198 1_455
K8 Se28 3.241917 1_555
K8 Se31 3.275825 1_556
K8 Se9 3.552637 1_555
K8 Se5 3.584125 1_555
K8 Se33 3.691753 1_656
K9 Se9 3.285361 1_555
K9 Se12 3.419613 1_555
K9 Se23 3.446602 1_555
K9 Se20 3.456675 1_555
K9 Se11 3.478647 1_555
K10 Se14 3.392550 1_656
K10 Se28 3.437363 1_565
K10 Se5 3.441320 1_555
K10 Se32 3.574787 1_556
K11 Se35 3.462190 1_555
K11 Se25 3.503589 1_555
K11 Se7 3.531070 1_555
K11 Se0 3.548148 1_555
K11 Se6 3.556428 1_555
K11 Se14 3.598685 1_555
K12 Se1 3.295814 1_555
K12 Se13 3.306611 1_545
K12 Se23 3.459992 1_555
K12 Se29 3.547254 1_555
K12 Se8 3.694310 1_555
K12 Se11 3.883867 1_555
K13 Se0 3.241116 1_545
K13 Se34 3.525830 1_555
K13 Se33 3.590858 1_555
K13 Se2 3.618496 1_554
K13 Se7 3.804542 1_555
K13 Se19 3.898988 1_555
K14 Se22 3.396226 1_655
K14 Se20 3.428706 1_555
K14 Se16 3.453326 1_555
K14 Se25 3.580661 1_655
K14 Se18 3.779289 1_555
K15 Se21 3.241917 1_555
K15 Se35 3.275825 1_555
K15 Se3 3.552637 1_555
K15 Se8 3.584125 1_555
K15 Se17 3.691753 1_555
K16 Se31 3.462190 1_555
K16 Se10 3.503589 1_555
K16 Se20 3.531070 1_555
K16 Se15 3.548148 1_555
K16 Se12 3.556428 1_555
K16 Se1 3.598685 1_555
K17 Se21 3.392550 1_555
K17 Se1 3.437363 1_565
K17 Se17 3.441320 1_555
K17 Se18 3.574787 1_555
K18 Se3 3.285361 1_555
K18 Se6 3.419613 1_556
K18 Se24 3.446602 1_555
K18 Se7 3.456675 1_556
K18 Se26 3.478647 1_555
K19 Se24 3.241116 1_545
K19 Se4 3.525830 1_555
K19 Se8 3.590858 1_555
K19 Se19 3.618496 1_555
K19 Se30 3.804542 1_555
K19 Se2 3.898988 1_555
K20 Se28 3.295814 1_554
K20 Se16 3.306611 1_545
K20 Se15 3.459992 1_555
K20 Se12 3.547254 1_555
K20 Se33 3.694310 1_655
K20 Se31 3.883867 1_555
K21 Se15 3.241116 1_565
K21 Se16 3.525830 1_555
K21 Se17 3.590858 1_555
K21 Se18 3.618496 1_555
K21 Se20 3.804542 1_555
K21 Se32 3.898988 1_555
K22 Se1 3.241917 1_555
K22 Se11 3.275825 1_555
K22 Se10 3.552637 1_555
K22 Se17 3.584125 1_555
K22 Se8 3.691753 1_555
K23 Se13 3.296834 1_555
K23 Se27 3.302825 1_555
K23 Se11 3.354275 1_555
K23 Se3 3.408959 1_555
K23 Se18 3.431147 1_555
K24 Se4 3.312553 1_665
K24 Se22 3.325933 1_655
K24 Se23 3.506071 1_565
K24 Se12 3.553616 1_565
K25 Se25 3.285361 1_555
K25 Se22 3.419613 1_555
K25 Se0 3.446602 1_555
K25 Se30 3.456675 1_555
K25 Se35 3.478647 1_555
K26 Se6 3.190927 1_555
K26 Se14 3.204774 1_555
K26 Se2 3.243473 1_564
K26 Se0 3.658788 1_555
K27 Se26 3.462190 1_555
K27 Se3 3.503589 1_555
K27 Se30 3.531070 1_555
K27 Se24 3.548148 1_555
K27 Se22 3.556428 1_555
K27 Se21 3.598685 1_555
K28 Se18 3.276590 1_555
K28 Se9 3.297365 1_555
K28 Se27 3.315216 1_555
K28 Se5 3.404724 1_555
K28 Se11 3.528933 1_555
K29 Se22 3.190927 1_555
K29 Se21 3.204774 1_555
K29 Se19 3.243473 1_565
K29 Se24 3.658788 1_555
K30 Se32 3.276590 1_555
K30 Se10 3.297365 1_555
K30 Se20 3.315216 1_555
K30 Se17 3.404724 1_555
K30 Se31 3.528933 1_555
K31 Se10 3.285361 1_555
K31 Se29 3.419613 1_554
K31 Se15 3.446602 1_555
K31 Se27 3.456675 1_554
K31 Se31 3.478647 1_555
K32 Se19 3.276590 1_555
K32 Se25 3.297365 1_555
K32 Se7 3.315216 1_555
K32 Se33 3.404724 1_555
K32 Se35 3.528933 1_555
K33 Se12 3.190927 1_555
K33 Se1 3.204774 1_555
K33 Se18 3.243473 1_545
K33 Se15 3.658788 1_555
K34 Se14 3.295814 1_556
K34 Se4 3.306611 1_565
K34 Se24 3.459992 1_555
K34 Se22 3.547254 1_555
K34 Se5 3.694310 1_455
K34 Se26 3.883867 1_555
K35 Se13 3.312553 1_545
K35 Se29 3.325933 1_555
K35 Se24 3.506071 1_545
K35 Se6 3.553616 1_546
K36 Se21 3.295814 1_555
K36 Se34 3.306611 1_565
K36 Se0 3.459992 1_555
K36 Se6 3.547254 1_555
K36 Se17 3.694310 1_555
K36 Se35 3.883867 1_555
K37 Se23 3.241116 1_565
K37 Se13 3.525830 1_555
K37 Se5 3.590858 1_555
K37 Se32 3.618496 1_556
K37 Se27 3.804542 1_555
K37 Se18 3.898988 1_555
K38 Se29 3.396226 1_554
K38 Se7 3.428706 1_555
K38 Se34 3.453326 1_555
K38 Se10 3.580661 1_555
K38 Se2 3.779289 1_554
K39 Se16 3.312553 1_445
K39 Se12 3.325933 1_455
K39 Se0 3.506071 1_545
K39 Se22 3.553616 1_545
K40 Se34 3.296834 1_555
K40 Se7 3.302825 1_555
K40 Se35 3.354275 1_555
K40 Se10 3.408959 1_555
K40 Se19 3.431147 1_555
K41 Se6 3.396226 1_556
K41 Se27 3.428706 1_555
K41 Se13 3.453326 1_555
K41 Se3 3.580661 1_555
K41 Se32 3.779289 1_556
K42 Se11 3.462190 1_555
K42 Se9 3.503589 1_555
K42 Se27 3.531070 1_555
K42 Se23 3.548148 1_555
K42 Se29 3.556428 1_555
K42 Se28 3.598685 1_555
K43 Se12 3.396226 1_455
K43 Se30 3.428706 1_555
K43 Se4 3.453326 1_555
K43 Se9 3.580661 1_455
K43 Se19 3.779289 1_555
K44 Se34 3.312553 1_565
K44 Se6 3.325933 1_555
K44 Se15 3.506071 1_565
K44 Se29 3.553616 1_564
K45 Se2 3.276590 1_555
K45 Se3 3.297365 1_555
K45 Se30 3.315216 1_555
K45 Se8 3.404724 1_555
K45 Se26 3.528933 1_555
K46 Se6 3.146041 1_555
K46 Se10 3.216794 1_555
K46 Se35 3.300307 1_555
K46 Se7 3.560013 1_555
K46 Se17 3.597198 1_555
K47 Se29 3.146041 1_555
K47 Se3 3.216794 1_555
K47 Se11 3.300307 1_555
K47 Se27 3.560013 1_555
K47 Se8 3.597198 1_555
In0 Se34 2.616118 1_555
In0 Se1 2.621840 1_555
In0 Se15 2.628838 1_555
In0 Se10 2.650347 1_555
In0 K16 3.544445 1_555
In1 Se27 2.616013 1_555
In1 Se5 2.642880 1_555
In1 Se31 2.645916 1_556
In1 Se32 2.666376 1_556
In2 Se20 2.616013 1_555
In2 Se17 2.642880 1_555
In2 Se11 2.645916 1_555
In2 Se18 2.666376 1_555
In3 Se7 2.616013 1_555
In3 Se33 2.642880 1_555
In3 Se26 2.645916 1_554
In3 Se2 2.666376 1_554
In4 Se13 2.616118 1_555
In4 Se21 2.621840 1_555
In4 Se24 2.628838 1_555
In4 Se3 2.650347 1_555
In4 K27 3.544445 1_555
In5 Se30 2.616013 1_555
In5 Se8 2.642880 1_555
In5 Se35 2.645916 1_555
In5 Se19 2.666376 1_555
In6 Se4 2.616118 1_655
In6 Se28 2.621840 1_555
In6 Se23 2.628838 1_555
In6 Se9 2.650347 1_555
In6 K42 3.544445 1_555
In7 Se16 2.616118 1_455
In7 Se14 2.621840 1_555
In7 Se0 2.628838 1_555
In7 Se25 2.650347 1_555
In7 K11 3.544445 1_555
