# generated using pymatgen
data_Li4Mg23B54
_symmetry_space_group_name_H-M   'P 1'
_cell_length_a   3.06427029
_cell_length_b   3.06427029
_cell_length_c   95.06446100
_cell_angle_alpha   90.00000000
_cell_angle_beta   90.00000000
_cell_angle_gamma   120.00000628
_symmetry_Int_Tables_number   1
_chemical_formula_structural   Li4Mg23B54
_chemical_formula_sum   'Li4 Mg23 B54'
_cell_volume   773.04172482
_cell_formula_units_Z   1
loop_
 _symmetry_equiv_pos_site_id
 _symmetry_equiv_pos_as_xyz
  1  'x, y, z'
loop_
 _atom_site_type_symbol
 _atom_site_label
 _atom_site_symmetry_multiplicity
 _atom_site_fract_x
 _atom_site_fract_y
 _atom_site_fract_z
 _atom_site_occupancy
  Li  Li0  1  0.00000000  0.00000000  0.55556600  1
  Li  Li1  1  0.00000000  0.00000000  0.33334200  1
  Li  Li2  1  0.00000000  0.00000000  0.44443400  1
  Li  Li3  1  0.00000000  0.00000000  0.66665800  1
  Mg  Mg0  1  0.00000000  0.00000000  0.70327200  1
  Mg  Mg1  1  0.00000000  0.00000000  0.25938200  1
  Mg  Mg2  1  0.00000000  0.00000000  0.40780500  1
  Mg  Mg3  1  0.00000000  0.00000000  0.96297800  1
  Mg  Mg4  1  0.00000000  0.00000000  0.11111000  1
  Mg  Mg5  1  0.00000000  0.00000000  0.22229000  1
  Mg  Mg6  1  0.00000000  0.00000000  0.51888700  1
  Mg  Mg7  1  0.00000000  0.00000000  0.63003900  1
  Mg  Mg8  1  0.00000000  0.00000000  0.74061800  1
  Mg  Mg9  1  0.00000000  0.00000000  0.77771000  1
  Mg  Mg10  1  0.00000000  0.00000000  0.81478600  1
  Mg  Mg11  1  0.00000000  0.00000000  0.85188100  1
  Mg  Mg12  1  0.00000000  0.00000000  0.88889000  1
  Mg  Mg13  1  0.00000000  0.00000000  0.92593300  1
  Mg  Mg14  1  0.00000000  0.00000000  0.00000000  1
  Mg  Mg15  1  0.00000000  0.00000000  0.03702200  1
  Mg  Mg16  1  0.00000000  0.00000000  0.07406700  1
  Mg  Mg17  1  0.00000000  0.00000000  0.14811900  1
  Mg  Mg18  1  0.00000000  0.00000000  0.18521400  1
  Mg  Mg19  1  0.00000000  0.00000000  0.29672800  1
  Mg  Mg20  1  0.00000000  0.00000000  0.36996100  1
  Mg  Mg21  1  0.00000000  0.00000000  0.48111300  1
  Mg  Mg22  1  0.00000000  0.00000000  0.59219500  1
  B  B0  1  0.33333300  0.66666700  0.72204800  1
  B  B1  1  0.33333300  0.66666700  0.79624000  1
  B  B2  1  0.33333300  0.66666700  0.75914000  1
  B  B3  1  0.33333300  0.66666700  0.87039300  1
  B  B4  1  0.33333300  0.66666700  0.83332700  1
  B  B5  1  0.33333300  0.66666700  0.90742100  1
  B  B6  1  0.33333300  0.66666700  0.94446300  1
  B  B7  1  0.33333300  0.66666700  0.98148600  1
  B  B8  1  0.33333300  0.66666700  0.01851400  1
  B  B9  1  0.33333300  0.66666700  0.05553700  1
  B  B10  1  0.33333300  0.66666700  0.09257900  1
  B  B11  1  0.33333300  0.66666700  0.12960700  1
  B  B12  1  0.33333300  0.66666700  0.20376000  1
  B  B13  1  0.33333300  0.66666700  0.16667300  1
  B  B14  1  0.33333300  0.66666700  0.27795200  1
  B  B15  1  0.33333300  0.66666700  0.24086000  1
  B  B16  1  0.33333300  0.66666700  0.31508100  1
  B  B17  1  0.33333300  0.66666700  0.38884500  1
  B  B18  1  0.33333300  0.66666700  0.35159800  1
  B  B19  1  0.33333300  0.66666700  0.42613700  1
  B  B20  1  0.33333300  0.66666700  0.50000000  1
  B  B21  1  0.33333300  0.66666700  0.46280800  1
  B  B22  1  0.33333300  0.66666700  0.57386300  1
  B  B23  1  0.33333300  0.66666700  0.53719200  1
  B  B24  1  0.33333300  0.66666700  0.61115500  1
  B  B25  1  0.33333300  0.66666700  0.64840200  1
  B  B26  1  0.33333300  0.66666700  0.68491900  1
  B  B27  1  0.66666700  0.33333300  0.72204800  1
  B  B28  1  0.66666700  0.33333300  0.75914000  1
  B  B29  1  0.66666700  0.33333300  0.79624000  1
  B  B30  1  0.66666700  0.33333300  0.83332700  1
  B  B31  1  0.66666700  0.33333300  0.87039300  1
  B  B32  1  0.66666700  0.33333300  0.90742100  1
  B  B33  1  0.66666700  0.33333300  0.98148600  1
  B  B34  1  0.66666700  0.33333300  0.01851400  1
  B  B35  1  0.66666700  0.33333300  0.94446300  1
  B  B36  1  0.66666700  0.33333300  0.05553700  1
  B  B37  1  0.66666700  0.33333300  0.09257900  1
  B  B38  1  0.66666700  0.33333300  0.12960700  1
  B  B39  1  0.66666700  0.33333300  0.16667300  1
  B  B40  1  0.66666700  0.33333300  0.20376000  1
  B  B41  1  0.66666700  0.33333300  0.24086000  1
  B  B42  1  0.66666700  0.33333300  0.27795200  1
  B  B43  1  0.66666700  0.33333300  0.31508100  1
  B  B44  1  0.66666700  0.33333300  0.35159800  1
  B  B45  1  0.66666700  0.33333300  0.38884500  1
  B  B46  1  0.66666700  0.33333300  0.42613700  1
  B  B47  1  0.66666700  0.33333300  0.46280800  1
  B  B48  1  0.66666700  0.33333300  0.50000000  1
  B  B49  1  0.66666700  0.33333300  0.53719200  1
  B  B50  1  0.66666700  0.33333300  0.57386300  1
  B  B51  1  0.66666700  0.33333300  0.61115500  1
  B  B52  1  0.66666700  0.33333300  0.64840200  1
  B  B53  1  0.66666700  0.33333300  0.68491900  1
loop_
_geom_bond_atom_site_label_1
_geom_bond_atom_site_label_2
_geom_bond_distance
_geom_bond_site_symmetry_2
B0 B27 1.769155 1_455
B0 B27 1.769155 1_565
B0 B27 1.769161 1_555
B0 Mg8 2.499272 1_565
B0 Mg8 2.499274 1_665
B0 Mg8 2.499274 1_555
B0 Mg0 2.513143 1_565
B0 Mg0 2.513145 1_665
B0 Mg0 2.513145 1_555
B1 B29 1.769155 1_455
B1 B29 1.769155 1_565
B1 B29 1.769161 1_555
B1 Mg9 2.496588 1_565
B1 Mg9 2.496589 1_555
B1 Mg9 2.496589 1_665
B1 Mg10 2.497661 1_565
B1 Mg10 2.497663 1_665
B1 Mg10 2.497663 1_555
B2 B28 1.769155 1_455
B2 B28 1.769155 1_565
B2 B28 1.769161 1_555
B2 Mg8 2.496051 1_565
B2 Mg8 2.496053 1_665
B2 Mg8 2.496053 1_555
B2 Mg9 2.499272 1_565
B2 Mg9 2.499274 1_555
B2 Mg9 2.499274 1_665
B3 B31 1.769155 1_455
B3 B31 1.769155 1_565
B3 B31 1.769161 1_555
B3 Mg12 2.494375 1_565
B3 Mg12 2.494377 1_665
B3 Mg12 2.494377 1_555
B3 Mg11 2.495381 1_565
B3 Mg11 2.495382 1_665
B3 Mg11 2.495382 1_555
B4 Mg10 2.497326 1_565
B4 Mg10 2.497327 1_555
B4 Mg10 2.497327 1_665
B4 Mg11 2.498198 1_565
B4 Mg11 2.498200 1_665
B4 Mg11 2.498200 1_555
B5 Mg13 2.495381 1_565
B5 Mg13 2.495382 1_555
B5 Mg13 2.495382 1_665
B5 Mg12 2.496655 1_565
B5 Mg12 2.496657 1_665
B5 Mg12 2.496657 1_555
B6 Mg3 2.495582 1_565
B6 Mg3 2.495584 1_555
B6 Mg3 2.495584 1_665
B6 Mg13 2.496588 1_565
B6 Mg13 2.496589 1_555
B6 Mg13 2.496589 1_665
B7 Mg3 2.495113 1_565
B7 Mg3 2.495114 1_555
B7 Mg3 2.495114 1_665
B7 Mg14 2.495515 1_566
B7 Mg14 2.495517 1_556
B7 Mg14 2.495517 1_666
B8 Mg15 2.495113 1_565
B8 Mg15 2.495114 1_555
B8 Mg15 2.495114 1_665
B8 Mg14 2.495515 1_565
B8 Mg14 2.495517 1_555
B8 Mg14 2.495517 1_665
B9 Mg15 2.495582 1_565
B9 Mg15 2.495584 1_555
B9 Mg15 2.495584 1_665
B9 Mg16 2.496588 1_565
B9 Mg16 2.496589 1_555
B9 Mg16 2.496589 1_665
B10 B37 1.769155 1_455
B10 B37 1.769155 1_565
B10 B37 1.769161 1_555
B10 Mg16 2.495381 1_565
B10 Mg16 2.495382 1_665
B10 Mg16 2.495382 1_555
B10 Mg4 2.496655 1_565
B10 Mg4 2.496657 1_665
B10 Mg4 2.496657 1_555
B11 B38 1.769155 1_455
B11 B38 1.769155 1_565
B11 B38 1.769161 1_555
B11 Mg4 2.494375 1_565
B11 Mg4 2.494377 1_555
B11 Mg4 2.494377 1_665
B11 Mg17 2.495381 1_565
B11 Mg17 2.495382 1_555
B11 Mg17 2.495382 1_665
B12 B40 1.769155 1_455
B12 B40 1.769155 1_565
B12 B40 1.769161 1_555
B12 Mg5 2.496588 1_565
B12 Mg5 2.496589 1_555
B12 Mg5 2.496589 1_665
B12 Mg18 2.497661 1_565
B12 Mg18 2.497663 1_555
B12 Mg18 2.497663 1_665
B13 B39 1.769155 1_455
B13 B39 1.769155 1_565
B13 B39 1.769161 1_555
B13 Mg18 2.497326 1_565
B13 Mg18 2.497327 1_555
B13 Mg18 2.497327 1_665
B13 Mg17 2.498198 1_565
B13 Mg17 2.498200 1_665
B13 Mg17 2.498200 1_555
B14 B42 1.769155 1_455
B14 B42 1.769155 1_565
B14 B42 1.769161 1_555
B14 Mg1 2.499272 1_565
B14 Mg1 2.499274 1_555
B14 Mg1 2.499274 1_665
B14 Mg19 2.513143 1_565
B14 Mg19 2.513145 1_555
B14 Mg19 2.513145 1_665
B15 B41 1.769155 1_455
B15 B41 1.769155 1_565
B15 B41 1.769161 1_555
B15 Mg1 2.496051 1_565
B15 Mg1 2.496053 1_555
B15 Mg1 2.496053 1_665
B15 Mg5 2.499272 1_565
B15 Mg5 2.499274 1_665
B15 Mg5 2.499274 1_555
B16 B43 1.769155 1_455
B16 B43 1.769155 1_565
B16 B43 1.769161 1_555
B16 Li1 2.478611 1_565
B16 Li1 2.478612 1_665
B16 Li1 2.478612 1_555
B16 Mg19 2.484744 1_565
B16 Mg19 2.484746 1_555
B16 Mg19 2.484746 1_665
B17 B45 1.769155 1_455
B17 B45 1.769155 1_565
B17 B45 1.769161 1_555
B17 Mg20 2.520445 1_565
B17 Mg20 2.520447 1_665
B17 Mg20 2.520447 1_555
B17 Mg2 2.525596 1_565
B17 Mg2 2.525598 1_665
B17 Mg2 2.525598 1_555
B18 B44 1.769155 1_455
B18 B44 1.769155 1_565
B18 B44 1.769161 1_555
B18 Li1 2.478278 1_565
B18 Li1 2.478280 1_665
B18 Li1 2.478280 1_555
B18 Mg20 2.485412 1_565
B18 Mg20 2.485413 1_555
B18 Mg20 2.485413 1_665
B19 B46 1.769155 1_455
B19 B46 1.769155 1_565
B19 B46 1.769161 1_555
B19 Li2 2.481009 1_565
B19 Li2 2.481011 1_555
B19 Li2 2.481011 1_665
B19 Mg2 2.483343 1_565
B19 Mg2 2.483344 1_665
B19 Mg2 2.483344 1_555
B20 B48 1.769155 1_455
B20 B48 1.769155 1_565
B20 B48 1.769161 1_555
B20 Mg21 2.520648 1_565
B20 Mg6 2.520648 1_565
B20 Mg21 2.520650 1_555
B20 Mg6 2.520650 1_555
B20 Mg21 2.520650 1_665
B20 Mg6 2.520650 1_665
B21 B47 1.769155 1_455
B21 B47 1.769155 1_565
B21 B47 1.769161 1_555
B21 Mg21 2.481542 1_565
B21 Mg21 2.481544 1_555
B21 Mg21 2.481544 1_665
B21 Li2 2.486146 1_565
B21 Li2 2.486148 1_665
B21 Li2 2.486148 1_555
B22 B50 1.769155 1_455
B22 B50 1.769155 1_565
B22 B50 1.769161 1_555
B22 Li0 2.481009 1_565
B22 Li0 2.481011 1_555
B22 Li0 2.481011 1_665
B22 Mg22 2.483343 1_565
B22 Mg22 2.483344 1_555
B22 Mg22 2.483344 1_665
B23 B49 1.769155 1_455
B23 B49 1.769155 1_565
B23 B49 1.769161 1_555
B23 Mg6 2.481542 1_565
B23 Mg6 2.481544 1_555
B23 Mg6 2.481544 1_665
B23 Li0 2.486146 1_565
B23 Li0 2.486148 1_555
B23 Li0 2.486148 1_665
B24 B51 1.769155 1_455
B24 B51 1.769155 1_565
B24 B51 1.769161 1_555
B24 Mg7 2.520445 1_565
B24 Mg7 2.520447 1_665
B24 Mg7 2.520447 1_555
B24 Mg22 2.525596 1_565
B24 Mg22 2.525598 1_665
B24 Mg22 2.525598 1_555
B25 B52 1.769155 1_455
B25 B52 1.769155 1_565
B25 B52 1.769161 1_555
B25 Li3 2.478278 1_565
B25 Li3 2.478280 1_555
B25 Li3 2.478280 1_665
B25 Mg7 2.485412 1_565
B25 Mg7 2.485413 1_665
B25 Mg7 2.485413 1_555
B26 B53 1.769155 1_455
B26 B53 1.769155 1_565
B26 B53 1.769161 1_555
B26 Li3 2.478611 1_565
B26 Li3 2.478612 1_555
B26 Li3 2.478612 1_665
B26 Mg0 2.484744 1_565
B26 Mg0 2.484746 1_665
B26 Mg0 2.484746 1_555
B27 Mg8 2.499272 1_655
B27 Mg8 2.499274 1_665
B27 Mg8 2.499274 1_555
B27 Mg0 2.513143 1_655
B27 Mg0 2.513145 1_665
B27 Mg0 2.513145 1_555
B28 Mg8 2.496051 1_655
B28 Mg8 2.496053 1_665
B28 Mg8 2.496053 1_555
B28 Mg9 2.499272 1_655
B28 Mg9 2.499274 1_555
B28 Mg9 2.499274 1_665
B29 Mg9 2.496588 1_655
B29 Mg9 2.496589 1_555
B29 Mg9 2.496589 1_665
B29 Mg10 2.497661 1_655
B29 Mg10 2.497663 1_665
B29 Mg10 2.497663 1_555
B30 B4 1.769155 1_545
B30 B4 1.769155 1_655
B30 B4 1.769161 1_555
B30 Mg10 2.497326 1_655
B30 Mg10 2.497327 1_555
B30 Mg10 2.497327 1_665
B30 Mg11 2.498198 1_655
B30 Mg11 2.498200 1_665
B30 Mg11 2.498200 1_555
B31 Mg12 2.494375 1_655
B31 Mg12 2.494377 1_665
B31 Mg12 2.494377 1_555
B31 Mg11 2.495381 1_655
B31 Mg11 2.495382 1_665
B31 Mg11 2.495382 1_555
B32 B5 1.769155 1_545
B32 B5 1.769155 1_655
B32 B5 1.769161 1_555
B32 Mg13 2.495381 1_655
B32 Mg13 2.495382 1_555
B32 Mg13 2.495382 1_665
B32 Mg12 2.496655 1_655
B32 Mg12 2.496657 1_665
B32 Mg12 2.496657 1_555
B33 B7 1.769155 1_545
B33 B7 1.769155 1_655
B33 B7 1.769161 1_555
B33 Mg3 2.495113 1_655
B33 Mg3 2.495114 1_555
B33 Mg3 2.495114 1_665
B33 Mg14 2.495515 1_656
B33 Mg14 2.495517 1_556
B33 Mg14 2.495517 1_666
B34 B8 1.769155 1_545
B34 B8 1.769155 1_655
B34 B8 1.769161 1_555
B34 Mg15 2.495113 1_655
B34 Mg15 2.495114 1_555
B34 Mg15 2.495114 1_665
B34 Mg14 2.495515 1_655
B34 Mg14 2.495517 1_555
B34 Mg14 2.495517 1_665
B35 B6 1.769155 1_545
B35 B6 1.769155 1_655
B35 B6 1.769161 1_555
B35 Mg3 2.495582 1_655
B35 Mg3 2.495584 1_555
B35 Mg3 2.495584 1_665
B35 Mg13 2.496588 1_655
B35 Mg13 2.496589 1_555
B35 Mg13 2.496589 1_665
B36 B9 1.769155 1_545
B36 B9 1.769155 1_655
B36 B9 1.769161 1_555
B36 Mg15 2.495582 1_655
B36 Mg15 2.495584 1_555
B36 Mg15 2.495584 1_665
B36 Mg16 2.496588 1_655
B36 Mg16 2.496589 1_665
B36 Mg16 2.496589 1_555
B37 Mg16 2.495381 1_655
B37 Mg16 2.495382 1_665
B37 Mg16 2.495382 1_555
B37 Mg4 2.496655 1_655
B37 Mg4 2.496657 1_665
B37 Mg4 2.496657 1_555
B38 Mg4 2.494375 1_655
B38 Mg4 2.494377 1_555
B38 Mg4 2.494377 1_665
B38 Mg17 2.495381 1_655
B38 Mg17 2.495382 1_555
B38 Mg17 2.495382 1_665
B39 Mg18 2.497326 1_655
B39 Mg18 2.497327 1_555
B39 Mg18 2.497327 1_665
B39 Mg17 2.498198 1_655
B39 Mg17 2.498200 1_665
B39 Mg17 2.498200 1_555
B40 Mg5 2.496588 1_655
B40 Mg5 2.496589 1_555
B40 Mg5 2.496589 1_665
B40 Mg18 2.497661 1_655
B40 Mg18 2.497663 1_555
B40 Mg18 2.497663 1_665
B41 Mg1 2.496051 1_655
B41 Mg1 2.496053 1_555
B41 Mg1 2.496053 1_665
B41 Mg5 2.499272 1_655
B41 Mg5 2.499274 1_665
B41 Mg5 2.499274 1_555
B42 Mg1 2.499272 1_655
B42 Mg1 2.499274 1_555
B42 Mg1 2.499274 1_665
B42 Mg19 2.513143 1_655
B42 Mg19 2.513145 1_555
B42 Mg19 2.513145 1_665
B43 Li1 2.478611 1_655
B43 Li1 2.478612 1_665
B43 Li1 2.478612 1_555
B43 Mg19 2.484744 1_655
B43 Mg19 2.484746 1_555
B43 Mg19 2.484746 1_665
B44 Li1 2.478278 1_655
B44 Li1 2.478280 1_665
B44 Li1 2.478280 1_555
B44 Mg20 2.485412 1_655
B44 Mg20 2.485413 1_555
B44 Mg20 2.485413 1_665
B45 Mg20 2.520445 1_655
B45 Mg20 2.520447 1_665
B45 Mg20 2.520447 1_555
B45 Mg2 2.525596 1_655
B45 Mg2 2.525598 1_665
B45 Mg2 2.525598 1_555
B46 Li2 2.481009 1_655
B46 Li2 2.481011 1_555
B46 Li2 2.481011 1_665
B46 Mg2 2.483343 1_655
B46 Mg2 2.483344 1_665
B46 Mg2 2.483344 1_555
B47 Mg21 2.481542 1_655
B47 Mg21 2.481544 1_555
B47 Mg21 2.481544 1_665
B47 Li2 2.486146 1_655
B47 Li2 2.486148 1_665
B47 Li2 2.486148 1_555
B48 Mg21 2.520648 1_655
B48 Mg6 2.520648 1_655
B48 Mg21 2.520650 1_555
B48 Mg6 2.520650 1_555
B48 Mg21 2.520650 1_665
B48 Mg6 2.520650 1_665
B49 Mg6 2.481542 1_655
B49 Mg6 2.481544 1_555
B49 Mg6 2.481544 1_665
B49 Li0 2.486146 1_655
B49 Li0 2.486148 1_555
B49 Li0 2.486148 1_665
B50 Li0 2.481009 1_655
B50 Li0 2.481011 1_555
B50 Li0 2.481011 1_665
B50 Mg22 2.483343 1_655
B50 Mg22 2.483344 1_555
B50 Mg22 2.483344 1_665
B51 Mg7 2.520445 1_655
B51 Mg7 2.520447 1_665
B51 Mg7 2.520447 1_555
B51 Mg22 2.525596 1_655
B51 Mg22 2.525598 1_665
B51 Mg22 2.525598 1_555
B52 Li3 2.478278 1_655
B52 Li3 2.478280 1_555
B52 Li3 2.478280 1_665
B52 Mg7 2.485412 1_655
B52 Mg7 2.485413 1_665
B52 Mg7 2.485413 1_555
B53 Li3 2.478611 1_655
B53 Li3 2.478612 1_555
B53 Li3 2.478612 1_665
B53 Mg0 2.484744 1_655
B53 Mg0 2.484746 1_665
B53 Mg0 2.484746 1_555
