# generated using pymatgen
data_Y(PO3)3
_symmetry_space_group_name_H-M   'P 1'
_cell_length_a   12.88182272
_cell_length_b   12.88182272
_cell_length_c   12.88182289
_cell_angle_alpha   110.44525686
_cell_angle_beta   110.44525686
_cell_angle_gamma   110.44525486
_symmetry_Int_Tables_number   1
_chemical_formula_structural   Y(PO3)3
_chemical_formula_sum   'Y8 P24 O72'
_cell_volume   1583.42819560
_cell_formula_units_Z   8
loop_
 _symmetry_equiv_pos_site_id
 _symmetry_equiv_pos_as_xyz
  1  'x, y, z'
loop_
 _atom_site_type_symbol
 _atom_site_label
 _atom_site_symmetry_multiplicity
 _atom_site_fract_x
 _atom_site_fract_y
 _atom_site_fract_z
 _atom_site_occupancy
  Y  Y0  1  0.50000000  0.50000000  0.50000000  1
  Y  Y1  1  0.53740011  0.73188825  0.02062856  1
  Y  Y2  1  0.26811175  0.97937144  0.46259989  1
  Y  Y3  1  0.97937144  0.46259989  0.26811175  1
  Y  Y4  1  0.02062856  0.53740011  0.73188825  1
  Y  Y5  1  -0.00000000  -0.00000000  -0.00000000  1
  Y  Y6  1  0.46259989  0.26811175  0.97937144  1
  Y  Y7  1  0.73188825  0.02062856  0.53740011  1
  P  P0  1  0.23278390  0.92991876  0.71351067  1
  P  P1  1  0.67162104  0.62448701  0.21009894  1
  P  P2  1  0.72962690  0.48060748  0.73171662  1
  P  P3  1  0.27037310  0.51939252  0.26828338  1
  P  P4  1  0.78990106  0.32837896  0.37551299  1
  P  P5  1  0.26828338  0.27037310  0.51939252  1
  P  P6  1  0.48060748  0.73171662  0.72962690  1
  P  P7  1  0.71351067  0.23278390  0.92991876  1
  P  P8  1  0.29955591  0.01796427  0.20023090  1
  P  P9  1  0.07008124  0.28648933  0.76721610  1
  P  P10  1  0.20023090  0.29955591  0.01796427  1
  P  P11  1  0.37551299  0.78990106  0.32837896  1
  P  P12  1  0.62448701  0.21009894  0.67162104  1
  P  P13  1  0.73171662  0.72962690  0.48060748  1
  P  P14  1  0.28648933  0.76721610  0.07008124  1
  P  P15  1  0.76721610  0.07008124  0.28648933  1
  P  P16  1  0.92991876  0.71351067  0.23278390  1
  P  P17  1  0.51939252  0.26828338  0.27037310  1
  P  P18  1  0.21009894  0.67162104  0.62448701  1
  P  P19  1  0.98203573  0.79976910  0.70044409  1
  P  P20  1  0.32837896  0.37551299  0.78990106  1
  P  P21  1  0.01796427  0.20023090  0.29955591  1
  P  P22  1  0.79976910  0.70044409  0.98203573  1
  P  P23  1  0.70044409  0.98203573  0.79976910  1
  O  O0  1  0.72572022  0.56127836  0.85360443  1
  O  O1  1  0.62451741  0.33759355  0.68606894  1
  O  O2  1  0.91402082  0.12087937  0.32436497  1
  O  O3  1  0.06257013  0.39667186  0.76189786  1
  O  O4  1  0.17936786  0.60027222  0.68919955  1
  O  O5  1  0.14639557  0.27427978  0.43872164  1
  O  O6  1  0.38175233  0.51297530  0.88965615  1
  O  O7  1  0.28557882  0.99660253  0.30171424  1
  O  O8  1  0.08597918  0.87912063  0.67563503  1
  O  O9  1  0.93742987  0.60332814  0.23810214  1
  O  O10  1  0.61824767  0.48702470  0.11034385  1
  O  O11  1  0.14032180  0.50335976  0.22825803  1
  O  O12  1  0.37031422  0.32540870  0.49198217  1
  O  O13  1  0.66240645  0.31393106  0.37548259  1
  O  O14  1  0.67563503  0.08597918  0.87912063  1
  O  O15  1  0.80483506  0.97779786  0.89221684  1
  O  O16  1  0.67459130  0.50801783  0.62968578  1
  O  O17  1  0.68919955  0.17936786  0.60027222  1
  O  O18  1  0.84663373  0.32266673  0.05036268  1
  O  O19  1  0.12087937  0.32436497  0.91402082  1
  O  O20  1  0.81925858  0.72094534  0.25657599  1
  O  O21  1  0.27905466  0.74342401  0.18074142  1
  O  O22  1  0.00339747  0.69828576  0.71442118  1
  O  O23  1  0.02220214  0.10778316  0.19516494  1
  O  O24  1  0.10778316  0.19516494  0.02220214  1
  O  O25  1  0.56127836  0.85360443  0.72572022  1
  O  O26  1  0.62968578  0.67459130  0.50801783  1
  O  O27  1  0.15336627  0.67733327  0.94963732  1
  O  O28  1  0.48702470  0.11034385  0.61824767  1
  O  O29  1  0.67733327  0.94963732  0.15336627  1
  O  O30  1  0.99660253  0.30171424  0.28557882  1
  O  O31  1  0.32266673  0.05036268  0.84663373  1
  O  O32  1  0.60027222  0.68919955  0.17936786  1
  O  O33  1  0.23810214  0.93742987  0.60332814  1
  O  O34  1  0.85967820  0.49664024  0.77174197  1
  O  O35  1  0.60332814  0.23810214  0.93742987  1
  O  O36  1  0.43872164  0.14639557  0.27427978  1
  O  O37  1  0.27427978  0.43872164  0.14639557  1
  O  O38  1  0.77174197  0.85967820  0.49664024  1
  O  O39  1  0.51297530  0.88965615  0.38175233  1
  O  O40  1  0.31080045  0.82063214  0.39972778  1
  O  O41  1  0.39667186  0.76189786  0.06257013  1
  O  O42  1  0.39972778  0.31080045  0.82063214  1
  O  O43  1  0.49198217  0.37031422  0.32540870  1
  O  O44  1  0.97779786  0.89221684  0.80483506  1
  O  O45  1  0.76189786  0.06257013  0.39667186  1
  O  O46  1  0.05036268  0.84663373  0.32266673  1
  O  O47  1  0.30171424  0.28557882  0.99660253  1
  O  O48  1  0.31393106  0.37548259  0.66240645  1
  O  O49  1  0.71442118  0.00339747  0.69828576  1
  O  O50  1  0.72094534  0.25657599  0.81925858  1
  O  O51  1  0.74342401  0.18074142  0.27905466  1
  O  O52  1  0.32436497  0.91402082  0.12087937  1
  O  O53  1  0.25657599  0.81925858  0.72094534  1
  O  O54  1  0.19516494  0.02220214  0.10778316  1
  O  O55  1  0.37548259  0.66240645  0.31393106  1
  O  O56  1  0.68606894  0.62451741  0.33759355  1
  O  O57  1  0.33759355  0.68606894  0.62451741  1
  O  O58  1  0.69828576  0.71442118  0.00339747  1
  O  O59  1  0.49664024  0.77174197  0.85967820  1
  O  O60  1  0.18074142  0.27905466  0.74342401  1
  O  O61  1  0.87912063  0.67563503  0.08597918  1
  O  O62  1  0.85360443  0.72572022  0.56127836  1
  O  O63  1  0.22825803  0.14032180  0.50335976  1
  O  O64  1  0.88965615  0.38175233  0.51297530  1
  O  O65  1  0.50801783  0.62968578  0.67459130  1
  O  O66  1  0.32540870  0.49198217  0.37031422  1
  O  O67  1  0.11034385  0.61824767  0.48702470  1
  O  O68  1  0.94963732  0.15336627  0.67733327  1
  O  O69  1  0.82063214  0.39972778  0.31080045  1
  O  O70  1  0.50335976  0.22825803  0.14032180  1
  O  O71  1  0.89221684  0.80483506  0.97779786  1
loop_
_geom_bond_atom_site_label_1
_geom_bond_atom_site_label_2
_geom_bond_distance
_geom_bond_site_symmetry_2
O0 P22 1.578474 1_555
O0 P2 1.581010 1_555
O1 P2 1.586614 1_555
O1 P12 1.586804 1_555
O2 P15 1.584410 1_555
O2 P21 1.584569 1_655
O3 P9 1.479142 1_555
O3 Y4 2.180751 1_555
O4 P18 1.485937 1_555
O4 Y4 2.253772 1_555
O5 P21 1.578474 1_555
O5 P5 1.581010 1_555
O6 P20 1.483950 1_555
O6 Y1 2.276329 1_556
O7 P8 1.482666 1_565
O7 Y2 2.237731 1_555
O8 P0 1.584410 1_555
O8 P19 1.584569 1_455
O9 P16 1.479142 1_555
O9 Y3 2.180751 1_555
O10 P1 1.483950 1_555
O10 Y6 2.276329 1_554
O11 P3 1.481736 1_555
O11 Y3 2.238166 1_455
O12 P5 1.484223 1_555
O12 Y0 2.225320 1_555
O13 P17 1.586614 1_555
O13 P4 1.586804 1_555
O14 P7 1.584410 1_555
O14 P23 1.584569 1_545
O15 P23 1.485748 1_555
O15 Y5 2.260918 1_666
O16 P2 1.484223 1_555
O16 Y0 2.225320 1_555
O17 P12 1.485937 1_555
O17 Y7 2.253772 1_555
O18 P7 1.479066 1_554
O18 Y3 2.237091 1_555
O19 P9 1.584410 1_555
O19 P10 1.584569 1_556
O20 P16 1.585960 1_555
O20 P1 1.597884 1_555
O21 P14 1.585960 1_555
O21 P11 1.597884 1_555
O22 P19 1.482666 1_455
O22 Y4 2.237731 1_555
O23 P21 1.485748 1_555
O23 Y5 2.260918 1_555
O24 P10 1.485748 1_555
O24 Y5 2.260918 1_555
O25 P23 1.578474 1_555
O25 P6 1.581010 1_555
O26 P13 1.484223 1_555
O26 Y0 2.225320 1_555
O27 P14 1.479066 1_556
O27 Y4 2.237091 1_555
O28 P12 1.483950 1_555
O28 Y2 2.276329 1_545
O29 P15 1.479066 1_565
O29 Y1 2.237091 1_555
O30 P21 1.482666 1_655
O30 Y3 2.237731 1_555
O31 P0 1.479066 1_545
O31 Y6 2.237091 1_555
O32 P1 1.485937 1_555
O32 Y1 2.253772 1_555
O33 P0 1.479142 1_555
O33 Y2 2.180751 1_555
O34 P2 1.481736 1_555
O34 Y4 2.238166 1_655
O35 P7 1.479142 1_555
O35 Y6 2.180751 1_555
O36 P8 1.578474 1_555
O36 P17 1.581010 1_555
O37 P10 1.578474 1_555
O37 P3 1.581010 1_555
O38 P13 1.481736 1_555
O38 Y7 2.238165 1_565
O39 P11 1.483950 1_555
O39 Y7 2.276329 1_565
O40 P11 1.485937 1_555
O40 Y2 2.253772 1_555
O41 P14 1.479142 1_555
O41 Y1 2.180751 1_555
O42 P20 1.485937 1_555
O42 Y6 2.253772 1_555
O43 P17 1.484223 1_555
O43 Y0 2.225320 1_555
O44 P19 1.485748 1_555
O44 Y5 2.260918 1_666
O45 P15 1.479142 1_555
O45 Y7 2.180751 1_555
O46 P16 1.479066 1_455
O46 Y2 2.237091 1_555
O47 P10 1.482666 1_556
O47 Y6 2.237731 1_555
O48 P5 1.586614 1_555
O48 P20 1.586804 1_555
O49 P23 1.482666 1_545
O49 Y7 2.237731 1_555
O50 P7 1.585960 1_555
O50 P12 1.597884 1_555
O51 P15 1.585960 1_555
O51 P4 1.597884 1_555
O52 P14 1.584410 1_555
O52 P8 1.584569 1_565
O53 P0 1.585960 1_555
O53 P18 1.597884 1_555
O54 P8 1.485748 1_555
O54 Y5 2.260918 1_555
O55 P3 1.586614 1_555
O55 P11 1.586804 1_555
O56 P13 1.586614 1_555
O56 P1 1.586804 1_555
O57 P6 1.586614 1_555
O57 P18 1.586804 1_555
O58 P22 1.482666 1_554
O58 Y1 2.237731 1_555
O59 P6 1.481736 1_555
O59 Y1 2.238166 1_556
O60 P9 1.585960 1_555
O60 P20 1.597884 1_555
O61 P16 1.584410 1_555
O61 P22 1.584569 1_554
O62 P19 1.578474 1_555
O62 P13 1.581010 1_555
O63 P5 1.481736 1_555
O63 Y2 2.238165 1_545
O64 P4 1.483950 1_555
O64 Y4 2.276329 1_655
O65 P6 1.484223 1_555
O65 Y0 2.225320 1_555
O66 P3 1.484223 1_555
O66 Y0 2.225320 1_555
O67 P18 1.483950 1_555
O67 Y3 2.276329 1_455
O68 P9 1.479066 1_655
O68 Y7 2.237091 1_555
O69 P4 1.485937 1_555
O69 Y3 2.253772 1_555
O70 P17 1.481736 1_555
O70 Y6 2.238166 1_554
O71 P22 1.485748 1_555
O71 Y5 2.260918 1_666
