# generated using pymatgen
data_Mg2SiO4
_symmetry_space_group_name_H-M   'P 1'
_cell_length_a   6.01454272
_cell_length_b   6.01454272
_cell_length_c   4.82891700
_cell_angle_alpha   90.00000000
_cell_angle_beta   90.00000000
_cell_angle_gamma   120.00000796
_symmetry_Int_Tables_number   1
_chemical_formula_structural   Mg2SiO4
_chemical_formula_sum   'Mg4 Si2 O8'
_cell_volume   151.28141083
_cell_formula_units_Z   2
loop_
 _symmetry_equiv_pos_site_id
 _symmetry_equiv_pos_as_xyz
  1  'x, y, z'
loop_
 _atom_site_type_symbol
 _atom_site_label
 _atom_site_symmetry_multiplicity
 _atom_site_fract_x
 _atom_site_fract_y
 _atom_site_fract_z
 _atom_site_occupancy
  Mg  Mg0  1  0.50000000  0.00000000  0.50000000  1
  Mg  Mg1  1  0.00000000  0.50000000  0.50000000  1
  Mg  Mg2  1  0.00000000  0.00000000  0.00000000  1
  Mg  Mg3  1  0.50000000  0.50000000  0.50000000  1
  Si  Si0  1  0.33333300  0.66666700  0.92683800  1
  Si  Si1  1  0.66666700  0.33333300  0.07316200  1
  O  O0  1  0.33333300  0.66666700  0.26472700  1
  O  O1  1  0.81131100  0.18868900  0.22324400  1
  O  O2  1  0.66666700  0.33333300  0.73527300  1
  O  O3  1  0.81131100  0.62262200  0.22324400  1
  O  O4  1  0.37737800  0.18868900  0.22324400  1
  O  O5  1  0.18868900  0.81131100  0.77675600  1
  O  O6  1  0.18868900  0.37737800  0.77675600  1
  O  O7  1  0.62262200  0.81131100  0.77675600  1
loop_
_geom_bond_atom_site_label_1
_geom_bond_atom_site_label_2
_geom_bond_distance
_geom_bond_site_symmetry_2
Mg0 O2 2.074924 1_555
Mg0 O0 2.074924 1_545
Mg0 O5 2.110667 1_545
Mg0 O1 2.110667 1_555
Mg0 O4 2.110667 1_555
Mg0 O7 2.110667 1_545
Mg1 O2 2.074924 1_455
Mg1 O0 2.074924 1_555
Mg1 O1 2.110667 1_455
Mg1 O5 2.110667 1_555
Mg1 O3 2.110667 1_455
Mg1 O6 2.110667 1_555
Mg2 O6 2.241871 1_554
Mg2 O3 2.241871 1_445
Mg2 O7 2.241871 1_444
Mg2 O4 2.241871 1_555
Mg2 O5 2.241871 1_544
Mg2 O1 2.241871 1_455
Mg3 O2 2.074928 1_555
Mg3 O0 2.074928 1_555
Mg3 O6 2.110667 1_555
Mg3 O3 2.110667 1_555
Mg3 O7 2.110667 1_555
Mg3 O4 2.110667 1_555
O0 Si0 1.631638 1_554
O1 Si1 1.672055 1_555
O2 Si1 1.631638 1_556
O3 Si1 1.672060 1_555
O4 Si1 1.672060 1_555
O5 Si0 1.672055 1_555
O6 Si0 1.672060 1_555
O7 Si0 1.672060 1_555
