# generated using pymatgen
data_KInS2
_symmetry_space_group_name_H-M   'P 1'
_cell_length_a   7.83810796
_cell_length_b   7.83810796
_cell_length_c   15.09138483
_cell_angle_alpha   82.51190125
_cell_angle_beta   82.51190125
_cell_angle_gamma   89.98778767
_symmetry_Int_Tables_number   1
_chemical_formula_structural   KInS2
_chemical_formula_sum   'K8 In8 S16'
_cell_volume   911.27453276
_cell_formula_units_Z   8
loop_
 _symmetry_equiv_pos_site_id
 _symmetry_equiv_pos_as_xyz
  1  'x, y, z'
loop_
 _atom_site_type_symbol
 _atom_site_label
 _atom_site_symmetry_multiplicity
 _atom_site_fract_x
 _atom_site_fract_y
 _atom_site_fract_z
 _atom_site_occupancy
  K  K0  1  0.15368445  0.77810391  0.88337627  1
  K  K1  1  0.22189609  0.84631555  0.61662373  1
  K  K2  1  0.84631555  0.22189609  0.11662373  1
  K  K3  1  0.77810391  0.15368445  0.38337627  1
  K  K4  1  0.22138934  0.34490778  0.61799097  1
  K  K5  1  0.65509222  0.77861066  0.88200903  1
  K  K6  1  0.77861066  0.65509222  0.38200903  1
  K  K7  1  0.34490778  0.22138934  0.11799097  1
  In  In0  1  0.91211987  0.28887821  0.84464380  1
  In  In1  1  0.71112179  0.08788013  0.65535620  1
  In  In2  1  0.08788013  0.71112179  0.15535620  1
  In  In3  1  0.28887821  0.91211987  0.34464380  1
  In  In4  1  0.71116674  0.58483106  0.65497501  1
  In  In5  1  0.41516894  0.28883326  0.84502499  1
  In  In6  1  0.28883326  0.41516894  0.34502499  1
  In  In7  1  0.58483106  0.71116674  0.15497501  1
  S  S0  1  0.94702868  0.05297132  0.75000000  1
  S  S1  1  0.05297132  0.94702868  0.25000000  1
  S  S2  1  0.42815905  0.57184095  0.75000000  1
  S  S3  1  0.57184095  0.42815905  0.25000000  1
  S  S4  1  0.13825026  0.26504652  0.94506712  1
  S  S5  1  0.73495348  0.86174974  0.55493288  1
  S  S6  1  0.86174974  0.73495348  0.05493288  1
  S  S7  1  0.26504652  0.13825026  0.44506712  1
  S  S8  1  0.94723502  0.57174713  0.74949338  1
  S  S9  1  0.42825287  0.05276498  0.75050662  1
  S  S10  1  0.05276498  0.42825287  0.25050662  1
  S  S11  1  0.57174713  0.94723502  0.24949338  1
  S  S12  1  0.73596620  0.36160399  0.55359033  1
  S  S13  1  0.63839601  0.26403380  0.94640967  1
  S  S14  1  0.26403380  0.63839601  0.44640967  1
  S  S15  1  0.36160399  0.73596620  0.05359033  1
loop_
_geom_bond_atom_site_label_1
_geom_bond_atom_site_label_2
_geom_bond_distance
_geom_bond_site_symmetry_2
K0 S15 3.198955 1_556
K0 S6 3.206459 1_456
K0 S2 3.318378 1_555
K0 S8 3.319940 1_455
K0 S0 3.321875 1_465
K0 S9 3.322503 1_565
K1 S14 3.198955 1_555
K1 S7 3.206459 1_565
K1 S2 3.318378 1_555
K1 S9 3.319940 1_565
K1 S0 3.321875 1_465
K1 S8 3.322503 1_455
K2 S13 3.198955 1_554
K2 S4 3.206459 1_654
K2 S3 3.318378 1_555
K2 S10 3.319940 1_655
K2 S1 3.321875 1_645
K2 S11 3.322503 1_545
K3 S12 3.198955 1_555
K3 S5 3.206459 1_545
K3 S3 3.318378 1_555
K3 S11 3.319940 1_545
K3 S1 3.321875 1_645
K3 S10 3.322503 1_655
K4 S14 3.214144 1_555
K4 S7 3.227996 1_555
K4 S9 3.394375 1_555
K4 S8 3.394674 1_455
K4 S2 3.394953 1_555
K4 S0 3.395096 1_455
K5 S15 3.214144 1_556
K5 S6 3.227996 1_556
K5 S8 3.394375 1_555
K5 S9 3.394674 1_565
K5 S2 3.394953 1_555
K5 S0 3.395096 1_565
K6 S12 3.214144 1_555
K6 S5 3.227996 1_555
K6 S11 3.394375 1_555
K6 S10 3.394674 1_655
K6 S3 3.394953 1_555
K6 S1 3.395096 1_655
K7 S13 3.214144 1_554
K7 S4 3.227996 1_554
K7 S10 3.394375 1_555
K7 S11 3.394674 1_545
K7 S3 3.394953 1_555
K7 S1 3.395096 1_545
In0 S13 2.462327 1_555
In0 S4 2.469704 1_655
In0 S0 2.473913 1_555
In0 S8 2.474053 1_555
In1 S12 2.462327 1_555
In1 S5 2.469704 1_545
In1 S0 2.473913 1_555
In1 S9 2.474053 1_555
In2 S15 2.462327 1_555
In2 S6 2.469704 1_455
In2 S1 2.473913 1_555
In2 S10 2.474053 1_555
In3 S14 2.462327 1_555
In3 S7 2.469704 1_565
In3 S1 2.473913 1_555
In3 S11 2.474053 1_555
In4 S12 2.461759 1_555
In4 S5 2.469417 1_555
In4 S8 2.473580 1_555
In4 S2 2.473948 1_555
In5 S13 2.461759 1_555
In5 S4 2.469417 1_555
In5 S9 2.473580 1_555
In5 S2 2.473948 1_555
In6 S14 2.461759 1_555
In6 S7 2.469417 1_555
In6 S10 2.473580 1_555
In6 S3 2.473948 1_555
In7 S15 2.461759 1_555
In7 S6 2.469417 1_555
In7 S11 2.473580 1_555
In7 S3 2.473948 1_555
