# generated using pymatgen
data_Yb2(Ni5B3)3
_symmetry_space_group_name_H-M   'P 1'
_cell_length_a   9.76730505
_cell_length_b   9.76730505
_cell_length_c   11.19306100
_cell_angle_alpha   90.00000000
_cell_angle_beta   90.00000000
_cell_angle_gamma   107.55369782
_symmetry_Int_Tables_number   1
_chemical_formula_structural   Yb2(Ni5B3)3
_chemical_formula_sum   'Yb8 Ni60 B36'
_cell_volume   1018.09740837
_cell_formula_units_Z   4
loop_
 _symmetry_equiv_pos_site_id
 _symmetry_equiv_pos_as_xyz
  1  'x, y, z'
loop_
 _atom_site_type_symbol
 _atom_site_label
 _atom_site_symmetry_multiplicity
 _atom_site_fract_x
 _atom_site_fract_y
 _atom_site_fract_z
 _atom_site_occupancy
  Yb  Yb0  1  0.26112800  0.26112800  0.45988000  1
  Yb  Yb1  1  0.73887200  0.73887200  0.54012000  1
  Yb  Yb2  1  0.69451700  0.19451700  0.25000000  1
  Yb  Yb3  1  0.19451700  0.69451700  0.25000000  1
  Yb  Yb4  1  0.30548300  0.80548300  0.75000000  1
  Yb  Yb5  1  0.76112800  0.76112800  0.04012000  1
  Yb  Yb6  1  0.80548300  0.30548300  0.75000000  1
  Yb  Yb7  1  0.23887200  0.23887200  0.95988000  1
  Ni  Ni0  1  0.00697400  0.81517200  0.66026700  1
  Ni  Ni1  1  0.16291600  0.63563100  0.97107000  1
  Ni  Ni2  1  0.06745900  0.56745900  0.75000000  1
  Ni  Ni3  1  0.63563100  0.16291600  0.97107000  1
  Ni  Ni4  1  0.00985200  0.16914900  0.80676300  1
  Ni  Ni5  1  0.53074900  0.74255000  0.90299100  1
  Ni  Ni6  1  0.50985200  0.66914900  0.69323700  1
  Ni  Ni7  1  0.39204400  0.05365100  0.91490600  1
  Ni  Ni8  1  0.49302600  0.68482800  0.16026700  1
  Ni  Ni9  1  0.27139500  0.50364800  0.61687500  1
  Ni  Ni10  1  0.49635200  0.72860500  0.38312500  1
  Ni  Ni11  1  0.66914900  0.50985200  0.69323700  1
  Ni  Ni12  1  0.74255000  0.53074900  0.90299100  1
  Ni  Ni13  1  0.31517200  0.50697400  0.83973300  1
  Ni  Ni14  1  0.36436900  0.83708400  0.02893000  1
  Ni  Ni15  1  0.60795600  0.94634900  0.08509400  1
  Ni  Ni16  1  0.49014800  0.33085100  0.30676300  1
  Ni  Ni17  1  0.68482800  0.49302600  0.16026700  1
  Ni  Ni18  1  0.22860500  0.99635200  0.11687500  1
  Ni  Ni19  1  0.55365100  0.89204400  0.58509400  1
  Ni  Ni20  1  0.75745000  0.96925100  0.40299100  1
  Ni  Ni21  1  0.18482800  0.99302600  0.33973300  1
  Ni  Ni22  1  0.10795600  0.44634900  0.41490600  1
  Ni  Ni23  1  0.46925100  0.25745000  0.09700900  1
  Ni  Ni24  1  0.99014800  0.83085100  0.19323700  1
  Ni  Ni25  1  0.00000000  0.00000000  0.50000000  1
  Ni  Ni26  1  0.33085100  0.49014800  0.30676300  1
  Ni  Ni27  1  0.50697400  0.31517200  0.83973300  1
  Ni  Ni28  1  0.44634900  0.10795600  0.41490600  1
  Ni  Ni29  1  0.93254100  0.43254100  0.25000000  1
  Ni  Ni30  1  0.23526200  0.23526200  0.21297400  1
  Ni  Ni31  1  0.50000000  0.50000000  0.50000000  1
  Ni  Ni32  1  0.33708400  0.86436900  0.47107000  1
  Ni  Ni33  1  0.16914900  0.00985200  0.80676300  1
  Ni  Ni34  1  0.94634900  0.60795600  0.08509400  1
  Ni  Ni35  1  0.50364800  0.27139500  0.61687500  1
  Ni  Ni36  1  0.96925100  0.75745000  0.40299100  1
  Ni  Ni37  1  0.00364800  0.77139500  0.88312500  1
  Ni  Ni38  1  0.73526200  0.73526200  0.28702600  1
  Ni  Ni39  1  0.83708400  0.36436900  0.02893000  1
  Ni  Ni40  1  0.76473800  0.76473800  0.78702600  1
  Ni  Ni41  1  0.83085100  0.99014800  0.19323700  1
  Ni  Ni42  1  0.50000000  0.50000000  0.00000000  1
  Ni  Ni43  1  0.99635200  0.22860500  0.11687500  1
  Ni  Ni44  1  0.05365100  0.39204400  0.91490600  1
  Ni  Ni45  1  0.72860500  0.49635200  0.38312500  1
  Ni  Ni46  1  0.56745900  0.06745900  0.75000000  1
  Ni  Ni47  1  0.03074900  0.24255000  0.59700900  1
  Ni  Ni48  1  0.81517200  0.00697400  0.66026700  1
  Ni  Ni49  1  0.99302600  0.18482800  0.33973300  1
  Ni  Ni50  1  0.24255000  0.03074900  0.59700900  1
  Ni  Ni51  1  0.89204400  0.55365100  0.58509400  1
  Ni  Ni52  1  0.00000000  0.00000000  0.00000000  1
  Ni  Ni53  1  0.25745000  0.46925100  0.09700900  1
  Ni  Ni54  1  0.43254100  0.93254100  0.25000000  1
  Ni  Ni55  1  0.86436900  0.33708400  0.47107000  1
  Ni  Ni56  1  0.66291600  0.13563100  0.52893000  1
  Ni  Ni57  1  0.26473800  0.26473800  0.71297400  1
  Ni  Ni58  1  0.77139500  0.00364800  0.88312500  1
  Ni  Ni59  1  0.13563100  0.66291600  0.52893000  1
  B  B0  1  0.79776800  0.09432500  0.05126200  1
  B  B1  1  0.86556100  0.13443900  0.50000000  1
  B  B2  1  0.45027800  0.04847000  0.59857100  1
  B  B3  1  0.87837300  0.62028600  0.75601100  1
  B  B4  1  0.62162700  0.87971400  0.25601100  1
  B  B5  1  0.37971400  0.12162700  0.24398900  1
  B  B6  1  0.37837300  0.12028600  0.74398900  1
  B  B7  1  0.04847000  0.45027800  0.59857100  1
  B  B8  1  0.90567500  0.20223200  0.94873800  1
  B  B9  1  0.54368900  0.54368900  0.82725000  1
  B  B10  1  0.13443900  0.86556100  0.50000000  1
  B  B11  1  0.45153000  0.04972200  0.09857100  1
  B  B12  1  0.63443900  0.36556100  0.00000000  1
  B  B13  1  0.12028600  0.37837300  0.74398900  1
  B  B14  1  0.55787300  0.55787300  0.30089900  1
  B  B15  1  0.95027800  0.54847000  0.90142900  1
  B  B16  1  0.40567500  0.70223200  0.55126200  1
  B  B17  1  0.12162700  0.37971400  0.24398900  1
  B  B18  1  0.54972200  0.95153000  0.40142900  1
  B  B19  1  0.44212700  0.44212700  0.69910100  1
  B  B20  1  0.70223200  0.40567500  0.55126200  1
  B  B21  1  0.95153000  0.54972200  0.40142900  1
  B  B22  1  0.62028600  0.87837300  0.75601100  1
  B  B23  1  0.59432500  0.29776800  0.44873800  1
  B  B24  1  0.05787300  0.05787300  0.19910100  1
  B  B25  1  0.45631100  0.45631100  0.17275000  1
  B  B26  1  0.20223200  0.90567500  0.94873800  1
  B  B27  1  0.95631100  0.95631100  0.32725000  1
  B  B28  1  0.36556100  0.63443900  0.00000000  1
  B  B29  1  0.04972200  0.45153000  0.09857100  1
  B  B30  1  0.94212700  0.94212700  0.80089900  1
  B  B31  1  0.29776800  0.59432500  0.44873800  1
  B  B32  1  0.87971400  0.62162700  0.25601100  1
  B  B33  1  0.54847000  0.95027800  0.90142900  1
  B  B34  1  0.04368900  0.04368900  0.67275000  1
  B  B35  1  0.09432500  0.79776800  0.05126200  1
loop_
_geom_bond_atom_site_label_1
_geom_bond_atom_site_label_2
_geom_bond_distance
_geom_bond_site_symmetry_2
Ni0 Yb1 2.836194 1_455
Ni0 Yb4 3.112085 1_555
Ni1 Yb4 3.069322 1_555
Ni1 Yb3 3.172756 1_556
Ni2 Yb4 2.747659 1_555
Ni2 Yb6 3.024151 1_455
Ni3 Yb6 3.069322 1_555
Ni3 Yb2 3.172756 1_556
Ni4 Yb7 2.736041 1_555
Ni4 Yb6 2.786535 1_455
Ni5 Yb5 2.684371 1_556
Ni5 Yb4 2.994519 1_555
Ni6 Yb1 2.736041 1_555
Ni6 Yb4 2.786535 1_555
Ni7 Yb7 2.719768 1_555
Ni7 Yb4 2.959913 1_545
Ni8 Yb5 2.836194 1_555
Ni8 Yb3 3.112085 1_555
Ni9 Yb0 2.926734 1_555
Ni9 Yb4 3.229625 1_555
Ni10 Yb1 2.926734 1_555
Ni10 Yb3 3.229625 1_555
Ni11 Yb1 2.736041 1_555
Ni11 Yb6 2.786535 1_555
Ni12 Yb5 2.684371 1_556
Ni12 Yb6 2.994519 1_555
Ni13 Yb7 2.836194 1_555
Ni13 Yb4 3.112085 1_555
Ni14 Yb3 3.069322 1_555
Ni14 Yb4 3.172756 1_554
Ni15 Yb5 2.719768 1_555
Ni15 Yb2 2.959913 1_565
Ni16 Yb0 2.736041 1_555
Ni16 Yb2 2.786535 1_555
Ni17 Yb5 2.836194 1_555
Ni17 Yb2 3.112085 1_555
Ni18 Yb7 2.926734 1_564
Ni18 Yb3 3.229625 1_555
Ni19 Yb1 2.719768 1_555
Ni19 Yb4 2.959913 1_555
Ni20 Yb1 2.684371 1_555
Ni20 Yb2 2.994519 1_565
Ni21 Yb0 2.836194 1_565
Ni21 Yb3 3.112085 1_555
Ni22 Yb0 2.719768 1_555
Ni22 Yb3 2.959913 1_555
Ni23 Yb7 2.684371 1_554
Ni23 Yb2 2.994519 1_555
Ni24 Yb5 2.736041 1_555
Ni24 Yb3 2.786535 1_655
Ni25 Yb0 3.047629 1_555
Ni25 Yb1 3.047629 1_445
Ni26 Yb0 2.736041 1_555
Ni26 Yb3 2.786535 1_555
Ni27 Yb7 2.836194 1_555
Ni27 Yb6 3.112085 1_555
Ni28 Yb0 2.719768 1_555
Ni28 Yb2 2.959913 1_555
Ni29 Yb2 2.747659 1_555
Ni29 Yb3 3.024151 1_655
Ni30 Yb0 2.779717 1_555
Ni30 Yb7 2.833203 1_554
Ni31 Yb1 2.793775 1_555
Ni31 Yb0 2.793775 1_555
Ni32 Yb3 3.069322 1_555
Ni32 Yb4 3.172756 1_555
Ni33 Yb7 2.736041 1_555
Ni33 Yb4 2.786535 1_545
Ni34 Yb5 2.719768 1_555
Ni34 Yb3 2.959913 1_655
Ni35 Yb0 2.926734 1_555
Ni35 Yb6 3.229625 1_555
Ni36 Yb1 2.684371 1_555
Ni36 Yb3 2.994519 1_655
Ni37 Yb5 2.926734 1_456
Ni37 Yb4 3.229625 1_555
Ni38 Yb5 2.779717 1_555
Ni38 Yb1 2.833203 1_555
Ni39 Yb2 3.069322 1_555
Ni39 Yb6 3.172756 1_554
Ni40 Yb1 2.779717 1_555
Ni40 Yb5 2.833203 1_556
Ni41 Yb5 2.736041 1_555
Ni41 Yb2 2.786535 1_565
Ni42 Yb7 3.047629 1_554
Ni42 Yb5 3.047629 1_555
Ni43 Yb7 2.926734 1_654
Ni43 Yb2 3.229625 1_555
Ni44 Yb7 2.719768 1_555
Ni44 Yb6 2.959913 1_455
Ni45 Yb1 2.926734 1_555
Ni45 Yb2 3.229625 1_555
Ni46 Yb6 2.747659 1_555
Ni46 Yb4 3.024151 1_545
Ni47 Yb0 2.684371 1_555
Ni47 Yb6 2.994519 1_455
Ni48 Yb1 2.836194 1_545
Ni48 Yb6 3.112085 1_555
Ni49 Yb0 2.836194 1_655
Ni49 Yb2 3.112085 1_555
Ni50 Yb0 2.684371 1_555
Ni50 Yb4 2.994519 1_545
Ni51 Yb1 2.719768 1_555
Ni51 Yb6 2.959913 1_555
Ni52 Yb7 2.793775 1_554
Ni52 Yb5 2.793775 1_445
Ni53 Yb7 2.684371 1_554
Ni53 Yb3 2.994519 1_555
Ni54 Yb3 2.747659 1_555
Ni54 Yb2 3.024151 1_565
Ni55 Yb2 3.069322 1_555
Ni55 Yb6 3.172756 1_555
Ni56 Yb6 3.069322 1_555
Ni56 Yb2 3.172756 1_555
Ni57 Yb7 2.779717 1_555
Ni57 Yb0 2.833203 1_555
Ni58 Yb5 2.926734 1_546
Ni58 Yb6 3.229625 1_555
Ni59 Yb4 3.069322 1_555
Ni59 Yb3 3.172756 1_555
B0 B8 1.693665 1_554
B0 Ni41 1.965568 1_545
B0 Ni15 2.013255 1_545
B0 Ni58 2.062754 1_554
B0 Ni3 2.098189 1_554
B0 Ni43 2.118302 1_555
B0 Ni52 2.485434 1_655
B0 Ni39 2.560455 1_555
B0 Yb2 2.741961 1_555
B1 Ni47 1.967123 1_655
B1 Ni20 1.967123 1_545
B1 Ni55 2.009105 1_555
B1 Ni56 2.009105 1_555
B1 Ni25 2.118623 1_655
B1 Ni49 2.154210 1_555
B1 Ni48 2.154210 1_555
B2 B6 1.982866 1_555
B2 Ni50 1.983694 1_555
B2 Ni46 2.022177 1_555
B2 Ni19 2.075350 1_545
B2 Ni35 2.090462 1_555
B2 Ni28 2.139792 1_555
B2 Ni56 2.139943 1_555
B2 Ni32 2.300710 1_545
B2 Yb4 2.912223 1_545
B3 Ni51 2.038073 1_555
B3 Ni2 2.063120 1_655
B3 Ni40 2.070667 1_555
B3 Ni11 2.122185 1_555
B3 Ni12 2.128724 1_555
B3 Ni37 2.147221 1_655
B3 Ni0 2.215253 1_655
B3 Yb6 2.940272 1_555
B4 Ni15 2.038073 1_555
B4 Ni54 2.063120 1_555
B4 Ni38 2.070667 1_555
B4 Ni41 2.122185 1_555
B4 Ni20 2.128724 1_555
B4 Ni10 2.147221 1_555
B4 Ni8 2.215253 1_555
B4 Yb2 2.940272 1_565
B5 Ni28 2.038073 1_555
B5 Ni54 2.063120 1_545
B5 Ni30 2.070667 1_555
B5 Ni16 2.122185 1_555
B5 Ni23 2.128724 1_555
B5 Ni18 2.147221 1_545
B5 Ni21 2.215253 1_545
B5 Yb2 2.940272 1_555
B6 Ni7 2.038073 1_555
B6 Ni46 2.063120 1_555
B6 Ni57 2.070667 1_555
B6 Ni33 2.122185 1_555
B6 Ni50 2.128724 1_555
B6 Ni35 2.147221 1_555
B6 Ni27 2.215253 1_555
B6 Yb4 2.940272 1_545
B7 Ni47 1.983694 1_555
B7 Ni2 2.022177 1_555
B7 Ni51 2.075350 1_455
B7 Ni9 2.090462 1_555
B7 Ni22 2.139792 1_555
B7 Ni59 2.139943 1_555
B7 Ni55 2.300710 1_455
B7 Yb6 2.912223 1_455
B8 Ni4 1.965568 1_655
B8 Ni44 2.013255 1_655
B8 Ni43 2.062754 1_556
B8 Ni39 2.098189 1_556
B8 Ni58 2.118302 1_555
B8 Ni52 2.485434 1_656
B8 Ni3 2.560455 1_555
B8 Yb6 2.741961 1_555
B9 Ni42 1.998290 1_556
B9 Ni11 2.026126 1_555
B9 Ni6 2.026126 1_555
B9 Ni27 2.155718 1_555
B9 Ni13 2.155718 1_555
B9 Ni5 2.157648 1_555
B9 Ni12 2.157648 1_555
B10 Ni50 1.967123 1_565
B10 Ni36 1.967123 1_455
B10 Ni32 2.009105 1_555
B10 Ni59 2.009105 1_555
B10 Ni25 2.118623 1_565
B10 Ni21 2.154210 1_555
B10 Ni0 2.154210 1_555
B11 B5 1.982866 1_555
B11 Ni23 1.983694 1_555
B11 Ni54 2.022177 1_545
B11 Ni15 2.075350 1_545
B11 Ni18 2.090462 1_545
B11 Ni7 2.139792 1_554
B11 Ni14 2.139943 1_545
B11 Ni3 2.300710 1_554
B11 Yb2 2.912223 1_555
B12 Ni23 1.967123 1_555
B12 Ni12 1.967123 1_554
B12 Ni3 2.009105 1_554
B12 Ni39 2.009105 1_555
B12 Ni42 2.118623 1_555
B12 Ni17 2.154210 1_555
B12 Ni27 2.154210 1_554
B13 B7 1.982866 1_555
B13 Ni44 2.038073 1_555
B13 Ni2 2.063120 1_555
B13 Ni57 2.070667 1_555
B13 Ni4 2.122185 1_555
B13 Ni47 2.128724 1_555
B13 Ni9 2.147221 1_555
B13 Ni13 2.215253 1_555
B13 Yb6 2.940272 1_455
B14 B25 1.852552 1_555
B14 Ni38 2.053590 1_555
B14 Ni26 2.115171 1_555
B14 Ni16 2.115171 1_555
B14 Ni10 2.143229 1_555
B14 Ni45 2.143229 1_555
B14 Ni17 2.211411 1_555
B14 Ni8 2.211411 1_555
B14 Ni31 2.326530 1_555
B15 B3 1.982866 1_555
B15 Ni12 1.983694 1_555
B15 Ni2 2.022177 1_655
B15 Ni44 2.075350 1_655
B15 Ni37 2.090462 1_655
B15 Ni34 2.139792 1_556
B15 Ni1 2.139943 1_655
B15 Ni39 2.300710 1_556
B15 Yb6 2.912223 1_555
B16 B31 1.693665 1_555
B16 Ni6 1.965568 1_555
B16 Ni19 2.013255 1_555
B16 Ni10 2.062754 1_555
B16 Ni32 2.098189 1_555
B16 Ni9 2.118302 1_555
B16 Ni31 2.485434 1_555
B16 Ni59 2.560455 1_555
B16 Yb4 2.741961 1_555
B17 B29 1.982866 1_555
B17 Ni22 2.038073 1_555
B17 Ni29 2.063120 1_455
B17 Ni30 2.070667 1_555
B17 Ni26 2.122185 1_555
B17 Ni53 2.128724 1_555
B17 Ni43 2.147221 1_455
B17 Ni49 2.215253 1_455
B17 Yb3 2.940272 1_555
B18 B4 1.982866 1_555
B18 Ni20 1.983694 1_555
B18 Ni54 2.022177 1_555
B18 Ni28 2.075350 1_565
B18 Ni10 2.090462 1_555
B18 Ni19 2.139792 1_555
B18 Ni32 2.139943 1_555
B18 Ni56 2.300710 1_565
B18 Yb2 2.912223 1_565
B19 B9 1.852552 1_555
B19 Ni57 2.053590 1_555
B19 Ni11 2.115171 1_555
B19 Ni6 2.115171 1_555
B19 Ni9 2.143229 1_555
B19 Ni35 2.143229 1_555
B19 Ni27 2.211411 1_555
B19 Ni13 2.211411 1_555
B19 Ni31 2.326530 1_555
B20 B23 1.693665 1_555
B20 Ni11 1.965568 1_555
B20 Ni51 2.013255 1_555
B20 Ni45 2.062754 1_555
B20 Ni55 2.098189 1_555
B20 Ni35 2.118302 1_555
B20 Ni31 2.485434 1_555
B20 Ni56 2.560455 1_555
B20 Yb6 2.741961 1_555
B21 B32 1.982866 1_555
B21 Ni36 1.983694 1_555
B21 Ni29 2.022177 1_555
B21 Ni22 2.075350 1_655
B21 Ni45 2.090462 1_555
B21 Ni51 2.139792 1_555
B21 Ni55 2.139943 1_555
B21 Ni59 2.300710 1_655
B21 Yb3 2.912223 1_655
B22 B33 1.982866 1_555
B22 Ni19 2.038073 1_555
B22 Ni46 2.063120 1_565
B22 Ni40 2.070667 1_555
B22 Ni6 2.122185 1_555
B22 Ni5 2.128724 1_555
B22 Ni58 2.147221 1_565
B22 Ni48 2.215253 1_565
B22 Yb4 2.940272 1_555
B23 Ni16 1.965568 1_555
B23 Ni28 2.013255 1_555
B23 Ni35 2.062754 1_555
B23 Ni56 2.098189 1_555
B23 Ni45 2.118302 1_555
B23 Ni31 2.485434 1_555
B23 Ni55 2.560455 1_555
B23 Yb2 2.741961 1_555
B24 B27 1.852552 1_445
B24 Ni30 2.053590 1_555
B24 Ni24 2.115171 1_445
B24 Ni41 2.115171 1_445
B24 Ni18 2.143229 1_545
B24 Ni43 2.143229 1_455
B24 Ni21 2.211411 1_545
B24 Ni49 2.211411 1_455
B24 Ni52 2.326530 1_555
B25 Ni42 1.998290 1_555
B25 Ni26 2.026126 1_555
B25 Ni16 2.026126 1_555
B25 Ni8 2.155718 1_555
B25 Ni17 2.155718 1_555
B25 Ni53 2.157648 1_555
B25 Ni23 2.157648 1_555
B26 B35 1.693665 1_556
B26 Ni33 1.965568 1_565
B26 Ni7 2.013255 1_565
B26 Ni18 2.062754 1_556
B26 Ni14 2.098189 1_556
B26 Ni37 2.118302 1_555
B26 Ni52 2.485434 1_566
B26 Ni1 2.560455 1_555
B26 Yb4 2.741961 1_555
B27 Ni25 1.998290 1_665
B27 Ni41 2.026126 1_555
B27 Ni24 2.026126 1_555
B27 Ni49 2.155718 1_565
B27 Ni21 2.155718 1_655
B27 Ni20 2.157648 1_555
B27 Ni36 2.157648 1_555
B28 Ni53 1.967123 1_555
B28 Ni5 1.967123 1_554
B28 Ni1 2.009105 1_554
B28 Ni14 2.009105 1_555
B28 Ni42 2.118623 1_555
B28 Ni8 2.154210 1_555
B28 Ni13 2.154210 1_554
B29 Ni53 1.983694 1_555
B29 Ni29 2.022177 1_455
B29 Ni34 2.075350 1_455
B29 Ni43 2.090462 1_455
B29 Ni44 2.139792 1_554
B29 Ni39 2.139943 1_455
B29 Ni1 2.300710 1_554
B29 Yb3 2.912223 1_555
B30 B34 1.852552 1_665
B30 Ni40 2.053590 1_555
B30 Ni33 2.115171 1_665
B30 Ni4 2.115171 1_665
B30 Ni58 2.143229 1_565
B30 Ni37 2.143229 1_655
B30 Ni48 2.211411 1_565
B30 Ni0 2.211411 1_655
B30 Ni52 2.326530 1_666
B31 Ni26 1.965568 1_555
B31 Ni22 2.013255 1_555
B31 Ni9 2.062754 1_555
B31 Ni59 2.098189 1_555
B31 Ni10 2.118302 1_555
B31 Ni31 2.485434 1_555
B31 Ni32 2.560455 1_555
B31 Yb3 2.741961 1_555
B32 Ni34 2.038073 1_555
B32 Ni29 2.063120 1_555
B32 Ni38 2.070667 1_555
B32 Ni24 2.122185 1_555
B32 Ni36 2.128724 1_555
B32 Ni45 2.147221 1_555
B32 Ni17 2.215253 1_555
B32 Yb3 2.940272 1_655
B33 Ni5 1.983694 1_555
B33 Ni46 2.022177 1_565
B33 Ni7 2.075350 1_565
B33 Ni58 2.090462 1_565
B33 Ni15 2.139792 1_556
B33 Ni3 2.139943 1_565
B33 Ni14 2.300710 1_556
B33 Yb4 2.912223 1_555
B34 Ni25 1.998290 1_555
B34 Ni33 2.026126 1_555
B34 Ni4 2.026126 1_555
B34 Ni48 2.155718 1_455
B34 Ni0 2.155718 1_545
B34 Ni47 2.157648 1_555
B34 Ni50 2.157648 1_555
B35 Ni24 1.965568 1_455
B35 Ni34 2.013255 1_455
B35 Ni37 2.062754 1_554
B35 Ni1 2.098189 1_554
B35 Ni18 2.118302 1_555
B35 Ni52 2.485434 1_565
B35 Ni14 2.560455 1_555
B35 Yb3 2.741961 1_555
