# generated using pymatgen
data_K6Ti2O7
_symmetry_space_group_name_H-M   'P 1'
_cell_length_a   9.38967600
_cell_length_b   6.64296800
_cell_length_c   11.45604310
_cell_angle_alpha   56.63205703
_cell_angle_beta   90.00000000
_cell_angle_gamma   90.00000000
_symmetry_Int_Tables_number   1
_chemical_formula_structural   K6Ti2O7
_chemical_formula_sum   'K12 Ti4 O14'
_cell_volume   596.78083732
_cell_formula_units_Z   2
loop_
 _symmetry_equiv_pos_site_id
 _symmetry_equiv_pos_as_xyz
  1  'x, y, z'
loop_
 _atom_site_type_symbol
 _atom_site_label
 _atom_site_symmetry_multiplicity
 _atom_site_fract_x
 _atom_site_fract_y
 _atom_site_fract_z
 _atom_site_occupancy
  K  K0  1  0.09458400  0.36638900  0.20624400  1
  K  K1  1  0.90541600  0.36638900  0.70624400  1
  K  K2  1  0.22103700  0.10153300  0.59693100  1
  K  K3  1  0.59133700  0.25263800  0.57462400  1
  K  K4  1  0.40866300  0.25263800  0.07462400  1
  K  K5  1  0.45736200  0.90177500  0.92137600  1
  K  K6  1  0.54263800  0.90177500  0.42137600  1
  K  K7  1  0.77896300  0.10153300  0.09693100  1
  K  K8  1  0.72516800  0.51485200  0.18707400  1
  K  K9  1  0.04567400  0.71675500  0.36204400  1
  K  K10  1  0.95432600  0.71675500  0.86204400  1
  K  K11  1  0.27483200  0.51485200  0.68707400  1
  Ti  Ti0  1  0.10721200  0.00163300  0.00735500  1
  Ti  Ti1  1  0.60546300  0.61946300  0.77410400  1
  Ti  Ti2  1  0.89278800  0.00163300  0.50735500  1
  Ti  Ti3  1  0.39453700  0.61946300  0.27410400  1
  O  O0  1  0.92412200  0.27437700  0.50501400  1
  O  O1  1  0.55384200  0.80468400  0.21855200  1
  O  O2  1  0.34298200  0.54707000  0.44597200  1
  O  O3  1  0.07587800  0.27437700  0.00501400  1
  O  O4  1  0.15120700  0.07305800  0.83421200  1
  O  O5  1  0.44615800  0.80468400  0.71855200  1
  O  O6  1  0.95271100  0.80477300  0.07207500  1
  O  O7  1  0.25569800  0.81923900  0.13696300  1
  O  O8  1  0.74430200  0.81923900  0.63696300  1
  O  O9  1  0.42176300  0.34716000  0.27465900  1
  O  O10  1  0.57823700  0.34716000  0.77465900  1
  O  O11  1  0.65701800  0.54707000  0.94597200  1
  O  O12  1  0.84879300  0.07305800  0.33421200  1
  O  O13  1  0.04728900  0.80477300  0.57207500  1
loop_
_geom_bond_atom_site_label_1
_geom_bond_atom_site_label_2
_geom_bond_distance
_geom_bond_site_symmetry_2
K0 O3 2.696086 1_555
K0 O6 2.773801 1_455
K0 O12 2.851347 1_455
K0 O7 3.056429 1_555
K0 O9 3.155678 1_555
K1 O0 2.696086 1_555
K1 O13 2.773801 1_655
K1 O4 2.851347 1_655
K1 O8 3.056429 1_555
K1 O10 3.155678 1_555
K2 O13 2.691925 1_545
K2 O5 2.697360 1_545
K2 O4 2.699859 1_555
K2 O2 2.726020 1_555
K2 O0 2.978215 1_455
K3 O10 2.691416 1_555
K3 O5 2.834552 1_545
K3 O2 2.874861 1_555
K3 O8 2.932601 1_545
K3 O0 3.208447 1_555
K4 O9 2.691416 1_555
K4 O1 2.834552 1_545
K4 O11 2.874861 1_554
K4 O7 2.932601 1_545
K4 O3 3.208447 1_555
K5 O10 2.719681 1_565
K5 O5 2.733958 1_555
K5 O11 2.900980 1_555
K5 O7 2.914855 1_556
K5 O4 3.050542 1_565
K5 O1 3.226702 1_556
K6 O9 2.719681 1_565
K6 O1 2.733958 1_555
K6 O2 2.900980 1_555
K6 O8 2.914855 1_555
K6 O12 3.050542 1_565
K6 O5 3.226702 1_555
K7 O6 2.691925 1_545
K7 O1 2.697360 1_545
K7 O12 2.699859 1_555
K7 O11 2.726020 1_554
K7 O3 2.978215 1_655
K8 O1 2.681166 1_555
K8 O6 2.686752 1_555
K8 O12 2.712955 1_555
K8 O11 2.726548 1_554
K8 O9 3.022292 1_555
K9 O0 2.706764 1_455
K9 O13 2.771124 1_555
K9 O12 2.879455 1_465
K9 O2 2.965810 1_555
K9 O7 3.011693 1_555
K9 O6 3.162628 1_455
K10 O3 2.706764 1_656
K10 O6 2.771124 1_556
K10 O4 2.879455 1_665
K10 O11 2.965810 1_555
K10 O8 3.011693 1_555
K10 O13 3.162628 1_655
K11 O5 2.681166 1_555
K11 O13 2.686752 1_555
K11 O4 2.712955 1_555
K11 O2 2.726548 1_555
K11 O10 3.022292 1_555
O0 Ti2 1.821142 1_555
O1 Ti3 1.815228 1_555
O2 Ti3 1.816784 1_555
O3 Ti0 1.821142 1_555
O4 Ti0 1.815188 1_556
O5 Ti1 1.815228 1_555
O6 Ti0 1.816007 1_665
O7 Ti3 1.906696 1_555
O7 Ti0 1.907246 1_565
O8 Ti1 1.906696 1_555
O8 Ti2 1.907246 1_565
O9 Ti3 1.823420 1_555
O10 Ti1 1.823420 1_555
O11 Ti1 1.816784 1_555
O12 Ti2 1.815188 1_555
O13 Ti2 1.816007 1_465
