# generated using pymatgen
data_Sr2PrGaCu2O7
_symmetry_space_group_name_H-M   'P 1'
_cell_length_a   12.20560467
_cell_length_b   12.20560467
_cell_length_c   12.20560467
_cell_angle_alpha   154.30537928
_cell_angle_beta   153.75904025
_cell_angle_gamma   37.05473316
_symmetry_Int_Tables_number   1
_chemical_formula_structural   Sr2PrGaCu2O7
_chemical_formula_sum   'Sr4 Pr2 Ga2 Cu4 O14'
_cell_volume   348.09196162
_cell_formula_units_Z   2
loop_
 _symmetry_equiv_pos_site_id
 _symmetry_equiv_pos_as_xyz
  1  'x, y, z'
loop_
 _atom_site_type_symbol
 _atom_site_label
 _atom_site_symmetry_multiplicity
 _atom_site_fract_x
 _atom_site_fract_y
 _atom_site_fract_z
 _atom_site_occupancy
  Sr  Sr0  1  0.16970133  0.65173810  0.51607346  1
  Sr  Sr1  1  0.83029867  0.34637213  0.48203677  1
  Sr  Sr2  1  0.63566464  0.15173810  0.48203677  1
  Sr  Sr3  1  0.36433536  0.84637213  0.51607346  1
  Pr  Pr0  1  -0.00000000  0.50122478  0.50122478  1
  Pr  Pr1  1  0.50000000  0.00122478  0.50122478  1
  Ga  Ga0  1  0.17995919  0.21420664  0.89416683  1
  Ga  Ga1  1  0.82004081  0.71420664  0.03424745  1
  Cu  Cu0  1  0.07569399  0.07850516  0.00092161  1
  Cu  Cu1  1  0.92430601  0.92522662  0.00281117  1
  Cu  Cu2  1  0.57758455  0.57850516  0.00281117  1
  Cu  Cu3  1  0.42241545  0.42522662  0.00092161  1
  O  O0  1  0.87268790  0.36773384  0.74042174  1
  O  O1  1  0.12731210  0.86773384  0.49504594  1
  O  O2  1  0.81897681  0.32102676  0.00170654  1
  O  O3  1  0.18102319  0.18272972  0.50204995  1
  O  O4  1  0.81932123  0.82102676  0.50204995  1
  O  O5  1  0.18067877  0.68272972  0.00170654  1
  O  O6  1  0.31524735  0.81757118  0.99917793  1
  O  O7  1  0.68475265  0.68393159  0.50232383  1
  O  O8  1  0.31839225  0.31757118  0.50232383  1
  O  O9  1  0.68160775  0.18393159  0.99917793  1
  O  O10  1  0.63155210  0.70549027  0.98259031  1
  O  O11  1  0.36844790  0.35103921  0.07393817  1
  O  O12  1  0.22289996  0.20549027  0.07393817  1
  O  O13  1  0.77710004  0.85103921  0.98259031  1
loop_
_geom_bond_atom_site_label_1
_geom_bond_atom_site_label_2
_geom_bond_distance
_geom_bond_site_symmetry_2
Ga0 O12 1.835566 1_556
Ga0 O11 1.835598 1_556
Ga0 O0 1.895682 1_455
Ga0 O1 1.903123 1_545
Ga1 O10 1.835578 1_554
Ga1 O13 1.835590 1_554
Ga1 O1 1.895680 1_655
Ga1 O0 1.903120 1_554
Cu0 O4 1.942503 1_444
Cu0 O2 1.943945 1_455
Cu0 O6 1.954233 1_544
Cu0 O8 1.958225 1_555
Cu0 O12 2.346861 1_555
Cu1 O5 1.942496 1_655
Cu1 O3 1.943946 1_665
Cu1 O7 1.954236 1_554
Cu1 O9 1.958232 1_564
Cu1 O13 2.346839 1_554
Cu2 O2 1.942501 1_555
Cu2 O4 1.943945 1_555
Cu2 O8 1.954236 1_554
Cu2 O6 1.958229 1_554
Cu2 O10 2.346850 1_554
Cu3 O3 1.942506 1_554
Cu3 O5 1.943950 1_555
Cu3 O9 1.954238 1_554
Cu3 O7 1.958228 1_555
Cu3 O11 2.346827 1_555
O0 Sr2 2.467398 1_555
O0 Sr1 2.467398 1_555
O1 Sr0 2.467398 1_555
O1 Sr3 2.467398 1_555
O2 Pr0 2.513008 1_655
O2 Pr1 2.515788 1_554
O2 Sr0 2.780391 1_655
O2 Sr2 2.794301 1_554
O3 Pr0 2.513008 1_555
O3 Pr1 2.515788 1_555
O3 Sr1 2.780390 1_455
O3 Sr3 2.794301 1_545
O4 Pr1 2.513018 1_565
O4 Pr0 2.515792 1_655
O4 Sr2 2.780385 1_565
O4 Sr0 2.794290 1_655
O5 Pr1 2.513015 1_565
O5 Pr0 2.515795 1_554
O5 Sr3 2.780382 1_555
O5 Sr1 2.794292 1_454
O6 Pr0 2.474175 1_555
O6 Pr1 2.486725 1_566
O6 Sr2 2.730479 1_566
O6 Sr0 2.731385 1_555
O7 Pr0 2.474170 1_655
O7 Pr1 2.486715 1_565
O7 Sr3 2.730485 1_555
O7 Sr1 2.731396 1_555
O8 Pr1 2.474170 1_555
O8 Pr0 2.486715 1_555
O8 Sr0 2.730485 1_555
O8 Sr2 2.731396 1_555
O9 Pr1 2.474160 1_555
O9 Pr0 2.486711 1_656
O9 Sr1 2.730496 1_556
O9 Sr3 2.731402 1_545
O10 Sr0 2.494006 1_555
O10 Sr2 2.622608 1_566
O10 Sr2 2.932441 1_555
O10 Sr0 3.173353 1_656
O11 Sr1 2.494006 1_555
O11 Sr3 2.622602 1_555
O11 Sr3 2.932441 1_544
O11 Sr1 3.173348 1_454
O12 Sr2 2.494006 1_555
O12 Sr0 2.622608 1_555
O12 Sr0 2.932441 1_544
O12 Sr2 3.173353 1_454
O13 Sr3 2.494001 1_555
O13 Sr1 2.622603 1_566
O13 Sr1 2.932441 1_555
O13 Sr3 3.173353 1_656
