# generated using pymatgen
data_Rb3Zr2P5S18
_symmetry_space_group_name_H-M   'P 1'
_cell_length_a   6.87203973
_cell_length_b   6.87203973
_cell_length_c   33.89701359
_cell_angle_alpha   86.13173872
_cell_angle_beta   86.13173872
_cell_angle_gamma   92.98228270
_symmetry_Int_Tables_number   1
_chemical_formula_structural   Rb3Zr2P5S18
_chemical_formula_sum   'Rb6 Zr4 P10 S36'
_cell_volume   1590.92266123
_cell_formula_units_Z   2
loop_
 _symmetry_equiv_pos_site_id
 _symmetry_equiv_pos_as_xyz
  1  'x, y, z'
loop_
 _atom_site_type_symbol
 _atom_site_label
 _atom_site_symmetry_multiplicity
 _atom_site_fract_x
 _atom_site_fract_y
 _atom_site_fract_z
 _atom_site_occupancy
  Rb  Rb0  1  0.72437312  0.54626483  0.86528252  1
  Rb  Rb1  1  0.54626483  0.72437312  0.36528252  1
  Rb  Rb2  1  0.08709762  0.32598282  0.25324092  1
  Rb  Rb3  1  0.32598282  0.08709762  0.75324092  1
  Rb  Rb4  1  0.20696692  0.01897513  0.56994565  1
  Rb  Rb5  1  0.01897513  0.20696692  0.06994565  1
  Zr  Zr0  1  0.87667001  0.46083982  0.46313097  1
  Zr  Zr1  1  0.46083982  0.87667001  0.96313097  1
  Zr  Zr2  1  0.62986663  0.48667528  0.65453946  1
  Zr  Zr3  1  0.48667528  0.62986663  0.15453946  1
  P  P0  1  0.82119511  0.25800423  0.37810390  1
  P  P1  1  0.92586201  0.99674776  0.94440031  1
  P  P2  1  0.72311348  0.44216255  0.55844704  1
  P  P3  1  0.25800423  0.82119511  0.87810390  1
  P  P4  1  0.36495316  0.81811617  0.23971511  1
  P  P5  1  0.17432769  0.58456466  0.67367130  1
  P  P6  1  0.58456466  0.17432769  0.17367130  1
  P  P7  1  0.81811617  0.36495316  0.73971511  1
  P  P8  1  0.44216255  0.72311348  0.05844704  1
  P  P9  1  0.99674776  0.92586201  0.44440031  1
  S  S0  1  0.20216298  0.80332502  0.19212588  1
  S  S1  1  0.61442163  0.56126513  0.72967136  1
  S  S2  1  0.79030634  0.39656501  0.16832379  1
  S  S3  1  0.69008346  0.95983219  0.14183623  1
  S  S4  1  0.60211242  0.66895358  0.58512760  1
  S  S5  1  0.19477042  0.72201773  0.44983431  1
  S  S6  1  0.71349707  0.24786438  0.32606790  1
  S  S7  1  0.80332502  0.20216298  0.69212588  1
  S  S8  1  0.56126513  0.61442163  0.22967136  1
  S  S9  1  0.72201773  0.19477042  0.94983431  1
  S  S10  1  0.15434347  0.08015304  0.97536443  1
  S  S11  1  0.22158149  0.81226674  0.29172334  1
  S  S12  1  0.48607033  0.00596211  0.88808470  1
  S  S13  1  0.95983219  0.69008346  0.64183623  1
  S  S14  1  0.32996435  0.27695312  0.15553840  1
  S  S15  1  0.27695312  0.32996435  0.65553840  1
  S  S16  1  0.39656501  0.79030634  0.66832379  1
  S  S17  1  0.62260002  0.25594885  0.42521616  1
  S  S18  1  0.57324737  0.35662665  0.51227968  1
  S  S19  1  0.09382755  0.53597520  0.73512452  1
  S  S20  1  0.81226674  0.22158149  0.79172334  1
  S  S21  1  0.71437427  0.22688426  0.60323811  1
  S  S22  1  0.08015304  0.15434347  0.47536443  1
  S  S23  1  0.51039290  -0.00042931  0.03451649  1
  S  S24  1  0.99093870  0.00348373  0.38272083  1
  S  S25  1  0.25594885  0.62260002  0.92521616  1
  S  S26  1  0.72942172  0.79995508  0.46296010  1
  S  S27  1  0.00596211  0.48607033  0.38808470  1
  S  S28  1  0.00348373  0.99093870  0.88272083  1
  S  S29  1  0.53597520  0.09382755  0.23512452  1
  S  S30  1  0.35662665  0.57324737  0.01227968  1
  S  S31  1  0.79995508  0.72942172  0.96296010  1
  S  S32  1  0.22688426  0.71437427  0.10323811  1
  S  S33  1  0.24786438  0.71349707  0.82606790  1
  S  S34  1  -0.00042931  0.51039290  0.53451649  1
  S  S35  1  0.66895358  0.60211242  0.08512760  1
loop_
_geom_bond_atom_site_label_1
_geom_bond_atom_site_label_2
_geom_bond_distance
_geom_bond_site_symmetry_2
Rb0 S20 3.499735 1_555
Rb0 S9 3.620039 1_555
Rb0 S28 3.626731 1_655
Rb0 S31 3.680065 1_555
Rb0 S12 3.735754 1_565
Rb0 S25 3.768521 1_555
Rb0 S33 3.818813 1_555
Rb0 S33 3.840287 1_655
Rb1 S11 3.499735 1_555
Rb1 S5 3.620039 1_555
Rb1 S24 3.626731 1_565
Rb1 S26 3.680065 1_555
Rb1 S27 3.735754 1_655
Rb1 S17 3.768521 1_555
Rb1 S6 3.818813 1_555
Rb1 S6 3.840287 1_565
Rb2 S6 3.434592 1_455
Rb2 S29 3.581400 1_555
Rb2 S14 3.651098 1_555
Rb2 S2 3.658846 1_455
Rb2 S8 3.734713 1_555
Rb2 S11 3.761980 1_555
Rb2 S0 3.777500 1_555
Rb2 S11 3.859966 1_545
Rb3 S33 3.434592 1_545
Rb3 S19 3.581400 1_555
Rb3 S15 3.651098 1_555
Rb3 S16 3.658846 1_545
Rb3 S1 3.734713 1_555
Rb3 S20 3.761980 1_555
Rb3 S7 3.777500 1_555
Rb3 S20 3.859966 1_455
Rb4 S22 3.458661 1_555
Rb4 S13 3.497145 1_445
Rb4 S18 3.695554 1_555
Rb4 S4 3.758388 1_545
Rb4 S15 3.759566 1_555
Rb4 S21 3.870309 1_455
Rb4 S34 3.881048 1_555
Rb4 S16 3.921685 1_545
Rb4 S21 3.962780 1_555
Rb4 S34 3.995937 1_545
Rb5 S10 3.458661 1_554
Rb5 S3 3.497145 1_445
Rb5 S30 3.695554 1_555
Rb5 S35 3.758388 1_455
Rb5 S14 3.759566 1_555
Rb5 S32 3.870309 1_545
Rb5 S23 3.881048 1_555
Rb5 S2 3.921685 1_455
Rb5 S32 3.962780 1_555
Rb5 S23 3.995937 1_455
P0 S6 1.962444 1_555
P0 S27 2.026194 1_655
P0 S17 2.028284 1_555
P0 S24 2.155096 1_555
P1 S9 2.011326 1_565
P1 S10 2.026169 1_665
P1 S31 2.030885 1_555
P1 S28 2.126116 1_655
P2 S18 2.033172 1_555
P2 S34 2.033531 1_655
P2 S4 2.040071 1_555
P2 S21 2.042745 1_555
P3 S33 1.962444 1_555
P3 S12 2.026194 1_565
P3 S25 2.028284 1_555
P3 S28 2.155096 1_555
P4 S11 1.957602 1_555
P4 S8 2.023398 1_555
P4 S0 2.029236 1_555
P4 S29 2.167764 1_565
P5 S16 2.016846 1_555
P5 S13 2.020717 1_455
P5 S15 2.037488 1_555
P5 S19 2.118537 1_555
P6 S2 2.016846 1_555
P6 S3 2.020717 1_545
P6 S14 2.037488 1_555
P6 S29 2.118537 1_555
P7 S20 1.957602 1_555
P7 S1 2.023398 1_555
P7 S7 2.029236 1_555
P7 S19 2.167764 1_655
P8 S30 2.033172 1_555
P8 S23 2.033531 1_565
P8 S35 2.040071 1_555
P8 S32 2.042745 1_555
P9 S5 2.011326 1_655
P9 S22 2.026169 1_665
P9 S26 2.030885 1_555
P9 S24 2.126116 1_565
S0 Zr3 2.641626 1_555
S1 Zr2 2.627785 1_555
S2 Zr3 2.742457 1_555
S3 Zr3 2.595823 1_555
S4 Zr2 2.613258 1_555
S5 Zr0 2.748234 1_455
S7 Zr2 2.641626 1_555
S8 Zr3 2.627785 1_555
S9 Zr1 2.748234 1_545
S10 Zr1 2.613521 1_545
S12 Zr1 2.628715 1_545
S13 Zr2 2.595823 1_555
S14 Zr3 2.599021 1_555
S15 Zr2 2.599021 1_555
S16 Zr2 2.742457 1_555
S17 Zr0 2.640798 1_555
S18 Zr0 2.617466 1_555
S21 Zr2 2.634204 1_555
S22 Zr0 2.613521 1_455
S23 Zr1 2.653580 1_544
S25 Zr1 2.640798 1_555
S26 Zr0 2.588269 1_555
S27 Zr0 2.628715 1_455
S30 Zr1 2.617466 1_554
S31 Zr1 2.588269 1_555
S32 Zr3 2.634204 1_555
S34 Zr0 2.653580 1_455
S35 Zr3 2.613258 1_555
