# generated using pymatgen
data_K9Bi5O13
_symmetry_space_group_name_H-M   'P 1'
_cell_length_a   5.82338700
_cell_length_b   15.37680200
_cell_length_c   27.33690121
_cell_angle_alpha   68.96892611
_cell_angle_beta   90.00000000
_cell_angle_gamma   90.00000000
_symmetry_Int_Tables_number   1
_chemical_formula_structural   K9Bi5O13
_chemical_formula_sum   'K36 Bi20 O52'
_cell_volume   2284.82114229
_cell_formula_units_Z   4
loop_
 _symmetry_equiv_pos_site_id
 _symmetry_equiv_pos_as_xyz
  1  'x, y, z'
loop_
 _atom_site_type_symbol
 _atom_site_label
 _atom_site_symmetry_multiplicity
 _atom_site_fract_x
 _atom_site_fract_y
 _atom_site_fract_z
 _atom_site_occupancy
  K  K0  1  0.75938400  0.52549700  0.80040600  1
  K  K1  1  0.24061600  0.47450300  0.19959400  1
  K  K2  1  0.26389900  0.12234200  0.80225700  1
  K  K3  1  0.76389900  0.87765800  0.69774300  1
  K  K4  1  0.76853300  0.44114300  0.11421000  1
  K  K5  1  0.24936600  0.76769800  0.41884900  1
  K  K6  1  0.73146700  0.44114300  0.61421000  1
  K  K7  1  0.74503900  0.35792500  0.93950300  1
  K  K8  1  0.31361000  0.82872800  0.60017000  1
  K  K9  1  0.75587300  0.80592600  0.99740200  1
  K  K10  1  0.25044000  0.70229300  0.74043300  1
  K  K11  1  0.74956000  0.29770700  0.25956700  1
  K  K12  1  0.18639000  0.82872800  0.10017000  1
  K  K13  1  0.75422200  0.08865500  0.21830400  1
  K  K14  1  0.25496100  0.64207500  0.06049700  1
  K  K15  1  0.74936600  0.23230200  0.08115100  1
  K  K16  1  0.68639000  0.17127200  0.39983000  1
  K  K17  1  0.74412700  0.80592600  0.49740200  1
  K  K18  1  0.25422200  0.91134500  0.28169600  1
  K  K19  1  0.24503900  0.64207500  0.56049700  1
  K  K20  1  0.24412700  0.19407400  0.00259800  1
  K  K21  1  0.23146700  0.55885700  0.88579000  1
  K  K22  1  0.26853300  0.55885700  0.38579000  1
  K  K23  1  0.23610100  0.12234200  0.30225700  1
  K  K24  1  0.25938400  0.47450300  0.69959400  1
  K  K25  1  0.75063400  0.23230200  0.58115100  1
  K  K26  1  0.25587300  0.19407400  0.50259800  1
  K  K27  1  0.75496100  0.35792500  0.43950300  1
  K  K28  1  0.75044000  0.29770700  0.75956700  1
  K  K29  1  0.25063400  0.76769800  0.91884900  1
  K  K30  1  0.81361000  0.17127200  0.89983000  1
  K  K31  1  0.74577800  0.08865500  0.71830400  1
  K  K32  1  0.73610100  0.87765800  0.19774300  1
  K  K33  1  0.74061600  0.52549700  0.30040600  1
  K  K34  1  0.24577800  0.91134500  0.78169600  1
  K  K35  1  0.24956000  0.70229300  0.24043300  1
  Bi  Bi0  1  0.77892800  0.57709300  0.46881500  1
  Bi  Bi1  1  0.79717800  0.63673700  0.66267100  1
  Bi  Bi2  1  0.24273500  0.26125500  0.16120700  1
  Bi  Bi3  1  0.73850900  0.96062500  0.86459900  1
  Bi  Bi4  1  0.20282200  0.36326300  0.33732900  1
  Bi  Bi5  1  0.76149100  0.96062500  0.36459900  1
  Bi  Bi6  1  0.72107200  0.57709300  0.96881500  1
  Bi  Bi7  1  0.20132200  0.97515000  0.45871400  1
  Bi  Bi8  1  0.25726500  0.26125500  0.66120700  1
  Bi  Bi9  1  0.70132200  0.02485000  0.04128600  1
  Bi  Bi10  1  0.79867800  0.02485000  0.54128600  1
  Bi  Bi11  1  0.29717800  0.36326300  0.83732900  1
  Bi  Bi12  1  0.29867800  0.97515000  0.95871400  1
  Bi  Bi13  1  0.26149100  0.03937500  0.13540100  1
  Bi  Bi14  1  0.23850900  0.03937500  0.63540100  1
  Bi  Bi15  1  0.74273500  0.73874500  0.33879300  1
  Bi  Bi16  1  0.75726500  0.73874500  0.83879300  1
  Bi  Bi17  1  0.27892800  0.42290700  0.03118500  1
  Bi  Bi18  1  0.70282200  0.63673700  0.16267100  1
  Bi  Bi19  1  0.22107200  0.42290700  0.53118500  1
  O  O0  1  0.26895300  0.10272100  0.19689200  1
  O  O1  1  0.74433600  0.49629200  0.69905500  1
  O  O2  1  0.29954400  0.29961000  0.28649800  1
  O  O3  1  0.76952800  0.55646600  0.39708300  1
  O  O4  1  0.75566400  0.49629200  0.19905500  1
  O  O5  1  0.66135600  0.68170100  0.58916300  1
  O  O6  1  0.37553400  0.95701400  0.87662700  1
  O  O7  1  0.83864400  0.68170100  0.08916300  1
  O  O8  1  0.83685400  0.99149700  0.46225100  1
  O  O9  1  0.35703000  0.65756400  0.15394100  1
  O  O10  1  0.26418000  0.90010300  0.68485200  1
  O  O11  1  0.23582000  0.90010300  0.18485200  1
  O  O12  1  0.74334800  0.73644500  0.91752900  1
  O  O13  1  0.25665200  0.26355500  0.08247100  1
  O  O14  1  0.14297000  0.65756400  0.65394100  1
  O  O15  1  0.20045600  0.29961000  0.78649800  1
  O  O16  1  0.76296100  0.16650600  0.50059500  1
  O  O17  1  0.76895300  0.89727900  0.30310800  1
  O  O18  1  0.24433600  0.50370800  0.80094500  1
  O  O19  1  0.79954400  0.70039000  0.21350200  1
  O  O20  1  0.39194500  0.73415100  0.32959100  1
  O  O21  1  0.62446600  0.04298600  0.12337300  1
  O  O22  1  0.73703900  0.16650600  0.00059500  1
  O  O23  1  0.63910300  0.41570400  0.02110000  1
  O  O24  1  0.26296100  0.83349400  0.99940500  1
  O  O25  1  0.70045600  0.70039000  0.71350200  1
  O  O26  1  0.10805500  0.73415100  0.82959100  1
  O  O27  1  0.64297000  0.34243600  0.84605900  1
  O  O28  1  0.16314600  0.00850300  0.53774900  1
  O  O29  1  0.16135600  0.31829900  0.91083700  1
  O  O30  1  0.85703000  0.34243600  0.34605900  1
  O  O31  1  0.33864400  0.31829900  0.41083700  1
  O  O32  1  0.76418000  0.09989700  0.81514800  1
  O  O33  1  0.24334800  0.26355500  0.58247100  1
  O  O34  1  0.73582000  0.09989700  0.31514800  1
  O  O35  1  0.33685400  0.00850300  0.03774900  1
  O  O36  1  0.12446600  0.95701400  0.37662700  1
  O  O37  1  0.89194500  0.26584900  0.17040900  1
  O  O38  1  0.86089700  0.41570400  0.52110000  1
  O  O39  1  0.73047200  0.55646600  0.89708300  1
  O  O40  1  0.75665200  0.73644500  0.41752900  1
  O  O41  1  0.87553400  0.04298600  0.62337300  1
  O  O42  1  0.23047200  0.44353400  0.60291700  1
  O  O43  1  0.23104700  0.10272100  0.69689200  1
  O  O44  1  0.36089700  0.58429600  0.97890000  1
  O  O45  1  0.25566400  0.50370800  0.30094500  1
  O  O46  1  0.23703900  0.83349400  0.49940500  1
  O  O47  1  0.26952800  0.44353400  0.10291700  1
  O  O48  1  0.13910300  0.58429600  0.47890000  1
  O  O49  1  0.60805500  0.26584900  0.67040900  1
  O  O50  1  0.66314600  0.99149700  0.96225100  1
  O  O51  1  0.73104700  0.89727900  0.80310800  1
loop_
_geom_bond_atom_site_label_1
_geom_bond_atom_site_label_2
_geom_bond_distance
_geom_bond_site_symmetry_2
K0 O27 2.723834 1_555
K0 O18 2.843284 1_655
K0 O39 2.853609 1_555
K0 O25 2.899709 1_555
K0 O1 2.962894 1_555
K0 O18 3.017428 1_555
K1 O9 2.723834 1_555
K1 O4 2.843284 1_455
K1 O47 2.853609 1_555
K1 O2 2.899709 1_555
K1 O45 2.962894 1_555
K1 O4 3.017428 1_555
K2 O15 2.628557 1_555
K2 O6 2.703538 1_545
K2 O32 2.936739 1_455
K2 O32 2.939983 1_555
K2 O43 3.007956 1_555
K3 O25 2.628557 1_555
K3 O41 2.703538 1_565
K3 O10 2.936739 1_555
K3 O10 2.939983 1_655
K3 O51 3.007956 1_555
K4 O37 2.677687 1_555
K4 O4 2.741549 1_555
K4 O23 2.813271 1_555
K4 O47 2.921089 1_555
K4 O47 2.932617 1_655
K5 O46 2.734476 1_555
K5 O48 2.781634 1_555
K5 O20 2.795117 1_555
K5 O36 2.814952 1_555
K5 O40 2.911593 1_455
K5 O40 2.995253 1_555
K6 O49 2.677687 1_555
K6 O1 2.741549 1_555
K6 O38 2.813271 1_555
K6 O42 2.921089 1_655
K6 O42 2.932617 1_555
K7 O29 2.684339 1_655
K7 O27 2.715145 1_555
K7 O23 2.750996 1_556
K7 O22 2.815446 1_556
K7 O39 2.851539 1_555
K8 O14 2.701576 1_555
K8 O46 2.765347 1_555
K8 O28 2.817011 1_565
K8 O10 2.910318 1_555
K8 O5 3.129043 1_555
K9 O7 2.595059 1_556
K9 O50 2.718327 1_555
K9 O12 2.754769 1_555
K9 O24 2.904936 1_555
K9 O24 2.986534 1_655
K10 O25 2.725061 1_555
K10 O14 2.760878 1_555
K10 O26 2.779372 1_555
K10 O10 2.872236 1_555
K10 O18 2.904582 1_555
K10 O25 3.288778 1_455
K11 O2 2.725061 1_555
K11 O30 2.760878 1_555
K11 O37 2.779372 1_555
K11 O34 2.872236 1_555
K11 O4 2.904582 1_555
K11 O2 3.288778 1_655
K12 O9 2.701576 1_555
K12 O24 2.765347 1_554
K12 O35 2.817011 1_565
K12 O11 2.910318 1_555
K12 O7 3.129043 1_455
K13 O37 2.687164 1_555
K13 O34 2.716367 1_555
K13 O0 2.878245 1_555
K13 O21 3.017744 1_555
K13 O17 3.024069 1_545
K13 O0 3.046868 1_655
K14 O7 2.684339 1_455
K14 O9 2.715145 1_555
K14 O44 2.750996 1_554
K14 O24 2.815446 1_554
K14 O47 2.851539 1_555
K15 O22 2.734476 1_555
K15 O23 2.781634 1_555
K15 O37 2.795117 1_555
K15 O21 2.814952 1_555
K15 O13 2.911593 1_555
K15 O13 2.995253 1_655
K16 O30 2.701576 1_555
K16 O16 2.765347 1_555
K16 O8 2.817011 1_545
K16 O34 2.910318 1_555
K16 O31 3.129043 1_555
K17 O5 2.595059 1_555
K17 O8 2.718327 1_555
K17 O40 2.754769 1_555
K17 O46 2.904936 1_655
K17 O46 2.986534 1_555
K18 O20 2.687164 1_555
K18 O11 2.716367 1_555
K18 O17 2.878245 1_455
K18 O36 3.017744 1_555
K18 O0 3.024069 1_565
K18 O17 3.046868 1_555
K19 O5 2.684339 1_555
K19 O14 2.715145 1_555
K19 O48 2.750996 1_555
K19 O46 2.815446 1_555
K19 O42 2.851539 1_555
K20 O29 2.595059 1_554
K20 O35 2.718327 1_555
K20 O13 2.754769 1_555
K20 O22 2.904936 1_555
K20 O22 2.986534 1_455
K21 O26 2.677687 1_555
K21 O18 2.741549 1_555
K21 O44 2.813271 1_555
K21 O39 2.921089 1_555
K21 O39 2.932617 1_455
K22 O20 2.677687 1_555
K22 O45 2.741549 1_555
K22 O48 2.813271 1_555
K22 O3 2.921089 1_455
K22 O3 2.932617 1_555
K23 O2 2.628557 1_555
K23 O36 2.703538 1_545
K23 O34 2.936739 1_555
K23 O34 2.939983 1_455
K23 O0 3.007956 1_555
K24 O14 2.723834 1_555
K24 O1 2.843284 1_555
K24 O42 2.853609 1_555
K24 O15 2.899709 1_555
K24 O18 2.962894 1_555
K24 O1 3.017428 1_455
K25 O16 2.734476 1_555
K25 O38 2.781634 1_555
K25 O49 2.795117 1_555
K25 O41 2.814952 1_555
K25 O33 2.911593 1_655
K25 O33 2.995253 1_555
K26 O31 2.595059 1_555
K26 O28 2.718327 1_555
K26 O33 2.754769 1_555
K26 O16 2.904936 1_455
K26 O16 2.986534 1_555
K27 O31 2.684339 1_555
K27 O30 2.715145 1_555
K27 O38 2.750996 1_555
K27 O16 2.815446 1_555
K27 O3 2.851539 1_555
K28 O15 2.725061 1_655
K28 O27 2.760878 1_555
K28 O49 2.779372 1_555
K28 O32 2.872236 1_555
K28 O1 2.904582 1_555
K28 O15 3.288778 1_555
K29 O24 2.734476 1_555
K29 O44 2.781634 1_555
K29 O26 2.795117 1_555
K29 O6 2.814952 1_555
K29 O12 2.911593 1_555
K29 O12 2.995253 1_455
K30 O27 2.701576 1_555
K30 O22 2.765347 1_556
K30 O50 2.817011 1_545
K30 O32 2.910318 1_555
K30 O29 3.129043 1_655
K31 O49 2.687164 1_555
K31 O32 2.716367 1_555
K31 O43 2.878245 1_655
K31 O41 3.017744 1_555
K31 O51 3.024069 1_545
K31 O43 3.046868 1_555
K32 O19 2.628557 1_555
K32 O21 2.703538 1_565
K32 O11 2.936739 1_655
K32 O11 2.939983 1_555
K32 O17 3.007956 1_555
K33 O30 2.723834 1_555
K33 O45 2.843284 1_555
K33 O3 2.853609 1_555
K33 O19 2.899709 1_555
K33 O4 2.962894 1_555
K33 O45 3.017428 1_655
K34 O26 2.687164 1_555
K34 O10 2.716367 1_555
K34 O51 2.878245 1_555
K34 O6 3.017744 1_555
K34 O43 3.024069 1_565
K34 O51 3.046868 1_455
K35 O19 2.725061 1_455
K35 O9 2.760878 1_555
K35 O20 2.779372 1_555
K35 O11 2.872236 1_555
K35 O45 2.904582 1_555
K35 O19 3.288778 1_555
Bi0 O3 2.096487 1_555
Bi0 O48 2.123544 1_655
Bi0 O40 2.349638 1_555
Bi0 O38 2.425585 1_555
Bi1 O5 2.035788 1_555
Bi1 O14 2.039502 1_655
Bi1 O25 2.045076 1_555
Bi1 O1 2.050879 1_555
Bi2 O37 2.062522 1_455
Bi2 O13 2.141495 1_555
Bi2 O0 2.282695 1_555
Bi2 O47 2.685868 1_555
Bi3 O32 2.087624 1_565
Bi3 O6 2.136822 1_555
Bi3 O51 2.225212 1_555
Bi4 O31 2.035788 1_555
Bi4 O30 2.039502 1_455
Bi4 O2 2.045076 1_555
Bi4 O45 2.050879 1_555
Bi5 O34 2.087624 1_565
Bi5 O36 2.136822 1_655
Bi5 O17 2.225212 1_555
Bi6 O39 2.096487 1_555
Bi6 O44 2.123544 1_555
Bi6 O12 2.349638 1_555
Bi6 O23 2.425585 1_556
Bi7 O46 2.070304 1_555
Bi7 O8 2.143530 1_455
Bi7 O36 2.400583 1_555
Bi7 O28 2.403298 1_565
Bi8 O49 2.062522 1_555
Bi8 O33 2.141495 1_555
Bi8 O43 2.282695 1_555
Bi8 O42 2.685868 1_555
Bi9 O22 2.070304 1_555
Bi9 O35 2.143530 1_555
Bi9 O21 2.400583 1_555
Bi9 O50 2.403298 1_544
Bi10 O16 2.070304 1_555
Bi10 O28 2.143530 1_655
Bi10 O41 2.400583 1_555
Bi10 O8 2.403298 1_545
Bi11 O29 2.035788 1_555
Bi11 O27 2.039502 1_555
Bi11 O15 2.045076 1_555
Bi11 O18 2.050879 1_555
Bi12 O24 2.070304 1_555
Bi12 O50 2.143530 1_555
Bi12 O6 2.400583 1_555
Bi12 O35 2.403298 1_566
Bi13 O11 2.087624 1_545
Bi13 O21 2.136822 1_555
Bi13 O0 2.225212 1_555
Bi14 O10 2.087624 1_545
Bi14 O41 2.136822 1_455
Bi14 O43 2.225212 1_555
Bi15 O20 2.062522 1_555
Bi15 O40 2.141495 1_555
Bi15 O17 2.282695 1_555
Bi15 O3 2.685868 1_555
Bi16 O26 2.062522 1_655
Bi16 O12 2.141495 1_555
Bi16 O51 2.282695 1_555
Bi16 O39 2.685868 1_555
Bi17 O47 2.096487 1_555
Bi17 O23 2.123544 1_555
Bi17 O13 2.349638 1_555
Bi17 O44 2.425585 1_554
Bi18 O7 2.035788 1_555
Bi18 O9 2.039502 1_555
Bi18 O19 2.045076 1_555
Bi18 O4 2.050879 1_555
Bi19 O42 2.096487 1_555
Bi19 O38 2.123544 1_455
Bi19 O33 2.349638 1_555
Bi19 O48 2.425585 1_555
