# generated using pymatgen
data_K2HgC2S2(BrN)2
_symmetry_space_group_name_H-M   'P 1'
_cell_length_a   13.23250656
_cell_length_b   13.23250656
_cell_length_c   11.70173300
_cell_angle_alpha   90.00000000
_cell_angle_beta   90.00000000
_cell_angle_gamma   120.00000281
_symmetry_Int_Tables_number   1
_chemical_formula_structural   K2HgC2S2(BrN)2
_chemical_formula_sum   'K12 Hg6 C12 S12 Br12 N12'
_cell_volume   1774.45520351
_cell_formula_units_Z   6
loop_
 _symmetry_equiv_pos_site_id
 _symmetry_equiv_pos_as_xyz
  1  'x, y, z'
loop_
 _atom_site_type_symbol
 _atom_site_label
 _atom_site_symmetry_multiplicity
 _atom_site_fract_x
 _atom_site_fract_y
 _atom_site_fract_z
 _atom_site_occupancy
  K  K0  1  0.85662400  0.53159600  0.25000000  1
  K  K1  1  0.33333300  0.66666700  0.45193800  1
  K  K2  1  0.67497200  0.14337600  0.25000000  1
  K  K3  1  0.14337600  0.46840400  0.75000000  1
  K  K4  1  0.66666700  0.33333300  0.95193800  1
  K  K5  1  0.32502800  0.85662400  0.75000000  1
  K  K6  1  0.46840400  0.32502800  0.25000000  1
  K  K7  1  0.33333300  0.66666700  0.04806200  1
  K  K8  1  0.53159600  0.67497200  0.75000000  1
  K  K9  1  0.00000000  0.00000000  0.50000000  1
  K  K10  1  0.66666700  0.33333300  0.54806200  1
  K  K11  1  0.00000000  0.00000000  0.00000000  1
  Hg  Hg0  1  0.86222100  0.67339100  0.75000000  1
  Hg  Hg1  1  0.81117000  0.13777900  0.75000000  1
  Hg  Hg2  1  0.67339100  0.81117000  0.25000000  1
  Hg  Hg3  1  0.13777900  0.32660900  0.25000000  1
  Hg  Hg4  1  0.32660900  0.18883000  0.75000000  1
  Hg  Hg5  1  0.18883000  0.86222100  0.25000000  1
  C  C0  1  0.06684100  0.65996800  0.58710700  1
  C  C1  1  0.40687200  0.06684100  0.08710700  1
  C  C2  1  0.34003200  0.40687200  0.58710700  1
  C  C3  1  0.93315900  0.34003200  0.41289300  1
  C  C4  1  0.65996800  0.59312800  0.41289300  1
  C  C5  1  0.59312800  0.93315900  0.91289300  1
  C  C6  1  0.65996800  0.59312800  0.08710700  1
  C  C7  1  0.59312800  0.93315900  0.58710700  1
  C  C8  1  0.06684100  0.65996800  0.91289300  1
  C  C9  1  0.93315900  0.34003200  0.08710700  1
  C  C10  1  0.34003200  0.40687200  0.91289300  1
  C  C11  1  0.40687200  0.06684100  0.41289300  1
  S  S0  1  0.94754800  0.66337600  0.94670800  1
  S  S1  1  0.28417200  0.94754800  0.05329200  1
  S  S2  1  0.05245200  0.33662400  0.05329200  1
  S  S3  1  0.28417200  0.94754800  0.44670800  1
  S  S4  1  0.71582800  0.05245200  0.94670800  1
  S  S5  1  0.05245200  0.33662400  0.44670800  1
  S  S6  1  0.66337600  0.71582800  0.44670800  1
  S  S7  1  0.33662400  0.28417200  0.94670800  1
  S  S8  1  0.71582800  0.05245200  0.55329200  1
  S  S9  1  0.33662400  0.28417200  0.55329200  1
  S  S10  1  0.66337600  0.71582800  0.05329200  1
  S  S11  1  0.94754800  0.66337600  0.55329200  1
  Br  Br0  1  0.85886100  0.36340900  0.75000000  1
  Br  Br1  1  0.18002300  0.14815300  0.25000000  1
  Br  Br2  1  0.85184700  0.03187000  0.25000000  1
  Br  Br3  1  0.63659100  0.49545200  0.75000000  1
  Br  Br4  1  0.14113900  0.63659100  0.25000000  1
  Br  Br5  1  0.96813000  0.81997700  0.25000000  1
  Br  Br6  1  0.49545200  0.85886100  0.25000000  1
  Br  Br7  1  0.81997700  0.85184700  0.75000000  1
  Br  Br8  1  0.03187000  0.18002300  0.75000000  1
  Br  Br9  1  0.36340900  0.50454800  0.25000000  1
  Br  Br10  1  0.50454800  0.14113900  0.75000000  1
  Br  Br11  1  0.14815300  0.96813000  0.75000000  1
  N  N0  1  0.84609200  0.34157800  0.39382600  1
  N  N1  1  0.34157800  0.49548600  0.89382600  1
  N  N2  1  0.15390800  0.65842200  0.89382600  1
  N  N3  1  0.49548600  0.15390800  0.39382600  1
  N  N4  1  0.84609200  0.34157800  0.10617400  1
  N  N5  1  0.50451400  0.84609200  0.60617400  1
  N  N6  1  0.49548600  0.15390800  0.10617400  1
  N  N7  1  0.65842200  0.50451400  0.39382600  1
  N  N8  1  0.50451400  0.84609200  0.89382600  1
  N  N9  1  0.34157800  0.49548600  0.60617400  1
  N  N10  1  0.65842200  0.50451400  0.10617400  1
  N  N11  1  0.15390800  0.65842200  0.60617400  1
loop_
_geom_bond_atom_site_label_1
_geom_bond_atom_site_label_2
_geom_bond_distance
_geom_bond_site_symmetry_2
K0 N0 2.970491 1_555
K0 N4 2.970491 1_555
K0 N7 2.983233 1_555
K0 N10 2.983233 1_555
K1 N11 2.940630 1_555
K1 N5 2.940634 1_555
K1 N9 2.940640 1_555
K2 N3 2.970491 1_555
K2 N6 2.970491 1_555
K2 N0 2.983233 1_555
K2 N4 2.983233 1_555
K3 N11 2.970491 1_555
K3 N2 2.970491 1_555
K3 N1 2.983233 1_555
K3 N9 2.983233 1_555
K4 N4 2.940630 1_556
K4 N6 2.940634 1_556
K4 N10 2.940640 1_556
K5 N5 2.970491 1_555
K5 N8 2.970491 1_555
K5 N11 2.983233 1_555
K5 N2 2.983233 1_555
K6 N7 2.970491 1_555
K6 N10 2.970491 1_555
K6 N3 2.983233 1_555
K6 N6 2.983233 1_555
K7 N2 2.940630 1_554
K7 N8 2.940634 1_554
K7 N1 2.940640 1_554
K8 N1 2.970491 1_555
K8 N9 2.970491 1_555
K8 N8 2.983233 1_555
K8 N5 2.983233 1_555
K10 N0 2.940630 1_555
K10 N3 2.940634 1_555
K10 N7 2.940640 1_555
Hg0 S11 2.596235 1_555
Hg0 S0 2.596235 1_555
Hg1 S4 2.596235 1_555
Hg1 S8 2.596235 1_555
Hg2 S10 2.596235 1_555
Hg2 S6 2.596235 1_555
Hg3 S2 2.596235 1_555
Hg3 S5 2.596235 1_555
Hg4 S9 2.596235 1_555
Hg4 S7 2.596235 1_555
Hg5 S3 2.596235 1_555
Hg5 S1 2.596235 1_555
C0 N11 1.183696 1_555
C0 S11 1.649727 1_455
C1 N6 1.183703 1_555
C1 S1 1.649720 1_545
C2 N9 1.183709 1_555
C2 S9 1.649714 1_555
C3 N0 1.183696 1_555
C3 S5 1.649727 1_655
C4 N7 1.183709 1_555
C4 S6 1.649714 1_555
C5 N8 1.183703 1_555
C5 S4 1.649720 1_565
C6 N10 1.183709 1_555
C6 S10 1.649714 1_555
C7 N5 1.183703 1_555
C7 S8 1.649720 1_565
C8 N2 1.183696 1_555
C8 S0 1.649727 1_455
C9 N4 1.183696 1_555
C9 S2 1.649727 1_655
C10 N1 1.183709 1_555
C10 S7 1.649714 1_555
C11 N3 1.183703 1_555
C11 S3 1.649720 1_545
Br0 Hg1 2.725473 1_555
Br0 K3 3.297526 1_655
Br0 K4 3.346346 1_555
Br0 K10 3.346346 1_555
Br1 Hg3 2.684921 1_555
Br1 K6 3.332936 1_555
Br1 K9 3.661430 1_555
Br1 K11 3.661430 1_555
Br2 Hg2 2.684921 1_545
Br2 K2 3.332937 1_555
Br2 K11 3.661430 1_655
Br2 K9 3.661430 1_655
Br3 Hg0 2.725473 1_555
Br3 K8 3.297526 1_555
Br3 K4 3.346356 1_555
Br3 K10 3.346356 1_555
Br4 Hg5 2.725473 1_555
Br4 K0 3.297526 1_455
Br4 K7 3.346346 1_555
Br4 K1 3.346346 1_555
Br5 Hg5 2.684921 1_655
Br5 K0 3.332937 1_555
Br5 K9 3.661430 1_665
Br5 K11 3.661430 1_665
Br6 Hg2 2.725473 1_555
Br6 K2 3.297526 1_565
Br6 K7 3.346350 1_555
Br6 K1 3.346350 1_555
Br7 Hg0 2.684921 1_555
Br7 K8 3.332936 1_555
Br7 K9 3.661430 1_665
Br7 K11 3.661430 1_666
Br8 Hg1 2.684921 1_455
Br8 K3 3.332937 1_555
Br8 K9 3.661430 1_555
Br8 K11 3.661430 1_556
Br9 Hg3 2.725473 1_555
Br9 K6 3.297526 1_555
Br9 K7 3.346356 1_555
Br9 K1 3.346356 1_555
Br10 Hg4 2.725473 1_555
Br10 K5 3.297526 1_545
Br10 K4 3.346350 1_555
Br10 K10 3.346350 1_555
Br11 Hg4 2.684921 1_565
Br11 K5 3.332937 1_555
Br11 K9 3.661430 1_565
Br11 K11 3.661430 1_566
