# generated using pymatgen
data_K8In11
_symmetry_space_group_name_H-M   'P 1'
_cell_length_a   18.12323570
_cell_length_b   18.12323570
_cell_length_c   18.12323596
_cell_angle_alpha   32.46793717
_cell_angle_beta   32.46793717
_cell_angle_gamma   32.46793939
_symmetry_Int_Tables_number   1
_chemical_formula_structural   K8In11
_chemical_formula_sum   'K16 In22'
_cell_volume   1525.29322899
_cell_formula_units_Z   2
loop_
 _symmetry_equiv_pos_site_id
 _symmetry_equiv_pos_as_xyz
  1  'x, y, z'
loop_
 _atom_site_type_symbol
 _atom_site_label
 _atom_site_symmetry_multiplicity
 _atom_site_fract_x
 _atom_site_fract_y
 _atom_site_fract_z
 _atom_site_occupancy
  K  K0  1  0.07935300  0.07935300  0.07935300  1
  K  K1  1  0.92064700  0.92064700  0.92064700  1
  K  K2  1  0.40775400  0.17859100  0.84888000  1
  K  K3  1  0.32140900  0.09224600  0.65112000  1
  K  K4  1  0.09224600  0.65112000  0.32140900  1
  K  K5  1  0.34888000  0.67859100  0.90775400  1
  K  K6  1  0.59224600  0.82140900  0.15112000  1
  K  K7  1  0.90775400  0.34888000  0.67859100  1
  K  K8  1  0.57935300  0.57935300  0.57935300  1
  K  K9  1  0.17859100  0.84888000  0.40775400  1
  K  K10  1  0.82140900  0.15112000  0.59224600  1
  K  K11  1  0.65112000  0.32140900  0.09224600  1
  K  K12  1  0.84888000  0.40775400  0.17859100  1
  K  K13  1  0.42064700  0.42064700  0.42064700  1
  K  K14  1  0.67859100  0.90775400  0.34888000  1
  K  K15  1  0.15112000  0.59224600  0.82140900  1
  In  In0  1  0.96019200  0.75000000  0.53980800  1
  In  In1  1  0.99567000  0.57469000  0.27139900  1
  In  In2  1  0.46019200  0.03980800  0.25000000  1
  In  In3  1  0.22860100  0.92531000  0.50433000  1
  In  In4  1  0.53980800  0.96019200  0.75000000  1
  In  In5  1  0.20014300  0.20014300  0.20014300  1
  In  In6  1  0.42531000  0.72860100  0.00433000  1
  In  In7  1  0.07469000  0.49567000  0.77139900  1
  In  In8  1  0.03980800  0.25000000  0.46019200  1
  In  In9  1  0.79985700  0.79985700  0.79985700  1
  In  In10  1  0.50433000  0.22860100  0.92531000  1
  In  In11  1  0.00433000  0.42531000  0.72860100  1
  In  In12  1  0.70014300  0.70014300  0.70014300  1
  In  In13  1  0.29985700  0.29985700  0.29985700  1
  In  In14  1  0.75000000  0.53980800  0.96019200  1
  In  In15  1  0.92531000  0.50433000  0.22860100  1
  In  In16  1  0.57469000  0.27139900  0.99567000  1
  In  In17  1  0.49567000  0.77139900  0.07469000  1
  In  In18  1  0.72860100  0.00433000  0.42531000  1
  In  In19  1  0.27139900  0.99567000  0.57469000  1
  In  In20  1  0.25000000  0.46019200  0.03980800  1
  In  In21  1  0.77139900  0.07469000  0.49567000  1
loop_
_geom_bond_atom_site_label_1
_geom_bond_atom_site_label_2
_geom_bond_distance
_geom_bond_site_symmetry_2
K0 K2 4.420640 1_554
K0 K9 4.420640 1_545
K0 K12 4.420640 1_455
K0 K4 4.555476 1_545
K0 K3 4.555476 1_554
K0 K11 4.555476 1_455
K1 K6 4.420640 1_556
K1 K10 4.420640 1_565
K1 K15 4.420640 1_655
K1 K7 4.555476 1_565
K1 K14 4.555476 1_556
K1 K5 4.555476 1_655
K2 K6 4.199759 1_546
K3 K5 4.105557 1_545
K3 K7 4.105557 1_455
K4 K5 4.105557 1_554
K4 K7 4.199758 1_455
K5 K8 4.420640 1_555
K6 K9 4.105557 1_555
K6 K8 4.555476 1_555
K7 K8 4.420640 1_555
K10 K2 4.105557 1_555
K10 K12 4.105557 1_555
K10 K9 4.199759 1_645
K10 K8 4.555476 1_555
K11 K14 4.105557 1_545
K11 K7 4.105557 1_554
K11 K5 4.199759 1_554
K11 K13 4.420640 1_555
K12 K6 4.105557 1_555
K12 K15 4.199758 1_654
K12 K13 4.555476 1_555
K13 K3 4.420640 1_555
K13 K4 4.420640 1_555
K13 K2 4.555476 1_555
K13 K9 4.555476 1_555
K14 K4 4.105557 1_655
K14 K3 4.199759 1_565
K14 K8 4.420640 1_555
K15 K9 4.105557 1_555
K15 K2 4.105557 1_555
K15 K8 4.555476 1_555
In0 In7 3.013414 1_655
In0 In18 3.013414 1_565
In0 In11 3.110550 1_655
In0 In21 3.110550 1_565
In0 In12 3.334471 1_555
In0 In9 3.334471 1_555
In0 K9 3.654214 1_655
In0 K4 3.654214 1_655
In0 K0 4.149994 1_665
In0 K13 4.149995 1_655
In1 In20 3.013414 1_655
In1 In13 3.097747 1_655
In1 In8 3.110550 1_655
In1 In15 3.152011 1_555
In1 K14 3.685900 1_555
In1 K7 3.734680 1_555
In1 K1 3.809885 1_554
In1 K4 3.832705 1_655
In1 K5 4.021080 1_654
In1 K8 4.092444 1_555
In2 In3 3.013414 1_545
In2 In5 3.334471 1_555
In2 K6 3.654214 1_545
In2 K14 3.654214 1_545
In2 K8 4.149994 1_545
In2 K1 4.149994 1_544
In3 In5 3.097747 1_565
In3 In8 3.110550 1_565
In3 K15 3.685900 1_555
In3 K10 3.734680 1_465
In3 K8 3.809885 1_555
In3 K9 3.832705 1_555
In3 K6 4.021080 1_555
In3 K1 4.092444 1_455
In4 In6 3.013414 1_556
In4 In9 3.334471 1_555
In4 K3 3.654214 1_565
In4 K2 3.654214 1_565
In4 K0 4.149994 1_566
In4 K13 4.149994 1_565
In5 In8 3.334471 1_555
In5 K10 3.966482 1_455
In5 K15 3.966482 1_554
In5 K6 3.966482 1_545
In5 K9 4.016755 1_545
In5 K2 4.016755 1_554
In5 K12 4.016755 1_455
In6 K4 3.685900 1_555
In6 K11 3.734680 1_555
In6 K0 3.809885 1_565
In6 K5 3.832705 1_554
In6 K3 4.021080 1_564
In6 K13 4.092444 1_555
In7 In9 3.097747 1_455
In7 K2 3.685900 1_555
In7 K12 3.734680 1_456
In7 K13 3.809885 1_555
In7 K15 3.832705 1_555
In7 K9 4.021080 1_555
In7 K0 4.092444 1_556
In8 K10 3.654214 1_455
In8 K7 3.654214 1_455
In8 K1 4.149994 1_445
In8 K8 4.149995 1_455
In9 K9 3.966482 1_655
In9 K12 3.966482 1_556
In9 K2 3.966482 1_565
In9 K10 4.016755 1_565
In9 K6 4.016755 1_556
In9 K15 4.016755 1_655
In10 In20 3.013414 1_556
In10 In5 3.097747 1_556
In10 In2 3.110550 1_556
In10 In16 3.152011 1_555
In10 K10 3.685900 1_555
In10 K6 3.734680 1_546
In10 K8 3.809885 1_555
In10 K2 3.832705 1_555
In10 K15 4.021080 1_555
In10 K1 4.092444 1_545
In11 In14 3.013414 1_455
In11 In12 3.097747 1_455
In11 In7 3.152011 1_555
In11 K3 3.685900 1_555
In11 K4 3.734680 1_555
In11 K0 3.809885 1_556
In11 K7 3.832705 1_455
In11 K11 4.021080 1_456
In11 K13 4.092444 1_555
In12 In18 3.097747 1_565
In12 In6 3.097747 1_556
In12 In14 3.334471 1_555
In12 In4 3.334471 1_555
In12 K11 3.966482 1_556
In12 K4 3.966482 1_655
In12 K3 3.966482 1_565
In12 K5 4.016755 1_555
In12 K14 4.016755 1_555
In12 K7 4.016755 1_555
In13 In19 3.097747 1_545
In13 In16 3.097747 1_554
In13 In8 3.334471 1_555
In13 In20 3.334471 1_555
In13 In2 3.334471 1_555
In13 K5 3.966482 1_554
In13 K7 3.966482 1_455
In13 K14 3.966482 1_545
In13 K11 4.016755 1_555
In13 K3 4.016755 1_555
In13 K4 4.016755 1_555
In14 In17 3.013414 1_556
In14 In7 3.110550 1_655
In14 In6 3.110550 1_556
In14 In9 3.334471 1_555
In14 K11 3.654214 1_556
In14 K12 3.654214 1_556
In14 K13 4.149994 1_556
In14 K0 4.149995 1_656
In15 In8 3.013414 1_655
In15 In5 3.097747 1_655
In15 In20 3.110550 1_655
In15 K6 3.685900 1_555
In15 K15 3.734680 1_654
In15 K8 3.809885 1_555
In15 K12 3.832705 1_555
In15 K10 4.021080 1_555
In15 K1 4.092444 1_554
In16 In2 3.013414 1_556
In16 In20 3.110550 1_556
In16 K7 3.685900 1_555
In16 K5 3.734680 1_555
In16 K1 3.809885 1_545
In16 K11 3.832705 1_556
In16 K14 4.021080 1_546
In16 K8 4.092444 1_555
In17 In9 3.097747 1_554
In17 In4 3.110550 1_554
In17 In6 3.152011 1_555
In17 K9 3.685900 1_555
In17 K2 3.734680 1_564
In17 K13 3.809885 1_555
In17 K6 3.832705 1_555
In17 K12 4.021080 1_555
In17 K0 4.092444 1_565
In18 In4 3.110550 1_545
In18 In21 3.152011 1_555
In18 K11 3.685900 1_555
In18 K3 3.734680 1_555
In18 K0 3.809885 1_655
In18 K14 3.832705 1_545
In18 K4 4.021080 1_645
In18 K13 4.092444 1_555
In19 In8 3.013414 1_565
In19 In2 3.110550 1_565
In19 In3 3.152011 1_555
In19 K5 3.685900 1_555
In19 K14 3.734680 1_555
In19 K1 3.809885 1_455
In19 K3 3.832705 1_565
In19 K7 4.021080 1_465
In19 K8 4.092444 1_555
In20 In5 3.334471 1_555
In20 K5 3.654214 1_554
In20 K15 3.654214 1_554
In20 K8 4.149994 1_554
In20 K1 4.149995 1_454
In21 In4 3.013414 1_545
In21 In9 3.097747 1_545
In21 K12 3.685900 1_555
In21 K9 3.734680 1_645
In21 K13 3.809885 1_555
In21 K10 3.832705 1_555
In21 K2 4.021080 1_555
In21 K0 4.092444 1_655
