# generated using pymatgen
data_Mn2VO4
_symmetry_space_group_name_H-M   'P 1'
_cell_length_a   6.21324551
_cell_length_b   6.20742411
_cell_length_c   24.70774045
_cell_angle_alpha   120.08762542
_cell_angle_beta   119.92151043
_cell_angle_gamma   91.66709619
_symmetry_Int_Tables_number   1
_chemical_formula_structural   Mn2VO4
_chemical_formula_sum   'Mn16 V8 O32'
_cell_volume   663.27475954
_cell_formula_units_Z   8
loop_
 _symmetry_equiv_pos_site_id
 _symmetry_equiv_pos_as_xyz
  1  'x, y, z'
loop_
 _atom_site_type_symbol
 _atom_site_label
 _atom_site_symmetry_multiplicity
 _atom_site_fract_x
 _atom_site_fract_y
 _atom_site_fract_z
 _atom_site_occupancy
  Mn  Mn0  1  0.10597900  0.87921500  0.81398700  1
  Mn  Mn1  1  0.50010400  0.50348200  0.00186900  1
  Mn  Mn2  1  0.49372800  0.49247600  0.87321400  1
  Mn  Mn3  1  0.10878600  0.88705600  0.56186900  1
  Mn  Mn4  1  0.49386100  0.49238000  0.74907800  1
  Mn  Mn5  1  0.88118300  0.12180500  0.93678200  1
  Mn  Mn6  1  0.50187200  0.49526800  0.62421000  1
  Mn  Mn7  1  0.11297500  0.88396800  0.30898700  1
  Mn  Mn8  1  0.50069500  0.49367900  0.49934700  1
  Mn  Mn9  1  0.87474000  0.11667600  0.68507300  1
  Mn  Mn10  1  0.50886000  0.50097300  0.37575500  1
  Mn  Mn11  1  0.50544500  0.50180500  0.25076900  1
  Mn  Mn12  1  0.88189300  0.12311700  0.43821800  1
  Mn  Mn13  1  0.49354700  0.49714500  0.12329600  1
  Mn  Mn14  1  0.49716200  0.00354500  0.00039600  1
  Mn  Mn15  1  0.89350800  0.14142300  0.19201900  1
  V  V0  1  0.97718800  0.47645400  0.86677100  1
  V  V1  1  0.00376300  0.50607700  0.62598700  1
  V  V2  1  0.47178700  0.97627300  0.74475900  1
  V  V3  1  0.01847500  0.52002200  0.37934900  1
  V  V4  1  0.48945000  0.99128500  0.49688500  1
  V  V5  1  0.98710100  0.51979400  0.12626500  1
  V  V6  1  0.12007100  0.87793500  0.06358900  1
  V  V7  1  0.51347900  0.01280200  0.25198000  1
  O  O0  1  0.23656100  0.75551500  0.00485700  1
  O  O1  1  0.22519600  0.29866500  0.88108100  1
  O  O2  1  0.23603500  0.71885200  0.87614700  1
  O  O3  1  0.76468100  0.75539500  0.00406900  1
  O  O4  1  0.24260700  0.74521000  0.74358700  1
  O  O5  1  0.28350500  0.22057200  0.74949600  1
  O  O6  1  0.24362300  0.74314600  0.62909400  1
  O  O7  1  0.22984300  0.29672000  0.62778400  1
  O  O8  1  0.77896900  0.70237800  0.87330900  1
  O  O9  1  0.72792700  0.23047200  0.86063000  1
  O  O10  1  0.69361900  0.75938000  0.74504900  1
  O  O11  1  0.74069000  0.23469800  0.75546500  1
  O  O12  1  0.25137700  0.74984700  0.49404900  1
  O  O13  1  0.29103900  0.22571000  0.50172000  1
  O  O14  1  0.25006200  0.74970700  0.37943800  1
  O  O15  1  0.23655800  0.29732200  0.37768400  1
  O  O16  1  0.77013500  0.70610300  0.62192900  1
  O  O17  1  0.74911800  0.24740200  0.61491900  1
  O  O18  1  0.69941400  0.76516600  0.49586400  1
  O  O19  1  0.74855400  0.24563800  0.50812500  1
  O  O20  1  0.25656100  0.74030600  0.23910400  1
  O  O21  1  0.30055700  0.22763700  0.25405700  1
  O  O22  1  0.23887400  0.23607600  0.12265100  1
  O  O23  1  0.24505900  0.77198500  0.12699300  1
  O  O24  1  0.77556300  0.71256000  0.37355900  1
  O  O25  1  0.76065300  0.25333100  0.36739100  1
  O  O26  1  0.69741200  0.76678900  0.24292600  1
  O  O27  1  0.76132600  0.26087800  0.26152200  1
  O  O28  1  0.28410700  0.25912700  0.00521400  1
  O  O29  1  0.77743200  0.72893100  0.12627600  1
  O  O30  1  0.77929000  0.29430000  0.12866300  1
  O  O31  1  0.78800400  0.28552000  0.01689700  1
loop_
_geom_bond_atom_site_label_1
_geom_bond_atom_site_label_2
_geom_bond_distance
_geom_bond_site_symmetry_2
Mn0 O10 2.069774 1_455
Mn0 O2 2.084282 1_555
Mn0 O1 2.100268 1_565
Mn0 O4 2.121703 1_555
Mn1 O28 2.055855 1_555
Mn1 O1 2.103420 1_554
Mn1 O29 2.153743 1_555
Mn1 O3 2.196957 1_555
Mn1 O31 2.269387 1_555
Mn1 O0 2.299598 1_555
Mn2 O5 2.148101 1_555
Mn2 O2 2.165176 1_555
Mn2 O8 2.167270 1_555
Mn2 O1 2.170278 1_555
Mn2 O9 2.222885 1_555
Mn2 O3 2.251749 1_556
Mn3 O7 2.049132 1_565
Mn3 O18 2.052861 1_455
Mn3 O6 2.098032 1_555
Mn3 O12 2.100525 1_555
Mn4 O5 2.111328 1_555
Mn4 O10 2.113354 1_555
Mn4 O7 2.116027 1_555
Mn4 O8 2.165237 1_555
Mn4 O4 2.250175 1_555
Mn4 O11 2.256052 1_555
Mn5 O28 2.015118 1_656
Mn5 O9 2.103440 1_555
Mn5 O31 2.108734 1_556
Mn5 O8 2.111306 1_545
Mn6 O10 2.109809 1_555
Mn6 O13 2.124877 1_555
Mn6 O7 2.126104 1_555
Mn6 O16 2.129530 1_555
Mn6 O17 2.217009 1_555
Mn6 O6 2.259953 1_555
Mn7 O15 2.067050 1_565
Mn7 O26 2.087074 1_455
Mn7 O14 2.113478 1_555
Mn7 O20 2.147480 1_555
Mn8 O18 2.121845 1_555
Mn8 O15 2.122147 1_555
Mn8 O13 2.124880 1_555
Mn8 O16 2.126838 1_555
Mn8 O19 2.220113 1_555
Mn8 O12 2.257222 1_555
Mn9 O5 2.059689 1_655
Mn9 O16 2.063287 1_545
Mn9 O17 2.090365 1_555
Mn9 O11 2.111497 1_555
Mn10 O18 2.097657 1_555
Mn10 O21 2.114178 1_555
Mn10 O15 2.116414 1_555
Mn10 O24 2.123313 1_555
Mn10 O25 2.235443 1_555
Mn10 O14 2.264366 1_555
Mn11 O24 2.132037 1_555
Mn11 O26 2.145178 1_555
Mn11 O21 2.153904 1_555
Mn11 O20 2.186907 1_555
Mn11 O22 2.204480 1_555
Mn11 O27 2.224901 1_555
Mn12 O24 2.061665 1_545
Mn12 O13 2.062657 1_655
Mn12 O19 2.096489 1_555
Mn12 O25 2.102796 1_555
Mn13 O28 2.041297 1_555
Mn13 O26 2.079366 1_555
Mn13 O29 2.191635 1_555
Mn13 O30 2.194916 1_555
Mn13 O22 2.220372 1_555
Mn13 O23 2.332450 1_555
Mn14 O28 2.091307 1_555
Mn14 O2 2.145788 1_544
Mn14 O31 2.204739 1_555
Mn14 O30 2.216457 1_555
Mn14 O0 2.281991 1_545
Mn14 O3 2.298350 1_545
Mn15 O21 2.064844 1_655
Mn15 O29 2.066044 1_545
Mn15 O30 2.067598 1_555
Mn15 O27 2.083033 1_555
O0 V6 1.783613 1_555
O0 V0 2.380071 1_454
O1 V0 1.914184 1_455
O2 V0 2.010539 1_455
O3 V6 1.777135 1_655
O4 V2 1.970811 1_555
O4 V1 2.023353 1_555
O5 V2 1.934880 1_545
O6 V2 1.990811 1_555
O6 V1 2.009347 1_555
O7 V1 1.940580 1_555
O8 V0 1.892476 1_555
O9 V2 1.999481 1_545
O9 V0 2.036838 1_555
O10 V2 1.954532 1_555
O11 V0 1.917453 1_555
O11 V2 2.100576 1_545
O12 V3 1.973734 1_555
O12 V4 2.025191 1_555
O13 V4 1.930944 1_545
O14 V3 1.994382 1_555
O14 V4 2.020646 1_555
O15 V3 1.963750 1_555
O16 V1 1.934772 1_655
O17 V1 2.033867 1_655
O17 V4 2.035590 1_545
O18 V4 1.943326 1_555
O19 V4 2.031778 1_545
O19 V1 2.032759 1_655
O20 V5 1.957870 1_455
O20 V7 2.075389 1_565
O21 V7 1.906036 1_555
O22 V6 1.787129 1_545
O22 V5 2.387205 1_455
O23 V6 1.827243 1_555
O23 V7 2.154296 1_565
O23 V5 2.194727 1_455
O24 V3 1.946220 1_655
O25 V7 1.986954 1_555
O25 V3 2.068114 1_655
O26 V7 1.924112 1_565
O27 V7 1.983464 1_555
O27 V3 2.032328 1_655
O29 V5 1.865696 1_555
O30 V5 1.919437 1_555
O31 V5 1.888795 1_555
