# generated using pymatgen
data_Fe6Ni9S20
_symmetry_space_group_name_H-M   'P 1'
_cell_length_a   6.67639991
_cell_length_b   6.57922547
_cell_length_c   32.90740999
_cell_angle_alpha   60.24042644
_cell_angle_beta   60.64108991
_cell_angle_gamma   60.63300192
_symmetry_Int_Tables_number   1
_chemical_formula_structural   Fe6Ni9S20
_chemical_formula_sum   'Fe12 Ni18 S40'
_cell_volume   1033.73442138
_cell_formula_units_Z   2
loop_
 _symmetry_equiv_pos_site_id
 _symmetry_equiv_pos_as_xyz
  1  'x, y, z'
loop_
 _atom_site_type_symbol
 _atom_site_label
 _atom_site_symmetry_multiplicity
 _atom_site_fract_x
 _atom_site_fract_y
 _atom_site_fract_z
 _atom_site_occupancy
  Fe  Fe0  1  0.11908794  0.12365880  0.22702544  1
  Fe  Fe1  1  0.49934417  0.49028764  0.10040550  1
  Fe  Fe2  1  0.50008753  0.01001194  0.10009472  1
  Fe  Fe3  1  0.50045438  0.49838141  0.30038191  1
  Fe  Fe4  1  0.50404555  0.48951565  0.40442058  1
  Fe  Fe5  1  0.50065907  0.49648024  0.49943831  1
  Fe  Fe6  1  0.50054006  0.00500763  0.49965485  1
  Fe  Fe7  1  0.49694300  0.50865700  0.59660501  1
  Fe  Fe8  1  0.50039578  0.50167367  0.69978629  1
  Fe  Fe9  1  0.50325721  0.48965299  0.80393750  1
  Fe  Fe10  1  0.50234724  0.48716957  0.89687117  1
  Fe  Fe11  1  0.50103822  0.02243320  0.89740310  1
  Ni  Ni0  1  0.12359213  0.12504394  0.02508775  1
  Ni  Ni1  1  0.50056919  0.49826737  0.20054866  1
  Ni  Ni2  1  0.12988399  0.12403228  0.42411169  1
  Ni  Ni3  1  0.99532851  0.50108485  0.10085599  1
  Ni  Ni4  1  0.88107371  0.87346144  0.17516358  1
  Ni  Ni5  1  0.50191356  0.99676660  0.30045427  1
  Ni  Ni6  1  0.11663758  0.12660174  0.62580325  1
  Ni  Ni7  1  0.99792480  0.49987931  0.30063472  1
  Ni  Ni8  1  0.88329044  0.87293920  0.37467088  1
  Ni  Ni9  1  0.13416519  0.12249810  0.82321170  1
  Ni  Ni10  1  -0.00258358  0.50107964  0.50024523  1
  Ni  Ni11  1  0.87503640  0.87515314  0.57560566  1
  Ni  Ni12  1  0.50047535  -0.00002203  0.69973737  1
  Ni  Ni13  1  0.00099592  0.49992652  0.69983750  1
  Ni  Ni14  1  0.88236197  0.87457608  0.77391078  1
  Ni  Ni15  1  0.49943453  0.50230551  -0.00098993  1
  Ni  Ni16  1  -0.00989913  0.50393924  0.89984282  1
  Ni  Ni17  1  0.88195610  0.87145891  0.97489527  1
  S  S0  1  0.25832367  0.25661158  0.05253582  1
  S  S1  1  0.25314266  0.25257747  0.14859854  1
  S  S2  1  0.25861653  0.72270238  0.05245320  1
  S  S3  1  0.72703052  0.25866873  0.05121601  1
  S  S4  1  0.27849130  0.74310878  0.14744080  1
  S  S5  1  0.25354909  0.25371916  0.25151835  1
  S  S6  1  0.73886806  0.27342743  0.14804499  1
  S  S7  1  0.73186623  0.74503929  0.05573837  1
  S  S8  1  0.26273825  0.26014984  0.34431684  1
  S  S9  1  0.25821523  0.73344967  0.25246606  1
  S  S10  1  0.73774333  0.74846371  0.14835137  1
  S  S11  1  0.73378803  0.25795731  0.25224605  1
  S  S12  1  0.28166183  0.72933930  0.35004701  1
  S  S13  1  0.25886043  0.25652315  0.45183382  1
  S  S14  1  0.73374689  0.27620326  0.34986660  1
  S  S15  1  0.74060162  0.73795942  0.25558840  1
  S  S16  1  0.25744682  0.72611614  0.45201938  1
  S  S17  1  0.25792974  0.25751061  0.54553910  1
  S  S18  1  0.73960675  0.73604121  0.35059835  1
  S  S19  1  0.73926134  0.24966020  0.45205758  1
  S  S20  1  0.26834942  0.74861430  0.54705933  1
  S  S21  1  0.26041387  0.26221939  0.65021499  1
  S  S22  1  0.73966074  0.27408608  0.54813806  1
  S  S23  1  0.73634589  0.74427840  0.45497433  1
  S  S24  1  0.26434623  0.26133778  0.74390184  1
  S  S25  1  0.26539961  0.72438142  0.65064720  1
  S  S26  1  0.73876245  0.74600917  0.54850349  1
  S  S27  1  0.71979376  0.26878036  0.65030391  1
  S  S28  1  0.25535228  0.26083107  0.85120623  1
  S  S29  1  0.27918639  0.73268059  0.74936163  1
  S  S30  1  0.73553358  0.27666938  0.74894365  1
  S  S31  1  0.25223753  0.26074771  0.94488327  1
  S  S32  1  0.74028304  0.73923498  0.65512448  1
  S  S33  1  0.25376578  0.72531064  0.85150953  1
  S  S34  1  0.74669837  0.25047976  0.84956866  1
  S  S35  1  0.74037463  0.73806217  0.74941746  1
  S  S36  1  0.28189451  0.74545116  0.94491786  1
  S  S37  1  0.73527790  0.27364946  0.94732209  1
  S  S38  1  0.72885546  0.74771039  0.85454637  1
  S  S39  1  0.73562342  0.75231557  0.94732740  1
loop_
_geom_bond_atom_site_label_1
_geom_bond_atom_site_label_2
_geom_bond_distance
_geom_bond_site_symmetry_2
Fe0 S5 2.082146 1_555
Fe0 S9 2.108213 1_545
Fe0 S1 2.118405 1_555
Fe0 S11 2.119452 1_455
Fe1 S3 2.239889 1_555
Fe1 S6 2.247352 1_555
Fe1 S2 2.256625 1_555
Fe1 S1 2.272868 1_555
Fe1 S7 2.290970 1_555
Fe1 S4 2.291085 1_555
Fe2 S3 2.233494 1_555
Fe2 S0 2.252736 1_555
Fe2 S10 2.253982 1_545
Fe2 S1 2.276057 1_555
Fe2 S7 2.286858 1_545
Fe2 S4 2.296020 1_545
Fe3 S8 2.237422 1_555
Fe3 S12 2.249713 1_555
Fe3 S15 2.254487 1_555
Fe3 S11 2.255863 1_555
Fe3 S14 2.259509 1_555
Fe3 S9 2.262783 1_555
Fe4 S19 2.222911 1_555
Fe4 S16 2.228316 1_555
Fe4 S13 2.246381 1_555
Fe4 S18 2.271520 1_555
Fe4 S14 2.287996 1_555
Fe4 S12 2.323821 1_555
Fe5 S16 2.256593 1_555
Fe5 S17 2.262761 1_555
Fe5 S22 2.268275 1_555
Fe5 S19 2.268593 1_555
Fe5 S23 2.272727 1_555
Fe5 S20 2.299346 1_555
Fe6 S13 2.259237 1_555
Fe6 S17 2.261884 1_555
Fe6 S26 2.268655 1_545
Fe6 S19 2.269342 1_555
Fe6 S23 2.273378 1_545
Fe6 S20 2.294203 1_545
Fe7 S20 2.236379 1_555
Fe7 S22 2.237823 1_555
Fe7 S26 2.250274 1_555
Fe7 S21 2.274827 1_555
Fe7 S25 2.285792 1_555
Fe7 S27 2.309430 1_555
Fe8 S24 2.239053 1_555
Fe8 S32 2.243807 1_555
Fe8 S29 2.247202 1_555
Fe8 S27 2.254247 1_555
Fe8 S25 2.259234 1_555
Fe8 S30 2.259695 1_555
Fe9 S34 2.216205 1_555
Fe9 S33 2.224578 1_555
Fe9 S28 2.240563 1_555
Fe9 S35 2.288635 1_555
Fe9 S30 2.297324 1_555
Fe9 S29 2.336174 1_555
Fe10 S34 2.221270 1_555
Fe10 S33 2.234842 1_555
Fe10 S31 2.240546 1_555
Fe10 S37 2.285139 1_555
Fe10 S38 2.296130 1_555
Fe10 S36 2.342222 1_555
Fe11 S34 2.226296 1_555
Fe11 S31 2.234157 1_555
Fe11 S28 2.239740 1_555
Fe11 S39 2.281440 1_545
Fe11 S38 2.302195 1_545
Fe11 S36 2.334425 1_545
Ni0 S31 2.165836 1_554
Ni0 S0 2.170445 1_555
Ni0 S2 2.172516 1_545
Ni0 S3 2.181112 1_455
Ni1 S6 2.288700 1_555
Ni1 S10 2.291297 1_555
Ni1 S4 2.291510 1_555
Ni1 S11 2.308909 1_555
Ni1 S5 2.309320 1_555
Ni1 S9 2.321471 1_555
Ni2 S16 2.148458 1_545
Ni2 S19 2.149178 1_455
Ni2 S13 2.151616 1_555
Ni2 S8 2.155140 1_555
Ni3 S6 2.277233 1_555
Ni3 S10 2.278969 1_555
Ni3 S2 2.283811 1_655
Ni3 S0 2.286878 1_655
Ni3 S7 2.302301 1_555
Ni3 S1 2.333602 1_655
Ni4 S6 2.161375 1_565
Ni4 S10 2.165785 1_555
Ni4 S15 2.173164 1_555
Ni4 S4 2.186138 1_655
Ni5 S8 2.268274 1_565
Ni5 S15 2.268463 1_555
Ni5 S12 2.292455 1_555
Ni5 S18 2.295986 1_555
Ni5 S11 2.315392 1_565
Ni5 S5 2.316701 1_565
Ni6 S21 2.161161 1_555
Ni6 S17 2.168742 1_555
Ni6 S25 2.174475 1_545
Ni6 S27 2.183599 1_455
Ni7 S15 2.270503 1_555
Ni7 S8 2.277298 1_655
Ni7 S18 2.284560 1_555
Ni7 S14 2.297442 1_555
Ni7 S5 2.308860 1_655
Ni7 S9 2.322514 1_655
Ni8 S18 2.158671 1_555
Ni8 S23 2.171175 1_555
Ni8 S14 2.180251 1_565
Ni8 S12 2.192097 1_655
Ni9 S34 2.131142 1_455
Ni9 S24 2.142208 1_555
Ni9 S33 2.144835 1_545
Ni9 S28 2.148733 1_555
Ni10 S22 2.280429 1_455
Ni10 S16 2.282862 1_555
Ni10 S26 2.285348 1_455
Ni10 S13 2.288435 1_555
Ni10 S17 2.291702 1_555
Ni10 S23 2.293919 1_455
Ni11 S32 2.148056 1_555
Ni11 S22 2.154537 1_565
Ni11 S26 2.156677 1_555
Ni11 S20 2.164343 1_655
Ni12 S24 2.264908 1_555
Ni12 S32 2.272241 1_545
Ni12 S21 2.293264 1_555
Ni12 S27 2.294816 1_555
Ni12 S35 2.295942 1_545
Ni12 S29 2.296485 1_545
Ni13 S24 2.278469 1_555
Ni13 S32 2.279759 1_455
Ni13 S21 2.284171 1_555
Ni13 S35 2.285688 1_455
Ni13 S30 2.301888 1_455
Ni13 S25 2.301960 1_555
Ni14 S35 2.158222 1_555
Ni14 S30 2.173242 1_565
Ni14 S38 2.182162 1_555
Ni14 S29 2.183441 1_655
Ni15 S39 2.285130 1_554
Ni15 S37 2.286117 1_554
Ni15 S0 2.291761 1_555
Ni15 S2 2.291926 1_555
Ni15 S36 2.294871 1_554
Ni15 S3 2.294948 1_555
Ni16 S37 2.280985 1_455
Ni16 S39 2.281938 1_455
Ni16 S33 2.284586 1_555
Ni16 S28 2.289098 1_555
Ni16 S31 2.294047 1_555
Ni16 S38 2.295358 1_455
Ni17 S39 2.172109 1_555
Ni17 S37 2.174950 1_565
Ni17 S7 2.186360 1_556
Ni17 S36 2.201822 1_655
