# generated using pymatgen
data_Cu4Se3O10
_symmetry_space_group_name_H-M   'P 1'
_cell_length_a   7.97785968
_cell_length_b   8.16620861
_cell_length_c   8.36853576
_cell_angle_alpha   77.18588813
_cell_angle_beta   65.54035763
_cell_angle_gamma   81.47235541
_symmetry_Int_Tables_number   1
_chemical_formula_structural   Cu4Se3O10
_chemical_formula_sum   'Cu8 Se6 O20'
_cell_volume   482.93099956
_cell_formula_units_Z   2
loop_
 _symmetry_equiv_pos_site_id
 _symmetry_equiv_pos_as_xyz
  1  'x, y, z'
loop_
 _atom_site_type_symbol
 _atom_site_label
 _atom_site_symmetry_multiplicity
 _atom_site_fract_x
 _atom_site_fract_y
 _atom_site_fract_z
 _atom_site_occupancy
  Cu  Cu0  1  0.67869024  0.55082725  0.39103214  1
  Cu  Cu1  1  0.32131070  0.44917487  0.60896890  1
  Cu  Cu2  1  0.08925313  0.56254794  0.26325625  1
  Cu  Cu3  1  0.91075272  0.43745315  0.73673325  1
  Cu  Cu4  1  0.51397613  0.37132167  0.17481295  1
  Cu  Cu5  1  0.48602460  0.62867769  0.82518982  1
  Cu  Cu6  1  0.60455465  0.16130253  0.48511383  1
  Cu  Cu7  1  0.39545318  0.83869929  0.51488771  1
  Se  Se0  1  0.16190633  0.18704043  0.47042591  1
  Se  Se1  1  0.83809585  0.81295153  0.52957059  1
  Se  Se2  1  0.94786054  0.28222440  0.11975513  1
  Se  Se3  1  0.05213781  0.71778390  0.88023925  1
  Se  Se4  1  0.40239929  0.79637859  0.16263073  1
  Se  Se5  1  0.59759095  0.20362271  0.83737971  1
  O  O0  1  0.52984158  0.38545459  0.39561313  1
  O  O1  1  0.47016391  0.61454821  0.60439098  1
  O  O2  1  0.14232583  0.29106020  0.63730879  1
  O  O3  1  0.85766975  0.70893539  0.36269126  1
  O  O4  1  0.37242241  0.08046711  0.42355510  1
  O  O5  1  0.62758150  0.91952835  0.57644214  1
  O  O6  1  0.23702829  0.34886890  0.28834543  1
  O  O7  1  0.76297659  0.65112408  0.71165407  1
  O  O8  1  0.78329311  0.32885629  0.03206947  1
  O  O9  1  0.21670099  0.67114973  0.96793219  1
  O  O10  1  0.91075066  0.46265716  0.21524789  1
  O  O11  1  0.08924969  0.53734812  0.78474766  1
  O  O12  1  0.85137831  0.13397747  0.29971050  1
  O  O13  1  0.14862476  0.86603079  0.70028347  1
  O  O14  1  0.51842284  0.64239257  0.04137567  1
  O  O15  1  0.48157221  0.35761183  0.95862600  1
  O  O16  1  0.22310026  0.68819062  0.33432425  1
  O  O17  1  0.77689628  0.31179980  0.66568510  1
  O  O18  1  0.54364788  0.79597945  0.26897526  1
  O  O19  1  0.45635004  0.20401640  0.73102647  1
loop_
_geom_bond_atom_site_label_1
_geom_bond_atom_site_label_2
_geom_bond_distance
_geom_bond_site_symmetry_2
Cu0 O0 1.910580 1_555
Cu0 O3 1.972971 1_555
Cu0 O1 1.980396 1_555
Cu0 O10 1.982201 1_555
Cu0 O18 2.361449 1_555
Cu1 O1 1.910621 1_555
Cu1 O2 1.973046 1_555
Cu1 O0 1.980394 1_555
Cu1 O11 1.982194 1_555
Cu1 O19 2.361474 1_555
Cu2 O16 1.915246 1_555
Cu2 O10 1.954090 1_455
Cu2 O6 1.977666 1_555
Cu2 O3 2.011967 1_455
Cu2 O9 2.267725 1_554
Cu3 O17 1.915253 1_555
Cu3 O11 1.954101 1_655
Cu3 O7 1.977606 1_555
Cu3 O2 2.011923 1_655
Cu3 O8 2.267805 1_556
Cu4 O0 1.932929 1_555
Cu4 O15 1.959128 1_554
Cu4 O8 2.000240 1_555
Cu4 O6 2.030394 1_555
Cu4 O14 2.245518 1_555
Cu5 O1 1.932892 1_555
Cu5 O14 1.959107 1_556
Cu5 O9 2.000289 1_555
Cu5 O7 2.030416 1_555
Cu5 O15 2.245477 1_555
Cu6 O0 1.924802 1_555
Cu6 O12 1.956476 1_555
Cu6 O5 1.963516 1_545
Cu6 O19 1.983899 1_555
Cu6 O4 2.331133 1_555
Cu7 O1 1.924796 1_555
Cu7 O13 1.956483 1_555
Cu7 O4 1.963480 1_565
Cu7 O18 1.983903 1_555
Cu7 O5 2.331059 1_555
O2 Se0 1.732791 1_555
O3 Se1 1.732762 1_555
O4 Se0 1.704203 1_555
O5 Se1 1.704203 1_555
O6 Se0 1.735757 1_555
O7 Se1 1.735764 1_555
O8 Se2 1.712526 1_555
O9 Se3 1.712538 1_555
O10 Se2 1.759073 1_555
O11 Se3 1.759088 1_555
O12 Se2 1.683367 1_555
O13 Se3 1.683376 1_555
O14 Se4 1.706082 1_555
O15 Se5 1.706055 1_555
O16 Se4 1.732298 1_555
O17 Se5 1.732290 1_555
O18 Se4 1.699977 1_555
O19 Se5 1.699991 1_555
