# generated using pymatgen
data_Nd2Te2W2O13
_symmetry_space_group_name_H-M   'P 1'
_cell_length_a   6.73116600
_cell_length_b   6.99305236
_cell_length_c   11.77325253
_cell_angle_alpha   90.58221741
_cell_angle_beta   98.38252978
_cell_angle_gamma   93.55247356
_symmetry_Int_Tables_number   1
_chemical_formula_structural   Nd2Te2W2O13
_chemical_formula_sum   'Nd4 Te4 W4 O26'
_cell_volume   547.10609667
_cell_formula_units_Z   2
loop_
 _symmetry_equiv_pos_site_id
 _symmetry_equiv_pos_as_xyz
  1  'x, y, z'
loop_
 _atom_site_type_symbol
 _atom_site_label
 _atom_site_symmetry_multiplicity
 _atom_site_fract_x
 _atom_site_fract_y
 _atom_site_fract_z
 _atom_site_occupancy
  Nd  Nd0  1  0.76930400  0.87074500  0.88171300  1
  Nd  Nd1  1  0.63229800  0.37179000  0.36756900  1
  Nd  Nd2  1  0.36770200  0.62821000  0.63243100  1
  Nd  Nd3  1  0.23069600  0.12925500  0.11828700  1
  Te  Te0  1  0.24856100  0.61281000  0.94919000  1
  Te  Te1  1  0.75143900  0.38719000  0.05081000  1
  Te  Te2  1  0.17026600  0.17903700  0.44131600  1
  Te  Te3  1  0.82973400  0.82096300  0.55868400  1
  W  W0  1  0.11032000  0.62312800  0.29753200  1
  W  W1  1  0.24654300  0.11882700  0.81332900  1
  W  W2  1  0.88968000  0.37687200  0.70246800  1
  W  W3  1  0.75345700  0.88117300  0.18667100  1
  O  O0  1  0.42318500  0.67963900  0.84241700  1
  O  O1  1  0.17907300  0.75052400  0.43509200  1
  O  O2  1  0.92388400  0.16793500  0.80375900  1
  O  O3  1  0.79714600  0.04671200  0.31028300  1
  O  O4  1  0.15626300  0.95241800  0.93034500  1
  O  O5  1  0.01148800  0.41400800  0.14590100  1
  O  O6  1  0.00934400  0.38744200  0.37743100  1
  O  O7  1  0.57681500  0.32036100  0.15758300  1
  O  O8  1  0.07611600  0.83206500  0.19624100  1
  O  O9  1  0.84373700  0.04758200  0.06965500  1
  O  O10  1  0.27180300  0.33149600  0.95171800  1
  O  O11  1  0.20221700  0.34799600  0.71937900  1
  O  O12  1  0.72819700  0.66850400  0.04828200  1
  O  O13  1  0.61852200  0.65391700  0.48680000  1
  O  O14  1  0.48590300  0.89946200  0.14587600  1
  O  O15  1  0.34970300  0.54164300  0.27683600  1
  O  O16  1  0.67797700  0.85436700  0.67987700  1
  O  O17  1  0.20285400  0.95328800  0.68971700  1
  O  O18  1  0.79778300  0.65200400  0.28062100  1
  O  O19  1  0.38147800  0.34608300  0.51320000  1
  O  O20  1  0.32202300  0.14563300  0.32012300  1
  O  O21  1  0.99065600  0.61255800  0.62256900  1
  O  O22  1  0.65029700  0.45835700  0.72316400  1
  O  O23  1  0.82092700  0.24947600  0.56490800  1
  O  O24  1  0.51409700  0.10053800  0.85412400  1
  O  O25  1  0.98851200  0.58599200  0.85409900  1
loop_
_geom_bond_atom_site_label_1
_geom_bond_atom_site_label_2
_geom_bond_distance
_geom_bond_site_symmetry_2
Nd0 O16 2.365903 1_555
Nd0 O24 2.414291 1_565
Nd0 O12 2.467506 1_556
Nd0 O9 2.494123 1_566
Nd0 O2 2.508655 1_565
Nd0 O0 2.591382 1_555
Nd0 O25 2.595947 1_555
Nd0 O4 2.610094 1_655
Nd1 O13 2.424018 1_555
Nd1 O15 2.425619 1_555
Nd1 O7 2.465111 1_555
Nd1 O18 2.496244 1_555
Nd1 O6 2.519146 1_655
Nd1 O20 2.531346 1_555
Nd1 O19 2.575856 1_555
Nd1 O23 2.656399 1_555
Nd1 O3 2.711753 1_555
Nd2 O19 2.424018 1_555
Nd2 O22 2.425619 1_555
Nd2 O0 2.465111 1_555
Nd2 O11 2.496244 1_555
Nd2 O21 2.519146 1_455
Nd2 O16 2.531346 1_555
Nd2 O13 2.575856 1_555
Nd2 O1 2.656399 1_555
Nd2 O17 2.711753 1_555
Nd3 O20 2.365903 1_555
Nd3 O14 2.414291 1_545
Nd3 O10 2.467506 1_554
Nd3 O4 2.494123 1_544
Nd3 O8 2.508655 1_545
Nd3 O7 2.591382 1_555
Nd3 O5 2.595947 1_555
Nd3 O9 2.610094 1_455
O0 Te0 1.885447 1_555
O1 W0 1.825317 1_555
O2 W2 1.899211 1_555
O2 W1 2.206700 1_655
O3 W3 1.828471 1_545
O4 W1 1.952046 1_565
O4 Te0 2.495737 1_555
O5 Te1 1.932931 1_455
O5 W0 2.290887 1_555
O6 Te2 1.960449 1_555
O6 W0 2.035283 1_555
O7 Te1 1.885447 1_555
O8 W0 1.899211 1_555
O8 W3 2.206700 1_455
O9 W3 1.952046 1_545
O9 Te1 2.495737 1_555
O10 Te0 1.983275 1_555
O10 W1 2.175757 1_555
O11 W1 1.969728 1_555
O11 W2 2.106531 1_455
O12 Te1 1.983275 1_555
O12 W3 2.175757 1_555
O13 Te3 1.877596 1_555
O14 W3 1.807776 1_555
O15 W0 1.790498 1_555
O16 Te3 1.892524 1_555
O17 W1 1.828471 1_565
O18 W3 1.969728 1_555
O18 W0 2.106531 1_655
O19 Te2 1.877596 1_555
O20 Te2 1.892524 1_555
O21 Te3 1.960449 1_555
O21 W2 2.035283 1_555
O22 W2 1.790498 1_555
O23 W2 1.825317 1_555
O24 W1 1.807776 1_555
O25 Te0 1.932931 1_655
O25 W2 2.290887 1_555
