# generated using pymatgen
data_SrLi(BS2)3
_symmetry_space_group_name_H-M   'P 1'
_cell_length_a   8.73321635
_cell_length_b   8.73321635
_cell_length_c   8.07059009
_cell_angle_alpha   66.73283703
_cell_angle_beta   66.73283703
_cell_angle_gamma   60.35373061
_symmetry_Int_Tables_number   1
_chemical_formula_structural   SrLi(BS2)3
_chemical_formula_sum   'Sr2 Li2 B6 S12'
_cell_volume   475.84419850
_cell_formula_units_Z   2
loop_
 _symmetry_equiv_pos_site_id
 _symmetry_equiv_pos_as_xyz
  1  'x, y, z'
loop_
 _atom_site_type_symbol
 _atom_site_label
 _atom_site_symmetry_multiplicity
 _atom_site_fract_x
 _atom_site_fract_y
 _atom_site_fract_z
 _atom_site_occupancy
  Sr  Sr0  1  0.85985400  0.62121500  0.02533800  1
  Sr  Sr1  1  0.62121500  0.85985400  0.52533800  1
  Li  Li0  1  0.50977300  0.29404000  0.06238200  1
  Li  Li1  1  0.29404000  0.50977300  0.56238200  1
  B  B0  1  0.98765400  0.97054900  0.06094600  1
  B  B1  1  0.23953400  0.16131900  0.95671400  1
  B  B2  1  0.16131900  0.23953400  0.45671400  1
  B  B3  1  0.39562500  0.75523600  0.97259700  1
  B  B4  1  0.97054900  0.98765400  0.56094600  1
  B  B5  1  0.75523600  0.39562500  0.47259700  1
  S  S0  1  0.56328600  0.59500000  0.40919600  1
  S  S1  1  0.00739900  0.18335000  0.01195800  1
  S  S2  1  0.36327700  0.26447100  0.42090800  1
  S  S3  1  0.44358700  0.95153600  0.92840100  1
  S  S4  1  0.97789300  0.76607100  0.60460200  1
  S  S5  1  0.95153600  0.44358700  0.42840100  1
  S  S6  1  0.59500000  0.56328600  0.90919600  1
  S  S7  1  0.26447100  0.36327700  0.92090800  1
  S  S8  1  0.17308800  0.74610200  0.06546800  1
  S  S9  1  0.74610200  0.17308800  0.56546800  1
  S  S10  1  0.18335000  0.00739900  0.51195800  1
  S  S11  1  0.76607100  0.97789300  0.10460200  1
loop_
_geom_bond_atom_site_label_1
_geom_bond_atom_site_label_2
_geom_bond_distance
_geom_bond_site_symmetry_2
Li0 S6 2.513802 1_554
Li0 S7 2.522726 1_554
Li0 S11 2.548472 1_545
Li0 S2 2.624464 1_555
Li1 S0 2.513802 1_555
Li1 S2 2.522726 1_555
Li1 S4 2.548472 1_455
Li1 S7 2.624464 1_555
B0 S11 1.797054 1_555
B0 S8 1.820967 1_655
B0 S1 1.822778 1_665
B1 S7 1.780262 1_555
B1 S1 1.820300 1_556
B1 S3 1.834002 1_545
B2 S2 1.780262 1_555
B2 S10 1.820300 1_555
B2 S5 1.834002 1_455
B3 S6 1.786029 1_555
B3 S8 1.816730 1_556
B3 S3 1.830533 1_555
B3 Sr1 3.361931 1_555
B4 S4 1.797054 1_555
B4 S9 1.820967 1_565
B4 S10 1.822778 1_665
B5 S0 1.786029 1_555
B5 S9 1.816730 1_555
B5 S5 1.830533 1_555
B5 Sr0 3.361931 1_555
S0 Sr1 3.119259 1_555
S0 Sr0 3.169397 1_555
S1 Sr0 3.411229 1_455
S2 Sr1 3.089251 1_545
S3 Sr1 3.235969 1_555
S3 Sr0 3.498403 1_556
S4 Sr0 3.053532 1_556
S4 Sr1 3.069099 1_555
S5 Sr0 3.235969 1_555
S5 Sr1 3.498403 1_555
S6 Sr0 3.119259 1_556
S6 Sr1 3.169397 1_555
S7 Sr0 3.089251 1_456
S8 Sr0 3.564862 1_455
S9 Sr1 3.564862 1_545
S10 Sr1 3.411229 1_545
S11 Sr1 3.053532 1_555
S11 Sr0 3.069099 1_555
