# generated using pymatgen
data_Co21(ReB3)2
_symmetry_space_group_name_H-M   'P 1'
_cell_length_a   7.34109243
_cell_length_b   7.34108995
_cell_length_c   7.34107633
_cell_angle_alpha   60.00006009
_cell_angle_beta   60.00009333
_cell_angle_gamma   59.99994510
_symmetry_Int_Tables_number   1
_chemical_formula_structural   Co21(ReB3)2
_chemical_formula_sum   'Co21 Re2 B6'
_cell_volume   279.74755738
_cell_formula_units_Z   1
loop_
 _symmetry_equiv_pos_site_id
 _symmetry_equiv_pos_as_xyz
  1  'x, y, z'
loop_
 _atom_site_type_symbol
 _atom_site_label
 _atom_site_symmetry_multiplicity
 _atom_site_fract_x
 _atom_site_fract_y
 _atom_site_fract_z
 _atom_site_occupancy
  Co  Co0  1  0.00000645  -0.00000796  0.00000126  1
  Co  Co1  1  0.61836755  0.61837536  0.14488445  1
  Co  Co2  1  0.61837164  0.14488353  0.61837100  1
  Co  Co3  1  0.14488414  0.61837670  0.61836811  1
  Co  Co4  1  0.61837150  0.61837890  0.61837313  1
  Co  Co5  1  0.38162967  0.38162856  0.85511371  1
  Co  Co6  1  0.38162710  0.85511612  0.38162875  1
  Co  Co7  1  0.85511245  0.38162737  0.38163055  1
  Co  Co8  1  0.38162704  0.38162602  0.38162607  1
  Co  Co9  1  0.00000408  -0.00000376  0.34223937  1
  Co  Co10  1  0.65776301  -0.00000443  0.34224243  1
  Co  Co11  1  0.00000165  0.65776512  0.34223503  1
  Co  Co12  1  0.65776022  0.34224032  0.00000052  1
  Co  Co13  1  0.00000332  0.34223400  0.00000160  1
  Co  Co14  1  0.00000239  0.34223724  0.65776086  1
  Co  Co15  1  0.34223629  0.65776499  0.00000008  1
  Co  Co16  1  0.34224036  -0.00000355  0.65776285  1
  Co  Co17  1  0.34223714  -0.00000294  0.00000280  1
  Co  Co18  1  0.00000160  0.99999435  0.65776154  1
  Co  Co19  1  0.00000030  0.65776618  -0.00000184  1
  Co  Co20  1  0.65776388  0.99999391  -0.00000145  1
  Re  Re0  1  0.75000955  0.75001169  0.75000881  1
  Re  Re1  1  0.24998141  0.24999854  0.24999076  1
  B  B0  1  0.72424614  0.72425652  0.27574934  1
  B  B1  1  0.27574616  0.72425842  0.27574753  1
  B  B2  1  0.72425364  0.27574263  0.27575061  1
  B  B3  1  0.27575064  0.27574567  0.72425184  1
  B  B4  1  0.72425409  0.27574319  0.72425227  1
  B  B5  1  0.27574659  0.72425832  0.72424702  1
loop_
_geom_bond_atom_site_label_1
_geom_bond_atom_site_label_2
_geom_bond_distance
_geom_bond_site_symmetry_2
Co0 Co15 2.512328 1_545
Co0 Co11 2.512344 1_545
Co0 Co19 2.512345 1_545
Co0 Co17 2.512371 1_555
Co0 Co16 2.512388 1_554
Co0 Co9 2.512403 1_555
Co0 Co18 2.512417 1_544
Co0 Co13 2.512419 1_555
Co0 Co10 2.512433 1_455
Co0 Co14 2.512435 1_554
Co0 Co20 2.512437 1_445
Co0 Co12 2.512466 1_455
Co1 Re0 2.366873 1_554
Co2 Re0 2.366851 1_545
Co3 Re0 2.366869 1_455
Co4 Re0 2.367058 1_555
Co5 Re1 2.366882 1_556
Co6 Re1 2.366915 1_565
Co7 Re1 2.366836 1_655
Co8 Re1 2.367069 1_555
B0 Co6 2.056378 1_555
B0 Co4 2.056408 1_555
B0 Co1 2.056410 1_555
B0 Co7 2.056438 1_555
B0 Co10 2.082275 1_565
B0 Co20 2.082276 1_555
B0 Co11 2.082337 1_655
B0 Co19 2.082339 1_655
B1 Co6 2.056380 1_555
B1 Co3 2.056386 1_555
B1 Co1 2.056393 1_555
B1 Co8 2.056460 1_555
B1 Co9 2.082248 1_565
B1 Co17 2.082260 1_565
B1 Co11 2.082306 1_555
B1 Co15 2.082315 1_555
B2 Co2 2.056384 1_555
B2 Co7 2.056402 1_555
B2 Co8 2.056425 1_555
B2 Co1 2.056460 1_555
B2 Co10 2.082300 1_555
B2 Co9 2.082310 1_655
B2 Co12 2.082313 1_555
B2 Co13 2.082323 1_655
B3 Co2 2.056390 1_555
B3 Co5 2.056404 1_555
B3 Co8 2.056418 1_555
B3 Co3 2.056449 1_555
B3 Co14 2.082308 1_555
B3 Co13 2.082310 1_556
B3 Co16 2.082311 1_555
B3 Co17 2.082315 1_556
B4 Co7 2.056392 1_555
B4 Co2 2.056401 1_555
B4 Co5 2.056411 1_555
B4 Co4 2.056480 1_555
B4 Co18 2.082310 1_645
B4 Co20 2.082310 1_546
B4 Co14 2.082326 1_655
B4 Co12 2.082327 1_556
B5 Co6 2.056371 1_555
B5 Co3 2.056400 1_555
B5 Co4 2.056417 1_555
B5 Co5 2.056442 1_555
B5 Co18 2.082252 1_555
B5 Co16 2.082271 1_565
B5 Co19 2.082315 1_556
B5 Co15 2.082329 1_556
