# generated using pymatgen
data_Na5Nd11Ti10Mn6O48
_symmetry_space_group_name_H-M   'P 1'
_cell_length_a   5.47087762
_cell_length_b   5.55460132
_cell_length_c   30.57935682
_cell_angle_alpha   90.44987498
_cell_angle_beta   90.21508899
_cell_angle_gamma   87.49829669
_symmetry_Int_Tables_number   1
_chemical_formula_structural   Na5Nd11Ti10Mn6O48
_chemical_formula_sum   'Na5 Nd11 Ti10 Mn6 O48'
_cell_volume   928.34244552
_cell_formula_units_Z   1
loop_
 _symmetry_equiv_pos_site_id
 _symmetry_equiv_pos_as_xyz
  1  'x, y, z'
loop_
 _atom_site_type_symbol
 _atom_site_label
 _atom_site_symmetry_multiplicity
 _atom_site_fract_x
 _atom_site_fract_y
 _atom_site_fract_z
 _atom_site_occupancy
  Na  Na0  1  0.48891472  0.49113997  0.93745930  1
  Na  Na1  1  0.99213474  0.03126039  0.18823141  1
  Na  Na2  1  0.99247217  0.02687172  0.43720493  1
  Na  Na3  1  0.99196568  0.02774308  0.68695496  1
  Na  Na4  1  0.99953224  0.99742948  0.93773857  1
  Nd  Nd0  1  0.01210998  0.96092594  0.06311169  1
  Nd  Nd1  1  0.01481975  0.95598611  0.31239165  1
  Nd  Nd2  1  0.01467396  0.95475393  0.56202152  1
  Nd  Nd3  1  0.00967803  0.95431546  0.81168230  1
  Nd  Nd4  1  0.49381250  0.45915743  0.06287664  1
  Nd  Nd5  1  0.49506445  0.45756408  0.31288830  1
  Nd  Nd6  1  0.49374229  0.45156402  0.81225283  1
  Nd  Nd7  1  0.49467727  0.45607397  0.56258511  1
  Nd  Nd8  1  0.50644069  0.54770928  0.43799681  1
  Nd  Nd9  1  0.50670913  0.55105754  0.18816288  1
  Nd  Nd10  1  0.50524082  0.54650781  0.68766499  1
  Ti  Ti0  1  0.50519393  0.00647563  0.12833565  1
  Ti  Ti1  1  0.50230389  0.98065493  0.99802121  1
  Ti  Ti2  1  0.50369942  0.00174387  0.62784725  1
  Ti  Ti3  1  0.50383917  0.00299103  0.37823388  1
  Ti  Ti4  1  0.49977472  0.97864363  0.87778601  1
  Ti  Ti5  1  0.98571540  0.48122916  0.99677264  1
  Ti  Ti6  1  0.00040802  0.49438574  0.24763357  1
  Ti  Ti7  1  0.99894816  0.49246388  0.74715178  1
  Ti  Ti8  1  0.98377427  0.47931151  0.87776398  1
  Ti  Ti9  1  0.00021385  0.49225086  0.49734574  1
  Mn  Mn0  1  0.50550389  0.00398086  0.24974402  1
  Mn  Mn1  1  0.50285482  -0.00021624  0.74902603  1
  Mn  Mn2  1  0.50533673  0.00168960  0.49939717  1
  Mn  Mn3  1  0.99976909  0.49878788  0.12569163  1
  Mn  Mn4  1  0.99852624  0.49472046  0.37556234  1
  Mn  Mn5  1  0.99806476  0.49368982  0.62520144  1
  O  O0  1  0.07866004  0.47870128  0.18716921  1
  O  O1  1  0.07850179  0.47591170  0.43690437  1
  O  O2  1  0.07735149  0.47494380  0.68647203  1
  O  O3  1  0.06784821  0.48186019  0.93753975  1
  O  O4  1  0.22041434  0.21438262  0.51213480  1
  O  O5  1  0.21902503  0.21321220  0.76182385  1
  O  O6  1  0.22644800  0.22805732  0.01269968  1
  O  O7  1  0.21985072  0.21583140  0.26247726  1
  O  O8  1  0.21394627  0.22674930  0.11242343  1
  O  O9  1  0.21317963  0.22193127  0.36212110  1
  O  O10  1  0.21286015  0.22078411  0.61168831  1
  O  O11  1  0.22669856  0.22454568  0.86213942  1
  O  O12  1  0.28912439  0.73189847  0.01146825  1
  O  O13  1  0.27337024  0.70078391  0.26104784  1
  O  O14  1  0.30023566  0.73512542  0.11375309  1
  O  O15  1  0.29749913  0.73189146  0.36343976  1
  O  O16  1  0.28841016  0.72841712  0.86328726  1
  O  O17  1  0.27295007  0.69923597  0.51071101  1
  O  O18  1  0.27380297  0.69705186  0.76044888  1
  O  O19  1  0.29721753  0.73092037  0.61307183  1
  O  O20  1  0.42325099  0.98371979  0.43821024  1
  O  O21  1  0.42506643  0.98710447  0.18855961  1
  O  O22  1  0.42248713  0.98258474  0.68787551  1
  O  O23  1  0.43560516  0.99465296  0.93741579  1
  O  O24  1  0.58073203  0.02126487  0.06264218  1
  O  O25  1  0.58377387  0.01810411  0.31168402  1
  O  O26  1  0.57865510  0.01186407  0.81103876  1
  O  O27  1  0.58368506  0.01643907  0.56136203  1
  O  O28  1  0.71147948  0.31754286  0.24247413  1
  O  O29  1  0.68200585  0.29590395  0.13320569  1
  O  O30  1  0.71152289  0.31508641  0.49228264  1
  O  O31  1  0.70946180  0.31490634  0.74231861  1
  O  O32  1  0.68199378  0.28963626  0.38350600  1
  O  O33  1  0.71967331  0.29224956  0.99439653  1
  O  O34  1  0.68107508  0.28903707  0.63316871  1
  O  O35  1  0.71895912  0.28793312  0.88033828  1
  O  O36  1  0.78595944  0.78620402  0.13521346  1
  O  O37  1  0.78367813  0.78993751  0.24059797  1
  O  O38  1  0.78221229  0.78043563  0.38509423  1
  O  O39  1  0.78186221  0.77996670  0.63474332  1
  O  O40  1  0.79373350  0.79038187  0.88089708  1
  O  O41  1  0.78398280  0.78881806  0.73990711  1
  O  O42  1  0.78311444  0.78787153  0.49014865  1
  O  O43  1  0.79458319  0.79170924  0.99409867  1
  O  O44  1  0.93007024  0.52536315  0.06349083  1
  O  O45  1  0.92488348  0.52001270  0.31378668  1
  O  O46  1  0.92866761  0.51733705  0.81255764  1
  O  O47  1  0.92452140  0.51884260  0.56342427  1
loop_
_geom_bond_atom_site_label_1
_geom_bond_atom_site_label_2
_geom_bond_distance
_geom_bond_site_symmetry_2
Na0 O3 2.306439 1_555
Na0 O33 2.395342 1_555
Na0 O35 2.402197 1_555
Na0 O23 2.785787 1_545
Na0 O23 2.799299 1_555
Na0 O12 2.819290 1_556
Na0 O16 2.826096 1_555
Na1 O21 2.370501 1_645
Na1 O36 2.416454 1_545
Na1 O37 2.417140 1_545
Na1 O0 2.550728 1_655
Na1 O28 2.720680 1_555
Na1 O29 2.769580 1_555
Na1 O7 2.794904 1_655
Na1 O8 2.863780 1_655
Na2 O20 2.358574 1_645
Na2 O38 2.413646 1_545
Na2 O42 2.424003 1_545
Na2 O1 2.558457 1_655
Na2 O32 2.740837 1_555
Na2 O30 2.743060 1_555
Na2 O4 2.818597 1_655
Na2 O9 2.842124 1_655
Na3 O22 2.357823 1_645
Na3 O39 2.419583 1_545
Na3 O41 2.420193 1_545
Na3 O2 2.547690 1_655
Na3 O34 2.739629 1_555
Na3 O31 2.749764 1_555
Na3 O5 2.810569 1_655
Na3 O10 2.842595 1_655
Na4 O40 2.382963 1_555
Na4 O23 2.385135 1_655
Na4 O43 2.385485 1_555
Na4 O33 2.790019 1_565
Na4 O35 2.801597 1_565
Nd0 O24 2.369173 1_465
Nd0 O8 2.401703 1_565
Nd0 O44 2.479969 1_455
Nd0 O6 2.480833 1_565
Nd0 O12 2.495439 1_555
Nd0 O14 2.509085 1_555
Nd0 O43 2.607881 1_454
Nd0 O36 2.737302 1_455
Nd1 O25 2.368402 1_465
Nd1 O9 2.400965 1_565
Nd1 O7 2.420735 1_565
Nd1 O45 2.492818 1_455
Nd1 O15 2.494436 1_555
Nd1 O13 2.506395 1_555
Nd1 O37 2.705320 1_455
Nd1 O38 2.770649 1_455
Nd2 O27 2.367839 1_465
Nd2 O10 2.399609 1_565
Nd2 O4 2.421361 1_565
Nd2 O47 2.492770 1_455
Nd2 O19 2.493344 1_555
Nd2 O17 2.505887 1_555
Nd2 O42 2.710017 1_455
Nd2 O39 2.770056 1_455
Nd3 O26 2.365804 1_465
Nd3 O5 2.428091 1_565
Nd3 O11 2.479691 1_565
Nd3 O46 2.486696 1_455
Nd3 O16 2.497204 1_555
Nd3 O18 2.527078 1_555
Nd3 O40 2.616791 1_455
Nd3 O41 2.689619 1_455
Nd4 O14 2.392683 1_555
Nd4 O12 2.428273 1_555
Nd4 O44 2.430672 1_555
Nd4 O24 2.457871 1_555
Nd4 O6 2.501561 1_555
Nd4 O29 2.537714 1_555
Nd4 O8 2.554811 1_555
Nd4 O33 2.580788 1_554
Nd5 O13 2.384401 1_555
Nd5 O15 2.389879 1_555
Nd5 O45 2.391891 1_555
Nd5 O25 2.467954 1_555
Nd5 O32 2.551644 1_555
Nd5 O28 2.560377 1_555
Nd5 O7 2.563753 1_555
Nd5 O9 2.565631 1_555
Nd6 O18 2.386012 1_555
Nd6 O46 2.422991 1_555
Nd6 O16 2.426294 1_555
Nd6 O26 2.466162 1_555
Nd6 O11 2.501888 1_555
Nd6 O31 2.541187 1_555
Nd6 O5 2.552246 1_555
Nd6 O35 2.567434 1_555
Nd7 O17 2.384998 1_555
Nd7 O19 2.390128 1_555
Nd7 O47 2.392350 1_555
Nd7 O27 2.469162 1_555
Nd7 O34 2.547898 1_555
Nd7 O30 2.560068 1_555
Nd7 O4 2.561185 1_555
Nd7 O10 2.562020 1_555
Nd8 O30 2.361622 1_555
Nd8 O32 2.368159 1_555
Nd8 O1 2.392091 1_555
Nd8 O20 2.444618 1_555
Nd8 O42 2.595907 1_555
Nd8 O38 2.604948 1_555
Nd8 O17 2.680005 1_555
Nd8 O15 2.732445 1_555
Nd9 O28 2.364044 1_555
Nd9 O29 2.368272 1_555
Nd9 O0 2.393312 1_555
Nd9 O21 2.443603 1_555
Nd9 O37 2.598365 1_555
Nd9 O36 2.624438 1_555
Nd9 O13 2.681103 1_555
Nd9 O14 2.723087 1_555
Nd10 O31 2.364460 1_555
Nd10 O34 2.366919 1_555
Nd10 O2 2.391582 1_555
Nd10 O22 2.444641 1_555
Nd10 O39 2.610263 1_555
Nd10 O41 2.610802 1_555
Nd10 O18 2.674996 1_555
Nd10 O19 2.731833 1_555
Mn0 O37 1.909930 1_545
Mn0 O21 1.922934 1_545
Mn0 O25 1.942056 1_555
Mn0 O7 1.953314 1_555
Mn0 O28 2.128875 1_555
Mn0 O13 2.183528 1_545
Mn1 O41 1.912378 1_545
Mn1 O22 1.921932 1_545
Mn1 O26 1.940873 1_555
Mn1 O5 1.950985 1_555
Mn1 O31 2.136264 1_555
Mn1 O18 2.171727 1_545
Mn2 O42 1.907981 1_545
Mn2 O20 1.925399 1_545
Mn2 O27 1.943041 1_555
Mn2 O4 1.952903 1_555
Mn2 O30 2.128224 1_555
Mn2 O17 2.181140 1_545
Mn3 O8 1.913186 1_655
Mn3 O0 1.930264 1_655
Mn3 O44 1.943984 1_555
Mn3 O36 1.958068 1_555
Mn3 O29 2.126751 1_555
Mn3 O14 2.181551 1_655
Mn4 O9 1.918975 1_655
Mn4 O1 1.927149 1_655
Mn4 O45 1.934972 1_555
Mn4 O38 1.958444 1_555
Mn4 O32 2.129608 1_555
Mn4 O15 2.179128 1_655
Mn5 O10 1.920380 1_655
Mn5 O2 1.924175 1_655
Mn5 O47 1.934853 1_555
Mn5 O39 1.960585 1_555
Mn5 O34 2.130423 1_555
Mn5 O19 2.180142 1_655
O0 Ti6 1.899916 1_555
O1 Ti9 1.899383 1_555
O2 Ti7 1.906832 1_455
O3 Ti5 1.867910 1_455
O3 Ti8 1.883307 1_455
O4 Ti9 1.970426 1_555
O5 Ti7 1.975042 1_455
O6 Ti5 1.947715 1_454
O6 Ti1 2.044973 1_544
O7 Ti6 1.971326 1_555
O8 Ti0 2.026325 1_555
O9 Ti3 2.021153 1_555
O10 Ti2 2.022563 1_555
O11 Ti8 1.956294 1_455
O11 Ti4 2.037957 1_545
O12 Ti1 1.895181 1_554
O12 Ti5 2.254392 1_454
O13 Ti6 1.962188 1_555
O14 Ti0 1.964988 1_565
O15 Ti3 1.969883 1_565
O16 Ti4 1.895347 1_555
O16 Ti8 2.259351 1_455
O17 Ti9 1.962926 1_555
O18 Ti7 1.963463 1_455
O19 Ti2 1.969019 1_565
O20 Ti3 1.892832 1_565
O21 Ti0 1.899621 1_565
O22 Ti2 1.895144 1_565
O23 Ti4 1.858931 1_555
O23 Ti1 1.889056 1_555
O24 Ti1 2.033448 1_544
O24 Ti0 2.055445 1_555
O25 Ti3 2.086216 1_555
O26 Ti4 2.099000 1_545
O27 Ti2 2.084214 1_555
O28 Ti6 1.902530 1_655
O29 Ti0 1.916602 1_555
O30 Ti9 1.902187 1_655
O31 Ti7 1.906597 1_555
O32 Ti3 1.908225 1_555
O33 Ti5 1.832207 1_555
O33 Ti1 2.146109 1_545
O34 Ti2 1.909098 1_555
O35 Ti8 1.836243 1_555
O35 Ti4 2.138339 1_545
O36 Ti0 1.933439 1_565
O37 Ti6 1.995236 1_655
O38 Ti3 1.931036 1_565
O39 Ti2 1.927662 1_565
O40 Ti4 1.882160 1_555
O40 Ti8 1.979140 1_555
O41 Ti7 1.994161 1_555
O42 Ti9 1.997229 1_655
O43 Ti1 1.877688 1_555
O43 Ti5 1.979510 1_555
O44 Ti5 2.074965 1_554
O45 Ti6 2.068770 1_655
O46 Ti8 2.026809 1_555
O46 Ti7 2.040588 1_555
O47 Ti9 2.067012 1_655
