# generated using pymatgen
data_NaFe3(PO4)3
_symmetry_space_group_name_H-M   'P 1'
_cell_length_a   8.55873206
_cell_length_b   8.55873206
_cell_length_c   6.55128317
_cell_angle_alpha   73.79653728
_cell_angle_beta   73.79653728
_cell_angle_gamma   93.39921852
_symmetry_Int_Tables_number   1
_chemical_formula_structural   NaFe3(PO4)3
_chemical_formula_sum   'Na2 Fe6 P6 O24'
_cell_volume   437.60257889
_cell_formula_units_Z   2
loop_
 _symmetry_equiv_pos_site_id
 _symmetry_equiv_pos_as_xyz
  1  'x, y, z'
loop_
 _atom_site_type_symbol
 _atom_site_label
 _atom_site_symmetry_multiplicity
 _atom_site_fract_x
 _atom_site_fract_y
 _atom_site_fract_z
 _atom_site_occupancy
  Na  Na0  1  0.01940200  0.98059800  0.25000000  1
  Na  Na1  1  0.98059800  0.01940200  0.75000000  1
  Fe  Fe0  1  0.62081500  0.94580200  0.12184200  1
  Fe  Fe1  1  0.37918500  0.05419800  0.87815800  1
  Fe  Fe2  1  0.28268500  0.71731500  0.75000000  1
  Fe  Fe3  1  0.05419800  0.37918500  0.37815800  1
  Fe  Fe4  1  0.71731500  0.28268500  0.25000000  1
  Fe  Fe5  1  0.94580200  0.62081500  0.62184200  1
  P  P0  1  0.88405500  0.66155700  0.11202400  1
  P  P1  1  0.66155700  0.88405500  0.61202400  1
  P  P2  1  0.11594500  0.33844300  0.88797600  1
  P  P3  1  0.33844300  0.11594500  0.38797600  1
  P  P4  1  0.68951800  0.31048200  0.75000000  1
  P  P5  1  0.31048200  0.68951800  0.25000000  1
  O  O0  1  0.51151300  0.26989900  0.76240900  1
  O  O1  1  0.47525100  0.25592100  0.34705000  1
  O  O2  1  0.52474900  0.74407900  0.65295000  1
  O  O3  1  0.98135000  0.31521900  0.12042300  1
  O  O4  1  0.68478100  0.01865000  0.37957700  1
  O  O5  1  0.25592100  0.47525100  0.84705000  1
  O  O6  1  0.48848700  0.73010100  0.23759100  1
  O  O7  1  0.01865000  0.68478100  0.87957700  1
  O  O8  1  0.16622200  0.16598100  0.90017000  1
  O  O9  1  0.19717600  0.72585800  0.46676200  1
  O  O10  1  0.27414200  0.80282400  0.03323800  1
  O  O11  1  0.80282400  0.27414200  0.53323800  1
  O  O12  1  0.74407900  0.52474900  0.15295000  1
  O  O13  1  0.16598100  0.16622200  0.40017000  1
  O  O14  1  0.83401900  0.83377800  0.59983000  1
  O  O15  1  0.73010100  0.48848700  0.73759100  1
  O  O16  1  0.03460200  0.38918700  0.69885900  1
  O  O17  1  0.26989900  0.51151300  0.26240900  1
  O  O18  1  0.72585800  0.19717600  0.96676200  1
  O  O19  1  0.38918700  0.03460200  0.19885900  1
  O  O20  1  0.83377800  0.83401900  0.09983000  1
  O  O21  1  0.31521900  0.98135000  0.62042300  1
  O  O22  1  0.96539800  0.61081300  0.30114100  1
  O  O23  1  0.61081300  0.96539800  0.80114100  1
loop_
_geom_bond_atom_site_label_1
_geom_bond_atom_site_label_2
_geom_bond_distance
_geom_bond_site_symmetry_2
Na0 O8 2.340052 1_564
Na0 O14 2.340052 1_455
Na0 O13 2.527937 1_565
Na0 O20 2.527937 1_455
Na1 O13 2.340052 1_655
Na1 O20 2.340052 1_546
Na1 O8 2.527937 1_655
Na1 O14 2.527937 1_545
Fe0 O6 1.938389 1_555
Fe0 O23 2.086886 1_554
Fe0 O20 2.096525 1_555
Fe0 O18 2.123709 1_564
Fe0 O19 2.143997 1_565
Fe0 O4 2.145329 1_565
Fe1 O0 1.938389 1_555
Fe1 O19 2.086886 1_556
Fe1 O8 2.096525 1_555
Fe1 O10 2.123709 1_546
Fe1 O23 2.143997 1_545
Fe1 O21 2.145329 1_545
Fe2 O5 1.968808 1_555
Fe2 O2 1.968808 1_555
Fe2 O7 2.151212 1_555
Fe2 O21 2.151212 1_555
Fe2 O9 2.161624 1_555
Fe2 O10 2.161624 1_556
Fe3 O17 1.938389 1_555
Fe3 O16 2.086886 1_555
Fe3 O13 2.096525 1_555
Fe3 O11 2.123709 1_455
Fe3 O22 2.143997 1_455
Fe3 O3 2.145329 1_455
Fe4 O1 1.968808 1_555
Fe4 O12 1.968808 1_555
Fe4 O4 2.151212 1_555
Fe4 O3 2.151212 1_555
Fe4 O18 2.161624 1_554
Fe4 O11 2.161624 1_555
Fe5 O15 1.938389 1_555
Fe5 O22 2.086886 1_555
Fe5 O14 2.096525 1_555
Fe5 O9 2.123709 1_655
Fe5 O16 2.143997 1_655
Fe5 O7 2.145329 1_655
O0 P4 1.516794 1_555
O1 P3 1.535358 1_555
O2 P1 1.535358 1_555
O3 P2 1.584426 1_654
O4 P1 1.584426 1_545
O5 P2 1.535358 1_555
O6 P5 1.516794 1_555
O7 P0 1.584426 1_456
O8 P2 1.548865 1_555
O9 P5 1.602328 1_555
O10 P5 1.602328 1_555
O11 P4 1.602328 1_555
O12 P0 1.535358 1_555
O13 P3 1.548865 1_555
O14 P1 1.548865 1_555
O15 P4 1.516794 1_555
O16 P2 1.557326 1_555
O17 P5 1.516794 1_555
O18 P4 1.602328 1_555
O19 P3 1.557326 1_555
O20 P0 1.548865 1_555
O21 P3 1.584426 1_565
O22 P0 1.557326 1_555
O23 P1 1.557326 1_555
