# generated using pymatgen
data_La3Si2Cl3O7
_symmetry_space_group_name_H-M   'P 1'
_cell_length_a   12.23751200
_cell_length_b   5.40827900
_cell_length_c   7.96672963
_cell_angle_alpha   71.07855792
_cell_angle_beta   90.00000000
_cell_angle_gamma   90.00000000
_symmetry_Int_Tables_number   1
_chemical_formula_structural   La3Si2Cl3O7
_chemical_formula_sum   'La6 Si4 Cl6 O14'
_cell_volume   498.77759749
_cell_formula_units_Z   2
loop_
 _symmetry_equiv_pos_site_id
 _symmetry_equiv_pos_as_xyz
  1  'x, y, z'
loop_
 _atom_site_type_symbol
 _atom_site_label
 _atom_site_symmetry_multiplicity
 _atom_site_fract_x
 _atom_site_fract_y
 _atom_site_fract_z
 _atom_site_occupancy
  La  La0  1  0.50556000  0.97676700  0.42133300  1
  La  La1  1  0.00556000  0.02323300  0.57866700  1
  La  La2  1  0.25221100  0.56132300  0.29994500  1
  La  La3  1  0.53077300  0.71279700  0.97045000  1
  La  La4  1  0.75221100  0.43867700  0.70005500  1
  La  La5  1  0.03077300  0.28720300  0.02955000  1
  Si  Si0  1  0.84333500  0.78400200  0.93524200  1
  Si  Si1  1  0.45549100  0.39155200  0.68334200  1
  Si  Si2  1  0.34333500  0.21599800  0.06475800  1
  Si  Si3  1  0.95549100  0.60844800  0.31665800  1
  Cl  Cl0  1  0.12967700  0.83944000  0.94041200  1
  Cl  Cl1  1  0.25331300  0.01374500  0.50590200  1
  Cl  Cl2  1  0.62967700  0.16056000  0.05958800  1
  Cl  Cl3  1  0.75331300  0.98625500  0.49409800  1
  Cl  Cl4  1  0.12390500  0.45658200  0.66460000  1
  Cl  Cl5  1  0.62390500  0.54341800  0.33540000  1
  O  O0  1  0.49624000  0.10007900  0.69099300  1
  O  O1  1  0.89309200  0.44203800  0.49810600  1
  O  O2  1  0.39309200  0.55796200  0.50189400  1
  O  O3  1  0.99624000  0.89992100  0.30900700  1
  O  O4  1  0.21609300  0.26887800  0.09662400  1
  O  O5  1  0.05705400  0.41155400  0.30393800  1
  O  O6  1  0.38166000  0.90921800  0.12741600  1
  O  O7  1  0.88273700  0.62026900  0.13888000  1
  O  O8  1  0.41075800  0.35820000  0.18997400  1
  O  O9  1  0.88166000  0.09078200  0.87258400  1
  O  O10  1  0.91075800  0.64180000  0.81002600  1
  O  O11  1  0.55705400  0.58844600  0.69606200  1
  O  O12  1  0.38273700  0.37973100  0.86112000  1
  O  O13  1  0.71609300  0.73112200  0.90337600  1
loop_
_geom_bond_atom_site_label_1
_geom_bond_atom_site_label_2
_geom_bond_distance
_geom_bond_site_symmetry_2
La0 O0 2.449935 1_565
La0 O2 2.548273 1_555
La0 O8 2.555938 1_565
La0 O11 2.572356 1_555
La0 O6 2.910340 1_555
La1 O3 2.449935 1_445
La1 O1 2.548273 1_455
La1 O10 2.555938 1_445
La1 O5 2.572356 1_555
La1 O9 2.910340 1_455
La2 O2 2.354172 1_555
La2 O6 2.502316 1_555
La2 O5 2.518742 1_555
La2 O8 2.522502 1_555
La2 O4 2.642380 1_555
La3 O13 2.324691 1_555
La3 O11 2.507519 1_555
La3 O0 2.549126 1_565
La3 O8 2.591962 1_556
La3 O6 2.623656 1_556
La3 O12 2.881454 1_555
La4 O1 2.354172 1_555
La4 O9 2.502316 1_555
La4 O11 2.518742 1_555
La4 O10 2.522502 1_555
La4 O13 2.642380 1_555
La5 O4 2.324691 1_555
La5 O5 2.507519 1_555
La5 O3 2.549126 1_445
La5 O10 2.591962 1_454
La5 O9 2.623656 1_454
La5 O7 2.881454 1_455
Cl0 La5 2.991453 1_566
Cl0 La5 3.084443 1_556
Cl0 La1 3.121329 1_565
Cl0 La2 3.149773 1_556
Cl1 La2 2.882925 1_555
Cl1 La1 3.090352 1_555
Cl1 La0 3.179639 1_545
Cl1 La2 3.359034 1_545
Cl2 La3 2.991453 1_544
Cl2 La3 3.084443 1_554
Cl2 La0 3.121329 1_545
Cl2 La4 3.149773 1_554
Cl3 La4 2.882925 1_555
Cl3 La0 3.090352 1_555
Cl3 La1 3.179639 1_665
Cl3 La4 3.359034 1_565
Cl4 La5 2.977259 1_556
Cl4 La1 3.016536 1_555
Cl4 La2 3.187259 1_555
Cl4 La1 3.255342 1_565
Cl5 La3 2.977259 1_554
Cl5 La0 3.016536 1_555
Cl5 La4 3.187259 1_555
Cl5 La0 3.255342 1_545
O0 Si1 1.635543 1_555
O1 Si3 1.624484 1_555
O2 Si1 1.624484 1_555
O3 Si3 1.635543 1_555
O4 Si2 1.618013 1_555
O5 Si3 1.661000 1_455
O6 Si2 1.638535 1_565
O7 Si0 1.648300 1_554
O7 Si3 1.656496 1_555
O8 Si2 1.662807 1_555
O9 Si0 1.638535 1_545
O10 Si0 1.662807 1_555
O11 Si1 1.661000 1_555
O12 Si2 1.648300 1_556
O12 Si1 1.656496 1_555
O13 Si0 1.618013 1_555
