# generated using pymatgen
data_Ba2B5ClO9
_symmetry_space_group_name_H-M   'P 1'
_cell_length_a   6.70814054
_cell_length_b   11.61670944
_cell_length_c   11.69155524
_cell_angle_alpha   90.00000000
_cell_angle_beta   90.00000000
_cell_angle_gamma   90.00000000
_symmetry_Int_Tables_number   1
_chemical_formula_structural   Ba2B5ClO9
_chemical_formula_sum   'Ba8 B20 Cl4 O36'
_cell_volume   911.08220781
_cell_formula_units_Z   4
loop_
 _symmetry_equiv_pos_site_id
 _symmetry_equiv_pos_as_xyz
  1  'x, y, z'
loop_
 _atom_site_type_symbol
 _atom_site_label
 _atom_site_symmetry_multiplicity
 _atom_site_fract_x
 _atom_site_fract_y
 _atom_site_fract_z
 _atom_site_occupancy
  Ba  Ba0  1  0.99503389  0.72996188  0.01973756  1
  Ba  Ba1  1  0.64802881  0.45683999  0.74424798  1
  Ba  Ba2  1  0.99503389  0.27003812  0.98026244  1
  Ba  Ba3  1  0.14802881  0.95683999  0.75575202  1
  Ba  Ba4  1  0.14802881  0.04316001  0.24424798  1
  Ba  Ba5  1  0.64802881  0.54316001  0.25575202  1
  Ba  Ba6  1  0.49503389  0.22996188  0.48026244  1
  Ba  Ba7  1  0.49503389  0.77003812  0.51973756  1
  B  B0  1  0.84334822  0.81308306  0.27184679  1
  B  B1  1  0.49851732  0.20070937  0.81924430  1
  B  B2  1  0.12995104  0.51034632  0.75165252  1
  B  B3  1  0.99851732  0.29929063  0.31924430  1
  B  B4  1  0.49851732  0.79929063  0.18075570  1
  B  B5  1  0.62995104  0.98965368  0.25165252  1
  B  B6  1  0.96366432  0.27464327  0.54338745  1
  B  B7  1  0.46366432  0.22535673  0.04338745  1
  B  B8  1  0.34334822  0.31308306  0.22815321  1
  B  B9  1  0.67883604  0.21529311  0.21336500  1
  B  B10  1  0.17883604  0.28470689  0.71336500  1
  B  B11  1  0.99851732  0.70070937  0.68075570  1
  B  B12  1  0.84334822  0.18691694  0.72815321  1
  B  B13  1  0.46366432  0.77464327  0.95661255  1
  B  B14  1  0.96366432  0.72535673  0.45661255  1
  B  B15  1  0.12995104  0.48965368  0.24834748  1
  B  B16  1  0.34334822  0.68691694  0.77184679  1
  B  B17  1  0.62995104  0.01034632  0.74834748  1
  B  B18  1  0.67883604  0.78470689  0.78663500  1
  B  B19  1  0.17883604  0.71529311  0.28663500  1
  Cl  Cl0  1  -0.00113383  0.00000000  0.00000000  1
  Cl  Cl1  1  0.26119625  0.00000000  0.50000000  1
  Cl  Cl2  1  0.76119625  0.50000000  0.00000000  1
  Cl  Cl3  1  0.49886617  0.50000000  0.50000000  1
  O  O0  1  0.98125057  0.42540772  0.29738321  1
  O  O1  1  0.39095531  0.26721620  0.73059622  1
  O  O2  1  0.30943241  0.75275771  0.87965904  1
  O  O3  1  0.71113171  0.23318087  0.81678283  1
  O  O4  1  0.40856870  0.77388915  0.06863128  1
  O  O5  1  0.48125057  0.07459228  0.79738321  1
  O  O6  1  0.30943241  0.24724229  0.12034096  1
  O  O7  1  0.89095531  0.76721620  0.76940378  1
  O  O8  1  0.89095531  0.23278380  0.23059622  1
  O  O9  1  0.21113171  0.26681913  0.31678283  1
  O  O10  1  0.09899029  0.39446093  0.76812289  1
  O  O11  1  0.90856870  0.27388915  0.43136872  1
  O  O12  1  0.21113171  0.73318087  0.68321717  1
  O  O13  1  0.64972654  0.20689958  0.08598372  1
  O  O14  1  0.59899029  0.10553907  0.26812289  1
  O  O15  1  0.98125057  0.57459228  0.70261679  1
  O  O16  1  0.79830899  0.93713234  0.29255828  1
  O  O17  1  0.55409564  0.30742823  0.26035547  1
  O  O18  1  0.14972654  0.70689958  0.41401628  1
  O  O19  1  0.64972654  0.79310042  0.91401628  1
  O  O20  1  0.55409564  0.69257177  0.73964453  1
  O  O21  1  0.29830899  0.43713234  0.20744172  1
  O  O22  1  0.59899029  0.89446093  0.73187711  1
  O  O23  1  0.05409564  0.80742823  0.23964453  1
  O  O24  1  0.09899029  0.60553907  0.23187711  1
  O  O25  1  0.90856870  0.72611085  0.56863128  1
  O  O26  1  0.80943241  0.25275771  0.62034096  1
  O  O27  1  0.39095531  0.73278380  0.26940378  1
  O  O28  1  0.40856870  0.22611085  0.93136872  1
  O  O29  1  0.05409564  0.19257177  0.76035547  1
  O  O30  1  0.79830899  0.06286766  0.70744172  1
  O  O31  1  0.29830899  0.56286766  0.79255828  1
  O  O32  1  0.80943241  0.74724229  0.37965904  1
  O  O33  1  0.14972654  0.29310042  0.58598372  1
  O  O34  1  0.71113171  0.76681913  0.18321717  1
  O  O35  1  0.48125057  0.92540772  0.20261679  1
loop_
_geom_bond_atom_site_label_1
_geom_bond_atom_site_label_2
_geom_bond_distance
_geom_bond_site_symmetry_2
Ba0 O2 2.683339 1_654
Ba0 O19 2.726050 1_554
Ba0 O34 2.731933 1_555
Ba0 O23 2.752657 1_655
Ba0 O4 2.877937 1_655
Ba0 O24 2.954155 1_655
Ba0 O7 3.039876 1_554
Ba0 Cl2 3.106475 1_555
Ba0 Cl0 3.145536 1_665
Ba1 O15 2.665446 1_555
Ba1 O31 2.709182 1_555
Ba1 O3 2.765668 1_555
Ba1 O1 2.802084 1_555
Ba1 O20 2.810503 1_555
Ba1 O26 2.981851 1_555
Ba1 Cl3 3.067126 1_555
Ba1 O10 3.123192 1_655
Ba1 Cl2 3.125477 1_556
Ba2 O6 2.683339 1_656
Ba2 O13 2.726050 1_556
Ba2 O3 2.731933 1_555
Ba2 O29 2.752657 1_655
Ba2 O28 2.877937 1_655
Ba2 O10 2.954155 1_655
Ba2 O8 3.039876 1_556
Ba2 Cl2 3.106475 1_556
Ba2 Cl0 3.145536 1_656
Ba3 O5 2.665446 1_565
Ba3 O30 2.709182 1_465
Ba3 O12 2.765668 1_555
Ba3 O7 2.802084 1_455
Ba3 O29 2.810503 1_565
Ba3 O2 2.981851 1_555
Ba3 Cl0 3.067126 1_566
Ba3 O22 3.123192 1_555
Ba3 Cl1 3.125477 1_565
Ba4 O35 2.665446 1_545
Ba4 O16 2.709182 1_445
Ba4 O9 2.765668 1_555
Ba4 O8 2.802084 1_455
Ba4 O23 2.810503 1_545
Ba4 O6 2.981851 1_555
Ba4 Cl0 3.067126 1_555
Ba4 O14 3.123192 1_555
Ba4 Cl1 3.125477 1_555
Ba5 O0 2.665446 1_555
Ba5 O21 2.709182 1_555
Ba5 O34 2.765668 1_555
Ba5 O27 2.802084 1_555
Ba5 O17 2.810503 1_555
Ba5 O32 2.981851 1_555
Ba5 Cl3 3.067126 1_555
Ba5 O24 3.123192 1_655
Ba5 Cl2 3.125477 1_555
Ba6 O26 2.683339 1_555
Ba6 O33 2.726050 1_555
Ba6 O9 2.731933 1_555
Ba6 O17 2.752657 1_555
Ba6 O11 2.877937 1_555
Ba6 O14 2.954155 1_555
Ba6 O1 3.039876 1_555
Ba6 Cl1 3.106475 1_555
Ba6 Cl3 3.145536 1_555
Ba7 O32 2.683339 1_555
Ba7 O18 2.726050 1_555
Ba7 O12 2.731933 1_555
Ba7 O20 2.752657 1_555
Ba7 O25 2.877937 1_555
Ba7 O22 2.954155 1_555
Ba7 O27 3.039876 1_555
Ba7 Cl1 3.106475 1_565
Ba7 Cl3 3.145536 1_555
B0 O23 1.464472 1_655
B0 O34 1.466023 1_555
B0 O32 1.491846 1_555
B0 O16 1.492155 1_555
B1 O28 1.472967 1_555
B1 O3 1.475567 1_555
B1 O1 1.480443 1_555
B1 O5 1.491697 1_555
B2 O31 1.369836 1_555
B2 O15 1.371384 1_455
B2 O10 1.375678 1_555
B3 O11 1.472967 1_555
B3 O9 1.475567 1_655
B3 O8 1.480443 1_555
B3 O0 1.491697 1_555
B4 O4 1.472967 1_555
B4 O34 1.475567 1_555
B4 O27 1.480443 1_555
B4 O35 1.491697 1_555
B5 O16 1.369836 1_555
B5 O35 1.371384 1_555
B5 O14 1.375678 1_565
B6 O33 1.360818 1_655
B6 O11 1.360851 1_555
B6 O26 1.394462 1_555
B7 O13 1.360818 1_555
B7 O28 1.360851 1_554
B7 O6 1.394462 1_555
B8 O17 1.464472 1_555
B8 O9 1.466023 1_555
B8 O6 1.491846 1_555
B8 O21 1.492155 1_555
B9 O8 1.451409 1_555
B9 O17 1.465463 1_555
B9 O13 1.505194 1_555
B9 O14 1.523917 1_555
B10 O1 1.451409 1_555
B10 O29 1.465463 1_555
B10 O33 1.505194 1_555
B10 O10 1.523917 1_555
B11 O25 1.472967 1_555
B11 O12 1.475567 1_655
B11 O7 1.480443 1_555
B11 O15 1.491697 1_555
B12 O29 1.464472 1_655
B12 O3 1.466023 1_555
B12 O26 1.491846 1_555
B12 O30 1.492155 1_555
B13 O19 1.360818 1_555
B13 O4 1.360851 1_556
B13 O2 1.394462 1_555
B14 O18 1.360818 1_655
B14 O25 1.360851 1_555
B14 O32 1.394462 1_555
B15 O21 1.369836 1_555
B15 O0 1.371384 1_455
B15 O24 1.375678 1_555
B16 O20 1.464472 1_555
B16 O12 1.466023 1_555
B16 O2 1.491846 1_555
B16 O31 1.492155 1_555
B17 O30 1.369836 1_555
B17 O5 1.371384 1_555
B17 O22 1.375678 1_545
B18 O7 1.451409 1_555
B18 O20 1.465463 1_555
B18 O19 1.505194 1_555
B18 O22 1.523917 1_555
B19 O27 1.451409 1_555
B19 O23 1.465463 1_555
B19 O18 1.505194 1_555
B19 O24 1.523917 1_555
