# generated using pymatgen
data_Si3N4
_symmetry_space_group_name_H-M   'P 1'
_cell_length_a   7.41495217
_cell_length_b   7.41495217
_cell_length_c   6.25114300
_cell_angle_alpha   90.00000000
_cell_angle_beta   90.00000000
_cell_angle_gamma   120.00000155
_symmetry_Int_Tables_number   1
_chemical_formula_structural   Si3N4
_chemical_formula_sum   'Si12 N16'
_cell_volume   297.65060327
_cell_formula_units_Z   4
loop_
 _symmetry_equiv_pos_site_id
 _symmetry_equiv_pos_as_xyz
  1  'x, y, z'
loop_
 _atom_site_type_symbol
 _atom_site_label
 _atom_site_symmetry_multiplicity
 _atom_site_fract_x
 _atom_site_fract_y
 _atom_site_fract_z
 _atom_site_occupancy
  Si  Si0  1  0.10981900  0.48944000  0.75177300  1
  Si  Si1  1  0.89018100  0.37962100  0.25177300  1
  Si  Si2  1  0.51056000  0.62037900  0.75177300  1
  Si  Si3  1  0.23723800  0.17279800  0.53093800  1
  Si  Si4  1  0.76276200  0.93556000  0.03093800  1
  Si  Si5  1  0.17279800  0.23723800  0.03093800  1
  Si  Si6  1  0.62037900  0.51056000  0.25177300  1
  Si  Si7  1  0.37962100  0.89018100  0.75177300  1
  Si  Si8  1  0.48944000  0.10981900  0.25177300  1
  Si  Si9  1  0.82720200  0.06444000  0.53093800  1
  Si  Si10  1  0.93556000  0.76276200  0.53093800  1
  Si  Si11  1  0.06444000  0.82720200  0.03093800  1
  N  N0  1  0.62018300  0.65969000  0.02041100  1
  N  N1  1  0.35529800  0.30380700  0.25841600  1
  N  N2  1  0.65969000  0.62018300  0.52041100  1
  N  N3  1  0.05149100  0.69619300  0.75841600  1
  N  N4  1  0.34031000  0.96049200  0.02041100  1
  N  N5  1  0.69619300  0.05149100  0.25841600  1
  N  N6  1  0.00000000  0.00000000  0.38403500  1
  N  N7  1  0.03950800  0.37981700  0.02041100  1
  N  N8  1  0.30380700  0.35529800  0.75841600  1
  N  N9  1  0.00000000  0.00000000  0.18134900  1
  N  N10  1  0.37981700  0.03950800  0.52041100  1
  N  N11  1  0.64470200  0.94850900  0.75841600  1
  N  N12  1  0.96049200  0.34031000  0.52041100  1
  N  N13  1  0.94850900  0.64470200  0.25841600  1
  N  N14  1  0.00000000  0.00000000  0.88403500  1
  N  N15  1  0.00000000  0.00000000  0.68134900  1
loop_
_geom_bond_atom_site_label_1
_geom_bond_atom_site_label_2
_geom_bond_distance
_geom_bond_site_symmetry_2
N0 Si4 1.773066 1_555
N0 Si6 1.821017 1_555
N0 Si2 1.824495 1_554
N1 Si6 1.789445 1_555
N1 Si5 1.851753 1_555
N1 Si3 1.939530 1_555
N1 Si8 2.119156 1_555
N2 Si10 1.773066 1_555
N2 Si2 1.821017 1_555
N2 Si6 1.824495 1_555
N3 Si0 1.789445 1_555
N3 Si10 1.851753 1_455
N3 Si11 1.939530 1_556
N3 Si7 2.119155 1_555
N4 Si11 1.773066 1_555
N4 Si8 1.821019 1_565
N4 Si7 1.824493 1_554
N5 Si8 1.789445 1_555
N5 Si4 1.851753 1_545
N5 Si9 1.939530 1_555
N5 Si1 2.119155 1_555
N6 N9 1.267019 1_555
N6 Si3 1.823605 1_555
N6 Si10 1.823605 1_445
N6 Si9 1.823605 1_455
N7 Si5 1.773059 1_555
N7 Si1 1.821021 1_455
N7 Si0 1.824495 1_554
N8 Si2 1.789445 1_555
N8 Si3 1.851753 1_555
N8 Si5 1.939530 1_556
N8 Si0 2.119156 1_555
N9 Si5 1.834745 1_555
N9 Si4 1.834745 1_445
N9 Si11 1.834745 1_545
N10 Si3 1.773059 1_555
N10 Si7 1.821021 1_545
N10 Si8 1.824495 1_555
N11 Si7 1.789445 1_555
N11 Si9 1.851753 1_565
N11 Si4 1.939530 1_556
N11 Si2 2.119155 1_555
N12 Si9 1.773066 1_555
N12 Si0 1.821019 1_655
N12 Si1 1.824493 1_555
N13 Si1 1.789445 1_555
N13 Si11 1.851753 1_655
N13 Si10 1.939530 1_555
N13 Si6 2.119155 1_555
N14 N15 1.267019 1_555
N14 Si5 1.823605 1_556
N14 Si4 1.823605 1_446
N14 Si11 1.823605 1_546
N15 Si3 1.834745 1_555
N15 Si10 1.834745 1_445
N15 Si9 1.834745 1_455
