# generated using pymatgen
data_Cs2Si3SnO9
_symmetry_space_group_name_H-M   'P 1'
_cell_length_a   8.08209200
_cell_length_b   10.52082800
_cell_length_c   11.94143000
_cell_angle_alpha   90.00000000
_cell_angle_beta   90.00000000
_cell_angle_gamma   90.00000000
_symmetry_Int_Tables_number   1
_chemical_formula_structural   Cs2Si3SnO9
_chemical_formula_sum   'Cs8 Si12 Sn4 O36'
_cell_volume   1015.38337309
_cell_formula_units_Z   4
loop_
 _symmetry_equiv_pos_site_id
 _symmetry_equiv_pos_as_xyz
  1  'x, y, z'
loop_
 _atom_site_type_symbol
 _atom_site_label
 _atom_site_symmetry_multiplicity
 _atom_site_fract_x
 _atom_site_fract_y
 _atom_site_fract_z
 _atom_site_occupancy
  Cs  Cs0  1  0.76659200  0.78753600  0.89697400  1
  Cs  Cs1  1  0.26659200  0.71246400  0.10302600  1
  Cs  Cs2  1  0.92554700  0.89230700  0.52121900  1
  Cs  Cs3  1  0.42554700  0.60769300  0.47878100  1
  Cs  Cs4  1  0.07445300  0.39230700  0.97878100  1
  Cs  Cs5  1  0.57445300  0.10769300  0.02121900  1
  Cs  Cs6  1  0.73340800  0.21246400  0.39697400  1
  Cs  Cs7  1  0.23340800  0.28753600  0.60302600  1
  Si  Si0  1  0.07914000  0.38973900  0.29173300  1
  Si  Si1  1  0.92086000  0.88973900  0.20826700  1
  Si  Si2  1  0.58436400  0.47503900  0.99283700  1
  Si  Si3  1  0.55982800  0.87332300  0.28609000  1
  Si  Si4  1  0.05982800  0.62667700  0.71391000  1
  Si  Si5  1  0.42086000  0.61026100  0.79173300  1
  Si  Si6  1  0.57914000  0.11026100  0.70826700  1
  Si  Si7  1  0.08436400  0.02496100  0.00716300  1
  Si  Si8  1  0.91563600  0.52496100  0.49283700  1
  Si  Si9  1  0.41563600  0.97503900  0.50716300  1
  Si  Si10  1  0.44017200  0.37332300  0.21391000  1
  Si  Si11  1  0.94017200  0.12667700  0.78609000  1
  Sn  Sn0  1  0.24499200  0.09023300  0.26358300  1
  Sn  Sn1  1  0.74499200  0.40976700  0.73641700  1
  Sn  Sn2  1  0.75500800  0.59023300  0.23641700  1
  Sn  Sn3  1  0.25500800  0.90976700  0.76358300  1
  O  O0  1  0.55958100  0.05530500  0.57834700  1
  O  O1  1  0.41621600  0.94908400  0.21853900  1
  O  O2  1  0.57896900  0.26461100  0.70033500  1
  O  O3  1  0.02971700  0.61600200  0.57649000  1
  O  O4  1  0.19213100  0.11198100  0.09241900  1
  O  O5  1  0.58378400  0.44908400  0.28146100  1
  O  O6  1  0.97028300  0.11600200  0.92351000  1
  O  O7  1  0.56754100  0.55106400  0.71482300  1
  O  O8  1  0.06424400  0.77632500  0.74687400  1
  O  O9  1  0.69213100  0.38801900  0.90758100  1
  O  O10  1  0.43245900  0.05106400  0.78517700  1
  O  O11  1  0.94041900  0.94469500  0.07834700  1
  O  O12  1  0.43575600  0.22367500  0.24687400  1
  O  O13  1  0.05958100  0.44469500  0.42165300  1
  O  O14  1  0.74118200  0.94166600  0.25864500  1
  O  O15  1  0.93245900  0.44893600  0.21482300  1
  O  O16  1  0.06754100  0.94893600  0.28517700  1
  O  O17  1  0.07896900  0.23538900  0.29966500  1
  O  O18  1  0.24118200  0.55833400  0.74135500  1
  O  O19  1  0.52971700  0.88399800  0.42351000  1
  O  O20  1  0.75881800  0.05833400  0.75864500  1
  O  O21  1  0.19476800  0.92711400  0.93276600  1
  O  O22  1  0.44041900  0.55530500  0.92165300  1
  O  O23  1  0.30786900  0.88801900  0.59241900  1
  O  O24  1  0.69476800  0.57288600  0.06723400  1
  O  O25  1  0.42103100  0.76461100  0.79966500  1
  O  O26  1  0.30523200  0.07288600  0.43276600  1
  O  O27  1  0.56424400  0.72367500  0.25312600  1
  O  O28  1  0.80786900  0.61198100  0.40758100  1
  O  O29  1  0.80523200  0.42711400  0.56723400  1
  O  O30  1  0.92103100  0.73538900  0.20033500  1
  O  O31  1  0.93575600  0.27632500  0.75312600  1
  O  O32  1  0.25881800  0.44166600  0.24135500  1
  O  O33  1  0.08378400  0.05091600  0.71853900  1
  O  O34  1  0.91621600  0.55091600  0.78146100  1
  O  O35  1  0.47028300  0.38399800  0.07649000  1
loop_
_geom_bond_atom_site_label_1
_geom_bond_atom_site_label_2
_geom_bond_distance
_geom_bond_site_symmetry_2
Cs0 O8 3.002299 1_655
Cs0 O25 3.034548 1_555
Cs0 O11 3.065697 1_556
Cs0 O34 3.092308 1_555
Cs0 O24 3.093632 1_556
Cs0 O20 3.293851 1_565
Cs1 O27 3.002299 1_555
Cs1 O30 3.034548 1_455
Cs1 O22 3.065697 1_554
Cs1 O1 3.092308 1_555
Cs1 O21 3.093632 1_554
Cs1 O32 3.293851 1_555
Cs2 O3 3.097553 1_655
Cs2 O16 3.101115 1_655
Cs2 O33 3.157875 1_665
Cs2 O8 3.163323 1_655
Cs2 O23 3.205119 1_655
Cs2 O28 3.382921 1_555
Cs2 O19 3.406390 1_555
Cs2 O0 3.486343 1_565
Cs2 O14 3.510178 1_555
Cs2 O20 3.592396 1_565
Cs3 O19 3.097553 1_555
Cs3 O7 3.101115 1_555
Cs3 O5 3.157875 1_555
Cs3 O27 3.163323 1_555
Cs3 O28 3.205119 1_555
Cs3 O23 3.382921 1_555
Cs3 O3 3.406390 1_555
Cs3 O13 3.486343 1_555
Cs3 O18 3.510178 1_555
Cs3 O32 3.592396 1_555
Cs4 O6 3.097553 1_455
Cs4 O15 3.101115 1_456
Cs4 O34 3.157875 1_455
Cs4 O31 3.163323 1_455
Cs4 O9 3.205119 1_455
Cs4 O4 3.382921 1_556
Cs4 O35 3.406390 1_556
Cs4 O22 3.486343 1_555
Cs4 O32 3.510178 1_556
Cs4 O18 3.592396 1_555
Cs5 O35 3.097553 1_555
Cs5 O10 3.101115 1_554
Cs5 O1 3.157875 1_545
Cs5 O12 3.163323 1_555
Cs5 O4 3.205119 1_555
Cs5 O9 3.382921 1_554
Cs5 O6 3.406390 1_554
Cs5 O11 3.486343 1_545
Cs5 O20 3.510178 1_554
Cs5 O14 3.592396 1_545
Cs6 O12 3.002299 1_555
Cs6 O17 3.034548 1_655
Cs6 O0 3.065697 1_555
Cs6 O5 3.092308 1_555
Cs6 O29 3.093632 1_555
Cs6 O14 3.293851 1_545
Cs7 O31 3.002299 1_455
Cs7 O2 3.034548 1_555
Cs7 O13 3.065697 1_555
Cs7 O33 3.092308 1_555
Cs7 O26 3.093632 1_555
Cs7 O18 3.293851 1_555
O0 Si6 1.663196 1_555
O0 Si9 1.670069 1_545
O1 Si3 1.622714 1_555
O1 Sn0 2.099905 1_565
O2 Si6 1.626650 1_555
O2 Sn1 2.078060 1_555
O3 Si4 1.662736 1_555
O3 Si8 1.662953 1_455
O4 Si7 1.622737 1_555
O4 Sn0 2.100614 1_555
O5 Si10 1.622714 1_555
O5 Sn2 2.099905 1_555
O6 Si11 1.662736 1_555
O6 Si7 1.662953 1_656
O7 Si5 1.623808 1_555
O7 Sn1 2.081638 1_555
O8 Si4 1.623276 1_555
O8 Sn3 2.094723 1_555
O9 Si2 1.622737 1_555
O9 Sn1 2.100614 1_555
O10 Si6 1.623808 1_555
O10 Sn3 2.081638 1_545
O11 Si1 1.663196 1_555
O11 Si7 1.670069 1_665
O12 Si10 1.623276 1_555
O12 Sn0 2.094723 1_555
O13 Si0 1.663196 1_555
O13 Si8 1.670069 1_455
O14 Si1 1.664084 1_555
O14 Si3 1.665155 1_555
O15 Si0 1.623808 1_655
O15 Sn2 2.081638 1_555
O16 Si1 1.623808 1_455
O16 Sn0 2.081638 1_565
O17 Si0 1.626650 1_555
O17 Sn0 2.078060 1_555
O18 Si5 1.664084 1_555
O18 Si4 1.665155 1_555
O19 Si3 1.662736 1_555
O19 Si9 1.662953 1_555
O20 Si6 1.664084 1_555
O20 Si11 1.665155 1_555
O21 Si7 1.626403 1_566
O21 Sn3 2.086122 1_555
O22 Si5 1.663196 1_555
O22 Si2 1.670069 1_555
O23 Si9 1.622737 1_555
O23 Sn3 2.100614 1_555
O24 Si2 1.626403 1_554
O24 Sn2 2.086122 1_555
O25 Si5 1.626650 1_555
O25 Sn3 2.078060 1_555
O26 Si9 1.626403 1_545
O26 Sn0 2.086122 1_555
O27 Si3 1.623276 1_555
O27 Sn2 2.094723 1_555
O28 Si8 1.622737 1_555
O28 Sn2 2.100614 1_555
O29 Si8 1.626403 1_555
O29 Sn1 2.086122 1_555
O30 Si1 1.626650 1_555
O30 Sn2 2.078060 1_555
O31 Si11 1.623276 1_555
O31 Sn1 2.094723 1_555
O32 Si0 1.664084 1_555
O32 Si10 1.665155 1_555
O33 Si11 1.622714 1_455
O33 Sn3 2.099905 1_545
O34 Si4 1.622714 1_655
O34 Sn1 2.099905 1_555
O35 Si10 1.662736 1_555
O35 Si2 1.662953 1_554
