# generated using pymatgen
data_CsEr2Cu3Se5
_symmetry_space_group_name_H-M   'P 1'
_cell_length_a   7.63361152
_cell_length_b   7.63361152
_cell_length_c   17.27301300
_cell_angle_alpha   90.00000000
_cell_angle_beta   90.00000000
_cell_angle_gamma   148.70124473
_symmetry_Int_Tables_number   1
_chemical_formula_structural   CsEr2Cu3Se5
_chemical_formula_sum   'Cs2 Er4 Cu6 Se10'
_cell_volume   522.89467568
_cell_formula_units_Z   2
loop_
 _symmetry_equiv_pos_site_id
 _symmetry_equiv_pos_as_xyz
  1  'x, y, z'
loop_
 _atom_site_type_symbol
 _atom_site_label
 _atom_site_symmetry_multiplicity
 _atom_site_fract_x
 _atom_site_fract_y
 _atom_site_fract_z
 _atom_site_occupancy
  Cs  Cs0  1  0.06116500  0.93883500  0.75000000  1
  Cs  Cs1  1  0.93883500  0.06116500  0.25000000  1
  Er  Er0  1  0.80795400  0.19204600  0.59148800  1
  Er  Er1  1  0.19204600  0.80795400  0.40851200  1
  Er  Er2  1  0.19204600  0.80795400  0.09148800  1
  Er  Er3  1  0.80795400  0.19204600  0.90851200  1
  Cu  Cu0  1  0.34443200  0.65556800  0.75000000  1
  Cu  Cu1  1  0.65556800  0.34443200  0.25000000  1
  Cu  Cu2  1  0.58324500  0.41675500  0.96678300  1
  Cu  Cu3  1  0.41675500  0.58324500  0.03321700  1
  Cu  Cu4  1  0.41675500  0.58324500  0.46678300  1
  Cu  Cu5  1  0.58324500  0.41675500  0.53321700  1
  Se  Se0  1  0.76190400  0.23809600  0.75000000  1
  Se  Se1  1  0.23809600  0.76190400  0.25000000  1
  Se  Se2  1  0.56200800  0.43799200  0.38786400  1
  Se  Se3  1  0.43799200  0.56200800  0.61213600  1
  Se  Se4  1  0.43799200  0.56200800  0.88786400  1
  Se  Se5  1  0.56200800  0.43799200  0.11213600  1
  Se  Se6  1  0.83065100  0.16934900  0.42977600  1
  Se  Se7  1  0.16934900  0.83065100  0.57022400  1
  Se  Se8  1  0.16934900  0.83065100  0.92977600  1
  Se  Se9  1  0.83065100  0.16934900  0.07022400  1
loop_
_geom_bond_atom_site_label_1
_geom_bond_atom_site_label_2
_geom_bond_distance
_geom_bond_site_symmetry_2
Cs0 Se8 3.488872 1_555
Cs0 Se7 3.488872 1_555
Cs0 Se0 3.598509 1_565
Cs0 Se0 3.598509 1_455
Cs0 Se3 3.631787 1_455
Cs0 Se3 3.631787 1_565
Cs0 Se4 3.631787 1_455
Cs0 Se4 3.631787 1_565
Cs0 Cu0 3.793726 1_565
Cs0 Cu0 3.793726 1_455
Cs1 Se9 3.488872 1_555
Cs1 Se6 3.488872 1_555
Cs1 Se1 3.598509 1_655
Cs1 Se1 3.598509 1_545
Cs1 Se2 3.631787 1_545
Cs1 Se2 3.631787 1_655
Cs1 Se5 3.631787 1_655
Cs1 Se5 3.631787 1_545
Cs1 Cu1 3.793726 1_655
Cs1 Cu1 3.793726 1_545
Er0 Se6 2.813113 1_555
Er0 Se0 2.820435 1_555
Er0 Se3 2.832323 1_655
Er0 Se3 2.832323 1_545
Er0 Se7 2.920131 1_655
Er0 Se7 2.920131 1_545
Er1 Se7 2.813113 1_555
Er1 Se1 2.820435 1_555
Er1 Se2 2.832323 1_455
Er1 Se2 2.832323 1_565
Er1 Se6 2.920131 1_565
Er1 Se6 2.920131 1_455
Er2 Se8 2.813113 1_554
Er2 Se1 2.820435 1_555
Er2 Se5 2.832323 1_455
Er2 Se5 2.832323 1_565
Er2 Se9 2.920131 1_565
Er2 Se9 2.920131 1_455
Er3 Se9 2.813113 1_556
Er3 Se0 2.820435 1_555
Er3 Se4 2.832323 1_655
Er3 Se4 2.832323 1_545
Er3 Se8 2.920131 1_655
Er3 Se8 2.920131 1_545
Cu0 Se0 2.390016 1_455
Cu0 Se0 2.390016 1_565
Cu0 Se4 2.750015 1_555
Cu0 Se3 2.750015 1_555
Cu1 Se1 2.390016 1_545
Cu1 Se1 2.390016 1_655
Cu1 Se2 2.750015 1_555
Cu1 Se5 2.750015 1_555
Cu2 Se8 2.500223 1_655
Cu2 Se8 2.500223 1_545
Cu2 Se5 2.530022 1_556
Cu2 Se4 2.533413 1_555
Cu3 Se9 2.500223 1_565
Cu3 Se9 2.500223 1_455
Cu3 Se4 2.530022 1_554
Cu3 Se5 2.533413 1_555
Cu4 Se6 2.500223 1_565
Cu4 Se6 2.500223 1_455
Cu4 Se3 2.530022 1_555
Cu4 Se2 2.533413 1_555
Cu5 Se7 2.500223 1_655
Cu5 Se7 2.500223 1_545
Cu5 Se2 2.530022 1_555
Cu5 Se3 2.533413 1_555
