# generated using pymatgen
data_Bi(PO3)4
_symmetry_space_group_name_H-M   'P 1'
_cell_length_a   8.96436722
_cell_length_b   8.96436722
_cell_length_c   9.60030271
_cell_angle_alpha   57.93498637
_cell_angle_beta   57.93498637
_cell_angle_gamma   47.25699438
_symmetry_Int_Tables_number   1
_chemical_formula_structural   Bi(PO3)4
_chemical_formula_sum   'Bi2 P8 O24'
_cell_volume   461.76133142
_cell_formula_units_Z   2
loop_
 _symmetry_equiv_pos_site_id
 _symmetry_equiv_pos_as_xyz
  1  'x, y, z'
loop_
 _atom_site_type_symbol
 _atom_site_label
 _atom_site_symmetry_multiplicity
 _atom_site_fract_x
 _atom_site_fract_y
 _atom_site_fract_z
 _atom_site_occupancy
  Bi  Bi0  1  0.79345200  0.20654800  0.75000000  1
  Bi  Bi1  1  0.20654800  0.79345200  0.25000000  1
  P  P0  1  0.00860500  0.28403500  0.30553000  1
  P  P1  1  0.60585300  0.67150500  0.38073600  1
  P  P2  1  0.71596500  0.99139500  0.19447000  1
  P  P3  1  0.67150500  0.60585300  0.88073600  1
  P  P4  1  0.32849500  0.39414700  0.11926400  1
  P  P5  1  0.28403500  0.00860500  0.80553000  1
  P  P6  1  0.39414700  0.32849500  0.61926400  1
  P  P7  1  0.99139500  0.71596500  0.69447000  1
  O  O0  1  0.80058700  0.51530500  0.26110700  1
  O  O1  1  0.68423400  0.80820000  0.34760700  1
  O  O2  1  0.86607400  0.99662400  0.21553400  1
  O  O3  1  0.00337600  0.13392600  0.28446600  1
  O  O4  1  0.75767900  0.97564100  0.02633600  1
  O  O5  1  0.41865800  0.81891500  0.30908800  1
  O  O6  1  0.81891500  0.41865800  0.80908800  1
  O  O7  1  0.48469500  0.19941300  0.23889300  1
  O  O8  1  0.97564100  0.75767900  0.52633600  1
  O  O9  1  0.80820000  0.68423400  0.84760700  1
  O  O10  1  0.42216000  0.44582000  0.43302900  1
  O  O11  1  0.55418000  0.57784000  0.06697100  1
  O  O12  1  0.44582000  0.42216000  0.93302900  1
  O  O13  1  0.57784000  0.55418000  0.56697100  1
  O  O14  1  0.19180000  0.31576600  0.15239300  1
  O  O15  1  0.02435900  0.24232100  0.47366400  1
  O  O16  1  0.51530500  0.80058700  0.76110700  1
  O  O17  1  0.18108500  0.58134200  0.19091200  1
  O  O18  1  0.58134200  0.18108500  0.69091200  1
  O  O19  1  0.24232100  0.02435900  0.97366400  1
  O  O20  1  0.99662400  0.86607400  0.71553400  1
  O  O21  1  0.13392600  0.00337600  0.78446600  1
  O  O22  1  0.31576600  0.19180000  0.65239300  1
  O  O23  1  0.19941300  0.48469500  0.73889300  1
loop_
_geom_bond_atom_site_label_1
_geom_bond_atom_site_label_2
_geom_bond_distance
_geom_bond_site_symmetry_2
Bi0 O4 2.364878 1_546
Bi0 O15 2.364878 1_655
Bi0 O20 2.372518 1_545
Bi0 O21 2.372518 1_655
Bi0 O18 2.420990 1_555
Bi0 O6 2.420990 1_555
Bi0 O12 2.480038 1_555
Bi0 O13 2.480038 1_555
Bi1 O8 2.364878 1_455
Bi1 O19 2.364878 1_564
Bi1 O2 2.372518 1_455
Bi1 O3 2.372518 1_565
Bi1 O17 2.420990 1_555
Bi1 O5 2.420990 1_555
Bi1 O10 2.480038 1_555
Bi1 O11 2.480038 1_555
O0 P1 1.608656 1_555
O0 P0 1.617138 1_655
O1 P2 1.601818 1_555
O1 P1 1.616812 1_555
O2 P2 1.496136 1_555
O3 P0 1.496136 1_555
O4 P2 1.514825 1_555
O5 P1 1.511853 1_555
O6 P3 1.511853 1_555
O7 P4 1.608656 1_555
O7 P2 1.617138 1_545
O8 P7 1.514825 1_555
O9 P7 1.601818 1_555
O9 P3 1.616812 1_555
O10 P6 1.500365 1_555
O11 P3 1.500365 1_554
O12 P4 1.500365 1_556
O13 P1 1.500365 1_555
O14 P0 1.601818 1_555
O14 P4 1.616812 1_555
O15 P0 1.514825 1_555
O16 P3 1.608656 1_555
O16 P5 1.617138 1_565
O17 P4 1.511853 1_555
O18 P6 1.511853 1_555
O19 P5 1.514825 1_555
O20 P7 1.496136 1_555
O21 P5 1.496136 1_555
O22 P5 1.601818 1_555
O22 P6 1.616812 1_555
O23 P6 1.608656 1_555
O23 P7 1.617138 1_455
