# generated using pymatgen
data_KCrIO6
_symmetry_space_group_name_H-M   'P 1'
_cell_length_a   4.87216600
_cell_length_b   9.36849300
_cell_length_c   14.30746170
_cell_angle_alpha   72.48379012
_cell_angle_beta   90.00000000
_cell_angle_gamma   90.00000000
_symmetry_Int_Tables_number   1
_chemical_formula_structural   KCrIO6
_chemical_formula_sum   'K4 Cr4 I4 O24'
_cell_volume   622.78070312
_cell_formula_units_Z   4
loop_
 _symmetry_equiv_pos_site_id
 _symmetry_equiv_pos_as_xyz
  1  'x, y, z'
loop_
 _atom_site_type_symbol
 _atom_site_label
 _atom_site_symmetry_multiplicity
 _atom_site_fract_x
 _atom_site_fract_y
 _atom_site_fract_z
 _atom_site_occupancy
  K  K0  1  0.08943900  0.10021700  0.33563500  1
  K  K1  1  0.58943900  0.89978300  0.16436500  1
  K  K2  1  0.41056100  0.10021700  0.83563500  1
  K  K3  1  0.91056100  0.89978300  0.66436500  1
  Cr  Cr0  1  0.96276700  0.22337100  0.02848800  1
  Cr  Cr1  1  0.03723300  0.77662900  0.97151200  1
  Cr  Cr2  1  0.53723300  0.22337100  0.52848800  1
  Cr  Cr3  1  0.46276700  0.77662900  0.47151200  1
  I  I0  1  0.33241800  0.57073900  0.83600300  1
  I  I1  1  0.16758200  0.57073900  0.33600300  1
  I  I2  1  0.83241800  0.42926100  0.66399700  1
  I  I3  1  0.66758200  0.42926100  0.16399700  1
  O  O0  1  0.28972400  0.28756700  0.44916200  1
  O  O1  1  0.58299600  0.24308800  0.23793300  1
  O  O2  1  0.74978700  0.12333200  0.98714300  1
  O  O3  1  0.77803100  0.38288500  0.04562000  1
  O  O4  1  0.78972400  0.71243300  0.05083800  1
  O  O5  1  0.08299600  0.75691200  0.26206700  1
  O  O6  1  0.27803100  0.61711500  0.45438000  1
  O  O7  1  0.91700400  0.24308800  0.73793300  1
  O  O8  1  0.01138300  0.44374500  0.21266300  1
  O  O9  1  0.72196900  0.38288500  0.54562000  1
  O  O10  1  0.75021300  0.12333200  0.48714300  1
  O  O11  1  0.24978700  0.87666800  0.51285700  1
  O  O12  1  0.08191900  0.12104900  0.13377000  1
  O  O13  1  0.91808100  0.87895100  0.86623000  1
  O  O14  1  0.21027600  0.28756700  0.94916200  1
  O  O15  1  0.58191900  0.87895100  0.36623000  1
  O  O16  1  0.22196900  0.61711500  0.95438000  1
  O  O17  1  0.51138300  0.55625500  0.28733700  1
  O  O18  1  0.41808100  0.12104900  0.63377000  1
  O  O19  1  0.48861700  0.44374500  0.71266300  1
  O  O20  1  0.71027600  0.71243300  0.55083800  1
  O  O21  1  0.98861700  0.55625500  0.78733700  1
  O  O22  1  0.41700400  0.75691200  0.76206700  1
  O  O23  1  0.25021300  0.87666800  0.01285700  1
loop_
_geom_bond_atom_site_label_1
_geom_bond_atom_site_label_2
_geom_bond_distance
_geom_bond_site_symmetry_2
K0 O10 2.785677 1_455
K0 O12 2.835787 1_555
K0 O11 2.868656 1_545
K0 O0 2.896087 1_555
K0 O1 2.898595 1_555
K0 O1 2.950888 1_455
K0 O15 3.114446 1_545
K0 O15 3.171244 1_445
K0 O8 3.192084 1_555
K1 O23 2.785677 1_555
K1 O15 2.835787 1_555
K1 O2 2.868656 1_564
K1 O4 2.896087 1_555
K1 O5 2.898595 1_655
K1 O5 2.950888 1_555
K1 O12 3.114446 1_665
K1 O12 3.171244 1_565
K1 O17 3.192084 1_555
K2 O2 2.785677 1_555
K2 O18 2.835787 1_555
K2 O23 2.868656 1_546
K2 O14 2.896087 1_555
K2 O7 2.898595 1_455
K2 O7 2.950888 1_555
K2 O13 3.114446 1_445
K2 O13 3.171244 1_545
K2 O19 3.192084 1_555
K3 O11 2.785677 1_655
K3 O13 2.835787 1_555
K3 O10 2.868656 1_565
K3 O20 2.896087 1_555
K3 O22 2.898595 1_555
K3 O22 2.950888 1_655
K3 O18 3.114446 1_565
K3 O18 3.171244 1_665
K3 O21 3.192084 1_555
Cr0 O2 1.624433 1_554
Cr0 O12 1.629642 1_655
Cr0 O14 1.641082 1_654
Cr0 O3 1.823168 1_555
Cr1 O23 1.624433 1_556
Cr1 O13 1.629642 1_455
Cr1 O4 1.641082 1_456
Cr1 O16 1.823168 1_555
Cr2 O10 1.624433 1_555
Cr2 O18 1.629642 1_555
Cr2 O0 1.641082 1_555
Cr2 O9 1.823168 1_555
Cr3 O11 1.624433 1_555
Cr3 O15 1.629642 1_555
Cr3 O20 1.641082 1_555
Cr3 O6 1.823168 1_555
I0 O22 1.794528 1_555
I0 O21 1.834642 1_455
I0 O16 1.946748 1_555
I1 O5 1.794528 1_555
I1 O17 1.834642 1_555
I1 O6 1.946748 1_555
I2 O7 1.794528 1_555
I2 O19 1.834642 1_555
I2 O9 1.946748 1_555
I3 O1 1.794528 1_555
I3 O8 1.834642 1_655
I3 O3 1.946748 1_555
