# generated using pymatgen
data_RbLaTa2O7
_symmetry_space_group_name_H-M   'P 1'
_cell_length_a   3.91039400
_cell_length_b   3.91039400
_cell_length_c   11.31445800
_cell_angle_alpha   90.00000000
_cell_angle_beta   90.00000000
_cell_angle_gamma   90.00000000
_symmetry_Int_Tables_number   1
_chemical_formula_structural   RbLaTa2O7
_chemical_formula_sum   'Rb1 La1 Ta2 O7'
_cell_volume   173.01142786
_cell_formula_units_Z   1
loop_
 _symmetry_equiv_pos_site_id
 _symmetry_equiv_pos_as_xyz
  1  'x, y, z'
loop_
 _atom_site_type_symbol
 _atom_site_label
 _atom_site_symmetry_multiplicity
 _atom_site_fract_x
 _atom_site_fract_y
 _atom_site_fract_z
 _atom_site_occupancy
  Rb  Rb0  1  0.50000000  0.50000000  0.50000000  1
  La  La0  1  0.50000000  0.50000000  0.00000000  1
  Ta  Ta0  1  0.00000000  0.00000000  0.20368300  1
  Ta  Ta1  1  0.00000000  0.00000000  0.79631700  1
  O  O0  1  0.00000000  0.00000000  0.00000000  1
  O  O1  1  0.00000000  0.50000000  0.16559000  1
  O  O2  1  0.50000000  0.00000000  0.16559000  1
  O  O3  1  0.00000000  0.50000000  0.83441000  1
  O  O4  1  0.50000000  0.00000000  0.83441000  1
  O  O5  1  0.00000000  0.00000000  0.36298300  1
  O  O6  1  0.00000000  0.00000000  0.63701700  1
loop_
_geom_bond_atom_site_label_1
_geom_bond_atom_site_label_2
_geom_bond_distance
_geom_bond_site_symmetry_2
La0 O3 2.707956 1_554
La0 O4 2.707956 1_554
La0 O3 2.707956 1_654
La0 O4 2.707956 1_564
La0 O1 2.707956 1_655
La0 O2 2.707956 1_555
La0 O2 2.707956 1_565
La0 O1 2.707956 1_555
La0 O0 2.765066 1_565
La0 O0 2.765066 1_555
La0 O0 2.765066 1_655
La0 O0 2.765066 1_665
O0 Ta0 2.304563 1_555
O0 Ta1 2.304563 1_554
O1 Ta0 2.002138 1_555
O1 Ta0 2.002138 1_565
O2 Ta0 2.002138 1_655
O2 Ta0 2.002138 1_555
O3 Ta1 2.002138 1_555
O3 Ta1 2.002138 1_565
O4 Ta1 2.002138 1_655
O4 Ta1 2.002138 1_555
O5 Ta0 1.802393 1_555
O5 Rb0 3.170006 1_445
O5 Rb0 3.170006 1_455
O5 Rb0 3.170006 1_555
O5 Rb0 3.170006 1_545
O6 Ta1 1.802393 1_555
O6 Rb0 3.170006 1_445
O6 Rb0 3.170006 1_455
O6 Rb0 3.170006 1_555
O6 Rb0 3.170006 1_545
