# generated using pymatgen
data_LiIn(MoO4)2
_symmetry_space_group_name_H-M   'P 1'
_cell_length_a   8.16357900
_cell_length_b   7.26455500
_cell_length_c   13.08158154
_cell_angle_alpha   75.95057579
_cell_angle_beta   90.00000000
_cell_angle_gamma   90.00000000
_symmetry_Int_Tables_number   1
_chemical_formula_structural   LiIn(MoO4)2
_chemical_formula_sum   'Li4 In4 Mo8 O32'
_cell_volume   752.59340775
_cell_formula_units_Z   4
loop_
 _symmetry_equiv_pos_site_id
 _symmetry_equiv_pos_as_xyz
  1  'x, y, z'
loop_
 _atom_site_type_symbol
 _atom_site_label
 _atom_site_symmetry_multiplicity
 _atom_site_fract_x
 _atom_site_fract_y
 _atom_site_fract_z
 _atom_site_occupancy
  Li  Li0  1  0.15050500  0.96190900  0.85841800  1
  Li  Li1  1  0.34949500  0.96190900  0.35841800  1
  Li  Li2  1  0.84949500  0.03809100  0.14158200  1
  Li  Li3  1  0.65050500  0.03809100  0.64158200  1
  In  In0  1  0.66109600  0.38081900  0.96752700  1
  In  In1  1  0.16109600  0.61918100  0.53247300  1
  In  In2  1  0.83890400  0.38081900  0.46752700  1
  In  In3  1  0.33890400  0.61918100  0.03247300  1
  Mo  Mo0  1  0.58845600  0.51723300  0.67222700  1
  Mo  Mo1  1  0.28905400  0.09568900  0.07619300  1
  Mo  Mo2  1  0.91154400  0.51723300  0.17222700  1
  Mo  Mo3  1  0.41154400  0.48276700  0.32777300  1
  Mo  Mo4  1  0.71094600  0.90431100  0.92380700  1
  Mo  Mo5  1  0.21094600  0.09568900  0.57619300  1
  Mo  Mo6  1  0.78905400  0.90431100  0.42380700  1
  Mo  Mo7  1  0.08845600  0.48276700  0.82777300  1
  O  O0  1  0.68672500  0.07780500  0.00507100  1
  O  O1  1  0.57920100  0.87016100  0.40981100  1
  O  O2  1  0.86124100  0.00969000  0.29783200  1
  O  O3  1  0.13875900  0.99031000  0.70216800  1
  O  O4  1  0.67504200  0.74567700  0.64687800  1
  O  O5  1  0.43735200  0.57689900  0.18824500  1
  O  O6  1  0.63875900  0.00969000  0.79783200  1
  O  O7  1  0.88974300  0.45949400  0.88842600  1
  O  O8  1  0.81327500  0.07780500  0.50507200  1
  O  O9  1  0.11025700  0.54050600  0.11157400  1
  O  O10  1  0.28176700  0.64077000  0.38257100  1
  O  O11  1  0.40593000  0.32742400  0.03048200  1
  O  O12  1  0.07920100  0.12983900  0.09018900  1
  O  O13  1  0.90593000  0.67257600  0.46951800  1
  O  O14  1  0.09407000  0.32742400  0.53048200  1
  O  O15  1  0.31327500  0.92219500  0.99492800  1
  O  O16  1  0.38974300  0.54050600  0.61157400  1
  O  O17  1  0.61025700  0.45949400  0.38842600  1
  O  O18  1  0.92079900  0.87016100  0.90981100  1
  O  O19  1  0.78176700  0.35923000  0.11742900  1
  O  O20  1  0.82495800  0.74567700  0.14687800  1
  O  O21  1  0.56264800  0.42310100  0.81175500  1
  O  O22  1  0.17504200  0.25432300  0.85312200  1
  O  O23  1  0.06264800  0.57689900  0.68824500  1
  O  O24  1  0.71823300  0.35923000  0.61742900  1
  O  O25  1  0.32495800  0.25432300  0.35312200  1
  O  O26  1  0.59407000  0.67257600  0.96951800  1
  O  O27  1  0.42079900  0.12983900  0.59018900  1
  O  O28  1  0.93735200  0.42310100  0.31175500  1
  O  O29  1  0.36124100  0.99031000  0.20216800  1
  O  O30  1  0.18672500  0.92219500  0.49492800  1
  O  O31  1  0.21823300  0.64077000  0.88257100  1
loop_
_geom_bond_atom_site_label_1
_geom_bond_atom_site_label_2
_geom_bond_distance
_geom_bond_site_symmetry_2
Li0 O3 2.006224 1_555
Li0 O18 2.048201 1_455
Li0 O22 2.118004 1_565
Li0 O15 2.188088 1_555
Li0 O31 2.343122 1_555
Li1 O29 2.006224 1_555
Li1 O1 2.048201 1_555
Li1 O25 2.118004 1_565
Li1 O30 2.188088 1_555
Li1 O10 2.343122 1_555
Li2 O2 2.006224 1_555
Li2 O12 2.048201 1_655
Li2 O20 2.118004 1_545
Li2 O0 2.188098 1_555
Li2 O19 2.343122 1_555
Li3 O6 2.006224 1_555
Li3 O27 2.048201 1_555
Li3 O4 2.118004 1_545
Li3 O8 2.188088 1_555
Li3 O24 2.343122 1_555
In0 O21 2.142142 1_555
In0 O7 2.143448 1_555
In0 O0 2.146076 1_556
In0 O19 2.165886 1_556
In0 O26 2.195243 1_555
In0 O11 2.238921 1_556
In1 O23 2.142142 1_555
In1 O16 2.143448 1_555
In1 O30 2.146075 1_555
In1 O10 2.165886 1_555
In1 O14 2.195243 1_555
In1 O13 2.238921 1_455
In2 O28 2.142142 1_555
In2 O17 2.143448 1_555
In2 O8 2.146075 1_555
In2 O24 2.165886 1_555
In2 O13 2.195243 1_555
In2 O14 2.238921 1_655
In3 O5 2.142142 1_555
In3 O9 2.143448 1_555
In3 O15 2.146075 1_554
In3 O31 2.165886 1_554
In3 O11 2.195243 1_555
In3 O26 2.238921 1_554
Mo0 O4 1.759688 1_555
Mo0 O16 1.795706 1_555
Mo0 O21 1.799315 1_555
Mo0 O24 1.831194 1_555
Mo1 O29 1.742571 1_545
Mo1 O12 1.747000 1_555
Mo1 O15 1.846144 1_544
Mo1 O11 1.900839 1_555
Mo2 O20 1.759688 1_555
Mo2 O9 1.795706 1_655
Mo2 O28 1.799315 1_555
Mo2 O19 1.831194 1_555
Mo3 O25 1.759688 1_555
Mo3 O17 1.795706 1_555
Mo3 O5 1.799315 1_555
Mo3 O10 1.831194 1_555
Mo4 O6 1.742571 1_565
Mo4 O18 1.747000 1_555
Mo4 O0 1.846134 1_566
Mo4 O26 1.900839 1_555
Mo5 O3 1.742571 1_545
Mo5 O27 1.747000 1_555
Mo5 O30 1.846144 1_545
Mo5 O14 1.900839 1_555
Mo6 O2 1.742571 1_565
Mo6 O1 1.747000 1_555
Mo6 O8 1.846144 1_565
Mo6 O13 1.900839 1_555
Mo7 O22 1.759688 1_555
Mo7 O7 1.795706 1_455
Mo7 O23 1.799315 1_555
Mo7 O31 1.831194 1_555
