# generated using pymatgen
data_Er3Ni2
_symmetry_space_group_name_H-M   'P 1'
_cell_length_a   7.10528552
_cell_length_b   7.10539412
_cell_length_c   7.10544970
_cell_angle_alpha   72.72318606
_cell_angle_beta   72.72345612
_cell_angle_gamma   72.72299420
_symmetry_Int_Tables_number   1
_chemical_formula_structural   Er3Ni2
_chemical_formula_sum   'Er9 Ni6'
_cell_volume   318.39400815
_cell_formula_units_Z   3
loop_
 _symmetry_equiv_pos_site_id
 _symmetry_equiv_pos_as_xyz
  1  'x, y, z'
loop_
 _atom_site_type_symbol
 _atom_site_label
 _atom_site_symmetry_multiplicity
 _atom_site_fract_x
 _atom_site_fract_y
 _atom_site_fract_z
 _atom_site_occupancy
  Er  Er0  1  0.50000000  0.50000000  0.50000000  1
  Er  Er1  1  0.29320500  0.29319292  0.29320131  1
  Er  Er2  1  0.70679500  0.70680708  0.70679869  1
  Er  Er3  1  0.32956068  0.83594938  0.11280645  1
  Er  Er4  1  0.11280412  0.32956053  0.83595283  1
  Er  Er5  1  0.83594479  0.11280570  0.32956161  1
  Er  Er6  1  0.67043932  0.16405062  0.88719355  1
  Er  Er7  1  0.88719588  0.67043947  0.16404717  1
  Er  Er8  1  0.16405521  0.88719430  0.67043839  1
  Ni  Ni0  1  0.64436116  0.46091163  0.08608818  1
  Ni  Ni1  1  0.08608749  0.64435361  0.46091070  1
  Ni  Ni2  1  0.46090630  0.08609842  0.64436718  1
  Ni  Ni3  1  0.35563884  0.53908837  0.91391182  1
  Ni  Ni4  1  0.91391251  0.35564639  0.53908930  1
  Ni  Ni5  1  0.53909370  0.91390158  0.35563282  1
loop_
_geom_bond_atom_site_label_1
_geom_bond_atom_site_label_2
_geom_bond_distance
_geom_bond_site_symmetry_2
Er0 Ni2 2.881421 1_555
Er0 Ni5 2.881421 1_555
Er0 Ni1 2.881436 1_555
Er0 Ni4 2.881436 1_555
Er0 Ni0 2.881502 1_555
Er0 Ni3 2.881502 1_555
Er1 Ni5 2.732352 1_545
Er1 Ni4 2.732363 1_455
Er1 Ni3 2.732397 1_554
Er1 Ni2 2.890452 1_555
Er1 Ni0 2.890454 1_555
Er1 Ni1 2.890473 1_555
Er2 Ni2 2.732352 1_565
Er2 Ni1 2.732363 1_655
Er2 Ni0 2.732397 1_556
Er2 Ni5 2.890452 1_555
Er2 Ni3 2.890454 1_555
Er2 Ni4 2.890473 1_555
Er3 Ni1 2.796640 1_555
Er3 Ni3 2.804230 1_554
Er3 Ni5 2.843143 1_555
Er3 Ni0 2.940756 1_555
Er3 Ni2 3.276446 1_564
Er4 Ni2 2.796540 1_555
Er4 Ni4 2.804199 1_455
Er4 Ni3 2.843180 1_555
Er4 Ni1 2.940787 1_555
Er4 Ni0 3.276386 1_456
Er5 Ni0 2.796596 1_555
Er5 Ni5 2.804197 1_545
Er5 Ni4 2.843269 1_555
Er5 Ni2 2.940780 1_555
Er5 Ni1 3.276465 1_645
Er6 Ni4 2.796640 1_555
Er6 Ni0 2.804230 1_556
Er6 Ni2 2.843143 1_555
Er6 Ni3 2.940756 1_555
Er6 Ni5 3.276446 1_546
Er7 Ni5 2.796540 1_555
Er7 Ni1 2.804199 1_655
Er7 Ni0 2.843180 1_555
Er7 Ni4 2.940787 1_555
Er7 Ni3 3.276386 1_654
Er8 Ni3 2.796596 1_555
Er8 Ni2 2.804197 1_565
Er8 Ni1 2.843269 1_555
Er8 Ni5 2.940780 1_555
Er8 Ni4 3.276465 1_465
Ni0 Ni3 2.534540 1_554
Ni1 Ni4 2.534455 1_455
Ni2 Ni5 2.534743 1_545
