# generated using pymatgen
data_La10(B3C4)3
_symmetry_space_group_name_H-M   'P 1'
_cell_length_a   8.68042100
_cell_length_b   8.68042100
_cell_length_c   25.46336100
_cell_angle_alpha   90.00000000
_cell_angle_beta   90.00000000
_cell_angle_gamma   90.00000000
_symmetry_Int_Tables_number   1
_chemical_formula_structural   La10(B3C4)3
_chemical_formula_sum   'La40 B36 C48'
_cell_volume   1918.65683482
_cell_formula_units_Z   4
loop_
 _symmetry_equiv_pos_site_id
 _symmetry_equiv_pos_as_xyz
  1  'x, y, z'
loop_
 _atom_site_type_symbol
 _atom_site_label
 _atom_site_symmetry_multiplicity
 _atom_site_fract_x
 _atom_site_fract_y
 _atom_site_fract_z
 _atom_site_occupancy
  La  La0  1  0.89721900  0.40439000  0.54074700  1
  La  La1  1  0.39721900  0.09561000  0.20925300  1
  La  La2  1  0.30529500  0.58539800  0.55390700  1
  La  La3  1  0.51650900  0.59752800  0.81042900  1
  La  La4  1  0.31751200  0.98875600  0.83277400  1
  La  La5  1  0.68248800  0.01124400  0.33277400  1
  La  La6  1  0.09561000  0.39721900  0.79074700  1
  La  La7  1  0.91460200  0.80529500  0.80390700  1
  La  La8  1  0.19470500  0.08539800  0.69609300  1
  La  La9  1  0.98349100  0.09752800  0.43957100  1
  La  La10  1  0.78563700  0.69661200  0.42880500  1
  La  La11  1  0.59561000  0.10278100  0.95925300  1
  La  La12  1  0.51124400  0.81751200  0.08277400  1
  La  La13  1  0.09752800  0.98349100  0.56042900  1
  La  La14  1  0.59752800  0.51650900  0.18957100  1
  La  La15  1  0.90439000  0.60278100  0.29074700  1
  La  La16  1  0.69661200  0.78563700  0.57119500  1
  La  La17  1  0.81751200  0.51124400  0.91722600  1
  La  La18  1  0.10278100  0.59561000  0.04074700  1
  La  La19  1  0.01124400  0.68248800  0.66722600  1
  La  La20  1  0.18248800  0.48875600  0.41722600  1
  La  La21  1  0.71436300  0.19661200  0.82119500  1
  La  La22  1  0.80338800  0.28563700  0.67880500  1
  La  La23  1  0.90247200  0.01650900  0.06042900  1
  La  La24  1  0.30338800  0.21436300  0.07119500  1
  La  La25  1  0.69470500  0.41460200  0.05390700  1
  La  La26  1  0.48875600  0.18248800  0.58277400  1
  La  La27  1  0.48349100  0.40247200  0.31042900  1
  La  La28  1  0.40439000  0.89721900  0.45925300  1
  La  La29  1  0.80529500  0.91460200  0.19609300  1
  La  La30  1  0.08539800  0.19470500  0.30390700  1
  La  La31  1  0.60278100  0.90439000  0.70925300  1
  La  La32  1  0.58539800  0.30529500  0.44609300  1
  La  La33  1  0.01650900  0.90247200  0.93957100  1
  La  La34  1  0.40247200  0.48349100  0.68957100  1
  La  La35  1  0.28563700  0.80338800  0.32119500  1
  La  La36  1  0.41460200  0.69470500  0.94609300  1
  La  La37  1  0.21436300  0.30338800  0.92880500  1
  La  La38  1  0.98875600  0.31751200  0.16722600  1
  La  La39  1  0.19661200  0.71436300  0.17880500  1
  B  B0  1  0.37611600  0.51031500  0.10706300  1
  B  B1  1  0.42099300  0.42099300  0.00000000  1
  B  B2  1  0.07900700  0.92099300  0.25000000  1
  B  B3  1  0.30250300  0.41312500  0.15686900  1
  B  B4  1  0.80250300  0.08687500  0.59313100  1
  B  B5  1  0.20587200  0.28085700  0.52499300  1
  B  B6  1  0.08687500  0.80250300  0.40686900  1
  B  B7  1  0.51031500  0.37611600  0.89293700  1
  B  B8  1  0.14373800  0.63831100  0.88295500  1
  B  B9  1  0.48968500  0.62388400  0.39293700  1
  B  B10  1  0.64373800  0.86168900  0.86704500  1
  B  B11  1  0.91312500  0.19749700  0.90686900  1
  B  B12  1  0.19749700  0.91312500  0.09313100  1
  B  B13  1  0.63831100  0.14373800  0.11704500  1
  B  B14  1  0.79412800  0.71914300  0.02499300  1
  B  B15  1  0.87611600  0.98968500  0.64293700  1
  B  B16  1  0.13831100  0.35626200  0.63295500  1
  B  B17  1  0.71914300  0.79412800  0.97500700  1
  B  B18  1  0.92099300  0.07900700  0.75000000  1
  B  B19  1  0.35626200  0.13831100  0.36704500  1
  B  B20  1  0.21914300  0.70587200  0.77499300  1
  B  B21  1  0.69749700  0.58687500  0.65686900  1
  B  B22  1  0.01031500  0.12388400  0.85706300  1
  B  B23  1  0.36168900  0.85626200  0.61704500  1
  B  B24  1  0.70587200  0.21914300  0.22500700  1
  B  B25  1  0.12388400  0.01031500  0.14293700  1
  B  B26  1  0.29412800  0.78085700  0.72500700  1
  B  B27  1  0.85626200  0.36168900  0.38295500  1
  B  B28  1  0.28085700  0.20587200  0.47500700  1
  B  B29  1  0.62388400  0.48968500  0.60706300  1
  B  B30  1  0.41312500  0.30250300  0.84313100  1
  B  B31  1  0.57900700  0.57900700  0.50000000  1
  B  B32  1  0.86168900  0.64373800  0.13295500  1
  B  B33  1  0.58687500  0.69749700  0.34313100  1
  B  B34  1  0.98968500  0.87611600  0.35706300  1
  B  B35  1  0.78085700  0.29412800  0.27499300  1
  C  C0  1  0.71195200  0.03087300  0.48946900  1
  C  C1  1  0.29693900  0.18288300  0.41833800  1
  C  C2  1  0.38592100  0.10777000  0.31162900  1
  C  C3  1  0.70306100  0.81711700  0.91833800  1
  C  C4  1  0.61407900  0.89223000  0.81162900  1
  C  C5  1  0.18288300  0.29693900  0.58166200  1
  C  C6  1  0.59689800  0.49039400  0.54942800  1
  C  C7  1  0.68923200  0.00667500  0.43749600  1
  C  C8  1  0.50667500  0.81076800  0.18749600  1
  C  C9  1  0.07513500  0.78331600  0.46521700  1
  C  C10  1  0.09689800  0.00960600  0.20057200  1
  C  C11  1  0.31076800  0.99332500  0.93749600  1
  C  C12  1  0.96912700  0.28804800  0.01053100  1
  C  C13  1  0.99332500  0.31076800  0.06250400  1
  C  C14  1  0.57513500  0.71668400  0.28478300  1
  C  C15  1  0.10777000  0.38592100  0.68837100  1
  C  C16  1  0.21668400  0.92486500  0.03478300  1
  C  C17  1  0.78331600  0.07513500  0.53478300  1
  C  C18  1  0.11407900  0.60777000  0.93837100  1
  C  C19  1  0.71668400  0.57513500  0.71521700  1
  C  C20  1  0.00960600  0.09689800  0.79942800  1
  C  C21  1  0.49039400  0.59689800  0.45057200  1
  C  C22  1  0.81076800  0.50667500  0.81250400  1
  C  C23  1  0.42486500  0.28331600  0.78478300  1
  C  C24  1  0.31711700  0.79693900  0.66833800  1
  C  C25  1  0.20306100  0.68288300  0.83166200  1
  C  C26  1  0.88592100  0.39223000  0.43837100  1
  C  C27  1  0.90310200  0.99039400  0.70057200  1
  C  C28  1  0.46912700  0.21195200  0.73946900  1
  C  C29  1  0.81711700  0.70306100  0.08166200  1
  C  C30  1  0.40310200  0.50960600  0.04942800  1
  C  C31  1  0.78804800  0.53087300  0.76053100  1
  C  C32  1  0.50960600  0.40310200  0.95057200  1
  C  C33  1  0.79693900  0.31711700  0.33166200  1
  C  C34  1  0.28331600  0.42486500  0.21521700  1
  C  C35  1  0.92486500  0.21668400  0.96521700  1
  C  C36  1  0.68288300  0.20306100  0.16833800  1
  C  C37  1  0.49332500  0.18923200  0.68749600  1
  C  C38  1  0.53087300  0.78804800  0.23946900  1
  C  C39  1  0.00667500  0.68923200  0.56250400  1
  C  C40  1  0.39223000  0.88592100  0.56162900  1
  C  C41  1  0.28804800  0.96912700  0.98946900  1
  C  C42  1  0.18923200  0.49332500  0.31250400  1
  C  C43  1  0.99039400  0.90310200  0.29942800  1
  C  C44  1  0.03087300  0.71195200  0.51053100  1
  C  C45  1  0.21195200  0.46912700  0.26053100  1
  C  C46  1  0.60777000  0.11407900  0.06162900  1
  C  C47  1  0.89223000  0.61407900  0.18837100  1
loop_
_geom_bond_atom_site_label_1
_geom_bond_atom_site_label_2
_geom_bond_distance
_geom_bond_site_symmetry_2
B0 C30 1.486171 1_555
B0 La24 2.798643 1_555
B0 La14 2.847928 1_555
B0 La12 2.978107 1_555
B0 La39 2.983671 1_555
B1 C30 1.483194 1_555
B1 C32 1.483194 1_554
B1 La25 2.744508 1_555
B1 La36 2.744508 1_554
B1 La24 2.746955 1_555
B1 La37 2.746955 1_554
B2 C43 1.483194 1_455
B2 C10 1.483194 1_565
B2 La30 2.744508 1_565
B2 La29 2.744508 1_455
B2 La39 2.746955 1_555
B2 La35 2.746955 1_555
B3 C34 1.498511 1_555
B3 La24 2.781367 1_555
B3 La39 2.827444 1_555
B3 La14 2.838516 1_555
B3 La38 2.859300 1_455
B4 C17 1.498511 1_555
B4 La22 2.781367 1_555
B4 La16 2.827444 1_545
B4 La13 2.838516 1_645
B4 La26 2.859300 1_555
B5 C5 1.463390 1_555
B5 La2 2.876667 1_555
B5 La13 2.891640 1_545
B5 La26 2.987235 1_555
B5 La20 3.290609 1_555
B6 C9 1.498511 1_555
B6 La35 2.781367 1_555
B6 La10 2.827444 1_455
B6 La9 2.838516 1_465
B6 La20 2.859300 1_555
B7 C32 1.486171 1_555
B7 La37 2.798643 1_555
B7 La3 2.847928 1_555
B7 La17 2.978107 1_555
B7 La21 2.983671 1_555
B8 C25 1.456277 1_555
B8 C18 1.458665 1_555
B8 La36 2.890079 1_555
B8 La33 2.925062 1_555
B8 La17 3.161819 1_455
B9 C21 1.486171 1_555
B9 La10 2.798643 1_555
B9 La27 2.847928 1_555
B9 La20 2.978107 1_555
B9 La35 2.983671 1_555
B10 C3 1.456277 1_555
B10 C4 1.458665 1_555
B10 La7 2.890079 1_555
B10 La3 2.925062 1_555
B10 La4 3.161819 1_555
B11 C35 1.498511 1_555
B11 La21 2.781367 1_555
B11 La37 2.827444 1_655
B11 La33 2.838516 1_645
B11 La17 2.859300 1_555
B12 C16 1.498511 1_555
B12 La39 2.781367 1_555
B12 La24 2.827444 1_565
B12 La23 2.838516 1_465
B12 La12 2.859300 1_555
B13 C36 1.456277 1_555
B13 C46 1.458665 1_555
B13 La25 2.890079 1_555
B13 La23 2.925062 1_555
B13 La12 3.161819 1_545
B14 C29 1.463390 1_555
B14 La25 2.876667 1_555
B14 La23 2.891640 1_565
B14 La12 2.987235 1_555
B14 La17 3.290609 1_554
B15 C27 1.486171 1_555
B15 La22 2.798643 1_565
B15 La13 2.847928 1_655
B15 La19 2.978107 1_655
B15 La16 2.983671 1_555
B16 C5 1.456277 1_555
B16 C15 1.458665 1_555
B16 La8 2.890079 1_555
B16 La34 2.925062 1_555
B16 La19 3.161819 1_555
B17 C3 1.463390 1_555
B17 La36 2.876667 1_555
B17 La33 2.891640 1_655
B17 La17 2.987235 1_555
B17 La12 3.290609 1_556
B18 C20 1.483194 1_655
B18 C27 1.483194 1_545
B18 La7 2.744508 1_545
B18 La8 2.744508 1_655
B18 La21 2.746955 1_555
B18 La22 2.746955 1_555
B19 C1 1.456277 1_555
B19 C2 1.458665 1_555
B19 La30 2.890079 1_555
B19 La27 2.925062 1_555
B19 La5 3.161819 1_555
B20 C25 1.463390 1_555
B20 La7 2.876667 1_455
B20 La3 2.891640 1_555
B20 La4 2.987235 1_555
B20 La19 3.290609 1_555
B21 C19 1.498511 1_555
B21 La16 2.781367 1_555
B21 La22 2.827444 1_555
B21 La34 2.838516 1_555
B21 La19 2.859300 1_655
B22 C20 1.486171 1_555
B22 La21 2.798643 1_455
B22 La33 2.847928 1_545
B22 La4 2.978107 1_545
B22 La37 2.983671 1_555
B23 C24 1.456277 1_555
B23 C40 1.458665 1_555
B23 La2 2.890079 1_555
B23 La13 2.925062 1_555
B23 La26 3.161819 1_565
B24 C36 1.463390 1_555
B24 La29 2.876667 1_545
B24 La14 2.891640 1_555
B24 La38 2.987235 1_555
B24 La5 3.290609 1_555
B25 C10 1.486171 1_555
B25 La39 2.798643 1_545
B25 La23 2.847928 1_455
B25 La38 2.978107 1_455
B25 La24 2.983671 1_555
B26 C24 1.463390 1_555
B26 La8 2.876667 1_565
B26 La34 2.891640 1_555
B26 La19 2.987235 1_555
B26 La4 3.290609 1_555
B27 C33 1.456277 1_555
B27 C26 1.458665 1_555
B27 La32 2.890079 1_555
B27 La9 2.925062 1_555
B27 La20 3.161819 1_655
B28 C1 1.463390 1_555
B28 La32 2.876667 1_555
B28 La9 2.891640 1_455
B28 La20 2.987235 1_555
B28 La26 3.290609 1_555
B29 C6 1.486171 1_555
B29 La16 2.798643 1_555
B29 La34 2.847928 1_555
B29 La26 2.978107 1_555
B29 La22 2.983671 1_555
B30 C23 1.498511 1_555
B30 La37 2.781367 1_555
B30 La21 2.827444 1_555
B30 La3 2.838516 1_555
B30 La4 2.859300 1_545
B31 C6 1.483194 1_555
B31 C21 1.483194 1_555
B31 La2 2.744508 1_555
B31 La32 2.744508 1_555
B31 La10 2.746955 1_555
B31 La16 2.746955 1_555
B32 C29 1.456277 1_555
B32 C47 1.458665 1_555
B32 La29 2.890079 1_555
B32 La14 2.925062 1_555
B32 La38 3.161819 1_555
B33 C14 1.498511 1_555
B33 La10 2.781367 1_555
B33 La35 2.827444 1_555
B33 La27 2.838516 1_555
B33 La5 2.859300 1_565
B34 C43 1.486171 1_555
B34 La35 2.798643 1_655
B34 La9 2.847928 1_565
B34 La5 2.978107 1_565
B34 La10 2.983671 1_555
B35 C33 1.463390 1_555
B35 La30 2.876667 1_655
B35 La27 2.891640 1_555
B35 La5 2.987235 1_555
B35 La38 3.290609 1_555
C0 C7 1.354409 1_555
C0 C17 1.364817 1_555
C0 La9 2.739510 1_555
C0 La32 2.846244 1_555
C0 La16 2.979925 1_545
C0 La26 3.336230 1_555
C1 La32 2.810393 1_555
C1 La20 2.835031 1_555
C1 La9 2.871299 1_455
C2 La1 2.610816 1_555
C2 La27 2.694870 1_555
C2 La30 2.722732 1_555
C2 La5 2.760273 1_555
C2 La35 2.792516 1_545
C3 La36 2.810393 1_555
C3 La17 2.835031 1_555
C3 La33 2.871299 1_655
C4 La31 2.610816 1_555
C4 La3 2.694870 1_555
C4 La7 2.722732 1_555
C4 La4 2.760273 1_555
C4 La21 2.792516 1_565
C5 La2 2.810393 1_555
C5 La26 2.835031 1_555
C5 La13 2.871299 1_545
C6 La2 2.664630 1_555
C6 La0 2.720697 1_555
C6 La16 2.761252 1_555
C6 La26 2.957326 1_555
C6 La32 3.084652 1_555
C7 La5 2.667511 1_555
C7 La9 2.673791 1_555
C7 La28 2.706133 1_545
C7 La32 2.753095 1_555
C7 La10 2.827246 1_545
C8 La12 2.667511 1_555
C8 La14 2.673791 1_555
C8 La1 2.706133 1_565
C8 La29 2.753095 1_555
C8 La39 2.827246 1_555
C9 La10 2.782281 1_455
C9 La9 2.915219 1_465
C9 La20 2.983196 1_555
C9 La13 2.989122 1_555
C10 La29 2.664630 1_445
C10 La1 2.720697 1_555
C10 La39 2.761252 1_545
C10 La38 2.957326 1_455
C10 La30 3.084652 1_555
C11 C41 1.354409 1_555
C11 La4 2.667511 1_555
C11 La33 2.673791 1_555
C11 La11 2.706133 1_565
C11 La36 2.753095 1_555
C11 La37 2.827246 1_565
C12 C13 1.354409 1_555
C12 C35 1.364817 1_554
C12 La23 2.739510 1_555
C12 La25 2.846244 1_555
C12 La37 2.979925 1_654
C12 La17 3.336230 1_554
C13 La38 2.667511 1_555
C13 La23 2.673791 1_555
C13 La18 2.706133 1_655
C13 La25 2.753095 1_555
C13 La24 2.827246 1_655
C14 C38 1.364817 1_555
C14 La35 2.782281 1_555
C14 La27 2.915219 1_555
C14 La5 2.983196 1_565
C14 La14 2.989122 1_555
C15 La6 2.610816 1_555
C15 La34 2.694870 1_555
C15 La8 2.722732 1_555
C15 La19 2.760273 1_555
C15 La22 2.792516 1_455
C16 C41 1.364817 1_554
C16 La24 2.782281 1_565
C16 La23 2.915219 1_465
C16 La12 2.983196 1_555
C16 La33 2.989122 1_554
C17 La16 2.782281 1_545
C17 La13 2.915219 1_645
C17 La26 2.983196 1_555
C17 La9 2.989122 1_555
C18 La18 2.610816 1_556
C18 La33 2.694870 1_555
C18 La36 2.722732 1_555
C18 La17 2.760273 1_455
C18 La37 2.792516 1_555
C19 C31 1.364817 1_555
C19 La22 2.782281 1_555
C19 La34 2.915219 1_555
C19 La19 2.983196 1_655
C19 La3 2.989122 1_555
C20 La7 2.664630 1_445
C20 La6 2.720697 1_555
C20 La21 2.761252 1_455
C20 La4 2.957326 1_545
C20 La8 3.084652 1_555
C21 La32 2.664630 1_555
C21 La28 2.720697 1_555
C21 La10 2.761252 1_555
C21 La20 2.957326 1_555
C21 La2 3.084652 1_555
C22 C31 1.354409 1_555
C22 La17 2.667511 1_555
C22 La3 2.673791 1_555
C22 La6 2.706133 1_655
C22 La7 2.753095 1_555
C22 La21 2.827246 1_555
C23 C28 1.364817 1_555
C23 La21 2.782281 1_555
C23 La3 2.915219 1_555
C23 La4 2.983196 1_545
C23 La34 2.989122 1_555
C24 La8 2.810393 1_565
C24 La19 2.835031 1_555
C24 La34 2.871299 1_555
C25 La7 2.810393 1_455
C25 La4 2.835031 1_555
C25 La3 2.871299 1_555
C26 La0 2.610816 1_555
C26 La9 2.694870 1_555
C26 La32 2.722732 1_555
C26 La20 2.760273 1_655
C26 La10 2.792516 1_555
C27 La8 2.664630 1_665
C27 La31 2.720697 1_555
C27 La22 2.761252 1_565
C27 La19 2.957326 1_655
C27 La7 3.084652 1_555
C28 C37 1.354409 1_555
C28 La34 2.739510 1_555
C28 La8 2.846244 1_555
C28 La21 2.979925 1_555
C28 La4 3.336230 1_545
C29 La25 2.810393 1_555
C29 La12 2.835031 1_555
C29 La23 2.871299 1_565
C30 La25 2.664630 1_555
C30 La18 2.720697 1_555
C30 La24 2.761252 1_555
C30 La12 2.957326 1_555
C30 La36 3.084652 1_554
C31 La3 2.739510 1_555
C31 La7 2.846244 1_555
C31 La22 2.979925 1_555
C31 La19 3.336230 1_655
C32 La36 2.664630 1_555
C32 La11 2.720697 1_555
C32 La37 2.761252 1_555
C32 La17 2.957326 1_555
C32 La25 3.084652 1_556
C33 La30 2.810393 1_655
C33 La5 2.835031 1_555
C33 La27 2.871299 1_555
C34 C45 1.364817 1_555
C34 La39 2.782281 1_555
C34 La14 2.915219 1_555
C34 La38 2.983196 1_455
C34 La27 2.989122 1_555
C35 La37 2.782281 1_655
C35 La33 2.915219 1_645
C35 La17 2.983196 1_555
C35 La23 2.989122 1_556
C36 La29 2.810393 1_545
C36 La38 2.835031 1_555
C36 La14 2.871299 1_555
C37 La26 2.667511 1_555
C37 La34 2.673791 1_555
C37 La31 2.706133 1_545
C37 La8 2.753095 1_555
C37 La22 2.827246 1_555
C38 C8 1.354409 1_555
C38 La14 2.739510 1_555
C38 La29 2.846244 1_555
C38 La35 2.979925 1_555
C38 La5 3.336230 1_565
C39 C44 1.354409 1_555
C39 La19 2.667511 1_555
C39 La13 2.673791 1_555
C39 La0 2.706133 1_455
C39 La2 2.753095 1_555
C39 La16 2.827246 1_455
C40 La28 2.610816 1_555
C40 La13 2.694870 1_555
C40 La2 2.722732 1_555
C40 La26 2.760273 1_565
C40 La16 2.792516 1_555
C41 La33 2.739510 1_555
C41 La36 2.846244 1_555
C41 La24 2.979925 1_566
C41 La12 3.336230 1_556
C42 C45 1.354409 1_555
C42 La20 2.667511 1_555
C42 La27 2.673791 1_555
C42 La15 2.706133 1_455
C42 La30 2.753095 1_555
C42 La35 2.827246 1_555
C43 La30 2.664630 1_665
C43 La15 2.720697 1_555
C43 La35 2.761252 1_655
C43 La5 2.957326 1_565
C43 La29 3.084652 1_555
C44 C9 1.364817 1_555
C44 La13 2.739510 1_555
C44 La2 2.846244 1_555
C44 La10 2.979925 1_455
C44 La20 3.336230 1_555
C45 La27 2.739510 1_555
C45 La30 2.846244 1_555
C45 La39 2.979925 1_555
C45 La38 3.336230 1_455
C46 La11 2.610816 1_554
C46 La23 2.694870 1_555
C46 La25 2.722732 1_555
C46 La12 2.760273 1_545
C46 La24 2.792516 1_555
C47 La15 2.610816 1_555
C47 La14 2.694870 1_555
C47 La29 2.722732 1_555
C47 La38 2.760273 1_555
C47 La39 2.792516 1_655
