# generated using pymatgen
data_Ca5(ReO6)2
_symmetry_space_group_name_H-M   'P 1'
_cell_length_a   19.23257763
_cell_length_b   19.23257763
_cell_length_c   19.23257743
_cell_angle_alpha   29.08231123
_cell_angle_beta   29.08231123
_cell_angle_gamma   29.08230896
_symmetry_Int_Tables_number   1
_chemical_formula_structural   Ca5(ReO6)2
_chemical_formula_sum   'Ca30 Re12 O72'
_cell_volume   1486.78007288
_cell_formula_units_Z   6
loop_
 _symmetry_equiv_pos_site_id
 _symmetry_equiv_pos_as_xyz
  1  'x, y, z'
loop_
 _atom_site_type_symbol
 _atom_site_label
 _atom_site_symmetry_multiplicity
 _atom_site_fract_x
 _atom_site_fract_y
 _atom_site_fract_z
 _atom_site_occupancy
  Ca  Ca0  1  0.46403200  0.79939200  0.17394700  1
  Ca  Ca1  1  0.17394700  0.46403200  0.79939200  1
  Ca  Ca2  1  0.21875400  0.50799600  0.92072500  1
  Ca  Ca3  1  0.89595100  0.89595100  0.89595100  1
  Ca  Ca4  1  0.07927500  0.78124600  0.49200400  1
  Ca  Ca5  1  0.49200400  0.07927500  0.78124600  1
  Ca  Ca6  1  0.03596800  0.32605300  0.70060800  1
  Ca  Ca7  1  0.32605300  0.70060800  0.03596800  1
  Ca  Ca8  1  0.10404900  0.10404900  0.10404900  1
  Ca  Ca9  1  0.42072500  0.00799600  0.71875400  1
  Ca  Ca10  1  0.96403200  0.67394700  0.29939200  1
  Ca  Ca11  1  0.82605300  0.53596800  0.20060800  1
  Ca  Ca12  1  0.79939200  0.17394700  0.46403200  1
  Ca  Ca13  1  0.29939200  0.96403200  0.67394700  1
  Ca  Ca14  1  0.75000000  0.75000000  0.75000000  1
  Ca  Ca15  1  0.28124600  0.57927500  0.99200400  1
  Ca  Ca16  1  0.67394700  0.29939200  0.96403200  1
  Ca  Ca17  1  0.92072500  0.21875400  0.50799600  1
  Ca  Ca18  1  0.78124600  0.49200400  0.07927500  1
  Ca  Ca19  1  0.00799600  0.71875400  0.42072500  1
  Ca  Ca20  1  0.57927500  0.99200400  0.28124600  1
  Ca  Ca21  1  0.20060800  0.82605300  0.53596800  1
  Ca  Ca22  1  0.99200400  0.28124600  0.57927500  1
  Ca  Ca23  1  0.39595100  0.39595100  0.39595100  1
  Ca  Ca24  1  0.60404900  0.60404900  0.60404900  1
  Ca  Ca25  1  0.50799600  0.92072500  0.21875400  1
  Ca  Ca26  1  0.71875400  0.42072500  0.00799600  1
  Ca  Ca27  1  0.70060800  0.03596800  0.32605300  1
  Ca  Ca28  1  0.25000000  0.25000000  0.25000000  1
  Ca  Ca29  1  0.53596800  0.20060800  0.82605300  1
  Re  Re0  1  0.83907200  0.83907200  0.83907200  1
  Re  Re1  1  0.41590300  0.75000000  0.08409700  1
  Re  Re2  1  0.91590300  0.58409700  0.25000000  1
  Re  Re3  1  0.16092800  0.16092800  0.16092800  1
  Re  Re4  1  0.00000000  0.00000000  0.00000000  1
  Re  Re5  1  0.75000000  0.08409700  0.41590300  1
  Re  Re6  1  0.50000000  0.50000000  0.50000000  1
  Re  Re7  1  0.33907200  0.33907200  0.33907200  1
  Re  Re8  1  0.58409700  0.25000000  0.91590300  1
  Re  Re9  1  0.25000000  0.91590300  0.58409700  1
  Re  Re10  1  0.66092800  0.66092800  0.66092800  1
  Re  Re11  1  0.08409700  0.41590300  0.75000000  1
  O  O0  1  0.35222900  0.52646800  0.67919500  1
  O  O1  1  0.94233100  0.33295000  0.97294800  1
  O  O2  1  0.96741100  0.58595500  0.77386100  1
  O  O3  1  0.97353200  0.14777100  0.82080500  1
  O  O4  1  0.76870300  0.70039700  0.20907600  1
  O  O5  1  0.29092400  0.79960300  0.73129700  1
  O  O6  1  0.32080500  0.64777100  0.47353200  1
  O  O7  1  0.93085400  0.97320900  0.67780300  1
  O  O8  1  0.33295000  0.97294800  0.94233100  1
  O  O9  1  0.02646800  0.85222900  0.17919500  1
  O  O10  1  0.00930300  0.75780700  0.69805000  1
  O  O11  1  0.99069700  0.24219300  0.30195000  1
  O  O12  1  0.74219300  0.49069700  0.80195000  1
  O  O13  1  0.91404500  0.53258900  0.72613900  1
  O  O14  1  0.82219700  0.52679100  0.56914600  1
  O  O15  1  0.27386100  0.08595500  0.46741100  1
  O  O16  1  0.22613900  0.03258900  0.41404500  1
  O  O17  1  0.41404500  0.22613900  0.03258900  1
  O  O18  1  0.56914600  0.82219700  0.52679100  1
  O  O19  1  0.64777100  0.47353200  0.32080500  1
  O  O20  1  0.55766900  0.52705200  0.16705000  1
  O  O21  1  0.44233100  0.47294800  0.83295000  1
  O  O22  1  0.69805000  0.00930300  0.75780700  1
  O  O23  1  0.06914600  0.02679100  0.32219700  1
  O  O24  1  0.32219700  0.06914600  0.02679100  1
  O  O25  1  0.05766900  0.66705000  0.02705200  1
  O  O26  1  0.97294800  0.94233100  0.33295000  1
  O  O27  1  0.20039700  0.26870300  0.70907600  1
  O  O28  1  0.03258900  0.41404500  0.22613900  1
  O  O29  1  0.67780300  0.93085400  0.97320900  1
  O  O30  1  0.67919500  0.35222900  0.52646800  1
  O  O31  1  0.72613900  0.91404500  0.53258900  1
  O  O32  1  0.97320900  0.67780300  0.93085400  1
  O  O33  1  0.80195000  0.74219300  0.49069700  1
  O  O34  1  0.14777100  0.82080500  0.97353200  1
  O  O35  1  0.47353200  0.32080500  0.64777100  1
  O  O36  1  0.17919500  0.02646800  0.85222900  1
  O  O37  1  0.85222900  0.17919500  0.02646800  1
  O  O38  1  0.77386100  0.96741100  0.58595500  1
  O  O39  1  0.79960300  0.73129700  0.29092400  1
  O  O40  1  0.43085400  0.17780300  0.47320900  1
  O  O41  1  0.26870300  0.70907600  0.20039700  1
  O  O42  1  0.02705200  0.05766900  0.66705000  1
  O  O43  1  0.19805000  0.25780700  0.50930300  1
  O  O44  1  0.50930300  0.19805000  0.25780700  1
  O  O45  1  0.23129700  0.29960300  0.79092400  1
  O  O46  1  0.52705200  0.16705000  0.55766900  1
  O  O47  1  0.17780300  0.47320900  0.43085400  1
  O  O48  1  0.52646800  0.67919500  0.35222900  1
  O  O49  1  0.30195000  0.99069700  0.24219300  1
  O  O50  1  0.47294800  0.83295000  0.44233100  1
  O  O51  1  0.53258900  0.72613900  0.91404500  1
  O  O52  1  0.49069700  0.80195000  0.74219300  1
  O  O53  1  0.79092400  0.23129700  0.29960300  1
  O  O54  1  0.58595500  0.77386100  0.96741100  1
  O  O55  1  0.73129700  0.29092400  0.79960300  1
  O  O56  1  0.82080500  0.97353200  0.14777100  1
  O  O57  1  0.66705000  0.02705200  0.05766900  1
  O  O58  1  0.25780700  0.50930300  0.19805000  1
  O  O59  1  0.02679100  0.32219700  0.06914600  1
  O  O60  1  0.16705000  0.55766900  0.52705200  1
  O  O61  1  0.20907600  0.76870300  0.70039700  1
  O  O62  1  0.46741100  0.27386100  0.08595500  1
  O  O63  1  0.52679100  0.56914600  0.82219700  1
  O  O64  1  0.08595500  0.46741100  0.27386100  1
  O  O65  1  0.24219300  0.30195000  0.99069700  1
  O  O66  1  0.70039700  0.20907600  0.76870300  1
  O  O67  1  0.29960300  0.79092400  0.23129700  1
  O  O68  1  0.70907600  0.20039700  0.26870300  1
  O  O69  1  0.75780700  0.69805000  0.00930300  1
  O  O70  1  0.83295000  0.44233100  0.47294800  1
  O  O71  1  0.47320900  0.43085400  0.17780300  1
loop_
_geom_bond_atom_site_label_1
_geom_bond_atom_site_label_2
_geom_bond_distance
_geom_bond_site_symmetry_2
Ca0 O24 2.336916 1_565
Ca0 O67 2.394459 1_555
Ca0 O69 2.453066 1_555
Ca0 O49 2.494008 1_555
Ca0 O6 2.494308 1_555
Ca0 O54 2.575775 1_554
Ca0 O48 2.652023 1_555
Ca0 O19 2.745794 1_555
Ca1 O59 2.336917 1_556
Ca1 O45 2.394459 1_555
Ca1 O10 2.453066 1_555
Ca1 O65 2.494008 1_555
Ca1 O35 2.494308 1_555
Ca1 O2 2.575775 1_455
Ca1 O0 2.652023 1_555
Ca1 O6 2.745795 1_555
Ca2 O32 2.356416 1_455
Ca2 O61 2.396379 1_555
Ca2 O21 2.455447 1_555
Ca2 O0 2.482229 1_555
Ca2 O17 2.504775 1_556
Ca2 O65 2.516920 1_555
Ca2 O25 2.536414 1_556
Ca2 O28 2.566085 1_556
Ca3 O25 2.405270 1_656
Ca3 O57 2.405270 1_566
Ca3 O42 2.405270 1_665
Ca3 O32 2.487105 1_555
Ca3 O7 2.487105 1_555
Ca3 O29 2.487105 1_555
Ca3 O66 2.672307 1_565
Ca3 O61 2.672307 1_655
Ca3 O4 2.672308 1_556
Ca4 O23 2.356416 1_565
Ca4 O67 2.396379 1_555
Ca4 O60 2.455447 1_555
Ca4 O6 2.482229 1_555
Ca4 O2 2.504776 1_455
Ca4 O10 2.516920 1_555
Ca4 O26 2.536414 1_455
Ca4 O38 2.566084 1_455
Ca5 O24 2.356416 1_556
Ca5 O45 2.396379 1_555
Ca5 O46 2.455447 1_555
Ca5 O35 2.482229 1_555
Ca5 O38 2.504776 1_545
Ca5 O22 2.516920 1_555
Ca5 O8 2.536414 1_545
Ca5 O54 2.566084 1_545
Ca6 O47 2.336917 1_555
Ca6 O27 2.394459 1_555
Ca6 O12 2.453066 1_455
Ca6 O43 2.494008 1_555
Ca6 O36 2.494308 1_555
Ca6 O13 2.575775 1_455
Ca6 O3 2.652023 1_455
Ca6 O37 2.745795 1_456
Ca7 O71 2.336916 1_555
Ca7 O41 2.394459 1_555
Ca7 O52 2.453067 1_554
Ca7 O58 2.494008 1_555
Ca7 O9 2.494308 1_555
Ca7 O51 2.575775 1_554
Ca7 O34 2.652023 1_554
Ca7 O36 2.745794 1_564
Ca8 O1 2.405270 1_454
Ca8 O8 2.405270 1_544
Ca8 O26 2.405270 1_445
Ca8 O59 2.487105 1_555
Ca8 O23 2.487105 1_555
Ca8 O24 2.487105 1_555
Ca8 O67 2.672307 1_545
Ca8 O53 2.672307 1_455
Ca8 O45 2.672308 1_554
Ca9 O40 2.356416 1_555
Ca9 O27 2.396379 1_555
Ca9 O8 2.455447 1_545
Ca9 O36 2.482229 1_555
Ca9 O51 2.504776 1_545
Ca9 O52 2.516920 1_545
Ca9 O46 2.536414 1_555
Ca9 O31 2.566084 1_545
Ca10 O14 2.336917 1_555
Ca10 O39 2.394459 1_555
Ca10 O58 2.453066 1_655
Ca10 O33 2.494008 1_555
Ca10 O56 2.494308 1_555
Ca10 O64 2.575775 1_655
Ca10 O9 2.652023 1_655
Ca10 O34 2.745795 1_654
Ca11 O32 2.336917 1_554
Ca11 O4 2.394459 1_555
Ca11 O11 2.453066 1_555
Ca11 O69 2.494008 1_555
Ca11 O48 2.494308 1_555
Ca11 O28 2.575775 1_655
Ca11 O19 2.652023 1_555
Ca11 O30 2.745795 1_555
Ca12 O23 2.336916 1_655
Ca12 O53 2.394459 1_555
Ca12 O22 2.453067 1_555
Ca12 O11 2.494008 1_555
Ca12 O19 2.494308 1_555
Ca12 O38 2.575775 1_545
Ca12 O30 2.652023 1_555
Ca12 O35 2.745794 1_555
Ca13 O18 2.336916 1_555
Ca13 O5 2.394459 1_555
Ca13 O43 2.453066 1_565
Ca13 O52 2.494008 1_555
Ca13 O34 2.494308 1_555
Ca13 O15 2.575775 1_565
Ca13 O36 2.652023 1_565
Ca13 O3 2.745794 1_465
Ca14 O2 2.326752 1_555
Ca14 O13 2.326752 1_555
Ca14 O54 2.326752 1_555
Ca14 O31 2.326752 1_555
Ca14 O38 2.326752 1_555
Ca14 O51 2.326752 1_555
Ca15 O63 2.356416 1_555
Ca15 O5 2.396379 1_555
Ca15 O25 2.455447 1_556
Ca15 O34 2.482229 1_555
Ca15 O64 2.504776 1_556
Ca15 O58 2.516920 1_556
Ca15 O21 2.536414 1_555
Ca15 O62 2.566084 1_556
Ca16 O63 2.336916 1_555
Ca16 O55 2.394459 1_555
Ca16 O44 2.453067 1_556
Ca16 O12 2.494008 1_555
Ca16 O3 2.494308 1_555
Ca16 O62 2.575775 1_556
Ca16 O37 2.652023 1_556
Ca16 O56 2.745794 1_546
Ca17 O7 2.356416 1_545
Ca17 O66 2.396379 1_555
Ca17 O70 2.455447 1_555
Ca17 O30 2.482229 1_555
Ca17 O28 2.504776 1_655
Ca17 O11 2.516920 1_555
Ca17 O42 2.536414 1_655
Ca17 O16 2.566084 1_655
Ca18 O59 2.356416 1_655
Ca18 O53 2.396379 1_555
Ca18 O20 2.455447 1_555
Ca18 O19 2.482229 1_555
Ca18 O54 2.504775 1_554
Ca18 O69 2.516920 1_555
Ca18 O1 2.536414 1_554
Ca18 O2 2.566085 1_554
Ca19 O47 2.356416 1_555
Ca19 O41 2.396379 1_555
Ca19 O26 2.455447 1_455
Ca19 O9 2.482229 1_555
Ca19 O31 2.504775 1_455
Ca19 O33 2.516920 1_455
Ca19 O60 2.536414 1_555
Ca19 O13 2.566085 1_455
Ca20 O18 2.356416 1_555
Ca20 O39 2.396379 1_555
Ca20 O57 2.455447 1_565
Ca20 O56 2.482229 1_555
Ca20 O62 2.504776 1_565
Ca20 O44 2.516920 1_565
Ca20 O50 2.536414 1_555
Ca20 O15 2.566084 1_565
Ca21 O7 2.336916 1_455
Ca21 O61 2.394459 1_555
Ca21 O49 2.453067 1_555
Ca21 O10 2.494008 1_555
Ca21 O0 2.494308 1_555
Ca21 O16 2.575775 1_565
Ca21 O6 2.652023 1_555
Ca21 O48 2.745794 1_555
Ca22 O14 2.356416 1_555
Ca22 O55 2.396379 1_555
Ca22 O42 2.455447 1_655
Ca22 O3 2.482229 1_555
Ca22 O15 2.504775 1_655
Ca22 O43 2.516920 1_655
Ca22 O70 2.536414 1_555
Ca22 O64 2.566085 1_655
Ca23 O60 2.405270 1_555
Ca23 O46 2.405270 1_555
Ca23 O20 2.405270 1_555
Ca23 O47 2.487105 1_555
Ca23 O71 2.487105 1_555
Ca23 O40 2.487105 1_555
Ca23 O68 2.672307 1_555
Ca23 O41 2.672307 1_555
Ca23 O27 2.672308 1_555
Ca24 O70 2.405270 1_555
Ca24 O50 2.405270 1_555
Ca24 O21 2.405270 1_555
Ca24 O14 2.487105 1_555
Ca24 O63 2.487105 1_555
Ca24 O18 2.487105 1_555
Ca24 O5 2.672307 1_555
Ca24 O55 2.672307 1_555
Ca24 O39 2.672308 1_555
Ca25 O29 2.356416 1_554
Ca25 O4 2.396379 1_555
Ca25 O50 2.455447 1_555
Ca25 O48 2.482229 1_555
Ca25 O16 2.504776 1_565
Ca25 O49 2.516920 1_555
Ca25 O57 2.536414 1_565
Ca25 O17 2.566084 1_565
Ca26 O71 2.356416 1_555
Ca26 O68 2.396379 1_555
Ca26 O1 2.455447 1_554
Ca26 O37 2.482229 1_555
Ca26 O13 2.504776 1_554
Ca26 O12 2.516920 1_554
Ca26 O20 2.536414 1_555
Ca26 O51 2.566084 1_554
Ca27 O40 2.336916 1_555
Ca27 O68 2.394459 1_555
Ca27 O33 2.453066 1_545
Ca27 O44 2.494008 1_555
Ca27 O37 2.494308 1_555
Ca27 O31 2.575775 1_545
Ca27 O56 2.652023 1_545
Ca27 O9 2.745794 1_645
Ca28 O64 2.326752 1_555
Ca28 O28 2.326752 1_555
Ca28 O15 2.326752 1_555
Ca28 O17 2.326752 1_555
Ca28 O62 2.326752 1_555
Ca28 O16 2.326752 1_555
Ca29 O29 2.336916 1_545
Ca29 O66 2.394459 1_555
Ca29 O65 2.453066 1_555
Ca29 O22 2.494008 1_555
Ca29 O30 2.494308 1_555
Ca29 O17 2.575775 1_556
Ca29 O35 2.652023 1_555
Ca29 O0 2.745794 1_555
O0 Re6 1.905752 1_555
O1 Re11 1.891352 1_655
O2 Re11 1.984441 1_655
O3 Re4 1.905752 1_656
O4 Re2 1.840364 1_555
O5 Re9 1.840364 1_555
O6 Re6 1.905752 1_555
O7 Re0 1.948309 1_555
O8 Re1 1.891351 1_556
O9 Re4 1.905752 1_565
O10 Re0 1.860863 1_455
O11 Re3 1.860863 1_655
O12 Re10 1.860863 1_555
O13 Re11 1.984441 1_655
O14 Re10 1.948309 1_555
O15 Re9 1.984441 1_545
O16 Re9 1.984441 1_545
O17 Re8 1.984441 1_554
O18 Re10 1.948309 1_555
O19 Re6 1.905752 1_555
O20 Re1 1.891351 1_555
O21 Re8 1.891351 1_555
O22 Re0 1.860863 1_545
O23 Re3 1.948309 1_555
O24 Re3 1.948309 1_555
O25 Re2 1.891352 1_455
O26 Re5 1.891351 1_565
O27 Re11 1.840364 1_555
O28 Re2 1.984441 1_455
O29 Re0 1.948309 1_555
O30 Re6 1.905752 1_555
O31 Re5 1.984441 1_565
O32 Re0 1.948309 1_555
O33 Re10 1.860863 1_555
O34 Re4 1.905752 1_566
O35 Re6 1.905752 1_555
O36 Re4 1.905752 1_556
O37 Re4 1.905752 1_655
O38 Re5 1.984441 1_565
O39 Re2 1.840364 1_555
O40 Re7 1.948309 1_555
O41 Re1 1.840364 1_555
O42 Re9 1.891351 1_545
O43 Re7 1.860863 1_555
O44 Re7 1.860863 1_555
O45 Re11 1.840364 1_555
O46 Re5 1.891351 1_555
O47 Re7 1.948309 1_555
O48 Re6 1.905752 1_555
O49 Re3 1.860863 1_565
O50 Re9 1.891351 1_555
O51 Re1 1.984441 1_556
O52 Re10 1.860863 1_555
O53 Re5 1.840364 1_555
O54 Re1 1.984441 1_556
O55 Re8 1.840364 1_555
O56 Re4 1.905752 1_665
O57 Re8 1.891351 1_554
O58 Re7 1.860863 1_555
O59 Re3 1.948309 1_555
O60 Re11 1.891352 1_555
O61 Re9 1.840364 1_555
O62 Re8 1.984441 1_554
O63 Re10 1.948309 1_555
O64 Re2 1.984441 1_455
O65 Re3 1.860863 1_556
O66 Re8 1.840364 1_555
O67 Re1 1.840364 1_555
O68 Re5 1.840364 1_555
O69 Re0 1.860863 1_554
O70 Re2 1.891352 1_555
O71 Re7 1.948309 1_555
