# generated using pymatgen
data_UAl2
_symmetry_space_group_name_H-M   'P 1'
_cell_length_a   5.58224867
_cell_length_b   5.58224998
_cell_length_c   16.95052385
_cell_angle_alpha   90.00000000
_cell_angle_beta   90.00000000
_cell_angle_gamma   120.00000448
_symmetry_Int_Tables_number   1
_chemical_formula_structural   UAl2
_chemical_formula_sum   'U8 Al16'
_cell_volume   457.43795483
_cell_formula_units_Z   8
loop_
 _symmetry_equiv_pos_site_id
 _symmetry_equiv_pos_as_xyz
  1  'x, y, z'
loop_
 _atom_site_type_symbol
 _atom_site_label
 _atom_site_symmetry_multiplicity
 _atom_site_fract_x
 _atom_site_fract_y
 _atom_site_fract_z
 _atom_site_occupancy
  U  U0  1  0.33333300  0.66666700  0.82443018  1
  U  U1  1  0.00000000  0.00000000  0.08321767  1
  U  U2  1  0.00000000  0.00000000  0.91678233  1
  U  U3  1  0.66666700  0.33333300  0.17556982  1
  U  U4  1  0.00000000  0.00000000  0.58321767  1
  U  U5  1  0.66666700  0.33333300  0.32443018  1
  U  U6  1  0.00000000  0.00000000  0.41678233  1
  U  U7  1  0.33333300  0.66666700  0.67556982  1
  Al  Al0  1  0.84180880  0.15819120  0.75000000  1
  Al  Al1  1  0.50000000  0.00000000  0.50000000  1
  Al  Al2  1  0.31638340  0.15819120  0.75000000  1
  Al  Al3  1  0.50000000  0.50000000  0.50000000  1
  Al  Al4  1  0.15819120  0.84180880  0.25000000  1
  Al  Al5  1  0.84180880  0.68361660  0.75000000  1
  Al  Al6  1  0.66666700  0.33333300  0.62785201  1
  Al  Al7  1  0.50000000  0.50000000  -0.00000000  1
  Al  Al8  1  0.00000000  0.50000000  0.50000000  1
  Al  Al9  1  0.15819120  0.31638340  0.25000000  1
  Al  Al10  1  0.33333300  0.66666700  0.37214699  1
  Al  Al11  1  0.68361660  0.84180880  0.25000000  1
  Al  Al12  1  0.66666700  0.33333300  0.87214799  1
  Al  Al13  1  0.50000000  0.00000000  -0.00000000  1
  Al  Al14  1  0.33333300  0.66666700  0.12785301  1
  Al  Al15  1  0.00000000  0.50000000  -0.00000000  1
loop_
_geom_bond_atom_site_label_1
_geom_bond_atom_site_label_2
_geom_bond_distance
_geom_bond_site_symmetry_2
U0 U7 2.523261 1_555
U0 U2 3.582971 1_565
U0 U2 3.582975 1_665
U0 U2 3.582975 1_555
U1 U2 2.821166 1_554
U1 U3 3.582971 1_455
U1 U3 3.582975 1_555
U1 U3 3.582975 1_445
U3 U5 2.523261 1_555
U4 U6 2.821166 1_555
U4 U7 3.582971 1_545
U4 U7 3.582975 1_445
U4 U7 3.582975 1_555
U5 U6 3.582971 1_655
U5 U6 3.582975 1_555
U5 U6 3.582975 1_665
Al0 Al2 2.649193 1_655
Al0 Al5 2.649194 1_545
Al0 Al6 2.674782 1_555
Al0 Al12 2.674782 1_555
Al0 Al2 2.933055 1_555
Al0 Al5 2.933056 1_555
Al0 U0 3.064115 1_545
Al0 U7 3.064115 1_545
Al0 U0 3.064115 1_655
Al0 U7 3.064115 1_655
Al0 U2 3.214280 1_655
Al0 U4 3.214280 1_655
Al1 Al6 2.700623 1_555
Al1 Al10 2.700636 1_545
Al1 Al8 2.791124 1_545
Al1 Al8 2.791124 1_655
Al1 Al3 2.791125 1_545
Al1 Al3 2.791125 1_555
Al1 U6 3.127318 1_555
Al1 U6 3.127318 1_655
Al1 U4 3.127318 1_555
Al1 U4 3.127318 1_655
Al1 U7 3.384282 1_545
Al1 U5 3.384282 1_555
Al2 Al5 2.649194 1_445
Al2 Al6 2.674782 1_555
Al2 Al5 2.933055 1_555
Al2 U0 3.064111 1_545
Al2 U7 3.064111 1_545
Al2 U7 3.064121 1_555
Al2 U0 3.064121 1_555
Al2 U4 3.214283 1_555
Al2 U2 3.214283 1_555
Al3 Al6 2.700626 1_555
Al3 Al8 2.791124 1_655
Al3 Al8 2.791124 1_555
Al3 U4 3.127318 1_665
Al3 U6 3.127318 1_555
Al3 U6 3.127318 1_665
Al3 U4 3.127318 1_555
Al3 U7 3.384284 1_555
Al3 U5 3.384284 1_555
Al4 Al9 2.649194 1_565
Al4 Al9 2.933056 1_555
Al4 U5 3.064115 1_565
Al4 U3 3.064115 1_565
Al4 U5 3.064115 1_455
Al4 U3 3.064115 1_455
Al4 U1 3.214280 1_565
Al4 U6 3.214280 1_565
Al5 Al6 2.674783 1_555
Al5 U0 3.064110 1_655
Al5 U7 3.064110 1_655
Al5 U7 3.064120 1_555
Al5 U0 3.064120 1_555
Al5 U4 3.214283 1_665
Al5 U2 3.214283 1_665
Al6 Al8 2.700623 1_655
Al6 U4 3.310522 1_655
Al6 U4 3.310526 1_555
Al6 U4 3.310527 1_665
Al7 U1 3.127318 1_665
Al7 U2 3.127318 1_554
Al7 U2 3.127318 1_664
Al7 U1 3.127318 1_555
Al7 U0 3.384284 1_554
Al7 U3 3.384284 1_555
Al8 U6 3.127319 1_555
Al8 U6 3.127319 1_565
Al8 U4 3.127319 1_555
Al8 U4 3.127319 1_565
Al8 U7 3.384282 1_555
Al8 U5 3.384282 1_455
Al9 U3 3.064110 1_455
Al9 U5 3.064110 1_455
Al9 U3 3.064120 1_555
Al9 U5 3.064120 1_555
Al9 U1 3.214283 1_555
Al9 U6 3.214283 1_555
Al10 Al11 2.674769 1_555
Al10 Al4 2.674769 1_555
Al10 Al9 2.674769 1_555
Al10 Al8 2.700636 1_555
Al10 Al3 2.700639 1_555
Al10 U6 3.310526 1_565
Al10 U6 3.310530 1_665
Al10 U6 3.310531 1_555
Al11 Al4 2.649193 1_655
Al11 Al9 2.649194 1_665
Al11 Al14 2.674769 1_555
Al11 Al4 2.933055 1_555
Al11 Al9 2.933055 1_555
Al11 U3 3.064111 1_565
Al11 U5 3.064111 1_565
Al11 U3 3.064121 1_555
Al11 U5 3.064121 1_555
Al11 U1 3.214283 1_665
Al11 U6 3.214283 1_665
Al12 Al2 2.674782 1_555
Al12 Al5 2.674783 1_555
Al12 Al15 2.700623 1_656
Al12 Al13 2.700623 1_556
Al12 Al7 2.700626 1_556
Al12 U2 3.310522 1_655
Al12 U2 3.310526 1_555
Al12 U2 3.310527 1_665
Al13 Al14 2.700636 1_545
Al13 Al15 2.791124 1_655
Al13 Al15 2.791124 1_545
Al13 Al7 2.791125 1_545
Al13 Al7 2.791125 1_555
Al13 U2 3.127318 1_654
Al13 U1 3.127318 1_555
Al13 U1 3.127318 1_655
Al13 U2 3.127318 1_554
Al13 U0 3.384282 1_544
Al13 U3 3.384282 1_555
Al14 Al4 2.674769 1_555
Al14 Al9 2.674769 1_555
Al14 Al15 2.700636 1_555
Al14 Al7 2.700639 1_555
Al14 U1 3.310526 1_565
Al14 U1 3.310530 1_665
Al14 U1 3.310531 1_555
Al15 Al7 2.791124 1_555
Al15 Al7 2.791124 1_455
Al15 U1 3.127319 1_555
Al15 U1 3.127319 1_565
Al15 U2 3.127319 1_564
Al15 U2 3.127319 1_554
Al15 U0 3.384282 1_554
Al15 U3 3.384282 1_455
