# generated using pymatgen
data_K3Ni2F7
_symmetry_space_group_name_H-M   'P 1'
_cell_length_a   10.88163605
_cell_length_b   10.88163605
_cell_length_c   10.88163605
_cell_angle_alpha   158.80199442
_cell_angle_beta   158.80199442
_cell_angle_gamma   30.15463836
_symmetry_Int_Tables_number   1
_chemical_formula_structural   K3Ni2F7
_chemical_formula_sum   'K3 Ni2 F7'
_cell_volume   168.36587683
_cell_formula_units_Z   1
loop_
 _symmetry_equiv_pos_site_id
 _symmetry_equiv_pos_as_xyz
  1  'x, y, z'
loop_
 _atom_site_type_symbol
 _atom_site_label
 _atom_site_symmetry_multiplicity
 _atom_site_fract_x
 _atom_site_fract_y
 _atom_site_fract_z
 _atom_site_occupancy
  K  K0  1  0.31539134  0.31539134  0.00000000  1
  K  K1  1  0.68460866  0.68460866  -0.00000000  1
  K  K2  1  0.50000000  0.50000000  -0.00000000  1
  Ni  Ni0  1  0.09553099  0.09553099  -0.00000000  1
  Ni  Ni1  1  0.90446901  0.90446901  0.00000000  1
  F  F0  1  -0.00000000  -0.00000000  -0.00000000  1
  F  F1  1  0.90548790  0.40548790  0.50000000  1
  F  F2  1  0.40548790  0.90548790  0.50000000  1
  F  F3  1  0.09451210  0.59451210  0.50000000  1
  F  F4  1  0.59451210  0.09451210  0.50000000  1
  F  F5  1  0.19048393  0.19048393  0.00000000  1
  F  F6  1  0.80951607  0.80951607  -0.00000000  1
loop_
_geom_bond_atom_site_label_1
_geom_bond_atom_site_label_2
_geom_bond_distance
_geom_bond_site_symmetry_2
F0 Ni1 2.007496 1_445
F0 Ni0 2.007496 1_555
F0 K2 2.830556 1_455
F0 K2 2.830556 1_556
F0 K2 2.830556 1_444
F0 K2 2.830556 1_545
F1 Ni1 2.001620 1_545
F1 Ni1 2.001620 1_556
F1 K0 2.755104 1_656
F1 K0 2.755104 1_555
F1 K2 2.819674 1_656
F1 K2 2.819674 1_555
F2 Ni1 2.001620 1_455
F2 Ni1 2.001620 1_556
F2 K0 2.755104 1_566
F2 K0 2.755104 1_555
F2 K2 2.819674 1_566
F2 K2 2.819674 1_555
F3 Ni0 2.001620 1_555
F3 Ni0 2.001620 1_566
F3 K1 2.755104 1_556
F3 K1 2.755104 1_455
F3 K2 2.819674 1_455
F3 K2 2.819674 1_556
F4 Ni0 2.001620 1_555
F4 Ni0 2.001620 1_656
F4 K1 2.755104 1_545
F4 K1 2.755104 1_556
F4 K2 2.819674 1_545
F4 K2 2.819674 1_556
F5 Ni0 1.995349 1_555
F5 K0 2.624815 1_555
F5 K1 2.833248 1_455
F5 K1 2.833248 1_556
F5 K1 2.833248 1_444
F5 K1 2.833248 1_545
F6 Ni1 1.995349 1_555
F6 K1 2.624815 1_555
F6 K0 2.833248 1_554
F6 K0 2.833248 1_655
F6 K0 2.833248 1_666
F6 K0 2.833248 1_565
