# generated using pymatgen
data_LiBH15C5NO3
_symmetry_space_group_name_H-M   'P 1'
_cell_length_a   9.98284700
_cell_length_b   9.49999600
_cell_length_c   10.55959276
_cell_angle_alpha   72.04862205
_cell_angle_beta   90.00000000
_cell_angle_gamma   90.00000000
_symmetry_Int_Tables_number   1
_chemical_formula_structural   LiBH15C5NO3
_chemical_formula_sum   'Li4 B4 H60 C20 N4 O12'
_cell_volume   952.68846878
_cell_formula_units_Z   4
loop_
 _symmetry_equiv_pos_site_id
 _symmetry_equiv_pos_as_xyz
  1  'x, y, z'
loop_
 _atom_site_type_symbol
 _atom_site_label
 _atom_site_symmetry_multiplicity
 _atom_site_fract_x
 _atom_site_fract_y
 _atom_site_fract_z
 _atom_site_occupancy
  Li  Li0  1  0.67897500  0.14389700  0.81726600  1
  Li  Li1  1  0.17897500  0.35610300  0.18273400  1
  Li  Li2  1  0.32102500  0.85610300  0.18273400  1
  Li  Li3  1  0.82102500  0.64389700  0.81726600  1
  B  B0  1  0.33404500  0.59605400  0.21565300  1
  B  B1  1  0.83404500  0.90394600  0.78434700  1
  B  B2  1  0.16595500  0.09605400  0.21565300  1
  B  B3  1  0.66595500  0.40394600  0.78434700  1
  H  H0  1  0.58260600  0.77206700  0.33431200  1
  H  H1  1  0.91739400  0.27206700  0.33431200  1
  H  H2  1  0.41739400  0.22793300  0.66568800  1
  H  H3  1  0.39713600  0.66466200  0.28138900  1
  H  H4  1  0.71026800  0.52560900  0.50795000  1
  H  H5  1  0.63814000  0.00345800  0.60179200  1
  H  H6  1  0.90375300  0.90418500  0.88039800  1
  H  H7  1  0.99437000  0.10400400  0.59785400  1
  H  H8  1  0.84794000  0.44931500  0.33649600  1
  H  H9  1  0.18871800  0.93463500  0.82768200  1
  H  H10  1  0.81128200  0.06536500  0.17231800  1
  H  H11  1  0.01881700  0.64330800  0.03427300  1
  H  H12  1  0.14240400  0.02866300  0.94837300  1
  H  H13  1  0.13814000  0.49654200  0.39820800  1
  H  H14  1  0.90481100  0.26614100  0.60089700  1
  H  H15  1  0.98297200  0.15144100  0.74822600  1
  H  H16  1  0.09624700  0.09581500  0.11960200  1
  H  H17  1  0.70103700  0.18479200  0.52032900  1
  H  H18  1  0.40445700  0.83831100  0.83708200  1
  H  H19  1  0.90445700  0.66168900  0.16291800  1
  H  H20  1  0.89713600  0.83533800  0.71861100  1
  H  H21  1  0.77175300  0.33650800  0.82390100  1
  H  H22  1  0.60286400  0.33533800  0.71861100  1
  H  H23  1  0.15206000  0.55068500  0.66350400  1
  H  H24  1  0.48297200  0.34855900  0.25177400  1
  H  H25  1  0.00563000  0.89599600  0.40214600  1
  H  H26  1  0.59518900  0.76614100  0.60089700  1
  H  H27  1  0.40375300  0.59581500  0.11960200  1
  H  H28  1  0.65206000  0.94931500  0.33649600  1
  H  H29  1  0.09554300  0.33831100  0.83708200  1
  H  H30  1  0.28973200  0.47439100  0.49205000  1
  H  H31  1  0.59624700  0.40418500  0.88039800  1
  H  H32  1  0.08260600  0.72793300  0.66568800  1
  H  H33  1  0.78973200  0.02560900  0.50795000  1
  H  H34  1  0.29896300  0.81520800  0.47967100  1
  H  H35  1  0.59554300  0.16168900  0.16291800  1
  H  H36  1  0.51881700  0.85669200  0.96572700  1
  H  H37  1  0.86186000  0.50345800  0.60179200  1
  H  H38  1  0.85759600  0.97133700  0.05162700  1
  H  H39  1  0.21026800  0.97439100  0.49205000  1
  H  H40  1  0.35759600  0.52866300  0.94837300  1
  H  H41  1  0.22824700  0.66349200  0.17609900  1
  H  H42  1  0.10286400  0.16466200  0.28138900  1
  H  H43  1  0.09518900  0.73385900  0.39910300  1
  H  H44  1  0.51702800  0.65144100  0.74822600  1
  H  H45  1  0.72824700  0.83650800  0.82390100  1
  H  H46  1  0.49437000  0.39599600  0.40214600  1
  H  H47  1  0.20103700  0.31520800  0.47967100  1
  H  H48  1  0.27175300  0.16349200  0.17609900  1
  H  H49  1  0.50563000  0.60400400  0.59785400  1
  H  H50  1  0.48118300  0.14330800  0.03427300  1
  H  H51  1  0.34794000  0.05068500  0.66350400  1
  H  H52  1  0.40481100  0.23385900  0.39910300  1
  H  H53  1  0.64240400  0.47133700  0.05162700  1
  H  H54  1  0.36186000  0.99654200  0.39820800  1
  H  H55  1  0.01702800  0.84855900  0.25177400  1
  H  H56  1  0.31128200  0.43463500  0.82768200  1
  H  H57  1  0.79896300  0.68479200  0.52032900  1
  H  H58  1  0.98118300  0.35669200  0.96572700  1
  H  H59  1  0.68871800  0.56536500  0.17231800  1
  C  C0  1  0.12082200  0.62002100  0.72561900  1
  C  C1  1  0.06215900  0.40818100  0.89755200  1
  C  C2  1  0.42713400  0.34939200  0.34107100  1
  C  C3  1  0.27018800  0.92982200  0.42404000  1
  C  C4  1  0.87917800  0.37997900  0.27438100  1
  C  C5  1  0.22981200  0.42982200  0.42404000  1
  C  C6  1  0.77018800  0.57017800  0.57596000  1
  C  C7  1  0.56215900  0.09181900  0.10244800  1
  C  C8  1  0.72981200  0.07017800  0.57596000  1
  C  C9  1  0.62082200  0.87997900  0.27438100  1
  C  C10  1  0.93784100  0.59181900  0.10244800  1
  C  C11  1  0.07286600  0.84939200  0.34107100  1
  C  C12  1  0.27742900  0.50612000  0.88662800  1
  C  C13  1  0.72257100  0.49388000  0.11337200  1
  C  C14  1  0.22257100  0.00612000  0.88662800  1
  C  C15  1  0.57286600  0.65060800  0.65892900  1
  C  C16  1  0.92713400  0.15060800  0.65892900  1
  C  C17  1  0.37917800  0.12002100  0.72561900  1
  C  C18  1  0.77742900  0.99388000  0.11337200  1
  C  C19  1  0.43784100  0.90818100  0.89755200  1
  N  N0  1  0.80418800  0.06428100  0.69671300  1
  N  N1  1  0.69581200  0.56428100  0.69671300  1
  N  N2  1  0.30418800  0.43571900  0.30328700  1
  N  N3  1  0.19581200  0.93571900  0.30328700  1
  O  O0  1  0.01427900  0.54661700  0.81170200  1
  O  O1  1  0.76893500  0.35584000  0.19903500  1
  O  O2  1  0.17230000  0.43249000  0.97461500  1
  O  O3  1  0.98572100  0.45338300  0.18829800  1
  O  O4  1  0.32770000  0.93249000  0.97461500  1
  O  O5  1  0.48572100  0.04661700  0.81170200  1
  O  O6  1  0.82770000  0.56751000  0.02538500  1
  O  O7  1  0.26893500  0.14416000  0.80096500  1
  O  O8  1  0.23106500  0.64416000  0.80096500  1
  O  O9  1  0.67230000  0.06751000  0.02538500  1
  O  O10  1  0.73106500  0.85584000  0.19903500  1
  O  O11  1  0.51427900  0.95338300  0.18829800  1
loop_
_geom_bond_atom_site_label_1
_geom_bond_atom_site_label_2
_geom_bond_distance
_geom_bond_site_symmetry_2
Li0 N0 2.085314 1_555
Li0 O9 2.092287 1_556
Li0 O5 2.147767 1_555
Li1 N2 2.085314 1_555
Li1 O2 2.092287 1_554
Li1 O3 2.147767 1_455
Li2 N3 2.085314 1_555
Li2 O4 2.092287 1_554
Li2 O11 2.147767 1_555
Li3 N1 2.085314 1_555
Li3 O6 2.092287 1_556
Li3 O0 2.147767 1_655
B0 H27 1.230610 1_555
B0 H41 1.239127 1_555
B0 H3 1.257862 1_555
B0 N2 1.548028 1_555
B1 H6 1.230610 1_555
B1 H45 1.239127 1_555
B1 H20 1.257862 1_555
B1 N0 1.548028 1_565
B2 H16 1.230610 1_555
B2 H48 1.239127 1_555
B2 H42 1.257862 1_555
B2 N3 1.548028 1_545
B3 H31 1.230610 1_555
B3 H21 1.239127 1_555
B3 H22 1.257862 1_555
B3 N1 1.548028 1_555
H3 Li2 1.949949 1_555
H20 Li3 1.949949 1_555
H21 Li0 2.071217 1_555
H22 Li0 1.949949 1_555
H41 Li2 2.071217 1_555
H42 Li1 1.949949 1_555
H45 Li3 2.071217 1_555
H48 Li1 2.071217 1_555
C0 H32 1.094114 1_555
C0 H23 1.107997 1_555
C0 O8 1.417483 1_555
C0 O0 1.432856 1_555
C1 H58 1.092666 1_455
C1 H29 1.104828 1_555
C1 O2 1.428395 1_555
C1 O0 1.430022 1_555
C2 H24 1.097505 1_555
C2 H52 1.102375 1_555
C2 H46 1.112868 1_555
C2 N2 1.461662 1_555
C3 H54 1.098671 1_555
C3 H34 1.104030 1_555
C3 H39 1.113674 1_555
C3 N3 1.461600 1_555
C4 H1 1.094114 1_555
C4 H8 1.107997 1_555
C4 O1 1.417483 1_555
C4 O3 1.432856 1_555
C5 H13 1.098671 1_555
C5 H47 1.104030 1_555
C5 H30 1.113674 1_555
C5 N2 1.461600 1_555
C6 H37 1.098671 1_555
C6 H57 1.104030 1_555
C6 H4 1.113674 1_555
C6 N1 1.461600 1_555
C7 H50 1.092666 1_555
C7 H35 1.104828 1_555
C7 O9 1.428395 1_555
C7 O11 1.430022 1_545
C8 H5 1.098671 1_555
C8 H17 1.104030 1_555
C8 H33 1.113674 1_555
C8 N0 1.461600 1_555
C9 H0 1.094114 1_555
C9 H28 1.107997 1_555
C9 O10 1.417483 1_555
C9 O11 1.432856 1_555
C10 H11 1.092666 1_655
C10 H19 1.104828 1_555
C10 O6 1.428395 1_555
C10 O3 1.430022 1_555
C11 H55 1.097505 1_555
C11 H43 1.102375 1_555
C11 H25 1.112868 1_555
C11 N3 1.461662 1_555
C12 H40 1.094310 1_555
C12 H56 1.106074 1_555
C12 O8 1.421607 1_555
C12 O2 1.432945 1_555
C13 H53 1.094310 1_555
C13 H59 1.106074 1_555
C13 O1 1.421607 1_555
C13 O6 1.432945 1_555
C14 H12 1.094310 1_555
C14 H9 1.106074 1_545
C14 O7 1.421607 1_555
C14 O4 1.432945 1_545
C15 H44 1.097505 1_555
C15 H26 1.102375 1_555
C15 H49 1.112868 1_555
C15 N1 1.461662 1_555
C16 H15 1.097505 1_555
C16 H14 1.102375 1_555
C16 H7 1.112868 1_555
C16 N0 1.461662 1_555
C17 H2 1.094114 1_555
C17 H51 1.107997 1_555
C17 O7 1.417483 1_555
C17 O5 1.432856 1_555
C18 H38 1.094310 1_555
C18 H10 1.106074 1_565
C18 O10 1.421607 1_555
C18 O9 1.432945 1_565
C19 H36 1.092666 1_555
C19 H18 1.104828 1_555
C19 O4 1.428395 1_555
C19 O5 1.430022 1_565
