# generated using pymatgen
data_Al2CuO4
_symmetry_space_group_name_H-M   'P 1'
_cell_length_a   5.77305943
_cell_length_b   5.77305943
_cell_length_c   23.71176882
_cell_angle_alpha   83.45311178
_cell_angle_beta   83.45311178
_cell_angle_gamma   59.72268373
_symmetry_Int_Tables_number   1
_chemical_formula_structural   Al2CuO4
_chemical_formula_sum   'Al20 Cu10 O40'
_cell_volume   676.55031285
_cell_formula_units_Z   10
loop_
 _symmetry_equiv_pos_site_id
 _symmetry_equiv_pos_as_xyz
  1  'x, y, z'
loop_
 _atom_site_type_symbol
 _atom_site_label
 _atom_site_symmetry_multiplicity
 _atom_site_fract_x
 _atom_site_fract_y
 _atom_site_fract_z
 _atom_site_occupancy
  Al  Al0  1  0.65259800  0.65259800  0.05055300  1
  Al  Al1  1  0.12074000  0.62874600  0.12539300  1
  Al  Al2  1  0.25447800  0.25447800  0.24920500  1
  Al  Al3  1  0.32526400  0.32526400  0.02340200  1
  Al  Al4  1  0.62874600  0.12074000  0.12539300  1
  Al  Al5  1  0.72052000  0.22893200  0.32555600  1
  Al  Al6  1  0.92414700  0.92414700  0.22376200  1
  Al  Al7  1  0.85446900  0.85446900  0.44913000  1
  Al  Al8  1  0.22893200  0.72052000  0.32555600  1
  Al  Al9  1  0.32056600  0.82909000  0.52545300  1
  Al  Al10  1  0.52418800  0.52418800  0.42386600  1
  Al  Al11  1  0.45492300  0.45492300  0.64803700  1
  Al  Al12  1  0.82909000  0.32056600  0.52545300  1
  Al  Al13  1  0.92085900  0.42791500  0.72572000  1
  Al  Al14  1  0.12534900  0.12534900  0.62392200  1
  Al  Al15  1  0.52306700  0.52306700  0.92533600  1
  Al  Al16  1  0.42791500  0.92085900  0.72572000  1
  Al  Al17  1  0.72238700  0.72238700  0.82661000  1
  Al  Al18  1  0.52286200  0.02737200  0.92519100  1
  Al  Al19  1  0.02737200  0.52286200  0.92519100  1
  Cu  Cu0  1  0.00062800  0.00062800  0.99900300  1
  Cu  Cu1  1  0.59907100  0.59907100  0.20020200  1
  Cu  Cu2  1  0.12035300  0.12035300  0.12531200  1
  Cu  Cu3  1  0.19889200  0.19889200  0.40025400  1
  Cu  Cu4  1  0.72005100  0.72005100  0.32568700  1
  Cu  Cu5  1  0.79905400  0.79905400  0.60091500  1
  Cu  Cu6  1  0.32020300  0.32020300  0.52540300  1
  Cu  Cu7  1  0.39955600  0.39955600  0.80079700  1
  Cu  Cu8  1  0.92114000  0.92114000  0.72592200  1
  Cu  Cu9  1  0.04833900  0.04833900  0.84950800  1
  O  O0  1  0.99689600  0.48170800  0.07384300  1
  O  O1  1  0.48170800  0.99689600  0.07384300  1
  O  O2  1  0.28637100  0.28637100  0.17118800  1
  O  O3  1  0.79298500  0.79298500  0.17193800  1
  O  O4  1  0.59627600  0.08043300  0.27395300  1
  O  O5  1  0.46639500  0.46639500  0.07708700  1
  O  O6  1  0.88695200  0.88695200  0.37091900  1
  O  O7  1  0.08043300  0.59627600  0.27395300  1
  O  O8  1  0.78036200  0.23689200  0.17421000  1
  O  O9  1  0.96300700  0.96300700  0.08210200  1
  O  O10  1  0.39285400  0.39285400  0.37216300  1
  O  O11  1  0.23689200  0.78036200  0.17421000  1
  O  O12  1  0.06760000  0.06760000  0.27607600  1
  O  O13  1  0.19608700  0.68060700  0.47377400  1
  O  O14  1  0.68060700  0.19608700  0.47377400  1
  O  O15  1  0.37975200  0.83730700  0.37432900  1
  O  O16  1  0.56237200  0.56237200  0.28278300  1
  O  O17  1  0.48753100  0.48753100  0.56979600  1
  O  O18  1  0.99324900  0.99324900  0.57189500  1
  O  O19  1  0.79495700  0.28384700  0.67244700  1
  O  O20  1  0.66793900  0.66793900  0.47560900  1
  O  O21  1  0.83730700  0.37975200  0.37432900  1
  O  O22  1  0.28384700  0.79495700  0.67244700  1
  O  O23  1  0.08676900  0.08676900  0.76330800  1
  O  O24  1  0.98014900  0.43878800  0.57381500  1
  O  O25  1  0.16266600  0.16266600  0.48265600  1
  O  O26  1  0.59318400  0.59318400  0.77240400  1
  O  O27  1  0.41299200  0.85093500  0.88045600  1
  O  O28  1  0.27109100  0.27109100  0.67388000  1
  O  O29  1  0.43878800  0.98014900  0.57381500  1
  O  O30  1  0.85093500  0.41299200  0.88045600  1
  O  O31  1  0.57766000  0.03741600  0.77568900  1
  O  O32  1  0.67451800  0.67451800  0.97371400  1
  O  O33  1  0.76565100  0.76565100  0.68376900  1
  O  O34  1  0.19590500  0.19590500  0.97249000  1
  O  O35  1  0.85135800  0.85135800  0.88064000  1
  O  O36  1  0.03741600  0.57766000  0.77568900  1
  O  O37  1  0.37059100  0.37059100  0.88434000  1
  O  O38  1  0.19678300  0.63551400  0.97239500  1
  O  O39  1  0.63551400  0.19678300  0.97239500  1
loop_
_geom_bond_atom_site_label_1
_geom_bond_atom_site_label_2
_geom_bond_distance
_geom_bond_site_symmetry_2
Al0 O32 1.806285 1_554
Al0 O0 1.837867 1_555
Al0 O1 1.837867 1_555
Al0 O5 1.887776 1_555
Al1 O11 1.885613 1_555
Al1 O9 1.896373 1_455
Al1 O3 1.910669 1_455
Al1 O0 1.942605 1_455
Al1 O2 1.960039 1_555
Al1 O5 2.002514 1_555
Al2 O2 1.835444 1_555
Al2 O7 1.837901 1_555
Al2 O4 1.837901 1_555
Al2 O12 1.895789 1_555
Al3 O34 1.883166 1_554
Al3 O39 1.895242 1_554
Al3 O38 1.895242 1_554
Al3 O0 1.960284 1_455
Al3 O1 1.960284 1_545
Al3 O5 2.022499 1_555
Al4 O8 1.885613 1_555
Al4 O9 1.896373 1_545
Al4 O3 1.910669 1_545
Al4 O1 1.942605 1_545
Al4 O2 1.960039 1_555
Al4 O5 2.002514 1_555
Al5 O21 1.884019 1_555
Al5 O16 1.887186 1_555
Al5 O10 1.910975 1_555
Al5 O4 1.950900 1_555
Al5 O6 1.953596 1_545
Al5 O12 2.022409 1_655
Al6 O11 1.885947 1_655
Al6 O8 1.885947 1_565
Al6 O3 1.912927 1_555
Al6 O4 1.955065 1_565
Al6 O7 1.955065 1_655
Al6 O12 2.017561 1_665
Al7 O14 1.836132 1_565
Al7 O13 1.836132 1_655
Al7 O6 1.840227 1_555
Al7 O20 1.890603 1_555
Al8 O15 1.884019 1_555
Al8 O16 1.887186 1_555
Al8 O10 1.910975 1_555
Al8 O7 1.950900 1_555
Al8 O6 1.953596 1_455
Al8 O12 2.022409 1_565
Al9 O29 1.883625 1_555
Al9 O25 1.887975 1_565
Al9 O18 1.907662 1_455
Al9 O17 1.940250 1_555
Al9 O13 1.953028 1_555
Al9 O20 2.028047 1_555
Al10 O21 1.887290 1_555
Al10 O15 1.887290 1_555
Al10 O10 1.912155 1_555
Al10 O14 1.952295 1_555
Al10 O13 1.952295 1_555
Al10 O20 2.010367 1_555
Al11 O19 1.826936 1_555
Al11 O22 1.826936 1_555
Al11 O17 1.840983 1_555
Al11 O28 1.862053 1_555
Al12 O24 1.883625 1_555
Al12 O25 1.887975 1_655
Al12 O18 1.907662 1_545
Al12 O17 1.940250 1_555
Al12 O14 1.953028 1_555
Al12 O20 2.028047 1_555
Al13 O23 1.866218 1_655
Al13 O33 1.895591 1_555
Al13 O36 1.898933 1_655
Al13 O26 1.912463 1_555
Al13 O19 1.968307 1_555
Al13 O28 2.063958 1_655
Al14 O29 1.896298 1_545
Al14 O24 1.896298 1_455
Al14 O18 1.923697 1_445
Al14 O19 1.943959 1_455
Al14 O22 1.943959 1_545
Al14 O28 1.996870 1_555
Al15 O27 1.897631 1_555
Al15 O30 1.897631 1_555
Al15 O37 1.914739 1_555
Al15 O39 1.915084 1_555
Al15 O38 1.915084 1_555
Al15 O32 2.018195 1_555
Al16 O23 1.866218 1_565
Al16 O33 1.895591 1_555
Al16 O31 1.898933 1_565
Al16 O26 1.912463 1_555
Al16 O22 1.968307 1_555
Al16 O28 2.063958 1_565
Al17 O36 1.913273 1_655
Al17 O31 1.913273 1_565
Al17 O27 1.931493 1_555
Al17 O30 1.931493 1_555
Al17 O35 1.934970 1_555
Al17 O26 1.939852 1_555
Al18 O35 1.894651 1_545
Al18 O27 1.901655 1_545
Al18 O37 1.907145 1_555
Al18 O34 1.918735 1_555
Al18 O39 1.920749 1_555
Al18 O32 2.033899 1_545
Al19 O35 1.894651 1_455
Al19 O30 1.901655 1_455
Al19 O37 1.907145 1_555
Al19 O34 1.918735 1_555
Al19 O38 1.920749 1_555
Al19 O32 2.033899 1_455
Cu0 O9 1.956861 1_446
Cu0 O38 1.963866 1_545
Cu0 O39 1.963866 1_455
Cu0 O34 1.973668 1_555
Cu1 O16 1.944261 1_555
Cu1 O8 1.946054 1_555
Cu1 O11 1.946054 1_555
Cu1 O3 1.969051 1_555
Cu2 O9 1.989105 1_445
Cu2 O11 1.994207 1_545
Cu2 O8 1.994207 1_455
Cu2 O2 2.102917 1_555
Cu2 O0 2.113723 1_455
Cu2 O1 2.113723 1_545
Cu3 O25 1.939828 1_555
Cu3 O21 1.942675 1_455
Cu3 O15 1.942675 1_545
Cu3 O10 1.968644 1_555
Cu4 O16 1.987493 1_555
Cu4 O21 1.992082 1_555
Cu4 O15 1.992082 1_555
Cu4 O6 2.101087 1_555
Cu4 O4 2.112515 1_565
Cu4 O7 2.112515 1_655
Cu5 O24 1.946948 1_555
Cu5 O29 1.946948 1_555
Cu5 O33 1.949051 1_555
Cu5 O18 1.975547 1_555
Cu6 O25 1.983974 1_555
Cu6 O29 1.987584 1_545
Cu6 O24 1.987584 1_455
Cu6 O17 2.092615 1_555
Cu6 O14 2.111169 1_555
Cu6 O13 2.111169 1_555
Cu7 O31 1.938844 1_555
Cu7 O36 1.938844 1_555
Cu7 O37 1.963981 1_555
Cu7 O26 1.967004 1_555
Cu8 O33 1.957624 1_555
Cu8 O23 1.980650 1_665
Cu8 O31 2.019897 1_565
Cu8 O36 2.019897 1_655
Cu8 O19 2.142441 1_565
Cu8 O22 2.142441 1_655
Cu9 O30 2.002837 1_455
Cu9 O27 2.002837 1_545
Cu9 O35 2.013073 1_445
Cu9 O23 2.029536 1_555
