# generated using pymatgen
data_Sm2Ti2S2O5
_symmetry_space_group_name_H-M   'P 1'
_cell_length_a   3.84291000
_cell_length_b   3.84291000
_cell_length_c   11.92796941
_cell_angle_alpha   99.27006428
_cell_angle_beta   99.27006428
_cell_angle_gamma   90.00000000
_symmetry_Int_Tables_number   1
_chemical_formula_structural   Sm2Ti2S2O5
_chemical_formula_sum   'Sm2 Ti2 S2 O5'
_cell_volume   171.51981099
_cell_formula_units_Z   1
loop_
 _symmetry_equiv_pos_site_id
 _symmetry_equiv_pos_as_xyz
  1  'x, y, z'
loop_
 _atom_site_type_symbol
 _atom_site_label
 _atom_site_symmetry_multiplicity
 _atom_site_fract_x
 _atom_site_fract_y
 _atom_site_fract_z
 _atom_site_occupancy
  Sm  Sm0  1  0.83393700  0.83393700  0.66787400  1
  Sm  Sm1  1  0.16606300  0.16606300  0.33212600  1
  Ti  Ti0  1  0.42197200  0.42197200  0.84394400  1
  Ti  Ti1  1  0.57802800  0.57802800  0.15605600  1
  S  S0  1  0.29584000  0.29584000  0.59168000  1
  S  S1  1  0.70416000  0.70416000  0.40832000  1
  O  O0  1  0.40232000  0.90232000  0.80464000  1
  O  O1  1  0.90232000  0.40232000  0.80464000  1
  O  O2  1  0.59768000  0.09768000  0.19536000  1
  O  O3  1  0.09768000  0.59768000  0.19536000  1
  O  O4  1  0.50000000  0.50000000  0.00000000  1
loop_
_geom_bond_atom_site_label_1
_geom_bond_atom_site_label_2
_geom_bond_distance
_geom_bond_site_symmetry_2
S0 Sm0 2.857814 1_445
S0 Sm0 2.857814 1_545
S0 Sm0 2.857814 1_455
S0 Sm0 2.857814 1_555
S0 Ti0 2.929875 1_555
S0 Sm1 3.014544 1_555
S1 Sm1 2.857814 1_555
S1 Sm1 2.857814 1_565
S1 Sm1 2.857814 1_655
S1 Sm1 2.857814 1_665
S1 Ti1 2.929875 1_555
S1 Sm0 3.014544 1_555
O0 Ti0 1.974936 1_565
O0 Ti0 1.974936 1_555
O0 Sm0 2.493019 1_455
O0 Sm0 2.493019 1_555
O1 Ti0 1.974936 1_555
O1 Ti0 1.974936 1_655
O1 Sm0 2.493019 1_545
O1 Sm0 2.493019 1_555
O2 Ti1 1.974936 1_545
O2 Ti1 1.974936 1_555
O2 Sm1 2.493019 1_655
O2 Sm1 2.493019 1_555
O3 Ti1 1.974936 1_455
O3 Ti1 1.974936 1_555
O3 Sm1 2.493019 1_565
O3 Sm1 2.493019 1_555
O4 Ti0 1.812485 1_554
O4 Ti1 1.812485 1_555
