# generated using pymatgen
data_Pr2P3Au
_symmetry_space_group_name_H-M   'P 1'
_cell_length_a   4.21278392
_cell_length_b   7.79019284
_cell_length_c   16.36985745
_cell_angle_alpha   90.00000000
_cell_angle_beta   90.00000000
_cell_angle_gamma   90.00000000
_symmetry_Int_Tables_number   1
_chemical_formula_structural   Pr2P3Au
_chemical_formula_sum   'Pr8 P12 Au4'
_cell_volume   537.23251550
_cell_formula_units_Z   4
loop_
 _symmetry_equiv_pos_site_id
 _symmetry_equiv_pos_as_xyz
  1  'x, y, z'
loop_
 _atom_site_type_symbol
 _atom_site_label
 _atom_site_symmetry_multiplicity
 _atom_site_fract_x
 _atom_site_fract_y
 _atom_site_fract_z
 _atom_site_occupancy
  Pr  Pr0  1  0.75000000  0.90785446  0.79373346  1
  Pr  Pr1  1  0.25000000  0.73534423  0.02143191  1
  Pr  Pr2  1  0.25000000  0.59214554  0.29373346  1
  Pr  Pr3  1  0.25000000  0.09214554  0.20626654  1
  Pr  Pr4  1  0.75000000  0.76465577  0.52143191  1
  Pr  Pr5  1  0.25000000  0.23534423  0.47856809  1
  Pr  Pr6  1  0.75000000  0.40785446  0.70626654  1
  Pr  Pr7  1  0.75000000  0.26465577  0.97856809  1
  P  P0  1  0.75000000  0.61563863  0.90848662  1
  P  P1  1  0.75000000  0.79613174  0.20182961  1
  P  P2  1  0.75000000  0.29613174  0.29817039  1
  P  P3  1  0.25000000  0.20386826  0.79817039  1
  P  P4  1  0.75000000  0.96408894  0.09520222  1
  P  P5  1  0.25000000  0.38436137  0.09151338  1
  P  P6  1  0.75000000  0.11563863  0.59151338  1
  P  P7  1  0.25000000  0.53591106  0.59520222  1
  P  P8  1  0.75000000  0.46408894  0.40479778  1
  P  P9  1  0.25000000  0.88436137  0.40848662  1
  P  P10  1  0.25000000  0.03591106  0.90479778  1
  P  P11  1  0.25000000  0.70386826  0.70182961  1
  Au  Au0  1  0.25000000  0.49769226  0.85656609  1
  Au  Au1  1  0.75000000  0.50230774  0.14343391  1
  Au  Au2  1  0.75000000  0.00230774  0.35656609  1
  Au  Au3  1  0.25000000  -0.00230774  0.64343391  1
loop_
_geom_bond_atom_site_label_1
_geom_bond_atom_site_label_2
_geom_bond_distance
_geom_bond_site_symmetry_2
P0 Pr0 2.951409 1_555
P0 Pr1 2.953798 1_556
P0 Pr1 2.953798 1_656
P0 Pr7 2.965148 1_555
P1 P4 2.181432 1_555
P1 Pr2 3.037347 1_655
P1 Pr2 3.037347 1_555
P1 Pr3 3.124071 1_565
P1 Pr3 3.124071 1_665
P2 P8 2.181432 1_555
P2 Pr3 3.037347 1_555
P2 Pr3 3.037347 1_655
P2 Pr2 3.124071 1_655
P2 Pr2 3.124071 1_555
P3 Pr6 3.037347 1_455
P3 Pr6 3.037347 1_555
P3 Pr0 3.124071 1_445
P3 Pr0 3.124071 1_545
P4 Pr3 2.955939 1_565
P4 Pr3 2.955939 1_665
P4 Pr1 3.011745 1_655
P4 Pr1 3.011745 1_555
P4 Pr7 3.021236 1_564
P5 Pr3 2.951409 1_555
P5 Pr7 2.953798 1_454
P5 Pr7 2.953798 1_554
P5 Pr1 2.965148 1_555
P6 Pr6 2.951409 1_555
P6 Pr5 2.953798 1_655
P6 Pr5 2.953798 1_555
P6 Pr4 2.965148 1_545
P7 Pr6 2.955939 1_455
P7 Pr6 2.955939 1_555
P7 Pr4 3.011745 1_455
P7 Pr4 3.011745 1_555
P7 Pr5 3.021236 1_555
P8 Pr2 2.955939 1_655
P8 Pr2 2.955939 1_555
P8 Pr5 3.011745 1_555
P8 Pr5 3.011745 1_655
P8 Pr4 3.021236 1_555
P9 Pr2 2.951409 1_555
P9 Pr4 2.953798 1_455
P9 Pr4 2.953798 1_555
P9 Pr5 2.965148 1_565
P10 P3 2.181432 1_555
P10 Pr0 2.955939 1_445
P10 Pr0 2.955939 1_545
P10 Pr7 3.011745 1_555
P10 Pr7 3.011745 1_455
P10 Pr1 3.021236 1_546
P11 P7 2.181432 1_555
P11 Pr0 3.037347 1_455
P11 Pr0 3.037347 1_555
P11 Pr6 3.124071 1_555
P11 Pr6 3.124071 1_455
Au0 P0 2.450206 1_555
Au0 P0 2.450206 1_455
Au0 P3 2.480539 1_555
Au0 P11 2.999313 1_555
Au0 Pr1 3.272797 1_556
Au0 Pr6 3.313633 1_455
Au0 Pr6 3.313633 1_555
Au0 Pr7 3.423622 1_555
Au0 Pr7 3.423622 1_455
Au1 P5 2.450206 1_555
Au1 P5 2.450206 1_655
Au1 P1 2.480539 1_555
Au1 P2 2.999313 1_555
Au1 Pr7 3.272797 1_554
Au1 Pr2 3.313633 1_555
Au1 Pr2 3.313633 1_655
Au1 Pr1 3.423622 1_655
Au1 Pr1 3.423622 1_555
Au2 P9 2.450206 1_545
Au2 P9 2.450206 1_645
Au2 P2 2.480539 1_555
Au2 P1 2.999313 1_545
Au2 Pr4 3.272797 1_545
Au2 Pr3 3.313633 1_655
Au2 Pr3 3.313633 1_555
Au2 Pr5 3.423622 1_555
Au2 Pr5 3.423622 1_655
Au3 P6 2.450206 1_455
Au3 P6 2.450206 1_555
Au3 P11 2.480539 1_545
Au3 P3 2.999313 1_555
Au3 Pr5 3.272797 1_555
Au3 Pr0 3.313633 1_445
Au3 Pr0 3.313633 1_545
Au3 Pr4 3.423622 1_445
Au3 Pr4 3.423622 1_545
