# generated using pymatgen
data_CaMnF5
_symmetry_space_group_name_H-M   'P 1'
_cell_length_a   5.52600687
_cell_length_b   5.52600687
_cell_length_c   7.78846471
_cell_angle_alpha   69.23597404
_cell_angle_beta   69.23597404
_cell_angle_gamma   71.13608879
_symmetry_Int_Tables_number   1
_chemical_formula_structural   CaMnF5
_chemical_formula_sum   'Ca2 Mn2 F10'
_cell_volume   202.56000912
_cell_formula_units_Z   2
loop_
 _symmetry_equiv_pos_site_id
 _symmetry_equiv_pos_as_xyz
  1  'x, y, z'
loop_
 _atom_site_type_symbol
 _atom_site_label
 _atom_site_symmetry_multiplicity
 _atom_site_fract_x
 _atom_site_fract_y
 _atom_site_fract_z
 _atom_site_occupancy
  Ca  Ca0  1  0.54542417  0.45457583  0.75000000  1
  Ca  Ca1  1  0.45457583  0.54542417  0.25000000  1
  Mn  Mn0  1  -0.00000000  0.00000000  0.00000000  1
  Mn  Mn1  1  -0.00000000  0.00000000  0.50000000  1
  F  F0  1  0.09306114  0.90693886  0.25000000  1
  F  F1  1  0.90693886  0.09306114  0.75000000  1
  F  F2  1  0.20805664  0.24061174  0.38394420  1
  F  F3  1  0.75938826  0.79194336  0.11605580  1
  F  F4  1  0.71231549  0.30868889  0.03147606  1
  F  F5  1  0.69131111  0.28768451  0.46852394  1
  F  F6  1  0.28768451  0.69131111  0.96852394  1
  F  F7  1  0.30868889  0.71231549  0.53147606  1
  F  F8  1  0.24061174  0.20805664  0.88394420  1
  F  F9  1  0.79194336  0.75938826  0.61605580  1
loop_
_geom_bond_atom_site_label_1
_geom_bond_atom_site_label_2
_geom_bond_distance
_geom_bond_site_symmetry_2
Ca0 F9 2.238634 1_555
Ca0 F8 2.238634 1_555
Ca0 F7 2.300372 1_555
Ca0 F6 2.300372 1_555
Ca0 F1 2.324040 1_555
Ca0 F4 2.450740 1_556
Ca0 F5 2.450740 1_555
Ca1 F2 2.238634 1_555
Ca1 F3 2.238634 1_555
Ca1 F4 2.300372 1_555
Ca1 F5 2.300372 1_555
Ca1 F0 2.324040 1_555
Ca1 F7 2.450740 1_555
Ca1 F6 2.450740 1_554
F0 Mn1 2.036951 1_565
F0 Mn0 2.036951 1_565
F1 Mn1 2.036951 1_655
F1 Mn0 2.036951 1_656
F2 Mn1 1.818323 1_555
F3 Mn0 1.818323 1_665
F4 Mn0 1.940052 1_655
F5 Mn1 1.940052 1_655
F6 Mn0 1.940052 1_566
F7 Mn1 1.940052 1_565
F8 Mn0 1.818323 1_556
F9 Mn1 1.818323 1_665
