# generated using pymatgen
data_Rb2GeO3
_symmetry_space_group_name_H-M   'P 1'
_cell_length_a   13.54493880
_cell_length_b   6.67045360
_cell_length_c   16.72936574
_cell_angle_alpha   72.54172536
_cell_angle_beta   90.00000000
_cell_angle_gamma   90.00000000
_symmetry_Int_Tables_number   1
_chemical_formula_structural   Rb2GeO3
_chemical_formula_sum   'Rb24 Ge12 O36'
_cell_volume   1441.88620247
_cell_formula_units_Z   12
loop_
 _symmetry_equiv_pos_site_id
 _symmetry_equiv_pos_as_xyz
  1  'x, y, z'
loop_
 _atom_site_type_symbol
 _atom_site_label
 _atom_site_symmetry_multiplicity
 _atom_site_fract_x
 _atom_site_fract_y
 _atom_site_fract_z
 _atom_site_occupancy
  Rb  Rb0  1  0.41362938  0.72817317  0.02795871  1
  Rb  Rb1  1  0.14466149  0.57637431  0.99574761  1
  Rb  Rb2  1  0.49503635  0.65461359  0.27917005  1
  Rb  Rb3  1  0.35533851  0.57637431  0.49574761  1
  Rb  Rb4  1  0.69795185  0.11185867  0.19924142  1
  Rb  Rb5  1  0.30204815  0.88814133  0.80075858  1
  Rb  Rb6  1  0.58637062  0.27182683  0.97204129  1
  Rb  Rb7  1  0.61561274  0.97988396  0.41842003  1
  Rb  Rb8  1  0.08637062  0.72817317  0.52795871  1
  Rb  Rb9  1  0.00496365  0.65461359  0.77917005  1
  Rb  Rb10  1  0.99503635  0.34538641  0.22082995  1
  Rb  Rb11  1  0.91362938  0.27182683  0.47204129  1
  Rb  Rb12  1  0.80204815  0.11185867  0.69924142  1
  Rb  Rb13  1  0.11561274  0.02011604  0.08157997  1
  Rb  Rb14  1  0.88278402  0.89008240  0.35981753  1
  Rb  Rb15  1  0.64466149  0.42362569  0.50425239  1
  Rb  Rb16  1  0.88438726  0.97988396  0.91842003  1
  Rb  Rb17  1  0.61721598  0.89008240  0.85981753  1
  Rb  Rb18  1  0.19795185  0.88814133  0.30075858  1
  Rb  Rb19  1  0.50496365  0.34538641  0.72082995  1
  Rb  Rb20  1  0.38438726  0.02011604  0.58157997  1
  Rb  Rb21  1  0.38278402  0.10991760  0.14018247  1
  Rb  Rb22  1  0.85533851  0.42362569  0.00425239  1
  Rb  Rb23  1  0.11721598  0.10991760  0.64018247  1
  Ge  Ge0  1  0.65175652  0.72986710  0.10037816  1
  Ge  Ge1  1  0.25378728  0.46877662  0.71328830  1
  Ge  Ge2  1  0.15175652  0.27013290  0.39962184  1
  Ge  Ge3  1  0.34824348  0.27013290  0.89962184  1
  Ge  Ge4  1  0.75378728  0.53122338  0.78671170  1
  Ge  Ge5  1  0.24621272  0.46877662  0.21328830  1
  Ge  Ge6  1  0.88243286  0.83044696  0.13504385  1
  Ge  Ge7  1  0.84824348  0.72986710  0.60037816  1
  Ge  Ge8  1  0.74621272  0.53122338  0.28671170  1
  Ge  Ge9  1  0.11756714  0.16955304  0.86495615  1
  Ge  Ge10  1  0.38243286  0.16955304  0.36495615  1
  Ge  Ge11  1  0.61756714  0.83044696  0.63504385  1
  O  O0  1  0.54042190  0.71171620  0.58000963  1
  O  O1  1  0.63977457  0.65229079  0.73903531  1
  O  O2  1  0.56080410  0.90100226  0.11354898  1
  O  O3  1  0.80599207  0.69788610  0.83697454  1
  O  O4  1  0.82915940  0.52441788  0.69825444  1
  O  O5  1  0.93919590  0.90100226  0.61354898  1
  O  O6  1  0.95957810  0.71171620  0.08000963  1
  O  O7  1  0.23018211  0.72696352  0.65662203  1
  O  O8  1  0.26439924  0.11581558  0.41896353  1
  O  O9  1  0.36688847  0.39243836  0.97550015  1
  O  O10  1  0.58234422  0.06800022  0.64768466  1
  O  O11  1  0.08234422  0.93199978  0.85231534  1
  O  O12  1  0.63311153  0.60756164  0.02449985  1
  O  O13  1  0.13311153  0.39243836  0.47550015  1
  O  O14  1  0.76981789  0.27303648  0.34337797  1
  O  O15  1  0.26981789  0.72696352  0.15662203  1
  O  O16  1  0.73018211  0.27303648  0.84337797  1
  O  O17  1  0.30599207  0.30211390  0.66302546  1
  O  O18  1  0.73560076  0.88418442  0.58103647  1
  O  O19  1  0.45957810  0.28828380  0.41999037  1
  O  O20  1  0.41765578  0.93199978  0.35231534  1
  O  O21  1  0.17084060  0.47558212  0.30174556  1
  O  O22  1  0.86688847  0.60756164  0.52449985  1
  O  O23  1  0.13977457  0.34770921  0.76096469  1
  O  O24  1  0.32915940  0.47558212  0.80174556  1
  O  O25  1  0.19400793  0.30211390  0.16302546  1
  O  O26  1  0.06080410  0.09899774  0.38645102  1
  O  O27  1  0.86022543  0.65229079  0.23903531  1
  O  O28  1  0.69400793  0.69788610  0.33697454  1
  O  O29  1  0.76439924  0.88418442  0.08103647  1
  O  O30  1  0.67084060  0.52441788  0.19825444  1
  O  O31  1  0.23560076  0.11581558  0.91896353  1
  O  O32  1  0.91765578  0.06800022  0.14768466  1
  O  O33  1  0.04042190  0.28828380  0.91999037  1
  O  O34  1  0.36022543  0.34770921  0.26096469  1
  O  O35  1  0.43919590  0.09899774  0.88645102  1
loop_
_geom_bond_atom_site_label_1
_geom_bond_atom_site_label_2
_geom_bond_distance
_geom_bond_site_symmetry_2
Ge0 O12 1.721081 1_555
Ge0 O2 1.737900 1_555
Ge0 O30 1.810966 1_555
Ge0 O29 1.814475 1_555
Ge1 O7 1.728393 1_555
Ge1 O17 1.733169 1_555
Ge1 O24 1.809568 1_555
Ge1 O23 1.812925 1_555
Ge2 O13 1.721081 1_555
Ge2 O26 1.737900 1_555
Ge2 O21 1.810966 1_555
Ge2 O8 1.814475 1_555
Ge3 O9 1.721081 1_555
Ge3 O35 1.737900 1_555
Ge3 O24 1.810966 1_555
Ge3 O31 1.814475 1_555
Ge4 O16 1.728393 1_555
Ge4 O3 1.733169 1_555
Ge4 O4 1.809568 1_555
Ge4 O1 1.812925 1_555
Ge5 O15 1.728393 1_555
Ge5 O25 1.733169 1_555
Ge5 O21 1.809568 1_555
Ge5 O34 1.812925 1_555
Ge6 O32 1.727519 1_565
Ge6 O6 1.733293 1_555
Ge6 O27 1.813509 1_555
Ge6 O29 1.818383 1_555
Ge7 O22 1.721081 1_555
Ge7 O5 1.737900 1_555
Ge7 O4 1.810966 1_555
Ge7 O18 1.814475 1_555
Ge8 O14 1.728393 1_555
Ge8 O28 1.733169 1_555
Ge8 O30 1.809568 1_555
Ge8 O27 1.812925 1_555
Ge9 O11 1.727519 1_545
Ge9 O33 1.733293 1_555
Ge9 O23 1.813509 1_555
Ge9 O31 1.818383 1_555
Ge10 O20 1.727519 1_545
Ge10 O19 1.733293 1_555
Ge10 O34 1.813509 1_555
Ge10 O8 1.818383 1_555
Ge11 O10 1.727519 1_565
Ge11 O0 1.733293 1_555
Ge11 O1 1.813509 1_555
Ge11 O18 1.818383 1_555
O0 Rb19 2.880555 1_555
O0 Rb7 2.939957 1_555
O0 Rb20 2.954970 1_565
O0 Rb15 2.958717 1_555
O0 Rb3 3.138552 1_555
O1 Rb19 2.827041 1_555
O1 Rb17 2.935181 1_555
O2 Rb21 2.885711 1_565
O2 Rb6 2.886025 1_564
O2 Rb0 2.888550 1_555
O2 Rb2 2.905055 1_555
O2 Rb4 2.948586 1_565
O3 Rb16 2.839058 1_555
O3 Rb9 2.906766 1_655
O3 Rb22 2.924562 1_556
O3 Rb17 2.936268 1_555
O3 Rb12 3.019866 1_565
O4 Rb12 2.771485 1_555
O4 Rb9 2.993731 1_655
O5 Rb23 2.885711 1_665
O5 Rb11 2.886025 1_565
O5 Rb8 2.888550 1_655
O5 Rb9 2.905055 1_655
O5 Rb12 2.948586 1_565
O6 Rb10 2.880555 1_555
O6 Rb16 2.939957 1_554
O6 Rb13 2.954970 1_665
O6 Rb22 2.958717 1_555
O6 Rb1 3.138552 1_654
O7 Rb20 2.879156 1_565
O7 Rb8 2.901223 1_555
O7 Rb23 2.919027 1_565
O7 Rb5 3.077893 1_555
O8 Rb18 2.971353 1_545
O8 Rb20 3.067216 1_555
O9 Rb0 2.713973 1_556
O9 Rb21 2.841258 1_556
O9 Rb6 3.084887 1_555
O9 Rb1 3.306037 1_555
O10 Rb19 2.716256 1_555
O10 Rb15 2.946536 1_555
O10 Rb20 2.954050 1_555
O10 Rb12 3.136361 1_555
O11 Rb9 2.716256 1_555
O11 Rb1 2.946536 1_555
O11 Rb16 2.954050 1_455
O11 Rb5 3.136361 1_555
O12 Rb6 2.713973 1_554
O12 Rb17 2.841258 1_554
O12 Rb0 3.084887 1_555
O12 Rb22 3.306037 1_555
O13 Rb8 2.713973 1_555
O13 Rb23 2.841258 1_555
O13 Rb11 3.084887 1_455
O13 Rb3 3.306037 1_555
O14 Rb7 2.879156 1_545
O14 Rb11 2.901223 1_555
O14 Rb14 2.919027 1_545
O14 Rb4 3.077893 1_555
O15 Rb13 2.879156 1_565
O15 Rb0 2.901223 1_555
O15 Rb21 2.919027 1_565
O15 Rb18 3.077893 1_555
O16 Rb16 2.879156 1_545
O16 Rb6 2.901223 1_555
O16 Rb17 2.919027 1_545
O16 Rb12 3.077893 1_555
O17 Rb20 2.839058 1_555
O17 Rb19 2.906766 1_555
O17 Rb3 2.924562 1_555
O17 Rb23 2.936268 1_555
O17 Rb5 3.019866 1_545
O18 Rb12 2.971353 1_565
O18 Rb7 3.067216 1_555
O19 Rb2 2.880555 1_555
O19 Rb20 2.939957 1_555
O19 Rb7 2.954970 1_545
O19 Rb3 2.958717 1_555
O19 Rb15 3.138552 1_555
O20 Rb2 2.716256 1_555
O20 Rb3 2.946536 1_555
O20 Rb7 2.954050 1_555
O20 Rb18 3.136361 1_555
O21 Rb18 2.771485 1_555
O21 Rb10 2.993731 1_455
O22 Rb11 2.713973 1_555
O22 Rb14 2.841258 1_555
O22 Rb8 3.084887 1_655
O22 Rb15 3.306037 1_555
O23 Rb9 2.827041 1_555
O23 Rb23 2.935181 1_555
O24 Rb5 2.771485 1_555
O24 Rb19 2.993731 1_555
O25 Rb13 2.839058 1_555
O25 Rb10 2.906766 1_455
O25 Rb1 2.924562 1_554
O25 Rb21 2.936268 1_555
O25 Rb18 3.019866 1_545
O26 Rb14 2.885711 1_445
O26 Rb8 2.886025 1_545
O26 Rb11 2.888550 1_455
O26 Rb10 2.905055 1_455
O26 Rb18 2.948586 1_545
O27 Rb10 2.827041 1_555
O27 Rb14 2.935181 1_555
O28 Rb7 2.839058 1_555
O28 Rb2 2.906766 1_555
O28 Rb15 2.924562 1_555
O28 Rb14 2.936268 1_555
O28 Rb4 3.019866 1_565
O29 Rb4 2.971353 1_565
O29 Rb16 3.067216 1_554
O30 Rb4 2.771485 1_555
O30 Rb2 2.993731 1_555
O31 Rb5 2.971353 1_545
O31 Rb13 3.067216 1_556
O32 Rb10 2.716256 1_555
O32 Rb22 2.946536 1_555
O32 Rb13 2.954050 1_655
O32 Rb4 3.136361 1_555
O33 Rb9 2.880555 1_555
O33 Rb13 2.939957 1_556
O33 Rb16 2.954970 1_445
O33 Rb1 2.958717 1_555
O33 Rb22 3.138552 1_456
O34 Rb2 2.827041 1_555
O34 Rb21 2.935181 1_555
O35 Rb17 2.885711 1_545
O35 Rb0 2.886025 1_546
O35 Rb6 2.888550 1_555
O35 Rb19 2.905055 1_555
O35 Rb5 2.948586 1_545
