# generated using pymatgen
data_Na2Si2O5
_symmetry_space_group_name_H-M   'P 1'
_cell_length_a   24.26301000
_cell_length_b   4.90594200
_cell_length_c   8.22170808
_cell_angle_alpha   89.83993247
_cell_angle_beta   90.00000000
_cell_angle_gamma   90.00000000
_symmetry_Int_Tables_number   1
_chemical_formula_structural   Na2Si2O5
_chemical_formula_sum   'Na16 Si16 O40'
_cell_volume   978.65009997
_cell_formula_units_Z   8
loop_
 _symmetry_equiv_pos_site_id
 _symmetry_equiv_pos_as_xyz
  1  'x, y, z'
loop_
 _atom_site_type_symbol
 _atom_site_label
 _atom_site_symmetry_multiplicity
 _atom_site_fract_x
 _atom_site_fract_y
 _atom_site_fract_z
 _atom_site_occupancy
  Na  Na0  1  0.51440800  0.72629300  0.35556900  1
  Na  Na1  1  0.21853500  0.24548100  0.77747300  1
  Na  Na2  1  0.71853500  0.75451900  0.72252700  1
  Na  Na3  1  0.78146500  0.75451900  0.22252700  1
  Na  Na4  1  0.76223400  0.22992800  0.97379300  1
  Na  Na5  1  0.52756500  0.25349300  0.10152200  1
  Na  Na6  1  0.01440800  0.27370700  0.14443100  1
  Na  Na7  1  0.02756500  0.74650700  0.39847800  1
  Na  Na8  1  0.47243500  0.74650700  0.89847800  1
  Na  Na9  1  0.97243500  0.25349300  0.60152200  1
  Na  Na10  1  0.48559200  0.27370700  0.64443100  1
  Na  Na11  1  0.73776600  0.22992800  0.47379300  1
  Na  Na12  1  0.98559200  0.72629300  0.85556900  1
  Na  Na13  1  0.23776600  0.77007200  0.02620700  1
  Na  Na14  1  0.28146500  0.24548100  0.27747300  1
  Na  Na15  1  0.26223400  0.77007200  0.52620700  1
  Si  Si0  1  0.38971900  0.20680800  0.98159200  1
  Si  Si1  1  0.36309500  0.70557700  0.19642300  1
  Si  Si2  1  0.63690500  0.29442300  0.80357700  1
  Si  Si3  1  0.13690500  0.70557700  0.69642300  1
  Si  Si4  1  0.84087300  0.68614800  0.85691400  1
  Si  Si5  1  0.34087300  0.31385200  0.64308600  1
  Si  Si6  1  0.40812000  0.81480700  0.53752700  1
  Si  Si7  1  0.15912700  0.31385200  0.14308600  1
  Si  Si8  1  0.11028100  0.20680800  0.48159200  1
  Si  Si9  1  0.61028100  0.79319200  0.01840800  1
  Si  Si10  1  0.86309500  0.29442300  0.30357700  1
  Si  Si11  1  0.90812000  0.18519300  0.96247300  1
  Si  Si12  1  0.88971900  0.79319200  0.51840800  1
  Si  Si13  1  0.09188000  0.81480700  0.03752700  1
  Si  Si14  1  0.59188000  0.18519300  0.46247300  1
  Si  Si15  1  0.65912700  0.68614800  0.35691400  1
  O  O0  1  0.91051900  0.24461000  0.16118100  1
  O  O1  1  0.60788000  0.85849300  0.44031100  1
  O  O2  1  0.54840400  0.73293600  0.07636200  1
  O  O3  1  0.86884200  0.61936700  0.35732200  1
  O  O4  1  0.19894100  0.76670300  0.75189800  1
  O  O5  1  0.80105900  0.23329700  0.24810200  1
  O  O6  1  0.35581800  0.64178800  0.61587000  1
  O  O7  1  0.30105900  0.76670300  0.25189800  1
  O  O8  1  0.41051900  0.75539000  0.33881900  1
  O  O9  1  0.36884200  0.38063300  0.14267800  1
  O  O10  1  0.84158500  0.74359400  0.65873600  1
  O  O11  1  0.03317800  0.75335300  0.11648900  1
  O  O12  1  0.15841500  0.25640600  0.34126400  1
  O  O13  1  0.63115800  0.61936700  0.85732200  1
  O  O14  1  0.39212000  0.14150700  0.55968900  1
  O  O15  1  0.21821200  0.25282000  0.06567900  1
  O  O16  1  0.88463700  0.11951400  0.46432100  1
  O  O17  1  0.85581800  0.35821200  0.88413000  1
  O  O18  1  0.61536300  0.11951400  0.96432100  1
  O  O19  1  0.53317800  0.24664700  0.38351100  1
  O  O20  1  0.45159600  0.26706400  0.92363800  1
  O  O21  1  0.08948100  0.75539000  0.83881900  1
  O  O22  1  0.13115800  0.38063300  0.64267800  1
  O  O23  1  0.11536300  0.88048600  0.53567900  1
  O  O24  1  0.96682200  0.24664700  0.88351100  1
  O  O25  1  0.69894100  0.23329700  0.74810200  1
  O  O26  1  0.71821200  0.74718000  0.43432100  1
  O  O27  1  0.65841500  0.74359400  0.15873600  1
  O  O28  1  0.89212000  0.85849300  0.94031100  1
  O  O29  1  0.78178800  0.74718000  0.93432100  1
  O  O30  1  0.28178800  0.25282000  0.56567900  1
  O  O31  1  0.10788000  0.14150700  0.05968900  1
  O  O32  1  0.46682200  0.75335300  0.61648900  1
  O  O33  1  0.38463700  0.88048600  0.03567900  1
  O  O34  1  0.14418200  0.64178800  0.11587000  1
  O  O35  1  0.34158500  0.25640600  0.84126400  1
  O  O36  1  0.58948100  0.24461000  0.66118100  1
  O  O37  1  0.04840400  0.26706400  0.42363800  1
  O  O38  1  0.95159600  0.73293600  0.57636200  1
  O  O39  1  0.64418200  0.35821200  0.38413000  1
loop_
_geom_bond_atom_site_label_1
_geom_bond_atom_site_label_2
_geom_bond_distance
_geom_bond_site_symmetry_2
Na0 O19 2.407138 1_555
Na0 O2 2.439386 1_555
Na0 O32 2.440120 1_555
Na0 O1 2.460084 1_555
Na0 O8 2.528430 1_555
Na0 O19 2.603916 1_565
Na1 O30 2.321299 1_555
Na1 O15 2.369933 1_556
Na1 O4 2.406266 1_545
Na1 O22 2.481584 1_555
Na1 O4 2.608813 1_555
Na2 O29 2.321299 1_555
Na2 O26 2.369933 1_555
Na2 O25 2.406266 1_565
Na2 O13 2.481584 1_555
Na2 O25 2.608813 1_555
Na3 O26 2.321299 1_555
Na3 O29 2.369933 1_554
Na3 O5 2.406266 1_565
Na3 O3 2.481584 1_555
Na3 O5 2.608813 1_555
Na4 O25 2.408637 1_555
Na4 O29 2.437972 1_545
Na4 O5 2.444216 1_556
Na4 O17 2.468338 1_555
Na4 O29 2.601012 1_555
Na5 O19 2.322577 1_555
Na5 O20 2.353794 1_554
Na5 O2 2.414164 1_555
Na5 O18 2.499312 1_554
Na5 O2 2.612164 1_545
Na6 O11 2.407138 1_555
Na6 O37 2.439386 1_555
Na6 O24 2.440120 1_454
Na6 O31 2.460084 1_555
Na6 O0 2.528430 1_455
Na6 O11 2.603916 1_545
Na7 O11 2.322577 1_555
Na7 O38 2.353794 1_455
Na7 O37 2.414164 1_555
Na7 O23 2.499312 1_555
Na7 O37 2.612164 1_565
Na8 O32 2.322577 1_555
Na8 O2 2.353794 1_556
Na8 O20 2.414164 1_555
Na8 O33 2.499312 1_556
Na8 O20 2.612164 1_565
Na9 O24 2.322577 1_555
Na9 O37 2.353794 1_655
Na9 O38 2.414164 1_555
Na9 O16 2.499312 1_555
Na9 O38 2.612164 1_545
Na10 O32 2.407138 1_555
Na10 O20 2.439386 1_555
Na10 O19 2.440120 1_555
Na10 O14 2.460084 1_555
Na10 O36 2.528430 1_555
Na10 O32 2.603916 1_545
Na11 O5 2.408637 1_555
Na11 O26 2.437972 1_545
Na11 O25 2.444216 1_555
Na11 O39 2.468338 1_555
Na11 O26 2.601012 1_555
Na12 O24 2.407138 1_555
Na12 O38 2.439386 1_555
Na12 O11 2.440120 1_656
Na12 O28 2.460084 1_555
Na12 O21 2.528430 1_655
Na12 O24 2.603916 1_565
Na13 O7 2.408637 1_555
Na13 O15 2.437972 1_565
Na13 O4 2.444216 1_554
Na13 O34 2.468338 1_555
Na13 O15 2.601012 1_555
Na14 O15 2.321299 1_555
Na14 O30 2.369933 1_555
Na14 O7 2.406266 1_545
Na14 O9 2.481584 1_555
Na14 O7 2.608813 1_555
Na15 O4 2.408637 1_555
Na15 O30 2.437972 1_565
Na15 O7 2.444216 1_555
Na15 O6 2.468338 1_555
Na15 O30 2.601012 1_555
O0 Si10 1.660103 1_555
O0 Si11 1.661342 1_554
O1 Si15 1.653581 1_555
O1 Si14 1.659643 1_565
O2 Si9 1.602374 1_555
O3 Si12 1.656550 1_555
O3 Si10 1.661315 1_555
O4 Si3 1.601339 1_555
O5 Si10 1.601339 1_555
O6 Si6 1.656109 1_555
O6 Si5 1.663699 1_555
O7 Si1 1.601339 1_555
O8 Si1 1.660103 1_555
O8 Si6 1.661342 1_555
O9 Si0 1.656550 1_554
O9 Si1 1.661315 1_555
O10 Si4 1.652870 1_555
O10 Si12 1.659120 1_555
O11 Si13 1.593694 1_555
O12 Si7 1.652870 1_555
O12 Si8 1.659120 1_555
O13 Si9 1.656550 1_556
O13 Si2 1.661315 1_555
O14 Si5 1.653581 1_555
O14 Si6 1.659643 1_545
O15 Si7 1.597152 1_555
O16 Si10 1.658245 1_555
O16 Si12 1.664905 1_545
O17 Si11 1.656109 1_555
O17 Si4 1.663699 1_555
O18 Si2 1.658245 1_555
O18 Si9 1.664905 1_546
O19 Si14 1.593694 1_555
O20 Si0 1.602374 1_555
O21 Si3 1.660103 1_555
O21 Si13 1.661342 1_556
O22 Si8 1.656550 1_555
O22 Si3 1.661315 1_555
O23 Si3 1.658245 1_555
O23 Si8 1.664905 1_565
O24 Si11 1.593694 1_555
O25 Si2 1.601339 1_555
O26 Si15 1.597152 1_555
O27 Si15 1.652870 1_555
O27 Si9 1.659120 1_555
O28 Si4 1.653581 1_555
O28 Si11 1.659643 1_565
O29 Si4 1.597152 1_555
O30 Si5 1.597152 1_555
O31 Si7 1.653581 1_555
O31 Si13 1.659643 1_545
O32 Si6 1.593694 1_555
O33 Si1 1.658245 1_555
O33 Si0 1.664905 1_564
O34 Si13 1.656109 1_555
O34 Si7 1.663699 1_555
O35 Si5 1.652870 1_555
O35 Si0 1.659120 1_555
O36 Si2 1.660103 1_555
O36 Si14 1.661342 1_555
O37 Si8 1.602374 1_555
O38 Si12 1.602374 1_555
O39 Si14 1.656109 1_555
O39 Si15 1.663699 1_555
