# generated using pymatgen
data_Rb(WO3)3
_symmetry_space_group_name_H-M   'P 1'
_cell_length_a   7.40874547
_cell_length_b   7.40874547
_cell_length_c   7.64549696
_cell_angle_alpha   90.00000000
_cell_angle_beta   90.00000000
_cell_angle_gamma   120.00754321
_symmetry_Int_Tables_number   1
_chemical_formula_structural   Rb(WO3)3
_chemical_formula_sum   'Rb2 W6 O18'
_cell_volume   363.40649502
_cell_formula_units_Z   2
loop_
 _symmetry_equiv_pos_site_id
 _symmetry_equiv_pos_as_xyz
  1  'x, y, z'
loop_
 _atom_site_type_symbol
 _atom_site_label
 _atom_site_symmetry_multiplicity
 _atom_site_fract_x
 _atom_site_fract_y
 _atom_site_fract_z
 _atom_site_occupancy
  Rb  Rb0  1  0.50000000  0.50000000  0.25000000  1
  Rb  Rb1  1  0.50000000  0.50000000  0.75000000  1
  W  W0  1  0.50000000  -0.00000000  0.00000000  1
  W  W1  1  0.00000000  -0.00000000  0.00000000  1
  W  W2  1  0.00000000  0.50000000  0.50000000  1
  W  W3  1  0.50000000  -0.00000000  0.50000000  1
  W  W4  1  0.00000000  -0.00000000  0.50000000  1
  W  W5  1  0.00000000  0.50000000  0.00000000  1
  O  O0  1  0.00000000  0.50000000  0.25002440  1
  O  O1  1  0.00000000  -0.00000000  0.75000000  1
  O  O2  1  0.50000000  -0.00000000  0.75002440  1
  O  O3  1  0.50000000  -0.00000000  0.24997560  1
  O  O4  1  0.00000000  -0.00000000  0.25000000  1
  O  O5  1  0.00000000  0.50000000  0.74997560  1
  O  O6  1  0.28905895  0.07817919  0.50000000  1
  O  O7  1  0.71097507  0.28909605  -0.00000000  1
  O  O8  1  0.92182081  0.71094105  -0.00000000  1
  O  O9  1  0.71094105  0.92182081  0.50000000  1
  O  O10  1  0.71090395  0.28902493  0.50000000  1
  O  O11  1  0.28902493  0.71090395  0.00000000  1
  O  O12  1  0.28916598  0.07823658  0.00000000  1
  O  O13  1  0.07817919  0.28905895  -0.00000000  1
  O  O14  1  0.71083402  0.92176342  0.00000000  1
  O  O15  1  0.28909605  0.71097507  0.50000000  1
  O  O16  1  0.92176342  0.71083402  0.50000000  1
  O  O17  1  0.07823658  0.28916598  0.50000000  1
loop_
_geom_bond_atom_site_label_1
_geom_bond_atom_site_label_2
_geom_bond_distance
_geom_bond_site_symmetry_2
O0 W2 1.911188 1_555
O0 W5 1.911561 1_555
O1 W4 1.911374 1_555
O1 W1 1.911374 1_556
O2 W0 1.911188 1_556
O2 W3 1.911561 1_555
O3 W0 1.911188 1_555
O3 W3 1.911561 1_555
O4 W4 1.911374 1_555
O4 W1 1.911374 1_555
O5 W2 1.911188 1_555
O5 W5 1.911561 1_556
O6 W4 1.918615 1_555
O6 W3 1.919181 1_555
O6 Rb0 3.313189 1_555
O6 Rb1 3.313189 1_555
O7 W5 1.918357 1_655
O7 W0 1.918866 1_555
O7 Rb1 3.313746 1_554
O7 Rb0 3.313746 1_555
O8 W1 1.918615 1_665
O8 W5 1.919181 1_655
O8 Rb0 3.313189 1_555
O8 Rb1 3.313189 1_554
O9 W4 1.918615 1_665
O9 W3 1.919181 1_565
O9 Rb0 3.313189 1_555
O9 Rb1 3.313189 1_555
O10 W3 1.918357 1_555
O10 W2 1.918866 1_655
O10 Rb1 3.313746 1_555
O10 Rb0 3.313746 1_555
O11 W5 1.918357 1_555
O11 W0 1.918866 1_565
O11 Rb1 3.313746 1_554
O11 Rb0 3.313746 1_555
O12 W0 1.918717 1_555
O12 W1 1.919271 1_555
O12 Rb1 3.312888 1_554
O12 Rb0 3.312888 1_555
O13 W1 1.918615 1_555
O13 W5 1.919181 1_555
O13 Rb0 3.313189 1_555
O13 Rb1 3.313189 1_554
O14 W0 1.918717 1_565
O14 W1 1.919271 1_665
O14 Rb1 3.312888 1_554
O14 Rb0 3.312888 1_555
O15 W3 1.918357 1_565
O15 W2 1.918866 1_555
O15 Rb1 3.313746 1_555
O15 Rb0 3.313746 1_555
O16 W2 1.918717 1_655
O16 W4 1.919271 1_665
O16 Rb1 3.312888 1_555
O16 Rb0 3.312888 1_555
O17 W2 1.918717 1_555
O17 W4 1.919271 1_555
O17 Rb1 3.312888 1_555
O17 Rb0 3.312888 1_555
