# generated using pymatgen
data_La2Co3
_symmetry_space_group_name_H-M   'P 1'
_cell_length_a   4.77934820
_cell_length_b   5.77725833
_cell_length_c   8.00803402
_cell_angle_alpha   89.99688989
_cell_angle_beta   89.99952283
_cell_angle_gamma   114.53508679
_symmetry_Int_Tables_number   1
_chemical_formula_structural   La2Co3
_chemical_formula_sum   'La4 Co6'
_cell_volume   201.14904562
_cell_formula_units_Z   2
loop_
 _symmetry_equiv_pos_site_id
 _symmetry_equiv_pos_as_xyz
  1  'x, y, z'
loop_
 _atom_site_type_symbol
 _atom_site_label
 _atom_site_symmetry_multiplicity
 _atom_site_fract_x
 _atom_site_fract_y
 _atom_site_fract_z
 _atom_site_occupancy
  La  La0  1  0.15539791  0.31114823  0.58652367  1
  La  La1  1  0.84464502  0.68885508  0.41346924  1
  La  La2  1  0.65533788  0.31111763  0.91342590  1
  La  La3  1  0.34461698  0.68885007  0.08657945  1
  Co  Co0  1  0.68678023  0.87390636  0.75001737  1
  Co  Co1  1  0.31324165  0.12610789  0.24999094  1
  Co  Co2  1  0.18683421  0.87389655  0.74994590  1
  Co  Co3  1  0.81316922  0.12613394  0.25005498  1
  Co  Co4  1  0.00005457  -0.00001665  0.00003209  1
  Co  Co5  1  0.49992534  0.00000090  0.49995846  1
loop_
_geom_bond_atom_site_label_1
_geom_bond_atom_site_label_2
_geom_bond_distance
_geom_bond_site_symmetry_2
Co0 Co2 2.389393 1_555
Co0 Co2 2.389956 1_655
Co0 Co4 2.423900 1_666
Co0 Co5 2.424522 1_565
Co0 La0 2.900398 1_665
Co0 La2 2.903557 1_565
Co0 La3 3.103062 1_556
Co0 La1 3.105783 1_555
Co0 La0 3.446370 1_555
Co0 La2 3.449662 1_555
Co1 Co3 2.389265 1_555
Co1 Co3 2.390083 1_455
Co1 Co4 2.423337 1_555
Co1 Co5 2.423547 1_555
Co1 La1 2.900336 1_445
Co1 La3 2.903675 1_545
Co1 La2 3.102926 1_554
Co1 La0 3.105609 1_555
Co1 La1 3.446317 1_555
Co1 La3 3.449534 1_555
Co2 Co5 2.423209 1_565
Co2 Co4 2.424558 1_566
Co2 La2 2.900199 1_565
Co2 La0 2.903680 1_565
Co2 La1 3.102629 1_455
Co2 La3 3.106123 1_556
Co2 La2 3.446442 1_455
Co2 La0 3.449632 1_555
Co3 Co5 2.423020 1_555
Co3 Co4 2.424555 1_655
Co3 La3 2.900478 1_545
Co3 La1 2.903869 1_545
Co3 La0 3.102626 1_655
Co3 La2 3.106020 1_554
Co3 La3 3.446117 1_655
Co3 La1 3.449397 1_555
Co4 La2 2.974040 1_554
Co4 La3 2.974521 1_445
Co4 La3 2.980182 1_545
Co4 La2 2.980889 1_454
Co5 La1 2.973879 1_445
Co5 La0 2.974759 1_655
Co5 La0 2.980188 1_555
Co5 La1 2.980777 1_545
