# generated using pymatgen
data_Na5B2P3O13
_symmetry_space_group_name_H-M   'P 1'
_cell_length_a   11.74681100
_cell_length_b   6.79259900
_cell_length_c   7.77690222
_cell_angle_alpha   64.90468960
_cell_angle_beta   90.00000000
_cell_angle_gamma   90.00000000
_symmetry_Int_Tables_number   1
_chemical_formula_structural   Na5B2P3O13
_chemical_formula_sum   'Na10 B4 P6 O26'
_cell_volume   561.95390957
_cell_formula_units_Z   2
loop_
 _symmetry_equiv_pos_site_id
 _symmetry_equiv_pos_as_xyz
  1  'x, y, z'
loop_
 _atom_site_type_symbol
 _atom_site_label
 _atom_site_symmetry_multiplicity
 _atom_site_fract_x
 _atom_site_fract_y
 _atom_site_fract_z
 _atom_site_occupancy
  Na  Na0  1  0.89870200  0.61968800  0.72183200  1
  Na  Na1  1  0.66922400  0.52497000  0.50774400  1
  Na  Na2  1  0.39184500  0.64784800  0.73271100  1
  Na  Na3  1  0.76393500  0.09892200  0.96467500  1
  Na  Na4  1  0.26393500  0.90107800  0.03532500  1
  Na  Na5  1  0.66802900  0.04822500  0.48803100  1
  Na  Na6  1  0.39870200  0.38031200  0.27816800  1
  Na  Na7  1  0.16802900  0.95177500  0.51196900  1
  Na  Na8  1  0.89184500  0.35215200  0.26728900  1
  Na  Na9  1  0.16922400  0.47503000  0.49225600  1
  B  B0  1  0.48710000  0.21122800  0.00155600  1
  B  B1  1  0.53590400  0.86747900  0.99613600  1
  B  B2  1  0.98710000  0.78877200  0.99844400  1
  B  B3  1  0.03590400  0.13252100  0.00386400  1
  P  P0  1  0.43677800  0.84401500  0.32040600  1
  P  P1  1  0.42326500  0.15809100  0.69335000  1
  P  P2  1  0.65082700  0.50020900  0.01103900  1
  P  P3  1  0.15082700  0.49979100  0.98896100  1
  P  P4  1  0.93677800  0.15598500  0.67959400  1
  P  P5  1  0.92326500  0.84190900  0.30665000  1
  O  O0  1  0.63272300  0.74847500  0.96986500  1
  O  O1  1  0.97232800  0.26218600  0.82117700  1
  O  O2  1  0.52259800  0.25827100  0.55985100  1
  O  O3  1  0.40478200  0.26838600  0.83719600  1
  O  O4  1  0.47232800  0.73781400  0.17882300  1
  O  O5  1  0.94825800  0.08997900  0.16135700  1
  O  O6  1  0.82036100  0.24613700  0.59754200  1
  O  O7  1  0.07554800  0.92935600  0.00755400  1
  O  O8  1  0.02259800  0.74172900  0.44014900  1
  O  O9  1  0.13272300  0.25152500  0.03013500  1
  O  O10  1  0.02897200  0.19204500  0.53291700  1
  O  O11  1  0.31066800  0.16499100  0.59444900  1
  O  O12  1  0.81066800  0.83500900  0.40555100  1
  O  O13  1  0.22306500  0.51085000  0.14665100  1
  O  O14  1  0.52897200  0.80795500  0.46708300  1
  O  O15  1  0.57554800  0.07064400  0.99244600  1
  O  O16  1  0.72306500  0.48915000  0.85334900  1
  O  O17  1  0.32036100  0.75386300  0.40245800  1
  O  O18  1  0.02306800  0.57843600  0.00283600  1
  O  O19  1  0.41808200  0.09543600  0.18190500  1
  O  O20  1  0.90478200  0.73161400  0.16280400  1
  O  O21  1  0.19614800  0.62809200  0.78954400  1
  O  O22  1  0.69614800  0.37190800  0.21045600  1
  O  O23  1  0.52306800  0.42156400  0.99716400  1
  O  O24  1  0.44825800  0.91002100  0.83864300  1
  O  O25  1  0.91808200  0.90456400  0.81809500  1
loop_
_geom_bond_atom_site_label_1
_geom_bond_atom_site_label_2
_geom_bond_distance
_geom_bond_site_symmetry_2
Na0 O16 2.306456 1_555
Na0 O25 2.363363 1_555
Na0 O1 2.377064 1_555
Na0 O8 2.462471 1_655
Na0 O12 2.491392 1_555
Na0 O18 2.543432 1_656
Na1 O2 2.406230 1_555
Na1 O14 2.448176 1_555
Na1 O6 2.470817 1_555
Na1 O12 2.531332 1_555
Na1 O16 2.669909 1_555
Na1 O22 2.926637 1_555
Na2 O21 2.334010 1_555
Na2 O24 2.352373 1_555
Na2 O3 2.355938 1_555
Na2 O14 2.477728 1_555
Na2 O17 2.500246 1_555
Na2 O23 2.507364 1_555
Na3 O15 2.223844 1_555
Na3 O16 2.461592 1_555
Na3 O5 2.636779 1_556
Na3 O6 2.677571 1_555
Na3 O1 2.723587 1_555
Na3 O25 2.756394 1_545
Na3 O0 2.821760 1_545
Na3 O20 2.841740 1_546
Na4 O7 2.223844 1_555
Na4 O13 2.461592 1_555
Na4 O24 2.636779 1_554
Na4 O17 2.677571 1_555
Na4 O4 2.723587 1_555
Na4 O19 2.756394 1_565
Na4 O9 2.821760 1_565
Na4 O3 2.841740 1_564
Na5 O22 2.361587 1_555
Na5 O14 2.363034 1_545
Na5 O2 2.437629 1_555
Na5 O12 2.470726 1_545
Na5 O6 2.589544 1_555
Na6 O13 2.306456 1_555
Na6 O19 2.363363 1_555
Na6 O4 2.377064 1_555
Na6 O2 2.462471 1_555
Na6 O11 2.491392 1_555
Na6 O23 2.543432 1_554
Na7 O21 2.361587 1_555
Na7 O10 2.363034 1_565
Na7 O8 2.437629 1_555
Na7 O11 2.470726 1_565
Na7 O17 2.589544 1_555
Na8 O22 2.334010 1_555
Na8 O5 2.352373 1_555
Na8 O20 2.355938 1_555
Na8 O10 2.477728 1_655
Na8 O6 2.500246 1_555
Na8 O18 2.507364 1_655
Na9 O8 2.406230 1_555
Na9 O10 2.448176 1_555
Na9 O17 2.470817 1_555
Na9 O11 2.531332 1_555
Na9 O13 2.669909 1_555
Na9 O21 2.926637 1_555
B0 O15 1.433103 1_554
B0 O23 1.476330 1_554
B0 O3 1.516128 1_554
B0 O19 1.518995 1_555
B1 O15 1.445181 1_565
B1 O0 1.459020 1_555
B1 O4 1.513450 1_556
B1 O24 1.530826 1_555
B2 O7 1.433103 1_656
B2 O18 1.476330 1_656
B2 O20 1.516128 1_556
B2 O25 1.518995 1_555
B3 O7 1.445181 1_545
B3 O9 1.459020 1_555
B3 O1 1.513450 1_454
B3 O5 1.530826 1_455
O0 P2 1.591717 1_556
O1 P4 1.606522 1_555
O2 P1 1.517626 1_555
O3 P1 1.603365 1_555
O4 P0 1.606522 1_555
O5 P5 1.608492 1_545
O6 P4 1.523434 1_555
O8 P5 1.517626 1_455
O9 P3 1.591717 1_554
O10 P4 1.515596 1_455
O11 P1 1.520729 1_555
O12 P5 1.520729 1_555
O13 P3 1.519131 1_554
O14 P0 1.515596 1_555
O16 P2 1.519131 1_556
O17 P0 1.523434 1_555
O18 P3 1.611892 1_554
O19 P0 1.601448 1_545
O20 P5 1.603365 1_555
O21 P3 1.517102 1_555
O22 P2 1.517102 1_555
O23 P2 1.611892 1_556
O24 P1 1.608492 1_565
O25 P4 1.601448 1_565
