# generated using pymatgen
data_CsCoCl3
_symmetry_space_group_name_H-M   'P 1'
_cell_length_a   7.25653924
_cell_length_b   7.25670505
_cell_length_c   5.98752246
_cell_angle_alpha   90.00539652
_cell_angle_beta   89.99469254
_cell_angle_gamma   120.00716267
_symmetry_Int_Tables_number   1
_chemical_formula_structural   CsCoCl3
_chemical_formula_sum   'Cs2 Co2 Cl6'
_cell_volume   273.03319679
_cell_formula_units_Z   2
loop_
 _symmetry_equiv_pos_site_id
 _symmetry_equiv_pos_as_xyz
  1  'x, y, z'
loop_
 _atom_site_type_symbol
 _atom_site_label
 _atom_site_symmetry_multiplicity
 _atom_site_fract_x
 _atom_site_fract_y
 _atom_site_fract_z
 _atom_site_occupancy
  Cs  Cs0  1  0.66673243  0.33328332  0.25000945  1
  Cs  Cs1  1  0.33326757  0.66671668  0.74999055  1
  Co  Co0  1  0.00000000  0.00000000  -0.00000000  1
  Co  Co1  1  0.00000000  0.00000000  0.50000000  1
  Cl  Cl0  1  0.84492962  0.69366108  0.75000692  1
  Cl  Cl1  1  0.84516198  0.15479968  0.75001477  1
  Cl  Cl2  1  0.15483802  0.84520032  0.24998523  1
  Cl  Cl3  1  0.69364810  0.84489598  0.25001013  1
  Cl  Cl4  1  0.30635190  0.15510402  0.74998987  1
  Cl  Cl5  1  0.15507038  0.30633892  0.24999308  1
loop_
_geom_bond_atom_site_label_1
_geom_bond_atom_site_label_2
_geom_bond_distance
_geom_bond_site_symmetry_2
Cl0 Co0 2.438482 1_666
Cl0 Co1 2.438662 1_665
Cl0 Cs1 3.619074 1_555
Cl0 Cs1 3.645363 1_655
Cl0 Cs0 3.753733 1_555
Cl0 Cs0 3.753959 1_556
Cl1 Co1 2.455007 1_655
Cl1 Co0 2.455155 1_656
Cl1 Cs1 3.630917 1_545
Cl1 Cs1 3.631089 1_655
Cl1 Cs0 3.740634 1_556
Cl1 Cs0 3.741072 1_555
Cl2 Co1 2.455007 1_565
Cl2 Co0 2.455155 1_565
Cl2 Cs0 3.630917 1_565
Cl2 Cs0 3.631089 1_455
Cl2 Cs1 3.740634 1_554
Cl2 Cs1 3.741072 1_555
Cl3 Co0 2.438579 1_665
Cl3 Co1 2.438627 1_665
Cl3 Cs0 3.618898 1_555
Cl3 Cs0 3.645687 1_565
Cl3 Cs1 3.753636 1_555
Cl3 Cs1 3.754015 1_554
Cl4 Co0 2.438579 1_556
Cl4 Co1 2.438627 1_555
Cl4 Cs1 3.618898 1_555
Cl4 Cs1 3.645687 1_545
Cl4 Cs0 3.753636 1_555
Cl4 Cs0 3.754015 1_556
Cl5 Co0 2.438482 1_555
Cl5 Co1 2.438662 1_555
Cl5 Cs0 3.619074 1_555
Cl5 Cs0 3.645363 1_455
Cl5 Cs1 3.753733 1_555
Cl5 Cs1 3.753959 1_554
