# generated using pymatgen
data_K2S
_symmetry_space_group_name_H-M   'P 1'
_cell_length_a   5.30270368
_cell_length_b   5.30270368
_cell_length_c   7.29388300
_cell_angle_alpha   90.00000000
_cell_angle_beta   90.00000000
_cell_angle_gamma   119.99999597
_symmetry_Int_Tables_number   1
_chemical_formula_structural   K2S
_chemical_formula_sum   'K4 S2'
_cell_volume   177.61684829
_cell_formula_units_Z   2
loop_
 _symmetry_equiv_pos_site_id
 _symmetry_equiv_pos_as_xyz
  1  'x, y, z'
loop_
 _atom_site_type_symbol
 _atom_site_label
 _atom_site_symmetry_multiplicity
 _atom_site_fract_x
 _atom_site_fract_y
 _atom_site_fract_z
 _atom_site_occupancy
  K  K0  1  0.33333300  0.66666700  0.25000000  1
  K  K1  1  0.00000000  0.00000000  0.50000000  1
  K  K2  1  0.00000000  0.00000000  0.00000000  1
  K  K3  1  0.66666700  0.33333300  0.75000000  1
  S  S0  1  0.66666700  0.33333300  0.25000000  1
  S  S1  1  0.33333300  0.66666700  0.75000000  1
loop_
_geom_bond_atom_site_label_1
_geom_bond_atom_site_label_2
_geom_bond_distance
_geom_bond_site_symmetry_2
K0 S0 3.061514 1_455
K0 S0 3.061514 1_565
K0 S0 3.061523 1_555
K0 S1 3.646942 1_554
K0 S1 3.646942 1_555
K1 S0 3.563413 1_455
K1 S1 3.563413 1_545
K1 S0 3.563418 1_445
K1 S1 3.563418 1_445
K1 S1 3.563418 1_555
K1 S0 3.563418 1_555
K2 S0 3.563413 1_455
K2 S1 3.563413 1_544
K2 S0 3.563418 1_445
K2 S1 3.563418 1_444
K2 S1 3.563418 1_554
K2 S0 3.563418 1_555
K3 S1 3.061514 1_545
K3 S1 3.061514 1_655
K3 S1 3.061523 1_555
K3 S0 3.646942 1_555
K3 S0 3.646942 1_556
