# generated using pymatgen
data_BaCu(SiO3)2
_symmetry_space_group_name_H-M   'P 1'
_cell_length_a   13.48663774
_cell_length_b   13.48663774
_cell_length_c   13.48663774
_cell_angle_alpha   136.19720790
_cell_angle_beta   136.19720790
_cell_angle_gamma   63.67559567
_symmetry_Int_Tables_number   1
_chemical_formula_structural   BaCu(SiO3)2
_chemical_formula_sum   'Ba8 Cu8 Si16 O48'
_cell_volume   1159.84312031
_cell_formula_units_Z   8
loop_
 _symmetry_equiv_pos_site_id
 _symmetry_equiv_pos_as_xyz
  1  'x, y, z'
loop_
 _atom_site_type_symbol
 _atom_site_label
 _atom_site_symmetry_multiplicity
 _atom_site_fract_x
 _atom_site_fract_y
 _atom_site_fract_z
 _atom_site_occupancy
  Ba  Ba0  1  0.12500000  0.13808000  0.51308000  1
  Ba  Ba1  1  0.62500000  0.61192000  0.48692000  1
  Ba  Ba2  1  0.12500000  0.63808000  0.01308000  1
  Ba  Ba3  1  0.62500000  0.11192000  0.98692000  1
  Ba  Ba4  1  0.38808000  0.87500000  0.01308000  1
  Ba  Ba5  1  0.88808000  0.87500000  0.51308000  1
  Ba  Ba6  1  0.86192000  0.37500000  0.98692000  1
  Ba  Ba7  1  0.36192000  0.37500000  0.48692000  1
  Cu  Cu0  1  0.69155400  0.69155400  0.00000000  1
  Cu  Cu1  1  0.30844600  0.30844600  0.00000000  1
  Cu  Cu2  1  0.19155400  0.19155400  0.00000000  1
  Cu  Cu3  1  0.80844600  0.80844600  0.00000000  1
  Cu  Cu4  1  0.05844600  0.55844600  0.50000000  1
  Cu  Cu5  1  0.94155400  0.44155400  0.50000000  1
  Cu  Cu6  1  0.44155400  0.94155400  0.50000000  1
  Cu  Cu7  1  0.55844600  0.05844600  0.50000000  1
  Si  Si0  1  0.50173000  0.72447400  0.22539900  1
  Si  Si1  1  0.02633100  0.75173000  0.27725600  1
  Si  Si2  1  0.77552600  0.99827000  0.77460100  1
  Si  Si3  1  0.99907500  0.22447400  0.22274400  1
  Si  Si4  1  0.52633100  0.24907500  0.27460100  1
  Si  Si5  1  0.47447400  0.74907500  0.72274400  1
  Si  Si6  1  0.24827000  0.52552600  0.27460100  1
  Si  Si7  1  0.27552600  0.50092500  0.77725600  1
  Si  Si8  1  0.72366900  0.49827000  0.22274400  1
  Si  Si9  1  0.74827000  0.47366900  0.72274400  1
  Si  Si10  1  0.00173000  0.77633100  0.77725600  1
  Si  Si11  1  0.49907500  0.27633100  0.77460100  1
  Si  Si12  1  0.75092500  0.02552600  0.27725600  1
  Si  Si13  1  0.22366900  0.00092500  0.22539900  1
  Si  Si14  1  0.97447400  0.25173000  0.72539900  1
  Si  Si15  1  0.25092500  0.97366900  0.72539900  1
  O  O0  1  0.11670800  0.34432300  0.84173500  1
  O  O1  1  0.34083000  0.49992700  0.22399400  1
  O  O2  1  0.00007300  0.15917000  0.77600600  1
  O  O3  1  0.90917000  0.63316400  0.65909700  1
  O  O4  1  0.85964400  0.36069900  0.75484000  1
  O  O5  1  0.24741200  0.97502600  0.34173500  1
  O  O6  1  0.10585900  0.86069900  0.50105500  1
  O  O7  1  0.74741200  0.40567700  0.27238600  1
  O  O8  1  0.24992700  0.52593300  0.65909700  1
  O  O9  1  0.63329200  0.90567700  0.65826500  1
  O  O10  1  0.60585900  0.10480400  0.24516000  1
  O  O11  1  0.27593300  0.11683600  0.77600600  1
  O  O12  1  0.86683600  0.59083000  0.34090300  1
  O  O13  1  0.89519600  0.14035600  0.50105500  1
  O  O14  1  0.52497400  0.25258800  0.65826500  1
  O  O15  1  0.02497400  0.36670800  0.27238600  1
  O  O16  1  0.39519600  0.89414100  0.75484000  1
  O  O17  1  0.00258800  0.84432300  0.22761400  1
  O  O18  1  0.47406700  0.13316400  0.72399400  1
  O  O19  1  0.61069900  0.60964400  0.25484000  1
  O  O20  1  0.63930100  0.39414100  0.49894500  1
  O  O21  1  0.61670800  0.77497400  0.77238600  1
  O  O22  1  0.13329200  0.47502600  0.72761400  1
  O  O23  1  0.59432300  0.86670800  0.34173500  1
  O  O24  1  0.89035600  0.88930100  0.74516000  1
  O  O25  1  0.39035600  0.64519600  0.00105500  1
  O  O26  1  0.84083000  0.61683600  0.84090300  1
  O  O27  1  0.72502600  0.88329200  0.22761400  1
  O  O28  1  0.09432300  0.75258800  0.72761400  1
  O  O29  1  0.22502600  0.99741200  0.84173500  1
  O  O30  1  0.40917000  0.75007300  0.27600600  1
  O  O31  1  0.15567700  0.38329200  0.15826500  1
  O  O32  1  0.65567700  0.49741200  0.77238600  1
  O  O33  1  0.97406700  0.25007300  0.34090300  1
  O  O34  1  0.35964400  0.60480400  0.49894500  1
  O  O35  1  0.14414100  0.14519600  0.25484000  1
  O  O36  1  0.38316400  0.22406700  0.22399400  1
  O  O37  1  0.77593300  0.99992700  0.15909700  1
  O  O38  1  0.13930100  0.64035600  0.24516000  1
  O  O39  1  0.88316400  0.65917000  0.15909700  1
  O  O40  1  0.11069900  0.85585900  0.00105500  1
  O  O41  1  0.50258800  0.27497400  0.15826500  1
  O  O42  1  0.35480400  0.35585900  0.74516000  1
  O  O43  1  0.74992700  0.09083000  0.72399400  1
  O  O44  1  0.85480400  0.10964400  0.99894500  1
  O  O45  1  0.36683600  0.02593300  0.27600600  1
  O  O46  1  0.50007300  0.72406700  0.84090300  1
  O  O47  1  0.64414100  0.38930100  0.99894500  1
loop_
_geom_bond_atom_site_label_1
_geom_bond_atom_site_label_2
_geom_bond_distance
_geom_bond_site_symmetry_2
Ba0 O33 2.707377 1_455
Ba0 O11 2.707377 1_555
Ba0 O17 2.802368 1_545
Ba0 O5 2.802368 1_545
Ba0 O42 2.971546 1_555
Ba0 O13 2.971546 1_455
Ba0 O22 3.168482 1_555
Ba0 O0 3.168491 1_555
Ba0 O18 3.305185 1_555
Ba0 O37 3.305185 1_445
Ba1 O1 2.707377 1_555
Ba1 O3 2.707377 1_555
Ba1 O9 2.802369 1_555
Ba1 O21 2.802377 1_555
Ba1 O19 2.971546 1_555
Ba1 O20 2.971546 1_555
Ba1 O7 3.168482 1_555
Ba1 O41 3.168482 1_555
Ba1 O26 3.305185 1_555
Ba1 O30 3.305185 1_555
Ba2 O30 2.707377 1_555
Ba2 O26 2.707377 1_454
Ba2 O0 2.802369 1_554
Ba2 O22 2.802377 1_554
Ba2 O38 2.971546 1_555
Ba2 O40 2.971546 1_555
Ba2 O5 3.168482 1_555
Ba2 O17 3.168482 1_555
Ba2 O3 3.305185 1_454
Ba2 O1 3.305185 1_555
Ba3 O18 2.707377 1_555
Ba3 O37 2.707377 1_546
Ba3 O7 2.802368 1_556
Ba3 O41 2.802368 1_556
Ba3 O16 2.971546 1_545
Ba3 O44 2.971546 1_555
Ba3 O21 3.168482 1_545
Ba3 O9 3.168491 1_545
Ba3 O33 3.305185 1_556
Ba3 O11 3.305185 1_555
Ba4 O45 2.707377 1_565
Ba4 O46 2.707377 1_554
Ba4 O29 2.802368 1_554
Ba4 O28 2.802368 1_554
Ba4 O10 2.971546 1_565
Ba4 O25 2.971546 1_555
Ba4 O27 3.168482 1_555
Ba4 O23 3.168491 1_555
Ba4 O8 3.305185 1_554
Ba4 O36 3.305185 1_565
Ba5 O12 2.707377 1_555
Ba5 O2 2.707377 1_665
Ba5 O23 2.802369 1_555
Ba5 O27 2.802377 1_555
Ba5 O6 2.971546 1_655
Ba5 O24 2.971546 1_555
Ba5 O28 3.168482 1_655
Ba5 O29 3.168482 1_655
Ba5 O39 3.305185 1_555
Ba5 O43 3.305185 1_565
Ba6 O39 2.707377 1_556
Ba6 O43 2.707377 1_555
Ba6 O31 2.802369 1_656
Ba6 O15 2.802377 1_656
Ba6 O47 2.971546 1_555
Ba6 O4 2.971546 1_555
Ba6 O14 3.168482 1_555
Ba6 O32 3.168482 1_555
Ba6 O12 3.305185 1_556
Ba6 O2 3.305185 1_655
Ba7 O36 2.707377 1_555
Ba7 O8 2.707377 1_555
Ba7 O32 2.802368 1_555
Ba7 O14 2.802368 1_555
Ba7 O34 2.971546 1_555
Ba7 O35 2.971546 1_555
Ba7 O15 3.168482 1_555
Ba7 O31 3.168491 1_555
Ba7 O46 3.305185 1_555
Ba7 O45 3.305185 1_555
Cu0 O39 1.954657 1_555
Cu0 O46 1.954657 1_554
Cu0 O32 1.972517 1_554
Cu0 O27 1.972521 1_555
Cu1 O1 1.954657 1_555
Cu1 O11 1.954657 1_554
Cu1 O41 1.972517 1_555
Cu1 O0 1.972523 1_554
Cu2 O36 1.954657 1_555
Cu2 O2 1.954657 1_554
Cu2 O29 1.972517 1_544
Cu2 O31 1.972523 1_555
Cu3 O26 1.954657 1_554
Cu3 O37 1.954657 1_555
Cu3 O17 1.972517 1_655
Cu3 O21 1.972521 1_554
Cu4 O12 1.954657 1_455
Cu4 O8 1.954657 1_555
Cu4 O28 1.972517 1_555
Cu4 O15 1.972521 1_555
Cu5 O3 1.954657 1_555
Cu5 O33 1.954657 1_555
Cu5 O7 1.972517 1_555
Cu5 O22 1.972521 1_655
Cu6 O30 1.954657 1_555
Cu6 O18 1.954657 1_565
Cu6 O5 1.972517 1_555
Cu6 O9 1.972523 1_555
Cu7 O45 1.954657 1_555
Cu7 O43 1.954657 1_555
Cu7 O14 1.972517 1_555
Cu7 O23 1.972523 1_545
O0 Si14 1.628761 1_455
O1 Si6 1.628127 1_555
O2 Si14 1.628127 1_455
O3 Si10 1.628127 1_655
O4 Si14 1.656071 1_555
O4 Si9 1.657897 1_555
O5 Si13 1.628772 1_565
O6 Si1 1.656071 1_555
O6 Si15 1.657897 1_555
O7 Si8 1.628772 1_555
O8 Si7 1.628127 1_555
O9 Si2 1.628761 1_555
O10 Si4 1.656071 1_555
O10 Si12 1.657897 1_555
O11 Si15 1.628127 1_545
O12 Si8 1.628127 1_555
O13 Si12 1.656071 1_555
O13 Si14 1.657897 1_555
O14 Si11 1.628772 1_555
O15 Si3 1.628759 1_455
O16 Si15 1.656071 1_555
O16 Si5 1.657897 1_555
O17 Si1 1.628772 1_555
O18 Si11 1.628127 1_555
O19 Si0 1.656071 1_555
O19 Si8 1.657897 1_555
O20 Si9 1.656071 1_555
O20 Si4 1.657897 1_555
O21 Si5 1.628759 1_555
O22 Si7 1.628759 1_555
O23 Si0 1.628761 1_555
O24 Si2 1.656071 1_555
O24 Si10 1.657897 1_655
O25 Si7 1.656071 1_554
O25 Si0 1.657897 1_555
O26 Si9 1.628127 1_555
O27 Si12 1.628759 1_565
O28 Si10 1.628772 1_555
O29 Si15 1.628772 1_555
O30 Si0 1.628127 1_555
O31 Si6 1.628761 1_555
O32 Si9 1.628772 1_555
O33 Si3 1.628127 1_555
O34 Si5 1.656071 1_555
O34 Si6 1.657897 1_555
O35 Si13 1.656071 1_555
O35 Si3 1.657897 1_455
O36 Si4 1.628127 1_555
O37 Si12 1.628127 1_565
O38 Si6 1.656071 1_555
O38 Si1 1.657897 1_555
O39 Si1 1.628127 1_655
O40 Si10 1.656071 1_554
O40 Si13 1.657897 1_565
O41 Si4 1.628772 1_555
O42 Si11 1.656071 1_555
O42 Si7 1.657897 1_555
O43 Si2 1.628127 1_545
O44 Si3 1.656071 1_556
O44 Si2 1.657897 1_545
O45 Si13 1.628127 1_555
O46 Si5 1.628127 1_555
O47 Si8 1.656071 1_556
O47 Si11 1.657897 1_555
