# generated using pymatgen
data_Cu4P2O9
_symmetry_space_group_name_H-M   'P 1'
_cell_length_a   6.26249263
_cell_length_b   7.53373228
_cell_length_c   8.01003258
_cell_angle_alpha   99.32326044
_cell_angle_beta   112.25526268
_cell_angle_gamma   97.98631152
_symmetry_Int_Tables_number   1
_chemical_formula_structural   Cu4P2O9
_chemical_formula_sum   'Cu8 P4 O18'
_cell_volume   336.73770614
_cell_formula_units_Z   2
loop_
 _symmetry_equiv_pos_site_id
 _symmetry_equiv_pos_as_xyz
  1  'x, y, z'
loop_
 _atom_site_type_symbol
 _atom_site_label
 _atom_site_symmetry_multiplicity
 _atom_site_fract_x
 _atom_site_fract_y
 _atom_site_fract_z
 _atom_site_occupancy
  Cu  Cu0  1  0.88426600  0.10475681  0.75761339  1
  Cu  Cu1  1  0.40777082  0.12510680  0.76312617  1
  Cu  Cu2  1  0.11573400  0.89524319  0.24238661  1
  Cu  Cu3  1  0.65588746  0.38458180  0.58909623  1
  Cu  Cu4  1  0.34411254  0.61541820  0.41090377  1
  Cu  Cu5  1  0.59222918  0.87489320  0.23687383  1
  Cu  Cu6  1  0.15407518  0.67047192  0.93683783  1
  Cu  Cu7  1  0.84592482  0.32952808  0.06316217  1
  P  P0  1  0.99957424  0.78407518  0.57902669  1
  P  P1  1  0.37124081  0.26398103  0.15086847  1
  P  P2  1  0.62875919  0.73601897  0.84913153  1
  P  P3  1  0.00042576  0.21592482  0.42097331  1
  O  O0  1  0.51290872  0.58404470  0.66609536  1
  O  O1  1  0.34538333  0.07254531  0.19124221  1
  O  O2  1  0.13180264  0.30040611  0.02771252  1
  O  O3  1  0.48709128  0.41595530  0.33390464  1
  O  O4  1  0.65461667  0.92745469  0.80875779  1
  O  O5  1  0.14945144  0.77982315  0.46449617  1
  O  O6  1  0.30030069  0.72725474  0.20394775  1
  O  O7  1  0.69969931  0.27274526  0.79605225  1
  O  O8  1  0.00355524  0.62176720  0.67150388  1
  O  O9  1  0.74883975  0.79638773  0.46488683  1
  O  O10  1  0.86819736  0.69959389  0.97228748  1
  O  O11  1  0.85054856  0.22017685  0.53550383  1
  O  O12  1  0.11783576  0.96621237  0.73916816  1
  O  O13  1  0.99644476  0.37823280  0.32849612  1
  O  O14  1  0.47731769  0.72636803  0.96141848  1
  O  O15  1  0.88216424  0.03378763  0.26083184  1
  O  O16  1  0.25116025  0.20361227  0.53511317  1
  O  O17  1  0.52268231  0.27363197  0.03858152  1
loop_
_geom_bond_atom_site_label_1
_geom_bond_atom_site_label_2
_geom_bond_distance
_geom_bond_site_symmetry_2
Cu0 O7 1.892688 1_555
Cu0 O12 1.946485 1_645
Cu0 O4 2.027358 1_545
Cu0 O11 2.057575 1_555
Cu0 O2 2.246739 1_656
Cu1 O7 1.903602 1_555
Cu1 O16 1.949812 1_555
Cu1 O12 1.955579 1_545
Cu1 O17 2.100418 1_556
Cu1 O4 2.264640 1_545
Cu2 O6 1.892688 1_555
Cu2 O15 1.946485 1_465
Cu2 O1 2.027358 1_565
Cu2 O5 2.057575 1_555
Cu2 O10 2.246739 1_454
Cu3 O7 1.924962 1_555
Cu3 O11 1.961675 1_555
Cu3 O0 1.982967 1_555
Cu3 O3 1.985160 1_555
Cu3 O8 2.411912 1_655
Cu3 O16 2.547267 1_555
Cu4 O6 1.924962 1_555
Cu4 O5 1.961675 1_555
Cu4 O3 1.982967 1_555
Cu4 O0 1.985160 1_555
Cu4 O13 2.411912 1_455
Cu4 O9 2.547267 1_555
Cu5 O6 1.903602 1_555
Cu5 O9 1.949812 1_555
Cu5 O15 1.955579 1_565
Cu5 O14 2.100418 1_554
Cu5 O1 2.264640 1_565
Cu6 O8 1.916750 1_555
Cu6 O6 1.926082 1_556
Cu6 O14 1.936043 1_555
Cu6 O10 1.951408 1_455
Cu7 O13 1.916750 1_555
Cu7 O7 1.926082 1_554
Cu7 O17 1.936043 1_555
Cu7 O2 1.951408 1_655
O0 P2 1.551241 1_555
O1 P1 1.528631 1_555
O2 P1 1.542236 1_555
O3 P1 1.551241 1_555
O4 P2 1.528631 1_555
O5 P0 1.541000 1_455
O8 P0 1.527249 1_455
O9 P0 1.513478 1_555
O10 P2 1.542236 1_555
O11 P3 1.541000 1_655
O12 P0 1.582558 1_455
O13 P3 1.527249 1_655
O14 P2 1.536837 1_555
O15 P3 1.582558 1_655
O16 P3 1.513478 1_555
O17 P1 1.536837 1_555
