# generated using pymatgen
data_K2Cr2O7
_symmetry_space_group_name_H-M   'P 1'
_cell_length_a   7.34847523
_cell_length_b   7.40038592
_cell_length_c   13.35473843
_cell_angle_alpha   95.43252355
_cell_angle_beta   98.13631801
_cell_angle_gamma   90.79847909
_symmetry_Int_Tables_number   1
_chemical_formula_structural   K2Cr2O7
_chemical_formula_sum   'K8 Cr8 O28'
_cell_volume   715.43649273
_cell_formula_units_Z   4
loop_
 _symmetry_equiv_pos_site_id
 _symmetry_equiv_pos_as_xyz
  1  'x, y, z'
loop_
 _atom_site_type_symbol
 _atom_site_label
 _atom_site_symmetry_multiplicity
 _atom_site_fract_x
 _atom_site_fract_y
 _atom_site_fract_z
 _atom_site_occupancy
  K  K0  1  0.10873040  0.65859389  0.64098920  1
  K  K1  1  0.89126960  0.34140611  0.35901080  1
  K  K2  1  0.25203489  0.76068521  0.34573672  1
  K  K3  1  0.74796511  0.23931479  0.65426328  1
  K  K4  1  0.66167814  0.91605202  0.15916148  1
  K  K5  1  0.33832186  0.08394798  0.84083852  1
  K  K6  1  0.69105461  0.65572638  0.85954753  1
  K  K7  1  0.30894539  0.34427362  0.14045247  1
  Cr  Cr0  1  0.59358548  0.77447877  0.60537826  1
  Cr  Cr1  1  0.40641452  0.22552123  0.39462174  1
  Cr  Cr2  1  0.79602842  0.81247412  0.41257067  1
  Cr  Cr3  1  0.20397158  0.18752588  0.58742933  1
  Cr  Cr4  1  0.81876290  0.42746868  0.11223257  1
  Cr  Cr5  1  0.18123710  0.57253132  0.88776743  1
  Cr  Cr6  1  0.81151898  0.15293378  0.91693191  1
  Cr  Cr7  1  0.18848102  0.84706622  0.08306809  1
  O  O0  1  0.72383337  0.61534670  0.64793449  1
  O  O1  1  0.27616663  0.38465330  0.35206551  1
  O  O2  1  0.55712116  0.91609655  0.70013782  1
  O  O3  1  0.44287884  0.08390345  0.29986218  1
  O  O4  1  0.40256003  0.68987260  0.54369181  1
  O  O5  1  0.59743997  0.31012740  0.45630819  1
  O  O6  1  0.70712819  0.89855869  0.52379586  1
  O  O7  1  0.29287181  0.10144131  0.47620414  1
  O  O8  1  0.96523239  0.68166485  0.44513606  1
  O  O9  1  0.03476761  0.31833515  0.55486394  1
  O  O10  1  0.87051056  0.97842195  0.35768571  1
  O  O11  1  0.12948944  0.02157805  0.64231429  1
  O  O12  1  0.63875336  0.69632328  0.33553937  1
  O  O13  1  0.36124664  0.30367672  0.66446063  1
  O  O14  1  0.68788247  0.29701148  0.16478353  1
  O  O15  1  0.31211753  0.70298852  0.83521647  1
  O  O16  1  0.98054251  0.51835375  0.19776409  1
  O  O17  1  0.01945749  0.48164625  0.80223591  1
  O  O18  1  0.69840997  0.58054596  0.05771175  1
  O  O19  1  0.30159003  0.41945404  0.94228825  1
  O  O20  1  0.92778747  0.29358269  0.02258491  1
  O  O21  1  0.07221253  0.70641731  0.97741509  1
  O  O22  1  0.69094980  0.99707879  0.95714269  1
  O  O23  1  0.30905020  0.00292121  0.04285731  1
  O  O24  1  0.95888847  0.06243071  0.85042351  1
  O  O25  1  0.04111153  0.93756929  0.14957649  1
  O  O26  1  0.67318069  0.27831804  0.84961150  1
  O  O27  1  0.32681931  0.72168196  0.15038850  1
loop_
_geom_bond_atom_site_label_1
_geom_bond_atom_site_label_2
_geom_bond_distance
_geom_bond_site_symmetry_2
K0 O9 2.682423 1_555
K0 O11 2.686669 1_565
K0 O4 2.690964 1_555
K0 O8 2.700217 1_455
K0 O17 2.773467 1_555
K0 O15 2.792386 1_555
K0 O0 2.857545 1_455
K0 O13 3.250732 1_555
K1 O8 2.682423 1_555
K1 O10 2.686669 1_545
K1 O5 2.690964 1_555
K1 O9 2.700217 1_655
K1 O16 2.773467 1_555
K1 O14 2.792386 1_555
K1 O1 2.857545 1_655
K1 O12 3.250732 1_555
K2 O8 2.729552 1_455
K2 O27 2.731106 1_555
K2 O1 2.799376 1_555
K2 O4 2.817396 1_555
K2 O12 2.907950 1_555
K2 O7 2.912720 1_565
K2 O3 2.913870 1_565
K2 O16 3.035581 1_455
K2 O25 3.245780 1_555
K2 O10 3.268949 1_455
K3 O9 2.729552 1_655
K3 O26 2.731106 1_555
K3 O0 2.799376 1_555
K3 O5 2.817396 1_555
K3 O13 2.907950 1_555
K3 O6 2.912720 1_545
K3 O2 2.913870 1_545
K3 O17 3.035581 1_655
K3 O24 3.245780 1_555
K3 O11 3.268949 1_655
K4 O18 2.749246 1_555
K4 O25 2.812228 1_655
K4 O27 2.815253 1_555
K4 O14 2.816304 1_565
K4 O3 2.850918 1_565
K4 O22 2.855086 1_554
K4 O10 2.862519 1_555
K4 O23 2.938827 1_565
K4 O12 3.008441 1_555
K5 O19 2.749246 1_555
K5 O24 2.812228 1_455
K5 O26 2.815253 1_555
K5 O15 2.816304 1_545
K5 O2 2.850918 1_545
K5 O23 2.855086 1_556
K5 O11 2.862519 1_555
K5 O22 2.938827 1_545
K5 O13 3.008441 1_555
K6 O22 2.730759 1_555
K6 O18 2.748673 1_556
K6 O26 2.783917 1_555
K6 O15 2.788281 1_555
K6 O0 2.858074 1_555
K6 O17 2.914108 1_655
K6 O21 3.012411 1_655
K6 O2 3.074079 1_555
K7 O23 2.730759 1_555
K7 O19 2.748673 1_554
K7 O27 2.783917 1_555
K7 O14 2.788281 1_555
K7 O1 2.858074 1_555
K7 O16 2.914108 1_455
K7 O20 3.012411 1_455
K7 O3 3.074079 1_555
Cr0 O4 1.609873 1_555
Cr0 O2 1.619972 1_555
Cr0 O0 1.621753 1_555
Cr0 O6 1.775318 1_555
Cr1 O5 1.609873 1_555
Cr1 O3 1.619972 1_555
Cr1 O1 1.621753 1_555
Cr1 O7 1.775318 1_555
Cr2 O12 1.612822 1_555
Cr2 O10 1.615630 1_555
Cr2 O8 1.622486 1_555
Cr2 O6 1.773719 1_555
Cr3 O13 1.612822 1_555
Cr3 O11 1.615630 1_555
Cr3 O9 1.622486 1_555
Cr3 O7 1.773719 1_555
Cr4 O18 1.611664 1_555
Cr4 O16 1.618117 1_555
Cr4 O14 1.625751 1_555
Cr4 O20 1.768028 1_555
Cr5 O19 1.611664 1_555
Cr5 O17 1.618117 1_555
Cr5 O15 1.625751 1_555
Cr5 O21 1.768028 1_555
Cr6 O24 1.609373 1_555
Cr6 O22 1.620846 1_545
Cr6 O26 1.621185 1_555
Cr6 O20 1.777669 1_556
Cr7 O25 1.609373 1_555
Cr7 O23 1.620846 1_565
Cr7 O27 1.621185 1_555
Cr7 O21 1.777669 1_554
