# generated using pymatgen
data_LiSi2BO6
_symmetry_space_group_name_H-M   'P 1'
_cell_length_a   13.25509100
_cell_length_b   5.08036900
_cell_length_c   13.47956450
_cell_angle_alpha   89.88637804
_cell_angle_beta   90.00000000
_cell_angle_gamma   90.00000000
_symmetry_Int_Tables_number   1
_chemical_formula_structural   LiSi2BO6
_chemical_formula_sum   'Li8 Si16 B8 O48'
_cell_volume   907.72224452
_cell_formula_units_Z   8
loop_
 _symmetry_equiv_pos_site_id
 _symmetry_equiv_pos_as_xyz
  1  'x, y, z'
loop_
 _atom_site_type_symbol
 _atom_site_label
 _atom_site_symmetry_multiplicity
 _atom_site_fract_x
 _atom_site_fract_y
 _atom_site_fract_z
 _atom_site_occupancy
  Li  Li0  1  0.32965500  0.39706800  0.53795500  1
  Li  Li1  1  0.82965500  0.60293200  0.46204500  1
  Li  Li2  1  0.05562800  0.35069200  0.70994900  1
  Li  Li3  1  0.56100300  0.15944900  0.77287300  1
  Li  Li4  1  0.84228100  0.08981900  0.97247100  1
  Li  Li5  1  0.34228100  0.91018100  0.02752900  1
  Li  Li6  1  0.06100300  0.84055100  0.22712700  1
  Li  Li7  1  0.55562800  0.64930800  0.29005100  1
  Si  Si0  1  0.62738600  0.82633300  0.97634700  1
  Si  Si1  1  0.85732200  0.93834700  0.66715500  1
  Si  Si2  1  0.26939000  0.57231300  0.22769800  1
  Si  Si3  1  0.12259600  0.75884000  0.51892200  1
  Si  Si4  1  0.76761100  0.99897800  0.26930400  1
  Si  Si5  1  0.76939000  0.42768700  0.77230200  1
  Si  Si6  1  0.03436700  0.26625300  0.41790600  1
  Si  Si7  1  0.35787700  0.49518200  0.83227300  1
  Si  Si8  1  0.03808800  0.68269900  0.91727400  1
  Si  Si9  1  0.53436700  0.73374700  0.58209400  1
  Si  Si10  1  0.12738600  0.17366700  0.02365300  1
  Si  Si11  1  0.53808800  0.31730100  0.08272600  1
  Si  Si12  1  0.62259600  0.24116000  0.48107800  1
  Si  Si13  1  0.26761100  0.00102200  0.73069600  1
  Si  Si14  1  0.85787700  0.50481800  0.16772700  1
  Si  Si15  1  0.35732200  0.06165300  0.33284500  1
  B  B0  1  0.83147800  0.10235800  0.46295900  1
  B  B1  1  0.56326600  0.66063000  0.78785800  1
  B  B2  1  0.83214900  0.58898900  0.96198800  1
  B  B3  1  0.33147800  0.89764200  0.53704100  1
  B  B4  1  0.06326600  0.33937000  0.21214200  1
  B  B5  1  0.06035900  0.85070700  0.71379800  1
  B  B6  1  0.56035900  0.14929300  0.28620200  1
  B  B7  1  0.33214900  0.41101100  0.03801200  1
  O  O0  1  0.61564400  0.10625200  0.03368100  1
  O  O1  1  0.27762300  0.85376800  0.28508800  1
  O  O2  1  0.82903800  0.64487500  0.70631400  1
  O  O3  1  0.91618500  0.28716200  0.44992900  1
  O  O4  1  0.42282800  0.23931600  0.05001900  1
  O  O5  1  0.41618500  0.71283800  0.55007100  1
  O  O6  1  0.79615600  0.29926700  0.23829800  1
  O  O7  1  0.74453300  0.28157800  0.47625900  1
  O  O8  1  0.31870800  0.07653100  0.62342500  1
  O  O9  1  0.77762300  0.14623200  0.71491200  1
  O  O10  1  0.84017800  0.42281900  0.05212000  1
  O  O11  1  0.06829700  0.39235600  0.95801500  1
  O  O12  1  0.64915600  0.47746200  0.78276600  1
  O  O13  1  0.09518800  0.06210600  0.49000500  1
  O  O14  1  0.57183100  0.32351200  0.37447300  1
  O  O15  1  0.74834500  0.77997300  0.96540600  1
  O  O16  1  0.31223200  0.20075000  0.81404400  1
  O  O17  1  0.47651800  0.47925800  0.80104100  1
  O  O18  1  0.97651800  0.52074200  0.19895900  1
  O  O19  1  0.55170200  0.33507800  0.20292800  1
  O  O20  1  0.14915600  0.52253800  0.21723400  1
  O  O21  1  0.81870800  0.92346900  0.37657500  1
  O  O22  1  0.57917400  0.43717000  0.56660700  1
  O  O23  1  0.81223200  0.79925000  0.18595600  1
  O  O24  1  0.07183100  0.67648800  0.62552700  1
  O  O25  1  0.92282800  0.76068400  0.94998100  1
  O  O26  1  0.97068700  0.02388200  0.70344800  1
  O  O27  1  0.07344200  0.14262600  0.13254800  1
  O  O28  1  0.56829700  0.60764400  0.04198500  1
  O  O29  1  0.24834500  0.22002700  0.03459400  1
  O  O30  1  0.24453300  0.71842200  0.52374100  1
  O  O31  1  0.34635200  0.08007900  0.45326300  1
  O  O32  1  0.07917400  0.56283000  0.43339300  1
  O  O33  1  0.59518800  0.93789400  0.50999500  1
  O  O34  1  0.11564400  0.89374800  0.96631900  1
  O  O35  1  0.32903800  0.35512500  0.29368600  1
  O  O36  1  0.14516900  0.03815600  0.72465500  1
  O  O37  1  0.57344200  0.85737400  0.86745200  1
  O  O38  1  0.55152300  0.82383700  0.69695600  1
  O  O39  1  0.05170200  0.66492200  0.79707200  1
  O  O40  1  0.84635200  0.91992100  0.54673700  1
  O  O41  1  0.82243400  0.39439600  0.88122100  1
  O  O42  1  0.34017800  0.57718100  0.94788000  1
  O  O43  1  0.29615600  0.70073300  0.76170200  1
  O  O44  1  0.64516900  0.96184400  0.27534500  1
  O  O45  1  0.32243400  0.60560400  0.11877900  1
  O  O46  1  0.47068700  0.97611800  0.29655200  1
  O  O47  1  0.05152300  0.17616300  0.30304400  1
loop_
_geom_bond_atom_site_label_1
_geom_bond_atom_site_label_2
_geom_bond_distance
_geom_bond_site_symmetry_2
Li0 O5 1.979087 1_555
Li0 O31 1.988217 1_555
Li0 O30 1.993465 1_555
Li0 O8 1.998195 1_555
Li1 O3 1.979087 1_555
Li1 O40 1.988217 1_555
Li1 O7 1.993465 1_555
Li1 O21 1.998195 1_555
Li2 O39 1.984394 1_555
Li2 O36 1.991939 1_555
Li2 O26 2.008122 1_455
Li2 O24 2.018218 1_555
Li3 O38 1.994254 1_545
Li3 O12 1.998553 1_555
Li3 O37 1.999978 1_545
Li3 O17 2.010099 1_555
Li4 O41 1.992214 1_555
Li4 O10 2.005675 1_556
Li4 O25 2.007440 1_545
Li4 O15 2.009454 1_545
Li5 O45 1.992214 1_555
Li5 O42 2.005675 1_554
Li5 O4 2.007440 1_565
Li5 O29 2.009454 1_565
Li6 O47 1.994254 1_565
Li6 O20 1.998553 1_555
Li6 O27 1.999978 1_565
Li6 O18 2.010099 1_455
Li7 O19 1.984394 1_555
Li7 O44 1.991939 1_555
Li7 O46 2.008122 1_555
Li7 O14 2.018218 1_555
B0 O40 1.472774 1_545
B0 O3 1.473891 1_555
B0 O7 1.479857 1_555
B0 O21 1.488179 1_545
B1 O12 1.472088 1_555
B1 O37 1.473977 1_555
B1 O17 1.483959 1_555
B1 O38 1.486304 1_555
B2 O15 1.475691 1_555
B2 O41 1.477656 1_555
B2 O10 1.481897 1_556
B2 O25 1.493721 1_555
B3 O31 1.472774 1_565
B3 O5 1.473891 1_555
B3 O30 1.479857 1_555
B3 O8 1.488179 1_565
B4 O20 1.472088 1_555
B4 O27 1.473977 1_555
B4 O18 1.483959 1_455
B4 O47 1.486304 1_555
B5 O39 1.469636 1_555
B5 O36 1.480746 1_565
B5 O26 1.485196 1_465
B5 O24 1.492129 1_555
B6 O19 1.469636 1_555
B6 O44 1.480746 1_545
B6 O46 1.485196 1_545
B6 O14 1.492129 1_555
B7 O29 1.475691 1_555
B7 O45 1.477656 1_555
B7 O42 1.481897 1_554
B7 O4 1.493721 1_555
O0 Si11 1.626747 1_555
O0 Si0 1.627331 1_544
O1 Si15 1.627432 1_565
O1 Si2 1.630749 1_555
O2 Si5 1.621694 1_555
O2 Si1 1.624492 1_555
O3 Si6 1.628421 1_655
O4 Si11 1.638948 1_555
O5 Si9 1.628421 1_555
O6 Si4 1.625639 1_545
O6 Si14 1.631194 1_555
O7 Si12 1.630555 1_555
O8 Si13 1.641495 1_555
O9 Si1 1.627432 1_545
O9 Si5 1.630749 1_555
O10 Si14 1.630814 1_555
O11 Si10 1.620722 1_556
O11 Si8 1.623110 1_555
O12 Si5 1.619846 1_555
O13 Si3 1.629510 1_545
O13 Si6 1.632827 1_555
O14 Si12 1.640238 1_555
O15 Si0 1.627269 1_555
O16 Si13 1.626709 1_555
O16 Si7 1.632600 1_555
O17 Si7 1.630024 1_555
O18 Si14 1.630024 1_555
O19 Si11 1.632966 1_555
O20 Si2 1.619846 1_555
O21 Si4 1.641495 1_555
O22 Si12 1.629912 1_555
O22 Si9 1.633333 1_555
O23 Si4 1.626709 1_555
O23 Si14 1.632600 1_555
O24 Si3 1.640238 1_555
O25 Si8 1.638948 1_655
O26 Si1 1.639208 1_545
O27 Si10 1.640069 1_555
O28 Si0 1.620722 1_554
O28 Si11 1.623110 1_555
O29 Si10 1.627269 1_555
O30 Si3 1.630555 1_555
O31 Si15 1.632553 1_555
O32 Si3 1.629912 1_555
O32 Si6 1.633333 1_555
O33 Si12 1.629510 1_565
O33 Si9 1.632827 1_555
O34 Si8 1.626747 1_555
O34 Si10 1.627331 1_566
O35 Si2 1.621694 1_555
O35 Si15 1.624492 1_555
O36 Si13 1.635917 1_555
O37 Si0 1.640069 1_555
O38 Si9 1.631320 1_555
O39 Si8 1.632966 1_555
O40 Si1 1.632553 1_555
O41 Si5 1.636316 1_555
O42 Si7 1.630814 1_555
O43 Si13 1.625639 1_565
O43 Si7 1.631194 1_555
O44 Si4 1.635917 1_555
O45 Si2 1.636316 1_555
O46 Si15 1.639208 1_565
O47 Si6 1.631320 1_555
