# generated using pymatgen
data_Rb4(BSe)9
_symmetry_space_group_name_H-M   'P 1'
_cell_length_a   10.49425583
_cell_length_b   10.62351375
_cell_length_c   11.01886582
_cell_angle_alpha   91.38672975
_cell_angle_beta   104.33903952
_cell_angle_gamma   109.44811104
_symmetry_Int_Tables_number   1
_chemical_formula_structural   Rb4(BSe)9
_chemical_formula_sum   'Rb8 B18 Se18'
_cell_volume   1114.59586478
_cell_formula_units_Z   2
loop_
 _symmetry_equiv_pos_site_id
 _symmetry_equiv_pos_as_xyz
  1  'x, y, z'
loop_
 _atom_site_type_symbol
 _atom_site_label
 _atom_site_symmetry_multiplicity
 _atom_site_fract_x
 _atom_site_fract_y
 _atom_site_fract_z
 _atom_site_occupancy
  Rb  Rb0  1  0.35950698  0.99608842  0.63140146  1
  Rb  Rb1  1  0.64049302  0.00391158  0.36859854  1
  Rb  Rb2  1  0.38770752  0.62693941  0.86846541  1
  Rb  Rb3  1  0.61229248  0.37306059  0.13153459  1
  Rb  Rb4  1  0.24762212  0.37073479  0.52522538  1
  Rb  Rb5  1  0.75237788  0.62926521  0.47477462  1
  Rb  Rb6  1  0.17002147  0.61536290  0.25521573  1
  Rb  Rb7  1  0.82997853  0.38463710  0.74478427  1
  B  B0  1  0.87355519  0.86158144  0.91457365  1
  B  B1  1  0.12644481  0.13841856  0.08542635  1
  B  B2  1  0.87895632  0.02436953  0.87710323  1
  B  B3  1  0.12104368  0.97563047  0.12289677  1
  B  B4  1  0.83756203  0.96739868  0.01769450  1
  B  B5  1  0.16243797  0.03260132  0.98230550  1
  B  B6  1  0.94017926  0.86842884  0.08044614  1
  B  B7  1  0.05982074  0.13157116  0.91955386  1
  B  B8  1  0.04794555  0.86496969  0.97858682  1
  B  B9  1  0.95205445  0.13503031  0.02141318  1
  B  B10  1  0.01021240  0.96238811  0.85481376  1
  B  B11  1  0.98978760  0.03761189  0.14518624  1
  B  B12  1  0.63575211  0.82072771  0.68563379  1
  B  B13  1  0.36424789  0.17927229  0.31436621  1
  B  B14  1  0.66546283  0.75954225  0.14392057  1
  B  B15  1  0.33453717  0.24045775  0.85607943  1
  B  B16  1  0.07827805  0.74378644  0.74382718  1
  B  B17  1  0.92172195  0.25621356  0.25617282  1
  Se  Se0  1  0.71711905  0.71013707  0.79972080  1
  Se  Se1  1  0.28288095  0.28986293  0.20027920  1
  Se  Se2  1  0.72452236  0.01991721  0.72514052  1
  Se  Se3  1  0.27547764  0.98008279  0.27485948  1
  Se  Se4  1  0.64933432  0.91274329  0.05147150  1
  Se  Se5  1  0.35066568  0.08725671  0.94852850  1
  Se  Se6  1  0.84314035  0.72109927  0.17131830  1
  Se  Se7  1  0.15685965  0.27890073  0.82868170  1
  Se  Se8  1  0.09688179  0.70971083  0.92348459  1
  Se  Se9  1  0.90311821  0.29028917  0.07651541  1
  Se  Se10  1  0.02698837  0.90031442  0.68912429  1
  Se  Se11  1  0.97301163  0.09968558  0.31087571  1
  Se  Se12  1  0.47781754  0.74044842  0.54396371  1
  Se  Se13  1  0.52218246  0.25955158  0.45603629  1
  Se  Se14  1  0.51511855  0.64971427  0.20435432  1
  Se  Se15  1  0.48488145  0.35028573  0.79564568  1
  Se  Se16  1  0.10244383  0.62723295  0.62528482  1
  Se  Se17  1  0.89755617  0.37276705  0.37471518  1
loop_
_geom_bond_atom_site_label_1
_geom_bond_atom_site_label_2
_geom_bond_distance
_geom_bond_site_symmetry_2
Rb0 Se10 3.518953 1_555
Rb0 Se12 3.543522 1_555
Rb0 Se2 3.631259 1_565
Rb0 Se13 3.632636 1_565
Rb0 Se5 3.635103 1_565
Rb0 Se15 3.789385 1_565
Rb0 Se3 3.793804 1_555
Rb0 Se16 3.936355 1_555
Rb1 Se11 3.518953 1_555
Rb1 Se13 3.543522 1_555
Rb1 Se3 3.631259 1_545
Rb1 Se12 3.632636 1_545
Rb1 Se4 3.635103 1_545
Rb1 Se14 3.789385 1_545
Rb1 Se2 3.793804 1_555
Rb1 Se17 3.936355 1_555
Rb2 Se16 3.489312 1_555
Rb2 Se4 3.497639 1_556
Rb2 Se0 3.549670 1_555
Rb2 Se15 3.550865 1_555
Rb2 Se14 3.582546 1_556
Rb2 Se8 3.623977 1_555
Rb2 Se7 3.628034 1_555
Rb3 Se17 3.489312 1_555
Rb3 Se5 3.497639 1_554
Rb3 Se1 3.549670 1_555
Rb3 Se14 3.550865 1_555
Rb3 Se15 3.582546 1_554
Rb3 Se9 3.623977 1_555
Rb3 Se6 3.628034 1_555
Rb4 Se15 3.441230 1_555
Rb4 Se11 3.598408 1_455
Rb4 Se17 3.644671 1_455
Rb4 Se13 3.686328 1_555
Rb4 Se7 3.762483 1_555
Rb4 Se16 3.796449 1_555
Rb4 Se1 3.796619 1_555
Rb4 Se12 3.834103 1_555
Rb5 Se14 3.441230 1_555
Rb5 Se10 3.598408 1_655
Rb5 Se16 3.644671 1_655
Rb5 Se12 3.686328 1_555
Rb5 Se6 3.762483 1_555
Rb5 Se17 3.796449 1_555
Rb5 Se0 3.796619 1_555
Rb5 Se13 3.834103 1_555
Rb6 Se3 3.642740 1_555
Rb6 Se17 3.697784 1_455
Rb6 Se14 3.701072 1_555
Rb6 Se9 3.761190 1_455
Rb6 Se12 3.764178 1_555
Rb6 Se8 3.775569 1_554
Rb6 Se6 3.863846 1_455
Rb7 Se2 3.642740 1_555
Rb7 Se16 3.697784 1_655
Rb7 Se15 3.701072 1_555
Rb7 Se8 3.761190 1_655
Rb7 Se13 3.764178 1_555
Rb7 Se9 3.775569 1_556
Rb7 Se7 3.863846 1_655
B0 B10 1.765314 1_655
B0 B4 1.769471 1_556
B0 B2 1.773506 1_565
B0 B6 1.778046 1_556
B0 B8 1.778648 1_655
B0 Se0 1.999683 1_555
B1 B11 1.765314 1_455
B1 B5 1.769471 1_554
B1 B3 1.773506 1_545
B1 B7 1.778046 1_554
B1 B9 1.778648 1_455
B1 Se1 1.999683 1_555
B2 B4 1.777225 1_546
B2 B9 1.789924 1_556
B2 B7 1.792591 1_655
B2 Se2 2.008374 1_555
B3 B5 1.777225 1_564
B3 B8 1.789924 1_554
B3 B6 1.792591 1_455
B3 Se3 2.008374 1_555
B4 B6 1.778650 1_555
B4 B9 1.778746 1_565
B4 Se4 1.997089 1_555
B5 B7 1.778650 1_555
B5 B8 1.778746 1_545
B5 Se5 1.997089 1_555
B6 B8 1.787307 1_654
B6 Se6 2.002230 1_555
B7 B9 1.787307 1_456
B7 Se7 2.002230 1_555
B8 Se8 2.005719 1_555
B9 Se9 2.005719 1_555
B10 B5 1.768074 1_565
B10 B7 1.772337 1_565
B10 B2 1.776212 1_465
B10 B8 1.778101 1_555
B10 Se10 1.994320 1_555
B11 B4 1.768074 1_545
B11 B6 1.772337 1_545
B11 B3 1.776212 1_645
B11 B9 1.778101 1_555
B11 Se11 1.994320 1_555
B12 Se12 1.903672 1_555
B12 Se0 1.974228 1_555
B12 Se2 1.994249 1_565
B13 Se13 1.903672 1_555
B13 Se1 1.974228 1_555
B13 Se3 1.994249 1_545
B14 Se14 1.904268 1_555
B14 Se4 1.973198 1_555
B14 Se6 1.992203 1_555
B14 Rb1 3.660672 1_565
B15 Se15 1.904268 1_555
B15 Se5 1.973198 1_555
B15 Se7 1.992203 1_555
B15 Rb0 3.660672 1_545
B16 Se16 1.896980 1_555
B16 Se10 1.975353 1_555
B16 Se8 1.994586 1_555
B17 Se17 1.896980 1_555
B17 Se11 1.975353 1_555
B17 Se9 1.994586 1_555
