# generated using pymatgen
data_Nd5Cu5O13
_symmetry_space_group_name_H-M   'P 1'
_cell_length_a   8.47641900
_cell_length_b   8.47641900
_cell_length_c   3.83474500
_cell_angle_alpha   90.00000000
_cell_angle_beta   90.00000000
_cell_angle_gamma   90.00000000
_symmetry_Int_Tables_number   1
_chemical_formula_structural   Nd5Cu5O13
_chemical_formula_sum   'Nd5 Cu5 O13'
_cell_volume   275.52519754
_cell_formula_units_Z   1
loop_
 _symmetry_equiv_pos_site_id
 _symmetry_equiv_pos_as_xyz
  1  'x, y, z'
loop_
 _atom_site_type_symbol
 _atom_site_label
 _atom_site_symmetry_multiplicity
 _atom_site_fract_x
 _atom_site_fract_y
 _atom_site_fract_z
 _atom_site_occupancy
  Nd  Nd0  1  0.84740000  0.73675700  0.50000000  1
  Nd  Nd1  1  0.26324300  0.84740000  0.50000000  1
  Nd  Nd2  1  0.50000000  0.50000000  0.50000000  1
  Nd  Nd3  1  0.15260000  0.26324300  0.50000000  1
  Nd  Nd4  1  0.73675700  0.15260000  0.50000000  1
  Cu  Cu0  1  0.43409000  0.16005900  0.00000000  1
  Cu  Cu1  1  0.56591000  0.83994100  0.00000000  1
  Cu  Cu2  1  0.16005900  0.56591000  0.00000000  1
  Cu  Cu3  1  0.83994100  0.43409000  0.00000000  1
  Cu  Cu4  1  0.00000000  0.00000000  0.00000000  1
  O  O0  1  0.70080000  0.61238900  0.00000000  1
  O  O1  1  0.24103100  0.04202400  0.00000000  1
  O  O2  1  0.43427400  0.17979900  0.50000000  1
  O  O3  1  0.29920000  0.38761100  0.00000000  1
  O  O4  1  0.82020100  0.43427400  0.50000000  1
  O  O5  1  0.75896900  0.95797600  0.00000000  1
  O  O6  1  0.95797600  0.24103100  0.00000000  1
  O  O7  1  0.61238900  0.29920000  0.00000000  1
  O  O8  1  0.38761100  0.70080000  0.00000000  1
  O  O9  1  0.17979900  0.56572600  0.50000000  1
  O  O10  1  0.04202400  0.75896900  0.00000000  1
  O  O11  1  0.00000000  0.00000000  0.50000000  1
  O  O12  1  0.56572600  0.82020100  0.50000000  1
loop_
_geom_bond_atom_site_label_1
_geom_bond_atom_site_label_2
_geom_bond_distance
_geom_bond_site_symmetry_2
Nd0 O12 2.490151 1_555
Nd0 O0 2.516308 1_556
Nd0 O0 2.516308 1_555
Nd0 O10 2.536400 1_656
Nd0 O10 2.536400 1_655
Nd0 O4 2.574317 1_555
Nd0 O11 2.579167 1_665
Nd0 O5 2.784664 1_555
Nd0 O5 2.784664 1_556
Nd1 O9 2.490151 1_555
Nd1 O8 2.516308 1_556
Nd1 O8 2.516308 1_555
Nd1 O1 2.536400 1_565
Nd1 O1 2.536400 1_566
Nd1 O12 2.574317 1_555
Nd1 O11 2.579167 1_565
Nd1 O10 2.784664 1_556
Nd1 O10 2.784664 1_555
Nd2 O3 2.735123 1_556
Nd2 O3 2.735123 1_555
Nd2 O7 2.735123 1_556
Nd2 O0 2.735123 1_555
Nd2 O0 2.735123 1_556
Nd2 O7 2.735123 1_555
Nd2 O8 2.735123 1_556
Nd2 O8 2.735123 1_555
Nd2 O4 2.770747 1_555
Nd2 O12 2.770747 1_555
Nd2 O2 2.770747 1_555
Nd2 O9 2.770747 1_555
Nd3 O2 2.490151 1_555
Nd3 O3 2.516308 1_556
Nd3 O3 2.516308 1_555
Nd3 O6 2.536400 1_455
Nd3 O6 2.536400 1_456
Nd3 O9 2.574317 1_555
Nd3 O11 2.579167 1_555
Nd3 O1 2.784664 1_555
Nd3 O1 2.784664 1_556
Nd4 O4 2.490151 1_555
Nd4 O7 2.516308 1_555
Nd4 O7 2.516308 1_556
Nd4 O5 2.536400 1_545
Nd4 O5 2.536400 1_546
Nd4 O2 2.574317 1_555
Nd4 O11 2.579167 1_655
Nd4 O6 2.784664 1_556
Nd4 O6 2.784664 1_555
Cu0 O7 1.917072 1_555
Cu0 O1 1.918070 1_555
Cu0 O2 1.924660 1_555
Cu0 O2 1.924660 1_554
Cu0 O3 2.242253 1_555
Cu1 O8 1.917072 1_555
Cu1 O5 1.918070 1_555
Cu1 O12 1.924660 1_554
Cu1 O12 1.924660 1_555
Cu1 O0 2.242253 1_555
Cu2 O3 1.917072 1_555
Cu2 O10 1.918070 1_555
Cu2 O9 1.924660 1_554
Cu2 O9 1.924660 1_555
Cu2 O8 2.242253 1_555
Cu3 O0 1.917072 1_555
Cu3 O6 1.918070 1_555
Cu3 O4 1.924660 1_555
Cu3 O4 1.924660 1_554
Cu3 O7 2.242253 1_555
Cu4 O11 1.917372 1_555
Cu4 O11 1.917372 1_554
Cu4 O10 2.073900 1_545
Cu4 O1 2.073900 1_555
Cu4 O5 2.073900 1_445
Cu4 O6 2.073900 1_455
