# generated using pymatgen
data_Pr4Se3(O5F3)2
_symmetry_space_group_name_H-M   'P 1'
_cell_length_a   11.87695907
_cell_length_b   11.87695907
_cell_length_c   8.44072339
_cell_angle_alpha   81.32627781
_cell_angle_beta   81.32627781
_cell_angle_gamma   35.28785153
_symmetry_Int_Tables_number   1
_chemical_formula_structural   Pr4Se3(O5F3)2
_chemical_formula_sum   'Pr8 Se6 O20 F12'
_cell_volume   679.16225102
_cell_formula_units_Z   2
loop_
 _symmetry_equiv_pos_site_id
 _symmetry_equiv_pos_as_xyz
  1  'x, y, z'
loop_
 _atom_site_type_symbol
 _atom_site_label
 _atom_site_symmetry_multiplicity
 _atom_site_fract_x
 _atom_site_fract_y
 _atom_site_fract_z
 _atom_site_occupancy
  Pr  Pr0  1  0.85555100  0.71906100  0.66960100  1
  Pr  Pr1  1  0.54377200  0.71448300  0.46935600  1
  Pr  Pr2  1  0.45622800  0.28551700  0.53064400  1
  Pr  Pr3  1  0.71906100  0.85555100  0.16960100  1
  Pr  Pr4  1  0.28551700  0.45622800  0.03064400  1
  Pr  Pr5  1  0.14444900  0.28093900  0.33039900  1
  Pr  Pr6  1  0.28093900  0.14444900  0.83039900  1
  Pr  Pr7  1  0.71448300  0.54377200  0.96935600  1
  Se  Se0  1  0.98411700  0.83010700  0.36638700  1
  Se  Se1  1  0.38961900  0.61038100  0.75000000  1
  Se  Se2  1  0.16989300  0.01588300  0.13361300  1
  Se  Se3  1  0.83010700  0.98411700  0.86638700  1
  Se  Se4  1  0.01588300  0.16989300  0.63361300  1
  Se  Se5  1  0.61038100  0.38961900  0.25000000  1
  O  O0  1  0.58208400  0.54044600  0.75637300  1
  O  O1  1  0.74905400  0.29028900  0.08019800  1
  O  O2  1  0.03948500  0.24990300  0.09966900  1
  O  O3  1  0.41791600  0.45955400  0.24362700  1
  O  O4  1  0.10745100  0.63722600  0.50845000  1
  O  O5  1  0.89254900  0.36277400  0.49155000  1
  O  O6  1  0.63722600  0.10745100  0.00845000  1
  O  O7  1  0.75009700  0.96051500  0.40033100  1
  O  O8  1  0.25094600  0.70971100  0.91980200  1
  O  O9  1  0.74320000  0.02410400  0.69085000  1
  O  O10  1  0.25680000  0.97589600  0.30915000  1
  O  O11  1  0.36277400  0.89254900  0.99155000  1
  O  O12  1  0.02410400  0.74320000  0.19085000  1
  O  O13  1  0.54044600  0.58208400  0.25637300  1
  O  O14  1  0.70971100  0.25094600  0.41980200  1
  O  O15  1  0.45955400  0.41791600  0.74362700  1
  O  O16  1  0.29028900  0.74905400  0.58019800  1
  O  O17  1  0.96051500  0.75009700  0.90033100  1
  O  O18  1  0.97589600  0.25680000  0.80915000  1
  O  O19  1  0.24990300  0.03948500  0.59966900  1
  F  F0  1  0.51876200  0.03496000  0.63275700  1
  F  F1  1  0.64588800  0.71180000  0.70202100  1
  F  F2  1  0.35411200  0.28820000  0.29797900  1
  F  F3  1  0.64383800  0.84825600  0.91971400  1
  F  F4  1  0.84825600  0.64383800  0.41971400  1
  F  F5  1  0.96504000  0.48123800  0.86724300  1
  F  F6  1  0.71180000  0.64588800  0.20202100  1
  F  F7  1  0.35616200  0.15174400  0.08028600  1
  F  F8  1  0.48123800  0.96504000  0.36724300  1
  F  F9  1  0.03496000  0.51876200  0.13275700  1
  F  F10  1  0.28820000  0.35411200  0.79797900  1
  F  F11  1  0.15174400  0.35616200  0.58028600  1
loop_
_geom_bond_atom_site_label_1
_geom_bond_atom_site_label_2
_geom_bond_distance
_geom_bond_site_symmetry_2
O0 Se1 1.685850 1_555
O0 Pr7 2.584882 1_555
O0 Pr1 2.763229 1_555
O1 Se5 1.668708 1_555
O1 Pr7 2.712184 1_554
O2 Se2 1.752738 1_555
O2 Pr7 2.533802 1_454
O2 Pr5 2.679906 1_555
O2 Pr6 2.826210 1_554
O3 Se5 1.685850 1_555
O3 Pr4 2.584882 1_555
O3 Pr2 2.763229 1_555
O4 Se0 1.747733 1_455
O4 Pr0 2.483940 1_455
O4 Pr2 2.528466 1_555
O5 Se4 1.747733 1_655
O5 Pr5 2.483940 1_655
O5 Pr1 2.528466 1_555
O6 Se3 1.747733 1_544
O6 Pr3 2.483940 1_545
O6 Pr4 2.528466 1_555
O7 Se0 1.752738 1_555
O7 Pr2 2.533802 1_565
O7 Pr3 2.679906 1_555
O7 Pr0 2.826210 1_555
O8 Se1 1.668708 1_555
O8 Pr4 2.712184 1_556
O9 Se3 1.713196 1_545
O9 Pr2 2.435839 1_555
O9 Pr0 2.677725 1_545
O10 Se2 1.713196 1_565
O10 Pr1 2.435839 1_555
O10 Pr5 2.677725 1_565
O11 Se2 1.747733 1_566
O11 Pr6 2.483940 1_565
O11 Pr7 2.528466 1_555
O12 Se0 1.713196 1_455
O12 Pr4 2.435839 1_555
O12 Pr3 2.677725 1_455
O13 Se5 1.685850 1_555
O13 Pr1 2.584882 1_555
O13 Pr7 2.763229 1_554
O14 Se5 1.668708 1_555
O14 Pr2 2.712184 1_555
O15 Se1 1.685850 1_555
O15 Pr2 2.584882 1_555
O15 Pr4 2.763229 1_556
O16 Se1 1.668708 1_555
O16 Pr1 2.712184 1_555
O17 Se3 1.752738 1_555
O17 Pr4 2.533802 1_656
O17 Pr0 2.679906 1_555
O17 Pr3 2.826210 1_556
O18 Se4 1.713196 1_655
O18 Pr7 2.435839 1_555
O18 Pr6 2.677725 1_655
O19 Se4 1.752738 1_555
O19 Pr1 2.533802 1_545
O19 Pr6 2.679906 1_555
O19 Pr5 2.826210 1_555
F0 Pr6 2.385190 1_555
F0 Pr0 2.386756 1_545
F0 Pr2 2.441613 1_555
F1 Pr1 2.442364 1_555
F1 Pr7 2.506029 1_555
F1 Pr0 2.533998 1_555
F2 Pr2 2.442364 1_555
F2 Pr4 2.506029 1_555
F2 Pr5 2.533998 1_555
F3 Pr3 2.450389 1_556
F3 Pr0 2.492234 1_555
F3 Pr6 2.635922 1_565
F3 Pr7 2.941596 1_555
F4 Pr0 2.450389 1_555
F4 Pr3 2.492234 1_555
F4 Pr5 2.635922 1_655
F4 Pr1 2.941596 1_555
F5 Pr0 2.385190 1_555
F5 Pr6 2.386756 1_655
F5 Pr7 2.441613 1_555
F6 Pr7 2.442364 1_554
F6 Pr1 2.506029 1_555
F6 Pr3 2.533998 1_555
F7 Pr6 2.450389 1_554
F7 Pr5 2.492234 1_555
F7 Pr3 2.635922 1_545
F7 Pr4 2.941596 1_555
F8 Pr3 2.385190 1_555
F8 Pr5 2.386756 1_565
F8 Pr1 2.441613 1_555
F9 Pr5 2.385190 1_555
F9 Pr3 2.386756 1_455
F9 Pr4 2.441613 1_555
F10 Pr4 2.442364 1_556
F10 Pr2 2.506029 1_555
F10 Pr6 2.533998 1_555
F11 Pr5 2.450389 1_555
F11 Pr6 2.492234 1_555
F11 Pr0 2.635922 1_455
F11 Pr2 2.941596 1_555
