# generated using pymatgen
data_Cs2Te13
_symmetry_space_group_name_H-M   'P 1'
_cell_length_a   7.39533500
_cell_length_b   14.11112000
_cell_length_c   23.45118100
_cell_angle_alpha   90.00000000
_cell_angle_beta   90.00000000
_cell_angle_gamma   90.00000000
_symmetry_Int_Tables_number   1
_chemical_formula_structural   Cs2Te13
_chemical_formula_sum   'Cs8 Te52'
_cell_volume   2447.28222319
_cell_formula_units_Z   4
loop_
 _symmetry_equiv_pos_site_id
 _symmetry_equiv_pos_as_xyz
  1  'x, y, z'
loop_
 _atom_site_type_symbol
 _atom_site_label
 _atom_site_symmetry_multiplicity
 _atom_site_fract_x
 _atom_site_fract_y
 _atom_site_fract_z
 _atom_site_occupancy
  Cs  Cs0  1  0.88551100  0.25000000  0.50000000  1
  Cs  Cs1  1  0.11448900  0.75000000  0.00000000  1
  Cs  Cs2  1  0.11448900  0.75000000  0.50000000  1
  Cs  Cs3  1  0.88551100  0.25000000  0.00000000  1
  Cs  Cs4  1  0.64298100  0.52579600  0.25000000  1
  Cs  Cs5  1  0.64298100  0.97420400  0.75000000  1
  Cs  Cs6  1  0.35701900  0.02579600  0.25000000  1
  Cs  Cs7  1  0.35701900  0.47420400  0.75000000  1
  Te  Te0  1  0.29602800  0.09596600  0.45206000  1
  Te  Te1  1  0.29602800  0.40403400  0.54794000  1
  Te  Te2  1  0.70397200  0.59596600  0.04794000  1
  Te  Te3  1  0.70397200  0.90403400  0.95206000  1
  Te  Te4  1  0.70397200  0.90403400  0.54794000  1
  Te  Te5  1  0.70397200  0.59596600  0.45206000  1
  Te  Te6  1  0.29602800  0.40403400  0.95206000  1
  Te  Te7  1  0.29602800  0.09596600  0.04794000  1
  Te  Te8  1  0.06523600  0.96571900  0.39781300  1
  Te  Te9  1  0.06523600  0.53428100  0.60218700  1
  Te  Te10  1  0.93476400  0.46571900  0.10218700  1
  Te  Te11  1  0.93476400  0.03428100  0.89781300  1
  Te  Te12  1  0.93476400  0.03428100  0.60218700  1
  Te  Te13  1  0.93476400  0.46571900  0.39781300  1
  Te  Te14  1  0.06523600  0.53428100  0.89781300  1
  Te  Te15  1  0.06523600  0.96571900  0.10218700  1
  Te  Te16  1  0.69286600  0.02810800  0.42890300  1
  Te  Te17  1  0.69286600  0.47189200  0.57109700  1
  Te  Te18  1  0.30713400  0.52810800  0.07109700  1
  Te  Te19  1  0.30713400  0.97189200  0.92890300  1
  Te  Te20  1  0.30713400  0.97189200  0.57109700  1
  Te  Te21  1  0.30713400  0.52810800  0.42890300  1
  Te  Te22  1  0.69286600  0.47189200  0.92890300  1
  Te  Te23  1  0.69286600  0.02810800  0.07109700  1
  Te  Te24  1  0.74153500  0.16716700  0.33540100  1
  Te  Te25  1  0.74153500  0.33283300  0.66459900  1
  Te  Te26  1  0.25846500  0.66716700  0.16459900  1
  Te  Te27  1  0.25846500  0.83283300  0.83540100  1
  Te  Te28  1  0.25846500  0.83283300  0.66459900  1
  Te  Te29  1  0.25846500  0.66716700  0.33540100  1
  Te  Te30  1  0.74153500  0.33283300  0.83540100  1
  Te  Te31  1  0.74153500  0.16716700  0.16459900  1
  Te  Te32  1  0.54538300  0.32492300  0.37249300  1
  Te  Te33  1  0.54538300  0.17507700  0.62750700  1
  Te  Te34  1  0.45461700  0.82492300  0.12750700  1
  Te  Te35  1  0.45461700  0.67507700  0.87249300  1
  Te  Te36  1  0.45461700  0.67507700  0.62750700  1
  Te  Te37  1  0.45461700  0.82492300  0.37249300  1
  Te  Te38  1  0.54538300  0.17507700  0.87249300  1
  Te  Te39  1  0.54538300  0.32492300  0.12750700  1
  Te  Te40  1  0.18906600  0.26122800  0.34522800  1
  Te  Te41  1  0.18906600  0.23877200  0.65477200  1
  Te  Te42  1  0.81093400  0.76122800  0.15477200  1
  Te  Te43  1  0.81093400  0.73877200  0.84522800  1
  Te  Te44  1  0.81093400  0.73877200  0.65477200  1
  Te  Te45  1  0.81093400  0.76122800  0.34522800  1
  Te  Te46  1  0.18906600  0.23877200  0.84522800  1
  Te  Te47  1  0.18906600  0.26122800  0.15477200  1
  Te  Te48  1  0.11049600  0.37745100  0.25000000  1
  Te  Te49  1  0.11049600  0.12254900  0.75000000  1
  Te  Te50  1  0.88950400  0.87745100  0.25000000  1
  Te  Te51  1  0.88950400  0.62254900  0.75000000  1
loop_
_geom_bond_atom_site_label_1
_geom_bond_atom_site_label_2
_geom_bond_distance
_geom_bond_site_symmetry_2
Cs0 Te17 3.822785 1_555
Cs0 Te16 3.822785 1_555
Cs0 Te13 3.891220 1_555
Cs0 Te12 3.891220 1_555
Cs0 Te0 3.899384 1_655
Cs0 Te1 3.899384 1_655
Cs0 Te32 4.047968 1_555
Cs0 Te33 4.047968 1_555
Cs0 Te24 4.171314 1_555
Cs0 Te25 4.171314 1_555
Cs0 Te41 4.270660 1_655
Cs0 Te40 4.270660 1_655
Cs1 Te19 3.822785 1_554
Cs1 Te18 3.822785 1_555
Cs1 Te15 3.891220 1_555
Cs1 Te14 3.891220 1_554
Cs1 Te3 3.899384 1_454
Cs1 Te2 3.899384 1_455
Cs1 Te34 4.047968 1_555
Cs1 Te35 4.047968 1_554
Cs1 Te26 4.171314 1_555
Cs1 Te27 4.171314 1_554
Cs1 Te42 4.270660 1_455
Cs1 Te43 4.270660 1_454
Cs2 Te20 3.822785 1_555
Cs2 Te21 3.822785 1_555
Cs2 Te8 3.891220 1_555
Cs2 Te9 3.891220 1_555
Cs2 Te5 3.899384 1_455
Cs2 Te4 3.899384 1_455
Cs2 Te37 4.047968 1_555
Cs2 Te36 4.047968 1_555
Cs2 Te29 4.171314 1_555
Cs2 Te28 4.171314 1_555
Cs2 Te45 4.270660 1_455
Cs2 Te44 4.270660 1_455
Cs3 Te22 3.822785 1_554
Cs3 Te23 3.822785 1_555
Cs3 Te10 3.891220 1_555
Cs3 Te11 3.891220 1_554
Cs3 Te7 3.899384 1_655
Cs3 Te6 3.899384 1_654
Cs3 Te38 4.047968 1_554
Cs3 Te39 4.047968 1_555
Cs3 Te31 4.171314 1_555
Cs3 Te30 4.171314 1_554
Cs3 Te47 4.270660 1_655
Cs3 Te46 4.270660 1_654
Cs4 Te29 4.009597 1_555
Cs4 Te26 4.009597 1_555
Cs4 Te48 4.041755 1_655
Cs4 Te39 4.099689 1_555
Cs4 Te32 4.099689 1_555
Cs4 Te10 4.170226 1_555
Cs4 Te13 4.170226 1_555
Cs4 Te42 4.191304 1_555
Cs4 Te45 4.191304 1_555
Cs4 Te48 4.459715 1_555
Cs5 Te27 4.009597 1_555
Cs5 Te28 4.009597 1_555
Cs5 Te49 4.041755 1_665
Cs5 Te33 4.099689 1_565
Cs5 Te38 4.099689 1_565
Cs5 Te12 4.170226 1_565
Cs5 Te11 4.170226 1_565
Cs5 Te43 4.191304 1_555
Cs5 Te44 4.191304 1_555
Cs5 Te49 4.459715 1_565
Cs6 Te24 4.009597 1_555
Cs6 Te31 4.009597 1_555
Cs6 Te50 4.041755 1_445
Cs6 Te37 4.099689 1_545
Cs6 Te34 4.099689 1_545
Cs6 Te15 4.170226 1_545
Cs6 Te8 4.170226 1_545
Cs6 Te40 4.191304 1_555
Cs6 Te47 4.191304 1_555
Cs6 Te50 4.459715 1_545
Cs7 Te25 4.009597 1_555
Cs7 Te30 4.009597 1_555
Cs7 Te51 4.041755 1_455
Cs7 Te36 4.099689 1_555
Cs7 Te35 4.099689 1_555
Cs7 Te14 4.170226 1_555
Cs7 Te9 4.170226 1_555
Cs7 Te41 4.191304 1_555
Cs7 Te46 4.191304 1_555
Cs7 Te51 4.459715 1_555
Te0 Te8 2.812381 1_545
Te0 Te16 3.134418 1_555
Te0 Te20 3.296199 1_545
Te1 Te9 2.812381 1_555
Te1 Te17 3.134418 1_555
Te1 Te21 3.296199 1_555
Te2 Te22 3.296199 1_554
Te10 Te2 2.812381 1_555
Te10 Te18 2.981622 1_655
Te11 Te3 2.812381 1_545
Te11 Te19 2.981622 1_645
Te12 Te4 2.812381 1_545
Te12 Te20 2.981622 1_645
Te13 Te5 2.812381 1_555
Te13 Te21 2.981622 1_655
Te14 Te6 2.812381 1_555
Te14 Te22 2.981622 1_455
Te15 Te7 2.812381 1_565
Te15 Te23 2.981622 1_465
Te16 Te24 2.964482 1_555
Te16 Te8 2.981622 1_645
Te16 Te4 3.296199 1_545
Te17 Te25 2.964482 1_555
Te17 Te9 2.981622 1_655
Te17 Te5 3.296199 1_555
Te18 Te26 2.964482 1_555
Te18 Te2 3.134418 1_555
Te18 Te6 3.296199 1_554
Te19 Te27 2.964482 1_555
Te19 Te3 3.134418 1_555
Te19 Te7 3.296199 1_566
Te20 Te28 2.964482 1_555
Te20 Te4 3.134418 1_555
Te21 Te29 2.964482 1_555
Te21 Te5 3.134418 1_555
Te22 Te30 2.964482 1_555
Te22 Te6 3.134418 1_555
Te23 Te31 2.964482 1_555
Te23 Te7 3.134418 1_555
Te23 Te3 3.296199 1_544
Te24 Te32 2.795799 1_555
Te25 Te33 2.795799 1_555
Te26 Te34 2.795799 1_555
Te27 Te35 2.795799 1_555
Te28 Te36 2.795799 1_555
Te29 Te37 2.795799 1_555
Te30 Te38 2.795799 1_555
Te31 Te39 2.795799 1_555
Te32 Te40 2.856632 1_555
Te33 Te41 2.856632 1_555
Te34 Te42 2.856632 1_555
Te35 Te43 2.856632 1_555
Te36 Te44 2.856632 1_555
Te37 Te45 2.856632 1_555
Te38 Te46 2.856632 1_555
Te39 Te47 2.856632 1_555
Te40 Te48 2.831001 1_555
Te41 Te49 2.831001 1_555
Te42 Te50 2.831001 1_555
Te43 Te51 2.831001 1_555
Te44 Te51 2.831001 1_555
Te45 Te50 2.831001 1_555
Te46 Te49 2.831001 1_555
Te47 Te48 2.831001 1_555
