# generated using pymatgen
data_WO3
_symmetry_space_group_name_H-M   'P 1'
_cell_length_a   7.67572400
_cell_length_b   7.73540900
_cell_length_c   7.77129500
_cell_angle_alpha   90.00000000
_cell_angle_beta   90.00000000
_cell_angle_gamma   90.00000000
_symmetry_Int_Tables_number   1
_chemical_formula_structural   WO3
_chemical_formula_sum   'W8 O24'
_cell_volume   461.41958770
_cell_formula_units_Z   8
loop_
 _symmetry_equiv_pos_site_id
 _symmetry_equiv_pos_as_xyz
  1  'x, y, z'
loop_
 _atom_site_type_symbol
 _atom_site_label
 _atom_site_symmetry_multiplicity
 _atom_site_fract_x
 _atom_site_fract_y
 _atom_site_fract_z
 _atom_site_occupancy
  W  W0  1  0.25066500  0.51627300  0.73429900  1
  W  W1  1  0.24933500  0.01627300  0.76570100  1
  W  W2  1  0.74933500  0.48372700  0.26570100  1
  W  W3  1  0.75066500  0.98372700  0.23429900  1
  W  W4  1  0.24933500  0.51627300  0.23429900  1
  W  W5  1  0.25066500  0.01627300  0.26570100  1
  W  W6  1  0.75066500  0.48372700  0.76570100  1
  W  W7  1  0.74933500  0.98372700  0.73429900  1
  O  O0  1  0.99991100  0.51289400  0.75755500  1
  O  O1  1  0.50008900  0.01289400  0.74244500  1
  O  O2  1  0.00008900  0.48710600  0.24244500  1
  O  O3  1  0.49991100  0.98710600  0.25755500  1
  O  O4  1  0.00008900  0.98710600  0.75755500  1
  O  O5  1  0.49991100  0.48710600  0.74244500  1
  O  O6  1  0.99991100  0.01289400  0.24244500  1
  O  O7  1  0.50008900  0.51289400  0.25755500  1
  O  O8  1  0.26286700  0.75639900  0.74531300  1
  O  O9  1  0.23713300  0.25639900  0.75468700  1
  O  O10  1  0.73713300  0.24360100  0.25468700  1
  O  O11  1  0.76286700  0.74360100  0.24531300  1
  O  O12  1  0.23713300  0.75639900  0.24531300  1
  O  O13  1  0.26286700  0.25639900  0.25468700  1
  O  O14  1  0.76286700  0.24360100  0.75468700  1
  O  O15  1  0.73713300  0.74360100  0.74531300  1
  O  O16  1  0.75760700  0.49658700  0.50341400  1
  O  O17  1  0.24239300  0.00341300  0.50341400  1
  O  O18  1  0.74239300  0.49658700  0.00341400  1
  O  O19  1  0.75760700  0.99658700  0.49658600  1
  O  O20  1  0.25760700  0.00341300  0.00341400  1
  O  O21  1  0.24239300  0.50341300  0.49658600  1
  O  O22  1  0.74239300  0.99658700  0.99658600  1
  O  O23  1  0.25760700  0.50341300  0.99658600  1
loop_
_geom_bond_atom_site_label_1
_geom_bond_atom_site_label_2
_geom_bond_distance
_geom_bond_site_symmetry_2
O0 W6 1.927441 1_555
O0 W0 1.933362 1_655
O1 W7 1.927441 1_545
O1 W1 1.933362 1_555
O2 W4 1.927441 1_555
O2 W2 1.933362 1_455
O3 W5 1.927441 1_565
O3 W3 1.933362 1_555
O4 W1 1.927441 1_565
O4 W7 1.933362 1_455
O5 W0 1.927441 1_555
O5 W6 1.933362 1_555
O6 W3 1.927441 1_545
O6 W5 1.933362 1_655
O7 W2 1.927441 1_555
O7 W4 1.933362 1_555
O8 W0 1.861801 1_555
O8 W1 2.019139 1_565
O9 W1 1.861801 1_555
O9 W0 2.019139 1_555
O10 W2 1.861801 1_555
O10 W3 2.019139 1_545
O11 W3 1.861801 1_555
O11 W2 2.019139 1_555
O12 W4 1.861801 1_555
O12 W5 2.019139 1_565
O13 W5 1.861801 1_555
O13 W4 2.019139 1_555
O14 W6 1.861801 1_555
O14 W7 2.019139 1_545
O15 W7 1.861801 1_555
O15 W6 2.019139 1_555
O16 W2 1.851104 1_555
O16 W6 2.041431 1_555
O17 W5 1.851104 1_555
O17 W1 2.041431 1_555
O18 W6 1.851104 1_554
O18 W2 2.041431 1_555
O19 W7 1.851104 1_555
O19 W3 2.041431 1_555
O20 W1 1.851104 1_554
O20 W5 2.041431 1_555
O21 W0 1.851104 1_555
O21 W4 2.041431 1_555
O22 W3 1.851104 1_556
O22 W7 2.041431 1_555
O23 W4 1.851104 1_556
O23 W0 2.041431 1_555
