# generated using pymatgen
data_Ca9Pr11Mn20O60
_symmetry_space_group_name_H-M   'P 1'
_cell_length_a   5.44390710
_cell_length_b   5.47652610
_cell_length_c   38.42774800
_cell_angle_alpha   90.00000000
_cell_angle_beta   90.00000000
_cell_angle_gamma   90.02231976
_symmetry_Int_Tables_number   1
_chemical_formula_structural   Ca9Pr11Mn20O60
_chemical_formula_sum   'Ca9 Pr11 Mn20 O60'
_cell_volume   1145.67323896
_cell_formula_units_Z   1
loop_
 _symmetry_equiv_pos_site_id
 _symmetry_equiv_pos_as_xyz
  1  'x, y, z'
loop_
 _atom_site_type_symbol
 _atom_site_label
 _atom_site_symmetry_multiplicity
 _atom_site_fract_x
 _atom_site_fract_y
 _atom_site_fract_z
 _atom_site_occupancy
  Ca  Ca0  1  0.49115000  0.46013000  0.34940700  1
  Ca  Ca1  1  0.49115000  0.46013000  0.15059300  1
  Ca  Ca2  1  0.51041400  0.53792300  0.65052700  1
  Ca  Ca3  1  0.51041400  0.53792300  0.84947300  1
  Ca  Ca4  1  0.99123400  0.03981600  0.25000000  1
  Ca  Ca5  1  0.99016500  0.03793000  0.05095300  1
  Ca  Ca6  1  0.98966800  0.03784000  0.65036100  1
  Ca  Ca7  1  0.99016500  0.03793000  0.44904700  1
  Ca  Ca8  1  0.98966800  0.03784000  0.84963900  1
  Pr  Pr0  1  0.00834400  0.96398500  0.15044800  1
  Pr  Pr1  1  0.00834400  0.96398500  0.34955200  1
  Pr  Pr2  1  0.00725300  0.96539400  0.55050400  1
  Pr  Pr3  1  0.00661800  0.96436500  0.75000000  1
  Pr  Pr4  1  0.00725300  0.96539400  0.94949600  1
  Pr  Pr5  1  0.49345000  0.46491600  0.55101900  1
  Pr  Pr6  1  0.49393500  0.46440200  0.75000000  1
  Pr  Pr7  1  0.49345000  0.46491600  0.94898100  1
  Pr  Pr8  1  0.50828400  0.53530200  0.05126800  1
  Pr  Pr9  1  0.50815300  0.53589500  0.25000000  1
  Pr  Pr10  1  0.50828400  0.53530200  0.44873200  1
  Mn  Mn0  1  0.50029600  0.00119300  0.10050700  1
  Mn  Mn1  1  0.50003800  0.00048600  0.00090500  1
  Mn  Mn2  1  0.50047500  0.00143400  0.29972900  1
  Mn  Mn3  1  0.50050200  0.99915100  0.60190400  1
  Mn  Mn4  1  0.50050200  0.99915100  0.89809600  1
  Mn  Mn5  1  0.50047500  0.00143400  0.20027100  1
  Mn  Mn6  1  0.50029600  0.00119300  0.39949300  1
  Mn  Mn7  1  0.50003800  0.00048600  0.49909500  1
  Mn  Mn8  1  0.50054900  0.99896000  0.69863800  1
  Mn  Mn9  1  0.50054900  0.99896000  0.80136200  1
  Mn  Mn10  1  0.00082600  0.49796500  0.10065000  1
  Mn  Mn11  1  0.99993700  0.49918800  0.00082100  1
  Mn  Mn12  1  0.00024200  0.49868400  0.20012900  1
  Mn  Mn13  1  0.00024200  0.49868400  0.29987100  1
  Mn  Mn14  1  0.00082600  0.49796500  0.39935000  1
  Mn  Mn15  1  0.99993700  0.49918800  0.49917900  1
  Mn  Mn16  1  0.99903800  0.49971200  0.60190300  1
  Mn  Mn17  1  0.99990000  0.49892500  0.69863600  1
  Mn  Mn18  1  0.99990000  0.49892500  0.80136400  1
  Mn  Mn19  1  0.99903800  0.49971200  0.89809700  1
  O  O0  1  0.07125400  0.48206200  0.05033800  1
  O  O1  1  0.07142100  0.48415300  0.25000000  1
  O  O2  1  0.07125400  0.48206200  0.44966200  1
  O  O3  1  0.07963100  0.47819700  0.65021400  1
  O  O4  1  0.07963100  0.47819700  0.84978600  1
  O  O5  1  0.21948100  0.21892500  0.19254300  1
  O  O6  1  0.22181700  0.22126300  0.59178900  1
  O  O7  1  0.21939500  0.21798700  0.39209100  1
  O  O8  1  0.22271100  0.22130500  0.79166200  1
  O  O9  1  0.22417800  0.22315800  0.99159300  1
  O  O10  1  0.21939500  0.21798700  0.10790900  1
  O  O11  1  0.21948100  0.21892500  0.30745700  1
  O  O12  1  0.22417800  0.22315800  0.50840700  1
  O  O13  1  0.22271100  0.22130500  0.70833800  1
  O  O14  1  0.22181700  0.22126300  0.90821100  1
  O  O15  1  0.28306200  0.71695500  0.19200800  1
  O  O16  1  0.28412400  0.71564400  0.10836200  1
  O  O17  1  0.28306200  0.71695500  0.30799200  1
  O  O18  1  0.28412400  0.71564400  0.39163800  1
  O  O19  1  0.27678300  0.72226500  0.59181900  1
  O  O20  1  0.28003500  0.71944600  0.50777600  1
  O  O21  1  0.27784900  0.72117800  0.70833100  1
  O  O22  1  0.27784900  0.72117800  0.79166900  1
  O  O23  1  0.27678300  0.72226500  0.90818100  1
  O  O24  1  0.28003500  0.71944600  0.99222400  1
  O  O25  1  0.42277500  0.98707600  0.05033400  1
  O  O26  1  0.42355500  0.98642900  0.25000000  1
  O  O27  1  0.42039900  0.97824300  0.65021900  1
  O  O28  1  0.42277500  0.98707600  0.44966600  1
  O  O29  1  0.42039900  0.97824300  0.84978100  1
  O  O30  1  0.57160900  0.01567200  0.15032500  1
  O  O31  1  0.57160900  0.01567200  0.34967500  1
  O  O32  1  0.56901200  0.00766000  0.55010500  1
  O  O33  1  0.56807900  0.00794100  0.75000000  1
  O  O34  1  0.56901200  0.00766000  0.94989500  1
  O  O35  1  0.72024300  0.28004800  0.09263500  1
  O  O36  1  0.71621500  0.28398400  0.00711400  1
  O  O37  1  0.71922400  0.28147300  0.29229300  1
  O  O38  1  0.71922400  0.28147300  0.20770700  1
  O  O39  1  0.71621500  0.28398400  0.49288600  1
  O  O40  1  0.71351700  0.28631900  0.60736400  1
  O  O41  1  0.72024300  0.28004800  0.40736500  1
  O  O42  1  0.71502600  0.28478400  0.69278000  1
  O  O43  1  0.71351700  0.28631900  0.89263600  1
  O  O44  1  0.71502600  0.28478400  0.80722000  1
  O  O45  1  0.78319800  0.78247500  0.09209900  1
  O  O46  1  0.78034000  0.78137300  0.49171500  1
  O  O47  1  0.78541900  0.78479900  0.69276800  1
  O  O48  1  0.78329300  0.78339200  0.29174000  1
  O  O49  1  0.78329300  0.78339200  0.20826000  1
  O  O50  1  0.78548700  0.78598200  0.89260400  1
  O  O51  1  0.78034000  0.78137300  0.00828500  1
  O  O52  1  0.78548700  0.78598200  0.60739600  1
  O  O53  1  0.78319800  0.78247500  0.40790100  1
  O  O54  1  0.78541900  0.78479900  0.80723200  1
  O  O55  1  0.92366000  0.51356100  0.15032000  1
  O  O56  1  0.93204100  0.51013000  0.55011900  1
  O  O57  1  0.93238900  0.50804600  0.75000000  1
  O  O58  1  0.92366000  0.51356100  0.34968000  1
  O  O59  1  0.93204100  0.51013000  0.94988100  1
loop_
_geom_bond_atom_site_label_1
_geom_bond_atom_site_label_2
_geom_bond_distance
_geom_bond_site_symmetry_2
Ca0 O58 2.372567 1_555
Ca0 O17 2.407404 1_555
Ca0 O18 2.421397 1_555
Ca0 O31 2.473371 1_555
Ca0 O11 2.555265 1_555
Ca0 O7 2.576061 1_555
Ca0 O37 2.704965 1_555
Ca0 O41 2.736678 1_555
Ca1 O55 2.372567 1_555
Ca1 O15 2.407404 1_555
Ca1 O16 2.421397 1_555
Ca1 O30 2.473371 1_555
Ca1 O5 2.555265 1_555
Ca1 O10 2.576061 1_555
Ca1 O38 2.704965 1_555
Ca1 O35 2.736678 1_555
Ca2 O3 2.367748 1_555
Ca2 O42 2.408361 1_555
Ca2 O40 2.423530 1_555
Ca2 O27 2.460926 1_555
Ca2 O47 2.588932 1_555
Ca2 O52 2.614083 1_555
Ca2 O21 2.746851 1_555
Ca2 O19 2.779829 1_555
Ca3 O4 2.367748 1_555
Ca3 O44 2.408361 1_555
Ca3 O43 2.423530 1_555
Ca3 O29 2.460926 1_555
Ca3 O54 2.588932 1_555
Ca3 O50 2.614083 1_555
Ca3 O22 2.746851 1_555
Ca3 O23 2.779829 1_555
Ca4 O26 2.371720 1_645
Ca4 O49 2.413512 1_545
Ca4 O48 2.413512 1_545
Ca4 O1 2.472100 1_655
Ca4 O37 2.566542 1_555
Ca4 O38 2.566542 1_555
Ca4 O11 2.716645 1_655
Ca4 O5 2.716645 1_655
Ca5 O25 2.371726 1_645
Ca5 O45 2.392800 1_545
Ca5 O51 2.442554 1_545
Ca5 O0 2.471979 1_655
Ca5 O35 2.546471 1_555
Ca5 O36 2.622884 1_555
Ca5 O10 2.705374 1_655
Ca5 O9 2.802541 1_654
Ca6 O27 2.367598 1_645
Ca6 O47 2.410636 1_545
Ca6 O52 2.421318 1_545
Ca6 O3 2.460673 1_655
Ca6 O42 2.592888 1_555
Ca6 O40 2.615995 1_555
Ca6 O13 2.753487 1_655
Ca6 O6 2.769714 1_655
Ca7 O28 2.371726 1_645
Ca7 O53 2.392800 1_545
Ca7 O46 2.442554 1_545
Ca7 O2 2.471979 1_655
Ca7 O41 2.546471 1_555
Ca7 O39 2.622884 1_555
Ca7 O7 2.705374 1_655
Ca7 O12 2.802541 1_655
Ca8 O29 2.367598 1_645
Ca8 O54 2.410636 1_545
Ca8 O50 2.421318 1_545
Ca8 O4 2.460673 1_655
Ca8 O44 2.592888 1_555
Ca8 O43 2.615995 1_555
Ca8 O8 2.753487 1_655
Ca8 O14 2.769714 1_655
Mn0 O30 1.954963 1_555
Mn0 O10 1.957141 1_555
Mn0 O35 1.963667 1_555
Mn0 O25 1.975189 1_545
Mn0 O45 1.977998 1_545
Mn0 O16 1.979926 1_545
Mn1 O25 1.946838 1_545
Mn1 O51 1.962215 1_545
Mn1 O36 1.962395 1_555
Mn1 O9 1.967702 1_554
Mn1 O24 1.978174 1_544
Mn1 O34 1.996223 1_554
Mn2 O26 1.958033 1_545
Mn2 O31 1.959535 1_555
Mn2 O11 1.961713 1_555
Mn2 O37 1.962245 1_555
Mn2 O48 1.972831 1_545
Mn2 O17 1.981784 1_545
Mn3 O27 1.910584 1_555
Mn3 O52 1.953401 1_555
Mn3 O40 1.964862 1_565
Mn3 O19 1.982784 1_555
Mn3 O6 1.983395 1_565
Mn3 O32 2.025691 1_565
Mn4 O29 1.910584 1_555
Mn4 O50 1.953401 1_555
Mn4 O43 1.964862 1_565
Mn4 O23 1.982784 1_555
Mn4 O14 1.983395 1_565
Mn4 O34 2.025691 1_565
Mn5 O26 1.958033 1_545
Mn5 O30 1.959535 1_555
Mn5 O5 1.961713 1_555
Mn5 O38 1.962245 1_555
Mn5 O49 1.972831 1_545
Mn5 O15 1.981784 1_545
Mn6 O31 1.954963 1_555
Mn6 O7 1.957141 1_555
Mn6 O41 1.963667 1_555
Mn6 O28 1.975189 1_545
Mn6 O53 1.977998 1_545
Mn6 O18 1.979926 1_545
Mn7 O28 1.946838 1_545
Mn7 O46 1.962215 1_545
Mn7 O39 1.962395 1_555
Mn7 O12 1.967702 1_555
Mn7 O20 1.978174 1_545
Mn7 O32 1.996223 1_555
Mn8 O27 1.914464 1_555
Mn8 O47 1.957778 1_555
Mn8 O42 1.965390 1_565
Mn8 O13 1.977586 1_565
Mn8 O21 1.980255 1_555
Mn8 O33 2.008270 1_565
Mn9 O29 1.914464 1_555
Mn9 O54 1.957778 1_555
Mn9 O44 1.965390 1_565
Mn9 O8 1.977586 1_565
Mn9 O22 1.980255 1_555
Mn9 O33 2.008270 1_565
Mn10 O55 1.956260 1_455
Mn10 O10 1.961135 1_555
Mn10 O35 1.962364 1_455
Mn10 O16 1.971315 1_555
Mn10 O0 1.972956 1_555
Mn10 O45 1.985144 1_455
Mn11 O0 1.944301 1_655
Mn11 O36 1.957484 1_555
Mn11 O24 1.971761 1_654
Mn11 O51 1.975117 1_555
Mn11 O9 1.975501 1_654
Mn11 O59 1.993005 1_554
Mn12 O1 1.956837 1_555
Mn12 O38 1.959295 1_455
Mn12 O55 1.960626 1_455
Mn12 O5 1.964240 1_555
Mn12 O15 1.973668 1_555
Mn12 O49 1.981182 1_455
Mn13 O1 1.956837 1_555
Mn13 O37 1.959295 1_455
Mn13 O58 1.960626 1_455
Mn13 O11 1.964240 1_555
Mn13 O17 1.973668 1_555
Mn13 O48 1.981182 1_455
Mn14 O58 1.956260 1_455
Mn14 O7 1.961135 1_555
Mn14 O41 1.962364 1_455
Mn14 O18 1.971315 1_555
Mn14 O2 1.972956 1_555
Mn14 O53 1.985144 1_455
Mn15 O2 1.944301 1_655
Mn15 O39 1.957484 1_555
Mn15 O20 1.971761 1_655
Mn15 O46 1.975117 1_555
Mn15 O12 1.975501 1_655
Mn15 O56 1.993005 1_555
Mn16 O3 1.911268 1_655
Mn16 O40 1.955601 1_555
Mn16 O52 1.963515 1_555
Mn16 O19 1.980010 1_655
Mn16 O6 1.987152 1_655
Mn16 O56 2.023899 1_555
Mn17 O3 1.914081 1_655
Mn17 O42 1.956944 1_555
Mn17 O47 1.966390 1_555
Mn17 O21 1.976976 1_655
Mn17 O13 1.980735 1_655
Mn17 O57 2.008353 1_555
Mn18 O4 1.914081 1_655
Mn18 O44 1.956944 1_555
Mn18 O54 1.966390 1_555
Mn18 O22 1.976976 1_655
Mn18 O8 1.980735 1_655
Mn18 O57 2.008353 1_555
Mn19 O4 1.911268 1_655
Mn19 O43 1.955601 1_555
Mn19 O50 1.963515 1_555
Mn19 O23 1.980010 1_655
Mn19 O14 1.987152 1_655
Mn19 O59 2.023899 1_555
O0 Pr8 2.397104 1_555
O1 Pr9 2.394246 1_555
O2 Pr10 2.397104 1_555
O5 Pr0 2.426089 1_545
O6 Pr2 2.417358 1_545
O6 Pr5 2.533820 1_555
O7 Pr1 2.434340 1_545
O8 Pr3 2.434290 1_545
O8 Pr6 2.552280 1_555
O9 Pr4 2.450094 1_545
O9 Pr7 2.565470 1_555
O10 Pr0 2.434340 1_545
O11 Pr1 2.426089 1_545
O12 Pr2 2.450094 1_545
O12 Pr5 2.565470 1_555
O13 Pr3 2.434290 1_545
O13 Pr6 2.552280 1_555
O14 Pr4 2.417358 1_545
O14 Pr7 2.533820 1_555
O15 Pr0 2.572752 1_555
O15 Pr9 2.729824 1_555
O16 Pr0 2.592459 1_555
O16 Pr8 2.697989 1_555
O17 Pr1 2.572752 1_555
O17 Pr9 2.729824 1_555
O18 Pr1 2.592459 1_555
O18 Pr10 2.697989 1_555
O19 Pr5 2.416001 1_555
O19 Pr2 2.539289 1_555
O20 Pr5 2.460790 1_555
O20 Pr2 2.591718 1_555
O20 Pr10 2.776687 1_555
O21 Pr6 2.434460 1_555
O21 Pr3 2.553328 1_555
O22 Pr6 2.434460 1_555
O22 Pr3 2.553328 1_555
O23 Pr7 2.416001 1_555
O23 Pr4 2.539289 1_555
O24 Pr7 2.460790 1_555
O24 Pr4 2.591718 1_555
O24 Pr8 2.776687 1_556
O25 Pr8 2.517997 1_555
O26 Pr9 2.510151 1_555
O28 Pr10 2.517997 1_555
O30 Pr0 2.394450 1_645
O31 Pr1 2.394450 1_645
O32 Pr2 2.397085 1_645
O32 Pr5 2.538136 1_555
O33 Pr3 2.399356 1_645
O33 Pr6 2.532352 1_555
O34 Pr4 2.397085 1_645
O34 Pr7 2.538136 1_555
O35 Pr8 2.411183 1_555
O36 Pr8 2.460854 1_555
O36 Pr7 2.728341 1_554
O37 Pr9 2.429885 1_555
O38 Pr9 2.429885 1_555
O39 Pr10 2.460854 1_555
O39 Pr5 2.728341 1_555
O40 Pr5 2.661011 1_555
O41 Pr10 2.411183 1_555
O42 Pr6 2.692969 1_555
O43 Pr7 2.661011 1_555
O44 Pr6 2.692969 1_555
O45 Pr8 2.555879 1_555
O45 Pr0 2.741716 1_655
O46 Pr10 2.595430 1_555
O46 Pr2 2.764832 1_655
O47 Pr3 2.693162 1_655
O48 Pr9 2.579116 1_555
O48 Pr1 2.722806 1_655
O49 Pr9 2.579116 1_555
O49 Pr0 2.722806 1_655
O50 Pr4 2.683581 1_655
O51 Pr8 2.595430 1_555
O51 Pr4 2.764832 1_654
O52 Pr2 2.683581 1_655
O53 Pr10 2.555879 1_555
O53 Pr1 2.741716 1_655
O54 Pr3 2.693162 1_655
O55 Pr0 2.509297 1_655
O56 Pr5 2.400607 1_555
O56 Pr2 2.526547 1_655
O57 Pr6 2.398748 1_555
O57 Pr3 2.531348 1_655
O58 Pr1 2.509297 1_655
O59 Pr7 2.400607 1_555
O59 Pr4 2.526547 1_655
