# generated using pymatgen
data_NaHoS2
_symmetry_space_group_name_H-M   'P 1'
_cell_length_a   3.94559338
_cell_length_b   3.94559338
_cell_length_c   6.99336227
_cell_angle_alpha   73.61468084
_cell_angle_beta   73.61468084
_cell_angle_gamma   59.99998321
_symmetry_Int_Tables_number   1
_chemical_formula_structural   NaHoS2
_chemical_formula_sum   'Na1 Ho1 S2'
_cell_volume   89.14248856
_cell_formula_units_Z   1
loop_
 _symmetry_equiv_pos_site_id
 _symmetry_equiv_pos_as_xyz
  1  'x, y, z'
loop_
 _atom_site_type_symbol
 _atom_site_label
 _atom_site_symmetry_multiplicity
 _atom_site_fract_x
 _atom_site_fract_y
 _atom_site_fract_z
 _atom_site_occupancy
  Na  Na0  1  0.50000000  0.50000000  0.50000000  1
  Ho  Ho0  1  0.00000000  0.00000000  -0.00000000  1
  S  S0  1  0.25753060  0.25753060  0.22740721  1
  S  S1  1  0.74246940  0.74246940  0.77259279  1
loop_
_geom_bond_atom_site_label_1
_geom_bond_atom_site_label_2
_geom_bond_distance
_geom_bond_site_symmetry_2
Na0 S1 2.904783 1_455
Na0 S0 2.904783 1_565
Na0 S0 2.904783 1_655
Na0 S1 2.904783 1_545
Na0 S0 2.904786 1_555
Na0 S1 2.904786 1_555
Ho0 S0 2.729479 1_555
Ho0 S1 2.729479 1_444
Ho0 S1 2.729481 1_454
Ho0 S1 2.729481 1_544
Ho0 S0 2.729481 1_545
Ho0 S0 2.729481 1_455
