# generated using pymatgen
data_Ce(SiAu)2
_symmetry_space_group_name_H-M   'P 1'
_cell_length_a   4.33562046
_cell_length_b   4.33562085
_cell_length_c   5.93266589
_cell_angle_alpha   111.43235277
_cell_angle_beta   111.43235340
_cell_angle_gamma   89.99999925
_symmetry_Int_Tables_number   1
_chemical_formula_structural   Ce(SiAu)2
_chemical_formula_sum   'Ce1 Si2 Au2'
_cell_volume   95.47577639
_cell_formula_units_Z   1
loop_
 _symmetry_equiv_pos_site_id
 _symmetry_equiv_pos_as_xyz
  1  'x, y, z'
loop_
 _atom_site_type_symbol
 _atom_site_label
 _atom_site_symmetry_multiplicity
 _atom_site_fract_x
 _atom_site_fract_y
 _atom_site_fract_z
 _atom_site_occupancy
  Ce  Ce0  1  0.00000000  -0.00000000  -0.00000000  1
  Si  Si0  1  0.61444579  0.61444579  0.22889058  1
  Si  Si1  1  0.38555421  0.38555421  0.77110942  1
  Au  Au0  1  0.75000000  0.25000000  0.50000000  1
  Au  Au1  1  0.25000000  0.75000000  0.50000000  1
loop_
_geom_bond_atom_site_label_1
_geom_bond_atom_site_label_2
_geom_bond_distance
_geom_bond_site_symmetry_2
Ce0 Si0 3.278773 1_445
Ce0 Si1 3.278773 1_554
Ce0 Si1 3.278775 1_454
Ce0 Si0 3.278775 1_545
Ce0 Si1 3.278776 1_544
Ce0 Si0 3.278776 1_455
Ce0 Si1 3.278778 1_444
Ce0 Si0 3.278778 1_555
Si0 Si1 2.325137 1_554
Au0 Si1 2.568177 1_655
Au0 Si0 2.568177 1_545
Au0 Si1 2.568181 1_555
Au0 Si0 2.568181 1_555
Au0 Ce0 3.338986 1_555
Au0 Ce0 3.338987 1_666
Au0 Ce0 3.338987 1_655
Au0 Ce0 3.338987 1_656
Au1 Si0 2.568177 1_455
Au1 Si1 2.568177 1_565
Au1 Si0 2.568181 1_555
Au1 Si1 2.568181 1_555
Au1 Ce0 3.338986 1_666
Au1 Ce0 3.338987 1_555
Au1 Ce0 3.338987 1_566
Au1 Ce0 3.338987 1_565
