# generated using pymatgen
data_SrTiSi2O7
_symmetry_space_group_name_H-M   'P 1'
_cell_length_a   7.82830645
_cell_length_b   7.82830645
_cell_length_c   7.14840900
_cell_angle_alpha   90.00000000
_cell_angle_beta   90.00000000
_cell_angle_gamma   139.55949264
_symmetry_Int_Tables_number   1
_chemical_formula_structural   SrTiSi2O7
_chemical_formula_sum   'Sr2 Ti2 Si4 O14'
_cell_volume   284.15866271
_cell_formula_units_Z   2
loop_
 _symmetry_equiv_pos_site_id
 _symmetry_equiv_pos_as_xyz
  1  'x, y, z'
loop_
 _atom_site_type_symbol
 _atom_site_label
 _atom_site_symmetry_multiplicity
 _atom_site_fract_x
 _atom_site_fract_y
 _atom_site_fract_z
 _atom_site_occupancy
  Sr  Sr0  1  0.19879100  0.80120900  0.75000000  1
  Sr  Sr1  1  0.80120900  0.19879100  0.25000000  1
  Ti  Ti0  1  0.10904800  0.89095200  0.25000000  1
  Ti  Ti1  1  0.89095200  0.10904800  0.75000000  1
  Si  Si0  1  0.39156300  0.60843700  0.47500500  1
  Si  Si1  1  0.39156300  0.60843700  0.02499500  1
  Si  Si2  1  0.60843700  0.39156300  0.97500500  1
  Si  Si3  1  0.60843700  0.39156300  0.52499500  1
  O  O0  1  0.63856900  0.36143100  0.75000000  1
  O  O1  1  0.99474700  0.00525300  0.25000000  1
  O  O2  1  0.40375300  0.09673500  0.06158600  1
  O  O3  1  0.40375300  0.09673500  0.43841400  1
  O  O4  1  0.09673500  0.40375300  0.93841400  1
  O  O5  1  0.36143100  0.63856900  0.25000000  1
  O  O6  1  0.59624700  0.90326500  0.93841400  1
  O  O7  1  0.90326500  0.59624700  0.06158600  1
  O  O8  1  0.50000000  0.50000000  0.50000000  1
  O  O9  1  0.59624700  0.90326500  0.56158600  1
  O  O10  1  0.90326500  0.59624700  0.43841400  1
  O  O11  1  0.00525300  0.99474700  0.75000000  1
  O  O12  1  0.09673500  0.40375300  0.56158600  1
  O  O13  1  0.50000000  0.50000000  0.00000000  1
loop_
_geom_bond_atom_site_label_1
_geom_bond_atom_site_label_2
_geom_bond_distance
_geom_bond_site_symmetry_2
O0 Si3 1.668237 1_555
O0 Si2 1.668237 1_555
O0 Sr0 2.846683 1_545
O0 Sr0 2.846683 1_655
O1 Ti0 1.679277 1_645
O1 Sr1 2.843404 1_555
O2 Si2 1.627321 1_554
O2 Ti0 2.018536 1_545
O2 Sr0 2.690245 1_544
O2 Sr1 2.889535 1_555
O3 Si3 1.627321 1_555
O3 Ti0 2.018536 1_545
O3 Sr0 2.690245 1_545
O3 Sr1 2.889535 1_555
O4 Si1 1.627321 1_556
O4 Ti1 2.018536 1_455
O4 Sr1 2.690245 1_456
O4 Sr0 2.889535 1_555
O5 Si0 1.668237 1_555
O5 Si1 1.668237 1_555
O5 Sr1 2.846683 1_455
O5 Sr1 2.846683 1_565
O6 Si1 1.627321 1_556
O6 Ti1 2.018536 1_565
O6 Sr1 2.690245 1_566
O6 Sr0 2.889535 1_555
O7 Si2 1.627321 1_554
O7 Ti0 2.018536 1_655
O7 Sr0 2.690245 1_654
O7 Sr1 2.889535 1_555
O8 Si3 1.603113 1_555
O8 Si0 1.603113 1_555
O9 Si0 1.627321 1_555
O9 Ti1 2.018536 1_565
O9 Sr1 2.690245 1_565
O9 Sr0 2.889535 1_555
O10 Si3 1.627321 1_555
O10 Ti0 2.018536 1_655
O10 Sr0 2.690245 1_655
O10 Sr1 2.889535 1_555
O11 Ti1 1.679277 1_465
O11 Sr0 2.843404 1_555
O12 Si0 1.627321 1_555
O12 Ti1 2.018536 1_455
O12 Sr1 2.690245 1_455
O12 Sr0 2.889535 1_555
O13 Si1 1.603113 1_555
O13 Si2 1.603113 1_554
