# generated using pymatgen
data_LiMnO2
_symmetry_space_group_name_H-M   'P 1'
_cell_length_a   5.64587603
_cell_length_b   5.64586951
_cell_length_c   6.09795226
_cell_angle_alpha   117.58627115
_cell_angle_beta   117.58629234
_cell_angle_gamma   89.95562213
_symmetry_Int_Tables_number   1
_chemical_formula_structural   LiMnO2
_chemical_formula_sum   'Li4 Mn4 O8'
_cell_volume   146.93689924
_cell_formula_units_Z   4
loop_
 _symmetry_equiv_pos_site_id
 _symmetry_equiv_pos_as_xyz
  1  'x, y, z'
loop_
 _atom_site_type_symbol
 _atom_site_label
 _atom_site_symmetry_multiplicity
 _atom_site_fract_x
 _atom_site_fract_y
 _atom_site_fract_z
 _atom_site_occupancy
  Li  Li0  1  0.50000000  -0.00000000  -0.00000000  1
  Li  Li1  1  0.50000000  0.50000000  0.50000000  1
  Li  Li2  1  0.50000000  0.50000000  -0.00000000  1
  Li  Li3  1  -0.00000000  0.50000000  0.50000000  1
  Mn  Mn0  1  -0.00000000  -0.00000000  0.50000000  1
  Mn  Mn1  1  -0.00000000  0.50000000  -0.00000000  1
  Mn  Mn2  1  0.50000000  -0.00000000  0.50000000  1
  Mn  Mn3  1  -0.00000000  -0.00000000  -0.00000000  1
  O  O0  1  0.25234753  0.77086114  0.50448212  1
  O  O1  1  0.23363530  0.25213642  0.00447986  1
  O  O2  1  0.74765247  0.22913886  0.49551788  1
  O  O3  1  0.74786340  0.76636560  0.49552055  1
  O  O4  1  0.22914015  0.74765362  0.99551886  1
  O  O5  1  0.76636470  0.74786358  0.99552014  1
  O  O6  1  0.77085985  0.25234638  0.00448114  1
  O  O7  1  0.25213660  0.23363440  0.50447945  1
loop_
_geom_bond_atom_site_label_1
_geom_bond_atom_site_label_2
_geom_bond_distance
_geom_bond_site_symmetry_2
Li0 O5 2.070628 1_544
Li0 O1 2.070628 1_555
Li0 O6 2.073102 1_555
Li0 O4 2.073102 1_544
Li0 O0 2.286558 1_544
Li0 O2 2.286558 1_555
Li1 O0 2.070681 1_555
Li1 O2 2.070681 1_555
Li1 O3 2.073018 1_555
Li1 O7 2.073018 1_555
Li1 O5 2.286622 1_555
Li1 O1 2.286622 1_555
Li2 O4 2.070680 1_554
Li2 O6 2.070680 1_555
Li2 O1 2.073017 1_555
Li2 O5 2.073017 1_554
Li2 O7 2.286624 1_554
Li2 O3 2.286624 1_555
Li3 O7 2.070632 1_555
Li3 O3 2.070632 1_455
Li3 O0 2.073108 1_555
Li3 O2 2.073108 1_455
Li3 O6 2.286562 1_455
Li3 O4 2.286562 1_555
Mn0 O2 1.923029 1_455
Mn0 O0 1.923029 1_545
Mn0 O7 1.923709 1_555
Mn0 O3 1.923709 1_445
Mn0 O1 2.327823 1_556
Mn0 O5 2.327823 1_444
Mn1 O1 1.923075 1_555
Mn1 O5 1.923075 1_454
Mn1 O4 1.923629 1_554
Mn1 O6 1.923629 1_455
Mn1 O2 2.327895 1_454
Mn1 O0 2.327895 1_555
Mn2 O3 1.923071 1_545
Mn2 O7 1.923071 1_555
Mn2 O2 1.923623 1_555
Mn2 O0 1.923623 1_545
Mn2 O4 2.327890 1_544
Mn2 O6 2.327890 1_556
Mn3 O6 1.923029 1_455
Mn3 O4 1.923029 1_544
Mn3 O1 1.923710 1_555
Mn3 O5 1.923710 1_444
Mn3 O3 2.327821 1_444
Mn3 O7 2.327821 1_555
