# generated using pymatgen
data_Li13Ti22O48
_symmetry_space_group_name_H-M   'P 1'
_cell_length_a   15.79654104
_cell_length_b   15.79654104
_cell_length_c   10.34205804
_cell_angle_alpha   70.92928161
_cell_angle_beta   70.92928161
_cell_angle_gamma   21.80031083
_symmetry_Int_Tables_number   1
_chemical_formula_structural   Li13Ti22O48
_chemical_formula_sum   'Li13 Ti22 O48'
_cell_volume   903.77789322
_cell_formula_units_Z   1
loop_
 _symmetry_equiv_pos_site_id
 _symmetry_equiv_pos_as_xyz
  1  'x, y, z'
loop_
 _atom_site_type_symbol
 _atom_site_label
 _atom_site_symmetry_multiplicity
 _atom_site_fract_x
 _atom_site_fract_y
 _atom_site_fract_z
 _atom_site_occupancy
  Li  Li0  1  0.50007800  0.50007800  0.49779100  1
  Li  Li1  1  0.45945700  0.45945700  0.20909800  1
  Li  Li2  1  0.83416100  0.83416100  0.83020500  1
  Li  Li3  1  0.79105800  0.79105800  0.54453500  1
  Li  Li4  1  0.95872900  0.95872900  0.70946100  1
  Li  Li5  1  0.16629800  0.16629800  0.16479100  1
  Li  Li6  1  0.33409400  0.33409400  0.33353600  1
  Li  Li7  1  0.12397600  0.12397600  0.87710200  1
  Li  Li8  1  0.29127200  0.29127200  0.04105800  1
  Li  Li9  1  0.31251300  0.31251300  0.68739100  1
  Li  Li10  1  0.62409500  0.62409500  0.37824300  1
  Li  Li11  1  0.66646800  0.66646800  0.66609200  1
  Li  Li12  1  0.06270400  0.06270400  0.43788600  1
  Ti  Ti0  1  0.14818300  0.63885500  0.52476200  1
  Ti  Ti1  1  0.89812000  0.89812000  0.26697900  1
  Ti  Ti2  1  0.98097000  0.98097000  0.35971900  1
  Ti  Ti3  1  0.64867800  0.14434000  0.01966900  1
  Ti  Ti4  1  0.47671200  0.98651600  0.84958900  1
  Ti  Ti5  1  0.63885500  0.14818300  0.52476200  1
  Ti  Ti6  1  0.39362100  0.39362100  0.77148600  1
  Ti  Ti7  1  0.23105600  0.23105600  0.60423300  1
  Ti  Ti8  1  0.47974000  0.47974000  0.85790000  1
  Ti  Ti9  1  0.97811700  0.47973000  0.35616300  1
  Ti  Ti10  1  0.81927400  0.30525400  0.19348500  1
  Ti  Ti11  1  0.14434000  0.64867800  0.01966900  1
  Ti  Ti12  1  0.98651600  0.47671200  0.84958900  1
  Ti  Ti13  1  0.72795600  0.72795600  0.10618600  1
  Ti  Ti14  1  0.56167600  0.56167600  0.93659600  1
  Ti  Ti15  1  0.64579700  0.64579700  0.01736900  1
  Ti  Ti16  1  0.81269400  0.81269400  0.18698500  1
  Ti  Ti17  1  0.30722000  0.81678700  0.68317900  1
  Ti  Ti18  1  0.47973000  0.97811700  0.35616300  1
  Ti  Ti19  1  0.30525400  0.81927400  0.19348500  1
  Ti  Ti20  1  0.14365300  0.14365300  0.51658000  1
  Ti  Ti21  1  0.81678700  0.30722000  0.68317900  1
  O  O0  1  0.15640100  0.71389100  0.32314900  1
  O  O1  1  0.86020700  0.86020700  0.47572600  1
  O  O2  1  0.93616500  0.93616500  0.54551400  1
  O  O3  1  0.71389100  0.15640100  0.32314900  1
  O  O4  1  0.65732300  0.21367300  0.82365400  1
  O  O5  1  0.59302600  0.12733600  0.71647100  1
  O  O6  1  0.49773000  0.03227800  0.65824800  1
  O  O7  1  0.19368200  0.19368200  0.80691400  1
  O  O8  1  0.36030500  0.36030500  0.48419300  1
  O  O9  1  0.36017200  0.36017200  0.97167600  1
  O  O10  1  0.43531800  0.43531800  0.04842500  1
  O  O11  1  0.43119900  0.43119900  0.56782600  1
  O  O12  1  0.26489200  0.26489200  0.89063600  1
  O  O13  1  0.21367300  0.65732300  0.82365400  1
  O  O14  1  0.03227800  0.49773000  0.65824800  1
  O  O15  1  0.12733600  0.59302600  0.71647100  1
  O  O16  1  0.82524800  0.37948900  0.98977900  1
  O  O17  1  0.91209700  0.46689500  0.05173100  1
  O  O18  1  0.07992400  0.63257200  0.21911100  1
  O  O19  1  0.99252000  0.54463900  0.15683800  1
  O  O20  1  0.85619800  0.85619800  0.99329100  1
  O  O21  1  0.69368300  0.69368300  0.30698600  1
  O  O22  1  0.52828000  0.52828000  0.13618100  1
  O  O23  1  0.92970700  0.92970700  0.06965200  1
  O  O24  1  0.68917500  0.68917500  0.83002600  1
  O  O25  1  0.76483100  0.76483100  0.90062300  1
  O  O26  1  0.60218300  0.60218300  0.21494900  1
  O  O27  1  0.76862900  0.76862900  0.38142900  1
  O  O28  1  0.37948900  0.82524800  0.98977900  1
  O  O29  1  0.54463900  0.99252000  0.15683800  1
  O  O30  1  0.46689500  0.91209700  0.05173100  1
  O  O31  1  0.63257200  0.07992400  0.21911100  1
  O  O32  1  0.25490200  0.78654800  0.37847900  1
  O  O33  1  0.33686100  0.87186900  0.49702300  1
  O  O34  1  0.41163200  0.96861700  0.55068400  1
  O  O35  1  0.02378600  0.02378600  0.16476400  1
  O  O36  1  0.02692000  0.02692000  0.65146400  1
  O  O37  1  0.26508800  0.26508800  0.40263200  1
  O  O38  1  0.09876900  0.09876900  0.22244500  1
  O  O39  1  0.18934000  0.18934000  0.32676000  1
  O  O40  1  0.10225200  0.10225200  0.71448500  1
  O  O41  1  0.87186900  0.33686100  0.49702300  1
  O  O42  1  0.78654800  0.25490200  0.37847900  1
  O  O43  1  0.96861700  0.41163200  0.55068400  1
  O  O44  1  0.74139300  0.30640600  0.88171500  1
  O  O45  1  0.52342400  0.52342400  0.65765100  1
  O  O46  1  0.59782700  0.59782700  0.73726900  1
  O  O47  1  0.30640600  0.74139300  0.88171500  1
loop_
_geom_bond_atom_site_label_1
_geom_bond_atom_site_label_2
_geom_bond_distance
_geom_bond_site_symmetry_2
Li0 O32 1.982142 1_555
Li0 O42 1.982142 1_555
Li0 O45 2.013641 1_555
Li0 O11 2.015124 1_555
Li1 O22 2.013916 1_555
Li1 O0 2.035002 1_555
Li1 O3 2.035002 1_555
Li1 O10 2.037184 1_555
Li2 O15 1.987617 1_655
Li2 O5 1.987617 1_565
Li2 O20 2.019779 1_555
Li2 O25 2.028314 1_555
Li3 O14 1.988310 1_655
Li3 O6 1.988310 1_565
Li3 O1 2.022981 1_555
Li3 O27 2.027492 1_555
Li4 O36 1.997667 1_665
Li4 O4 2.027202 1_565
Li4 O13 2.027202 1_655
Li4 O2 2.038319 1_555
Li5 O38 1.978156 1_555
Li5 O17 2.017811 1_455
Li5 O30 2.017811 1_545
Li5 O39 2.028244 1_555
Li6 O8 1.982934 1_555
Li6 O31 2.014127 1_555
Li6 O18 2.014127 1_555
Li6 O37 2.018797 1_555
Li7 O28 2.007082 1_545
Li7 O16 2.007082 1_455
Li7 O40 2.009207 1_555
Li7 O7 2.039285 1_555
Li8 O12 1.984220 1_554
Li8 O9 2.015705 1_554
Li8 O29 2.021973 1_545
Li8 O19 2.021973 1_455
Li9 O6 2.119397 1_555
Li9 O14 2.119397 1_555
Li9 O5 2.123286 1_555
Li9 O15 2.123286 1_555
Li9 O12 2.129393 1_555
Li9 O8 2.130970 1_555
Li10 O41 1.984264 1_555
Li10 O33 1.984264 1_555
Li10 O26 2.019431 1_555
Li10 O21 2.035908 1_555
Li11 O46 2.008307 1_555
Li11 O43 2.036758 1_555
Li11 O34 2.036758 1_555
Li11 O24 2.040946 1_555
Li12 O36 2.116491 1_555
Li12 O33 2.121267 1_545
Li12 O41 2.121267 1_455
Li12 O38 2.134782 1_555
Li12 O42 2.136172 1_455
Li12 O32 2.136172 1_545
O0 Ti1 1.961669 1_455
O0 Ti0 2.064762 1_555
O0 Ti2 2.066157 1_455
O1 Ti0 1.997160 1_655
O1 Ti5 1.997160 1_565
O1 Ti1 2.086705 1_555
O2 Ti2 1.961337 1_555
O2 Ti5 2.073661 1_565
O2 Ti0 2.073661 1_655
O3 Ti1 1.961669 1_545
O3 Ti5 2.064762 1_555
O3 Ti2 2.066157 1_545
O4 Ti3 1.993407 1_556
O4 Ti8 2.022122 1_555
O4 Ti6 2.049770 1_555
O5 Ti5 1.908297 1_555
O5 Ti6 1.930751 1_555
O6 Ti4 1.905321 1_545
O6 Ti7 1.935414 1_555
O7 Ti4 2.017240 1_545
O7 Ti12 2.017240 1_455
O7 Ti7 2.029969 1_555
O8 Ti5 1.916688 1_555
O8 Ti0 1.916688 1_555
O9 Ti6 1.983317 1_555
O9 Ti3 2.039373 1_556
O9 Ti11 2.039373 1_556
O10 Ti8 1.993657 1_554
O10 Ti3 2.011427 1_555
O10 Ti11 2.011427 1_555
O11 Ti5 2.014817 1_555
O11 Ti0 2.014817 1_555
O11 Ti6 2.039941 1_555
O12 Ti4 1.918788 1_545
O12 Ti12 1.918788 1_455
O13 Ti11 1.993407 1_556
O13 Ti8 2.022122 1_555
O13 Ti6 2.049770 1_555
O14 Ti12 1.905321 1_455
O14 Ti7 1.935414 1_555
O15 Ti0 1.908297 1_555
O15 Ti6 1.930751 1_555
O16 Ti15 1.981259 1_556
O16 Ti14 2.032542 1_555
O16 Ti10 2.069679 1_556
O17 Ti13 1.989088 1_555
O17 Ti15 2.013279 1_555
O17 Ti12 2.072961 1_554
O18 Ti16 2.005113 1_455
O18 Ti11 2.030002 1_555
O18 Ti1 2.036192 1_455
O19 Ti16 2.010975 1_555
O19 Ti13 2.022845 1_555
O19 Ti9 2.024371 1_555
O20 Ti16 2.008762 1_556
O20 Ti11 2.014331 1_656
O20 Ti3 2.014331 1_566
O21 Ti13 1.993422 1_555
O21 Ti18 2.010035 1_555
O21 Ti9 2.010035 1_555
O22 Ti14 1.977586 1_554
O22 Ti10 2.058175 1_555
O22 Ti19 2.058175 1_555
O23 Ti1 1.947862 1_555
O23 Ti3 1.968338 1_565
O23 Ti11 1.968338 1_655
O24 Ti15 1.956984 1_556
O24 Ti4 2.066550 1_555
O24 Ti12 2.066550 1_555
O25 Ti4 2.005357 1_555
O25 Ti12 2.005357 1_555
O25 Ti13 2.051795 1_556
O26 Ti10 2.030620 1_555
O26 Ti19 2.030620 1_555
O26 Ti15 2.041137 1_555
O27 Ti9 2.004019 1_555
O27 Ti18 2.004019 1_555
O27 Ti16 2.020714 1_555
O28 Ti15 1.981259 1_556
O28 Ti14 2.032542 1_555
O28 Ti19 2.069679 1_556
O29 Ti16 2.010975 1_555
O29 Ti13 2.022845 1_555
O29 Ti18 2.024371 1_555
O30 Ti13 1.989088 1_555
O30 Ti15 2.013279 1_555
O30 Ti4 2.072961 1_554
O31 Ti16 2.005113 1_545
O31 Ti3 2.030002 1_555
O31 Ti1 2.036192 1_545
O32 Ti2 1.917086 1_455
O32 Ti19 1.919143 1_555
O33 Ti20 1.902571 1_565
O33 Ti17 1.937952 1_555
O34 Ti18 1.978672 1_555
O34 Ti7 2.034289 1_565
O34 Ti20 2.071824 1_565
O35 Ti10 1.963789 1_455
O35 Ti19 1.963789 1_545
O35 Ti2 2.011793 1_445
O36 Ti17 1.917264 1_545
O36 Ti21 1.917264 1_455
O37 Ti7 1.999218 1_555
O37 Ti18 2.023268 1_545
O37 Ti9 2.023268 1_455
O38 Ti19 1.924921 1_545
O38 Ti10 1.924921 1_455
O39 Ti20 2.002776 1_555
O39 Ti18 2.023379 1_545
O39 Ti9 2.023379 1_455
O40 Ti17 2.019673 1_545
O40 Ti21 2.019673 1_455
O40 Ti20 2.022227 1_555
O41 Ti20 1.902571 1_655
O41 Ti21 1.937952 1_555
O42 Ti2 1.917086 1_545
O42 Ti10 1.919143 1_555
O43 Ti9 1.978672 1_555
O43 Ti7 2.034289 1_655
O43 Ti20 2.071824 1_655
O44 Ti14 1.956161 1_555
O44 Ti8 1.962221 1_555
O44 Ti21 2.011887 1_555
O45 Ti17 2.007314 1_555
O45 Ti21 2.007314 1_555
O45 Ti8 2.063454 1_555
O46 Ti14 1.992193 1_555
O46 Ti21 2.068485 1_555
O46 Ti17 2.068485 1_555
O47 Ti14 1.956161 1_555
O47 Ti8 1.962221 1_555
O47 Ti17 2.011887 1_555
