# generated using pymatgen
data_FePS3
_symmetry_space_group_name_H-M   'P 1'
_cell_length_a   5.85832786
_cell_length_b   10.36093628
_cell_length_c   7.08556376
_cell_angle_alpha   90.02324656
_cell_angle_beta   106.04069084
_cell_angle_gamma   89.98081302
_symmetry_Int_Tables_number   1
_chemical_formula_structural   FePS3
_chemical_formula_sum   'Fe4 P4 S12'
_cell_volume   413.33303441
_cell_formula_units_Z   4
loop_
 _symmetry_equiv_pos_site_id
 _symmetry_equiv_pos_as_xyz
  1  'x, y, z'
loop_
 _atom_site_type_symbol
 _atom_site_label
 _atom_site_symmetry_multiplicity
 _atom_site_fract_x
 _atom_site_fract_y
 _atom_site_fract_z
 _atom_site_occupancy
  Fe  Fe0  1  0.99948600  0.32363700  0.00002300  1
  Fe  Fe1  1  0.50054300  0.17595900  0.99997700  1
  Fe  Fe2  1  0.50149000  0.82400700  0.99998300  1
  Fe  Fe3  1  0.99833800  0.67629800  0.00001600  1
  P  P0  1  0.94966500  0.00001800  0.83865500  1
  P  P1  1  0.44946000  0.50001800  0.83883500  1
  P  P2  1  0.05070100  0.99997900  0.16122000  1
  P  P3  1  0.55022600  0.49997300  0.16128600  1
  S  S0  1  0.26766800  0.00002900  0.77407100  1
  S  S1  1  0.76758300  0.49993600  0.77430600  1
  S  S2  1  0.73236000  0.00008400  0.22563900  1
  S  S3  1  0.23242700  0.49998500  0.22600200  1
  S  S4  1  0.75589100  0.16630500  0.76848300  1
  S  S5  1  0.25595700  0.66648000  0.76877500  1
  S  S6  1  0.24413500  0.16634700  0.23139000  1
  S  S7  1  0.74399700  0.66638800  0.23155000  1
  S  S8  1  0.24420000  0.83365900  0.23140100  1
  S  S9  1  0.74401500  0.33359100  0.23133800  1
  S  S10  1  0.75584900  0.83375300  0.76827100  1
  S  S11  1  0.25600900  0.33355100  0.76878200  1
loop_
_geom_bond_atom_site_label_1
_geom_bond_atom_site_label_2
_geom_bond_distance
_geom_bond_site_symmetry_2
Fe0 S4 2.467959 1_554
Fe0 S6 2.469744 1_655
Fe0 S9 2.508432 1_555
Fe0 S11 2.512875 1_654
Fe0 S1 2.557351 1_554
Fe0 S3 2.560510 1_655
Fe1 S9 2.469089 1_556
Fe1 S11 2.470929 1_555
Fe1 S4 2.508786 1_555
Fe1 S6 2.513219 1_556
Fe1 S2 2.553847 1_556
Fe1 S0 2.557035 1_555
Fe2 S7 2.467765 1_556
Fe2 S5 2.472615 1_555
Fe2 S10 2.505684 1_555
Fe2 S8 2.517194 1_556
Fe2 S2 2.553058 1_566
Fe2 S0 2.560013 1_565
Fe3 S10 2.467238 1_554
Fe3 S8 2.472879 1_655
Fe3 S7 2.504639 1_555
Fe3 S5 2.517739 1_654
Fe3 S1 2.555112 1_554
Fe3 S3 2.562979 1_655
P0 S0 2.037447 1_655
P0 S4 2.047360 1_555
P0 S10 2.047723 1_545
P0 P2 2.196926 1_646
P1 S1 2.037947 1_555
P1 S5 2.048042 1_555
P1 S11 2.048233 1_555
P1 P3 2.196175 1_556
P2 S2 2.038822 1_465
P2 S8 2.046869 1_555
P2 S6 2.047395 1_565
P3 S3 2.036726 1_555
P3 S9 2.048155 1_555
P3 S7 2.048826 1_555
