# generated using pymatgen
data_Al13Si5H14Cl(O17F2)2
_symmetry_space_group_name_H-M   'P 1'
_cell_length_a   9.87364700
_cell_length_b   9.89207027
_cell_length_c   9.89184960
_cell_angle_alpha   60.60621580
_cell_angle_beta   60.39589408
_cell_angle_gamma   60.20956006
_symmetry_Int_Tables_number   1
_chemical_formula_structural   Al13Si5H14Cl(O17F2)2
_chemical_formula_sum   'Al13 Si5 H14 Cl1 O34 F4'
_cell_volume   689.39107746
_cell_formula_units_Z   1
loop_
 _symmetry_equiv_pos_site_id
 _symmetry_equiv_pos_as_xyz
  1  'x, y, z'
loop_
 _atom_site_type_symbol
 _atom_site_label
 _atom_site_symmetry_multiplicity
 _atom_site_fract_x
 _atom_site_fract_y
 _atom_site_fract_z
 _atom_site_occupancy
  Al  Al0  1  0.23347500  0.60103800  0.22823500  1
  Al  Al1  1  0.59369700  0.23478300  0.23685300  1
  Al  Al2  1  0.93543600  0.24577400  0.23118700  1
  Al  Al3  1  0.22729000  0.93974300  0.23353500  1
  Al  Al4  1  0.23366800  0.22816200  0.60018700  1
  Al  Al5  1  0.93925000  0.59986200  0.21328900  1
  Al  Al6  1  0.59700700  0.93978700  0.23018700  1
  Al  Al7  1  0.23261700  0.23634400  0.93693800  1
  Al  Al8  1  0.94041700  0.21591600  0.60666200  1
  Al  Al9  1  0.23336100  0.93496100  0.59582500  1
  Al  Al10  1  0.59414500  0.23138300  0.93829600  1
  Al  Al11  1  0.23449400  0.59323300  0.93407700  1
  Al  Al12  1  0.24703300  0.25297400  0.24827500  1
  Si  Si0  1  0.88651200  0.88658000  0.34232800  1
  Si  Si1  1  0.75103800  0.74514800  0.74681200  1
  Si  Si2  1  0.34386200  0.88419300  0.88534200  1
  Si  Si3  1  0.88579800  0.33930400  0.88814100  1
  Si  Si4  1  0.88438000  0.88220500  0.88234200  1
  H  H0  1  0.65070300  0.35587100  0.34507000  1
  H  H1  1  0.35359700  0.65083900  0.34785900  1
  H  H2  1  0.65410800  0.65058300  0.32008100  1
  H  H3  1  0.35205100  0.34647400  0.65092300  1
  H  H4  1  0.65088400  0.32607900  0.65136100  1
  H  H5  1  0.33726200  0.64687600  0.64683500  1
  H  H6  1  0.98888100  0.48678500  0.48393500  1
  H  H7  1  0.48796800  0.06358200  0.48831800  1
  H  H8  1  0.79727700  0.52955100  0.52831300  1
  H  H9  1  0.52575200  0.81171900  0.52112400  1
  H  H10  1  0.50747000  0.06590400  0.91313300  1
  H  H11  1  0.05676700  0.46658300  0.00823700  1
  H  H12  1  0.52745700  0.52181200  0.81890000  1
  H  H13  1  0.49718300  0.49610200  0.06789000  1
  Cl  Cl0  1  0.50071700  0.49994600  0.49941300  1
  O  O0  1  0.99963200  0.72659800  0.27394100  1
  O  O1  1  0.72620200  0.99897600  0.27524100  1
  O  O2  1  0.99691500  0.99904700  0.28296800  1
  O  O3  1  0.27517000  0.99655100  0.72698600  1
  O  O4  1  0.99914300  0.27114800  0.72759700  1
  O  O5  1  0.81356000  0.80884800  0.54585700  1
  O  O6  1  0.54819400  0.81272200  0.81150200  1
  O  O7  1  0.72439100  0.27544500  0.99913700  1
  O  O8  1  0.27920300  0.72458400  0.99630200  1
  O  O9  1  0.81370300  0.54338800  0.81176800  1
  O  O10  1  0.81591200  0.81382700  0.81506500  1
  O  O11  1  0.99964400  0.27191700  0.99939300  1
  O  O12  1  0.28177100  0.99564700  0.99853100  1
  O  O13  1  0.45371100  0.45587400  0.18788000  1
  O  O14  1  0.99907900  0.99269900  0.72280600  1
  O  O15  1  0.45008500  0.18411300  0.45550900  1
  O  O16  1  0.72132000  0.27547900  0.28529100  1
  O  O17  1  0.27494600  0.72123200  0.28605200  1
  O  O18  1  0.00139600  0.73037100  0.99232800  1
  O  O19  1  0.72371900  0.99569700  0.99570200  1
  O  O20  1  0.91608100  0.45040400  0.18720500  1
  O  O21  1  0.27303300  0.28574900  0.71979700  1
  O  O22  1  0.71926700  0.71975000  0.28321900  1
  O  O23  1  0.45729900  0.90411200  0.45631700  1
  O  O24  1  0.90671500  0.46679000  0.47002300  1
  O  O25  1  0.28341300  0.71761500  0.71597600  1
  O  O26  1  0.72138800  0.28343000  0.71749800  1
  O  O27  1  0.45753100  0.18297400  0.89995000  1
  O  O28  1  0.17434600  0.45042400  0.92378700  1
  O  O29  1  0.17714900  0.16727400  0.18005800  1
  O  O30  1  0.45740000  0.45519800  0.89973700  1
  O  O31  1  0.47286500  0.17295400  0.17453300  1
  O  O32  1  0.17620900  0.47655600  0.17880500  1
  O  O33  1  0.17037800  0.17577400  0.47515400  1
  F  F0  1  0.17941700  0.45333000  0.45542800  1
  F  F1  1  0.45183800  0.90199200  0.19309900  1
  F  F2  1  0.19371200  0.90614500  0.45036200  1
  F  F3  1  0.90270600  0.19526900  0.45729700  1
loop_
_geom_bond_atom_site_label_1
_geom_bond_atom_site_label_2
_geom_bond_distance
_geom_bond_site_symmetry_2
Al0 O17 1.814118 1_555
Al0 O13 1.884739 1_555
Al0 O32 1.905545 1_555
Al0 O8 1.932240 1_554
Al0 O0 1.936063 1_455
Al0 F0 1.958797 1_555
Al1 O16 1.808157 1_555
Al1 O13 1.883105 1_555
Al1 O15 1.884657 1_555
Al1 O1 1.971271 1_545
Al1 O7 1.986364 1_554
Al1 O31 1.999823 1_555
Al2 O20 1.776664 1_555
Al2 O16 1.805943 1_555
Al2 F3 1.925104 1_555
Al2 O11 1.967417 1_554
Al2 O29 1.976372 1_655
Al2 O2 2.048289 1_545
Al3 O17 1.814414 1_555
Al3 F2 1.878250 1_555
Al3 O29 1.890398 1_565
Al3 O2 1.901045 1_455
Al3 F1 1.913833 1_555
Al3 O12 1.948657 1_554
Al4 O21 1.792043 1_555
Al4 O15 1.862677 1_555
Al4 F0 1.933915 1_555
Al4 O3 1.935039 1_545
Al4 O4 1.948214 1_455
Al4 O33 1.975683 1_555
Al5 O20 1.753157 1_555
Al5 O22 1.834105 1_555
Al5 O18 1.874223 1_654
Al5 O32 1.965281 1_655
Al5 O0 2.030158 1_555
Al5 O24 2.148964 1_555
Al6 O22 1.834138 1_555
Al6 F1 1.874975 1_555
Al6 O23 1.921225 1_555
Al6 O1 1.930965 1_555
Al6 O31 1.933000 1_565
Al6 O19 1.952527 1_554
Al7 O21 1.824327 1_555
Al7 O28 1.850789 1_555
Al7 O27 1.888401 1_555
Al7 O11 1.949836 1_455
Al7 O12 1.998947 1_545
Al7 O29 2.001980 1_556
Al8 O26 1.807200 1_555
Al8 F3 1.810712 1_555
Al8 O14 1.851341 1_545
Al8 O33 1.923082 1_655
Al8 O4 1.925483 1_555
Al8 O24 2.104152 1_555
Al9 O25 1.815351 1_555
Al9 F2 1.837113 1_555
Al9 O23 1.901218 1_555
Al9 O14 1.943087 1_455
Al9 O3 1.944200 1_555
Al9 O33 1.989057 1_565
Al10 O26 1.855158 1_555
Al10 O27 1.875716 1_555
Al10 O30 1.892027 1_555
Al10 O7 1.945538 1_555
Al10 O31 1.955998 1_556
Al10 O19 1.961925 1_545
Al11 O25 1.832189 1_555
Al11 O28 1.842070 1_555
Al11 O30 1.885279 1_555
Al11 O18 1.955504 1_555
Al11 O8 1.971159 1_555
Al11 O32 2.016065 1_556
Al12 O29 1.803595 1_555
Al12 O32 1.816279 1_555
Al12 O31 1.826628 1_555
Al12 O33 1.845656 1_555
H0 O16 0.985654 1_555
H1 O17 0.987726 1_555
H2 O22 0.987787 1_555
H3 O21 0.986151 1_555
H4 O26 0.988832 1_555
H5 O25 0.990420 1_555
H6 O24 1.006331 1_555
H7 O15 0.981719 1_555
H8 O24 0.977099 1_555
H9 O23 0.970688 1_555
H10 O27 0.974237 1_555
H11 O28 1.029398 1_554
H11 O20 1.613183 1_455
H12 O30 0.970205 1_555
H13 O13 0.976785 1_555
O0 Si0 1.660601 1_555
O1 Si0 1.657345 1_555
O2 Si0 1.643835 1_555
O3 Si2 1.655495 1_555
O4 Si3 1.665626 1_555
O5 Si1 1.635275 1_555
O5 Si0 1.661726 1_555
O6 Si1 1.640398 1_555
O6 Si2 1.654481 1_555
O7 Si3 1.653801 1_555
O8 Si2 1.647200 1_555
O9 Si1 1.638878 1_555
O9 Si3 1.661116 1_555
O10 Si1 1.624072 1_555
O10 Si4 1.642603 1_555
O11 Si3 1.636006 1_555
O12 Si2 1.645271 1_555
O14 Si4 1.654896 1_555
O18 Si4 1.639514 1_455
O19 Si4 1.656157 1_555
F0 H6 1.636184 1_455
