# generated using pymatgen
data_HoBi2BrO4
_symmetry_space_group_name_H-M   'P 1'
_cell_length_a   3.90554600
_cell_length_b   3.90554600
_cell_length_c   9.33997200
_cell_angle_alpha   90.00000000
_cell_angle_beta   90.00000000
_cell_angle_gamma   90.00000000
_symmetry_Int_Tables_number   1
_chemical_formula_structural   HoBi2BrO4
_chemical_formula_sum   'Ho1 Bi2 Br1 O4'
_cell_volume   142.46529738
_cell_formula_units_Z   1
loop_
 _symmetry_equiv_pos_site_id
 _symmetry_equiv_pos_as_xyz
  1  'x, y, z'
loop_
 _atom_site_type_symbol
 _atom_site_label
 _atom_site_symmetry_multiplicity
 _atom_site_fract_x
 _atom_site_fract_y
 _atom_site_fract_z
 _atom_site_occupancy
  Ho  Ho0  1  0.00000000  0.00000000  0.00000000  1
  Bi  Bi0  1  0.50000000  0.50000000  0.26752700  1
  Bi  Bi1  1  0.50000000  0.50000000  0.73247300  1
  Br  Br0  1  0.00000000  0.00000000  0.50000000  1
  O  O0  1  0.00000000  0.50000000  0.14681500  1
  O  O1  1  0.50000000  0.00000000  0.85318500  1
  O  O2  1  0.00000000  0.50000000  0.85318500  1
  O  O3  1  0.50000000  0.00000000  0.14681500  1
loop_
_geom_bond_atom_site_label_1
_geom_bond_atom_site_label_2
_geom_bond_distance
_geom_bond_site_symmetry_2
Ho0 O2 2.386136 1_544
Ho0 O3 2.386136 1_555
Ho0 O0 2.386136 1_555
Ho0 O1 2.386136 1_554
Ho0 O0 2.386136 1_545
Ho0 O2 2.386136 1_554
Ho0 O3 2.386136 1_455
Ho0 O1 2.386136 1_454
Bi0 O3 2.254874 1_565
Bi0 O0 2.254874 1_655
Bi0 O3 2.254874 1_555
Bi0 O0 2.254874 1_555
Bi1 O1 2.254874 1_555
Bi1 O1 2.254874 1_565
Bi1 O2 2.254874 1_555
Bi1 O2 2.254874 1_655
