# generated using pymatgen
data_RbMgAs(H6O5)2
_symmetry_space_group_name_H-M   'P 1'
_cell_length_a   6.25825100
_cell_length_b   7.08025900
_cell_length_c   11.52188400
_cell_angle_alpha   90.00000000
_cell_angle_beta   90.00000000
_cell_angle_gamma   90.00000000
_symmetry_Int_Tables_number   1
_chemical_formula_structural   RbMgAs(H6O5)2
_chemical_formula_sum   'Rb2 Mg2 As2 H24 O20'
_cell_volume   510.53511749
_cell_formula_units_Z   2
loop_
 _symmetry_equiv_pos_site_id
 _symmetry_equiv_pos_as_xyz
  1  'x, y, z'
loop_
 _atom_site_type_symbol
 _atom_site_label
 _atom_site_symmetry_multiplicity
 _atom_site_fract_x
 _atom_site_fract_y
 _atom_site_fract_z
 _atom_site_occupancy
  Rb  Rb0  1  0.64354700  0.00000000  0.73807000  1
  Rb  Rb1  1  0.35645300  0.50000000  0.23807000  1
  Mg  Mg0  1  0.61297200  0.00000000  0.38769300  1
  Mg  Mg1  1  0.38702800  0.50000000  0.88769300  1
  As  As0  1  0.97728600  0.50000000  0.51865300  1
  As  As1  1  0.02271400  0.00000000  0.01865300  1
  H  H0  1  0.64515400  0.25894000  0.01920000  1
  H  H1  1  0.80931300  0.31958800  0.31571600  1
  H  H2  1  0.72011000  0.50000000  0.72426300  1
  H  H3  1  0.40730000  0.82023000  0.03322900  1
  H  H4  1  0.19068700  0.81958800  0.81571600  1
  H  H5  1  0.35484600  0.24106000  0.51920000  1
  H  H6  1  0.83334600  0.50000000  0.85139500  1
  H  H7  1  0.64515400  0.74106000  0.01920000  1
  H  H8  1  0.40730000  0.17977000  0.03322900  1
  H  H9  1  0.98937500  0.11435500  0.50664400  1
  H  H10  1  0.21263500  0.69989500  0.69891600  1
  H  H11  1  0.19068700  0.18041200  0.81571600  1
  H  H12  1  0.21263500  0.30010500  0.69891600  1
  H  H13  1  0.59270000  0.67977000  0.53322900  1
  H  H14  1  0.80931300  0.68041200  0.31571600  1
  H  H15  1  0.01062500  0.38564500  0.00664400  1
  H  H16  1  0.98937500  0.88564500  0.50664400  1
  H  H17  1  0.35484600  0.75894000  0.51920000  1
  H  H18  1  0.27989000  0.00000000  0.22426300  1
  H  H19  1  0.78736500  0.80010500  0.19891600  1
  H  H20  1  0.16665400  0.00000000  0.35139500  1
  H  H21  1  0.59270000  0.32023000  0.53322900  1
  H  H22  1  0.01062500  0.61435500  0.00664400  1
  H  H23  1  0.78736500  0.19989500  0.19891600  1
  O  O0  1  0.94952100  0.50000000  0.37029600  1
  O  O1  1  0.72682400  0.50000000  0.58320900  1
  O  O2  1  0.49164400  0.29223300  0.00480200  1
  O  O3  1  0.27317600  0.00000000  0.08320900  1
  O  O4  1  0.50835600  0.79223300  0.50480200  1
  O  O5  1  0.28039000  0.28082900  0.77703400  1
  O  O6  1  0.89082000  0.79890000  0.06395900  1
  O  O7  1  0.89082000  0.20110000  0.06395900  1
  O  O8  1  0.10918000  0.29890000  0.56395900  1
  O  O9  1  0.05047900  0.00000000  0.87029600  1
  O  O10  1  0.28039000  0.71917100  0.77703400  1
  O  O11  1  0.92681100  0.00000000  0.46647100  1
  O  O12  1  0.69476200  0.50000000  0.81102900  1
  O  O13  1  0.49164400  0.70776700  0.00480200  1
  O  O14  1  0.07318900  0.50000000  0.96647100  1
  O  O15  1  0.10918000  0.70110000  0.56395900  1
  O  O16  1  0.71961000  0.21917100  0.27703400  1
  O  O17  1  0.50835600  0.20776700  0.50480200  1
  O  O18  1  0.30523800  0.00000000  0.31102900  1
  O  O19  1  0.71961000  0.78082900  0.27703400  1
loop_
_geom_bond_atom_site_label_1
_geom_bond_atom_site_label_2
_geom_bond_distance
_geom_bond_site_symmetry_2
Mg0 O17 2.100780 1_555
Mg0 O4 2.100780 1_545
Mg0 O16 2.116376 1_555
Mg0 O19 2.116376 1_545
Mg0 O18 2.118784 1_555
Mg0 O11 2.163675 1_555
Mg1 O13 2.100780 1_556
Mg1 O2 2.100780 1_556
Mg1 O5 2.116376 1_555
Mg1 O10 2.116376 1_555
Mg1 O12 2.118784 1_555
Mg1 O14 2.163675 1_555
As0 O0 1.718161 1_555
As0 O8 1.726599 1_655
As0 O15 1.726599 1_655
As0 O1 1.734981 1_555
As1 O9 1.718161 1_554
As1 O6 1.726599 1_445
As1 O7 1.726599 1_455
As1 O3 1.734981 1_555
H0 O2 1.003014 1_555
H0 O7 1.672538 1_555
H1 O16 1.009595 1_555
H1 O0 1.672441 1_555
H2 O12 1.012216 1_555
H2 O1 1.625751 1_555
H3 O13 1.009921 1_555
H3 O3 1.629800 1_565
H4 O10 1.009595 1_555
H4 O9 1.672441 1_565
H5 O17 1.003014 1_555
H5 O8 1.672538 1_555
H6 O12 0.984128 1_555
H7 O13 1.003014 1_555
H7 O6 1.672538 1_555
H8 O2 1.009921 1_555
H8 O3 1.629800 1_555
H9 O11 1.011487 1_555
H9 O8 1.644848 1_655
H10 O10 1.004264 1_555
H10 O15 1.684387 1_555
H11 O5 1.009595 1_555
H11 O9 1.672441 1_555
H12 O5 1.004264 1_555
H12 O8 1.684387 1_555
H13 O4 1.009921 1_555
H13 O1 1.629800 1_555
H14 O19 1.009595 1_555
H14 O0 1.672441 1_555
H15 O14 1.011487 1_554
H15 O7 1.644848 1_455
H16 O11 1.011487 1_565
H16 O15 1.644848 1_655
H17 O4 1.003014 1_555
H17 O15 1.672538 1_555
H18 O18 1.012216 1_555
H18 O3 1.625751 1_555
H19 O19 1.004264 1_555
H19 O6 1.684387 1_555
H20 O18 0.984128 1_555
H21 O17 1.009921 1_555
H21 O1 1.629800 1_555
H22 O14 1.011487 1_554
H22 O6 1.644848 1_455
H23 O16 1.004264 1_555
H23 O7 1.684387 1_555
O0 Rb1 2.967595 1_655
O2 Rb1 3.178592 1_555
O4 Rb0 3.178592 1_565
O5 Rb0 3.052923 1_555
O9 Rb0 2.967595 1_455
O10 Rb0 3.052923 1_565
O13 Rb1 3.178592 1_555
O16 Rb1 3.052923 1_555
O17 Rb0 3.178592 1_555
O19 Rb1 3.052923 1_555
