# generated using pymatgen
data_Yb2In13Pd6
_symmetry_space_group_name_H-M   'P 1'
_cell_length_a   8.82081570
_cell_length_b   8.82081570
_cell_length_c   13.63060977
_cell_angle_alpha   62.50901676
_cell_angle_beta   62.50901676
_cell_angle_gamma   29.15034073
_symmetry_Int_Tables_number   1
_chemical_formula_structural   Yb2In13Pd6
_chemical_formula_sum   'Yb2 In13 Pd6'
_cell_volume   454.05217369
_cell_formula_units_Z   1
loop_
 _symmetry_equiv_pos_site_id
 _symmetry_equiv_pos_as_xyz
  1  'x, y, z'
loop_
 _atom_site_type_symbol
 _atom_site_label
 _atom_site_symmetry_multiplicity
 _atom_site_fract_x
 _atom_site_fract_y
 _atom_site_fract_z
 _atom_site_occupancy
  Yb  Yb0  1  0.82163400  0.82163400  0.27355900  1
  Yb  Yb1  1  0.17836600  0.17836600  0.72644100  1
  In  In0  1  0.79769600  0.79769600  0.54009700  1
  In  In1  1  0.00088400  0.00088400  0.32830200  1
  In  In2  1  0.70067200  0.70067200  0.12424600  1
  In  In3  1  0.51117200  0.51117200  0.82756700  1
  In  In4  1  0.34720700  0.34720700  0.07630700  1
  In  In5  1  0.20230400  0.20230400  0.45990300  1
  In  In6  1  0.40687400  0.40687400  0.59880800  1
  In  In7  1  0.99911600  0.99911600  0.67169800  1
  In  In8  1  0.00000000  0.00000000  0.00000000  1
  In  In9  1  0.65279300  0.65279300  0.92369300  1
  In  In10  1  0.29932800  0.29932800  0.87575400  1
  In  In11  1  0.59312600  0.59312600  0.40119200  1
  In  In12  1  0.48882800  0.48882800  0.17243300  1
  Pd  Pd0  1  0.81815800  0.81815800  0.73577900  1
  Pd  Pd1  1  0.18184200  0.18184200  0.26422100  1
  Pd  Pd2  1  0.11614100  0.11614100  0.08236600  1
  Pd  Pd3  1  0.38707000  0.38707000  0.40408300  1
  Pd  Pd4  1  0.61293000  0.61293000  0.59591700  1
  Pd  Pd5  1  0.88385900  0.88385900  0.91763400  1
loop_
_geom_bond_atom_site_label_1
_geom_bond_atom_site_label_2
_geom_bond_distance
_geom_bond_site_symmetry_2
In0 Pd3 2.827426 1_655
In0 Pd3 2.827426 1_565
In0 Pd0 2.850486 1_555
In0 Pd4 2.870754 1_555
In0 In6 3.235062 1_565
In0 In6 3.235062 1_655
In0 In5 3.236229 1_655
In0 In5 3.236229 1_565
In0 Yb1 3.254750 1_565
In0 Yb1 3.254750 1_655
In0 In1 3.288749 1_665
In0 Yb0 3.456851 1_555
In1 Pd1 2.781112 1_555
In1 Pd3 2.802811 1_545
In1 Pd3 2.802811 1_455
In1 Pd2 2.969402 1_555
In1 Yb0 3.478773 1_445
In2 Pd1 2.843555 1_565
In2 Pd1 2.843555 1_655
In2 Pd2 2.849940 1_565
In2 Pd2 2.849940 1_655
In2 Pd5 3.051451 1_554
In2 Yb0 3.523807 1_555
In3 Pd4 2.784866 1_555
In3 Pd5 2.934954 1_545
In3 Pd5 2.934954 1_455
In3 Yb1 3.350050 1_655
In3 Yb1 3.350050 1_565
In4 Pd1 2.762934 1_555
In4 Pd5 2.950524 1_454
In4 Pd5 2.950524 1_544
In4 Yb0 3.350677 1_455
In4 Yb0 3.350677 1_545
In5 Pd4 2.827426 1_545
In5 Pd4 2.827426 1_455
In5 Pd1 2.850486 1_555
In5 Pd3 2.870754 1_555
In5 Yb0 3.254750 1_455
In5 Yb0 3.254750 1_545
In5 In7 3.288749 1_445
In5 Yb1 3.456851 1_555
In6 Pd0 2.830148 1_545
In6 Pd0 2.830148 1_455
In6 Pd3 2.831137 1_555
In6 Yb1 3.431288 1_555
In7 Pd0 2.781112 1_555
In7 Pd4 2.802811 1_565
In7 Pd4 2.802811 1_655
In7 Pd5 2.969402 1_555
In7 Yb1 3.478773 1_665
In8 Pd2 2.704876 1_555
In8 Pd5 2.704876 1_444
In8 Yb0 3.513677 1_445
In8 Yb1 3.513677 1_554
In9 Pd0 2.762934 1_555
In9 Pd2 2.950524 1_656
In9 Pd2 2.950524 1_566
In9 Yb1 3.350677 1_565
In9 Yb1 3.350677 1_655
In10 Pd0 2.843555 1_545
In10 Pd0 2.843555 1_455
In10 Pd5 2.849940 1_455
In10 Pd5 2.849940 1_545
In10 Pd2 3.051451 1_556
In10 Yb1 3.523807 1_555
In11 Pd1 2.830148 1_655
In11 Pd1 2.830148 1_565
In11 Pd4 2.831137 1_555
In11 In5 3.235062 1_565
In11 In5 3.235062 1_655
In11 Yb0 3.431288 1_555
In12 Pd3 2.784866 1_555
In12 Pd2 2.934954 1_565
In12 Pd2 2.934954 1_655
In12 Yb0 3.350050 1_455
In12 Yb0 3.350050 1_545
Pd0 Yb1 3.306071 1_655
Pd0 Yb1 3.306071 1_565
Pd1 Yb0 3.306071 1_545
Pd1 Yb0 3.306071 1_455
Pd3 Yb0 3.352157 1_545
Pd3 Yb0 3.352157 1_455
Pd4 Yb1 3.352157 1_565
Pd4 Yb1 3.352157 1_655
