# generated using pymatgen
data_FeNiPO5
_symmetry_space_group_name_H-M   'P 1'
_cell_length_a   6.43263600
_cell_length_b   7.40111600
_cell_length_c   7.49167300
_cell_angle_alpha   90.00000000
_cell_angle_beta   90.00000000
_cell_angle_gamma   90.00000000
_symmetry_Int_Tables_number   1
_chemical_formula_structural   FeNiPO5
_chemical_formula_sum   'Fe4 Ni4 P4 O20'
_cell_volume   356.66870164
_cell_formula_units_Z   4
loop_
 _symmetry_equiv_pos_site_id
 _symmetry_equiv_pos_as_xyz
  1  'x, y, z'
loop_
 _atom_site_type_symbol
 _atom_site_label
 _atom_site_symmetry_multiplicity
 _atom_site_fract_x
 _atom_site_fract_y
 _atom_site_fract_z
 _atom_site_occupancy
  Fe  Fe0  1  0.25000000  0.64957600  0.20654900  1
  Fe  Fe1  1  0.75000000  0.85042400  0.70654900  1
  Fe  Fe2  1  0.75000000  0.35042400  0.79345100  1
  Fe  Fe3  1  0.25000000  0.14957600  0.29345100  1
  Ni  Ni0  1  0.50000000  0.00000000  0.00000000  1
  Ni  Ni1  1  0.00000000  0.00000000  0.00000000  1
  Ni  Ni2  1  0.50000000  0.50000000  0.50000000  1
  Ni  Ni3  1  0.00000000  0.50000000  0.50000000  1
  P  P0  1  0.75000000  0.63017100  0.14155800  1
  P  P1  1  0.75000000  0.13017100  0.35844200  1
  P  P2  1  0.25000000  0.86982900  0.64155800  1
  P  P3  1  0.25000000  0.36982900  0.85844200  1
  O  O0  1  0.55580600  0.63137100  0.26456000  1
  O  O1  1  0.25000000  0.39906900  0.36015600  1
  O  O2  1  0.75000000  0.10093100  0.86015600  1
  O  O3  1  0.75000000  0.80374700  0.02593700  1
  O  O4  1  0.75000000  0.30374700  0.47406300  1
  O  O5  1  0.25000000  0.89906900  0.13984400  1
  O  O6  1  0.75000000  0.60093100  0.63984400  1
  O  O7  1  0.05580600  0.36862900  0.73544000  1
  O  O8  1  0.05580600  0.86862900  0.76456000  1
  O  O9  1  0.75000000  0.46057900  0.02504900  1
  O  O10  1  0.55580600  0.13137100  0.23544000  1
  O  O11  1  0.25000000  0.03942100  0.52504900  1
  O  O12  1  0.25000000  0.53942100  0.97495100  1
  O  O13  1  0.94419400  0.63137100  0.26456000  1
  O  O14  1  0.44419400  0.36862900  0.73544000  1
  O  O15  1  0.94419400  0.13137100  0.23544000  1
  O  O16  1  0.44419400  0.86862900  0.76456000  1
  O  O17  1  0.25000000  0.19625300  0.97406300  1
  O  O18  1  0.25000000  0.69625300  0.52593700  1
  O  O19  1  0.75000000  0.96057900  0.47495100  1
loop_
_geom_bond_atom_site_label_1
_geom_bond_atom_site_label_2
_geom_bond_distance
_geom_bond_site_symmetry_2
Fe0 O5 1.912954 1_555
Fe0 O12 1.917051 1_554
Fe0 O0 2.019075 1_555
Fe0 O13 2.019075 1_455
Fe0 O1 2.182135 1_555
Fe0 O18 2.417560 1_555
Fe1 O6 1.912954 1_555
Fe1 O19 1.917051 1_555
Fe1 O16 2.019075 1_555
Fe1 O8 2.019075 1_655
Fe1 O2 2.182135 1_565
Fe1 O3 2.417560 1_556
Fe2 O2 1.912954 1_555
Fe2 O9 1.917051 1_556
Fe2 O14 2.019075 1_555
Fe2 O7 2.019075 1_655
Fe2 O6 2.182135 1_555
Fe2 O4 2.417560 1_555
Fe3 O1 1.912954 1_555
Fe3 O11 1.917051 1_555
Fe3 O15 2.019075 1_455
Fe3 O10 2.019075 1_555
Fe3 O5 2.182135 1_545
Fe3 O17 2.417560 1_554
Ni0 O10 2.045812 1_555
Ni0 O16 2.045812 1_544
Ni0 O2 2.059561 1_554
Ni0 O5 2.059561 1_545
Ni0 O17 2.175698 1_554
Ni0 O3 2.175698 1_545
Ni1 O15 2.045812 1_455
Ni1 O8 2.045812 1_544
Ni1 O2 2.059561 1_454
Ni1 O5 2.059561 1_545
Ni1 O17 2.175698 1_554
Ni1 O3 2.175698 1_445
Ni2 O0 2.045812 1_555
Ni2 O14 2.045812 1_555
Ni2 O6 2.059561 1_555
Ni2 O1 2.059561 1_555
Ni2 O18 2.175698 1_555
Ni2 O4 2.175698 1_555
Ni3 O7 2.045812 1_555
Ni3 O13 2.045812 1_455
Ni3 O6 2.059561 1_455
Ni3 O1 2.059561 1_555
Ni3 O18 2.175698 1_555
Ni3 O4 2.175698 1_455
O0 P0 1.552312 1_555
O3 P0 1.549398 1_555
O4 P1 1.549398 1_555
O7 P3 1.552312 1_555
O8 P2 1.552312 1_555
O9 P0 1.528828 1_555
O10 P1 1.552312 1_555
O11 P2 1.528828 1_545
O12 P3 1.528828 1_555
O13 P0 1.552312 1_555
O14 P3 1.552312 1_555
O15 P1 1.552312 1_555
O16 P2 1.552312 1_555
O17 P3 1.549398 1_555
O18 P2 1.549398 1_555
O19 P1 1.528828 1_565
