# generated using pymatgen
data_Zr3Sc4O12
_symmetry_space_group_name_H-M   'P 1'
_cell_length_a   6.20367400
_cell_length_b   6.24155608
_cell_length_c   29.98895776
_cell_angle_alpha   90.15720168
_cell_angle_beta   90.15969840
_cell_angle_gamma   99.68721450
_symmetry_Int_Tables_number   1
_chemical_formula_structural   Zr3Sc4O12
_chemical_formula_sum   'Zr15 Sc20 O60'
_cell_volume   1144.62193227
_cell_formula_units_Z   5
loop_
 _symmetry_equiv_pos_site_id
 _symmetry_equiv_pos_as_xyz
  1  'x, y, z'
loop_
 _atom_site_type_symbol
 _atom_site_label
 _atom_site_symmetry_multiplicity
 _atom_site_fract_x
 _atom_site_fract_y
 _atom_site_fract_z
 _atom_site_occupancy
  Zr  Zr0  1  0.72976000  0.25045300  0.86082800  1
  Zr  Zr1  1  0.53147000  0.05123200  0.65934500  1
  Zr  Zr2  1  0.60800900  0.78153400  0.92224600  1
  Zr  Zr3  1  0.38052100  0.07777800  0.77324400  1
  Zr  Zr4  1  0.33140000  0.85120400  0.45945500  1
  Zr  Zr5  1  0.41665700  0.58167500  0.72220900  1
  Zr  Zr6  1  0.17955800  0.87836700  0.57347700  1
  Zr  Zr7  1  0.12573500  0.65001000  0.25964900  1
  Zr  Zr8  1  0.21644000  0.38180300  0.52222900  1
  Zr  Zr9  1  0.98031800  0.67796800  0.37378200  1
  Zr  Zr10  1  0.92473600  0.44993300  0.06108500  1
  Zr  Zr11  1  0.00688800  0.00378400  0.99830200  1
  Zr  Zr12  1  0.01513500  0.17923400  0.32293900  1
  Zr  Zr13  1  0.80529500  0.97861200  0.12308600  1
  Zr  Zr14  1  0.20769300  0.20359000  0.19739800  1
  Sc  Sc0  1  0.60294800  0.59665600  0.59884100  1
  Sc  Sc1  1  0.57689300  0.29388800  0.97223500  1
  Sc  Sc2  1  0.19344100  0.01589200  0.87871700  1
  Sc  Sc3  1  0.22037700  0.51593300  0.82841600  1
  Sc  Sc4  1  0.98303900  0.81077000  0.67942200  1
  Sc  Sc5  1  0.07816500  0.54133900  0.93573300  1
  Sc  Sc6  1  0.02242900  0.31651900  0.62899100  1
  Sc  Sc7  1  0.77615600  0.49395700  0.17282300  1
  Sc  Sc8  1  0.78310600  0.61090900  0.47932900  1
  Sc  Sc9  1  0.88036000  0.34451300  0.73694800  1
  Sc  Sc10  1  0.82141700  0.11636500  0.42915200  1
  Sc  Sc11  1  0.58992500  0.41226200  0.27869700  1
  Sc  Sc12  1  0.80248900  0.79661600  0.79940000  1
  Sc  Sc13  1  0.68088400  0.14514400  0.53686000  1
  Sc  Sc14  1  0.62297800  0.91018500  0.22940300  1
  Sc  Sc15  1  0.40010800  0.21719600  0.07791600  1
  Sc  Sc16  1  0.48017300  0.94462200  0.33633700  1
  Sc  Sc17  1  0.42232600  0.71002500  0.02842000  1
  Sc  Sc18  1  0.40325300  0.39644200  0.39859100  1
  Sc  Sc19  1  0.27799900  0.74087600  0.13494300  1
  O  O0  1  0.92155400  0.31308400  0.98424200  1
  O  O1  1  0.76695000  0.92303700  0.86372100  1
  O  O2  1  0.71824700  0.11124600  0.78445200  1
  O  O3  1  0.73521200  0.49257100  0.91366300  1
  O  O4  1  0.56903600  0.72381700  0.66354400  1
  O  O5  1  0.51843900  0.91203500  0.58475600  1
  O  O6  1  0.66626700  0.89233900  0.98794500  1
  O  O7  1  0.53398500  0.28642200  0.71417600  1
  O  O8  1  0.36838100  0.52386700  0.46349800  1
  O  O9  1  0.49803500  0.09585500  0.91590600  1
  O  O10  1  0.41705800  0.26465700  0.83608200  1
  O  O11  1  0.31867100  0.71201900  0.38478700  1
  O  O12  1  0.45878000  0.71132600  0.78664600  1
  O  O13  1  0.33420800  0.08653300  0.51435200  1
  O  O14  1  0.16261300  0.32040300  0.26332600  1
  O  O15  1  0.29348100  0.89429900  0.71515500  1
  O  O16  1  0.38521200  0.54463900  0.96384600  1
  O  O17  1  0.21812500  0.06688200  0.63598400  1
  O  O18  1  0.31037600  0.70613700  0.88428200  1
  O  O19  1  0.12191000  0.51424300  0.18455900  1
  O  O20  1  0.25938200  0.51167800  0.58670800  1
  O  O21  1  0.13303600  0.88503400  0.31462000  1
  O  O22  1  0.13116800  0.91254200  0.81235700  1
  O  O23  1  0.96068700  0.11942800  0.06366400  1
  O  O24  1  0.09309900  0.69452100  0.51531500  1
  O  O25  1  0.19280100  0.33916800  0.76393800  1
  O  O26  1  0.01776800  0.86623900  0.43604200  1
  O  O27  1  0.11245100  0.50584600  0.68500900  1
  O  O28  1  0.05920300  0.31122500  0.38704500  1
  O  O29  1  0.06425300  0.30093100  0.88521800  1
  O  O30  1  0.93420200  0.69157100  0.11407600  1
  O  O31  1  0.93075700  0.71292400  0.61262500  1
  O  O32  1  0.89454800  0.49319700  0.31549200  1
  O  O33  1  0.99247400  0.13926200  0.56401700  1
  O  O34  1  0.81553600  0.66367400  0.23643900  1
  O  O35  1  0.91204400  0.30586800  0.48510100  1
  O  O36  1  0.01662000  0.86957400  0.93467300  1
  O  O37  1  0.86677400  0.09173300  0.18839700  1
  O  O38  1  0.86377200  0.10128000  0.68533500  1
  O  O39  1  0.73070800  0.51233100  0.41262500  1
  O  O40  1  0.88528000  0.50036800  0.81867200  1
  O  O41  1  0.69908900  0.29474800  0.11624100  1
  O  O42  1  0.79213500  0.93908700  0.36415500  1
  O  O43  1  0.61582900  0.46315600  0.03642000  1
  O  O44  1  0.71135800  0.10419900  0.28531500  1
  O  O45  1  0.80650600  0.66305500  0.73493600  1
  O  O46  1  0.66378000  0.90133200  0.48541000  1
  O  O47  1  0.53462300  0.31304000  0.21201000  1
  O  O48  1  0.68672000  0.30185300  0.61864100  1
  O  O49  1  0.58391700  0.74442700  0.16410600  1
  O  O50  1  0.50922300  0.90445700  0.08450100  1
  O  O51  1  0.60665900  0.46354500  0.53483000  1
  O  O52  1  0.46114800  0.69775900  0.28525100  1
  O  O53  1  0.33508700  0.11362700  0.01169300  1
  O  O54  1  0.48627000  0.10207900  0.41881300  1
  O  O55  1  0.40504700  0.26307200  0.33444900  1
  O  O56  1  0.26173000  0.49713700  0.08512100  1
  O  O57  1  0.28218800  0.90728300  0.22070500  1
  O  O58  1  0.21575300  0.06974800  0.13414600  1
  O  O59  1  0.08175100  0.70530300  0.02052400  1
loop_
_geom_bond_atom_site_label_1
_geom_bond_atom_site_label_2
_geom_bond_distance
_geom_bond_site_symmetry_2
O0 Zr11 2.128867 1_655
O0 Sc1 2.150585 1_555
O0 Sc5 2.154830 1_655
O0 Zr10 2.454320 1_556
O1 Zr0 2.096791 1_565
O1 Sc12 2.108205 1_555
O1 Zr2 2.134886 1_555
O1 Sc2 2.648459 1_665
O2 Zr3 2.096337 1_555
O2 Sc12 2.163196 1_545
O2 Sc9 2.165012 1_555
O2 Zr0 2.444057 1_555
O3 Zr2 2.102245 1_555
O3 Zr0 2.182829 1_555
O3 Sc5 2.197807 1_655
O3 Sc1 2.280236 1_555
O4 Zr1 2.099502 1_565
O4 Sc0 2.118789 1_555
O4 Zr5 2.124017 1_555
O4 Sc4 2.576881 1_555
O5 Zr6 2.103624 1_555
O5 Sc0 2.163036 1_555
O5 Sc13 2.172943 1_565
O5 Zr1 2.393644 1_565
O6 Zr2 2.096479 1_555
O6 Sc17 2.120527 1_556
O6 Zr11 2.132137 1_665
O6 Sc1 2.698804 1_565
O7 Zr5 2.105665 1_555
O7 Zr1 2.199507 1_555
O7 Sc9 2.223380 1_555
O7 Zr3 2.311904 1_555
O8 Zr4 2.097738 1_555
O8 Zr8 2.124471 1_555
O8 Sc18 2.126016 1_555
O8 Sc8 2.580953 1_555
O9 Sc1 2.097880 1_555
O9 Sc2 2.175156 1_555
O9 Zr2 2.191400 1_545
O9 Zr0 2.298045 1_555
O10 Zr0 2.090936 1_555
O10 Sc3 2.155402 1_555
O10 Zr3 2.204455 1_555
O10 Sc2 2.294761 1_555
O11 Zr9 2.098962 1_455
O11 Sc18 2.162746 1_555
O11 Sc16 2.180099 1_555
O11 Zr4 2.395886 1_555
O12 Zr5 2.091586 1_555
O12 Sc12 2.142088 1_555
O12 Sc3 2.157657 1_555
O12 Zr3 2.450780 1_565
O13 Zr8 2.106589 1_555
O13 Zr4 2.201365 1_545
O13 Sc13 2.222741 1_555
O13 Zr6 2.314102 1_545
O14 Zr7 2.111000 1_555
O14 Zr12 2.134447 1_555
O14 Zr14 2.140690 1_555
O14 Sc11 2.654946 1_555
O15 Zr3 2.100810 1_565
O15 Sc4 2.185558 1_455
O15 Zr5 2.222440 1_555
O15 Zr1 2.340194 1_565
O16 Sc5 2.077810 1_555
O16 Sc1 2.133915 1_555
O16 Sc17 2.185224 1_556
O16 Zr2 2.232695 1_555
O17 Zr1 2.082243 1_555
O17 Sc6 2.140697 1_555
O17 Zr6 2.201403 1_545
O17 Sc4 2.369939 1_445
O18 Sc3 2.070928 1_555
O18 Zr2 2.149377 1_555
O18 Sc2 2.182898 1_565
O18 Sc5 2.244190 1_555
O19 Zr14 2.131015 1_555
O19 Sc7 2.155189 1_455
O19 Sc19 2.170516 1_555
O19 Zr7 2.402505 1_555
O20 Zr8 2.093552 1_555
O20 Sc0 2.137902 1_555
O20 Sc6 2.160728 1_555
O20 Zr6 2.454825 1_555
O21 Zr12 2.102282 1_565
O21 Zr7 2.198971 1_555
O21 Sc16 2.218435 1_555
O21 Zr9 2.307729 1_455
O22 Zr3 2.076592 1_565
O22 Sc12 2.080779 1_455
O22 Sc2 2.104881 1_565
O22 Sc3 2.670619 1_555
O23 Zr10 2.113469 1_555
O23 Zr11 2.123741 1_654
O23 Zr13 2.147173 1_545
O24 Zr6 2.103182 1_555
O24 Sc8 2.186977 1_455
O24 Zr8 2.223091 1_555
O24 Zr4 2.341871 1_555
O25 Sc9 2.103888 1_455
O25 Zr3 2.176210 1_555
O25 Sc3 2.215482 1_555
O25 Zr5 2.257945 1_555
O26 Zr4 2.083656 1_555
O26 Sc10 2.145711 1_465
O26 Zr9 2.194224 1_455
O26 Sc8 2.363316 1_455
O27 Sc6 2.071764 1_555
O27 Zr5 2.171364 1_555
O27 Sc4 2.193170 1_455
O27 Sc9 2.246407 1_455
O28 Zr12 2.088520 1_555
O28 Sc18 2.138028 1_555
O28 Sc10 2.159819 1_455
O28 Zr9 2.453228 1_455
O29 Sc2 2.079491 1_555
O29 Sc5 2.120642 1_555
O29 Zr0 2.170366 1_455
O29 Sc3 2.285806 1_555
O30 Zr13 2.098334 1_555
O30 Zr10 2.181745 1_555
O30 Sc19 2.192208 1_655
O30 Sc7 2.280572 1_555
O31 Zr6 2.075404 1_655
O31 Sc0 2.080895 1_555
O31 Sc4 2.100921 1_555
O31 Sc6 2.676665 1_655
O32 Zr9 2.108570 1_555
O32 Sc11 2.169814 1_555
O32 Zr12 2.223606 1_655
O32 Zr7 2.317201 1_655
O33 Sc13 2.101519 1_555
O33 Zr6 2.171608 1_645
O33 Sc6 2.229840 1_655
O33 Zr8 2.259397 1_655
O34 Zr7 2.059868 1_655
O34 Sc14 2.111342 1_555
O34 Sc7 2.172701 1_555
O34 Sc11 2.304120 1_555
O35 Sc10 2.071313 1_555
O35 Zr8 2.171288 1_655
O35 Sc8 2.192784 1_555
O35 Sc13 2.238069 1_555
O36 Zr11 2.086946 1_565
O36 Sc2 2.129491 1_565
O36 Sc5 2.146503 1_555
O36 Zr2 2.528110 1_455
O37 Zr13 2.092305 1_545
O37 Sc14 2.127191 1_545
O37 Zr14 2.128888 1_655
O37 Sc7 2.704944 1_555
O38 Sc4 2.077781 1_545
O38 Sc9 2.155172 1_555
O38 Zr1 2.174352 1_555
O38 Sc6 2.281527 1_655
O39 Zr9 2.073997 1_555
O39 Sc18 2.079921 1_555
O39 Sc8 2.099543 1_555
O39 Sc10 2.672743 1_555
O40 Sc12 2.083414 1_555
O40 Sc3 2.084433 1_655
O40 Zr0 2.115035 1_555
O40 Sc9 2.632536 1_555
O41 Sc7 2.106573 1_555
O41 Sc15 2.162957 1_555
O41 Zr13 2.192869 1_545
O41 Zr10 2.280148 1_555
O42 Sc16 2.110977 1_555
O42 Zr9 2.177950 1_555
O42 Sc10 2.230520 1_565
O42 Zr12 2.238333 1_665
O43 Zr10 2.066888 1_555
O43 Sc17 2.120309 1_555
O43 Sc1 2.186300 1_554
O43 Sc15 2.241573 1_555
O44 Sc14 2.082971 1_545
O44 Zr12 2.175338 1_655
O44 Sc11 2.189238 1_555
O44 Sc16 2.220362 1_545
O45 Sc12 2.105058 1_555
O45 Sc9 2.115078 1_555
O45 Sc4 2.121263 1_555
O45 Zr5 2.415195 1_555
O46 Sc8 2.077888 1_555
O46 Sc13 2.153957 1_565
O46 Zr4 2.174418 1_555
O46 Sc10 2.276832 1_565
O47 Zr14 2.073471 1_555
O47 Sc7 2.085425 1_555
O47 Sc11 2.102047 1_555
O47 Sc14 2.713735 1_545
O48 Sc0 2.081936 1_555
O48 Sc6 2.091446 1_655
O48 Zr1 2.091548 1_555
O48 Sc13 2.635777 1_555
O49 Sc19 2.084118 1_555
O49 Sc7 2.136008 1_555
O49 Sc14 2.205779 1_555
O49 Zr13 2.208979 1_555
O50 Sc17 2.086959 1_555
O50 Zr13 2.150783 1_555
O50 Sc15 2.180246 1_565
O50 Sc19 2.217209 1_555
O51 Sc0 2.091334 1_555
O51 Sc13 2.115098 1_555
O51 Sc8 2.119953 1_555
O51 Zr8 2.416924 1_555
O52 Sc11 2.080920 1_555
O52 Sc16 2.158688 1_555
O52 Zr7 2.188411 1_555
O52 Sc14 2.268138 1_555
O53 Zr11 2.073866 1_554
O53 Sc1 2.089388 1_554
O53 Sc15 2.103652 1_555
O53 Sc17 2.711947 1_545
O54 Sc18 2.081207 1_555
O54 Sc10 2.088249 1_555
O54 Zr4 2.090732 1_545
O54 Sc16 2.656777 1_545
O55 Sc18 2.094654 1_555
O55 Sc16 2.117377 1_545
O55 Sc11 2.153540 1_555
O55 Zr12 2.410883 1_555
O56 Sc15 2.083344 1_555
O56 Sc19 2.119422 1_555
O56 Zr10 2.181773 1_455
O56 Sc17 2.286016 1_555
O57 Zr7 2.092042 1_555
O57 Zr14 2.101281 1_565
O57 Sc14 2.126502 1_555
O58 Zr14 2.074690 1_555
O58 Sc19 2.151773 1_545
O58 Sc15 2.159525 1_555
O58 Zr13 2.534613 1_445
O59 Zr11 2.103992 1_564
O59 Zr10 2.112741 1_455
O59 Sc17 2.120648 1_555
