# generated using pymatgen
data_PrMn4(CuO4)3
_symmetry_space_group_name_H-M   'P 1'
_cell_length_a   6.46440852
_cell_length_b   6.46440852
_cell_length_c   6.46440852
_cell_angle_alpha   109.47122063
_cell_angle_beta   109.47122063
_cell_angle_gamma   109.47122063
_symmetry_Int_Tables_number   1
_chemical_formula_structural   PrMn4(CuO4)3
_chemical_formula_sum   'Pr1 Mn4 Cu3 O12'
_cell_volume   207.95266553
_cell_formula_units_Z   1
loop_
 _symmetry_equiv_pos_site_id
 _symmetry_equiv_pos_as_xyz
  1  'x, y, z'
loop_
 _atom_site_type_symbol
 _atom_site_label
 _atom_site_symmetry_multiplicity
 _atom_site_fract_x
 _atom_site_fract_y
 _atom_site_fract_z
 _atom_site_occupancy
  Pr  Pr0  1  0.00000000  0.00000000  0.00000000  1
  Mn  Mn0  1  0.50000000  0.50000000  0.50000000  1
  Mn  Mn1  1  0.50000000  0.00000000  0.00000000  1
  Mn  Mn2  1  0.00000000  0.00000000  0.50000000  1
  Mn  Mn3  1  0.00000000  0.50000000  0.00000000  1
  Cu  Cu0  1  0.00000000  0.50000000  0.50000000  1
  Cu  Cu1  1  0.50000000  0.50000000  0.00000000  1
  Cu  Cu2  1  0.50000000  0.00000000  0.50000000  1
  O  O0  1  0.17102900  0.47789200  0.30686300  1
  O  O1  1  0.30686300  0.82897100  0.13583400  1
  O  O2  1  0.52210800  0.69313700  0.82897100  1
  O  O3  1  0.47789200  0.30686300  0.17102900  1
  O  O4  1  0.69313700  0.82897100  0.52210800  1
  O  O5  1  0.30686300  0.17102900  0.47789200  1
  O  O6  1  0.82897100  0.52210800  0.69313700  1
  O  O7  1  0.86416600  0.69313700  0.17102900  1
  O  O8  1  0.13583400  0.30686300  0.82897100  1
  O  O9  1  0.82897100  0.13583400  0.30686300  1
  O  O10  1  0.69313700  0.17102900  0.86416600  1
  O  O11  1  0.17102900  0.86416600  0.69313700  1
loop_
_geom_bond_atom_site_label_1
_geom_bond_atom_site_label_2
_geom_bond_distance
_geom_bond_site_symmetry_2
Mn0 O4 2.002504 1_555
Mn0 O5 2.002504 1_555
Mn0 O2 2.002504 1_555
Mn0 O0 2.002504 1_555
Mn0 O3 2.002504 1_555
Mn0 O6 2.002504 1_555
Mn1 O9 2.002504 1_555
Mn1 O1 2.002504 1_545
Mn1 O2 2.002504 1_544
Mn1 O3 2.002504 1_555
Mn1 O11 2.002504 1_544
Mn1 O10 2.002504 1_554
Mn2 O7 2.002504 1_445
Mn2 O9 2.002504 1_455
Mn2 O4 2.002504 1_445
Mn2 O5 2.002504 1_555
Mn2 O8 2.002504 1_555
Mn2 O11 2.002504 1_545
Mn3 O6 2.002504 1_454
Mn3 O8 2.002504 1_554
Mn3 O0 2.002504 1_555
Mn3 O7 2.002504 1_455
Mn3 O1 2.002504 1_555
Mn3 O10 2.002504 1_454
Cu0 O0 1.925668 1_555
Cu0 O6 1.925668 1_455
Cu0 O11 1.925668 1_555
Cu0 O9 1.925668 1_455
Cu1 O3 1.925668 1_555
Cu1 O2 1.925668 1_554
Cu1 O7 1.925668 1_555
Cu1 O8 1.925668 1_554
Cu2 O1 1.925668 1_545
Cu2 O10 1.925668 1_555
Cu2 O5 1.925668 1_555
Cu2 O4 1.925668 1_545
O0 Pr0 2.622307 1_555
O1 Pr0 2.622307 1_565
O2 Pr0 2.622307 1_666
O3 Pr0 2.622307 1_555
O4 Pr0 2.622307 1_666
O5 Pr0 2.622307 1_555
O6 Pr0 2.622307 1_666
O7 Pr0 2.622307 1_665
O8 Pr0 2.622307 1_556
O9 Pr0 2.622307 1_655
O10 Pr0 2.622307 1_656
O11 Pr0 2.622307 1_566
