# generated using pymatgen
data_UCl5
_symmetry_space_group_name_H-M   'P 1'
_cell_length_a   8.23695516
_cell_length_b   8.58912373
_cell_length_c   10.94796825
_cell_angle_alpha   90.00000000
_cell_angle_beta   90.00000000
_cell_angle_gamma   90.86672635
_symmetry_Int_Tables_number   1
_chemical_formula_structural   UCl5
_chemical_formula_sum   'U4 Cl20'
_cell_volume   774.46072360
_cell_formula_units_Z   4
loop_
 _symmetry_equiv_pos_site_id
 _symmetry_equiv_pos_as_xyz
  1  'x, y, z'
loop_
 _atom_site_type_symbol
 _atom_site_label
 _atom_site_symmetry_multiplicity
 _atom_site_fract_x
 _atom_site_fract_y
 _atom_site_fract_z
 _atom_site_occupancy
  U  U0  1  0.44796095  0.66111432  0.36266527  1
  U  U1  1  0.05203905  0.83888568  0.86266527  1
  U  U2  1  0.55203905  0.33888568  0.63733473  1
  U  U3  1  0.94796095  0.16111432  0.13733473  1
  Cl  Cl0  1  0.04055109  0.86165302  0.10978331  1
  Cl  Cl1  1  0.36182439  0.93454650  0.37151027  1
  Cl  Cl2  1  0.04777823  0.86059936  0.63824108  1
  Cl  Cl3  1  0.54055109  0.36165302  0.39021669  1
  Cl  Cl4  1  0.33611987  0.93312312  0.87364273  1
  Cl  Cl5  1  0.26243365  0.26199436  0.63022380  1
  Cl  Cl6  1  0.16388013  0.56687688  0.37364273  1
  Cl  Cl7  1  0.73756635  0.73800564  0.36977620  1
  Cl  Cl8  1  0.86182439  0.43454650  0.12848973  1
  Cl  Cl9  1  0.95222177  0.13940064  0.36175892  1
  Cl  Cl10  1  0.95944891  0.13834698  0.89021669  1
  Cl  Cl11  1  0.63817561  0.06545350  0.62848973  1
  Cl  Cl12  1  0.45222177  0.63940064  0.13824108  1
  Cl  Cl13  1  0.76243365  0.76199436  0.86977620  1
  Cl  Cl14  1  0.13817561  0.56545350  0.87151027  1
  Cl  Cl15  1  0.23756635  0.23800564  0.13022380  1
  Cl  Cl16  1  0.45944891  0.63834698  0.60978331  1
  Cl  Cl17  1  0.66388013  0.06687688  0.12635727  1
  Cl  Cl18  1  0.83611987  0.43312312  0.62635727  1
  Cl  Cl19  1  0.54777823  0.36059936  0.86175892  1
loop_
_geom_bond_atom_site_label_1
_geom_bond_atom_site_label_2
_geom_bond_distance
_geom_bond_site_symmetry_2
Cl0 U3 2.710670 1_465
Cl0 U1 2.714252 1_554
Cl1 U0 2.465530 1_555
Cl2 U1 2.464347 1_555
Cl3 U0 2.710670 1_555
Cl3 U2 2.714252 1_555
Cl4 U1 2.467330 1_555
Cl5 U2 2.466783 1_555
Cl6 U0 2.467330 1_555
Cl7 U0 2.466783 1_555
Cl8 U3 2.465530 1_555
Cl9 U3 2.464347 1_555
Cl10 U1 2.710670 1_645
Cl10 U3 2.714252 1_556
Cl11 U2 2.465530 1_555
Cl12 U0 2.464347 1_555
Cl13 U1 2.466783 1_655
Cl14 U1 2.465530 1_555
Cl15 U3 2.466783 1_455
Cl16 U2 2.710670 1_555
Cl16 U0 2.714252 1_555
Cl17 U3 2.467330 1_555
Cl18 U2 2.467330 1_555
Cl19 U2 2.464347 1_555
