# generated using pymatgen
data_NaCu4(AsO4)3
_symmetry_space_group_name_H-M   'P 1'
_cell_length_a   8.74516288
_cell_length_b   8.74516288
_cell_length_c   7.53493730
_cell_angle_alpha   70.55684939
_cell_angle_beta   70.55684939
_cell_angle_gamma   91.54560021
_symmetry_Int_Tables_number   1
_chemical_formula_structural   NaCu4(AsO4)3
_chemical_formula_sum   'Na2 Cu8 As6 O24'
_cell_volume   506.21667714
_cell_formula_units_Z   2
loop_
 _symmetry_equiv_pos_site_id
 _symmetry_equiv_pos_as_xyz
  1  'x, y, z'
loop_
 _atom_site_type_symbol
 _atom_site_label
 _atom_site_symmetry_multiplicity
 _atom_site_fract_x
 _atom_site_fract_y
 _atom_site_fract_z
 _atom_site_occupancy
  Na  Na0  1  0.50604600  0.49395400  0.25000000  1
  Na  Na1  1  0.49395400  0.50604600  0.75000000  1
  Cu  Cu0  1  0.99329600  0.00670400  0.25000000  1
  Cu  Cu1  1  0.00670400  0.99329600  0.75000000  1
  Cu  Cu2  1  0.87714800  0.56501700  0.85848200  1
  Cu  Cu3  1  0.43498300  0.12285200  0.64151800  1
  Cu  Cu4  1  0.12285200  0.43498300  0.14151800  1
  Cu  Cu5  1  0.56501700  0.87714800  0.35848200  1
  Cu  Cu6  1  0.23552700  0.76447300  0.25000000  1
  Cu  Cu7  1  0.76447300  0.23552700  0.75000000  1
  As  As0  1  0.39223800  0.15462800  0.11877500  1
  As  As1  1  0.84537200  0.60776200  0.38122500  1
  As  As2  1  0.60776200  0.84537200  0.88122500  1
  As  As3  1  0.15462800  0.39223800  0.61877500  1
  As  As4  1  0.77289900  0.22710100  0.25000000  1
  As  As5  1  0.22710100  0.77289900  0.75000000  1
  O  O0  1  0.33087800  0.34046500  0.11483100  1
  O  O1  1  0.65953500  0.66912200  0.38516900  1
  O  O2  1  0.66912200  0.65953500  0.88516900  1
  O  O3  1  0.34046500  0.33087800  0.61483100  1
  O  O4  1  0.98079900  0.22651700  0.23960200  1
  O  O5  1  0.77348300  0.01920100  0.26039800  1
  O  O6  1  0.01920100  0.77348300  0.76039800  1
  O  O7  1  0.22651700  0.98079900  0.73960200  1
  O  O8  1  0.22675200  0.00473800  0.17606400  1
  O  O9  1  0.99526200  0.77324800  0.32393600  1
  O  O10  1  0.77324800  0.99526200  0.82393600  1
  O  O11  1  0.00473800  0.22675200  0.67606400  1
  O  O12  1  0.47435500  0.08485400  0.30538400  1
  O  O13  1  0.91514600  0.52564500  0.19461600  1
  O  O14  1  0.52564500  0.91514600  0.69461600  1
  O  O15  1  0.08485400  0.47435500  0.80538400  1
  O  O16  1  0.52285100  0.19017400  0.87407100  1
  O  O17  1  0.80982600  0.47714900  0.62592900  1
  O  O18  1  0.47714900  0.80982600  0.12592900  1
  O  O19  1  0.19017400  0.52285100  0.37407100  1
  O  O20  1  0.74192000  0.34614000  0.03705100  1
  O  O21  1  0.65386000  0.25808000  0.46294900  1
  O  O22  1  0.25808000  0.65386000  0.96294900  1
  O  O23  1  0.34614000  0.74192000  0.53705100  1
loop_
_geom_bond_atom_site_label_1
_geom_bond_atom_site_label_2
_geom_bond_distance
_geom_bond_site_symmetry_2
Na0 O2 2.513182 1_554
Na0 O3 2.513182 1_555
Na0 O1 2.650207 1_555
Na0 O0 2.650207 1_555
Na0 O18 2.654078 1_555
Na0 O19 2.654078 1_555
Na0 O20 2.796737 1_555
Na0 O21 2.796737 1_555
Na1 O0 2.513182 1_556
Na1 O1 2.513182 1_555
Na1 O2 2.650207 1_555
Na1 O3 2.650207 1_555
Na1 O17 2.654078 1_555
Na1 O16 2.654078 1_555
Na1 O22 2.796737 1_555
Na1 O23 2.796737 1_555
Cu0 O4 1.905279 1_555
Cu0 O5 1.905279 1_555
Cu0 O8 1.931294 1_655
Cu0 O9 1.931294 1_545
Cu1 O7 1.905279 1_555
Cu1 O6 1.905279 1_555
Cu1 O11 1.931294 1_565
Cu1 O10 1.931294 1_455
Cu2 O6 1.944903 1_655
Cu2 O15 1.973103 1_655
Cu2 O20 1.994173 1_556
Cu2 O2 1.995360 1_555
Cu2 O17 2.359312 1_555
Cu2 O13 2.574821 1_556
Cu3 O7 1.944903 1_545
Cu3 O14 1.973103 1_545
Cu3 O21 1.994173 1_555
Cu3 O3 1.995360 1_555
Cu3 O16 2.359312 1_555
Cu3 O12 2.574821 1_555
Cu4 O4 1.944903 1_455
Cu4 O13 1.973103 1_455
Cu4 O22 1.994173 1_554
Cu4 O0 1.995360 1_555
Cu4 O19 2.359312 1_555
Cu4 O15 2.574821 1_554
Cu5 O5 1.944903 1_565
Cu5 O12 1.973103 1_565
Cu5 O23 1.994173 1_555
Cu5 O1 1.995360 1_555
Cu5 O18 2.359312 1_555
Cu5 O14 2.574821 1_555
Cu6 O18 1.972052 1_555
Cu6 O19 1.972052 1_555
Cu6 O9 1.997243 1_455
Cu6 O8 1.997243 1_565
Cu6 O23 2.602307 1_555
Cu6 O22 2.602307 1_554
Cu7 O16 1.972052 1_555
Cu7 O17 1.972052 1_555
Cu7 O10 1.997243 1_545
Cu7 O11 1.997243 1_655
Cu7 O20 2.602307 1_556
Cu7 O21 2.602307 1_555
As0 O0 1.719165 1_555
As0 O12 1.729102 1_555
As0 O16 1.731528 1_554
As0 O8 1.761825 1_555
As1 O1 1.719165 1_555
As1 O13 1.729102 1_555
As1 O17 1.731528 1_555
As1 O9 1.761825 1_555
As2 O2 1.719165 1_555
As2 O14 1.729102 1_555
As2 O18 1.731528 1_556
As2 O10 1.761825 1_555
As3 O3 1.719165 1_555
As3 O15 1.729102 1_555
As3 O19 1.731528 1_555
As3 O11 1.761825 1_555
As4 O20 1.710056 1_555
As4 O21 1.710056 1_555
As4 O4 1.793783 1_555
As4 O5 1.793783 1_555
As5 O22 1.710056 1_555
As5 O23 1.710056 1_555
As5 O6 1.793783 1_555
As5 O7 1.793783 1_555
