# generated using pymatgen
data_Rb2(PSe2)3
_symmetry_space_group_name_H-M   'P 1'
_cell_length_a   10.85672400
_cell_length_b   15.60641800
_cell_length_c   16.99747600
_cell_angle_alpha   90.00000000
_cell_angle_beta   90.00000000
_cell_angle_gamma   90.00000000
_symmetry_Int_Tables_number   1
_chemical_formula_structural   Rb2(PSe2)3
_chemical_formula_sum   'Rb16 P24 Se48'
_cell_volume   2879.96008567
_cell_formula_units_Z   8
loop_
 _symmetry_equiv_pos_site_id
 _symmetry_equiv_pos_as_xyz
  1  'x, y, z'
loop_
 _atom_site_type_symbol
 _atom_site_label
 _atom_site_symmetry_multiplicity
 _atom_site_fract_x
 _atom_site_fract_y
 _atom_site_fract_z
 _atom_site_occupancy
  Rb  Rb0  1  0.23848700  0.30199200  0.52552300  1
  Rb  Rb1  1  0.23848700  0.80199200  0.97447700  1
  Rb  Rb2  1  0.27545800  0.54416700  0.27850800  1
  Rb  Rb3  1  0.76151300  0.30199200  0.02552300  1
  Rb  Rb4  1  0.72454200  0.54416700  0.77850800  1
  Rb  Rb5  1  0.76226900  0.01975200  0.16335400  1
  Rb  Rb6  1  0.76226900  0.51975200  0.33664600  1
  Rb  Rb7  1  0.26725900  0.84190000  0.41056000  1
  Rb  Rb8  1  0.72454200  0.04416700  0.72149200  1
  Rb  Rb9  1  0.23773100  0.51975200  0.83664600  1
  Rb  Rb10  1  0.23773100  0.01975200  0.66335400  1
  Rb  Rb11  1  0.27545800  0.04416700  0.22149200  1
  Rb  Rb12  1  0.73274100  0.34190000  0.58944000  1
  Rb  Rb13  1  0.76151300  0.80199200  0.47447700  1
  Rb  Rb14  1  0.73274100  0.84190000  0.91056000  1
  Rb  Rb15  1  0.26725900  0.34190000  0.08944000  1
  P  P0  1  0.93620800  0.06173900  0.53264300  1
  P  P1  1  0.80193200  0.16234100  0.32100300  1
  P  P2  1  0.70980000  0.19223700  0.43374800  1
  P  P3  1  0.04552300  0.55830200  0.08396500  1
  P  P4  1  0.70980000  0.69223700  0.06625200  1
  P  P5  1  0.06379200  0.06173900  0.03264300  1
  P  P6  1  0.29020000  0.19223700  0.93374800  1
  P  P7  1  0.04552300  0.05830200  0.41603500  1
  P  P8  1  0.46479700  0.79577800  0.16173100  1
  P  P9  1  0.93620800  0.56173900  0.96735700  1
  P  P10  1  0.46479700  0.29577800  0.33826900  1
  P  P11  1  0.53520300  0.79577800  0.66173100  1
  P  P12  1  0.19806800  0.16234100  0.82100300  1
  P  P13  1  0.95447700  0.05830200  0.91603500  1
  P  P14  1  0.42368900  0.79909800  0.77677000  1
  P  P15  1  0.80193200  0.66234100  0.17899700  1
  P  P16  1  0.57631100  0.29909800  0.22323000  1
  P  P17  1  0.19806800  0.66234100  0.67899700  1
  P  P18  1  0.95447700  0.55830200  0.58396500  1
  P  P19  1  0.29020000  0.69223700  0.56625200  1
  P  P20  1  0.57631100  0.79909800  0.27677000  1
  P  P21  1  0.06379200  0.56173900  0.46735700  1
  P  P22  1  0.53520300  0.29577800  0.83826900  1
  P  P23  1  0.42368900  0.29909800  0.72323000  1
  Se  Se0  1  0.04466800  0.43721200  0.41351900  1
  Se  Se1  1  0.76188500  0.57025300  0.55221400  1
  Se  Se2  1  0.76188500  0.07025300  0.94778600  1
  Se  Se3  1  0.51379200  0.16131900  0.38874300  1
  Se  Se4  1  0.99995300  0.19184100  0.86237400  1
  Se  Se5  1  0.48593000  0.39715200  0.91844900  1
  Se  Se6  1  0.95533200  0.43721200  0.91351900  1
  Se  Se7  1  0.43953200  0.92747800  0.82332200  1
  Se  Se8  1  0.52992700  0.19246700  0.14748500  1
  Se  Se9  1  0.04466800  0.93721200  0.08648100  1
  Se  Se10  1  0.73375600  0.55695100  0.01067300  1
  Se  Se11  1  0.78034500  0.79794700  0.23495800  1
  Se  Se12  1  0.27579600  0.28401000  0.30157300  1
  Se  Se13  1  0.00004700  0.69184100  0.13762600  1
  Se  Se14  1  0.51379200  0.66131900  0.11125700  1
  Se  Se15  1  0.95533200  0.93721200  0.58648100  1
  Se  Se16  1  0.21965500  0.79794700  0.73495800  1
  Se  Se17  1  0.48620800  0.16131900  0.88874300  1
  Se  Se18  1  0.51407000  0.39715200  0.41844900  1
  Se  Se19  1  0.00004700  0.19184100  0.36237400  1
  Se  Se20  1  0.98901800  0.45433300  0.15874200  1
  Se  Se21  1  0.02178400  0.67270100  0.39635400  1
  Se  Se22  1  0.99995300  0.69184100  0.63762600  1
  Se  Se23  1  0.26624400  0.05695100  0.98932700  1
  Se  Se24  1  0.47007300  0.69246700  0.85251500  1
  Se  Se25  1  0.98901800  0.95433300  0.34125800  1
  Se  Se26  1  0.97821600  0.67270100  0.89635400  1
  Se  Se27  1  0.01098200  0.95433300  0.84125800  1
  Se  Se28  1  0.56046800  0.42747800  0.17667800  1
  Se  Se29  1  0.48620800  0.66131900  0.61125700  1
  Se  Se30  1  0.73375600  0.05695100  0.48932700  1
  Se  Se31  1  0.26624400  0.55695100  0.51067300  1
  Se  Se32  1  0.23811500  0.57025300  0.05221400  1
  Se  Se33  1  0.97821600  0.17270100  0.60364600  1
  Se  Se34  1  0.72420400  0.28401000  0.80157300  1
  Se  Se35  1  0.52992700  0.69246700  0.35251500  1
  Se  Se36  1  0.01098200  0.45433300  0.65874200  1
  Se  Se37  1  0.72420400  0.78401000  0.69842700  1
  Se  Se38  1  0.78034500  0.29794700  0.26504200  1
  Se  Se39  1  0.21965500  0.29794700  0.76504200  1
  Se  Se40  1  0.23811500  0.07025300  0.44778600  1
  Se  Se41  1  0.43953200  0.42747800  0.67667800  1
  Se  Se42  1  0.02178400  0.17270100  0.10364600  1
  Se  Se43  1  0.51407000  0.89715200  0.08155100  1
  Se  Se44  1  0.56046800  0.92747800  0.32332200  1
  Se  Se45  1  0.48593000  0.89715200  0.58155100  1
  Se  Se46  1  0.27579600  0.78401000  0.19842700  1
  Se  Se47  1  0.47007300  0.19246700  0.64748500  1
loop_
_geom_bond_atom_site_label_1
_geom_bond_atom_site_label_2
_geom_bond_distance
_geom_bond_site_symmetry_2
Rb0 Se0 3.536324 1_555
Rb0 Se47 3.679773 1_555
Rb0 Se33 3.717421 1_455
Rb0 Se18 3.803884 1_555
Rb0 Se12 3.838348 1_555
Rb0 Se40 3.850434 1_555
Rb0 Se41 3.898779 1_555
Rb0 Se31 3.998367 1_555
Rb1 Se9 3.536324 1_556
Rb1 Se24 3.679773 1_555
Rb1 Se26 3.717421 1_455
Rb1 Se43 3.803884 1_556
Rb1 Se46 3.838348 1_556
Rb1 Se32 3.850434 1_556
Rb1 Se7 3.898779 1_555
Rb1 Se23 3.998367 1_565
Rb2 Se0 3.785584 1_555
Rb2 Se35 3.817263 1_555
Rb2 Se32 3.889101 1_555
Rb2 Se21 3.952354 1_555
Rb2 Se31 3.952525 1_555
Rb2 Se20 3.972478 1_455
Rb2 Se46 3.982905 1_555
Rb2 Se28 3.985823 1_555
Rb2 Se12 4.079005 1_555
Rb3 Se6 3.536324 1_554
Rb3 Se8 3.679773 1_555
Rb3 Se42 3.717421 1_655
Rb3 Se5 3.803884 1_554
Rb3 Se34 3.838348 1_554
Rb3 Se2 3.850434 1_554
Rb3 Se28 3.898779 1_555
Rb3 Se10 3.998367 1_555
Rb4 Se6 3.785584 1_555
Rb4 Se24 3.817263 1_555
Rb4 Se1 3.889101 1_555
Rb4 Se26 3.952354 1_555
Rb4 Se10 3.952525 1_556
Rb4 Se36 3.972478 1_655
Rb4 Se37 3.982905 1_555
Rb4 Se41 3.985823 1_555
Rb4 Se34 4.079005 1_555
Rb5 Se9 3.573035 1_645
Rb5 Se43 3.585422 1_545
Rb5 Se11 3.674556 1_545
Rb5 Se8 3.701506 1_555
Rb5 Se2 3.747919 1_554
Rb5 Se44 3.777178 1_545
Rb5 Se42 3.829609 1_655
Rb5 Se25 4.030714 1_545
Rb6 Se0 3.573035 1_655
Rb6 Se18 3.585422 1_555
Rb6 Se38 3.674556 1_555
Rb6 Se35 3.701506 1_555
Rb6 Se1 3.747919 1_555
Rb6 Se28 3.777178 1_555
Rb6 Se21 3.829609 1_655
Rb6 Se20 4.030714 1_555
Rb7 Se40 3.633312 1_565
Rb7 Se25 3.686682 1_455
Rb7 Se46 3.718344 1_555
Rb7 Se44 3.757105 1_555
Rb7 Se21 3.759460 1_555
Rb7 Se35 3.813718 1_555
Rb7 Se45 3.850572 1_555
Rb8 Se15 3.785584 1_545
Rb8 Se47 3.817263 1_555
Rb8 Se2 3.889101 1_555
Rb8 Se33 3.952354 1_555
Rb8 Se30 3.952525 1_555
Rb8 Se27 3.972478 1_645
Rb8 Se34 3.982905 1_555
Rb8 Se7 3.985823 1_545
Rb8 Se37 4.079005 1_545
Rb9 Se6 3.573035 1_455
Rb9 Se5 3.585422 1_555
Rb9 Se39 3.674556 1_555
Rb9 Se24 3.701506 1_555
Rb9 Se32 3.747919 1_556
Rb9 Se41 3.777178 1_555
Rb9 Se26 3.829609 1_455
Rb9 Se36 4.030714 1_555
Rb10 Se15 3.573035 1_445
Rb10 Se45 3.585422 1_545
Rb10 Se16 3.674556 1_545
Rb10 Se47 3.701506 1_555
Rb10 Se40 3.747919 1_555
Rb10 Se7 3.777178 1_545
Rb10 Se33 3.829609 1_455
Rb10 Se27 4.030714 1_545
Rb11 Se9 3.785584 1_545
Rb11 Se8 3.817263 1_555
Rb11 Se40 3.889101 1_555
Rb11 Se42 3.952354 1_555
Rb11 Se23 3.952525 1_554
Rb11 Se25 3.972478 1_445
Rb11 Se12 3.982905 1_555
Rb11 Se44 3.985823 1_545
Rb11 Se46 4.079005 1_545
Rb12 Se1 3.633312 1_555
Rb12 Se36 3.686682 1_655
Rb12 Se34 3.718344 1_555
Rb12 Se41 3.757105 1_555
Rb12 Se33 3.759460 1_555
Rb12 Se47 3.813718 1_555
Rb12 Se18 3.850572 1_555
Rb13 Se15 3.536324 1_555
Rb13 Se35 3.679773 1_555
Rb13 Se21 3.717421 1_655
Rb13 Se45 3.803884 1_555
Rb13 Se37 3.838348 1_555
Rb13 Se1 3.850434 1_555
Rb13 Se44 3.898779 1_555
Rb13 Se30 3.998367 1_565
Rb14 Se2 3.633312 1_565
Rb14 Se27 3.686682 1_655
Rb14 Se37 3.718344 1_555
Rb14 Se7 3.757105 1_555
Rb14 Se26 3.759460 1_555
Rb14 Se24 3.813718 1_555
Rb14 Se43 3.850572 1_556
Rb15 Se32 3.633312 1_555
Rb15 Se20 3.686682 1_455
Rb15 Se12 3.718344 1_555
Rb15 Se28 3.757105 1_555
Rb15 Se42 3.759460 1_555
Rb15 Se8 3.813718 1_555
Rb15 Se5 3.850572 1_554
P0 Se15 2.158105 1_545
P0 Se33 2.159489 1_555
P0 P7 2.310815 1_655
P0 Se30 2.319206 1_555
P1 P2 2.211494 1_555
P1 Se19 2.309272 1_655
P1 Se38 2.332065 1_555
P1 Rb5 3.509679 1_555
P2 Se3 2.312231 1_555
P2 Se30 2.327621 1_555
P2 Rb12 3.538477 1_555
P3 Se20 2.150489 1_455
P3 Se32 2.167484 1_555
P3 P9 2.310815 1_454
P3 Se13 2.327878 1_555
P4 Se14 2.312231 1_555
P4 Se10 2.327621 1_555
P4 Rb14 3.538477 1_554
P5 Se9 2.158105 1_545
P5 Se42 2.159489 1_555
P5 Se23 2.319206 1_554
P6 Se17 2.312231 1_555
P6 Se23 2.327621 1_555
P6 Rb15 3.538477 1_556
P7 Se25 2.150489 1_445
P7 Se40 2.167484 1_555
P7 Se19 2.327878 1_555
P8 Se46 2.152488 1_555
P8 Se43 2.155583 1_555
P8 Se14 2.328598 1_555
P9 Se6 2.158105 1_555
P9 Se26 2.159489 1_555
P9 Se10 2.319206 1_556
P10 Se12 2.152488 1_555
P10 Se18 2.155583 1_555
P10 P16 2.300414 1_555
P10 Se3 2.328598 1_555
P11 Se37 2.152488 1_555
P11 Se45 2.155583 1_555
P11 P14 2.300414 1_555
P11 Se29 2.328598 1_555
P12 P6 2.211494 1_555
P12 Se4 2.309272 1_455
P12 Se39 2.332065 1_555
P12 Rb10 3.509679 1_555
P13 Se27 2.150489 1_645
P13 Se2 2.167484 1_555
P13 P5 2.310815 1_656
P13 Se4 2.327878 1_555
P14 Se7 2.160997 1_555
P14 Se24 2.163447 1_555
P14 Se16 2.326427 1_555
P15 P4 2.211494 1_555
P15 Se13 2.309272 1_655
P15 Se11 2.332065 1_555
P15 Rb6 3.509679 1_555
P16 Se28 2.160997 1_555
P16 Se8 2.163447 1_555
P16 Se38 2.326427 1_555
P17 P19 2.211494 1_555
P17 Se22 2.309272 1_455
P17 Se16 2.332065 1_555
P17 Rb9 3.509679 1_555
P18 Se36 2.150489 1_655
P18 Se1 2.167484 1_555
P18 P21 2.310815 1_655
P18 Se22 2.327878 1_555
P19 Se29 2.312231 1_555
P19 Se31 2.327621 1_555
P19 Rb7 3.538477 1_555
P20 Se44 2.160997 1_555
P20 Se35 2.163447 1_555
P20 P8 2.300414 1_555
P20 Se11 2.326427 1_555
P21 Se0 2.158105 1_555
P21 Se21 2.159489 1_555
P21 Se31 2.319206 1_555
P22 Se34 2.152488 1_555
P22 Se5 2.155583 1_555
P22 P23 2.300414 1_555
P22 Se17 2.328598 1_555
P23 Se41 2.160997 1_555
P23 Se47 2.163447 1_555
P23 Se39 2.326427 1_555
