# generated using pymatgen
data_Np(CuSi)2
_symmetry_space_group_name_H-M   'P 1'
_cell_length_a   5.74127835
_cell_length_b   5.74127835
_cell_length_c   5.74127835
_cell_angle_alpha   139.75415165
_cell_angle_beta   139.75415165
_cell_angle_gamma   58.22677509
_symmetry_Int_Tables_number   1
_chemical_formula_structural   Np(CuSi)2
_chemical_formula_sum   'Np1 Cu2 Si2'
_cell_volume   78.27693387
_cell_formula_units_Z   1
loop_
 _symmetry_equiv_pos_site_id
 _symmetry_equiv_pos_as_xyz
  1  'x, y, z'
loop_
 _atom_site_type_symbol
 _atom_site_label
 _atom_site_symmetry_multiplicity
 _atom_site_fract_x
 _atom_site_fract_y
 _atom_site_fract_z
 _atom_site_occupancy
  Np  Np0  1  0.00000000  0.00000000  0.00000000  1
  Cu  Cu0  1  0.75000000  0.25000000  0.50000000  1
  Cu  Cu1  1  0.25000000  0.75000000  0.50000000  1
  Si  Si0  1  0.38300300  0.38300300  0.00000000  1
  Si  Si1  1  0.61699700  0.61699700  0.00000000  1
loop_
_geom_bond_atom_site_label_1
_geom_bond_atom_site_label_2
_geom_bond_distance
_geom_bond_site_symmetry_2
Np0 Si0 3.029920 1_545
Np0 Si0 3.029920 1_556
Np0 Si1 3.029920 1_556
Np0 Si1 3.029920 1_545
Np0 Si0 3.029920 1_444
Np0 Si0 3.029920 1_455
Np0 Si1 3.029920 1_444
Np0 Si1 3.029920 1_455
Cu0 Si1 2.383629 1_556
Cu0 Si1 2.383629 1_545
Cu0 Si0 2.383629 1_656
Cu0 Si0 2.383629 1_555
Cu0 Cu1 2.793359 1_555
Cu0 Cu1 2.793359 1_544
Cu0 Cu1 2.793359 1_645
Cu0 Cu1 2.793359 1_656
Cu0 Np0 3.192379 1_666
Cu0 Np0 3.192379 1_555
Cu0 Np0 3.192379 1_656
Cu0 Np0 3.192379 1_655
Cu1 Si1 2.383629 1_556
Cu1 Si1 2.383629 1_455
Cu1 Si0 2.383629 1_555
Cu1 Si0 2.383629 1_566
Cu1 Np0 3.192379 1_566
Cu1 Np0 3.192379 1_555
Cu1 Np0 3.192379 1_565
Cu1 Np0 3.192379 1_666
Si0 Si1 2.347389 1_555
