# generated using pymatgen
data_K2Ag2GeS4
_symmetry_space_group_name_H-M   'P 1'
_cell_length_a   6.42097800
_cell_length_b   7.53179542
_cell_length_c   11.13340135
_cell_angle_alpha   82.93945297
_cell_angle_beta   73.23987301
_cell_angle_gamma   64.76967530
_symmetry_Int_Tables_number   1
_chemical_formula_structural   K2Ag2GeS4
_chemical_formula_sum   'K4 Ag4 Ge2 S8'
_cell_volume   466.37250732
_cell_formula_units_Z   2
loop_
 _symmetry_equiv_pos_site_id
 _symmetry_equiv_pos_as_xyz
  1  'x, y, z'
loop_
 _atom_site_type_symbol
 _atom_site_label
 _atom_site_symmetry_multiplicity
 _atom_site_fract_x
 _atom_site_fract_y
 _atom_site_fract_z
 _atom_site_occupancy
  K  K0  1  0.68709700  0.00000000  0.62580600  1
  K  K1  1  0.31290300  0.00000000  0.37419400  1
  K  K2  1  0.43709700  0.50000000  0.12580600  1
  K  K3  1  0.06290300  0.50000000  0.87419400  1
  Ag  Ag0  1  0.82476600  0.50000000  0.35046800  1
  Ag  Ag1  1  0.07476600  0.00000000  0.85046800  1
  Ag  Ag2  1  0.92523400  0.00000000  0.14953200  1
  Ag  Ag3  1  0.67523400  0.50000000  0.64953200  1
  Ge  Ge0  1  0.50000000  0.00000000  0.00000000  1
  Ge  Ge1  1  0.25000000  0.50000000  0.50000000  1
  S  S0  1  0.09798900  0.29769100  0.62129900  1
  S  S1  1  0.01697800  0.70231000  0.37870200  1
  S  S2  1  0.46928800  0.79769000  0.87870100  1
  S  S3  1  0.60432000  0.29769100  0.37870200  1
  S  S4  1  0.73302200  0.79769000  0.12129800  1
  S  S5  1  0.28071200  0.70231000  0.62129900  1
  S  S6  1  0.14568000  0.20230900  0.12129800  1
  S  S7  1  0.65201100  0.20230900  0.87870100  1
loop_
_geom_bond_atom_site_label_1
_geom_bond_atom_site_label_2
_geom_bond_distance
_geom_bond_site_symmetry_2
K0 S7 3.270518 1_555
K0 S2 3.270522 1_545
K0 S1 3.345032 1_645
K0 S3 3.345036 1_555
K0 S5 3.491356 1_645
K0 S0 3.491358 1_555
K1 S6 3.270528 1_555
K1 S4 3.270529 1_545
K1 S5 3.345040 1_545
K1 S0 3.345045 1_555
K1 S1 3.491354 1_545
K1 S3 3.491361 1_555
K2 S3 3.270528 1_555
K2 S1 3.270529 1_555
K2 S2 3.345040 1_554
K2 S7 3.345045 1_554
K2 S4 3.491354 1_555
K2 S6 3.491361 1_555
K3 S0 3.270518 1_555
K3 S5 3.270522 1_555
K3 S4 3.345032 1_456
K3 S6 3.345036 1_556
K3 S2 3.491356 1_455
K3 S7 3.491358 1_555
Ag0 S3 2.426640 1_555
Ag0 S1 2.426646 1_655
Ag0 S4 3.196645 1_555
Ag0 S6 3.196649 1_655
Ag1 S7 2.426641 1_455
Ag1 S2 2.426642 1_545
Ag1 S5 3.196636 1_545
Ag1 S0 3.196641 1_555
Ag2 S6 2.426640 1_655
Ag2 S4 2.426646 1_545
Ag2 S1 3.196645 1_645
Ag2 S3 3.196649 1_555
Ag3 S0 2.426641 1_655
Ag3 S5 2.426642 1_555
Ag3 S2 3.196636 1_555
Ag3 S7 3.196641 1_555
Ge0 S6 2.258338 1_555
Ge0 S4 2.258340 1_545
Ge0 S7 2.258342 1_554
Ge0 S2 2.258348 1_544
Ge1 S3 2.258338 1_555
Ge1 S1 2.258340 1_555
Ge1 S0 2.258342 1_555
Ge1 S5 2.258348 1_555
