# generated using pymatgen
data_Cs2ZnO2
_symmetry_space_group_name_H-M   'P 1'
_cell_length_a   6.64087163
_cell_length_b   9.87465578
_cell_length_c   16.41247539
_cell_angle_alpha   62.75470859
_cell_angle_beta   90.00000000
_cell_angle_gamma   90.00000000
_symmetry_Int_Tables_number   1
_chemical_formula_structural   Cs2ZnO2
_chemical_formula_sum   'Cs16 Zn8 O16'
_cell_volume   956.86276194
_cell_formula_units_Z   8
loop_
 _symmetry_equiv_pos_site_id
 _symmetry_equiv_pos_as_xyz
  1  'x, y, z'
loop_
 _atom_site_type_symbol
 _atom_site_label
 _atom_site_symmetry_multiplicity
 _atom_site_fract_x
 _atom_site_fract_y
 _atom_site_fract_z
 _atom_site_occupancy
  Cs  Cs0  1  0.17476468  0.14418253  0.52343836  1
  Cs  Cs1  1  0.13890194  0.92641053  0.83836835  1
  Cs  Cs2  1  0.07673067  0.57207965  0.37943886  1
  Cs  Cs3  1  0.57673067  0.42792035  0.12056114  1
  Cs  Cs4  1  0.36109806  0.92641053  0.33836835  1
  Cs  Cs5  1  0.82523532  0.85581747  0.47656164  1
  Cs  Cs6  1  0.32523532  0.14418253  0.02343836  1
  Cs  Cs7  1  0.63890194  0.07358947  0.66163165  1
  Cs  Cs8  1  0.90957219  0.67785740  0.74092518  1
  Cs  Cs9  1  0.92326933  0.42792035  0.62056114  1
  Cs  Cs10  1  0.40957219  0.32214260  0.75907482  1
  Cs  Cs11  1  0.86109806  0.07358947  0.16163165  1
  Cs  Cs12  1  0.42326933  0.57207965  0.87943886  1
  Cs  Cs13  1  0.67476468  0.85581747  0.97656164  1
  Cs  Cs14  1  0.09042781  0.32214260  0.25907482  1
  Cs  Cs15  1  0.59042781  0.67785740  0.24092518  1
  Zn  Zn0  1  0.13391247  0.75375460  0.12790998  1
  Zn  Zn1  1  0.86608753  0.24624540  0.87209002  1
  Zn  Zn2  1  0.44501516  0.58576490  0.53979383  1
  Zn  Zn3  1  0.63391247  0.24624540  0.37209002  1
  Zn  Zn4  1  0.94501516  0.41423510  0.96020617  1
  Zn  Zn5  1  0.55498484  0.41423510  0.46020617  1
  Zn  Zn6  1  0.05498484  0.58576490  0.03979383  1
  Zn  Zn7  1  0.36608753  0.75375460  0.62790998  1
  O  O0  1  0.69305455  0.14350536  0.30538015  1
  O  O1  1  0.88115989  0.63001663  0.93119327  1
  O  O2  1  0.72309572  0.27089512  0.96834571  1
  O  O3  1  0.91302648  0.61867446  0.13910240  1
  O  O4  1  0.27690428  0.72910488  0.03165429  1
  O  O5  1  0.19305455  0.85649464  0.19461985  1
  O  O6  1  0.80694545  0.14350536  0.80538015  1
  O  O7  1  0.22309572  0.72910488  0.53165429  1
  O  O8  1  0.30694545  0.85649464  0.69461985  1
  O  O9  1  0.61884011  0.63001663  0.43119327  1
  O  O10  1  0.38115989  0.36998337  0.56880673  1
  O  O11  1  0.58697352  0.61867446  0.63910240  1
  O  O12  1  0.77690428  0.27089512  0.46834571  1
  O  O13  1  0.11884011  0.36998337  0.06880673  1
  O  O14  1  0.08697352  0.38132554  0.86089760  1
  O  O15  1  0.41302648  0.38132554  0.36089760  1
loop_
_geom_bond_atom_site_label_1
_geom_bond_atom_site_label_2
_geom_bond_distance
_geom_bond_site_symmetry_2
Cs0 O12 2.885863 1_455
Cs0 O10 2.987444 1_555
Cs0 O15 3.063336 1_555
Cs0 O8 3.070249 1_545
Cs1 O6 2.947164 1_465
Cs1 O8 2.963024 1_555
Cs1 O4 3.006712 1_556
Cs1 O1 3.119966 1_455
Cs2 O15 3.025411 1_555
Cs2 O5 3.144109 1_555
Cs2 O9 3.277222 1_455
Cs2 O12 3.311417 1_455
Cs3 O3 3.025411 1_555
Cs3 O0 3.144109 1_555
Cs3 O13 3.277222 1_555
Cs3 O4 3.311417 1_555
Cs4 O0 2.947164 1_565
Cs4 O5 2.963024 1_555
Cs4 O7 3.006712 1_555
Cs4 O9 3.119966 1_555
Cs5 O7 2.885863 1_655
Cs5 O9 2.987444 1_555
Cs5 O11 3.063336 1_555
Cs5 O0 3.070249 1_565
Cs6 O2 2.885863 1_554
Cs6 O13 2.987444 1_555
Cs6 O14 3.063336 1_554
Cs6 O5 3.070249 1_545
Cs7 O8 2.947164 1_545
Cs7 O6 2.963024 1_555
Cs7 O12 3.006712 1_555
Cs7 O10 3.119966 1_555
Cs8 O14 2.925760 1_655
Cs8 O11 2.935669 1_555
Cs8 O1 2.942744 1_555
Cs8 O8 3.070109 1_655
Cs9 O11 3.025411 1_555
Cs9 O6 3.144109 1_555
Cs9 O10 3.277222 1_655
Cs9 O7 3.311417 1_655
Cs10 O11 2.925760 1_555
Cs10 O14 2.935669 1_555
Cs10 O10 2.942744 1_555
Cs10 O6 3.070109 1_555
Cs11 O5 2.947164 1_645
Cs11 O0 2.963024 1_555
Cs11 O2 3.006712 1_554
Cs11 O13 3.119966 1_655
Cs12 O14 3.025411 1_555
Cs12 O8 3.144109 1_555
Cs12 O1 3.277222 1_555
Cs12 O2 3.311417 1_555
Cs13 O4 2.885863 1_556
Cs13 O1 2.987444 1_555
Cs13 O3 3.063336 1_556
Cs13 O6 3.070249 1_565
Cs14 O3 2.925760 1_455
Cs14 O15 2.935669 1_555
Cs14 O13 2.942744 1_555
Cs14 O0 3.070109 1_455
Cs15 O15 2.925760 1_555
Cs15 O3 2.935669 1_555
Cs15 O9 2.942744 1_555
Cs15 O5 3.070109 1_555
O0 Zn3 1.843716 1_555
O1 Zn6 1.996824 1_656
O1 Zn4 2.004433 1_555
O2 Zn1 1.951614 1_555
O2 Zn4 2.005012 1_555
O3 Zn0 1.933993 1_655
O3 Zn6 2.033686 1_655
O4 Zn0 1.951614 1_555
O4 Zn6 2.005012 1_555
O5 Zn0 1.843716 1_555
O6 Zn1 1.843716 1_555
O7 Zn7 1.951614 1_555
O7 Zn2 2.005012 1_555
O8 Zn7 1.843716 1_555
O9 Zn2 1.996824 1_555
O9 Zn5 2.004433 1_555
O10 Zn5 1.996824 1_555
O10 Zn2 2.004433 1_555
O11 Zn7 1.933993 1_555
O11 Zn2 2.033686 1_555
O12 Zn3 1.951614 1_555
O12 Zn5 2.005012 1_555
O13 Zn4 1.996824 1_454
O13 Zn6 2.004433 1_555
O14 Zn1 1.933993 1_455
O14 Zn4 2.033686 1_455
O15 Zn3 1.933993 1_555
O15 Zn5 2.033686 1_555
