# generated using pymatgen
data_Rb3Sc(HO)6
_symmetry_space_group_name_H-M   'P 1'
_cell_length_a   7.73074656
_cell_length_b   7.73074656
_cell_length_c   7.73074670
_cell_angle_alpha   96.79766402
_cell_angle_beta   96.79766402
_cell_angle_gamma   96.79766662
_symmetry_Int_Tables_number   1
_chemical_formula_structural   Rb3Sc(HO)6
_chemical_formula_sum   'Rb6 Sc2 H12 O12'
_cell_volume   451.42670812
_cell_formula_units_Z   2
loop_
 _symmetry_equiv_pos_site_id
 _symmetry_equiv_pos_as_xyz
  1  'x, y, z'
loop_
 _atom_site_type_symbol
 _atom_site_label
 _atom_site_symmetry_multiplicity
 _atom_site_fract_x
 _atom_site_fract_y
 _atom_site_fract_z
 _atom_site_occupancy
  Rb  Rb0  1  0.86715600  0.63284400  0.25000000  1
  Rb  Rb1  1  0.63284400  0.25000000  0.86715600  1
  Rb  Rb2  1  0.25000000  0.86715600  0.63284400  1
  Rb  Rb3  1  0.13284400  0.36715600  0.75000000  1
  Rb  Rb4  1  0.36715600  0.75000000  0.13284400  1
  Rb  Rb5  1  0.75000000  0.13284400  0.36715600  1
  Sc  Sc0  1  0.00000000  0.00000000  0.00000000  1
  Sc  Sc1  1  0.50000000  0.50000000  0.50000000  1
  H  H0  1  0.42402000  0.37662100  0.16184100  1
  H  H1  1  0.37662100  0.16184100  0.42402000  1
  H  H2  1  0.16184100  0.42402000  0.37662100  1
  H  H3  1  0.12337900  0.07598000  0.33815900  1
  H  H4  1  0.07598000  0.33815900  0.12337900  1
  H  H5  1  0.33815900  0.12337900  0.07598000  1
  H  H6  1  0.57598000  0.62337900  0.83815900  1
  H  H7  1  0.62337900  0.83815900  0.57598000  1
  H  H8  1  0.83815900  0.57598000  0.62337900  1
  H  H9  1  0.87662100  0.92402000  0.66184100  1
  H  H10  1  0.92402000  0.66184100  0.87662100  1
  H  H11  1  0.66184100  0.87662100  0.92402000  1
  O  O0  1  0.53781700  0.40953000  0.23386300  1
  O  O1  1  0.40953000  0.23386300  0.53781700  1
  O  O2  1  0.23386300  0.53781700  0.40953000  1
  O  O3  1  0.09047000  0.96218300  0.26613700  1
  O  O4  1  0.96218300  0.26613700  0.09047000  1
  O  O5  1  0.26613700  0.09047000  0.96218300  1
  O  O6  1  0.46218300  0.59047000  0.76613700  1
  O  O7  1  0.59047000  0.76613700  0.46218300  1
  O  O8  1  0.76613700  0.46218300  0.59047000  1
  O  O9  1  0.90953000  0.03781700  0.73386300  1
  O  O10  1  0.03781700  0.73386300  0.90953000  1
  O  O11  1  0.73386300  0.90953000  0.03781700  1
loop_
_geom_bond_atom_site_label_1
_geom_bond_atom_site_label_2
_geom_bond_distance
_geom_bond_site_symmetry_2
H0 O0 0.972727 1_555
H0 Rb4 3.000934 1_555
H0 Rb1 3.077512 1_554
H1 O1 0.972727 1_555
H1 Rb5 3.000934 1_555
H1 Rb2 3.077512 1_545
H2 O2 0.972727 1_555
H2 Rb3 3.000934 1_555
H2 Rb0 3.077512 1_455
H3 O3 0.972727 1_545
H3 Rb5 3.000934 1_455
H3 Rb2 3.077512 1_545
H4 O4 0.972727 1_455
H4 Rb3 3.000934 1_554
H4 Rb0 3.077512 1_455
H5 O5 0.972727 1_554
H5 Rb4 3.000934 1_545
H5 Rb1 3.077512 1_554
H6 O6 0.972727 1_555
H6 Rb1 3.000934 1_555
H6 Rb4 3.077512 1_556
H7 O7 0.972727 1_555
H7 Rb2 3.000934 1_555
H7 Rb5 3.077512 1_565
H8 O8 0.972727 1_555
H8 Rb0 3.000934 1_555
H8 Rb3 3.077512 1_655
H9 O9 0.972727 1_565
H9 Rb2 3.000934 1_655
H9 Rb5 3.077512 1_565
H10 O10 0.972727 1_655
H10 Rb0 3.000934 1_556
H10 Rb3 3.077512 1_655
H11 O11 0.972727 1_556
H11 Rb1 3.000934 1_565
H11 Rb4 3.077512 1_556
O0 Sc1 2.158201 1_555
O0 Rb0 2.882980 1_555
O0 Rb5 3.046315 1_555
O0 Rb1 3.158681 1_554
O0 Rb4 3.216080 1_555
O1 Sc1 2.158201 1_555
O1 Rb1 2.882980 1_555
O1 Rb3 3.046315 1_555
O1 Rb2 3.158681 1_545
O1 Rb5 3.216080 1_555
O2 Sc1 2.158201 1_555
O2 Rb2 2.882980 1_555
O2 Rb4 3.046315 1_555
O2 Rb0 3.158681 1_455
O2 Rb3 3.216080 1_555
O3 Sc0 2.158201 1_565
O3 Rb0 2.882980 1_455
O3 Rb4 3.046315 1_555
O3 Rb2 3.158681 1_555
O3 Rb5 3.216080 1_465
O4 Sc0 2.158201 1_655
O4 Rb1 2.882980 1_554
O4 Rb5 3.046315 1_555
O4 Rb0 3.158681 1_555
O4 Rb3 3.216080 1_654
O5 Sc0 2.158201 1_556
O5 Rb2 2.882980 1_545
O5 Rb3 3.046315 1_555
O5 Rb1 3.158681 1_555
O5 Rb4 3.216080 1_546
O6 Sc1 2.158201 1_555
O6 Rb3 2.882980 1_555
O6 Rb2 3.046315 1_555
O6 Rb4 3.158681 1_556
O6 Rb1 3.216080 1_555
O7 Sc1 2.158201 1_555
O7 Rb4 2.882980 1_555
O7 Rb0 3.046315 1_555
O7 Rb5 3.158681 1_565
O7 Rb2 3.216080 1_555
O8 Sc1 2.158201 1_555
O8 Rb5 2.882980 1_555
O8 Rb1 3.046315 1_555
O8 Rb3 3.158681 1_655
O8 Rb0 3.216080 1_555
O9 Sc0 2.158201 1_656
O9 Rb3 2.882980 1_655
O9 Rb1 3.046315 1_555
O9 Rb5 3.158681 1_555
O9 Rb2 3.216080 1_645
O10 Sc0 2.158201 1_566
O10 Rb4 2.882980 1_556
O10 Rb2 3.046315 1_555
O10 Rb3 3.158681 1_555
O10 Rb0 3.216080 1_456
O11 Sc0 2.158201 1_665
O11 Rb5 2.882980 1_565
O11 Rb0 3.046315 1_555
O11 Rb4 3.158681 1_555
O11 Rb1 3.216080 1_564
