# generated using pymatgen
data_Cu2P8Se3I2
_symmetry_space_group_name_H-M   'P 1'
_cell_length_a   9.43779100
_cell_length_b   12.84300700
_cell_length_c   13.91783300
_cell_angle_alpha   90.00000000
_cell_angle_beta   90.00000000
_cell_angle_gamma   90.00000000
_symmetry_Int_Tables_number   1
_chemical_formula_structural   Cu2P8Se3I2
_chemical_formula_sum   'Cu8 P32 Se12 I8'
_cell_volume   1686.97519178
_cell_formula_units_Z   4
loop_
 _symmetry_equiv_pos_site_id
 _symmetry_equiv_pos_as_xyz
  1  'x, y, z'
loop_
 _atom_site_type_symbol
 _atom_site_label
 _atom_site_symmetry_multiplicity
 _atom_site_fract_x
 _atom_site_fract_y
 _atom_site_fract_z
 _atom_site_occupancy
  Cu  Cu0  1  0.00215500  0.87186400  0.25000000  1
  Cu  Cu1  1  0.99784500  0.37186400  0.25000000  1
  Cu  Cu2  1  0.80718300  0.08217400  0.25000000  1
  Cu  Cu3  1  0.99784500  0.12813600  0.75000000  1
  Cu  Cu4  1  0.00215500  0.62813600  0.75000000  1
  Cu  Cu5  1  0.80718300  0.41782600  0.75000000  1
  Cu  Cu6  1  0.19281700  0.91782600  0.75000000  1
  Cu  Cu7  1  0.19281700  0.58217400  0.25000000  1
  P  P0  1  0.23249300  0.83060800  0.61266800  1
  P  P1  1  0.07682500  0.69583900  0.60873600  1
  P  P2  1  0.44202500  0.74512900  0.07919700  1
  P  P3  1  0.07682500  0.80416100  0.10873600  1
  P  P4  1  0.18254200  0.92434400  0.48030900  1
  P  P5  1  0.44202500  0.75487100  0.92080300  1
  P  P6  1  0.07682500  0.69583900  0.89126400  1
  P  P7  1  0.55797500  0.25487100  0.92080300  1
  P  P8  1  0.55797500  0.25487100  0.57919700  1
  P  P9  1  0.76750700  0.16939200  0.38733200  1
  P  P10  1  0.81745800  0.42434400  0.48030900  1
  P  P11  1  0.23249300  0.66939200  0.38733200  1
  P  P12  1  0.23249300  0.66939200  0.11266800  1
  P  P13  1  0.76750700  0.33060800  0.88733200  1
  P  P14  1  0.92317500  0.19583900  0.60873600  1
  P  P15  1  0.18254200  0.57565600  0.98030900  1
  P  P16  1  0.81745800  0.07565600  0.98030900  1
  P  P17  1  0.07682500  0.80416100  0.39126400  1
  P  P18  1  0.55797500  0.24512900  0.07919700  1
  P  P19  1  0.55797500  0.24512900  0.42080300  1
  P  P20  1  0.76750700  0.33060800  0.61266800  1
  P  P21  1  0.92317500  0.30416100  0.39126400  1
  P  P22  1  0.81745800  0.07565600  0.51969100  1
  P  P23  1  0.18254200  0.57565600  0.51969100  1
  P  P24  1  0.18254200  0.92434400  0.01969100  1
  P  P25  1  0.76750700  0.16939200  0.11266800  1
  P  P26  1  0.92317500  0.19583900  0.89126400  1
  P  P27  1  0.44202500  0.75487100  0.57919700  1
  P  P28  1  0.81745800  0.42434400  0.01969100  1
  P  P29  1  0.92317500  0.30416100  0.10873600  1
  P  P30  1  0.44202500  0.74512900  0.42080300  1
  P  P31  1  0.23249300  0.83060800  0.88733200  1
  Se  Se0  1  0.91107800  0.75000000  0.00000000  1
  Se  Se1  1  0.39136000  0.58337100  0.89543900  1
  Se  Se2  1  0.60864000  0.41662900  0.10456100  1
  Se  Se3  1  0.60864000  0.08337100  0.60456100  1
  Se  Se4  1  0.60864000  0.08337100  0.89543900  1
  Se  Se5  1  0.60864000  0.41662900  0.39543900  1
  Se  Se6  1  0.08892200  0.25000000  0.00000000  1
  Se  Se7  1  0.39136000  0.58337100  0.60456100  1
  Se  Se8  1  0.39136000  0.91662900  0.10456100  1
  Se  Se9  1  0.91107800  0.75000000  0.50000000  1
  Se  Se10  1  0.39136000  0.91662900  0.39543900  1
  Se  Se11  1  0.08892200  0.25000000  0.50000000  1
  I  I0  1  0.27794200  0.38782300  0.25000000  1
  I  I1  1  0.90799000  0.93014800  0.75000000  1
  I  I2  1  0.09201000  0.43014800  0.75000000  1
  I  I3  1  0.90799000  0.56985200  0.25000000  1
  I  I4  1  0.72205800  0.88782300  0.25000000  1
  I  I5  1  0.27794200  0.11217700  0.75000000  1
  I  I6  1  0.09201000  0.06985200  0.25000000  1
  I  I7  1  0.72205800  0.61217700  0.75000000  1
loop_
_geom_bond_atom_site_label_1
_geom_bond_atom_site_label_2
_geom_bond_distance
_geom_bond_site_symmetry_2
Cu0 P3 2.262340 1_555
Cu0 P17 2.262340 1_555
Cu0 I4 2.651431 1_455
Cu0 I6 2.680447 1_565
Cu1 P21 2.262340 1_555
Cu1 P29 2.262340 1_555
Cu1 I0 2.651431 1_655
Cu1 I3 2.680447 1_555
Cu2 P9 2.246830 1_555
Cu2 P25 2.246830 1_555
Cu2 I4 2.622158 1_545
Cu2 I6 2.692792 1_655
Cu3 P26 2.262340 1_555
Cu3 P14 2.262340 1_555
Cu3 I5 2.651431 1_655
Cu3 I1 2.680447 1_545
Cu4 P6 2.262340 1_555
Cu4 P1 2.262340 1_555
Cu4 I7 2.651431 1_455
Cu4 I2 2.680447 1_555
Cu5 P13 2.246830 1_555
Cu5 P20 2.246830 1_555
Cu5 I7 2.622158 1_555
Cu5 I2 2.692792 1_655
Cu6 P0 2.246830 1_555
Cu6 P31 2.246830 1_555
Cu6 I5 2.622158 1_565
Cu6 I1 2.692792 1_455
Cu7 P11 2.246830 1_555
Cu7 P12 2.246830 1_555
Cu7 I0 2.622158 1_555
Cu7 I3 2.692792 1_455
P0 P4 2.250560 1_555
P0 P27 2.252492 1_555
P0 P1 2.270955 1_555
P1 P23 2.216709 1_555
P1 Se9 2.284977 1_455
P2 P5 2.208049 1_554
P2 Se8 2.281359 1_555
P3 Se0 2.284977 1_455
P4 Se10 2.299792 1_555
P5 Se1 2.281359 1_555
P6 Se0 2.284977 1_456
P7 Se4 2.281359 1_555
P8 Se3 2.281359 1_555
P10 P21 2.216709 1_555
P10 P20 2.250560 1_555
P10 Se5 2.299792 1_555
P11 P23 2.250560 1_555
P11 P30 2.252492 1_555
P11 P17 2.270955 1_555
P12 P15 2.250560 1_554
P12 P2 2.252492 1_555
P12 P3 2.270955 1_555
P13 P28 2.250560 1_556
P13 P7 2.252492 1_555
P13 P26 2.270955 1_555
P14 P22 2.216709 1_555
P14 P20 2.270955 1_555
P14 Se11 2.284977 1_655
P15 P6 2.216709 1_555
P15 Se1 2.299792 1_555
P16 P26 2.216709 1_555
P16 P25 2.250560 1_556
P16 Se4 2.299792 1_555
P17 P4 2.216709 1_555
P17 Se9 2.284977 1_455
P18 P7 2.208049 1_554
P18 P25 2.252492 1_555
P18 Se2 2.281359 1_555
P19 P8 2.208049 1_555
P19 P9 2.252492 1_555
P19 Se5 2.281359 1_555
P20 P8 2.252492 1_555
P21 P9 2.270955 1_555
P21 Se11 2.284977 1_655
P22 P9 2.250560 1_555
P22 Se3 2.299792 1_555
P23 Se7 2.299792 1_555
P24 P3 2.216709 1_555
P24 P31 2.250560 1_554
P24 Se8 2.299792 1_555
P25 P29 2.270955 1_555
P26 Se6 2.284977 1_656
P27 P30 2.208049 1_555
P27 Se7 2.281359 1_555
P28 P29 2.216709 1_555
P28 Se2 2.299792 1_555
P29 Se6 2.284977 1_655
P30 Se10 2.281359 1_555
P31 P5 2.252492 1_555
P31 P6 2.270955 1_555
