# generated using pymatgen
data_K3Nb8O21
_symmetry_space_group_name_H-M   'P 1'
_cell_length_a   9.32651172
_cell_length_b   9.32651172
_cell_length_c   12.23901200
_cell_angle_alpha   90.00000000
_cell_angle_beta   90.00000000
_cell_angle_gamma   119.99999803
_symmetry_Int_Tables_number   1
_chemical_formula_structural   K3Nb8O21
_chemical_formula_sum   'K6 Nb16 O42'
_cell_volume   921.96722321
_cell_formula_units_Z   2
loop_
 _symmetry_equiv_pos_site_id
 _symmetry_equiv_pos_as_xyz
  1  'x, y, z'
loop_
 _atom_site_type_symbol
 _atom_site_label
 _atom_site_symmetry_multiplicity
 _atom_site_fract_x
 _atom_site_fract_y
 _atom_site_fract_z
 _atom_site_occupancy
  K  K0  1  0.40555600  0.40555600  0.75000000  1
  K  K1  1  0.00000000  0.40555600  0.25000000  1
  K  K2  1  0.40555600  0.00000000  0.25000000  1
  K  K3  1  0.59444400  0.00000000  0.75000000  1
  K  K4  1  0.00000000  0.59444400  0.75000000  1
  K  K5  1  0.59444400  0.59444400  0.25000000  1
  Nb  Nb0  1  0.24852600  0.00000000  0.90560700  1
  Nb  Nb1  1  0.00000000  0.24852600  0.90560700  1
  Nb  Nb2  1  0.75147400  0.75147400  0.90560700  1
  Nb  Nb3  1  0.24852600  0.24852600  0.40560700  1
  Nb  Nb4  1  0.75147400  0.75147400  0.59439300  1
  Nb  Nb5  1  0.75147400  0.00000000  0.40560700  1
  Nb  Nb6  1  0.00000000  0.75147400  0.40560700  1
  Nb  Nb7  1  0.00000000  0.75147400  0.09439300  1
  Nb  Nb8  1  0.75147400  0.00000000  0.09439300  1
  Nb  Nb9  1  0.24852600  0.00000000  0.59439300  1
  Nb  Nb10  1  0.00000000  0.24852600  0.59439300  1
  Nb  Nb11  1  0.24852600  0.24852600  0.09439300  1
  Nb  Nb12  1  0.66666700  0.33333300  0.50000000  1
  Nb  Nb13  1  0.33333300  0.66666700  0.00000000  1
  Nb  Nb14  1  0.33333300  0.66666700  0.50000000  1
  Nb  Nb15  1  0.66666700  0.33333300  0.00000000  1
  O  O0  1  0.79398700  0.79398700  0.75000000  1
  O  O1  1  0.00000000  0.79398700  0.25000000  1
  O  O2  1  0.79398700  0.00000000  0.25000000  1
  O  O3  1  0.20601300  0.00000000  0.75000000  1
  O  O4  1  0.00000000  0.20601300  0.75000000  1
  O  O5  1  0.20601300  0.20601300  0.25000000  1
  O  O6  1  0.20034000  0.20034000  0.92673600  1
  O  O7  1  0.79966000  0.00000000  0.92673600  1
  O  O8  1  0.00000000  0.79966000  0.92673600  1
  O  O9  1  0.00000000  0.20034000  0.42673600  1
  O  O10  1  0.79966000  0.00000000  0.57326400  1
  O  O11  1  0.79966000  0.79966000  0.42673600  1
  O  O12  1  0.20034000  0.00000000  0.42673600  1
  O  O13  1  0.79966000  0.79966000  0.07326400  1
  O  O14  1  0.00000000  0.20034000  0.07326400  1
  O  O15  1  0.48060600  0.31307300  0.40529700  1
  O  O16  1  0.00000000  0.79966000  0.57326400  1
  O  O17  1  0.20034000  0.00000000  0.07326400  1
  O  O18  1  0.51939400  0.83246700  0.09470300  1
  O  O19  1  0.16753300  0.68692700  0.09470300  1
  O  O20  1  0.31307300  0.48060600  0.09470300  1
  O  O21  1  0.68692700  0.51939400  0.59470300  1
  O  O22  1  0.48060600  0.31307300  0.09470300  1
  O  O23  1  0.16753300  0.48060600  0.59470300  1
  O  O24  1  0.31307300  0.83246700  0.59470300  1
  O  O25  1  0.68692700  0.16753300  0.09470300  1
  O  O26  1  0.83246700  0.51939400  0.09470300  1
  O  O27  1  0.16753300  0.68692700  0.40529700  1
  O  O28  1  0.51939400  0.83246700  0.40529700  1
  O  O29  1  0.51939400  0.68692700  0.59470300  1
  O  O30  1  0.31307300  0.48060600  0.40529700  1
  O  O31  1  0.68692700  0.51939400  0.90529700  1
  O  O32  1  0.83246700  0.31307300  0.90529700  1
  O  O33  1  0.48060600  0.16753300  0.90529700  1
  O  O34  1  0.51939400  0.68692700  0.90529700  1
  O  O35  1  0.83246700  0.51939400  0.40529700  1
  O  O36  1  0.68692700  0.16753300  0.40529700  1
  O  O37  1  0.31307300  0.83246700  0.90529700  1
  O  O38  1  0.16753300  0.48060600  0.90529700  1
  O  O39  1  0.83246700  0.31307300  0.59470300  1
  O  O40  1  0.48060600  0.16753300  0.59470300  1
  O  O41  1  0.20034000  0.20034000  0.57326400  1
loop_
_geom_bond_atom_site_label_1
_geom_bond_atom_site_label_2
_geom_bond_distance
_geom_bond_site_symmetry_2
K0 O6 2.888268 1_555
K0 O41 2.888268 1_555
K0 O34 2.973238 1_555
K0 O31 2.973238 1_555
K0 O29 2.973238 1_555
K0 O21 2.973238 1_555
K0 O33 3.253373 1_555
K0 O38 3.253373 1_555
K0 O40 3.253373 1_555
K0 O23 3.253373 1_555
K0 O4 3.275813 1_555
K0 O3 3.275813 1_555
K1 O9 2.888268 1_555
K1 O14 2.888268 1_555
K1 O35 2.973238 1_455
K1 O26 2.973238 1_455
K1 O27 2.973238 1_555
K1 O19 2.973238 1_555
K1 O30 3.253373 1_555
K1 O20 3.253373 1_555
K1 O36 3.253373 1_455
K1 O25 3.253373 1_455
K1 O5 3.275813 1_555
K1 O2 3.275813 1_455
K2 O12 2.888268 1_555
K2 O17 2.888268 1_555
K2 O28 2.973238 1_545
K2 O18 2.973238 1_545
K2 O36 2.973238 1_555
K2 O25 2.973238 1_555
K2 O15 3.253373 1_555
K2 O22 3.253373 1_555
K2 O27 3.253373 1_545
K2 O19 3.253373 1_545
K2 O5 3.275813 1_555
K2 O1 3.275813 1_545
K3 O10 2.888268 1_555
K3 O7 2.888268 1_555
K3 O33 2.973238 1_555
K3 O40 2.973238 1_555
K3 O37 2.973238 1_545
K3 O24 2.973238 1_545
K3 O34 3.253373 1_545
K3 O29 3.253373 1_545
K3 O32 3.253373 1_555
K3 O39 3.253373 1_555
K3 O0 3.275813 1_545
K3 O4 3.275813 1_655
K4 O8 2.888268 1_555
K4 O16 2.888268 1_555
K4 O38 2.973238 1_555
K4 O23 2.973238 1_555
K4 O32 2.973238 1_455
K4 O39 2.973238 1_455
K4 O31 3.253373 1_455
K4 O21 3.253373 1_455
K4 O37 3.253373 1_555
K4 O24 3.253373 1_555
K4 O0 3.275813 1_455
K4 O3 3.275813 1_565
K5 O13 2.888268 1_555
K5 O11 2.888268 1_555
K5 O15 2.973238 1_555
K5 O30 2.973238 1_555
K5 O20 2.973238 1_555
K5 O22 2.973238 1_555
K5 O28 3.253373 1_555
K5 O35 3.253373 1_555
K5 O26 3.253373 1_555
K5 O18 3.253373 1_555
K5 O1 3.275813 1_655
K5 O2 3.275813 1_565
Nb0 O37 1.935055 1_545
Nb0 O33 1.935055 1_555
Nb0 O3 1.945312 1_555
Nb0 O17 2.100593 1_556
Nb0 O6 2.144700 1_555
Nb0 O8 2.144700 1_545
Nb1 O32 1.935055 1_455
Nb1 O38 1.935055 1_555
Nb1 O4 1.945312 1_555
Nb1 O14 2.100593 1_556
Nb1 O6 2.144700 1_555
Nb1 O7 2.144700 1_455
Nb2 O31 1.935055 1_555
Nb2 O34 1.935055 1_555
Nb2 O0 1.945312 1_555
Nb2 O13 2.100593 1_556
Nb2 O7 2.144700 1_565
Nb2 O8 2.144700 1_655
Nb3 O15 1.935055 1_555
Nb3 O30 1.935055 1_555
Nb3 O5 1.945312 1_555
Nb3 O41 2.100593 1_555
Nb3 O12 2.144700 1_555
Nb3 O9 2.144700 1_555
Nb4 O21 1.935055 1_555
Nb4 O29 1.935055 1_555
Nb4 O0 1.945312 1_555
Nb4 O11 2.100593 1_555
Nb4 O16 2.144700 1_655
Nb4 O10 2.144700 1_565
Nb5 O36 1.935055 1_555
Nb5 O28 1.935055 1_545
Nb5 O2 1.945312 1_555
Nb5 O10 2.100593 1_555
Nb5 O11 2.144700 1_545
Nb5 O9 2.144700 1_655
Nb6 O27 1.935055 1_555
Nb6 O35 1.935055 1_455
Nb6 O1 1.945312 1_555
Nb6 O16 2.100593 1_555
Nb6 O11 2.144700 1_455
Nb6 O12 2.144700 1_565
Nb7 O19 1.935055 1_555
Nb7 O26 1.935055 1_455
Nb7 O1 1.945312 1_555
Nb7 O8 2.100593 1_554
Nb7 O13 2.144700 1_455
Nb7 O17 2.144700 1_565
Nb8 O25 1.935055 1_555
Nb8 O18 1.935055 1_545
Nb8 O2 1.945312 1_555
Nb8 O7 2.100593 1_554
Nb8 O13 2.144700 1_545
Nb8 O14 2.144700 1_655
Nb9 O24 1.935055 1_545
Nb9 O40 1.935055 1_555
Nb9 O3 1.945312 1_555
Nb9 O12 2.100593 1_555
Nb9 O41 2.144700 1_555
Nb9 O16 2.144700 1_545
Nb10 O39 1.935055 1_455
Nb10 O23 1.935055 1_555
Nb10 O4 1.945312 1_555
Nb10 O9 2.100593 1_555
Nb10 O41 2.144700 1_555
Nb10 O10 2.144700 1_455
Nb11 O20 1.935055 1_555
Nb11 O22 1.935055 1_555
Nb11 O5 1.945312 1_555
Nb11 O6 2.100593 1_554
Nb11 O17 2.144700 1_555
Nb11 O14 2.144700 1_555
Nb12 O39 2.015562 1_555
Nb12 O36 2.015562 1_555
Nb12 O40 2.015567 1_555
Nb12 O35 2.015567 1_555
Nb12 O21 2.015570 1_555
Nb12 O15 2.015570 1_555
Nb13 O19 2.015562 1_555
Nb13 O37 2.015562 1_554
Nb13 O18 2.015567 1_555
Nb13 O38 2.015567 1_554
Nb13 O20 2.015570 1_555
Nb13 O34 2.015570 1_554
Nb14 O24 2.015562 1_555
Nb14 O27 2.015562 1_555
Nb14 O23 2.015567 1_555
Nb14 O28 2.015567 1_555
Nb14 O29 2.015570 1_555
Nb14 O30 2.015570 1_555
Nb15 O25 2.015562 1_555
Nb15 O32 2.015562 1_554
Nb15 O26 2.015567 1_555
Nb15 O33 2.015567 1_554
Nb15 O22 2.015570 1_555
Nb15 O31 2.015570 1_554
