# generated using pymatgen
data_PCl2OF
_symmetry_space_group_name_H-M   'P 1'
_cell_length_a   5.76086500
_cell_length_b   9.77851000
_cell_length_c   10.03144780
_cell_angle_alpha   63.94021369
_cell_angle_beta   90.00000000
_cell_angle_gamma   90.00000000
_symmetry_Int_Tables_number   1
_chemical_formula_structural   PCl2OF
_chemical_formula_sum   'P4 Cl8 O4 F4'
_cell_volume   507.64821913
_cell_formula_units_Z   4
loop_
 _symmetry_equiv_pos_site_id
 _symmetry_equiv_pos_as_xyz
  1  'x, y, z'
loop_
 _atom_site_type_symbol
 _atom_site_label
 _atom_site_symmetry_multiplicity
 _atom_site_fract_x
 _atom_site_fract_y
 _atom_site_fract_z
 _atom_site_occupancy
  P  P0  1  0.36855900  0.45056300  0.22568000  1
  P  P1  1  0.63144100  0.54943700  0.77432000  1
  P  P2  1  0.13144100  0.95056300  0.22568000  1
  P  P3  1  0.86855900  0.04943700  0.77432000  1
  Cl  Cl0  1  0.58666100  0.61876400  0.19708900  1
  Cl  Cl1  1  0.70287800  0.09817500  0.58361300  1
  Cl  Cl2  1  0.91333900  0.11876400  0.19708900  1
  Cl  Cl3  1  0.41333900  0.38123600  0.80291100  1
  Cl  Cl4  1  0.08666100  0.88123600  0.80291100  1
  Cl  Cl5  1  0.20287800  0.40182500  0.41638700  1
  Cl  Cl6  1  0.29712200  0.90182500  0.41638700  1
  Cl  Cl7  1  0.79712200  0.59817500  0.58361300  1
  O  O0  1  0.02862700  0.81922500  0.21380100  1
  O  O1  1  0.52862700  0.68077500  0.78619900  1
  O  O2  1  0.47137300  0.31922500  0.21380100  1
  O  O3  1  0.97137300  0.18077500  0.78619900  1
  F  F0  1  0.17413600  0.53346000  0.10837900  1
  F  F1  1  0.67413600  0.96654000  0.89162100  1
  F  F2  1  0.82586400  0.46654000  0.89162100  1
  F  F3  1  0.32586400  0.03346000  0.10837900  1
loop_
_geom_bond_atom_site_label_1
_geom_bond_atom_site_label_2
_geom_bond_distance
_geom_bond_site_symmetry_2
Cl0 P0 1.987886 1_555
Cl1 P3 1.999224 1_555
Cl2 P2 1.987886 1_645
Cl3 P1 1.987886 1_555
Cl4 P3 1.987886 1_465
Cl5 P0 1.999224 1_555
Cl6 P2 1.999224 1_555
Cl7 P1 1.999224 1_555
O0 P2 1.465906 1_555
O1 P1 1.465906 1_555
O2 P0 1.465906 1_555
O3 P3 1.465906 1_555
F0 P0 1.567847 1_555
F1 P3 1.567847 1_565
F2 P1 1.567847 1_555
F3 P2 1.567847 1_545
