# generated using pymatgen
data_Ni2W3N
_symmetry_space_group_name_H-M   'P 1'
_cell_length_a   6.63559110
_cell_length_b   6.63559033
_cell_length_c   6.63558929
_cell_angle_alpha   90.00002409
_cell_angle_beta   89.99992574
_cell_angle_gamma   90.00001468
_symmetry_Int_Tables_number   1
_chemical_formula_structural   Ni2W3N
_chemical_formula_sum   'Ni8 W12 N4'
_cell_volume   292.17205761
_cell_formula_units_Z   4
loop_
 _symmetry_equiv_pos_site_id
 _symmetry_equiv_pos_as_xyz
  1  'x, y, z'
loop_
 _atom_site_type_symbol
 _atom_site_label
 _atom_site_symmetry_multiplicity
 _atom_site_fract_x
 _atom_site_fract_y
 _atom_site_fract_z
 _atom_site_occupancy
  Ni  Ni0  1  0.06624231  0.06626509  0.06625725  1
  Ni  Ni1  1  0.31625593  0.18375821  0.81626126  1
  Ni  Ni2  1  0.81624864  0.31625678  0.18374650  1
  Ni  Ni3  1  0.18373811  0.81624676  0.31624810  1
  Ni  Ni4  1  0.43375107  0.93374215  0.56625664  1
  Ni  Ni5  1  0.56626567  0.43374705  0.93375373  1
  Ni  Ni6  1  0.93373631  0.56624367  0.43373988  1
  Ni  Ni7  1  0.68375502  0.68373579  0.68375219  1
  W  W0  1  0.19990469  0.44990095  0.12500281  1
  W  W1  1  0.44990142  0.12500081  0.19990026  1
  W  W2  1  0.94990346  0.37499728  0.80009413  1
  W  W3  1  0.87499896  0.69990431  0.05009633  1
  W  W4  1  0.12500122  0.19990085  0.44990106  1
  W  W5  1  0.80010101  0.94990369  0.37500094  1
  W  W6  1  0.69990208  0.05009744  0.87499804  1
  W  W7  1  0.05010053  0.87499936  0.69989947  1
  W  W8  1  0.62500080  0.30009790  0.55009617  1
  W  W9  1  0.55009776  0.62500152  0.30009690  1
  W  W10  1  0.37499755  0.80009886  0.94989829  1
  W  W11  1  0.30009749  0.55010059  0.62500187  1
  N  N0  1  0.37499778  0.37499837  0.37499888  1
  N  N1  1  0.62500013  0.87499943  0.12500031  1
  N  N2  1  0.12500363  0.62500361  0.87499667  1
  N  N3  1  0.87500042  0.12499955  0.62500031  1
loop_
_geom_bond_atom_site_label_1
_geom_bond_atom_site_label_2
_geom_bond_distance
_geom_bond_site_symmetry_2
Ni0 Ni2 2.472114 1_455
Ni0 Ni1 2.472230 1_554
Ni0 Ni3 2.472236 1_545
Ni0 W0 2.723771 1_555
Ni0 W4 2.723776 1_555
Ni0 W1 2.723866 1_555
Ni0 W6 2.744335 1_454
Ni0 W3 2.744403 1_445
Ni0 W7 2.744449 1_544
Ni0 W2 2.812843 1_454
Ni0 W5 2.812846 1_445
Ni0 W10 2.813002 1_544
Ni1 Ni5 2.472181 1_555
Ni1 Ni4 2.472283 1_545
Ni1 W1 2.723767 1_556
Ni1 W6 2.723825 1_555
Ni1 W10 2.723859 1_545
Ni1 W2 2.744344 1_455
Ni1 W11 2.744344 1_555
Ni1 W4 2.744432 1_555
Ni1 W0 2.812823 1_556
Ni1 W8 2.812911 1_555
Ni1 W7 2.812980 1_545
Ni2 Ni5 2.472076 1_554
Ni2 Ni6 2.472089 1_555
Ni2 W3 2.723822 1_555
Ni2 W2 2.723852 1_554
Ni2 W0 2.723855 1_655
Ni2 W8 2.744350 1_555
Ni2 W1 2.744361 1_555
Ni2 W5 2.744389 1_545
Ni2 W9 2.812872 1_555
Ni2 W6 2.812918 1_554
Ni2 W4 2.812938 1_655
Ni3 Ni6 2.472207 1_455
Ni3 Ni4 2.472290 1_555
Ni3 W5 2.723774 1_455
Ni3 W7 2.723819 1_555
Ni3 W4 2.723856 1_565
Ni3 W0 2.744322 1_555
Ni3 W10 2.744383 1_554
Ni3 W9 2.744401 1_555
Ni3 W3 2.812836 1_455
Ni3 W11 2.812914 1_555
Ni3 W1 2.812964 1_565
Ni4 Ni7 2.472241 1_555
Ni4 W10 2.723773 1_555
Ni4 W11 2.723787 1_555
Ni4 W7 2.723817 1_555
Ni4 W5 2.744377 1_555
Ni4 W8 2.744393 1_565
Ni4 W1 2.744422 1_565
Ni4 W6 2.812867 1_565
Ni4 W9 2.812881 1_555
Ni4 W4 2.812940 1_565
Ni5 Ni7 2.472137 1_555
Ni5 W2 2.723781 1_555
Ni5 W6 2.723810 1_555
Ni5 W8 2.723867 1_555
Ni5 W9 2.744335 1_556
Ni5 W0 2.744419 1_556
Ni5 W10 2.744423 1_555
Ni5 W3 2.812830 1_556
Ni5 W1 2.812886 1_556
Ni5 W11 2.812986 1_555
Ni6 Ni7 2.472156 1_555
Ni6 W9 2.723759 1_555
Ni6 W3 2.723808 1_555
Ni6 W5 2.723857 1_555
Ni6 W4 2.744365 1_655
Ni6 W2 2.744376 1_555
Ni6 W11 2.744460 1_655
Ni6 W8 2.812816 1_555
Ni6 W0 2.812892 1_655
Ni6 W7 2.812986 1_655
Ni7 W8 2.723778 1_555
Ni7 W11 2.723852 1_555
Ni7 W9 2.723871 1_555
Ni7 W3 2.744311 1_556
Ni7 W7 2.744372 1_655
Ni7 W6 2.744412 1_565
Ni7 W2 2.812818 1_555
Ni7 W10 2.812935 1_555
Ni7 W5 2.812966 1_555
N0 W0 2.085372 1_555
N0 W4 2.085389 1_555
N0 W1 2.085400 1_555
N0 W8 2.085421 1_555
N0 W9 2.085433 1_555
N0 W11 2.085437 1_555
N1 W9 2.085393 1_555
N1 W3 2.085395 1_555
N1 W1 2.085415 1_565
N1 W6 2.085421 1_564
N1 W5 2.085427 1_555
N1 W10 2.085436 1_554
N2 W10 2.085366 1_555
N2 W11 2.085366 1_555
N2 W7 2.085386 1_555
N2 W3 2.085437 1_456
N2 W2 2.085451 1_455
N2 W0 2.085458 1_556
N3 W2 2.085383 1_555
N3 W5 2.085394 1_545
N3 W6 2.085397 1_555
N3 W8 2.085413 1_555
N3 W7 2.085414 1_645
N3 W4 2.085416 1_655
