# generated using pymatgen
data_Te2PdBr6
_symmetry_space_group_name_H-M   'P 1'
_cell_length_a   9.32595900
_cell_length_b   17.11217800
_cell_length_c   19.60106936
_cell_angle_alpha   64.89518485
_cell_angle_beta   90.00000000
_cell_angle_gamma   90.00000000
_symmetry_Int_Tables_number   1
_chemical_formula_structural   Te2PdBr6
_chemical_formula_sum   'Te16 Pd8 Br48'
_cell_volume   2832.58472020
_cell_formula_units_Z   8
loop_
 _symmetry_equiv_pos_site_id
 _symmetry_equiv_pos_as_xyz
  1  'x, y, z'
loop_
 _atom_site_type_symbol
 _atom_site_label
 _atom_site_symmetry_multiplicity
 _atom_site_fract_x
 _atom_site_fract_y
 _atom_site_fract_z
 _atom_site_occupancy
  Te  Te0  1  0.65344000  0.12261800  0.35926400  1
  Te  Te1  1  0.71012200  0.11086000  0.54977800  1
  Te  Te2  1  0.21012200  0.38914000  0.95022200  1
  Te  Te3  1  0.28987800  0.88914000  0.45022200  1
  Te  Te4  1  0.78987800  0.61086000  0.04977800  1
  Te  Te5  1  0.13741800  0.51301500  0.35564400  1
  Te  Te6  1  0.15344000  0.37738200  0.14073600  1
  Te  Te7  1  0.22127300  0.34598700  0.54649600  1
  Te  Te8  1  0.34656000  0.87738200  0.64073600  1
  Te  Te9  1  0.77872700  0.65401300  0.45350400  1
  Te  Te10  1  0.84656000  0.62261800  0.85926400  1
  Te  Te11  1  0.86258200  0.48698500  0.64435600  1
  Te  Te12  1  0.27872700  0.84598700  0.04649600  1
  Te  Te13  1  0.72127300  0.15401300  0.95350400  1
  Te  Te14  1  0.63741800  0.98698500  0.14435600  1
  Te  Te15  1  0.36258200  0.01301500  0.85564400  1
  Pd  Pd0  1  0.83579200  0.50360900  0.99360800  1
  Pd  Pd1  1  0.16342300  0.50661000  0.48761900  1
  Pd  Pd2  1  0.33657700  0.00661000  0.98761900  1
  Pd  Pd3  1  0.16420800  0.49639100  0.00639200  1
  Pd  Pd4  1  0.66342300  0.99339000  0.01238100  1
  Pd  Pd5  1  0.33579200  0.99639100  0.50639200  1
  Pd  Pd6  1  0.66420800  0.00360900  0.49360800  1
  Pd  Pd7  1  0.83657700  0.49339000  0.51238100  1
  Br  Br0  1  0.51544200  0.64334600  0.49130300  1
  Br  Br1  1  0.66462700  0.14501600  0.12643600  1
  Br  Br2  1  0.10557700  0.66444800  0.39855500  1
  Br  Br3  1  0.82073500  0.76514000  0.87362800  1
  Br  Br4  1  0.12120400  0.57215100  0.09351600  1
  Br  Br5  1  0.89442300  0.33555200  0.60144500  1
  Br  Br6  1  0.39585800  0.55418700  0.30955000  1
  Br  Br7  1  0.33537300  0.85498400  0.87356400  1
  Br  Br8  1  0.17926500  0.23486000  0.12637200  1
  Br  Br9  1  0.17546800  0.53163100  0.60470900  1
  Br  Br10  1  0.67926500  0.26514000  0.37362800  1
  Br  Br11  1  0.87879600  0.42784900  0.90648400  1
  Br  Br12  1  0.74228500  0.03229300  0.69127800  1
  Br  Br13  1  0.41775700  0.37922400  0.17802400  1
  Br  Br14  1  0.10414200  0.05418700  0.80955000  1
  Br  Br15  1  0.33667900  0.13236300  0.38646700  1
  Br  Br16  1  0.77645400  0.20343600  0.81521500  1
  Br  Br17  1  0.32073500  0.73486000  0.62637200  1
  Br  Br18  1  0.83667900  0.36763700  0.11353300  1
  Br  Br19  1  0.32453200  0.03163100  0.10470900  1
  Br  Br20  1  0.16462700  0.35498400  0.37356400  1
  Br  Br21  1  0.48455800  0.35665400  0.50869700  1
  Br  Br22  1  0.27645400  0.29656400  0.68478500  1
  Br  Br23  1  0.60414200  0.44581300  0.69045000  1
  Br  Br24  1  0.75771500  0.53229300  0.19127800  1
  Br  Br25  1  0.66332100  0.86763700  0.61353300  1
  Br  Br26  1  0.97857500  0.13116900  0.52399200  1
  Br  Br27  1  0.82453200  0.46836900  0.39529100  1
  Br  Br28  1  0.89585800  0.94581300  0.19045000  1
  Br  Br29  1  0.52142500  0.63116900  0.02399200  1
  Br  Br30  1  0.37879600  0.07215100  0.59351600  1
  Br  Br31  1  0.72354600  0.70343600  0.31521500  1
  Br  Br32  1  0.22354600  0.79656400  0.18478500  1
  Br  Br33  1  0.83537300  0.64501600  0.62643600  1
  Br  Br34  1  0.47857500  0.36883100  0.97600800  1
  Br  Br35  1  0.08224300  0.87922400  0.67802400  1
  Br  Br36  1  0.91775700  0.12077600  0.32197600  1
  Br  Br37  1  0.24228500  0.46770700  0.80872200  1
  Br  Br38  1  0.60557700  0.83555200  0.10144500  1
  Br  Br39  1  0.16332100  0.63236300  0.88646700  1
  Br  Br40  1  0.62120400  0.92784900  0.40648400  1
  Br  Br41  1  0.67546800  0.96836900  0.89529100  1
  Br  Br42  1  0.25771500  0.96770700  0.30872200  1
  Br  Br43  1  0.01544200  0.85665400  0.00869700  1
  Br  Br44  1  0.39442300  0.16444800  0.89855500  1
  Br  Br45  1  0.58224300  0.62077600  0.82197600  1
  Br  Br46  1  0.02142500  0.86883100  0.47600800  1
  Br  Br47  1  0.98455800  0.14334600  0.99130300  1
loop_
_geom_bond_atom_site_label_1
_geom_bond_atom_site_label_2
_geom_bond_distance
_geom_bond_site_symmetry_2
Pd0 Te4 2.545285 1_556
Pd0 Te10 2.557558 1_555
Pd1 Te7 2.546786 1_555
Pd1 Te5 2.553829 1_555
Pd2 Te12 2.546786 1_546
Pd2 Te15 2.553829 1_555
Pd3 Te2 2.545285 1_554
Pd3 Te6 2.557558 1_555
Pd4 Te13 2.546786 1_564
Pd4 Te14 2.553829 1_555
Pd5 Te3 2.545285 1_555
Pd5 Te8 2.557558 1_555
Pd6 Te1 2.545285 1_555
Pd6 Te0 2.557558 1_555
Pd7 Te9 2.546786 1_555
Pd7 Te11 2.553829 1_555
Br0 Te9 2.548806 1_555
Br1 Te14 2.587420 1_545
Br2 Pd1 2.575410 1_555
Br2 Te5 3.059446 1_555
Br2 Te9 3.212507 1_455
Br3 Te10 2.582245 1_555
Br4 Pd3 2.576139 1_555
Br4 Te6 3.072097 1_555
Br4 Te4 3.199931 1_455
Br5 Pd7 2.575410 1_555
Br5 Te11 3.059446 1_555
Br5 Te7 3.212507 1_655
Br6 Te5 2.565463 1_555
Br7 Te15 2.587420 1_565
Br8 Te6 2.582245 1_555
Br9 Pd1 2.509427 1_555
Br9 Te11 3.032871 1_455
Br10 Te0 2.582245 1_555
Br11 Pd0 2.576139 1_555
Br11 Te10 3.072097 1_555
Br11 Te2 3.199931 1_655
Br12 Te1 2.534944 1_555
Br13 Te6 2.575074 1_555
Br14 Te15 2.565463 1_555
Br15 Pd5 2.509669 1_545
Br15 Te0 3.018986 1_555
Br16 Te13 2.526311 1_555
Br17 Te8 2.582245 1_555
Br18 Pd0 2.509669 1_554
Br18 Te6 3.018986 1_655
Br19 Pd2 2.509427 1_554
Br19 Te14 3.032871 1_545
Br20 Te5 2.587420 1_555
Br21 Te7 2.548806 1_555
Br22 Te7 2.526311 1_555
Br23 Te11 2.565463 1_555
Br24 Te4 2.534944 1_555
Br25 Pd6 2.509669 1_565
Br25 Te8 3.018986 1_555
Br26 Te1 2.548551 1_555
Br27 Pd7 2.509427 1_555
Br27 Te5 3.032871 1_655
Br28 Te14 2.565463 1_555
Br29 Te4 2.548551 1_555
Br30 Pd5 2.576139 1_545
Br30 Te8 3.072097 1_545
Br30 Te1 3.199931 1_555
Br31 Te9 2.526311 1_555
Br32 Te12 2.526311 1_555
Br33 Te11 2.587420 1_555
Br34 Te2 2.548551 1_555
Br35 Te8 2.575074 1_555
Br36 Te0 2.575074 1_555
Br37 Te2 2.534944 1_555
Br38 Pd4 2.575410 1_555
Br38 Te14 3.059446 1_555
Br38 Te12 3.212507 1_555
Br39 Pd3 2.509669 1_556
Br39 Te10 3.018986 1_455
Br40 Pd6 2.576139 1_565
Br40 Te0 3.072097 1_565
Br40 Te3 3.199931 1_555
Br41 Pd4 2.509427 1_556
Br41 Te15 3.032871 1_565
Br42 Te3 2.534944 1_555
Br43 Te12 2.548806 1_555
Br44 Pd2 2.575410 1_555
Br44 Te15 3.059446 1_555
Br44 Te13 3.212507 1_555
Br45 Te10 2.575074 1_555
Br46 Te3 2.548551 1_555
Br47 Te13 2.548806 1_555
