# generated using pymatgen
data_Tb2Ti3Si4
_symmetry_space_group_name_H-M   'P 1'
_cell_length_a   7.06368034
_cell_length_b   7.06367948
_cell_length_c   12.96590816
_cell_angle_alpha   89.99986342
_cell_angle_beta   89.99999871
_cell_angle_gamma   89.99994095
_symmetry_Int_Tables_number   1
_chemical_formula_structural   Tb2Ti3Si4
_chemical_formula_sum   'Tb8 Ti12 Si16'
_cell_volume   646.94142840
_cell_formula_units_Z   4
loop_
 _symmetry_equiv_pos_site_id
 _symmetry_equiv_pos_as_xyz
  1  'x, y, z'
loop_
 _atom_site_type_symbol
 _atom_site_label
 _atom_site_symmetry_multiplicity
 _atom_site_fract_x
 _atom_site_fract_y
 _atom_site_fract_z
 _atom_site_occupancy
  Tb  Tb0  1  0.34038575  0.00078629  0.46598238  1
  Tb  Tb1  1  0.49917819  0.84042578  0.71602077  1
  Tb  Tb2  1  0.50079828  0.15960120  0.21602325  1
  Tb  Tb3  1  0.84040284  0.49918983  0.28395224  1
  Tb  Tb4  1  0.15957805  0.50081145  0.78400291  1
  Tb  Tb5  1  0.65962686  0.99919627  0.96606365  1
  Tb  Tb6  1  0.00081158  0.34038248  0.53394823  1
  Tb  Tb7  1  0.99921958  0.65962306  0.03400710  1
  Ti  Ti0  1  0.32799146  0.32798477  0.00001862  1
  Ti  Ti1  1  0.17193707  0.82805827  0.24999491  1
  Ti  Ti2  1  0.82809682  0.17189735  0.75000424  1
  Ti  Ti3  1  0.67199687  0.67198819  0.49998266  1
  Ti  Ti4  1  0.15333002  0.00840456  0.87638403  1
  Ti  Ti5  1  0.49157856  0.65334625  0.12637849  1
  Ti  Ti6  1  0.50838567  0.34663454  0.62634595  1
  Ti  Ti7  1  0.65335906  0.49161179  0.87366385  1
  Ti  Ti8  1  0.34664573  0.50842297  0.37361307  1
  Ti  Ti9  1  0.84667603  0.99160799  0.37634056  1
  Ti  Ti10  1  0.00840716  0.15331988  0.12364485  1
  Ti  Ti11  1  0.99161039  0.84666427  0.62363010  1
  Si  Si0  1  0.20362429  0.12923587  0.68433778  1
  Si  Si1  1  0.37073496  0.70366608  0.93436294  1
  Si  Si2  1  0.62924047  0.29635275  0.43428584  1
  Si  Si3  1  0.70365992  0.37075949  0.06571195  1
  Si  Si4  1  0.29634658  0.62926472  0.56563940  1
  Si  Si5  1  0.79635591  0.87077235  0.18432471  1
  Si  Si6  1  0.12923558  0.20364886  0.31565063  1
  Si  Si7  1  0.87077479  0.79638011  0.81568823  1
  Si  Si8  1  0.29009168  0.95194510  0.06435031  1
  Si  Si9  1  0.54806579  0.79011118  0.31429163  1
  Si  Si10  1  0.45192624  0.20986942  0.81435472  1
  Si  Si11  1  0.79012735  0.54807153  0.68566873  1
  Si  Si12  1  0.20988833  0.45193082  0.18568082  1
  Si  Si13  1  0.70990181  0.04804463  0.56428824  1
  Si  Si14  1  0.95195675  0.29009118  0.93572356  1
  Si  Si15  1  0.04805360  0.70989872  0.43563866  1
loop_
_geom_bond_atom_site_label_1
_geom_bond_atom_site_label_2
_geom_bond_distance
_geom_bond_site_symmetry_2
Si0 Si10 2.498510 1_555
Si0 Ti11 2.616560 1_445
Si0 Ti4 2.656136 1_555
Si0 Ti6 2.749151 1_555
Si0 Ti2 2.802152 1_455
Si0 Tb6 2.842372 1_555
Si0 Tb4 2.942061 1_555
Si0 Tb1 2.947724 1_545
Si0 Tb0 3.126027 1_555
Si1 Si8 2.498154 1_556
Si1 Ti7 2.616970 1_555
Si1 Ti5 2.655815 1_556
Si1 Ti4 2.749000 1_565
Si1 Ti0 2.803198 1_556
Si1 Tb4 2.842303 1_555
Si1 Tb7 2.941558 1_456
Si1 Tb5 2.948042 1_555
Si1 Tb1 3.125851 1_555
Si2 Ti8 2.616771 1_555
Si2 Ti6 2.656348 1_555
Si2 Ti9 2.749039 1_545
Si2 Ti3 2.803067 1_555
Si2 Tb3 2.842021 1_555
Si2 Tb6 2.942004 1_655
Si2 Tb0 2.948033 1_555
Si2 Tb2 3.124901 1_555
Si3 Ti5 2.616752 1_555
Si3 Ti7 2.656212 1_554
Si3 Ti10 2.749023 1_655
Si3 Ti0 2.803287 1_555
Si3 Tb2 2.841895 1_555
Si3 Tb5 2.941878 1_544
Si3 Tb7 2.948057 1_555
Si3 Tb3 3.124596 1_555
Si4 Ti6 2.616968 1_555
Si4 Ti8 2.655925 1_555
Si4 Ti11 2.749010 1_455
Si4 Ti3 2.802982 1_555
Si4 Tb1 2.842427 1_555
Si4 Tb0 2.941665 1_565
Si4 Tb6 2.948002 1_555
Si4 Tb4 3.126141 1_555
Si5 Si9 2.498056 1_555
Si5 Ti10 2.616470 1_665
Si5 Ti9 2.655804 1_555
Si5 Ti5 2.749188 1_555
Si5 Ti1 2.802565 1_655
Si5 Tb7 2.841929 1_555
Si5 Tb3 2.941886 1_555
Si5 Tb2 2.947864 1_565
Si5 Tb5 3.124791 1_554
Si6 Ti9 2.616532 1_445
Si6 Ti10 2.655673 1_555
Si6 Ti8 2.749165 1_555
Si6 Ti1 2.802563 1_545
Si6 Tb0 2.842049 1_555
Si6 Tb2 2.941764 1_555
Si6 Tb3 2.947798 1_455
Si6 Tb6 3.125235 1_555
Si7 Ti4 2.616468 1_665
Si7 Ti11 2.656281 1_555
Si7 Ti7 2.749198 1_555
Si7 Ti2 2.802162 1_565
Si7 Tb5 2.842268 1_555
Si7 Tb1 2.942204 1_555
Si7 Tb4 2.947770 1_655
Si7 Tb7 3.125574 1_556
Si8 Ti10 2.563873 1_565
Si8 Ti4 2.651791 1_564
Si8 Ti5 2.668552 1_555
Si8 Ti1 2.693742 1_555
Si8 Ti0 2.796952 1_565
Si8 Tb2 2.869533 1_565
Si8 Tb5 2.923865 1_554
Si8 Tb7 2.939384 1_455
Si9 Ti8 2.564175 1_555
Si9 Ti5 2.651199 1_555
Si9 Ti9 2.668739 1_555
Si9 Ti3 2.694312 1_555
Si9 Ti1 2.797447 1_555
Si9 Tb0 2.869661 1_565
Si9 Tb2 2.923487 1_565
Si9 Tb3 2.939692 1_555
Si10 Ti7 2.564477 1_555
Si10 Ti6 2.652306 1_555
Si10 Ti4 2.668461 1_555
Si10 Ti0 2.693993 1_556
Si10 Ti2 2.797953 1_555
Si10 Tb5 2.869885 1_545
Si10 Tb1 2.923558 1_545
Si10 Tb4 2.939869 1_555
Si11 Si7 2.498589 1_555
Si11 Ti6 2.564542 1_555
Si11 Ti7 2.652153 1_555
Si11 Ti11 2.668546 1_555
Si11 Ti3 2.694238 1_555
Si11 Ti2 2.797915 1_555
Si11 Tb6 2.869992 1_655
Si11 Tb4 2.923608 1_655
Si11 Tb1 2.939936 1_555
Si12 Si6 2.498025 1_555
Si12 Ti5 2.564094 1_555
Si12 Ti8 2.651412 1_555
Si12 Ti10 2.668633 1_555
Si12 Ti0 2.693973 1_555
Si12 Ti1 2.797511 1_555
Si12 Tb7 2.869526 1_455
Si12 Tb3 2.923472 1_455
Si12 Tb2 2.939603 1_555
Si13 Si2 2.498453 1_555
Si13 Ti11 2.564208 1_545
Si13 Ti9 2.651579 1_545
Si13 Ti6 2.668730 1_555
Si13 Ti2 2.694583 1_555
Si13 Ti3 2.796971 1_545
Si13 Tb1 2.869986 1_545
Si13 Tb0 2.923860 1_555
Si13 Tb6 2.939641 1_655
Si14 Si3 2.498290 1_556
Si14 Ti4 2.564053 1_655
Si14 Ti10 2.651269 1_656
Si14 Ti7 2.668796 1_555
Si14 Ti2 2.694636 1_555
Si14 Ti0 2.796775 1_656
Si14 Tb4 2.869877 1_655
Si14 Tb7 2.923839 1_556
Si14 Tb5 2.939529 1_545
Si15 Si4 2.498322 1_555
Si15 Ti9 2.564031 1_455
Si15 Ti11 2.652087 1_455
Si15 Ti8 2.668465 1_555
Si15 Ti1 2.693736 1_555
Si15 Ti3 2.797123 1_455
Si15 Tb3 2.869642 1_455
Si15 Tb6 2.923865 1_555
Si15 Tb0 2.939511 1_565
