# generated using pymatgen
data_ScBiO3
_symmetry_space_group_name_H-M   'P 1'
_cell_length_a   5.79571283
_cell_length_b   5.79571283
_cell_length_c   10.14954145
_cell_angle_alpha   73.78835563
_cell_angle_beta   73.78835563
_cell_angle_gamma   61.12742951
_symmetry_Int_Tables_number   1
_chemical_formula_structural   ScBiO3
_chemical_formula_sum   'Sc4 Bi4 O12'
_cell_volume   282.41902135
_cell_formula_units_Z   4
loop_
 _symmetry_equiv_pos_site_id
 _symmetry_equiv_pos_as_xyz
  1  'x, y, z'
loop_
 _atom_site_type_symbol
 _atom_site_label
 _atom_site_symmetry_multiplicity
 _atom_site_fract_x
 _atom_site_fract_y
 _atom_site_fract_z
 _atom_site_occupancy
  Sc  Sc0  1  0.98597000  0.49527900  0.49901400  1
  Sc  Sc1  1  0.24053700  0.74344500  0.74936700  1
  Sc  Sc2  1  0.49527900  0.98597000  0.99901400  1
  Sc  Sc3  1  0.74344500  0.24053700  0.24936700  1
  Bi  Bi0  1  0.67936800  0.04055700  0.63326300  1
  Bi  Bi1  1  0.04055700  0.67936800  0.13326300  1
  Bi  Bi2  1  0.31323400  0.94561700  0.36718700  1
  Bi  Bi3  1  0.94561700  0.31323400  0.86718700  1
  O  O0  1  0.61192000  0.69296300  0.62982700  1
  O  O1  1  0.85641500  0.81840300  0.33557900  1
  O  O2  1  0.88461300  0.25617300  0.41812400  1
  O  O3  1  0.09771100  0.72556800  0.57884900  1
  O  O4  1  0.17176800  0.09466600  0.16489500  1
  O  O5  1  0.30967600  0.35891600  0.86189500  1
  O  O6  1  0.81840300  0.85641500  0.83557900  1
  O  O7  1  0.35891600  0.30967600  0.36189500  1
  O  O8  1  0.72556800  0.09771100  0.07884900  1
  O  O9  1  0.69296300  0.61192000  0.12982700  1
  O  O10  1  0.09466600  0.17176800  0.66489500  1
  O  O11  1  0.25617300  0.88461300  0.91812400  1
loop_
_geom_bond_atom_site_label_1
_geom_bond_atom_site_label_2
_geom_bond_distance
_geom_bond_site_symmetry_2
Bi0 O6 2.207843 1_545
Bi0 O0 2.240495 1_545
Bi0 O3 2.248803 1_645
Bi0 O2 2.491219 1_555
Bi1 O1 2.207843 1_455
Bi1 O9 2.240495 1_455
Bi1 O8 2.248803 1_465
Bi1 O11 2.491219 1_554
Bi2 O4 2.213503 1_565
Bi2 O7 2.234564 1_565
Bi2 O2 2.272102 1_465
Bi2 O3 2.512392 1_555
Bi2 O1 2.807809 1_555
Bi3 O10 2.213503 1_655
Bi3 O5 2.234564 1_655
Bi3 O11 2.272102 1_645
Bi3 O8 2.512392 1_556
Bi3 O6 2.807809 1_555
O0 Sc1 2.079050 1_555
O0 Sc0 2.149123 1_555
O1 Sc0 2.103673 1_555
O1 Sc3 2.181193 1_565
O2 Sc3 2.133559 1_555
O2 Sc0 2.151804 1_555
O3 Sc0 2.142195 1_455
O3 Sc1 2.161965 1_555
O4 Sc2 2.106147 1_544
O4 Sc3 2.191308 1_455
O5 Sc1 2.098477 1_555
O5 Sc2 2.162592 1_545
O6 Sc2 2.103673 1_555
O6 Sc1 2.181193 1_655
O7 Sc3 2.098477 1_555
O7 Sc0 2.162592 1_455
O8 Sc2 2.142195 1_544
O8 Sc3 2.161965 1_555
O9 Sc3 2.079050 1_555
O9 Sc2 2.149123 1_554
O10 Sc0 2.106147 1_455
O10 Sc1 2.191308 1_545
O11 Sc1 2.133559 1_555
O11 Sc2 2.151804 1_555
