# generated using pymatgen
data_NaLi2PO4
_symmetry_space_group_name_H-M   'P 1'
_cell_length_a   4.99234200
_cell_length_b   6.94566900
_cell_length_c   10.12336800
_cell_angle_alpha   90.00000000
_cell_angle_beta   90.00000000
_cell_angle_gamma   90.00000000
_symmetry_Int_Tables_number   1
_chemical_formula_structural   NaLi2PO4
_chemical_formula_sum   'Na4 Li8 P4 O16'
_cell_volume   351.02935520
_cell_formula_units_Z   4
loop_
 _symmetry_equiv_pos_site_id
 _symmetry_equiv_pos_as_xyz
  1  'x, y, z'
loop_
 _atom_site_type_symbol
 _atom_site_label
 _atom_site_symmetry_multiplicity
 _atom_site_fract_x
 _atom_site_fract_y
 _atom_site_fract_z
 _atom_site_occupancy
  Na  Na0  1  0.23623500  0.75000000  0.11265000  1
  Na  Na1  1  0.26376500  0.75000000  0.61265000  1
  Na  Na2  1  0.76376500  0.25000000  0.88735000  1
  Na  Na3  1  0.73623500  0.25000000  0.38735000  1
  Li  Li0  1  0.79140100  0.50052300  0.65461900  1
  Li  Li1  1  0.29140100  0.00052300  0.84538100  1
  Li  Li2  1  0.70859900  0.99947700  0.15461900  1
  Li  Li3  1  0.20859900  0.49947700  0.34538100  1
  Li  Li4  1  0.70859900  0.50052300  0.15461900  1
  Li  Li5  1  0.20859900  0.00052300  0.34538100  1
  Li  Li6  1  0.79140100  0.99947700  0.65461900  1
  Li  Li7  1  0.29140100  0.49947700  0.84538100  1
  P  P0  1  0.29788700  0.25000000  0.59781500  1
  P  P1  1  0.20211300  0.25000000  0.09781500  1
  P  P2  1  0.70211300  0.75000000  0.40218500  1
  P  P3  1  0.79788700  0.75000000  0.90218500  1
  O  O0  1  0.75809800  0.75000000  0.55428300  1
  O  O1  1  0.32369200  0.43361300  0.16207900  1
  O  O2  1  0.67630800  0.93361300  0.83792100  1
  O  O3  1  0.32369200  0.06638700  0.16207900  1
  O  O4  1  0.60834300  0.25000000  0.61918900  1
  O  O5  1  0.39165700  0.75000000  0.38081100  1
  O  O6  1  0.74190200  0.75000000  0.05428300  1
  O  O7  1  0.17630800  0.43361300  0.66207900  1
  O  O8  1  0.82369200  0.56638700  0.33792100  1
  O  O9  1  0.67630800  0.56638700  0.83792100  1
  O  O10  1  0.89165700  0.25000000  0.11918900  1
  O  O11  1  0.10834300  0.75000000  0.88081100  1
  O  O12  1  0.25809800  0.25000000  0.94571700  1
  O  O13  1  0.24190200  0.25000000  0.44571700  1
  O  O14  1  0.17630800  0.06638700  0.66207900  1
  O  O15  1  0.82369200  0.93361300  0.33792100  1
loop_
_geom_bond_atom_site_label_1
_geom_bond_atom_site_label_2
_geom_bond_distance
_geom_bond_site_symmetry_2
Na0 O3 2.295673 1_565
Na0 O1 2.295673 1_555
Na0 O11 2.432288 1_554
Na0 O6 2.537628 1_455
Na0 O6 2.592690 1_555
Na0 O5 2.823403 1_555
Na1 O14 2.295673 1_565
Na1 O7 2.295673 1_555
Na1 O5 2.432288 1_555
Na1 O0 2.537628 1_555
Na1 O0 2.592690 1_455
Na1 O11 2.823403 1_555
Na2 O9 2.295673 1_555
Na2 O2 2.295673 1_545
Na2 O10 2.432288 1_556
Na2 O12 2.537628 1_655
Na2 O12 2.592690 1_555
Na2 O4 2.823403 1_555
Na3 O15 2.295673 1_545
Na3 O8 2.295673 1_555
Na3 O4 2.432288 1_555
Na3 O13 2.537628 1_555
Na3 O13 2.592690 1_655
Na3 O10 2.823403 1_555
Li0 O7 1.978429 1_655
Li0 O9 1.995696 1_555
Li0 O4 1.997901 1_555
Li0 O0 2.015418 1_555
Li1 O2 1.978429 1_545
Li1 O14 1.995696 1_555
Li1 O11 1.997901 1_545
Li1 O12 2.015418 1_555
Li2 O3 1.978429 1_565
Li2 O15 1.995696 1_555
Li2 O10 1.997901 1_565
Li2 O6 2.015418 1_555
Li3 O8 1.978429 1_455
Li3 O1 1.995696 1_555
Li3 O5 1.997901 1_555
Li3 O13 2.015418 1_555
Li4 O1 1.978429 1_555
Li4 O8 1.995696 1_555
Li4 O10 1.997901 1_555
Li4 O6 2.015418 1_555
Li5 O15 1.978429 1_445
Li5 O3 1.995696 1_555
Li5 O5 1.997901 1_545
Li5 O13 2.015418 1_555
Li6 O14 1.978429 1_665
Li6 O2 1.995696 1_555
Li6 O4 1.997901 1_565
Li6 O0 2.015418 1_555
Li7 O9 1.978429 1_555
Li7 O7 1.995696 1_555
Li7 O11 1.997901 1_555
Li7 O12 2.015418 1_555
O0 P2 1.564906 1_555
O1 P1 1.555015 1_555
O2 P3 1.555015 1_555
O3 P1 1.555015 1_555
O4 P0 1.564933 1_555
O5 P2 1.564933 1_555
O6 P3 1.564906 1_554
O7 P0 1.555015 1_555
O8 P2 1.555015 1_555
O9 P3 1.555015 1_555
O10 P1 1.564933 1_655
O11 P3 1.564933 1_455
O12 P1 1.564906 1_556
O13 P0 1.564906 1_555
O14 P0 1.555015 1_555
O15 P2 1.555015 1_555
