# generated using pymatgen
data_MnCdF5
_symmetry_space_group_name_H-M   'P 1'
_cell_length_a   6.35379477
_cell_length_b   7.78742725
_cell_length_c   8.88745940
_cell_angle_alpha   115.49743983
_cell_angle_beta   90.00000000
_cell_angle_gamma   90.00000000
_symmetry_Int_Tables_number   1
_chemical_formula_structural   MnCdF5
_chemical_formula_sum   'Mn4 Cd4 F20'
_cell_volume   396.91939360
_cell_formula_units_Z   4
loop_
 _symmetry_equiv_pos_site_id
 _symmetry_equiv_pos_as_xyz
  1  'x, y, z'
loop_
 _atom_site_type_symbol
 _atom_site_label
 _atom_site_symmetry_multiplicity
 _atom_site_fract_x
 _atom_site_fract_y
 _atom_site_fract_z
 _atom_site_occupancy
  Mn  Mn0  1  0.50000000  0.00000000  0.50000000  1
  Mn  Mn1  1  0.00000000  0.50000000  0.00000000  1
  Mn  Mn2  1  0.50000000  0.50000000  0.50000000  1
  Mn  Mn3  1  0.00000000  0.00000000  0.00000000  1
  Cd  Cd0  1  0.54387950  0.24963319  -0.00017933  1
  Cd  Cd1  1  0.04387950  0.75036681  0.50017933  1
  Cd  Cd2  1  0.95612050  0.24963319  0.49982067  1
  Cd  Cd3  1  0.45612050  0.75036681  0.00017933  1
  F  F0  1  0.70227848  0.95171100  0.98345505  1
  F  F1  1  0.79772152  0.95171100  0.48345505  1
  F  F2  1  0.60074286  0.25277156  0.50465161  1
  F  F3  1  0.89925714  0.25277156  0.00465161  1
  F  F4  1  0.70086063  0.54772298  0.01345237  1
  F  F5  1  0.29772152  0.04828900  0.01654495  1
  F  F6  1  0.79913937  0.54772298  0.51345237  1
  F  F7  1  0.02276069  0.89823964  0.77363372  1
  F  F8  1  0.52039885  0.38912526  0.27355708  1
  F  F9  1  0.97723931  0.10176036  0.22636628  1
  F  F10  1  0.20086063  0.45227702  0.48654763  1
  F  F11  1  0.39925714  0.74722844  0.49534839  1
  F  F12  1  0.47723931  0.89823964  0.27363372  1
  F  F13  1  0.52276069  0.10176036  0.72636628  1
  F  F14  1  0.47960115  0.61087474  0.72644292  1
  F  F15  1  0.20227848  0.04828900  0.51654495  1
  F  F16  1  0.10074286  0.74722844  0.99534839  1
  F  F17  1  0.97960115  0.38912526  0.77355708  1
  F  F18  1  0.29913937  0.45227702  0.98654763  1
  F  F19  1  0.02039885  0.61087474  0.22644292  1
loop_
_geom_bond_atom_site_label_1
_geom_bond_atom_site_label_2
_geom_bond_distance
_geom_bond_site_symmetry_2
Cd0 F13 2.200238 1_554
Cd0 F8 2.201284 1_555
Cd0 F18 2.254466 1_554
Cd0 F3 2.258337 1_555
Cd0 F5 2.264383 1_555
Cd0 F0 2.475109 1_544
Cd0 F4 2.481146 1_555
Cd1 F7 2.200238 1_555
Cd1 F19 2.201284 1_555
Cd1 F6 2.254466 1_455
Cd1 F11 2.258337 1_555
Cd1 F1 2.264383 1_455
Cd1 F15 2.475109 1_565
Cd1 F10 2.481146 1_555
Cd2 F9 2.200238 1_555
Cd2 F17 2.201284 1_555
Cd2 F10 2.254466 1_655
Cd2 F2 2.258337 1_555
Cd2 F15 2.264383 1_655
Cd2 F1 2.475109 1_545
Cd2 F6 2.481146 1_555
Cd3 F12 2.200238 1_555
Cd3 F14 2.201284 1_554
Cd3 F4 2.254466 1_555
Cd3 F16 2.258337 1_554
Cd3 F0 2.264383 1_554
Cd3 F5 2.475109 1_565
Cd3 F18 2.481146 1_554
F0 Mn3 1.921929 1_666
F1 Mn0 1.921929 1_565
F2 Mn2 2.046128 1_555
F2 Mn0 2.053322 1_555
F3 Mn1 2.046128 1_655
F3 Mn3 2.053322 1_655
F4 Mn1 1.930467 1_655
F5 Mn3 1.921929 1_555
F6 Mn2 1.930467 1_555
F7 Mn3 1.823114 1_566
F8 Mn2 1.821114 1_555
F9 Mn3 1.823114 1_655
F10 Mn2 1.930467 1_555
F11 Mn2 2.046128 1_555
F11 Mn0 2.053322 1_565
F12 Mn0 1.823114 1_565
F13 Mn0 1.823114 1_555
F14 Mn2 1.821114 1_555
F15 Mn0 1.921929 1_555
F16 Mn1 2.046128 1_556
F16 Mn3 2.053322 1_566
F17 Mn1 1.821114 1_656
F18 Mn1 1.930467 1_556
F19 Mn1 1.821114 1_555
