# generated using pymatgen
data_Sr(BiPd)2
_symmetry_space_group_name_H-M   'P 1'
_cell_length_a   4.81689427
_cell_length_b   4.92621621
_cell_length_c   10.80689758
_cell_angle_alpha   91.76625771
_cell_angle_beta   90.00000000
_cell_angle_gamma   90.00000000
_symmetry_Int_Tables_number   1
_chemical_formula_structural   Sr(BiPd)2
_chemical_formula_sum   'Sr2 Bi4 Pd4'
_cell_volume   256.31571222
_cell_formula_units_Z   2
loop_
 _symmetry_equiv_pos_site_id
 _symmetry_equiv_pos_as_xyz
  1  'x, y, z'
loop_
 _atom_site_type_symbol
 _atom_site_label
 _atom_site_symmetry_multiplicity
 _atom_site_fract_x
 _atom_site_fract_y
 _atom_site_fract_z
 _atom_site_occupancy
  Sr  Sr0  1  0.25000000  0.25941858  0.76281932  1
  Sr  Sr1  1  0.75000000  0.74058142  0.23718068  1
  Bi  Bi0  1  0.25000000  0.20929610  0.12002220  1
  Bi  Bi1  1  0.75000000  0.79070390  0.87997780  1
  Bi  Bi2  1  0.75000000  0.25053070  0.50326270  1
  Bi  Bi3  1  0.25000000  0.74946930  0.49673730  1
  Pd  Pd0  1  0.25000000  0.24350619  0.37088563  1
  Pd  Pd1  1  0.75000000  0.75649381  0.62911437  1
  Pd  Pd2  1  0.25000000  0.69005698  0.99945750  1
  Pd  Pd3  1  0.75000000  0.30994302  0.00054250  1
loop_
_geom_bond_atom_site_label_1
_geom_bond_atom_site_label_2
_geom_bond_distance
_geom_bond_site_symmetry_2
Bi0 Pd0 2.711099 1_555
Bi0 Pd2 2.738037 1_554
Bi0 Pd3 2.784442 1_455
Bi0 Pd3 2.784442 1_555
Bi0 Pd2 2.834600 1_544
Bi0 Sr1 3.593790 1_445
Bi0 Sr1 3.593790 1_545
Bi0 Sr1 3.748237 1_555
Bi0 Sr1 3.748237 1_455
Bi0 Sr0 3.875731 1_554
Bi1 Pd1 2.711099 1_555
Bi1 Pd3 2.738037 1_556
Bi1 Pd2 2.784442 1_555
Bi1 Pd2 2.784442 1_655
Bi1 Pd3 2.834600 1_566
Bi1 Sr0 3.593790 1_565
Bi1 Sr0 3.593790 1_665
Bi1 Sr0 3.748237 1_655
Bi1 Sr0 3.748237 1_555
Bi1 Sr1 3.875731 1_556
Bi2 Pd0 2.800953 1_655
Bi2 Pd0 2.800953 1_555
Bi2 Pd1 2.802371 1_555
Bi2 Pd1 2.824337 1_545
Bi2 Sr0 3.696349 1_655
Bi2 Sr0 3.696349 1_555
Bi2 Sr1 3.759531 1_545
Bi2 Sr1 3.811089 1_555
Bi3 Pd1 2.800953 1_555
Bi3 Pd1 2.800953 1_455
Bi3 Pd0 2.802371 1_555
Bi3 Pd0 2.824337 1_565
Bi3 Sr1 3.696349 1_455
Bi3 Sr1 3.696349 1_555
Bi3 Sr0 3.759531 1_565
Bi3 Sr0 3.811089 1_555
Pd0 Sr1 3.715625 1_445
Pd0 Sr1 3.715625 1_545
Pd0 Sr1 3.755356 1_455
Pd0 Sr1 3.755356 1_555
Pd1 Sr0 3.715625 1_565
Pd1 Sr0 3.715625 1_665
Pd1 Sr0 3.755356 1_555
Pd1 Sr0 3.755356 1_655
Pd2 Sr0 3.271986 1_555
Pd2 Sr1 3.524651 1_456
Pd2 Sr1 3.524651 1_556
Pd2 Sr0 3.853435 1_565
Pd3 Sr1 3.271986 1_555
Pd3 Sr0 3.524651 1_554
Pd3 Sr0 3.524651 1_654
Pd3 Sr1 3.853435 1_545
