# generated using pymatgen
data_Cs3B12H12Br
_symmetry_space_group_name_H-M   'P 1'
_cell_length_a   7.32989835
_cell_length_b   7.32989835
_cell_length_c   7.32989768
_cell_angle_alpha   92.99512910
_cell_angle_beta   92.99512910
_cell_angle_gamma   92.99513063
_symmetry_Int_Tables_number   1
_chemical_formula_structural   Cs3B12H12Br
_chemical_formula_sum   'Cs3 B12 H12 Br1'
_cell_volume   392.14390481
_cell_formula_units_Z   1
loop_
 _symmetry_equiv_pos_site_id
 _symmetry_equiv_pos_as_xyz
  1  'x, y, z'
loop_
 _atom_site_type_symbol
 _atom_site_label
 _atom_site_symmetry_multiplicity
 _atom_site_fract_x
 _atom_site_fract_y
 _atom_site_fract_z
 _atom_site_occupancy
  Cs  Cs0  1  0.50000000  0.50000000  0.00000000  1
  Cs  Cs1  1  0.50000000  0.00000000  0.50000000  1
  Cs  Cs2  1  0.00000000  0.50000000  0.50000000  1
  B  B0  1  0.77641100  0.94369600  0.94369600  1
  B  B1  1  0.94369600  0.94369600  0.77641100  1
  B  B2  1  0.94369600  0.77641100  0.94369600  1
  B  B3  1  0.05630400  0.22358900  0.05630400  1
  B  B4  1  0.22358900  0.05630400  0.05630400  1
  B  B5  1  0.05630400  0.05630400  0.22358900  1
  B  B6  1  0.84599300  0.11681800  0.11681800  1
  B  B7  1  0.11681800  0.11681800  0.84599300  1
  B  B8  1  0.11681800  0.84599300  0.11681800  1
  B  B9  1  0.88318200  0.15400700  0.88318200  1
  B  B10  1  0.15400700  0.88318200  0.88318200  1
  B  B11  1  0.88318200  0.88318200  0.15400700  1
  H  H0  1  0.38281500  0.09553300  0.09553300  1
  H  H1  1  0.09553300  0.09553300  0.38281500  1
  H  H2  1  0.09553300  0.38281500  0.09553300  1
  H  H3  1  0.90446700  0.61718500  0.90446700  1
  H  H4  1  0.61718500  0.90446700  0.90446700  1
  H  H5  1  0.90446700  0.90446700  0.61718500  1
  H  H6  1  0.73706200  0.20072900  0.20072900  1
  H  H7  1  0.20072900  0.20072900  0.73706200  1
  H  H8  1  0.20072900  0.73706200  0.20072900  1
  H  H9  1  0.79927100  0.26293800  0.79927100  1
  H  H10  1  0.26293800  0.79927100  0.79927100  1
  H  H11  1  0.79927100  0.79927100  0.26293800  1
  Br  Br0  1  0.50000000  0.50000000  0.50000000  1
loop_
_geom_bond_atom_site_label_1
_geom_bond_atom_site_label_2
_geom_bond_distance
_geom_bond_site_symmetry_2
Cs0 H2 3.167221 1_555
Cs0 H4 3.167221 1_554
Cs0 H0 3.167221 1_555
Cs0 H3 3.167221 1_554
Cs0 H6 3.234907 1_555
Cs0 H9 3.234907 1_554
Cs0 H10 3.234907 1_554
Cs0 H8 3.234907 1_555
Cs0 H11 3.457169 1_555
Cs0 H7 3.457169 1_554
Cs1 H4 3.167221 1_545
Cs1 H0 3.167221 1_555
Cs1 H5 3.167221 1_545
Cs1 H1 3.167221 1_555
Cs1 H6 3.234907 1_555
Cs1 H10 3.234907 1_545
Cs1 H11 3.234907 1_545
Cs1 H7 3.234907 1_555
Cs1 H8 3.457169 1_545
Cs1 H9 3.457169 1_555
Cs2 H3 3.167221 1_455
Cs2 H2 3.167221 1_555
Cs2 H1 3.167221 1_555
Cs2 H5 3.167221 1_455
Cs2 H8 3.234907 1_555
Cs2 H9 3.234907 1_455
Cs2 H11 3.234907 1_455
Cs2 H7 3.234907 1_555
Cs2 H6 3.457169 1_455
Cs2 H10 3.457169 1_555
B0 H4 1.203632 1_555
B1 H5 1.203631 1_555
B2 H3 1.203632 1_555
B3 H2 1.203632 1_555
B4 H0 1.203632 1_555
B5 H1 1.203631 1_555
B6 H6 1.207158 1_555
B7 H7 1.207158 1_555
B8 H8 1.207158 1_555
B9 H9 1.207158 1_555
B10 H10 1.207158 1_555
B11 H11 1.207158 1_555
Br0 Cs0 3.664949 1_555
Br0 Cs0 3.664949 1_556
Br0 Cs2 3.664949 1_655
Br0 Cs2 3.664949 1_555
Br0 Cs1 3.664949 1_565
Br0 Cs1 3.664949 1_555
