# generated using pymatgen
data_CdI2
_symmetry_space_group_name_H-M   'P 1'
_cell_length_a   4.33502321
_cell_length_b   4.33502321
_cell_length_c   129.43161600
_cell_angle_alpha   90.00000000
_cell_angle_beta   90.00000000
_cell_angle_gamma   119.99998797
_symmetry_Int_Tables_number   1
_chemical_formula_structural   CdI2
_chemical_formula_sum   'Cd17 I34'
_cell_volume   2106.46337449
_cell_formula_units_Z   17
loop_
 _symmetry_equiv_pos_site_id
 _symmetry_equiv_pos_as_xyz
  1  'x, y, z'
loop_
 _atom_site_type_symbol
 _atom_site_label
 _atom_site_symmetry_multiplicity
 _atom_site_fract_x
 _atom_site_fract_y
 _atom_site_fract_z
 _atom_site_occupancy
  Cd  Cd0  1  0.00000000  0.00000000  0.13239500  1
  Cd  Cd1  1  0.00000000  0.00000000  0.83823200  1
  Cd  Cd2  1  0.66666700  0.33333300  0.07352200  1
  Cd  Cd3  1  0.66666700  0.33333300  0.48526300  1
  Cd  Cd4  1  0.00000000  0.00000000  0.89704800  1
  Cd  Cd5  1  0.00000000  0.00000000  0.72061600  1
  Cd  Cd6  1  0.66666700  0.33333300  0.36767500  1
  Cd  Cd7  1  0.66666700  0.33333300  0.19113200  1
  Cd  Cd8  1  0.00000000  0.00000000  0.01472800  1
  Cd  Cd9  1  0.00000000  0.00000000  0.42649800  1
  Cd  Cd10  1  0.33333300  0.66666700  0.30883300  1
  Cd  Cd11  1  0.66666700  0.33333300  0.66177500  1
  Cd  Cd12  1  0.00000000  0.00000000  0.54407900  1
  Cd  Cd13  1  0.66666700  0.33333300  0.95585700  1
  Cd  Cd14  1  0.66666700  0.33333300  0.24997400  1
  Cd  Cd15  1  0.00000000  0.00000000  0.60293500  1
  Cd  Cd16  1  0.66666700  0.33333300  0.77943700  1
  I  I0  1  0.33333300  0.66666700  0.41319300  1
  I  I1  1  0.00000000  0.00000000  0.67507600  1
  I  I2  1  0.66666700  0.33333300  0.91035200  1
  I  I3  1  0.33333300  0.66666700  0.06022500  1
  I  I4  1  0.66666700  0.33333300  0.43980300  1
  I  I5  1  0.66666700  0.33333300  0.55737800  1
  I  I6  1  0.33333300  0.66666700  0.17782700  1
  I  I7  1  0.33333300  0.66666700  0.94256700  1
  I  I8  1  0.66666700  0.33333300  0.29552500  1
  I  I9  1  0.66666700  0.33333300  0.14569400  1
  I  I10  1  0.00000000  0.00000000  0.32213900  1
  I  I11  1  0.33333300  0.66666700  0.23666500  1
  I  I12  1  0.00000000  0.00000000  0.38097900  1
  I  I13  1  0.33333300  0.66666700  0.88373900  1
  I  I14  1  0.33333300  0.66666700  0.64848500  1
  I  I15  1  0.33333300  0.66666700  0.70731200  1
  I  I16  1  0.33333300  0.66666700  0.47195900  1
  I  I17  1  0.33333300  0.66666700  0.11909000  1
  I  I18  1  0.33333300  0.66666700  0.82493200  1
  I  I19  1  0.00000000  0.00000000  0.20444100  1
  I  I20  1  0.66666700  0.33333300  0.02803000  1
  I  I21  1  0.00000000  0.00000000  0.08682500  1
  I  I22  1  0.33333300  0.66666700  0.76613200  1
  I  I23  1  0.33333300  0.66666700  0.00142200  1
  I  I24  1  0.33333300  0.66666700  0.35436700  1
  I  I25  1  0.66666700  0.33333300  0.61624300  1
  I  I26  1  0.00000000  0.00000000  0.79274500  1
  I  I27  1  0.00000000  0.00000000  0.96915800  1
  I  I28  1  0.33333300  0.66666700  0.58962300  1
  I  I29  1  0.66666700  0.33333300  0.73391500  1
  I  I30  1  0.00000000  0.00000000  0.49856100  1
  I  I31  1  0.66666700  0.33333300  0.85153500  1
  I  I32  1  0.33333300  0.66666700  0.53078500  1
  I  I33  1  0.00000000  0.00000000  0.26327800  1
loop_
_geom_bond_atom_site_label_1
_geom_bond_atom_site_label_2
_geom_bond_distance
_geom_bond_site_symmetry_2
Cd0 I9 3.037604 1_455
Cd0 I9 3.037608 1_555
Cd0 I9 3.037608 1_445
Cd0 I17 3.038045 1_545
Cd0 I17 3.038048 1_445
Cd0 I17 3.038048 1_555
Cd1 I18 3.037678 1_545
Cd1 I18 3.037681 1_555
Cd1 I18 3.037681 1_445
Cd1 I31 3.037898 1_455
Cd1 I31 3.037901 1_555
Cd1 I31 3.037901 1_445
Cd2 I3 3.037458 1_545
Cd2 I3 3.037458 1_655
Cd2 I3 3.037464 1_555
Cd2 I21 3.037898 1_655
Cd2 I21 3.037901 1_665
Cd2 I21 3.037901 1_555
Cd3 I30 3.037531 1_655
Cd3 I30 3.037535 1_555
Cd3 I30 3.037535 1_665
Cd3 I16 3.037972 1_545
Cd3 I16 3.037972 1_655
Cd3 I16 3.037977 1_555
Cd4 I2 3.037971 1_455
Cd4 I2 3.037975 1_445
Cd4 I2 3.037975 1_555
Cd4 I13 3.038338 1_545
Cd4 I13 3.038342 1_555
Cd4 I13 3.038342 1_445
Cd5 I29 3.037604 1_455
Cd5 I29 3.037608 1_555
Cd5 I29 3.037608 1_445
Cd5 I15 3.037971 1_545
Cd5 I15 3.037975 1_445
Cd5 I15 3.037975 1_555
Cd6 I12 3.037971 1_655
Cd6 I12 3.037975 1_555
Cd6 I12 3.037975 1_665
Cd6 I24 3.038265 1_545
Cd6 I24 3.038265 1_655
Cd6 I24 3.038271 1_555
Cd7 I6 3.038045 1_545
Cd7 I6 3.038045 1_655
Cd7 I6 3.038051 1_555
Cd7 I19 3.038338 1_655
Cd7 I19 3.038342 1_665
Cd7 I19 3.038342 1_555
Cd8 I20 3.037824 1_455
Cd8 I20 3.037828 1_445
Cd8 I20 3.037828 1_555
Cd8 I23 3.038118 1_545
Cd8 I23 3.038121 1_445
Cd8 I23 3.038121 1_555
Cd9 I0 3.038045 1_545
Cd9 I4 3.038045 1_455
Cd9 I0 3.038048 1_445
Cd9 I0 3.038048 1_555
Cd9 I4 3.038048 1_445
Cd9 I4 3.038048 1_555
Cd10 I10 3.038118 1_565
Cd10 I10 3.038121 1_555
Cd10 I10 3.038121 1_665
Cd10 I8 3.038265 1_455
Cd10 I8 3.038265 1_565
Cd10 I8 3.038271 1_555
Cd11 I14 3.036945 1_545
Cd11 I14 3.036945 1_655
Cd11 I14 3.036951 1_555
Cd11 I1 3.037751 1_655
Cd11 I1 3.037755 1_665
Cd11 I1 3.037755 1_555
Cd12 I32 3.037238 1_545
Cd12 I32 3.037241 1_555
Cd12 I32 3.037241 1_445
Cd12 I5 3.037604 1_455
Cd12 I5 3.037608 1_445
Cd12 I5 3.037608 1_555
Cd13 I7 3.036945 1_545
Cd13 I7 3.036945 1_655
Cd13 I7 3.036951 1_555
Cd13 I27 3.037751 1_655
Cd13 I27 3.037755 1_665
Cd13 I27 3.037755 1_555
Cd14 I33 3.037971 1_655
Cd14 I33 3.037975 1_555
Cd14 I33 3.037975 1_665
Cd14 I11 3.038338 1_545
Cd14 I11 3.038338 1_655
Cd14 I11 3.038344 1_555
Cd15 I25 3.038265 1_455
Cd15 I25 3.038268 1_555
Cd15 I25 3.038268 1_445
Cd15 I28 3.038558 1_545
Cd15 I28 3.038562 1_555
Cd15 I28 3.038562 1_445
Cd16 I22 3.038045 1_545
Cd16 I22 3.038045 1_655
Cd16 I22 3.038051 1_555
Cd16 I26 3.038265 1_655
Cd16 I26 3.038268 1_665
Cd16 I26 3.038268 1_555
