# generated using pymatgen
data_Na5Lu(WO4)4
_symmetry_space_group_name_H-M   'P 1'
_cell_length_a   9.96690981
_cell_length_b   9.96690981
_cell_length_c   9.96690981
_cell_angle_alpha   109.05179217
_cell_angle_beta   109.05179217
_cell_angle_gamma   110.31337409
_symmetry_Int_Tables_number   1
_chemical_formula_structural   Na5Lu(WO4)4
_chemical_formula_sum   'Na10 Lu2 W8 O32'
_cell_volume   762.06006043
_cell_formula_units_Z   2
loop_
 _symmetry_equiv_pos_site_id
 _symmetry_equiv_pos_as_xyz
  1  'x, y, z'
loop_
 _atom_site_type_symbol
 _atom_site_label
 _atom_site_symmetry_multiplicity
 _atom_site_fract_x
 _atom_site_fract_y
 _atom_site_fract_z
 _atom_site_occupancy
  Na  Na0  1  0.00000000  0.00000000  0.00000000  1
  Na  Na1  1  0.25000000  0.75000000  0.50000000  1
  Na  Na2  1  0.92681600  0.83928300  0.32494100  1
  Na  Na3  1  0.85187500  0.67681600  0.58753300  1
  Na  Na4  1  0.08928300  0.26434300  0.41246700  1
  Na  Na5  1  0.51434300  0.60187500  0.67505900  1
  Na  Na6  1  0.32318400  0.91071700  0.17505900  1
  Na  Na7  1  0.39812500  0.07318400  0.91246700  1
  Na  Na8  1  0.16071700  0.48565700  0.08753300  1
  Na  Na9  1  0.73565700  0.14812500  0.82494100  1
  Lu  Lu0  1  0.50000000  0.50000000  0.00000000  1
  Lu  Lu1  1  0.75000000  0.25000000  0.50000000  1
  W  W0  1  0.66689700  0.94101100  0.09232000  1
  W  W1  1  0.82457700  0.41689700  0.22588600  1
  W  W2  1  0.19101100  0.59869100  0.77411400  1
  W  W3  1  0.84869100  0.57457700  0.90768000  1
  W  W4  1  0.58310300  0.80898900  0.40768000  1
  W  W5  1  0.42542300  0.33310300  0.27411400  1
  W  W6  1  0.05898900  0.15130900  0.72588600  1
  W  W7  1  0.40130900  0.17542300  0.59232000  1
  O  O0  1  0.63657900  0.03331500  0.96589000  1
  O  O1  1  0.92068900  0.38657900  0.10326300  1
  O  O2  1  0.28331500  0.81742600  0.89673700  1
  O  O3  1  0.06742600  0.67068900  0.03411000  1
  O  O4  1  0.61342100  0.71668500  0.53411000  1
  O  O5  1  0.32931100  0.36342100  0.39673700  1
  O  O6  1  0.96668500  0.93257400  0.60326300  1
  O  O7  1  0.18257400  0.07931100  0.46589000  1
  O  O8  1  0.88192800  0.99735900  0.17824200  1
  O  O9  1  0.95368500  0.63192800  0.38456900  1
  O  O10  1  0.24735900  0.56911700  0.61543100  1
  O  O11  1  0.81911700  0.70368500  0.82175800  1
  O  O12  1  0.36807200  0.75264100  0.32175800  1
  O  O13  1  0.29631500  0.11807200  0.11543100  1
  O  O14  1  0.00264100  0.18088300  0.88456900  1
  O  O15  1  0.43088300  0.04631500  0.67824200  1
  O  O16  1  0.54689200  0.71873600  0.94798100  1
  O  O17  1  0.84891100  0.29689200  0.32815600  1
  O  O18  1  0.96873600  0.52075600  0.67184400  1
  O  O19  1  0.77075600  0.59891100  0.05201900  1
  O  O20  1  0.70310800  0.03126400  0.55201900  1
  O  O21  1  0.40108900  0.45310800  0.17184400  1
  O  O22  1  0.28126400  0.22924400  0.82815600  1
  O  O23  1  0.47924400  0.15108900  0.44798100  1
  O  O24  1  0.60408700  0.00801500  0.24676200  1
  O  O25  1  0.60732500  0.35408700  0.09607300  1
  O  O26  1  0.25801500  0.51125300  0.90392700  1
  O  O27  1  0.76125300  0.35732500  0.75323800  1
  O  O28  1  0.64591300  0.74198500  0.25323800  1
  O  O29  1  0.64267500  0.39591300  0.40392700  1
  O  O30  1  0.99198500  0.23874700  0.59607300  1
  O  O31  1  0.48874700  0.39267500  0.74676200  1
loop_
_geom_bond_atom_site_label_1
_geom_bond_atom_site_label_2
_geom_bond_distance
_geom_bond_site_symmetry_2
Na0 O14 2.432179 1_554
Na0 O8 2.432179 1_445
Na0 O11 2.432186 1_444
Na0 O13 2.432188 1_555
Na1 O10 2.432179 1_555
Na1 O12 2.432179 1_555
Na1 O15 2.432186 1_565
Na1 O9 2.432188 1_455
Na2 O7 2.329956 1_665
Na2 O28 2.376108 1_555
Na2 O9 2.403819 1_555
Na2 O19 2.440163 1_555
Na2 O6 2.461204 1_555
Na2 O8 2.527165 1_555
Na3 O6 2.329957 1_555
Na3 O29 2.376109 1_555
Na3 O11 2.403824 1_555
Na3 O18 2.440153 1_555
Na3 O4 2.461213 1_555
Na3 O9 2.527157 1_555
Na4 O5 2.329955 1_555
Na4 O30 2.376119 1_455
Na4 O8 2.403827 1_445
Na4 O17 2.440156 1_455
Na4 O7 2.461216 1_555
Na4 O10 2.527157 1_555
Na5 O4 2.329957 1_555
Na5 O31 2.376107 1_555
Na5 O10 2.403832 1_555
Na5 O16 2.440166 1_555
Na5 O5 2.461207 1_555
Na5 O11 2.527158 1_555
Na6 O3 2.329956 1_555
Na6 O24 2.376108 1_565
Na6 O13 2.403819 1_565
Na6 O23 2.440163 1_565
Na6 O2 2.461204 1_554
Na6 O12 2.527165 1_555
Na7 O2 2.329957 1_545
Na7 O25 2.376109 1_556
Na7 O15 2.403824 1_555
Na7 O22 2.440153 1_555
Na7 O0 2.461213 1_555
Na7 O13 2.527157 1_556
Na8 O1 2.329955 1_455
Na8 O26 2.376119 1_554
Na8 O12 2.403827 1_555
Na8 O21 2.440156 1_555
Na8 O3 2.461216 1_555
Na8 O14 2.527157 1_554
Na9 O0 2.329957 1_555
Na9 O27 2.376107 1_555
Na9 O14 2.403832 1_655
Na9 O20 2.440166 1_555
Na9 O1 2.461207 1_556
Na9 O15 2.527158 1_555
Lu0 O21 2.329990 1_555
Lu0 O16 2.329990 1_554
Lu0 O22 2.329996 1_554
Lu0 O19 2.329999 1_555
Lu0 O31 2.344498 1_554
Lu0 O28 2.344498 1_555
Lu0 O26 2.344499 1_554
Lu0 O25 2.344503 1_555
Lu1 O17 2.329990 1_555
Lu1 O20 2.329990 1_555
Lu1 O18 2.329996 1_555
Lu1 O23 2.329999 1_555
Lu1 O24 2.344498 1_555
Lu1 O27 2.344498 1_555
Lu1 O30 2.344499 1_555
Lu1 O29 2.344503 1_555
O0 W0 1.796341 1_546
O1 W1 1.796349 1_555
O2 W2 1.796351 1_555
O3 W3 1.796349 1_454
O4 W4 1.796341 1_555
O5 W5 1.796349 1_555
O6 W6 1.796351 1_665
O7 W7 1.796349 1_555
O8 W0 1.814982 1_555
O9 W1 1.814982 1_555
O10 W2 1.814982 1_555
O11 W3 1.814973 1_555
O12 W4 1.814982 1_555
O13 W5 1.814982 1_555
O14 W6 1.814982 1_555
O15 W7 1.814973 1_555
O16 W0 1.834227 1_556
O17 W1 1.834227 1_555
O18 W2 1.834228 1_655
O19 W3 1.834219 1_554
O20 W4 1.834227 1_545
O21 W5 1.834227 1_555
O22 W6 1.834228 1_555
O23 W7 1.834219 1_555
O24 W0 1.858932 1_545
O25 W1 1.858930 1_555
O26 W2 1.858925 1_555
O27 W3 1.858932 1_555
O28 W4 1.858932 1_555
O29 W5 1.858930 1_555
O30 W6 1.858925 1_655
O31 W7 1.858932 1_555
