# generated using pymatgen
data_TlInSiS4
_symmetry_space_group_name_H-M   'P 1'
_cell_length_a   7.72303900
_cell_length_b   12.68734800
_cell_length_c   16.85348000
_cell_angle_alpha   90.00000000
_cell_angle_beta   90.00000000
_cell_angle_gamma   90.00000000
_symmetry_Int_Tables_number   1
_chemical_formula_structural   TlInSiS4
_chemical_formula_sum   'Tl8 In8 Si8 S32'
_cell_volume   1651.38627286
_cell_formula_units_Z   8
loop_
 _symmetry_equiv_pos_site_id
 _symmetry_equiv_pos_as_xyz
  1  'x, y, z'
loop_
 _atom_site_type_symbol
 _atom_site_label
 _atom_site_symmetry_multiplicity
 _atom_site_fract_x
 _atom_site_fract_y
 _atom_site_fract_z
 _atom_site_occupancy
  Tl  Tl0  1  0.25000000  0.38475500  0.07073500  1
  Tl  Tl1  1  0.25000000  0.02043600  0.16771300  1
  Tl  Tl2  1  0.25000000  0.47956400  0.66771300  1
  Tl  Tl3  1  0.25000000  0.11524500  0.57073500  1
  Tl  Tl4  1  0.75000000  0.97956400  0.83228700  1
  Tl  Tl5  1  0.75000000  0.61524500  0.92926500  1
  Tl  Tl6  1  0.75000000  0.88475500  0.42926500  1
  Tl  Tl7  1  0.75000000  0.52043600  0.33228700  1
  In  In0  1  0.99241500  0.27441900  0.84662800  1
  In  In1  1  0.00758500  0.77441900  0.65337200  1
  In  In2  1  0.49241500  0.72558100  0.15337200  1
  In  In3  1  0.99241500  0.22558100  0.34662800  1
  In  In4  1  0.50758500  0.22558100  0.34662800  1
  In  In5  1  0.49241500  0.77441900  0.65337200  1
  In  In6  1  0.50758500  0.27441900  0.84662800  1
  In  In7  1  0.00758500  0.72558100  0.15337200  1
  Si  Si0  1  0.75000000  0.19715100  0.01841200  1
  Si  Si1  1  0.75000000  0.20073900  0.66942100  1
  Si  Si2  1  0.25000000  0.79926100  0.33057900  1
  Si  Si3  1  0.75000000  0.30284900  0.51841200  1
  Si  Si4  1  0.25000000  0.69715100  0.48158800  1
  Si  Si5  1  0.25000000  0.70073900  0.83057900  1
  Si  Si6  1  0.25000000  0.80284900  0.98158800  1
  Si  Si7  1  0.75000000  0.29926100  0.16942100  1
  S  S0  1  0.75000000  0.10096400  0.34063600  1
  S  S1  1  0.25000000  0.86626000  0.86221700  1
  S  S2  1  0.25000000  0.60096400  0.15936400  1
  S  S3  1  0.52131100  0.14863500  0.72875300  1
  S  S4  1  0.75000000  0.36423300  0.05055300  1
  S  S5  1  0.98211000  0.14859700  0.96154800  1
  S  S6  1  0.01789000  0.64859700  0.53845200  1
  S  S7  1  0.47868900  0.64863500  0.77124700  1
  S  S8  1  0.25000000  0.89903600  0.65936400  1
  S  S9  1  0.01789000  0.85140300  0.03845200  1
  S  S10  1  0.75000000  0.88673500  0.65179500  1
  S  S11  1  0.51789000  0.35140300  0.46154800  1
  S  S12  1  0.25000000  0.38673500  0.84820500  1
  S  S13  1  0.48211000  0.64859700  0.53845200  1
  S  S14  1  0.51789000  0.14859700  0.96154800  1
  S  S15  1  0.25000000  0.11326500  0.34820500  1
  S  S16  1  0.98211000  0.35140300  0.46154800  1
  S  S17  1  0.02131100  0.85136500  0.27124700  1
  S  S18  1  0.97868900  0.35136500  0.22875300  1
  S  S19  1  0.75000000  0.39903600  0.84063600  1
  S  S20  1  0.75000000  0.61326500  0.15179500  1
  S  S21  1  0.47868900  0.85136500  0.27124700  1
  S  S22  1  0.02131100  0.64863500  0.77124700  1
  S  S23  1  0.75000000  0.13576700  0.55055300  1
  S  S24  1  0.25000000  0.86423300  0.44944700  1
  S  S25  1  0.25000000  0.63576700  0.94944700  1
  S  S26  1  0.97868900  0.14863500  0.72875300  1
  S  S27  1  0.75000000  0.36626000  0.63778300  1
  S  S28  1  0.75000000  0.13374000  0.13778300  1
  S  S29  1  0.52131100  0.35136500  0.22875300  1
  S  S30  1  0.48211000  0.85140300  0.03845200  1
  S  S31  1  0.25000000  0.63374000  0.36221700  1
loop_
_geom_bond_atom_site_label_1
_geom_bond_atom_site_label_2
_geom_bond_distance
_geom_bond_site_symmetry_2
In0 S12 2.447198 1_655
In0 S19 2.452551 1_555
In0 S5 2.511147 1_555
In0 S26 2.550415 1_555
In1 S10 2.447198 1_455
In1 S8 2.452551 1_555
In1 S6 2.511147 1_555
In1 S22 2.550415 1_555
In2 S20 2.447198 1_555
In2 S2 2.452551 1_555
In2 S30 2.511147 1_555
In2 S21 2.550415 1_555
In3 S15 2.447198 1_655
In3 S0 2.452551 1_555
In3 S16 2.511147 1_555
In3 S18 2.550415 1_555
In4 S15 2.447198 1_555
In4 S0 2.452551 1_555
In4 S11 2.511147 1_555
In4 S29 2.550415 1_555
In5 S10 2.447198 1_555
In5 S8 2.452551 1_555
In5 S13 2.511147 1_555
In5 S7 2.550415 1_555
In6 S12 2.447198 1_555
In6 S19 2.452551 1_555
In6 S14 2.511147 1_555
In6 S3 2.550415 1_555
In7 S20 2.447198 1_455
In7 S2 2.452551 1_555
In7 S9 2.511147 1_555
In7 S17 2.550415 1_555
S0 Tl6 3.123437 1_545
S1 Si5 2.166658 1_555
S1 Si6 2.166715 1_555
S2 Tl0 3.123437 1_555
S3 Si1 2.134543 1_555
S3 Tl4 3.281062 1_545
S4 Si7 2.166305 1_555
S4 Si0 2.187943 1_555
S5 Si0 2.123988 1_556
S6 Si4 2.123988 1_555
S7 Si5 2.134543 1_555
S7 Tl2 3.281062 1_555
S8 Tl3 3.123437 1_565
S9 Si6 2.123988 1_554
S10 Tl4 3.261958 1_555
S11 Si3 2.123988 1_555
S12 Tl2 3.261958 1_555
S13 Si4 2.123988 1_555
S14 Si0 2.123988 1_556
S15 Tl1 3.261958 1_555
S16 Si3 2.123988 1_555
S17 Si2 2.134543 1_555
S17 Tl1 3.281062 1_565
S18 Si7 2.134543 1_555
S18 Tl7 3.281062 1_555
S19 Tl5 3.123437 1_555
S20 Tl7 3.261958 1_555
S21 Si2 2.134543 1_555
S21 Tl1 3.281062 1_565
S22 Si5 2.134543 1_555
S22 Tl2 3.281062 1_555
S23 Si1 2.166305 1_555
S23 Si3 2.187943 1_555
S24 Si2 2.166305 1_555
S24 Si4 2.187943 1_555
S25 Si5 2.166305 1_555
S25 Si6 2.187943 1_555
S26 Si1 2.134543 1_555
S26 Tl4 3.281062 1_545
S27 Si1 2.166658 1_555
S27 Si3 2.166715 1_555
S28 Si7 2.166658 1_555
S28 Si0 2.166715 1_555
S29 Si7 2.134543 1_555
S29 Tl7 3.281062 1_555
S30 Si6 2.123988 1_554
S31 Si2 2.166658 1_555
S31 Si4 2.166715 1_555
