# generated using pymatgen
data_Mn3AgAs3(HO6)2
_symmetry_space_group_name_H-M   'P 1'
_cell_length_a   8.84034567
_cell_length_b   8.84034567
_cell_length_c   6.91177247
_cell_angle_alpha   73.95045440
_cell_angle_beta   73.95045440
_cell_angle_gamma   91.43425597
_symmetry_Int_Tables_number   1
_chemical_formula_structural   Mn3AgAs3(HO6)2
_chemical_formula_sum   'Mn6 Ag2 As6 H4 O24'
_cell_volume   495.85949992
_cell_formula_units_Z   2
loop_
 _symmetry_equiv_pos_site_id
 _symmetry_equiv_pos_as_xyz
  1  'x, y, z'
loop_
 _atom_site_type_symbol
 _atom_site_label
 _atom_site_symmetry_multiplicity
 _atom_site_fract_x
 _atom_site_fract_y
 _atom_site_fract_z
 _atom_site_occupancy
  Mn  Mn0  1  0.71348475  0.28651525  0.75000000  1
  Mn  Mn1  1  0.28651525  0.71348475  0.25000000  1
  Mn  Mn2  1  0.64194468  0.95869000  0.60998618  1
  Mn  Mn3  1  0.04131000  0.35805532  0.89001382  1
  Mn  Mn4  1  0.35805532  0.04131000  0.39001382  1
  Mn  Mn5  1  0.95869000  0.64194468  0.10998618  1
  Ag  Ag0  1  0.98871075  0.01128925  0.25000000  1
  Ag  Ag1  1  0.01128925  0.98871075  0.75000000  1
  As  As0  1  0.31862510  0.68137490  0.75000000  1
  As  As1  1  0.68137490  0.31862510  0.25000000  1
  As  As2  1  0.33867759  0.10293693  0.88692944  1
  As  As3  1  0.89706307  0.66132241  0.61307056  1
  As  As4  1  0.66132241  0.89706307  0.11307056  1
  As  As5  1  0.10293693  0.33867759  0.38692944  1
  H  H0  1  0.59991098  0.62805617  0.70062719  1
  H  H1  1  0.37194383  0.40008902  0.79937281  1
  H  H2  1  0.40008902  0.37194383  0.29937281  1
  H  H3  1  0.62805617  0.59991098  0.20062719  1
  O  O0  1  0.72004745  0.21249457  0.47073173  1
  O  O1  1  0.78750543  0.27995255  0.02926827  1
  O  O2  1  0.27995255  0.78750543  0.52926827  1
  O  O3  1  0.21249457  0.72004745  0.97073173  1
  O  O4  1  0.51679593  0.71499513  0.72749599  1
  O  O5  1  0.28500487  0.48320407  0.77250401  1
  O  O6  1  0.48320407  0.28500487  0.27250401  1
  O  O7  1  0.71499513  0.51679593  0.22749599  1
  O  O8  1  0.66905394  0.02600507  0.87559982  1
  O  O9  1  0.97399493  0.33094606  0.62440018  1
  O  O10  1  0.33094606  0.97399493  0.12440018  1
  O  O11  1  0.02600507  0.66905394  0.37559982  1
  O  O12  1  0.72507732  0.54337332  0.66475044  1
  O  O13  1  0.45662668  0.27492268  0.83524956  1
  O  O14  1  0.27492268  0.45662668  0.33524956  1
  O  O15  1  0.54337332  0.72507732  0.16475044  1
  O  O16  1  0.40153191  0.02019146  0.68844303  1
  O  O17  1  0.97980854  0.59846809  0.81155697  1
  O  O18  1  0.59846809  0.97980854  0.31155697  1
  O  O19  1  0.02019146  0.40153191  0.18844303  1
  O  O20  1  0.85154038  0.85019152  0.59903638  1
  O  O21  1  0.14980848  0.14845962  0.90096362  1
  O  O22  1  0.14845962  0.14980848  0.40096362  1
  O  O23  1  0.85019152  0.85154038  0.09903638  1
loop_
_geom_bond_atom_site_label_1
_geom_bond_atom_site_label_2
_geom_bond_distance
_geom_bond_site_symmetry_2
Mn0 O13 2.174623 1_555
Mn0 O12 2.174623 1_555
Mn0 O0 2.189925 1_555
Mn0 O1 2.189925 1_556
Mn0 O9 2.207356 1_555
Mn0 O8 2.207356 1_555
Mn1 O14 2.174623 1_555
Mn1 O15 2.174623 1_555
Mn1 O2 2.189925 1_555
Mn1 O3 2.189925 1_554
Mn1 O11 2.207356 1_555
Mn1 O10 2.207356 1_555
Mn2 O20 2.100125 1_555
Mn2 O8 2.149924 1_565
Mn2 O18 2.160145 1_555
Mn2 O16 2.165711 1_565
Mn2 O0 2.190499 1_565
Mn2 O4 2.222886 1_555
Mn3 O21 2.100125 1_555
Mn3 O9 2.149924 1_455
Mn3 O19 2.160145 1_556
Mn3 O17 2.165711 1_455
Mn3 O1 2.190499 1_456
Mn3 O5 2.222886 1_555
Mn4 O22 2.100125 1_555
Mn4 O10 2.149924 1_545
Mn4 O16 2.160145 1_555
Mn4 O18 2.165711 1_545
Mn4 O2 2.190499 1_545
Mn4 O6 2.222886 1_555
Mn5 O23 2.100125 1_555
Mn5 O11 2.149924 1_655
Mn5 O17 2.160145 1_554
Mn5 O19 2.165711 1_655
Mn5 O3 2.190499 1_654
Mn5 O7 2.222886 1_555
Ag0 O21 2.390586 1_654
Ag0 O20 2.390586 1_545
Ag0 O22 2.453041 1_655
Ag0 O23 2.453041 1_545
Ag1 O22 2.390586 1_565
Ag1 O23 2.390586 1_456
Ag1 O21 2.453041 1_565
Ag1 O20 2.453041 1_455
As0 O2 1.684559 1_555
As0 O3 1.684559 1_555
As0 O5 1.726088 1_555
As0 O4 1.726088 1_555
As1 O1 1.684559 1_555
As1 O0 1.684559 1_555
As1 O6 1.726088 1_555
As1 O7 1.726088 1_555
As2 O16 1.696959 1_555
As2 O10 1.702229 1_546
As2 O21 1.710212 1_555
As2 O13 1.714903 1_555
As3 O17 1.696959 1_555
As3 O11 1.702229 1_655
As3 O20 1.710212 1_555
As3 O12 1.714903 1_555
As4 O18 1.696959 1_555
As4 O8 1.702229 1_564
As4 O23 1.710212 1_555
As4 O15 1.714903 1_555
As5 O19 1.696959 1_555
As5 O9 1.702229 1_455
As5 O22 1.710212 1_555
As5 O14 1.714903 1_555
H0 O4 1.093989 1_555
H0 O12 1.355987 1_555
H1 O5 1.093989 1_555
H1 O13 1.355987 1_555
H2 O6 1.093989 1_555
H2 O14 1.355987 1_555
H3 O7 1.093989 1_555
H3 O15 1.355987 1_555
