# generated using pymatgen
data_SrAlH5
_symmetry_space_group_name_H-M   'P 1'
_cell_length_a   4.47477553
_cell_length_b   5.19432111
_cell_length_c   12.63421364
_cell_angle_alpha   90.00000000
_cell_angle_beta   90.00000000
_cell_angle_gamma   90.00000000
_symmetry_Int_Tables_number   1
_chemical_formula_structural   SrAlH5
_chemical_formula_sum   'Sr4 Al4 H20'
_cell_volume   293.66234661
_cell_formula_units_Z   4
loop_
 _symmetry_equiv_pos_site_id
 _symmetry_equiv_pos_as_xyz
  1  'x, y, z'
loop_
 _atom_site_type_symbol
 _atom_site_label
 _atom_site_symmetry_multiplicity
 _atom_site_fract_x
 _atom_site_fract_y
 _atom_site_fract_z
 _atom_site_occupancy
  Sr  Sr0  1  0.28654544  0.14577036  0.65801066  1
  Sr  Sr1  1  0.78654544  0.35422964  0.34198934  1
  Sr  Sr2  1  0.21345456  0.85422964  0.15801066  1
  Sr  Sr3  1  0.71345456  0.64577036  0.84198934  1
  Al  Al0  1  0.32117562  0.13262921  0.91552563  1
  Al  Al1  1  0.82117562  0.36737079  0.08447437  1
  Al  Al2  1  0.17882438  0.86737079  0.41552563  1
  Al  Al3  1  0.67882438  0.63262921  0.58447437  1
  H  H0  1  0.52662824  0.39451587  0.51232855  1
  H  H1  1  0.02662824  0.10548413  0.48767145  1
  H  H2  1  0.97337176  0.60548413  0.01232855  1
  H  H3  1  0.47337176  0.89451587  0.98767145  1
  H  H4  1  0.17126981  0.91138060  0.82986971  1
  H  H5  1  0.67126981  0.58861940  0.17013029  1
  H  H6  1  0.32873019  0.08861940  0.32986971  1
  H  H7  1  0.82873019  0.41138060  0.67013029  1
  H  H8  1  0.19315122  0.38543648  0.84233245  1
  H  H9  1  0.69315122  0.11456352  0.15766755  1
  H  H10  1  0.30684878  0.61456352  0.34233245  1
  H  H11  1  0.80684878  0.88543648  0.65766755  1
  H  H12  1  0.62419365  0.13630938  0.83014182  1
  H  H13  1  0.12419365  0.36369062  0.16985818  1
  H  H14  1  0.87580635  0.86369062  0.33014182  1
  H  H15  1  0.37580635  0.63630938  0.66985818  1
  H  H16  1  0.01684122  0.13531062  0.00389400  1
  H  H17  1  0.51684122  0.36468938  0.99610600  1
  H  H18  1  0.48315878  0.86468938  0.50389400  1
  H  H19  1  0.98315878  0.63531062  0.49610600  1
loop_
_geom_bond_atom_site_label_1
_geom_bond_atom_site_label_2
_geom_bond_distance
_geom_bond_site_symmetry_2
Al0 H3 1.680604 1_545
Al0 H8 1.705206 1_555
Al0 H4 1.715184 1_545
Al0 H12 1.732816 1_555
Al0 H16 1.761040 1_556
Al0 H17 1.804452 1_555
Al1 H2 1.680604 1_555
Al1 H9 1.705206 1_555
Al1 H5 1.715184 1_555
Al1 H13 1.732816 1_655
Al1 H17 1.761040 1_554
Al1 H16 1.804452 1_655
Al2 H1 1.680604 1_565
Al2 H10 1.705206 1_555
Al2 H6 1.715184 1_565
Al2 H14 1.732816 1_455
Al2 H18 1.761040 1_555
Al2 H19 1.804452 1_455
Al3 H0 1.680604 1_555
Al3 H11 1.705206 1_555
Al3 H7 1.715184 1_555
Al3 H15 1.732816 1_555
Al3 H19 1.761040 1_555
Al3 H18 1.804452 1_555
H0 Sr1 2.455212 1_555
H0 Sr0 2.492251 1_555
H1 Sr0 2.455212 1_555
H1 Sr1 2.492251 1_455
H2 Sr3 2.455212 1_554
H2 Sr2 2.492251 1_655
H3 Sr2 2.455212 1_556
H3 Sr3 2.492251 1_555
H4 Sr3 2.474625 1_455
H4 Sr0 2.542231 1_565
H4 Sr3 2.795201 1_555
H5 Sr2 2.474625 1_555
H5 Sr1 2.542231 1_555
H5 Sr2 2.795201 1_655
H6 Sr1 2.474625 1_555
H6 Sr2 2.542231 1_545
H6 Sr1 2.795201 1_455
H7 Sr0 2.474625 1_655
H7 Sr3 2.542231 1_555
H7 Sr0 2.795201 1_555
H8 Sr3 2.536973 1_455
H8 Sr0 2.673493 1_555
H8 Sr3 2.692457 1_555
H9 Sr2 2.536973 1_545
H9 Sr1 2.673493 1_555
H9 Sr2 2.692457 1_645
H10 Sr1 2.536973 1_555
H10 Sr2 2.673493 1_555
H10 Sr1 2.692457 1_455
H11 Sr0 2.536973 1_665
H11 Sr3 2.673493 1_555
H11 Sr0 2.692457 1_565
H12 Sr3 2.583473 1_545
H12 Sr0 2.648535 1_555
H12 Sr3 2.680460 1_555
H13 Sr2 2.583473 1_555
H13 Sr1 2.648535 1_455
H13 Sr2 2.680460 1_545
H14 Sr1 2.583473 1_565
H14 Sr2 2.648535 1_655
H14 Sr1 2.680460 1_555
H15 Sr0 2.583473 1_555
H15 Sr3 2.648535 1_555
H15 Sr0 2.680460 1_565
H16 Sr2 2.587873 1_545
H17 Sr3 2.587873 1_555
H18 Sr0 2.587873 1_565
H19 Sr1 2.587873 1_555
