# generated using pymatgen
data_Ag5Te2Cl
_symmetry_space_group_name_H-M   'P 1'
_cell_length_a   7.72041113
_cell_length_b   13.87301599
_cell_length_c   13.96810700
_cell_angle_alpha   90.00000000
_cell_angle_beta   90.00000000
_cell_angle_gamma   90.00000000
_symmetry_Int_Tables_number   1
_chemical_formula_structural   Ag5Te2Cl
_chemical_formula_sum   'Ag40 Te16 Cl8'
_cell_volume   1496.05950667
_cell_formula_units_Z   8
loop_
 _symmetry_equiv_pos_site_id
 _symmetry_equiv_pos_as_xyz
  1  'x, y, z'
loop_
 _atom_site_type_symbol
 _atom_site_label
 _atom_site_symmetry_multiplicity
 _atom_site_fract_x
 _atom_site_fract_y
 _atom_site_fract_z
 _atom_site_occupancy
  Ag  Ag0  1  0.86714289  0.92766691  0.92321788  1
  Ag  Ag1  1  0.01149301  0.64048726  0.10972570  1
  Ag  Ag2  1  0.13285711  0.07233309  0.07678212  1
  Ag  Ag3  1  0.48850699  0.35951274  0.60972570  1
  Ag  Ag4  1  0.62542938  0.90021514  0.08178745  1
  Ag  Ag5  1  0.63285711  0.42766691  0.42321788  1
  Ag  Ag6  1  0.12542938  0.59978486  0.41821255  1
  Ag  Ag7  1  0.87457062  0.40021514  0.58178745  1
  Ag  Ag8  1  0.63285711  0.07233309  0.42321788  1
  Ag  Ag9  1  0.37457062  0.09978486  0.91821255  1
  Ag  Ag10  1  0.36714289  0.92766691  0.57678212  1
  Ag  Ag11  1  0.55676426  0.75000000  0.56985902  1
  Ag  Ag12  1  0.51149301  0.64048726  0.39027430  1
  Ag  Ag13  1  0.72727510  0.35402736  0.20397700  1
  Ag  Ag14  1  0.05676426  0.75000000  0.93014098  1
  Ag  Ag15  1  0.27272490  0.85402736  0.79602300  1
  Ag  Ag16  1  0.44323574  0.25000000  0.43014098  1
  Ag  Ag17  1  0.94323574  0.25000000  0.06985902  1
  Ag  Ag18  1  0.13890734  0.25000000  0.61927008  1
  Ag  Ag19  1  0.86714289  0.57233309  0.92321788  1
  Ag  Ag20  1  0.63890734  0.25000000  0.88072992  1
  Ag  Ag21  1  0.77272490  0.85402736  0.70397700  1
  Ag  Ag22  1  0.62542938  0.59978486  0.08178745  1
  Ag  Ag23  1  0.01149301  0.85951274  0.10972570  1
  Ag  Ag24  1  0.13285711  0.42766691  0.07678212  1
  Ag  Ag25  1  0.36109266  0.75000000  0.11927008  1
  Ag  Ag26  1  0.27272490  0.64597264  0.79602300  1
  Ag  Ag27  1  0.37457062  0.40021514  0.91821255  1
  Ag  Ag28  1  0.22727510  0.14597264  0.29602300  1
  Ag  Ag29  1  0.86109266  0.75000000  0.38072992  1
  Ag  Ag30  1  0.98850699  0.35951274  0.89027430  1
  Ag  Ag31  1  0.72727510  0.14597264  0.20397700  1
  Ag  Ag32  1  0.48850699  0.14048726  0.60972570  1
  Ag  Ag33  1  0.36714289  0.57233309  0.57678212  1
  Ag  Ag34  1  0.51149301  0.85951274  0.39027430  1
  Ag  Ag35  1  0.12542938  0.90021514  0.41821255  1
  Ag  Ag36  1  0.77272490  0.64597264  0.70397700  1
  Ag  Ag37  1  0.87457062  0.09978486  0.58178745  1
  Ag  Ag38  1  0.98850699  0.14048726  0.89027430  1
  Ag  Ag39  1  0.22727510  0.35402736  0.29602300  1
  Te  Te0  1  0.75185662  0.25000000  0.69053264  1
  Te  Te1  1  0.21235966  0.40998872  0.48986996  1
  Te  Te2  1  0.29236873  0.25000000  0.13052987  1
  Te  Te3  1  0.78764034  0.90998872  0.51013004  1
  Te  Te4  1  0.79236873  0.25000000  0.36947013  1
  Te  Te5  1  0.25185662  0.25000000  0.80946736  1
  Te  Te6  1  0.71235966  0.09001128  0.01013004  1
  Te  Te7  1  0.20763127  0.75000000  0.63052987  1
  Te  Te8  1  0.28764034  0.59001128  0.98986996  1
  Te  Te9  1  0.28764034  0.90998872  0.98986996  1
  Te  Te10  1  0.71235966  0.40998872  0.01013004  1
  Te  Te11  1  0.70763127  0.75000000  0.86947013  1
  Te  Te12  1  0.21235966  0.09001128  0.48986996  1
  Te  Te13  1  0.74814338  0.75000000  0.19053264  1
  Te  Te14  1  0.24814338  0.75000000  0.30946736  1
  Te  Te15  1  0.78764034  0.59001128  0.51013004  1
  Cl  Cl0  1  0.50528893  0.50391430  0.74592538  1
  Cl  Cl1  1  0.99471107  0.49608570  0.24592538  1
  Cl  Cl2  1  0.99471107  0.00391430  0.24592538  1
  Cl  Cl3  1  0.00528893  0.99608570  0.75407462  1
  Cl  Cl4  1  0.00528893  0.50391430  0.75407462  1
  Cl  Cl5  1  0.49471107  0.49608570  0.25407462  1
  Cl  Cl6  1  0.49471107  0.00391430  0.25407462  1
  Cl  Cl7  1  0.50528893  0.99608570  0.74592538  1
loop_
_geom_bond_atom_site_label_1
_geom_bond_atom_site_label_2
_geom_bond_distance
_geom_bond_site_symmetry_2
Ag0 Cl3 2.760504 1_655
Ag0 Te6 2.823867 1_566
Ag0 Te11 2.855754 1_555
Ag0 Ag14 2.868386 1_655
Ag0 Te9 3.386165 1_655
Ag1 Cl1 2.765730 1_455
Ag1 Te13 2.777763 1_455
Ag1 Te8 2.799725 1_554
Ag1 Ag14 2.953424 1_554
Ag1 Ag25 3.100137 1_555
Ag2 Cl2 2.760504 1_455
Ag2 Te9 2.823867 1_544
Ag2 Te2 2.855754 1_555
Ag2 Te6 3.386165 1_455
Ag3 Cl0 2.765730 1_555
Ag3 Te0 2.777763 1_555
Ag3 Te1 2.799725 1_555
Ag4 Te13 2.747293 1_555
Ag4 Te6 2.895719 1_565
Ag4 Te9 2.909949 1_554
Ag4 Cl6 2.979845 1_565
Ag5 Cl5 2.760504 1_555
Ag5 Te15 2.823867 1_555
Ag5 Te4 2.855754 1_555
Ag5 Te1 3.386165 1_555
Ag6 Te14 2.747293 1_555
Ag6 Te1 2.895719 1_555
Ag6 Te15 2.909949 1_455
Ag6 Cl1 2.979845 1_455
Ag7 Te0 2.747293 1_555
Ag7 Te15 2.895719 1_555
Ag7 Te1 2.909949 1_655
Ag7 Cl4 2.979845 1_655
Ag8 Cl6 2.760504 1_555
Ag8 Te3 2.823867 1_545
Ag8 Te4 2.855754 1_555
Ag8 Te12 3.386165 1_555
Ag9 Te5 2.747293 1_555
Ag9 Te9 2.895719 1_545
Ag9 Te6 2.909949 1_556
Ag9 Cl7 2.979845 1_545
Ag10 Cl7 2.760504 1_555
Ag10 Te12 2.823867 1_565
Ag10 Te7 2.855754 1_555
Ag10 Ag11 2.868386 1_555
Ag10 Te3 3.386165 1_555
Ag11 Te7 2.825533 1_555
Ag11 Ag33 2.868386 1_555
Ag11 Ag36 2.893473 1_555
Ag11 Ag21 2.893473 1_555
Ag11 Ag34 2.953424 1_555
Ag11 Ag12 2.953424 1_555
Ag11 Te15 2.966397 1_555
Ag11 Te3 2.966397 1_555
Ag12 Cl5 2.765730 1_555
Ag12 Te14 2.777763 1_555
Ag12 Te15 2.799725 1_555
Ag12 Ag29 3.100137 1_555
Ag13 Cl5 2.756343 1_555
Ag13 Te4 2.771086 1_555
Ag13 Te10 2.819129 1_555
Ag13 Ag17 2.893473 1_555
Ag13 Cl1 2.913819 1_555
Ag14 Te11 2.825533 1_455
Ag14 Ag19 2.868386 1_455
Ag14 Ag26 2.893473 1_555
Ag14 Ag15 2.893473 1_555
Ag14 Ag23 2.953424 1_556
Ag14 Te8 2.966397 1_555
Ag14 Te9 2.966397 1_555
Ag15 Cl7 2.756343 1_555
Ag15 Te7 2.771086 1_555
Ag15 Te9 2.819129 1_555
Ag15 Cl3 2.913819 1_555
Ag16 Te4 2.825533 1_555
Ag16 Ag8 2.868386 1_555
Ag16 Ag5 2.868386 1_555
Ag16 Ag28 2.893473 1_555
Ag16 Ag39 2.893473 1_555
Ag16 Ag3 2.953424 1_555
Ag16 Ag32 2.953424 1_555
Ag16 Te12 2.966397 1_555
Ag16 Te1 2.966397 1_555
Ag17 Te2 2.825533 1_655
Ag17 Ag2 2.868386 1_655
Ag17 Ag24 2.868386 1_655
Ag17 Ag31 2.893473 1_555
Ag17 Ag38 2.953424 1_554
Ag17 Ag30 2.953424 1_554
Ag17 Te6 2.966397 1_555
Ag17 Te10 2.966397 1_555
Ag18 Te5 2.796148 1_555
Ag18 Te12 2.918020 1_555
Ag18 Te1 2.918020 1_555
Ag18 Ag37 2.963398 1_455
Ag18 Ag7 2.963398 1_455
Ag18 Ag3 3.100137 1_555
Ag18 Ag32 3.100137 1_555
Ag18 Te0 3.149621 1_455
Ag19 Cl4 2.760504 1_655
Ag19 Te10 2.823867 1_556
Ag19 Te11 2.855754 1_555
Ag19 Te8 3.386165 1_655
Ag20 Te0 2.796148 1_555
Ag20 Te6 2.918020 1_556
Ag20 Te10 2.918020 1_556
Ag20 Ag9 2.963398 1_555
Ag20 Ag27 2.963398 1_555
Ag20 Ag30 3.100137 1_555
Ag20 Ag38 3.100137 1_555
Ag20 Te5 3.149621 1_555
Ag21 Cl3 2.756343 1_655
Ag21 Te11 2.771086 1_555
Ag21 Te3 2.819129 1_555
Ag21 Cl7 2.913819 1_555
Ag22 Te13 2.747293 1_555
Ag22 Te10 2.895719 1_555
Ag22 Te8 2.909949 1_554
Ag22 Ag25 2.963398 1_555
Ag22 Cl5 2.979845 1_555
Ag23 Cl2 2.765730 1_465
Ag23 Te13 2.777763 1_455
Ag23 Te9 2.799725 1_554
Ag23 Ag25 3.100137 1_555
Ag24 Cl1 2.760504 1_455
Ag24 Te8 2.823867 1_554
Ag24 Te2 2.855754 1_555
Ag24 Te10 3.386165 1_455
Ag25 Te14 2.796148 1_555
Ag25 Te8 2.918020 1_554
Ag25 Te9 2.918020 1_554
Ag25 Ag4 2.963398 1_555
Ag25 Te13 3.149621 1_555
Ag26 Cl0 2.756343 1_555
Ag26 Te7 2.771086 1_555
Ag26 Te8 2.819129 1_555
Ag26 Cl4 2.913819 1_555
Ag27 Te5 2.747293 1_555
Ag27 Te8 2.895719 1_555
Ag27 Te10 2.909949 1_556
Ag27 Cl0 2.979845 1_555
Ag28 Cl2 2.756343 1_455
Ag28 Te2 2.771086 1_555
Ag28 Te12 2.819129 1_555
Ag28 Cl6 2.913819 1_555
Ag29 Te13 2.796148 1_555
Ag29 Te3 2.918020 1_555
Ag29 Te15 2.918020 1_555
Ag29 Ag35 2.963398 1_655
Ag29 Ag6 2.963398 1_655
Ag29 Ag34 3.100137 1_555
Ag29 Te14 3.149621 1_655
Ag30 Cl4 2.765730 1_655
Ag30 Te5 2.777763 1_655
Ag30 Te10 2.799725 1_556
Ag31 Cl6 2.756343 1_555
Ag31 Te4 2.771086 1_555
Ag31 Te6 2.819129 1_555
Ag31 Cl2 2.913819 1_555
Ag32 Cl7 2.765730 1_545
Ag32 Te0 2.777763 1_555
Ag32 Te12 2.799725 1_555
Ag33 Cl0 2.760504 1_555
Ag33 Te1 2.823867 1_555
Ag33 Te7 2.855754 1_555
Ag33 Te15 3.386165 1_555
Ag34 Cl6 2.765730 1_565
Ag34 Te14 2.777763 1_555
Ag34 Te3 2.799725 1_555
Ag35 Te14 2.747293 1_555
Ag35 Te12 2.895719 1_565
Ag35 Te3 2.909949 1_455
Ag35 Cl2 2.979845 1_465
Ag36 Cl4 2.756343 1_655
Ag36 Te11 2.771086 1_555
Ag36 Te15 2.819129 1_555
Ag36 Cl0 2.913819 1_555
Ag37 Te0 2.747293 1_555
Ag37 Te3 2.895719 1_545
Ag37 Te12 2.909949 1_655
Ag37 Cl3 2.979845 1_645
Ag38 Cl3 2.765730 1_645
Ag38 Te5 2.777763 1_655
Ag38 Te6 2.799725 1_556
Ag39 Cl1 2.756343 1_455
Ag39 Te2 2.771086 1_555
Ag39 Te1 2.819129 1_555
Ag39 Cl5 2.913819 1_555
