# generated using pymatgen
data_Cd(FeO2)2
_symmetry_space_group_name_H-M   'P 1'
_cell_length_a   6.23952735
_cell_length_b   6.23952735
_cell_length_c   30.74804400
_cell_angle_alpha   90.00000000
_cell_angle_beta   90.00000000
_cell_angle_gamma   119.99999306
_symmetry_Int_Tables_number   1
_chemical_formula_structural   Cd(FeO2)2
_chemical_formula_sum   'Cd12 Fe24 O48'
_cell_volume   1036.69628144
_cell_formula_units_Z   12
loop_
 _symmetry_equiv_pos_site_id
 _symmetry_equiv_pos_as_xyz
  1  'x, y, z'
loop_
 _atom_site_type_symbol
 _atom_site_label
 _atom_site_symmetry_multiplicity
 _atom_site_fract_x
 _atom_site_fract_y
 _atom_site_fract_z
 _atom_site_occupancy
  Cd  Cd0  1  0.33333300  0.66666700  0.95691000  1
  Cd  Cd1  1  0.66666700  0.33333300  0.98123600  1
  Cd  Cd2  1  0.66666700  0.33333300  0.66831000  1
  Cd  Cd3  1  0.66666700  0.33333300  0.78974200  1
  Cd  Cd4  1  0.00000000  0.00000000  0.81102700  1
  Cd  Cd5  1  0.00000000  0.00000000  0.50001000  1
  Cd  Cd6  1  0.00000000  0.00000000  0.62336600  1
  Cd  Cd7  1  0.33333300  0.66666700  0.33349900  1
  Cd  Cd8  1  0.33333300  0.66666700  0.45907100  1
  Cd  Cd9  1  0.66666700  0.33333300  0.29238500  1
  Cd  Cd10  1  0.66666700  0.33333300  0.16599300  1
  Cd  Cd11  1  0.00000000  0.00000000  0.12519400  1
  Fe  Fe0  1  0.00000000  0.00000000  0.00146600  1
  Fe  Fe1  1  0.33333300  0.66666700  0.83565000  1
  Fe  Fe2  1  0.82997300  0.17002700  0.89569800  1
  Fe  Fe3  1  0.34005400  0.17002700  0.89569800  1
  Fe  Fe4  1  0.82997300  0.65994600  0.89569800  1
  Fe  Fe5  1  0.16529300  0.83470700  0.72746900  1
  Fe  Fe6  1  0.66941400  0.83470700  0.72746900  1
  Fe  Fe7  1  0.16529300  0.33058600  0.72746900  1
  Fe  Fe8  1  0.50013500  0.49986500  0.56268200  1
  Fe  Fe9  1  0.33333300  0.66666700  0.64532100  1
  Fe  Fe10  1  0.99973100  0.49986500  0.56268200  1
  Fe  Fe11  1  0.50013500  0.00026900  0.56268200  1
  Fe  Fe12  1  0.83302400  0.16697600  0.39619100  1
  Fe  Fe13  1  0.66666700  0.33333300  0.47968100  1
  Fe  Fe14  1  0.33395100  0.16697600  0.39619100  1
  Fe  Fe15  1  0.83302400  0.66604900  0.39619100  1
  Fe  Fe16  1  0.16600100  0.83399900  0.22983200  1
  Fe  Fe17  1  0.00000000  0.00000000  0.31330200  1
  Fe  Fe18  1  0.66799800  0.83399900  0.22983200  1
  Fe  Fe19  1  0.16600100  0.33200200  0.22983200  1
  Fe  Fe20  1  0.49651600  0.50348400  0.06388400  1
  Fe  Fe21  1  0.33333300  0.66666700  0.14798000  1
  Fe  Fe22  1  0.00696800  0.50348400  0.06388400  1
  Fe  Fe23  1  0.49651600  0.99303200  0.06388400  1
  O  O0  1  0.51701400  0.03402800  0.93017000  1
  O  O1  1  0.96597200  0.48298600  0.93017000  1
  O  O2  1  0.66666700  0.33333300  0.86095500  1
  O  O3  1  0.51701400  0.48298600  0.93017000  1
  O  O4  1  0.84704900  0.69409800  0.76015200  1
  O  O5  1  0.16362300  0.83637700  0.85981400  1
  O  O6  1  0.67275400  0.83637700  0.85981400  1
  O  O7  1  0.00000000  0.00000000  0.69346300  1
  O  O8  1  0.30590200  0.15295100  0.76015200  1
  O  O9  1  0.00000000  0.00000000  0.93601800  1
  O  O10  1  0.84704900  0.15295100  0.76015200  1
  O  O11  1  0.16362300  0.32724600  0.85981400  1
  O  O12  1  0.18977700  0.37955400  0.60045800  1
  O  O13  1  0.47403800  0.52596200  0.68945300  1
  O  O14  1  0.05192400  0.52596200  0.68945300  1
  O  O15  1  0.33333300  0.66666700  0.52935400  1
  O  O16  1  0.33333300  0.66666700  0.77119100  1
  O  O17  1  0.62044600  0.81022300  0.60045800  1
  O  O18  1  0.18977700  0.81022300  0.60045800  1
  O  O19  1  0.47403800  0.94807600  0.68945300  1
  O  O20  1  0.52278700  0.04557400  0.43435000  1
  O  O21  1  0.81007100  0.18992900  0.52341500  1
  O  O22  1  0.37985800  0.18992900  0.52341500  1
  O  O23  1  0.66666700  0.33333300  0.59602300  1
  O  O24  1  0.95442600  0.47721300  0.43435000  1
  O  O25  1  0.66666700  0.33333300  0.36286600  1
  O  O26  1  0.52278700  0.47721300  0.43435000  1
  O  O27  1  0.81007100  0.62014200  0.52341500  1
  O  O28  1  0.14351000  0.85649000  0.35683800  1
  O  O29  1  0.85625900  0.71251800  0.26794800  1
  O  O30  1  0.00000000  0.00000000  0.19615000  1
  O  O31  1  0.71298000  0.85649000  0.35683800  1
  O  O32  1  0.00000000  0.00000000  0.42869400  1
  O  O33  1  0.28748200  0.14374100  0.26794800  1
  O  O34  1  0.85625900  0.14374100  0.26794800  1
  O  O35  1  0.14351000  0.28702000  0.35683800  1
  O  O36  1  0.19141500  0.38283000  0.10286200  1
  O  O37  1  0.47795000  0.52205000  0.19074400  1
  O  O38  1  0.33333300  0.66666700  0.02952400  1
  O  O39  1  0.04410000  0.52205000  0.19074400  1
  O  O40  1  0.33333300  0.66666700  0.26213900  1
  O  O41  1  0.61717000  0.80858500  0.10286200  1
  O  O42  1  0.19141500  0.80858500  0.10286200  1
  O  O43  1  0.47795000  0.95590000  0.19074400  1
  O  O44  1  0.83557800  0.16442200  0.02802600  1
  O  O45  1  0.32884400  0.16442200  0.02802600  1
  O  O46  1  0.66666700  0.33333300  0.09352500  1
  O  O47  1  0.83557800  0.67115600  0.02802600  1
loop_
_geom_bond_atom_site_label_1
_geom_bond_atom_site_label_2
_geom_bond_distance
_geom_bond_site_symmetry_2
Cd0 O0 2.148607 1_565
Cd0 O1 2.148607 1_455
Cd0 O3 2.148612 1_555
Cd0 O38 2.232738 1_556
Cd1 O1 2.254150 1_555
Cd1 O0 2.254150 1_555
Cd1 O3 2.254154 1_555
Cd1 O44 2.324249 1_556
Cd1 O47 2.324253 1_556
Cd1 O45 2.324253 1_556
Cd2 O14 2.180919 1_655
Cd2 O19 2.180919 1_545
Cd2 O13 2.180924 1_555
Cd2 O23 2.222684 1_555
Cd3 O10 2.151288 1_555
Cd3 O8 2.151293 1_555
Cd3 O4 2.151293 1_555
Cd3 O2 2.189660 1_555
Cd4 O10 2.275821 1_455
Cd4 O8 2.275821 1_555
Cd4 O4 2.275821 1_445
Cd4 O5 2.318881 1_545
Cd4 O6 2.318881 1_445
Cd4 O11 2.318881 1_555
Cd5 O21 2.175100 1_455
Cd5 O22 2.175100 1_555
Cd5 O27 2.175100 1_445
Cd5 O32 2.192828 1_555
Cd6 O7 2.155346 1_555
Cd6 O18 2.168538 1_545
Cd6 O12 2.168538 1_555
Cd6 O17 2.168538 1_445
Cd7 O28 2.173348 1_555
Cd7 O35 2.173353 1_555
Cd7 O31 2.173353 1_555
Cd7 O40 2.194180 1_555
Cd8 O15 2.161065 1_555
Cd8 O20 2.184003 1_565
Cd8 O24 2.184003 1_455
Cd8 O26 2.184008 1_555
Cd9 O25 2.167153 1_555
Cd9 O34 2.182384 1_555
Cd9 O29 2.182390 1_555
Cd9 O33 2.182390 1_555
Cd10 O43 2.176860 1_545
Cd10 O39 2.176860 1_655
Cd10 O37 2.176865 1_555
Cd10 O46 2.228249 1_555
Cd11 O42 2.179644 1_545
Cd11 O36 2.179644 1_555
Cd11 O41 2.179644 1_445
Cd11 O30 2.181758 1_555
Fe0 O44 1.955621 1_455
Fe0 O45 1.955621 1_555
Fe0 O47 1.955621 1_445
Fe0 O9 2.012398 1_554
Fe1 O5 1.978867 1_555
Fe1 O6 1.978872 1_555
Fe1 O11 1.978872 1_555
Fe1 O16 1.981988 1_555
Fe2 O0 1.999911 1_555
Fe2 O1 1.999911 1_555
Fe2 O2 2.063010 1_555
Fe2 O6 2.114587 1_545
Fe2 O11 2.114587 1_655
Fe2 O9 2.216632 1_655
Fe3 O0 1.999911 1_555
Fe3 O3 1.999911 1_555
Fe3 O2 2.063015 1_555
Fe3 O11 2.114587 1_555
Fe3 O5 2.114587 1_545
Fe3 O9 2.216632 1_555
Fe4 O1 1.999911 1_555
Fe4 O3 1.999911 1_555
Fe4 O2 2.063015 1_555
Fe4 O6 2.114587 1_555
Fe4 O5 2.114587 1_655
Fe4 O9 2.216632 1_665
Fe5 O8 1.995113 1_565
Fe5 O4 1.995113 1_455
Fe5 O19 2.053084 1_555
Fe5 O14 2.053084 1_555
Fe5 O7 2.069871 1_565
Fe5 O16 2.259494 1_555
Fe6 O4 1.995113 1_555
Fe6 O10 1.995113 1_565
Fe6 O19 2.053084 1_555
Fe6 O13 2.053084 1_555
Fe6 O7 2.069871 1_665
Fe6 O16 2.259499 1_555
Fe7 O8 1.995113 1_555
Fe7 O10 1.995113 1_455
Fe7 O14 2.053084 1_555
Fe7 O13 2.053084 1_555
Fe7 O7 2.069871 1_555
Fe7 O16 2.259499 1_555
Fe8 O17 2.051582 1_555
Fe8 O12 2.051582 1_555
Fe8 O23 2.071242 1_555
Fe8 O15 2.073580 1_555
Fe8 O27 2.075927 1_555
Fe8 O22 2.075927 1_555
Fe9 O19 2.038052 1_555
Fe9 O14 2.038052 1_555
Fe9 O13 2.038056 1_555
Fe9 O18 2.076014 1_555
Fe9 O17 2.076018 1_555
Fe9 O12 2.076018 1_555
Fe10 O12 2.051578 1_655
Fe10 O18 2.051582 1_655
Fe10 O23 2.071242 1_555
Fe10 O15 2.073571 1_655
Fe10 O21 2.075927 1_555
Fe10 O27 2.075931 1_555
Fe11 O17 2.051578 1_545
Fe11 O18 2.051582 1_545
Fe11 O23 2.071242 1_555
Fe11 O15 2.073571 1_545
Fe11 O21 2.075927 1_555
Fe11 O22 2.075931 1_555
Fe12 O20 2.056993 1_555
Fe12 O24 2.056993 1_555
Fe12 O32 2.062806 1_655
Fe12 O25 2.069355 1_555
Fe12 O31 2.080195 1_545
Fe12 O35 2.080195 1_655
Fe13 O21 2.051870 1_555
Fe13 O27 2.051874 1_555
Fe13 O22 2.051874 1_555
Fe13 O24 2.088205 1_555
Fe13 O20 2.088205 1_555
Fe13 O26 2.088209 1_555
Fe14 O26 2.056994 1_555
Fe14 O20 2.056997 1_555
Fe14 O32 2.062802 1_555
Fe14 O25 2.069364 1_555
Fe14 O35 2.080190 1_555
Fe14 O28 2.080194 1_545
Fe15 O26 2.056994 1_555
Fe15 O24 2.056997 1_555
Fe15 O32 2.062802 1_665
Fe15 O25 2.069364 1_555
Fe15 O31 2.080190 1_555
Fe15 O28 2.080194 1_655
Fe16 O29 2.053851 1_455
Fe16 O33 2.053851 1_565
Fe16 O40 2.063265 1_555
Fe16 O30 2.071479 1_565
Fe16 O39 2.081132 1_555
Fe16 O43 2.081132 1_555
Fe17 O28 2.048752 1_545
Fe17 O31 2.048752 1_445
Fe17 O35 2.048752 1_555
Fe17 O34 2.087563 1_455
Fe17 O33 2.087563 1_555
Fe17 O29 2.087563 1_445
Fe18 O29 2.053851 1_555
Fe18 O34 2.053851 1_565
Fe18 O40 2.063269 1_555
Fe18 O30 2.071480 1_665
Fe18 O43 2.081132 1_555
Fe18 O37 2.081132 1_555
Fe19 O33 2.053851 1_555
Fe19 O34 2.053851 1_455
Fe19 O40 2.063269 1_555
Fe19 O30 2.071480 1_555
Fe19 O39 2.081132 1_555
Fe19 O37 2.081132 1_555
Fe20 O36 2.047931 1_555
Fe20 O41 2.047931 1_555
Fe20 O46 2.052324 1_555
Fe20 O38 2.055796 1_555
Fe20 O47 2.138355 1_555
Fe20 O45 2.138355 1_555
Fe21 O39 2.042457 1_555
Fe21 O43 2.042457 1_555
Fe21 O37 2.042461 1_555
Fe21 O42 2.068069 1_555
Fe21 O41 2.068074 1_555
Fe21 O36 2.068074 1_555
Fe22 O36 2.047931 1_555
Fe22 O42 2.047931 1_555
Fe22 O46 2.052319 1_455
Fe22 O38 2.055792 1_555
Fe22 O47 2.138355 1_455
Fe22 O44 2.138355 1_455
Fe23 O41 2.047931 1_555
Fe23 O42 2.047931 1_555
Fe23 O46 2.052319 1_565
Fe23 O38 2.055792 1_555
Fe23 O45 2.138355 1_565
Fe23 O44 2.138355 1_565
