# generated using pymatgen
data_Li7NiN4
_symmetry_space_group_name_H-M   'P 1'
_cell_length_a   9.62189800
_cell_length_b   9.62189800
_cell_length_c   9.62189800
_cell_angle_alpha   90.00000000
_cell_angle_beta   90.00000000
_cell_angle_gamma   90.00000000
_symmetry_Int_Tables_number   1
_chemical_formula_structural   Li7NiN4
_chemical_formula_sum   'Li56 Ni8 N32'
_cell_volume   890.80417979
_cell_formula_units_Z   8
loop_
 _symmetry_equiv_pos_site_id
 _symmetry_equiv_pos_as_xyz
  1  'x, y, z'
loop_
 _atom_site_type_symbol
 _atom_site_label
 _atom_site_symmetry_multiplicity
 _atom_site_fract_x
 _atom_site_fract_y
 _atom_site_fract_z
 _atom_site_occupancy
  Li  Li0  1  0.50000000  0.75964600  0.50000000  1
  Li  Li1  1  0.75853000  0.00637900  0.24840200  1
  Li  Li2  1  0.24434900  0.75565100  0.75565100  1
  Li  Li3  1  0.00000000  0.74035400  0.00000000  1
  Li  Li4  1  0.24147000  0.99362100  0.24840200  1
  Li  Li5  1  0.75565100  0.75565100  0.24434900  1
  Li  Li6  1  0.00000000  0.00000000  0.74035400  1
  Li  Li7  1  0.50637900  0.74147000  0.25159800  1
  Li  Li8  1  0.50000000  0.24035400  0.50000000  1
  Li  Li9  1  0.25853000  0.25159800  0.49362100  1
  Li  Li10  1  0.50000000  0.00000000  0.50000000  1
  Li  Li11  1  0.74840200  0.49362100  0.74147000  1
  Li  Li12  1  0.75964600  0.50000000  0.50000000  1
  Li  Li13  1  0.25853000  0.74840200  0.50637900  1
  Li  Li14  1  0.24434900  0.24434900  0.24434900  1
  Li  Li15  1  0.00000000  0.25964600  0.00000000  1
  Li  Li16  1  0.25565100  0.74434900  0.25565100  1
  Li  Li17  1  0.25000000  0.00000000  0.50000000  1
  Li  Li18  1  0.50000000  0.50000000  0.00000000  1
  Li  Li19  1  0.25565100  0.25565100  0.74434900  1
  Li  Li20  1  0.50000000  0.50000000  0.24035400  1
  Li  Li21  1  0.25159800  0.50637900  0.74147000  1
  Li  Li22  1  0.74035400  0.00000000  0.00000000  1
  Li  Li23  1  0.74434900  0.74434900  0.74434900  1
  Li  Li24  1  0.00000000  0.50000000  0.75000000  1
  Li  Li25  1  0.74840200  0.50637900  0.25853000  1
  Li  Li26  1  0.00000000  0.50000000  0.50000000  1
  Li  Li27  1  0.00000000  0.50000000  0.00000000  1
  Li  Li28  1  0.00637900  0.24840200  0.75853000  1
  Li  Li29  1  0.00000000  0.00000000  0.25964600  1
  Li  Li30  1  0.75565100  0.24434900  0.75565100  1
  Li  Li31  1  0.24840200  0.75853000  0.00637900  1
  Li  Li32  1  0.24147000  0.00637900  0.75159800  1
  Li  Li33  1  0.50000000  0.75000000  0.00000000  1
  Li  Li34  1  0.74434900  0.25565100  0.25565100  1
  Li  Li35  1  0.50000000  0.25000000  0.00000000  1
  Li  Li36  1  0.25159800  0.49362100  0.25853000  1
  Li  Li37  1  0.24840200  0.24147000  0.99362100  1
  Li  Li38  1  0.49362100  0.25853000  0.25159800  1
  Li  Li39  1  0.75853000  0.99362100  0.75159800  1
  Li  Li40  1  0.99362100  0.75159800  0.75853000  1
  Li  Li41  1  0.75159800  0.75853000  0.99362100  1
  Li  Li42  1  0.74147000  0.25159800  0.50637900  1
  Li  Li43  1  0.00637900  0.75159800  0.24147000  1
  Li  Li44  1  0.50000000  0.50000000  0.75964600  1
  Li  Li45  1  0.00000000  0.00000000  0.50000000  1
  Li  Li46  1  0.50000000  0.00000000  0.00000000  1
  Li  Li47  1  0.49362100  0.74147000  0.74840200  1
  Li  Li48  1  0.75159800  0.24147000  0.00637900  1
  Li  Li49  1  0.24035400  0.50000000  0.50000000  1
  Li  Li50  1  0.75000000  0.00000000  0.50000000  1
  Li  Li51  1  0.25964600  0.00000000  0.00000000  1
  Li  Li52  1  0.00000000  0.50000000  0.25000000  1
  Li  Li53  1  0.99362100  0.24840200  0.24147000  1
  Li  Li54  1  0.50637900  0.25853000  0.74840200  1
  Li  Li55  1  0.74147000  0.74840200  0.49362100  1
  Ni  Ni0  1  0.50000000  0.50000000  0.50000000  1
  Ni  Ni1  1  0.00000000  0.00000000  0.00000000  1
  Ni  Ni2  1  0.50000000  0.00000000  0.75000000  1
  Ni  Ni3  1  0.25000000  0.50000000  0.00000000  1
  Ni  Ni4  1  0.50000000  0.00000000  0.25000000  1
  Ni  Ni5  1  0.00000000  0.75000000  0.50000000  1
  Ni  Ni6  1  0.00000000  0.25000000  0.50000000  1
  Ni  Ni7  1  0.75000000  0.50000000  0.00000000  1
  N  N0  1  0.85919900  0.38743300  0.11894000  1
  N  N1  1  0.14080100  0.38743300  0.88106000  1
  N  N2  1  0.11234900  0.11234900  0.11234900  1
  N  N3  1  0.61234900  0.38765100  0.38765100  1
  N  N4  1  0.61894000  0.11256700  0.64080100  1
  N  N5  1  0.11256700  0.64080100  0.61894000  1
  N  N6  1  0.88106000  0.14080100  0.38743300  1
  N  N7  1  0.88106000  0.85919900  0.61256700  1
  N  N8  1  0.38765100  0.61234900  0.38765100  1
  N  N9  1  0.88765100  0.88765100  0.11234900  1
  N  N10  1  0.38106000  0.88743300  0.64080100  1
  N  N11  1  0.61234900  0.61234900  0.61234900  1
  N  N12  1  0.85919900  0.61256700  0.88106000  1
  N  N13  1  0.38106000  0.11256700  0.35919900  1
  N  N14  1  0.88743300  0.35919900  0.61894000  1
  N  N15  1  0.11234900  0.88765100  0.88765100  1
  N  N16  1  0.38743300  0.11894000  0.85919900  1
  N  N17  1  0.64080100  0.61894000  0.11256700  1
  N  N18  1  0.64080100  0.38106000  0.88743300  1
  N  N19  1  0.11894000  0.85919900  0.38743300  1
  N  N20  1  0.88765100  0.11234900  0.88765100  1
  N  N21  1  0.61894000  0.88743300  0.35919900  1
  N  N22  1  0.11894000  0.14080100  0.61256700  1
  N  N23  1  0.88743300  0.64080100  0.38106000  1
  N  N24  1  0.35919900  0.61894000  0.88743300  1
  N  N25  1  0.61256700  0.11894000  0.14080100  1
  N  N26  1  0.14080100  0.61256700  0.11894000  1
  N  N27  1  0.38765100  0.38765100  0.61234900  1
  N  N28  1  0.61256700  0.88106000  0.85919900  1
  N  N29  1  0.35919900  0.38106000  0.11256700  1
  N  N30  1  0.38743300  0.88106000  0.14080100  1
  N  N31  1  0.11256700  0.35919900  0.38106000  1
loop_
_geom_bond_atom_site_label_1
_geom_bond_atom_site_label_2
_geom_bond_distance
_geom_bond_site_symmetry_2
Li0 N11 2.084668 1_555
Li0 N8 2.084668 1_555
Li0 N10 2.157992 1_555
Li0 N21 2.157992 1_555
Li1 N25 2.053619 1_555
Li1 N21 2.061636 1_545
Li1 N9 2.135953 1_545
Li1 N6 2.202816 1_555
Li2 N5 2.135258 1_555
Li2 N24 2.135258 1_555
Li2 N10 2.135258 1_555
Li2 N15 2.199861 1_555
Li3 N9 2.084668 1_455
Li3 N15 2.084668 1_554
Li3 N26 2.157992 1_555
Li3 N12 2.157992 1_454
Li4 N30 2.053619 1_555
Li4 N13 2.061636 1_565
Li4 N2 2.135953 1_565
Li4 N19 2.202816 1_555
Li5 N17 2.135258 1_555
Li5 N21 2.135258 1_555
Li5 N23 2.135258 1_555
Li5 N9 2.199861 1_555
Li6 N20 2.084668 1_455
Li6 N15 2.084668 1_545
Li6 N22 2.157992 1_555
Li6 N7 2.157992 1_445
Li7 N21 2.053619 1_555
Li7 N30 2.061636 1_555
Li7 N8 2.135953 1_555
Li7 N17 2.202816 1_555
Li8 N27 2.084668 1_555
Li8 N3 2.084668 1_555
Li8 N4 2.157992 1_555
Li8 N13 2.157992 1_555
Li9 N31 2.053619 1_555
Li9 N22 2.061636 1_555
Li9 N27 2.135953 1_555
Li9 N13 2.202816 1_555
Li10 N13 2.078040 1_555
Li10 N4 2.078040 1_555
Li10 N10 2.078040 1_545
Li10 N21 2.078040 1_545
Li11 N18 2.053619 1_555
Li11 N12 2.061636 1_555
Li11 N11 2.135953 1_555
Li11 N14 2.202816 1_555
Li12 N11 2.084668 1_555
Li12 N3 2.084668 1_555
Li12 N23 2.157992 1_555
Li12 N14 2.157992 1_555
Li13 N5 2.053619 1_555
Li13 N19 2.061636 1_555
Li13 N8 2.135953 1_555
Li13 N10 2.202816 1_555
Li14 N31 2.135258 1_555
Li14 N29 2.135258 1_555
Li14 N13 2.135258 1_555
Li14 N2 2.199861 1_555
Li15 N2 2.084668 1_555
Li15 N20 2.084668 1_454
Li15 N1 2.157992 1_554
Li15 N0 2.157992 1_455
Li16 N26 2.135258 1_555
Li16 N19 2.135258 1_555
Li16 N30 2.135258 1_555
Li16 N8 2.199861 1_555
Li17 N22 2.144474 1_555
Li17 N13 2.144474 1_555
Li17 N10 2.144474 1_545
Li17 N19 2.144474 1_545
Li18 N17 2.078040 1_555
Li18 N29 2.078040 1_555
Li18 N18 2.078040 1_554
Li18 N24 2.078040 1_554
Li19 N22 2.135258 1_555
Li19 N16 2.135258 1_555
Li19 N1 2.135258 1_555
Li19 N27 2.199861 1_555
Li20 N8 2.084668 1_555
Li20 N3 2.084668 1_555
Li20 N29 2.157992 1_555
Li20 N17 2.157992 1_555
Li21 N24 2.053619 1_555
Li21 N1 2.061636 1_555
Li21 N27 2.135953 1_555
Li21 N5 2.202816 1_555
Li22 N20 2.084668 1_554
Li22 N9 2.084668 1_545
Li22 N25 2.157992 1_555
Li22 N28 2.157992 1_544
Li23 N7 2.135258 1_555
Li23 N12 2.135258 1_555
Li23 N28 2.135258 1_555
Li23 N11 2.199861 1_555
Li24 N1 2.144474 1_555
Li24 N5 2.144474 1_555
Li24 N14 2.144474 1_455
Li24 N12 2.144474 1_455
Li25 N17 2.053619 1_555
Li25 N0 2.061636 1_555
Li25 N3 2.135953 1_555
Li25 N23 2.202816 1_555
Li26 N31 2.078040 1_555
Li26 N5 2.078040 1_555
Li26 N23 2.078040 1_455
Li26 N14 2.078040 1_455
Li27 N26 2.078040 1_555
Li27 N1 2.078040 1_554
Li27 N12 2.078040 1_454
Li27 N0 2.078040 1_455
Li28 N22 2.053619 1_555
Li28 N14 2.061636 1_455
Li28 N20 2.135953 1_455
Li28 N1 2.202816 1_555
Li29 N2 2.084668 1_555
Li29 N9 2.084668 1_445
Li29 N6 2.157992 1_455
Li29 N19 2.157992 1_545
Li30 N4 2.135258 1_555
Li30 N14 2.135258 1_555
Li30 N18 2.135258 1_555
Li30 N20 2.199861 1_555
Li31 N26 2.053619 1_555
Li31 N24 2.061636 1_554
Li31 N15 2.135953 1_554
Li31 N30 2.202816 1_555
Li32 N16 2.053619 1_555
Li32 N10 2.061636 1_545
Li32 N15 2.135953 1_545
Li32 N22 2.202816 1_555
Li33 N30 2.144474 1_555
Li33 N17 2.144474 1_555
Li33 N24 2.144474 1_554
Li33 N28 2.144474 1_554
Li34 N25 2.135258 1_555
Li34 N0 2.135258 1_555
Li34 N6 2.135258 1_555
Li34 N3 2.199861 1_555
Li35 N25 2.144474 1_555
Li35 N29 2.144474 1_555
Li35 N18 2.144474 1_554
Li35 N16 2.144474 1_554
Li36 N29 2.053619 1_555
Li36 N26 2.061636 1_555
Li36 N8 2.135953 1_555
Li36 N31 2.202816 1_555
Li37 N1 2.053619 1_555
Li37 N29 2.061636 1_556
Li37 N2 2.135953 1_556
Li37 N16 2.202816 1_555
Li38 N13 2.053619 1_555
Li38 N25 2.061636 1_555
Li38 N3 2.135953 1_555
Li38 N29 2.202816 1_555
Li39 N28 2.053619 1_555
Li39 N4 2.061636 1_565
Li39 N20 2.135953 1_565
Li39 N7 2.202816 1_555
Li40 N7 2.053619 1_555
Li40 N5 2.061636 1_655
Li40 N15 2.135953 1_655
Li40 N12 2.202816 1_555
Li41 N12 2.053619 1_555
Li41 N17 2.061636 1_556
Li41 N9 2.135953 1_556
Li41 N28 2.202816 1_555
Li42 N14 2.053619 1_555
Li42 N6 2.061636 1_555
Li42 N3 2.135953 1_555
Li42 N4 2.202816 1_555
Li43 N19 2.053619 1_555
Li43 N23 2.061636 1_455
Li43 N9 2.135953 1_455
Li43 N26 2.202816 1_555
Li44 N11 2.084668 1_555
Li44 N27 2.084668 1_555
Li44 N18 2.157992 1_555
Li44 N24 2.157992 1_555
Li45 N22 2.078040 1_555
Li45 N6 2.078040 1_455
Li45 N7 2.078040 1_445
Li45 N19 2.078040 1_545
Li46 N25 2.078040 1_555
Li46 N30 2.078040 1_545
Li46 N28 2.078040 1_544
Li46 N16 2.078040 1_554
Li47 N10 2.053619 1_555
Li47 N28 2.061636 1_555
Li47 N11 2.135953 1_555
Li47 N24 2.202816 1_555
Li48 N0 2.053619 1_555
Li48 N18 2.061636 1_554
Li48 N20 2.135953 1_554
Li48 N25 2.202816 1_555
Li49 N27 2.084668 1_555
Li49 N8 2.084668 1_555
Li49 N31 2.157992 1_555
Li49 N5 2.157992 1_555
Li50 N6 2.144474 1_555
Li50 N4 2.144474 1_555
Li50 N21 2.144474 1_545
Li50 N7 2.144474 1_545
Li51 N2 2.084668 1_555
Li51 N15 2.084668 1_544
Li51 N30 2.157992 1_545
Li51 N16 2.157992 1_554
Li52 N26 2.144474 1_555
Li52 N31 2.144474 1_555
Li52 N23 2.144474 1_455
Li52 N0 2.144474 1_455
Li53 N6 2.053619 1_555
Li53 N31 2.061636 1_655
Li53 N2 2.135953 1_655
Li53 N0 2.202816 1_555
Li54 N4 2.053619 1_555
Li54 N16 2.061636 1_555
Li54 N27 2.135953 1_555
Li54 N18 2.202816 1_555
Li55 N23 2.053619 1_555
Li55 N7 2.061636 1_555
Li55 N11 2.135953 1_555
Li55 N21 2.202816 1_555
N0 Ni7 1.893889 1_555
N1 Ni3 1.893889 1_556
N2 Ni1 1.872365 1_555
N3 Ni0 1.872365 1_555
N4 Ni2 1.893889 1_555
N5 Ni5 1.893889 1_555
N6 Ni6 1.893889 1_655
N7 Ni5 1.893889 1_655
N8 Ni0 1.872365 1_555
N9 Ni1 1.872365 1_665
N10 Ni2 1.893889 1_565
N11 Ni0 1.872365 1_555
N12 Ni7 1.893889 1_556
N13 Ni4 1.893889 1_555
N14 Ni6 1.893889 1_655
N15 Ni1 1.872365 1_566
N16 Ni2 1.893889 1_555
N17 Ni7 1.893889 1_555
N18 Ni7 1.893889 1_556
N19 Ni5 1.893889 1_555
N20 Ni1 1.872365 1_656
N21 Ni4 1.893889 1_565
N22 Ni6 1.893889 1_555
N23 Ni5 1.893889 1_655
N24 Ni3 1.893889 1_556
N25 Ni4 1.893889 1_555
N26 Ni3 1.893889 1_555
N27 Ni0 1.872365 1_555
N28 Ni2 1.893889 1_565
N29 Ni3 1.893889 1_555
N30 Ni4 1.893889 1_565
N31 Ni6 1.893889 1_555
