# generated using pymatgen
data_Er5(NiTe)2
_symmetry_space_group_name_H-M   'P 1'
_cell_length_a   7.70141010
_cell_length_b   7.70141010
_cell_length_c   14.85696500
_cell_angle_alpha   90.00000000
_cell_angle_beta   90.00000000
_cell_angle_gamma   150.19019339
_symmetry_Int_Tables_number   1
_chemical_formula_structural   Er5(NiTe)2
_chemical_formula_sum   'Er10 Ni4 Te4'
_cell_volume   438.06040645
_cell_formula_units_Z   2
loop_
 _symmetry_equiv_pos_site_id
 _symmetry_equiv_pos_as_xyz
  1  'x, y, z'
loop_
 _atom_site_type_symbol
 _atom_site_label
 _atom_site_symmetry_multiplicity
 _atom_site_fract_x
 _atom_site_fract_y
 _atom_site_fract_z
 _atom_site_occupancy
  Er  Er0  1  0.04050300  0.95949700  0.87439600  1
  Er  Er1  1  0.95949700  0.04050300  0.12560400  1
  Er  Er2  1  0.74001400  0.25998600  0.62923400  1
  Er  Er3  1  0.95949700  0.04050300  0.37439600  1
  Er  Er4  1  0.39345800  0.60654200  0.75000000  1
  Er  Er5  1  0.25998600  0.74001400  0.37076600  1
  Er  Er6  1  0.25998600  0.74001400  0.12923400  1
  Er  Er7  1  0.74001400  0.25998600  0.87076600  1
  Er  Er8  1  0.60654200  0.39345800  0.25000000  1
  Er  Er9  1  0.04050300  0.95949700  0.62560400  1
  Ni  Ni0  1  0.41364900  0.58635100  0.25000000  1
  Ni  Ni1  1  0.18676100  0.81323900  0.75000000  1
  Ni  Ni2  1  0.58635100  0.41364900  0.75000000  1
  Ni  Ni3  1  0.81323900  0.18676100  0.25000000  1
  Te  Te0  1  0.38439500  0.61560500  0.53980900  1
  Te  Te1  1  0.61560500  0.38439500  0.46019100  1
  Te  Te2  1  0.38439500  0.61560500  0.96019100  1
  Te  Te3  1  0.61560500  0.38439500  0.03980900  1
loop_
_geom_bond_atom_site_label_1
_geom_bond_atom_site_label_2
_geom_bond_distance
_geom_bond_site_symmetry_2
Er0 Ni2 2.793816 1_455
Er0 Ni2 2.793816 1_565
Er0 Ni1 2.855683 1_555
Er0 Te2 3.308764 1_455
Er0 Te2 3.308764 1_565
Er0 Te3 3.348604 1_456
Er0 Te3 3.348604 1_566
Er1 Ni0 2.793816 1_545
Er1 Ni0 2.793816 1_655
Er1 Ni3 2.855683 1_555
Er1 Te3 3.308764 1_545
Er1 Te3 3.308764 1_655
Er1 Te2 3.348604 1_544
Er1 Te2 3.348604 1_654
Er2 Ni1 2.787751 1_655
Er2 Ni1 2.787751 1_545
Er2 Ni2 2.906981 1_555
Er2 Te1 3.120342 1_555
Er2 Te0 3.210546 1_655
Er2 Te0 3.210546 1_545
Er3 Ni0 2.793816 1_545
Er3 Ni0 2.793816 1_655
Er3 Ni3 2.855683 1_555
Er3 Te1 3.308764 1_545
Er3 Te1 3.308764 1_655
Er3 Te0 3.348604 1_545
Er3 Te0 3.348604 1_655
Er4 Ni2 2.871131 1_555
Er4 Ni1 3.076598 1_555
Er4 Te2 3.125713 1_555
Er4 Te0 3.125713 1_555
Er5 Ni3 2.787751 1_565
Er5 Ni3 2.787751 1_455
Er5 Ni0 2.906981 1_555
Er5 Te0 3.120342 1_555
Er5 Te1 3.210546 1_565
Er5 Te1 3.210546 1_455
Er6 Ni3 2.787751 1_565
Er6 Ni3 2.787751 1_455
Er6 Ni0 2.906981 1_555
Er6 Te2 3.120342 1_554
Er6 Te3 3.210546 1_455
Er6 Te3 3.210546 1_565
Er7 Ni1 2.787751 1_655
Er7 Ni1 2.787751 1_545
Er7 Ni2 2.906981 1_555
Er7 Te3 3.120342 1_556
Er7 Te2 3.210546 1_545
Er7 Te2 3.210546 1_655
Er8 Ni0 2.871131 1_555
Er8 Ni3 3.076598 1_555
Er8 Te1 3.125713 1_555
Er8 Te3 3.125713 1_555
Er9 Ni2 2.793816 1_455
Er9 Ni2 2.793816 1_565
Er9 Ni1 2.855683 1_555
Er9 Te0 3.308764 1_455
Er9 Te0 3.308764 1_565
Er9 Te1 3.348604 1_455
Er9 Te1 3.348604 1_565
Ni0 Ni3 2.481484 1_565
Ni0 Ni3 2.481484 1_455
Ni1 Ni2 2.481484 1_455
Ni1 Ni2 2.481484 1_565
