# generated using pymatgen
data_TeC6(ClF7)2
_symmetry_space_group_name_H-M   'P 1'
_cell_length_a   10.98856095
_cell_length_b   10.98856095
_cell_length_c   8.38769767
_cell_angle_alpha   75.51378301
_cell_angle_beta   75.51378301
_cell_angle_gamma   50.68653752
_symmetry_Int_Tables_number   1
_chemical_formula_structural   TeC6(ClF7)2
_chemical_formula_sum   'Te2 C12 Cl4 F28'
_cell_volume   752.98228481
_cell_formula_units_Z   2
loop_
 _symmetry_equiv_pos_site_id
 _symmetry_equiv_pos_as_xyz
  1  'x, y, z'
loop_
 _atom_site_type_symbol
 _atom_site_label
 _atom_site_symmetry_multiplicity
 _atom_site_fract_x
 _atom_site_fract_y
 _atom_site_fract_z
 _atom_site_occupancy
  Te  Te0  1  0.36134800  0.63865200  0.25000000  1
  Te  Te1  1  0.63865200  0.36134800  0.75000000  1
  C  C0  1  0.11802100  0.59169800  0.19103500  1
  C  C1  1  0.62108200  0.95533400  0.71594600  1
  C  C2  1  0.10881800  0.73380600  0.21492600  1
  C  C3  1  0.88197900  0.40830200  0.80896500  1
  C  C4  1  0.04466600  0.37891800  0.78405400  1
  C  C5  1  0.40830200  0.88197900  0.30896500  1
  C  C6  1  0.89118200  0.26619400  0.78507400  1
  C  C7  1  0.59169800  0.11802100  0.69103500  1
  C  C8  1  0.37891800  0.04466600  0.28405400  1
  C  C9  1  0.73380600  0.10881800  0.71492600  1
  C  C10  1  0.26619400  0.89118200  0.28507400  1
  C  C11  1  0.95533400  0.62108200  0.21594600  1
  Cl  Cl0  1  0.60324800  0.28241200  0.05362100  1
  Cl  Cl1  1  0.28241200  0.60324800  0.55362100  1
  Cl  Cl2  1  0.71758800  0.39675200  0.44637900  1
  Cl  Cl3  1  0.39675200  0.71758800  0.94637900  1
  F  F0  1  0.15525200  0.94198500  0.41847500  1
  F  F1  1  0.25050000  0.14283000  0.38713700  1
  F  F2  1  0.99184700  0.19918700  0.64874100  1
  F  F3  1  0.49297900  0.98017800  0.68056000  1
  F  F4  1  0.05801500  0.84474800  0.08152500  1
  F  F5  1  0.44638600  0.81159200  0.46560300  1
  F  F6  1  0.19918700  0.99184700  0.14874100  1
  F  F7  1  0.53508100  0.78899800  0.19816400  1
  F  F8  1  0.80081300  0.00815300  0.85125900  1
  F  F9  1  0.00815300  0.80081300  0.35125900  1
  F  F10  1  0.14283000  0.25050000  0.88713700  1
  F  F11  1  0.81159200  0.44638600  0.96560300  1
  F  F12  1  0.85717000  0.74950000  0.11286300  1
  F  F13  1  0.78899800  0.53508100  0.69816400  1
  F  F14  1  0.64482200  0.88559400  0.87367300  1
  F  F15  1  0.35517800  0.11440600  0.12632700  1
  F  F16  1  0.74950000  0.85717000  0.61286300  1
  F  F17  1  0.21100200  0.46491900  0.30183600  1
  F  F18  1  0.01982200  0.50702100  0.81944000  1
  F  F19  1  0.55361400  0.18840800  0.53439700  1
  F  F20  1  0.50702100  0.01982200  0.31944000  1
  F  F21  1  0.18840800  0.55361400  0.03439700  1
  F  F22  1  0.46491900  0.21100200  0.80183600  1
  F  F23  1  0.94198500  0.15525200  0.91847500  1
  F  F24  1  0.88559400  0.64482200  0.37367300  1
  F  F25  1  0.11440600  0.35517800  0.62632700  1
  F  F26  1  0.98017800  0.49297900  0.18056000  1
  F  F27  1  0.84474800  0.05801500  0.58152500  1
loop_
_geom_bond_atom_site_label_1
_geom_bond_atom_site_label_2
_geom_bond_distance
_geom_bond_site_symmetry_2
C0 F21 1.362370 1_555
C0 F17 1.368260 1_555
C1 F14 1.348220 1_555
C1 F3 1.351182 1_555
C1 F16 1.352719 1_555
C2 F4 1.348162 1_555
C2 F9 1.352682 1_555
C2 Te0 2.336259 1_555
C3 F11 1.362370 1_555
C3 F13 1.368260 1_555
C4 F25 1.348220 1_555
C4 F18 1.351182 1_555
C4 F10 1.352719 1_555
C5 F5 1.362370 1_555
C5 F7 1.368260 1_555
C6 F23 1.348162 1_555
C6 F2 1.352682 1_555
C6 Te1 2.336259 1_555
C7 F19 1.362370 1_555
C7 F22 1.368260 1_555
C8 F15 1.348220 1_555
C8 F20 1.351182 1_555
C8 F1 1.352719 1_555
C9 F27 1.348162 1_555
C9 F8 1.352682 1_555
C9 Te1 2.336259 1_555
C10 F0 1.348162 1_555
C10 F6 1.352682 1_555
C10 Te0 2.336259 1_555
C11 F24 1.348220 1_555
C11 F26 1.351182 1_555
C11 F12 1.352719 1_555
Cl0 Te1 2.493209 1_554
Cl1 Te0 2.493209 1_555
Cl2 Te1 2.493209 1_555
Cl3 Te0 2.493209 1_556
