# generated using pymatgen
data_Sr2HoSbO6
_symmetry_space_group_name_H-M   'P 1'
_cell_length_a   5.90807000
_cell_length_b   5.85920400
_cell_length_c   10.15173825
_cell_angle_alpha   54.93988248
_cell_angle_beta   90.00000000
_cell_angle_gamma   90.00000000
_symmetry_Int_Tables_number   1
_chemical_formula_structural   Sr2HoSbO6
_chemical_formula_sum   'Sr4 Ho2 Sb2 O12'
_cell_volume   287.65355997
_cell_formula_units_Z   2
loop_
 _symmetry_equiv_pos_site_id
 _symmetry_equiv_pos_as_xyz
  1  'x, y, z'
loop_
 _atom_site_type_symbol
 _atom_site_label
 _atom_site_symmetry_multiplicity
 _atom_site_fract_x
 _atom_site_fract_y
 _atom_site_fract_z
 _atom_site_occupancy
  Sr  Sr0  1  0.46884600  0.24242700  0.25036000  1
  Sr  Sr1  1  0.96884600  0.75757300  0.24964000  1
  Sr  Sr2  1  0.53115400  0.75757300  0.74964000  1
  Sr  Sr3  1  0.03115400  0.24242700  0.75036000  1
  Ho  Ho0  1  0.50000000  0.50000000  0.50000000  1
  Ho  Ho1  1  0.00000000  0.50000000  0.00000000  1
  Sb  Sb0  1  0.00000000  0.00000000  0.50000000  1
  Sb  Sb1  1  0.50000000  0.00000000  0.00000000  1
  O  O0  1  0.01981700  0.31129100  0.26358500  1
  O  O1  1  0.98018300  0.68870900  0.73641500  1
  O  O2  1  0.22670400  0.15891000  0.04059000  1
  O  O3  1  0.20238800  0.76685200  0.46132000  1
  O  O4  1  0.72670400  0.84109000  0.45941000  1
  O  O5  1  0.48018300  0.31129100  0.76358500  1
  O  O6  1  0.77329600  0.84109000  0.95941000  1
  O  O7  1  0.29761200  0.76685200  0.96132000  1
  O  O8  1  0.70238800  0.23314800  0.03868000  1
  O  O9  1  0.51981700  0.68870900  0.23641500  1
  O  O10  1  0.27329600  0.15891000  0.54059000  1
  O  O11  1  0.79761200  0.23314800  0.53868000  1
loop_
_geom_bond_atom_site_label_1
_geom_bond_atom_site_label_2
_geom_bond_distance
_geom_bond_site_symmetry_2
Ho0 O11 2.232746 1_555
Ho0 O3 2.232746 1_555
Ho0 O5 2.235464 1_555
Ho0 O9 2.235464 1_555
Ho0 O4 2.238683 1_555
Ho0 O10 2.238683 1_555
Ho1 O7 2.232746 1_554
Ho1 O8 2.232746 1_455
Ho1 O1 2.235464 1_454
Ho1 O0 2.235464 1_555
Ho1 O2 2.238683 1_555
Ho1 O6 2.238683 1_454
O0 Sb0 2.017765 1_555
O0 Sr1 2.554001 1_455
O0 Sr0 2.698317 1_555
O1 Sb0 2.017765 1_665
O1 Sr3 2.554001 1_655
O1 Sr2 2.698317 1_555
O2 Sb1 2.021038 1_555
O2 Sr1 2.573122 1_445
O2 Sr0 2.831634 1_555
O2 Sr3 2.932360 1_554
O3 Sb0 2.016515 1_565
O3 Sr1 2.580472 1_455
O3 Sr0 2.823707 1_565
O3 Sr3 2.952376 1_555
O4 Sb0 2.021038 1_665
O4 Sr0 2.573122 1_565
O4 Sr1 2.831634 1_555
O4 Sr2 2.932360 1_555
O5 Sb1 2.017765 1_556
O5 Sr2 2.554001 1_555
O5 Sr3 2.698317 1_555
O6 Sb1 2.021038 1_566
O6 Sr3 2.573122 1_665
O6 Sr2 2.831634 1_555
O6 Sr1 2.932360 1_556
O7 Sb1 2.016515 1_566
O7 Sr2 2.580472 1_555
O7 Sr3 2.823707 1_565
O7 Sr0 2.952376 1_556
O8 Sb1 2.016515 1_555
O8 Sr0 2.580472 1_555
O8 Sr1 2.823707 1_545
O8 Sr2 2.952376 1_554
O9 Sb1 2.017765 1_565
O9 Sr0 2.554001 1_555
O9 Sr1 2.698317 1_555
O10 Sb0 2.021038 1_555
O10 Sr2 2.573122 1_545
O10 Sr3 2.831634 1_555
O10 Sr0 2.932360 1_555
O11 Sb0 2.016515 1_655
O11 Sr3 2.580472 1_655
O11 Sr2 2.823707 1_545
O11 Sr1 2.952376 1_555
