# generated using pymatgen
data_Ho10Ti6O27
_symmetry_space_group_name_H-M   'P 1'
_cell_length_a   7.24163497
_cell_length_b   7.24163497
_cell_length_c   24.77908074
_cell_angle_alpha   82.61410411
_cell_angle_beta   82.61410411
_cell_angle_gamma   60.39498639
_symmetry_Int_Tables_number   1
_chemical_formula_structural   Ho10Ti6O27
_chemical_formula_sum   'Ho20 Ti12 O54'
_cell_volume   1117.23930571
_cell_formula_units_Z   2
loop_
 _symmetry_equiv_pos_site_id
 _symmetry_equiv_pos_as_xyz
  1  'x, y, z'
loop_
 _atom_site_type_symbol
 _atom_site_label
 _atom_site_symmetry_multiplicity
 _atom_site_fract_x
 _atom_site_fract_y
 _atom_site_fract_z
 _atom_site_occupancy
  Ho  Ho0  1  0.74429700  0.24188700  0.75388600  1
  Ho  Ho1  1  0.00283800  0.00283800  0.00099100  1
  Ho  Ho2  1  0.89518300  0.35947400  0.88109300  1
  Ho  Ho3  1  0.49114200  0.49114200  0.00971800  1
  Ho  Ho4  1  0.24188700  0.74429700  0.75388600  1
  Ho  Ho5  1  0.75800500  0.75800500  0.74247500  1
  Ho  Ho6  1  0.12575900  0.12575900  0.61262900  1
  Ho  Ho7  1  0.35947400  0.89518300  0.88109300  1
  Ho  Ho8  1  0.63107600  0.11136000  0.61667500  1
  Ho  Ho9  1  0.24862600  0.24862600  0.75324500  1
  Ho  Ho10  1  0.11136000  0.63107600  0.61667500  1
  Ho  Ho11  1  0.87867800  0.87867800  0.36950500  1
  Ho  Ho12  1  0.36842900  0.87250100  0.37253200  1
  Ho  Ho13  1  0.99494400  0.99494400  0.49640500  1
  Ho  Ho14  1  0.62123300  0.62123300  0.12818500  1
  Ho  Ho15  1  0.87250100  0.36842900  0.37253200  1
  Ho  Ho16  1  0.24744400  0.24744400  0.25292100  1
  Ho  Ho17  1  0.12043600  0.63613900  0.13683500  1
  Ho  Ho18  1  0.73364700  0.73364700  0.24992300  1
  Ho  Ho19  1  0.63613900  0.12043600  0.13683500  1
  Ti  Ti0  1  0.97760800  0.47603400  0.01268300  1
  Ti  Ti1  1  0.47603400  0.97760800  0.01268300  1
  Ti  Ti2  1  0.38025100  0.38025100  0.85880300  1
  Ti  Ti3  1  0.49871800  0.00472200  0.49217300  1
  Ti  Ti4  1  0.87932500  0.87932500  0.87459500  1
  Ti  Ti5  1  0.37181400  0.37181400  0.36488800  1
  Ti  Ti6  1  0.00472200  0.49871800  0.49217300  1
  Ti  Ti7  1  0.49753200  0.49753200  0.48900000  1
  Ti  Ti8  1  0.64064000  0.64064000  0.61658000  1
  Ti  Ti9  1  0.25629400  0.71998300  0.25770700  1
  Ti  Ti10  1  0.11220900  0.11220900  0.13574400  1
  Ti  Ti11  1  0.71998300  0.25629400  0.25770700  1
  O  O0  1  0.65926300  0.28447000  0.85750800  1
  O  O1  1  0.81746000  0.35991200  0.97010500  1
  O  O2  1  0.28447000  0.65926300  0.85750800  1
  O  O3  1  0.49939500  0.91365300  0.58136300  1
  O  O4  1  0.00992600  0.00992600  0.90514600  1
  O  O5  1  0.42657800  0.88312400  0.78393300  1
  O  O6  1  0.90506300  0.90506300  0.79159300  1
  O  O7  1  0.35991200  0.81746000  0.97010500  1
  O  O8  1  0.60584100  0.96958500  0.89738600  1
  O  O9  1  0.22883100  0.22883100  0.84795500  1
  O  O10  1  0.88312400  0.42657800  0.78393300  1
  O  O11  1  0.57531600  0.12057800  0.70715800  1
  O  O12  1  0.91365300  0.49939500  0.58136300  1
  O  O13  1  0.22429600  0.68055200  0.34391300  1
  O  O14  1  0.80923600  0.80923600  0.48554700  1
  O  O15  1  0.19891200  0.59296700  0.52159800  1
  O  O16  1  0.76184300  0.76184300  0.65567600  1
  O  O17  1  0.96958500  0.60584100  0.89738600  1
  O  O18  1  0.12057800  0.57531600  0.70715800  1
  O  O19  1  0.40744400  0.40744400  0.78089700  1
  O  O20  1  0.48816200  0.48816200  0.61063000  1
  O  O21  1  0.29671200  0.88114100  0.67663300  1
  O  O22  1  0.96754900  0.96754900  0.59071600  1
  O  O23  1  0.59296700  0.19891200  0.52159800  1
  O  O24  1  0.40689400  0.79950000  0.48382800  1
  O  O25  1  0.68055200  0.22429600  0.34391300  1
  O  O26  1  0.02795200  0.02795200  0.41071600  1
  O  O27  1  0.49411100  0.49411100  0.41686700  1
  O  O28  1  0.89662700  0.36842900  0.27908900  1
  O  O29  1  0.97261900  0.39250600  0.08470500  1
  O  O30  1  0.56756400  0.56756400  0.22031900  1
  O  O31  1  0.22813500  0.22813500  0.34614400  1
  O  O32  1  0.18950500  0.18950500  0.51816400  1
  O  O33  1  0.79950000  0.40689400  0.48382800  1
  O  O34  1  0.88114100  0.29671200  0.67663300  1
  O  O35  1  0.08766300  0.49350000  0.42029400  1
  O  O36  1  0.71594100  0.71594100  0.34632000  1
  O  O37  1  0.36842900  0.89662700  0.27908900  1
  O  O38  1  0.39250600  0.97261900  0.08470500  1
  O  O39  1  0.09527300  0.60052600  0.22613600  1
  O  O40  1  0.77557400  0.77557400  0.15525800  1
  O  O41  1  0.63486400  0.11580900  0.01116700  1
  O  O42  1  0.24911300  0.24911300  0.16168400  1
  O  O43  1  0.98216900  0.98216900  0.09076100  1
  O  O44  1  0.95239400  0.95239400  0.27740300  1
  O  O45  1  0.49350000  0.08766300  0.42029400  1
  O  O46  1  0.60052600  0.09527300  0.22613600  1
  O  O47  1  0.46226000  0.46226000  0.09749400  1
  O  O48  1  0.84072400  0.23905400  0.17363600  1
  O  O49  1  0.11580800  0.63486400  0.01116700  1
  O  O50  1  0.40799600  0.40799600  0.28440200  1
  O  O51  1  0.68026600  0.68026600  0.02733500  1
  O  O52  1  0.23905400  0.84072400  0.17363600  1
  O  O53  1  0.20834300  0.20834300  0.98884700  1
loop_
_geom_bond_atom_site_label_1
_geom_bond_atom_site_label_2
_geom_bond_distance
_geom_bond_site_symmetry_2
Ho0 O34 2.123595 1_555
Ho0 O19 2.175504 1_555
Ho0 O6 2.250751 1_545
Ho0 O10 2.265132 1_555
Ho0 O11 2.301688 1_555
Ho0 O0 2.583910 1_555
Ho1 O43 2.200858 1_445
Ho1 O7 2.323753 1_544
Ho1 O1 2.323753 1_454
Ho1 O41 2.357971 1_455
Ho1 O49 2.357972 1_545
Ho1 O4 2.363383 1_554
Ho1 O53 2.545178 1_554
Ho2 O0 2.193285 1_555
Ho2 O17 2.197084 1_555
Ho2 O9 2.199603 1_655
Ho2 O1 2.205105 1_555
Ho2 O4 2.261509 1_655
Ho2 O10 2.398193 1_555
Ho3 O47 2.151152 1_555
Ho3 O1 2.208026 1_554
Ho3 O7 2.208026 1_554
Ho3 O41 2.379425 1_555
Ho3 O49 2.379432 1_555
Ho3 O51 2.470361 1_555
Ho4 O21 2.123595 1_555
Ho4 O19 2.175504 1_555
Ho4 O6 2.250751 1_455
Ho4 O5 2.265132 1_555
Ho4 O18 2.301688 1_555
Ho4 O2 2.583910 1_555
Ho5 O16 2.144180 1_555
Ho5 O10 2.256863 1_555
Ho5 O5 2.256863 1_555
Ho5 O6 2.352985 1_555
Ho5 O11 2.384287 1_565
Ho5 O18 2.384287 1_655
Ho6 O22 2.129998 1_445
Ho6 O34 2.191247 1_455
Ho6 O21 2.191247 1_545
Ho6 O32 2.358019 1_555
Ho6 O3 2.437466 1_545
Ho6 O12 2.437466 1_455
Ho7 O2 2.193285 1_555
Ho7 O8 2.197084 1_555
Ho7 O9 2.199603 1_565
Ho7 O7 2.205105 1_555
Ho7 O4 2.261509 1_565
Ho7 O5 2.398193 1_555
Ho8 O22 2.167369 1_545
Ho8 O11 2.230142 1_555
Ho8 O16 2.339928 1_545
Ho8 O3 2.368612 1_545
Ho8 O23 2.374605 1_555
Ho8 O20 2.384051 1_555
Ho9 O19 2.197062 1_555
Ho9 O11 2.273989 1_555
Ho9 O18 2.273989 1_555
Ho9 O9 2.322931 1_555
Ho9 O5 2.368336 1_545
Ho9 O10 2.368336 1_455
Ho10 O22 2.167369 1_455
Ho10 O18 2.230142 1_555
Ho10 O16 2.339928 1_455
Ho10 O12 2.368612 1_455
Ho10 O15 2.374605 1_555
Ho10 O20 2.384051 1_555
Ho11 O36 2.197279 1_555
Ho11 O13 2.236678 1_655
Ho11 O25 2.236678 1_565
Ho11 O26 2.258768 1_665
Ho11 O44 2.330985 1_555
Ho11 O35 2.659100 1_655
Ho11 O45 2.659100 1_565
Ho11 O14 2.877516 1_555
Ho12 O36 2.233915 1_555
Ho12 O26 2.274507 1_565
Ho12 O31 2.290182 1_565
Ho12 O37 2.299509 1_555
Ho12 O13 2.324162 1_555
Ho12 O27 2.561785 1_555
Ho12 O45 2.606297 1_565
Ho12 O24 2.764013 1_555
Ho13 O26 2.101934 1_665
Ho13 O22 2.310951 1_555
Ho13 O14 2.379602 1_555
Ho13 O23 2.562573 1_565
Ho13 O15 2.562573 1_655
Ho13 O32 2.571557 1_665
Ho13 O33 2.588900 1_565
Ho13 O24 2.588900 1_655
Ho14 O40 2.137350 1_555
Ho14 O47 2.233526 1_555
Ho14 O30 2.281921 1_555
Ho14 O29 2.443140 1_555
Ho14 O38 2.443140 1_555
Ho14 O51 2.498319 1_555
Ho14 O52 2.601328 1_555
Ho14 O48 2.601328 1_555
Ho15 O36 2.233915 1_555
Ho15 O26 2.274507 1_655
Ho15 O31 2.290182 1_655
Ho15 O28 2.299509 1_555
Ho15 O25 2.324162 1_555
Ho15 O27 2.561785 1_555
Ho15 O35 2.606297 1_655
Ho15 O33 2.764013 1_555
Ho16 O42 2.257756 1_555
Ho16 O50 2.261421 1_555
Ho16 O46 2.271643 1_555
Ho16 O39 2.271643 1_555
Ho16 O37 2.272774 1_545
Ho16 O28 2.272774 1_455
Ho16 O31 2.286557 1_555
Ho17 O39 2.189115 1_555
Ho17 O40 2.190590 1_455
Ho17 O47 2.297566 1_555
Ho17 O52 2.360185 1_555
Ho17 O43 2.380018 1_455
Ho17 O42 2.495196 1_555
Ho18 O30 2.305216 1_555
Ho18 O46 2.321546 1_565
Ho18 O39 2.321546 1_655
Ho18 O40 2.326284 1_555
Ho18 O28 2.356663 1_555
Ho18 O37 2.356663 1_555
Ho18 O36 2.365838 1_555
Ho19 O46 2.189115 1_555
Ho19 O40 2.190590 1_545
Ho19 O47 2.297566 1_555
Ho19 O48 2.360185 1_555
Ho19 O43 2.380018 1_545
Ho19 O42 2.495196 1_555
O0 Ti2 1.780150 1_555
O0 Ti4 2.561489 1_545
O1 Ti0 2.161362 1_556
O2 Ti2 1.780150 1_555
O2 Ti4 2.561489 1_455
O3 Ti8 1.871996 1_555
O3 Ti3 2.223537 1_565
O4 Ti4 1.901040 1_445
O6 Ti4 2.033902 1_555
O7 Ti1 2.161362 1_556
O8 Ti4 1.787951 1_555
O9 Ti2 1.953601 1_555
O12 Ti8 1.871996 1_555
O12 Ti6 2.223537 1_655
O13 Ti5 1.973361 1_555
O13 Ti9 2.116476 1_555
O14 Ti3 1.976635 1_565
O14 Ti6 1.976635 1_655
O15 Ti7 2.006059 1_555
O15 Ti6 2.077226 1_555
O16 Ti8 1.917713 1_555
O17 Ti4 1.787951 1_555
O19 Ti2 1.909710 1_555
O20 Ti8 1.936122 1_555
O23 Ti7 2.006059 1_555
O23 Ti3 2.077226 1_555
O24 Ti7 1.939207 1_555
O24 Ti3 1.945328 1_565
O25 Ti5 1.973361 1_555
O25 Ti11 2.116476 1_555
O27 Ti7 1.794259 1_555
O27 Ti5 2.142220 1_555
O28 Ti11 1.971713 1_555
O29 Ti0 1.810965 1_555
O29 Ti10 2.093514 1_655
O30 Ti9 2.103649 1_555
O30 Ti11 2.103649 1_555
O31 Ti5 1.923279 1_555
O32 Ti6 2.027244 1_555
O32 Ti3 2.027244 1_555
O33 Ti7 1.939207 1_555
O33 Ti6 1.945328 1_655
O35 Ti6 1.803973 1_555
O35 Ti5 2.165351 1_555
O37 Ti9 1.971713 1_555
O38 Ti1 1.810965 1_555
O38 Ti10 2.093514 1_565
O39 Ti9 2.031054 1_555
O41 Ti1 1.855401 1_545
O42 Ti10 1.917744 1_555
O43 Ti10 2.105221 1_665
O44 Ti11 2.046819 1_565
O44 Ti9 2.046819 1_655
O45 Ti3 1.803973 1_555
O45 Ti5 2.165351 1_555
O46 Ti11 2.031054 1_555
O48 Ti10 1.885032 1_655
O48 Ti11 2.147215 1_555
O49 Ti0 1.855395 1_455
O50 Ti5 1.978369 1_555
O50 Ti11 2.024630 1_555
O50 Ti9 2.024630 1_555
O51 Ti1 1.935511 1_555
O51 Ti0 1.935511 1_555
O52 Ti10 1.885032 1_565
O52 Ti9 2.147215 1_555
O53 Ti0 1.933632 1_456
O53 Ti1 1.933632 1_546
