# generated using pymatgen
data_CaNb4O8
_symmetry_space_group_name_H-M   'P 1'
_cell_length_a   7.19644400
_cell_length_b   10.44421700
_cell_length_c   13.30091900
_cell_angle_alpha   90.00000000
_cell_angle_beta   90.00000000
_cell_angle_gamma   90.00000000
_symmetry_Int_Tables_number   1
_chemical_formula_structural   CaNb4O8
_chemical_formula_sum   'Ca6 Nb24 O48'
_cell_volume   999.71333593
_cell_formula_units_Z   6
loop_
 _symmetry_equiv_pos_site_id
 _symmetry_equiv_pos_as_xyz
  1  'x, y, z'
loop_
 _atom_site_type_symbol
 _atom_site_label
 _atom_site_symmetry_multiplicity
 _atom_site_fract_x
 _atom_site_fract_y
 _atom_site_fract_z
 _atom_site_occupancy
  Ca  Ca0  1  0.50000000  0.00000000  0.50320900  1
  Ca  Ca1  1  0.00000000  0.50000000  0.74760700  1
  Ca  Ca2  1  0.00000000  0.50000000  0.01595300  1
  Ca  Ca3  1  0.50000000  0.00000000  0.98404700  1
  Ca  Ca4  1  0.00000000  0.50000000  0.49679100  1
  Ca  Ca5  1  0.50000000  0.00000000  0.25239300  1
  Nb  Nb0  1  0.22927400  0.21925200  0.62658300  1
  Nb  Nb1  1  0.22927400  0.78074800  0.62658300  1
  Nb  Nb2  1  0.00000000  0.00000000  0.72690300  1
  Nb  Nb3  1  0.72464000  0.28036700  0.87378500  1
  Nb  Nb4  1  0.27536000  0.28036700  0.87378500  1
  Nb  Nb5  1  0.50000000  0.50000000  0.97373100  1
  Nb  Nb6  1  0.22464000  0.21963300  0.12621500  1
  Nb  Nb7  1  0.22464000  0.78036700  0.12621500  1
  Nb  Nb8  1  0.00000000  0.00000000  0.22248900  1
  Nb  Nb9  1  0.50000000  0.50000000  0.27309700  1
  Nb  Nb10  1  0.27072600  0.71925200  0.37341700  1
  Nb  Nb11  1  0.72927400  0.71925200  0.37341700  1
  Nb  Nb12  1  0.72927400  0.28074800  0.37341700  1
  Nb  Nb13  1  0.27072600  0.28074800  0.37341700  1
  Nb  Nb14  1  0.50000000  0.50000000  0.47081600  1
  Nb  Nb15  1  0.00000000  0.00000000  0.52918400  1
  Nb  Nb16  1  0.77072600  0.21925200  0.62658300  1
  Nb  Nb17  1  0.77072600  0.78074800  0.62658300  1
  Nb  Nb18  1  0.50000000  0.50000000  0.77751100  1
  Nb  Nb19  1  0.27536000  0.71963300  0.87378500  1
  Nb  Nb20  1  0.72464000  0.71963300  0.87378500  1
  Nb  Nb21  1  0.00000000  0.00000000  0.02626900  1
  Nb  Nb22  1  0.77536000  0.21963300  0.12621500  1
  Nb  Nb23  1  0.77536000  0.78036700  0.12621500  1
  O  O0  1  0.00000000  0.67036600  0.12253100  1
  O  O1  1  0.19866200  0.86908200  0.26343900  1
  O  O2  1  0.00000000  0.66812600  0.37894000  1
  O  O3  1  0.19905200  0.86838700  0.48954900  1
  O  O4  1  0.50000000  0.16812600  0.62106000  1
  O  O5  1  0.00000000  0.66601700  0.62447300  1
  O  O6  1  0.69866200  0.36908200  0.73656100  1
  O  O7  1  0.18858300  0.13962300  0.76259300  1
  O  O8  1  0.18858300  0.86037700  0.76259300  1
  O  O9  1  0.50000000  0.17036600  0.87746900  1
  O  O10  1  0.00000000  0.65709400  0.87681400  1
  O  O11  1  0.19676000  0.13400500  0.98808600  1
  O  O12  1  0.19676000  0.86599500  0.98808600  1
  O  O13  1  0.30324000  0.36599500  0.01191400  1
  O  O14  1  0.69676000  0.36599500  0.01191400  1
  O  O15  1  0.50000000  0.15709400  0.12318600  1
  O  O16  1  0.31141700  0.63962300  0.23740700  1
  O  O17  1  0.68858300  0.63962300  0.23740700  1
  O  O18  1  0.31141700  0.36037700  0.23740700  1
  O  O19  1  0.68858300  0.36037700  0.23740700  1
  O  O20  1  0.80133800  0.86908200  0.26343900  1
  O  O21  1  0.19866200  0.13091800  0.26343900  1
  O  O22  1  0.50000000  0.83398300  0.37552700  1
  O  O23  1  0.50000000  0.16601700  0.37552700  1
  O  O24  1  0.80094800  0.86838700  0.48954900  1
  O  O25  1  0.19905200  0.13161300  0.48954900  1
  O  O26  1  0.30094800  0.63161300  0.51045100  1
  O  O27  1  0.69905200  0.63161300  0.51045100  1
  O  O28  1  0.30094800  0.36838700  0.51045100  1
  O  O29  1  0.69905200  0.36838700  0.51045100  1
  O  O30  1  0.50000000  0.83187400  0.62106000  1
  O  O31  1  0.30133800  0.63091800  0.73656100  1
  O  O32  1  0.69866200  0.63091800  0.73656100  1
  O  O33  1  0.81141700  0.13962300  0.76259300  1
  O  O34  1  0.30133800  0.36908200  0.73656100  1
  O  O35  1  0.81141700  0.86037700  0.76259300  1
  O  O36  1  0.00000000  0.34290600  0.87681400  1
  O  O37  1  0.50000000  0.82963400  0.87746900  1
  O  O38  1  0.80324000  0.13400500  0.98808600  1
  O  O39  1  0.80324000  0.86599500  0.98808600  1
  O  O40  1  0.30324000  0.63400500  0.01191400  1
  O  O41  1  0.69676000  0.63400500  0.01191400  1
  O  O42  1  0.00000000  0.32963400  0.12253100  1
  O  O43  1  0.50000000  0.84290600  0.12318600  1
  O  O44  1  0.80133800  0.13091800  0.26343900  1
  O  O45  1  0.00000000  0.33187400  0.37894000  1
  O  O46  1  0.80094800  0.13161300  0.48954900  1
  O  O47  1  0.00000000  0.33398300  0.62447300  1
loop_
_geom_bond_atom_site_label_1
_geom_bond_atom_site_label_2
_geom_bond_distance
_geom_bond_site_symmetry_2
Ca0 O4 2.353823 1_555
Ca0 O30 2.353823 1_545
Ca0 O22 2.427067 1_545
Ca0 O23 2.427067 1_555
Ca0 O24 2.571579 1_545
Ca0 O3 2.571579 1_545
Ca0 O46 2.571579 1_555
Ca0 O25 2.571579 1_555
Ca1 O10 2.376018 1_555
Ca1 O36 2.376018 1_555
Ca1 O5 2.385130 1_555
Ca1 O47 2.385130 1_555
Ca1 O6 2.567850 1_455
Ca1 O34 2.567850 1_555
Ca1 O31 2.567850 1_555
Ca1 O32 2.567850 1_455
Ca2 O42 2.274994 1_555
Ca2 O0 2.274994 1_555
Ca2 O36 2.473253 1_554
Ca2 O10 2.473253 1_554
Ca2 O14 2.593052 1_455
Ca2 O13 2.593052 1_555
Ca2 O40 2.593052 1_555
Ca2 O41 2.593052 1_455
Ca3 O9 2.274994 1_555
Ca3 O37 2.274994 1_545
Ca3 O15 2.473253 1_556
Ca3 O43 2.473253 1_546
Ca3 O12 2.593052 1_545
Ca3 O11 2.593052 1_555
Ca3 O39 2.593052 1_545
Ca3 O38 2.593052 1_555
Ca4 O2 2.353823 1_555
Ca4 O45 2.353823 1_555
Ca4 O5 2.427067 1_555
Ca4 O47 2.427067 1_555
Ca4 O27 2.571579 1_455
Ca4 O26 2.571579 1_555
Ca4 O28 2.571579 1_555
Ca4 O29 2.571579 1_455
Ca5 O43 2.376018 1_545
Ca5 O15 2.376018 1_555
Ca5 O22 2.385130 1_545
Ca5 O23 2.385130 1_555
Ca5 O20 2.567850 1_545
Ca5 O1 2.567850 1_545
Ca5 O44 2.567850 1_555
Ca5 O21 2.567850 1_555
Nb0 O7 2.012487 1_555
Nb0 O4 2.021449 1_555
Nb0 O47 2.039365 1_555
Nb0 O25 2.051163 1_555
Nb0 O34 2.203982 1_555
Nb0 O28 2.253473 1_555
Nb1 O8 2.012487 1_555
Nb1 O30 2.021449 1_555
Nb1 O5 2.039365 1_555
Nb1 O3 2.051163 1_555
Nb1 O31 2.203982 1_555
Nb1 O26 2.253473 1_555
Nb2 O33 2.047839 1_455
Nb2 O8 2.047839 1_545
Nb2 O7 2.047839 1_555
Nb2 O35 2.047839 1_445
Nb3 O9 1.983870 1_555
Nb3 O14 2.053173 1_556
Nb3 O6 2.055440 1_555
Nb3 O36 2.086874 1_655
Nb3 O33 2.176713 1_555
Nb3 O38 2.228905 1_555
Nb4 O9 1.983870 1_555
Nb4 O13 2.053173 1_556
Nb4 O34 2.055440 1_555
Nb4 O36 2.086874 1_555
Nb4 O7 2.176713 1_555
Nb4 O11 2.228905 1_555
Nb5 O13 2.054684 1_556
Nb5 O40 2.054684 1_556
Nb5 O14 2.054684 1_556
Nb5 O41 2.054684 1_556
Nb6 O42 1.983870 1_555
Nb6 O11 2.053173 1_554
Nb6 O21 2.055440 1_555
Nb6 O15 2.086874 1_555
Nb6 O18 2.176713 1_555
Nb6 O13 2.228905 1_555
Nb7 O0 1.983870 1_555
Nb7 O12 2.053173 1_554
Nb7 O1 2.055440 1_555
Nb7 O43 2.086874 1_555
Nb7 O16 2.176713 1_555
Nb7 O40 2.228905 1_555
Nb8 O44 2.051878 1_455
Nb8 O1 2.051878 1_545
Nb8 O21 2.051878 1_555
Nb8 O20 2.051878 1_445
Nb9 O19 2.047839 1_555
Nb9 O18 2.047839 1_555
Nb9 O17 2.047839 1_555
Nb9 O16 2.047839 1_555
Nb10 O16 2.012487 1_555
Nb10 O2 2.021449 1_555
Nb10 O22 2.039365 1_555
Nb10 O26 2.051163 1_555
Nb10 O1 2.203982 1_555
Nb10 O3 2.253473 1_555
Nb11 O17 2.012487 1_555
Nb11 O2 2.021449 1_655
Nb11 O22 2.039365 1_555
Nb11 O27 2.051163 1_555
Nb11 O20 2.203982 1_555
Nb11 O24 2.253473 1_555
Nb12 O19 2.012487 1_555
Nb12 O45 2.021449 1_655
Nb12 O23 2.039365 1_555
Nb12 O29 2.051163 1_555
Nb12 O44 2.203982 1_555
Nb12 O46 2.253473 1_555
Nb13 O18 2.012487 1_555
Nb13 O45 2.021449 1_555
Nb13 O23 2.039365 1_555
Nb13 O28 2.051163 1_555
Nb13 O21 2.203982 1_555
Nb13 O25 2.253473 1_555
Nb14 O27 2.054116 1_555
Nb14 O28 2.054116 1_555
Nb14 O26 2.054116 1_555
Nb14 O29 2.054116 1_555
Nb15 O3 2.054116 1_545
Nb15 O24 2.054116 1_445
Nb15 O46 2.054116 1_455
Nb15 O25 2.054116 1_555
Nb16 O33 2.012487 1_555
Nb16 O4 2.021449 1_555
Nb16 O47 2.039365 1_655
Nb16 O46 2.051163 1_555
Nb16 O6 2.203982 1_555
Nb16 O29 2.253473 1_555
Nb17 O35 2.012487 1_555
Nb17 O30 2.021449 1_555
Nb17 O5 2.039365 1_655
Nb17 O24 2.051163 1_555
Nb17 O32 2.203982 1_555
Nb17 O27 2.253473 1_555
Nb18 O32 2.051878 1_555
Nb18 O34 2.051878 1_555
Nb18 O31 2.051878 1_555
Nb18 O6 2.051878 1_555
Nb19 O37 1.983870 1_555
Nb19 O40 2.053173 1_556
Nb19 O31 2.055440 1_555
Nb19 O10 2.086874 1_555
Nb19 O8 2.176713 1_555
Nb19 O12 2.228905 1_555
Nb20 O37 1.983870 1_555
Nb20 O41 2.053173 1_556
Nb20 O32 2.055440 1_555
Nb20 O10 2.086874 1_655
Nb20 O35 2.176713 1_555
Nb20 O39 2.228905 1_555
Nb21 O12 2.054684 1_544
Nb21 O11 2.054684 1_554
Nb21 O38 2.054684 1_454
Nb21 O39 2.054684 1_444
Nb22 O42 1.983870 1_655
Nb22 O38 2.053173 1_554
Nb22 O44 2.055440 1_555
Nb22 O15 2.086874 1_555
Nb22 O19 2.176713 1_555
Nb22 O14 2.228905 1_555
Nb23 O0 1.983870 1_655
Nb23 O39 2.053173 1_554
Nb23 O20 2.055440 1_555
Nb23 O43 2.086874 1_555
Nb23 O17 2.176713 1_555
Nb23 O41 2.228905 1_555
