# generated using pymatgen
data_GdTlSe2
_symmetry_space_group_name_H-M   'P 1'
_cell_length_a   8.09961120
_cell_length_b   8.09961120
_cell_length_c   8.09961116
_cell_angle_alpha   30.16767764
_cell_angle_beta   30.16767764
_cell_angle_gamma   30.16768158
_symmetry_Int_Tables_number   1
_chemical_formula_structural   GdTlSe2
_chemical_formula_sum   'Gd1 Tl1 Se2'
_cell_volume   118.89280783
_cell_formula_units_Z   1
loop_
 _symmetry_equiv_pos_site_id
 _symmetry_equiv_pos_as_xyz
  1  'x, y, z'
loop_
 _atom_site_type_symbol
 _atom_site_label
 _atom_site_symmetry_multiplicity
 _atom_site_fract_x
 _atom_site_fract_y
 _atom_site_fract_z
 _atom_site_occupancy
  Gd  Gd0  1  0.50000000  0.50000000  0.50000000  1
  Tl  Tl0  1  -0.00000000  -0.00000000  -0.00000000  1
  Se  Se0  1  0.76467572  0.76467572  0.76467572  1
  Se  Se1  1  0.23532428  0.23532428  0.23532428  1
loop_
_geom_bond_atom_site_label_1
_geom_bond_atom_site_label_2
_geom_bond_distance
_geom_bond_site_symmetry_2
Gd0 Se0 2.907845 1_554
Gd0 Se1 2.907845 1_556
Gd0 Se0 2.907845 1_545
Gd0 Se0 2.907845 1_455
Gd0 Se1 2.907845 1_565
Gd0 Se1 2.907845 1_655
Se0 Tl0 3.329130 1_665
Se0 Tl0 3.329130 1_566
Se0 Tl0 3.329130 1_656
Se1 Tl0 3.329130 1_556
Se1 Tl0 3.329130 1_655
Se1 Tl0 3.329130 1_565
