# generated using pymatgen
data_Nd3Ga
_symmetry_space_group_name_H-M   'P 1'
_cell_length_a   4.84311150
_cell_length_b   4.84311150
_cell_length_c   4.84311150
_cell_angle_alpha   90.00000000
_cell_angle_beta   90.00000000
_cell_angle_gamma   90.00000000
_symmetry_Int_Tables_number   1
_chemical_formula_structural   Nd3Ga
_chemical_formula_sum   'Nd3 Ga1'
_cell_volume   113.59871087
_cell_formula_units_Z   1
loop_
 _symmetry_equiv_pos_site_id
 _symmetry_equiv_pos_as_xyz
  1  'x, y, z'
loop_
 _atom_site_type_symbol
 _atom_site_label
 _atom_site_symmetry_multiplicity
 _atom_site_fract_x
 _atom_site_fract_y
 _atom_site_fract_z
 _atom_site_occupancy
  Nd  Nd0  1  0.50000000  0.50000000  0.00000000  1
  Nd  Nd1  1  0.50000000  0.00000000  0.50000000  1
  Nd  Nd2  1  0.00000000  0.50000000  0.50000000  1
  Ga  Ga0  1  -0.00000000  0.00000000  0.00000000  1
loop_
_geom_bond_atom_site_label_1
_geom_bond_atom_site_label_2
_geom_bond_distance
_geom_bond_site_symmetry_2
Nd0 Nd2 3.424597 1_655
Nd0 Nd1 3.424597 1_554
Nd0 Nd1 3.424597 1_565
Nd0 Nd2 3.424597 1_654
Nd0 Nd1 3.424597 1_555
Nd0 Nd2 3.424597 1_554
Nd0 Nd1 3.424597 1_564
Nd0 Nd2 3.424597 1_555
Nd1 Nd2 3.424597 1_655
Nd1 Nd2 3.424597 1_545
Nd1 Nd2 3.424597 1_645
Nd1 Nd2 3.424597 1_555
Ga0 Nd1 3.424597 1_455
Ga0 Nd1 3.424597 1_554
Ga0 Nd2 3.424597 1_545
Ga0 Nd0 3.424597 1_445
Ga0 Nd0 3.424597 1_555
Ga0 Nd0 3.424597 1_545
Ga0 Nd2 3.424597 1_544
Ga0 Nd1 3.424597 1_555
Ga0 Nd1 3.424597 1_454
Ga0 Nd2 3.424597 1_554
Ga0 Nd2 3.424597 1_555
Ga0 Nd0 3.424597 1_455
