# generated using pymatgen
data_Tb5SbAu2
_symmetry_space_group_name_H-M   'P 1'
_cell_length_a   10.17065027
_cell_length_b   10.17065027
_cell_length_c   10.17065027
_cell_angle_alpha   137.21437785
_cell_angle_beta   137.21437785
_cell_angle_gamma   62.10837151
_symmetry_Int_Tables_number   1
_chemical_formula_structural   Tb5SbAu2
_chemical_formula_sum   'Tb10 Sb2 Au4'
_cell_volume   479.66609388
_cell_formula_units_Z   2
loop_
 _symmetry_equiv_pos_site_id
 _symmetry_equiv_pos_as_xyz
  1  'x, y, z'
loop_
 _atom_site_type_symbol
 _atom_site_label
 _atom_site_symmetry_multiplicity
 _atom_site_fract_x
 _atom_site_fract_y
 _atom_site_fract_z
 _atom_site_occupancy
  Tb  Tb0  1  0.99855300  0.49855300  0.82950800  1
  Tb  Tb1  1  0.00144700  0.50144700  0.17049200  1
  Tb  Tb2  1  0.83095500  0.00144700  0.50000000  1
  Tb  Tb3  1  0.50144700  0.33095500  0.50000000  1
  Tb  Tb4  1  0.16904500  0.99855300  0.50000000  1
  Tb  Tb5  1  0.66904500  0.16904500  0.17049200  1
  Tb  Tb6  1  0.49855300  0.66904500  0.50000000  1
  Tb  Tb7  1  0.50000000  0.50000000  0.00000000  1
  Tb  Tb8  1  0.00000000  0.00000000  0.00000000  1
  Tb  Tb9  1  0.33095500  0.83095500  0.82950800  1
  Sb  Sb0  1  0.25000000  0.25000000  0.00000000  1
  Sb  Sb1  1  0.75000000  0.75000000  0.00000000  1
  Au  Au0  1  0.12710000  0.62710000  0.75420000  1
  Au  Au1  1  0.62710000  0.87290000  0.50000000  1
  Au  Au2  1  0.37290000  0.12710000  0.50000000  1
  Au  Au3  1  0.87290000  0.37290000  0.24580000  1
loop_
_geom_bond_atom_site_label_1
_geom_bond_atom_site_label_2
_geom_bond_distance
_geom_bond_site_symmetry_2
Sb0 Tb1 3.132731 1_555
Sb0 Tb0 3.132731 1_454
Sb0 Tb3 3.132731 1_555
Sb0 Tb6 3.132731 1_555
Sb0 Tb4 3.132731 1_544
Sb0 Tb9 3.132731 1_544
Sb0 Tb5 3.132731 1_555
Sb0 Tb2 3.132731 1_454
Sb1 Tb9 3.132731 1_554
Sb1 Tb0 3.132731 1_554
Sb1 Tb2 3.132731 1_565
Sb1 Tb1 3.132731 1_655
Sb1 Tb3 3.132731 1_554
Sb1 Tb6 3.132731 1_554
Sb1 Tb4 3.132731 1_655
Sb1 Tb5 3.132731 1_565
Au0 Au3 2.667328 1_455
Au0 Tb9 2.923042 1_555
Au0 Tb0 2.923042 1_455
Au0 Tb8 2.923103 1_566
Au0 Tb7 2.923103 1_556
Au1 Au2 2.667328 1_565
Au1 Tb2 2.923042 1_565
Au1 Tb6 2.923042 1_555
Au1 Tb8 2.923103 1_666
Au1 Tb7 2.923103 1_555
Au2 Tb4 2.923042 1_545
Au2 Tb3 2.923042 1_555
Au2 Tb8 2.923103 1_555
Au2 Tb7 2.923103 1_556
Au3 Tb1 2.923042 1_655
Au3 Tb5 2.923042 1_555
Au3 Tb8 2.923103 1_655
Au3 Tb7 2.923103 1_555
