# generated using pymatgen
data_K2NaMnO4
_symmetry_space_group_name_H-M   'P 1'
_cell_length_a   7.81866614
_cell_length_b   7.81866635
_cell_length_c   10.14696441
_cell_angle_alpha   110.70893084
_cell_angle_beta   110.70893220
_cell_angle_gamma   94.71222972
_symmetry_Int_Tables_number   1
_chemical_formula_structural   K2NaMnO4
_chemical_formula_sum   'K8 Na4 Mn4 O16'
_cell_volume   527.29492628
_cell_formula_units_Z   4
loop_
 _symmetry_equiv_pos_site_id
 _symmetry_equiv_pos_as_xyz
  1  'x, y, z'
loop_
 _atom_site_type_symbol
 _atom_site_label
 _atom_site_symmetry_multiplicity
 _atom_site_fract_x
 _atom_site_fract_y
 _atom_site_fract_z
 _atom_site_occupancy
  K  K0  1  0.05795500  0.30795500  0.25000000  1
  K  K1  1  0.69204500  0.94204500  0.25000000  1
  K  K2  1  0.30795500  0.05795500  0.75000000  1
  K  K3  1  0.73530000  0.48530000  0.97060000  1
  K  K4  1  0.48530000  0.73530000  0.47060000  1
  K  K5  1  0.26470000  0.51470000  0.02940000  1
  K  K6  1  0.94204500  0.69204500  0.75000000  1
  K  K7  1  0.51470000  0.26470000  0.52940000  1
  Na  Na0  1  0.71669500  0.96669500  0.93338900  1
  Na  Na1  1  0.96669500  0.71669500  0.43338900  1
  Na  Na2  1  0.28330500  0.03330500  0.06661100  1
  Na  Na3  1  0.03330500  0.28330500  0.56661100  1
  Mn  Mn0  1  0.86881400  0.13118600  0.75000000  1
  Mn  Mn1  1  0.13118600  0.86881400  0.25000000  1
  Mn  Mn2  1  0.61881400  0.38118600  0.25000000  1
  Mn  Mn3  1  0.38118600  0.61881400  0.75000000  1
  O  O0  1  0.91793900  0.35643700  0.76244200  1
  O  O1  1  0.35643700  0.91793900  0.26244200  1
  O  O2  1  0.61582000  0.20398000  0.08843400  1
  O  O3  1  0.08206100  0.64356300  0.23755800  1
  O  O4  1  0.38418000  0.79602000  0.91156600  1
  O  O5  1  0.20398000  0.61582000  0.58843400  1
  O  O6  1  0.88445500  0.97261500  0.58843400  1
  O  O7  1  0.64356300  0.08206100  0.73755800  1
  O  O8  1  0.97261500  0.88445500  0.08843400  1
  O  O9  1  0.40600400  0.34450200  0.26244200  1
  O  O10  1  0.65549700  0.59399600  0.23755800  1
  O  O11  1  0.34450200  0.40600400  0.76244200  1
  O  O12  1  0.59399600  0.65549700  0.73755800  1
  O  O13  1  0.02738500  0.11554500  0.91156600  1
  O  O14  1  0.79602000  0.38418000  0.41156600  1
  O  O15  1  0.11554500  0.02738500  0.41156600  1
loop_
_geom_bond_atom_site_label_1
_geom_bond_atom_site_label_2
_geom_bond_distance
_geom_bond_site_symmetry_2
K0 O9 2.665839 1_555
K0 O3 2.665847 1_555
K0 O8 3.020116 1_445
K0 O14 3.020123 1_455
K0 O13 3.133669 1_554
K0 O5 3.133671 1_555
K0 O2 3.144247 1_455
K0 O15 3.144254 1_555
K1 O10 2.665839 1_555
K1 O1 2.665847 1_555
K1 O15 3.020116 1_665
K1 O2 3.020123 1_565
K1 O6 3.133669 1_555
K1 O4 3.133671 1_554
K1 O14 3.144248 1_565
K1 O8 3.144254 1_555
K2 O11 2.665839 1_555
K2 O7 2.665847 1_555
K2 O6 3.020116 1_445
K2 O4 3.020123 1_545
K2 O15 3.133669 1_555
K2 O2 3.133671 1_556
K2 O5 3.144248 1_545
K2 O13 3.144254 1_555
K3 O10 2.846680 1_556
K3 O3 2.846680 1_656
K3 O0 2.894830 1_555
K3 O11 2.894835 1_555
K3 O12 3.033548 1_555
K3 O7 3.033550 1_555
K3 O2 3.074511 1_556
K3 O8 3.074520 1_556
K4 O12 2.846680 1_555
K4 O7 2.846680 1_565
K4 O1 2.894830 1_555
K4 O9 2.894835 1_555
K4 O10 3.033548 1_555
K4 O3 3.033549 1_555
K4 O5 3.074511 1_555
K4 O6 3.074520 1_555
K5 O11 2.846675 1_554
K5 O0 2.846680 1_454
K5 O10 2.894829 1_555
K5 O3 2.894830 1_555
K5 O1 3.033550 1_555
K5 O9 3.033554 1_555
K5 O4 3.074511 1_554
K5 O13 3.074520 1_554
K6 O12 2.665839 1_555
K6 O0 2.665847 1_555
K6 O13 3.020116 1_665
K6 O5 3.020123 1_655
K6 O8 3.133669 1_556
K6 O14 3.133671 1_555
K6 O4 3.144247 1_655
K6 O6 3.144254 1_555
K7 O9 2.846675 1_555
K7 O1 2.846680 1_545
K7 O12 2.894829 1_555
K7 O7 2.894830 1_555
K7 O0 3.033549 1_555
K7 O11 3.033554 1_555
K7 O14 3.074511 1_555
K7 O15 3.074520 1_555
Na0 O8 2.364912 1_556
Na0 O2 2.364912 1_566
Na0 O7 2.374427 1_565
Na0 O12 2.374432 1_555
Na0 O13 2.720773 1_665
Na0 O4 2.720792 1_555
Na1 O5 2.364912 1_655
Na1 O6 2.364912 1_555
Na1 O3 2.374427 1_655
Na1 O10 2.374432 1_555
Na1 O15 2.720773 1_665
Na1 O14 2.720793 1_555
Na2 O13 2.364912 1_554
Na2 O4 2.364912 1_544
Na2 O1 2.374427 1_545
Na2 O9 2.374427 1_555
Na2 O8 2.720773 1_445
Na2 O2 2.720792 1_555
Na3 O14 2.364912 1_455
Na3 O15 2.364912 1_555
Na3 O0 2.374427 1_455
Na3 O11 2.374427 1_555
Na3 O6 2.720773 1_445
Na3 O5 2.720793 1_555
Mn0 O7 1.721183 1_555
Mn0 O0 1.721183 1_555
Mn0 O13 1.723060 1_655
Mn0 O6 1.723060 1_545
Mn1 O1 1.721183 1_555
Mn1 O3 1.721183 1_555
Mn1 O8 1.723060 1_455
Mn1 O15 1.723060 1_565
Mn2 O10 1.721190 1_555
Mn2 O9 1.721191 1_555
Mn2 O14 1.723059 1_555
Mn2 O2 1.723059 1_555
Mn3 O12 1.721190 1_555
Mn3 O11 1.721191 1_555
Mn3 O5 1.723059 1_555
Mn3 O4 1.723059 1_555
