# generated using pymatgen
data_Tl5Se3
_symmetry_space_group_name_H-M   'P 1'
_cell_length_a   8.57085218
_cell_length_b   8.57085218
_cell_length_c   12.75249317
_cell_angle_alpha   90.00000000
_cell_angle_beta   90.00000000
_cell_angle_gamma   90.00000000
_symmetry_Int_Tables_number   1
_chemical_formula_structural   Tl5Se3
_chemical_formula_sum   'Tl20 Se12'
_cell_volume   936.79186321
_cell_formula_units_Z   4
loop_
 _symmetry_equiv_pos_site_id
 _symmetry_equiv_pos_as_xyz
  1  'x, y, z'
loop_
 _atom_site_type_symbol
 _atom_site_label
 _atom_site_symmetry_multiplicity
 _atom_site_fract_x
 _atom_site_fract_y
 _atom_site_fract_z
 _atom_site_occupancy
  Tl  Tl0  1  0.42366472  0.87237163  0.09771000  1
  Tl  Tl1  1  0.12838213  0.57614022  0.40271072  1
  Tl  Tl2  1  0.37237163  0.57633528  0.90229000  1
  Tl  Tl3  1  0.42385978  0.62838213  0.59728928  1
  Tl  Tl4  1  0.92385978  0.12838213  0.40271072  1
  Tl  Tl5  1  0.12762837  0.92366472  0.90229000  1
  Tl  Tl6  1  0.87161787  0.42385978  0.59728928  1
  Tl  Tl7  1  0.57614022  0.37161787  0.40271072  1
  Tl  Tl8  1  0.62838213  0.07614022  0.59728928  1
  Tl  Tl9  1  0.87237163  0.07633528  0.09771000  1
  Tl  Tl10  1  0.25000000  0.25000000  0.21070401  1
  Tl  Tl11  1  0.25000000  0.25000000  0.71128773  1
  Tl  Tl12  1  0.37161787  0.92385978  0.40271072  1
  Tl  Tl13  1  0.57633528  0.12762837  0.90229000  1
  Tl  Tl14  1  0.75000000  0.75000000  0.78929599  1
  Tl  Tl15  1  0.07614022  0.87161787  0.59728928  1
  Tl  Tl16  1  0.92366472  0.37237163  0.90229000  1
  Tl  Tl17  1  0.07633528  0.62762837  0.09771000  1
  Tl  Tl18  1  0.62762837  0.42366472  0.09771000  1
  Tl  Tl19  1  0.75000000  0.75000000  0.28871227  1
  Se  Se0  1  0.09003814  0.58344099  0.74881191  1
  Se  Se1  1  0.75000000  0.75000000  0.52059556  1
  Se  Se2  1  0.75000000  0.75000000  0.02427199  1
  Se  Se3  1  0.40996186  0.91655901  0.74881191  1
  Se  Se4  1  0.41655901  0.59003814  0.25118809  1
  Se  Se5  1  0.59003814  0.08344099  0.25118809  1
  Se  Se6  1  0.25000000  0.25000000  0.47940444  1
  Se  Se7  1  0.25000000  0.25000000  0.97572801  1
  Se  Se8  1  0.08344099  0.90996186  0.25118809  1
  Se  Se9  1  0.58344099  0.40996186  0.74881191  1
  Se  Se10  1  0.91655901  0.09003814  0.74881191  1
  Se  Se11  1  0.90996186  0.41655901  0.25118809  1
loop_
_geom_bond_atom_site_label_1
_geom_bond_atom_site_label_2
_geom_bond_distance
_geom_bond_site_symmetry_2
Se0 Tl6 3.018119 1_455
Se0 Tl16 3.022706 1_455
Se0 Tl2 3.112888 1_555
Se0 Tl15 3.138224 1_555
Se0 Tl11 3.205635 1_555
Se0 Tl14 3.286072 1_455
Se1 Tl19 2.957090 1_555
Se1 Tl3 3.139552 1_555
Se1 Tl6 3.139552 1_555
Se1 Tl8 3.139552 1_565
Se1 Tl15 3.139552 1_655
Se2 Tl14 2.996530 1_554
Se2 Tl17 3.130520 1_655
Se2 Tl9 3.130520 1_565
Se2 Tl18 3.130520 1_555
Se2 Tl0 3.130520 1_555
Se2 Tl19 3.372273 1_555
Se3 Tl8 3.018119 1_565
Se3 Tl13 3.022706 1_565
Se3 Tl5 3.112888 1_555
Se3 Tl3 3.138224 1_555
Se3 Tl11 3.205635 1_565
Se3 Tl14 3.286072 1_555
Se4 Tl7 3.018119 1_555
Se4 Tl18 3.022706 1_555
Se4 Tl0 3.112888 1_555
Se4 Tl1 3.138224 1_555
Se4 Tl19 3.205635 1_555
Se4 Tl10 3.286072 1_555
Se5 Tl12 3.018119 1_545
Se5 Tl0 3.022706 1_545
Se5 Tl9 3.112888 1_555
Se5 Tl7 3.138224 1_555
Se5 Tl19 3.205635 1_545
Se5 Tl10 3.286072 1_555
Se6 Tl11 2.957090 1_555
Se6 Tl12 3.139552 1_545
Se6 Tl1 3.139552 1_555
Se6 Tl4 3.139552 1_455
Se6 Tl7 3.139552 1_555
Se7 Tl10 2.996530 1_556
Se7 Tl13 3.130520 1_555
Se7 Tl5 3.130520 1_545
Se7 Tl16 3.130520 1_455
Se7 Tl2 3.130520 1_555
Se7 Tl11 3.372273 1_555
Se8 Tl4 3.018119 1_465
Se8 Tl9 3.022706 1_465
Se8 Tl17 3.112888 1_555
Se8 Tl12 3.138224 1_555
Se8 Tl19 3.205635 1_455
Se8 Tl10 3.286072 1_565
Se9 Tl3 3.018119 1_555
Se9 Tl2 3.022706 1_555
Se9 Tl13 3.112888 1_555
Se9 Tl6 3.138224 1_555
Se9 Tl11 3.205635 1_555
Se9 Tl14 3.286072 1_555
Se10 Tl15 3.018119 1_645
Se10 Tl5 3.022706 1_645
Se10 Tl16 3.112888 1_555
Se10 Tl8 3.138224 1_555
Se10 Tl11 3.205635 1_655
Se10 Tl14 3.286072 1_545
Se11 Tl1 3.018119 1_655
Se11 Tl17 3.022706 1_655
Se11 Tl18 3.112888 1_555
Se11 Tl4 3.138224 1_555
Se11 Tl19 3.205635 1_555
Se11 Tl10 3.286072 1_655
