# generated using pymatgen
data_CdB2XeF10
_symmetry_space_group_name_H-M   'P 1'
_cell_length_a   9.25425000
_cell_length_b   8.99173500
_cell_length_c   11.01248157
_cell_angle_alpha   68.98120368
_cell_angle_beta   90.00000000
_cell_angle_gamma   90.00000000
_symmetry_Int_Tables_number   1
_chemical_formula_structural   CdB2XeF10
_chemical_formula_sum   'Cd4 B8 Xe4 F40'
_cell_volume   855.39546142
_cell_formula_units_Z   4
loop_
 _symmetry_equiv_pos_site_id
 _symmetry_equiv_pos_as_xyz
  1  'x, y, z'
loop_
 _atom_site_type_symbol
 _atom_site_label
 _atom_site_symmetry_multiplicity
 _atom_site_fract_x
 _atom_site_fract_y
 _atom_site_fract_z
 _atom_site_occupancy
  Cd  Cd0  1  0.53629100  0.65330800  0.63675200  1
  Cd  Cd1  1  0.96370900  0.15330800  0.63675200  1
  Cd  Cd2  1  0.03629100  0.84669200  0.36324800  1
  Cd  Cd3  1  0.46370900  0.34669200  0.36324800  1
  B  B0  1  0.59916500  0.22228100  0.70883500  1
  B  B1  1  0.09916500  0.27771900  0.29116500  1
  B  B2  1  0.40083500  0.77771900  0.29116500  1
  B  B3  1  0.71932600  0.02630700  0.42559600  1
  B  B4  1  0.90083500  0.72228100  0.70883500  1
  B  B5  1  0.78067400  0.52630700  0.42559600  1
  B  B6  1  0.21932600  0.47369300  0.57440400  1
  B  B7  1  0.28067400  0.97369300  0.57440400  1
  Xe  Xe0  1  0.29698500  0.65405400  0.94644000  1
  Xe  Xe1  1  0.70301500  0.34594600  0.05356000  1
  Xe  Xe2  1  0.20301500  0.15405400  0.94644000  1
  Xe  Xe3  1  0.79698500  0.84594600  0.05356000  1
  F  F0  1  0.49876100  0.11920200  0.78776400  1
  F  F1  1  0.47032100  0.58035500  0.85244100  1
  F  F2  1  0.90735900  0.87381200  0.72536400  1
  F  F3  1  0.52967900  0.41964500  0.14755900  1
  F  F4  1  0.68044500  0.60293700  0.48141900  1
  F  F5  1  0.74267700  0.15843100  0.74328400  1
  F  F6  1  0.70302400  0.46204600  0.34442100  1
  F  F7  1  0.92303400  0.74627900  0.57476900  1
  F  F8  1  0.97032100  0.91964500  0.14755900  1
  F  F9  1  0.63344500  0.77352300  0.96415500  1
  F  F10  1  0.50123900  0.88079800  0.21223600  1
  F  F11  1  0.79697600  0.96204600  0.34442100  1
  F  F12  1  0.42303400  0.75372100  0.42523100  1
  F  F13  1  0.13344500  0.72647700  0.03584500  1
  F  F14  1  0.61987900  0.14095300  0.34723400  1
  F  F15  1  0.25732300  0.84156900  0.25671600  1
  F  F16  1  0.40735900  0.62618800  0.27463600  1
  F  F17  1  0.09264100  0.12618800  0.27463600  1
  F  F18  1  0.88012100  0.64095300  0.34723400  1
  F  F19  1  0.02967900  0.08035500  0.85244100  1
  F  F20  1  0.18044500  0.89706300  0.51858100  1
  F  F21  1  0.85485000  0.40682500  0.52474100  1
  F  F22  1  0.24267700  0.34156900  0.25671600  1
  F  F23  1  0.81955500  0.10293700  0.48141900  1
  F  F24  1  0.11987900  0.35904700  0.65276600  1
  F  F25  1  0.59264100  0.37381200  0.72536400  1
  F  F26  1  0.20302400  0.03795400  0.65557900  1
  F  F27  1  0.07696600  0.25372100  0.42523100  1
  F  F28  1  0.38012100  0.85904700  0.65276600  1
  F  F29  1  0.64515000  0.90682500  0.52474100  1
  F  F30  1  0.75732300  0.65843100  0.74328400  1
  F  F31  1  0.36655500  0.22647700  0.03584500  1
  F  F32  1  0.29697600  0.53795400  0.65557900  1
  F  F33  1  0.14515000  0.59317500  0.47525900  1
  F  F34  1  0.86655500  0.27352300  0.96415500  1
  F  F35  1  0.00123900  0.61920200  0.78776400  1
  F  F36  1  0.99876100  0.38079800  0.21223600  1
  F  F37  1  0.57696600  0.24627900  0.57476900  1
  F  F38  1  0.31955500  0.39706300  0.51858100  1
  F  F39  1  0.35485000  0.09317500  0.47525900  1
loop_
_geom_bond_atom_site_label_1
_geom_bond_atom_site_label_2
_geom_bond_distance
_geom_bond_site_symmetry_2
Cd0 F1 2.308076 1_555
Cd0 F4 2.338105 1_555
Cd0 F30 2.366697 1_555
Cd0 F29 2.390759 1_555
Cd0 F28 2.403364 1_555
Cd0 F25 2.404349 1_555
Cd0 F12 2.414748 1_555
Cd0 F32 2.422681 1_555
Cd1 F19 2.308076 1_655
Cd1 F23 2.338105 1_555
Cd1 F5 2.366697 1_555
Cd1 F21 2.390759 1_555
Cd1 F24 2.403364 1_655
Cd1 F2 2.404349 1_545
Cd1 F27 2.414748 1_655
Cd1 F26 2.422681 1_655
Cd2 F8 2.308076 1_455
Cd2 F20 2.338105 1_555
Cd2 F15 2.366697 1_555
Cd2 F33 2.390759 1_555
Cd2 F18 2.403364 1_455
Cd2 F17 2.404349 1_565
Cd2 F7 2.414748 1_455
Cd2 F11 2.422681 1_455
Cd3 F3 2.308076 1_555
Cd3 F38 2.338105 1_555
Cd3 F22 2.366697 1_555
Cd3 F39 2.390759 1_555
Cd3 F14 2.403364 1_555
Cd3 F16 2.404349 1_555
Cd3 F37 2.414748 1_555
Cd3 F6 2.422681 1_555
B0 F0 1.378409 1_555
B0 F37 1.428281 1_555
B0 F25 1.439156 1_555
B0 F5 1.442614 1_555
B1 F36 1.378409 1_455
B1 F27 1.428281 1_555
B1 F17 1.439156 1_555
B1 F22 1.442614 1_555
B2 F10 1.378409 1_555
B2 F12 1.428281 1_555
B2 F16 1.439156 1_555
B2 F15 1.442614 1_555
B3 F29 1.405729 1_545
B3 F14 1.419930 1_555
B3 F23 1.420171 1_555
B3 F11 1.421235 1_545
B4 F35 1.378409 1_655
B4 F7 1.428281 1_555
B4 F2 1.439156 1_555
B4 F30 1.442614 1_555
B5 F21 1.405729 1_555
B5 F18 1.419930 1_555
B5 F4 1.420171 1_555
B5 F6 1.421235 1_555
B6 F33 1.405729 1_555
B6 F24 1.419930 1_555
B6 F38 1.420171 1_555
B6 F32 1.421235 1_555
B7 F39 1.405729 1_565
B7 F28 1.419930 1_555
B7 F20 1.420171 1_555
B7 F26 1.421235 1_565
F1 Xe0 2.139139 1_555
F3 Xe1 2.139139 1_555
F8 Xe3 2.139139 1_555
F9 Xe3 2.035654 1_556
F13 Xe0 2.035654 1_554
F19 Xe2 2.139139 1_555
F31 Xe2 2.035654 1_554
F34 Xe1 2.035654 1_556
