# generated using pymatgen
data_ThPd3
_symmetry_space_group_name_H-M   'P 1'
_cell_length_a   5.88762779
_cell_length_b   5.88762757
_cell_length_c   9.89852296
_cell_angle_alpha   90.00000000
_cell_angle_beta   90.00000000
_cell_angle_gamma   119.99999534
_symmetry_Int_Tables_number   1
_chemical_formula_structural   ThPd3
_chemical_formula_sum   'Th4 Pd12'
_cell_volume   297.15409797
_cell_formula_units_Z   4
loop_
 _symmetry_equiv_pos_site_id
 _symmetry_equiv_pos_as_xyz
  1  'x, y, z'
loop_
 _atom_site_type_symbol
 _atom_site_label
 _atom_site_symmetry_multiplicity
 _atom_site_fract_x
 _atom_site_fract_y
 _atom_site_fract_z
 _atom_site_occupancy
  Th  Th0  1  -0.00000000  -0.00000000  0.50000000  1
  Th  Th1  1  0.66666700  0.33333300  0.75000000  1
  Th  Th2  1  0.33333300  0.66666700  0.25000000  1
  Th  Th3  1  -0.00000000  -0.00000000  0.00000000  1
  Pd  Pd0  1  0.17430352  0.82569648  0.75000000  1
  Pd  Pd1  1  0.65139196  0.82569648  0.75000000  1
  Pd  Pd2  1  -0.00000000  0.50000000  0.00000000  1
  Pd  Pd3  1  0.50000000  0.50000000  0.00000000  1
  Pd  Pd4  1  0.82569648  0.65139196  0.25000000  1
  Pd  Pd5  1  0.34860804  0.17430352  0.25000000  1
  Pd  Pd6  1  0.17430352  0.34860804  0.75000000  1
  Pd  Pd7  1  0.50000000  0.50000000  0.50000000  1
  Pd  Pd8  1  0.50000000  -0.00000000  0.50000000  1
  Pd  Pd9  1  0.82569648  0.17430352  0.25000000  1
  Pd  Pd10  1  0.50000000  -0.00000000  0.00000000  1
  Pd  Pd11  1  -0.00000000  0.50000000  0.50000000  1
loop_
_geom_bond_atom_site_label_1
_geom_bond_atom_site_label_2
_geom_bond_distance
_geom_bond_site_symmetry_2
Pd0 Pd6 2.808919 1_555
Pd0 Pd1 2.808919 1_555
Pd0 Th1 2.944844 1_565
Pd0 Th1 2.944844 1_455
Pd0 Pd2 2.980970 1_556
Pd0 Pd11 2.980970 1_555
Pd0 Pd10 2.980970 1_566
Pd0 Pd8 2.980970 1_565
Pd0 Th0 3.046845 1_565
Pd0 Th3 3.046845 1_566
Pd0 Pd6 3.078709 1_565
Pd0 Pd1 3.078709 1_455
Pd1 Pd6 2.808919 1_555
Pd1 Th1 2.944838 1_565
Pd1 Th1 2.944850 1_555
Pd1 Pd8 2.980967 1_565
Pd1 Pd10 2.980967 1_566
Pd1 Pd3 2.980970 1_556
Pd1 Pd7 2.980970 1_555
Pd1 Th3 3.046849 1_666
Pd1 Th0 3.046849 1_665
Pd1 Pd6 3.078709 1_665
Pd2 Th3 2.943814 1_565
Pd2 Th3 2.943814 1_555
Pd2 Pd4 2.980967 1_455
Pd2 Pd6 2.980967 1_554
Pd2 Pd9 2.980970 1_455
Pd2 Th2 3.002078 1_555
Pd2 Th1 3.002078 1_454
Pd3 Th3 2.943814 1_665
Pd3 Th3 2.943814 1_555
Pd3 Pd5 2.980970 1_555
Pd3 Pd6 2.980970 1_554
Pd3 Pd4 2.980970 1_555
Pd3 Th2 3.002081 1_555
Pd3 Th1 3.002081 1_554
Pd4 Pd9 2.808919 1_555
Pd4 Pd5 2.808919 1_555
Pd4 Th2 2.944838 1_655
Pd4 Th2 2.944850 1_555
Pd4 Pd7 2.980970 1_555
Pd4 Th3 3.046848 1_665
Pd4 Th0 3.046848 1_665
Pd4 Pd9 3.078709 1_565
Pd4 Pd5 3.078709 1_665
Pd5 Pd9 2.808919 1_555
Pd5 Th2 2.944838 1_545
Pd5 Th2 2.944850 1_555
Pd5 Pd8 2.980967 1_555
Pd5 Pd7 2.980970 1_555
Pd5 Th0 3.046849 1_555
Pd5 Th3 3.046849 1_555
Pd5 Pd9 3.078709 1_455
Pd6 Th1 2.944838 1_455
Pd6 Th1 2.944850 1_555
Pd6 Pd7 2.980970 1_555
Pd6 Th0 3.046848 1_555
Pd6 Th3 3.046848 1_556
Pd7 Th0 2.943814 1_555
Pd7 Th0 2.943814 1_665
Pd7 Th1 3.002081 1_555
Pd7 Th2 3.002081 1_555
Pd8 Th0 2.943814 1_555
Pd8 Th0 2.943814 1_655
Pd8 Pd9 2.980970 1_555
Pd8 Th1 3.002078 1_555
Pd8 Th2 3.002078 1_545
Pd9 Th2 2.944844 1_545
Pd9 Th2 2.944844 1_655
Pd9 Th3 3.046845 1_655
Pd9 Th0 3.046845 1_655
Pd10 Th3 2.943814 1_655
Pd10 Th3 2.943814 1_555
Pd10 Pd5 2.980967 1_555
Pd10 Pd9 2.980970 1_555
Pd10 Th2 3.002078 1_545
Pd10 Th1 3.002078 1_554
Pd11 Th0 2.943814 1_565
Pd11 Th0 2.943814 1_555
Pd11 Pd4 2.980967 1_455
Pd11 Pd6 2.980967 1_555
Pd11 Pd9 2.980970 1_455
Pd11 Th2 3.002078 1_555
Pd11 Th1 3.002078 1_455
