# generated using pymatgen
data_K4Sr(SiO3)3
_symmetry_space_group_name_H-M   'P 1'
_cell_length_a   7.16509591
_cell_length_b   7.16509591
_cell_length_c   10.99913510
_cell_angle_alpha   90.00000000
_cell_angle_beta   90.00000000
_cell_angle_gamma   112.63546337
_symmetry_Int_Tables_number   1
_chemical_formula_structural   K4Sr(SiO3)3
_chemical_formula_sum   'K8 Sr2 Si6 O18'
_cell_volume   521.18410648
_cell_formula_units_Z   2
loop_
 _symmetry_equiv_pos_site_id
 _symmetry_equiv_pos_as_xyz
  1  'x, y, z'
loop_
 _atom_site_type_symbol
 _atom_site_label
 _atom_site_symmetry_multiplicity
 _atom_site_fract_x
 _atom_site_fract_y
 _atom_site_fract_z
 _atom_site_occupancy
  K  K0  1  0.34184421  0.76542484  0.75000000  1
  K  K1  1  0.94486504  0.05513496  -0.00000000  1
  K  K2  1  0.50108987  0.49891013  -0.00000000  1
  K  K3  1  0.23457516  0.65815579  0.25000000  1
  K  K4  1  0.21928768  0.22763834  0.75000000  1
  K  K5  1  0.50108987  0.49891013  0.50000000  1
  K  K6  1  0.77236166  0.78071232  0.25000000  1
  K  K7  1  0.94486504  0.05513496  0.50000000  1
  Sr  Sr0  1  0.72500676  0.25538320  0.75000000  1
  Sr  Sr1  1  0.74461680  0.27499324  0.25000000  1
  Si  Si0  1  0.40858537  0.97999297  0.03110627  1
  Si  Si1  1  0.02000703  0.59141463  0.96889373  1
  Si  Si2  1  0.02000703  0.59141463  0.53110627  1
  Si  Si3  1  0.26026857  0.18866058  0.25000000  1
  Si  Si4  1  0.81133942  0.73973143  0.75000000  1
  Si  Si5  1  0.40858537  0.97999297  0.46889373  1
  O  O0  1  0.94642926  0.72899681  0.87106877  1
  O  O1  1  0.02712677  0.40008986  0.60280245  1
  O  O2  1  0.88689822  0.55288814  0.09048580  1
  O  O3  1  0.27100319  0.05357074  0.12893123  1
  O  O4  1  0.27100319  0.05357074  0.37106877  1
  O  O5  1  0.25977168  0.74022832  -0.00000000  1
  O  O6  1  0.44711186  0.11310178  0.59048580  1
  O  O7  1  0.44711186  0.11310178  0.90951420  1
  O  O8  1  0.59884400  0.54828124  0.75000000  1
  O  O9  1  0.25977168  0.74022832  0.50000000  1
  O  O10  1  0.59991014  0.97287323  0.10280245  1
  O  O11  1  0.04283122  0.20108510  0.25000000  1
  O  O12  1  0.79891490  0.95716878  0.75000000  1
  O  O13  1  0.45171876  0.40115600  0.25000000  1
  O  O14  1  0.88689822  0.55288814  0.40951420  1
  O  O15  1  0.02712677  0.40008986  0.89719755  1
  O  O16  1  0.59991014  0.97287323  0.39719755  1
  O  O17  1  0.94642926  0.72899681  0.62893123  1
loop_
_geom_bond_atom_site_label_1
_geom_bond_atom_site_label_2
_geom_bond_distance
_geom_bond_site_symmetry_2
K0 O9 2.803212 1_555
K0 O5 2.803212 1_556
K0 O8 2.831400 1_555
K0 O7 2.899433 1_565
K0 O6 2.899433 1_565
K0 O12 3.024821 1_555
K0 O17 3.049452 1_455
K0 O0 3.049452 1_455
K0 O1 3.164622 1_555
K0 O15 3.164622 1_555
K1 O15 2.571692 1_654
K1 O10 2.571692 1_545
K1 O0 2.737165 1_544
K1 O3 2.737165 1_655
K1 O12 2.929606 1_544
K1 O11 2.929606 1_655
K2 O2 2.821141 1_555
K2 O7 2.821141 1_554
K2 O8 2.826007 1_554
K2 O13 2.826007 1_555
K2 O5 2.877604 1_555
K3 O9 2.803212 1_555
K3 O5 2.803212 1_555
K3 O13 2.831400 1_555
K3 O14 2.899433 1_455
K3 O2 2.899433 1_455
K3 O11 3.024821 1_555
K3 O3 3.049452 1_565
K3 O4 3.049452 1_565
K3 O16 3.164622 1_555
K3 O10 3.164622 1_555
K4 O15 2.711706 1_555
K4 O1 2.711706 1_555
K4 O7 2.729041 1_555
K4 O6 2.729041 1_555
K4 O8 2.804444 1_555
K4 O12 2.887008 1_445
K5 O6 2.821141 1_555
K5 O14 2.821141 1_555
K5 O8 2.826007 1_555
K5 O13 2.826007 1_555
K5 O9 2.877604 1_555
K6 O10 2.711706 1_555
K6 O16 2.711706 1_555
K6 O14 2.729041 1_555
K6 O2 2.729041 1_555
K6 O13 2.804444 1_555
K6 O11 2.887008 1_665
K7 O1 2.571692 1_655
K7 O16 2.571692 1_545
K7 O17 2.737165 1_545
K7 O4 2.737165 1_655
K7 O12 2.929606 1_545
K7 O11 2.929606 1_655
O0 Si4 1.665356 1_555
O0 Si1 1.675559 1_655
O1 Si2 1.599242 1_555
O1 Sr0 2.579673 1_455
O2 Si1 1.603691 1_654
O2 Sr1 2.553392 1_555
O3 Si3 1.665356 1_555
O3 Si0 1.675559 1_545
O4 Si3 1.665356 1_555
O4 Si5 1.675559 1_545
O5 Si1 1.671918 1_554
O5 Si0 1.671918 1_555
O6 Si5 1.603691 1_545
O6 Sr0 2.553392 1_555
O7 Si0 1.603691 1_546
O7 Sr0 2.553392 1_555
O8 Si4 1.610043 1_555
O8 Sr0 2.584903 1_555
O9 Si5 1.671918 1_555
O9 Si2 1.671918 1_555
O10 Si0 1.599242 1_555
O10 Sr1 2.579673 1_565
O11 Si3 1.594340 1_555
O11 Sr1 2.391034 1_455
O12 Si4 1.594340 1_555
O12 Sr0 2.391034 1_565
O13 Si3 1.610043 1_555
O13 Sr1 2.584903 1_555
O14 Si2 1.603691 1_655
O14 Sr1 2.553392 1_555
O15 Si1 1.599242 1_555
O15 Sr0 2.579673 1_455
O16 Si5 1.599242 1_555
O16 Sr1 2.579673 1_565
O17 Si4 1.665356 1_555
O17 Si2 1.675559 1_655
