# generated using pymatgen
data_CePu4Co3
_symmetry_space_group_name_H-M   'P 1'
_cell_length_a   7.92665911
_cell_length_b   7.92665911
_cell_length_c   7.92665911
_cell_angle_alpha   137.57185080
_cell_angle_beta   107.02527366
_cell_angle_gamma   88.22827656
_symmetry_Int_Tables_number   1
_chemical_formula_structural   CePu4Co3
_chemical_formula_sum   'Ce2 Pu8 Co6'
_cell_volume   307.76447517
_cell_formula_units_Z   2
loop_
 _symmetry_equiv_pos_site_id
 _symmetry_equiv_pos_as_xyz
  1  'x, y, z'
loop_
 _atom_site_type_symbol
 _atom_site_label
 _atom_site_symmetry_multiplicity
 _atom_site_fract_x
 _atom_site_fract_y
 _atom_site_fract_z
 _atom_site_occupancy
  Ce  Ce0  1  0.50000000  0.75000000  0.25000000  1
  Ce  Ce1  1  0.50000000  0.25000000  0.75000000  1
  Pu  Pu0  1  0.67589800  0.76974300  0.90615500  1
  Pu  Pu1  1  0.13432100  0.92000700  0.21431400  1
  Pu  Pu2  1  0.86567900  0.07999300  0.78568600  1
  Pu  Pu3  1  0.32410200  0.23025700  0.09384500  1
  Pu  Pu4  1  0.29430700  0.57999300  0.71431400  1
  Pu  Pu5  1  0.70569300  0.42000700  0.28568600  1
  Pu  Pu6  1  0.86358900  0.26974300  0.59384500  1
  Pu  Pu7  1  0.13641100  0.73025700  0.40615500  1
  Co  Co0  1  0.00000000  0.25000000  0.25000000  1
  Co  Co1  1  0.00000000  0.75000000  0.75000000  1
  Co  Co2  1  0.17510800  0.33349600  0.84161200  1
  Co  Co3  1  0.49188400  0.83349600  0.65838800  1
  Co  Co4  1  0.50811600  0.16650400  0.34161200  1
  Co  Co5  1  0.82489200  0.66650400  0.15838800  1
loop_
_geom_bond_atom_site_label_1
_geom_bond_atom_site_label_2
_geom_bond_distance
_geom_bond_site_symmetry_2
Ce0 Co4 2.806742 1_565
Ce0 Co5 2.806742 1_555
Ce0 Co3 2.806742 1_555
Ce0 Co2 2.806742 1_554
Ce0 Ce1 2.868290 1_554
Ce0 Ce1 2.868290 1_565
Ce0 Pu1 3.184183 1_555
Ce0 Pu2 3.184183 1_565
Ce0 Pu4 3.184183 1_554
Ce0 Pu5 3.184183 1_555
Ce1 Co3 2.806742 1_545
Ce1 Co5 2.806742 1_556
Ce1 Co4 2.806742 1_555
Ce1 Co2 2.806742 1_555
Ce1 Pu4 3.184183 1_555
Ce1 Pu2 3.184183 1_555
Ce1 Pu1 3.184183 1_545
Ce1 Pu5 3.184183 1_556
Pu0 Pu4 2.816933 1_555
Pu1 Pu7 2.816935 1_555
Pu2 Pu6 2.816935 1_555
Pu3 Pu5 2.816933 1_555
Co0 Pu5 2.639621 1_455
Co0 Pu4 2.639621 1_555
Co0 Pu2 2.639621 1_454
Co0 Pu1 2.639621 1_545
Co0 Co1 2.868290 1_555
Co0 Co1 2.868290 1_544
Co0 Pu6 3.115747 1_455
Co0 Pu7 3.115750 1_555
Co0 Pu0 3.115752 1_444
Co0 Pu3 3.115752 1_555
Co1 Pu1 2.639621 1_556
Co1 Pu4 2.639621 1_555
Co1 Pu2 2.639621 1_465
Co1 Pu5 2.639621 1_455
Co1 Pu7 3.115747 1_555
Co1 Pu6 3.115750 1_455
Co1 Pu0 3.115752 1_455
Co1 Pu3 3.115752 1_566
Co2 Pu6 2.445839 1_455
Co2 Pu3 2.652326 1_556
Co2 Pu2 2.933134 1_455
Co2 Pu4 3.051495 1_555
Co2 Pu7 3.158808 1_545
Co2 Pu7 3.158813 1_556
Co2 Pu1 3.261407 1_556
Co2 Pu1 3.261407 1_545
Co3 Pu0 2.445845 1_555
Co3 Pu7 2.652332 1_555
Co3 Pu4 2.933134 1_555
Co3 Pu2 3.051495 1_565
Co3 Pu3 3.158809 1_555
Co3 Pu3 3.158809 1_566
Co3 Pu5 3.261407 1_566
Co3 Pu5 3.261407 1_555
Co4 Pu3 2.445845 1_555
Co4 Pu6 2.652332 1_555
Co4 Pu5 2.933134 1_555
Co4 Pu1 3.051495 1_545
Co4 Pu0 3.158809 1_544
Co4 Pu0 3.158809 1_555
Co4 Pu4 3.261407 1_544
Co4 Pu4 3.261407 1_555
Co5 Pu7 2.445839 1_655
Co5 Pu0 2.652326 1_554
Co5 Pu1 2.933134 1_655
Co5 Pu5 3.051495 1_555
Co5 Pu6 3.158808 1_565
Co5 Pu6 3.158813 1_554
Co5 Pu2 3.261407 1_565
Co5 Pu2 3.261407 1_554
