# generated using pymatgen
data_K(OsO3)2
_symmetry_space_group_name_H-M   'P 1'
_cell_length_a   5.61345315
_cell_length_b   6.46568550
_cell_length_c   7.26227320
_cell_angle_alpha   65.37664344
_cell_angle_beta   70.58989605
_cell_angle_gamma   75.59689859
_symmetry_Int_Tables_number   1
_chemical_formula_structural   K(OsO3)2
_chemical_formula_sum   'K2 Os4 O12'
_cell_volume   224.11855617
_cell_formula_units_Z   2
loop_
 _symmetry_equiv_pos_site_id
 _symmetry_equiv_pos_as_xyz
  1  'x, y, z'
loop_
 _atom_site_type_symbol
 _atom_site_label
 _atom_site_symmetry_multiplicity
 _atom_site_fract_x
 _atom_site_fract_y
 _atom_site_fract_z
 _atom_site_occupancy
  K  K0  1  0.80790879  0.30027461  0.10958893  1
  K  K1  1  0.19209121  0.69972539  0.89041107  1
  Os  Os0  1  0.81552023  0.64160360  0.54848648  1
  Os  Os1  1  0.18447977  0.35839640  0.45151352  1
  Os  Os2  1  0.36580554  0.91325629  0.23708172  1
  Os  Os3  1  0.63419446  0.08674371  0.76291828  1
  O  O0  1  0.30148027  0.04044295  0.96167598  1
  O  O1  1  0.01307476  0.89191928  0.37388875  1
  O  O2  1  0.30002272  0.22001051  0.23626522  1
  O  O3  1  0.89802551  0.52195704  0.32399746  1
  O  O4  1  0.37814864  0.60912386  0.25906897  1
  O  O5  1  0.51261214  0.81320163  0.46135700  1
  O  O6  1  0.48738786  0.18679837  0.53864300  1
  O  O7  1  0.62185136  0.39087614  0.74093103  1
  O  O8  1  0.69851973  0.95955705  0.03832402  1
  O  O9  1  0.98692524  0.10808072  0.62611125  1
  O  O10  1  0.69997728  0.77998949  0.76373478  1
  O  O11  1  0.10197449  0.47804296  0.67600254  1
loop_
_geom_bond_atom_site_label_1
_geom_bond_atom_site_label_2
_geom_bond_distance
_geom_bond_site_symmetry_2
K0 O8 2.707817 1_545
K0 O3 2.734759 1_555
K0 O1 2.777625 1_645
K0 O2 2.799782 1_555
K0 O11 2.904184 1_654
K0 O6 2.917172 1_555
K0 O4 2.941970 1_555
K0 O7 2.974748 1_554
K0 O0 2.977034 1_654
K0 O2 3.053670 1_655
K0 O10 3.143382 1_554
K1 O0 2.707817 1_565
K1 O11 2.734759 1_555
K1 O9 2.777625 1_465
K1 O10 2.799782 1_555
K1 O3 2.904184 1_456
K1 O5 2.917172 1_555
K1 O7 2.941970 1_555
K1 O4 2.974748 1_556
K1 O8 2.977034 1_456
K1 O10 3.053670 1_455
K1 O2 3.143382 1_556
O0 Os2 1.941298 1_546
O0 Os3 1.946171 1_555
O1 Os2 1.908097 1_555
O1 Os0 1.924889 1_455
O2 Os2 1.922882 1_545
O2 Os1 1.966666 1_555
O3 Os0 1.960024 1_555
O3 Os1 1.972127 1_655
O4 Os2 1.890779 1_555
O4 Os1 1.934453 1_555
O5 Os2 1.870650 1_555
O5 Os0 1.927217 1_555
O6 Os3 1.870650 1_555
O6 Os1 1.927217 1_555
O7 Os3 1.890779 1_555
O7 Os0 1.934453 1_555
O8 Os3 1.941298 1_564
O8 Os2 1.946171 1_555
O9 Os3 1.908097 1_555
O9 Os1 1.924889 1_655
O10 Os3 1.922882 1_565
O10 Os0 1.966666 1_555
O11 Os1 1.960024 1_555
O11 Os0 1.972127 1_455
