# generated using pymatgen
data_Na2CrCoF7
_symmetry_space_group_name_H-M   'P 1'
_cell_length_a   7.39461857
_cell_length_b   7.39461857
_cell_length_c   24.82229485
_cell_angle_alpha   81.83081973
_cell_angle_beta   81.83081973
_cell_angle_gamma   60.37598149
_symmetry_Int_Tables_number   1
_chemical_formula_structural   Na2CrCoF7
_chemical_formula_sum   'Na16 Cr8 Co8 F56'
_cell_volume   1163.82591600
_cell_formula_units_Z   8
loop_
 _symmetry_equiv_pos_site_id
 _symmetry_equiv_pos_as_xyz
  1  'x, y, z'
loop_
 _atom_site_type_symbol
 _atom_site_label
 _atom_site_symmetry_multiplicity
 _atom_site_fract_x
 _atom_site_fract_y
 _atom_site_fract_z
 _atom_site_occupancy
  Na  Na0  1  0.79121700  0.70380900  0.25110600  1
  Na  Na1  1  0.29619100  0.20878300  0.24889400  1
  Na  Na2  1  0.13310600  0.11915700  0.12206700  1
  Na  Na3  1  0.50000000  0.50000000  0.00000000  1
  Na  Na4  1  0.21677600  0.78322400  0.75000000  1
  Na  Na5  1  0.86689400  0.88084300  0.87793300  1
  Na  Na6  1  0.88084300  0.86689400  0.37793300  1
  Na  Na7  1  0.50000000  0.00000000  0.00000000  1
  Na  Na8  1  0.11915700  0.13310600  0.62206700  1
  Na  Na9  1  0.78322400  0.21677600  0.25000000  1
  Na  Na10  1  0.00000000  0.00000000  0.50000000  1
  Na  Na11  1  0.00000000  0.00000000  0.00000000  1
  Na  Na12  1  0.70380900  0.79121700  0.75110600  1
  Na  Na13  1  0.50000000  0.50000000  0.50000000  1
  Na  Na14  1  0.20878300  0.29619100  0.74889400  1
  Na  Na15  1  0.00000000  0.50000000  0.50000000  1
  Cr  Cr0  1  0.63640000  0.11065900  0.12549300  1
  Cr  Cr1  1  0.88934100  0.36360000  0.37450700  1
  Cr  Cr2  1  0.24982100  0.75017900  0.25000000  1
  Cr  Cr3  1  0.11065900  0.63640000  0.62549300  1
  Cr  Cr4  1  0.00000000  0.50000000  0.00000000  1
  Cr  Cr5  1  0.36360000  0.88934100  0.87450700  1
  Cr  Cr6  1  0.50000000  0.00000000  0.50000000  1
  Cr  Cr7  1  0.75017900  0.24982100  0.75000000  1
  Co  Co0  1  0.61347600  0.63157200  0.62753300  1
  Co  Co1  1  0.36842800  0.38652400  0.87246700  1
  Co  Co2  1  0.63157200  0.61347600  0.12753300  1
  Co  Co3  1  0.38795500  0.86535700  0.37403700  1
  Co  Co4  1  0.13464300  0.61204500  0.12596300  1
  Co  Co5  1  0.61204500  0.13464300  0.62596300  1
  Co  Co6  1  0.86535700  0.38795500  0.87403700  1
  Co  Co7  1  0.38652400  0.36842800  0.37246700  1
  F  F0  1  0.13973000  0.02349900  0.20971400  1
  F  F1  1  0.92406300  0.53939000  0.60955300  1
  F  F2  1  0.46436600  0.09181500  0.34670500  1
  F  F3  1  0.13679300  0.58101400  0.04556400  1
  F  F4  1  0.20789700  0.12981300  0.53188000  1
  F  F5  1  0.96898200  0.36130100  0.29546500  1
  F  F6  1  0.36291400  0.81471900  0.95394600  1
  F  F7  1  0.29969500  0.33892200  0.64073000  1
  F  F8  1  0.09181500  0.46436600  0.84670500  1
  F  F9  1  0.86320700  0.41898600  0.95443600  1
  F  F10  1  0.41898600  0.86320700  0.45443600  1
  F  F11  1  0.53563400  0.90818500  0.65329500  1
  F  F12  1  0.02349900  0.13973000  0.70971400  1
  F  F13  1  0.81471900  0.36291400  0.45394600  1
  F  F14  1  0.30900200  0.64115500  0.40017900  1
  F  F15  1  0.97650100  0.86027000  0.29028600  1
  F  F16  1  0.63459600  0.52728700  0.70955600  1
  F  F17  1  0.36540400  0.47271300  0.29044400  1
  F  F18  1  0.86275500  0.36346500  0.79363500  1
  F  F19  1  0.93396400  0.92424300  0.10972900  1
  F  F20  1  0.46061000  0.07593700  0.89044700  1
  F  F21  1  0.69099800  0.35884500  0.59982100  1
  F  F22  1  0.86027000  0.97650100  0.79028600  1
  F  F23  1  0.25863000  0.41556500  0.95355400  1
  F  F24  1  0.58101400  0.13679300  0.54556400  1
  F  F25  1  0.33892200  0.29969500  0.14073000  1
  F  F26  1  0.35884500  0.69099800  0.09982100  1
  F  F27  1  0.63653500  0.13724500  0.70636500  1
  F  F28  1  0.64115500  0.30900200  0.90017900  1
  F  F29  1  0.27093000  0.69988000  0.85786500  1
  F  F30  1  0.52728700  0.63459600  0.20955600  1
  F  F31  1  0.69988000  0.27093000  0.35786500  1
  F  F32  1  0.06603600  0.07575700  0.89027100  1
  F  F33  1  0.79210300  0.87018700  0.46812000  1
  F  F34  1  0.72907000  0.30012000  0.14213500  1
  F  F35  1  0.36130100  0.96898200  0.79546500  1
  F  F36  1  0.07575700  0.06603600  0.39027100  1
  F  F37  1  0.70030500  0.66107800  0.35927000  1
  F  F38  1  0.30012000  0.72907000  0.64213500  1
  F  F39  1  0.07593700  0.46061000  0.39044700  1
  F  F40  1  0.58443500  0.74137000  0.54644600  1
  F  F41  1  0.13724500  0.63653500  0.20636500  1
  F  F42  1  0.90818500  0.53563400  0.15329500  1
  F  F43  1  0.03101800  0.63869900  0.70453500  1
  F  F44  1  0.47271300  0.36540400  0.79044400  1
  F  F45  1  0.36346500  0.86275500  0.29363500  1
  F  F46  1  0.74137000  0.58443500  0.04644600  1
  F  F47  1  0.18528100  0.63708600  0.54605400  1
  F  F48  1  0.53939000  0.92406300  0.10955300  1
  F  F49  1  0.87018700  0.79210300  0.96812000  1
  F  F50  1  0.92424300  0.93396400  0.60972900  1
  F  F51  1  0.63869900  0.03101800  0.20453500  1
  F  F52  1  0.41556500  0.25863000  0.45355400  1
  F  F53  1  0.66107800  0.70030500  0.85927000  1
  F  F54  1  0.63708600  0.18528100  0.04605400  1
  F  F55  1  0.12981300  0.20789700  0.03188000  1
loop_
_geom_bond_atom_site_label_1
_geom_bond_atom_site_label_2
_geom_bond_distance
_geom_bond_site_symmetry_2
Cr0 F48 1.946629 1_545
Cr0 F34 1.948598 1_555
Cr0 F19 1.950623 1_545
Cr0 F25 1.951869 1_555
Cr0 F51 1.966667 1_555
Cr0 F54 1.970644 1_555
Cr1 F39 1.946629 1_655
Cr1 F31 1.948598 1_555
Cr1 F36 1.950623 1_655
Cr1 F37 1.951869 1_555
Cr1 F5 1.966667 1_555
Cr1 F13 1.970644 1_555
Cr2 F0 1.943687 1_565
Cr2 F15 1.943687 1_455
Cr2 F45 1.943923 1_555
Cr2 F41 1.943923 1_555
Cr2 F30 1.967959 1_555
Cr2 F17 1.967959 1_555
Cr3 F1 1.946629 1_455
Cr3 F38 1.948598 1_555
Cr3 F50 1.950623 1_455
Cr3 F7 1.951869 1_555
Cr3 F43 1.966667 1_555
Cr3 F47 1.970644 1_555
Cr4 F23 1.942684 1_554
Cr4 F46 1.942684 1_455
Cr4 F3 1.943710 1_555
Cr4 F9 1.943710 1_454
Cr4 F55 1.973201 1_555
Cr4 F49 1.973201 1_454
Cr5 F20 1.946629 1_565
Cr5 F29 1.948598 1_555
Cr5 F32 1.950623 1_565
Cr5 F53 1.951869 1_555
Cr5 F35 1.966667 1_555
Cr5 F6 1.970644 1_555
Cr6 F52 1.942684 1_555
Cr6 F40 1.942684 1_545
Cr6 F10 1.943710 1_545
Cr6 F24 1.943710 1_555
Cr6 F33 1.973201 1_545
Cr6 F4 1.973201 1_555
Cr7 F12 1.943687 1_655
Cr7 F22 1.943687 1_545
Cr7 F18 1.943923 1_555
Cr7 F27 1.943923 1_555
Cr7 F16 1.967959 1_555
Cr7 F44 1.967959 1_555
Co0 F21 2.002046 1_555
Co0 F11 2.006801 1_555
Co0 F1 2.045970 1_555
Co0 F38 2.050455 1_555
Co0 F40 2.059754 1_555
Co0 F16 2.071100 1_555
Co1 F28 2.002046 1_555
Co1 F8 2.006801 1_555
Co1 F20 2.045970 1_555
Co1 F29 2.050455 1_555
Co1 F23 2.059754 1_555
Co1 F44 2.071100 1_555
Co2 F26 2.002046 1_555
Co2 F42 2.006801 1_555
Co2 F48 2.045970 1_555
Co2 F34 2.050455 1_555
Co2 F46 2.059754 1_555
Co2 F30 2.071100 1_555
Co3 F14 2.013460 1_555
Co3 F2 2.021713 1_565
Co3 F45 2.033053 1_555
Co3 F10 2.037939 1_555
Co3 F36 2.052510 1_565
Co3 F37 2.053884 1_555
Co4 F26 2.013460 1_555
Co4 F42 2.021713 1_455
Co4 F41 2.033053 1_555
Co4 F3 2.037939 1_555
Co4 F19 2.052510 1_455
Co4 F25 2.053884 1_555
Co5 F21 2.013460 1_555
Co5 F11 2.021713 1_545
Co5 F27 2.033053 1_555
Co5 F24 2.037939 1_555
Co5 F50 2.052510 1_545
Co5 F7 2.053884 1_555
Co6 F28 2.013460 1_555
Co6 F8 2.021713 1_655
Co6 F18 2.033053 1_555
Co6 F9 2.037939 1_555
Co6 F32 2.052510 1_655
Co6 F53 2.053884 1_555
Co7 F14 2.002046 1_555
Co7 F2 2.006801 1_555
Co7 F39 2.045970 1_555
Co7 F31 2.050455 1_555
Co7 F52 2.059754 1_555
Co7 F17 2.071100 1_555
F0 Na2 2.189672 1_555
F0 Na9 2.434024 1_455
F0 Na1 2.535186 1_555
F1 Na8 2.604027 1_655
F1 Na15 2.724794 1_655
F2 Na1 2.717938 1_555
F2 Na6 2.846016 1_545
F3 Na3 2.567117 1_555
F3 Na11 2.851748 1_565
F4 Na8 2.241640 1_555
F4 Na10 2.435468 1_555
F4 Na15 2.460216 1_555
F5 Na1 2.310962 1_655
F5 Na0 2.383782 1_555
F5 Na9 2.556782 1_555
F6 Na3 2.234148 1_556
F6 Na11 2.514773 1_566
F6 Na7 2.521709 1_566
F7 Na8 2.588034 1_555
F7 Na14 2.686317 1_555
F8 Na14 2.717938 1_555
F8 Na5 2.846016 1_455
F9 Na3 2.567117 1_556
F9 Na11 2.851748 1_656
F10 Na13 2.567117 1_555
F10 Na10 2.851748 1_565
F11 Na12 2.717938 1_555
F11 Na8 2.846016 1_565
F12 Na8 2.189672 1_555
F12 Na4 2.434024 1_545
F12 Na14 2.535186 1_555
F13 Na13 2.234148 1_555
F13 Na10 2.514773 1_655
F13 Na15 2.521709 1_655
F14 Na13 2.832983 1_555
F14 Na6 2.850517 1_455
F15 Na6 2.189672 1_555
F15 Na9 2.434024 1_565
F15 Na0 2.535186 1_555
F16 Na12 2.616141 1_555
F16 Na4 2.830749 1_555
F17 Na1 2.616141 1_555
F17 Na9 2.830749 1_555
F18 Na14 2.473672 1_655
F18 Na12 2.868648 1_555
F19 Na2 2.586806 1_665
F19 Na11 2.725761 1_665
F20 Na5 2.604027 1_545
F20 Na7 2.724794 1_556
F21 Na13 2.832983 1_555
F21 Na8 2.850517 1_655
F22 Na5 2.189672 1_555
F22 Na4 2.434024 1_655
F22 Na12 2.535186 1_555
F23 Na3 2.606859 1_556
F23 Na7 2.848423 1_556
F24 Na13 2.567117 1_555
F24 Na10 2.851748 1_655
F25 Na2 2.588034 1_555
F25 Na1 2.686317 1_555
F26 Na3 2.832983 1_555
F26 Na2 2.850517 1_565
F27 Na12 2.473672 1_545
F27 Na14 2.868648 1_555
F28 Na3 2.832983 1_556
F28 Na5 2.850517 1_545
F29 Na5 2.603673 1_455
F29 Na4 2.701986 1_555
F30 Na0 2.616141 1_555
F30 Na9 2.830749 1_555
F31 Na6 2.603673 1_545
F31 Na9 2.701986 1_555
F32 Na5 2.586806 1_445
F32 Na11 2.725761 1_556
F33 Na6 2.241640 1_555
F33 Na10 2.435468 1_665
F33 Na15 2.460216 1_655
F34 Na2 2.603673 1_655
F34 Na9 2.701986 1_555
F35 Na14 2.310962 1_565
F35 Na12 2.383782 1_555
F35 Na4 2.556782 1_555
F36 Na6 2.586806 1_445
F36 Na10 2.725761 1_555
F37 Na6 2.588034 1_555
F37 Na0 2.686317 1_555
F38 Na8 2.603673 1_565
F38 Na4 2.701986 1_555
F39 Na6 2.604027 1_455
F39 Na15 2.724794 1_555
F40 Na13 2.606859 1_555
F40 Na15 2.848423 1_655
F41 Na0 2.473672 1_455
F41 Na1 2.868648 1_555
F42 Na0 2.717938 1_555
F42 Na2 2.846016 1_655
F43 Na12 2.310962 1_455
F43 Na14 2.383782 1_555
F43 Na4 2.556782 1_555
F44 Na14 2.616141 1_555
F44 Na4 2.830749 1_555
F45 Na1 2.473672 1_565
F45 Na0 2.868648 1_555
F46 Na3 2.606859 1_555
F46 Na7 2.848423 1_565
F47 Na13 2.234148 1_555
F47 Na10 2.514773 1_565
F47 Na15 2.521709 1_555
F48 Na2 2.604027 1_565
F48 Na7 2.724794 1_565
F49 Na5 2.241640 1_555
F49 Na11 2.435468 1_666
F49 Na7 2.460216 1_566
F50 Na8 2.586806 1_665
F50 Na10 2.725761 1_665
F51 Na0 2.310962 1_545
F51 Na1 2.383782 1_555
F51 Na9 2.556782 1_555
F52 Na13 2.606859 1_555
F52 Na15 2.848423 1_555
F53 Na5 2.588034 1_555
F53 Na12 2.686317 1_555
F54 Na3 2.234148 1_555
F54 Na11 2.514773 1_655
F54 Na7 2.521709 1_555
F55 Na2 2.241640 1_555
F55 Na11 2.435468 1_555
F55 Na7 2.460216 1_555
