# generated using pymatgen
data_FeSO3
_symmetry_space_group_name_H-M   'P 1'
_cell_length_a   7.93967749
_cell_length_b   7.92967601
_cell_length_c   7.94416701
_cell_angle_alpha   109.22212730
_cell_angle_beta   109.53183509
_cell_angle_gamma   109.66899002
_symmetry_Int_Tables_number   1
_chemical_formula_structural   FeSO3
_chemical_formula_sum   'Fe6 S6 O18'
_cell_volume   384.97256366
_cell_formula_units_Z   6
loop_
 _symmetry_equiv_pos_site_id
 _symmetry_equiv_pos_as_xyz
  1  'x, y, z'
loop_
 _atom_site_type_symbol
 _atom_site_label
 _atom_site_symmetry_multiplicity
 _atom_site_fract_x
 _atom_site_fract_y
 _atom_site_fract_z
 _atom_site_occupancy
  Fe  Fe0  1  0.30965700  0.13216400  0.81106200  1
  Fe  Fe1  1  0.19034400  0.69081100  0.86806400  1
  Fe  Fe2  1  0.86604200  0.18766900  0.68869400  1
  Fe  Fe3  1  0.81594300  0.31304900  0.13121900  1
  Fe  Fe4  1  0.13327400  0.81168300  0.31167400  1
  Fe  Fe5  1  0.68974100  0.86753300  0.18925600  1
  S  S0  1  0.29154800  0.47315200  0.14599600  1
  S  S1  1  0.14712000  0.29364300  0.47581100  1
  S  S2  1  0.47400900  0.14556200  0.29099700  1
  S  S3  1  0.70830800  0.52531400  0.85418200  1
  S  S4  1  0.85427100  0.70849600  0.52545600  1
  S  S5  1  0.52420500  0.85266100  0.70715800  1
  O  O0  1  0.38580800  0.63512400  0.08635100  1
  O  O1  1  0.08529500  0.38604200  0.63541600  1
  O  O2  1  0.63466200  0.08485800  0.38536800  1
  O  O3  1  0.61587000  0.36397900  0.91693900  1
  O  O4  1  0.91732100  0.61762300  0.36688800  1
  O  O5  1  0.36460200  0.91563000  0.61489600  1
  O  O6  1  0.12674600  0.51468100  0.18548500  1
  O  O7  1  0.18539000  0.12845700  0.51632700  1
  O  O8  1  0.51597500  0.18543600  0.12766000  1
  O  O9  1  0.87181600  0.48313300  0.81439800  1
  O  O10  1  0.81275500  0.87190800  0.48247400  1
  O  O11  1  0.48204200  0.81192200  0.87089700  1
  O  O12  1  0.15704500  0.26549200  0.93672500  1
  O  O13  1  0.93717700  0.16026100  0.26649300  1
  O  O14  1  0.26462500  0.93460700  0.15682300  1
  O  O15  1  0.84208400  0.73384900  0.06208100  1
  O  O16  1  0.06292200  0.84422500  0.73478100  1
  O  O17  1  0.73340200  0.06103700  0.84043000  1
loop_
_geom_bond_atom_site_label_1
_geom_bond_atom_site_label_2
_geom_bond_distance
_geom_bond_site_symmetry_2
Fe0 O12 2.135128 1_555
Fe0 O3 2.145570 1_555
Fe0 O16 2.168477 1_545
Fe0 O5 2.182657 1_545
Fe0 O7 2.201600 1_555
Fe0 O8 2.295058 1_556
Fe1 O16 2.141246 1_555
Fe1 O1 2.150186 1_555
Fe1 O11 2.177214 1_555
Fe1 O14 2.180629 1_556
Fe1 O0 2.185548 1_556
Fe1 O9 2.302775 1_455
Fe2 O17 2.122352 1_555
Fe2 O2 2.141092 1_555
Fe2 O1 2.184409 1_655
Fe2 O12 2.190201 1_655
Fe2 O9 2.201172 1_555
Fe2 O10 2.292313 1_545
Fe3 O13 2.121307 1_555
Fe3 O3 2.158853 1_554
Fe3 O4 2.166200 1_555
Fe3 O17 2.196773 1_554
Fe3 O6 2.238411 1_655
Fe3 O8 2.238483 1_555
Fe4 O14 2.124647 1_555
Fe4 O5 2.137865 1_555
Fe4 O4 2.161348 1_455
Fe4 O15 2.196806 1_455
Fe4 O6 2.209696 1_555
Fe4 O7 2.299035 1_565
Fe5 O15 2.140685 1_555
Fe5 O0 2.140800 1_555
Fe5 O2 2.187070 1_565
Fe5 O10 2.187197 1_555
Fe5 O13 2.193280 1_565
Fe5 O11 2.301643 1_554
O0 S0 1.557250 1_555
O1 S1 1.559488 1_555
O2 S2 1.559575 1_555
O3 S3 1.567315 1_555
O4 S4 1.556745 1_555
O5 S5 1.561474 1_555
O6 S0 1.554181 1_555
O7 S1 1.546554 1_555
O8 S2 1.543705 1_555
O9 S3 1.547301 1_555
O10 S4 1.551763 1_555
O11 S5 1.550318 1_555
O12 S0 1.562797 1_556
O13 S1 1.569708 1_655
O14 S2 1.570716 1_565
O15 S3 1.560988 1_554
O16 S4 1.564374 1_455
O17 S5 1.560350 1_545
