# generated using pymatgen
data_CeP5O14
_symmetry_space_group_name_H-M   'P 1'
_cell_length_a   7.32101800
_cell_length_b   9.02073774
_cell_length_c   9.35473930
_cell_angle_alpha   82.21147285
_cell_angle_beta   77.27610287
_cell_angle_gamma   69.88418598
_symmetry_Int_Tables_number   1
_chemical_formula_structural   CeP5O14
_chemical_formula_sum   'Ce2 P10 O28'
_cell_volume   564.65831575
_cell_formula_units_Z   2
loop_
 _symmetry_equiv_pos_site_id
 _symmetry_equiv_pos_as_xyz
  1  'x, y, z'
loop_
 _atom_site_type_symbol
 _atom_site_label
 _atom_site_symmetry_multiplicity
 _atom_site_fract_x
 _atom_site_fract_y
 _atom_site_fract_z
 _atom_site_occupancy
  Ce  Ce0  1  0.99677600  0.99925600  0.00012500  1
  Ce  Ce1  1  0.46438300  0.50598400  0.46570700  1
  P  P0  1  0.43170800  0.05261800  0.12727100  1
  P  P1  1  0.25994200  0.40055100  0.15570600  1
  P  P2  1  0.84769300  0.62085300  0.14871800  1
  P  P3  1  0.37137900  0.58846900  0.87581400  1
  P  P4  1  0.79822300  0.46617900  0.90809700  1
  P  P5  1  0.88272000  0.60495400  0.60027700  1
  P  P6  1  0.78818300  0.94075800  0.67813100  1
  P  P7  1  0.89428700  0.11806300  0.40171000  1
  P  P8  1  0.36176100  0.12039400  0.67328600  1
  P  P9  1  0.31448100  0.95627000  0.43491900  1
  O  O0  1  0.26074900  0.22740500  0.14770700  1
  O  O1  1  0.32780300  0.95452200  0.08405800  1
  O  O2  1  0.62190200  0.06995600  0.04472100  1
  O  O3  1  0.03347300  0.48632200  0.21071400  1
  O  O4  1  0.31202300  0.45081400  0.98760400  1
  O  O5  1  0.38677100  0.41882000  0.25041200  1
  O  O6  1  0.89046100  0.56688700  0.97931200  1
  O  O7  1  0.88145500  0.77608000  0.13478000  1
  O  O8  1  0.66434400  0.59201800  0.23274100  1
  O  O9  1  0.57556900  0.57886400  0.92269600  1
  O  O10  1  0.22928900  0.74715300  0.91240400  1
  O  O11  1  0.41053500  0.53031400  0.72686900  1
  O  O12  1  0.89532300  0.47344500  0.74079000  1
  O  O13  1  0.82852100  0.30247400  0.97100100  1
  O  O14  1  0.78751600  0.76568400  0.69498800  1
  O  O15  1  0.08871300  0.58832500  0.52459200  1
  O  O16  1  0.72820100  0.60181700  0.52212800  1
  O  O17  1  0.56849500  0.04348400  0.73594400  1
  O  O18  1  0.83258200  0.97512900  0.50524100  1
  O  O19  1  0.92384800  0.96988200  0.75843800  1
  O  O20  1  0.10799200  0.09460200  0.44366300  1
  O  O21  1  0.91983600  0.07818900  0.24817100  1
  O  O22  1  0.76203700  0.27446100  0.45471700  1
  O  O23  1  0.39282600  0.97337500  0.57287800  1
  O  O24  1  0.20070900  0.12190400  0.80192400  1
  O  O25  1  0.36660600  0.26346900  0.57503000  1
  O  O26  1  0.45811300  0.00759400  0.30056500  1
  O  O27  1  0.30527100  0.79576100  0.43294200  1
loop_
_geom_bond_atom_site_label_1
_geom_bond_atom_site_label_2
_geom_bond_distance
_geom_bond_site_symmetry_2
Ce0 O21 2.409301 1_565
Ce0 O10 2.443467 1_654
Ce0 O24 2.500330 1_664
Ce0 O19 2.501689 1_554
Ce0 O7 2.523066 1_555
Ce0 O2 2.544929 1_565
Ce0 O13 2.588723 1_564
Ce0 O1 2.594635 1_655
Ce1 O11 2.415343 1_555
Ce1 O22 2.439285 1_555
Ce1 O27 2.475792 1_555
Ce1 O5 2.497602 1_555
Ce1 O8 2.532303 1_555
Ce1 O15 2.541183 1_555
Ce1 O16 2.545087 1_555
Ce1 O25 2.548030 1_555
O0 P1 1.571724 1_555
O0 P0 1.645588 1_555
O1 P0 1.490144 1_565
O2 P0 1.484257 1_555
O3 P1 1.569096 1_555
O3 P2 1.637178 1_455
O4 P1 1.576519 1_556
O4 P3 1.625858 1_555
O5 P1 1.476958 1_555
O6 P4 1.584072 1_555
O6 P2 1.652915 1_556
O7 P2 1.487687 1_555
O8 P2 1.485675 1_555
O9 P4 1.583935 1_555
O9 P3 1.619852 1_555
O10 P3 1.483250 1_555
O11 P3 1.489130 1_555
O12 P4 1.572690 1_555
O12 P5 1.642909 1_555
O13 P4 1.474076 1_555
O14 P6 1.567334 1_555
O14 P5 1.659532 1_555
O15 P5 1.483550 1_455
O16 P5 1.485556 1_555
O17 P6 1.570183 1_545
O17 P8 1.635210 1_555
O18 P6 1.587264 1_555
O18 P7 1.635239 1_565
O19 P6 1.476995 1_555
O20 P9 1.588950 1_545
O20 P7 1.633037 1_455
O21 P7 1.484175 1_555
O22 P7 1.487377 1_555
O23 P9 1.568209 1_555
O23 P8 1.651942 1_565
O24 P8 1.485554 1_555
O25 P8 1.485754 1_555
O26 P9 1.579464 1_545
O26 P0 1.654069 1_555
O27 P9 1.475225 1_555
