# generated using pymatgen
data_Y16B4C8I19
_symmetry_space_group_name_H-M   'P 1'
_cell_length_a   12.60743300
_cell_length_b   14.48376410
_cell_length_c   19.84286158
_cell_angle_alpha   104.71143107
_cell_angle_beta   89.61434873
_cell_angle_gamma   112.78139763
_symmetry_Int_Tables_number   1
_chemical_formula_structural   Y16B4C8I19
_chemical_formula_sum   'Y32 B8 C16 I38'
_cell_volume   3214.09453243
_cell_formula_units_Z   2
loop_
 _symmetry_equiv_pos_site_id
 _symmetry_equiv_pos_as_xyz
  1  'x, y, z'
loop_
 _atom_site_type_symbol
 _atom_site_label
 _atom_site_symmetry_multiplicity
 _atom_site_fract_x
 _atom_site_fract_y
 _atom_site_fract_z
 _atom_site_occupancy
  Y  Y0  1  0.31460500  0.34055700  0.22066100  1
  Y  Y1  1  0.57045800  0.34750900  0.22169100  1
  Y  Y2  1  0.68539500  0.65944300  0.77933900  1
  Y  Y3  1  0.39813000  0.26483100  0.04307100  1
  Y  Y4  1  0.32129200  0.71096500  0.54393900  1
  Y  Y5  1  0.85949700  0.72805400  0.54185600  1
  Y  Y6  1  0.63912000  0.50462100  0.40846400  1
  Y  Y7  1  0.44357100  0.65164700  0.27915100  1
  Y  Y8  1  0.39795900  0.26398600  0.37290900  1
  Y  Y9  1  0.13885100  0.27675600  0.95605100  1
  Y  Y10  1  0.32517100  0.71445900  0.04185800  1
  Y  Y11  1  0.40504400  0.26279300  0.87264300  1
  Y  Y12  1  0.86114900  0.72324400  0.04394900  1
  Y  Y13  1  0.67870800  0.28903500  0.45606100  1
  Y  Y14  1  0.60187000  0.73516900  0.95692900  1
  Y  Y15  1  0.59495600  0.73720700  0.12735700  1
  Y  Y16  1  0.63765800  0.50230800  0.09171800  1
  Y  Y17  1  0.36234200  0.49769200  0.90828200  1
  Y  Y18  1  0.14050300  0.27194600  0.45814400  1
  Y  Y19  1  0.69997100  0.65994400  0.27801300  1
  Y  Y20  1  0.40495700  0.26461000  0.54302400  1
  Y  Y21  1  0.36641200  0.49671600  0.40790400  1
  Y  Y22  1  0.36638300  0.49741000  0.09199800  1
  Y  Y23  1  0.63361700  0.50259000  0.90800200  1
  Y  Y24  1  0.42954200  0.65249100  0.77830900  1
  Y  Y25  1  0.36088000  0.49537900  0.59153600  1
  Y  Y26  1  0.67482900  0.28554100  0.95814200  1
  Y  Y27  1  0.59504300  0.73539000  0.45697600  1
  Y  Y28  1  0.63358800  0.50328400  0.59209600  1
  Y  Y29  1  0.55642900  0.34835300  0.72084900  1
  Y  Y30  1  0.30002900  0.34005600  0.72198700  1
  Y  Y31  1  0.60204100  0.73601400  0.62709100  1
  B  B0  1  0.50801500  0.50114700  0.20525400  1
  B  B1  1  0.47077700  0.43011500  0.48699100  1
  B  B2  1  0.49198500  0.49885300  0.79474600  1
  B  B3  1  0.47075300  0.43010100  0.98701900  1
  B  B4  1  0.52924700  0.56989900  0.01298100  1
  B  B5  1  0.49228700  0.50071000  0.70533200  1
  B  B6  1  0.50771300  0.49929000  0.29466800  1
  B  B7  1  0.52922300  0.56988500  0.51300900  1
  C  C0  1  0.66603200  0.63593200  0.52526700  1
  C  C1  1  0.46073500  0.39177500  0.31563500  1
  C  C2  1  0.44985400  0.39169800  0.81600200  1
  C  C3  1  0.44494500  0.63006100  0.02495800  1
  C  C4  1  0.55371600  0.36863400  0.47577900  1
  C  C5  1  0.53926500  0.60822500  0.68436500  1
  C  C6  1  0.33405700  0.36317800  0.97552300  1
  C  C7  1  0.45083700  0.39496000  0.64447200  1
  C  C8  1  0.55505500  0.36993900  0.97504200  1
  C  C9  1  0.66594300  0.63682200  0.02447700  1
  C  C10  1  0.55014600  0.60830200  0.18399800  1
  C  C11  1  0.46114600  0.39524600  0.14463400  1
  C  C12  1  0.44628400  0.63136600  0.52422100  1
  C  C13  1  0.33396800  0.36406800  0.47473300  1
  C  C14  1  0.54916300  0.60504000  0.35552800  1
  C  C15  1  0.53885400  0.60475400  0.85536600  1
  I  I0  1  0.45538900  0.08572200  0.94701800  1
  I  I1  1  0.61689500  0.86775200  0.83389000  1
  I  I2  1  0.50288500  0.90539100  0.64091100  1
  I  I3  1  0.11168700  0.35288800  0.82486800  1
  I  I4  1  0.61521200  0.20503700  0.58419000  1
  I  I5  1  0.86924600  0.19390500  0.43786800  1
  I  I6  1  0.84566900  0.91204700  0.14344800  1
  I  I7  1  0.87324300  0.50603800  0.94957600  1
  I  I8  1  0.86267200  0.81232000  0.70247300  1
  I  I9  1  0.38310500  0.13224800  0.16611000  1
  I  I10  1  0.13732800  0.18768000  0.29752700  1
  I  I11  1  0.77110300  0.36640900  0.32480200  1
  I  I12  1  0.86686000  0.80838700  0.91653700  1
  I  I13  1  0.75081300  0.33860800  0.11447000  1
  I  I14  1  0.54461100  0.91427800  0.05298200  1
  I  I15  1  0.10829400  0.32518800  0.61507600  1
  I  I16  1  0.89170600  0.67481200  0.38492400  1
  I  I17  1  0.81809500  0.92200900  0.53896000  1
  I  I18  1  0.13548800  0.81061000  0.05716600  1
  I  I19  1  0.80563600  0.50978600  0.74892800  1
  I  I20  1  0.86451200  0.18939000  0.94283400  1
  I  I21  1  0.12736900  0.49133500  0.45063400  1
  I  I22  1  0.24918700  0.66139200  0.88553000  1
  I  I23  1  0.13075400  0.80609500  0.56213200  1
  I  I24  1  0.62425200  0.21176500  0.79776800  1
  I  I25  1  0.19436400  0.49021400  0.25107200  1
  I  I26  1  0.18190500  0.07799100  0.46104000  1
  I  I27  1  0.49711500  0.09460900  0.35908900  1
  I  I28  1  0.38478800  0.79496300  0.41581000  1
  I  I29  1  0.15433100  0.08795300  0.85655200  1
  I  I30  1  0.87263100  0.50866500  0.54936600  1
  I  I31  1  0.68394800  0.86851400  0.32794300  1
  I  I32  1  0.13314000  0.19161300  0.08346300  1
  I  I33  1  0.12675700  0.49396200  0.05042400  1
  I  I34  1  0.22889700  0.63359100  0.67519800  1
  I  I35  1  0.37574800  0.78823500  0.20223200  1
  I  I36  1  0.31605200  0.13148600  0.67205700  1
  I  I37  1  0.88831300  0.64711200  0.17513200  1
loop_
_geom_bond_atom_site_label_1
_geom_bond_atom_site_label_2
_geom_bond_distance
_geom_bond_site_symmetry_2
B0 C11 1.587237 1_555
B0 C10 1.599938 1_555
B0 Y19 2.698329 1_555
B0 Y7 2.700719 1_555
B0 Y1 2.721517 1_555
B0 Y0 2.721794 1_555
B0 Y16 2.774096 1_555
B1 C4 1.597862 1_555
B1 C13 1.599660 1_555
B1 Y25 2.663877 1_555
B1 Y6 2.670730 1_555
B2 C15 1.587237 1_555
B2 C2 1.599938 1_555
B2 Y30 2.698329 1_555
B2 Y29 2.700719 1_555
B2 Y24 2.721517 1_555
B2 Y2 2.721794 1_555
B2 Y17 2.774096 1_555
B3 C8 1.598130 1_555
B3 C6 1.600298 1_555
B3 Y16 2.662472 1_556
B3 Y17 2.666326 1_555
B4 C3 1.598130 1_555
B4 C9 1.600298 1_555
B4 Y17 2.662472 1_554
B4 Y16 2.666326 1_555
B5 C7 1.589535 1_555
B5 C5 1.600094 1_555
B5 Y24 2.696285 1_555
B5 Y29 2.710847 1_555
B5 Y2 2.714420 1_555
B5 Y30 2.722260 1_555
B5 Y25 2.777069 1_555
B6 C14 1.589535 1_555
B6 C1 1.600094 1_555
B6 Y1 2.696285 1_555
B6 Y7 2.710847 1_555
B6 Y0 2.714420 1_555
B6 Y19 2.722260 1_555
B6 Y6 2.777069 1_555
B7 C12 1.597862 1_555
B7 C0 1.599660 1_555
B7 Y6 2.663877 1_555
B7 Y25 2.670730 1_555
C0 Y5 2.259477 1_555
C0 Y31 2.496119 1_555
C0 Y28 2.508996 1_555
C0 Y6 2.525082 1_555
C0 Y27 2.592026 1_555
C1 Y8 2.294666 1_555
C1 Y0 2.402976 1_555
C1 Y1 2.417580 1_555
C1 Y6 2.608106 1_555
C1 Y21 2.652079 1_555
C2 Y11 2.304027 1_555
C2 Y29 2.404477 1_555
C2 Y30 2.419132 1_555
C2 Y17 2.604569 1_555
C2 Y23 2.639274 1_555
C3 Y10 2.258636 1_555
C3 Y22 2.499723 1_555
C3 Y15 2.508182 1_555
C3 Y17 2.520337 1_554
C3 Y14 2.594078 1_554
C4 Y13 2.266062 1_555
C4 Y20 2.523278 1_555
C4 Y28 2.523649 1_555
C4 Y6 2.548985 1_555
C4 Y8 2.549049 1_555
C5 Y31 2.294666 1_555
C5 Y2 2.402976 1_555
C5 Y24 2.417580 1_555
C5 Y25 2.608106 1_555
C5 Y28 2.652079 1_555
C6 Y9 2.270315 1_555
C6 Y3 2.520607 1_556
C6 Y22 2.530699 1_556
C6 Y17 2.545386 1_555
C6 Y11 2.560857 1_555
C7 Y20 2.278352 1_555
C7 Y29 2.401555 1_555
C7 Y30 2.454403 1_555
C7 Y25 2.564065 1_555
C7 Y28 2.616615 1_555
C8 Y26 2.258636 1_555
C8 Y23 2.499723 1_555
C8 Y11 2.508182 1_555
C8 Y16 2.520337 1_556
C8 Y3 2.594078 1_556
C9 Y12 2.270315 1_555
C9 Y14 2.520607 1_554
C9 Y23 2.530699 1_554
C9 Y16 2.545386 1_555
C9 Y15 2.560857 1_555
C10 Y15 2.304027 1_555
C10 Y7 2.404477 1_555
C10 Y19 2.419132 1_555
C10 Y16 2.604569 1_555
C10 Y22 2.639274 1_555
C11 Y3 2.277392 1_555
C11 Y0 2.398467 1_555
C11 Y1 2.453265 1_555
C11 Y16 2.565621 1_555
C11 Y22 2.622714 1_555
C12 Y4 2.266062 1_555
C12 Y27 2.523278 1_555
C12 Y21 2.523649 1_555
C12 Y25 2.548985 1_555
C12 Y31 2.549049 1_555
C13 Y18 2.259477 1_555
C13 Y8 2.496119 1_555
C13 Y21 2.508996 1_555
C13 Y25 2.525082 1_555
C13 Y20 2.592026 1_555
C14 Y27 2.278352 1_555
C14 Y7 2.401555 1_555
C14 Y19 2.454403 1_555
C14 Y6 2.564065 1_555
C14 Y21 2.616615 1_555
C15 Y14 2.277392 1_555
C15 Y2 2.398467 1_555
C15 Y24 2.453265 1_555
C15 Y17 2.565621 1_555
C15 Y23 2.622714 1_555
I0 Y26 3.092194 1_555
I0 Y3 3.131142 1_556
I0 Y11 3.514825 1_555
I1 Y24 3.016891 1_555
I1 Y2 3.371489 1_555
I1 Y14 3.431817 1_555
I2 Y4 3.031230 1_555
I2 Y31 3.112063 1_555
I3 Y9 3.141866 1_555
I3 Y30 3.150266 1_555
I3 Y17 3.209232 1_555
I4 Y13 3.061762 1_555
I4 Y29 3.242952 1_555
I4 Y20 3.255266 1_555
I5 Y18 3.151008 1_655
I5 Y13 3.177775 1_555
I6 Y12 3.013304 1_555
I6 Y15 3.147976 1_555
I7 Y23 3.115393 1_555
I7 Y26 3.250965 1_555
I7 Y12 3.286721 1_556
I8 Y5 3.104359 1_555
I8 Y2 3.171961 1_555
I8 Y31 3.266505 1_555
I9 Y1 3.016891 1_555
I9 Y0 3.371489 1_555
I9 Y3 3.431817 1_555
I10 Y18 3.104359 1_555
I10 Y0 3.171961 1_555
I10 Y8 3.266505 1_555
I11 Y13 3.134834 1_555
I11 Y1 3.147861 1_555
I11 Y6 3.222822 1_555
I12 Y12 3.070854 1_556
I12 Y2 3.252408 1_555
I12 Y14 3.252716 1_555
I13 Y26 3.064256 1_554
I13 Y1 3.120255 1_555
I13 Y16 3.321507 1_555
I14 Y10 3.092194 1_555
I14 Y14 3.131142 1_554
I14 Y15 3.514825 1_555
I15 Y18 3.076081 1_555
I15 Y30 3.134317 1_555
I15 Y25 3.304684 1_555
I16 Y5 3.076081 1_555
I16 Y19 3.134317 1_555
I16 Y6 3.304684 1_555
I17 Y5 3.063547 1_555
I17 Y27 3.130843 1_555
I18 Y12 3.175993 1_455
I18 Y10 3.178845 1_555
I19 Y2 3.037883 1_555
I19 Y29 3.053112 1_555
I20 Y9 3.175993 1_655
I20 Y26 3.178845 1_555
I21 Y21 3.102378 1_555
I21 Y4 3.251314 1_555
I21 Y18 3.285566 1_555
I22 Y10 3.064256 1_556
I22 Y24 3.120255 1_555
I22 Y17 3.321507 1_555
I23 Y5 3.151008 1_455
I23 Y4 3.177775 1_555
I24 Y26 3.073737 1_555
I24 Y29 3.136180 1_555
I24 Y11 3.370495 1_555
I25 Y0 3.037883 1_555
I25 Y7 3.053112 1_555
I26 Y18 3.063547 1_555
I26 Y20 3.130843 1_555
I27 Y13 3.031230 1_555
I27 Y8 3.112063 1_555
I28 Y4 3.061762 1_555
I28 Y7 3.242952 1_555
I28 Y27 3.255266 1_555
I29 Y9 3.013304 1_555
I29 Y11 3.147976 1_555
I30 Y28 3.102378 1_555
I30 Y13 3.251314 1_555
I30 Y5 3.285566 1_555
I31 Y19 3.016270 1_555
I31 Y7 3.333281 1_555
I31 Y27 3.510653 1_555
I31 Y15 3.909059 1_555
I32 Y9 3.070854 1_554
I32 Y0 3.252408 1_555
I32 Y3 3.252716 1_555
I33 Y22 3.115393 1_555
I33 Y10 3.250965 1_555
I33 Y9 3.286721 1_554
I34 Y4 3.134834 1_555
I34 Y24 3.147861 1_555
I34 Y25 3.222822 1_555
I35 Y10 3.073737 1_555
I35 Y7 3.136180 1_555
I35 Y15 3.370495 1_555
I36 Y30 3.016270 1_555
I36 Y29 3.333281 1_555
I36 Y20 3.510653 1_555
I36 Y11 3.909059 1_555
I37 Y12 3.141866 1_555
I37 Y19 3.150266 1_555
I37 Y16 3.209232 1_555
