# generated using pymatgen
data_K2LaP2Se7
_symmetry_space_group_name_H-M   'P 1'
_cell_length_a   7.34274900
_cell_length_b   9.61446800
_cell_length_c   22.32902640
_cell_angle_alpha   71.15978148
_cell_angle_beta   90.00000000
_cell_angle_gamma   90.00000000
_symmetry_Int_Tables_number   1
_chemical_formula_structural   K2LaP2Se7
_chemical_formula_sum   'K8 La4 P8 Se28'
_cell_volume   1491.89730332
_cell_formula_units_Z   4
loop_
 _symmetry_equiv_pos_site_id
 _symmetry_equiv_pos_as_xyz
  1  'x, y, z'
loop_
 _atom_site_type_symbol
 _atom_site_label
 _atom_site_symmetry_multiplicity
 _atom_site_fract_x
 _atom_site_fract_y
 _atom_site_fract_z
 _atom_site_occupancy
  K  K0  1  0.51006800  0.75299800  0.49090900  1
  K  K1  1  0.01006800  0.24700200  0.00909100  1
  K  K2  1  0.48993200  0.24700200  0.50909100  1
  K  K3  1  0.98993200  0.75299800  0.99090900  1
  K  K4  1  0.04940800  0.84152300  0.31696400  1
  K  K5  1  0.54940800  0.15847700  0.18303600  1
  K  K6  1  0.95059200  0.15847700  0.68303600  1
  K  K7  1  0.45059200  0.84152300  0.81696400  1
  La  La0  1  0.97059600  0.34453100  0.35007100  1
  La  La1  1  0.47059600  0.65546900  0.14992900  1
  La  La2  1  0.02940400  0.65546900  0.64992900  1
  La  La3  1  0.52940400  0.34453100  0.85007100  1
  P  P0  1  0.51578000  0.57403700  0.33046000  1
  P  P1  1  0.01578000  0.42596300  0.16954000  1
  P  P2  1  0.48422000  0.42596300  0.66954000  1
  P  P3  1  0.98422000  0.57403700  0.83046000  1
  P  P4  1  0.98851900  0.03812400  0.54258600  1
  P  P5  1  0.48851900  0.96187600  0.95741400  1
  P  P6  1  0.01148100  0.96187600  0.45741400  1
  P  P7  1  0.51148100  0.03812400  0.04258500  1
  Se  Se0  1  0.95565500  0.27783600  0.50270200  1
  Se  Se1  1  0.45565500  0.72216400  0.99729800  1
  Se  Se2  1  0.04434500  0.72216400  0.49729800  1
  Se  Se3  1  0.54434500  0.27783600  0.00270200  1
  Se  Se4  1  0.27691600  0.51337800  0.39505700  1
  Se  Se5  1  0.77691600  0.48662200  0.10494300  1
  Se  Se6  1  0.72308400  0.48662200  0.60494300  1
  Se  Se7  1  0.22308400  0.51337800  0.89505700  1
  Se  Se8  1  0.58800300  0.41347000  0.28011300  1
  Se  Se9  1  0.08800300  0.58653000  0.21988700  1
  Se  Se10  1  0.41199700  0.58653000  0.71988700  1
  Se  Se11  1  0.91199700  0.41347000  0.78011300  1
  Se  Se12  1  0.96741500  0.20931700  0.24352500  1
  Se  Se13  1  0.46741500  0.79068300  0.25647500  1
  Se  Se14  1  0.03258500  0.79068300  0.75647500  1
  Se  Se15  1  0.53258500  0.20931700  0.74352500  1
  Se  Se16  1  0.76414200  0.04349900  0.40022500  1
  Se  Se17  1  0.26414200  0.95650100  0.09977500  1
  Se  Se18  1  0.23585800  0.95650100  0.59977500  1
  Se  Se19  1  0.73585800  0.04349900  0.90022500  1
  Se  Se20  1  0.24946900  0.07656400  0.40344100  1
  Se  Se21  1  0.74946900  0.92343600  0.09655900  1
  Se  Se22  1  0.75053100  0.92343600  0.59655900  1
  Se  Se23  1  0.25053100  0.07656400  0.90344100  1
  Se  Se24  1  0.75284600  0.57947600  0.39150700  1
  Se  Se25  1  0.25284600  0.42052400  0.10849300  1
  Se  Se26  1  0.24715400  0.42052400  0.60849300  1
  Se  Se27  1  0.74715400  0.57947600  0.89150700  1
loop_
_geom_bond_atom_site_label_1
_geom_bond_atom_site_label_2
_geom_bond_distance
_geom_bond_site_symmetry_2
K0 Se6 3.358162 1_555
K0 Se16 3.424743 1_565
K0 Se2 3.431498 1_555
K0 Se20 3.637262 1_565
K0 Se24 3.644055 1_555
K0 Se22 3.723531 1_555
K1 Se7 3.358162 1_554
K1 Se17 3.424743 1_545
K1 Se3 3.431498 1_455
K1 Se21 3.637262 1_445
K1 Se25 3.644055 1_555
K1 Se23 3.723531 1_554
K2 Se4 3.358162 1_555
K2 Se18 3.424743 1_545
K2 Se0 3.431498 1_555
K2 Se22 3.637262 1_545
K2 Se26 3.644055 1_555
K2 Se20 3.723531 1_555
K3 Se5 3.358162 1_556
K3 Se19 3.424743 1_565
K3 Se1 3.431498 1_655
K3 Se23 3.637262 1_665
K3 Se27 3.644055 1_555
K3 Se21 3.723531 1_556
K4 Se24 3.339382 1_455
K4 Se12 3.436667 1_465
K4 Se13 3.451135 1_555
K4 Se4 3.497403 1_555
K4 P6 3.687202 1_555
K4 Se20 3.716372 1_565
K4 Se16 3.734508 1_465
K4 Se9 3.771160 1_555
K4 Se2 3.814186 1_555
K5 Se25 3.339382 1_555
K5 Se13 3.436667 1_545
K5 Se12 3.451135 1_555
K5 Se5 3.497403 1_555
K5 P7 3.687223 1_555
K5 Se21 3.716372 1_545
K5 Se17 3.734508 1_545
K5 Se8 3.771160 1_555
K5 Se3 3.814186 1_555
K6 Se26 3.339382 1_655
K6 Se14 3.436667 1_645
K6 Se15 3.451135 1_555
K6 Se6 3.497403 1_555
K6 P4 3.687202 1_555
K6 Se22 3.716372 1_545
K6 Se18 3.734508 1_645
K6 Se11 3.771160 1_555
K6 Se0 3.814186 1_555
K7 Se27 3.339382 1_555
K7 Se15 3.436667 1_565
K7 Se14 3.451135 1_555
K7 Se7 3.497403 1_555
K7 P5 3.687202 1_555
K7 Se23 3.716372 1_565
K7 Se19 3.734508 1_565
K7 Se10 3.771160 1_555
K7 Se1 3.814186 1_555
La0 Se12 3.057461 1_555
La0 Se4 3.123552 1_655
La0 Se16 3.136174 1_555
La0 Se24 3.140827 1_555
La0 Se8 3.178495 1_555
La0 Se9 3.199755 1_655
La0 Se20 3.204354 1_655
La0 Se0 3.259895 1_555
La1 Se13 3.057461 1_555
La1 Se5 3.123552 1_555
La1 Se17 3.136174 1_555
La1 Se25 3.140827 1_555
La1 Se9 3.178495 1_555
La1 Se8 3.199755 1_555
La1 Se21 3.204354 1_555
La1 Se1 3.259895 1_554
La2 Se14 3.057461 1_555
La2 Se6 3.123552 1_455
La2 Se18 3.136174 1_555
La2 Se26 3.140827 1_555
La2 Se10 3.178495 1_555
La2 Se11 3.199755 1_455
La2 Se22 3.204354 1_455
La2 Se2 3.259895 1_555
La3 Se15 3.057461 1_555
La3 Se7 3.123552 1_555
La3 Se19 3.136174 1_555
La3 Se27 3.140827 1_555
La3 Se11 3.178495 1_555
La3 Se10 3.199755 1_555
La3 Se23 3.204354 1_555
La3 Se3 3.259895 1_556
P0 Se24 2.221927 1_555
P0 Se4 2.225655 1_555
P0 Se13 2.229677 1_555
P0 Se8 2.247035 1_555
P1 Se25 2.221927 1_555
P1 Se5 2.225655 1_455
P1 Se12 2.229677 1_455
P1 Se9 2.247035 1_555
P2 Se26 2.221927 1_555
P2 Se6 2.225655 1_555
P2 Se15 2.229677 1_555
P2 Se10 2.247035 1_555
P3 Se27 2.221927 1_555
P3 Se7 2.225655 1_655
P3 Se14 2.229677 1_655
P3 Se11 2.247035 1_555
P4 Se0 2.199404 1_555
P4 Se22 2.205384 1_545
P4 Se18 2.213070 1_645
P5 Se1 2.199404 1_555
P5 Se23 2.205384 1_565
P5 Se19 2.213070 1_565
P6 Se2 2.199404 1_555
P6 Se20 2.205384 1_565
P6 Se16 2.213070 1_465
P7 Se3 2.199402 1_555
P7 Se21 2.205393 1_545
P7 Se17 2.213080 1_545
