# generated using pymatgen
data_NdIr5
_symmetry_space_group_name_H-M   'P 1'
_cell_length_a   5.35986726
_cell_length_b   5.35986726
_cell_length_c   4.32885100
_cell_angle_alpha   90.00000000
_cell_angle_beta   90.00000000
_cell_angle_gamma   119.99999093
_symmetry_Int_Tables_number   1
_chemical_formula_structural   NdIr5
_chemical_formula_sum   'Nd1 Ir5'
_cell_volume   107.69892746
_cell_formula_units_Z   1
loop_
 _symmetry_equiv_pos_site_id
 _symmetry_equiv_pos_as_xyz
  1  'x, y, z'
loop_
 _atom_site_type_symbol
 _atom_site_label
 _atom_site_symmetry_multiplicity
 _atom_site_fract_x
 _atom_site_fract_y
 _atom_site_fract_z
 _atom_site_occupancy
  Nd  Nd0  1  0.00000000  0.00000000  0.00000000  1
  Ir  Ir0  1  0.50000000  0.50000000  0.50000000  1
  Ir  Ir1  1  0.66666700  0.33333300  0.00000000  1
  Ir  Ir2  1  0.00000000  0.50000000  0.50000000  1
  Ir  Ir3  1  0.33333300  0.66666700  0.00000000  1
  Ir  Ir4  1  0.50000000  0.00000000  0.50000000  1
loop_
_geom_bond_atom_site_label_1
_geom_bond_atom_site_label_2
_geom_bond_distance
_geom_bond_site_symmetry_2
Ir0 Ir1 2.660594 1_556
Ir0 Ir3 2.660594 1_555
Ir0 Ir1 2.660594 1_555
Ir0 Ir3 2.660594 1_556
Ir0 Ir4 2.679934 1_555
Ir0 Ir2 2.679934 1_655
Ir0 Ir2 2.679934 1_555
Ir0 Ir4 2.679934 1_565
Ir0 Nd0 3.444820 1_665
Ir0 Nd0 3.444820 1_666
Ir0 Nd0 3.444820 1_555
Ir0 Nd0 3.444820 1_556
Ir1 Ir4 2.660592 1_555
Ir1 Ir4 2.660592 1_554
Ir1 Ir2 2.660592 1_655
Ir1 Ir2 2.660592 1_654
Ir1 Nd0 3.094518 1_655
Ir1 Ir3 3.094518 1_545
Ir1 Ir3 3.094518 1_655
Ir1 Nd0 3.094523 1_665
Ir1 Nd0 3.094523 1_555
Ir1 Ir3 3.094527 1_555
Ir2 Ir3 2.660592 1_556
Ir2 Ir3 2.660592 1_555
Ir2 Ir4 2.679934 1_455
Ir2 Ir4 2.679934 1_565
Ir2 Nd0 3.444820 1_555
Ir2 Nd0 3.444820 1_556
Ir2 Nd0 3.444820 1_565
Ir2 Nd0 3.444820 1_566
Ir3 Ir4 2.660592 1_564
Ir3 Ir4 2.660592 1_565
Ir3 Nd0 3.094518 1_565
Ir3 Nd0 3.094523 1_665
Ir3 Nd0 3.094523 1_555
Ir4 Nd0 3.444820 1_656
Ir4 Nd0 3.444820 1_555
Ir4 Nd0 3.444820 1_556
Ir4 Nd0 3.444820 1_655
