# generated using pymatgen
data_Ba6Cu34S27
_symmetry_space_group_name_H-M   'P 1'
_cell_length_a   9.22149200
_cell_length_b   12.50998081
_cell_length_c   12.57160652
_cell_angle_alpha   114.09704559
_cell_angle_beta   103.94350165
_cell_angle_gamma   103.74241842
_symmetry_Int_Tables_number   1
_chemical_formula_structural   Ba6Cu34S27
_chemical_formula_sum   'Ba6 Cu34 S27'
_cell_volume   1188.92383602
_cell_formula_units_Z   1
loop_
 _symmetry_equiv_pos_site_id
 _symmetry_equiv_pos_as_xyz
  1  'x, y, z'
loop_
 _atom_site_type_symbol
 _atom_site_label
 _atom_site_symmetry_multiplicity
 _atom_site_fract_x
 _atom_site_fract_y
 _atom_site_fract_z
 _atom_site_occupancy
  Ba  Ba0  1  0.30327000  0.25979900  0.05728600  1
  Ba  Ba1  1  0.73982300  0.04037200  0.77831400  1
  Ba  Ba2  1  0.96815900  0.22702000  0.27809200  1
  Ba  Ba3  1  0.03566500  0.77984900  0.72967900  1
  Ba  Ba4  1  0.25423900  0.96002600  0.21262700  1
  Ba  Ba5  1  0.69078300  0.73107400  0.94093900  1
  Cu  Cu0  1  0.94559500  0.80288400  0.32672400  1
  Cu  Cu1  1  0.38401300  0.32347100  0.52658200  1
  Cu  Cu2  1  0.98877900  0.61208500  0.07150400  1
  Cu  Cu3  1  0.51930400  0.41240700  0.90179000  1
  Cu  Cu4  1  0.69218800  0.54028700  0.24610000  1
  Cu  Cu5  1  0.08460900  0.07233900  0.46240200  1
  Cu  Cu6  1  0.56105100  0.24760100  0.70490800  1
  Cu  Cu7  1  0.80321000  0.40804600  0.05302000  1
  Cu  Cu8  1  0.89607300  0.51169600  0.41119000  1
  Cu  Cu9  1  0.62198000  0.53250900  0.60484300  1
  Cu  Cu10  1  0.24410700  0.03984700  0.64033000  1
  Cu  Cu11  1  0.60365600  0.33133000  0.39149200  1
  Cu  Cu12  1  0.66030700  0.19248400  0.04213900  1
  Cu  Cu13  1  0.38132000  0.90291900  0.49003100  1
  Cu  Cu14  1  0.38432000  0.02907500  0.84326900  1
  Cu  Cu15  1  0.85808200  0.47470900  0.79795100  1
  Cu  Cu16  1  0.85775500  0.28971400  0.54649000  1
  Cu  Cu17  1  0.14000200  0.70977300  0.45103100  1
  Cu  Cu18  1  0.14263500  0.52764400  0.20228300  1
  Cu  Cu19  1  0.62339300  0.97036700  0.15756100  1
  Cu  Cu20  1  0.61520400  0.09529500  0.50624000  1
  Cu  Cu21  1  0.34841700  0.80912600  0.95788000  1
  Cu  Cu22  1  0.39627000  0.66889800  0.60861400  1
  Cu  Cu23  1  0.75624400  0.95995400  0.36116300  1
  Cu  Cu24  1  0.37659500  0.46678800  0.39483600  1
  Cu  Cu25  1  0.10233800  0.48931000  0.58971300  1
  Cu  Cu26  1  0.19794900  0.59414400  0.94743900  1
  Cu  Cu27  1  0.43760100  0.75015000  0.29341900  1
  Cu  Cu28  1  0.91534200  0.92815500  0.53863200  1
  Cu  Cu29  1  0.30782800  0.45915100  0.75458000  1
  Cu  Cu30  1  0.47949100  0.58594700  0.09864300  1
  Cu  Cu31  1  0.01045800  0.38815700  0.92718700  1
  Cu  Cu32  1  0.61529500  0.67402500  0.47204500  1
  Cu  Cu33  1  0.05309700  0.19627900  0.67482000  1
  S  S0  1  0.56034300  0.44334700  0.73097200  1
  S  S1  1  0.73147300  0.57510300  0.08647600  1
  S  S2  1  0.87985600  0.71268800  0.44231900  1
  S  S3  1  0.35614700  0.09096700  0.51645600  1
  S  S4  1  0.53928900  0.22211500  0.87816100  1
  S  S5  1  0.07584700  0.05961000  0.74470000  1
  S  S6  1  0.68279700  0.34709100  0.22861100  1
  S  S7  1  0.98837700  0.32170200  0.06682400  1
  S  S8  1  0.83605100  0.47788500  0.56794800  1
  S  S9  1  0.33068600  0.26004300  0.32236200  1
  S  S10  1  0.17094700  0.73520600  0.28315700  1
  S  S11  1  0.34513400  0.87036000  0.65098500  1
  S  S12  1  0.31841300  0.99039900  0.98805300  1
  S  S13  1  0.70391600  0.00999800  0.01213100  1
  S  S14  1  0.65362000  0.12937200  0.34686000  1
  S  S15  1  0.93633000  0.00736100  0.00934300  1
  S  S16  1  0.82844200  0.26669200  0.71564900  1
  S  S17  1  0.66818800  0.73901500  0.67655200  1
  S  S18  1  0.16417300  0.52365100  0.43328600  1
  S  S19  1  0.01127000  0.68108600  0.93371500  1
  S  S20  1  0.31681200  0.65149900  0.77072400  1
  S  S21  1  0.92274500  0.93974500  0.25722700  1
  S  S22  1  0.46153000  0.77661800  0.12033800  1
  S  S23  1  0.64154100  0.90770900  0.48173900  1
  S  S24  1  0.11955100  0.28728400  0.56000000  1
  S  S25  1  0.26769800  0.42476400  0.91417900  1
  S  S26  1  0.43787200  0.55398300  0.26744600  1
loop_
_geom_bond_atom_site_label_1
_geom_bond_atom_site_label_2
_geom_bond_distance
_geom_bond_site_symmetry_2
Ba0 S12 3.165777 1_544
Ba0 S7 3.194747 1_455
Ba0 S26 3.220973 1_555
Ba0 S25 3.266827 1_554
Ba0 S6 3.272757 1_555
Ba0 S9 3.279379 1_555
Ba0 S5 3.407249 1_554
Ba0 S4 3.465946 1_554
Ba0 S15 3.764540 1_455
Ba1 S23 3.175064 1_545
Ba1 S5 3.193410 1_655
Ba1 S13 3.196209 1_556
Ba1 S16 3.215086 1_555
Ba1 S15 3.269299 1_556
Ba1 S17 3.279774 1_545
Ba1 S4 3.309129 1_555
Ba1 S11 3.326722 1_545
Ba1 S7 3.540147 1_556
Ba2 S9 3.148930 1_655
Ba2 S13 3.163204 1_555
Ba2 S24 3.164065 1_655
Ba2 S18 3.169511 1_655
Ba2 S15 3.257298 1_555
Ba2 S14 3.322659 1_555
Ba2 S7 3.345823 1_555
Ba2 S6 3.379334 1_555
Ba2 S21 3.409084 1_545
Ba3 S12 3.155324 1_555
Ba3 S17 3.162031 1_455
Ba3 S2 3.204296 1_455
Ba3 S8 3.226942 1_455
Ba3 S19 3.300083 1_555
Ba3 S11 3.338395 1_555
Ba3 S5 3.351428 1_565
Ba3 S20 3.402290 1_555
Ba4 S12 3.168543 1_554
Ba4 S21 3.208876 1_455
Ba4 S9 3.245451 1_565
Ba4 S3 3.253542 1_565
Ba4 S10 3.259517 1_555
Ba4 S22 3.353112 1_555
Ba4 S14 3.358289 1_565
Ba4 S19 3.464035 1_554
Ba4 S15 3.731746 1_465
Ba5 S0 3.166222 1_555
Ba5 S19 3.177194 1_655
Ba5 S13 3.191870 1_566
Ba5 S1 3.198066 1_556
Ba5 S20 3.245884 1_555
Ba5 S15 3.275530 1_566
Ba5 S17 3.323616 1_555
Ba5 S22 3.420697 1_556
Ba5 S21 3.460166 1_556
Cu0 S21 2.245724 1_555
Cu0 S2 2.278382 1_555
Cu0 S10 2.518137 1_655
Cu0 S1 2.926737 1_555
Cu1 S9 2.237304 1_555
Cu1 S0 2.275228 1_555
Cu1 S24 2.540353 1_555
Cu1 S3 2.805190 1_555
Cu2 S19 2.257833 1_654
Cu2 S10 2.354623 1_655
Cu2 S1 2.375747 1_555
Cu3 S1 2.328360 1_556
Cu3 S4 2.333796 1_555
Cu3 S25 2.399230 1_555
Cu3 S0 2.430101 1_555
Cu4 S1 2.310192 1_555
Cu4 S6 2.314003 1_555
Cu4 S2 2.357219 1_555
Cu4 S26 2.461273 1_555
Cu5 S21 2.259884 1_445
Cu5 S24 2.354467 1_555
Cu5 S3 2.357847 1_555
Cu6 S3 2.305532 1_555
Cu6 S0 2.336098 1_555
Cu6 S4 2.373437 1_555
Cu6 S16 2.385075 1_555
Cu7 S7 2.235852 1_555
Cu7 S1 2.248397 1_555
Cu7 S4 2.592797 1_554
Cu7 S6 2.973353 1_555
Cu8 S6 2.327564 1_555
Cu8 S8 2.337524 1_555
Cu8 S18 2.381416 1_655
Cu8 S2 2.429220 1_555
Cu9 S17 2.249067 1_555
Cu9 S8 2.324296 1_555
Cu9 S0 2.378829 1_555
Cu10 S5 2.255821 1_555
Cu10 S3 2.275149 1_555
Cu10 S11 2.547883 1_545
Cu10 S4 3.018292 1_555
Cu11 S9 2.265643 1_555
Cu11 S8 2.322944 1_555
Cu11 S6 2.397074 1_555
Cu11 S14 2.535814 1_555
Cu12 S6 2.269829 1_555
Cu12 S13 2.306880 1_555
Cu12 S4 2.311766 1_554
Cu12 S7 2.945544 1_555
Cu13 S11 2.303350 1_555
Cu13 S3 2.314489 1_565
Cu13 S23 2.414539 1_555
Cu13 S10 2.471492 1_555
Cu14 S12 2.242546 1_545
Cu14 S11 2.288061 1_545
Cu14 S4 2.293409 1_555
Cu14 S5 2.996186 1_555
Cu15 S19 2.254152 1_655
Cu15 S16 2.290047 1_555
Cu15 S0 2.550595 1_555
Cu15 S8 2.866742 1_555
Cu16 S8 2.320678 1_555
Cu16 S16 2.327791 1_555
Cu16 S14 2.384132 1_555
Cu16 S24 2.387335 1_655
Cu17 S18 2.316723 1_555
Cu17 S10 2.330674 1_555
Cu17 S2 2.384620 1_455
Cu17 S11 2.390029 1_555
Cu18 S7 2.251615 1_455
Cu18 S10 2.288763 1_555
Cu18 S26 2.543685 1_555
Cu18 S18 2.884582 1_555
Cu19 S14 2.291130 1_565
Cu19 S22 2.310849 1_555
Cu19 S13 2.315021 1_565
Cu19 S21 2.926492 1_555
Cu20 S14 2.299935 1_555
Cu20 S23 2.318933 1_545
Cu20 S3 2.412119 1_555
Cu20 S16 2.507468 1_555
Cu21 S12 2.238141 1_555
Cu21 S20 2.262124 1_555
Cu21 S22 2.297324 1_556
Cu21 S19 3.017497 1_555
Cu22 S17 2.257769 1_555
Cu22 S18 2.312819 1_555
Cu22 S20 2.396609 1_555
Cu22 S11 2.539175 1_555
Cu23 S21 2.238342 1_555
Cu23 S23 2.257645 1_555
Cu23 S14 2.569426 1_565
Cu23 S22 3.035695 1_555
Cu24 S9 2.251301 1_555
Cu24 S18 2.326876 1_555
Cu24 S26 2.375649 1_555
Cu25 S20 2.315369 1_555
Cu25 S18 2.343259 1_555
Cu25 S8 2.366981 1_455
Cu25 S24 2.449585 1_555
Cu26 S19 2.252959 1_555
Cu26 S25 2.265413 1_555
Cu26 S22 2.570886 1_556
Cu26 S20 2.958582 1_555
Cu27 S23 2.304227 1_555
Cu27 S26 2.340503 1_555
Cu27 S22 2.382832 1_555
Cu27 S10 2.388940 1_555
Cu28 S5 2.263448 1_665
Cu28 S2 2.358755 1_555
Cu28 S23 2.371783 1_555
Cu29 S25 2.309696 1_555
Cu29 S20 2.310106 1_555
Cu29 S24 2.346465 1_555
Cu29 S0 2.460338 1_555
Cu30 S25 2.320769 1_554
Cu30 S22 2.338733 1_555
Cu30 S1 2.396927 1_555
Cu30 S26 2.413113 1_555
Cu31 S7 2.257828 1_456
Cu31 S16 2.352825 1_455
Cu31 S25 2.365474 1_555
Cu32 S17 2.238138 1_555
Cu32 S26 2.279991 1_555
Cu32 S2 2.520280 1_555
Cu32 S23 2.824588 1_555
Cu33 S5 2.246558 1_555
Cu33 S24 2.278594 1_555
Cu33 S16 2.518216 1_455
Cu33 S25 2.925828 1_555
S13 S15 2.159743 1_555
