# generated using pymatgen
data_Ba23U8O48
_symmetry_space_group_name_H-M   'P 1'
_cell_length_a   13.05845206
_cell_length_b   13.05845206
_cell_length_c   13.05845206
_cell_angle_alpha   60.00000000
_cell_angle_beta   60.00000000
_cell_angle_gamma   60.00000000
_symmetry_Int_Tables_number   1
_chemical_formula_structural   Ba23U8O48
_chemical_formula_sum   'Ba23 U8 O48'
_cell_volume   1574.56320600
_cell_formula_units_Z   1
loop_
 _symmetry_equiv_pos_site_id
 _symmetry_equiv_pos_as_xyz
  1  'x, y, z'
loop_
 _atom_site_type_symbol
 _atom_site_label
 _atom_site_symmetry_multiplicity
 _atom_site_fract_x
 _atom_site_fract_y
 _atom_site_fract_z
 _atom_site_occupancy
  Ba  Ba0  1  0.50000000  0.50000000  0.00000000  1
  Ba  Ba1  1  0.63240800  0.63240800  0.10277600  1
  Ba  Ba2  1  0.36759200  0.36759200  0.36759200  1
  Ba  Ba3  1  0.50000000  0.50000000  0.50000000  1
  Ba  Ba4  1  0.00000000  0.50000000  0.00000000  1
  Ba  Ba5  1  0.50000000  0.00000000  0.00000000  1
  Ba  Ba6  1  0.00000000  0.50000000  0.50000000  1
  Ba  Ba7  1  0.36759200  0.89722400  0.36759200  1
  Ba  Ba8  1  0.10277600  0.63240800  0.63240800  1
  Ba  Ba9  1  0.31876400  0.89374500  0.89374500  1
  Ba  Ba10  1  0.10625500  0.68123600  0.10625500  1
  Ba  Ba11  1  0.89374500  0.89374500  0.89374500  1
  Ba  Ba12  1  0.10625500  0.10625500  0.68123600  1
  Ba  Ba13  1  0.89374500  0.89374500  0.31876400  1
  Ba  Ba14  1  0.10625500  0.10625500  0.10625500  1
  Ba  Ba15  1  0.00000000  0.00000000  0.50000000  1
  Ba  Ba16  1  0.89374500  0.31876400  0.89374500  1
  Ba  Ba17  1  0.68123600  0.10625500  0.10625500  1
  Ba  Ba18  1  0.89722400  0.36759200  0.36759200  1
  Ba  Ba19  1  0.63240800  0.10277600  0.63240800  1
  Ba  Ba20  1  0.50000000  0.00000000  0.50000000  1
  Ba  Ba21  1  0.63240800  0.63240800  0.63240800  1
  Ba  Ba22  1  0.36759200  0.36759200  0.89722400  1
  U  U0  1  0.25000000  0.25000000  0.25000000  1
  U  U1  1  0.25027300  0.74972700  0.74972700  1
  U  U2  1  0.25027300  0.74972700  0.25027300  1
  U  U3  1  0.25027300  0.25027300  0.74972700  1
  U  U4  1  0.74972700  0.74972700  0.25027300  1
  U  U5  1  0.75000000  0.75000000  0.75000000  1
  U  U6  1  0.74972700  0.25027300  0.74972700  1
  U  U7  1  0.74972700  0.25027300  0.25027300  1
  O  O0  1  0.86683100  0.13316900  0.86683100  1
  O  O1  1  0.86527500  0.35934800  0.64065200  1
  O  O2  1  0.64065200  0.13472500  0.86527500  1
  O  O3  1  0.35934800  0.13472500  0.86527500  1
  O  O4  1  0.86527500  0.64065200  0.35934800  1
  O  O5  1  0.63886200  0.36113800  0.63886200  1
  O  O6  1  0.64065200  0.35934800  0.86527500  1
  O  O7  1  0.86683100  0.86683100  0.13316900  1
  O  O8  1  0.36113800  0.36113800  0.63886200  1
  O  O9  1  0.13316900  0.13316900  0.86683100  1
  O  O10  1  0.63886200  0.63886200  0.36113800  1
  O  O11  1  0.36113800  0.63886200  0.36113800  1
  O  O12  1  0.64065200  0.86527500  0.13472500  1
  O  O13  1  0.13472500  0.35934800  0.64065200  1
  O  O14  1  0.13472500  0.35934800  0.86527500  1
  O  O15  1  0.64065200  0.86527500  0.35934800  1
  O  O16  1  0.36113800  0.63886200  0.63886200  1
  O  O17  1  0.35934800  0.64065200  0.86527500  1
  O  O18  1  0.35934800  0.86527500  0.13472500  1
  O  O19  1  0.13472500  0.64065200  0.35934800  1
  O  O20  1  0.35934800  0.86527500  0.64065200  1
  O  O21  1  0.13472500  0.64065200  0.86527500  1
  O  O22  1  0.13316900  0.86683100  0.13316900  1
  O  O23  1  0.13472500  0.86527500  0.35934800  1
  O  O24  1  0.86230300  0.63769700  0.63769700  1
  O  O25  1  0.36230300  0.13769700  0.13769700  1
  O  O26  1  0.13472500  0.86527500  0.64065200  1
  O  O27  1  0.86230300  0.63769700  0.86230300  1
  O  O28  1  0.36230300  0.13769700  0.36230300  1
  O  O29  1  0.13316900  0.86683100  0.86683100  1
  O  O30  1  0.86230300  0.86230300  0.63769700  1
  O  O31  1  0.36230300  0.36230300  0.13769700  1
  O  O32  1  0.63769700  0.63769700  0.86230300  1
  O  O33  1  0.13769700  0.13769700  0.36230300  1
  O  O34  1  0.86683100  0.13316900  0.13316900  1
  O  O35  1  0.13769700  0.36230300  0.13769700  1
  O  O36  1  0.86527500  0.13472500  0.35934800  1
  O  O37  1  0.63769700  0.86230300  0.63769700  1
  O  O38  1  0.13769700  0.36230300  0.36230300  1
  O  O39  1  0.86527500  0.13472500  0.64065200  1
  O  O40  1  0.63769700  0.86230300  0.86230300  1
  O  O41  1  0.86527500  0.35934800  0.13472500  1
  O  O42  1  0.64065200  0.13472500  0.35934800  1
  O  O43  1  0.64065200  0.35934800  0.13472500  1
  O  O44  1  0.86527500  0.64065200  0.13472500  1
  O  O45  1  0.35934800  0.13472500  0.64065200  1
  O  O46  1  0.63886200  0.36113800  0.36113800  1
  O  O47  1  0.35934800  0.64065200  0.13472500  1
loop_
_geom_bond_atom_site_label_1
_geom_bond_atom_site_label_2
_geom_bond_distance
_geom_bond_site_symmetry_2
Ba0 O32 2.542911 1_554
Ba0 O31 2.542911 1_555
Ba0 O47 2.543343 1_555
Ba0 O43 2.543343 1_555
Ba0 O6 2.543343 1_554
Ba0 O17 2.543343 1_554
Ba1 O40 3.072692 1_554
Ba1 O27 3.072692 1_554
Ba1 O32 3.072692 1_554
Ba1 O47 3.327696 1_555
Ba1 O43 3.327696 1_555
Ba1 O41 3.327696 1_555
Ba1 O18 3.327696 1_555
Ba1 O44 3.327696 1_555
Ba1 O12 3.327696 1_555
Ba1 O10 3.460140 1_555
Ba1 O46 3.460140 1_555
Ba1 O11 3.460140 1_555
Ba2 O31 3.072692 1_555
Ba2 O28 3.072692 1_555
Ba2 O38 3.072692 1_555
Ba2 O42 3.327696 1_555
Ba2 O19 3.327696 1_555
Ba2 O45 3.327696 1_555
Ba2 O13 3.327696 1_555
Ba2 O43 3.327696 1_555
Ba2 O47 3.327696 1_555
Ba2 O11 3.460140 1_555
Ba2 O46 3.460140 1_555
Ba2 O8 3.460140 1_555
Ba3 O10 2.564426 1_555
Ba3 O16 2.564426 1_555
Ba3 O5 2.564426 1_555
Ba3 O11 2.564426 1_555
Ba3 O46 2.564426 1_555
Ba3 O8 2.564426 1_555
Ba4 O35 2.542911 1_555
Ba4 O27 2.542911 1_454
Ba4 O44 2.543343 1_455
Ba4 O21 2.543343 1_554
Ba4 O14 2.543343 1_554
Ba4 O41 2.543343 1_455
Ba5 O25 2.542911 1_555
Ba5 O40 2.542911 1_544
Ba5 O12 2.543343 1_545
Ba5 O2 2.543343 1_554
Ba5 O18 2.543343 1_545
Ba5 O3 2.543343 1_554
Ba6 O24 2.542911 1_455
Ba6 O38 2.542911 1_555
Ba6 O13 2.543343 1_555
Ba6 O19 2.543343 1_555
Ba6 O4 2.543343 1_455
Ba6 O1 2.543343 1_455
Ba7 O28 3.072692 1_565
Ba7 O33 3.072692 1_565
Ba7 O25 3.072692 1_565
Ba7 O18 3.327696 1_555
Ba7 O12 3.327696 1_555
Ba7 O23 3.327696 1_555
Ba7 O15 3.327696 1_555
Ba7 O26 3.327696 1_555
Ba7 O20 3.327696 1_555
Ba7 O10 3.460140 1_555
Ba7 O16 3.460140 1_555
Ba7 O11 3.460140 1_555
Ba8 O30 3.072692 1_455
Ba8 O27 3.072692 1_455
Ba8 O24 3.072692 1_455
Ba8 O13 3.327696 1_555
Ba8 O19 3.327696 1_555
Ba8 O23 3.327696 1_555
Ba8 O14 3.327696 1_555
Ba8 O21 3.327696 1_555
Ba8 O26 3.327696 1_555
Ba8 O16 3.460140 1_555
Ba8 O11 3.460140 1_555
Ba8 O8 3.460140 1_555
Ba9 O29 2.819199 1_555
Ba9 O9 2.819207 1_565
Ba9 O22 2.819207 1_556
Ba9 O17 3.259183 1_555
Ba9 O20 3.259183 1_555
Ba9 O45 3.259190 1_565
Ba9 O47 3.259190 1_556
Ba9 O18 3.259196 1_556
Ba9 O3 3.259196 1_565
Ba10 O22 2.819199 1_555
Ba10 O29 2.819207 1_554
Ba10 O7 2.819207 1_455
Ba10 O47 3.259183 1_555
Ba10 O19 3.259183 1_555
Ba10 O4 3.259190 1_455
Ba10 O17 3.259190 1_554
Ba10 O44 3.259196 1_455
Ba10 O21 3.259196 1_554
Ba11 O7 2.819211 1_556
Ba11 O0 2.819211 1_565
Ba11 O29 2.819211 1_655
Ba11 O2 3.259189 1_565
Ba11 O12 3.259189 1_556
Ba11 O21 3.259189 1_655
Ba11 O44 3.259189 1_556
Ba11 O39 3.259189 1_565
Ba11 O26 3.259189 1_655
Ba12 O9 2.819199 1_555
Ba12 O29 2.819207 1_545
Ba12 O0 2.819207 1_455
Ba12 O45 3.259183 1_555
Ba12 O13 3.259183 1_555
Ba12 O1 3.259190 1_455
Ba12 O20 3.259190 1_545
Ba12 O39 3.259196 1_455
Ba12 O26 3.259196 1_545
Ba13 O7 2.819199 1_555
Ba13 O34 2.819207 1_565
Ba13 O22 2.819207 1_655
Ba13 O4 3.259183 1_555
Ba13 O15 3.259183 1_555
Ba13 O42 3.259190 1_565
Ba13 O19 3.259190 1_655
Ba13 O36 3.259196 1_565
Ba13 O23 3.259196 1_655
Ba14 O22 2.819211 1_545
Ba14 O9 2.819211 1_554
Ba14 O34 2.819211 1_455
Ba14 O23 3.259189 1_545
Ba14 O14 3.259189 1_554
Ba14 O18 3.259189 1_545
Ba14 O36 3.259189 1_455
Ba14 O41 3.259189 1_455
Ba14 O3 3.259189 1_554
Ba15 O33 2.542911 1_555
Ba15 O30 2.542911 1_445
Ba15 O26 2.543343 1_545
Ba15 O39 2.543343 1_455
Ba15 O36 2.543343 1_455
Ba15 O23 2.543343 1_545
Ba16 O0 2.819199 1_555
Ba16 O9 2.819207 1_655
Ba16 O34 2.819207 1_556
Ba16 O1 3.259183 1_555
Ba16 O6 3.259183 1_555
Ba16 O43 3.259190 1_556
Ba16 O13 3.259190 1_655
Ba16 O41 3.259196 1_556
Ba16 O14 3.259196 1_655
Ba17 O34 2.819199 1_555
Ba17 O7 2.819207 1_545
Ba17 O0 2.819207 1_554
Ba17 O42 3.259183 1_555
Ba17 O43 3.259183 1_555
Ba17 O6 3.259190 1_554
Ba17 O15 3.259190 1_545
Ba17 O12 3.259196 1_545
Ba17 O2 3.259196 1_554
Ba18 O38 3.072692 1_655
Ba18 O35 3.072692 1_655
Ba18 O33 3.072692 1_655
Ba18 O41 3.327696 1_555
Ba18 O36 3.327696 1_555
Ba18 O44 3.327696 1_555
Ba18 O39 3.327696 1_555
Ba18 O1 3.327696 1_555
Ba18 O4 3.327696 1_555
Ba18 O5 3.460140 1_555
Ba18 O10 3.460140 1_555
Ba18 O46 3.460140 1_555
Ba19 O30 3.072692 1_545
Ba19 O40 3.072692 1_545
Ba19 O37 3.072692 1_545
Ba19 O45 3.327696 1_555
Ba19 O42 3.327696 1_555
Ba19 O36 3.327696 1_555
Ba19 O3 3.327696 1_555
Ba19 O2 3.327696 1_555
Ba19 O39 3.327696 1_555
Ba19 O5 3.460140 1_555
Ba19 O46 3.460140 1_555
Ba19 O8 3.460140 1_555
Ba20 O37 2.542911 1_545
Ba20 O28 2.542911 1_555
Ba20 O42 2.543343 1_555
Ba20 O45 2.543343 1_555
Ba20 O15 2.543343 1_545
Ba20 O20 2.543343 1_545
Ba21 O24 3.072692 1_555
Ba21 O37 3.072692 1_555
Ba21 O32 3.072692 1_555
Ba21 O17 3.327696 1_555
Ba21 O15 3.327696 1_555
Ba21 O1 3.327696 1_555
Ba21 O4 3.327696 1_555
Ba21 O20 3.327696 1_555
Ba21 O6 3.327696 1_555
Ba21 O10 3.460140 1_555
Ba21 O16 3.460140 1_555
Ba21 O5 3.460140 1_555
Ba22 O31 3.072692 1_556
Ba22 O35 3.072692 1_556
Ba22 O25 3.072692 1_556
Ba22 O3 3.327696 1_555
Ba22 O2 3.327696 1_555
Ba22 O14 3.327696 1_555
Ba22 O21 3.327696 1_555
Ba22 O6 3.327696 1_555
Ba22 O17 3.327696 1_555
Ba22 O5 3.460140 1_555
Ba22 O16 3.460140 1_555
Ba22 O8 3.460140 1_555
O0 U6 2.162611 1_555
O1 U6 2.074967 1_555
O2 U6 2.074967 1_555
O3 U3 2.074967 1_555
O4 U4 2.074967 1_555
O5 U6 2.047393 1_555
O6 U6 2.074967 1_555
O7 U4 2.162611 1_555
O8 U3 2.047393 1_555
O9 U3 2.162611 1_555
O10 U4 2.047393 1_555
O11 U2 2.047393 1_555
O12 U4 2.074967 1_555
O13 U3 2.074967 1_555
O14 U3 2.074967 1_555
O15 U4 2.074967 1_555
O16 U1 2.047393 1_555
O17 U1 2.074967 1_555
O18 U2 2.074967 1_555
O19 U2 2.074967 1_555
O20 U1 2.074967 1_555
O21 U1 2.074967 1_555
O22 U2 2.162611 1_555
O23 U2 2.074967 1_555
O24 U5 2.073949 1_555
O25 U0 2.073949 1_555
O26 U1 2.074967 1_555
O27 U5 2.073949 1_555
O28 U0 2.073949 1_555
O29 U1 2.162611 1_555
O30 U5 2.073949 1_555
O31 U0 2.073949 1_555
O32 U5 2.073949 1_555
O33 U0 2.073949 1_555
O34 U7 2.162611 1_555
O35 U0 2.073949 1_555
O36 U7 2.074967 1_555
O37 U5 2.073949 1_555
O38 U0 2.073949 1_555
O39 U6 2.074967 1_555
O40 U5 2.073949 1_555
O41 U7 2.074967 1_555
O42 U7 2.074967 1_555
O43 U7 2.074967 1_555
O44 U4 2.074967 1_555
O45 U3 2.074967 1_555
O46 U7 2.047393 1_555
O47 U2 2.074967 1_555
