# generated using pymatgen
data_NaSr2CrF8
_symmetry_space_group_name_H-M   'P 1'
_cell_length_a   6.35573200
_cell_length_b   7.88256400
_cell_length_c   15.07294105
_cell_angle_alpha   67.79701483
_cell_angle_beta   90.00000000
_cell_angle_gamma   90.00000000
_symmetry_Int_Tables_number   1
_chemical_formula_structural   NaSr2CrF8
_chemical_formula_sum   'Na4 Sr8 Cr4 F32'
_cell_volume   699.15285315
_cell_formula_units_Z   4
loop_
 _symmetry_equiv_pos_site_id
 _symmetry_equiv_pos_as_xyz
  1  'x, y, z'
loop_
 _atom_site_type_symbol
 _atom_site_label
 _atom_site_symmetry_multiplicity
 _atom_site_fract_x
 _atom_site_fract_y
 _atom_site_fract_z
 _atom_site_occupancy
  Na  Na0  1  0.17322500  0.85903900  0.94068300  1
  Na  Na1  1  0.82677500  0.14096100  0.05931700  1
  Na  Na2  1  0.32677500  0.85903900  0.44068300  1
  Na  Na3  1  0.67322500  0.14096100  0.55931700  1
  Sr  Sr0  1  0.84271800  0.58574500  0.35574900  1
  Sr  Sr1  1  0.65728200  0.58574500  0.85574900  1
  Sr  Sr2  1  0.27910000  0.90255600  0.19727300  1
  Sr  Sr3  1  0.34271800  0.41425500  0.14425100  1
  Sr  Sr4  1  0.22090000  0.90255600  0.69727300  1
  Sr  Sr5  1  0.72090000  0.09744400  0.80272700  1
  Sr  Sr6  1  0.15728200  0.41425500  0.64425100  1
  Sr  Sr7  1  0.77910000  0.09744400  0.30272700  1
  Cr  Cr0  1  0.27799100  0.30655900  0.40272700  1
  Cr  Cr1  1  0.72200900  0.69344100  0.59727300  1
  Cr  Cr2  1  0.22200900  0.30655900  0.90272700  1
  Cr  Cr3  1  0.77799100  0.69344100  0.09727300  1
  F  F0  1  0.18542000  0.45287000  0.47271100  1
  F  F1  1  0.81458000  0.54713000  0.52728900  1
  F  F2  1  0.19816200  0.08088300  0.01555900  1
  F  F3  1  0.98209700  0.25489700  0.38950800  1
  F  F4  1  0.05412400  0.85435300  0.34329600  1
  F  F5  1  0.26462500  0.52751600  0.78433600  1
  F  F6  1  0.93012000  0.35570500  0.91799500  1
  F  F7  1  0.62377400  0.82466000  0.67751200  1
  F  F8  1  0.30183800  0.08088300  0.51555900  1
  F  F9  1  0.68542000  0.54713000  0.02728900  1
  F  F10  1  0.94444100  0.81606700  0.82610700  1
  F  F11  1  0.06988000  0.64429500  0.08200500  1
  F  F12  1  0.73537500  0.47248400  0.21566400  1
  F  F13  1  0.69816200  0.91911700  0.48444100  1
  F  F14  1  0.94587600  0.14564700  0.65670400  1
  F  F15  1  0.23537500  0.52751600  0.28433600  1
  F  F16  1  0.44587600  0.85435300  0.84329600  1
  F  F17  1  0.55412400  0.14564700  0.15670400  1
  F  F18  1  0.48209700  0.74510300  0.11049200  1
  F  F19  1  0.76462500  0.47248400  0.71566400  1
  F  F20  1  0.55555900  0.81606700  0.32610700  1
  F  F21  1  0.37622600  0.17534000  0.32248800  1
  F  F22  1  0.51790300  0.25489700  0.88950800  1
  F  F23  1  0.44444100  0.18393300  0.67389300  1
  F  F24  1  0.56988000  0.35570500  0.41799500  1
  F  F25  1  0.87622600  0.82466000  0.17751200  1
  F  F26  1  0.31458000  0.45287000  0.97271100  1
  F  F27  1  0.01790300  0.74510300  0.61049200  1
  F  F28  1  0.43012000  0.64429500  0.58200500  1
  F  F29  1  0.05555900  0.18393300  0.17389300  1
  F  F30  1  0.12377400  0.17534000  0.82248800  1
  F  F31  1  0.80183800  0.91911700  0.98444100  1
loop_
_geom_bond_atom_site_label_1
_geom_bond_atom_site_label_2
_geom_bond_distance
_geom_bond_site_symmetry_2
Cr0 F0 1.925742 1_555
Cr0 F24 1.926672 1_555
Cr0 F8 1.947655 1_555
Cr0 F3 1.950283 1_455
Cr0 F21 1.966693 1_555
Cr0 F15 1.985531 1_555
Cr1 F1 1.925742 1_555
Cr1 F28 1.926672 1_555
Cr1 F13 1.947655 1_555
Cr1 F27 1.950283 1_655
Cr1 F7 1.966693 1_555
Cr1 F19 1.985531 1_555
Cr2 F26 1.925742 1_555
Cr2 F6 1.926672 1_455
Cr2 F2 1.947655 1_556
Cr2 F22 1.950283 1_555
Cr2 F30 1.966693 1_555
Cr2 F5 1.985531 1_555
Cr3 F9 1.925742 1_555
Cr3 F11 1.926672 1_655
Cr3 F31 1.947655 1_554
Cr3 F18 1.950283 1_555
Cr3 F25 1.966693 1_555
Cr3 F12 1.985531 1_555
F0 Sr6 2.493032 1_555
F0 Sr0 2.748405 1_455
F1 Sr0 2.493032 1_555
F1 Sr6 2.748405 1_655
F2 Na0 2.418347 1_544
F2 Na1 2.543032 1_455
F2 Sr2 2.613936 1_545
F3 Sr7 2.478501 1_555
F3 Sr0 2.615726 1_555
F4 Na2 2.280357 1_555
F4 Sr0 2.454236 1_455
F4 Sr7 2.493097 1_465
F4 Sr2 2.530075 1_555
F5 Sr6 2.673136 1_555
F5 Sr4 2.758056 1_555
F5 Sr1 2.823270 1_555
F6 Na1 2.260335 1_556
F6 Sr1 2.426850 1_555
F7 Na3 2.476285 1_565
F7 Sr1 2.643060 1_555
F7 Sr4 2.675897 1_555
F8 Na2 2.418347 1_545
F8 Na3 2.543032 1_555
F8 Sr4 2.613936 1_545
F9 Sr1 2.493032 1_554
F9 Sr3 2.748405 1_555
F10 Na0 2.377762 1_655
F10 Sr1 2.492733 1_555
F10 Sr4 2.514481 1_655
F10 Sr5 2.543901 1_565
F11 Na0 2.260335 1_554
F11 Sr3 2.426850 1_555
F12 Sr0 2.673136 1_555
F12 Sr7 2.758056 1_555
F12 Sr3 2.823270 1_555
F13 Na3 2.418347 1_565
F13 Na2 2.543032 1_555
F13 Sr7 2.613936 1_565
F14 Na3 2.280357 1_555
F14 Sr6 2.454236 1_655
F14 Sr4 2.493097 1_645
F14 Sr5 2.530075 1_555
F15 Sr3 2.673136 1_555
F15 Sr2 2.758056 1_555
F15 Sr0 2.823270 1_455
F16 Na0 2.280357 1_555
F16 Sr1 2.454236 1_555
F16 Sr5 2.493097 1_565
F16 Sr4 2.530075 1_555
F17 Na1 2.280357 1_555
F17 Sr3 2.454236 1_555
F17 Sr2 2.493097 1_545
F17 Sr7 2.530075 1_555
F18 Sr2 2.478501 1_555
F18 Sr3 2.615726 1_555
F19 Sr1 2.673136 1_555
F19 Sr5 2.758056 1_555
F19 Sr6 2.823270 1_655
F20 Na2 2.377762 1_555
F20 Sr0 2.492733 1_555
F20 Sr2 2.514481 1_555
F20 Sr7 2.543901 1_565
F21 Na2 2.476285 1_545
F21 Sr3 2.643060 1_555
F21 Sr7 2.675897 1_555
F22 Sr5 2.478501 1_555
F22 Sr1 2.615726 1_555
F23 Na3 2.377762 1_555
F23 Sr6 2.492733 1_555
F23 Sr5 2.514481 1_555
F23 Sr4 2.543901 1_545
F24 Na3 2.260335 1_555
F24 Sr0 2.426850 1_555
F25 Na1 2.476285 1_565
F25 Sr0 2.643060 1_555
F25 Sr2 2.675897 1_655
F26 Sr3 2.493032 1_556
F26 Sr1 2.748405 1_555
F27 Sr4 2.478501 1_555
F27 Sr6 2.615726 1_555
F28 Na2 2.260335 1_555
F28 Sr6 2.426850 1_555
F29 Na1 2.377762 1_455
F29 Sr3 2.492733 1_555
F29 Sr7 2.514481 1_455
F29 Sr2 2.543901 1_545
F30 Na0 2.476285 1_545
F30 Sr6 2.643060 1_555
F30 Sr5 2.675897 1_455
F31 Na1 2.418347 1_566
F31 Na0 2.543032 1_655
F31 Sr5 2.613936 1_565
