# generated using pymatgen
data_MgAlPO5
_symmetry_space_group_name_H-M   'P 1'
_cell_length_a   5.24910324
_cell_length_b   7.10162348
_cell_length_c   10.29207918
_cell_angle_alpha   90.00000000
_cell_angle_beta   90.00000000
_cell_angle_gamma   90.33938060
_symmetry_Int_Tables_number   1
_chemical_formula_structural   MgAlPO5
_chemical_formula_sum   'Mg4 Al4 P4 O20'
_cell_volume   383.65269857
_cell_formula_units_Z   4
loop_
 _symmetry_equiv_pos_site_id
 _symmetry_equiv_pos_as_xyz
  1  'x, y, z'
loop_
 _atom_site_type_symbol
 _atom_site_label
 _atom_site_symmetry_multiplicity
 _atom_site_fract_x
 _atom_site_fract_y
 _atom_site_fract_z
 _atom_site_occupancy
  Mg  Mg0  1  0.90785800  0.97953149  0.85697808  1
  Mg  Mg1  1  0.09214200  0.02046851  0.14302092  1
  Mg  Mg2  1  0.40785800  0.97953149  0.64302192  1
  Mg  Mg3  1  0.59214200  0.02046851  0.35697908  1
  Al  Al0  1  0.32434569  0.64049189  0.82964852  1
  Al  Al1  1  0.82434569  0.64049189  0.67035148  1
  Al  Al2  1  0.17565431  0.35950811  0.32964852  1
  Al  Al3  1  0.67565431  0.35950811  0.17035148  1
  P  P0  1  0.58713248  0.77930711  0.09359558  1
  P  P1  1  0.41286752  0.22069289  0.90640442  1
  P  P2  1  0.08713248  0.77930711  0.40640442  1
  P  P3  1  0.91286752  0.22069289  0.59359558  1
  O  O0  1  0.02775957  0.72900125  0.78993327  1
  O  O1  1  0.52775957  0.72900125  0.71006673  1
  O  O2  1  0.17966869  0.11645878  0.96026988  1
  O  O3  1  0.17116311  0.60414568  0.33324966  1
  O  O4  1  0.40911543  0.72249142  0.98322248  1
  O  O5  1  0.44029219  0.91029166  0.18489738  1
  O  O6  1  0.67966869  0.11645878  0.53973012  1
  O  O7  1  0.47224043  0.27099875  0.28993327  1
  O  O8  1  0.97224043  0.27099875  0.21006673  1
  O  O9  1  0.32033131  0.88354122  0.46026988  1
  O  O10  1  0.05970781  0.08970834  0.68489738  1
  O  O11  1  0.32883689  0.39585432  0.83324966  1
  O  O12  1  0.94029219  0.91029166  0.31510262  1
  O  O13  1  0.90911543  0.72249142  0.51677752  1
  O  O14  1  0.82033131  0.88354122  0.03973012  1
  O  O15  1  0.59088457  0.27750858  0.01677752  1
  O  O16  1  0.09088457  0.27750858  0.48322248  1
  O  O17  1  0.67116311  0.60414568  0.16675034  1
  O  O18  1  0.82883689  0.39585432  0.66675034  1
  O  O19  1  0.55970781  0.08970834  0.81510262  1
loop_
_geom_bond_atom_site_label_1
_geom_bond_atom_site_label_2
_geom_bond_distance
_geom_bond_site_symmetry_2
Mg0 O0 2.012703 1_655
Mg0 O2 2.023597 1_665
Mg0 O19 2.038274 1_565
Mg0 O14 2.051791 1_556
Mg0 O10 2.092087 1_665
Mg1 O8 2.012706 1_455
Mg1 O14 2.023591 1_445
Mg1 O5 2.038276 1_545
Mg1 O2 2.051782 1_554
Mg1 O12 2.092096 1_445
Mg2 O1 2.012703 1_555
Mg2 O6 2.023597 1_565
Mg2 O10 2.038274 1_565
Mg2 O9 2.051791 1_555
Mg2 O19 2.092087 1_565
Mg3 O7 2.012706 1_555
Mg3 O9 2.023591 1_545
Mg3 O12 2.038276 1_545
Mg3 O6 2.051782 1_555
Mg3 O5 2.092096 1_545
Al0 O0 1.731306 1_555
Al0 O11 1.738019 1_555
Al0 O4 1.741354 1_555
Al0 O1 1.744116 1_555
Al1 O1 1.731306 1_555
Al1 O18 1.738019 1_555
Al1 O13 1.741354 1_555
Al1 O0 1.744116 1_655
Al2 O7 1.731306 1_555
Al2 O3 1.738019 1_555
Al2 O16 1.741354 1_555
Al2 O8 1.744116 1_455
Al3 O8 1.731306 1_555
Al3 O17 1.738019 1_555
Al3 O15 1.741354 1_555
Al3 O7 1.744116 1_555
O2 P1 1.530666 1_555
O3 P2 1.521611 1_555
O4 P0 1.523784 1_556
O5 P0 1.533258 1_555
O6 P3 1.530666 1_555
O9 P2 1.530666 1_555
O10 P3 1.533258 1_455
O11 P1 1.521611 1_555
O12 P2 1.533258 1_655
O13 P2 1.523784 1_655
O14 P0 1.530666 1_555
O15 P1 1.523784 1_554
O16 P3 1.523784 1_455
O17 P0 1.521611 1_555
O18 P3 1.521611 1_555
O19 P1 1.533258 1_555
