# generated using pymatgen
data_Li3ScN2
_symmetry_space_group_name_H-M   'P 1'
_cell_length_a   8.64549030
_cell_length_b   8.64549030
_cell_length_c   8.64549030
_cell_angle_alpha   109.47122063
_cell_angle_beta   109.47122063
_cell_angle_gamma   109.47122063
_symmetry_Int_Tables_number   1
_chemical_formula_structural   Li3ScN2
_chemical_formula_sum   'Li24 Sc8 N16'
_cell_volume   497.44720188
_cell_formula_units_Z   8
loop_
 _symmetry_equiv_pos_site_id
 _symmetry_equiv_pos_as_xyz
  1  'x, y, z'
loop_
 _atom_site_type_symbol
 _atom_site_label
 _atom_site_symmetry_multiplicity
 _atom_site_fract_x
 _atom_site_fract_y
 _atom_site_fract_z
 _atom_site_occupancy
  Li  Li0  1  0.53738382  0.27422875  0.54225431  1
  Li  Li1  1  0.76315506  0.26802556  0.22577125  1
  Li  Li2  1  0.99512950  0.95774569  0.23197444  1
  Li  Li3  1  0.95774569  0.23197444  0.99512950  1
  Li  Li4  1  0.50487050  0.73684494  0.96261618  1
  Li  Li5  1  0.54225431  0.53738382  0.27422875  1
  Li  Li6  1  0.27422875  0.54225431  0.53738382  1
  Li  Li7  1  0.22577125  0.76315506  0.26802556  1
  Li  Li8  1  0.73684494  0.96261618  0.50487050  1
  Li  Li9  1  0.23197444  0.99512950  0.95774569  1
  Li  Li10  1  0.96261618  0.50487050  0.73684494  1
  Li  Li11  1  0.26802556  0.22577125  0.76315506  1
  Li  Li12  1  0.46261618  0.72577125  0.45774569  1
  Li  Li13  1  0.23684494  0.73197444  0.77422875  1
  Li  Li14  1  0.00487050  0.04225431  0.76802556  1
  Li  Li15  1  0.04225431  0.76802556  0.00487050  1
  Li  Li16  1  0.49512950  0.26315506  0.03738382  1
  Li  Li17  1  0.45774569  0.46261618  0.72577125  1
  Li  Li18  1  0.72577125  0.45774569  0.46261618  1
  Li  Li19  1  0.77422875  0.23684494  0.73197444  1
  Li  Li20  1  0.26315506  0.03738382  0.49512950  1
  Li  Li21  1  0.76802556  0.00487050  0.04225431  1
  Li  Li22  1  0.03738382  0.49512950  0.26315506  1
  Li  Li23  1  0.73197444  0.77422875  0.23684494  1
  Sc  Sc0  1  0.50000000  0.00000000  0.24412616  1
  Sc  Sc1  1  0.00000000  0.24412616  0.50000000  1
  Sc  Sc2  1  0.25587384  0.25587384  0.25587384  1
  Sc  Sc3  1  0.24412616  0.50000000  -0.00000000  1
  Sc  Sc4  1  0.50000000  -0.00000000  0.75587384  1
  Sc  Sc5  1  0.00000000  0.75587384  0.50000000  1
  Sc  Sc6  1  0.74412616  0.74412616  0.74412616  1
  Sc  Sc7  1  0.75587384  0.50000000  0.00000000  1
  N  N0  1  0.50000000  0.00000000  -0.00000000  1
  N  N1  1  -0.00000000  0.00000000  0.50000000  1
  N  N2  1  0.50000000  0.50000000  0.50000000  1
  N  N3  1  -0.00000000  0.50000000  -0.00000000  1
  N  N4  1  0.48843985  0.75000000  0.23843985  1
  N  N5  1  0.23843985  0.48843985  0.75000000  1
  N  N6  1  0.25000000  0.26156015  0.01156015  1
  N  N7  1  0.26156015  0.01156015  0.25000000  1
  N  N8  1  0.75000000  0.23843985  0.48843985  1
  N  N9  1  0.01156015  0.25000000  0.26156015  1
  N  N10  1  0.51156015  0.25000000  0.76156015  1
  N  N11  1  0.76156015  0.51156015  0.25000000  1
  N  N12  1  0.75000000  0.73843985  0.98843985  1
  N  N13  1  0.73843985  0.98843985  0.75000000  1
  N  N14  1  0.25000000  0.76156015  0.51156015  1
  N  N15  1  0.98843985  0.75000000  0.73843985  1
loop_
_geom_bond_atom_site_label_1
_geom_bond_atom_site_label_2
_geom_bond_distance
_geom_bond_site_symmetry_2
Li0 N10 2.050452 1_555
Li0 N8 2.131762 1_555
Li0 N2 2.205688 1_555
Li0 N7 2.403200 1_555
Li1 N11 2.050452 1_555
Li1 N9 2.131762 1_655
Li1 N0 2.205688 1_555
Li1 N8 2.403200 1_555
Li2 N12 2.050452 1_554
Li2 N7 2.131762 1_665
Li2 N1 2.205688 1_665
Li2 N9 2.403200 1_665
Li3 N13 2.050452 1_545
Li3 N9 2.131762 1_656
Li3 N3 2.205688 1_656
Li3 N6 2.403200 1_656
Li4 N12 2.050452 1_555
Li4 N5 2.131762 1_555
Li4 N0 2.205688 1_566
Li4 N4 2.403200 1_556
Li5 N11 2.050452 1_555
Li5 N4 2.131762 1_555
Li5 N2 2.205688 1_555
Li5 N6 2.403200 1_555
Li6 N14 2.050452 1_555
Li6 N5 2.131762 1_555
Li6 N2 2.205688 1_555
Li6 N9 2.403200 1_555
Li7 N14 2.050452 1_555
Li7 N7 2.131762 1_565
Li7 N3 2.205688 1_555
Li7 N4 2.403200 1_555
Li8 N13 2.050452 1_555
Li8 N4 2.131762 1_555
Li8 N1 2.205688 1_665
Li8 N8 2.403200 1_565
Li9 N15 2.050452 1_455
Li9 N6 2.131762 1_566
Li9 N0 2.205688 1_566
Li9 N7 2.403200 1_566
Li10 N15 2.050452 1_555
Li10 N8 2.131762 1_555
Li10 N3 2.205688 1_656
Li10 N5 2.403200 1_655
Li11 N10 2.050452 1_555
Li11 N6 2.131762 1_556
Li11 N1 2.205688 1_555
Li11 N5 2.403200 1_555
Li12 N4 2.050452 1_555
Li12 N14 2.131762 1_555
Li12 N2 2.205688 1_555
Li12 N13 2.403200 1_555
Li13 N5 2.050452 1_555
Li13 N15 2.131762 1_455
Li13 N0 2.205688 1_566
Li13 N14 2.403200 1_555
Li14 N6 2.050452 1_556
Li14 N13 2.131762 1_445
Li14 N1 2.205688 1_555
Li14 N15 2.403200 1_445
Li15 N7 2.050452 1_565
Li15 N15 2.131762 1_454
Li15 N3 2.205688 1_555
Li15 N12 2.403200 1_454
Li16 N6 2.050452 1_555
Li16 N11 2.131762 1_555
Li16 N0 2.205688 1_555
Li16 N10 2.403200 1_554
Li17 N5 2.050452 1_555
Li17 N10 2.131762 1_555
Li17 N2 2.205688 1_555
Li17 N12 2.403200 1_555
Li18 N8 2.050452 1_555
Li18 N11 2.131762 1_555
Li18 N2 2.205688 1_555
Li18 N15 2.403200 1_555
Li19 N8 2.050452 1_555
Li19 N13 2.131762 1_545
Li19 N3 2.205688 1_656
Li19 N10 2.403200 1_555
Li20 N7 2.050452 1_555
Li20 N10 2.131762 1_555
Li20 N1 2.205688 1_555
Li20 N14 2.403200 1_545
Li21 N9 2.050452 1_655
Li21 N12 2.131762 1_544
Li21 N0 2.205688 1_555
Li21 N13 2.403200 1_544
Li22 N9 2.050452 1_555
Li22 N14 2.131762 1_555
Li22 N3 2.205688 1_555
Li22 N11 2.403200 1_455
Li23 N4 2.050452 1_555
Li23 N12 2.131762 1_554
Li23 N1 2.205688 1_665
Li23 N11 2.403200 1_555
N0 Sc4 2.110590 1_554
N0 Sc0 2.110590 1_555
N1 Sc5 2.110590 1_545
N1 Sc1 2.110590 1_555
N2 Sc6 2.110590 1_555
N2 Sc2 2.110590 1_555
N3 Sc7 2.110590 1_455
N3 Sc3 2.110590 1_555
N4 Sc3 2.113247 1_555
N4 Sc0 2.113247 1_565
N5 Sc3 2.113247 1_556
N5 Sc1 2.113247 1_555
N6 Sc2 2.113247 1_555
N6 Sc3 2.113247 1_555
N7 Sc2 2.113247 1_555
N7 Sc0 2.113247 1_555
N8 Sc0 2.113247 1_555
N8 Sc1 2.113247 1_655
N9 Sc2 2.113247 1_555
N9 Sc1 2.113247 1_555
N10 Sc7 2.113247 1_556
N10 Sc4 2.113247 1_555
N11 Sc5 2.113247 1_655
N11 Sc7 2.113247 1_555
N12 Sc6 2.113247 1_555
N12 Sc7 2.113247 1_556
N13 Sc4 2.113247 1_565
N13 Sc6 2.113247 1_555
N14 Sc4 2.113247 1_565
N14 Sc5 2.113247 1_555
N15 Sc6 2.113247 1_555
N15 Sc5 2.113247 1_655
