# generated using pymatgen
data_NiTe2O5
_symmetry_space_group_name_H-M   'P 1'
_cell_length_a   8.51573800
_cell_length_b   9.01926800
_cell_length_c   12.30252100
_cell_angle_alpha   90.00000000
_cell_angle_beta   90.00000000
_cell_angle_gamma   90.00000000
_symmetry_Int_Tables_number   1
_chemical_formula_structural   NiTe2O5
_chemical_formula_sum   'Ni8 Te16 O40'
_cell_volume   944.90402308
_cell_formula_units_Z   8
loop_
 _symmetry_equiv_pos_site_id
 _symmetry_equiv_pos_as_xyz
  1  'x, y, z'
loop_
 _atom_site_type_symbol
 _atom_site_label
 _atom_site_symmetry_multiplicity
 _atom_site_fract_x
 _atom_site_fract_y
 _atom_site_fract_z
 _atom_site_occupancy
  Ni  Ni0  1  0.98483000  0.51703700  0.12334700  1
  Ni  Ni1  1  0.48483000  0.98296300  0.87665300  1
  Ni  Ni2  1  0.51517000  0.01703700  0.37665300  1
  Ni  Ni3  1  0.01517000  0.48296300  0.62334700  1
  Ni  Ni4  1  0.01517000  0.48296300  0.87665300  1
  Ni  Ni5  1  0.51517000  0.01703700  0.12334700  1
  Ni  Ni6  1  0.48483000  0.98296300  0.62334700  1
  Ni  Ni7  1  0.98483000  0.51703700  0.37665300  1
  Te  Te0  1  0.15980700  0.84929200  0.48634500  1
  Te  Te1  1  0.65980700  0.65070800  0.51365500  1
  Te  Te2  1  0.34019300  0.34929200  0.01365500  1
  Te  Te3  1  0.84019300  0.15070800  0.98634500  1
  Te  Te4  1  0.84019300  0.15070800  0.51365500  1
  Te  Te5  1  0.34019300  0.34929200  0.48634500  1
  Te  Te6  1  0.65980700  0.65070800  0.98634500  1
  Te  Te7  1  0.15980700  0.84929200  0.01365500  1
  Te  Te8  1  0.19780900  0.10509200  0.25000000  1
  Te  Te9  1  0.69780900  0.39490800  0.75000000  1
  Te  Te10  1  0.30219100  0.60509200  0.25000000  1
  Te  Te11  1  0.80219100  0.89490800  0.75000000  1
  Te  Te12  1  0.68128300  0.33354700  0.25000000  1
  Te  Te13  1  0.18128300  0.16645300  0.75000000  1
  Te  Te14  1  0.81871700  0.83354700  0.25000000  1
  Te  Te15  1  0.31871700  0.66645300  0.75000000  1
  O  O0  1  0.65549200  0.12087300  0.25000000  1
  O  O1  1  0.15549200  0.37912700  0.75000000  1
  O  O2  1  0.84450800  0.62087300  0.25000000  1
  O  O3  1  0.34450800  0.87912700  0.75000000  1
  O  O4  1  0.13313200  0.46470000  0.25000000  1
  O  O5  1  0.63313200  0.03530000  0.75000000  1
  O  O6  1  0.36686800  0.96470000  0.25000000  1
  O  O7  1  0.86686800  0.53530000  0.75000000  1
  O  O8  1  0.40930300  0.49201300  0.12685100  1
  O  O9  1  0.90930300  0.00798700  0.87314900  1
  O  O10  1  0.09069700  0.99201300  0.37314900  1
  O  O11  1  0.59069700  0.50798700  0.62685100  1
  O  O12  1  0.59069700  0.50798700  0.87314900  1
  O  O13  1  0.09069700  0.99201300  0.12685100  1
  O  O14  1  0.90930300  0.00798700  0.62685100  1
  O  O15  1  0.40930300  0.49201300  0.37314900  1
  O  O16  1  0.14755000  0.69039400  0.11612600  1
  O  O17  1  0.64755000  0.80960600  0.88387400  1
  O  O18  1  0.35245000  0.19039400  0.38387400  1
  O  O19  1  0.85245000  0.30960600  0.61612600  1
  O  O20  1  0.85245000  0.30960600  0.88387400  1
  O  O21  1  0.35245000  0.19039400  0.11612600  1
  O  O22  1  0.64755000  0.80960600  0.61612600  1
  O  O23  1  0.14755000  0.69039400  0.38387400  1
  O  O24  1  0.11968800  0.38497400  0.48697400  1
  O  O25  1  0.61968800  0.11502600  0.51302600  1
  O  O26  1  0.38031200  0.88497400  0.01302600  1
  O  O27  1  0.88031200  0.61502600  0.98697400  1
  O  O28  1  0.88031200  0.61502600  0.51302600  1
  O  O29  1  0.38031200  0.88497400  0.48697400  1
  O  O30  1  0.61968800  0.11502600  0.98697400  1
  O  O31  1  0.11968800  0.38497400  0.01302600  1
  O  O32  1  0.82354500  0.34386700  0.13014900  1
  O  O33  1  0.32354500  0.15613300  0.86985100  1
  O  O34  1  0.67645500  0.84386700  0.36985100  1
  O  O35  1  0.17645500  0.65613300  0.63014900  1
  O  O36  1  0.17645500  0.65613300  0.86985100  1
  O  O37  1  0.67645500  0.84386700  0.13014900  1
  O  O38  1  0.32354500  0.15613300  0.63014900  1
  O  O39  1  0.82354500  0.34386700  0.36985100  1
loop_
_geom_bond_atom_site_label_1
_geom_bond_atom_site_label_2
_geom_bond_distance
_geom_bond_site_symmetry_2
Ni0 O4 2.060480 1_655
Ni0 O32 2.081544 1_555
Ni0 O16 2.091101 1_655
Ni0 O27 2.094768 1_554
Ni0 O31 2.140016 1_655
Ni0 O2 2.175502 1_555
Ni1 O5 2.060480 1_565
Ni1 O33 2.081544 1_565
Ni1 O17 2.091101 1_555
Ni1 O26 2.094768 1_556
Ni1 O30 2.140016 1_565
Ni1 O3 2.175502 1_555
Ni2 O6 2.060480 1_545
Ni2 O34 2.081544 1_545
Ni2 O18 2.091101 1_555
Ni2 O25 2.094768 1_555
Ni2 O29 2.140016 1_545
Ni2 O0 2.175502 1_555
Ni3 O7 2.060480 1_455
Ni3 O35 2.081544 1_555
Ni3 O19 2.091101 1_455
Ni3 O24 2.094768 1_555
Ni3 O28 2.140016 1_455
Ni3 O1 2.175502 1_555
Ni4 O7 2.060480 1_455
Ni4 O36 2.081544 1_555
Ni4 O20 2.091101 1_455
Ni4 O31 2.094768 1_556
Ni4 O27 2.140016 1_455
Ni4 O1 2.175502 1_555
Ni5 O6 2.060480 1_545
Ni5 O37 2.081544 1_545
Ni5 O21 2.091101 1_555
Ni5 O30 2.094768 1_554
Ni5 O26 2.140016 1_545
Ni5 O0 2.175502 1_555
Ni6 O5 2.060480 1_565
Ni6 O38 2.081544 1_565
Ni6 O22 2.091101 1_555
Ni6 O29 2.094768 1_555
Ni6 O25 2.140016 1_565
Ni6 O3 2.175502 1_555
Ni7 O4 2.060480 1_655
Ni7 O39 2.081544 1_555
Ni7 O23 2.091101 1_655
Ni7 O28 2.094768 1_555
Ni7 O24 2.140016 1_655
Ni7 O2 2.175502 1_555
O0 Te12 1.930697 1_555
O1 Te13 1.930697 1_555
O2 Te14 1.930697 1_555
O3 Te15 1.930697 1_555
O4 Te10 1.917283 1_555
O5 Te11 1.917283 1_545
O6 Te8 1.917283 1_565
O7 Te9 1.917283 1_555
O8 Te2 1.985615 1_555
O8 Te10 2.041452 1_555
O9 Te3 1.985615 1_555
O9 Te11 2.041452 1_545
O10 Te0 1.985615 1_555
O10 Te8 2.041452 1_565
O11 Te1 1.985615 1_555
O11 Te9 2.041452 1_555
O12 Te6 1.985615 1_555
O12 Te9 2.041452 1_555
O13 Te7 1.985615 1_555
O13 Te8 2.041452 1_565
O14 Te4 1.985615 1_555
O14 Te11 2.041452 1_545
O15 Te5 1.985615 1_555
O15 Te10 2.041452 1_555
O16 Te7 1.911554 1_555
O16 Te10 2.244697 1_555
O17 Te6 1.911554 1_555
O17 Te11 2.244697 1_555
O18 Te5 1.911554 1_555
O18 Te8 2.244697 1_555
O19 Te4 1.911554 1_555
O19 Te9 2.244697 1_555
O20 Te3 1.911554 1_555
O20 Te9 2.244697 1_555
O21 Te2 1.911554 1_555
O21 Te8 2.244697 1_555
O22 Te1 1.911554 1_555
O22 Te11 2.244697 1_555
O23 Te0 1.911554 1_555
O23 Te10 2.244697 1_555
O24 Te5 1.905157 1_555
O25 Te4 1.905157 1_555
O26 Te7 1.905157 1_555
O27 Te6 1.905157 1_555
O28 Te1 1.905157 1_555
O29 Te0 1.905157 1_555
O30 Te3 1.905157 1_555
O31 Te2 1.905157 1_555
O32 Te12 1.910595 1_555
O32 Te3 2.486985 1_554
O33 Te13 1.910595 1_555
O33 Te2 2.486985 1_556
O34 Te14 1.910595 1_555
O34 Te1 2.486985 1_555
O35 Te15 1.910595 1_555
O35 Te0 2.486985 1_555
O36 Te15 1.910595 1_555
O36 Te7 2.486985 1_556
O37 Te14 1.910595 1_555
O37 Te6 2.486985 1_554
O38 Te13 1.910595 1_555
O38 Te5 2.486985 1_555
O39 Te12 1.910595 1_555
O39 Te4 2.486985 1_555
