# generated using pymatgen
data_RbCrF5
_symmetry_space_group_name_H-M   'P 1'
_cell_length_a   5.57854382
_cell_length_b   7.68579223
_cell_length_c   9.91054579
_cell_angle_alpha   90.00000000
_cell_angle_beta   90.00000000
_cell_angle_gamma   90.00000000
_symmetry_Int_Tables_number   1
_chemical_formula_structural   RbCrF5
_chemical_formula_sum   'Rb4 Cr4 F20'
_cell_volume   424.91989091
_cell_formula_units_Z   4
loop_
 _symmetry_equiv_pos_site_id
 _symmetry_equiv_pos_as_xyz
  1  'x, y, z'
loop_
 _atom_site_type_symbol
 _atom_site_label
 _atom_site_symmetry_multiplicity
 _atom_site_fract_x
 _atom_site_fract_y
 _atom_site_fract_z
 _atom_site_occupancy
  Rb  Rb0  1  0.50000000  0.88180876  0.98597816  1
  Rb  Rb1  1  0.50000000  0.11819124  0.48597816  1
  Rb  Rb2  1  -0.00000000  0.37676411  0.13698706  1
  Rb  Rb3  1  -0.00000000  0.62323589  0.63698706  1
  Cr  Cr0  1  -0.00000000  0.88277823  0.24081901  1
  Cr  Cr1  1  0.50000000  0.57857467  0.33808645  1
  Cr  Cr2  1  0.50000000  0.42142533  0.83808645  1
  Cr  Cr3  1  -0.00000000  0.11722177  0.74081901  1
  F  F0  1  0.27051013  0.54424011  0.92010931  1
  F  F1  1  0.74805002  0.70432459  0.23734265  1
  F  F2  1  0.22802056  0.04632679  0.23501468  1
  F  F3  1  0.74805002  0.29567541  0.73734265  1
  F  F4  1  0.50000000  0.24271606  0.95093655  1
  F  F5  1  0.77197944  0.95367321  0.73501468  1
  F  F6  1  0.50000000  0.55862608  0.69224852  1
  F  F7  1  0.22802056  0.95367321  0.73501468  1
  F  F8  1  -0.00000000  0.84232972  0.06351711  1
  F  F9  1  0.77197944  0.04632679  0.23501468  1
  F  F10  1  0.50000000  0.44137392  0.19224852  1
  F  F11  1  0.72948987  0.45575989  0.42010931  1
  F  F12  1  0.25194998  0.70432459  0.23734265  1
  F  F13  1  -0.00000000  0.85324297  0.41800285  1
  F  F14  1  -0.00000000  0.15767028  0.56351711  1
  F  F15  1  0.25194998  0.29567541  0.73734265  1
  F  F16  1  -0.00000000  0.14675703  0.91800285  1
  F  F17  1  0.27051013  0.45575989  0.42010931  1
  F  F18  1  0.50000000  0.75728394  0.45093655  1
  F  F19  1  0.72948987  0.54424011  0.92010931  1
loop_
_geom_bond_atom_site_label_1
_geom_bond_atom_site_label_2
_geom_bond_distance
_geom_bond_site_symmetry_2
Cr0 F13 1.770600 1_555
Cr0 F8 1.784447 1_555
Cr0 F9 1.789246 1_465
Cr0 F2 1.789246 1_565
Cr0 F12 1.964135 1_555
Cr0 F1 1.964135 1_455
Cr1 F18 1.771270 1_555
Cr1 F11 1.786269 1_555
Cr1 F17 1.786269 1_555
Cr1 F10 1.789120 1_555
Cr1 F1 1.961056 1_555
Cr1 F12 1.961056 1_555
Cr2 F4 1.771270 1_555
Cr2 F19 1.786269 1_555
Cr2 F0 1.786269 1_555
Cr2 F6 1.789120 1_555
Cr2 F3 1.961056 1_555
Cr2 F15 1.961056 1_555
Cr3 F16 1.770600 1_555
Cr3 F14 1.784447 1_555
Cr3 F5 1.789246 1_445
Cr3 F7 1.789246 1_545
Cr3 F15 1.964135 1_555
Cr3 F3 1.964135 1_455
F0 Rb2 2.924706 1_556
F0 Rb0 2.965880 1_555
F0 Rb3 3.243288 1_555
F1 Rb2 3.050045 1_655
F1 Rb0 3.159343 1_554
F2 Rb1 2.965335 1_555
F2 Rb2 3.001967 1_555
F2 Rb0 3.161066 1_544
F3 Rb3 3.050045 1_655
F3 Rb1 3.159343 1_555
F4 Rb0 2.795513 1_545
F5 Rb0 2.965335 1_555
F5 Rb3 3.001967 1_655
F5 Rb1 3.161066 1_565
F6 Rb3 2.885580 1_655
F6 Rb3 2.885580 1_555
F7 Rb0 2.965335 1_555
F7 Rb3 3.001967 1_555
F7 Rb1 3.161066 1_565
F8 Rb0 2.909059 1_554
F8 Rb0 2.909059 1_454
F9 Rb1 2.965335 1_555
F9 Rb2 3.001967 1_655
F9 Rb0 3.161066 1_544
F10 Rb2 2.885580 1_655
F10 Rb2 2.885580 1_555
F11 Rb3 2.924706 1_655
F11 Rb1 2.965880 1_555
F11 Rb2 3.243288 1_655
F12 Rb2 3.050045 1_555
F12 Rb0 3.159343 1_554
F13 Rb3 2.799119 1_555
F14 Rb1 2.909059 1_455
F14 Rb1 2.909059 1_555
F15 Rb3 3.050045 1_555
F15 Rb1 3.159343 1_555
F16 Rb2 2.799119 1_556
F17 Rb3 2.924706 1_555
F17 Rb1 2.965880 1_555
F17 Rb2 3.243288 1_555
F18 Rb1 2.795513 1_565
F19 Rb2 2.924706 1_656
F19 Rb0 2.965880 1_555
F19 Rb3 3.243288 1_655
