# generated using pymatgen
data_Ba5Li2(WO5)3
_symmetry_space_group_name_H-M   'P 1'
_cell_length_a   5.84644311
_cell_length_b   5.84644311
_cell_length_c   24.33998800
_cell_angle_alpha   90.00000000
_cell_angle_beta   90.00000000
_cell_angle_gamma   119.99998995
_symmetry_Int_Tables_number   1
_chemical_formula_structural   Ba5Li2(WO5)3
_chemical_formula_sum   'Ba10 Li4 W6 O30'
_cell_volume   720.50084055
_cell_formula_units_Z   2
loop_
 _symmetry_equiv_pos_site_id
 _symmetry_equiv_pos_as_xyz
  1  'x, y, z'
loop_
 _atom_site_type_symbol
 _atom_site_label
 _atom_site_symmetry_multiplicity
 _atom_site_fract_x
 _atom_site_fract_y
 _atom_site_fract_z
 _atom_site_occupancy
  Ba  Ba0  1  0.00000000  0.00000000  0.14973400  1
  Ba  Ba1  1  0.00000000  0.00000000  0.84987700  1
  Ba  Ba2  1  0.66666700  0.33333300  0.95771100  1
  Ba  Ba3  1  0.66666700  0.33333300  0.55302600  1
  Ba  Ba4  1  0.00000000  0.00000000  0.64973400  1
  Ba  Ba5  1  0.33333300  0.66666700  0.05302600  1
  Ba  Ba6  1  0.00000000  0.00000000  0.34987700  1
  Ba  Ba7  1  0.66666700  0.33333300  0.24238200  1
  Ba  Ba8  1  0.33333300  0.66666700  0.45771100  1
  Ba  Ba9  1  0.33333300  0.66666700  0.74238200  1
  Li  Li0  1  0.66666700  0.33333300  0.68120800  1
  Li  Li1  1  0.33333300  0.66666700  0.18120800  1
  Li  Li2  1  0.00000000  0.00000000  0.00921100  1
  Li  Li3  1  0.00000000  0.00000000  0.50921100  1
  W  W0  1  0.33333300  0.66666700  0.90241200  1
  W  W1  1  0.66666700  0.33333300  0.79910400  1
  W  W2  1  0.33333300  0.66666700  0.29910400  1
  W  W3  1  0.66666700  0.33333300  0.40241200  1
  W  W4  1  0.33333300  0.66666700  0.59928200  1
  W  W5  1  0.66666700  0.33333300  0.09928200  1
  O  O0  1  0.35170600  0.17585300  0.05281800  1
  O  O1  1  0.17683100  0.82316900  0.94283700  1
  O  O2  1  0.50017800  0.00035600  0.35088300  1
  O  O3  1  0.82414700  0.64829400  0.05281800  1
  O  O4  1  0.49066500  0.98133000  0.64681600  1
  O  O5  1  0.64633700  0.82316900  0.94283700  1
  O  O6  1  0.17736500  0.35472900  0.25866400  1
  O  O7  1  0.35472900  0.17736500  0.75866400  1
  O  O8  1  0.82263500  0.64527100  0.75866400  1
  O  O9  1  0.17736500  0.82263500  0.25866400  1
  O  O10  1  0.00035600  0.50017800  0.85088300  1
  O  O11  1  0.82316900  0.17683100  0.44283700  1
  O  O12  1  0.35366300  0.17683100  0.44283700  1
  O  O13  1  0.50017800  0.49982200  0.35088300  1
  O  O14  1  0.99964400  0.49982200  0.35088300  1
  O  O15  1  0.49982200  0.50017800  0.85088300  1
  O  O16  1  0.17683100  0.35366300  0.94283700  1
  O  O17  1  0.01867000  0.50933500  0.64681600  1
  O  O18  1  0.17585300  0.35170600  0.55281800  1
  O  O19  1  0.82414700  0.17585300  0.05281800  1
  O  O20  1  0.49066500  0.50933500  0.64681600  1
  O  O21  1  0.64829400  0.82414700  0.55281800  1
  O  O22  1  0.98133000  0.49066500  0.14681600  1
  O  O23  1  0.82263500  0.17736500  0.75866400  1
  O  O24  1  0.50933500  0.49066500  0.14681600  1
  O  O25  1  0.50933500  0.01867000  0.14681600  1
  O  O26  1  0.49982200  0.99964400  0.85088300  1
  O  O27  1  0.64527100  0.82263500  0.25866400  1
  O  O28  1  0.82316900  0.64633700  0.44283700  1
  O  O29  1  0.17585300  0.82414700  0.55281800  1
loop_
_geom_bond_atom_site_label_1
_geom_bond_atom_site_label_2
_geom_bond_distance
_geom_bond_site_symmetry_2
Ba0 O22 2.925612 1_455
Ba0 O25 2.925612 1_455
Ba0 O25 2.925612 1_555
Ba0 O22 2.925612 1_445
Ba0 O24 2.925612 1_555
Ba0 O24 2.925612 1_445
Ba0 O19 2.955610 1_455
Ba0 O0 2.955610 1_555
Ba0 O3 2.955610 1_445
Ba0 O6 3.202419 1_555
Ba0 O27 3.202419 1_445
Ba0 O9 3.202422 1_545
Ba1 O7 2.855653 1_555
Ba1 O8 2.855653 1_445
Ba1 O23 2.855656 1_455
Ba1 O1 2.885479 1_545
Ba1 O16 2.885483 1_555
Ba1 O5 2.885483 1_445
Ba1 O10 2.923325 1_545
Ba1 O26 2.923325 1_545
Ba1 O26 2.923325 1_445
Ba1 O10 2.923325 1_555
Ba1 O15 2.923325 1_555
Ba1 O15 2.923325 1_445
Ba2 O19 2.811019 1_556
Ba2 O3 2.811022 1_556
Ba2 O0 2.811022 1_556
Ba2 O16 2.947347 1_655
Ba2 O5 2.947347 1_545
Ba2 O1 2.947353 1_655
Ba2 O1 2.947353 1_545
Ba2 O5 2.947358 1_555
Ba2 O16 2.947358 1_555
Ba2 O26 3.100885 1_545
Ba2 O10 3.100885 1_655
Ba2 O15 3.100888 1_555
Ba3 O4 2.896172 1_545
Ba3 O17 2.896172 1_655
Ba3 O20 2.896175 1_555
Ba3 O18 2.924703 1_655
Ba3 O21 2.924703 1_545
Ba3 O29 2.924706 1_655
Ba3 O29 2.924706 1_545
Ba3 O18 2.924709 1_555
Ba3 O21 2.924709 1_555
Ba3 O11 3.115234 1_555
Ba3 O28 3.115234 1_555
Ba3 O12 3.115234 1_555
Ba4 O4 2.925612 1_545
Ba4 O17 2.925612 1_545
Ba4 O17 2.925612 1_555
Ba4 O4 2.925612 1_445
Ba4 O20 2.925612 1_555
Ba4 O20 2.925612 1_445
Ba4 O29 2.955610 1_545
Ba4 O18 2.955610 1_555
Ba4 O21 2.955610 1_445
Ba4 O7 3.202419 1_555
Ba4 O8 3.202419 1_445
Ba4 O23 3.202422 1_455
Ba5 O22 2.896172 1_455
Ba5 O25 2.896172 1_565
Ba5 O24 2.896175 1_555
Ba5 O0 2.924703 1_565
Ba5 O3 2.924703 1_455
Ba5 O19 2.924706 1_565
Ba5 O19 2.924706 1_455
Ba5 O3 2.924709 1_555
Ba5 O0 2.924709 1_555
Ba5 O1 3.115234 1_554
Ba5 O5 3.115234 1_554
Ba5 O16 3.115234 1_554
Ba6 O6 2.855653 1_555
Ba6 O27 2.855653 1_445
Ba6 O9 2.855656 1_545
Ba6 O11 2.885479 1_455
Ba6 O12 2.885483 1_555
Ba6 O28 2.885483 1_445
Ba6 O2 2.923325 1_455
Ba6 O14 2.923325 1_455
Ba6 O14 2.923325 1_445
Ba6 O2 2.923325 1_555
Ba6 O13 2.923325 1_445
Ba6 O13 2.923325 1_555
Ba7 O25 2.819377 1_555
Ba7 O22 2.819377 1_555
Ba7 O24 2.819380 1_555
Ba7 O6 2.951951 1_555
Ba7 O27 2.951951 1_555
Ba7 O27 2.951951 1_545
Ba7 O6 2.951951 1_655
Ba7 O9 2.951952 1_655
Ba7 O9 2.951952 1_545
Ba7 O14 3.133168 1_555
Ba7 O2 3.133168 1_555
Ba7 O13 3.133171 1_555
Ba8 O29 2.811019 1_555
Ba8 O21 2.811022 1_555
Ba8 O18 2.811022 1_555
Ba8 O12 2.947347 1_565
Ba8 O28 2.947347 1_455
Ba8 O11 2.947353 1_565
Ba8 O11 2.947353 1_455
Ba8 O28 2.947358 1_555
Ba8 O12 2.947358 1_555
Ba8 O14 3.100885 1_455
Ba8 O2 3.100885 1_565
Ba8 O13 3.100888 1_555
Ba9 O17 2.819377 1_555
Ba9 O4 2.819377 1_555
Ba9 O20 2.819380 1_555
Ba9 O7 2.951951 1_555
Ba9 O8 2.951951 1_555
Ba9 O8 2.951951 1_455
Ba9 O7 2.951951 1_565
Ba9 O23 2.951952 1_455
Ba9 O23 2.951952 1_565
Ba9 O26 3.133168 1_555
Ba9 O10 3.133168 1_555
Ba9 O15 3.133171 1_555
Li0 O17 1.969049 1_655
Li0 O4 1.969049 1_545
Li0 O20 1.969054 1_555
Li0 O23 2.459416 1_555
Li0 O8 2.459423 1_555
Li0 O7 2.459423 1_555
Li1 O22 1.969049 1_455
Li1 O25 1.969049 1_565
Li1 O24 1.969054 1_555
Li1 O9 2.459416 1_555
Li1 O27 2.459423 1_555
Li1 O6 2.459423 1_555
Li2 O19 2.073069 1_455
Li2 O0 2.073069 1_555
Li2 O3 2.073069 1_445
Li2 O1 2.411722 1_544
Li2 O16 2.411726 1_554
Li2 O5 2.411726 1_444
Li3 O29 2.073069 1_545
Li3 O18 2.073069 1_555
Li3 O21 2.073069 1_445
Li3 O11 2.411722 1_455
Li3 O12 2.411726 1_555
Li3 O28 2.411726 1_445
O0 W5 1.955014 1_555
O1 W0 1.865398 1_555
O2 W3 2.101280 1_555
O2 W2 2.107806 1_545
O3 W5 1.955014 1_555
O4 W4 1.968973 1_555
O5 W0 1.865399 1_555
O6 W2 1.861008 1_555
O7 W1 1.861008 1_555
O8 W1 1.861008 1_555
O9 W2 1.861000 1_555
O10 W0 2.101280 1_555
O10 W1 2.107806 1_455
O11 W3 1.865398 1_555
O12 W3 1.865399 1_555
O13 W3 2.101284 1_555
O13 W2 2.107810 1_555
O14 W3 2.101280 1_555
O14 W2 2.107806 1_655
O15 W0 2.101284 1_555
O15 W1 2.107810 1_555
O16 W0 1.865399 1_555
O17 W4 1.968973 1_555
O18 W4 1.955014 1_555
O19 W5 1.955010 1_555
O20 W4 1.968977 1_555
O21 W4 1.955014 1_555
O22 W5 1.968973 1_555
O23 W1 1.861000 1_555
O24 W5 1.968977 1_555
O25 W5 1.968973 1_555
O26 W0 2.101280 1_555
O26 W1 2.107806 1_565
O27 W2 1.861008 1_555
O28 W3 1.865399 1_555
O29 W4 1.955010 1_555
