# generated using pymatgen
data_SiO2
_symmetry_space_group_name_H-M   'P 1'
_cell_length_a   8.47620994
_cell_length_b   8.82296477
_cell_length_c   10.34069051
_cell_angle_alpha   90.00075919
_cell_angle_beta   90.00000000
_cell_angle_gamma   90.00000000
_symmetry_Int_Tables_number   1
_chemical_formula_structural   SiO2
_chemical_formula_sum   'Si16 O32'
_cell_volume   773.33165937
_cell_formula_units_Z   16
loop_
 _symmetry_equiv_pos_site_id
 _symmetry_equiv_pos_as_xyz
  1  'x, y, z'
loop_
 _atom_site_type_symbol
 _atom_site_label
 _atom_site_symmetry_multiplicity
 _atom_site_fract_x
 _atom_site_fract_y
 _atom_site_fract_z
 _atom_site_occupancy
  Si  Si0  1  0.56618896  0.58118106  0.62627208  1
  Si  Si1  1  0.93314256  0.58150761  0.62651858  1
  Si  Si2  1  0.56699814  0.08148066  0.89974378  1
  Si  Si3  1  0.06685744  0.58150761  0.12651858  1
  Si  Si4  1  0.43381104  0.58118106  0.12627208  1
  Si  Si5  1  0.43311891  0.90894892  0.66156232  1
  Si  Si6  1  0.06696113  0.40908509  0.86468602  1
  Si  Si7  1  0.93367849  0.90936583  0.16203172  1
  Si  Si8  1  0.93385128  0.08136812  0.90028769  1
  Si  Si9  1  0.43300186  0.08148066  0.39974378  1
  Si  Si10  1  0.93303887  0.40908509  0.36468602  1
  Si  Si11  1  0.43378857  0.40929050  0.86448238  1
  Si  Si12  1  0.56688109  0.90894892  0.16156232  1
  Si  Si13  1  0.06632151  0.90936583  0.66203172  1
  Si  Si14  1  0.56621143  0.40929050  0.36448238  1
  Si  Si15  1  0.06614872  0.08136812  0.40028769  1
  O  O0  1  0.25030940  0.44059471  0.83304669  1
  O  O1  1  0.95902728  0.22976059  0.38149646  1
  O  O2  1  0.95972487  0.73043096  0.14205789  1
  O  O3  1  0.48492570  0.49961985  0.99330098  1
  O  O4  1  0.48333364  0.99443708  0.53026114  1
  O  O5  1  0.04027513  0.73043096  0.64205789  1
  O  O6  1  0.01516242  0.99907530  0.53293991  1
  O  O7  1  0.45965929  0.97032331  0.27840565  1
  O  O8  1  0.01647171  0.49570690  0.99540795  1
  O  O9  1  0.24957121  0.12950985  0.40652444  1
  O  O10  1  0.46021714  0.46570501  0.24489262  1
  O  O11  1  0.96005495  0.46938884  0.74720483  1
  O  O12  1  0.54027815  0.23047452  0.38511008  1
  O  O13  1  0.24983557  0.94072022  0.69332866  1
  O  O14  1  0.75016443  0.94072022  0.19332866  1
  O  O15  1  0.51507430  0.49961985  0.49330098  1
  O  O16  1  0.45972185  0.23047452  0.88511008  1
  O  O17  1  0.98352829  0.49570690  0.49540795  1
  O  O18  1  0.25036955  0.62929219  0.12008741  1
  O  O19  1  0.53978286  0.46570501  0.74489262  1
  O  O20  1  0.74963045  0.62929219  0.62008741  1
  O  O21  1  0.96030570  0.96644386  0.78132064  1
  O  O22  1  0.54034071  0.97032331  0.77840565  1
  O  O23  1  0.03969430  0.96644386  0.28132064  1
  O  O24  1  0.98483758  0.99907530  0.03293991  1
  O  O25  1  0.54089342  0.72945301  0.14576308  1
  O  O26  1  0.75042879  0.12950985  0.90652444  1
  O  O27  1  0.74969060  0.44059471  0.33304669  1
  O  O28  1  0.03994505  0.46938884  0.24720483  1
  O  O29  1  0.45910658  0.72945301  0.64576308  1
  O  O30  1  0.51666636  0.99443708  0.03026114  1
  O  O31  1  0.04097272  0.22976059  0.88149646  1
loop_
_geom_bond_atom_site_label_1
_geom_bond_atom_site_label_2
_geom_bond_distance
_geom_bond_site_symmetry_2
O0 Si6 1.612313 1_555
O0 Si11 1.612646 1_555
O1 Si15 1.605106 1_655
O1 Si10 1.606867 1_555
O2 Si3 1.605264 1_655
O2 Si7 1.607420 1_555
O3 Si4 1.611269 1_556
O3 Si11 1.611656 1_555
O4 Si9 1.610391 1_565
O4 Si5 1.610455 1_555
O5 Si1 1.605264 1_455
O5 Si13 1.607420 1_555
O6 Si15 1.611079 1_565
O6 Si13 1.611366 1_555
O7 Si12 1.605937 1_555
O7 Si9 1.608475 1_565
O8 Si3 1.610456 1_556
O8 Si6 1.610732 1_555
O9 Si15 1.612994 1_555
O9 Si9 1.613035 1_555
O10 Si14 1.607551 1_555
O10 Si4 1.610205 1_555
O11 Si6 1.606255 1_655
O11 Si1 1.608750 1_555
O12 Si9 1.605556 1_555
O12 Si14 1.607148 1_555
O13 Si5 1.612448 1_555
O13 Si13 1.612717 1_555
O14 Si12 1.612448 1_555
O14 Si7 1.612717 1_555
O15 Si0 1.611269 1_555
O15 Si14 1.611656 1_555
O16 Si2 1.605556 1_555
O16 Si11 1.607148 1_555
O17 Si1 1.610456 1_555
O17 Si10 1.610732 1_555
O18 Si3 1.612982 1_555
O18 Si4 1.613058 1_555
O19 Si11 1.607551 1_555
O19 Si0 1.610205 1_555
O20 Si1 1.612982 1_555
O20 Si0 1.613058 1_555
O21 Si13 1.607076 1_655
O21 Si8 1.609902 1_565
O22 Si5 1.605937 1_555
O22 Si2 1.608475 1_565
O23 Si7 1.607076 1_455
O23 Si15 1.609902 1_565
O24 Si8 1.611079 1_564
O24 Si7 1.611366 1_555
O25 Si4 1.604940 1_555
O25 Si12 1.607255 1_555
O26 Si8 1.612994 1_555
O26 Si2 1.613035 1_555
O27 Si10 1.612313 1_555
O27 Si14 1.612646 1_555
O28 Si10 1.606255 1_455
O28 Si3 1.608750 1_555
O29 Si0 1.604940 1_555
O29 Si5 1.607255 1_555
O30 Si2 1.610391 1_564
O30 Si12 1.610455 1_555
O31 Si8 1.605106 1_455
O31 Si6 1.606867 1_555
