# generated using pymatgen
data_BaTiO3
_symmetry_space_group_name_H-M   'P 1'
_cell_length_a   5.74566833
_cell_length_b   5.74566838
_cell_length_c   13.99927295
_cell_angle_alpha   89.99999183
_cell_angle_beta   89.99999815
_cell_angle_gamma   120.00005819
_symmetry_Int_Tables_number   1
_chemical_formula_structural   BaTiO3
_chemical_formula_sum   'Ba6 Ti6 O18'
_cell_volume   400.23675351
_cell_formula_units_Z   6
loop_
 _symmetry_equiv_pos_site_id
 _symmetry_equiv_pos_as_xyz
  1  'x, y, z'
loop_
 _atom_site_type_symbol
 _atom_site_label
 _atom_site_symmetry_multiplicity
 _atom_site_fract_x
 _atom_site_fract_y
 _atom_site_fract_z
 _atom_site_occupancy
  Ba  Ba0  1  0.33333350  0.66666644  0.40334399  1
  Ba  Ba1  1  0.66666682  0.33333337  0.90333899  1
  Ba  Ba2  1  0.66666663  0.33333302  0.59666109  1
  Ba  Ba3  1  0.33333342  0.66666648  0.09665595  1
  Ba  Ba4  1  -0.00000003  0.00000022  0.75000013  1
  Ba  Ba5  1  -0.00000001  -0.00000010  0.25000002  1
  Ti  Ti0  1  0.33333303  0.66666645  0.65367713  1
  Ti  Ti1  1  0.66666677  0.33333326  0.15367601  1
  Ti  Ti2  1  0.66666660  0.33333330  0.34632397  1
  Ti  Ti3  1  0.33333366  0.66666695  0.84632293  1
  Ti  Ti4  1  -0.00000021  -0.00000017  0.50000163  1
  Ti  Ti5  1  0.00000040  0.00000010  0.99999830  1
  O  O0  1  0.83473148  0.16526868  0.41946969  1
  O  O1  1  0.83473161  0.66946322  0.41946986  1
  O  O2  1  0.33053683  0.16526842  0.41946985  1
  O  O3  1  0.66946449  0.83473260  0.91946603  1
  O  O4  1  0.16526746  0.33053572  0.58053406  1
  O  O5  1  0.16526757  0.83473263  0.91946585  1
  O  O6  1  0.16526722  0.33053543  0.91946604  1
  O  O7  1  0.83473160  0.16526854  0.08053063  1
  O  O8  1  0.33053701  0.16526858  0.08053018  1
  O  O9  1  0.66946437  0.83473253  0.58053409  1
  O  O10  1  0.16526734  0.83473263  0.58053457  1
  O  O11  1  0.83473139  0.66946296  0.08053018  1
  O  O12  1  0.51809557  0.03619191  0.25000013  1
  O  O13  1  0.48190473  0.51809522  0.75000017  1
  O  O14  1  0.03619106  0.51809510  0.75000018  1
  O  O15  1  0.96380814  0.48190436  0.25000010  1
  O  O16  1  0.51809568  0.48190421  0.25000007  1
  O  O17  1  0.48190486  0.96380895  0.75000020  1
loop_
_geom_bond_atom_site_label_1
_geom_bond_atom_site_label_2
_geom_bond_distance
_geom_bond_site_symmetry_2
Ba0 O16 2.826519 1_555
Ba0 O12 2.826520 1_565
Ba0 O15 2.826521 1_455
Ba0 O0 2.881721 1_455
Ba0 O0 2.881722 1_565
Ba0 O2 2.881722 1_555
Ba0 O1 2.881722 1_555
Ba0 O1 2.881726 1_455
Ba0 O2 2.881726 1_565
Ba0 O4 2.991732 1_555
Ba0 O9 2.991733 1_555
Ba0 O10 2.991744 1_555
Ba1 O14 2.826463 1_655
Ba1 O13 2.826463 1_555
Ba1 O17 2.826464 1_545
Ba1 O6 2.881722 1_655
Ba1 O5 2.881723 1_545
Ba1 O5 2.881723 1_655
Ba1 O3 2.881723 1_545
Ba1 O3 2.881728 1_555
Ba1 O6 2.881729 1_555
Ba1 O11 2.991743 1_556
Ba1 O8 2.991743 1_556
Ba1 O7 2.991748 1_556
Ba2 O17 2.826465 1_545
Ba2 O13 2.826466 1_555
Ba2 O14 2.826467 1_655
Ba2 O10 2.881721 1_545
Ba2 O9 2.881722 1_545
Ba2 O4 2.881722 1_655
Ba2 O10 2.881723 1_655
Ba2 O4 2.881728 1_555
Ba2 O9 2.881729 1_555
Ba2 O2 2.991744 1_555
Ba2 O1 2.991744 1_555
Ba2 O0 2.991745 1_555
Ba3 O16 2.826521 1_555
Ba3 O15 2.826523 1_455
Ba3 O12 2.826524 1_565
Ba3 O7 2.881720 1_455
Ba3 O7 2.881721 1_565
Ba3 O8 2.881722 1_555
Ba3 O11 2.881722 1_555
Ba3 O11 2.881725 1_455
Ba3 O8 2.881726 1_565
Ba3 O3 2.991732 1_554
Ba3 O6 2.991732 1_554
Ba3 O5 2.991737 1_554
Ba4 O14 2.878469 1_555
Ba4 O13 2.878469 1_555
Ba4 O17 2.878470 1_445
Ba4 O13 2.878471 1_445
Ba4 O17 2.878476 1_545
Ba4 O14 2.878477 1_545
Ba4 O10 2.886749 1_545
Ba4 O5 2.886751 1_545
Ba4 O6 2.886753 1_555
Ba4 O3 2.886753 1_445
Ba4 O4 2.886755 1_555
Ba4 O9 2.886756 1_445
Ba5 O16 2.878470 1_555
Ba5 O16 2.878470 1_445
Ba5 O12 2.878471 1_555
Ba5 O15 2.878471 1_445
Ba5 O15 2.878476 1_455
Ba5 O12 2.878476 1_455
Ba5 O7 2.886799 1_455
Ba5 O1 2.886802 1_445
Ba5 O2 2.886803 1_555
Ba5 O0 2.886803 1_455
Ba5 O8 2.886803 1_555
Ba5 O11 2.886803 1_445
O0 Ti2 1.961111 1_555
O0 Ti4 1.994017 1_655
O1 Ti2 1.961113 1_555
O1 Ti4 1.994013 1_665
O2 Ti2 1.961112 1_555
O2 Ti4 1.994014 1_555
O3 Ti3 1.961097 1_555
O3 Ti5 1.994014 1_665
O4 Ti0 1.961096 1_555
O4 Ti4 1.994015 1_555
O5 Ti3 1.961101 1_555
O5 Ti5 1.994011 1_565
O6 Ti3 1.961099 1_555
O6 Ti5 1.994011 1_555
O7 Ti1 1.961109 1_555
O7 Ti5 1.994021 1_654
O8 Ti1 1.961112 1_555
O8 Ti5 1.994013 1_554
O9 Ti0 1.961098 1_555
O9 Ti4 1.994013 1_665
O10 Ti0 1.961098 1_555
O10 Ti4 1.994015 1_565
O11 Ti1 1.961112 1_555
O11 Ti5 1.994015 1_664
O12 Ti2 2.001111 1_555
O12 Ti1 2.001113 1_555
O13 Ti3 2.001107 1_555
O13 Ti0 2.001110 1_555
O14 Ti3 2.001105 1_555
O14 Ti0 2.001106 1_555
O15 Ti2 2.001112 1_555
O15 Ti1 2.001113 1_555
O16 Ti2 2.001114 1_555
O16 Ti1 2.001116 1_555
O17 Ti3 2.001103 1_555
O17 Ti0 2.001108 1_555
