# generated using pymatgen
data_Ta4Te16Pd3
_symmetry_space_group_name_H-M   'P 1'
_cell_length_a   11.11121090
_cell_length_b   11.11121090
_cell_length_c   18.10775865
_cell_angle_alpha   61.35582847
_cell_angle_beta   61.35582847
_cell_angle_gamma   19.63190448
_symmetry_Int_Tables_number   1
_chemical_formula_structural   Ta4Te16Pd3
_chemical_formula_sum   'Ta4 Te16 Pd3'
_cell_volume   656.22253522
_cell_formula_units_Z   1
loop_
 _symmetry_equiv_pos_site_id
 _symmetry_equiv_pos_as_xyz
  1  'x, y, z'
loop_
 _atom_site_type_symbol
 _atom_site_label
 _atom_site_symmetry_multiplicity
 _atom_site_fract_x
 _atom_site_fract_y
 _atom_site_fract_z
 _atom_site_occupancy
  Ta  Ta0  1  0.91721900  0.91721900  0.84892100  1
  Ta  Ta1  1  0.08278100  0.08278100  0.15107900  1
  Ta  Ta2  1  0.79183700  0.79183700  0.58293700  1
  Ta  Ta3  1  0.20816300  0.20816300  0.41706300  1
  Te  Te0  1  0.37897200  0.37897200  0.98171200  1
  Te  Te1  1  0.62102800  0.62102800  0.01828800  1
  Te  Te2  1  0.03846300  0.03846300  0.87881800  1
  Te  Te3  1  0.96153700  0.96153700  0.12118200  1
  Te  Te4  1  0.51754900  0.51754900  0.73477800  1
  Te  Te5  1  0.48245100  0.48245100  0.26522200  1
  Te  Te6  1  0.92284800  0.92284800  0.68452500  1
  Te  Te7  1  0.07715200  0.07715200  0.31547500  1
  Te  Te8  1  0.31375200  0.31375200  0.86500200  1
  Te  Te9  1  0.68624800  0.68624800  0.13499800  1
  Te  Te10  1  0.72533500  0.72533500  0.75188500  1
  Te  Te11  1  0.27466500  0.27466500  0.24811500  1
  Te  Te12  1  0.39851600  0.39851600  0.51787500  1
  Te  Te13  1  0.60148400  0.60148400  0.48212500  1
  Te  Te14  1  0.80756600  0.80756600  0.41162000  1
  Te  Te15  1  0.19243400  0.19243400  0.58838000  1
  Pd  Pd0  1  0.50000000  0.50000000  0.00000000  1
  Pd  Pd1  1  0.32903100  0.32903100  0.69242500  1
  Pd  Pd2  1  0.67096900  0.67096900  0.30757500  1
loop_
_geom_bond_atom_site_label_1
_geom_bond_atom_site_label_2
_geom_bond_distance
_geom_bond_site_symmetry_2
Ta0 Te0 2.848186 1_655
Ta0 Te0 2.848186 1_565
Ta0 Te8 2.857316 1_565
Ta0 Te8 2.857316 1_655
Ta0 Te4 2.875534 1_565
Ta0 Te4 2.875534 1_655
Ta0 Te6 2.918866 1_555
Ta0 Te2 2.956343 1_665
Ta1 Te1 2.848186 1_455
Ta1 Te1 2.848186 1_545
Ta1 Te9 2.857316 1_455
Ta1 Te9 2.857316 1_545
Ta1 Te5 2.875534 1_455
Ta1 Te5 2.875534 1_545
Ta1 Te7 2.918866 1_555
Ta1 Te3 2.956343 1_445
Ta2 Te10 2.673033 1_555
Ta2 Te12 2.784833 1_565
Ta2 Te12 2.784833 1_655
Ta2 Te15 2.850795 1_655
Ta2 Te15 2.850795 1_565
Ta2 Te14 2.949998 1_555
Ta3 Te11 2.673033 1_555
Ta3 Te13 2.784833 1_545
Ta3 Te13 2.784833 1_455
Ta3 Te14 2.850795 1_455
Ta3 Te14 2.850795 1_545
Ta3 Te15 2.949998 1_555
Pd0 Te3 2.704544 1_455
Pd0 Te3 2.704544 1_545
Pd0 Te2 2.704544 1_564
Pd0 Te2 2.704544 1_654
Pd0 Te1 2.826114 1_555
Pd0 Te0 2.826114 1_554
Pd1 Te10 2.743111 1_455
Pd1 Te10 2.743111 1_545
Pd1 Te6 2.746464 1_545
Pd1 Te6 2.746464 1_455
Pd1 Te12 2.761514 1_555
Pd1 Te8 2.976607 1_555
Pd1 Ta2 3.123030 1_455
Pd1 Ta2 3.123030 1_545
Pd2 Te11 2.743111 1_565
Pd2 Te11 2.743111 1_655
Pd2 Te7 2.746464 1_565
Pd2 Te7 2.746464 1_655
Pd2 Te13 2.761514 1_555
Pd2 Te9 2.976607 1_555
Pd2 Ta3 3.123030 1_655
Pd2 Ta3 3.123030 1_565
