# generated using pymatgen
data_Sr10Al2ClF25
_symmetry_space_group_name_H-M   'P 1'
_cell_length_a   11.74658371
_cell_length_b   11.74658371
_cell_length_c   11.74658371
_cell_angle_alpha   60.00000000
_cell_angle_beta   60.00000000
_cell_angle_gamma   60.00000000
_symmetry_Int_Tables_number   1
_chemical_formula_structural   Sr10Al2ClF25
_chemical_formula_sum   'Sr20 Al4 Cl2 F50'
_cell_volume   1146.09267409
_cell_formula_units_Z   2
loop_
 _symmetry_equiv_pos_site_id
 _symmetry_equiv_pos_as_xyz
  1  'x, y, z'
loop_
 _atom_site_type_symbol
 _atom_site_label
 _atom_site_symmetry_multiplicity
 _atom_site_fract_x
 _atom_site_fract_y
 _atom_site_fract_z
 _atom_site_occupancy
  Sr  Sr0  1  0.91451100  0.91451100  0.91451100  1
  Sr  Sr1  1  0.30577400  0.69422600  0.69422600  1
  Sr  Sr2  1  0.94422600  0.94422600  0.55577400  1
  Sr  Sr3  1  0.55577400  0.94422600  0.94422600  1
  Sr  Sr4  1  0.33548900  0.33548900  0.99353300  1
  Sr  Sr5  1  0.33548900  0.99353300  0.33548900  1
  Sr  Sr6  1  0.99353300  0.33548900  0.33548900  1
  Sr  Sr7  1  0.94422600  0.55577400  0.94422600  1
  Sr  Sr8  1  0.33548900  0.33548900  0.33548900  1
  Sr  Sr9  1  0.55577400  0.55577400  0.94422600  1
  Sr  Sr10  1  0.69422600  0.69422600  0.30577400  1
  Sr  Sr11  1  0.30577400  0.69422600  0.30577400  1
  Sr  Sr12  1  0.30577400  0.30577400  0.69422600  1
  Sr  Sr13  1  0.94422600  0.55577400  0.55577400  1
  Sr  Sr14  1  0.55577400  0.94422600  0.55577400  1
  Sr  Sr15  1  0.91451100  0.25646700  0.91451100  1
  Sr  Sr16  1  0.25646700  0.91451100  0.91451100  1
  Sr  Sr17  1  0.91451100  0.91451100  0.25646700  1
  Sr  Sr18  1  0.69422600  0.30577400  0.30577400  1
  Sr  Sr19  1  0.69422600  0.30577400  0.69422600  1
  Al  Al0  1  0.12500000  0.12500000  0.12500000  1
  Al  Al1  1  0.12500000  0.62500000  0.12500000  1
  Al  Al2  1  0.12500000  0.12500000  0.62500000  1
  Al  Al3  1  0.62500000  0.12500000  0.12500000  1
  Cl  Cl0  1  0.50000000  0.50000000  0.50000000  1
  Cl  Cl1  1  0.75000000  0.75000000  0.75000000  1
  F  F0  1  0.08743100  0.30703700  0.51810200  1
  F  F1  1  0.48221700  0.81105300  0.22451400  1
  F  F2  1  0.08743100  0.30703700  0.08743100  1
  F  F3  1  0.16256900  0.94296300  0.73189800  1
  F  F4  1  0.02548600  0.76778300  0.43894700  1
  F  F5  1  0.51810200  0.30703700  0.08743100  1
  F  F6  1  0.16256900  0.16256900  0.94296300  1
  F  F7  1  0.08743100  0.51810200  0.08743100  1
  F  F8  1  0.25000000  0.25000000  0.25000000  1
  F  F9  1  0.22451400  0.81105300  0.48221700  1
  F  F10  1  0.48221700  0.22451400  0.48221700  1
  F  F11  1  0.30703700  0.51810200  0.08743100  1
  F  F12  1  0.16256900  0.16256900  0.73189800  1
  F  F13  1  0.02548600  0.43894700  0.76778300  1
  F  F14  1  0.76778300  0.76778300  0.02548600  1
  F  F15  1  0.76778300  0.02548600  0.76778300  1
  F  F16  1  0.73189800  0.16256900  0.16256900  1
  F  F17  1  0.43894700  0.76778300  0.76778300  1
  F  F18  1  0.16256900  0.94296300  0.16256900  1
  F  F19  1  0.94296300  0.73189800  0.16256900  1
  F  F20  1  0.81105300  0.22451400  0.48221700  1
  F  F21  1  0.00000000  0.00000000  0.00000000  1
  F  F22  1  0.94296300  0.16256900  0.73189800  1
  F  F23  1  0.08743100  0.51810200  0.30703700  1
  F  F24  1  0.08743100  0.08743100  0.30703700  1
  F  F25  1  0.81105300  0.48221700  0.22451400  1
  F  F26  1  0.51810200  0.08743100  0.08743100  1
  F  F27  1  0.48221700  0.22451400  0.81105300  1
  F  F28  1  0.81105300  0.48221700  0.48221700  1
  F  F29  1  0.76778300  0.76778300  0.43894700  1
  F  F30  1  0.73189800  0.94296300  0.16256900  1
  F  F31  1  0.22451400  0.48221700  0.81105300  1
  F  F32  1  0.76778300  0.43894700  0.76778300  1
  F  F33  1  0.48221700  0.48221700  0.22451400  1
  F  F34  1  0.76778300  0.02548600  0.43894700  1
  F  F35  1  0.30703700  0.08743100  0.08743100  1
  F  F36  1  0.73189800  0.16256900  0.94296300  1
  F  F37  1  0.16256900  0.73189800  0.94296300  1
  F  F38  1  0.48221700  0.81105300  0.48221700  1
  F  F39  1  0.43894700  0.76778300  0.02548600  1
  F  F40  1  0.76778300  0.43894700  0.02548600  1
  F  F41  1  0.08743100  0.08743100  0.51810200  1
  F  F42  1  0.02548600  0.76778300  0.76778300  1
  F  F43  1  0.16256900  0.73189800  0.16256900  1
  F  F44  1  0.94296300  0.16256900  0.16256900  1
  F  F45  1  0.30703700  0.08743100  0.51810200  1
  F  F46  1  0.22451400  0.48221700  0.48221700  1
  F  F47  1  0.43894700  0.02548600  0.76778300  1
  F  F48  1  0.51810200  0.08743100  0.30703700  1
  F  F49  1  0.48221700  0.48221700  0.81105300  1
loop_
_geom_bond_atom_site_label_1
_geom_bond_atom_site_label_2
_geom_bond_distance
_geom_bond_site_symmetry_2
Al0 F2 1.808129 1_555
Al0 F24 1.808129 1_555
Al0 F6 1.808129 1_554
Al0 F18 1.808129 1_545
Al0 F44 1.808129 1_455
Al0 F35 1.808129 1_555
Al1 F43 1.808118 1_555
Al1 F7 1.808118 1_555
Al1 F37 1.808127 1_554
Al1 F19 1.808127 1_455
Al1 F23 1.808127 1_555
Al1 F11 1.808127 1_555
Al2 F12 1.808118 1_555
Al2 F41 1.808118 1_555
Al2 F3 1.808127 1_545
Al2 F22 1.808127 1_455
Al2 F0 1.808127 1_555
Al2 F45 1.808127 1_555
Al3 F16 1.808118 1_555
Al3 F26 1.808118 1_555
Al3 F36 1.808127 1_554
Al3 F30 1.808127 1_545
Al3 F48 1.808127 1_555
Al3 F5 1.808127 1_555
Cl0 Sr18 3.226517 1_555
Cl0 Sr11 3.226517 1_555
Cl0 Sr12 3.226517 1_555
Cl0 Sr19 3.226517 1_555
Cl0 Sr10 3.226517 1_555
Cl0 Sr1 3.226517 1_555
Cl1 Sr2 3.226517 1_555
Cl1 Sr14 3.226517 1_555
Cl1 Sr3 3.226517 1_555
Cl1 Sr9 3.226517 1_555
Cl1 Sr13 3.226517 1_555
Cl1 Sr7 3.226517 1_555
F0 Sr13 2.682550 1_455
F0 Sr8 2.685147 1_555
F0 Sr6 2.685156 1_455
F1 Sr5 2.473379 1_555
F1 Sr10 2.577985 1_555
F1 Sr11 2.577995 1_555
F1 Sr3 2.718488 1_554
F2 Sr7 2.682554 1_454
F2 Sr6 2.685145 1_455
F2 Sr4 2.685145 1_554
F3 Sr1 2.682550 1_555
F3 Sr0 2.685147 1_455
F3 Sr16 2.685156 1_555
F4 Sr17 2.473379 1_455
F4 Sr13 2.577985 1_455
F4 Sr2 2.577995 1_455
F4 Sr11 2.718488 1_555
F5 Sr9 2.682550 1_554
F5 Sr8 2.685147 1_555
F5 Sr4 2.685156 1_554
F6 Sr12 2.682554 1_555
F6 Sr15 2.685145 1_455
F6 Sr16 2.685145 1_545
F7 Sr7 2.682560 1_454
F7 Sr6 2.685150 1_455
F7 Sr4 2.685150 1_554
F8 Sr8 2.459787 1_555
F8 Sr5 2.459787 1_545
F8 Sr4 2.459787 1_554
F8 Sr6 2.459787 1_455
F9 Sr5 2.473379 1_555
F9 Sr1 2.577985 1_555
F9 Sr11 2.577995 1_555
F9 Sr2 2.718488 1_455
F10 Sr8 2.473388 1_555
F10 Sr18 2.577986 1_555
F10 Sr12 2.577986 1_555
F10 Sr14 2.718490 1_545
F11 Sr9 2.682550 1_554
F11 Sr8 2.685147 1_555
F11 Sr4 2.685156 1_554
F12 Sr12 2.682560 1_555
F12 Sr15 2.685150 1_455
F12 Sr16 2.685150 1_545
F13 Sr15 2.473379 1_455
F13 Sr13 2.577985 1_455
F13 Sr7 2.577995 1_455
F13 Sr12 2.718488 1_555
F14 Sr0 2.473388 1_554
F14 Sr3 2.577986 1_554
F14 Sr7 2.577986 1_554
F14 Sr10 2.718490 1_555
F15 Sr0 2.473388 1_545
F15 Sr3 2.577986 1_545
F15 Sr2 2.577986 1_545
F15 Sr19 2.718490 1_555
F16 Sr18 2.682560 1_555
F16 Sr17 2.685150 1_545
F16 Sr15 2.685150 1_554
F17 Sr16 2.473386 1_555
F17 Sr14 2.577992 1_555
F17 Sr9 2.577992 1_555
F17 Sr1 2.718479 1_555
F18 Sr11 2.682554 1_555
F18 Sr17 2.685145 1_455
F18 Sr16 2.685145 1_554
F19 Sr10 2.682550 1_555
F19 Sr0 2.685147 1_554
F19 Sr17 2.685156 1_555
F20 Sr6 2.473379 1_555
F20 Sr19 2.577985 1_555
F20 Sr18 2.577995 1_555
F20 Sr2 2.718488 1_545
F21 Sr17 2.459787 1_445
F21 Sr16 2.459787 1_544
F21 Sr15 2.459787 1_454
F21 Sr0 2.459787 1_444
F22 Sr19 2.682550 1_555
F22 Sr0 2.685147 1_545
F22 Sr15 2.685156 1_555
F23 Sr13 2.682550 1_455
F23 Sr8 2.685147 1_555
F23 Sr6 2.685156 1_455
F24 Sr2 2.682554 1_445
F24 Sr6 2.685145 1_455
F24 Sr5 2.685145 1_545
F25 Sr6 2.473379 1_555
F25 Sr10 2.577985 1_555
F25 Sr18 2.577995 1_555
F25 Sr7 2.718488 1_554
F26 Sr3 2.682560 1_544
F26 Sr5 2.685150 1_545
F26 Sr4 2.685150 1_554
F27 Sr4 2.473379 1_555
F27 Sr19 2.577985 1_555
F27 Sr12 2.577995 1_555
F27 Sr3 2.718488 1_545
F28 Sr6 2.473386 1_555
F28 Sr19 2.577992 1_555
F28 Sr10 2.577992 1_555
F28 Sr13 2.718479 1_555
F29 Sr17 2.473386 1_555
F29 Sr14 2.577992 1_555
F29 Sr13 2.577992 1_555
F29 Sr10 2.718479 1_555
F30 Sr10 2.682550 1_555
F30 Sr0 2.685147 1_554
F30 Sr17 2.685156 1_555
F31 Sr4 2.473379 1_555
F31 Sr1 2.577985 1_555
F31 Sr12 2.577995 1_555
F31 Sr7 2.718488 1_455
F32 Sr15 2.473386 1_555
F32 Sr9 2.577992 1_555
F32 Sr13 2.577992 1_555
F32 Sr19 2.718479 1_555
F33 Sr8 2.473388 1_555
F33 Sr18 2.577986 1_555
F33 Sr11 2.577986 1_555
F33 Sr9 2.718490 1_554
F34 Sr17 2.473379 1_545
F34 Sr14 2.577985 1_545
F34 Sr2 2.577995 1_545
F34 Sr18 2.718488 1_555
F35 Sr3 2.682554 1_544
F35 Sr5 2.685145 1_545
F35 Sr4 2.685145 1_554
F36 Sr19 2.682550 1_555
F36 Sr0 2.685147 1_545
F36 Sr15 2.685156 1_555
F37 Sr1 2.682550 1_555
F37 Sr0 2.685147 1_455
F37 Sr16 2.685156 1_555
F38 Sr5 2.473386 1_555
F38 Sr1 2.577992 1_555
F38 Sr10 2.577992 1_555
F38 Sr14 2.718479 1_555
F39 Sr16 2.473379 1_554
F39 Sr9 2.577985 1_554
F39 Sr3 2.577995 1_554
F39 Sr11 2.718488 1_555
F40 Sr15 2.473379 1_554
F40 Sr9 2.577985 1_554
F40 Sr7 2.577995 1_554
F40 Sr18 2.718488 1_555
F41 Sr2 2.682560 1_445
F41 Sr6 2.685150 1_455
F41 Sr5 2.685150 1_545
F42 Sr0 2.473388 1_455
F42 Sr7 2.577986 1_455
F42 Sr2 2.577986 1_455
F42 Sr1 2.718490 1_555
F43 Sr11 2.682560 1_555
F43 Sr17 2.685150 1_455
F43 Sr16 2.685150 1_554
F44 Sr18 2.682554 1_555
F44 Sr17 2.685145 1_545
F44 Sr15 2.685145 1_554
F45 Sr14 2.682550 1_545
F45 Sr8 2.685147 1_555
F45 Sr5 2.685156 1_545
F46 Sr8 2.473388 1_555
F46 Sr11 2.577986 1_555
F46 Sr12 2.577986 1_555
F46 Sr13 2.718490 1_455
F47 Sr16 2.473379 1_545
F47 Sr14 2.577985 1_545
F47 Sr3 2.577995 1_545
F47 Sr12 2.718488 1_555
F48 Sr14 2.682550 1_545
F48 Sr8 2.685147 1_555
F48 Sr5 2.685156 1_545
F49 Sr4 2.473386 1_555
F49 Sr19 2.577992 1_555
F49 Sr1 2.577992 1_555
F49 Sr9 2.718479 1_555
