# generated using pymatgen
data_Mo4O11
_symmetry_space_group_name_H-M   'P 1'
_cell_length_a   5.59916200
_cell_length_b   6.89605000
_cell_length_c   25.20770336
_cell_angle_alpha   86.10989260
_cell_angle_beta   90.00000000
_cell_angle_gamma   90.00000000
_symmetry_Int_Tables_number   1
_chemical_formula_structural   Mo4O11
_chemical_formula_sum   'Mo16 O44'
_cell_volume   971.07986338
_cell_formula_units_Z   4
loop_
 _symmetry_equiv_pos_site_id
 _symmetry_equiv_pos_as_xyz
  1  'x, y, z'
loop_
 _atom_site_type_symbol
 _atom_site_label
 _atom_site_symmetry_multiplicity
 _atom_site_fract_x
 _atom_site_fract_y
 _atom_site_fract_z
 _atom_site_occupancy
  Mo  Mo0  1  0.22165500  0.68325100  0.04471800  1
  Mo  Mo1  1  0.23185500  0.33964300  0.27969200  1
  Mo  Mo2  1  0.72887000  0.99804600  0.33647700  1
  Mo  Mo3  1  0.27834500  0.68325100  0.54471800  1
  Mo  Mo4  1  0.26814500  0.33964300  0.77969200  1
  Mo  Mo5  1  0.77834500  0.31674900  0.95528200  1
  Mo  Mo6  1  0.22887000  0.00195400  0.16352300  1
  Mo  Mo7  1  0.23611400  0.66159200  0.39887800  1
  Mo  Mo8  1  0.26388600  0.66159200  0.89887800  1
  Mo  Mo9  1  0.72165500  0.31674900  0.45528200  1
  Mo  Mo10  1  0.76388600  0.33840800  0.60112200  1
  Mo  Mo11  1  0.77113000  0.99804600  0.83647700  1
  Mo  Mo12  1  0.27113000  0.00195400  0.66352300  1
  Mo  Mo13  1  0.76814500  0.66035700  0.72030800  1
  Mo  Mo14  1  0.73611400  0.33840800  0.10112200  1
  Mo  Mo15  1  0.73185500  0.66035700  0.22030800  1
  O  O0  1  0.00323500  0.20575900  0.11879700  1
  O  O1  1  0.53237700  0.86093800  0.68209900  1
  O  O2  1  0.23625100  0.16732600  0.21589800  1
  O  O3  1  0.45524400  0.51608400  0.06184700  1
  O  O4  1  0.76513400  0.11783300  0.91320800  1
  O  O5  1  0.05916800  0.43860100  0.94472500  1
  O  O6  1  0.50323500  0.79424100  0.38120300  1
  O  O7  1  0.50910000  0.17009800  0.12288600  1
  O  O8  1  0.24475700  0.77197800  0.47583400  1
  O  O9  1  0.76374900  0.83267400  0.78410200  1
  O  O10  1  0.26513400  0.88216700  0.58679200  1
  O  O11  1  0.46762300  0.13906200  0.31790100  1
  O  O12  1  0.99676500  0.79424100  0.88120300  1
  O  O13  1  0.94083200  0.56139900  0.05527500  1
  O  O14  1  0.03237700  0.13906200  0.81790100  1
  O  O15  1  0.55916800  0.56139900  0.55527500  1
  O  O16  1  0.73625100  0.83267400  0.28410200  1
  O  O17  1  0.49923500  0.50712700  0.74477900  1
  O  O18  1  0.95664600  0.16690700  0.31326800  1
  O  O19  1  0.00076500  0.50712700  0.24477900  1
  O  O20  1  0.72612900  0.50193900  0.15338600  1
  O  O21  1  0.54475600  0.48391600  0.93815300  1
  O  O22  1  0.23486600  0.88216700  0.08679200  1
  O  O23  1  0.73486600  0.11783300  0.41320800  1
  O  O24  1  0.49676500  0.20575900  0.61879700  1
  O  O25  1  0.45664600  0.83309300  0.18673200  1
  O  O26  1  0.00910000  0.82990200  0.37711400  1
  O  O27  1  0.99090000  0.17009800  0.62288600  1
  O  O28  1  0.75524300  0.22802200  0.52416600  1
  O  O29  1  0.99923500  0.49287300  0.75522100  1
  O  O30  1  0.44083200  0.43860100  0.44472500  1
  O  O31  1  0.50076500  0.49287300  0.25522100  1
  O  O32  1  0.27387100  0.49806100  0.84661400  1
  O  O33  1  0.25524300  0.77197800  0.97583400  1
  O  O34  1  0.04475600  0.51608400  0.56184700  1
  O  O35  1  0.77387100  0.50193900  0.65338600  1
  O  O36  1  0.49090000  0.82990200  0.87711400  1
  O  O37  1  0.22612900  0.49806100  0.34661400  1
  O  O38  1  0.26374900  0.16732600  0.71589800  1
  O  O39  1  0.96762300  0.86093800  0.18209900  1
  O  O40  1  0.04335400  0.83309300  0.68673200  1
  O  O41  1  0.95524400  0.48391600  0.43815300  1
  O  O42  1  0.54335400  0.16690700  0.81326800  1
  O  O43  1  0.74475700  0.22802200  0.02416600  1
loop_
_geom_bond_atom_site_label_1
_geom_bond_atom_site_label_2
_geom_bond_distance
_geom_bond_site_symmetry_2
Mo0 O3 1.777199 1_555
Mo0 O22 1.791474 1_555
Mo0 O13 1.794139 1_455
Mo0 O33 1.811270 1_554
Mo1 O19 1.909134 1_555
Mo1 O31 1.917209 1_555
Mo1 O2 2.063480 1_555
Mo1 O37 2.071317 1_555
Mo1 O18 2.091170 1_455
Mo1 O11 2.098302 1_555
Mo2 O18 1.797879 1_565
Mo2 O11 1.800785 1_565
Mo2 O16 1.802669 1_555
Mo2 O6 2.151163 1_555
Mo2 O23 2.154407 1_565
Mo2 O26 2.166702 1_655
Mo3 O34 1.777199 1_555
Mo3 O10 1.791474 1_555
Mo3 O15 1.794139 1_555
Mo3 O8 1.811270 1_555
Mo4 O17 1.909134 1_555
Mo4 O29 1.917209 1_455
Mo4 O38 2.063480 1_555
Mo4 O32 2.071317 1_555
Mo4 O42 2.091170 1_555
Mo4 O14 2.098302 1_555
Mo5 O21 1.777199 1_555
Mo5 O4 1.791474 1_555
Mo5 O5 1.794139 1_655
Mo5 O43 1.811270 1_556
Mo6 O25 1.797879 1_545
Mo6 O39 1.800785 1_445
Mo6 O2 1.802669 1_555
Mo6 O0 2.151163 1_555
Mo6 O22 2.154407 1_545
Mo6 O7 2.166702 1_555
Mo7 O26 1.782530 1_555
Mo7 O37 1.792248 1_555
Mo7 O6 1.793590 1_555
Mo7 O8 2.131977 1_555
Mo7 O30 2.184738 1_555
Mo7 O41 2.188613 1_455
Mo8 O36 1.782530 1_555
Mo8 O32 1.792248 1_555
Mo8 O12 1.793590 1_455
Mo8 O33 2.131977 1_555
Mo8 O5 2.184738 1_555
Mo8 O21 2.188613 1_555
Mo9 O41 1.777199 1_555
Mo9 O23 1.791474 1_555
Mo9 O30 1.794139 1_555
Mo9 O28 1.811270 1_555
Mo10 O27 1.782530 1_555
Mo10 O35 1.792248 1_555
Mo10 O24 1.793590 1_555
Mo10 O28 2.131977 1_555
Mo10 O15 2.184738 1_555
Mo10 O34 2.188613 1_655
Mo11 O42 1.797879 1_565
Mo11 O14 1.800785 1_665
Mo11 O9 1.802669 1_555
Mo11 O12 2.151163 1_555
Mo11 O4 2.154407 1_565
Mo11 O36 2.166702 1_555
Mo12 O40 1.797879 1_545
Mo12 O1 1.800785 1_545
Mo12 O38 1.802669 1_555
Mo12 O24 2.151163 1_555
Mo12 O10 2.154407 1_545
Mo12 O27 2.166702 1_455
Mo13 O29 1.909134 1_555
Mo13 O17 1.917209 1_555
Mo13 O9 2.063480 1_555
Mo13 O35 2.071317 1_555
Mo13 O40 2.091170 1_655
Mo13 O1 2.098302 1_555
Mo14 O7 1.782530 1_555
Mo14 O20 1.792248 1_555
Mo14 O0 1.793590 1_655
Mo14 O43 2.131977 1_555
Mo14 O13 2.184738 1_555
Mo14 O3 2.188613 1_555
Mo15 O31 1.909134 1_555
Mo15 O19 1.917209 1_655
Mo15 O16 2.063480 1_555
Mo15 O20 2.071317 1_555
Mo15 O25 2.091170 1_555
Mo15 O39 2.098302 1_555
