# generated using pymatgen
data_Tb4InRh
_symmetry_space_group_name_H-M   'P 1'
_cell_length_a   9.65892990
_cell_length_b   9.65893350
_cell_length_c   9.65893337
_cell_angle_alpha   59.99993423
_cell_angle_beta   59.99992456
_cell_angle_gamma   59.99989720
_symmetry_Int_Tables_number   1
_chemical_formula_structural   Tb4InRh
_chemical_formula_sum   'Tb16 In4 Rh4'
_cell_volume   637.19382949
_cell_formula_units_Z   4
loop_
 _symmetry_equiv_pos_site_id
 _symmetry_equiv_pos_as_xyz
  1  'x, y, z'
loop_
 _atom_site_type_symbol
 _atom_site_label
 _atom_site_symmetry_multiplicity
 _atom_site_fract_x
 _atom_site_fract_y
 _atom_site_fract_z
 _atom_site_occupancy
  Tb  Tb0  1  0.81067830  0.81066178  0.18932348  1
  Tb  Tb1  1  0.81067343  0.18934718  0.81066602  1
  Tb  Tb2  1  0.18929150  0.18936945  0.81067094  1
  Tb  Tb3  1  0.65075729  0.04778703  0.65073319  1
  Tb  Tb4  1  0.06150426  0.06153083  0.43848374  1
  Tb  Tb5  1  0.43849010  0.43847479  0.06151511  1
  Tb  Tb6  1  0.65076863  0.65070976  0.65074425  1
  Tb  Tb7  1  0.81067470  0.18935355  0.18930715  1
  Tb  Tb8  1  0.18930816  0.81066514  0.81067486  1
  Tb  Tb9  1  0.04776759  0.65072458  0.65075899  1
  Tb  Tb10  1  0.43847986  0.06153145  0.06151631  1
  Tb  Tb11  1  0.43847622  0.06153129  0.43847139  1
  Tb  Tb12  1  0.06150335  0.43848733  0.06151460  1
  Tb  Tb13  1  0.65077304  0.65071426  0.04777438  1
  Tb  Tb14  1  0.18931445  0.81066644  0.18934567  1
  Tb  Tb15  1  0.06150357  0.43848330  0.43849340  1
  In  In0  1  0.41739363  0.41740099  0.41739707  1
  In  In1  1  0.41739260  0.41739990  0.74781044  1
  In  In2  1  0.41739183  0.74780464  0.41740128  1
  In  In3  1  0.74781569  0.41739684  0.41739320  1
  Rh  Rh0  1  0.85785449  0.42646541  0.85784248  1
  Rh  Rh1  1  0.85785664  0.85783008  0.85784453  1
  Rh  Rh2  1  0.85785710  0.85783175  0.42647016  1
  Rh  Rh3  1  0.42647459  0.85783423  0.85784838  1
loop_
_geom_bond_atom_site_label_1
_geom_bond_atom_site_label_2
_geom_bond_distance
_geom_bond_site_symmetry_2
Tb0 Tb12 3.613019 1_655
Tb0 Tb15 3.613088 1_655
Tb0 Tb10 3.613203 1_565
Tb0 Tb11 3.613271 1_565
Tb1 Tb15 3.612930 1_655
Tb1 Tb5 3.613013 1_556
Tb1 Tb4 3.613119 1_655
Tb1 Tb10 3.613207 1_556
Tb3 Tb4 3.475858 1_655
Tb4 Tb9 3.476334 1_545
Tb4 Tb8 3.613130 1_545
Tb4 Tb7 3.613161 1_455
Tb5 Tb6 3.476055 1_554
Tb5 Tb7 3.613018 1_555
Tb5 Tb8 3.613257 1_554
Tb10 Tb3 3.476163 1_554
Tb10 Tb13 3.476440 1_545
Tb10 Tb2 3.613334 1_554
Tb10 Tb14 3.613336 1_545
Tb10 Tb5 3.640914 1_555
Tb10 Tb11 3.640966 1_555
Tb10 Tb12 3.641085 1_555
Tb10 Tb4 3.641138 1_555
Tb11 Tb3 3.476296 1_555
Tb11 Tb6 3.476480 1_545
Tb11 Tb7 3.613278 1_555
Tb11 Tb8 3.613359 1_545
Tb11 Tb2 3.613364 1_555
Tb11 Tb5 3.640930 1_555
Tb11 Tb15 3.641048 1_555
Tb11 Tb4 3.641088 1_555
Tb12 Tb13 3.475707 1_455
Tb12 Tb9 3.475908 1_554
Tb12 Tb7 3.612906 1_455
Tb12 Tb2 3.612913 1_554
Tb12 Tb8 3.613028 1_554
Tb12 Tb4 3.641055 1_555
Tb12 Tb15 3.641195 1_555
Tb12 Tb5 3.641230 1_555
Tb13 Tb5 3.476144 1_555
Tb14 Tb15 3.613100 1_555
Tb14 Tb4 3.613172 1_565
Tb14 Tb5 3.613263 1_555
Tb15 Tb6 3.475751 1_455
Tb15 Tb9 3.476039 1_555
Tb15 Tb2 3.612943 1_555
Tb15 Tb4 3.641002 1_555
Tb15 Tb5 3.641243 1_555
In0 In2 3.191359 1_555
In0 In1 3.191430 1_555
In0 In3 3.191485 1_555
In0 Tb11 3.246519 1_555
In0 Tb5 3.246581 1_555
In0 Tb15 3.246622 1_555
In0 Tb9 3.448529 1_555
In0 Tb3 3.448549 1_555
In0 Tb13 3.448551 1_555
In0 Tb14 3.500191 1_555
In0 Tb2 3.500242 1_555
In0 Tb7 3.500285 1_555
In1 In2 3.191376 1_555
In1 In3 3.191502 1_555
In1 Tb10 3.246480 1_556
In1 Tb5 3.246525 1_556
In1 Tb12 3.246584 1_556
In1 Tb9 3.448486 1_555
In1 Tb3 3.448503 1_555
In1 Tb6 3.448513 1_555
In1 Tb8 3.500188 1_555
In1 Tb2 3.500225 1_555
In1 Tb1 3.500282 1_555
In2 In3 3.191459 1_555
In2 Tb11 3.246640 1_565
In2 Tb10 3.246658 1_565
In2 Tb4 3.246667 1_565
In2 Tb9 3.448609 1_555
In2 Tb13 3.448677 1_555
In2 Tb6 3.448683 1_555
In2 Tb14 3.500231 1_555
In2 Tb8 3.500243 1_555
In2 Tb0 3.500336 1_555
In3 Tb4 3.246392 1_655
In3 Tb15 3.246440 1_655
In3 Tb12 3.246458 1_655
In3 Tb3 3.448396 1_555
In3 Tb13 3.448398 1_555
In3 Tb6 3.448404 1_555
In3 Tb0 3.500180 1_555
In3 Tb7 3.500213 1_555
In3 Tb1 3.500226 1_555
Rh0 Tb2 2.820297 1_655
Rh0 Tb7 2.820522 1_556
Rh0 Tb1 2.820615 1_555
Rh0 Tb9 2.833612 1_655
Rh0 Tb13 2.833660 1_556
Rh0 Tb6 2.833679 1_555
Rh0 Tb12 3.475527 1_656
Rh0 Tb15 3.475586 1_655
Rh0 Tb5 3.475734 1_556
Rh1 Tb8 2.820456 1_655
Rh1 Tb0 2.820678 1_556
Rh1 Tb1 2.820989 1_565
Rh1 Tb9 2.833746 1_655
Rh1 Tb13 2.833795 1_556
Rh1 Tb3 2.833859 1_565
Rh1 Tb12 3.475510 1_656
Rh1 Tb4 3.475697 1_665
Rh1 Tb10 3.475851 1_566
Rh2 Tb14 2.820515 1_655
Rh2 Tb0 2.820828 1_555
Rh2 Tb7 2.821041 1_565
Rh2 Tb9 2.833804 1_655
Rh2 Tb6 2.833870 1_555
Rh2 Tb3 2.833914 1_565
Rh2 Tb15 3.475566 1_655
Rh2 Tb4 3.475691 1_665
Rh2 Tb11 3.475892 1_565
Rh3 Tb14 2.820878 1_556
Rh3 Tb8 2.820975 1_555
Rh3 Tb2 2.821186 1_565
Rh3 Tb13 2.833974 1_556
Rh3 Tb6 2.833998 1_555
Rh3 Tb3 2.834038 1_565
Rh3 Tb5 3.475679 1_556
Rh3 Tb10 3.475801 1_566
Rh3 Tb11 3.475861 1_565
