# generated using pymatgen
data_SrTiO3
_symmetry_space_group_name_H-M   'P 1'
_cell_length_a   5.53392131
_cell_length_b   5.53392168
_cell_length_c   5.53392559
_cell_angle_alpha   120.02786883
_cell_angle_beta   120.02787511
_cell_angle_gamma   89.95176766
_symmetry_Int_Tables_number   1
_chemical_formula_structural   SrTiO3
_chemical_formula_sum   'Sr2 Ti2 O6'
_cell_volume   119.78460373
_cell_formula_units_Z   2
loop_
 _symmetry_equiv_pos_site_id
 _symmetry_equiv_pos_as_xyz
  1  'x, y, z'
loop_
 _atom_site_type_symbol
 _atom_site_label
 _atom_site_symmetry_multiplicity
 _atom_site_fract_x
 _atom_site_fract_y
 _atom_site_fract_z
 _atom_site_occupancy
  Sr  Sr0  1  0.75000006  0.24999998  0.49999996  1
  Sr  Sr1  1  0.24999992  0.75000018  0.50000016  1
  Ti  Ti0  1  0.00000532  0.00000409  0.00000216  1
  Ti  Ti1  1  0.49999467  0.49999565  -0.00000238  1
  O  O0  1  0.24105565  0.74104767  0.98210233  1
  O  O1  1  0.74104758  0.75894454  0.49999212  1
  O  O2  1  0.25895242  0.24105551  0.50000798  1
  O  O3  1  0.74999611  0.74999599  0.00000002  1
  O  O4  1  0.75894441  0.25895245  0.01789771  1
  O  O5  1  0.25000387  0.25000393  -0.00000007  1
loop_
_geom_bond_atom_site_label_1
_geom_bond_atom_site_label_2
_geom_bond_distance
_geom_bond_site_symmetry_2
O0 Ti1 1.956930 1_556
O0 Ti0 1.956992 1_566
O0 Sr1 2.717930 1_555
O0 Sr0 2.717932 1_455
O0 Sr0 2.816872 1_566
O0 Sr1 2.816882 1_556
O1 Ti1 1.956944 1_555
O1 Ti0 1.957005 1_666
O1 Sr0 2.717934 1_565
O1 Sr1 2.717934 1_555
O1 Sr1 2.816874 1_655
O1 Sr0 2.816875 1_555
O2 Ti1 1.956925 1_556
O2 Ti0 1.956988 1_555
O2 Sr1 2.717933 1_545
O2 Sr0 2.717934 1_555
O2 Sr0 2.816874 1_455
O2 Sr1 2.816875 1_555
O3 Ti1 1.957358 1_555
O3 Ti0 1.957419 1_665
O3 Sr1 2.765795 1_655
O3 Sr0 2.765796 1_565
O3 Sr0 2.765796 1_554
O3 Sr1 2.765796 1_554
O4 Ti1 1.956938 1_555
O4 Ti0 1.957001 1_655
O4 Sr0 2.717931 1_555
O4 Sr1 2.717932 1_655
O4 Sr1 2.816872 1_544
O4 Sr0 2.816881 1_554
O5 Ti1 1.957301 1_555
O5 Ti0 1.957362 1_555
O5 Sr1 2.765795 1_544
O5 Sr0 2.765795 1_454
O5 Sr0 2.765796 1_555
O5 Sr1 2.765797 1_555
