# generated using pymatgen
data_TiMn2O4
_symmetry_space_group_name_H-M   'P 1'
_cell_length_a   6.14820616
_cell_length_b   6.14820564
_cell_length_c   8.59148081
_cell_angle_alpha   90.00004530
_cell_angle_beta   90.00002062
_cell_angle_gamma   89.99999366
_symmetry_Int_Tables_number   1
_chemical_formula_structural   TiMn2O4
_chemical_formula_sum   'Ti4 Mn8 O16'
_cell_volume   324.76171869
_cell_formula_units_Z   4
loop_
 _symmetry_equiv_pos_site_id
 _symmetry_equiv_pos_as_xyz
  1  'x, y, z'
loop_
 _atom_site_type_symbol
 _atom_site_label
 _atom_site_symmetry_multiplicity
 _atom_site_fract_x
 _atom_site_fract_y
 _atom_site_fract_z
 _atom_site_occupancy
  Ti  Ti0  1  0.49999939  0.24549256  -0.00000053  1
  Ti  Ti1  1  0.75450878  0.50000013  0.75000038  1
  Ti  Ti2  1  0.24549285  0.49999986  0.24999997  1
  Ti  Ti3  1  0.49999908  0.75450802  0.50000063  1
  Mn  Mn0  1  -0.00000020  0.25220010  0.00000027  1
  Mn  Mn1  1  0.74779954  -0.00000004  0.74999997  1
  Mn  Mn2  1  0.25219985  -0.00000014  0.24999989  1
  Mn  Mn3  1  -0.00000023  0.74779982  0.49999982  1
  Mn  Mn4  1  0.25094628  0.25094629  0.62500013  1
  Mn  Mn5  1  0.74905369  0.25094647  0.37500042  1
  Mn  Mn6  1  0.25094662  0.74905364  0.87499987  1
  Mn  Mn7  1  0.74905352  0.74905407  0.12500000  1
  O  O0  1  0.26995280  0.03430225  0.99744735  1
  O  O1  1  0.96569710  0.26995240  0.74744734  1
  O  O2  1  0.03430221  0.73004709  0.24744760  1
  O  O3  1  0.26995251  0.96569749  0.50255265  1
  O  O4  1  0.73004755  0.03430254  0.00255245  1
  O  O5  1  0.73004759  0.96569766  0.49744752  1
  O  O6  1  0.03430210  0.26995272  0.25255266  1
  O  O7  1  0.96569734  0.73004779  0.75255288  1
  O  O8  1  0.26919273  0.48577286  0.02021141  1
  O  O9  1  0.51422663  0.26919269  0.77021137  1
  O  O10  1  0.48577229  0.73080660  0.27021193  1
  O  O11  1  0.26919304  0.51422677  0.47978860  1
  O  O12  1  0.73080652  0.48577253  0.97978837  1
  O  O13  1  0.73080782  0.51422827  0.52021207  1
  O  O14  1  0.48577216  0.26919317  0.22978845  1
  O  O15  1  0.51422645  0.73080742  0.72978854  1
loop_
_geom_bond_atom_site_label_1
_geom_bond_atom_site_label_2
_geom_bond_distance
_geom_bond_site_symmetry_2
Mn0 O4 2.133049 1_455
Mn0 O0 2.133054 1_554
Mn0 O6 2.182755 1_555
Mn0 O1 2.182760 1_454
Mn0 O8 2.198091 1_555
Mn0 O12 2.198092 1_454
Mn1 O7 2.133049 1_545
Mn1 O1 2.133050 1_555
Mn1 O5 2.182755 1_545
Mn1 O4 2.182755 1_556
Mn1 O9 2.198091 1_555
Mn1 O15 2.198091 1_545
Mn2 O2 2.133052 1_545
Mn2 O6 2.133053 1_555
Mn2 O0 2.182756 1_554
Mn2 O3 2.182758 1_545
Mn2 O14 2.198091 1_555
Mn2 O10 2.198092 1_545
Mn3 O5 2.133050 1_455
Mn3 O3 2.133052 1_555
Mn3 O2 2.182753 1_555
Mn3 O7 2.182761 1_455
Mn3 O13 2.198083 1_455
Mn3 O11 2.198094 1_555
Mn4 O9 2.046762 1_555
Mn4 O11 2.046765 1_555
Mn4 O3 2.048431 1_545
Mn4 O1 2.048433 1_455
Mn5 O13 2.046770 1_555
Mn5 O14 2.046772 1_555
Mn5 O5 2.048431 1_545
Mn5 O6 2.048432 1_655
Mn6 O15 2.046760 1_555
Mn6 O8 2.046766 1_556
Mn6 O0 2.048430 1_565
Mn6 O7 2.048432 1_455
Mn7 O12 2.046769 1_554
Mn7 O10 2.046771 1_555
Mn7 O4 2.048431 1_565
Mn7 O2 2.048432 1_655
O0 Ti0 1.920126 1_556
O1 Ti1 1.920123 1_555
O2 Ti2 1.920130 1_555
O3 Ti3 1.920122 1_555
O4 Ti0 1.920132 1_555
O5 Ti3 1.920132 1_555
O6 Ti2 1.920131 1_555
O7 Ti1 1.920124 1_555
O8 Ti2 1.981526 1_555
O8 Ti0 2.055783 1_555
O9 Ti0 1.981522 1_556
O9 Ti1 2.055794 1_555
O10 Ti3 1.981527 1_555
O10 Ti2 2.055779 1_555
O11 Ti2 1.981526 1_555
O11 Ti3 2.055784 1_555
O12 Ti1 1.981522 1_555
O12 Ti0 2.055783 1_556
O13 Ti1 1.981524 1_555
O13 Ti3 2.055789 1_555
O14 Ti0 1.981529 1_555
O14 Ti2 2.055778 1_555
O15 Ti3 1.981520 1_555
O15 Ti1 2.055794 1_555
