# generated using pymatgen
data_KNaSi2O5
_symmetry_space_group_name_H-M   'P 1'
_cell_length_a   17.68021600
_cell_length_b   7.37243800
_cell_length_c   12.63450621
_cell_angle_alpha   88.72294885
_cell_angle_beta   90.00000000
_cell_angle_gamma   90.00000000
_symmetry_Int_Tables_number   1
_chemical_formula_structural   KNaSi2O5
_chemical_formula_sum   'K12 Na12 Si24 O60'
_cell_volume   1646.45203583
_cell_formula_units_Z   12
loop_
 _symmetry_equiv_pos_site_id
 _symmetry_equiv_pos_as_xyz
  1  'x, y, z'
loop_
 _atom_site_type_symbol
 _atom_site_label
 _atom_site_symmetry_multiplicity
 _atom_site_fract_x
 _atom_site_fract_y
 _atom_site_fract_z
 _atom_site_occupancy
  K  K0  1  0.93851800  0.61622200  0.88084000  1
  K  K1  1  0.23122400  0.22887200  0.99102900  1
  K  K2  1  0.57967500  0.95094300  0.90437500  1
  K  K3  1  0.92032500  0.45094300  0.40437500  1
  K  K4  1  0.43851800  0.88377800  0.61916000  1
  K  K5  1  0.26877600  0.72887200  0.49102900  1
  K  K6  1  0.06148200  0.38377800  0.11916000  1
  K  K7  1  0.07967500  0.54905700  0.59562500  1
  K  K8  1  0.42032500  0.04905700  0.09562500  1
  K  K9  1  0.56148200  0.11622200  0.38084000  1
  K  K10  1  0.76877600  0.77112800  0.00897100  1
  K  K11  1  0.73122400  0.27112800  0.50897100  1
  Na  Na0  1  0.24715600  0.70437200  0.07395500  1
  Na  Na1  1  0.58947700  0.43306200  0.98638800  1
  Na  Na2  1  0.25284400  0.20437200  0.57395500  1
  Na  Na3  1  0.91052300  0.93306200  0.48638800  1
  Na  Na4  1  0.08426800  0.89202000  0.04064100  1
  Na  Na5  1  0.58426800  0.60798000  0.45935900  1
  Na  Na6  1  0.91573200  0.10798000  0.95935900  1
  Na  Na7  1  0.41052300  0.56693800  0.01361200  1
  Na  Na8  1  0.74715600  0.79562800  0.42604500  1
  Na  Na9  1  0.41573200  0.39202000  0.54064100  1
  Na  Na10  1  0.75284400  0.29562800  0.92604500  1
  Na  Na11  1  0.08947700  0.06693800  0.51361200  1
  Si  Si0  1  0.33052700  0.89373200  0.84963900  1
  Si  Si1  1  0.82950600  0.04602400  0.25549600  1
  Si  Si2  1  0.44170800  0.73455600  0.33422900  1
  Si  Si3  1  0.80522400  0.97786000  0.74404600  1
  Si  Si4  1  0.66947300  0.10626800  0.15036100  1
  Si  Si5  1  0.19477600  0.02214000  0.25595400  1
  Si  Si6  1  0.30522400  0.52214000  0.75595400  1
  Si  Si7  1  0.57115300  0.74703600  0.16820800  1
  Si  Si8  1  0.64050400  0.90394800  0.63763500  1
  Si  Si9  1  0.32950600  0.45397600  0.24450400  1
  Si  Si10  1  0.05829200  0.23455600  0.83422900  1
  Si  Si11  1  0.94170800  0.76544400  0.16577100  1
  Si  Si12  1  0.07115300  0.75296400  0.33179200  1
  Si  Si13  1  0.85949600  0.40394800  0.13763500  1
  Si  Si14  1  0.83052700  0.60626800  0.65036100  1
  Si  Si15  1  0.14050400  0.59605200  0.86236500  1
  Si  Si16  1  0.16947300  0.39373200  0.34963900  1
  Si  Si17  1  0.35949600  0.09605200  0.36236500  1
  Si  Si18  1  0.17049400  0.95397600  0.74450400  1
  Si  Si19  1  0.55829200  0.26544400  0.66577100  1
  Si  Si20  1  0.42884700  0.25296400  0.83179200  1
  Si  Si21  1  0.67049400  0.54602400  0.75549600  1
  Si  Si22  1  0.69477600  0.47786000  0.24404600  1
  Si  Si23  1  0.92884700  0.24703600  0.66820800  1
  O  O0  1  0.39572300  0.04471500  0.81245300  1
  O  O1  1  0.75350600  0.01656600  0.17957900  1
  O  O2  1  0.85500900  0.10983400  0.66113700  1
  O  O3  1  0.66097800  0.16584100  0.02934600  1
  O  O4  1  0.62210700  0.35640600  0.74260800  1
  O  O5  1  0.89572300  0.45528500  0.68754700  1
  O  O6  1  0.65624700  0.27210200  0.23514800  1
  O  O7  1  0.97344100  0.20004500  0.78168000  1
  O  O8  1  0.31379100  0.42457800  0.12188600  1
  O  O9  1  0.61851500  0.70992100  0.69901600  1
  O  O10  1  0.02655900  0.79995500  0.21832000  1
  O  O11  1  0.68620900  0.57542200  0.87811400  1
  O  O12  1  0.57329200  0.04217300  0.68289200  1
  O  O13  1  0.84375300  0.77210200  0.73514800  1
  O  O14  1  0.44141100  0.66827600  0.45492100  1
  O  O15  1  0.30522200  0.46249100  0.63626900  1
  O  O16  1  0.47877500  0.27073800  0.93636800  1
  O  O17  1  0.92670800  0.54217300  0.18289200  1
  O  O18  1  0.35500900  0.39016600  0.83886300  1
  O  O19  1  0.83902200  0.66584100  0.52934600  1
  O  O20  1  0.07329200  0.45782700  0.81710800  1
  O  O21  1  0.38148500  0.29007900  0.30098400  1
  O  O22  1  0.05858900  0.16827600  0.95492100  1
  O  O23  1  0.63915000  0.89305000  0.51196500  1
  O  O24  1  0.33902200  0.83415900  0.97065400  1
  O  O25  1  0.27848600  0.02441800  0.31457200  1
  O  O26  1  0.22151400  0.52441800  0.81457200  1
  O  O27  1  0.60427700  0.95528500  0.18754700  1
  O  O28  1  0.13915000  0.60695000  0.98803500  1
  O  O29  1  0.10427700  0.54471500  0.31245300  1
  O  O30  1  0.42670800  0.95782700  0.31710800  1
  O  O31  1  0.80522200  0.03750900  0.86373100  1
  O  O32  1  0.25350600  0.48343400  0.32042100  1
  O  O33  1  0.18620900  0.92457800  0.62188600  1
  O  O34  1  0.36085000  0.10695000  0.48803500  1
  O  O35  1  0.77848600  0.47558200  0.18542800  1
  O  O36  1  0.86085000  0.39305000  0.01196500  1
  O  O37  1  0.94141100  0.83172400  0.04507900  1
  O  O38  1  0.55858900  0.33172400  0.54507900  1
  O  O39  1  0.97877500  0.22926200  0.56363200  1
  O  O40  1  0.02122500  0.77073800  0.43636800  1
  O  O41  1  0.16097800  0.33415900  0.47065400  1
  O  O42  1  0.37789300  0.64359400  0.25739200  1
  O  O43  1  0.52122500  0.72926200  0.06363200  1
  O  O44  1  0.88148500  0.20992100  0.19901600  1
  O  O45  1  0.12210700  0.14359400  0.75739200  1
  O  O46  1  0.19477800  0.96249100  0.13626900  1
  O  O47  1  0.72151400  0.97558200  0.68542800  1
  O  O48  1  0.74649400  0.51656600  0.67957900  1
  O  O49  1  0.64499100  0.60983400  0.16113700  1
  O  O50  1  0.11851500  0.79007900  0.80098400  1
  O  O51  1  0.52655900  0.70004500  0.28168000  1
  O  O52  1  0.34375300  0.72789800  0.76485200  1
  O  O53  1  0.81379100  0.07542200  0.37811400  1
  O  O54  1  0.87789300  0.85640600  0.24260800  1
  O  O55  1  0.24649400  0.98343400  0.82042100  1
  O  O56  1  0.15624700  0.22789800  0.26485200  1
  O  O57  1  0.14499100  0.89016600  0.33886300  1
  O  O58  1  0.69477800  0.53750900  0.36373100  1
  O  O59  1  0.47344100  0.29995500  0.71832000  1
loop_
_geom_bond_atom_site_label_1
_geom_bond_atom_site_label_2
_geom_bond_distance
_geom_bond_site_symmetry_2
K0 O37 2.641917 1_556
K0 O36 2.686239 1_556
K0 O13 2.724323 1_555
K0 O20 2.780620 1_655
K0 O5 2.841403 1_555
K1 O8 2.655665 1_556
K1 O46 2.734731 1_546
K1 O55 2.857855 1_545
K1 O26 3.087225 1_555
K1 O22 3.119753 1_555
K1 O18 3.130180 1_555
K1 O28 3.227400 1_555
K2 O3 2.679726 1_566
K2 O43 2.764248 1_556
K2 O12 2.865634 1_565
K2 O16 2.991135 1_565
K3 O19 2.679726 1_555
K3 O39 2.764248 1_555
K3 O17 2.865634 1_555
K3 O40 2.991135 1_655
K4 O14 2.641917 1_555
K4 O34 2.686239 1_565
K4 O52 2.724323 1_555
K4 O12 2.780620 1_565
K4 O0 2.841403 1_565
K5 O33 2.655665 1_555
K5 O15 2.734731 1_555
K5 O32 2.857855 1_555
K5 O25 3.087225 1_565
K5 O14 3.119753 1_555
K5 O57 3.130180 1_555
K5 O34 3.227400 1_565
K6 O22 2.641917 1_554
K6 O28 2.686239 1_554
K6 O56 2.724323 1_555
K6 O17 2.780620 1_455
K6 O29 2.841403 1_555
K7 O41 2.679726 1_555
K7 O40 2.764248 1_555
K7 O20 2.865634 1_555
K7 O39 2.991135 1_455
K8 O24 2.679726 1_544
K8 O16 2.764248 1_554
K8 O30 2.865634 1_545
K8 O43 2.991135 1_545
K9 O38 2.641917 1_555
K9 O23 2.686239 1_545
K9 O6 2.724323 1_555
K9 O30 2.780620 1_545
K9 O27 2.841403 1_545
K10 O11 2.655665 1_554
K10 O31 2.734731 1_564
K10 O1 2.857855 1_565
K10 O35 3.087225 1_555
K10 O37 3.119753 1_555
K10 O49 3.130180 1_555
K10 O36 3.227400 1_555
K11 O53 2.655665 1_555
K11 O58 2.734731 1_555
K11 O48 2.857855 1_555
K11 O47 3.087225 1_545
K11 O38 3.119753 1_555
K11 O2 3.130180 1_555
K11 O23 3.227400 1_545
Na0 O46 2.272772 1_555
Na0 O24 2.280655 1_554
Na0 O28 2.318514 1_554
Na0 O8 2.440085 1_555
Na1 O16 2.386635 1_555
Na1 O3 2.392944 1_556
Na1 O11 2.415339 1_555
Na1 O43 2.696705 1_556
Na1 O49 2.768522 1_556
Na2 O15 2.272772 1_555
Na2 O41 2.280655 1_555
Na2 O34 2.318514 1_555
Na2 O33 2.440085 1_545
Na3 O40 2.386635 1_655
Na3 O19 2.392944 1_555
Na3 O53 2.415339 1_565
Na3 O39 2.696705 1_565
Na3 O2 2.768522 1_565
Na4 O22 2.329984 1_564
Na4 O46 2.361181 1_555
Na4 O28 2.421267 1_554
Na4 O10 2.544272 1_555
Na4 O37 2.564959 1_455
Na5 O38 2.329984 1_555
Na5 O58 2.361181 1_555
Na5 O23 2.421267 1_555
Na5 O51 2.544272 1_555
Na5 O14 2.564959 1_555
Na6 O37 2.329984 1_546
Na6 O31 2.361181 1_555
Na6 O36 2.421267 1_556
Na6 O7 2.544272 1_555
Na6 O22 2.564959 1_655
Na7 O43 2.386635 1_555
Na7 O24 2.392944 1_554
Na7 O8 2.415339 1_555
Na7 O16 2.696705 1_554
Na7 O18 2.768522 1_554
Na8 O58 2.272772 1_555
Na8 O19 2.280655 1_555
Na8 O23 2.318514 1_555
Na8 O53 2.440085 1_565
Na9 O14 2.329984 1_555
Na9 O15 2.361181 1_555
Na9 O34 2.421267 1_555
Na9 O59 2.544272 1_555
Na9 O38 2.564959 1_555
Na10 O31 2.272772 1_555
Na10 O3 2.280655 1_556
Na10 O36 2.318514 1_556
Na10 O11 2.440085 1_555
Na11 O39 2.386635 1_455
Na11 O41 2.392944 1_555
Na11 O33 2.415339 1_545
Na11 O40 2.696705 1_545
Na11 O57 2.768522 1_545
O0 Si0 1.662864 1_545
O0 Si20 1.666299 1_555
O1 Si4 1.664365 1_555
O1 Si1 1.667929 1_555
O2 Si23 1.655121 1_555
O2 Si3 1.665322 1_545
O3 Si4 1.588475 1_555
O4 Si19 1.641391 1_555
O4 Si21 1.650086 1_555
O5 Si14 1.662864 1_555
O5 Si23 1.666299 1_555
O6 Si4 1.659931 1_555
O6 Si22 1.668945 1_555
O7 Si10 1.662414 1_655
O7 Si23 1.665801 1_555
O8 Si9 1.593491 1_555
O9 Si8 1.658106 1_555
O9 Si21 1.665949 1_555
O10 Si11 1.662414 1_455
O10 Si12 1.665801 1_555
O11 Si21 1.593491 1_555
O12 Si8 1.674369 1_545
O12 Si19 1.676526 1_555
O13 Si14 1.659931 1_555
O13 Si3 1.668945 1_555
O14 Si2 1.590867 1_555
O15 Si6 1.584190 1_555
O16 Si20 1.596828 1_555
O17 Si13 1.674369 1_555
O17 Si11 1.676526 1_555
O18 Si20 1.655121 1_555
O18 Si6 1.665322 1_555
O19 Si14 1.588475 1_555
O20 Si15 1.674369 1_555
O20 Si10 1.676526 1_555
O21 Si17 1.658106 1_555
O21 Si9 1.665949 1_555
O22 Si10 1.590867 1_555
O23 Si8 1.591777 1_555
O24 Si0 1.588475 1_555
O25 Si17 1.645951 1_555
O25 Si5 1.655225 1_555
O26 Si15 1.645951 1_555
O26 Si6 1.655225 1_555
O27 Si4 1.662864 1_565
O27 Si7 1.666299 1_555
O28 Si15 1.591777 1_555
O29 Si16 1.662864 1_555
O29 Si12 1.666299 1_555
O30 Si17 1.674369 1_565
O30 Si2 1.676526 1_555
O31 Si3 1.584190 1_545
O32 Si16 1.664365 1_555
O32 Si9 1.667929 1_555
O33 Si18 1.593491 1_555
O34 Si17 1.591777 1_555
O35 Si13 1.645951 1_555
O35 Si22 1.655225 1_555
O36 Si13 1.591777 1_555
O37 Si11 1.590867 1_555
O38 Si19 1.590867 1_555
O39 Si23 1.596828 1_555
O40 Si12 1.596828 1_555
O41 Si16 1.588475 1_555
O42 Si2 1.641391 1_555
O42 Si9 1.650086 1_555
O43 Si7 1.596828 1_555
O44 Si13 1.658106 1_555
O44 Si1 1.665949 1_555
O45 Si10 1.641391 1_555
O45 Si18 1.650086 1_545
O46 Si5 1.584190 1_565
O47 Si8 1.645951 1_555
O47 Si3 1.655225 1_555
O48 Si14 1.664365 1_555
O48 Si21 1.667929 1_555
O49 Si7 1.655121 1_555
O49 Si22 1.665322 1_555
O50 Si15 1.658106 1_555
O50 Si18 1.665949 1_555
O51 Si2 1.662414 1_555
O51 Si7 1.665801 1_555
O52 Si0 1.659931 1_555
O52 Si6 1.668945 1_555
O53 Si1 1.593491 1_555
O54 Si11 1.641391 1_555
O54 Si1 1.650086 1_565
O55 Si0 1.664365 1_555
O55 Si18 1.667929 1_555
O56 Si16 1.659931 1_555
O56 Si5 1.668945 1_555
O57 Si12 1.655121 1_555
O57 Si5 1.665322 1_565
O58 Si22 1.584190 1_555
O59 Si19 1.662414 1_555
O59 Si20 1.665801 1_555
