# generated using pymatgen
data_FeP2HO7
_symmetry_space_group_name_H-M   'P 1'
_cell_length_a   12.92191300
_cell_length_b   4.96486200
_cell_length_c   8.95646258
_cell_angle_alpha   65.19235994
_cell_angle_beta   90.00000000
_cell_angle_gamma   90.00000000
_symmetry_Int_Tables_number   1
_chemical_formula_structural   FeP2HO7
_chemical_formula_sum   'Fe4 P8 H4 O28'
_cell_volume   521.58266745
_cell_formula_units_Z   4
loop_
 _symmetry_equiv_pos_site_id
 _symmetry_equiv_pos_as_xyz
  1  'x, y, z'
loop_
 _atom_site_type_symbol
 _atom_site_label
 _atom_site_symmetry_multiplicity
 _atom_site_fract_x
 _atom_site_fract_y
 _atom_site_fract_z
 _atom_site_occupancy
  Fe  Fe0  1  0.37531600  0.09010000  0.00720900  1
  Fe  Fe1  1  0.12468400  0.09010000  0.50720900  1
  Fe  Fe2  1  0.87531600  0.90990000  0.49279100  1
  Fe  Fe3  1  0.62468400  0.90990000  0.99279100  1
  P  P0  1  0.17337600  0.77527200  0.25360900  1
  P  P1  1  0.45970100  0.40725800  0.24932800  1
  P  P2  1  0.95970100  0.59274200  0.25067200  1
  P  P3  1  0.67337600  0.22472800  0.24639100  1
  P  P4  1  0.32662400  0.77527200  0.75360900  1
  P  P5  1  0.82662400  0.22472800  0.74639100  1
  P  P6  1  0.54029900  0.59274200  0.75067200  1
  P  P7  1  0.04029900  0.40725800  0.74932800  1
  H  H0  1  0.17390300  0.43602900  0.89817700  1
  H  H1  1  0.82609700  0.56397100  0.10182300  1
  H  H2  1  0.67390300  0.56397100  0.60182300  1
  H  H3  1  0.32609700  0.43602900  0.39817700  1
  O  O0  1  0.79791000  0.52462900  0.60353400  1
  O  O1  1  0.52130300  0.28204900  0.89497100  1
  O  O2  1  0.64826400  0.98477900  0.18950700  1
  O  O3  1  0.92994100  0.28700900  0.82970100  1
  O  O4  1  0.90447800  0.56903300  0.10317100  1
  O  O5  1  0.09132100  0.19027000  0.69444700  1
  O  O6  1  0.90867900  0.80973000  0.30555300  1
  O  O7  1  0.20209000  0.47537100  0.39646600  1
  O  O8  1  0.57005900  0.28700900  0.32970100  1
  O  O9  1  0.09552200  0.43096700  0.89682900  1
  O  O10  1  0.47869700  0.71795100  0.10502900  1
  O  O11  1  0.40867900  0.19027000  0.19444700  1
  O  O12  1  0.59552200  0.56903300  0.60317100  1
  O  O13  1  0.24636400  0.86268100  0.61757800  1
  O  O14  1  0.02130300  0.71795100  0.60502900  1
  O  O15  1  0.25363600  0.86268100  0.11757800  1
  O  O16  1  0.70209000  0.52462900  0.10353400  1
  O  O17  1  0.59132100  0.80973000  0.80555300  1
  O  O18  1  0.74636400  0.13731900  0.88242200  1
  O  O19  1  0.97869700  0.28204900  0.39497100  1
  O  O20  1  0.75363600  0.13731900  0.38242200  1
  O  O21  1  0.07005900  0.71299100  0.17029900  1
  O  O22  1  0.35173600  0.01522100  0.81049300  1
  O  O23  1  0.14826400  0.01522100  0.31049300  1
  O  O24  1  0.85173600  0.98477900  0.68950700  1
  O  O25  1  0.29791000  0.47537100  0.89646600  1
  O  O26  1  0.42994100  0.71299100  0.67029900  1
  O  O27  1  0.40447800  0.43096700  0.39682900  1
loop_
_geom_bond_atom_site_label_1
_geom_bond_atom_site_label_2
_geom_bond_distance
_geom_bond_site_symmetry_2
Fe0 O15 1.946198 1_545
Fe0 O22 1.971018 1_554
Fe0 O11 1.986292 1_555
Fe0 O25 2.012724 1_554
Fe0 O10 2.146543 1_545
Fe0 O1 2.161819 1_554
Fe1 O13 1.946198 1_545
Fe1 O23 1.971018 1_555
Fe1 O5 1.986292 1_555
Fe1 O7 2.012724 1_555
Fe1 O14 2.146543 1_545
Fe1 O19 2.161819 1_455
Fe2 O20 1.946198 1_565
Fe2 O24 1.971018 1_555
Fe2 O6 1.986292 1_555
Fe2 O0 2.012724 1_555
Fe2 O19 2.146543 1_565
Fe2 O14 2.161819 1_655
Fe3 O18 1.946198 1_565
Fe3 O2 1.971018 1_556
Fe3 O17 1.986292 1_555
Fe3 O16 2.012724 1_556
Fe3 O1 2.146543 1_565
Fe3 O10 2.161819 1_556
H0 O9 1.013342 1_555
H0 O25 1.613563 1_555
H1 O4 1.013342 1_555
H1 O16 1.613563 1_555
H2 O12 1.013342 1_555
H2 O0 1.613563 1_555
H3 O27 1.013342 1_555
H3 O7 1.613563 1_555
O0 P5 1.546971 1_555
O1 P6 1.561122 1_555
O2 P3 1.514402 1_565
O3 P7 1.596110 1_655
O3 P5 1.621220 1_555
O4 P2 1.548815 1_555
O5 P7 1.510385 1_555
O6 P2 1.510385 1_555
O7 P0 1.546971 1_555
O8 P1 1.596110 1_555
O8 P3 1.621220 1_555
O9 P7 1.548815 1_555
O10 P1 1.561122 1_555
O11 P1 1.510385 1_555
O12 P6 1.548815 1_555
O13 P4 1.518105 1_555
O14 P7 1.561122 1_555
O15 P0 1.518105 1_555
O16 P3 1.546971 1_555
O17 P6 1.510385 1_555
O18 P5 1.518105 1_555
O19 P2 1.561122 1_555
O20 P3 1.518105 1_555
O21 P2 1.596110 1_455
O21 P0 1.621220 1_555
O22 P4 1.514402 1_545
O23 P0 1.514402 1_545
O24 P5 1.514402 1_565
O25 P4 1.546971 1_555
O26 P6 1.596110 1_555
O26 P4 1.621220 1_555
O27 P1 1.548815 1_555
