# generated using pymatgen
data_Mg7Si8(O11F)2
_symmetry_space_group_name_H-M   'P 1'
_cell_length_a   5.36648800
_cell_length_b   9.46772400
_cell_length_c   18.08793600
_cell_angle_alpha   90.00000000
_cell_angle_beta   90.00000000
_cell_angle_gamma   90.00000000
_symmetry_Int_Tables_number   1
_chemical_formula_structural   Mg7Si8(O11F)2
_chemical_formula_sum   'Mg14 Si16 O44 F4'
_cell_volume   919.01958006
_cell_formula_units_Z   2
loop_
 _symmetry_equiv_pos_site_id
 _symmetry_equiv_pos_as_xyz
  1  'x, y, z'
loop_
 _atom_site_type_symbol
 _atom_site_label
 _atom_site_symmetry_multiplicity
 _atom_site_fract_x
 _atom_site_fract_y
 _atom_site_fract_z
 _atom_site_occupancy
  Mg  Mg0  1  0.00000000  0.50000000  0.58836200  1
  Mg  Mg1  1  0.50000000  0.50000000  0.67809100  1
  Mg  Mg2  1  0.50000000  0.00000000  0.74133100  1
  Mg  Mg3  1  0.00000000  0.50000000  0.24133100  1
  Mg  Mg4  1  0.50000000  0.50000000  0.32190900  1
  Mg  Mg5  1  0.50000000  0.00000000  0.25866900  1
  Mg  Mg6  1  0.00000000  0.50000000  0.75866900  1
  Mg  Mg7  1  0.00000000  0.50000000  0.41163800  1
  Mg  Mg8  1  0.00000000  0.00000000  0.00000000  1
  Mg  Mg9  1  0.50000000  0.00000000  0.91163800  1
  Mg  Mg10  1  0.00000000  0.00000000  0.17809100  1
  Mg  Mg11  1  0.50000000  0.00000000  0.08836200  1
  Mg  Mg12  1  0.00000000  0.00000000  0.82190900  1
  Mg  Mg13  1  0.50000000  0.50000000  0.50000000  1
  Si  Si0  1  0.32591500  0.78517300  0.58434800  1
  Si  Si1  1  0.67108400  0.29400100  0.82924400  1
  Si  Si2  1  0.67408500  0.21482700  0.58434800  1
  Si  Si3  1  0.67408500  0.21482700  0.41565200  1
  Si  Si4  1  0.82891600  0.79400100  0.67075600  1
  Si  Si5  1  0.82591500  0.71482700  0.91565200  1
  Si  Si6  1  0.17108400  0.20599900  0.32924400  1
  Si  Si7  1  0.17108400  0.20599900  0.67075600  1
  Si  Si8  1  0.32891600  0.70599900  0.17075600  1
  Si  Si9  1  0.32591500  0.78517300  0.41565200  1
  Si  Si10  1  0.67108400  0.29400100  0.17075600  1
  Si  Si11  1  0.32891600  0.70599900  0.82924400  1
  Si  Si12  1  0.82891600  0.79400100  0.32924400  1
  Si  Si13  1  0.17408500  0.28517300  0.08434800  1
  Si  Si14  1  0.82591500  0.71482700  0.08434800  1
  Si  Si15  1  0.17408500  0.28517300  0.91565200  1
  O  O0  1  0.06857100  0.84432400  0.62088700  1
  O  O1  1  0.65052600  0.15600600  0.50000000  1
  O  O2  1  0.18462300  0.12035000  0.74762500  1
  O  O3  1  0.16693300  0.11243200  0.08565200  1
  O  O4  1  0.81537700  0.87965000  0.74762500  1
  O  O5  1  0.68462300  0.37965000  0.75237500  1
  O  O6  1  0.66693300  0.38756800  0.41434800  1
  O  O7  1  0.17007500  0.37974000  0.67423000  1
  O  O8  1  0.33306700  0.61243200  0.58565200  1
  O  O9  1  0.94019200  0.34929600  0.86686600  1
  O  O10  1  0.82992500  0.62026000  0.32577000  1
  O  O11  1  0.82992500  0.62026000  0.67423000  1
  O  O12  1  0.67007500  0.12026000  0.17423000  1
  O  O13  1  0.32992500  0.87974000  0.82577000  1
  O  O14  1  0.56857100  0.65567600  0.87911300  1
  O  O15  1  0.43142900  0.34432400  0.12088700  1
  O  O16  1  0.83306700  0.88756800  0.08565200  1
  O  O17  1  0.33306700  0.61243200  0.41434800  1
  O  O18  1  0.17007500  0.37974000  0.32577000  1
  O  O19  1  0.68462300  0.37965000  0.24762500  1
  O  O20  1  0.66693300  0.38756800  0.58565200  1
  O  O21  1  0.83306700  0.88756800  0.91434800  1
  O  O22  1  0.81537700  0.87965000  0.25237500  1
  O  O23  1  0.18462300  0.12035000  0.25237500  1
  O  O24  1  0.93142900  0.15567600  0.62088700  1
  O  O25  1  0.44019200  0.15070400  0.36686600  1
  O  O26  1  0.05980800  0.65070400  0.13313400  1
  O  O27  1  0.44019200  0.15070400  0.63313400  1
  O  O28  1  0.94019200  0.34929600  0.13313400  1
  O  O29  1  0.67007500  0.12026000  0.82577000  1
  O  O30  1  0.15052600  0.34399400  0.00000000  1
  O  O31  1  0.31537700  0.62035000  0.24762500  1
  O  O32  1  0.93142900  0.15567600  0.37911300  1
  O  O33  1  0.32992500  0.87974000  0.17423000  1
  O  O34  1  0.55980800  0.84929600  0.36686600  1
  O  O35  1  0.06857100  0.84432400  0.37911300  1
  O  O36  1  0.84947400  0.65600600  0.00000000  1
  O  O37  1  0.55980800  0.84929600  0.63313400  1
  O  O38  1  0.56857100  0.65567600  0.12088700  1
  O  O39  1  0.43142900  0.34432400  0.87911300  1
  O  O40  1  0.34947400  0.84399400  0.50000000  1
  O  O41  1  0.05980800  0.65070400  0.86686600  1
  O  O42  1  0.16693300  0.11243200  0.91434800  1
  O  O43  1  0.31537700  0.62035000  0.75237500  1
  F  F0  1  0.83529100  0.60290600  0.50000000  1
  F  F1  1  0.33529100  0.89709400  0.00000000  1
  F  F2  1  0.66470900  0.10290600  0.00000000  1
  F  F3  1  0.16470900  0.39709400  0.50000000  1
loop_
_geom_bond_atom_site_label_1
_geom_bond_atom_site_label_2
_geom_bond_distance
_geom_bond_site_symmetry_2
Mg0 O8 2.080939 1_555
Mg0 O20 2.080939 1_455
Mg0 O7 2.131142 1_555
Mg0 O11 2.131142 1_455
Mg1 O5 2.021223 1_555
Mg1 O43 2.021223 1_555
Mg1 O11 2.106197 1_555
Mg1 O7 2.106197 1_555
Mg1 O8 2.175162 1_555
Mg1 O20 2.175162 1_555
Mg2 O4 2.043460 1_545
Mg2 O2 2.043460 1_555
Mg2 O29 2.112379 1_555
Mg2 O13 2.112379 1_545
Mg2 O27 2.443139 1_555
Mg2 O37 2.443139 1_545
Mg3 O31 2.043460 1_555
Mg3 O19 2.043460 1_455
Mg3 O18 2.112379 1_555
Mg3 O10 2.112379 1_455
Mg3 O26 2.443139 1_555
Mg3 O28 2.443139 1_455
Mg4 O19 2.021223 1_555
Mg4 O31 2.021223 1_555
Mg4 O10 2.106197 1_555
Mg4 O18 2.106197 1_555
Mg4 O17 2.175162 1_555
Mg4 O6 2.175162 1_555
Mg5 O22 2.043460 1_545
Mg5 O23 2.043460 1_555
Mg5 O12 2.112379 1_555
Mg5 O33 2.112379 1_545
Mg5 O25 2.443139 1_555
Mg5 O34 2.443139 1_545
Mg6 O43 2.043460 1_555
Mg6 O5 2.043460 1_455
Mg6 O7 2.112379 1_555
Mg6 O11 2.112379 1_455
Mg6 O41 2.443139 1_555
Mg6 O9 2.443139 1_455
Mg7 O17 2.080939 1_555
Mg7 O6 2.080939 1_455
Mg7 O18 2.131142 1_555
Mg7 O10 2.131142 1_455
Mg8 O3 2.082276 1_555
Mg8 O16 2.082276 1_445
Mg8 O42 2.082276 1_554
Mg8 O21 2.082276 1_444
Mg9 O42 2.080939 1_555
Mg9 O21 2.080939 1_545
Mg9 O29 2.131142 1_555
Mg9 O13 2.131142 1_545
Mg10 O23 2.021223 1_555
Mg10 O22 2.021223 1_445
Mg10 O33 2.106197 1_545
Mg10 O12 2.106197 1_455
Mg10 O3 2.175162 1_555
Mg10 O16 2.175162 1_445
Mg11 O3 2.080939 1_555
Mg11 O16 2.080939 1_545
Mg11 O12 2.131142 1_555
Mg11 O33 2.131142 1_545
Mg12 O2 2.021223 1_555
Mg12 O4 2.021223 1_445
Mg12 O13 2.106197 1_545
Mg12 O29 2.106197 1_455
Mg12 O42 2.175162 1_555
Mg12 O21 2.175162 1_445
Mg13 O8 2.082276 1_555
Mg13 O17 2.082276 1_555
Mg13 O20 2.082276 1_555
Mg13 O6 2.082276 1_555
O0 Si0 1.630243 1_555
O0 Si4 1.641560 1_455
O1 Si2 1.629057 1_555
O1 Si3 1.629057 1_555
O2 Si7 1.611228 1_555
O3 Si13 1.636084 1_555
O4 Si4 1.611228 1_555
O5 Si1 1.611228 1_555
O6 Si3 1.636084 1_555
O7 Si7 1.646141 1_555
O8 Si0 1.636084 1_555
O9 Si15 1.650077 1_655
O9 Si1 1.680110 1_555
O10 Si12 1.646141 1_555
O11 Si4 1.646141 1_555
O12 Si10 1.646141 1_555
O13 Si11 1.646141 1_555
O14 Si5 1.630243 1_555
O14 Si11 1.641560 1_555
O15 Si13 1.630243 1_555
O15 Si10 1.641560 1_555
O16 Si14 1.636084 1_555
O17 Si9 1.636084 1_555
O18 Si6 1.646141 1_555
O19 Si10 1.611228 1_555
O20 Si2 1.636084 1_555
O21 Si5 1.636084 1_555
O22 Si12 1.611228 1_555
O23 Si6 1.611228 1_555
O24 Si2 1.630243 1_555
O24 Si7 1.641560 1_655
O25 Si3 1.650077 1_555
O25 Si6 1.680110 1_555
O26 Si14 1.650077 1_455
O26 Si8 1.680110 1_555
O27 Si2 1.650077 1_555
O27 Si7 1.680110 1_555
O28 Si13 1.650077 1_655
O28 Si10 1.680110 1_555
O29 Si1 1.646141 1_555
O30 Si13 1.629057 1_555
O30 Si15 1.629057 1_554
O31 Si8 1.611228 1_555
O32 Si3 1.630243 1_555
O32 Si6 1.641560 1_655
O33 Si8 1.646141 1_555
O34 Si9 1.650077 1_555
O34 Si12 1.680110 1_555
O35 Si9 1.630243 1_555
O35 Si12 1.641560 1_455
O36 Si14 1.629057 1_555
O36 Si5 1.629057 1_554
O37 Si0 1.650077 1_555
O37 Si4 1.680110 1_555
O38 Si14 1.630243 1_555
O38 Si8 1.641560 1_555
O39 Si15 1.630243 1_555
O39 Si1 1.641560 1_555
O40 Si0 1.629057 1_555
O40 Si9 1.629057 1_555
O41 Si5 1.650077 1_455
O41 Si11 1.680110 1_555
O42 Si15 1.636084 1_555
O43 Si11 1.611228 1_555
F0 Mg13 2.046177 1_555
F0 Mg0 2.070035 1_655
F0 Mg7 2.070035 1_655
F1 Mg8 2.046177 1_565
F1 Mg11 2.070035 1_565
F1 Mg9 2.070035 1_564
F2 Mg8 2.046177 1_655
F2 Mg11 2.070035 1_555
F2 Mg9 2.070035 1_554
F3 Mg13 2.046177 1_555
F3 Mg0 2.070035 1_555
F3 Mg7 2.070035 1_555
