# generated using pymatgen
data_SrV2(PO5)2
_symmetry_space_group_name_H-M   'P 1'
_cell_length_a   10.09306592
_cell_length_b   8.90573030
_cell_length_c   7.04206910
_cell_angle_alpha   77.55386256
_cell_angle_beta   59.49952162
_cell_angle_gamma   42.94661581
_symmetry_Int_Tables_number   1
_chemical_formula_structural   SrV2(PO5)2
_chemical_formula_sum   'Sr2 V4 P4 O20'
_cell_volume   358.22689744
_cell_formula_units_Z   2
loop_
 _symmetry_equiv_pos_site_id
 _symmetry_equiv_pos_as_xyz
  1  'x, y, z'
loop_
 _atom_site_type_symbol
 _atom_site_label
 _atom_site_symmetry_multiplicity
 _atom_site_fract_x
 _atom_site_fract_y
 _atom_site_fract_z
 _atom_site_occupancy
  Sr  Sr0  1  0.99689400  0.00310600  0.00310600  1
  Sr  Sr1  1  0.24689400  0.25310600  0.25310600  1
  V  V0  1  0.62197300  0.63848700  0.65079900  1
  V  V1  1  0.59920100  0.16125900  0.62802700  1
  V  V2  1  0.08874100  0.65079900  0.63848700  1
  V  V3  1  0.61151300  0.62802700  0.16125900  1
  P  P0  1  0.20129500  0.21749800  0.79811100  1
  P  P1  1  0.45188900  0.46690400  0.04870500  1
  P  P2  1  0.78309600  0.79811100  0.21749800  1
  P  P3  1  0.03250200  0.04870500  0.46690400  1
  O  O0  1  0.23888700  0.56351800  0.28419400  1
  O  O1  1  0.61057800  0.85540600  0.18348400  1
  O  O2  1  0.32792100  0.97810100  0.69899000  1
  O  O3  1  0.82654300  0.84445000  0.67495700  1
  O  O4  1  0.16423900  0.36641300  0.62508400  1
  O  O5  1  0.39459400  0.63942200  0.89946700  1
  O  O6  1  0.40555000  0.42345700  0.59595000  1
  O  O7  1  0.68648200  0.01111300  0.33660000  1
  O  O8  1  0.91340000  0.28419400  0.56351800  1
  O  O9  1  0.35053300  0.18348400  0.85540600  1
  O  O10  1  0.65405000  0.67495700  0.84445000  1
  O  O11  1  0.84426300  0.62508400  0.36641300  1
  O  O12  1  0.62491600  0.40573700  0.08576100  1
  O  O13  1  0.88358700  0.08576100  0.40573700  1
  O  O14  1  0.57504300  0.59595000  0.42345700  1
  O  O15  1  0.06651600  0.89946700  0.63942200  1
  O  O16  1  0.27189900  0.92207900  0.25501300  1
  O  O17  1  0.96580600  0.33660000  0.01111300  1
  O  O18  1  0.99498700  0.69899000  0.97810100  1
  O  O19  1  0.55101000  0.25501300  0.92207900  1
loop_
_geom_bond_atom_site_label_1
_geom_bond_atom_site_label_2
_geom_bond_distance
_geom_bond_site_symmetry_2
O0 P1 1.549282 1_555
O0 V2 2.097377 1_555
O0 Sr1 2.759069 1_555
O1 P2 1.555512 1_555
O1 V3 2.057243 1_555
O1 Sr1 2.479397 1_565
O2 P0 1.553363 1_565
O2 V0 2.085656 1_555
O2 Sr0 2.766217 1_466
O3 V2 1.692047 1_655
O3 V1 2.055434 1_565
O4 P0 1.556682 1_555
O4 V2 2.051498 1_555
O4 Sr1 2.502929 1_555
O5 P1 1.555517 1_556
O5 V0 2.057241 1_555
O5 Sr0 2.479396 1_466
O6 V1 1.692047 1_555
O6 V2 2.055434 1_555
O7 P2 1.549286 1_545
O7 V1 2.097370 1_555
O7 Sr0 2.759071 1_555
O8 P3 1.549278 1_655
O8 V0 2.097375 1_555
O8 Sr1 2.759076 1_655
O9 P0 1.555522 1_555
O9 V1 2.057235 1_555
O9 Sr1 2.479394 1_556
O10 V0 1.692047 1_555
O10 V3 2.055434 1_556
O11 P2 1.556682 1_555
O11 V0 2.051493 1_555
O11 Sr1 2.502934 1_655
O12 P1 1.556686 1_555
O12 V3 2.051490 1_555
O12 Sr0 2.502932 1_555
O13 P3 1.556677 1_655
O13 V1 2.051498 1_555
O13 Sr0 2.502936 1_555
O14 V3 1.692047 1_555
O14 V0 2.055434 1_555
O15 P3 1.555517 1_565
O15 V2 2.057234 1_555
O15 Sr0 2.479401 1_466
O16 P3 1.553361 1_565
O16 V3 2.085654 1_555
O16 Sr1 2.766216 1_565
O17 P0 1.549280 1_654
O17 V3 2.097376 1_555
O17 Sr0 2.759078 1_555
O18 P2 1.553359 1_556
O18 V2 2.085653 1_655
O18 Sr0 2.766224 1_566
O19 P1 1.553356 1_556
O19 V1 2.085660 1_555
O19 Sr1 2.766223 1_556
