# generated using pymatgen
data_NaScB2O5
_symmetry_space_group_name_H-M   'P 1'
_cell_length_a   9.88385400
_cell_length_b   5.99960800
_cell_length_c   7.29569977
_cell_angle_alpha   71.45264512
_cell_angle_beta   90.00000000
_cell_angle_gamma   90.00000000
_symmetry_Int_Tables_number   1
_chemical_formula_structural   NaScB2O5
_chemical_formula_sum   'Na4 Sc4 B8 O20'
_cell_volume   410.15921087
_cell_formula_units_Z   4
loop_
 _symmetry_equiv_pos_site_id
 _symmetry_equiv_pos_as_xyz
  1  'x, y, z'
loop_
 _atom_site_type_symbol
 _atom_site_label
 _atom_site_symmetry_multiplicity
 _atom_site_fract_x
 _atom_site_fract_y
 _atom_site_fract_z
 _atom_site_occupancy
  Na  Na0  1  0.58133800  0.30087300  0.22065000  1
  Na  Na1  1  0.91866200  0.80087300  0.22065000  1
  Na  Na2  1  0.08133800  0.19912700  0.77935000  1
  Na  Na3  1  0.41866200  0.69912700  0.77935000  1
  Sc  Sc0  1  0.82783000  0.78321200  0.75401900  1
  Sc  Sc1  1  0.17217000  0.21678800  0.24598100  1
  Sc  Sc2  1  0.67217000  0.28321200  0.75401900  1
  Sc  Sc3  1  0.32783000  0.71678800  0.24598100  1
  B  B0  1  0.61975200  0.83031400  0.09024200  1
  B  B1  1  0.11975200  0.66968600  0.90975800  1
  B  B2  1  0.38024800  0.16968600  0.90975800  1
  B  B3  1  0.90484300  0.25416500  0.44549200  1
  B  B4  1  0.59515700  0.75416500  0.44549200  1
  B  B5  1  0.88024800  0.33031400  0.09024200  1
  B  B6  1  0.09515700  0.74583500  0.55450800  1
  B  B7  1  0.40484300  0.24583500  0.55450800  1
  O  O0  1  0.33080100  0.15711100  0.73041500  1
  O  O1  1  0.49905400  0.27873200  0.92057600  1
  O  O2  1  0.70466000  0.92534500  0.93432500  1
  O  O3  1  0.83080100  0.34288900  0.26958500  1
  O  O4  1  0.33101900  0.34060800  0.38670300  1
  O  O5  1  0.95862800  0.73309700  0.55278900  1
  O  O6  1  0.16898100  0.84060800  0.38670300  1
  O  O7  1  0.00094600  0.77873200  0.92057600  1
  O  O8  1  0.66919900  0.84288900  0.26958500  1
  O  O9  1  0.79534000  0.42534500  0.93432500  1
  O  O10  1  0.66898100  0.65939200  0.61329700  1
  O  O11  1  0.04137200  0.26690300  0.44721100  1
  O  O12  1  0.54137200  0.23309700  0.55278900  1
  O  O13  1  0.50094600  0.72126800  0.07942400  1
  O  O14  1  0.45862800  0.76690300  0.44721100  1
  O  O15  1  0.20466000  0.57465500  0.06567500  1
  O  O16  1  0.29534000  0.07465500  0.06567500  1
  O  O17  1  0.99905400  0.22126800  0.07942400  1
  O  O18  1  0.16919900  0.65711100  0.73041500  1
  O  O19  1  0.83101900  0.15939200  0.61329700  1
loop_
_geom_bond_atom_site_label_1
_geom_bond_atom_site_label_2
_geom_bond_distance
_geom_bond_site_symmetry_2
Na0 O12 2.359315 1_555
Na0 O1 2.378424 1_554
Na0 O3 2.515495 1_555
Na0 O13 2.530066 1_555
Na0 O8 2.794191 1_545
Na0 O4 2.798121 1_555
Na0 O9 2.898768 1_554
Na1 O5 2.359315 1_555
Na1 O7 2.378424 1_654
Na1 O8 2.515495 1_555
Na1 O17 2.530066 1_565
Na1 O3 2.794191 1_555
Na1 O6 2.798121 1_655
Na1 O2 2.898768 1_554
Na2 O11 2.359315 1_555
Na2 O17 2.378424 1_456
Na2 O0 2.515495 1_555
Na2 O7 2.530066 1_545
Na2 O18 2.794191 1_555
Na2 O19 2.798121 1_455
Na2 O16 2.898768 1_556
Na3 O14 2.359315 1_555
Na3 O13 2.378424 1_556
Na3 O18 2.515495 1_555
Na3 O1 2.530066 1_555
Na3 O0 2.794191 1_565
Na3 O10 2.798121 1_555
Na3 O15 2.898768 1_556
B0 O13 1.358672 1_555
B0 O2 1.382288 1_554
B0 O8 1.421036 1_555
B1 O7 1.358672 1_555
B1 O15 1.382288 1_556
B1 O18 1.421036 1_555
B2 O1 1.358672 1_555
B2 O16 1.382288 1_556
B2 O0 1.421036 1_555
B3 O11 1.351879 1_655
B3 O19 1.382631 1_555
B3 O3 1.425250 1_555
B4 O14 1.351879 1_555
B4 O10 1.382631 1_555
B4 O8 1.425250 1_555
B5 O17 1.358672 1_555
B5 O9 1.382288 1_554
B5 O3 1.421036 1_555
B6 O5 1.351879 1_455
B6 O6 1.382631 1_555
B6 O18 1.425250 1_555
B7 O12 1.351879 1_555
B7 O4 1.382631 1_555
B7 O0 1.425250 1_555
O1 Sc2 2.093857 1_555
O2 Sc2 2.155604 1_565
O2 Sc0 2.157146 1_555
O4 Sc1 2.134508 1_555
O4 Sc3 2.162102 1_555
O5 Sc0 2.048873 1_555
O6 Sc3 2.134508 1_555
O6 Sc1 2.162102 1_565
O7 Sc0 2.093857 1_455
O9 Sc0 2.155604 1_555
O9 Sc2 2.157146 1_555
O10 Sc0 2.134508 1_555
O10 Sc2 2.162102 1_555
O11 Sc1 2.048873 1_555
O12 Sc2 2.048873 1_555
O13 Sc3 2.093857 1_555
O14 Sc3 2.048873 1_555
O15 Sc1 2.155604 1_555
O15 Sc3 2.157146 1_555
O16 Sc3 2.155604 1_545
O16 Sc1 2.157146 1_555
O17 Sc1 2.093857 1_655
O19 Sc2 2.134508 1_555
O19 Sc0 2.162102 1_545
