# generated using pymatgen
data_Ba2NiMoO6
_symmetry_space_group_name_H-M   'P 1'
_cell_length_a   5.78727560
_cell_length_b   5.78726989
_cell_length_c   10.02386197
_cell_angle_alpha   90.00011494
_cell_angle_beta   73.22126906
_cell_angle_gamma   60.00016831
_symmetry_Int_Tables_number   1
_chemical_formula_structural   Ba2NiMoO6
_chemical_formula_sum   'Ba4 Ni2 Mo2 O12'
_cell_volume   274.11812350
_cell_formula_units_Z   2
loop_
 _symmetry_equiv_pos_site_id
 _symmetry_equiv_pos_as_xyz
  1  'x, y, z'
loop_
 _atom_site_type_symbol
 _atom_site_label
 _atom_site_symmetry_multiplicity
 _atom_site_fract_x
 _atom_site_fract_y
 _atom_site_fract_z
 _atom_site_occupancy
  Ba  Ba0  1  0.75000000  0.12500000  0.37500000  1
  Ba  Ba1  1  0.75000000  0.62500000  0.87500000  1
  Ba  Ba2  1  0.24999900  0.37499900  0.12500000  1
  Ba  Ba3  1  0.24999900  0.87499900  0.62500000  1
  Ni  Ni0  1  0.00000800  0.00000000  0.00000000  1
  Ni  Ni1  1  0.00000900  0.50000000  0.50000000  1
  Mo  Mo0  1  0.50000000  0.74999900  0.24999900  1
  Mo  Mo1  1  0.50000000  0.24999900  0.75000100  1
  O  O0  1  0.26050500  0.63025300  0.36974700  1
  O  O1  1  0.26050600  0.13025400  0.86974600  1
  O  O2  1  0.73949000  0.63025400  0.36974700  1
  O  O3  1  0.73948900  0.13025500  0.86974600  1
  O  O4  1  0.73949100  0.39076200  0.13025400  1
  O  O5  1  0.73949200  0.89076000  0.63025300  1
  O  O6  1  0.73949100  0.86974500  0.13025400  1
  O  O7  1  0.73949200  0.36974600  0.63025300  1
  O  O8  1  0.26050800  0.86974400  0.13025400  1
  O  O9  1  0.26050700  0.36974500  0.63025300  1
  O  O10  1  0.26050600  0.10924000  0.36974700  1
  O  O11  1  0.26050700  0.60923800  0.86974600  1
loop_
_geom_bond_atom_site_label_1
_geom_bond_atom_site_label_2
_geom_bond_distance
_geom_bond_site_symmetry_2
Ba0 O7 2.894905 1_555
Ba0 O2 2.894907 1_555
Ba0 O9 2.894911 1_555
Ba0 O10 2.894913 1_655
Ba0 O8 2.894915 1_645
Ba0 O5 2.894915 1_545
Ba0 O10 2.894918 1_555
Ba0 O0 2.894918 1_645
Ba0 O2 2.894918 1_545
Ba0 O4 2.894919 1_555
Ba0 O6 2.894920 1_545
Ba0 O0 2.894924 1_555
Ba1 O6 2.894908 1_556
Ba1 O11 2.894910 1_655
Ba1 O3 2.894910 1_565
Ba1 O8 2.894914 1_556
Ba1 O1 2.894915 1_655
Ba1 O3 2.894916 1_555
Ba1 O9 2.894917 1_655
Ba1 O4 2.894919 1_556
Ba1 O11 2.894921 1_555
Ba1 O5 2.894921 1_555
Ba1 O7 2.894922 1_555
Ba1 O1 2.894927 1_565
Ba2 O3 2.894909 1_554
Ba2 O8 2.894910 1_555
Ba2 O4 2.894913 1_455
Ba2 O1 2.894914 1_554
Ba2 O8 2.894916 1_545
Ba2 O0 2.894916 1_555
Ba2 O4 2.894918 1_555
Ba2 O10 2.894918 1_555
Ba2 O11 2.894921 1_554
Ba2 O6 2.894921 1_455
Ba2 O6 2.894922 1_545
Ba2 O2 2.894923 1_455
Ba3 O2 2.894906 1_555
Ba3 O0 2.894911 1_555
Ba3 O9 2.894912 1_565
Ba3 O9 2.894913 1_555
Ba3 O1 2.894914 1_565
Ba3 O5 2.894915 1_555
Ba3 O5 2.894916 1_455
Ba3 O11 2.894916 1_555
Ba3 O10 2.894918 1_565
Ba3 O7 2.894918 1_555
Ba3 O3 2.894921 1_465
Ba3 O7 2.894924 1_465
Ni0 O1 2.132070 1_554
Ni0 O8 2.132084 1_545
Ni0 O11 2.132112 1_544
Ni0 O4 2.132112 1_455
Ni0 O6 2.132152 1_445
Ni0 O3 2.132162 1_454
Ni1 O0 2.132054 1_555
Ni1 O9 2.132068 1_555
Ni1 O10 2.132100 1_555
Ni1 O5 2.132100 1_455
Ni1 O7 2.132144 1_455
Ni1 O2 2.132154 1_455
Mo0 O6 1.960099 1_555
Mo0 O4 1.960100 1_555
Mo0 O8 1.960104 1_555
Mo0 O2 1.960121 1_555
Mo0 O0 1.960128 1_555
Mo0 O10 1.960128 1_565
Mo1 O3 1.960092 1_555
Mo1 O1 1.960107 1_555
Mo1 O11 1.960108 1_555
Mo1 O7 1.960119 1_555
Mo1 O5 1.960120 1_545
Mo1 O9 1.960133 1_555
