# generated using pymatgen
data_KZrVF7
_symmetry_space_group_name_H-M   'P 1'
_cell_length_a   6.61504800
_cell_length_b   8.07624100
_cell_length_c   11.34950200
_cell_angle_alpha   90.00000000
_cell_angle_beta   90.00000000
_cell_angle_gamma   90.00000000
_symmetry_Int_Tables_number   1
_chemical_formula_structural   KZrVF7
_chemical_formula_sum   'K4 Zr4 V4 F28'
_cell_volume   606.34398776
_cell_formula_units_Z   4
loop_
 _symmetry_equiv_pos_site_id
 _symmetry_equiv_pos_as_xyz
  1  'x, y, z'
loop_
 _atom_site_type_symbol
 _atom_site_label
 _atom_site_symmetry_multiplicity
 _atom_site_fract_x
 _atom_site_fract_y
 _atom_site_fract_z
 _atom_site_occupancy
  K  K0  1  0.26341400  0.00000000  0.25000000  1
  K  K1  1  0.73658600  0.00000000  0.75000000  1
  K  K2  1  0.23658600  0.50000000  0.25000000  1
  K  K3  1  0.76341400  0.50000000  0.75000000  1
  Zr  Zr0  1  0.75000000  0.75000000  0.40683500  1
  Zr  Zr1  1  0.25000000  0.25000000  0.59316500  1
  Zr  Zr2  1  0.25000000  0.75000000  0.90683500  1
  Zr  Zr3  1  0.75000000  0.25000000  0.09316500  1
  V  V0  1  0.75000000  0.25000000  0.40225900  1
  V  V1  1  0.25000000  0.25000000  0.90225900  1
  V  V2  1  0.25000000  0.75000000  0.59774100  1
  V  V3  1  0.75000000  0.75000000  0.09774100  1
  F  F0  1  0.05124900  0.19444100  0.04350000  1
  F  F1  1  0.05124900  0.80555900  0.45650000  1
  F  F2  1  0.44875100  0.69444100  0.45650000  1
  F  F3  1  0.44875100  0.30555900  0.04350000  1
  F  F4  1  0.94875100  0.80555900  0.95650000  1
  F  F5  1  0.94875100  0.19444100  0.54350000  1
  F  F6  1  0.55124900  0.30555900  0.54350000  1
  F  F7  1  0.55124900  0.69444100  0.95650000  1
  F  F8  1  0.25000000  0.75000000  0.08591000  1
  F  F9  1  0.25000000  0.25000000  0.41409000  1
  F  F10  1  0.75000000  0.25000000  0.91409000  1
  F  F11  1  0.75000000  0.75000000  0.58591000  1
  F  F12  1  0.93066500  0.78817600  0.25038300  1
  F  F13  1  0.93066500  0.21182400  0.24961700  1
  F  F14  1  0.56933500  0.28817600  0.24961700  1
  F  F15  1  0.56933500  0.71182400  0.25038300  1
  F  F16  1  0.06933500  0.21182400  0.74961700  1
  F  F17  1  0.06933500  0.78817600  0.75038300  1
  F  F18  1  0.43066500  0.71182400  0.75038300  1
  F  F19  1  0.43066500  0.28817600  0.74961700  1
  F  F20  1  0.66756200  0.00412700  0.10206900  1
  F  F21  1  0.66756200  0.99587300  0.39793100  1
  F  F22  1  0.83243800  0.50412700  0.39793100  1
  F  F23  1  0.83243800  0.49587300  0.10206900  1
  F  F24  1  0.33243800  0.99587300  0.89793100  1
  F  F25  1  0.33243800  0.00412700  0.60206900  1
  F  F26  1  0.16756200  0.49587300  0.60206900  1
  F  F27  1  0.16756200  0.50412700  0.89793100  1
loop_
_geom_bond_atom_site_label_1
_geom_bond_atom_site_label_2
_geom_bond_distance
_geom_bond_site_symmetry_2
F0 Zr3 2.119015 1_455
F0 V1 2.121216 1_554
F0 K0 3.150963 1_555
F1 Zr0 2.119015 1_455
F1 V2 2.121216 1_555
F1 K0 3.150963 1_565
F2 Zr0 2.119015 1_555
F2 V2 2.121216 1_555
F2 K2 3.150963 1_555
F3 Zr3 2.119015 1_555
F3 V1 2.121216 1_554
F3 K2 3.150963 1_555
F4 Zr2 2.119015 1_655
F4 V3 2.121216 1_556
F4 K1 3.150963 1_565
F5 Zr1 2.119015 1_655
F5 V0 2.121216 1_555
F5 K1 3.150963 1_555
F6 Zr1 2.119015 1_555
F6 V0 2.121216 1_555
F6 K3 3.150963 1_555
F7 Zr2 2.119015 1_555
F7 V3 2.121216 1_556
F7 K3 3.150963 1_555
F8 Zr2 2.032412 1_554
F8 K2 2.748234 1_555
F8 K0 2.748234 1_565
F9 Zr1 2.032412 1_555
F9 K0 2.748234 1_555
F9 K2 2.748234 1_555
F10 Zr3 2.032412 1_556
F10 K1 2.748234 1_555
F10 K3 2.748234 1_555
F11 Zr0 2.032412 1_555
F11 K1 2.748234 1_565
F11 K3 2.748234 1_555
F12 V3 2.127108 1_555
F12 Zr0 2.162472 1_555
F12 K0 2.787780 1_665
F12 K2 3.084153 1_655
F13 V0 2.127108 1_555
F13 Zr3 2.162472 1_555
F13 K0 2.787780 1_655
F13 K2 3.084153 1_655
F14 V0 2.127108 1_555
F14 Zr3 2.162472 1_555
F14 K2 2.787780 1_555
F14 K0 3.084153 1_555
F15 V3 2.127108 1_555
F15 Zr0 2.162472 1_555
F15 K2 2.787780 1_555
F15 K0 3.084153 1_565
F16 V1 2.127108 1_555
F16 Zr1 2.162472 1_555
F16 K1 2.787780 1_455
F16 K3 3.084153 1_455
F17 V2 2.127108 1_555
F17 Zr2 2.162472 1_555
F17 K1 2.787780 1_465
F17 K3 3.084153 1_455
F18 V2 2.127108 1_555
F18 Zr2 2.162472 1_555
F18 K3 2.787780 1_555
F18 K1 3.084153 1_565
F19 V1 2.127108 1_555
F19 Zr1 2.162472 1_555
F19 K3 2.787780 1_555
F19 K1 3.084153 1_555
F20 Zr3 2.061728 1_555
F20 V3 2.124172 1_545
F20 K0 3.157110 1_555
F21 Zr0 2.061728 1_555
F21 V0 2.124172 1_565
F21 K0 3.157110 1_565
F22 Zr0 2.061728 1_555
F22 V0 2.124172 1_555
F22 K2 3.157110 1_655
F23 Zr3 2.061728 1_555
F23 V3 2.124172 1_555
F23 K2 3.157110 1_655
F24 Zr2 2.061728 1_555
F24 V1 2.124172 1_565
F24 K1 3.157110 1_565
F25 Zr1 2.061728 1_555
F25 V2 2.124172 1_545
F25 K1 3.157110 1_555
F26 Zr1 2.061728 1_555
F26 V2 2.124172 1_555
F26 K3 3.157110 1_455
F27 Zr2 2.061728 1_555
F27 V1 2.124172 1_555
F27 K3 3.157110 1_455
