# generated using pymatgen
data_Nb2CoO6
_symmetry_space_group_name_H-M   'P 1'
_cell_length_a   5.01916609
_cell_length_b   5.72237417
_cell_length_c   14.06555661
_cell_angle_alpha   90.00000000
_cell_angle_beta   90.00000000
_cell_angle_gamma   90.00000000
_symmetry_Int_Tables_number   1
_chemical_formula_structural   Nb2CoO6
_chemical_formula_sum   'Nb8 Co4 O24'
_cell_volume   403.98453665
_cell_formula_units_Z   4
loop_
 _symmetry_equiv_pos_site_id
 _symmetry_equiv_pos_as_xyz
  1  'x, y, z'
loop_
 _atom_site_type_symbol
 _atom_site_label
 _atom_site_symmetry_multiplicity
 _atom_site_fract_x
 _atom_site_fract_y
 _atom_site_fract_z
 _atom_site_occupancy
  Nb  Nb0  1  0.25291114  0.68148722  0.15800375  1
  Nb  Nb1  1  0.75291114  0.81851278  0.34199625  1
  Nb  Nb2  1  0.24708886  0.68148722  0.84199625  1
  Nb  Nb3  1  0.74708886  0.81851278  0.65800375  1
  Nb  Nb4  1  0.74708886  0.31851278  0.84199625  1
  Nb  Nb5  1  0.24708886  0.18148722  0.65800375  1
  Nb  Nb6  1  0.75291114  0.31851278  0.15800375  1
  Nb  Nb7  1  0.25291114  0.18148722  0.34199625  1
  Co  Co0  1  0.75000000  0.85516068  -0.00000000  1
  Co  Co1  1  0.25000000  0.64483932  0.50000000  1
  Co  Co2  1  0.25000000  0.14483932  -0.00000000  1
  Co  Co3  1  0.75000000  0.35516068  0.50000000  1
  O  O0  1  0.58037390  0.61307569  0.09284428  1
  O  O1  1  0.08037390  0.88692431  0.40715572  1
  O  O2  1  0.91962610  0.61307569  0.90715572  1
  O  O3  1  0.41962610  0.88692431  0.59284428  1
  O  O4  1  0.41962610  0.38692431  0.90715572  1
  O  O5  1  0.91962610  0.11307569  0.59284428  1
  O  O6  1  0.08037390  0.38692431  0.09284428  1
  O  O7  1  0.58037390  0.11307569  0.40715572  1
  O  O8  1  0.06925775  0.87775079  0.07537359  1
  O  O9  1  0.56925775  0.62224921  0.42462641  1
  O  O10  1  0.43074225  0.87775079  0.92462641  1
  O  O11  1  0.93074225  0.62224921  0.57537359  1
  O  O12  1  0.93074225  0.12224921  0.92462641  1
  O  O13  1  0.43074225  0.37775079  0.57537359  1
  O  O14  1  0.56925775  0.12224921  0.07537359  1
  O  O15  1  0.06925775  0.37775079  0.42462641  1
  O  O16  1  0.41846541  0.88333135  0.25540206  1
  O  O17  1  0.91846541  0.61666865  0.24459794  1
  O  O18  1  0.08153459  0.88333135  0.74459794  1
  O  O19  1  0.58153459  0.61666865  0.75540206  1
  O  O20  1  0.58153459  0.11666865  0.74459794  1
  O  O21  1  0.08153459  0.38333135  0.75540206  1
  O  O22  1  0.91846541  0.11666865  0.25540206  1
  O  O23  1  0.41846541  0.38333135  0.24459794  1
loop_
_geom_bond_atom_site_label_1
_geom_bond_atom_site_label_2
_geom_bond_distance
_geom_bond_site_symmetry_2
Nb0 O8 1.860599 1_555
Nb0 O0 1.922140 1_555
Nb0 O16 1.975184 1_555
Nb0 O6 2.105034 1_555
Nb0 O17 2.106874 1_455
Nb0 O23 2.254986 1_555
Nb1 O9 1.860599 1_555
Nb1 O1 1.922140 1_655
Nb1 O17 1.975184 1_555
Nb1 O7 2.105034 1_565
Nb1 O16 2.106874 1_555
Nb1 O22 2.254986 1_565
Nb2 O10 1.860599 1_555
Nb2 O2 1.922140 1_455
Nb2 O18 1.975184 1_555
Nb2 O4 2.105034 1_555
Nb2 O19 2.106874 1_555
Nb2 O21 2.254986 1_555
Nb3 O11 1.860599 1_555
Nb3 O3 1.922140 1_555
Nb3 O19 1.975184 1_555
Nb3 O5 2.105034 1_565
Nb3 O18 2.106874 1_655
Nb3 O20 2.254986 1_565
Nb4 O12 1.860599 1_555
Nb4 O4 1.922140 1_555
Nb4 O20 1.975184 1_555
Nb4 O2 2.105034 1_555
Nb4 O21 2.106874 1_655
Nb4 O19 2.254986 1_555
Nb5 O13 1.860599 1_555
Nb5 O5 1.922140 1_455
Nb5 O21 1.975184 1_555
Nb5 O3 2.105034 1_545
Nb5 O20 2.106874 1_555
Nb5 O18 2.254986 1_545
Nb6 O14 1.860599 1_555
Nb6 O6 1.922140 1_655
Nb6 O22 1.975184 1_555
Nb6 O0 2.105034 1_555
Nb6 O23 2.106874 1_555
Nb6 O17 2.254986 1_555
Nb7 O15 1.860599 1_555
Nb7 O7 1.922140 1_555
Nb7 O23 1.975184 1_555
Nb7 O1 2.105034 1_545
Nb7 O22 2.106874 1_455
Nb7 O16 2.254986 1_545
Co0 O10 1.925717 1_554
Co0 O8 1.925717 1_655
Co0 O12 2.069511 1_564
Co0 O14 2.069511 1_565
Co0 O2 2.085498 1_554
Co0 O0 2.085498 1_555
Co1 O9 1.925717 1_555
Co1 O11 1.925717 1_455
Co1 O13 2.069511 1_555
Co1 O15 2.069511 1_555
Co1 O1 2.085498 1_555
Co1 O3 2.085498 1_555
Co2 O12 1.925717 1_454
Co2 O14 1.925717 1_555
Co2 O10 2.069511 1_544
Co2 O8 2.069511 1_545
Co2 O4 2.085498 1_554
Co2 O6 2.085498 1_555
Co3 O15 1.925717 1_655
Co3 O13 1.925717 1_555
Co3 O9 2.069511 1_555
Co3 O11 2.069511 1_555
Co3 O7 2.085498 1_555
Co3 O5 2.085498 1_555
