# generated using pymatgen
data_Ca2Bi
_symmetry_space_group_name_H-M   'P 1'
_cell_length_a   4.85107254
_cell_length_b   4.85107267
_cell_length_c   9.17322374
_cell_angle_alpha   105.33324120
_cell_angle_beta   105.33324261
_cell_angle_gamma   89.99818504
_symmetry_Int_Tables_number   1
_chemical_formula_structural   Ca2Bi
_chemical_formula_sum   'Ca4 Bi2'
_cell_volume   200.21008332
_cell_formula_units_Z   2
loop_
 _symmetry_equiv_pos_site_id
 _symmetry_equiv_pos_as_xyz
  1  'x, y, z'
loop_
 _atom_site_type_symbol
 _atom_site_label
 _atom_site_symmetry_multiplicity
 _atom_site_fract_x
 _atom_site_fract_y
 _atom_site_fract_z
 _atom_site_occupancy
  Ca  Ca0  1  0.67419547  0.67419548  0.34839519  1
  Ca  Ca1  1  0.50000000  -0.00000000  0.00000000  1
  Ca  Ca2  1  0.32580553  0.32580552  0.65160481  1
  Ca  Ca3  1  -0.00000000  0.50000000  -0.00000000  1
  Bi  Bi0  1  0.13624130  0.13624130  0.27249606  1
  Bi  Bi1  1  0.86375870  0.86375870  0.72750394  1
loop_
_geom_bond_atom_site_label_1
_geom_bond_atom_site_label_2
_geom_bond_distance
_geom_bond_site_symmetry_2
Bi0 Ca2 3.225330 1_555
Bi0 Ca1 3.355219 1_455
Bi0 Ca3 3.355219 1_545
Bi0 Ca3 3.355300 1_555
Bi0 Ca1 3.355300 1_555
Bi0 Ca0 3.490421 1_545
Bi0 Ca0 3.490421 1_455
Bi0 Ca0 3.490506 1_445
Bi0 Ca0 3.490550 1_555
Bi1 Ca0 3.225330 1_555
Bi1 Ca1 3.355219 1_666
Bi1 Ca3 3.355219 1_666
Bi1 Ca3 3.355300 1_656
Bi1 Ca1 3.355300 1_566
Bi1 Ca2 3.490421 1_565
Bi1 Ca2 3.490421 1_655
Bi1 Ca2 3.490513 1_665
Bi1 Ca2 3.490543 1_555
