# generated using pymatgen
data_Sc(FeSi)2
_symmetry_space_group_name_H-M   'P 1'
_cell_length_a   4.96601104
_cell_length_b   7.04758143
_cell_length_c   7.43940608
_cell_angle_alpha   90.00003411
_cell_angle_beta   90.00000510
_cell_angle_gamma   90.00001732
_symmetry_Int_Tables_number   1
_chemical_formula_structural   Sc(FeSi)2
_chemical_formula_sum   'Sc4 Fe8 Si8'
_cell_volume   260.36706564
_cell_formula_units_Z   4
loop_
 _symmetry_equiv_pos_site_id
 _symmetry_equiv_pos_as_xyz
  1  'x, y, z'
loop_
 _atom_site_type_symbol
 _atom_site_label
 _atom_site_symmetry_multiplicity
 _atom_site_fract_x
 _atom_site_fract_y
 _atom_site_fract_z
 _atom_site_occupancy
  Sc  Sc0  1  0.74999984  0.90592782  0.24727352  1
  Sc  Sc1  1  0.24999948  0.09277204  0.75299504  1
  Sc  Sc2  1  0.74999944  0.40723287  0.75300200  1
  Sc  Sc3  1  0.24999973  0.59406569  0.24726809  1
  Fe  Fe0  1  0.75000019  0.51116698  0.11591510  1
  Fe  Fe1  1  0.24999984  0.48915155  0.88448534  1
  Fe  Fe2  1  0.74999974  0.01084582  0.88448430  1
  Fe  Fe3  1  0.24999993  0.98883632  0.11591575  1
  Fe  Fe4  1  -0.00000007  0.75000447  0.61703255  1
  Fe  Fe5  1  0.50000182  0.24999653  0.38220521  1
  Fe  Fe6  1  -0.00000016  0.24999693  0.38220504  1
  Fe  Fe7  1  0.49999983  0.75000302  0.61703261  1
  Si  Si0  1  0.74999963  0.55103424  0.41667952  1
  Si  Si1  1  0.24999995  0.45280860  0.58254957  1
  Si  Si2  1  0.75000019  0.04719199  0.58254788  1
  Si  Si3  1  0.25000007  0.94896425  0.41668269  1
  Si  Si4  1  -0.00000210  0.75000003  0.95011777  1
  Si  Si5  1  0.50000069  0.25000065  0.05074515  1
  Si  Si6  1  -0.00000046  0.25000059  0.05074523  1
  Si  Si7  1  0.50000143  0.75000062  0.95011764  1
loop_
_geom_bond_atom_site_label_1
_geom_bond_atom_site_label_2
_geom_bond_distance
_geom_bond_site_symmetry_2
Sc0 Si2 2.685592 1_565
Sc0 Si7 2.763320 1_554
Sc0 Si4 2.763321 1_654
Sc0 Si0 2.800717 1_555
Sc0 Si3 2.801012 1_555
Sc0 Si3 2.801014 1_655
Sc0 Si6 3.091759 1_665
Sc0 Si5 3.091759 1_565
Sc1 Si3 2.699444 1_545
Sc1 Si6 2.770518 1_556
Sc1 Si5 2.770520 1_556
Sc1 Si2 2.806488 1_455
Sc1 Si2 2.806495 1_555
Sc1 Si1 2.836581 1_555
Sc1 Si7 3.086675 1_545
Sc1 Si4 3.086677 1_545
Sc2 Si0 2.699498 1_555
Sc2 Si5 2.770485 1_556
Sc2 Si6 2.770488 1_656
Sc2 Si1 2.806503 1_555
Sc2 Si1 2.806508 1_655
Sc2 Si2 2.836636 1_555
Sc2 Si4 3.086618 1_655
Sc2 Si7 3.086621 1_555
Sc3 Si1 2.685623 1_555
Sc3 Si4 2.763316 1_554
Sc3 Si7 2.763318 1_554
Sc3 Si3 2.800776 1_555
Sc3 Si0 2.801016 1_555
Sc3 Si0 2.801017 1_455
Sc3 Si6 3.091697 1_555
Sc3 Si5 3.091700 1_555
Fe0 Si0 2.255080 1_555
Fe0 Si5 2.272477 1_555
Fe0 Si6 2.272477 1_655
Fe0 Si4 2.428128 1_654
Fe0 Si7 2.428135 1_554
Fe0 Sc3 2.731580 1_655
Fe0 Sc3 2.731585 1_555
Fe0 Sc2 2.797457 1_554
Fe0 Sc0 2.948746 1_555
Fe1 Si1 2.260778 1_555
Fe1 Si4 2.271407 1_555
Fe1 Si7 2.271409 1_555
Fe1 Si6 2.431437 1_556
Fe1 Si5 2.431439 1_556
Fe1 Sc2 2.730459 1_555
Fe1 Sc2 2.730463 1_455
Fe1 Sc3 2.798338 1_556
Fe1 Sc1 2.959836 1_555
Fe2 Si2 2.260786 1_555
Fe2 Si7 2.271380 1_545
Fe2 Si4 2.271384 1_645
Fe2 Si5 2.431456 1_556
Fe2 Si6 2.431458 1_656
Fe2 Sc1 2.730487 1_655
Fe2 Sc1 2.730489 1_555
Fe2 Sc0 2.798392 1_546
Fe2 Sc2 2.959867 1_555
Fe3 Si3 2.255103 1_555
Fe3 Si6 2.272470 1_565
Fe3 Si5 2.272471 1_565
Fe3 Si7 2.428153 1_554
Fe3 Si4 2.428157 1_554
Fe3 Sc0 2.731610 1_555
Fe3 Sc0 2.731611 1_455
Fe3 Sc1 2.797515 1_564
Fe3 Sc3 2.948797 1_555
Fe4 Si3 2.393533 1_555
Fe4 Si0 2.393590 1_455
Fe4 Si2 2.448240 1_465
Fe4 Si1 2.448289 1_555
Fe4 Si4 2.477956 1_555
Fe4 Fe7 2.483005 1_555
Fe4 Fe7 2.483006 1_455
Fe4 Sc1 2.898264 1_565
Fe4 Sc2 2.898308 1_455
Fe5 Si2 2.409469 1_555
Fe5 Si1 2.409516 1_555
Fe5 Si5 2.465866 1_555
Fe5 Si3 2.471459 1_545
Fe5 Si0 2.471479 1_555
Fe5 Fe6 2.482996 1_655
Fe5 Fe6 2.483015 1_555
Fe5 Sc0 2.903248 1_545
Fe5 Sc3 2.903274 1_555
Fe6 Si2 2.409474 1_455
Fe6 Si1 2.409510 1_555
Fe6 Si6 2.465864 1_555
Fe6 Si3 2.471459 1_545
Fe6 Si0 2.471484 1_455
Fe6 Sc0 2.903254 1_445
Fe6 Sc3 2.903266 1_555
Fe7 Si3 2.393538 1_555
Fe7 Si0 2.393583 1_555
Fe7 Si2 2.448250 1_565
Fe7 Si1 2.448280 1_555
Fe7 Si7 2.477955 1_555
Fe7 Sc1 2.898274 1_565
Fe7 Sc2 2.898298 1_555
Si4 Si7 2.482988 1_455
Si4 Si7 2.483023 1_555
Si5 Si6 2.483000 1_655
Si5 Si6 2.483011 1_555
