# generated using pymatgen
data_Tm10In20Rh9
_symmetry_space_group_name_H-M   'P 1'
_cell_length_a   13.48987900
_cell_length_b   13.48987900
_cell_length_c   9.36372500
_cell_angle_alpha   90.00000000
_cell_angle_beta   90.00000000
_cell_angle_gamma   90.00000000
_symmetry_Int_Tables_number   1
_chemical_formula_structural   Tm10In20Rh9
_chemical_formula_sum   'Tm20 In40 Rh18'
_cell_volume   1703.98104338
_cell_formula_units_Z   2
loop_
 _symmetry_equiv_pos_site_id
 _symmetry_equiv_pos_as_xyz
  1  'x, y, z'
loop_
 _atom_site_type_symbol
 _atom_site_label
 _atom_site_symmetry_multiplicity
 _atom_site_fract_x
 _atom_site_fract_y
 _atom_site_fract_z
 _atom_site_occupancy
  Tm  Tm0  1  0.79644600  0.29644600  0.73016600  1
  Tm  Tm1  1  0.00000000  0.50000000  0.63542400  1
  Tm  Tm2  1  0.27498100  0.50000000  0.23171900  1
  Tm  Tm3  1  0.70355400  0.20355400  0.26983400  1
  Tm  Tm4  1  0.79644600  0.70355400  0.73016600  1
  Tm  Tm5  1  0.50000000  0.00000000  0.84348100  1
  Tm  Tm6  1  0.22501900  0.00000000  0.76828100  1
  Tm  Tm7  1  0.77498100  0.00000000  0.76828100  1
  Tm  Tm8  1  0.70355400  0.79644600  0.26983400  1
  Tm  Tm9  1  0.50000000  0.00000000  0.36457600  1
  Tm  Tm10  1  0.29644600  0.79644600  0.26983400  1
  Tm  Tm11  1  0.20355400  0.70355400  0.73016600  1
  Tm  Tm12  1  0.50000000  0.72501900  0.76828100  1
  Tm  Tm13  1  0.00000000  0.77498100  0.23171900  1
  Tm  Tm14  1  0.29644600  0.20355400  0.26983400  1
  Tm  Tm15  1  0.00000000  0.22501900  0.23171900  1
  Tm  Tm16  1  0.20355400  0.29644600  0.73016600  1
  Tm  Tm17  1  0.00000000  0.50000000  0.15651900  1
  Tm  Tm18  1  0.72501900  0.50000000  0.23171900  1
  Tm  Tm19  1  0.50000000  0.27498100  0.76828100  1
  In  In0  1  0.13146500  0.13146500  0.50000000  1
  In  In1  1  0.63146500  0.36853500  0.50000000  1
  In  In2  1  0.50000000  0.61278600  0.24086200  1
  In  In3  1  0.50000000  0.16759600  0.09994100  1
  In  In4  1  0.00000000  0.11278600  0.75913800  1
  In  In5  1  0.16759600  0.50000000  0.90005900  1
  In  In6  1  0.33240400  0.00000000  0.09994100  1
  In  In7  1  0.63146500  0.63146500  0.50000000  1
  In  In8  1  0.88721400  0.00000000  0.24086200  1
  In  In9  1  0.86961700  0.36961700  0.40675300  1
  In  In10  1  0.13146500  0.86853500  0.50000000  1
  In  In11  1  0.36961700  0.86961700  0.59324700  1
  In  In12  1  0.83240400  0.50000000  0.90005900  1
  In  In13  1  0.63038300  0.13038300  0.59324700  1
  In  In14  1  0.86853500  0.86853500  0.50000000  1
  In  In15  1  0.50000000  0.83240400  0.09994100  1
  In  In16  1  0.65019800  0.34980200  0.00000000  1
  In  In17  1  0.00000000  0.33240400  0.90005900  1
  In  In18  1  0.11278600  0.00000000  0.24086200  1
  In  In19  1  0.63038300  0.86961700  0.59324700  1
  In  In20  1  0.86853500  0.13146500  0.50000000  1
  In  In21  1  0.65019800  0.65019800  0.00000000  1
  In  In22  1  0.34980200  0.65019800  0.00000000  1
  In  In23  1  0.36853500  0.63146500  0.50000000  1
  In  In24  1  0.61278600  0.50000000  0.75913800  1
  In  In25  1  0.00000000  0.88721400  0.75913800  1
  In  In26  1  0.13038300  0.63038300  0.40675300  1
  In  In27  1  0.36853500  0.36853500  0.50000000  1
  In  In28  1  0.86961700  0.63038300  0.40675300  1
  In  In29  1  0.66759600  0.00000000  0.09994100  1
  In  In30  1  0.13038300  0.36961700  0.40675300  1
  In  In31  1  0.00000000  0.66759600  0.90005900  1
  In  In32  1  0.15019800  0.84980200  0.00000000  1
  In  In33  1  0.15019800  0.15019800  0.00000000  1
  In  In34  1  0.38721400  0.50000000  0.75913800  1
  In  In35  1  0.50000000  0.38721400  0.24086200  1
  In  In36  1  0.84980200  0.84980200  0.00000000  1
  In  In37  1  0.84980200  0.15019800  0.00000000  1
  In  In38  1  0.36961700  0.13038300  0.59324700  1
  In  In39  1  0.34980200  0.34980200  0.00000000  1
  Rh  Rh0  1  0.50000000  0.77892600  0.40289300  1
  Rh  Rh1  1  0.72107400  0.00000000  0.40289300  1
  Rh  Rh2  1  0.84295900  0.65704100  0.10386000  1
  Rh  Rh3  1  0.77892600  0.50000000  0.59710700  1
  Rh  Rh4  1  0.15704100  0.65704100  0.10386000  1
  Rh  Rh5  1  0.15704100  0.34295900  0.10386000  1
  Rh  Rh6  1  0.65704100  0.15704100  0.89614000  1
  Rh  Rh7  1  0.65704100  0.84295900  0.89614000  1
  Rh  Rh8  1  0.00000000  0.27892600  0.59710700  1
  Rh  Rh9  1  0.84295900  0.34295900  0.10386000  1
  Rh  Rh10  1  0.34295900  0.84295900  0.89614000  1
  Rh  Rh11  1  0.50000000  0.22107400  0.40289300  1
  Rh  Rh12  1  0.50000000  0.50000000  0.00000000  1
  Rh  Rh13  1  0.34295900  0.15704100  0.89614000  1
  Rh  Rh14  1  0.22107400  0.50000000  0.59710700  1
  Rh  Rh15  1  0.00000000  0.00000000  0.00000000  1
  Rh  Rh16  1  0.27892600  0.00000000  0.40289300  1
  Rh  Rh17  1  0.00000000  0.72107400  0.59710700  1
loop_
_geom_bond_atom_site_label_1
_geom_bond_atom_site_label_2
_geom_bond_distance
_geom_bond_site_symmetry_2
In0 Rh16 2.815839 1_555
In0 Rh8 2.815839 1_555
In0 Tm14 3.247124 1_555
In0 Tm16 3.247124 1_555
In1 Rh3 2.815839 1_555
In1 Rh11 2.815839 1_555
In1 Tm0 3.247124 1_555
In1 Tm3 3.247124 1_555
In2 Rh0 2.706465 1_555
In2 Rh12 2.720578 1_555
In2 In22 3.073544 1_555
In2 In21 3.073544 1_555
In3 Rh13 2.854805 1_554
In3 Rh6 2.854805 1_554
In3 Rh11 2.927053 1_555
In3 In6 3.197324 1_555
In3 Tm3 3.210313 1_555
In3 Tm14 3.210313 1_555
In3 In35 3.243196 1_555
In3 Tm5 3.298221 1_554
In3 In39 3.320016 1_555
In3 Tm9 3.354366 1_555
In3 Tm19 3.426814 1_554
In4 Rh8 2.706465 1_555
In4 Rh15 2.720578 1_556
In5 Rh5 2.854805 1_556
In5 Rh4 2.854805 1_556
In5 Rh14 2.927053 1_555
In5 Tm16 3.210313 1_555
In5 Tm11 3.210313 1_555
In5 Tm17 3.298221 1_556
In5 Tm1 3.354366 1_555
In5 Tm2 3.426814 1_556
In6 Rh13 2.854805 1_554
In6 Rh10 2.854805 1_544
In6 Rh16 2.927053 1_555
In6 Tm10 3.210313 1_545
In6 Tm14 3.210313 1_555
In6 Tm5 3.298221 1_554
In6 Tm9 3.354366 1_555
In6 Tm6 3.426814 1_554
In7 Rh0 2.815839 1_555
In7 Rh3 2.815839 1_555
In7 Tm8 3.247124 1_555
In7 Tm4 3.247124 1_555
In8 Rh1 2.706465 1_555
In8 Rh15 2.720578 1_655
In9 Rh3 2.786991 1_555
In9 Rh8 2.786991 1_655
In9 Rh9 2.881443 1_555
In9 Tm15 3.095910 1_655
In9 Tm18 3.095910 1_555
In9 Tm1 3.282058 1_655
In9 Tm0 3.334593 1_555
In9 Tm17 3.417212 1_655
In9 Tm3 3.417664 1_555
In10 Rh17 2.815839 1_555
In10 Rh16 2.815839 1_565
In10 Tm11 3.247124 1_555
In10 Tm10 3.247124 1_555
In11 Rh0 2.786991 1_555
In11 Rh16 2.786991 1_565
In11 Rh10 2.881443 1_555
In11 Tm6 3.095910 1_565
In11 Tm12 3.095910 1_555
In11 Tm9 3.282058 1_565
In11 Tm10 3.334593 1_555
In11 Tm5 3.417212 1_565
In11 Tm11 3.417664 1_555
In12 Rh2 2.854805 1_556
In12 Rh9 2.854805 1_556
In12 Rh3 2.927053 1_555
In12 In31 3.197324 1_655
In12 In17 3.197324 1_655
In12 Tm4 3.210313 1_555
In12 Tm0 3.210313 1_555
In12 In24 3.243196 1_555
In12 Tm17 3.298221 1_656
In12 In21 3.320016 1_556
In12 In16 3.320016 1_556
In12 Tm1 3.354366 1_655
In12 Tm18 3.426814 1_556
In13 Rh1 2.786991 1_555
In13 Rh11 2.786991 1_555
In13 Rh6 2.881443 1_555
In13 Tm7 3.095910 1_555
In13 Tm19 3.095910 1_555
In13 Tm9 3.282058 1_555
In13 Tm3 3.334593 1_555
In13 Tm5 3.417212 1_555
In13 Tm0 3.417664 1_555
In14 Rh1 2.815839 1_565
In14 Rh17 2.815839 1_655
In14 Tm8 3.247124 1_555
In14 Tm4 3.247124 1_555
In15 Rh10 2.854805 1_554
In15 Rh7 2.854805 1_554
In15 Rh0 2.927053 1_555
In15 In6 3.197324 1_565
In15 In29 3.197324 1_565
In15 Tm8 3.210313 1_555
In15 Tm10 3.210313 1_555
In15 In2 3.243196 1_555
In15 Tm5 3.298221 1_564
In15 In22 3.320016 1_555
In15 In21 3.320016 1_555
In15 Tm9 3.354366 1_565
In15 Tm12 3.426814 1_554
In16 Rh9 2.777767 1_555
In16 Rh6 2.777767 1_554
In16 Rh12 2.865413 1_555
In16 In24 3.073544 1_554
In16 In35 3.073544 1_555
In16 Tm18 3.135580 1_555
In16 Tm19 3.135580 1_554
In16 Tm0 3.285459 1_554
In16 Tm3 3.285459 1_555
In16 In3 3.320016 1_555
In17 Rh5 2.854805 1_556
In17 Rh9 2.854805 1_456
In17 Rh8 2.927053 1_555
In17 In5 3.197324 1_555
In17 Tm0 3.210313 1_455
In17 Tm16 3.210313 1_555
In17 In4 3.243196 1_555
In17 Tm17 3.298221 1_556
In17 In33 3.320016 1_556
In17 In37 3.320016 1_456
In17 Tm1 3.354366 1_555
In17 Tm15 3.426814 1_556
In18 Rh16 2.706465 1_555
In18 Rh15 2.720578 1_555
In18 In33 3.073544 1_555
In18 In32 3.073544 1_545
In18 In6 3.243196 1_555
In19 Rh0 2.786991 1_555
In19 Rh1 2.786991 1_565
In19 Rh7 2.881443 1_555
In19 Tm7 3.095910 1_565
In19 Tm12 3.095910 1_555
In19 Tm9 3.282058 1_565
In19 Tm8 3.334593 1_555
In19 Tm5 3.417212 1_565
In19 Tm4 3.417664 1_555
In20 Rh1 2.815839 1_555
In20 Rh8 2.815839 1_655
In20 Tm3 3.247124 1_555
In20 Tm0 3.247124 1_555
In21 Rh7 2.777767 1_554
In21 Rh2 2.777767 1_555
In21 Rh12 2.865413 1_555
In21 In24 3.073544 1_554
In21 Tm12 3.135580 1_554
In21 Tm18 3.135580 1_555
In21 Tm4 3.285459 1_554
In21 Tm8 3.285459 1_555
In22 Rh10 2.777767 1_554
In22 Rh4 2.777767 1_555
In22 Rh12 2.865413 1_555
In22 In34 3.073544 1_554
In22 Tm12 3.135580 1_554
In22 Tm2 3.135580 1_555
In22 Tm11 3.285459 1_554
In22 Tm10 3.285459 1_555
In22 In5 3.320016 1_554
In23 Rh0 2.815839 1_555
In23 Rh14 2.815839 1_555
In23 Tm10 3.247124 1_555
In23 Tm11 3.247124 1_555
In24 Rh3 2.706465 1_555
In24 Rh12 2.720578 1_556
In25 Rh17 2.706465 1_555
In25 Rh15 2.720578 1_566
In25 In32 3.073544 1_556
In25 In36 3.073544 1_456
In25 In31 3.243196 1_555
In26 Rh17 2.786991 1_555
In26 Rh14 2.786991 1_555
In26 Rh4 2.881443 1_555
In26 Tm2 3.095910 1_555
In26 Tm13 3.095910 1_555
In26 Tm1 3.282058 1_555
In26 Tm11 3.334593 1_555
In26 Tm17 3.417212 1_555
In26 Tm10 3.417664 1_555
In27 Rh14 2.815839 1_555
In27 Rh11 2.815839 1_555
In27 Tm14 3.247124 1_555
In27 Tm16 3.247124 1_555
In28 Rh17 2.786991 1_655
In28 Rh3 2.786991 1_555
In28 Rh2 2.881443 1_555
In28 Tm13 3.095910 1_655
In28 Tm18 3.095910 1_555
In28 Tm1 3.282058 1_655
In28 Tm4 3.334593 1_555
In28 Tm17 3.417212 1_655
In28 Tm8 3.417664 1_555
In29 Rh6 2.854805 1_554
In29 Rh7 2.854805 1_544
In29 Rh1 2.927053 1_555
In29 In3 3.197324 1_555
In29 Tm3 3.210313 1_555
In29 Tm8 3.210313 1_545
In29 In8 3.243196 1_555
In29 Tm5 3.298221 1_554
In29 In36 3.320016 1_545
In29 In37 3.320016 1_555
In29 Tm9 3.354366 1_555
In29 Tm7 3.426814 1_554
In30 Rh8 2.786991 1_555
In30 Rh14 2.786991 1_555
In30 Rh5 2.881443 1_555
In30 Tm2 3.095910 1_555
In30 Tm15 3.095910 1_555
In30 Tm1 3.282058 1_555
In30 Tm16 3.334593 1_555
In30 Tm17 3.417212 1_555
In30 Tm14 3.417664 1_555
In31 Rh2 2.854805 1_456
In31 Rh4 2.854805 1_556
In31 Rh17 2.927053 1_555
In31 In5 3.197324 1_555
In31 Tm11 3.210313 1_555
In31 Tm4 3.210313 1_455
In31 Tm17 3.298221 1_556
In31 In32 3.320016 1_556
In31 In36 3.320016 1_456
In31 Tm1 3.354366 1_555
In31 Tm13 3.426814 1_556
In32 Rh4 2.777767 1_555
In32 Rh10 2.777767 1_554
In32 Rh15 2.865413 1_565
In32 Tm13 3.135580 1_555
In32 Tm6 3.135580 1_564
In32 Tm11 3.285459 1_554
In32 Tm10 3.285459 1_555
In32 In6 3.320016 1_565
In33 Rh5 2.777767 1_555
In33 Rh13 2.777767 1_554
In33 Rh15 2.865413 1_555
In33 In4 3.073544 1_554
In33 Tm6 3.135580 1_554
In33 Tm15 3.135580 1_555
In33 Tm16 3.285459 1_554
In33 Tm14 3.285459 1_555
In33 In6 3.320016 1_555
In34 Rh14 2.706465 1_555
In34 Rh12 2.720578 1_556
In34 In39 3.073544 1_556
In34 In5 3.243196 1_555
In35 Rh11 2.706465 1_555
In35 Rh12 2.720578 1_555
In35 In39 3.073544 1_555
In36 Rh7 2.777767 1_554
In36 Rh2 2.777767 1_555
In36 Rh15 2.865413 1_665
In36 In8 3.073544 1_565
In36 Tm7 3.135580 1_564
In36 Tm13 3.135580 1_655
In36 Tm4 3.285459 1_554
In36 Tm8 3.285459 1_555
In37 Rh6 2.777767 1_554
In37 Rh9 2.777767 1_555
In37 Rh15 2.865413 1_655
In37 In8 3.073544 1_555
In37 In4 3.073544 1_654
In37 Tm7 3.135580 1_554
In37 Tm15 3.135580 1_655
In37 Tm0 3.285459 1_554
In37 Tm3 3.285459 1_555
In38 Rh16 2.786991 1_555
In38 Rh11 2.786991 1_555
In38 Rh13 2.881443 1_555
In38 Tm19 3.095910 1_555
In38 Tm6 3.095910 1_555
In38 Tm9 3.282058 1_555
In38 Tm14 3.334593 1_555
In38 Tm5 3.417212 1_555
In38 Tm16 3.417664 1_555
In39 Rh5 2.777767 1_555
In39 Rh13 2.777767 1_554
In39 Rh12 2.865413 1_555
In39 Tm19 3.135580 1_554
In39 Tm2 3.135580 1_555
In39 Tm16 3.285459 1_554
In39 Tm14 3.285459 1_555
In39 In5 3.320016 1_554
Rh0 Tm9 3.003767 1_565
Rh0 Tm8 3.024610 1_555
Rh0 Tm10 3.024610 1_555
Rh1 Tm9 3.003767 1_555
Rh1 Tm8 3.024610 1_545
Rh1 Tm3 3.024610 1_555
Rh2 Tm18 2.907324 1_555
Rh2 Tm13 2.907324 1_655
Rh2 Tm17 3.036266 1_655
Rh2 Tm8 3.080312 1_555
Rh3 Tm1 3.003767 1_655
Rh3 Tm0 3.024610 1_555
Rh3 Tm4 3.024610 1_555
Rh4 Tm2 2.907324 1_555
Rh4 Tm13 2.907324 1_555
Rh4 Tm17 3.036266 1_555
Rh4 Tm10 3.080312 1_555
Rh5 Tm2 2.907324 1_555
Rh5 Tm15 2.907324 1_555
Rh5 Tm17 3.036266 1_555
Rh5 Tm14 3.080312 1_555
Rh6 Tm19 2.907324 1_555
Rh6 Tm7 2.907324 1_555
Rh6 Tm5 3.036266 1_555
Rh6 Tm0 3.080312 1_555
Rh7 Tm12 2.907324 1_555
Rh7 Tm7 2.907324 1_565
Rh7 Tm5 3.036266 1_565
Rh7 Tm4 3.080312 1_555
Rh8 Tm1 3.003767 1_555
Rh8 Tm0 3.024610 1_455
Rh8 Tm16 3.024610 1_555
Rh9 Tm15 2.907324 1_655
Rh9 Tm18 2.907324 1_555
Rh9 Tm17 3.036266 1_655
Rh9 Tm3 3.080312 1_555
Rh10 Tm6 2.907324 1_565
Rh10 Tm12 2.907324 1_555
Rh10 Tm5 3.036266 1_565
Rh10 Tm11 3.080312 1_555
Rh11 Tm9 3.003767 1_555
Rh11 Tm3 3.024610 1_555
Rh11 Tm14 3.024610 1_555
Rh13 Tm19 2.907324 1_555
Rh13 Tm6 2.907324 1_555
Rh13 Tm5 3.036266 1_555
Rh13 Tm16 3.080312 1_555
Rh14 Tm1 3.003767 1_555
Rh14 Tm11 3.024610 1_555
Rh14 Tm16 3.024610 1_555
Rh16 Tm9 3.003767 1_555
Rh16 Tm14 3.024610 1_555
Rh16 Tm10 3.024610 1_545
Rh17 Tm1 3.003767 1_555
Rh17 Tm4 3.024610 1_455
Rh17 Tm11 3.024610 1_555
