# generated using pymatgen
data_RbNa5(WN3)2
_symmetry_space_group_name_H-M   'P 1'
_cell_length_a   10.38204400
_cell_length_b   9.42820100
_cell_length_c   19.34862815
_cell_angle_alpha   89.87760330
_cell_angle_beta   90.00000000
_cell_angle_gamma   90.00000000
_symmetry_Int_Tables_number   1
_chemical_formula_structural   RbNa5(WN3)2
_chemical_formula_sum   'Rb8 Na40 W16 N48'
_cell_volume   1893.91675026
_cell_formula_units_Z   8
loop_
 _symmetry_equiv_pos_site_id
 _symmetry_equiv_pos_as_xyz
  1  'x, y, z'
loop_
 _atom_site_type_symbol
 _atom_site_label
 _atom_site_symmetry_multiplicity
 _atom_site_fract_x
 _atom_site_fract_y
 _atom_site_fract_z
 _atom_site_occupancy
  Rb  Rb0  1  0.76890300  0.61584900  0.41793900  1
  Rb  Rb1  1  0.26890300  0.38415100  0.08206100  1
  Rb  Rb2  1  0.23360100  0.86945300  0.03841400  1
  Rb  Rb3  1  0.23109700  0.38415100  0.58206100  1
  Rb  Rb4  1  0.73360100  0.13054700  0.46158600  1
  Rb  Rb5  1  0.76639900  0.13054700  0.96158600  1
  Rb  Rb6  1  0.73109700  0.61584900  0.91793900  1
  Rb  Rb7  1  0.26639900  0.86945300  0.53841400  1
  Na  Na0  1  0.49547600  0.37226300  0.20343400  1
  Na  Na1  1  0.98072900  0.87383200  0.44803800  1
  Na  Na2  1  0.50921200  0.10678400  0.31794700  1
  Na  Na3  1  0.51016600  0.36624700  0.67128400  1
  Na  Na4  1  0.51182000  0.86884400  0.44120300  1
  Na  Na5  1  0.50286900  0.61882000  0.56295500  1
  Na  Na6  1  0.50453900  0.62224000  0.06420300  1
  Na  Na7  1  0.32993800  0.87832900  0.84119300  1
  Na  Na8  1  0.33159100  0.37854900  0.78393900  1
  Na  Na9  1  0.83159100  0.62145100  0.71606100  1
  Na  Na10  1  0.01927100  0.12616800  0.55196200  1
  Na  Na11  1  0.16840900  0.37854900  0.28393900  1
  Na  Na12  1  0.01016600  0.63375300  0.82871600  1
  Na  Na13  1  0.00452400  0.37226300  0.70343400  1
  Na  Na14  1  0.99547600  0.62773700  0.29656600  1
  Na  Na15  1  0.48983400  0.63375300  0.32871600  1
  Na  Na16  1  0.00270500  0.87476300  0.67987300  1
  Na  Na17  1  0.67006200  0.12167100  0.15880700  1
  Na  Na18  1  0.99078800  0.10678400  0.81794700  1
  Na  Na19  1  0.50452400  0.62773700  0.79656600  1
  Na  Na20  1  0.01182000  0.13115600  0.05879700  1
  Na  Na21  1  0.49078800  0.89321600  0.68205300  1
  Na  Na22  1  0.50270500  0.12523700  0.82012700  1
  Na  Na23  1  0.66840900  0.62145100  0.21606100  1
  Na  Na24  1  0.48818000  0.13115600  0.55879700  1
  Na  Na25  1  0.99546100  0.62224000  0.56420300  1
  Na  Na26  1  0.51927100  0.87383200  0.94803800  1
  Na  Na27  1  0.49713100  0.38118000  0.43704500  1
  Na  Na28  1  0.82993800  0.12167100  0.65880700  1
  Na  Na29  1  0.98818000  0.86884400  0.94120300  1
  Na  Na30  1  0.99729500  0.12523700  0.32012700  1
  Na  Na31  1  0.00453900  0.37776000  0.43579700  1
  Na  Na32  1  0.00921200  0.89321600  0.18205300  1
  Na  Na33  1  0.00286900  0.38118000  0.93704500  1
  Na  Na34  1  0.49546100  0.37776000  0.93579700  1
  Na  Na35  1  0.99713100  0.61882000  0.06295500  1
  Na  Na36  1  0.48072900  0.12616800  0.05196200  1
  Na  Na37  1  0.17006200  0.87832900  0.34119300  1
  Na  Na38  1  0.49729500  0.87476300  0.17987300  1
  Na  Na39  1  0.98983400  0.36624700  0.17128400  1
  W  W0  1  0.23881900  0.17102400  0.90581900  1
  W  W1  1  0.76594300  0.92060700  0.28829100  1
  W  W2  1  0.24528900  0.57743100  0.41261300  1
  W  W3  1  0.26118100  0.17102400  0.40581900  1
  W  W4  1  0.73881900  0.82897600  0.59418100  1
  W  W5  1  0.76118100  0.82897600  0.09418100  1
  W  W6  1  0.23738500  0.67277100  0.71728900  1
  W  W7  1  0.25471100  0.57743100  0.91261300  1
  W  W8  1  0.73738500  0.32722900  0.78271100  1
  W  W9  1  0.73405700  0.92060700  0.78829100  1
  W  W10  1  0.23405700  0.07939300  0.71170900  1
  W  W11  1  0.26594300  0.07939300  0.21170900  1
  W  W12  1  0.76261500  0.32722900  0.28271100  1
  W  W13  1  0.74528900  0.42256900  0.08738700  1
  W  W14  1  0.75471100  0.42256900  0.58738700  1
  W  W15  1  0.26261500  0.67277100  0.21728900  1
  N  N0  1  0.36951300  0.57961700  0.67342100  1
  N  N1  1  0.57614800  0.38428400  0.81399500  1
  N  N2  1  0.75718600  0.36916200  0.68516700  1
  N  N3  1  0.10411500  0.64051900  0.95131200  1
  N  N4  1  0.10443500  0.65420500  0.45635800  1
  N  N5  1  0.92385200  0.38428400  0.31399500  1
  N  N6  1  0.24019000  0.37312400  0.41849600  1
  N  N7  1  0.87279800  0.92699700  0.55447600  1
  N  N8  1  0.25981000  0.37312400  0.91849600  1
  N  N9  1  0.92746600  0.86964800  0.32099200  1
  N  N10  1  0.91865400  0.88811100  0.06162000  1
  N  N11  1  0.12720200  0.07300300  0.44552400  1
  N  N12  1  0.86951300  0.42038300  0.82657900  1
  N  N13  1  0.63048700  0.42038300  0.32657900  1
  N  N14  1  0.37279800  0.07300300  0.94552400  1
  N  N15  1  0.60411500  0.35948100  0.54868800  1
  N  N16  1  0.08134600  0.11188900  0.93838000  1
  N  N17  1  0.75981000  0.62687600  0.58150400  1
  N  N18  1  0.74959900  0.86766300  0.19227600  1
  N  N19  1  0.86429000  0.83284400  0.83573500  1
  N  N20  1  0.39588500  0.64051900  0.45131200  1
  N  N21  1  0.74019000  0.62687600  0.08150400  1
  N  N22  1  0.57253400  0.86964800  0.82099200  1
  N  N23  1  0.89556500  0.34579500  0.54364200  1
  N  N24  1  0.24959900  0.13233700  0.30772400  1
  N  N25  1  0.60443500  0.34579500  0.04364200  1
  N  N26  1  0.58134600  0.88811100  0.56162000  1
  N  N27  1  0.24281400  0.63083800  0.31483300  1
  N  N28  1  0.62720200  0.92699700  0.05447600  1
  N  N29  1  0.89588500  0.35948100  0.04868800  1
  N  N30  1  0.24607500  0.87565300  0.20538500  1
  N  N31  1  0.13048700  0.57961700  0.17342100  1
  N  N32  1  0.74281400  0.36916200  0.18516700  1
  N  N33  1  0.75392500  0.12434700  0.79461500  1
  N  N34  1  0.63571000  0.83284400  0.33573500  1
  N  N35  1  0.13571000  0.16715600  0.16426500  1
  N  N36  1  0.75040100  0.86766300  0.69227600  1
  N  N37  1  0.25040100  0.13233700  0.80772400  1
  N  N38  1  0.74607500  0.12434700  0.29461500  1
  N  N39  1  0.41865400  0.11188900  0.43838000  1
  N  N40  1  0.07614800  0.61571600  0.68600500  1
  N  N41  1  0.36429000  0.16715600  0.66426500  1
  N  N42  1  0.39556500  0.65420500  0.95635800  1
  N  N43  1  0.25718600  0.63083800  0.81483300  1
  N  N44  1  0.25392500  0.87565300  0.70538500  1
  N  N45  1  0.07253400  0.13035200  0.67900800  1
  N  N46  1  0.42385200  0.61571600  0.18600500  1
  N  N47  1  0.42746600  0.13035200  0.17900800  1
loop_
_geom_bond_atom_site_label_1
_geom_bond_atom_site_label_2
_geom_bond_distance
_geom_bond_site_symmetry_2
N0 W6 1.837583 1_555
N0 Na3 2.486234 1_555
N0 Na5 2.572631 1_555
N0 Na19 2.802210 1_555
N0 Na8 2.881672 1_555
N0 Rb3 2.932574 1_555
N1 W8 1.859925 1_555
N1 Na19 2.435544 1_555
N1 Na34 2.501788 1_555
N1 Na22 2.561111 1_555
N1 Na8 2.605337 1_555
N1 Na3 2.850396 1_555
N2 W8 1.938411 1_555
N2 W14 1.956899 1_555
N2 Na28 2.506082 1_555
N2 Na9 2.572546 1_555
N2 Na3 2.578754 1_555
N2 Na13 2.592257 1_655
N3 W7 1.833268 1_555
N3 Na35 2.437180 1_456
N3 Na29 2.473723 1_455
N3 Na12 2.565692 1_555
N3 Na33 2.676284 1_555
N3 Rb2 3.053172 1_556
N4 W2 1.838869 1_555
N4 Na25 2.392125 1_455
N4 Na1 2.441663 1_455
N4 Na31 2.833996 1_555
N4 Rb7 3.079032 1_555
N5 W12 1.859925 1_555
N5 Na14 2.435544 1_555
N5 Na31 2.501788 1_655
N5 Na30 2.561111 1_555
N5 Na11 2.605337 1_655
N5 Na39 2.850396 1_555
N6 W2 1.930091 1_555
N6 W3 1.933999 1_555
N6 Na31 2.469734 1_555
N6 Na27 2.692701 1_555
N6 Na11 2.708431 1_555
N6 Rb3 3.168094 1_555
N7 W4 1.837401 1_555
N7 Na1 2.398443 1_555
N7 Na10 2.416753 1_665
N7 Na28 2.767239 1_565
N7 Na16 2.818360 1_655
N7 Rb4 2.997828 1_565
N8 W7 1.930091 1_555
N8 W0 1.933999 1_555
N8 Na34 2.469734 1_555
N8 Na33 2.692701 1_555
N8 Na8 2.708431 1_555
N8 Rb1 3.168094 1_556
N9 W1 1.855261 1_555
N9 Na14 2.434851 1_555
N9 Na30 2.516457 1_565
N9 Na1 2.519987 1_555
N9 Na37 2.550131 1_655
N9 Na32 2.827356 1_655
N10 W5 1.838241 1_555
N10 Na29 2.446280 1_554
N10 Na20 2.487749 1_665
N10 Na32 2.513289 1_655
N10 Na35 2.666528 1_555
N11 W3 1.837401 1_555
N11 Na10 2.398443 1_555
N11 Na1 2.416753 1_445
N11 Na37 2.767239 1_545
N11 Na30 2.818360 1_455
N11 Rb7 2.997828 1_545
N12 W8 1.837583 1_555
N12 Na12 2.486234 1_655
N12 Na33 2.572631 1_655
N12 Na13 2.802210 1_655
N12 Na9 2.881672 1_555
N12 Rb6 2.932574 1_555
N13 W12 1.837583 1_555
N13 Na15 2.486234 1_555
N13 Na27 2.572631 1_555
N13 Na0 2.802210 1_555
N13 Na23 2.881672 1_555
N13 Rb0 2.932574 1_555
N14 W0 1.837401 1_555
N14 Na36 2.398443 1_556
N14 Na26 2.416753 1_545
N14 Na7 2.767239 1_545
N14 Na22 2.818360 1_555
N14 Rb2 2.997828 1_546
N15 W14 1.833268 1_555
N15 Na27 2.437180 1_555
N15 Na24 2.473723 1_555
N15 Na3 2.565692 1_555
N15 Na5 2.676284 1_555
N15 Rb4 3.053172 1_555
N16 W0 1.838241 1_555
N16 Na20 2.446280 1_556
N16 Na29 2.487749 1_445
N16 Na18 2.513289 1_455
N16 Na33 2.666528 1_555
N17 W14 1.930091 1_555
N17 W4 1.933999 1_555
N17 Na25 2.469734 1_555
N17 Na5 2.692701 1_555
N17 Na9 2.708431 1_555
N17 Rb0 3.168094 1_555
N18 W1 1.932146 1_555
N18 W5 1.937234 1_555
N18 Na23 2.511243 1_555
N18 Na17 2.613400 1_565
N18 Na38 2.631240 1_555
N18 Na32 2.713241 1_655
N19 W9 1.830912 1_555
N19 Na12 2.415907 1_655
N19 Na29 2.436565 1_555
N19 Na18 2.917206 1_565
N19 Rb6 2.934906 1_555
N20 W2 1.833268 1_555
N20 Na5 2.437180 1_555
N20 Na4 2.473723 1_555
N20 Na15 2.565692 1_555
N20 Na27 2.676284 1_555
N20 Rb7 3.053172 1_555
N21 W13 1.930091 1_555
N21 W5 1.933999 1_555
N21 Na6 2.469734 1_555
N21 Na35 2.692701 1_555
N21 Na23 2.708431 1_555
N21 Rb6 3.168094 1_554
N22 W9 1.855261 1_555
N22 Na19 2.434851 1_555
N22 Na22 2.516457 1_565
N22 Na26 2.519987 1_555
N22 Na7 2.550131 1_555
N22 Na21 2.827356 1_555
N23 W14 1.838869 1_555
N23 Na31 2.392125 1_655
N23 Na10 2.441663 1_655
N23 Na25 2.833996 1_555
N23 Rb4 3.079032 1_555
N24 W11 1.932146 1_555
N24 W3 1.937234 1_555
N24 Na11 2.511243 1_555
N24 Na37 2.613400 1_545
N24 Na30 2.631240 1_455
N24 Na2 2.713241 1_555
N25 W13 1.838869 1_555
N25 Na34 2.392125 1_554
N25 Na36 2.441663 1_555
N25 Na6 2.833996 1_555
N25 Rb5 3.079032 1_554
N26 W4 1.838241 1_555
N26 Na4 2.446280 1_555
N26 Na24 2.487749 1_565
N26 Na21 2.513289 1_555
N26 Na5 2.666528 1_555
N27 W15 1.938411 1_555
N27 W2 1.956899 1_555
N27 Na37 2.506082 1_555
N27 Na11 2.572546 1_555
N27 Na15 2.578754 1_555
N27 Na14 2.592257 1_455
N28 W5 1.837401 1_555
N28 Na26 2.398443 1_554
N28 Na36 2.416753 1_565
N28 Na17 2.767239 1_565
N28 Na38 2.818360 1_555
N28 Rb5 2.997828 1_564
N29 W13 1.833268 1_555
N29 Na33 2.437180 1_654
N29 Na20 2.473723 1_655
N29 Na39 2.565692 1_555
N29 Na35 2.676284 1_555
N29 Rb5 3.053172 1_554
N30 W15 1.933780 1_555
N30 W11 1.936075 1_565
N30 Na32 2.505630 1_555
N30 Na38 2.654494 1_555
N30 Na37 2.743813 1_555
N30 Rb2 3.233908 1_555
N31 W15 1.837583 1_555
N31 Na39 2.486234 1_455
N31 Na35 2.572631 1_455
N31 Na14 2.802210 1_455
N31 Na11 2.881672 1_555
N31 Rb1 2.932574 1_555
N32 W12 1.938411 1_555
N32 W13 1.956899 1_555
N32 Na17 2.506082 1_555
N32 Na23 2.572546 1_555
N32 Na39 2.578754 1_555
N32 Na0 2.592257 1_555
N33 W8 1.933780 1_555
N33 W9 1.936075 1_545
N33 Na18 2.505630 1_555
N33 Na22 2.654494 1_555
N33 Na28 2.743813 1_555
N33 Rb5 3.233908 1_555
N34 W1 1.830912 1_555
N34 Na15 2.415907 1_555
N34 Na4 2.436565 1_555
N34 Na2 2.917206 1_565
N34 Rb0 2.934906 1_555
N35 W11 1.830912 1_555
N35 Na39 2.415907 1_455
N35 Na20 2.436565 1_555
N35 Na32 2.917206 1_545
N35 Rb1 2.934906 1_555
N36 W9 1.932146 1_555
N36 W4 1.937234 1_555
N36 Na9 2.511243 1_555
N36 Na28 2.613400 1_565
N36 Na16 2.631240 1_655
N36 Na21 2.713241 1_555
N37 W10 1.932146 1_555
N37 W0 1.937234 1_555
N37 Na8 2.511243 1_555
N37 Na7 2.613400 1_545
N37 Na22 2.631240 1_555
N37 Na18 2.713241 1_455
N38 W12 1.933780 1_555
N38 W1 1.936075 1_545
N38 Na2 2.505630 1_555
N38 Na30 2.654494 1_555
N38 Na17 2.743813 1_555
N38 Rb4 3.233908 1_555
N39 W3 1.838241 1_555
N39 Na24 2.446280 1_555
N39 Na4 2.487749 1_545
N39 Na2 2.513289 1_555
N39 Na27 2.666528 1_555
N40 W6 1.859925 1_555
N40 Na13 2.435544 1_555
N40 Na25 2.501788 1_455
N40 Na16 2.561111 1_555
N40 Na9 2.605337 1_455
N40 Na12 2.850396 1_555
N41 W10 1.830912 1_555
N41 Na3 2.415907 1_555
N41 Na24 2.436565 1_555
N41 Na21 2.917206 1_545
N41 Rb3 2.934906 1_555
N42 W7 1.838869 1_555
N42 Na6 2.392125 1_556
N42 Na26 2.441663 1_555
N42 Na34 2.833996 1_555
N42 Rb2 3.079032 1_556
N43 W6 1.938411 1_555
N43 W7 1.956899 1_555
N43 Na7 2.506082 1_555
N43 Na8 2.572546 1_555
N43 Na12 2.578754 1_555
N43 Na19 2.592257 1_555
N44 W6 1.933780 1_555
N44 W10 1.936075 1_565
N44 Na21 2.505630 1_555
N44 Na16 2.654494 1_555
N44 Na7 2.743813 1_555
N44 Rb7 3.233908 1_555
N45 W10 1.855261 1_555
N45 Na13 2.434851 1_555
N45 Na16 2.516457 1_545
N45 Na10 2.519987 1_555
N45 Na28 2.550131 1_455
N45 Na18 2.827356 1_455
N46 W15 1.859925 1_555
N46 Na0 2.435544 1_555
N46 Na6 2.501788 1_555
N46 Na38 2.561111 1_555
N46 Na23 2.605337 1_555
N46 Na15 2.850396 1_555
N47 W11 1.855261 1_555
N47 Na0 2.434851 1_555
N47 Na38 2.516457 1_545
N47 Na36 2.519987 1_555
N47 Na17 2.550131 1_555
N47 Na2 2.827356 1_555
