# generated using pymatgen
data_Ti4Cd(CuO4)3
_symmetry_space_group_name_H-M   'P 1'
_cell_length_a   6.45866851
_cell_length_b   6.45866851
_cell_length_c   6.45866851
_cell_angle_alpha   109.47122063
_cell_angle_beta   109.47122063
_cell_angle_gamma   109.47122063
_symmetry_Int_Tables_number   1
_chemical_formula_structural   Ti4Cd(CuO4)3
_chemical_formula_sum   'Ti4 Cd1 Cu3 O12'
_cell_volume   207.39920787
_cell_formula_units_Z   1
loop_
 _symmetry_equiv_pos_site_id
 _symmetry_equiv_pos_as_xyz
  1  'x, y, z'
loop_
 _atom_site_type_symbol
 _atom_site_label
 _atom_site_symmetry_multiplicity
 _atom_site_fract_x
 _atom_site_fract_y
 _atom_site_fract_z
 _atom_site_occupancy
  Ti  Ti0  1  0.50000000  0.50000000  0.50000000  1
  Ti  Ti1  1  0.50000000  0.00000000  0.00000000  1
  Ti  Ti2  1  0.00000000  0.50000000  0.00000000  1
  Ti  Ti3  1  0.00000000  0.00000000  0.50000000  1
  Cd  Cd0  1  0.00000000  0.00000000  0.00000000  1
  Cu  Cu0  1  0.50000000  0.50000000  0.00000000  1
  Cu  Cu1  1  0.50000000  0.00000000  0.50000000  1
  Cu  Cu2  1  0.00000000  0.50000000  0.50000000  1
  O  O0  1  0.17793700  0.30469600  0.48263300  1
  O  O1  1  0.69530400  0.87324100  0.17793700  1
  O  O2  1  0.12675900  0.82206300  0.30469600  1
  O  O3  1  0.69530400  0.51736700  0.82206300  1
  O  O4  1  0.87324100  0.17793700  0.69530400  1
  O  O5  1  0.30469600  0.12675900  0.82206300  1
  O  O6  1  0.51736700  0.82206300  0.69530400  1
  O  O7  1  0.48263300  0.17793700  0.30469600  1
  O  O8  1  0.30469600  0.48263300  0.17793700  1
  O  O9  1  0.17793700  0.69530400  0.87324100  1
  O  O10  1  0.82206300  0.30469600  0.12675900  1
  O  O11  1  0.82206300  0.69530400  0.51736700  1
loop_
_geom_bond_atom_site_label_1
_geom_bond_atom_site_label_2
_geom_bond_distance
_geom_bond_site_symmetry_2
Cd0 O5 2.631475 1_554
Cd0 O10 2.631475 1_455
Cd0 O2 2.631475 1_545
Cd0 O0 2.631475 1_555
Cd0 O8 2.631475 1_555
Cd0 O7 2.631475 1_555
Cd0 O9 2.631475 1_544
Cd0 O11 2.631475 1_444
Cd0 O4 2.631475 1_454
Cd0 O1 2.631475 1_445
Cd0 O3 2.631475 1_444
Cd0 O6 2.631475 1_444
Cu0 O1 1.970409 1_555
Cu0 O3 1.970409 1_554
Cu0 O8 1.970409 1_555
Cu0 O5 1.970409 1_554
Cu1 O6 1.970409 1_545
Cu1 O4 1.970409 1_555
Cu1 O7 1.970409 1_555
Cu1 O2 1.970409 1_545
Cu2 O11 1.970409 1_455
Cu2 O9 1.970409 1_555
Cu2 O0 1.970409 1_555
Cu2 O10 1.970409 1_455
O0 Ti3 1.982783 1_555
O0 Ti0 1.982783 1_555
O1 Ti1 1.982783 1_565
O1 Ti3 1.982783 1_665
O2 Ti3 1.982783 1_565
O2 Ti2 1.982783 1_555
O3 Ti0 1.982783 1_555
O3 Ti2 1.982783 1_656
O4 Ti3 1.982783 1_655
O4 Ti2 1.982783 1_656
O5 Ti3 1.982783 1_555
O5 Ti1 1.982783 1_556
O6 Ti0 1.982783 1_555
O6 Ti1 1.982783 1_566
O7 Ti1 1.982783 1_555
O7 Ti0 1.982783 1_555
O8 Ti2 1.982783 1_555
O8 Ti0 1.982783 1_555
O9 Ti2 1.982783 1_556
O9 Ti1 1.982783 1_566
O10 Ti2 1.982783 1_655
O10 Ti1 1.982783 1_555
O11 Ti0 1.982783 1_555
O11 Ti3 1.982783 1_665
