# generated using pymatgen
data_KSbF6
_symmetry_space_group_name_H-M   'P 1'
_cell_length_a   5.18847610
_cell_length_b   5.18847610
_cell_length_c   9.70642894
_cell_angle_alpha   90.00000000
_cell_angle_beta   90.00000000
_cell_angle_gamma   90.00000000
_symmetry_Int_Tables_number   1
_chemical_formula_structural   KSbF6
_chemical_formula_sum   'K2 Sb2 F12'
_cell_volume   261.29982602
_cell_formula_units_Z   2
loop_
 _symmetry_equiv_pos_site_id
 _symmetry_equiv_pos_as_xyz
  1  'x, y, z'
loop_
 _atom_site_type_symbol
 _atom_site_label
 _atom_site_symmetry_multiplicity
 _atom_site_fract_x
 _atom_site_fract_y
 _atom_site_fract_z
 _atom_site_occupancy
  K  K0  1  0.50000000  0.50000000  0.75000000  1
  K  K1  1  0.50000000  0.50000000  0.25000000  1
  Sb  Sb0  1  0.00000000  -0.00000000  -0.00000000  1
  Sb  Sb1  1  0.00000000  -0.00000000  0.50000000  1
  F  F0  1  0.81701865  0.18298135  0.13713732  1
  F  F1  1  0.81701865  0.81701865  0.36286268  1
  F  F2  1  0.25932278  0.74067722  0.50000000  1
  F  F3  1  0.18298135  0.18298135  0.36286268  1
  F  F4  1  0.18298135  0.81701865  0.86286268  1
  F  F5  1  0.81701865  0.81701865  0.63713732  1
  F  F6  1  0.25932278  0.25932278  -0.00000000  1
  F  F7  1  0.74067722  0.25932278  0.50000000  1
  F  F8  1  0.18298135  0.18298135  0.63713732  1
  F  F9  1  0.18298135  0.81701865  0.13713732  1
  F  F10  1  0.81701865  0.18298135  0.86286268  1
  F  F11  1  0.74067722  0.74067722  -0.00000000  1
loop_
_geom_bond_atom_site_label_1
_geom_bond_atom_site_label_2
_geom_bond_distance
_geom_bond_site_symmetry_2
F0 Sb0 1.890651 1_655
F0 K1 2.571211 1_555
F1 Sb1 1.890651 1_665
F1 K1 2.571211 1_555
F2 Sb1 1.902810 1_565
F2 K0 3.001194 1_555
F2 K1 3.001194 1_555
F3 Sb1 1.890651 1_555
F3 K1 2.571211 1_555
F4 Sb0 1.890651 1_566
F4 K0 2.571211 1_555
F5 Sb1 1.890651 1_665
F5 K0 2.571211 1_555
F6 Sb0 1.902810 1_555
F6 K0 3.001194 1_554
F6 K1 3.001194 1_555
F7 Sb1 1.902810 1_655
F7 K0 3.001194 1_555
F7 K1 3.001194 1_555
F8 Sb1 1.890651 1_555
F8 K0 2.571211 1_555
F9 Sb0 1.890651 1_565
F9 K1 2.571211 1_555
F10 Sb0 1.890651 1_656
F10 K0 2.571211 1_555
F11 Sb0 1.902810 1_665
F11 K0 3.001194 1_554
F11 K1 3.001194 1_555
