# generated using pymatgen
data_ZnS
_symmetry_space_group_name_H-M   'P 1'
_cell_length_a   3.80954053
_cell_length_b   3.80954005
_cell_length_c   43.62732603
_cell_angle_alpha   90.00000000
_cell_angle_beta   90.00000000
_cell_angle_gamma   120.00000424
_symmetry_Int_Tables_number   1
_chemical_formula_structural   ZnS
_chemical_formula_sum   'Zn14 S14'
_cell_volume   548.32033293
_cell_formula_units_Z   14
loop_
 _symmetry_equiv_pos_site_id
 _symmetry_equiv_pos_as_xyz
  1  'x, y, z'
loop_
 _atom_site_type_symbol
 _atom_site_label
 _atom_site_symmetry_multiplicity
 _atom_site_fract_x
 _atom_site_fract_y
 _atom_site_fract_z
 _atom_site_occupancy
  Zn  Zn0  1  0.66666700  0.33333300  0.14290554  1
  Zn  Zn1  1  0.33333300  0.66666700  0.07146361  1
  Zn  Zn2  1  0.66666700  0.33333300  0.57142373  1
  Zn  Zn3  1  0.66666700  0.33333300  0.78569168  1
  Zn  Zn4  1  0.00000000  0.00000000  0.71424838  1
  Zn  Zn5  1  0.00000000  0.00000000  0.28567159  1
  Zn  Zn6  1  0.33333300  0.66666700  0.21434975  1
  Zn  Zn7  1  0.33333300  0.66666700  0.64294581  1
  Zn  Zn8  1  0.00000000  0.00000000  0.42857020  1
  Zn  Zn9  1  0.66666700  0.33333300  0.92862341  1
  Zn  Zn10  1  0.33333300  0.66666700  0.49990914  1
  Zn  Zn11  1  0.66666700  0.33333300  0.35716375  1
  Zn  Zn12  1  -0.00000000  0.00000000  0.00009102  1
  Zn  Zn13  1  -0.00000000  0.00000000  0.85718833  1
  S  S0  1  -0.00000000  0.00000000  0.76775249  1
  S  S1  1  0.66666700  0.33333300  0.98220877  1
  S  S2  1  0.66666700  0.33333300  0.19648260  1
  S  S3  1  0.33333300  0.66666700  0.69642998  1
  S  S4  1  -0.00000000  0.00000000  0.91071683  1
  S  S5  1  -0.00000000  0.00000000  0.48206335  1
  S  S6  1  0.66666700  0.33333300  0.41075042  1
  S  S7  1  -0.00000000  0.00000000  0.33919653  1
  S  S8  1  0.33333300  0.66666700  0.55343138  1
  S  S9  1  0.66666700  0.33333300  0.83926668  1
  S  S10  1  -0.00000000  0.00000000  0.05360962  1
  S  S11  1  0.33333300  0.66666700  0.26783482  1
  S  S12  1  0.66666700  0.33333300  0.62503756  1
  S  S13  1  0.33333300  0.66666700  0.12496805  1
loop_
_geom_bond_atom_site_label_1
_geom_bond_atom_site_label_2
_geom_bond_distance
_geom_bond_site_symmetry_2
S0 Zn4 2.334241 1_555
S0 Zn3 2.334533 1_455
S0 Zn3 2.334536 1_445
S0 Zn3 2.334537 1_555
S1 Zn12 2.333702 1_656
S1 Zn12 2.333705 1_666
S1 Zn12 2.333705 1_556
S1 Zn9 2.337786 1_555
S2 Zn6 2.333481 1_545
S2 Zn6 2.333482 1_655
S2 Zn6 2.333488 1_555
S2 Zn0 2.337424 1_555
S3 Zn4 2.332772 1_565
S3 Zn4 2.332775 1_555
S3 Zn4 2.332775 1_665
S3 Zn7 2.333371 1_555
S4 Zn9 2.334057 1_455
S4 Zn9 2.334060 1_445
S4 Zn9 2.334060 1_555
S4 Zn13 2.335305 1_555
S5 Zn10 2.333171 1_545
S5 Zn10 2.333173 1_555
S5 Zn10 2.333174 1_445
S5 Zn8 2.333763 1_555
S6 Zn8 2.332792 1_655
S6 Zn8 2.332795 1_665
S6 Zn8 2.332795 1_555
S6 Zn11 2.337843 1_555
S7 Zn11 2.334944 1_455
S7 Zn11 2.334947 1_445
S7 Zn11 2.334947 1_555
S7 Zn5 2.335150 1_555
S8 Zn10 2.335032 1_555
S8 Zn2 2.335312 1_565
S8 Zn2 2.335312 1_455
S8 Zn2 2.335318 1_555
S9 Zn13 2.334277 1_655
S9 Zn13 2.334280 1_665
S9 Zn13 2.334280 1_555
S9 Zn3 2.337334 1_555
S10 Zn1 2.333290 1_545
S10 Zn1 2.333293 1_555
S10 Zn1 2.333293 1_445
S10 Zn12 2.334873 1_555
S11 Zn5 2.333039 1_565
S11 Zn5 2.333042 1_555
S11 Zn5 2.333042 1_665
S11 Zn6 2.333411 1_555
S12 Zn7 2.334081 1_545
S12 Zn7 2.334081 1_655
S12 Zn7 2.334088 1_555
S12 Zn2 2.339028 1_555
S13 Zn1 2.334256 1_555
S13 Zn0 2.334508 1_565
S13 Zn0 2.334509 1_455
S13 Zn0 2.334515 1_555
