# generated using pymatgen
data_TbGa2Co3
_symmetry_space_group_name_H-M   'P 1'
_cell_length_a   5.19069207
_cell_length_b   5.18136931
_cell_length_c   3.78700536
_cell_angle_alpha   90.00000000
_cell_angle_beta   90.00000000
_cell_angle_gamma   119.93671494
_symmetry_Int_Tables_number   1
_chemical_formula_structural   TbGa2Co3
_chemical_formula_sum   'Tb1 Ga2 Co3'
_cell_volume   88.26183719
_cell_formula_units_Z   1
loop_
 _symmetry_equiv_pos_site_id
 _symmetry_equiv_pos_as_xyz
  1  'x, y, z'
loop_
 _atom_site_type_symbol
 _atom_site_label
 _atom_site_symmetry_multiplicity
 _atom_site_fract_x
 _atom_site_fract_y
 _atom_site_fract_z
 _atom_site_occupancy
  Tb  Tb0  1  -0.00000000  0.00000000  0.00000000  1
  Ga  Ga0  1  0.66570080  0.33282781  -0.00000000  1
  Ga  Ga1  1  0.33429920  0.66717219  -0.00000000  1
  Co  Co0  1  0.50000000  0.50000000  0.50000000  1
  Co  Co1  1  -0.00000000  0.50000000  0.50000000  1
  Co  Co2  1  0.50000000  0.00000000  0.50000000  1
loop_
_geom_bond_atom_site_label_1
_geom_bond_atom_site_label_2
_geom_bond_distance
_geom_bond_site_symmetry_2
Ga0 Tb0 2.994412 1_555
Ga0 Tb0 2.995279 1_655
Ga0 Tb0 2.995658 1_665
Ga1 Tb0 2.994412 1_665
Ga1 Tb0 2.995279 1_565
Ga1 Tb0 2.995658 1_555
Co0 Ga0 2.412255 1_556
Co0 Ga1 2.412255 1_555
Co0 Ga0 2.412255 1_555
Co0 Ga1 2.412255 1_556
Co0 Co2 2.590685 1_555
Co0 Co2 2.590685 1_565
Co0 Co1 2.595346 1_655
Co0 Co1 2.595346 1_555
Co0 Tb0 3.212781 1_666
Co0 Tb0 3.212781 1_665
Co0 Tb0 3.212781 1_555
Co0 Tb0 3.212781 1_556
Co1 Ga1 2.417961 1_556
Co1 Ga0 2.417961 1_455
Co1 Ga1 2.417961 1_555
Co1 Ga0 2.417961 1_456
Co1 Co2 2.595498 1_455
Co1 Co2 2.595498 1_565
Co1 Tb0 3.208894 1_565
Co1 Tb0 3.208894 1_566
Co1 Tb0 3.208894 1_555
Co1 Tb0 3.208894 1_556
Co2 Ga1 2.412184 1_546
Co2 Ga1 2.412184 1_545
Co2 Ga0 2.412184 1_556
Co2 Ga0 2.412184 1_555
Co2 Tb0 3.212658 1_556
Co2 Tb0 3.212658 1_656
Co2 Tb0 3.212658 1_655
Co2 Tb0 3.212658 1_555
