# generated using pymatgen
data_K3Mo2Br9
_symmetry_space_group_name_H-M   'P 1'
_cell_length_a   7.50516748
_cell_length_b   7.50514840
_cell_length_c   18.19833456
_cell_angle_alpha   90.00004290
_cell_angle_beta   90.00072182
_cell_angle_gamma   120.00077838
_symmetry_Int_Tables_number   1
_chemical_formula_structural   K3Mo2Br9
_chemical_formula_sum   'K6 Mo4 Br18'
_cell_volume   887.72518726
_cell_formula_units_Z   2
loop_
 _symmetry_equiv_pos_site_id
 _symmetry_equiv_pos_as_xyz
  1  'x, y, z'
loop_
 _atom_site_type_symbol
 _atom_site_label
 _atom_site_symmetry_multiplicity
 _atom_site_fract_x
 _atom_site_fract_y
 _atom_site_fract_z
 _atom_site_occupancy
  K  K0  1  0.33332362  0.66664822  0.94518483  1
  K  K1  1  0.66667059  0.33333140  0.44513023  1
  K  K2  1  0.00000570  0.99999239  0.25000603  1
  K  K3  1  0.66667085  0.33331024  0.05486461  1
  K  K4  1  0.33332571  0.66666382  0.55492422  1
  K  K5  1  0.00000265  0.99999266  0.74999573  1
  Mo  Mo0  1  0.33333628  0.66665524  0.17274124  1
  Mo  Mo1  1  0.33333228  0.66667273  0.32721958  1
  Mo  Mo2  1  0.66665735  0.33333385  0.67278316  1
  Mo  Mo3  1  0.66667403  0.33335219  0.82724242  1
  Br  Br0  1  0.22911888  0.88173307  0.09218379  1
  Br  Br1  1  0.99957169  0.55350677  0.24997198  1
  Br  Br2  1  0.44592865  0.99953688  0.75002573  1
  Br  Br3  1  0.88176511  0.65260491  0.59222583  1
  Br  Br4  1  0.22911339  0.88175456  0.40777717  1
  Br  Br5  1  0.77082095  0.11820851  0.90776966  1
  Br  Br6  1  0.34738213  0.22919672  0.90778925  1
  Br  Br7  1  0.00047163  0.44639302  0.75001980  1
  Br  Br8  1  0.55395725  0.00040593  0.24996947  1
  Br  Br9  1  0.55359451  0.55410206  0.75001788  1
  Br  Br10  1  0.77079830  0.11819549  0.59223951  1
  Br  Br11  1  0.65263399  0.77089748  0.09218423  1
  Br  Br12  1  0.44647934  0.44604227  0.24997831  1
  Br  Br13  1  0.88183756  0.65262775  0.90778938  1
  Br  Br14  1  0.65263065  0.77094064  0.40778327  1
  Br  Br15  1  0.11824955  0.34736556  0.09217745  1
  Br  Br16  1  0.34737062  0.22914817  0.59222755  1
  Br  Br17  1  0.11827974  0.34738647  0.40777570  1
loop_
_geom_bond_atom_site_label_1
_geom_bond_atom_site_label_2
_geom_bond_distance
_geom_bond_site_symmetry_2
Br0 Mo0 2.574717 1_555
Br0 K3 3.406136 1_565
Br0 K0 3.411204 1_554
Br0 K2 3.676935 1_555
Br1 Mo0 2.616131 1_655
Br1 Mo1 2.616217 1_655
Br1 K2 3.349313 1_655
Br2 Mo3 2.616344 1_565
Br2 Mo2 2.616514 1_565
Br2 K5 3.348461 1_555
Br3 Mo2 2.574633 1_555
Br3 K4 3.405874 1_655
Br3 K1 3.412493 1_555
Br3 K5 3.676235 1_655
Br4 Mo1 2.574758 1_555
Br4 K1 3.406258 1_565
Br4 K4 3.413356 1_555
Br4 K2 3.676075 1_555
Br5 Mo3 2.574462 1_555
Br5 K0 3.406228 1_545
Br5 K3 3.412457 1_556
Br5 K5 3.676396 1_645
Br6 Mo3 2.574674 1_555
Br6 K0 3.405830 1_555
Br6 K3 3.412335 1_556
Br6 K5 3.676567 1_545
Br7 Mo3 2.616373 1_455
Br7 Mo2 2.616554 1_455
Br7 K5 3.348542 1_545
Br8 Mo0 2.616002 1_545
Br8 Mo1 2.616161 1_545
Br8 K2 3.349221 1_645
Br9 Mo3 2.616527 1_555
Br9 Mo2 2.616666 1_555
Br9 K5 3.348384 1_655
Br10 Mo2 2.574583 1_555
Br10 K4 3.405651 1_545
Br10 K1 3.412721 1_555
Br10 K5 3.676165 1_645
Br11 Mo0 2.574708 1_555
Br11 K3 3.406468 1_555
Br11 K0 3.411222 1_554
Br11 K2 3.676848 1_655
Br12 Mo0 2.616138 1_555
Br12 Mo1 2.616313 1_555
Br12 K2 3.349227 1_545
Br13 Mo3 2.574589 1_555
Br13 K0 3.405784 1_655
Br13 K3 3.412457 1_556
Br13 K5 3.676554 1_655
Br14 Mo1 2.574715 1_555
Br14 K1 3.406742 1_555
Br14 K4 3.413241 1_555
Br14 K2 3.676244 1_655
Br15 Mo0 2.574736 1_555
Br15 K3 3.406043 1_455
Br15 K0 3.411072 1_554
Br15 K2 3.677020 1_545
Br16 Mo2 2.574663 1_555
Br16 K4 3.405915 1_555
Br16 K1 3.412682 1_555
Br16 K5 3.676178 1_545
Br17 Mo1 2.574624 1_555
Br17 K1 3.406436 1_455
Br17 K4 3.413218 1_555
Br17 K2 3.676228 1_545
