# generated using pymatgen
data_NaCe(PSe3)2
_symmetry_space_group_name_H-M   'P 1'
_cell_length_a   7.79007900
_cell_length_b   11.81840400
_cell_length_c   12.28925654
_cell_angle_alpha   68.44008487
_cell_angle_beta   90.00000000
_cell_angle_gamma   90.00000000
_symmetry_Int_Tables_number   1
_chemical_formula_structural   NaCe(PSe3)2
_chemical_formula_sum   'Na4 Ce4 P8 Se24'
_cell_volume   1052.26478811
_cell_formula_units_Z   4
loop_
 _symmetry_equiv_pos_site_id
 _symmetry_equiv_pos_as_xyz
  1  'x, y, z'
loop_
 _atom_site_type_symbol
 _atom_site_label
 _atom_site_symmetry_multiplicity
 _atom_site_fract_x
 _atom_site_fract_y
 _atom_site_fract_z
 _atom_site_occupancy
  Na  Na0  1  0.60750700  0.37668300  0.85892400  1
  Na  Na1  1  0.89249300  0.87668300  0.85892400  1
  Na  Na2  1  0.10750700  0.12331700  0.14107600  1
  Na  Na3  1  0.39249300  0.62331700  0.14107600  1
  Ce  Ce0  1  0.10698500  0.58878500  0.65650700  1
  Ce  Ce1  1  0.89301500  0.41121500  0.34349300  1
  Ce  Ce2  1  0.60698500  0.91121500  0.34349300  1
  Ce  Ce3  1  0.39301500  0.08878500  0.65650700  1
  P  P0  1  0.61287200  0.25095700  0.19504400  1
  P  P1  1  0.59875400  0.74783300  0.68013500  1
  P  P2  1  0.88712800  0.75095700  0.19504400  1
  P  P3  1  0.09875400  0.75216700  0.31986500  1
  P  P4  1  0.38712800  0.74904300  0.80495600  1
  P  P5  1  0.40124600  0.25216700  0.31986500  1
  P  P6  1  0.90124600  0.24783300  0.68013500  1
  P  P7  1  0.11287200  0.24904300  0.80495600  1
  Se  Se0  1  0.70422000  0.44089800  0.11592300  1
  Se  Se1  1  0.81950100  0.14516000  0.31105700  1
  Se  Se2  1  0.29578000  0.55910200  0.88407700  1
  Se  Se3  1  0.68049900  0.64516000  0.31105700  1
  Se  Se4  1  0.00442800  0.34518100  0.91102000  1
  Se  Se5  1  0.52841100  0.31680800  0.44934500  1
  Se  Se6  1  0.18049900  0.85484000  0.68894300  1
  Se  Se7  1  0.99557200  0.65481900  0.08898000  1
  Se  Se8  1  0.20618200  0.37350500  0.20656600  1
  Se  Se9  1  0.19346500  0.56337500  0.40794100  1
  Se  Se10  1  0.97158900  0.81680800  0.44934500  1
  Se  Se11  1  0.79578000  0.94089800  0.11592300  1
  Se  Se12  1  0.31950100  0.35484000  0.68894300  1
  Se  Se13  1  0.49557200  0.84518100  0.91102000  1
  Se  Se14  1  0.20422000  0.05910200  0.88407700  1
  Se  Se15  1  0.29381800  0.87350500  0.20656600  1
  Se  Se16  1  0.80653500  0.43662500  0.59205900  1
  Se  Se17  1  0.69346500  0.93662500  0.59205900  1
  Se  Se18  1  0.70618200  0.12649500  0.79343400  1
  Se  Se19  1  0.50442800  0.15481900  0.08898000  1
  Se  Se20  1  0.02841100  0.18319200  0.55065500  1
  Se  Se21  1  0.79381800  0.62649500  0.79343400  1
  Se  Se22  1  0.47158900  0.68319200  0.55065500  1
  Se  Se23  1  0.30653500  0.06337500  0.40794100  1
loop_
_geom_bond_atom_site_label_1
_geom_bond_atom_site_label_2
_geom_bond_distance
_geom_bond_site_symmetry_2
Na0 Se21 3.118403 1_555
Na0 Se12 3.140117 1_555
Na0 Se4 3.151835 1_655
Na0 Se19 3.172530 1_556
Na0 Se2 3.336204 1_555
Na0 Se18 3.424966 1_555
Na0 Se16 3.457429 1_555
Na0 Se0 3.588900 1_556
Na1 Se18 3.118403 1_565
Na1 Se6 3.140117 1_655
Na1 Se13 3.151835 1_555
Na1 Se7 3.172530 1_556
Na1 Se14 3.336204 1_665
Na1 Se21 3.424966 1_555
Na1 Se17 3.457429 1_555
Na1 Se11 3.588900 1_556
Na2 Se15 3.118403 1_545
Na2 Se1 3.140117 1_455
Na2 Se19 3.151835 1_555
Na2 Se4 3.172530 1_554
Na2 Se11 3.336204 1_445
Na2 Se8 3.424966 1_555
Na2 Se23 3.457429 1_555
Na2 Se14 3.588900 1_554
Na3 Se8 3.118403 1_555
Na3 Se3 3.140117 1_555
Na3 Se7 3.151835 1_455
Na3 Se13 3.172530 1_554
Na3 Se0 3.336204 1_555
Na3 Se15 3.424966 1_555
Na3 Se9 3.457429 1_555
Na3 Se2 3.588900 1_554
Ce0 Se2 3.063723 1_555
Ce0 Se21 3.087557 1_455
Ce0 Se12 3.119946 1_555
Ce0 Se10 3.132719 1_455
Ce0 Se22 3.152401 1_555
Ce0 Se16 3.222729 1_455
Ce0 Se9 3.247980 1_555
Ce0 Se6 3.360794 1_555
Ce0 Se4 3.477331 1_555
Ce1 Se0 3.063723 1_555
Ce1 Se8 3.087557 1_655
Ce1 Se3 3.119946 1_555
Ce1 Se20 3.132719 1_655
Ce1 Se5 3.152401 1_555
Ce1 Se9 3.222729 1_655
Ce1 Se16 3.247980 1_555
Ce1 Se1 3.360794 1_555
Ce1 Se7 3.477331 1_555
Ce2 Se11 3.063723 1_555
Ce2 Se15 3.087557 1_555
Ce2 Se1 3.119946 1_565
Ce2 Se22 3.132719 1_555
Ce2 Se10 3.152401 1_555
Ce2 Se23 3.222729 1_565
Ce2 Se17 3.247980 1_555
Ce2 Se3 3.360794 1_555
Ce2 Se19 3.477331 1_565
Ce3 Se14 3.063723 1_555
Ce3 Se18 3.087557 1_555
Ce3 Se6 3.119946 1_545
Ce3 Se5 3.132719 1_555
Ce3 Se20 3.152401 1_555
Ce3 Se17 3.222729 1_545
Ce3 Se23 3.247980 1_555
Ce3 Se12 3.360794 1_555
Ce3 Se13 3.477331 1_545
P0 Se19 2.189070 1_555
P0 Se1 2.208366 1_555
P0 Se0 2.210606 1_555
P0 P5 2.255477 1_555
P1 Se21 2.199252 1_555
P1 Se17 2.217957 1_555
P1 Se22 2.233906 1_555
P1 P4 2.255477 1_555
P2 Se7 2.189070 1_555
P2 Se3 2.208366 1_555
P2 Se11 2.210606 1_555
P2 P3 2.255477 1_655
P3 Se15 2.199252 1_555
P3 Se9 2.217957 1_555
P3 Se10 2.233906 1_455
P4 Se13 2.189070 1_555
P4 Se6 2.208366 1_555
P4 Se2 2.210606 1_555
P5 Se8 2.199252 1_555
P5 Se23 2.217957 1_555
P5 Se5 2.233906 1_555
P6 Se18 2.199252 1_555
P6 Se16 2.217957 1_555
P6 Se20 2.233906 1_655
P6 P7 2.255477 1_655
P7 Se4 2.189070 1_555
P7 Se12 2.208366 1_555
P7 Se14 2.210606 1_555
