# generated using pymatgen
data_La5C2I9
_symmetry_space_group_name_H-M   'P 1'
_cell_length_a   8.14824821
_cell_length_b   10.24888556
_cell_length_c   14.56663969
_cell_angle_alpha   79.45951856
_cell_angle_beta   80.61356540
_cell_angle_gamma   85.26480118
_symmetry_Int_Tables_number   1
_chemical_formula_structural   La5C2I9
_chemical_formula_sum   'La10 C4 I18'
_cell_volume   1178.18346467
_cell_formula_units_Z   2
loop_
 _symmetry_equiv_pos_site_id
 _symmetry_equiv_pos_as_xyz
  1  'x, y, z'
loop_
 _atom_site_type_symbol
 _atom_site_label
 _atom_site_symmetry_multiplicity
 _atom_site_fract_x
 _atom_site_fract_y
 _atom_site_fract_z
 _atom_site_occupancy
  La  La0  1  0.77859266  0.36426636  0.26168174  1
  La  La1  1  0.15881063  0.53114470  0.30252960  1
  La  La2  1  0.23722060  0.33932929  0.08091177  1
  La  La3  1  0.94973364  0.03645339  0.17511884  1
  La  La4  1  0.82391289  0.85377209  0.63969974  1
  La  La5  1  0.22140734  0.63573364  0.73831826  1
  La  La6  1  0.76277940  0.66067071  0.91908823  1
  La  La7  1  0.17608711  0.14622791  0.36030026  1
  La  La8  1  0.84118937  0.46885530  0.69747040  1
  La  La9  1  0.05026636  0.96354661  0.82488116  1
  C  C0  1  0.95883968  0.77579914  0.78259512  1
  C  C1  1  0.09290645  0.34588198  0.24200807  1
  C  C2  1  0.90709355  0.65411802  0.75799193  1
  C  C3  1  0.04116032  0.22420086  0.21740488  1
  I  I0  1  0.24970099  0.86101124  0.27242936  1
  I  I1  1  0.79977520  0.00670569  0.41292442  1
  I  I2  1  0.90533616  0.34995807  0.47376408  1
  I  I3  1  0.46086515  0.84595506  0.80086337  1
  I  I4  1  0.57556830  0.65045533  0.57682424  1
  I  I5  1  0.50611010  0.44557996  0.86505359  1
  I  I6  1  0.20022480  0.99329431  0.58707558  1
  I  I7  1  0.75089578  0.94085435  0.00242998  1
  I  I8  1  0.19234275  0.31766329  0.72786085  1
  I  I9  1  0.09466384  0.65004193  0.52623592  1
  I  I10  1  0.80765725  0.68233671  0.27213915  1
  I  I11  1  0.42443170  0.34954467  0.42317576  1
  I  I12  1  0.24910422  0.05914565  0.99757002  1
  I  I13  1  0.49388990  0.55442004  0.13494641  1
  I  I14  1  0.11935120  0.65743994  0.99926749  1
  I  I15  1  0.88064880  0.34256006  0.00073251  1
  I  I16  1  0.53913485  0.15404494  0.19913663  1
  I  I17  1  0.75029901  0.13898876  0.72757064  1
loop_
_geom_bond_atom_site_label_1
_geom_bond_atom_site_label_2
_geom_bond_distance
_geom_bond_site_symmetry_2
C0 C2 1.470065 1_555
C0 La9 2.336006 1_655
C0 La4 2.484517 1_555
C0 La6 2.512842 1_555
C0 La5 2.536843 1_655
C1 C3 1.470065 1_555
C1 La1 2.367692 1_555
C1 La2 2.457333 1_555
C1 La0 2.525386 1_455
C1 La7 2.545107 1_555
C2 La8 2.367692 1_555
C2 La6 2.457333 1_555
C2 La5 2.525386 1_655
C2 La4 2.545107 1_555
C3 La3 2.336006 1_455
C3 La7 2.484517 1_555
C3 La2 2.512842 1_555
C3 La0 2.536843 1_455
I0 La3 3.269336 1_465
I0 La7 3.372232 1_565
I0 La1 3.454770 1_555
I1 La7 3.404502 1_655
I1 La4 3.416767 1_545
I1 La3 3.446731 1_555
I1 La0 3.921550 1_555
I2 La1 3.345724 1_655
I2 La7 3.357269 1_655
I2 La0 3.388499 1_555
I2 La8 3.628905 1_555
I3 La5 3.357256 1_555
I3 La9 3.446021 1_555
I3 La4 3.460307 1_555
I3 La6 3.469571 1_555
I4 La8 3.258200 1_555
I4 La4 3.357789 1_555
I4 La5 3.407661 1_555
I5 La8 3.345300 1_555
I5 La6 3.433075 1_555
I5 La5 3.452825 1_555
I5 La2 3.573102 1_556
I6 La4 3.404502 1_455
I6 La7 3.416767 1_565
I6 La9 3.446731 1_555
I6 La5 3.921550 1_555
I7 La9 3.241781 1_654
I7 La6 3.304586 1_554
I7 La3 3.522196 1_565
I8 La8 3.195968 1_455
I8 La5 3.320682 1_555
I8 La9 3.846141 1_545
I9 La8 3.345724 1_455
I9 La4 3.357269 1_455
I9 La5 3.388499 1_555
I9 La1 3.628905 1_555
I10 La1 3.195968 1_655
I10 La0 3.320682 1_555
I10 La3 3.846141 1_565
I11 La1 3.258200 1_555
I11 La7 3.357789 1_555
I11 La0 3.407661 1_555
I12 La3 3.241781 1_456
I12 La2 3.304586 1_556
I12 La9 3.522196 1_545
I13 La1 3.345300 1_555
I13 La2 3.433075 1_555
I13 La0 3.452825 1_555
I13 La6 3.573102 1_554
I14 La6 3.299027 1_455
I14 La2 3.376871 1_556
I14 La9 3.724400 1_555
I14 La5 3.799679 1_555
I15 La2 3.299027 1_655
I15 La6 3.376871 1_554
I15 La3 3.724400 1_555
I15 La0 3.799679 1_555
I16 La0 3.357256 1_555
I16 La3 3.446021 1_555
I16 La7 3.460307 1_555
I16 La2 3.469571 1_555
I17 La9 3.269336 1_645
I17 La4 3.372232 1_545
I17 La8 3.454770 1_555
