# generated using pymatgen
data_Tl4SnS4
_symmetry_space_group_name_H-M   'P 1'
_cell_length_a   8.33416466
_cell_length_b   8.41228767
_cell_length_c   15.67865845
_cell_angle_alpha   75.64926541
_cell_angle_beta   90.00000000
_cell_angle_gamma   90.00000000
_symmetry_Int_Tables_number   1
_chemical_formula_structural   Tl4SnS4
_chemical_formula_sum   'Tl16 Sn4 S16'
_cell_volume   1064.92179151
_cell_formula_units_Z   4
loop_
 _symmetry_equiv_pos_site_id
 _symmetry_equiv_pos_as_xyz
  1  'x, y, z'
loop_
 _atom_site_type_symbol
 _atom_site_label
 _atom_site_symmetry_multiplicity
 _atom_site_fract_x
 _atom_site_fract_y
 _atom_site_fract_z
 _atom_site_occupancy
  Tl  Tl0  1  0.20926052  0.10076080  0.36094521  1
  Tl  Tl1  1  0.70926052  0.89923920  0.13905479  1
  Tl  Tl2  1  0.79073948  0.89923920  0.63905479  1
  Tl  Tl3  1  0.29073948  0.10076080  0.86094521  1
  Tl  Tl4  1  0.82528457  0.89188350  0.38820741  1
  Tl  Tl5  1  0.32528457  0.10811650  0.11179259  1
  Tl  Tl6  1  0.17471543  0.10811650  0.61179259  1
  Tl  Tl7  1  0.67471543  0.89188350  0.88820741  1
  Tl  Tl8  1  0.39936147  0.69212668  0.37301359  1
  Tl  Tl9  1  0.89936147  0.30787332  0.12698641  1
  Tl  Tl10  1  0.60063853  0.30787332  0.62698641  1
  Tl  Tl11  1  0.10063853  0.69212668  0.87301359  1
  Tl  Tl12  1  0.01326711  0.52609080  0.37220542  1
  Tl  Tl13  1  0.51326711  0.47390920  0.12779458  1
  Tl  Tl14  1  0.98673289  0.47390920  0.62779458  1
  Tl  Tl15  1  0.48673289  0.52609080  0.87220542  1
  Sn  Sn0  1  0.88313084  0.28902795  0.87780858  1
  Sn  Sn1  1  0.38313084  0.71097205  0.62219142  1
  Sn  Sn2  1  0.11686916  0.71097205  0.12219142  1
  Sn  Sn3  1  0.61686916  0.28902795  0.37780858  1
  S  S0  1  0.17950401  0.44333462  0.21485976  1
  S  S1  1  0.67950401  0.55666538  0.28514024  1
  S  S2  1  0.82049599  0.55666538  0.78514024  1
  S  S3  1  0.32049599  0.44333462  0.71485976  1
  S  S4  1  0.64920625  0.19517112  0.96464957  1
  S  S5  1  0.14920625  0.80482888  0.53535043  1
  S  S6  1  0.35079375  0.80482888  0.03535043  1
  S  S7  1  0.85079375  0.19517112  0.46464957  1
  S  S8  1  0.55596337  0.09777682  0.29121838  1
  S  S9  1  0.05596337  0.90222318  0.20878162  1
  S  S10  1  0.44403663  0.90222318  0.70878162  1
  S  S11  1  0.94403663  0.09777682  0.79121838  1
  S  S12  1  0.61497340  0.68309417  0.53491259  1
  S  S13  1  0.11497340  0.31690583  0.96508741  1
  S  S14  1  0.38502660  0.31690583  0.46508741  1
  S  S15  1  0.88502660  0.68309417  0.03491259  1
loop_
_geom_bond_atom_site_label_1
_geom_bond_atom_site_label_2
_geom_bond_distance
_geom_bond_site_symmetry_2
S0 Sn2 2.414725 1_555
S0 Tl12 3.056370 1_555
S0 Tl9 3.070187 1_455
S0 Tl13 3.081074 1_555
S0 Tl0 3.215660 1_555
S1 Sn3 2.414725 1_555
S1 Tl13 3.056370 1_555
S1 Tl8 3.070187 1_555
S1 Tl12 3.081074 1_655
S1 Tl1 3.215660 1_555
S2 Sn0 2.414725 1_555
S2 Tl14 3.056370 1_555
S2 Tl11 3.070187 1_655
S2 Tl15 3.081074 1_555
S2 Tl2 3.215660 1_555
S3 Sn1 2.414725 1_555
S3 Tl15 3.056370 1_555
S3 Tl10 3.070187 1_555
S3 Tl14 3.081074 1_455
S3 Tl3 3.215660 1_555
S4 Sn0 2.396898 1_555
S4 Tl7 3.083306 1_545
S4 Tl15 3.111859 1_555
S4 Tl1 3.248173 1_546
S5 Sn1 2.396898 1_555
S5 Tl6 3.083306 1_565
S5 Tl14 3.111859 1_455
S5 Tl0 3.248173 1_565
S6 Sn2 2.396898 1_555
S6 Tl5 3.083306 1_565
S6 Tl13 3.111859 1_555
S6 Tl3 3.248173 1_564
S7 Sn3 2.396898 1_555
S7 Tl4 3.083306 1_545
S7 Tl12 3.111859 1_655
S7 Tl2 3.248173 1_545
S8 Sn3 2.402490 1_555
S8 Tl4 3.007457 1_545
S8 Tl0 3.091675 1_555
S9 Sn2 2.402490 1_555
S9 Tl5 3.007457 1_565
S9 Tl1 3.091675 1_455
S10 Sn1 2.402490 1_555
S10 Tl6 3.007457 1_565
S10 Tl2 3.091675 1_555
S11 Sn0 2.402490 1_555
S11 Tl7 3.007457 1_545
S11 Tl3 3.091675 1_655
S12 Sn1 2.412487 1_555
S12 Tl4 3.073289 1_555
S12 Tl8 3.095552 1_555
S12 Tl2 3.096730 1_555
S12 Tl10 3.130929 1_555
S13 Sn0 2.412487 1_455
S13 Tl5 3.073289 1_556
S13 Tl9 3.095552 1_456
S13 Tl3 3.096730 1_555
S13 Tl11 3.130929 1_555
S14 Sn3 2.412487 1_555
S14 Tl6 3.073289 1_555
S14 Tl10 3.095552 1_555
S14 Tl0 3.096730 1_555
S14 Tl8 3.130929 1_555
S15 Sn2 2.412487 1_655
S15 Tl7 3.073289 1_554
S15 Tl11 3.095552 1_654
S15 Tl1 3.096730 1_555
S15 Tl9 3.130929 1_555
