# generated using pymatgen
data_KTiCl3
_symmetry_space_group_name_H-M   'P 1'
_cell_length_a   12.63125637
_cell_length_b   12.63125637
_cell_length_c   5.63352500
_cell_angle_alpha   90.00000000
_cell_angle_beta   90.00000000
_cell_angle_gamma   120.00000192
_symmetry_Int_Tables_number   1
_chemical_formula_structural   KTiCl3
_chemical_formula_sum   'K6 Ti6 Cl18'
_cell_volume   778.40201000
_cell_formula_units_Z   6
loop_
 _symmetry_equiv_pos_site_id
 _symmetry_equiv_pos_as_xyz
  1  'x, y, z'
loop_
 _atom_site_type_symbol
 _atom_site_label
 _atom_site_symmetry_multiplicity
 _atom_site_fract_x
 _atom_site_fract_y
 _atom_site_fract_z
 _atom_site_occupancy
  K  K0  1  0.66210300  0.99597000  0.67681700  1
  K  K1  1  0.00403000  0.66613300  0.67681700  1
  K  K2  1  0.33789700  0.00403000  0.17681700  1
  K  K3  1  0.66613300  0.66210300  0.17681700  1
  K  K4  1  0.33386700  0.33789700  0.67681700  1
  K  K5  1  0.99597000  0.33386700  0.17681700  1
  Ti  Ti0  1  0.00000000  0.00000000  0.51210700  1
  Ti  Ti1  1  0.66666700  0.33333300  0.85561900  1
  Ti  Ti2  1  0.66666700  0.33333300  0.40769200  1
  Ti  Ti3  1  0.00000000  0.00000000  0.01210700  1
  Ti  Ti4  1  0.33333300  0.66666700  0.35561900  1
  Ti  Ti5  1  0.33333300  0.66666700  0.90769200  1
  Cl  Cl0  1  0.51620900  0.82007400  0.13237900  1
  Cl  Cl1  1  0.48379100  0.17992600  0.63237900  1
  Cl  Cl2  1  0.83912800  0.47903800  0.13052800  1
  Cl  Cl3  1  0.30386500  0.48379100  0.13237900  1
  Cl  Cl4  1  0.63991000  0.16087200  0.13052800  1
  Cl  Cl5  1  0.18077000  0.14464700  0.26207100  1
  Cl  Cl6  1  0.16087200  0.52096200  0.63052800  1
  Cl  Cl7  1  0.85535300  0.03612200  0.26207100  1
  Cl  Cl8  1  0.14464700  0.96387800  0.76207100  1
  Cl  Cl9  1  0.96387800  0.81923000  0.26207100  1
  Cl  Cl10  1  0.81923000  0.85535300  0.76207100  1
  Cl  Cl11  1  0.82007400  0.30386500  0.63237900  1
  Cl  Cl12  1  0.03612200  0.18077000  0.76207100  1
  Cl  Cl13  1  0.17992600  0.69613500  0.13237900  1
  Cl  Cl14  1  0.69613500  0.51620900  0.63237900  1
  Cl  Cl15  1  0.36009000  0.83912800  0.63052800  1
  Cl  Cl16  1  0.47903800  0.63991000  0.63052800  1
  Cl  Cl17  1  0.52096200  0.36009000  0.13052800  1
loop_
_geom_bond_atom_site_label_1
_geom_bond_atom_site_label_2
_geom_bond_distance
_geom_bond_site_symmetry_2
Cl0 Ti4 2.489224 1_555
Cl0 Ti5 2.493352 1_554
Cl0 K0 3.290059 1_554
Cl0 K3 3.377733 1_555
Cl0 K0 3.693929 1_555
Cl1 Ti1 2.489224 1_555
Cl1 Ti2 2.493352 1_555
Cl1 K2 3.290059 1_555
Cl1 K4 3.377733 1_555
Cl1 K2 3.693929 1_556
Cl2 Ti1 2.553804 1_554
Cl2 Ti2 2.561528 1_555
Cl2 K5 3.314812 1_555
Cl2 K1 3.396193 1_654
Cl3 Ti4 2.489228 1_555
Cl3 Ti5 2.493356 1_554
Cl3 K4 3.290059 1_554
Cl3 K5 3.377733 1_455
Cl3 K4 3.693929 1_555
Cl4 Ti1 2.553801 1_554
Cl4 Ti2 2.561525 1_555
Cl4 K2 3.314812 1_555
Cl4 K0 3.396193 1_544
Cl5 Ti3 2.522500 1_555
Cl5 Ti0 2.522727 1_555
Cl5 K4 3.230602 1_555
Cl5 K2 3.293890 1_555
Cl6 Ti4 2.553804 1_555
Cl6 Ti5 2.561528 1_555
Cl6 K1 3.314812 1_555
Cl6 K5 3.396193 1_455
Cl7 Ti3 2.522494 1_655
Cl7 Ti0 2.522720 1_655
Cl7 K0 3.230605 1_545
Cl7 K5 3.293901 1_555
Cl8 Ti0 2.522494 1_565
Cl8 Ti3 2.522720 1_566
Cl8 K2 3.230605 1_566
Cl8 K1 3.293901 1_555
Cl9 Ti3 2.522504 1_665
Cl9 Ti0 2.522730 1_665
Cl9 K1 3.230596 1_655
Cl9 K3 3.293900 1_555
Cl10 Ti0 2.522500 1_665
Cl10 Ti3 2.522727 1_666
Cl10 K3 3.230602 1_556
Cl10 K0 3.293890 1_555
Cl11 Ti1 2.489217 1_555
Cl11 Ti2 2.493345 1_555
Cl11 K5 3.290059 1_555
Cl11 K0 3.377733 1_545
Cl11 K5 3.693929 1_556
Cl12 Ti0 2.522504 1_555
Cl12 Ti3 2.522730 1_556
Cl12 K5 3.230596 1_456
Cl12 K4 3.293900 1_555
Cl13 Ti4 2.489217 1_555
Cl13 Ti5 2.493345 1_554
Cl13 K1 3.290059 1_554
Cl13 K2 3.377733 1_565
Cl13 K1 3.693929 1_555
Cl14 Ti1 2.489228 1_555
Cl14 Ti2 2.493356 1_555
Cl14 K3 3.290059 1_555
Cl14 K1 3.377733 1_655
Cl14 K3 3.693929 1_556
Cl15 Ti4 2.553801 1_555
Cl15 Ti5 2.561525 1_555
Cl15 K0 3.314812 1_555
Cl15 K2 3.396193 1_565
Cl16 Ti4 2.553811 1_555
Cl16 Ti5 2.561535 1_555
Cl16 K4 3.314812 1_555
Cl16 K3 3.396193 1_555
Cl17 Ti1 2.553811 1_554
Cl17 Ti2 2.561535 1_555
Cl17 K3 3.314812 1_555
Cl17 K4 3.396193 1_554
