# generated using pymatgen
data_La5NiPb3
_symmetry_space_group_name_H-M   'P 1'
_cell_length_a   9.64883592
_cell_length_b   9.64883592
_cell_length_c   7.19514600
_cell_angle_alpha   90.00000000
_cell_angle_beta   90.00000000
_cell_angle_gamma   119.99999945
_symmetry_Int_Tables_number   1
_chemical_formula_structural   La5NiPb3
_chemical_formula_sum   'La10 Ni2 Pb6'
_cell_volume   580.12300421
_cell_formula_units_Z   2
loop_
 _symmetry_equiv_pos_site_id
 _symmetry_equiv_pos_as_xyz
  1  'x, y, z'
loop_
 _atom_site_type_symbol
 _atom_site_label
 _atom_site_symmetry_multiplicity
 _atom_site_fract_x
 _atom_site_fract_y
 _atom_site_fract_z
 _atom_site_occupancy
  La  La0  1  0.23817500  0.00000000  0.25000000  1
  La  La1  1  0.23817500  0.23817500  0.75000000  1
  La  La2  1  0.00000000  0.76182500  0.75000000  1
  La  La3  1  0.00000000  0.23817500  0.25000000  1
  La  La4  1  0.76182500  0.76182500  0.25000000  1
  La  La5  1  0.76182500  0.00000000  0.75000000  1
  La  La6  1  0.33333300  0.66666700  0.00000000  1
  La  La7  1  0.66666700  0.33333300  0.50000000  1
  La  La8  1  0.66666700  0.33333300  0.00000000  1
  La  La9  1  0.33333300  0.66666700  0.50000000  1
  Ni  Ni0  1  0.00000000  0.00000000  0.00000000  1
  Ni  Ni1  1  0.00000000  0.00000000  0.50000000  1
  Pb  Pb0  1  0.59797000  0.00000000  0.25000000  1
  Pb  Pb1  1  0.59797000  0.59797000  0.75000000  1
  Pb  Pb2  1  0.00000000  0.40203000  0.75000000  1
  Pb  Pb3  1  0.00000000  0.59797000  0.25000000  1
  Pb  Pb4  1  0.40203000  0.40203000  0.25000000  1
  Pb  Pb5  1  0.40203000  0.00000000  0.75000000  1
loop_
_geom_bond_atom_site_label_1
_geom_bond_atom_site_label_2
_geom_bond_distance
_geom_bond_site_symmetry_2
La0 Ni0 2.918381 1_555
La0 Ni1 2.918381 1_555
La0 Pb4 3.378498 1_555
La0 Pb3 3.378498 1_545
La0 Pb0 3.471603 1_555
La0 Pb5 3.929647 1_554
La0 Pb5 3.929647 1_555
La1 Ni0 2.918381 1_556
La1 Ni1 2.918381 1_555
La1 Pb5 3.378498 1_555
La1 Pb2 3.378498 1_555
La1 Pb1 3.471603 1_555
La1 Pb4 3.929647 1_556
La1 Pb4 3.929647 1_555
La2 Ni1 2.918381 1_565
La2 Ni0 2.918381 1_566
La2 Pb1 3.378498 1_455
La2 Pb5 3.378498 1_565
La2 Pb2 3.471603 1_555
La2 Pb3 3.929647 1_555
La2 Pb3 3.929647 1_556
La3 Ni0 2.918381 1_555
La3 Ni1 2.918381 1_555
La3 Pb4 3.378498 1_555
La3 Pb0 3.378498 1_455
La3 Pb3 3.471603 1_555
La3 Pb2 3.929647 1_555
La3 Pb2 3.929647 1_554
La4 Ni0 2.918381 1_665
La4 Ni1 2.918381 1_665
La4 Pb0 3.378498 1_565
La4 Pb3 3.378498 1_655
La4 Pb4 3.471603 1_555
La4 Pb1 3.929647 1_554
La4 Pb1 3.929647 1_555
La5 Ni1 2.918381 1_655
La5 Ni0 2.918381 1_656
La5 Pb1 3.378498 1_545
La5 Pb2 3.378498 1_655
La5 Pb5 3.471603 1_555
La5 Pb0 3.929647 1_555
La5 Pb0 3.929647 1_556
La6 Pb5 3.447830 1_564
La6 Pb3 3.447830 1_555
La6 Pb2 3.447832 1_554
La6 Pb0 3.447832 1_565
La6 Pb4 3.447838 1_555
La6 Pb1 3.447838 1_554
La7 Pb0 3.447830 1_555
La7 Pb2 3.447830 1_655
La7 Pb5 3.447832 1_555
La7 Pb3 3.447832 1_655
La7 Pb4 3.447838 1_555
La7 Pb1 3.447838 1_555
La8 Pb0 3.447830 1_555
La8 Pb2 3.447830 1_654
La8 Pb5 3.447832 1_554
La8 Pb3 3.447832 1_655
La8 Pb4 3.447838 1_555
La8 Pb1 3.447838 1_554
La9 Pb5 3.447830 1_565
La9 Pb3 3.447830 1_555
La9 Pb2 3.447832 1_555
La9 Pb0 3.447832 1_565
La9 Pb4 3.447838 1_555
La9 Pb1 3.447838 1_555
