# generated using pymatgen
data_B5W2
_symmetry_space_group_name_H-M   'P 1'
_cell_length_a   3.10174615
_cell_length_b   3.10174615
_cell_length_c   14.28969500
_cell_angle_alpha   90.00000000
_cell_angle_beta   90.00000000
_cell_angle_gamma   120.00000310
_symmetry_Int_Tables_number   1
_chemical_formula_structural   B5W2
_chemical_formula_sum   'B10 W4'
_cell_volume   119.06005526
_cell_formula_units_Z   2
loop_
 _symmetry_equiv_pos_site_id
 _symmetry_equiv_pos_as_xyz
  1  'x, y, z'
loop_
 _atom_site_type_symbol
 _atom_site_label
 _atom_site_symmetry_multiplicity
 _atom_site_fract_x
 _atom_site_fract_y
 _atom_site_fract_z
 _atom_site_occupancy
  B  B0  1  0.33333300  0.66666700  0.97323900  1
  B  B1  1  0.66666700  0.33333300  0.47323900  1
  B  B2  1  0.00000000  0.00000000  0.00000000  1
  B  B3  1  0.33333300  0.66666700  0.52676100  1
  B  B4  1  0.00000000  0.00000000  0.25000000  1
  B  B5  1  0.66666700  0.33333300  0.25000000  1
  B  B6  1  0.66666700  0.33333300  0.02676100  1
  B  B7  1  0.33333300  0.66666700  0.75000000  1
  B  B8  1  0.00000000  0.00000000  0.75000000  1
  B  B9  1  0.00000000  0.00000000  0.50000000  1
  W  W0  1  0.66666700  0.33333300  0.86495400  1
  W  W1  1  0.33333300  0.66666700  0.13504600  1
  W  W2  1  0.33333300  0.66666700  0.36495400  1
  W  W3  1  0.66666700  0.33333300  0.63504600  1
loop_
_geom_bond_atom_site_label_1
_geom_bond_atom_site_label_2
_geom_bond_distance
_geom_bond_site_symmetry_2
B0 B2 1.831167 1_566
B0 B2 1.831169 1_666
B0 B2 1.831169 1_556
B0 B6 1.947274 1_456
B0 B6 1.947274 1_566
B0 B6 1.947279 1_556
B0 W1 2.312173 1_556
B0 W0 2.366698 1_455
B0 W0 2.366698 1_565
B0 W0 2.366702 1_555
B1 B9 1.831167 1_655
B1 B9 1.831169 1_555
B1 B9 1.831169 1_665
B1 B3 1.947274 1_545
B1 B3 1.947274 1_655
B1 B3 1.947279 1_555
B1 W3 2.312173 1_555
B1 W2 2.366698 1_545
B1 W2 2.366698 1_655
B1 W2 2.366702 1_555
B2 B6 1.831167 1_455
B2 B6 1.831169 1_555
B2 B6 1.831169 1_445
B3 B9 1.831167 1_565
B3 B9 1.831169 1_555
B3 B9 1.831169 1_665
B3 W2 2.312173 1_555
B3 W3 2.366698 1_455
B3 W3 2.366698 1_565
B3 W3 2.366702 1_555
B4 B5 1.790792 1_455
B4 B5 1.790795 1_555
B4 B5 1.790795 1_445
B4 W1 2.430074 1_545
B4 W2 2.430074 1_545
B4 W2 2.430076 1_555
B4 W2 2.430076 1_445
B4 W1 2.430076 1_445
B4 W1 2.430076 1_555
B5 W1 2.430074 1_545
B5 W2 2.430074 1_545
B5 W1 2.430074 1_655
B5 W2 2.430074 1_655
B5 W1 2.430078 1_555
B5 W2 2.430078 1_555
B6 W0 2.312173 1_554
B6 W1 2.366698 1_545
B6 W1 2.366698 1_655
B6 W1 2.366702 1_555
B7 B8 1.790792 1_565
B7 B8 1.790795 1_555
B7 B8 1.790795 1_665
B7 W3 2.430074 1_455
B7 W0 2.430074 1_455
B7 W0 2.430074 1_565
B7 W3 2.430074 1_565
B7 W3 2.430078 1_555
B7 W0 2.430078 1_555
B8 W3 2.430074 1_455
B8 W0 2.430074 1_455
B8 W0 2.430076 1_445
B8 W3 2.430076 1_555
B8 W3 2.430076 1_445
B8 W0 2.430076 1_555
