# generated using pymatgen
data_GdScO3
_symmetry_space_group_name_H-M   'P 1'
_cell_length_a   5.49028423
_cell_length_b   5.75677968
_cell_length_c   7.96255827
_cell_angle_alpha   90.00000000
_cell_angle_beta   90.00000000
_cell_angle_gamma   90.00000000
_symmetry_Int_Tables_number   1
_chemical_formula_structural   GdScO3
_chemical_formula_sum   'Gd4 Sc4 O12'
_cell_volume   251.66745687
_cell_formula_units_Z   4
loop_
 _symmetry_equiv_pos_site_id
 _symmetry_equiv_pos_as_xyz
  1  'x, y, z'
loop_
 _atom_site_type_symbol
 _atom_site_label
 _atom_site_symmetry_multiplicity
 _atom_site_fract_x
 _atom_site_fract_y
 _atom_site_fract_z
 _atom_site_occupancy
  Gd  Gd0  1  0.98113865  0.06033828  0.75000000  1
  Gd  Gd1  1  0.48113865  0.43966172  0.25000000  1
  Gd  Gd2  1  0.51886135  0.56033828  0.75000000  1
  Gd  Gd3  1  0.01886135  0.93966172  0.25000000  1
  Sc  Sc0  1  0.00000000  0.50000000  0.50000000  1
  Sc  Sc1  1  0.50000000  0.00000000  0.50000000  1
  Sc  Sc2  1  0.50000000  -0.00000000  -0.00000000  1
  Sc  Sc3  1  0.00000000  0.50000000  -0.00000000  1
  O  O0  1  0.69357060  0.30384737  0.56502091  1
  O  O1  1  0.19357060  0.19615263  0.43497909  1
  O  O2  1  0.80642940  0.80384737  0.93497909  1
  O  O3  1  0.30642940  0.69615263  0.06502091  1
  O  O4  1  0.30642940  0.69615263  0.43497909  1
  O  O5  1  0.80642940  0.80384737  0.56502091  1
  O  O6  1  0.19357060  0.19615263  0.06502091  1
  O  O7  1  0.69357060  0.30384737  0.93497909  1
  O  O8  1  0.87628610  0.55165932  0.25000000  1
  O  O9  1  0.37628610  0.94834068  0.75000000  1
  O  O10  1  0.62371390  0.05165932  0.25000000  1
  O  O11  1  0.12371390  0.44834068  0.75000000  1
loop_
_geom_bond_atom_site_label_1
_geom_bond_atom_site_label_2
_geom_bond_distance
_geom_bond_site_symmetry_2
Gd0 O9 2.263251 1_645
Gd0 O2 2.295596 1_545
Gd0 O5 2.295596 1_545
Gd0 O11 2.366835 1_655
Gd0 O0 2.574351 1_555
Gd0 O7 2.574351 1_555
Gd0 O1 2.874632 1_655
Gd0 O6 2.874632 1_656
Gd1 O8 2.263251 1_555
Gd1 O4 2.295596 1_555
Gd1 O3 2.295596 1_555
Gd1 O10 2.366835 1_555
Gd1 O6 2.574351 1_555
Gd1 O1 2.574351 1_555
Gd1 O0 2.874632 1_555
Gd1 O7 2.874632 1_554
Gd2 O11 2.263251 1_555
Gd2 O0 2.295596 1_555
Gd2 O7 2.295596 1_555
Gd2 O9 2.366835 1_555
Gd2 O5 2.574351 1_555
Gd2 O2 2.574351 1_555
Gd2 O4 2.874632 1_555
Gd2 O3 2.874632 1_556
Gd3 O10 2.263251 1_465
Gd3 O1 2.295596 1_565
Gd3 O6 2.295596 1_565
Gd3 O8 2.366835 1_455
Gd3 O3 2.574351 1_555
Gd3 O4 2.574351 1_555
Gd3 O2 2.874632 1_454
Gd3 O5 2.874632 1_455
O0 Sc0 2.091309 1_655
O0 Sc1 2.111194 1_555
O1 Sc1 2.091309 1_555
O1 Sc0 2.111194 1_555
O2 Sc2 2.091309 1_566
O2 Sc3 2.111194 1_656
O3 Sc3 2.091309 1_555
O3 Sc2 2.111194 1_565
O4 Sc0 2.091309 1_555
O4 Sc1 2.111194 1_565
O5 Sc1 2.091309 1_565
O5 Sc0 2.111194 1_655
O6 Sc2 2.091309 1_555
O6 Sc3 2.111194 1_555
O7 Sc3 2.091309 1_656
O7 Sc2 2.111194 1_556
O8 Sc3 2.124249 1_655
O8 Sc0 2.124249 1_655
O9 Sc1 2.124249 1_565
O9 Sc2 2.124249 1_566
O10 Sc1 2.124249 1_555
O10 Sc2 2.124249 1_555
O11 Sc3 2.124249 1_556
O11 Sc0 2.124249 1_555
