# generated using pymatgen
data_Pr2Al19Co6
_symmetry_space_group_name_H-M   'P 1'
_cell_length_a   10.61764738
_cell_length_b   10.61764738
_cell_length_c   8.17361625
_cell_angle_alpha   78.43253783
_cell_angle_beta   78.43253783
_cell_angle_gamma   68.91571467
_symmetry_Int_Tables_number   1
_chemical_formula_structural   Pr2Al19Co6
_chemical_formula_sum   'Pr4 Al38 Co12'
_cell_volume   833.94773748
_cell_formula_units_Z   2
loop_
 _symmetry_equiv_pos_site_id
 _symmetry_equiv_pos_as_xyz
  1  'x, y, z'
loop_
 _atom_site_type_symbol
 _atom_site_label
 _atom_site_symmetry_multiplicity
 _atom_site_fract_x
 _atom_site_fract_y
 _atom_site_fract_z
 _atom_site_occupancy
  Pr  Pr0  1  0.72109977  0.72109977  0.25514056  1
  Pr  Pr1  1  0.27890023  0.27890023  0.74485944  1
  Pr  Pr2  1  0.72004805  0.72004805  0.77313213  1
  Pr  Pr3  1  0.27995195  0.27995195  0.22686787  1
  Al  Al0  1  0.17082419  0.82917581  -0.00000000  1
  Al  Al1  1  0.18604337  0.52187212  0.44739690  1
  Al  Al2  1  0.91982251  0.91982251  0.63824950  1
  Al  Al3  1  0.27168679  0.04649982  0.05115526  1
  Al  Al4  1  0.54266479  0.18955179  0.94222783  1
  Al  Al5  1  0.43435482  0.66837667  0.84514878  1
  Al  Al6  1  0.33063469  0.56230243  0.64735223  1
  Al  Al7  1  0.00149578  0.50289340  0.76461973  1
  Al  Al8  1  0.52187212  0.18604337  0.44739690  1
  Al  Al9  1  0.70262230  0.93813649  0.46434828  1
  Al  Al10  1  0.06186351  0.29737770  0.53565172  1
  Al  Al11  1  0.47812788  0.81395663  0.55260310  1
  Al  Al12  1  0.29737770  0.06186351  0.53565172  1
  Al  Al13  1  0.99850422  0.49710660  0.23538027  1
  Al  Al14  1  0.81044821  0.45733521  0.05777217  1
  Al  Al15  1  0.93813649  0.70262230  0.46434828  1
  Al  Al16  1  0.43769757  0.66936531  0.35264777  1
  Al  Al17  1  0.66837667  0.43435482  0.84514878  1
  Al  Al18  1  0.49710660  0.99850422  0.23538027  1
  Al  Al19  1  0.50289340  0.00149578  0.76461973  1
  Al  Al20  1  0.95350018  0.72831321  0.94884474  1
  Al  Al21  1  0.14929357  0.79870727  0.36216855  1
  Al  Al22  1  0.79870727  0.14929357  0.36216855  1
  Al  Al23  1  0.08637832  0.08637832  0.81465462  1
  Al  Al24  1  0.56564518  0.33162333  0.15485122  1
  Al  Al25  1  0.91362168  0.91362168  0.18534538  1
  Al  Al26  1  0.04649982  0.27168679  0.05115526  1
  Al  Al27  1  0.85070643  0.20129273  0.63783145  1
  Al  Al28  1  0.72831321  0.95350018  0.94884474  1
  Al  Al29  1  0.82917581  0.17082419  -0.00000000  1
  Al  Al30  1  0.45733521  0.81044821  0.05777217  1
  Al  Al31  1  0.33162333  0.56564518  0.15485122  1
  Al  Al32  1  0.18955179  0.54266479  0.94222783  1
  Al  Al33  1  0.81395663  0.47812788  0.55260310  1
  Al  Al34  1  0.56230243  0.33063469  0.64735223  1
  Al  Al35  1  0.66936531  0.43769757  0.35264777  1
  Al  Al36  1  0.08017749  0.08017749  0.36175050  1
  Al  Al37  1  0.20129273  0.85070643  0.63783145  1
  Co  Co0  1  0.56085714  0.56085714  0.59492107  1
  Co  Co1  1  0.43892767  0.43892767  0.90536221  1
  Co  Co2  1  0.07998391  0.67994273  0.18827024  1
  Co  Co3  1  0.43914286  0.43914286  0.40507893  1
  Co  Co4  1  0.08374620  0.68568714  0.67003242  1
  Co  Co5  1  0.92001609  0.32005727  0.81172976  1
  Co  Co6  1  0.56107233  0.56107233  0.09463779  1
  Co  Co7  1  0.67994273  0.07998391  0.18827024  1
  Co  Co8  1  0.68568714  0.08374620  0.67003242  1
  Co  Co9  1  0.91625380  0.31431286  0.32996758  1
  Co  Co10  1  0.32005727  0.92001609  0.81172976  1
  Co  Co11  1  0.31431286  0.91625380  0.32996758  1
loop_
_geom_bond_atom_site_label_1
_geom_bond_atom_site_label_2
_geom_bond_distance
_geom_bond_site_symmetry_2
Al0 Co10 2.309857 1_554
Al0 Co2 2.309857 1_555
Al1 Co3 2.482665 1_555
Al1 Co4 2.575635 1_555
Al1 Co2 2.596531 1_555
Al1 Al31 2.629027 1_555
Al1 Al15 2.637537 1_455
Al1 Al6 2.640850 1_555
Al1 Al21 2.782066 1_555
Al1 Al7 2.939390 1_555
Al1 Al13 2.996756 1_455
Al1 Al10 3.021676 1_555
Al1 Pr3 3.183463 1_555
Al1 Pr1 3.186640 1_555
Al2 Co4 2.467000 1_655
Al2 Co8 2.467000 1_565
Al2 Al9 2.873616 1_555
Al2 Pr2 3.402250 1_555
Al3 Co11 2.451552 1_545
Al3 Co10 2.460026 1_544
Al3 Pr3 3.138336 1_555
Al3 Pr1 3.153406 1_554
Al4 Co1 2.455522 1_555
Al4 Co7 2.557251 1_556
Al4 Co8 2.633992 1_555
Al4 Pr3 3.237501 1_556
Al4 Pr1 3.260698 1_555
Al5 Co1 2.371354 1_555
Al5 Co0 2.453956 1_555
Al5 Co10 2.488646 1_555
Al5 Co6 2.516425 1_556
Al5 Pr2 3.193854 1_555
Al6 Co0 2.390526 1_555
Al6 Co3 2.449145 1_555
Al6 Co4 2.460472 1_555
Al6 Co1 2.503254 1_555
Al6 Pr1 3.169109 1_555
Al7 Co5 2.332438 1_455
Al7 Co4 2.339697 1_555
Al7 Pr2 3.045431 1_455
Al7 Pr1 3.046460 1_555
Al8 Co3 2.482665 1_555
Al8 Co8 2.575635 1_555
Al8 Co7 2.596531 1_555
Al8 Al9 2.637537 1_545
Al8 Pr3 3.183463 1_555
Al8 Pr1 3.186640 1_555
Al9 Co8 2.443370 1_565
Al9 Co7 2.452007 1_565
Al9 Pr2 3.049815 1_555
Al9 Pr0 3.064863 1_555
Al10 Co9 2.443370 1_455
Al10 Co5 2.452007 1_455
Al10 Al33 2.637537 1_455
Al10 Al27 2.705153 1_455
Al10 Al12 2.829686 1_555
Al10 Al23 2.838462 1_555
Al10 Al36 2.873616 1_555
Al10 Al13 2.919201 1_455
Al10 Al7 2.970735 1_555
Al10 Pr3 3.049815 1_555
Al10 Pr1 3.064863 1_555
Al11 Co0 2.482665 1_555
Al11 Co11 2.575635 1_555
Al11 Co10 2.596531 1_555
Al11 Al5 2.629027 1_555
Al11 Al12 2.637537 1_565
Al11 Al16 2.640850 1_555
Al11 Al37 2.782066 1_555
Al11 Al18 2.939390 1_555
Al11 Al19 2.996756 1_565
Al11 Al9 3.021676 1_555
Al11 Pr2 3.183463 1_555
Al11 Pr0 3.186640 1_555
Al12 Co11 2.443370 1_545
Al12 Co10 2.452007 1_545
Al12 Al37 2.705153 1_545
Al12 Al23 2.838462 1_555
Al12 Al36 2.873616 1_555
Al12 Al18 2.919201 1_545
Al12 Al19 2.970735 1_555
Al12 Al8 3.021676 1_555
Al12 Pr3 3.049815 1_555
Al12 Pr1 3.064863 1_555
Al13 Co2 2.332438 1_655
Al13 Co9 2.339697 1_555
Al13 Al33 2.939390 1_555
Al13 Al15 2.970735 1_555
Al13 Pr3 3.045431 1_655
Al13 Pr0 3.046460 1_555
Al14 Co6 2.455522 1_555
Al14 Co5 2.557251 1_554
Al14 Co9 2.633992 1_555
Al14 Pr2 3.237501 1_554
Al14 Pr0 3.260698 1_555
Al15 Co4 2.443370 1_655
Al15 Co2 2.452007 1_655
Al15 Al21 2.705153 1_655
Al15 Al9 2.829686 1_555
Al15 Al25 2.838462 1_555
Al15 Al2 2.873616 1_555
Al15 Al7 2.919201 1_655
Al15 Al33 3.021676 1_555
Al15 Pr2 3.049815 1_555
Al15 Pr0 3.064863 1_555
Al16 Co3 2.390526 1_555
Al16 Co0 2.449145 1_555
Al16 Co11 2.460472 1_555
Al16 Co6 2.503254 1_555
Al16 Pr0 3.169109 1_555
Al17 Co1 2.371354 1_555
Al17 Co0 2.453956 1_555
Al17 Co5 2.488646 1_555
Al17 Co6 2.516425 1_556
Al17 Al33 2.629027 1_555
Al17 Pr2 3.193854 1_555
Al18 Co7 2.332438 1_565
Al18 Co11 2.339697 1_555
Al18 Al9 2.970735 1_555
Al18 Al8 2.996756 1_565
Al18 Pr3 3.045431 1_565
Al18 Pr0 3.046460 1_555
Al19 Co10 2.332438 1_545
Al19 Co8 2.339697 1_555
Al19 Al9 2.919201 1_545
Al19 Al8 2.939390 1_555
Al19 Pr2 3.045431 1_545
Al19 Pr1 3.046460 1_555
Al20 Co4 2.451552 1_655
Al20 Co2 2.460026 1_656
Al20 Pr2 3.138336 1_555
Al20 Pr0 3.153406 1_556
Al21 Co11 2.439982 1_555
Al21 Co2 2.440893 1_555
Al21 Co4 2.635143 1_555
Al22 Co9 2.439982 1_555
Al22 Co7 2.440893 1_555
Al22 Co8 2.635143 1_555
Al22 Al9 2.705153 1_545
Al22 Al8 2.782066 1_555
Al23 Co5 2.473169 1_455
Al23 Co10 2.473169 1_545
Al23 Pr1 3.279233 1_555
Al24 Co6 2.371354 1_555
Al24 Co3 2.453956 1_555
Al24 Co7 2.488646 1_555
Al24 Co1 2.516425 1_554
Al24 Al8 2.629027 1_555
Al24 Pr3 3.193854 1_555
Al25 Co2 2.473169 1_655
Al25 Co7 2.473169 1_565
Al25 Al9 2.838462 1_555
Al25 Pr0 3.279233 1_555
Al26 Co9 2.451552 1_455
Al26 Co5 2.460026 1_454
Al26 Pr3 3.138336 1_555
Al26 Pr1 3.153406 1_554
Al27 Co8 2.439982 1_555
Al27 Co5 2.440893 1_555
Al27 Co9 2.635143 1_555
Al27 Al33 2.782066 1_555
Al28 Co8 2.451552 1_565
Al28 Co7 2.460026 1_566
Al28 Pr2 3.138336 1_555
Al28 Pr0 3.153406 1_556
Al29 Co5 2.309857 1_554
Al29 Co7 2.309857 1_555
Al30 Co6 2.455522 1_555
Al30 Co10 2.557251 1_554
Al30 Co11 2.633992 1_555
Al30 Pr2 3.237501 1_554
Al30 Pr0 3.260698 1_555
Al31 Co6 2.371354 1_555
Al31 Co3 2.453956 1_555
Al31 Co2 2.488646 1_555
Al31 Co1 2.516425 1_554
Al31 Pr3 3.193854 1_555
Al32 Co1 2.455522 1_555
Al32 Co2 2.557251 1_556
Al32 Co4 2.633992 1_555
Al32 Pr3 3.237501 1_556
Al32 Pr1 3.260698 1_555
Al33 Co0 2.482665 1_555
Al33 Co9 2.575635 1_555
Al33 Co5 2.596531 1_555
Al33 Al35 2.640850 1_555
Al33 Al7 2.996756 1_655
Al33 Pr2 3.183463 1_555
Al33 Pr0 3.186640 1_555
Al34 Co0 2.390526 1_555
Al34 Co3 2.449145 1_555
Al34 Co8 2.460472 1_555
Al34 Co1 2.503254 1_555
Al34 Al8 2.640850 1_555
Al34 Pr1 3.169109 1_555
Al35 Co3 2.390526 1_555
Al35 Co0 2.449145 1_555
Al35 Co9 2.460472 1_555
Al35 Co6 2.503254 1_555
Al35 Pr0 3.169109 1_555
Al36 Co11 2.467000 1_545
Al36 Co9 2.467000 1_455
Al36 Pr3 3.402250 1_555
Al37 Co4 2.439982 1_555
Al37 Co10 2.440893 1_555
Al37 Co11 2.635143 1_555
Co0 Pr0 3.434425 1_555
Co0 Pr2 3.444676 1_555
Co1 Pr3 3.331084 1_556
Co1 Pr1 3.370469 1_555
Co3 Pr1 3.434425 1_555
Co3 Pr3 3.444676 1_555
Co6 Pr2 3.331084 1_554
Co6 Pr0 3.370469 1_555
