# generated using pymatgen
data_K3Ga3As4
_symmetry_space_group_name_H-M   'P 1'
_cell_length_a   6.64162013
_cell_length_b   10.70019296
_cell_length_c   15.01276886
_cell_angle_alpha   90.00000000
_cell_angle_beta   90.00000000
_cell_angle_gamma   90.00000000
_symmetry_Int_Tables_number   1
_chemical_formula_structural   K3Ga3As4
_chemical_formula_sum   'K12 Ga12 As16'
_cell_volume   1066.90669405
_cell_formula_units_Z   4
loop_
 _symmetry_equiv_pos_site_id
 _symmetry_equiv_pos_as_xyz
  1  'x, y, z'
loop_
 _atom_site_type_symbol
 _atom_site_label
 _atom_site_symmetry_multiplicity
 _atom_site_fract_x
 _atom_site_fract_y
 _atom_site_fract_z
 _atom_site_occupancy
  K  K0  1  0.06082501  0.37970650  0.59443097  1
  K  K1  1  0.06082501  0.12029350  0.90556903  1
  K  K2  1  0.56082501  0.87970650  0.90556903  1
  K  K3  1  0.75000000  0.07989771  0.50000000  1
  K  K4  1  0.93917499  0.87970650  0.09443097  1
  K  K5  1  0.56082501  0.62029350  0.59443097  1
  K  K6  1  0.93917499  0.62029350  0.40556903  1
  K  K7  1  0.25000000  0.57989771  0.00000000  1
  K  K8  1  0.75000000  0.42010229  0.00000000  1
  K  K9  1  0.43917499  0.37970650  0.40556903  1
  K  K10  1  0.43917499  0.12029350  0.09443097  1
  K  K11  1  0.25000000  0.92010229  0.50000000  1
  Ga  Ga0  1  0.40162040  0.11101618  0.71650839  1
  Ga  Ga1  1  0.90162040  0.61101618  0.78349161  1
  Ga  Ga2  1  0.09837960  0.38898382  0.21650839  1
  Ga  Ga3  1  0.40162040  0.38898382  0.78349161  1
  Ga  Ga4  1  0.30822728  0.75000000  0.75000000  1
  Ga  Ga5  1  0.80822728  0.25000000  0.75000000  1
  Ga  Ga6  1  0.59837960  0.88898382  0.28349161  1
  Ga  Ga7  1  0.90162040  0.88898382  0.71650839  1
  Ga  Ga8  1  0.19177272  0.75000000  0.25000000  1
  Ga  Ga9  1  0.69177272  0.25000000  0.25000000  1
  Ga  Ga10  1  0.59837960  0.61101618  0.21650839  1
  Ga  Ga11  1  0.09837960  0.11101618  0.28349161  1
  As  As0  1  0.04026977  0.09487744  0.67646358  1
  As  As1  1  0.04058057  0.80598225  0.86267752  1
  As  As2  1  0.45941943  0.80598225  0.13732248  1
  As  As3  1  0.45973023  0.40512256  0.17646358  1
  As  As4  1  0.54026977  0.59487744  0.82353642  1
  As  As5  1  0.54026977  0.90512256  0.67646358  1
  As  As6  1  0.04058057  0.69401775  0.63732248  1
  As  As7  1  0.04026977  0.40512256  0.82353642  1
  As  As8  1  0.95941943  0.19401775  0.13732248  1
  As  As9  1  0.54058057  0.19401775  0.86267752  1
  As  As10  1  0.95973023  0.90512256  0.32353642  1
  As  As11  1  0.45973023  0.09487744  0.32353642  1
  As  As12  1  0.95941943  0.30598225  0.36267752  1
  As  As13  1  0.54058057  0.30598225  0.63732248  1
  As  As14  1  0.45941943  0.69401775  0.36267752  1
  As  As15  1  0.95973023  0.59487744  0.17646358  1
loop_
_geom_bond_atom_site_label_1
_geom_bond_atom_site_label_2
_geom_bond_distance
_geom_bond_site_symmetry_2
Ga0 K1 3.631676 1_555
Ga1 K5 3.631676 1_555
Ga2 K9 3.631676 1_555
Ga3 K0 3.631676 1_555
Ga4 K2 3.193027 1_555
Ga4 K5 3.193027 1_555
Ga5 K0 3.193027 1_655
Ga5 K1 3.193027 1_655
Ga6 K4 3.631676 1_555
Ga7 K2 3.631676 1_555
Ga8 K6 3.193027 1_455
Ga8 K4 3.193027 1_455
Ga9 K10 3.193027 1_555
Ga9 K9 3.193027 1_555
Ga10 K6 3.631676 1_555
Ga11 K10 3.631676 1_555
As0 Ga7 2.462327 1_445
As0 Ga0 2.480125 1_555
As0 Ga5 2.519715 1_455
As0 K3 3.280341 1_455
As0 K0 3.289978 1_555
As0 K1 3.452942 1_555
As0 K11 3.529303 1_545
As1 Ga4 2.525912 1_555
As1 Ga7 2.540860 1_455
As1 Ga1 2.572383 1_455
As1 K2 3.345115 1_455
As1 K1 3.426918 1_565
As1 K7 3.469437 1_556
As1 K2 3.602194 1_555
As1 K4 3.630587 1_456
As2 Ga8 2.525912 1_555
As2 Ga6 2.540860 1_555
As2 Ga10 2.572383 1_555
As2 K4 3.345115 1_555
As2 K10 3.426918 1_565
As2 K7 3.469437 1_555
As2 K4 3.602194 1_455
As2 K2 3.630587 1_554
As3 Ga10 2.462327 1_555
As3 Ga2 2.480125 1_555
As3 Ga9 2.519715 1_555
As3 K8 3.280341 1_555
As3 K10 3.289978 1_555
As3 K9 3.452942 1_555
As3 K7 3.529303 1_555
As4 Ga3 2.462327 1_555
As4 Ga1 2.480125 1_555
As4 Ga4 2.519715 1_555
As4 K7 3.280341 1_556
As4 K2 3.289978 1_555
As4 K5 3.452942 1_555
As4 K8 3.529303 1_556
As5 Ga0 2.462327 1_565
As5 Ga7 2.480125 1_555
As5 Ga4 2.519715 1_555
As5 K11 3.280341 1_555
As5 K5 3.289978 1_555
As5 K2 3.452942 1_555
As5 K3 3.529303 1_565
As6 Ga4 2.525912 1_555
As6 Ga1 2.540860 1_455
As6 Ga7 2.572383 1_455
As6 K5 3.345115 1_455
As6 K0 3.426918 1_555
As6 K11 3.469437 1_555
As6 K5 3.602194 1_555
As6 K6 3.630587 1_455
As7 Ga1 2.462327 1_455
As7 Ga3 2.480125 1_555
As7 Ga5 2.519715 1_455
As7 K8 3.280341 1_456
As7 K1 3.289978 1_555
As7 K0 3.452942 1_555
As7 K7 3.529303 1_556
As8 Ga9 2.525912 1_555
As8 Ga11 2.540860 1_655
As8 Ga2 2.572383 1_655
As8 K10 3.345115 1_655
As8 K4 3.426918 1_545
As8 K8 3.469437 1_555
As8 K10 3.602194 1_555
As8 K1 3.630587 1_654
As9 Ga5 2.525912 1_555
As9 Ga0 2.540860 1_555
As9 Ga3 2.572383 1_555
As9 K1 3.345115 1_555
As9 K2 3.426918 1_545
As9 K8 3.469437 1_556
As9 K1 3.602194 1_655
As9 K10 3.630587 1_556
As10 Ga11 2.462327 1_665
As10 Ga6 2.480125 1_555
As10 Ga8 2.519715 1_655
As10 K11 3.280341 1_655
As10 K6 3.289978 1_555
As10 K4 3.452942 1_555
As10 K3 3.529303 1_565
As11 Ga6 2.462327 1_545
As11 Ga11 2.480125 1_555
As11 Ga9 2.519715 1_555
As11 K3 3.280341 1_555
As11 K9 3.289978 1_555
As11 K10 3.452942 1_555
As11 K11 3.529303 1_545
As12 Ga9 2.525912 1_555
As12 Ga2 2.540860 1_655
As12 Ga11 2.572383 1_655
As12 K9 3.345115 1_655
As12 K6 3.426918 1_555
As12 K3 3.469437 1_555
As12 K9 3.602194 1_555
As12 K0 3.630587 1_655
As13 Ga5 2.525912 1_555
As13 Ga3 2.540860 1_555
As13 Ga0 2.572383 1_555
As13 K0 3.345115 1_555
As13 K5 3.426918 1_555
As13 K3 3.469437 1_555
As13 K0 3.602194 1_655
As13 K9 3.630587 1_555
As14 Ga8 2.525912 1_555
As14 Ga10 2.540860 1_555
As14 Ga6 2.572383 1_555
As14 K6 3.345115 1_555
As14 K9 3.426918 1_555
As14 K11 3.469437 1_555
As14 K6 3.602194 1_455
As14 K5 3.630587 1_555
As15 Ga2 2.462327 1_655
As15 Ga10 2.480125 1_555
As15 Ga8 2.519715 1_655
As15 K7 3.280341 1_655
As15 K4 3.289978 1_555
As15 K6 3.452942 1_555
As15 K8 3.529303 1_555
