# generated using pymatgen
data_K2Th(MoO4)3
_symmetry_space_group_name_H-M   'P 1'
_cell_length_a   11.14043851
_cell_length_b   11.14043851
_cell_length_c   5.54003850
_cell_angle_alpha   79.67516634
_cell_angle_beta   79.67516634
_cell_angle_gamma   66.03477795
_symmetry_Int_Tables_number   1
_chemical_formula_structural   K2Th(MoO4)3
_chemical_formula_sum   'K4 Th2 Mo6 O24'
_cell_volume   613.77607340
_cell_formula_units_Z   2
loop_
 _symmetry_equiv_pos_site_id
 _symmetry_equiv_pos_as_xyz
  1  'x, y, z'
loop_
 _atom_site_type_symbol
 _atom_site_label
 _atom_site_symmetry_multiplicity
 _atom_site_fract_x
 _atom_site_fract_y
 _atom_site_fract_z
 _atom_site_occupancy
  K  K0  1  0.43118800  0.19835900  0.48887400  1
  K  K1  1  0.80164100  0.56881200  0.01112600  1
  K  K2  1  0.56881200  0.80164100  0.51112600  1
  K  K3  1  0.19835900  0.43118800  0.98887400  1
  Th  Th0  1  0.13150400  0.86849600  0.75000000  1
  Th  Th1  1  0.86849600  0.13150400  0.25000000  1
  Mo  Mo0  1  0.40284000  0.59716000  0.75000000  1
  Mo  Mo1  1  0.59716000  0.40284000  0.25000000  1
  Mo  Mo2  1  0.25368800  0.04195500  0.12683000  1
  Mo  Mo3  1  0.95804500  0.74631200  0.37317000  1
  Mo  Mo4  1  0.74631200  0.95804500  0.87317000  1
  Mo  Mo5  1  0.04195500  0.25368800  0.62683000  1
  O  O0  1  0.11468000  0.02058900  0.36792500  1
  O  O1  1  0.97941100  0.88532000  0.13207500  1
  O  O2  1  0.88532000  0.97941100  0.63207500  1
  O  O3  1  0.02058900  0.11468000  0.86792500  1
  O  O4  1  0.54500400  0.59304200  0.86365400  1
  O  O5  1  0.40695800  0.45499600  0.63634600  1
  O  O6  1  0.45499600  0.40695800  0.13634600  1
  O  O7  1  0.59304200  0.54500400  0.36365400  1
  O  O8  1  0.22593600  0.18962400  0.91684000  1
  O  O9  1  0.81037600  0.77406400  0.58316000  1
  O  O10  1  0.77406400  0.81037600  0.08316000  1
  O  O11  1  0.18962400  0.22593600  0.41684000  1
  O  O12  1  0.40173700  0.99942000  0.24916300  1
  O  O13  1  0.00058000  0.59826300  0.25083700  1
  O  O14  1  0.59826300  0.00058000  0.75083700  1
  O  O15  1  0.99942000  0.40173700  0.74916300  1
  O  O16  1  0.33850000  0.75123300  0.53687700  1
  O  O17  1  0.24876700  0.66150000  0.96312300  1
  O  O18  1  0.66150000  0.24876700  0.46312300  1
  O  O19  1  0.75123300  0.33850000  0.03687700  1
  O  O20  1  0.71693600  0.08097800  0.07545100  1
  O  O21  1  0.91902200  0.28306400  0.42454900  1
  O  O22  1  0.28306400  0.91902200  0.92454900  1
  O  O23  1  0.08097800  0.71693600  0.57545100  1
loop_
_geom_bond_atom_site_label_1
_geom_bond_atom_site_label_2
_geom_bond_distance
_geom_bond_site_symmetry_2
K0 O14 2.629801 1_555
K0 O11 2.676789 1_555
K0 O18 2.815936 1_555
K0 O6 2.823687 1_555
K0 O12 2.930019 1_545
K0 O8 3.002350 1_555
K0 O5 3.007627 1_555
K1 O15 2.629801 1_554
K1 O10 2.676789 1_555
K1 O19 2.815936 1_555
K1 O7 2.823687 1_555
K1 O13 2.930019 1_655
K1 O9 3.002350 1_554
K1 O4 3.007627 1_554
K2 O12 2.629801 1_555
K2 O9 2.676789 1_555
K2 O16 2.815936 1_555
K2 O4 2.823687 1_555
K2 O14 2.930019 1_565
K2 O10 3.002350 1_555
K2 O7 3.007627 1_555
K3 O13 2.629801 1_556
K3 O8 2.676789 1_555
K3 O17 2.815936 1_555
K3 O5 2.823687 1_555
K3 O15 2.930019 1_455
K3 O11 3.002350 1_556
K3 O6 3.007627 1_556
Mo0 O5 1.787447 1_555
Mo0 O4 1.787447 1_555
Mo0 O17 1.852421 1_555
Mo0 O16 1.852421 1_555
Mo1 O6 1.787447 1_555
Mo1 O7 1.787447 1_555
Mo1 O18 1.852421 1_555
Mo1 O19 1.852421 1_555
Mo2 O12 1.747803 1_545
Mo2 O8 1.784669 1_554
Mo2 O22 1.814700 1_544
Mo2 O0 1.919092 1_555
Mo2 O11 2.621597 1_555
Mo3 O13 1.747803 1_655
Mo3 O9 1.784669 1_555
Mo3 O23 1.814700 1_655
Mo3 O1 1.919092 1_555
Mo3 O10 2.621597 1_555
Mo4 O14 1.747803 1_565
Mo4 O10 1.784669 1_556
Mo4 O20 1.814700 1_566
Mo4 O2 1.919092 1_555
Mo4 O9 2.621597 1_555
Mo5 O15 1.747803 1_455
Mo5 O11 1.784669 1_555
Mo5 O21 1.814700 1_455
Mo5 O3 1.919092 1_555
Mo5 O8 2.621597 1_555
O0 Th0 2.446454 1_545
O0 Th1 2.659958 1_455
O1 Th0 2.446454 1_654
O1 Th1 2.659958 1_565
O2 Th1 2.446454 1_565
O2 Th0 2.659958 1_655
O3 Th1 2.446454 1_456
O3 Th0 2.659958 1_545
O16 Th0 2.355434 1_555
O17 Th0 2.355434 1_555
O18 Th1 2.355434 1_555
O19 Th1 2.355434 1_555
O20 Th1 2.378073 1_555
O21 Th1 2.378073 1_555
O22 Th0 2.378073 1_555
O23 Th0 2.378073 1_555
