# generated using pymatgen
data_Tl(Cu3S2)2
_symmetry_space_group_name_H-M   'P 1'
_cell_length_a   12.37206882
_cell_length_b   12.37206882
_cell_length_c   12.37206882
_cell_angle_alpha   161.74223915
_cell_angle_beta   161.74223915
_cell_angle_gamma   25.93203736
_symmetry_Int_Tables_number   1
_chemical_formula_structural   Tl(Cu3S2)2
_chemical_formula_sum   'Tl1 Cu6 S4'
_cell_volume   185.81552060
_cell_formula_units_Z   1
loop_
 _symmetry_equiv_pos_site_id
 _symmetry_equiv_pos_as_xyz
  1  'x, y, z'
loop_
 _atom_site_type_symbol
 _atom_site_label
 _atom_site_symmetry_multiplicity
 _atom_site_fract_x
 _atom_site_fract_y
 _atom_site_fract_z
 _atom_site_occupancy
  Tl  Tl0  1  0.00000000  0.00000000  0.00000000  1
  Cu  Cu0  1  0.75000000  0.25000000  0.50000000  1
  Cu  Cu1  1  0.87069200  0.37069200  0.50000000  1
  Cu  Cu2  1  0.12930800  0.62930800  0.50000000  1
  Cu  Cu3  1  0.62930800  0.12930800  0.50000000  1
  Cu  Cu4  1  0.37069200  0.87069200  0.50000000  1
  Cu  Cu5  1  0.25000000  0.75000000  0.50000000  1
  S  S0  1  0.41903000  0.41903000  0.00000000  1
  S  S1  1  0.19446700  0.19446700  0.00000000  1
  S  S2  1  0.80553300  0.80553300  0.00000000  1
  S  S3  1  0.58097000  0.58097000  0.00000000  1
loop_
_geom_bond_atom_site_label_1
_geom_bond_atom_site_label_2
_geom_bond_distance
_geom_bond_site_symmetry_2
Cu0 S1 2.376155 1_656
Cu0 S2 2.376155 1_556
Cu0 S2 2.376155 1_545
Cu0 S1 2.376155 1_555
Cu1 S0 2.282886 1_555
Cu1 S0 2.282886 1_656
Cu1 S2 2.514285 1_545
Cu1 S2 2.514285 1_556
Cu2 S3 2.282886 1_455
Cu2 S3 2.282886 1_556
Cu2 S1 2.514285 1_566
Cu2 S1 2.514285 1_555
Cu3 S3 2.282886 1_545
Cu3 S3 2.282886 1_556
Cu3 S1 2.514285 1_656
Cu3 S1 2.514285 1_555
Cu4 S0 2.282886 1_555
Cu4 S0 2.282886 1_566
Cu4 S2 2.514285 1_455
Cu4 S2 2.514285 1_556
Cu5 S1 2.376155 1_566
Cu5 S2 2.376155 1_455
Cu5 S2 2.376155 1_556
Cu5 S1 2.376155 1_555
