# generated using pymatgen
data_Ba2MnSi2ClO7
_symmetry_space_group_name_H-M   'P 1'
_cell_length_a   8.61307400
_cell_length_b   8.61307800
_cell_length_c   11.02695700
_cell_angle_alpha   89.99999480
_cell_angle_beta   89.99998815
_cell_angle_gamma   90.00011974
_symmetry_Int_Tables_number   1
_chemical_formula_structural   Ba2MnSi2ClO7
_chemical_formula_sum   'Ba8 Mn4 Si8 Cl4 O28'
_cell_volume   818.03566715
_cell_formula_units_Z   4
loop_
 _symmetry_equiv_pos_site_id
 _symmetry_equiv_pos_as_xyz
  1  'x, y, z'
loop_
 _atom_site_type_symbol
 _atom_site_label
 _atom_site_symmetry_multiplicity
 _atom_site_fract_x
 _atom_site_fract_y
 _atom_site_fract_z
 _atom_site_occupancy
  Ba  Ba0  1  0.82947400  0.32947600  0.09001800  1
  Ba  Ba1  1  0.82947600  0.32947400  0.59001700  1
  Ba  Ba2  1  0.17052600  0.67052500  0.09001800  1
  Ba  Ba3  1  0.17052400  0.67052600  0.59001700  1
  Ba  Ba4  1  0.32947500  0.17052600  0.09001800  1
  Ba  Ba5  1  0.32947400  0.17052400  0.59001800  1
  Ba  Ba6  1  0.67052500  0.82947400  0.09001700  1
  Ba  Ba7  1  0.67052500  0.82947600  0.59001700  1
  Mn  Mn0  1  0.50000400  0.49999800  0.89752400  1
  Mn  Mn1  1  0.00000000  0.00000300  0.39752700  1
  Mn  Mn2  1  0.49999700  0.50000500  0.39753000  1
  Mn  Mn3  1  0.00000100  0.00000000  0.89752900  1
  Si  Si0  1  0.62942900  0.12942900  0.35107900  1
  Si  Si1  1  0.62942900  0.12942900  0.85107900  1
  Si  Si2  1  0.12942900  0.37057100  0.35107900  1
  Si  Si3  1  0.12942900  0.37057000  0.85107900  1
  Si  Si4  1  0.87057100  0.62942900  0.35107900  1
  Si  Si5  1  0.87057100  0.62942900  0.85107900  1
  Si  Si6  1  0.37057100  0.87057100  0.35107900  1
  Si  Si7  1  0.37057100  0.87057100  0.85107900  1
  Cl  Cl0  1  0.00000000  0.00000000  0.16461200  1
  Cl  Cl1  1  0.00000000  0.00000000  0.66461300  1
  Cl  Cl2  1  0.50000000  0.50000000  0.16461500  1
  Cl  Cl3  1  0.50000000  0.50000000  0.66461300  1
  O  O0  1  0.50000000  0.00000000  0.40575200  1
  O  O1  1  0.49999900  0.00000000  0.90575200  1
  O  O2  1  0.00000000  0.50000000  0.40575100  1
  O  O3  1  0.00000000  0.49999900  0.90575200  1
  O  O4  1  0.12949000  0.37051000  0.20524400  1
  O  O5  1  0.12949100  0.37050900  0.70524300  1
  O  O6  1  0.62949100  0.12949000  0.20524400  1
  O  O7  1  0.62949000  0.12949000  0.70524400  1
  O  O8  1  0.37050900  0.87051000  0.20524400  1
  O  O9  1  0.37050900  0.87050900  0.70524400  1
  O  O10  1  0.87050900  0.62949000  0.20524400  1
  O  O11  1  0.87050900  0.62949000  0.70524400  1
  O  O12  1  0.79204900  0.07949900  0.41942400  1
  O  O13  1  0.79205000  0.07949900  0.91942500  1
  O  O14  1  0.57949900  0.29204900  0.41942500  1
  O  O15  1  0.57949900  0.29205000  0.91942300  1
  O  O16  1  0.07949900  0.20795000  0.41942300  1
  O  O17  1  0.07949800  0.20795000  0.91942500  1
  O  O18  1  0.70795000  0.57949800  0.41942400  1
  O  O19  1  0.70794900  0.57949800  0.91942400  1
  O  O20  1  0.29204900  0.42050100  0.41942500  1
  O  O21  1  0.29205000  0.42050100  0.91942300  1
  O  O22  1  0.42050200  0.70795000  0.41942500  1
  O  O23  1  0.42050200  0.70795000  0.91942300  1
  O  O24  1  0.20795100  0.92050100  0.41942300  1
  O  O25  1  0.20795000  0.92050100  0.91942500  1
  O  O26  1  0.92050200  0.79204900  0.41942400  1
  O  O27  1  0.92050000  0.79205000  0.91942600  1
loop_
_geom_bond_atom_site_label_1
_geom_bond_atom_site_label_2
_geom_bond_distance
_geom_bond_site_symmetry_2
Ba0 O6 2.747413 1_555
Ba0 O13 2.877192 1_554
Ba0 O15 2.877195 1_554
Ba0 O10 2.901138 1_555
Ba0 O4 2.901152 1_655
Ba0 O3 2.905680 1_654
Ba0 O19 3.044937 1_554
Ba0 O17 3.044945 1_654
Ba0 Cl2 3.299524 1_555
Ba0 Cl0 3.299539 1_655
Ba1 O7 2.747423 1_555
Ba1 O12 2.877182 1_555
Ba1 O14 2.877185 1_555
Ba1 O5 2.901145 1_655
Ba1 O11 2.901156 1_555
Ba1 O2 2.905684 1_655
Ba1 O16 3.044940 1_655
Ba1 O18 3.044946 1_555
Ba1 Cl1 3.299522 1_655
Ba1 Cl3 3.299543 1_555
Ba2 O8 2.747408 1_555
Ba2 O25 2.877185 1_554
Ba2 O23 2.877200 1_554
Ba2 O4 2.901147 1_555
Ba2 O10 2.901160 1_455
Ba2 O3 2.905694 1_554
Ba2 O27 3.044948 1_454
Ba2 O21 3.044953 1_554
Ba2 Cl2 3.299528 1_555
Ba2 Cl0 3.299531 1_565
Ba3 O9 2.747413 1_555
Ba3 O24 2.877189 1_555
Ba3 O22 2.877190 1_555
Ba3 O11 2.901150 1_455
Ba3 O5 2.901159 1_555
Ba3 O2 2.905685 1_555
Ba3 O26 3.044924 1_455
Ba3 O20 3.044942 1_555
Ba3 Cl1 3.299522 1_565
Ba3 Cl3 3.299544 1_555
Ba4 O4 2.747417 1_555
Ba4 O17 2.877192 1_554
Ba4 O21 2.877195 1_554
Ba4 O8 2.901154 1_545
Ba4 O6 2.901155 1_555
Ba4 O1 2.905688 1_554
Ba4 O25 3.044946 1_544
Ba4 O15 3.044950 1_554
Ba4 Cl2 3.299523 1_555
Ba4 Cl0 3.299525 1_555
Ba5 O5 2.747407 1_555
Ba5 O20 2.877194 1_555
Ba5 O16 2.877196 1_555
Ba5 O9 2.901147 1_545
Ba5 O7 2.901153 1_555
Ba5 O0 2.905688 1_555
Ba5 O24 3.044942 1_545
Ba5 O14 3.044945 1_555
Ba5 Cl1 3.299513 1_555
Ba5 Cl3 3.299536 1_555
Ba6 O10 2.747417 1_555
Ba6 O27 2.877164 1_554
Ba6 O19 2.877186 1_554
Ba6 O6 2.901159 1_565
Ba6 O8 2.901159 1_555
Ba6 O1 2.905689 1_564
Ba6 O23 3.044937 1_554
Ba6 O13 3.044939 1_564
Ba6 Cl2 3.299526 1_555
Ba6 Cl0 3.299528 1_665
Ba7 O11 2.747428 1_555
Ba7 O26 2.877195 1_555
Ba7 O18 2.877200 1_555
Ba7 O7 2.901144 1_565
Ba7 O9 2.901156 1_555
Ba7 O0 2.905676 1_565
Ba7 O22 3.044930 1_555
Ba7 O12 3.044930 1_565
Ba7 Cl1 3.299523 1_665
Ba7 Cl3 3.299535 1_555
Mn0 O19 1.932621 1_555
Mn0 O15 1.932632 1_555
Mn0 O21 1.932683 1_555
Mn0 O23 1.932685 1_555
Mn1 O16 1.932630 1_555
Mn1 O12 1.932656 1_455
Mn1 O24 1.932673 1_545
Mn1 O26 1.932684 1_445
Mn2 O22 1.932603 1_555
Mn2 O20 1.932651 1_555
Mn2 O18 1.932656 1_555
Mn2 O14 1.932712 1_555
Mn3 O17 1.932647 1_555
Mn3 O25 1.932647 1_545
Mn3 O27 1.932661 1_445
Mn3 O13 1.932663 1_455
Cl0 Mn1 2.568344 1_555
Cl0 Mn3 2.945113 1_554
Cl1 Mn3 2.568355 1_555
Cl1 Mn1 2.945146 1_555
Cl2 Mn2 2.568344 1_555
Cl2 Mn0 2.945201 1_554
Cl3 Mn0 2.568300 1_555
Cl3 Mn2 2.945113 1_555
O0 Si0 1.687878 1_555
O0 Si6 1.687878 1_545
O1 Si7 1.687872 1_545
O1 Si1 1.687884 1_555
O2 Si2 1.687877 1_555
O2 Si4 1.687877 1_455
O3 Si3 1.687881 1_555
O3 Si5 1.687887 1_455
O4 Si2 1.608116 1_555
O5 Si3 1.608127 1_555
O6 Si0 1.608116 1_555
O7 Si1 1.608116 1_555
O8 Si6 1.608116 1_555
O9 Si7 1.608116 1_555
O10 Si4 1.608116 1_555
O11 Si5 1.608116 1_555
O12 Si0 1.647653 1_555
O13 Si1 1.647665 1_555
O14 Si0 1.647658 1_555
O15 Si1 1.647655 1_555
O16 Si2 1.647654 1_555
O17 Si3 1.647659 1_555
O18 Si4 1.647660 1_555
O19 Si5 1.647668 1_555
O20 Si2 1.647656 1_555
O21 Si3 1.647656 1_555
O22 Si6 1.647668 1_555
O23 Si7 1.647658 1_555
O24 Si6 1.647647 1_555
O25 Si7 1.647665 1_555
O26 Si4 1.647654 1_555
O27 Si5 1.647667 1_555
