# generated using pymatgen
data_ZrMnTlF7
_symmetry_space_group_name_H-M   'P 1'
_cell_length_a   6.54774876
_cell_length_b   6.54774876
_cell_length_c   8.41330900
_cell_angle_alpha   90.00000000
_cell_angle_beta   90.00000000
_cell_angle_gamma   117.58110830
_symmetry_Int_Tables_number   1
_chemical_formula_structural   ZrMnTlF7
_chemical_formula_sum   'Zr2 Mn2 Tl2 F14'
_cell_volume   319.71218185
_cell_formula_units_Z   2
loop_
 _symmetry_equiv_pos_site_id
 _symmetry_equiv_pos_as_xyz
  1  'x, y, z'
loop_
 _atom_site_type_symbol
 _atom_site_label
 _atom_site_symmetry_multiplicity
 _atom_site_fract_x
 _atom_site_fract_y
 _atom_site_fract_z
 _atom_site_occupancy
  Zr  Zr0  1  0.19263600  0.80736400  0.75000000  1
  Zr  Zr1  1  0.80736400  0.19263600  0.25000000  1
  Mn  Mn0  1  0.81233100  0.18766900  0.75000000  1
  Mn  Mn1  1  0.18766900  0.81233100  0.25000000  1
  Tl  Tl0  1  0.50000000  0.50000000  0.50000000  1
  Tl  Tl1  1  0.50000000  0.50000000  0.00000000  1
  F  F0  1  0.44754700  0.15625000  0.75000000  1
  F  F1  1  0.80435600  0.19564400  0.49429000  1
  F  F2  1  0.47479400  0.16660100  0.25000000  1
  F  F3  1  0.83339900  0.52520600  0.25000000  1
  F  F4  1  0.52520600  0.83339900  0.75000000  1
  F  F5  1  0.19564400  0.80435600  0.50571000  1
  F  F6  1  0.19564400  0.80435600  0.99429000  1
  F  F7  1  0.00768100  0.99231900  0.75000000  1
  F  F8  1  0.15625000  0.44754700  0.25000000  1
  F  F9  1  0.80435600  0.19564400  0.00571000  1
  F  F10  1  0.99231900  0.00768100  0.25000000  1
  F  F11  1  0.16660100  0.47479400  0.75000000  1
  F  F12  1  0.84375000  0.55245300  0.75000000  1
  F  F13  1  0.55245300  0.84375000  0.25000000  1
loop_
_geom_bond_atom_site_label_1
_geom_bond_atom_site_label_2
_geom_bond_distance
_geom_bond_site_symmetry_2
F0 Zr0 2.115102 1_545
F0 Mn0 2.300501 1_555
F1 Zr1 2.055563 1_555
F1 Mn0 2.153221 1_555
F2 Zr1 2.104089 1_555
F2 Mn1 2.208395 1_545
F3 Zr1 2.104089 1_555
F3 Mn1 2.208395 1_655
F4 Zr0 2.104089 1_555
F4 Mn0 2.208395 1_565
F5 Zr0 2.055563 1_555
F5 Mn1 2.153221 1_555
F6 Zr0 2.055563 1_555
F6 Mn1 2.153221 1_556
F7 Zr0 2.071552 1_555
F7 Mn0 2.187979 1_465
F8 Zr1 2.115102 1_455
F8 Mn1 2.300501 1_555
F9 Zr1 2.055563 1_555
F9 Mn0 2.153221 1_554
F10 Zr1 2.071552 1_555
F10 Mn1 2.187979 1_645
F11 Zr0 2.104089 1_555
F11 Mn0 2.208395 1_455
F12 Zr0 2.115102 1_655
F12 Mn0 2.300501 1_555
F13 Zr1 2.115102 1_565
F13 Mn1 2.300501 1_555
