# generated using pymatgen
data_UHg4(AsCl3)2
_symmetry_space_group_name_H-M   'P 1'
_cell_length_a   13.96074988
_cell_length_b   14.21917385
_cell_length_c   17.44182232
_cell_angle_alpha   90.00000000
_cell_angle_beta   90.00000000
_cell_angle_gamma   90.00000000
_symmetry_Int_Tables_number   1
_chemical_formula_structural   UHg4(AsCl3)2
_chemical_formula_sum   'U8 Hg32 As16 Cl48'
_cell_volume   3462.38189792
_cell_formula_units_Z   8
loop_
 _symmetry_equiv_pos_site_id
 _symmetry_equiv_pos_as_xyz
  1  'x, y, z'
loop_
 _atom_site_type_symbol
 _atom_site_label
 _atom_site_symmetry_multiplicity
 _atom_site_fract_x
 _atom_site_fract_y
 _atom_site_fract_z
 _atom_site_occupancy
  U  U0  1  0.19993880  0.49017910  0.61415199  1
  U  U1  1  0.30006120  0.50982090  0.11415199  1
  U  U2  1  0.80006120  0.99017910  0.88584801  1
  U  U3  1  0.80006120  0.50982090  0.38584801  1
  U  U4  1  0.30006120  0.99017910  0.61415199  1
  U  U5  1  0.69993880  0.00982090  0.38584801  1
  U  U6  1  0.69993880  0.49017910  0.88584801  1
  U  U7  1  0.19993880  0.00982090  0.11415199  1
  Hg  Hg0  1  0.91065249  0.00994774  0.64384288  1
  Hg  Hg1  1  0.91065249  0.49005226  0.14384288  1
  Hg  Hg2  1  0.52178224  0.20829179  0.99765362  1
  Hg  Hg3  1  0.97557060  0.75673325  0.74819711  1
  Hg  Hg4  1  0.41065249  0.49005226  0.35615712  1
  Hg  Hg5  1  0.72774548  0.73449330  0.12760316  1
  Hg  Hg6  1  0.77225452  0.26550670  0.62760316  1
  Hg  Hg7  1  0.02442940  0.24326675  0.25180289  1
  Hg  Hg8  1  0.58934751  0.50994774  0.64384288  1
  Hg  Hg9  1  0.08934751  0.99005226  0.35615712  1
  Hg  Hg10  1  0.02442940  0.25673325  0.75180289  1
  Hg  Hg11  1  0.27225452  0.26550670  0.87239684  1
  Hg  Hg12  1  0.47821776  0.79170821  0.00234638  1
  Hg  Hg13  1  0.08934751  0.50994774  0.85615712  1
  Hg  Hg14  1  0.97821776  0.70829179  0.99765362  1
  Hg  Hg15  1  0.52442940  0.25673325  0.74819711  1
  Hg  Hg16  1  0.02178224  0.20829179  0.50234638  1
  Hg  Hg17  1  0.27225452  0.23449330  0.37239684  1
  Hg  Hg18  1  0.47557060  0.75673325  0.75180289  1
  Hg  Hg19  1  0.02178224  0.29170821  0.00234638  1
  Hg  Hg20  1  0.58934751  0.99005226  0.14384288  1
  Hg  Hg21  1  0.52442940  0.24326675  0.24819711  1
  Hg  Hg22  1  0.97821776  0.79170821  0.49765362  1
  Hg  Hg23  1  0.22774548  0.73449330  0.37239684  1
  Hg  Hg24  1  0.41065249  0.00994774  0.85615712  1
  Hg  Hg25  1  0.47557060  0.74326675  0.25180289  1
  Hg  Hg26  1  0.22774548  0.76550670  0.87239684  1
  Hg  Hg27  1  0.97557060  0.74326675  0.24819711  1
  Hg  Hg28  1  0.47821776  0.70829179  0.50234638  1
  Hg  Hg29  1  0.72774548  0.76550670  0.62760316  1
  Hg  Hg30  1  0.52178224  0.29170821  0.49765362  1
  Hg  Hg31  1  0.77225452  0.23449330  0.12760316  1
  As  As0  1  0.39911885  0.67033580  0.37208856  1
  As  As1  1  0.93818231  0.31083699  0.13342313  1
  As  As2  1  0.56181769  0.68916301  0.63342313  1
  As  As3  1  0.60088115  0.32966420  0.62791144  1
  As  As4  1  0.56181769  0.81083699  0.13342313  1
  As  As5  1  0.93818231  0.18916301  0.63342313  1
  As  As6  1  0.06181769  0.81083699  0.36657687  1
  As  As7  1  0.10088115  0.17033580  0.37208856  1
  As  As8  1  0.10088115  0.32966420  0.87208856  1
  As  As9  1  0.60088115  0.17033580  0.12791144  1
  As  As10  1  0.06181769  0.68916301  0.86657687  1
  As  As11  1  0.89911885  0.82966420  0.62791144  1
  As  As12  1  0.43818231  0.18916301  0.86657687  1
  As  As13  1  0.43818231  0.31083699  0.36657687  1
  As  As14  1  0.39911885  0.82966420  0.87208856  1
  As  As15  1  0.89911885  0.67033580  0.12791144  1
  Cl  Cl0  1  0.76636718  0.92493540  0.26533813  1
  Cl  Cl1  1  0.46935264  0.51284369  0.17687968  1
  Cl  Cl2  1  0.26376697  0.83223028  0.68152324  1
  Cl  Cl3  1  0.83776766  0.35170605  0.45335212  1
  Cl  Cl4  1  0.16223234  0.64829395  0.54664788  1
  Cl  Cl5  1  0.23623303  0.16776972  0.18152324  1
  Cl  Cl6  1  0.96935264  0.51284369  0.32312032  1
  Cl  Cl7  1  0.73363282  0.07506460  0.76533813  1
  Cl  Cl8  1  0.73363282  0.42493540  0.26533813  1
  Cl  Cl9  1  0.37216156  0.49053093  0.55419258  1
  Cl  Cl10  1  0.03064736  0.01284369  0.17687968  1
  Cl  Cl11  1  0.33776766  0.14829395  0.54664788  1
  Cl  Cl12  1  0.16223234  0.85170605  0.04664788  1
  Cl  Cl13  1  0.66223234  0.85170605  0.45335212  1
  Cl  Cl14  1  0.53064736  0.48715631  0.82312032  1
  Cl  Cl15  1  0.73623303  0.33223028  0.81847676  1
  Cl  Cl16  1  0.13934012  0.39868930  0.49496168  1
  Cl  Cl17  1  0.63934012  0.10131070  0.50503832  1
  Cl  Cl18  1  0.36065988  0.89868930  0.49496168  1
  Cl  Cl19  1  0.26636718  0.92493540  0.23466187  1
  Cl  Cl20  1  0.76376697  0.66776972  0.31847676  1
  Cl  Cl21  1  0.46935264  0.98715631  0.67687968  1
  Cl  Cl22  1  0.96935264  0.98715631  0.82312032  1
  Cl  Cl23  1  0.37216156  0.00946907  0.05419258  1
  Cl  Cl24  1  0.87216156  0.49053093  0.94580742  1
  Cl  Cl25  1  0.63934012  0.39868930  0.00503832  1
  Cl  Cl26  1  0.53064736  0.01284369  0.32312032  1
  Cl  Cl27  1  0.03064736  0.48715631  0.67687968  1
  Cl  Cl28  1  0.26376697  0.66776972  0.18152324  1
  Cl  Cl29  1  0.86065988  0.89868930  0.00503832  1
  Cl  Cl30  1  0.23363282  0.42493540  0.23466187  1
  Cl  Cl31  1  0.23623303  0.33223028  0.68152324  1
  Cl  Cl32  1  0.83776766  0.14829395  0.95335212  1
  Cl  Cl33  1  0.66223234  0.64829395  0.95335212  1
  Cl  Cl34  1  0.62783844  0.99053093  0.94580742  1
  Cl  Cl35  1  0.76376697  0.83223028  0.81847676  1
  Cl  Cl36  1  0.33776766  0.35170605  0.04664788  1
  Cl  Cl37  1  0.12783844  0.99053093  0.55419258  1
  Cl  Cl38  1  0.13934012  0.10131070  0.99496168  1
  Cl  Cl39  1  0.23363282  0.07506460  0.73466187  1
  Cl  Cl40  1  0.62783844  0.50946907  0.44580742  1
  Cl  Cl41  1  0.26636718  0.57506460  0.73466187  1
  Cl  Cl42  1  0.73623303  0.16776972  0.31847676  1
  Cl  Cl43  1  0.12783844  0.50946907  0.05419258  1
  Cl  Cl44  1  0.36065988  0.60131070  0.99496168  1
  Cl  Cl45  1  0.86065988  0.60131070  0.50503832  1
  Cl  Cl46  1  0.76636718  0.57506460  0.76533813  1
  Cl  Cl47  1  0.87216156  0.00946907  0.44580742  1
loop_
_geom_bond_atom_site_label_1
_geom_bond_atom_site_label_2
_geom_bond_distance
_geom_bond_site_symmetry_2
As0 Hg23 2.560531 1_555
As0 Hg25 2.572197 1_555
As0 Hg28 2.583098 1_555
As0 Hg4 2.583522 1_555
As1 Hg31 2.560229 1_555
As1 Hg7 2.576072 1_655
As1 Hg19 2.581266 1_655
As1 Hg1 2.583513 1_555
As2 Hg29 2.560229 1_555
As2 Hg18 2.576072 1_555
As2 Hg28 2.581266 1_555
As2 Hg8 2.583513 1_555
As3 Hg6 2.560531 1_555
As3 Hg15 2.572197 1_555
As3 Hg30 2.583098 1_555
As3 Hg8 2.583522 1_555
As4 Hg5 2.560229 1_555
As4 Hg25 2.576072 1_555
As4 Hg12 2.581266 1_555
As4 Hg20 2.583513 1_555
As5 Hg6 2.560229 1_555
As5 Hg10 2.576072 1_655
As5 Hg16 2.581266 1_655
As5 Hg0 2.583513 1_555
As6 Hg23 2.560229 1_555
As6 Hg27 2.576072 1_455
As6 Hg22 2.581266 1_455
As6 Hg9 2.583513 1_555
As7 Hg17 2.560531 1_555
As7 Hg7 2.572197 1_555
As7 Hg16 2.583098 1_555
As7 Hg9 2.583522 1_545
As8 Hg11 2.560531 1_555
As8 Hg10 2.572197 1_555
As8 Hg19 2.583098 1_556
As8 Hg13 2.583522 1_555
As9 Hg31 2.560531 1_555
As9 Hg21 2.572197 1_555
As9 Hg2 2.583098 1_554
As9 Hg20 2.583522 1_545
As10 Hg26 2.560229 1_555
As10 Hg3 2.576072 1_455
As10 Hg14 2.581266 1_455
As10 Hg13 2.583513 1_555
As11 Hg29 2.560531 1_555
As11 Hg3 2.572197 1_555
As11 Hg22 2.583098 1_555
As11 Hg0 2.583522 1_565
As12 Hg11 2.560229 1_555
As12 Hg15 2.576072 1_555
As12 Hg2 2.581266 1_555
As12 Hg24 2.583513 1_555
As13 Hg17 2.560229 1_555
As13 Hg21 2.576072 1_555
As13 Hg30 2.581266 1_555
As13 Hg4 2.583513 1_555
As14 Hg26 2.560531 1_555
As14 Hg18 2.572197 1_555
As14 Hg12 2.583098 1_556
As14 Hg24 2.583522 1_565
As15 Hg5 2.560531 1_555
As15 Hg27 2.572197 1_555
As15 Hg14 2.583098 1_554
As15 Hg1 2.583522 1_555
Cl0 U5 2.595176 1_565
Cl1 U1 2.604745 1_555
Cl2 U4 2.584883 1_555
Cl3 U3 2.591920 1_555
Cl4 U0 2.591920 1_555
Cl5 U7 2.584883 1_555
Cl6 U3 2.604745 1_555
Cl7 U2 2.595176 1_545
Cl8 U3 2.595176 1_555
Cl9 U0 2.621959 1_555
Cl10 U7 2.604745 1_555
Cl11 U4 2.591920 1_545
Cl12 U7 2.591920 1_565
Cl13 U5 2.591920 1_565
Cl14 U6 2.604745 1_555
Cl15 U6 2.584883 1_555
Cl16 U0 2.594204 1_555
Cl17 U5 2.594204 1_555
Cl18 U4 2.594204 1_555
Cl19 U7 2.595176 1_565
Cl20 U3 2.584883 1_555
Cl21 U4 2.604745 1_555
Cl22 U2 2.604745 1_555
Cl23 U7 2.621959 1_555
Cl24 U6 2.621959 1_555
Cl25 U6 2.594204 1_554
Cl26 U5 2.604745 1_555
Cl27 U0 2.604745 1_555
Cl28 U1 2.584883 1_555
Cl29 U2 2.594204 1_554
Cl30 U1 2.595176 1_555
Cl31 U0 2.584883 1_555
Cl32 U2 2.591920 1_545
Cl33 U6 2.591920 1_555
Cl34 U2 2.621959 1_555
Cl35 U2 2.584883 1_555
Cl36 U1 2.591920 1_555
Cl37 U4 2.621959 1_555
Cl38 U7 2.594204 1_556
Cl39 U4 2.595176 1_545
Cl40 U3 2.621959 1_555
Cl41 U0 2.595176 1_555
Cl42 U5 2.584883 1_555
Cl43 U1 2.621959 1_555
Cl44 U1 2.594204 1_556
Cl45 U3 2.594204 1_555
Cl46 U6 2.595176 1_555
Cl47 U5 2.621959 1_555
