# generated using pymatgen
data_Tl2Ni3S2
_symmetry_space_group_name_H-M   'P 1'
_cell_length_a   5.59672114
_cell_length_b   5.59671971
_cell_length_c   5.59672087
_cell_angle_alpha   58.81578653
_cell_angle_beta   58.81579655
_cell_angle_gamma   58.81579878
_symmetry_Int_Tables_number   1
_chemical_formula_structural   Tl2Ni3S2
_chemical_formula_sum   'Tl2 Ni3 S2'
_cell_volume   120.60917497
_cell_formula_units_Z   1
loop_
 _symmetry_equiv_pos_site_id
 _symmetry_equiv_pos_as_xyz
  1  'x, y, z'
loop_
 _atom_site_type_symbol
 _atom_site_label
 _atom_site_symmetry_multiplicity
 _atom_site_fract_x
 _atom_site_fract_y
 _atom_site_fract_z
 _atom_site_occupancy
  Tl  Tl0  1  -0.00000000  0.00000000  0.00000000  1
  Tl  Tl1  1  0.50000000  0.50000000  0.50000000  1
  Ni  Ni0  1  -0.00000000  0.50000000  0.50000000  1
  Ni  Ni1  1  0.50000000  0.50000000  0.00000000  1
  Ni  Ni2  1  0.50000000  0.00000000  0.50000000  1
  S  S0  1  0.77200779  0.77200779  0.77200779  1
  S  S1  1  0.22799221  0.22799221  0.22799221  1
loop_
_geom_bond_atom_site_label_1
_geom_bond_atom_site_label_2
_geom_bond_distance
_geom_bond_site_symmetry_2
Ni0 S1 2.154070 1_555
Ni0 S0 2.154070 1_455
Ni0 Tl0 2.748123 1_556
Ni0 Tl0 2.748123 1_565
Ni0 Tl1 2.798361 1_455
Ni0 Tl1 2.798361 1_555
Ni1 S1 2.154070 1_555
Ni1 S0 2.154070 1_554
Ni1 Tl0 2.748123 1_565
Ni1 Tl0 2.748123 1_655
Ni1 Tl1 2.798360 1_555
Ni1 Tl1 2.798360 1_554
Ni2 S0 2.154070 1_545
Ni2 S1 2.154070 1_555
Ni2 Tl0 2.748123 1_556
Ni2 Tl0 2.748123 1_655
Ni2 Tl1 2.798360 1_545
Ni2 Tl1 2.798360 1_555
S0 Tl0 3.153251 1_666
S1 Tl0 3.153251 1_555
