# generated using pymatgen
data_CrCu(PS3)2
_symmetry_space_group_name_H-M   'P 1'
_cell_length_a   10.37801300
_cell_length_b   5.98536600
_cell_length_c   14.53043325
_cell_angle_alpha   74.92798852
_cell_angle_beta   90.00000000
_cell_angle_gamma   90.00000000
_symmetry_Int_Tables_number   1
_chemical_formula_structural   CrCu(PS3)2
_chemical_formula_sum   'Cr4 Cu4 P8 S24'
_cell_volume   871.52658614
_cell_formula_units_Z   4
loop_
 _symmetry_equiv_pos_site_id
 _symmetry_equiv_pos_as_xyz
  1  'x, y, z'
loop_
 _atom_site_type_symbol
 _atom_site_label
 _atom_site_symmetry_multiplicity
 _atom_site_fract_x
 _atom_site_fract_y
 _atom_site_fract_z
 _atom_site_occupancy
  Cr  Cr0  1  0.91908700  0.25200900  0.75125800  1
  Cr  Cr1  1  0.41908700  0.74799100  0.74874200  1
  Cr  Cr2  1  0.58091300  0.25200900  0.25125800  1
  Cr  Cr3  1  0.08091300  0.74799100  0.24874200  1
  Cu  Cu0  1  0.75240000  0.81531900  0.64967700  1
  Cu  Cu1  1  0.25240000  0.18468100  0.85032300  1
  Cu  Cu2  1  0.24760000  0.18468100  0.35032300  1
  Cu  Cu3  1  0.74760000  0.81531900  0.14967700  1
  P  P0  1  0.08323800  0.69284900  0.82990500  1
  P  P1  1  0.58891700  0.21041100  0.82580400  1
  P  P2  1  0.41108300  0.78958900  0.17419600  1
  P  P3  1  0.41676200  0.69284900  0.32990500  1
  P  P4  1  0.91676200  0.30715100  0.17009500  1
  P  P5  1  0.91108300  0.21041100  0.32580400  1
  P  P6  1  0.08891700  0.78958900  0.67419600  1
  P  P7  1  0.58323800  0.30715100  0.67009500  1
  S  S0  1  0.57100900  0.51324500  0.86166600  1
  S  S1  1  0.75650200  0.03764800  0.86194900  1
  S  S2  1  0.06620100  0.98243700  0.36521300  1
  S  S3  1  0.92899100  0.51324500  0.36166600  1
  S  S4  1  0.07241900  0.51382900  0.13349500  1
  S  S5  1  0.24349800  0.96235200  0.13805100  1
  S  S6  1  0.74349800  0.03764800  0.36194900  1
  S  S7  1  0.43379900  0.98243700  0.86521300  1
  S  S8  1  0.56388800  0.99837700  0.63051600  1
  S  S9  1  0.06388800  0.00162300  0.86948400  1
  S  S10  1  0.43611200  0.00162300  0.36948400  1
  S  S11  1  0.93379900  0.01756300  0.63478700  1
  S  S12  1  0.23688700  0.54176100  0.36964800  1
  S  S13  1  0.57241900  0.48617100  0.36650500  1
  S  S14  1  0.26311300  0.54176100  0.86964800  1
  S  S15  1  0.42758100  0.51382900  0.63349500  1
  S  S16  1  0.92758100  0.48617100  0.86650500  1
  S  S17  1  0.25650200  0.96235200  0.63805100  1
  S  S18  1  0.73688700  0.45823900  0.13035200  1
  S  S19  1  0.42899100  0.48675500  0.13833400  1
  S  S20  1  0.07100900  0.48675500  0.63833400  1
  S  S21  1  0.56620100  0.01756300  0.13478700  1
  S  S22  1  0.93611200  0.99837700  0.13051600  1
  S  S23  1  0.76311300  0.45823900  0.63035200  1
loop_
_geom_bond_atom_site_label_1
_geom_bond_atom_site_label_2
_geom_bond_distance
_geom_bond_site_symmetry_2
Cr0 S20 2.439942 1_655
Cr0 S16 2.448867 1_555
Cr0 S1 2.450893 1_555
Cr0 S11 2.468116 1_555
Cr0 S23 2.470315 1_555
Cr0 S9 2.473134 1_655
Cr1 S0 2.439942 1_555
Cr1 S15 2.448867 1_555
Cr1 S17 2.450893 1_555
Cr1 S7 2.468116 1_555
Cr1 S14 2.470315 1_555
Cr1 S8 2.473134 1_555
Cr2 S19 2.439942 1_555
Cr2 S13 2.448867 1_555
Cr2 S6 2.450893 1_555
Cr2 S21 2.468116 1_555
Cr2 S18 2.470315 1_555
Cr2 S10 2.473134 1_555
Cr3 S3 2.439942 1_455
Cr3 S4 2.448867 1_555
Cr3 S5 2.450893 1_555
Cr3 S2 2.468116 1_555
Cr3 S12 2.470315 1_555
Cr3 S22 2.473134 1_455
Cu0 S11 2.218099 1_565
Cu0 S8 2.224136 1_555
Cu0 S23 2.229614 1_555
Cu1 S7 2.218099 1_545
Cu1 S9 2.224136 1_555
Cu1 S14 2.229614 1_555
Cu2 S2 2.218099 1_545
Cu2 S10 2.224136 1_555
Cu2 S12 2.229614 1_555
Cu3 S21 2.218099 1_565
Cu3 S22 2.224136 1_555
Cu3 S18 2.229614 1_555
P0 S16 2.020028 1_455
P0 S9 2.083120 1_565
P0 S14 2.089120 1_555
P0 P6 2.185503 1_555
P1 S0 2.020570 1_555
P1 S1 2.021749 1_555
P1 S7 2.091635 1_545
P1 P7 2.185503 1_555
P2 S19 2.020570 1_555
P2 S5 2.021749 1_555
P2 S21 2.091635 1_565
P2 P3 2.185503 1_555
P3 S13 2.020028 1_555
P3 S10 2.083120 1_565
P3 S12 2.089120 1_555
P4 S4 2.020028 1_655
P4 S22 2.083120 1_545
P4 S18 2.089120 1_555
P4 P5 2.185503 1_555
P5 S3 2.020570 1_555
P5 S6 2.021749 1_555
P5 S2 2.091635 1_645
P6 S20 2.020570 1_555
P6 S17 2.021749 1_555
P6 S11 2.091635 1_465
P7 S15 2.020028 1_555
P7 S8 2.083120 1_545
P7 S23 2.089120 1_555
