# generated using pymatgen
data_NdTeBrO3
_symmetry_space_group_name_H-M   'P 1'
_cell_length_a   3.92603000
_cell_length_b   3.92603000
_cell_length_c   27.93683500
_cell_angle_alpha   90.00000000
_cell_angle_beta   90.00000000
_cell_angle_gamma   90.00000000
_symmetry_Int_Tables_number   1
_chemical_formula_structural   NdTeBrO3
_chemical_formula_sum   'Nd4 Te4 Br4 O12'
_cell_volume   430.61031661
_cell_formula_units_Z   4
loop_
 _symmetry_equiv_pos_site_id
 _symmetry_equiv_pos_as_xyz
  1  'x, y, z'
loop_
 _atom_site_type_symbol
 _atom_site_label
 _atom_site_symmetry_multiplicity
 _atom_site_fract_x
 _atom_site_fract_y
 _atom_site_fract_z
 _atom_site_occupancy
  Nd  Nd0  1  0.00000000  0.50000000  0.71112500  1
  Nd  Nd1  1  0.50000000  0.00000000  0.28887500  1
  Nd  Nd2  1  0.50000000  0.00000000  0.95566200  1
  Nd  Nd3  1  0.00000000  0.50000000  0.04433800  1
  Te  Te0  1  0.50000000  0.00000000  0.79282800  1
  Te  Te1  1  0.00000000  0.50000000  0.38059500  1
  Te  Te2  1  0.00000000  0.50000000  0.20717200  1
  Te  Te3  1  0.50000000  0.00000000  0.61940500  1
  Br  Br0  1  0.50000000  0.00000000  0.44410400  1
  Br  Br1  1  0.00000000  0.50000000  0.55589600  1
  Br  Br2  1  0.50000000  0.00000000  0.10386700  1
  Br  Br3  1  0.00000000  0.50000000  0.89613300  1
  O  O0  1  0.50000000  0.00000000  0.72143700  1
  O  O1  1  0.00000000  0.50000000  0.27856300  1
  O  O2  1  0.00000000  0.00000000  0.77524700  1
  O  O3  1  0.50000000  0.50000000  0.34711000  1
  O  O4  1  0.00000000  0.00000000  0.34711000  1
  O  O5  1  0.50000000  0.50000000  0.22475300  1
  O  O6  1  0.00000000  0.00000000  0.65289000  1
  O  O7  1  0.00000000  0.00000000  0.22475300  1
  O  O8  1  0.50000000  0.50000000  0.00000000  1
  O  O9  1  0.50000000  0.50000000  0.77524700  1
  O  O10  1  0.50000000  0.50000000  0.65289000  1
  O  O11  1  0.00000000  0.00000000  0.00000000  1
loop_
_geom_bond_atom_site_label_1
_geom_bond_atom_site_label_2
_geom_bond_distance
_geom_bond_site_symmetry_2
Nd0 O10 2.549556 1_455
Nd0 O10 2.549556 1_555
Nd0 O6 2.549556 1_565
Nd0 O6 2.549556 1_555
Nd0 O2 2.657521 1_555
Nd0 O9 2.657521 1_455
Nd0 O2 2.657521 1_565
Nd0 O9 2.657521 1_555
Nd0 O0 2.791030 1_555
Nd0 O0 2.791030 1_455
Nd0 O0 2.791030 1_565
Nd0 O0 2.791030 1_465
Nd1 O4 2.549556 1_555
Nd1 O3 2.549556 1_545
Nd1 O4 2.549556 1_655
Nd1 O3 2.549556 1_555
Nd1 O5 2.657521 1_555
Nd1 O5 2.657521 1_545
Nd1 O7 2.657521 1_555
Nd1 O7 2.657521 1_655
Nd1 O1 2.791030 1_545
Nd1 O1 2.791030 1_645
Nd1 O1 2.791030 1_655
Nd1 O1 2.791030 1_555
Nd2 O11 2.321145 1_656
Nd2 O8 2.321145 1_556
Nd2 O11 2.321145 1_556
Nd2 O8 2.321145 1_546
Nd3 O11 2.321145 1_555
Nd3 O8 2.321145 1_455
Nd3 O8 2.321145 1_555
Nd3 O11 2.321145 1_565
Br0 Te1 3.294660 1_545
Br0 Te1 3.294660 1_645
Br0 Te1 3.294660 1_555
Br0 Te1 3.294660 1_655
Br1 Te3 3.294660 1_455
Br1 Te3 3.294660 1_565
Br1 Te3 3.294660 1_465
Br1 Te3 3.294660 1_555
Br2 Nd3 3.236139 1_655
Br2 Nd3 3.236139 1_555
Br2 Nd3 3.236139 1_545
Br2 Nd3 3.236139 1_645
Br3 Nd2 3.236139 1_555
Br3 Nd2 3.236139 1_565
Br3 Nd2 3.236139 1_455
Br3 Nd2 3.236139 1_465
O0 Te0 1.994439 1_555
O1 Te2 1.994439 1_555
O2 Te0 2.023528 1_555
O2 Te0 2.023528 1_455
O3 Te1 2.174517 1_555
O3 Te1 2.174517 1_655
O4 Te1 2.174517 1_545
O4 Te1 2.174517 1_555
O5 Te2 2.023528 1_555
O5 Te2 2.023528 1_655
O6 Te3 2.174517 1_455
O6 Te3 2.174517 1_555
O7 Te2 2.023528 1_545
O7 Te2 2.023528 1_555
O9 Te0 2.023528 1_555
O9 Te0 2.023528 1_565
O10 Te3 2.174517 1_565
O10 Te3 2.174517 1_555
