# generated using pymatgen
data_NaNd4I7N2
_symmetry_space_group_name_H-M   'P 1'
_cell_length_a   11.20904400
_cell_length_b   12.11781000
_cell_length_c   14.48376500
_cell_angle_alpha   90.00000000
_cell_angle_beta   90.00000000
_cell_angle_gamma   90.00000000
_symmetry_Int_Tables_number   1
_chemical_formula_structural   NaNd4I7N2
_chemical_formula_sum   'Na4 Nd16 I28 N8'
_cell_volume   1967.31626449
_cell_formula_units_Z   4
loop_
 _symmetry_equiv_pos_site_id
 _symmetry_equiv_pos_as_xyz
  1  'x, y, z'
loop_
 _atom_site_type_symbol
 _atom_site_label
 _atom_site_symmetry_multiplicity
 _atom_site_fract_x
 _atom_site_fract_y
 _atom_site_fract_z
 _atom_site_occupancy
  Na  Na0  1  0.04875500  0.25409900  0.90288400  1
  Na  Na1  1  0.54875500  0.75409900  0.59711600  1
  Na  Na2  1  0.45124500  0.25409900  0.40288400  1
  Na  Na3  1  0.95124500  0.75409900  0.09711600  1
  Nd  Nd0  1  0.91699900  0.32534000  0.40000100  1
  Nd  Nd1  1  0.12197500  0.31839300  0.58406300  1
  Nd  Nd2  1  0.39834800  0.06236800  0.91326800  1
  Nd  Nd3  1  0.12312400  0.58389200  0.41829000  1
  Nd  Nd4  1  0.37802500  0.31839300  0.08406300  1
  Nd  Nd5  1  0.62312400  0.08389200  0.08171000  1
  Nd  Nd6  1  0.37687600  0.58389200  0.91829000  1
  Nd  Nd7  1  0.62197500  0.81839300  0.91593700  1
  Nd  Nd8  1  0.87802500  0.81839300  0.41593700  1
  Nd  Nd9  1  0.41699900  0.82534000  0.09999900  1
  Nd  Nd10  1  0.08300100  0.82534000  0.59999900  1
  Nd  Nd11  1  0.10165200  0.06236800  0.41326800  1
  Nd  Nd12  1  0.87687600  0.08389200  0.58171000  1
  Nd  Nd13  1  0.58300100  0.32534000  0.90000100  1
  Nd  Nd14  1  0.60165200  0.56236800  0.08673200  1
  Nd  Nd15  1  0.89834800  0.56236800  0.58673200  1
  I  I0  1  0.18711300  0.29491800  0.29525300  1
  I  I1  1  0.65291400  0.96061600  0.48578500  1
  I  I2  1  0.43572500  0.03796700  0.24548700  1
  I  I3  1  0.69021700  0.29137900  0.52254200  1
  I  I4  1  0.80978300  0.29137900  0.02254200  1
  I  I5  1  0.93572500  0.53796700  0.25451300  1
  I  I6  1  0.19021700  0.79137900  0.97745800  1
  I  I7  1  0.15291400  0.46061600  0.01421500  1
  I  I8  1  0.36848300  0.59877000  0.22391600  1
  I  I9  1  0.84708600  0.96061600  0.98578500  1
  I  I10  1  0.86848300  0.09877000  0.27608400  1
  I  I11  1  0.09220100  0.83724900  0.26966800  1
  I  I12  1  0.13151700  0.59877000  0.72391600  1
  I  I13  1  0.34708600  0.46061600  0.51421500  1
  I  I14  1  0.31642500  0.11548800  0.54689200  1
  I  I15  1  0.81288700  0.79491800  0.70474700  1
  I  I16  1  0.63151700  0.09877000  0.77608400  1
  I  I17  1  0.18357500  0.11548800  0.04689200  1
  I  I18  1  0.59220100  0.33724900  0.23033200  1
  I  I19  1  0.31288700  0.29491800  0.79525300  1
  I  I20  1  0.40779900  0.83724900  0.76966800  1
  I  I21  1  0.68357500  0.61548800  0.45310800  1
  I  I22  1  0.68711300  0.79491800  0.20474700  1
  I  I23  1  0.06427500  0.03796700  0.74548700  1
  I  I24  1  0.81642500  0.61548800  0.95310800  1
  I  I25  1  0.30978300  0.79137900  0.47745800  1
  I  I26  1  0.90779900  0.33724900  0.73033200  1
  I  I27  1  0.56427500  0.53796700  0.75451300  1
  N  N0  1  0.99524100  0.69711000  0.50277000  1
  N  N1  1  0.51566800  0.94782100  0.00299500  1
  N  N2  1  0.48433200  0.44782100  0.99700500  1
  N  N3  1  0.50475900  0.69711000  0.00277000  1
  N  N4  1  0.01566800  0.44782100  0.49700500  1
  N  N5  1  0.98433200  0.94782100  0.50299500  1
  N  N6  1  0.00475900  0.19711000  0.49723000  1
  N  N7  1  0.49524100  0.19711000  0.99723000  1
loop_
_geom_bond_atom_site_label_1
_geom_bond_atom_site_label_2
_geom_bond_distance
_geom_bond_site_symmetry_2
I0 Na2 3.382365 1_555
I0 Nd0 3.406570 1_455
I0 Nd11 3.432267 1_555
I0 Nd4 3.743887 1_555
I0 Nd3 3.994026 1_555
I1 Na1 3.197799 1_555
I1 Nd8 3.218791 1_555
I1 Nd12 3.234804 1_565
I2 Nd5 3.216981 1_555
I2 Nd9 3.335137 1_545
I2 Na2 3.476594 1_555
I3 Nd0 3.127504 1_555
I3 Na2 3.222245 1_555
I3 Nd12 3.381367 1_555
I4 Nd13 3.127504 1_554
I4 Na0 3.222245 1_654
I4 Nd5 3.381367 1_555
I5 Nd3 3.216981 1_655
I5 Nd0 3.335137 1_555
I5 Na3 3.476594 1_555
I6 Nd9 3.127504 1_556
I6 Na3 3.222245 1_456
I6 Nd6 3.381367 1_555
I7 Na0 3.197799 1_554
I7 Nd4 3.218791 1_555
I7 Nd6 3.234804 1_554
I8 Nd14 3.312616 1_555
I8 Nd9 3.324897 1_555
I8 Nd3 3.939804 1_555
I8 Nd4 3.957002 1_555
I9 Na3 3.197799 1_556
I9 Nd7 3.218791 1_555
I9 Nd5 3.234804 1_566
I10 Nd11 3.312616 1_655
I10 Nd0 3.324897 1_555
I10 Nd5 3.939804 1_555
I10 Nd8 3.957002 1_545
I11 Na3 3.123717 1_455
I11 Nd8 3.209947 1_455
I11 Nd11 3.432023 1_565
I11 Nd3 3.765577 1_555
I12 Nd15 3.312616 1_455
I12 Nd10 3.324897 1_555
I12 Nd6 3.939804 1_555
I12 Nd1 3.957002 1_555
I13 Na2 3.197799 1_555
I13 Nd1 3.218791 1_555
I13 Nd3 3.234804 1_555
I14 Na2 3.074975 1_555
I14 Nd11 3.155252 1_555
I14 Nd1 3.329568 1_555
I15 Na1 3.382365 1_555
I15 Nd10 3.406570 1_655
I15 Nd15 3.432267 1_555
I15 Nd7 3.743887 1_555
I15 Nd12 3.994026 1_565
I16 Nd2 3.312616 1_555
I16 Nd13 3.324897 1_555
I16 Nd12 3.939804 1_555
I16 Nd7 3.957002 1_545
I17 Na0 3.074975 1_554
I17 Nd2 3.155252 1_554
I17 Nd4 3.329568 1_555
I18 Na2 3.123717 1_555
I18 Nd4 3.209947 1_555
I18 Nd14 3.432023 1_555
I18 Nd5 3.765577 1_555
I19 Na0 3.382365 1_555
I19 Nd13 3.406570 1_555
I19 Nd2 3.432267 1_555
I19 Nd1 3.743887 1_555
I19 Nd6 3.994026 1_555
I20 Na1 3.123717 1_555
I20 Nd7 3.209947 1_555
I20 Nd2 3.432023 1_565
I20 Nd6 3.765577 1_555
I21 Na1 3.074975 1_555
I21 Nd15 3.155252 1_555
I21 Nd8 3.329568 1_555
I22 Na3 3.382365 1_555
I22 Nd9 3.406570 1_555
I22 Nd14 3.432267 1_555
I22 Nd8 3.743887 1_555
I22 Nd5 3.994026 1_565
I23 Nd12 3.216981 1_455
I23 Nd10 3.335137 1_545
I23 Na0 3.476594 1_555
I24 Na3 3.074975 1_556
I24 Nd14 3.155252 1_556
I24 Nd7 3.329568 1_555
I25 Nd10 3.127504 1_555
I25 Na1 3.222245 1_555
I25 Nd3 3.381367 1_555
I26 Na0 3.123717 1_655
I26 Nd1 3.209947 1_655
I26 Nd15 3.432023 1_555
I26 Nd12 3.765577 1_555
I27 Nd6 3.216981 1_555
I27 Nd13 3.335137 1_555
I27 Na1 3.476594 1_555
N0 Nd15 2.307465 1_555
N0 Nd10 2.316317 1_655
N0 Nd3 2.331136 1_655
N0 Nd8 2.338372 1_555
N1 Nd2 2.311919 1_564
N1 Nd9 2.323798 1_555
N1 Nd5 2.338672 1_565
N1 Nd7 2.338734 1_554
N2 Nd14 2.311919 1_556
N2 Nd13 2.323798 1_555
N2 Nd6 2.338672 1_555
N2 Nd4 2.338734 1_556
N3 Nd14 2.307465 1_555
N3 Nd9 2.316317 1_555
N3 Nd6 2.331136 1_554
N3 Nd7 2.338372 1_554
N4 Nd15 2.311919 1_455
N4 Nd0 2.323798 1_455
N4 Nd3 2.338672 1_555
N4 Nd1 2.338734 1_555
N5 Nd11 2.311919 1_665
N5 Nd10 2.323798 1_655
N5 Nd12 2.338672 1_565
N5 Nd8 2.338734 1_555
N6 Nd11 2.307465 1_555
N6 Nd0 2.316317 1_455
N6 Nd12 2.331136 1_455
N6 Nd1 2.338372 1_555
N7 Nd2 2.307465 1_555
N7 Nd13 2.316317 1_555
N7 Nd5 2.331136 1_556
N7 Nd4 2.338372 1_556
