# generated using pymatgen
data_YGe2Ir
_symmetry_space_group_name_H-M   'P 1'
_cell_length_a   9.41888178
_cell_length_b   9.41888178
_cell_length_c   9.41888178
_cell_angle_alpha   153.80916785
_cell_angle_beta   124.02658592
_cell_angle_gamma   62.81232904
_symmetry_Int_Tables_number   1
_chemical_formula_structural   YGe2Ir
_chemical_formula_sum   'Y4 Ge8 Ir4'
_cell_volume   303.31054229
_cell_formula_units_Z   4
loop_
 _symmetry_equiv_pos_site_id
 _symmetry_equiv_pos_as_xyz
  1  'x, y, z'
loop_
 _atom_site_type_symbol
 _atom_site_label
 _atom_site_symmetry_multiplicity
 _atom_site_fract_x
 _atom_site_fract_y
 _atom_site_fract_z
 _atom_site_occupancy
  Y  Y0  1  0.29441718  0.79441718  0.50000000  1
  Y  Y1  1  0.26124879  0.00000000  0.26124879  1
  Y  Y2  1  0.73875121  -0.00000000  0.73875121  1
  Y  Y3  1  0.70558282  0.20558282  0.50000000  1
  Ge  Ge0  1  0.57677863  0.57677863  -0.00000000  1
  Ge  Ge1  1  0.95246771  0.79903392  0.15343478  1
  Ge  Ge2  1  0.64559914  0.79903392  0.84656522  1
  Ge  Ge3  1  0.04753229  0.20096608  0.84656522  1
  Ge  Ge4  1  0.92254711  0.42254711  0.50000000  1
  Ge  Ge5  1  0.42322137  0.42322137  -0.00000000  1
  Ge  Ge6  1  0.07745289  0.57745289  0.50000000  1
  Ge  Ge7  1  0.35440086  0.20096608  0.15343478  1
  Ir  Ir0  1  0.89688652  0.64549423  0.25139229  1
  Ir  Ir1  1  0.10311348  0.35450577  0.74860771  1
  Ir  Ir2  1  0.60589607  0.35450577  0.25139229  1
  Ir  Ir3  1  0.39410393  0.64549423  0.74860771  1
loop_
_geom_bond_atom_site_label_1
_geom_bond_atom_site_label_2
_geom_bond_distance
_geom_bond_site_symmetry_2
Ge0 Ge5 2.468883 1_555
Ge0 Ir3 2.481767 1_554
Ge0 Ir0 2.481768 1_555
Ge0 Y3 2.973700 1_554
Ge0 Y3 2.973700 1_565
Ge0 Y2 3.245380 1_565
Ge0 Y2 3.245380 1_554
Ge0 Y1 3.245380 1_565
Ge0 Y1 3.245380 1_554
Ge1 Ir1 2.461203 1_665
Ge1 Ir1 2.461206 1_654
Ge1 Ir0 2.616067 1_555
Ge1 Ge2 2.712703 1_554
Ge1 Y3 2.941327 1_565
Ge1 Y3 2.941330 1_554
Ge1 Y0 3.064517 1_655
Ge1 Y1 3.368758 1_665
Ge2 Ir2 2.461194 1_555
Ge2 Ir2 2.461201 1_566
Ge2 Ir3 2.616055 1_555
Ge2 Y3 2.941334 1_566
Ge2 Y3 2.941334 1_555
Ge2 Y0 3.064513 1_555
Ge2 Y2 3.368749 1_565
Ge3 Ir0 2.461203 1_445
Ge3 Ir0 2.461206 1_456
Ge3 Ir1 2.616067 1_555
Ge3 Ge7 2.712703 1_556
Ge3 Y0 2.941327 1_545
Ge3 Y0 2.941330 1_556
Ge3 Y3 3.064517 1_455
Ge3 Y2 3.368758 1_455
Ge4 Ir1 2.454901 1_655
Ge4 Ir2 2.454916 1_555
Ge4 Y1 3.382071 1_655
Ge4 Y1 3.382071 1_666
Ge4 Y2 3.382071 1_554
Ge4 Y2 3.382071 1_565
Ge4 Y3 3.488337 1_555
Ge5 Ir2 2.481767 1_555
Ge5 Ir1 2.481768 1_554
Ge5 Y0 2.973700 1_544
Ge5 Y0 2.973700 1_555
Ge5 Y1 3.245380 1_565
Ge5 Y2 3.245380 1_565
Ge5 Y1 3.245380 1_554
Ge5 Y2 3.245380 1_554
Ge6 Ir0 2.454901 1_455
Ge6 Ir3 2.454916 1_555
Ge6 Y1 3.382071 1_566
Ge6 Y1 3.382071 1_555
Ge6 Y2 3.382071 1_454
Ge6 Y2 3.382071 1_465
Ge6 Y0 3.488337 1_555
Ge7 Ir3 2.461194 1_555
Ge7 Ir3 2.461201 1_544
Ge7 Ir2 2.616055 1_555
Ge7 Y0 2.941334 1_555
Ge7 Y0 2.941334 1_544
Ge7 Y3 3.064513 1_555
Ge7 Y1 3.368749 1_555
Ir0 Y2 3.168408 1_554
Ir0 Y2 3.168408 1_565
Ir0 Y3 3.228959 1_565
Ir0 Y3 3.228959 1_554
Ir0 Y0 3.250047 1_655
Ir1 Y1 3.168408 1_566
Ir1 Y1 3.168408 1_555
Ir1 Y0 3.228959 1_545
Ir1 Y0 3.228959 1_556
Ir1 Y3 3.250047 1_455
Ir2 Y2 3.168416 1_565
Ir2 Y2 3.168422 1_554
Ir2 Y0 3.228945 1_555
Ir2 Y0 3.228951 1_544
Ir2 Y3 3.250041 1_555
Ir3 Y1 3.168416 1_555
Ir3 Y1 3.168422 1_566
Ir3 Y3 3.228945 1_555
Ir3 Y3 3.228951 1_566
Ir3 Y0 3.250041 1_555
