# generated using pymatgen
data_NaFe3O5
_symmetry_space_group_name_H-M   'P 1'
_cell_length_a   3.03135200
_cell_length_b   10.91893100
_cell_length_c   11.88504700
_cell_angle_alpha   90.00000000
_cell_angle_beta   90.00000000
_cell_angle_gamma   90.00000000
_symmetry_Int_Tables_number   1
_chemical_formula_structural   NaFe3O5
_chemical_formula_sum   'Na4 Fe12 O20'
_cell_volume   393.38463637
_cell_formula_units_Z   4
loop_
 _symmetry_equiv_pos_site_id
 _symmetry_equiv_pos_as_xyz
  1  'x, y, z'
loop_
 _atom_site_type_symbol
 _atom_site_label
 _atom_site_symmetry_multiplicity
 _atom_site_fract_x
 _atom_site_fract_y
 _atom_site_fract_z
 _atom_site_occupancy
  Na  Na0  1  0.50000000  0.95795500  0.24903200  1
  Na  Na1  1  0.50000000  0.04204500  0.75096800  1
  Na  Na2  1  0.00000000  0.45795500  0.25096800  1
  Na  Na3  1  0.00000000  0.54204500  0.74903200  1
  Fe  Fe0  1  0.50000000  0.20572100  0.11762700  1
  Fe  Fe1  1  0.50000000  0.79427900  0.88237300  1
  Fe  Fe2  1  0.00000000  0.70572100  0.38237300  1
  Fe  Fe3  1  0.00000000  0.29427900  0.61762700  1
  Fe  Fe4  1  0.00000000  0.22015000  0.38177800  1
  Fe  Fe5  1  0.00000000  0.77985000  0.61822200  1
  Fe  Fe6  1  0.50000000  0.72015000  0.11822200  1
  Fe  Fe7  1  0.50000000  0.27985000  0.88177800  1
  Fe  Fe8  1  0.00000000  0.00000000  0.00000000  1
  Fe  Fe9  1  0.50000000  0.50000000  0.50000000  1
  Fe  Fe10  1  0.00000000  0.50000000  0.00000000  1
  Fe  Fe11  1  0.50000000  0.00000000  0.50000000  1
  O  O0  1  0.00000000  0.08922100  0.14774600  1
  O  O1  1  0.00000000  0.91077900  0.85225400  1
  O  O2  1  0.50000000  0.58922100  0.35225400  1
  O  O3  1  0.50000000  0.41077900  0.64774600  1
  O  O4  1  0.00000000  0.04229200  0.39109300  1
  O  O5  1  0.00000000  0.95770800  0.60890700  1
  O  O6  1  0.50000000  0.54229200  0.10890700  1
  O  O7  1  0.50000000  0.45770800  0.89109300  1
  O  O8  1  0.00000000  0.31405900  0.04092800  1
  O  O9  1  0.00000000  0.68594100  0.95907200  1
  O  O10  1  0.50000000  0.81405900  0.45907200  1
  O  O11  1  0.50000000  0.18594100  0.54092800  1
  O  O12  1  0.50000000  0.26353000  0.28078600  1
  O  O13  1  0.50000000  0.73647000  0.71921400  1
  O  O14  1  0.00000000  0.76353000  0.21921400  1
  O  O15  1  0.00000000  0.23647000  0.78078600  1
  O  O16  1  0.00000000  0.38331100  0.45700700  1
  O  O17  1  0.00000000  0.61668900  0.54299300  1
  O  O18  1  0.50000000  0.88331100  0.04299300  1
  O  O19  1  0.50000000  0.11668900  0.95700700  1
loop_
_geom_bond_atom_site_label_1
_geom_bond_atom_site_label_2
_geom_bond_distance
_geom_bond_site_symmetry_2
Na0 O0 2.408461 1_565
Na0 O0 2.408461 1_665
Na0 O4 2.448668 1_665
Na0 O4 2.448668 1_565
Na0 O18 2.580856 1_555
Na0 O14 2.632418 1_555
Na0 O14 2.632418 1_655
Na0 O10 2.949632 1_555
Na1 O1 2.408461 1_545
Na1 O1 2.408461 1_645
Na1 O5 2.448668 1_545
Na1 O5 2.448668 1_645
Na1 O19 2.580856 1_555
Na1 O15 2.632418 1_655
Na1 O15 2.632418 1_555
Na1 O11 2.949632 1_555
Na2 O2 2.408461 1_555
Na2 O2 2.408461 1_455
Na2 O6 2.448668 1_555
Na2 O6 2.448668 1_455
Na2 O16 2.580856 1_555
Na2 O12 2.632418 1_455
Na2 O12 2.632418 1_555
Na2 O8 2.949632 1_555
Na3 O3 2.408461 1_455
Na3 O3 2.408461 1_555
Na3 O7 2.448668 1_555
Na3 O7 2.448668 1_455
Na3 O17 2.580856 1_555
Na3 O13 2.632418 1_455
Na3 O13 2.632418 1_555
Na3 O9 2.949632 1_555
Fe0 O0 2.010855 1_655
Fe0 O0 2.010855 1_555
Fe0 O12 2.039299 1_555
Fe0 O8 2.127809 1_555
Fe0 O8 2.127809 1_655
Fe0 O19 2.142250 1_554
Fe1 O1 2.010855 1_555
Fe1 O1 2.010855 1_655
Fe1 O13 2.039299 1_555
Fe1 O9 2.127809 1_555
Fe1 O9 2.127809 1_655
Fe1 O18 2.142250 1_556
Fe2 O2 2.010855 1_455
Fe2 O2 2.010855 1_555
Fe2 O14 2.039299 1_555
Fe2 O10 2.127809 1_555
Fe2 O10 2.127809 1_455
Fe2 O17 2.142250 1_555
Fe3 O3 2.010855 1_555
Fe3 O3 2.010855 1_455
Fe3 O15 2.039299 1_555
Fe3 O11 2.127809 1_455
Fe3 O11 2.127809 1_555
Fe3 O16 2.142250 1_555
Fe4 O4 1.945172 1_555
Fe4 O12 1.990562 1_455
Fe4 O12 1.990562 1_555
Fe4 O16 1.993317 1_555
Fe4 O11 2.452466 1_455
Fe4 O11 2.452466 1_555
Fe5 O5 1.945172 1_555
Fe5 O13 1.990562 1_455
Fe5 O13 1.990562 1_555
Fe5 O17 1.993317 1_555
Fe5 O10 2.452466 1_455
Fe5 O10 2.452466 1_555
Fe6 O6 1.945172 1_555
Fe6 O14 1.990562 1_555
Fe6 O14 1.990562 1_655
Fe6 O18 1.993317 1_555
Fe6 O9 2.452466 1_654
Fe6 O9 2.452466 1_554
Fe7 O7 1.945172 1_555
Fe7 O15 1.990562 1_555
Fe7 O15 1.990562 1_655
Fe7 O19 1.993317 1_555
Fe7 O8 2.452466 1_656
Fe7 O8 2.452466 1_556
Fe8 O0 2.008105 1_555
Fe8 O1 2.008105 1_544
Fe8 O19 2.044932 1_454
Fe8 O19 2.044932 1_554
Fe8 O18 2.044932 1_545
Fe8 O18 2.044932 1_445
Fe9 O2 2.008105 1_555
Fe9 O3 2.008105 1_555
Fe9 O16 2.044932 1_555
Fe9 O16 2.044932 1_655
Fe9 O17 2.044932 1_655
Fe9 O17 2.044932 1_555
Fe10 O7 2.045947 1_454
Fe10 O7 2.045947 1_554
Fe10 O6 2.045947 1_455
Fe10 O6 2.045947 1_555
Fe10 O9 2.087736 1_554
Fe10 O8 2.087736 1_555
Fe11 O5 2.045947 1_645
Fe11 O4 2.045947 1_555
Fe11 O4 2.045947 1_655
Fe11 O5 2.045947 1_545
Fe11 O11 2.087736 1_555
Fe11 O10 2.087736 1_545
