# generated using pymatgen
data_Ca2SiO4
_symmetry_space_group_name_H-M   'P 1'
_cell_length_a   5.59798000
_cell_length_b   9.34881500
_cell_length_c   20.53646700
_cell_angle_alpha   90.00000000
_cell_angle_beta   90.00000000
_cell_angle_gamma   90.00000000
_symmetry_Int_Tables_number   1
_chemical_formula_structural   Ca2SiO4
_chemical_formula_sum   'Ca24 Si12 O48'
_cell_volume   1074.76530903
_cell_formula_units_Z   12
loop_
 _symmetry_equiv_pos_site_id
 _symmetry_equiv_pos_as_xyz
  1  'x, y, z'
loop_
 _atom_site_type_symbol
 _atom_site_label
 _atom_site_symmetry_multiplicity
 _atom_site_fract_x
 _atom_site_fract_y
 _atom_site_fract_z
 _atom_site_occupancy
  Ca  Ca0  1  0.24056700  0.57381100  0.27907300  1
  Ca  Ca1  1  0.78193300  0.05898100  0.55736600  1
  Ca  Ca2  1  0.76506000  0.42709700  0.38984800  1
  Ca  Ca3  1  0.28193300  0.55898100  0.94263400  1
  Ca  Ca4  1  0.73994300  0.70350100  0.83614900  1
  Ca  Ca5  1  0.75909600  0.78967500  0.67058800  1
  Ca  Ca6  1  0.74056700  0.42618900  0.72092700  1
  Ca  Ca7  1  0.28997700  0.19966000  0.99593000  1
  Ca  Ca8  1  0.28193300  0.94101900  0.44263400  1
  Ca  Ca9  1  0.23994300  0.29649900  0.16385100  1
  Ca  Ca10  1  0.23994300  0.20350100  0.66385100  1
  Ca  Ca11  1  0.78997700  0.80034000  0.00407000  1
  Ca  Ca12  1  0.75909600  0.71032500  0.17058800  1
  Ca  Ca13  1  0.78193300  0.44101900  0.05736700  1
  Ca  Ca14  1  0.78997700  0.69966000  0.50407000  1
  Ca  Ca15  1  0.28997700  0.30034000  0.49593000  1
  Ca  Ca16  1  0.76506000  0.07290300  0.88984800  1
  Ca  Ca17  1  0.24056700  0.92618900  0.77907300  1
  Ca  Ca18  1  0.74056700  0.07381100  0.22092700  1
  Ca  Ca19  1  0.25909600  0.21032500  0.32941200  1
  Ca  Ca20  1  0.73994300  0.79649900  0.33614900  1
  Ca  Ca21  1  0.25909600  0.28967500  0.82941200  1
  Ca  Ca22  1  0.26506000  0.57290300  0.61015200  1
  Ca  Ca23  1  0.26506000  0.92709700  0.11015200  1
  Si  Si0  1  0.25879600  0.59244400  0.42829700  1
  Si  Si1  1  0.28649300  0.59250300  0.09598400  1
  Si  Si2  1  0.25879600  0.90755600  0.92829700  1
  Si  Si3  1  0.78649300  0.09250300  0.40401600  1
  Si  Si4  1  0.74405100  0.08021900  0.74087400  1
  Si  Si5  1  0.75879600  0.09244400  0.07170300  1
  Si  Si6  1  0.74405100  0.41978100  0.24087400  1
  Si  Si7  1  0.24405100  0.58021900  0.75912600  1
  Si  Si8  1  0.75879600  0.40755600  0.57170300  1
  Si  Si9  1  0.78649300  0.40749700  0.90401600  1
  Si  Si10  1  0.24405100  0.91978100  0.25912600  1
  Si  Si11  1  0.28649300  0.90749700  0.59598400  1
  O  O0  1  0.02588700  0.66244200  0.07662400  1
  O  O1  1  0.49729300  0.78851400  0.58047900  1
  O  O2  1  0.34072900  0.45026000  0.38567200  1
  O  O3  1  0.53817900  0.29513200  0.25011900  1
  O  O4  1  0.49655900  0.86503900  0.22484300  1
  O  O5  1  0.33524400  0.05032500  0.54910600  1
  O  O6  1  0.83524400  0.55032500  0.95089400  1
  O  O7  1  0.50473400  0.35104700  0.60528800  1
  O  O8  1  0.84072900  0.95026000  0.11432800  1
  O  O9  1  0.99729300  0.21148600  0.41952100  1
  O  O10  1  0.96706400  0.21696600  0.07634500  1
  O  O11  1  0.79728000  0.45529200  0.82802400  1
  O  O12  1  0.18985400  0.54853700  0.50296100  1
  O  O13  1  0.99655900  0.13496100  0.77515700  1
  O  O14  1  0.18985400  0.95146300  0.00296100  1
  O  O15  1  0.46706400  0.78303400  0.92365500  1
  O  O16  1  0.49729300  0.71148600  0.08047900  1
  O  O17  1  0.79888400  0.04600500  0.66483200  1
  O  O18  1  0.00473400  0.64895300  0.39471200  1
  O  O19  1  0.99729300  0.28851400  0.91952100  1
  O  O20  1  0.66767700  0.93221600  0.78072600  1
  O  O21  1  0.52588700  0.16244200  0.42337600  1
  O  O22  1  0.00473400  0.85104700  0.89471200  1
  O  O23  1  0.16767700  0.43221600  0.71927400  1
  O  O24  1  0.79728000  0.04470800  0.32802400  1
  O  O25  1  0.66767700  0.56778400  0.28072600  1
  O  O26  1  0.46706400  0.71696600  0.42365500  1
  O  O27  1  0.16767700  0.06778400  0.21927400  1
  O  O28  1  0.03817900  0.79513200  0.24988100  1
  O  O29  1  0.29728000  0.95529200  0.67197600  1
  O  O30  1  0.68985400  0.04853700  0.99703900  1
  O  O31  1  0.79888400  0.45399500  0.16483200  1
  O  O32  1  0.29888400  0.54600500  0.83516800  1
  O  O33  1  0.99655900  0.36503900  0.27515700  1
  O  O34  1  0.68985400  0.45146300  0.49703900  1
  O  O35  1  0.33524400  0.44967500  0.04910600  1
  O  O36  1  0.02588700  0.83755800  0.57662400  1
  O  O37  1  0.50473400  0.14895300  0.10528800  1
  O  O38  1  0.34072900  0.04974000  0.88567200  1
  O  O39  1  0.53817900  0.20486800  0.75011900  1
  O  O40  1  0.84072900  0.54974000  0.61432800  1
  O  O41  1  0.29888400  0.95399500  0.33516800  1
  O  O42  1  0.52588700  0.33755800  0.92337600  1
  O  O43  1  0.83524400  0.94967500  0.45089400  1
  O  O44  1  0.49655900  0.63496100  0.72484300  1
  O  O45  1  0.96706400  0.28303400  0.57634500  1
  O  O46  1  0.03817900  0.70486800  0.74988100  1
  O  O47  1  0.29728000  0.54470800  0.17197600  1
loop_
_geom_bond_atom_site_label_1
_geom_bond_atom_site_label_2
_geom_bond_distance
_geom_bond_site_symmetry_2
Ca0 O47 2.238784 1_555
Ca0 O33 2.383632 1_455
Ca0 O25 2.391858 1_555
Ca0 O28 2.433955 1_555
Ca0 O2 2.537911 1_555
Ca0 O18 2.806446 1_555
Ca1 O17 2.212339 1_555
Ca1 O45 2.369268 1_555
Ca1 O43 2.431942 1_545
Ca1 O5 2.507609 1_555
Ca1 O36 2.511272 1_645
Ca2 O34 2.252768 1_555
Ca2 O2 2.386788 1_555
Ca2 O18 2.472238 1_655
Ca2 O9 2.474775 1_555
Ca2 O25 2.655010 1_555
Ca2 O33 2.750216 1_555
Ca2 O21 2.896279 1_555
Ca3 O32 2.212339 1_555
Ca3 O15 2.369268 1_555
Ca3 O35 2.431942 1_556
Ca3 O6 2.507609 1_455
Ca3 O42 2.511272 1_555
Ca4 O11 2.348489 1_555
Ca4 O22 2.355063 1_655
Ca4 O46 2.434372 1_655
Ca4 O20 2.455829 1_555
Ca4 O15 2.473007 1_555
Ca4 O44 2.737134 1_555
Ca4 O6 2.808588 1_555
Ca4 O32 2.874809 1_555
Ca5 O44 2.343812 1_555
Ca5 O1 2.360600 1_555
Ca5 O46 2.391875 1_655
Ca5 O17 2.409612 1_565
Ca5 O36 2.480847 1_655
Ca5 O40 2.564229 1_555
Ca5 O20 2.674629 1_555
Ca6 O11 2.238784 1_555
Ca6 O44 2.383632 1_555
Ca6 O23 2.391858 1_655
Ca6 O39 2.433955 1_555
Ca6 O40 2.537911 1_555
Ca6 O7 2.806446 1_555
Ca7 O42 2.371948 1_555
Ca7 O14 2.391445 1_546
Ca7 O19 2.415949 1_455
Ca7 O10 2.453786 1_456
Ca7 O37 2.591092 1_556
Ca7 O35 2.592288 1_556
Ca7 O30 2.647164 1_555
Ca7 O38 2.678101 1_555
Ca8 O41 2.212339 1_555
Ca8 O26 2.369268 1_555
Ca8 O5 2.431942 1_565
Ca8 O43 2.507609 1_455
Ca8 O21 2.511272 1_565
Ca9 O47 2.348489 1_555
Ca9 O37 2.355063 1_555
Ca9 O3 2.434372 1_555
Ca9 O27 2.455829 1_555
Ca9 O10 2.473007 1_455
Ca9 O33 2.737134 1_455
Ca9 O35 2.808588 1_555
Ca9 O31 2.874809 1_455
Ca10 O29 2.348489 1_545
Ca10 O7 2.355063 1_555
Ca10 O39 2.434372 1_555
Ca10 O23 2.455829 1_555
Ca10 O45 2.473007 1_455
Ca10 O13 2.737134 1_455
Ca10 O5 2.808588 1_555
Ca10 O17 2.874809 1_455
Ca11 O0 2.371948 1_655
Ca11 O30 2.391445 1_564
Ca11 O16 2.415949 1_555
Ca11 O15 2.453786 1_554
Ca11 O22 2.591092 1_654
Ca11 O6 2.592288 1_554
Ca11 O14 2.647164 1_655
Ca11 O8 2.678101 1_555
Ca12 O4 2.343812 1_555
Ca12 O16 2.360600 1_555
Ca12 O28 2.391875 1_655
Ca12 O31 2.409612 1_555
Ca12 O0 2.480847 1_655
Ca12 O8 2.564229 1_555
Ca12 O25 2.674629 1_555
Ca13 O31 2.212319 1_555
Ca13 O10 2.369265 1_555
Ca13 O6 2.431961 1_554
Ca13 O35 2.507611 1_555
Ca13 O0 2.511269 1_655
Ca14 O36 2.371948 1_655
Ca14 O34 2.391445 1_555
Ca14 O1 2.415949 1_555
Ca14 O26 2.453786 1_555
Ca14 O18 2.591092 1_655
Ca14 O43 2.592288 1_555
Ca14 O12 2.647164 1_655
Ca14 O40 2.678101 1_555
Ca15 O21 2.371948 1_555
Ca15 O12 2.391445 1_555
Ca15 O9 2.415949 1_455
Ca15 O45 2.453786 1_455
Ca15 O7 2.591092 1_555
Ca15 O5 2.592288 1_555
Ca15 O34 2.647164 1_555
Ca15 O2 2.678101 1_555
Ca16 O30 2.252768 1_555
Ca16 O38 2.386788 1_555
Ca16 O22 2.472238 1_645
Ca16 O19 2.474775 1_555
Ca16 O20 2.655010 1_545
Ca16 O13 2.750216 1_555
Ca16 O42 2.896279 1_555
Ca17 O29 2.238784 1_555
Ca17 O13 2.383632 1_465
Ca17 O20 2.391858 1_555
Ca17 O46 2.433955 1_555
Ca17 O38 2.537911 1_565
Ca17 O22 2.806446 1_555
Ca18 O24 2.238784 1_555
Ca18 O4 2.383632 1_545
Ca18 O27 2.391858 1_655
Ca18 O3 2.433955 1_555
Ca18 O8 2.537911 1_545
Ca18 O37 2.806446 1_555
Ca19 O33 2.343812 1_455
Ca19 O9 2.360600 1_455
Ca19 O3 2.391875 1_555
Ca19 O41 2.409612 1_545
Ca19 O21 2.480847 1_555
Ca19 O2 2.564229 1_555
Ca19 O27 2.674629 1_555
Ca20 O24 2.348489 1_565
Ca20 O18 2.355063 1_655
Ca20 O28 2.434372 1_655
Ca20 O25 2.455829 1_555
Ca20 O26 2.473007 1_555
Ca20 O4 2.737134 1_555
Ca20 O43 2.808588 1_555
Ca20 O41 2.874809 1_555
Ca21 O13 2.343812 1_455
Ca21 O19 2.360600 1_455
Ca21 O39 2.391875 1_555
Ca21 O32 2.409612 1_555
Ca21 O42 2.480847 1_555
Ca21 O38 2.564229 1_555
Ca21 O23 2.674629 1_555
Ca22 O12 2.252768 1_555
Ca22 O40 2.386788 1_455
Ca22 O7 2.472238 1_555
Ca22 O1 2.474775 1_555
Ca22 O23 2.655010 1_555
Ca22 O44 2.750216 1_555
Ca22 O36 2.896279 1_555
Ca23 O14 2.252768 1_555
Ca23 O8 2.386788 1_455
Ca23 O37 2.472238 1_565
Ca23 O16 2.474775 1_555
Ca23 O27 2.655010 1_565
Ca23 O4 2.750216 1_555
Ca23 O0 2.896279 1_555
O0 Si1 1.647387 1_555
O1 Si11 1.652647 1_555
O2 Si0 1.656365 1_555
O3 Si6 1.649909 1_555
O4 Si10 1.660024 1_555
O5 Si11 1.668604 1_545
O6 Si9 1.668604 1_555
O7 Si8 1.666599 1_555
O8 Si5 1.656365 1_565
O9 Si3 1.652647 1_555
O10 Si5 1.650324 1_555
O11 Si9 1.624437 1_555
O12 Si0 1.633571 1_555
O13 Si4 1.660024 1_555
O14 Si2 1.633571 1_554
O15 Si2 1.650324 1_555
O16 Si1 1.652647 1_555
O17 Si4 1.623340 1_555
O18 Si0 1.666599 1_555
O19 Si9 1.652647 1_555
O20 Si4 1.663459 1_565
O21 Si3 1.647387 1_555
O22 Si2 1.666599 1_555
O23 Si7 1.663459 1_555
O24 Si3 1.624437 1_555
O25 Si6 1.663459 1_555
O26 Si0 1.650324 1_555
O27 Si10 1.663459 1_545
O28 Si10 1.649909 1_555
O29 Si11 1.624437 1_555
O30 Si5 1.633571 1_556
O31 Si6 1.623340 1_555
O32 Si7 1.623340 1_555
O33 Si6 1.660024 1_555
O34 Si8 1.633571 1_555
O35 Si1 1.668604 1_555
O36 Si11 1.647387 1_555
O37 Si5 1.666599 1_555
O38 Si2 1.656365 1_545
O39 Si4 1.649909 1_555
O40 Si8 1.656365 1_555
O41 Si10 1.623340 1_555
O42 Si9 1.647387 1_555
O43 Si3 1.668604 1_565
O44 Si7 1.660024 1_555
O45 Si8 1.650324 1_555
O46 Si7 1.649909 1_555
O47 Si1 1.624437 1_555
