# generated using pymatgen
data_VCu3O4
_symmetry_space_group_name_H-M   'P 1'
_cell_length_a   5.56407841
_cell_length_b   5.56407841
_cell_length_c   5.56407841
_cell_angle_alpha   131.26644336
_cell_angle_beta   131.26644336
_cell_angle_gamma   71.39009693
_symmetry_Int_Tables_number   1
_chemical_formula_structural   VCu3O4
_chemical_formula_sum   'V1 Cu3 O4'
_cell_volume   95.25241197
_cell_formula_units_Z   1
loop_
 _symmetry_equiv_pos_site_id
 _symmetry_equiv_pos_as_xyz
  1  'x, y, z'
loop_
 _atom_site_type_symbol
 _atom_site_label
 _atom_site_symmetry_multiplicity
 _atom_site_fract_x
 _atom_site_fract_y
 _atom_site_fract_z
 _atom_site_occupancy
  V  V0  1  0.00000000  0.00000000  0.00000000  1
  Cu  Cu0  1  0.25000000  0.75000000  0.50000000  1
  Cu  Cu1  1  0.50000000  0.50000000  0.00000000  1
  Cu  Cu2  1  0.75000000  0.25000000  0.50000000  1
  O  O0  1  0.11159900  0.65947000  0.00000000  1
  O  O1  1  0.34053000  0.34053000  0.45212800  1
  O  O2  1  0.88840100  0.88840100  0.54787200  1
  O  O3  1  0.65947000  0.11159900  0.00000000  1
loop_
_geom_bond_atom_site_label_1
_geom_bond_atom_site_label_2
_geom_bond_distance
_geom_bond_site_symmetry_2
Cu0 O1 2.039468 1_555
Cu0 O3 2.039470 1_566
Cu0 O0 2.039470 1_555
Cu0 O2 2.039473 1_455
Cu1 O3 2.057612 1_555
Cu1 O0 2.057612 1_555
Cu1 O2 2.057612 1_555
Cu1 O1 2.057617 1_554
Cu2 O1 2.039468 1_555
Cu2 O3 2.039470 1_555
Cu2 O0 2.039470 1_656
Cu2 O2 2.039473 1_545
O0 V0 1.795740 1_565
O1 V0 1.795740 1_555
O2 V0 1.795735 1_666
O3 V0 1.795740 1_655
