# generated using pymatgen
data_UH12C4N4O11
_symmetry_space_group_name_H-M   'P 1'
_cell_length_a   17.31186000
_cell_length_b   7.94588200
_cell_length_c   11.70738212
_cell_angle_alpha   74.82324046
_cell_angle_beta   90.00000000
_cell_angle_gamma   90.00000000
_symmetry_Int_Tables_number   1
_chemical_formula_structural   UH12C4N4O11
_chemical_formula_sum   'U4 H48 C16 N16 O44'
_cell_volume   1554.27619643
_cell_formula_units_Z   4
loop_
 _symmetry_equiv_pos_site_id
 _symmetry_equiv_pos_as_xyz
  1  'x, y, z'
loop_
 _atom_site_type_symbol
 _atom_site_label
 _atom_site_symmetry_multiplicity
 _atom_site_fract_x
 _atom_site_fract_y
 _atom_site_fract_z
 _atom_site_occupancy
  U  U0  1  0.77382700  0.00293400  0.50663700  1
  U  U1  1  0.72617300  0.00293400  0.00663700  1
  U  U2  1  0.27382700  0.99706600  0.99336300  1
  U  U3  1  0.22617300  0.99706600  0.49336300  1
  H  H0  1  0.54088400  0.67940700  0.88741600  1
  H  H1  1  0.54214400  0.68104800  0.57449000  1
  H  H2  1  0.08634700  0.89458800  0.14301600  1
  H  H3  1  0.54287100  0.09009200  0.22102100  1
  H  H4  1  0.57854900  0.55959500  0.17937800  1
  H  H5  1  0.93967000  0.35714600  0.93296100  1
  H  H6  1  0.40327900  0.62536800  0.87874800  1
  H  H7  1  0.90327900  0.37463200  0.62125200  1
  H  H8  1  0.95785600  0.68104800  0.07449000  1
  H  H9  1  0.06033000  0.64285400  0.06703900  1
  H  H10  1  0.99808800  0.47262400  0.14775900  1
  H  H11  1  0.45785600  0.31895200  0.42551000  1
  H  H12  1  0.04214400  0.31895200  0.92551000  1
  H  H13  1  0.58634700  0.10541200  0.35698400  1
  H  H14  1  0.45911600  0.32059300  0.11258400  1
  H  H15  1  0.45712900  0.90990800  0.77897900  1
  H  H16  1  0.90014500  0.70040900  0.25902500  1
  H  H17  1  0.09672100  0.62536800  0.37874800  1
  H  H18  1  0.40014500  0.29959100  0.24097500  1
  H  H19  1  0.91365300  0.10541200  0.85698400  1
  H  H20  1  0.07854900  0.44040500  0.32062200  1
  H  H21  1  0.01632000  0.06789400  0.84936100  1
  H  H22  1  0.42145100  0.44040500  0.82062200  1
  H  H23  1  0.48368000  0.06789400  0.34936100  1
  H  H24  1  0.92145100  0.55959500  0.67937800  1
  H  H25  1  0.43967000  0.64285400  0.56703900  1
  H  H26  1  0.98368000  0.93210600  0.15063900  1
  H  H27  1  0.85936900  0.38602300  0.75761900  1
  H  H28  1  0.64063100  0.38602300  0.25761900  1
  H  H29  1  0.51632000  0.93210600  0.65063900  1
  H  H30  1  0.49808800  0.52737600  0.35224100  1
  H  H31  1  0.59985500  0.70040900  0.75902500  1
  H  H32  1  0.56033000  0.35714600  0.43296100  1
  H  H33  1  0.94039500  0.49172700  0.33258500  1
  H  H34  1  0.00191200  0.52737600  0.85224100  1
  H  H35  1  0.41365300  0.89458800  0.64301600  1
  H  H36  1  0.09985500  0.29959100  0.74097500  1
  H  H37  1  0.35936900  0.61397700  0.74238100  1
  H  H38  1  0.95712900  0.09009200  0.72102100  1
  H  H39  1  0.59672100  0.37463200  0.12125200  1
  H  H40  1  0.50191200  0.47262400  0.64775900  1
  H  H41  1  0.05960500  0.50827300  0.66741500  1
  H  H42  1  0.55960500  0.49172700  0.83258500  1
  H  H43  1  0.04287100  0.90990800  0.27897900  1
  H  H44  1  0.04088400  0.32059300  0.61258400  1
  H  H45  1  0.95911600  0.67940700  0.38741600  1
  H  H46  1  0.14063100  0.61397700  0.24238100  1
  H  H47  1  0.44039500  0.50827300  0.16741500  1
  C  C0  1  0.41069100  0.58107000  0.79841900  1
  C  C1  1  0.49170200  0.61353900  0.62172000  1
  C  C2  1  0.58930900  0.41893000  0.20158100  1
  C  C3  1  0.08930900  0.58107000  0.29841900  1
  C  C4  1  0.53448200  0.13295500  0.30172100  1
  C  C5  1  0.50829800  0.38646100  0.37828000  1
  C  C6  1  0.03448200  0.86704500  0.19827900  1
  C  C7  1  0.05024000  0.36718000  0.69157000  1
  C  C8  1  0.96551800  0.13295500  0.80172100  1
  C  C9  1  0.44976000  0.36718000  0.19157000  1
  C  C10  1  0.94976000  0.63282000  0.30843000  1
  C  C11  1  0.91069100  0.41893000  0.70158100  1
  C  C12  1  0.00829800  0.61353900  0.12172000  1
  C  C13  1  0.46551800  0.86704500  0.69827900  1
  C  C14  1  0.99170200  0.38646100  0.87828000  1
  C  C15  1  0.55024000  0.63282000  0.80843000  1
  N  N0  1  0.47946100  0.67358300  0.73175900  1
  N  N1  1  0.92943600  0.11493600  0.41569500  1
  N  N2  1  0.79471200  0.69824200  0.94774400  1
  N  N3  1  0.31795400  0.77957900  0.37653200  1
  N  N4  1  0.97946100  0.32641700  0.76824100  1
  N  N5  1  0.70528800  0.69824200  0.44774400  1
  N  N6  1  0.07056400  0.88506400  0.58430500  1
  N  N7  1  0.57056400  0.11493600  0.91569500  1
  N  N8  1  0.52053900  0.32641700  0.26824100  1
  N  N9  1  0.18204600  0.77957900  0.87653200  1
  N  N10  1  0.29471200  0.30175800  0.55225600  1
  N  N11  1  0.68204600  0.22042100  0.62346800  1
  N  N12  1  0.20528800  0.30175800  0.05225600  1
  N  N13  1  0.02053900  0.67358300  0.23175900  1
  N  N14  1  0.81795400  0.22042100  0.12346800  1
  N  N15  1  0.42943600  0.88506400  0.08430500  1
  O  O0  1  0.72344400  0.74230100  0.92626200  1
  O  O1  1  0.27655600  0.25769900  0.07373800  1
  O  O2  1  0.74751000  0.25581500  0.09078300  1
  O  O3  1  0.83187700  0.79164500  0.00590500  1
  O  O4  1  0.15539900  0.92227300  0.89635200  1
  O  O5  1  0.23463700  0.86976500  0.13175100  1
  O  O6  1  0.75249000  0.25581500  0.59078300  1
  O  O7  1  0.22344400  0.25769900  0.57373800  1
  O  O8  1  0.34460100  0.92227300  0.39635200  1
  O  O9  1  0.61025500  0.19982200  0.97589400  1
  O  O10  1  0.24751000  0.74418500  0.40921700  1
  O  O11  1  0.67468500  0.57981600  0.41589700  1
  O  O12  1  0.00640400  0.83694200  0.62460700  1
  O  O13  1  0.26536300  0.86976500  0.63175100  1
  O  O14  1  0.89674600  0.97654800  0.40122000  1
  O  O15  1  0.25249000  0.74418500  0.90921700  1
  O  O16  1  0.49359600  0.83694200  0.12460700  1
  O  O17  1  0.99359600  0.16305800  0.37539300  1
  O  O18  1  0.35728400  0.68615300  0.33156900  1
  O  O19  1  0.10325400  0.02345200  0.59878000  1
  O  O20  1  0.32531500  0.42018400  0.58410300  1
  O  O21  1  0.64271600  0.31384700  0.66843100  1
  O  O22  1  0.38974500  0.80017800  0.02410600  1
  O  O23  1  0.18755600  0.12370500  0.35465200  1
  O  O24  1  0.85728400  0.31384700  0.16843100  1
  O  O25  1  0.14271600  0.68615300  0.83156900  1
  O  O26  1  0.68755600  0.87629500  0.14534800  1
  O  O27  1  0.39674600  0.02345200  0.09878000  1
  O  O28  1  0.82531500  0.57981600  0.91589700  1
  O  O29  1  0.76536300  0.13023500  0.86824900  1
  O  O30  1  0.66812300  0.79164500  0.50590500  1
  O  O31  1  0.60325400  0.97654800  0.90122000  1
  O  O32  1  0.16812300  0.20835500  0.99409500  1
  O  O33  1  0.65539900  0.07772700  0.60364800  1
  O  O34  1  0.81244400  0.87629500  0.64534800  1
  O  O35  1  0.88974500  0.19982200  0.47589400  1
  O  O36  1  0.77655600  0.74230100  0.42626200  1
  O  O37  1  0.33187700  0.20835500  0.49409500  1
  O  O38  1  0.17468500  0.42018400  0.08410300  1
  O  O39  1  0.73463700  0.13023500  0.36824900  1
  O  O40  1  0.11025500  0.80017800  0.52410600  1
  O  O41  1  0.31244400  0.12370500  0.85465200  1
  O  O42  1  0.84460100  0.07772700  0.10364800  1
  O  O43  1  0.50640400  0.16305800  0.87539300  1
loop_
_geom_bond_atom_site_label_1
_geom_bond_atom_site_label_2
_geom_bond_distance
_geom_bond_site_symmetry_2
C0 H6 1.094584 1_555
C0 H37 1.094695 1_555
C0 H22 1.095177 1_555
C0 N0 1.505462 1_555
C1 H25 1.094252 1_555
C1 H40 1.095065 1_555
C1 H1 1.095784 1_555
C1 N0 1.501330 1_555
C2 H39 1.094584 1_555
C2 H28 1.094695 1_555
C2 H4 1.095177 1_555
C2 N8 1.505462 1_555
C3 H17 1.094584 1_555
C3 H46 1.094695 1_555
C3 H20 1.095177 1_555
C3 N13 1.505462 1_555
C4 H3 1.094619 1_555
C4 H13 1.094777 1_555
C4 H23 1.095828 1_555
C4 N8 1.503156 1_555
C5 H32 1.094252 1_555
C5 H30 1.095065 1_555
C5 H11 1.095784 1_555
C5 N8 1.501330 1_555
C6 H43 1.094619 1_555
C6 H2 1.094777 1_555
C6 H26 1.095828 1_455
C6 N13 1.503156 1_555
C7 H41 1.094138 1_555
C7 H44 1.094349 1_555
C7 H36 1.094572 1_555
C7 N4 1.503262 1_455
C8 H38 1.094619 1_555
C8 H19 1.094777 1_555
C8 H21 1.095828 1_655
C8 N4 1.503156 1_555
C9 H47 1.094138 1_555
C9 H14 1.094349 1_555
C9 H18 1.094572 1_555
C9 N8 1.503262 1_555
C10 H33 1.094138 1_555
C10 H45 1.094349 1_555
C10 H16 1.094572 1_555
C10 N13 1.503262 1_655
C11 H7 1.094584 1_555
C11 H27 1.094695 1_555
C11 H24 1.095177 1_555
C11 N4 1.505462 1_555
C12 H9 1.094252 1_555
C12 H10 1.095065 1_455
C12 H8 1.095784 1_455
C12 N13 1.501330 1_555
C13 H15 1.094619 1_555
C13 H35 1.094777 1_555
C13 H29 1.095828 1_555
C13 N0 1.503156 1_555
C14 H5 1.094252 1_555
C14 H34 1.095065 1_655
C14 H12 1.095784 1_655
C14 N4 1.501330 1_555
C15 H42 1.094138 1_555
C15 H0 1.094349 1_555
C15 H31 1.094572 1_555
C15 N0 1.503262 1_555
N1 O17 1.228042 1_555
N1 O14 1.286744 1_545
N1 O35 1.293324 1_555
N2 O28 1.220195 1_555
N2 O0 1.289158 1_555
N2 O3 1.301159 1_556
N3 O18 1.223266 1_555
N3 O10 1.287009 1_555
N3 O8 1.299990 1_555
N5 O11 1.220195 1_555
N5 O36 1.289158 1_555
N5 O30 1.301159 1_555
N6 O12 1.228042 1_555
N6 O19 1.286744 1_565
N6 O40 1.293324 1_555
N7 O43 1.228042 1_555
N7 O31 1.286744 1_545
N7 O9 1.293324 1_555
N9 O25 1.223266 1_555
N9 O15 1.287009 1_555
N9 O4 1.299990 1_555
N10 O20 1.220195 1_555
N10 O7 1.289158 1_555
N10 O37 1.301159 1_555
N11 O21 1.223266 1_555
N11 O6 1.287009 1_555
N11 O33 1.299990 1_555
N12 O38 1.220195 1_555
N12 O1 1.289158 1_555
N12 O32 1.301159 1_554
N14 O24 1.223266 1_555
N14 O2 1.287009 1_555
N14 O42 1.299990 1_555
N15 O16 1.228042 1_555
N15 O27 1.286744 1_565
N15 O22 1.293324 1_555
O0 U1 2.489357 1_566
O1 U2 2.489357 1_544
O2 U1 2.486144 1_555
O3 U1 2.484933 1_565
O4 U2 2.489954 1_555
O5 U2 1.802861 1_554
O6 U0 2.486144 1_555
O7 U3 2.489357 1_545
O8 U3 2.489954 1_555
O9 U1 2.511830 1_556
O10 U3 2.486144 1_555
O13 U3 1.802861 1_555
O14 U0 2.496153 1_565
O15 U2 2.486144 1_555
O19 U3 2.496153 1_545
O22 U2 2.511830 1_554
O23 U3 1.800297 1_545
O26 U1 1.800297 1_565
O27 U2 2.496153 1_544
O29 U1 1.802861 1_556
O30 U0 2.484933 1_565
O31 U1 2.496153 1_566
O32 U2 2.484933 1_545
O33 U0 2.489954 1_555
O34 U0 1.800297 1_565
O35 U0 2.511830 1_555
O36 U0 2.489357 1_565
O37 U3 2.484933 1_545
O39 U0 1.802861 1_555
O40 U3 2.511830 1_555
O41 U2 1.800297 1_545
O42 U1 2.489954 1_555
