# generated using pymatgen
data_Ba2Cu(BO3)2
_symmetry_space_group_name_H-M   'P 1'
_cell_length_a   8.31547100
_cell_length_b   11.26386500
_cell_length_c   14.16057400
_cell_angle_alpha   90.00000000
_cell_angle_beta   90.00000000
_cell_angle_gamma   90.00000000
_symmetry_Int_Tables_number   1
_chemical_formula_structural   Ba2Cu(BO3)2
_chemical_formula_sum   'Ba16 Cu8 B16 O48'
_cell_volume   1326.34085675
_cell_formula_units_Z   8
loop_
 _symmetry_equiv_pos_site_id
 _symmetry_equiv_pos_as_xyz
  1  'x, y, z'
loop_
 _atom_site_type_symbol
 _atom_site_label
 _atom_site_symmetry_multiplicity
 _atom_site_fract_x
 _atom_site_fract_y
 _atom_site_fract_z
 _atom_site_occupancy
  Ba  Ba0  1  0.34053600  0.98145100  0.21743700  1
  Ba  Ba1  1  0.34053600  0.51854900  0.21743700  1
  Ba  Ba2  1  0.84053600  0.98145100  0.28256300  1
  Ba  Ba3  1  0.50000000  0.00000000  0.50000000  1
  Ba  Ba4  1  0.84053600  0.51854900  0.28256300  1
  Ba  Ba5  1  0.65946400  0.48145100  0.78256300  1
  Ba  Ba6  1  0.00000000  0.00000000  0.00000000  1
  Ba  Ba7  1  0.15946400  0.01854900  0.71743700  1
  Ba  Ba8  1  0.00000000  0.50000000  0.00000000  1
  Ba  Ba9  1  0.15946400  0.48145100  0.71743700  1
  Ba  Ba10  1  0.61630700  0.75000000  0.04617000  1
  Ba  Ba11  1  0.11630700  0.75000000  0.45383000  1
  Ba  Ba12  1  0.38369300  0.25000000  0.95383000  1
  Ba  Ba13  1  0.65946400  0.01854900  0.78256300  1
  Ba  Ba14  1  0.88369300  0.25000000  0.54617000  1
  Ba  Ba15  1  0.50000000  0.50000000  0.50000000  1
  Cu  Cu0  1  0.80003700  0.25000000  0.92705600  1
  Cu  Cu1  1  0.69996300  0.75000000  0.42705600  1
  Cu  Cu2  1  0.45673200  0.75000000  0.80092600  1
  Cu  Cu3  1  0.19996300  0.75000000  0.07294400  1
  Cu  Cu4  1  0.95673200  0.75000000  0.69907400  1
  Cu  Cu5  1  0.04326800  0.25000000  0.30092600  1
  Cu  Cu6  1  0.30003700  0.25000000  0.57294400  1
  Cu  Cu7  1  0.54326800  0.25000000  0.19907400  1
  B  B0  1  0.02019200  0.75000000  0.20642600  1
  B  B1  1  0.86164700  0.57015500  0.56465800  1
  B  B2  1  0.63835300  0.07015500  0.06465800  1
  B  B3  1  0.63835300  0.42984500  0.06465800  1
  B  B4  1  0.97980800  0.25000000  0.79357400  1
  B  B5  1  0.36164700  0.92984500  0.93534200  1
  B  B6  1  0.36164700  0.57015500  0.93534200  1
  B  B7  1  0.42778500  0.75000000  0.63231600  1
  B  B8  1  0.86164700  0.92984500  0.56465800  1
  B  B9  1  0.47980800  0.25000000  0.70642600  1
  B  B10  1  0.13835300  0.07015500  0.43534200  1
  B  B11  1  0.52019200  0.75000000  0.29357400  1
  B  B12  1  0.92778500  0.75000000  0.86768400  1
  B  B13  1  0.13835300  0.42984500  0.43534200  1
  B  B14  1  0.57221500  0.25000000  0.36768400  1
  B  B15  1  0.07221500  0.25000000  0.13231600  1
  O  O0  1  0.80419000  0.60803700  0.47640400  1
  O  O1  1  0.58523400  0.25000000  0.46281500  1
  O  O2  1  0.93504100  0.64562700  0.81218700  1
  O  O3  1  0.56495900  0.14562700  0.31218700  1
  O  O4  1  0.43517200  0.75000000  0.21148200  1
  O  O5  1  0.20714400  0.97340900  0.39257800  1
  O  O6  1  0.00580700  0.37162600  0.39539300  1
  O  O7  1  0.79285600  0.47340900  0.60742200  1
  O  O8  1  0.79285600  0.02659100  0.60742200  1
  O  O9  1  0.06495900  0.35437300  0.18781300  1
  O  O10  1  0.41476600  0.75000000  0.53718500  1
  O  O11  1  0.56837100  0.64549100  0.33891400  1
  O  O12  1  0.30419000  0.89196300  0.02359600  1
  O  O13  1  0.80419000  0.89196300  0.47640400  1
  O  O14  1  0.06482800  0.25000000  0.71148200  1
  O  O15  1  0.06837100  0.64549100  0.16108600  1
  O  O16  1  0.30419000  0.60803700  0.02359600  1
  O  O17  1  0.93162900  0.14549100  0.83891400  1
  O  O18  1  0.19581000  0.10803700  0.52359600  1
  O  O19  1  0.43504100  0.85437300  0.68781300  1
  O  O20  1  0.56495900  0.35437300  0.31218700  1
  O  O21  1  0.93517200  0.75000000  0.28851800  1
  O  O22  1  0.08523400  0.25000000  0.03718500  1
  O  O23  1  0.20714400  0.52659100  0.39257800  1
  O  O24  1  0.00580700  0.12837400  0.39539300  1
  O  O25  1  0.69581000  0.39196300  0.97640400  1
  O  O26  1  0.43162900  0.35450900  0.66108600  1
  O  O27  1  0.43162900  0.14549100  0.66108600  1
  O  O28  1  0.29285600  0.47340900  0.89257800  1
  O  O29  1  0.50580700  0.37162600  0.10460700  1
  O  O30  1  0.93162900  0.35450900  0.83891400  1
  O  O31  1  0.56482800  0.25000000  0.78851800  1
  O  O32  1  0.49419300  0.62837400  0.89539300  1
  O  O33  1  0.70714400  0.52659100  0.10742200  1
  O  O34  1  0.99419300  0.62837400  0.60460700  1
  O  O35  1  0.70714400  0.97340900  0.10742200  1
  O  O36  1  0.29285600  0.02659100  0.89257800  1
  O  O37  1  0.69581000  0.10803700  0.97640400  1
  O  O38  1  0.56837100  0.85450900  0.33891400  1
  O  O39  1  0.50580700  0.12837400  0.10460700  1
  O  O40  1  0.93504100  0.85437300  0.81218700  1
  O  O41  1  0.99419300  0.87162600  0.60460700  1
  O  O42  1  0.49419300  0.87162600  0.89539300  1
  O  O43  1  0.06837100  0.85450900  0.16108600  1
  O  O44  1  0.06495900  0.14562700  0.18781300  1
  O  O45  1  0.19581000  0.39196300  0.52359600  1
  O  O46  1  0.91476600  0.75000000  0.96281500  1
  O  O47  1  0.43504100  0.64562700  0.68781300  1
loop_
_geom_bond_atom_site_label_1
_geom_bond_atom_site_label_2
_geom_bond_distance
_geom_bond_site_symmetry_2
Ba0 O39 2.679598 1_565
Ba0 O5 2.718354 1_555
Ba0 O4 2.724520 1_555
Ba0 O43 2.793425 1_555
Ba0 O38 2.931359 1_555
Ba0 O12 2.939702 1_555
Ba0 O3 2.950014 1_565
Ba0 O44 2.974380 1_565
Ba1 O29 2.679598 1_555
Ba1 O23 2.718354 1_555
Ba1 O4 2.724520 1_555
Ba1 O15 2.793425 1_555
Ba1 O11 2.931359 1_555
Ba1 O16 2.939702 1_555
Ba1 O20 2.950014 1_555
Ba1 O9 2.974380 1_555
Ba2 O24 2.679598 1_665
Ba2 O35 2.718354 1_555
Ba2 O21 2.724520 1_555
Ba2 O38 2.793425 1_555
Ba2 O43 2.931359 1_655
Ba2 O13 2.939702 1_555
Ba2 O44 2.950014 1_665
Ba2 O3 2.974380 1_565
Ba3 O18 2.826802 1_555
Ba3 O13 2.826802 1_545
Ba3 O27 2.865685 1_555
Ba3 O38 2.865685 1_545
Ba3 O5 2.886867 1_545
Ba3 O8 2.886867 1_555
Ba3 O1 2.951148 1_555
Ba3 O10 2.951148 1_545
Ba3 O3 3.171055 1_555
Ba3 O19 3.171055 1_545
Ba4 O6 2.679598 1_655
Ba4 O33 2.718354 1_555
Ba4 O21 2.724520 1_555
Ba4 O11 2.793425 1_555
Ba4 O15 2.931359 1_655
Ba4 O0 2.939702 1_555
Ba4 O9 2.950014 1_655
Ba4 O20 2.974380 1_555
Ba5 O32 2.679598 1_555
Ba5 O7 2.718354 1_555
Ba5 O31 2.724520 1_555
Ba5 O30 2.793425 1_555
Ba5 O26 2.931359 1_555
Ba5 O25 2.939702 1_555
Ba5 O47 2.950014 1_555
Ba5 O2 2.974380 1_555
Ba6 O12 2.826802 1_545
Ba6 O37 2.826802 1_454
Ba6 O43 2.865685 1_545
Ba6 O17 2.865685 1_454
Ba6 O35 2.886867 1_445
Ba6 O36 2.886867 1_554
Ba6 O22 2.951148 1_555
Ba6 O46 2.951148 1_444
Ba6 O44 3.171055 1_555
Ba6 O40 3.171055 1_444
Ba7 O41 2.679598 1_445
Ba7 O36 2.718354 1_555
Ba7 O14 2.724520 1_555
Ba7 O27 2.793425 1_555
Ba7 O17 2.931359 1_455
Ba7 O18 2.939702 1_555
Ba7 O40 2.950014 1_445
Ba7 O19 2.974380 1_545
Ba8 O16 2.826802 1_555
Ba8 O25 2.826802 1_454
Ba8 O15 2.865685 1_555
Ba8 O30 2.865685 1_454
Ba8 O33 2.886867 1_455
Ba8 O28 2.886867 1_554
Ba8 O22 2.951148 1_555
Ba8 O46 2.951148 1_454
Ba8 O9 3.171055 1_555
Ba8 O2 3.171055 1_454
Ba9 O34 2.679598 1_455
Ba9 O28 2.718354 1_555
Ba9 O14 2.724520 1_555
Ba9 O26 2.793425 1_555
Ba9 O30 2.931359 1_455
Ba9 O45 2.939702 1_555
Ba9 O2 2.950014 1_455
Ba9 O47 2.974380 1_555
Ba10 O32 2.732500 1_554
Ba10 O42 2.732500 1_554
Ba10 O46 2.748218 1_554
Ba10 O35 2.766838 1_555
Ba10 O33 2.766838 1_555
Ba10 O4 2.783627 1_555
Ba10 O12 3.065167 1_555
Ba10 O16 3.065167 1_555
Ba11 O41 2.732500 1_455
Ba11 O34 2.732500 1_455
Ba11 O10 2.748218 1_555
Ba11 O5 2.766838 1_555
Ba11 O23 2.766838 1_555
Ba11 O21 2.783627 1_455
Ba11 O13 3.065167 1_455
Ba11 O0 3.065167 1_455
Ba12 O29 2.732500 1_556
Ba12 O39 2.732500 1_556
Ba12 O22 2.748218 1_556
Ba12 O28 2.766838 1_555
Ba12 O36 2.766838 1_555
Ba12 O31 2.783627 1_555
Ba12 O37 3.065167 1_555
Ba12 O25 3.065167 1_555
Ba13 O42 2.679598 1_545
Ba13 O8 2.718354 1_555
Ba13 O31 2.724520 1_555
Ba13 O17 2.793425 1_555
Ba13 O27 2.931359 1_555
Ba13 O37 2.939702 1_555
Ba13 O19 2.950014 1_545
Ba13 O40 2.974380 1_545
Ba14 O6 2.732500 1_655
Ba14 O24 2.732500 1_655
Ba14 O1 2.748218 1_555
Ba14 O7 2.766838 1_555
Ba14 O8 2.766838 1_555
Ba14 O14 2.783627 1_655
Ba14 O18 3.065167 1_655
Ba14 O45 3.065167 1_655
Ba15 O0 2.826802 1_555
Ba15 O45 2.826802 1_555
Ba15 O11 2.865685 1_555
Ba15 O26 2.865685 1_555
Ba15 O23 2.886867 1_555
Ba15 O7 2.886867 1_555
Ba15 O1 2.951148 1_555
Ba15 O10 2.951148 1_555
Ba15 O20 3.171055 1_555
Ba15 O47 3.171055 1_555
Cu0 O25 1.948447 1_555
Cu0 O37 1.948447 1_555
Cu0 O30 2.034940 1_555
Cu0 O17 2.034940 1_555
Cu1 O13 1.948447 1_555
Cu1 O0 1.948447 1_555
Cu1 O38 2.034940 1_555
Cu1 O11 2.034940 1_555
Cu2 O42 1.939932 1_555
Cu2 O32 1.939932 1_555
Cu2 O19 1.995058 1_555
Cu2 O47 1.995058 1_555
Cu3 O12 1.948447 1_555
Cu3 O16 1.948447 1_555
Cu3 O43 2.034940 1_555
Cu3 O15 2.034940 1_555
Cu4 O34 1.939932 1_555
Cu4 O41 1.939932 1_555
Cu4 O40 1.995058 1_555
Cu4 O2 1.995058 1_555
Cu5 O6 1.939932 1_555
Cu5 O24 1.939932 1_555
Cu5 O9 1.995058 1_555
Cu5 O44 1.995058 1_555
Cu6 O45 1.948447 1_555
Cu6 O18 1.948447 1_555
Cu6 O26 2.034940 1_555
Cu6 O27 2.034940 1_555
Cu7 O29 1.939932 1_555
Cu7 O39 1.939932 1_555
Cu7 O20 1.995058 1_555
Cu7 O3 1.995058 1_555
B0 O21 1.360573 1_455
B0 O43 1.399451 1_555
B0 O15 1.399451 1_555
B1 O7 1.371657 1_555
B1 O34 1.401734 1_555
B1 O0 1.404338 1_555
B2 O35 1.371657 1_545
B2 O39 1.401734 1_555
B2 O37 1.404338 1_554
B3 O33 1.371657 1_555
B3 O29 1.401734 1_555
B3 O25 1.404338 1_554
B4 O14 1.360573 1_655
B4 O30 1.399451 1_555
B4 O17 1.399451 1_555
B5 O36 1.371657 1_565
B5 O42 1.401734 1_555
B5 O12 1.404338 1_556
B6 O28 1.371657 1_555
B6 O32 1.401734 1_555
B6 O16 1.404338 1_556
B7 O10 1.351453 1_555
B7 O19 1.415404 1_555
B7 O47 1.415404 1_555
B8 O8 1.371657 1_565
B8 O41 1.401734 1_555
B8 O13 1.404338 1_555
B9 O31 1.360573 1_555
B9 O26 1.399451 1_555
B9 O27 1.399451 1_555
B10 O5 1.371657 1_545
B10 O24 1.401734 1_555
B10 O18 1.404338 1_555
B11 O4 1.360573 1_555
B11 O38 1.399451 1_555
B11 O11 1.399451 1_555
B12 O46 1.351453 1_555
B12 O40 1.415404 1_555
B12 O2 1.415404 1_555
B13 O23 1.371657 1_555
B13 O6 1.401734 1_555
B13 O45 1.404338 1_555
B14 O1 1.351453 1_555
B14 O3 1.415404 1_555
B14 O20 1.415404 1_555
B15 O22 1.351453 1_555
B15 O9 1.415404 1_555
B15 O44 1.415404 1_555
