# generated using pymatgen
data_K3Bi5(PO4)6
_symmetry_space_group_name_H-M   'P 1'
_cell_length_a   9.59211819
_cell_length_b   9.59211819
_cell_length_c   18.89795740
_cell_angle_alpha   68.44412293
_cell_angle_beta   68.44412293
_cell_angle_gamma   43.15736834
_symmetry_Int_Tables_number   1
_chemical_formula_structural   K3Bi5(PO4)6
_chemical_formula_sum   'K6 Bi10 P12 O48'
_cell_volume   1092.56532948
_cell_formula_units_Z   2
loop_
 _symmetry_equiv_pos_site_id
 _symmetry_equiv_pos_as_xyz
  1  'x, y, z'
loop_
 _atom_site_type_symbol
 _atom_site_label
 _atom_site_symmetry_multiplicity
 _atom_site_fract_x
 _atom_site_fract_y
 _atom_site_fract_z
 _atom_site_occupancy
  K  K0  1  0.68692800  0.31307200  0.25000000  1
  K  K1  1  0.31307200  0.68692800  0.75000000  1
  K  K2  1  0.52154500  0.32287300  0.06992200  1
  K  K3  1  0.32287300  0.52154500  0.56992200  1
  K  K4  1  0.47845500  0.67712700  0.93007800  1
  K  K5  1  0.67712700  0.47845500  0.43007800  1
  Bi  Bi0  1  0.23643100  0.03804400  0.52853500  1
  Bi  Bi1  1  0.16682900  0.38399100  0.29557800  1
  Bi  Bi2  1  0.38399100  0.16682900  0.79557800  1
  Bi  Bi3  1  0.83317100  0.61600900  0.70442200  1
  Bi  Bi4  1  0.03804400  0.23643100  0.02853500  1
  Bi  Bi5  1  0.76356900  0.96195600  0.47146500  1
  Bi  Bi6  1  0.96195600  0.76356900  0.97146500  1
  Bi  Bi7  1  0.85267000  0.14733000  0.75000000  1
  Bi  Bi8  1  0.14733000  0.85267000  0.25000000  1
  Bi  Bi9  1  0.61600900  0.83317100  0.20442200  1
  P  P0  1  0.84626600  0.00876900  0.61816400  1
  P  P1  1  0.68171500  0.88726100  0.34876600  1
  P  P2  1  0.11273900  0.31828500  0.15123400  1
  P  P3  1  0.54307100  0.71669700  0.09122000  1
  P  P4  1  0.88726100  0.68171500  0.84876600  1
  P  P5  1  0.31828500  0.11273900  0.65123400  1
  P  P6  1  0.99123100  0.15373400  0.88183600  1
  P  P7  1  0.45692900  0.28330300  0.90878000  1
  P  P8  1  0.71669700  0.54307100  0.59122000  1
  P  P9  1  0.00876900  0.84626600  0.11816400  1
  P  P10  1  0.15373400  0.99123100  0.38183600  1
  P  P11  1  0.28330300  0.45692900  0.40878000  1
  O  O0  1  0.13335200  0.62895300  0.45716400  1
  O  O1  1  0.62895300  0.13335200  0.95716400  1
  O  O2  1  0.95089200  0.04583300  0.11865100  1
  O  O3  1  0.29685000  0.53993800  0.31794700  1
  O  O4  1  0.69263100  0.49289100  0.07540800  1
  O  O5  1  0.46006200  0.70315000  0.18205300  1
  O  O6  1  0.21369100  0.34688600  0.41535700  1
  O  O7  1  0.86475200  0.24656100  0.95704000  1
  O  O8  1  0.86745700  0.31414200  0.81307800  1
  O  O9  1  0.31414200  0.86745700  0.31307800  1
  O  O10  1  0.41817800  0.10178400  0.56568300  1
  O  O11  1  0.92387100  0.82273400  0.83812700  1
  O  O12  1  0.67457500  0.80695700  0.82681000  1
  O  O13  1  0.79889800  0.90938200  0.12983300  1
  O  O14  1  0.30736900  0.50710900  0.92459200  1
  O  O15  1  0.95416700  0.04910800  0.38134900  1
  O  O16  1  0.17726600  0.07612900  0.66187300  1
  O  O17  1  0.58182200  0.89821600  0.43431700  1
  O  O18  1  0.13524800  0.75343900  0.04296000  1
  O  O19  1  0.82273400  0.92387100  0.33812700  1
  O  O20  1  0.09061800  0.20110200  0.37016700  1
  O  O21  1  0.94964600  0.47595000  0.20906900  1
  O  O22  1  0.49289100  0.69263100  0.57540800  1
  O  O23  1  0.53993800  0.29685000  0.81794700  1
  O  O24  1  0.80695700  0.67457500  0.32681000  1
  O  O25  1  0.04583300  0.95089200  0.61865100  1
  O  O26  1  0.68585800  0.13254300  0.68692200  1
  O  O27  1  0.07612900  0.17726600  0.16187300  1
  O  O28  1  0.32542500  0.19304300  0.17319000  1
  O  O29  1  0.52405000  0.05035400  0.29093100  1
  O  O30  1  0.65311400  0.78630900  0.08464300  1
  O  O31  1  0.34688600  0.21369100  0.91535700  1
  O  O32  1  0.10178400  0.41817800  0.06568300  1
  O  O33  1  0.05035400  0.52405000  0.79093100  1
  O  O34  1  0.24656100  0.86475200  0.45704000  1
  O  O35  1  0.70315000  0.46006200  0.68205300  1
  O  O36  1  0.37104700  0.86664800  0.04283600  1
  O  O37  1  0.90938200  0.79889800  0.62983300  1
  O  O38  1  0.50710900  0.30736900  0.42459200  1
  O  O39  1  0.75343900  0.13524800  0.54296000  1
  O  O40  1  0.86664800  0.37104700  0.54283600  1
  O  O41  1  0.20110200  0.09061800  0.87016700  1
  O  O42  1  0.04910800  0.95416700  0.88134900  1
  O  O43  1  0.89821600  0.58182200  0.93431700  1
  O  O44  1  0.19304300  0.32542500  0.67319000  1
  O  O45  1  0.47595000  0.94964600  0.70906900  1
  O  O46  1  0.13254300  0.68585800  0.18692200  1
  O  O47  1  0.78630900  0.65311400  0.58464300  1
loop_
_geom_bond_atom_site_label_1
_geom_bond_atom_site_label_2
_geom_bond_distance
_geom_bond_site_symmetry_2
K0 O3 2.651029 1_555
K0 O5 2.651029 1_555
K0 O19 2.887579 1_545
K0 O27 2.887579 1_655
K0 O38 3.112478 1_555
K0 O4 3.112478 1_555
K0 O15 3.119512 1_555
K0 O2 3.119512 1_555
K1 O23 2.651029 1_555
K1 O35 2.651029 1_555
K1 O11 2.887579 1_455
K1 O16 2.887579 1_565
K1 O14 3.112478 1_555
K1 O22 3.112478 1_555
K1 O42 3.119512 1_555
K1 O25 3.119512 1_555
K2 O1 2.721714 1_554
K2 O13 2.758571 1_545
K2 O28 2.798709 1_555
K2 O7 2.897503 1_554
K2 O18 2.925885 1_555
K2 O4 3.085027 1_555
K3 O0 2.721714 1_555
K3 O37 2.758571 1_455
K3 O44 2.798709 1_555
K3 O34 2.897503 1_555
K3 O39 2.925885 1_555
K3 O22 3.085027 1_555
K4 O36 2.721714 1_556
K4 O41 2.758571 1_565
K4 O12 2.798709 1_555
K4 O18 2.897503 1_556
K4 O7 2.925885 1_555
K4 O14 3.085027 1_555
K5 O40 2.721714 1_555
K5 O20 2.758571 1_655
K5 O24 2.798709 1_555
K5 O39 2.897503 1_555
K5 O34 2.925885 1_555
K5 O38 3.085027 1_555
Bi0 O22 2.316703 1_545
Bi0 O25 2.416062 1_545
Bi0 O34 2.432315 1_545
Bi0 O16 2.475506 1_555
Bi0 O40 2.501479 1_455
Bi0 O10 2.583729 1_555
Bi0 O17 2.623468 1_545
Bi1 O20 2.212604 1_555
Bi1 O6 2.318356 1_555
Bi1 O24 2.389050 1_455
Bi1 O29 2.444846 1_555
Bi1 O21 2.559823 1_455
Bi1 O46 2.728852 1_555
Bi1 O28 2.735083 1_555
Bi1 O3 2.746935 1_555
Bi2 O41 2.212604 1_555
Bi2 O31 2.318356 1_555
Bi2 O12 2.389050 1_545
Bi2 O33 2.444846 1_555
Bi2 O45 2.559823 1_545
Bi2 O26 2.728852 1_555
Bi2 O44 2.735083 1_555
Bi2 O23 2.746935 1_555
Bi3 O37 2.212604 1_555
Bi3 O47 2.318356 1_555
Bi3 O44 2.389050 1_655
Bi3 O45 2.444846 1_555
Bi3 O33 2.559823 1_655
Bi3 O8 2.728852 1_555
Bi3 O12 2.735083 1_555
Bi3 O35 2.746935 1_555
Bi4 O4 2.316703 1_455
Bi4 O2 2.416062 1_455
Bi4 O7 2.432315 1_454
Bi4 O27 2.475506 1_555
Bi4 O36 2.501479 1_545
Bi4 O32 2.583729 1_555
Bi4 O43 2.623468 1_454
Bi5 O38 2.316703 1_565
Bi5 O15 2.416062 1_565
Bi5 O39 2.432315 1_565
Bi5 O19 2.475506 1_555
Bi5 O0 2.501479 1_655
Bi5 O17 2.583729 1_555
Bi5 O10 2.623468 1_565
Bi6 O14 2.316703 1_655
Bi6 O42 2.416062 1_655
Bi6 O18 2.432315 1_656
Bi6 O11 2.475506 1_555
Bi6 O1 2.501479 1_565
Bi6 O43 2.583729 1_555
Bi6 O32 2.623468 1_656
Bi7 O35 2.224931 1_555
Bi7 O23 2.224931 1_555
Bi7 O8 2.420386 1_555
Bi7 O26 2.420386 1_555
Bi7 O16 2.618667 1_655
Bi7 O11 2.618667 1_545
Bi8 O5 2.224931 1_555
Bi8 O3 2.224931 1_555
Bi8 O9 2.420386 1_555
Bi8 O46 2.420386 1_555
Bi8 O27 2.618667 1_565
Bi8 O19 2.618667 1_455
Bi9 O13 2.212604 1_555
Bi9 O30 2.318356 1_555
Bi9 O28 2.389050 1_565
Bi9 O21 2.444846 1_555
Bi9 O29 2.559823 1_565
Bi9 O9 2.728852 1_555
Bi9 O24 2.735083 1_555
Bi9 O5 2.746935 1_555
O0 P11 1.518961 1_555
O1 P7 1.518961 1_555
O2 P9 1.559306 1_645
O3 P11 1.606287 1_555
O4 P3 1.555360 1_555
O5 P3 1.606287 1_555
O6 P11 1.564094 1_555
O7 P6 1.539925 1_555
O8 P6 1.569946 1_555
O9 P10 1.569946 1_555
O10 P5 1.543572 1_555
O11 P4 1.560372 1_555
O12 P4 1.567629 1_555
O13 P9 1.568925 1_655
O14 P7 1.555360 1_555
O15 P10 1.559306 1_645
O16 P5 1.560372 1_555
O17 P1 1.543572 1_555
O18 P9 1.539925 1_555
O19 P1 1.560372 1_555
O20 P10 1.568925 1_545
O21 P2 1.560619 1_655
O22 P8 1.555360 1_555
O23 P7 1.606287 1_555
O24 P1 1.567629 1_555
O25 P0 1.559306 1_465
O26 P0 1.569946 1_555
O27 P2 1.560372 1_555
O28 P2 1.567629 1_555
O29 P1 1.560619 1_545
O30 P3 1.564094 1_555
O31 P7 1.564094 1_555
O32 P2 1.543572 1_555
O33 P4 1.560619 1_455
O34 P10 1.539925 1_555
O35 P8 1.606287 1_555
O36 P3 1.518961 1_555
O37 P0 1.568925 1_565
O38 P11 1.555360 1_555
O39 P0 1.539925 1_555
O40 P8 1.518961 1_555
O41 P6 1.568925 1_455
O42 P6 1.559306 1_465
O43 P4 1.543572 1_555
O44 P5 1.567629 1_555
O45 P5 1.560619 1_565
O46 P9 1.569946 1_555
O47 P8 1.564094 1_555
