# generated using pymatgen
data_BaCuCO3F2
_symmetry_space_group_name_H-M   'P 1'
_cell_length_a   4.97893900
_cell_length_b   8.61408100
_cell_length_c   9.77748800
_cell_angle_alpha   90.00000000
_cell_angle_beta   90.00000000
_cell_angle_gamma   90.00000000
_symmetry_Int_Tables_number   1
_chemical_formula_structural   BaCuCO3F2
_chemical_formula_sum   'Ba4 Cu4 C4 O12 F8'
_cell_volume   419.34652483
_cell_formula_units_Z   4
loop_
 _symmetry_equiv_pos_site_id
 _symmetry_equiv_pos_as_xyz
  1  'x, y, z'
loop_
 _atom_site_type_symbol
 _atom_site_label
 _atom_site_symmetry_multiplicity
 _atom_site_fract_x
 _atom_site_fract_y
 _atom_site_fract_z
 _atom_site_occupancy
  Ba  Ba0  1  0.72654000  0.75000000  0.50000000  1
  Ba  Ba1  1  0.27346000  0.25000000  0.00000000  1
  Ba  Ba2  1  0.27346000  0.25000000  0.50000000  1
  Ba  Ba3  1  0.72654000  0.75000000  0.00000000  1
  Cu  Cu0  1  0.24451900  0.91305900  0.25000000  1
  Cu  Cu1  1  0.75548100  0.41305900  0.25000000  1
  Cu  Cu2  1  0.24451900  0.58694100  0.75000000  1
  Cu  Cu3  1  0.75548100  0.08694100  0.75000000  1
  C  C0  1  0.20762100  0.91650200  0.75000000  1
  C  C1  1  0.20762100  0.58349800  0.25000000  1
  C  C2  1  0.79237900  0.41650200  0.75000000  1
  C  C3  1  0.79237900  0.08349800  0.25000000  1
  O  O0  1  0.37962400  0.80317100  0.75000000  1
  O  O1  1  0.28783600  0.05730600  0.75000000  1
  O  O2  1  0.95026600  0.88440300  0.75000000  1
  O  O3  1  0.37962400  0.69682900  0.25000000  1
  O  O4  1  0.04973400  0.11559700  0.25000000  1
  O  O5  1  0.62037600  0.30317100  0.75000000  1
  O  O6  1  0.04973400  0.38440300  0.75000000  1
  O  O7  1  0.71216400  0.55730600  0.75000000  1
  O  O8  1  0.95026600  0.61559700  0.25000000  1
  O  O9  1  0.28783600  0.44269400  0.25000000  1
  O  O10  1  0.62037600  0.19682900  0.25000000  1
  O  O11  1  0.71216400  0.94269400  0.25000000  1
  F  F0  1  0.24111600  0.91473300  0.44959200  1
  F  F1  1  0.75888400  0.08526700  0.94959200  1
  F  F2  1  0.24111600  0.58526700  0.94959200  1
  F  F3  1  0.24111600  0.58526700  0.55040800  1
  F  F4  1  0.24111600  0.91473300  0.05040800  1
  F  F5  1  0.75888400  0.08526700  0.55040800  1
  F  F6  1  0.75888400  0.41473300  0.05040800  1
  F  F7  1  0.75888400  0.41473300  0.44959200  1
loop_
_geom_bond_atom_site_label_1
_geom_bond_atom_site_label_2
_geom_bond_distance
_geom_bond_site_symmetry_2
Ba0 F0 2.845686 1_555
Ba0 F3 2.845686 1_555
Ba0 O2 2.925094 1_555
Ba0 O8 2.925094 1_555
Ba0 F5 2.934193 1_565
Ba0 F7 2.934193 1_555
Ba0 O11 2.955552 1_555
Ba0 O7 2.955552 1_555
Ba0 F0 2.969950 1_655
Ba0 F3 2.969950 1_655
Ba0 O0 3.027905 1_555
Ba0 O3 3.027905 1_555
Ba1 F6 2.845686 1_555
Ba1 F1 2.845686 1_554
Ba1 O6 2.925094 1_554
Ba1 O4 2.925094 1_555
Ba1 F2 2.934193 1_554
Ba1 F4 2.934193 1_545
Ba1 O9 2.955552 1_555
Ba1 O1 2.955552 1_554
Ba1 F6 2.969950 1_455
Ba1 F1 2.969950 1_454
Ba1 O5 3.027905 1_554
Ba1 O10 3.027905 1_555
Ba2 F7 2.845686 1_555
Ba2 F5 2.845686 1_555
Ba2 O6 2.925094 1_555
Ba2 O4 2.925094 1_555
Ba2 F3 2.934193 1_555
Ba2 F0 2.934193 1_545
Ba2 O9 2.955552 1_555
Ba2 O1 2.955552 1_555
Ba2 F7 2.969950 1_455
Ba2 F5 2.969950 1_455
Ba2 O5 3.027905 1_555
Ba2 O10 3.027905 1_555
Ba3 F4 2.845686 1_555
Ba3 F2 2.845686 1_554
Ba3 O2 2.925094 1_554
Ba3 O8 2.925094 1_555
Ba3 F1 2.934193 1_564
Ba3 F6 2.934193 1_555
Ba3 O11 2.955552 1_555
Ba3 O7 2.955552 1_554
Ba3 F4 2.969950 1_655
Ba3 F2 2.969950 1_654
Ba3 O0 3.027905 1_554
Ba3 O3 3.027905 1_555
Cu0 F0 1.951635 1_555
Cu0 F4 1.951635 1_555
Cu0 O3 1.980369 1_555
Cu0 O4 1.996111 1_565
Cu0 O11 2.342328 1_555
Cu1 F7 1.951635 1_555
Cu1 F6 1.951635 1_555
Cu1 O10 1.980369 1_555
Cu1 O8 1.996111 1_555
Cu1 O9 2.342328 1_555
Cu2 F3 1.951635 1_555
Cu2 F2 1.951635 1_555
Cu2 O0 1.980369 1_555
Cu2 O6 1.996111 1_555
Cu2 O7 2.342328 1_555
Cu3 F1 1.951635 1_555
Cu3 F5 1.951635 1_555
Cu3 O5 1.980369 1_555
Cu3 O2 1.996111 1_545
Cu3 O1 2.342328 1_555
C0 O1 1.276961 1_565
C0 O0 1.298637 1_555
C0 O2 1.310849 1_455
C1 O9 1.276961 1_555
C1 O3 1.298637 1_555
C1 O8 1.310849 1_455
C2 O7 1.276961 1_555
C2 O5 1.298637 1_555
C2 O6 1.310849 1_655
C3 O11 1.276961 1_545
C3 O10 1.298637 1_555
C3 O4 1.310849 1_655
