# generated using pymatgen
data_Na2AlNiF7
_symmetry_space_group_name_H-M   'P 1'
_cell_length_a   7.10496479
_cell_length_b   7.10490826
_cell_length_c   7.10804674
_cell_angle_alpha   121.08740055
_cell_angle_beta   118.25432195
_cell_angle_gamma   90.56337060
_symmetry_Int_Tables_number   1
_chemical_formula_structural   Na2AlNiF7
_chemical_formula_sum   'Na4 Al2 Ni2 F14'
_cell_volume   254.83196955
_cell_formula_units_Z   2
loop_
 _symmetry_equiv_pos_site_id
 _symmetry_equiv_pos_as_xyz
  1  'x, y, z'
loop_
 _atom_site_type_symbol
 _atom_site_label
 _atom_site_symmetry_multiplicity
 _atom_site_fract_x
 _atom_site_fract_y
 _atom_site_fract_z
 _atom_site_occupancy
  Na  Na0  1  0.50000000  0.50000000  0.50000000  1
  Na  Na1  1  0.50000000  -0.00000000  -0.00000000  1
  Na  Na2  1  -0.00000000  -0.00000000  -0.00000000  1
  Na  Na3  1  0.50000000  0.50000000  -0.00000000  1
  Al  Al0  1  0.50000000  -0.00000000  0.50000000  1
  Al  Al1  1  -0.00000000  0.50000000  0.50000000  1
  Ni  Ni0  1  -0.00000000  -0.00000000  0.50000000  1
  Ni  Ni1  1  -0.00000000  0.50000000  -0.00000000  1
  F  F0  1  0.67700173  0.92386962  0.37576957  1
  F  F1  1  0.04785442  0.42449478  0.24712590  1
  F  F2  1  0.87432960  0.75009485  0.12442434  1
  F  F3  1  0.69312605  0.41564598  0.27777373  1
  F  F4  1  0.67736631  0.30073026  0.75287366  1
  F  F5  1  0.63787361  0.91535163  0.72222829  1
  F  F6  1  0.12567040  0.24990515  0.87557566  1
  F  F7  1  0.30687395  0.58435402  0.72222627  1
  F  F8  1  0.36212639  0.08464837  0.27777171  1
  F  F9  1  0.32263369  0.69926974  0.24712634  1
  F  F10  1  0.04809894  0.80123547  0.62422830  1
  F  F11  1  0.32299827  0.07613038  0.62423043  1
  F  F12  1  0.95214558  0.57550522  0.75287410  1
  F  F13  1  0.95190106  0.19876453  0.37577170  1
loop_
_geom_bond_atom_site_label_1
_geom_bond_atom_site_label_2
_geom_bond_distance
_geom_bond_site_symmetry_2
Al0 F4 1.794608 1_555
Al0 F9 1.794608 1_545
Al0 F0 1.795934 1_545
Al0 F11 1.795934 1_555
Al0 F8 1.828690 1_555
Al0 F5 1.828690 1_545
Al1 F12 1.794605 1_455
Al1 F1 1.794605 1_555
Al1 F13 1.795949 1_455
Al1 F10 1.795949 1_555
Al1 F3 1.828685 1_455
Al1 F7 1.828685 1_555
F0 Ni0 1.975496 1_665
F0 Na3 2.494734 1_555
F0 Na1 2.708026 1_565
F1 Ni1 1.974903 1_555
F1 Na2 2.498152 1_555
F1 Na0 2.709621 1_555
F2 Ni1 1.973009 1_655
F2 Ni0 1.973248 1_665
F2 Na2 2.658975 1_665
F2 Na3 2.658989 1_555
F3 Na3 2.193978 1_555
F3 Na0 2.414069 1_555
F3 Na1 2.415799 1_555
F4 Ni1 1.974925 1_656
F4 Na3 2.498146 1_556
F4 Na0 2.709586 1_555
F5 Na2 2.193979 1_666
F5 Na0 2.414052 1_555
F5 Na1 2.415800 1_566
F6 Ni1 1.973009 1_556
F6 Ni0 1.973248 1_555
F6 Na2 2.658975 1_556
F6 Na3 2.658989 1_556
F7 Na3 2.193978 1_556
F7 Na0 2.414069 1_555
F7 Na1 2.415799 1_566
F8 Na2 2.193979 1_555
F8 Na0 2.414052 1_555
F8 Na1 2.415800 1_555
F9 Ni1 1.974925 1_555
F9 Na3 2.498146 1_555
F9 Na0 2.709586 1_555
F10 Ni0 1.975447 1_565
F10 Na2 2.494745 1_566
F10 Na1 2.708051 1_566
F11 Ni0 1.975496 1_555
F11 Na3 2.494734 1_556
F11 Na1 2.708026 1_556
F12 Ni1 1.974903 1_656
F12 Na2 2.498152 1_666
F12 Na0 2.709621 1_555
F13 Ni0 1.975447 1_655
F13 Na2 2.494745 1_655
F13 Na1 2.708051 1_555
