# generated using pymatgen
data_Na3FeF6
_symmetry_space_group_name_H-M   'P 1'
_cell_length_a   5.70704068
_cell_length_b   5.42818885
_cell_length_c   9.48560503
_cell_angle_alpha   55.84174337
_cell_angle_beta   90.00000000
_cell_angle_gamma   90.00000000
_symmetry_Int_Tables_number   1
_chemical_formula_structural   Na3FeF6
_chemical_formula_sum   'Na6 Fe2 F12'
_cell_volume   243.16084137
_cell_formula_units_Z   2
loop_
 _symmetry_equiv_pos_site_id
 _symmetry_equiv_pos_as_xyz
  1  'x, y, z'
loop_
 _atom_site_type_symbol
 _atom_site_label
 _atom_site_symmetry_multiplicity
 _atom_site_fract_x
 _atom_site_fract_y
 _atom_site_fract_z
 _atom_site_occupancy
  Na  Na0  1  0.93706941  0.27635783  0.24290724  1
  Na  Na1  1  0.43706941  0.72364217  0.25709276  1
  Na  Na2  1  0.06293059  0.72364217  0.75709276  1
  Na  Na3  1  0.56293059  0.27635783  0.74290724  1
  Na  Na4  1  0.50000000  0.50000000  -0.00000000  1
  Na  Na5  1  0.00000000  0.50000000  0.50000000  1
  Fe  Fe0  1  0.00000000  0.00000000  -0.00000000  1
  Fe  Fe1  1  0.50000000  0.00000000  0.50000000  1
  F  F0  1  0.28188485  0.24380140  0.92527217  1
  F  F1  1  0.78188485  0.75619860  0.57472783  1
  F  F2  1  0.17803523  0.65506012  0.05374186  1
  F  F3  1  0.67803523  0.34493988  0.44625814  1
  F  F4  1  0.94098499  0.10667382  0.77053699  1
  F  F5  1  0.44098499  0.89332618  0.72946301  1
  F  F6  1  0.71811515  0.75619860  0.07472783  1
  F  F7  1  0.21811515  0.24380140  0.42527217  1
  F  F8  1  0.55901501  0.10667382  0.27053699  1
  F  F9  1  0.05901501  0.89332618  0.22946301  1
  F  F10  1  0.32196477  0.65506012  0.55374186  1
  F  F11  1  0.82196477  0.34493988  0.94625814  1
loop_
_geom_bond_atom_site_label_1
_geom_bond_atom_site_label_2
_geom_bond_distance
_geom_bond_site_symmetry_2
F0 Fe0 1.946387 1_556
F0 Na4 2.256763 1_556
F0 Na3 2.291924 1_555
F0 Na2 2.494907 1_555
F1 Fe1 1.946387 1_565
F1 Na5 2.256763 1_655
F1 Na2 2.291924 1_655
F1 Na3 2.494907 1_555
F2 Fe0 1.930349 1_565
F2 Na4 2.196915 1_555
F2 Na0 2.279144 1_455
F2 Na1 2.617456 1_555
F2 Na2 2.704029 1_554
F3 Fe1 1.930349 1_555
F3 Na5 2.196915 1_655
F3 Na1 2.279144 1_555
F3 Na0 2.617456 1_555
F3 Na3 2.704029 1_555
F4 Fe0 1.941900 1_656
F4 Na5 2.259338 1_655
F4 Na2 2.263029 1_645
F4 Na3 2.302413 1_555
F5 Fe1 1.941900 1_565
F5 Na4 2.259338 1_556
F5 Na3 2.263029 1_565
F5 Na2 2.302413 1_555
F6 Fe0 1.946387 1_665
F6 Na4 2.256763 1_555
F6 Na1 2.291924 1_555
F6 Na0 2.494907 1_555
F7 Fe1 1.946387 1_555
F7 Na5 2.256763 1_555
F7 Na0 2.291924 1_455
F7 Na1 2.494907 1_555
F8 Fe1 1.941900 1_555
F8 Na4 2.259338 1_555
F8 Na1 2.263029 1_545
F8 Na0 2.302413 1_555
F9 Fe0 1.941900 1_565
F9 Na5 2.259338 1_555
F9 Na0 2.263029 1_465
F9 Na1 2.302413 1_555
F10 Fe1 1.930349 1_565
F10 Na5 2.196915 1_555
F10 Na3 2.279144 1_555
F10 Na2 2.617456 1_555
F10 Na1 2.704029 1_555
F11 Fe0 1.930349 1_656
F11 Na4 2.196915 1_556
F11 Na2 2.279144 1_655
F11 Na3 2.617456 1_555
F11 Na0 2.704029 1_556
