# generated using pymatgen
data_BaP4(W2O7)8
_symmetry_space_group_name_H-M   'P 1'
_cell_length_a   9.49183712
_cell_length_b   9.49183712
_cell_length_c   18.30398697
_cell_angle_alpha   67.28322257
_cell_angle_beta   67.28322257
_cell_angle_gamma   47.75073780
_symmetry_Int_Tables_number   1
_chemical_formula_structural   BaP4(W2O7)8
_chemical_formula_sum   'Ba1 P4 W16 O56'
_cell_volume   1106.50814220
_cell_formula_units_Z   1
loop_
 _symmetry_equiv_pos_site_id
 _symmetry_equiv_pos_as_xyz
  1  'x, y, z'
loop_
 _atom_site_type_symbol
 _atom_site_label
 _atom_site_symmetry_multiplicity
 _atom_site_fract_x
 _atom_site_fract_y
 _atom_site_fract_z
 _atom_site_occupancy
  Ba  Ba0  1  0.00000000  0.00000000  0.50000000  1
  P  P0  1  0.12840000  0.53039300  0.56409100  1
  P  P1  1  0.46960700  0.87160000  0.43590900  1
  P  P2  1  0.87160000  0.46960700  0.43590900  1
  P  P3  1  0.53039300  0.12840000  0.56409100  1
  W  W0  1  0.11181600  0.61079200  0.74044700  1
  W  W1  1  0.38920800  0.88818400  0.25955300  1
  W  W2  1  0.88818400  0.38920800  0.25955300  1
  W  W3  1  0.61079200  0.11181600  0.74044700  1
  W  W4  1  0.35676300  0.85215800  0.64188700  1
  W  W5  1  0.14784200  0.64323700  0.35811300  1
  W  W6  1  0.64323700  0.14784200  0.35811300  1
  W  W7  1  0.85215800  0.35676300  0.64188700  1
  W  W8  1  0.36552800  0.86728000  0.84884200  1
  W  W9  1  0.13272000  0.63447200  0.15115800  1
  W  W10  1  0.63447200  0.13272000  0.15115800  1
  W  W11  1  0.86728000  0.36552800  0.84884200  1
  W  W12  1  0.12102000  0.62295500  0.94687400  1
  W  W13  1  0.37704500  0.87898000  0.05312600  1
  W  W14  1  0.87898000  0.37704500  0.05312600  1
  W  W15  1  0.62295500  0.12102000  0.94687400  1
  O  O0  1  0.37205100  0.84201300  0.73972200  1
  O  O1  1  0.15798700  0.62794900  0.26027800  1
  O  O2  1  0.62794900  0.15798700  0.26027800  1
  O  O3  1  0.84201300  0.37205100  0.73972200  1
  O  O4  1  0.35178600  0.35178600  0.72758100  1
  O  O5  1  0.64821400  0.64821400  0.27241900  1
  O  O6  1  0.87424400  0.87424400  0.73149100  1
  O  O7  1  0.12575600  0.12575600  0.26850900  1
  O  O8  1  0.86901700  0.86901700  0.94114000  1
  O  O9  1  0.13098300  0.13098300  0.05886000  1
  O  O10  1  0.37873500  0.37873500  0.94671100  1
  O  O11  1  0.62126500  0.62126500  0.05328900  1
  O  O12  1  0.35204900  0.35204900  0.56198900  1
  O  O13  1  0.64795100  0.64795100  0.43801100  1
  O  O14  1  0.88745800  0.34246800  0.52072400  1
  O  O15  1  0.65753200  0.11254200  0.47927600  1
  O  O16  1  0.11254200  0.65753200  0.47927600  1
  O  O17  1  0.34246800  0.88745800  0.52072400  1
  O  O18  1  0.13239400  0.60676800  0.83676800  1
  O  O19  1  0.39323200  0.86760600  0.16323200  1
  O  O20  1  0.86760600  0.39323200  0.16323200  1
  O  O21  1  0.60676800  0.13239400  0.83676800  1
  O  O22  1  0.25558600  0.71356500  0.67638300  1
  O  O23  1  0.28643500  0.74441400  0.32361700  1
  O  O24  1  0.74441400  0.28643500  0.32361700  1
  O  O25  1  0.71356500  0.25558600  0.67638300  1
  O  O26  1  0.12932700  0.12932700  0.83098000  1
  O  O27  1  0.87067300  0.87067300  0.16902000  1
  O  O28  1  0.60997400  0.60997400  0.85104800  1
  O  O29  1  0.39002600  0.39002600  0.14895200  1
  O  O30  1  0.09710300  0.09710300  0.63870900  1
  O  O31  1  0.90289700  0.90289700  0.36129100  1
  O  O32  1  0.62010600  0.62010600  0.61823800  1
  O  O33  1  0.37989400  0.37989400  0.38176200  1
  O  O34  1  0.88709000  0.36280200  0.94651600  1
  O  O35  1  0.63719800  0.11291000  0.05348400  1
  O  O36  1  0.11291000  0.63719800  0.05348400  1
  O  O37  1  0.36280200  0.88709000  0.94651600  1
  O  O38  1  0.07789300  0.64746600  0.62101500  1
  O  O39  1  0.35253400  0.92210700  0.37898500  1
  O  O40  1  0.92210700  0.35253400  0.37898500  1
  O  O41  1  0.64746600  0.07789300  0.62101500  1
  O  O42  1  0.97094500  0.51189100  0.78547500  1
  O  O43  1  0.48810900  0.02905500  0.21452500  1
  O  O44  1  0.02905500  0.48810900  0.21452500  1
  O  O45  1  0.51189100  0.97094500  0.78547500  1
  O  O46  1  0.01259200  0.45965900  0.58668700  1
  O  O47  1  0.54034100  0.98740800  0.41331300  1
  O  O48  1  0.98740800  0.54034100  0.41331300  1
  O  O49  1  0.45965900  0.01259200  0.58668700  1
  O  O50  1  0.22922400  0.76393700  0.89583400  1
  O  O51  1  0.23606300  0.77077600  0.10416600  1
  O  O52  1  0.77077600  0.23606300  0.10416600  1
  O  O53  1  0.76393700  0.22922400  0.89583400  1
  O  O54  1  0.00000000  0.50000000  0.00000000  1
  O  O55  1  0.50000000  0.00000000  0.00000000  1
loop_
_geom_bond_atom_site_label_1
_geom_bond_atom_site_label_2
_geom_bond_distance
_geom_bond_site_symmetry_2
Ba0 O14 2.796729 1_455
Ba0 O17 2.796729 1_545
Ba0 O16 2.796729 1_545
Ba0 O15 2.796729 1_455
Ba0 O40 2.977164 1_455
Ba0 O38 2.977164 1_545
Ba0 O39 2.977164 1_545
Ba0 O41 2.977164 1_455
O0 W4 1.812710 1_555
O0 W8 2.074892 1_555
O1 W5 1.812710 1_555
O1 W9 2.074892 1_555
O2 W6 1.812710 1_555
O2 W10 2.074892 1_555
O3 W7 1.812710 1_555
O3 W11 2.074892 1_555
O4 W0 1.946894 1_555
O4 W3 1.946894 1_555
O5 W2 1.946894 1_555
O5 W1 1.946894 1_555
O6 W0 1.936809 1_655
O6 W3 1.936809 1_565
O7 W2 1.936809 1_455
O7 W1 1.936809 1_545
O8 W12 1.918231 1_655
O8 W15 1.918231 1_565
O9 W13 1.918231 1_545
O9 W14 1.918231 1_455
O10 W15 1.931817 1_555
O10 W12 1.931817 1_555
O11 W13 1.931817 1_555
O11 W14 1.931817 1_555
O12 P3 1.590107 1_555
O12 P0 1.590107 1_555
O13 P2 1.590107 1_555
O13 P1 1.590107 1_555
O14 P2 1.542183 1_555
O14 W7 2.155578 1_555
O15 P3 1.542183 1_555
O15 W6 2.155578 1_555
O16 P0 1.542183 1_555
O16 W5 2.155578 1_555
O17 P1 1.542183 1_555
O17 W4 2.155578 1_555
O18 W0 1.830823 1_555
O18 W12 2.036129 1_555
O19 W1 1.830823 1_555
O19 W13 2.036129 1_555
O20 W2 1.830823 1_555
O20 W14 2.036129 1_555
O21 W3 1.830823 1_555
O21 W15 2.036129 1_555
O22 W4 1.908004 1_555
O22 W0 1.964583 1_555
O23 W5 1.908004 1_555
O23 W1 1.964583 1_555
O24 W6 1.908004 1_555
O24 W2 1.964583 1_555
O25 W7 1.908004 1_555
O25 W3 1.964583 1_555
O26 W11 1.938898 1_455
O26 W8 1.938898 1_545
O27 W10 1.938898 1_565
O27 W9 1.938898 1_655
O28 W11 1.930300 1_555
O28 W8 1.930300 1_555
O29 W9 1.930300 1_555
O29 W10 1.930300 1_555
O30 W4 1.945282 1_545
O30 W7 1.945282 1_455
O31 W6 1.945282 1_565
O31 W5 1.945282 1_655
O32 W4 1.945265 1_555
O32 W7 1.945265 1_555
O33 W6 1.945265 1_555
O33 W5 1.945265 1_555
O34 W11 1.857340 1_555
O34 W14 1.976325 1_556
O35 W10 1.857340 1_555
O35 W15 1.976325 1_554
O36 W9 1.857340 1_555
O36 W12 1.976325 1_554
O37 W8 1.857340 1_555
O37 W13 1.976325 1_556
O38 P0 1.530490 1_555
O38 W0 2.192942 1_555
O39 P1 1.530490 1_555
O39 W1 2.192942 1_555
O40 P2 1.530490 1_555
O40 W2 2.192942 1_555
O41 P3 1.530490 1_555
O41 W3 2.192942 1_555
O42 W0 1.894103 1_655
O42 W11 1.988901 1_555
O43 W1 1.894103 1_545
O43 W10 1.988901 1_555
O44 W2 1.894103 1_455
O44 W9 1.988901 1_555
O45 W3 1.894103 1_565
O45 W8 1.988901 1_555
O46 P0 1.502316 1_555
O46 W7 2.084028 1_455
O47 P1 1.502316 1_555
O47 W6 2.084028 1_565
O48 P2 1.502316 1_555
O48 W5 2.084028 1_655
O49 P3 1.502316 1_555
O49 W4 2.084028 1_545
O50 W8 1.889788 1_555
O50 W12 1.964651 1_555
O51 W9 1.889788 1_555
O51 W13 1.964651 1_555
O52 W10 1.889788 1_555
O52 W14 1.964651 1_555
O53 W11 1.889788 1_555
O53 W15 1.964651 1_555
O54 W14 1.921106 1_455
O54 W12 1.921106 1_554
O55 W15 1.921106 1_554
O55 W13 1.921106 1_545
