# generated using pymatgen
data_CdI2
_symmetry_space_group_name_H-M   'P 1'
_cell_length_a   4.28749096
_cell_length_b   4.28749217
_cell_length_c   71.57456314
_cell_angle_alpha   90.00008368
_cell_angle_beta   89.99991019
_cell_angle_gamma   119.99970147
_symmetry_Int_Tables_number   1
_chemical_formula_structural   CdI2
_chemical_formula_sum   'Cd10 I20'
_cell_volume   1139.45506094
_cell_formula_units_Z   10
loop_
 _symmetry_equiv_pos_site_id
 _symmetry_equiv_pos_as_xyz
  1  'x, y, z'
loop_
 _atom_site_type_symbol
 _atom_site_label
 _atom_site_symmetry_multiplicity
 _atom_site_fract_x
 _atom_site_fract_y
 _atom_site_fract_z
 _atom_site_occupancy
  Cd  Cd0  1  0.66666700  0.33333300  0.32667199  1
  Cd  Cd1  1  -0.00000000  0.00000000  0.42590052  1
  Cd  Cd2  1  -0.00000000  0.00000000  0.92334341  1
  Cd  Cd3  1  0.66666700  0.33333300  0.02397713  1
  Cd  Cd4  1  -0.00000000  0.00000000  0.22608131  1
  Cd  Cd5  1  0.00000000  -0.00000000  0.52562820  1
  Cd  Cd6  1  -0.00000000  0.00000000  0.72443385  1
  Cd  Cd7  1  0.00000000  -0.00000000  0.12502801  1
  Cd  Cd8  1  -0.00000000  0.00000000  0.82370272  1
  Cd  Cd9  1  -0.00000000  0.00000000  0.62536607  1
  I  I0  1  0.33333300  0.66666700  0.44980730  1
  I  I1  1  0.33333300  0.66666700  0.35073465  1
  I  I2  1  0.66666700  0.33333300  0.10093336  1
  I  I3  1  0.66666700  0.33333300  0.89927202  1
  I  I4  1  0.33333300  0.66666700  0.94740366  1
  I  I5  1  -0.00000000  0.00000000  0.30259942  1
  I  I6  1  0.66666700  0.33333300  0.70029068  1
  I  I7  1  0.66666700  0.33333300  0.79976252  1
  I  I8  1  0.33333400  0.66666700  0.04809285  1
  I  I9  1  0.66666700  0.33333300  0.60142476  1
  I  I10  1  -0.00000000  0.00000000  0.99983223  1
  I  I11  1  0.33333300  0.66666700  0.54974343  1
  I  I12  1  0.33333300  0.66666700  0.14907191  1
  I  I13  1  0.66666700  0.33333300  0.40190051  1
  I  I14  1  0.33333300  0.66666700  0.25018261  1
  I  I15  1  0.66666700  0.33333300  0.50150137  1
  I  I16  1  0.33333300  0.66666700  0.84760364  1
  I  I17  1  0.33333300  0.66666700  0.64926871  1
  I  I18  1  0.66666700  0.33333300  0.20192513  1
  I  I19  1  0.33333300  0.66666700  0.74851602  1
loop_
_geom_bond_atom_site_label_1
_geom_bond_atom_site_label_2
_geom_bond_distance
_geom_bond_site_symmetry_2
Cd0 I1 3.015584 1_555
Cd0 I1 3.015591 1_655
Cd0 I1 3.015591 1_545
Cd0 I5 3.015983 1_655
Cd0 I5 3.015999 1_555
Cd0 I5 3.015999 1_665
Cd1 I0 3.009225 1_545
Cd1 I0 3.009233 1_445
Cd1 I0 3.009234 1_555
Cd1 I13 3.013024 1_455
Cd1 I13 3.013032 1_555
Cd1 I13 3.013033 1_445
Cd2 I4 3.015485 1_545
Cd2 I4 3.015493 1_445
Cd2 I4 3.015493 1_555
Cd2 I3 3.015940 1_455
Cd2 I3 3.015948 1_555
Cd2 I3 3.015949 1_445
Cd3 I8 3.017752 1_555
Cd3 I8 3.017762 1_545
Cd3 I8 3.017764 1_655
Cd3 I10 3.018944 1_654
Cd3 I10 3.018960 1_554
Cd3 I10 3.018960 1_664
Cd4 I14 3.017163 1_545
Cd4 I14 3.017172 1_445
Cd4 I14 3.017172 1_555
Cd4 I18 3.019411 1_455
Cd4 I18 3.019419 1_555
Cd4 I18 3.019420 1_445
Cd5 I11 3.017734 1_545
Cd5 I11 3.017742 1_445
Cd5 I11 3.017743 1_555
Cd5 I15 3.018209 1_455
Cd5 I15 3.018217 1_555
Cd5 I15 3.018217 1_445
Cd6 I19 3.016381 1_545
Cd6 I19 3.016389 1_445
Cd6 I19 3.016390 1_555
Cd6 I6 3.018878 1_455
Cd6 I6 3.018886 1_555
Cd6 I6 3.018887 1_445
Cd7 I12 3.014816 1_545
Cd7 I12 3.014824 1_445
Cd7 I12 3.014825 1_555
Cd7 I2 3.016891 1_455
Cd7 I2 3.016899 1_555
Cd7 I2 3.016900 1_445
Cd8 I16 3.008986 1_545
Cd8 I16 3.008995 1_445
Cd8 I16 3.008995 1_555
Cd8 I7 3.010586 1_455
Cd8 I7 3.010594 1_555
Cd8 I7 3.010595 1_445
Cd9 I17 3.009056 1_545
Cd9 I17 3.009065 1_445
Cd9 I17 3.009065 1_555
Cd9 I9 3.010631 1_455
Cd9 I9 3.010639 1_555
Cd9 I9 3.010640 1_445
