# generated using pymatgen
data_Mn2BiO5
_symmetry_space_group_name_H-M   'P 1'
_cell_length_a   5.76294167
_cell_length_b   7.50422576
_cell_length_c   8.55810989
_cell_angle_alpha   89.99977470
_cell_angle_beta   89.99998806
_cell_angle_gamma   89.99999348
_symmetry_Int_Tables_number   1
_chemical_formula_structural   Mn2BiO5
_chemical_formula_sum   'Mn8 Bi4 O20'
_cell_volume   370.10757477
_cell_formula_units_Z   4
loop_
 _symmetry_equiv_pos_site_id
 _symmetry_equiv_pos_as_xyz
  1  'x, y, z'
loop_
 _atom_site_type_symbol
 _atom_site_label
 _atom_site_symmetry_multiplicity
 _atom_site_fract_x
 _atom_site_fract_y
 _atom_site_fract_z
 _atom_site_occupancy
  Mn  Mn0  1  0.25859042  0.49999980  0.50000000  1
  Mn  Mn1  1  0.74140940  0.00000035  -0.00000084  1
  Mn  Mn2  1  0.74140979  0.49999978  0.50000022  1
  Mn  Mn3  1  0.25859056  0.00000033  -0.00000090  1
  Mn  Mn4  1  0.50000001  0.59320875  0.15013096  1
  Mn  Mn5  1  0.50000038  0.40679327  0.84987000  1
  Mn  Mn6  1  0.49999992  0.09321014  0.34987023  1
  Mn  Mn7  1  0.50000007  0.90679125  0.65012956  1
  Bi  Bi0  1  0.00000002  0.84604226  0.33407573  1
  Bi  Bi1  1  0.00000021  0.15395840  0.66592385  1
  Bi  Bi2  1  0.00000012  0.34604279  0.16592532  1
  Bi  Bi3  1  0.00000001  0.65395711  0.83407563  1
  O  O0  1  0.00000003  0.84436266  0.05523770  1
  O  O1  1  0.00000004  0.15563743  0.94476177  1
  O  O2  1  0.00000006  0.34436340  0.44476262  1
  O  O3  1  0.00000006  0.65563157  0.55523940  1
  O  O4  1  0.50000000  0.85207815  0.07009134  1
  O  O5  1  0.50000009  0.14792163  0.92990613  1
  O  O6  1  0.50000022  0.35207728  0.42990860  1
  O  O7  1  0.49999996  0.64792189  0.57009237  1
  O  O8  1  0.25325798  0.61041527  0.29866873  1
  O  O9  1  0.25325960  0.38958475  0.70133214  1
  O  O10  1  0.74673962  0.11041451  0.20133119  1
  O  O11  1  0.74674121  0.88958389  0.79866748  1
  O  O12  1  0.74674300  0.38958535  0.70133314  1
  O  O13  1  0.74674184  0.61041543  0.29866886  1
  O  O14  1  0.25325881  0.88958399  0.79866746  1
  O  O15  1  0.25326045  0.11041459  0.20133115  1
  O  O16  1  0.28360509  0.50000112  0.00000184  1
  O  O17  1  0.71639694  -0.00000014  0.49999872  1
  O  O18  1  0.71639491  0.50000119  0.00000192  1
  O  O19  1  0.28360319  -0.00000017  0.49999872  1
loop_
_geom_bond_atom_site_label_1
_geom_bond_atom_site_label_2
_geom_bond_distance
_geom_bond_site_symmetry_2
Mn0 O6 1.878176 1_555
Mn0 O7 1.878176 1_555
Mn0 O8 1.912136 1_555
Mn0 O9 1.912141 1_555
Mn0 O3 1.951484 1_555
Mn0 O2 1.951501 1_555
Mn1 O5 1.878170 1_554
Mn1 O4 1.878172 1_545
Mn1 O10 1.912143 1_555
Mn1 O11 1.912148 1_544
Mn1 O1 1.951503 1_654
Mn1 O0 1.951508 1_645
Mn2 O6 1.878176 1_555
Mn2 O7 1.878176 1_555
Mn2 O13 1.912137 1_555
Mn2 O12 1.912145 1_555
Mn2 O3 1.951484 1_655
Mn2 O2 1.951501 1_655
Mn3 O5 1.878171 1_554
Mn3 O4 1.878173 1_545
Mn3 O15 1.912144 1_555
Mn3 O14 1.912147 1_544
Mn3 O1 1.951503 1_554
Mn3 O0 1.951508 1_545
Mn4 O8 1.911701 1_555
Mn4 O13 1.911701 1_555
Mn4 O18 1.922287 1_555
Mn4 O16 1.922288 1_555
Mn4 O4 2.059842 1_555
Mn5 O9 1.911697 1_555
Mn5 O12 1.911699 1_555
Mn5 O18 1.922304 1_556
Mn5 O16 1.922306 1_556
Mn5 O5 2.059848 1_555
Mn6 O15 1.911696 1_555
Mn6 O10 1.911696 1_555
Mn6 O19 1.922295 1_555
Mn6 O17 1.922296 1_555
Mn6 O6 2.059827 1_555
Mn7 O14 1.911698 1_555
Mn7 O11 1.911698 1_555
Mn7 O17 1.922304 1_565
Mn7 O19 1.922304 1_565
Mn7 O7 2.059840 1_555
Bi0 O8 2.312687 1_555
Bi0 O13 2.312687 1_455
Bi0 O3 2.371533 1_555
Bi0 O0 2.386360 1_555
Bi0 O17 2.454056 1_465
Bi0 O19 2.454057 1_565
Bi0 O10 2.712321 1_465
Bi0 O15 2.712321 1_565
Bi1 O12 2.312686 1_455
Bi1 O9 2.312690 1_555
Bi1 O2 2.371490 1_555
Bi1 O1 2.386359 1_555
Bi1 O19 2.454070 1_555
Bi1 O17 2.454072 1_455
Bi1 O14 2.712323 1_545
Bi1 O11 2.712325 1_445
Bi2 O15 2.312699 1_555
Bi2 O10 2.312700 1_455
Bi2 O1 2.371517 1_554
Bi2 O2 2.386353 1_555
Bi2 O16 2.454064 1_555
Bi2 O18 2.454065 1_455
Bi2 O8 2.712317 1_555
Bi2 O13 2.712319 1_455
Bi3 O11 2.312688 1_455
Bi3 O14 2.312689 1_555
Bi3 O0 2.371507 1_556
Bi3 O3 2.386344 1_555
Bi3 O16 2.454069 1_556
Bi3 O18 2.454069 1_456
Bi3 O12 2.712307 1_455
Bi3 O9 2.712321 1_555
