# generated using pymatgen
data_URe2
_symmetry_space_group_name_H-M   'P 1'
_cell_length_a   5.26173437
_cell_length_b   5.26161842
_cell_length_c   8.17131298
_cell_angle_alpha   89.99387674
_cell_angle_beta   89.98830126
_cell_angle_gamma   112.76692017
_symmetry_Int_Tables_number   1
_chemical_formula_structural   URe2
_chemical_formula_sum   'U4 Re8'
_cell_volume   208.59883048
_cell_formula_units_Z   4
loop_
 _symmetry_equiv_pos_site_id
 _symmetry_equiv_pos_as_xyz
  1  'x, y, z'
loop_
 _atom_site_type_symbol
 _atom_site_label
 _atom_site_symmetry_multiplicity
 _atom_site_fract_x
 _atom_site_fract_y
 _atom_site_fract_z
 _atom_site_occupancy
  U  U0  1  0.33734883  0.66260540  0.58776447  1
  U  U1  1  0.66268195  0.33738541  0.08769897  1
  U  U2  1  0.66265117  0.33739460  0.41223553  1
  U  U3  1  0.33731805  0.66261459  0.91230103  1
  Re  Re0  1  0.17631191  0.82363450  0.24989824  1
  Re  Re1  1  0.16785269  0.33987798  0.24991054  1
  Re  Re2  1  0.83214731  0.66012202  0.75008946  1
  Re  Re3  1  -0.00000000  0.00000000  0.00000000  1
  Re  Re4  1  0.66013993  0.83214230  0.24992957  1
  Re  Re5  1  0.33986007  0.16785770  0.75007043  1
  Re  Re6  1  0.82368809  0.17636550  0.75010176  1
  Re  Re7  1  -0.00000000  0.00000000  0.50000000  1
loop_
_geom_bond_atom_site_label_1
_geom_bond_atom_site_label_2
_geom_bond_distance
_geom_bond_site_symmetry_2
U0 U3 2.651890 1_555
U0 U2 3.190821 1_555
U1 U2 2.651890 1_555
U1 U3 3.190803 1_554
Re0 Re1 2.528451 1_555
Re0 Re4 2.528788 1_555
Re0 Re3 2.560894 1_565
Re0 Re7 2.562076 1_565
Re0 Re4 2.733595 1_455
Re0 Re1 2.733809 1_565
Re0 U3 3.098466 1_554
Re0 U0 3.100649 1_555
Re0 U2 3.202493 1_455
Re0 U1 3.202604 1_565
Re0 U1 3.202645 1_455
Re0 U2 3.203692 1_565
Re1 Re3 2.631983 1_555
Re1 Re7 2.632541 1_555
Re1 Re4 2.868031 1_555
Re1 U1 2.925943 1_555
Re1 U2 2.926682 1_555
Re1 Re4 2.958034 1_445
Re1 U1 2.965956 1_455
Re1 U2 2.966045 1_455
Re1 U3 3.180450 1_554
Re1 U0 3.182805 1_555
Re2 Re6 2.528451 1_555
Re2 Re3 2.631983 1_666
Re2 Re7 2.632541 1_665
Re2 Re6 2.733809 1_565
Re2 Re5 2.868031 1_555
Re2 U3 2.925943 1_555
Re2 U0 2.926682 1_555
Re2 Re5 2.958034 1_665
Re2 U3 2.965956 1_655
Re2 U0 2.966045 1_655
Re2 U1 3.180450 1_556
Re2 U2 3.182805 1_555
Re3 Re6 2.560894 1_454
Re3 Re5 2.631430 1_554
Re3 Re4 2.631430 1_445
Re3 U3 3.041935 1_544
Re3 U1 3.041935 1_455
Re3 U3 3.320926 1_554
Re3 U1 3.320926 1_445
Re3 U1 3.321683 1_555
Re3 U3 3.321683 1_444
Re4 Re7 2.633036 1_665
Re4 U2 2.926008 1_555
Re4 U1 2.926079 1_555
Re4 U1 2.965853 1_565
Re4 U2 2.966483 1_565
Re4 U3 3.181513 1_554
Re4 U0 3.182144 1_555
Re5 Re6 2.528788 1_555
Re5 Re7 2.633036 1_555
Re5 Re6 2.733595 1_455
Re5 U0 2.926008 1_555
Re5 U3 2.926079 1_555
Re5 U3 2.965853 1_545
Re5 U0 2.966483 1_545
Re5 U1 3.181513 1_556
Re5 U2 3.182144 1_555
Re6 Re7 2.562076 1_655
Re6 U1 3.098466 1_556
Re6 U2 3.100649 1_555
Re6 U0 3.202493 1_655
Re6 U3 3.202604 1_545
Re6 U3 3.202645 1_655
Re6 U0 3.203692 1_545
Re7 U0 3.042313 1_545
Re7 U2 3.042313 1_455
Re7 U0 3.321279 1_445
Re7 U2 3.321279 1_555
Re7 U2 3.321339 1_445
Re7 U0 3.321339 1_555
