# generated using pymatgen
data_Fe2P2O7
_symmetry_space_group_name_H-M   'P 1'
_cell_length_a   4.49847632
_cell_length_b   5.44690468
_cell_length_c   9.87738419
_cell_angle_alpha   90.00000000
_cell_angle_beta   90.00000000
_cell_angle_gamma   97.32656768
_symmetry_Int_Tables_number   1
_chemical_formula_structural   Fe2P2O7
_chemical_formula_sum   'Fe4 P4 O14'
_cell_volume   240.04727050
_cell_formula_units_Z   2
loop_
 _symmetry_equiv_pos_site_id
 _symmetry_equiv_pos_as_xyz
  1  'x, y, z'
loop_
 _atom_site_type_symbol
 _atom_site_label
 _atom_site_symmetry_multiplicity
 _atom_site_fract_x
 _atom_site_fract_y
 _atom_site_fract_z
 _atom_site_occupancy
  Fe  Fe0  1  0.11238842  0.39448503  0.65882212  1
  Fe  Fe1  1  0.88761158  0.10551497  0.15882212  1
  Fe  Fe2  1  0.88761158  0.60551497  0.34117788  1
  Fe  Fe3  1  0.11238842  0.89448503  0.84117788  1
  P  P0  1  0.64199843  0.84223925  0.60959701  1
  P  P1  1  0.35800157  0.65776075  0.10959701  1
  P  P2  1  0.35800157  0.15776075  0.39040299  1
  P  P3  1  0.64199843  0.34223925  0.89040299  1
  O  O0  1  0.87658030  0.51991428  0.81724454  1
  O  O1  1  0.12341970  0.98008572  0.31724454  1
  O  O2  1  0.12341970  0.48008572  0.18275546  1
  O  O3  1  0.87658030  0.01991428  0.68275546  1
  O  O4  1  0.50000000  -0.00000000  0.50000000  1
  O  O5  1  0.50000000  0.50000000  -0.00000000  1
  O  O6  1  0.21314929  0.35593422  0.46483743  1
  O  O7  1  0.78685071  0.14406578  0.96483743  1
  O  O8  1  0.38526221  0.23446944  0.80049487  1
  O  O9  1  0.61473779  0.26553056  0.30049487  1
  O  O10  1  0.61473779  0.76553056  0.19950513  1
  O  O11  1  0.38526221  0.73446944  0.69950513  1
  O  O12  1  0.21314929  0.85593422  0.03516257  1
  O  O13  1  0.78685071  0.64406578  0.53516257  1
loop_
_geom_bond_atom_site_label_1
_geom_bond_atom_site_label_2
_geom_bond_distance
_geom_bond_site_symmetry_2
Fe0 O6 1.986231 1_555
Fe0 O0 2.055590 1_455
Fe0 O8 2.120740 1_555
Fe0 O11 2.125534 1_555
Fe0 O3 2.189011 1_455
Fe0 O13 2.447911 1_455
Fe1 O7 1.986231 1_554
Fe1 O1 2.055590 1_645
Fe1 O9 2.120740 1_555
Fe1 O10 2.125534 1_545
Fe1 O2 2.189011 1_655
Fe1 O12 2.447911 1_645
Fe2 O13 1.986231 1_555
Fe2 O2 2.055590 1_655
Fe2 O10 2.120740 1_555
Fe2 O9 2.125534 1_555
Fe2 O1 2.189011 1_655
Fe2 O6 2.447911 1_655
Fe3 O12 1.986231 1_556
Fe3 O3 2.055590 1_465
Fe3 O11 2.120740 1_555
Fe3 O8 2.125534 1_565
Fe3 O0 2.189011 1_455
Fe3 O7 2.447911 1_465
O0 P3 1.520484 1_555
O1 P2 1.520484 1_565
O2 P1 1.520484 1_555
O3 P0 1.520484 1_545
O4 P0 1.567903 1_545
O4 P2 1.567903 1_555
O5 P3 1.567903 1_554
O5 P1 1.567903 1_555
O6 P2 1.519775 1_555
O7 P3 1.519775 1_555
O8 P3 1.514649 1_555
O9 P2 1.514649 1_555
O10 P1 1.514649 1_555
O11 P0 1.514649 1_555
O12 P1 1.519775 1_555
O13 P0 1.519775 1_555
