# generated using pymatgen
data_ThI3
_symmetry_space_group_name_H-M   'P 1'
_cell_length_a   9.27967126
_cell_length_b   11.15995615
_cell_length_c   14.90362480
_cell_angle_alpha   90.00000000
_cell_angle_beta   90.00000000
_cell_angle_gamma   114.66090562
_symmetry_Int_Tables_number   1
_chemical_formula_structural   ThI3
_chemical_formula_sum   'Th8 I24'
_cell_volume   1402.65867815
_cell_formula_units_Z   8
loop_
 _symmetry_equiv_pos_site_id
 _symmetry_equiv_pos_as_xyz
  1  'x, y, z'
loop_
 _atom_site_type_symbol
 _atom_site_label
 _atom_site_symmetry_multiplicity
 _atom_site_fract_x
 _atom_site_fract_y
 _atom_site_fract_z
 _atom_site_occupancy
  Th  Th0  1  0.50000000  -0.00000000  0.00000000  1
  Th  Th1  1  0.50000000  -0.00000000  0.50000000  1
  Th  Th2  1  0.50000000  -0.00000000  0.75012208  1
  Th  Th3  1  0.50000000  -0.00000000  0.24987792  1
  Th  Th4  1  0.84369200  0.34450053  0.00000000  1
  Th  Th5  1  0.49898742  0.65535837  0.50000000  1
  Th  Th6  1  0.15630800  0.65549947  0.00000000  1
  Th  Th7  1  0.50101258  0.34464263  0.50000000  1
  I  I0  1  -0.00000000  0.50000000  0.81982156  1
  I  I1  1  0.50000000  0.50000000  0.68003710  1
  I  I2  1  -0.00000000  0.50000000  0.18017844  1
  I  I3  1  0.50000000  0.50000000  0.31996290  1
  I  I4  1  0.17700165  0.90449471  0.86983943  1
  I  I5  1  0.27247614  0.09486614  0.63003914  1
  I  I6  1  0.82299835  0.09550529  0.86983943  1
  I  I7  1  0.72752386  0.90513386  0.63003914  1
  I  I8  1  0.82299835  0.09550529  0.13016057  1
  I  I9  1  0.72752386  0.90513386  0.36996086  1
  I  I10  1  0.17700165  0.90449471  0.13016057  1
  I  I11  1  0.27247614  0.09486614  0.36996086  1
  I  I12  1  0.27227567  0.75161264  0.62799387  1
  I  I13  1  0.52080481  0.24853013  0.87193720  1
  I  I14  1  0.72772433  0.24838736  0.62799387  1
  I  I15  1  0.47919519  0.75146987  0.87193720  1
  I  I16  1  0.72772433  0.24838736  0.37200613  1
  I  I17  1  0.47919519  0.75146987  0.12806280  1
  I  I18  1  0.27227567  0.75161264  0.37200613  1
  I  I19  1  0.52080481  0.24853013  0.12806280  1
  I  I20  1  0.20932886  0.38884222  0.00000000  1
  I  I21  1  0.82044878  0.61174750  0.50000000  1
  I  I22  1  0.79067114  0.61115778  0.00000000  1
  I  I23  1  0.17955122  0.38825250  0.50000000  1
loop_
_geom_bond_atom_site_label_1
_geom_bond_atom_site_label_2
_geom_bond_distance
_geom_bond_site_symmetry_2
I0 Th6 3.197778 1_556
I0 Th4 3.197778 1_456
I1 Th7 3.196760 1_555
I1 Th5 3.196766 1_555
I2 Th4 3.197778 1_455
I2 Th6 3.197778 1_555
I3 Th7 3.196760 1_555
I3 Th5 3.196766 1_555
I4 Th2 3.261512 1_565
I4 Th6 3.328100 1_556
I4 Th0 3.349191 1_566
I5 Th2 3.262957 1_555
I5 Th7 3.330251 1_555
I5 Th1 3.346644 1_555
I6 Th2 3.261512 1_555
I6 Th4 3.328100 1_556
I6 Th0 3.349191 1_556
I7 Th2 3.262957 1_565
I7 Th5 3.330244 1_555
I7 Th1 3.346644 1_565
I8 Th3 3.261512 1_555
I8 Th4 3.328100 1_555
I8 Th0 3.349191 1_555
I9 Th3 3.262957 1_565
I9 Th5 3.330244 1_555
I9 Th1 3.346644 1_565
I10 Th3 3.261512 1_565
I10 Th6 3.328100 1_555
I10 Th0 3.349191 1_565
I11 Th3 3.262957 1_555
I11 Th7 3.330251 1_555
I11 Th1 3.346644 1_555
I12 Th2 3.251807 1_565
I12 Th1 3.301533 1_565
I12 Th5 3.332359 1_555
I13 Th2 3.252567 1_555
I13 Th0 3.305443 1_556
I13 Th4 3.330107 1_556
I14 Th2 3.251807 1_555
I14 Th1 3.301533 1_555
I14 Th7 3.332366 1_555
I15 Th2 3.252567 1_565
I15 Th0 3.305443 1_566
I15 Th6 3.330107 1_556
I16 Th3 3.251807 1_555
I16 Th1 3.301533 1_555
I16 Th7 3.332366 1_555
I17 Th3 3.252567 1_565
I17 Th0 3.305443 1_565
I17 Th6 3.330107 1_555
I18 Th3 3.251807 1_565
I18 Th1 3.301533 1_565
I18 Th5 3.332359 1_555
I19 Th3 3.252567 1_555
I19 Th0 3.305443 1_555
I19 Th4 3.330107 1_555
I20 Th6 3.212447 1_555
I20 Th4 3.218093 1_455
I21 Th7 3.209176 1_555
I21 Th5 3.216682 1_555
I22 Th4 3.212447 1_555
I22 Th6 3.218093 1_655
I23 Th5 3.209182 1_555
I23 Th7 3.216676 1_555
