# generated using pymatgen
data_Sm32O21
_symmetry_space_group_name_H-M   'P 1'
_cell_length_a   10.92371679
_cell_length_b   10.92371679
_cell_length_c   10.92371711
_cell_angle_alpha   90.21199718
_cell_angle_beta   90.21199718
_cell_angle_gamma   90.21199698
_symmetry_Int_Tables_number   1
_chemical_formula_structural   Sm32O21
_chemical_formula_sum   'Sm32 O21'
_cell_volume   1303.47398562
_cell_formula_units_Z   1
loop_
 _symmetry_equiv_pos_site_id
 _symmetry_equiv_pos_as_xyz
  1  'x, y, z'
loop_
 _atom_site_type_symbol
 _atom_site_label
 _atom_site_symmetry_multiplicity
 _atom_site_fract_x
 _atom_site_fract_y
 _atom_site_fract_z
 _atom_site_occupancy
  Sm  Sm0  1  0.49608600  0.26086800  0.75513000  1
  Sm  Sm1  1  0.50123800  0.50123800  0.98699500  1
  Sm  Sm2  1  0.98699500  0.50123800  0.50123800  1
  Sm  Sm3  1  0.49275900  0.49275900  0.49275900  1
  Sm  Sm4  1  0.75167200  0.75167200  0.98405200  1
  Sm  Sm5  1  0.25334200  0.00845100  0.74581800  1
  Sm  Sm6  1  0.25334200  0.74581800  0.00845100  1
  Sm  Sm7  1  0.99290600  0.99290600  0.99290600  1
  Sm  Sm8  1  0.75167200  0.98405200  0.75167200  1
  Sm  Sm9  1  0.74581800  0.00845100  0.25334200  1
  Sm  Sm10  1  0.00845100  0.25334200  0.74581800  1
  Sm  Sm11  1  0.26086800  0.75513000  0.49608600  1
  Sm  Sm12  1  0.99986600  0.49921600  0.99986600  1
  Sm  Sm13  1  0.25139400  0.25139400  0.49988500  1
  Sm  Sm14  1  0.24740200  0.24740200  0.99180100  1
  Sm  Sm15  1  0.25139400  0.49988500  0.25139400  1
  Sm  Sm16  1  0.75513000  0.26086800  0.49608600  1
  Sm  Sm17  1  0.99180100  0.24740200  0.24740200  1
  Sm  Sm18  1  0.26086800  0.49608600  0.75513000  1
  Sm  Sm19  1  0.49988500  0.25139400  0.25139400  1
  Sm  Sm20  1  0.00845100  0.74581800  0.25334200  1
  Sm  Sm21  1  0.74581800  0.25334200  0.00845100  1
  Sm  Sm22  1  0.50123800  0.98699500  0.50123800  1
  Sm  Sm23  1  0.98405200  0.75167200  0.75167200  1
  Sm  Sm24  1  0.24740200  0.99180100  0.24740200  1
  Sm  Sm25  1  0.49608600  0.75513000  0.26086800  1
  Sm  Sm26  1  0.75456100  0.48933400  0.75456100  1
  Sm  Sm27  1  0.75513000  0.49608600  0.26086800  1
  Sm  Sm28  1  0.48933400  0.75456100  0.75456100  1
  Sm  Sm29  1  0.99986600  0.99986600  0.49921600  1
  Sm  Sm30  1  0.75456100  0.75456100  0.48933400  1
  Sm  Sm31  1  0.49921600  0.99986600  0.99986600  1
  O  O0  1  0.37828200  0.12888500  0.87449300  1
  O  O1  1  0.37125700  0.62966600  0.88168000  1
  O  O2  1  0.61577600  0.87435100  0.87435100  1
  O  O3  1  0.87435100  0.87435100  0.61577600  1
  O  O4  1  0.12888500  0.37828200  0.87449300  1
  O  O5  1  0.12983000  0.12983000  0.61883100  1
  O  O6  1  0.12983000  0.61883100  0.12983000  1
  O  O7  1  0.87449300  0.12888500  0.37828200  1
  O  O8  1  0.61883100  0.12983000  0.12983000  1
  O  O9  1  0.87435100  0.61577600  0.87435100  1
  O  O10  1  0.62966600  0.88168000  0.37125700  1
  O  O11  1  0.62966600  0.37125700  0.88168000  1
  O  O12  1  0.62533300  0.36978400  0.36978400  1
  O  O13  1  0.12888500  0.87449300  0.37828200  1
  O  O14  1  0.36978400  0.62533300  0.36978400  1
  O  O15  1  0.87449300  0.37828200  0.12888500  1
  O  O16  1  0.37828200  0.87449300  0.12888500  1
  O  O17  1  0.37125700  0.88168000  0.62966600  1
  O  O18  1  0.88168000  0.62966600  0.37125700  1
  O  O19  1  0.88168000  0.37125700  0.62966600  1
  O  O20  1  0.36978400  0.36978400  0.62533300  1
loop_
_geom_bond_atom_site_label_1
_geom_bond_atom_site_label_2
_geom_bond_distance
_geom_bond_site_symmetry_2
Sm4 Sm7 3.720545 1_555
Sm5 Sm7 3.932473 1_445
Sm6 Sm7 3.932473 1_454
Sm7 Sm8 3.720545 1_555
Sm7 Sm9 3.932473 1_566
Sm10 Sm7 3.932473 1_445
Sm14 Sm7 3.924375 1_445
Sm17 Sm7 3.924375 1_544
Sm20 Sm7 3.932473 1_454
Sm21 Sm7 3.932473 1_544
Sm23 Sm7 3.720545 1_555
Sm24 Sm7 3.924375 1_454
O0 Sm14 2.318880 1_555
O0 Sm0 2.333956 1_555
O0 Sm5 2.351179 1_555
O0 Sm31 2.371033 1_545
O1 Sm6 2.280131 1_556
O1 Sm1 2.307010 1_555
O1 Sm18 2.335394 1_555
O1 Sm28 2.338278 1_555
O2 Sm28 2.300642 1_555
O2 Sm31 2.322265 1_555
O2 Sm4 2.334325 1_555
O2 Sm8 2.334325 1_555
O3 Sm30 2.300642 1_555
O3 Sm29 2.322265 1_555
O3 Sm8 2.334325 1_555
O3 Sm23 2.334325 1_555
O4 Sm14 2.318880 1_555
O4 Sm18 2.333956 1_555
O4 Sm10 2.351179 1_555
O4 Sm12 2.371033 1_455
O5 Sm13 2.286384 1_555
O5 Sm5 2.348541 1_555
O5 Sm10 2.348541 1_555
O5 Sm29 2.386625 1_445
O6 Sm15 2.286384 1_555
O6 Sm20 2.348541 1_555
O6 Sm6 2.348541 1_555
O6 Sm12 2.386625 1_454
O7 Sm17 2.318880 1_555
O7 Sm16 2.333956 1_555
O7 Sm9 2.351179 1_555
O7 Sm29 2.371033 1_545
O8 Sm19 2.286384 1_555
O8 Sm9 2.348541 1_555
O8 Sm21 2.348541 1_555
O8 Sm31 2.386625 1_544
O9 Sm26 2.300642 1_555
O9 Sm12 2.322265 1_555
O9 Sm4 2.334325 1_555
O9 Sm23 2.334325 1_555
O10 Sm9 2.280131 1_565
O10 Sm22 2.307010 1_555
O10 Sm25 2.335394 1_555
O10 Sm30 2.338278 1_555
O11 Sm21 2.280131 1_556
O11 Sm1 2.307010 1_555
O11 Sm0 2.335394 1_555
O11 Sm26 2.338278 1_555
O12 Sm19 2.276909 1_555
O12 Sm27 2.310753 1_555
O12 Sm16 2.310753 1_555
O12 Sm3 2.392043 1_555
O13 Sm24 2.318880 1_555
O13 Sm11 2.333956 1_555
O13 Sm20 2.351179 1_555
O13 Sm29 2.371033 1_455
O14 Sm15 2.276909 1_555
O14 Sm25 2.310753 1_555
O14 Sm11 2.310753 1_555
O14 Sm3 2.392043 1_555
O15 Sm17 2.318880 1_555
O15 Sm27 2.333956 1_555
O15 Sm21 2.351179 1_555
O15 Sm12 2.371033 1_554
O16 Sm24 2.318880 1_555
O16 Sm25 2.333956 1_555
O16 Sm6 2.351179 1_555
O16 Sm31 2.371033 1_554
O17 Sm5 2.280131 1_565
O17 Sm22 2.307010 1_555
O17 Sm11 2.335394 1_555
O17 Sm28 2.338278 1_555
O18 Sm20 2.280131 1_655
O18 Sm2 2.307010 1_555
O18 Sm27 2.335394 1_555
O18 Sm30 2.338278 1_555
O19 Sm10 2.280131 1_655
O19 Sm2 2.307010 1_555
O19 Sm16 2.335394 1_555
O19 Sm26 2.338278 1_555
O20 Sm13 2.276909 1_555
O20 Sm0 2.310753 1_555
O20 Sm18 2.310753 1_555
O20 Sm3 2.392043 1_555
