# generated using pymatgen
data_Ho8Mg12Zn61
_symmetry_space_group_name_H-M   'P 1'
_cell_length_a   12.19774957
_cell_length_b   12.19774957
_cell_length_c   12.19774957
_cell_angle_alpha   109.47122063
_cell_angle_beta   109.47122063
_cell_angle_gamma   109.47122063
_symmetry_Int_Tables_number   1
_chemical_formula_structural   Ho8Mg12Zn61
_chemical_formula_sum   'Ho8 Mg12 Zn61'
_cell_volume   1397.06704303
_cell_formula_units_Z   1
loop_
 _symmetry_equiv_pos_site_id
 _symmetry_equiv_pos_as_xyz
  1  'x, y, z'
loop_
 _atom_site_type_symbol
 _atom_site_label
 _atom_site_symmetry_multiplicity
 _atom_site_fract_x
 _atom_site_fract_y
 _atom_site_fract_z
 _atom_site_occupancy
  Ho  Ho0  1  0.62668400  0.62668400  0.62668400  1
  Ho  Ho1  1  0.00000000  0.62668400  0.00000000  1
  Ho  Ho2  1  0.37331600  0.37331600  0.37331600  1
  Ho  Ho3  1  0.00000000  0.37331600  0.00000000  1
  Ho  Ho4  1  0.00000000  0.00000000  0.37331600  1
  Ho  Ho5  1  0.00000000  0.00000000  0.62668400  1
  Ho  Ho6  1  0.62668400  0.00000000  0.00000000  1
  Ho  Ho7  1  0.37331600  0.00000000  0.00000000  1
  Mg  Mg0  1  0.31892000  0.11670400  0.43562400  1
  Mg  Mg1  1  0.56437600  0.68108000  0.88329600  1
  Mg  Mg2  1  0.11670400  0.79778400  0.68108000  1
  Mg  Mg3  1  0.68108000  0.11670400  0.79778400  1
  Mg  Mg4  1  0.79778400  0.68108000  0.11670400  1
  Mg  Mg5  1  0.68108000  0.88329600  0.56437600  1
  Mg  Mg6  1  0.88329600  0.20221600  0.31892000  1
  Mg  Mg7  1  0.20221600  0.31892000  0.88329600  1
  Mg  Mg8  1  0.88329600  0.56437600  0.68108000  1
  Mg  Mg9  1  0.43562400  0.31892000  0.11670400  1
  Mg  Mg10  1  0.11670400  0.43562400  0.31892000  1
  Mg  Mg11  1  0.31892000  0.88329600  0.20221600  1
  Zn  Zn0  1  0.09927300  0.15433600  0.25360800  1
  Zn  Zn1  1  0.48910800  0.17420100  0.31490700  1
  Zn  Zn2  1  0.75196600  0.40993400  0.97589700  1
  Zn  Zn3  1  0.68509300  0.85929300  0.17420100  1
  Zn  Zn4  1  0.65796700  0.43403700  0.40993400  1
  Zn  Zn5  1  0.34203300  0.75196600  0.77606900  1
  Zn  Zn6  1  0.22393100  0.97589700  0.56596300  1
  Zn  Zn7  1  0.43403700  0.40993400  0.65796700  1
  Zn  Zn8  1  0.43403700  0.77606900  0.02410300  1
  Zn  Zn9  1  0.84566400  0.74639200  0.90072700  1
  Zn  Zn10  1  0.34203300  0.56596300  0.59006600  1
  Zn  Zn11  1  0.50000000  0.59012000  0.09012000  1
  Zn  Zn12  1  0.09927300  0.84566400  0.94493700  1
  Zn  Zn13  1  0.40993400  0.65796700  0.43403700  1
  Zn  Zn14  1  0.59006600  0.34203300  0.56596300  1
  Zn  Zn15  1  0.82579900  0.68509300  0.51089200  1
  Zn  Zn16  1  0.24803400  0.22393100  0.65796700  1
  Zn  Zn17  1  0.02410300  0.24803400  0.59006600  1
  Zn  Zn18  1  0.15433600  0.25360800  0.09927300  1
  Zn  Zn19  1  0.56596300  0.22393100  0.97589700  1
  Zn  Zn20  1  0.59006600  0.02410300  0.24803400  1
  Zn  Zn21  1  0.21730100  0.71730100  0.50000000  1
  Zn  Zn22  1  0.50000000  0.78269900  0.28269900  1
  Zn  Zn23  1  0.17420100  0.31490700  0.48910800  1
  Zn  Zn24  1  0.84566400  0.94493700  0.09927300  1
  Zn  Zn25  1  0.78269900  0.28269900  0.50000000  1
  Zn  Zn26  1  0.05506300  0.90072700  0.15433600  1
  Zn  Zn27  1  0.77606900  0.02410300  0.43403700  1
  Zn  Zn28  1  0.15433600  0.05506300  0.90072700  1
  Zn  Zn29  1  0.85929300  0.17420100  0.68509300  1
  Zn  Zn30  1  0.59012000  0.09012000  0.50000000  1
  Zn  Zn31  1  0.24803400  0.59006600  0.02410300  1
  Zn  Zn32  1  0.82579900  0.31490700  0.14070700  1
  Zn  Zn33  1  0.68509300  0.51089200  0.82579900  1
  Zn  Zn34  1  0.71730100  0.50000000  0.21730100  1
  Zn  Zn35  1  0.17420100  0.68509300  0.85929300  1
  Zn  Zn36  1  0.90072700  0.15433600  0.05506300  1
  Zn  Zn37  1  0.77606900  0.34203300  0.75196600  1
  Zn  Zn38  1  0.51089200  0.82579900  0.68509300  1
  Zn  Zn39  1  0.22393100  0.65796700  0.24803400  1
  Zn  Zn40  1  0.90072700  0.84566400  0.74639200  1
  Zn  Zn41  1  0.65796700  0.24803400  0.22393100  1
  Zn  Zn42  1  0.00000000  0.00000000  0.00000000  1
  Zn  Zn43  1  0.31490700  0.48910800  0.17420100  1
  Zn  Zn44  1  0.50000000  0.40988000  0.90988000  1
  Zn  Zn45  1  0.90988000  0.50000000  0.40988000  1
  Zn  Zn46  1  0.14070700  0.82579900  0.31490700  1
  Zn  Zn47  1  0.74639200  0.90072700  0.84566400  1
  Zn  Zn48  1  0.94493700  0.09927300  0.84566400  1
  Zn  Zn49  1  0.75196600  0.77606900  0.34203300  1
  Zn  Zn50  1  0.97589700  0.56596300  0.22393100  1
  Zn  Zn51  1  0.31490700  0.14070700  0.82579900  1
  Zn  Zn52  1  0.40993400  0.97589700  0.75196600  1
  Zn  Zn53  1  0.97589700  0.75196600  0.40993400  1
  Zn  Zn54  1  0.40988000  0.90988000  0.50000000  1
  Zn  Zn55  1  0.56596300  0.59006600  0.34203300  1
  Zn  Zn56  1  0.02410300  0.43403700  0.77606900  1
  Zn  Zn57  1  0.50000000  0.21730100  0.71730100  1
  Zn  Zn58  1  0.25360800  0.09927300  0.15433600  1
  Zn  Zn59  1  0.28269900  0.50000000  0.78269900  1
  Zn  Zn60  1  0.09012000  0.50000000  0.59012000  1
loop_
_geom_bond_atom_site_label_1
_geom_bond_atom_site_label_2
_geom_bond_distance
_geom_bond_site_symmetry_2
Ho0 Zn40 2.938350 1_555
Ho0 Zn9 2.938350 1_555
Ho0 Zn47 2.938350 1_555
Ho0 Ho2 3.090519 1_555
Ho0 Zn4 3.128257 1_555
Ho0 Zn7 3.128257 1_555
Ho0 Zn13 3.128257 1_555
Ho0 Zn55 3.136032 1_555
Ho0 Zn10 3.136032 1_555
Ho0 Zn14 3.136032 1_555
Ho0 Zn15 3.194606 1_555
Ho0 Zn38 3.194606 1_555
Ho0 Zn33 3.194606 1_555
Ho0 Mg1 3.369406 1_555
Ho0 Mg8 3.369406 1_555
Ho0 Mg5 3.369406 1_555
Ho1 Zn26 2.938352 1_555
Ho1 Zn12 2.938352 1_554
Ho1 Zn9 2.938362 1_454
Ho1 Ho3 3.090519 1_555
Ho1 Zn56 3.128265 1_554
Ho1 Zn2 3.128265 1_454
Ho1 Zn39 3.128271 1_555
Ho1 Zn37 3.136038 1_454
Ho1 Zn31 3.136044 1_555
Ho1 Zn50 3.136044 1_455
Ho1 Zn46 3.194604 1_555
Ho1 Zn33 3.194606 1_454
Ho1 Zn35 3.194616 1_554
Ho1 Mg11 3.369406 1_555
Ho1 Mg8 3.369406 1_454
Ho1 Mg4 3.369406 1_455
Ho2 Zn18 2.938350 1_555
Ho2 Zn0 2.938350 1_555
Ho2 Zn58 2.938350 1_555
Ho2 Zn55 3.128257 1_555
Ho2 Zn10 3.128257 1_555
Ho2 Zn14 3.128257 1_555
Ho2 Zn7 3.136032 1_555
Ho2 Zn4 3.136032 1_555
Ho2 Zn13 3.136032 1_555
Ho2 Zn43 3.194606 1_555
Ho2 Zn23 3.194606 1_555
Ho2 Zn1 3.194606 1_555
Ho2 Mg10 3.369406 1_555
Ho2 Mg0 3.369406 1_555
Ho2 Mg9 3.369406 1_555
Ho3 Zn48 2.938352 1_454
Ho3 Zn36 2.938352 1_455
Ho3 Zn18 2.938362 1_555
Ho3 Zn31 3.128265 1_555
Ho3 Zn50 3.128265 1_455
Ho3 Zn37 3.128271 1_454
Ho3 Zn39 3.136038 1_555
Ho3 Zn56 3.136044 1_554
Ho3 Zn2 3.136044 1_454
Ho3 Zn29 3.194604 1_454
Ho3 Zn43 3.194606 1_555
Ho3 Zn32 3.194616 1_455
Ho3 Mg7 3.369406 1_554
Ho3 Mg3 3.369406 1_454
Ho3 Mg10 3.369406 1_555
Ho4 Zn24 2.938352 1_445
Ho4 Zn26 2.938352 1_545
Ho4 Zn0 2.938362 1_555
Ho4 Ho5 3.090519 1_555
Ho4 Zn17 3.128265 1_555
Ho4 Zn6 3.128265 1_545
Ho4 Zn49 3.128271 1_445
Ho4 Zn16 3.136038 1_555
Ho4 Zn27 3.136044 1_455
Ho4 Zn53 3.136044 1_445
Ho4 Zn3 3.194604 1_445
Ho4 Zn23 3.194606 1_555
Ho4 Zn46 3.194616 1_545
Ho4 Mg6 3.369406 1_455
Ho4 Mg4 3.369406 1_445
Ho4 Mg0 3.369406 1_555
Ho5 Zn28 2.938352 1_555
Ho5 Zn48 2.938352 1_455
Ho5 Zn40 2.938362 1_445
Ho5 Zn27 3.128265 1_455
Ho5 Zn53 3.128265 1_445
Ho5 Zn16 3.128271 1_555
Ho5 Zn49 3.136038 1_445
Ho5 Zn17 3.136044 1_555
Ho5 Zn6 3.136044 1_545
Ho5 Zn51 3.194604 1_555
Ho5 Zn15 3.194606 1_445
Ho5 Zn29 3.194616 1_455
Ho5 Mg7 3.369406 1_555
Ho5 Mg5 3.369406 1_445
Ho5 Mg2 3.369406 1_545
Ho6 Zn36 2.938352 1_555
Ho6 Zn24 2.938352 1_545
Ho6 Zn47 2.938362 1_544
Ho6 Ho7 3.090519 1_555
Ho6 Zn8 3.128265 1_545
Ho6 Zn52 3.128265 1_544
Ho6 Zn41 3.128271 1_555
Ho6 Zn5 3.136038 1_544
Ho6 Zn20 3.136044 1_555
Ho6 Zn19 3.136044 1_554
Ho6 Zn32 3.194604 1_555
Ho6 Zn38 3.194606 1_544
Ho6 Zn3 3.194616 1_545
Ho6 Mg6 3.369406 1_555
Ho6 Mg1 3.369406 1_544
Ho6 Mg3 3.369406 1_554
Ho7 Zn12 2.938352 1_544
Ho7 Zn28 2.938352 1_554
Ho7 Zn58 2.938362 1_555
Ho7 Zn20 3.128265 1_555
Ho7 Zn19 3.128265 1_554
Ho7 Zn5 3.128271 1_544
Ho7 Zn41 3.136038 1_555
Ho7 Zn8 3.136044 1_545
Ho7 Zn52 3.136044 1_544
Ho7 Zn35 3.194604 1_544
Ho7 Zn1 3.194606 1_555
Ho7 Zn51 3.194616 1_554
Ho7 Mg11 3.369406 1_545
Ho7 Mg2 3.369406 1_544
Ho7 Mg9 3.369406 1_555
Mg0 Zn57 2.917608 1_555
Mg0 Zn6 2.922627 1_545
Mg0 Zn14 2.922632 1_555
Mg0 Zn46 2.953832 1_545
Mg0 Zn1 2.953834 1_555
Mg0 Zn16 3.125085 1_555
Mg0 Zn7 3.125091 1_555
Mg0 Zn0 3.138755 1_555
Mg0 Zn58 3.167121 1_555
Mg0 Zn26 3.167122 1_545
Mg0 Mg11 3.287493 1_545
Mg0 Zn54 3.289065 1_545
Mg0 Zn30 3.289065 1_555
Mg1 Zn59 2.917608 1_555
Mg1 Zn8 2.922627 1_556
Mg1 Zn7 2.922632 1_555
Mg1 Zn3 2.953832 1_556
Mg1 Zn33 2.953834 1_555
Mg1 Zn5 3.125085 1_555
Mg1 Zn10 3.125091 1_555
Mg1 Zn47 3.138755 1_555
Mg1 Zn9 3.167121 1_555
Mg1 Zn24 3.167122 1_556
Mg1 Mg4 3.287493 1_556
Mg1 Zn11 3.289065 1_556
Mg1 Zn44 3.289065 1_555
Mg2 Zn21 2.917608 1_555
Mg2 Zn53 2.922627 1_455
Mg2 Zn5 2.922638 1_555
Mg2 Zn35 2.953825 1_555
Mg2 Zn15 2.953834 1_455
Mg2 Zn52 3.125095 1_555
Mg2 Zn6 3.125095 1_555
Mg2 Zn28 3.138750 1_565
Mg2 Zn12 3.167122 1_555
Mg2 Zn40 3.167128 1_455
Mg2 Mg8 3.287493 1_455
Mg2 Zn45 3.289065 1_455
Mg2 Zn60 3.289065 1_555
Mg3 Zn57 2.917608 1_555
Mg3 Zn52 2.922627 1_545
Mg3 Zn37 2.922638 1_555
Mg3 Zn29 2.953825 1_555
Mg3 Zn38 2.953834 1_545
Mg3 Zn2 3.125095 1_555
Mg3 Zn19 3.125095 1_555
Mg3 Zn36 3.138750 1_556
Mg3 Zn48 3.167122 1_555
Mg3 Zn47 3.167128 1_545
Mg3 Mg5 3.287493 1_545
Mg3 Zn54 3.289065 1_545
Mg3 Zn30 3.289065 1_555
Mg4 Zn34 2.917608 1_555
Mg4 Zn2 2.922627 1_554
Mg4 Zn49 2.922638 1_555
Mg4 Zn3 2.953825 1_555
Mg4 Zn33 2.953834 1_554
Mg4 Zn53 3.125095 1_555
Mg4 Zn50 3.125095 1_555
Mg4 Zn26 3.138750 1_655
Mg4 Zn24 3.167122 1_555
Mg4 Zn9 3.167128 1_554
Mg4 Zn44 3.289065 1_554
Mg4 Zn11 3.289065 1_555
Mg5 Zn22 2.917608 1_555
Mg5 Zn27 2.922627 1_565
Mg5 Zn13 2.922632 1_555
Mg5 Zn29 2.953832 1_565
Mg5 Zn38 2.953834 1_555
Mg5 Zn49 3.125085 1_555
Mg5 Zn55 3.125091 1_555
Mg5 Zn40 3.138755 1_555
Mg5 Zn47 3.167121 1_555
Mg5 Zn48 3.167122 1_565
Mg5 Zn30 3.289065 1_565
Mg5 Zn54 3.289065 1_555
Mg6 Zn25 2.917608 1_555
Mg6 Zn17 2.922627 1_655
Mg6 Zn41 2.922638 1_555
Mg6 Zn32 2.953825 1_555
Mg6 Zn23 2.953834 1_655
Mg6 Zn27 3.125095 1_555
Mg6 Zn20 3.125095 1_555
Mg6 Zn24 3.138750 1_545
Mg6 Zn36 3.167122 1_555
Mg6 Zn0 3.167128 1_655
Mg6 Zn60 3.289065 1_655
Mg6 Zn45 3.289065 1_555
Mg7 Zn59 2.917608 1_555
Mg7 Zn31 2.922627 1_556
Mg7 Zn16 2.922638 1_555
Mg7 Zn51 2.953825 1_555
Mg7 Zn43 2.953834 1_556
Mg7 Zn56 3.125095 1_555
Mg7 Zn17 3.125095 1_555
Mg7 Zn48 3.138750 1_455
Mg7 Zn28 3.167122 1_555
Mg7 Zn18 3.167128 1_556
Mg7 Mg9 3.287493 1_556
Mg7 Zn11 3.289065 1_556
Mg7 Zn44 3.289065 1_555
Mg8 Zn25 2.917608 1_555
Mg8 Zn56 2.922627 1_655
Mg8 Zn4 2.922632 1_555
Mg8 Zn35 2.953832 1_655
Mg8 Zn15 2.953834 1_555
Mg8 Zn37 3.125085 1_555
Mg8 Zn14 3.125091 1_555
Mg8 Zn9 3.138755 1_555
Mg8 Zn40 3.167121 1_555
Mg8 Zn12 3.167122 1_655
Mg8 Zn60 3.289065 1_655
Mg8 Zn45 3.289065 1_555
Mg9 Zn34 2.917608 1_555
Mg9 Zn19 2.922627 1_554
Mg9 Zn55 2.922632 1_555
Mg9 Zn51 2.953832 1_554
Mg9 Zn43 2.953834 1_555
Mg9 Zn41 3.125085 1_555
Mg9 Zn4 3.125091 1_555
Mg9 Zn58 3.138755 1_555
Mg9 Zn18 3.167121 1_555
Mg9 Zn28 3.167122 1_554
Mg9 Zn44 3.289065 1_554
Mg9 Zn11 3.289065 1_555
Mg10 Zn21 2.917608 1_555
Mg10 Zn50 2.922627 1_455
Mg10 Zn10 2.922632 1_555
Mg10 Zn32 2.953832 1_455
Mg10 Zn23 2.953834 1_555
Mg10 Zn39 3.125085 1_555
Mg10 Zn13 3.125091 1_555
Mg10 Zn18 3.138755 1_555
Mg10 Zn0 3.167121 1_555
Mg10 Zn36 3.167122 1_455
Mg10 Mg6 3.287493 1_455
Mg10 Zn45 3.289065 1_455
Mg10 Zn60 3.289065 1_555
Mg11 Zn22 2.917608 1_555
Mg11 Zn20 2.922627 1_565
Mg11 Zn39 2.922638 1_555
Mg11 Zn46 2.953825 1_555
Mg11 Zn1 2.953834 1_565
Mg11 Zn8 3.125095 1_555
Mg11 Zn31 3.125095 1_555
Mg11 Zn12 3.138750 1_554
Mg11 Zn26 3.167122 1_555
Mg11 Zn58 3.167128 1_565
Mg11 Zn30 3.289065 1_565
Mg11 Zn54 3.289065 1_555
Zn0 Zn23 2.495724 1_555
Zn0 Zn42 2.584637 1_555
Zn0 Zn18 2.698476 1_555
Zn0 Zn58 2.698476 1_555
Zn0 Zn24 2.698494 1_445
Zn0 Zn26 2.698494 1_545
Zn0 Zn36 2.796463 1_455
Zn1 Zn58 2.495724 1_555
Zn1 Zn20 2.590567 1_555
Zn1 Zn14 2.590569 1_555
Zn1 Zn41 2.690403 1_555
Zn1 Zn4 2.690410 1_555
Zn1 Zn30 2.863365 1_555
Zn1 Zn25 3.021867 1_555
Zn2 Zn33 2.590567 1_555
Zn2 Zn32 2.690422 1_556
Zn2 Zn37 2.724476 1_555
Zn2 Zn50 2.724476 1_556
Zn2 Zn44 2.905634 1_555
Zn2 Zn57 2.949248 1_555
Zn2 Zn34 3.006562 1_556
Zn3 Zn49 2.590567 1_555
Zn3 Zn8 2.590569 1_555
Zn4 Zn41 2.619805 1_555
Zn4 Zn55 2.724464 1_555
Zn4 Zn45 2.905645 1_555
Zn5 Zn8 2.724476 1_556
Zn5 Zn52 2.724476 1_555
Zn5 Zn60 2.905639 1_555
Zn5 Zn59 2.949246 1_555
Zn10 Zn23 2.590569 1_555
Zn10 Zn5 2.619805 1_555
Zn10 Zn38 2.690410 1_555
Zn10 Zn13 2.724464 1_555
Zn10 Zn7 2.724464 1_555
Zn10 Zn60 2.905645 1_555
Zn10 Zn59 2.949253 1_555
Zn10 Zn21 3.006569 1_555
Zn11 Zn44 2.538635 1_554
Zn11 Zn22 2.712427 1_555
Zn11 Zn3 2.863356 1_555
Zn11 Zn43 2.863365 1_555
Zn11 Zn8 2.905634 1_555
Zn11 Zn31 2.905634 1_555
Zn11 Zn49 2.905639 1_555
Zn11 Zn55 2.905645 1_555
Zn12 Zn35 2.495718 1_555
Zn12 Zn42 2.584646 1_566
Zn12 Zn28 2.698494 1_565
Zn12 Zn26 2.698494 1_556
Zn12 Zn9 2.698494 1_455
Zn12 Zn58 2.698494 1_566
Zn12 Zn40 2.796463 1_455
Zn13 Zn38 2.590569 1_555
Zn13 Zn39 2.619805 1_555
Zn13 Zn43 2.690410 1_555
Zn13 Zn55 2.724464 1_555
Zn13 Zn54 2.905645 1_555
Zn13 Zn21 2.949253 1_555
Zn13 Zn22 3.006569 1_555
Zn14 Zn37 2.619805 1_555
Zn14 Zn33 2.690410 1_555
Zn14 Zn7 2.724464 1_555
Zn14 Zn4 2.724464 1_555
Zn14 Zn30 2.905645 1_555
Zn14 Zn25 2.949253 1_555
Zn14 Zn57 3.006569 1_555
Zn15 Zn40 2.495724 1_555
Zn15 Zn53 2.590567 1_555
Zn15 Zn4 2.590569 1_555
Zn15 Zn49 2.690403 1_555
Zn15 Zn55 2.690410 1_555
Zn15 Zn45 2.863365 1_555
Zn15 Zn34 3.021867 1_555
Zn16 Zn51 2.590567 1_555
Zn16 Zn7 2.619805 1_555
Zn16 Zn23 2.690403 1_555
Zn16 Zn17 2.724476 1_555
Zn16 Zn6 2.724476 1_545
Zn16 Zn44 2.905639 1_555
Zn16 Zn57 2.949246 1_555
Zn16 Zn59 3.006563 1_555
Zn17 Zn23 2.590567 1_555
Zn17 Zn56 2.619805 1_555
Zn17 Zn29 2.690422 1_455
Zn17 Zn27 2.724476 1_455
Zn17 Zn60 2.905634 1_555
Zn17 Zn59 2.949248 1_555
Zn17 Zn25 3.006562 1_455
Zn18 Zn43 2.495724 1_555
Zn18 Zn42 2.584637 1_555
Zn18 Zn58 2.698476 1_555
Zn18 Zn48 2.698494 1_454
Zn18 Zn36 2.698494 1_455
Zn18 Zn28 2.796463 1_554
Zn19 Zn51 2.590569 1_555
Zn19 Zn2 2.619805 1_555
Zn19 Zn32 2.690416 1_556
Zn19 Zn41 2.724476 1_556
Zn19 Zn52 2.724476 1_545
Zn19 Zn44 2.905634 1_555
Zn19 Zn57 2.949248 1_555
Zn19 Zn34 3.006562 1_556
Zn20 Zn27 2.619805 1_555
Zn20 Zn3 2.690422 1_545
Zn20 Zn41 2.724476 1_555
Zn20 Zn8 2.724476 1_545
Zn20 Zn30 2.905634 1_555
Zn20 Zn25 2.949248 1_555
Zn20 Zn22 3.006562 1_545
Zn21 Zn54 2.712427 1_555
Zn21 Zn39 2.949246 1_555
Zn21 Zn52 2.949248 1_555
Zn21 Zn6 2.949248 1_555
Zn21 Zn53 3.006562 1_455
Zn21 Zn50 3.006562 1_455
Zn21 Zn5 3.006563 1_555
Zn21 Zn46 3.021865 1_555
Zn21 Zn38 3.021867 1_555
Zn22 Zn49 2.949246 1_555
Zn22 Zn31 2.949248 1_555
Zn22 Zn8 2.949248 1_555
Zn22 Zn55 2.949253 1_555
Zn22 Zn27 3.006562 1_565
Zn22 Zn39 3.006563 1_555
Zn22 Zn3 3.021865 1_555
Zn22 Zn43 3.021867 1_555
Zn23 Zn7 2.690410 1_555
Zn23 Zn60 2.863365 1_555
Zn23 Zn59 3.021867 1_555
Zn24 Zn3 2.495718 1_555
Zn24 Zn42 2.584646 1_665
Zn24 Zn26 2.698494 1_655
Zn24 Zn36 2.698494 1_565
Zn24 Zn47 2.698494 1_554
Zn24 Zn9 2.796463 1_554
Zn25 Zn30 2.712427 1_555
Zn25 Zn37 2.949246 1_555
Zn25 Zn27 2.949248 1_555
Zn25 Zn56 3.006562 1_655
Zn25 Zn41 3.006563 1_555
Zn25 Zn4 3.006569 1_555
Zn25 Zn29 3.021865 1_555
Zn26 Zn46 2.495718 1_555
Zn26 Zn42 2.584646 1_565
Zn26 Zn9 2.698494 1_454
Zn26 Zn58 2.796463 1_565
Zn27 Zn29 2.590569 1_555
Zn27 Zn3 2.690416 1_545
Zn27 Zn49 2.724476 1_545
Zn27 Zn30 2.905634 1_555
Zn28 Zn51 2.495718 1_555
Zn28 Zn42 2.584646 1_556
Zn28 Zn48 2.698494 1_455
Zn28 Zn40 2.698494 1_445
Zn28 Zn58 2.698494 1_556
Zn29 Zn48 2.495718 1_555
Zn29 Zn37 2.590567 1_555
Zn29 Zn56 2.690416 1_655
Zn29 Zn30 2.863356 1_555
Zn30 Zn54 2.538635 1_545
Zn30 Zn37 2.905639 1_555
Zn31 Zn43 2.590567 1_555
Zn31 Zn8 2.619805 1_555
Zn31 Zn35 2.690422 1_554
Zn31 Zn39 2.724476 1_555
Zn31 Zn56 2.724476 1_554
Zn31 Zn59 3.006562 1_554
Zn32 Zn36 2.495718 1_555
Zn32 Zn41 2.590567 1_555
Zn32 Zn50 2.590569 1_555
Zn32 Zn45 2.863356 1_555
Zn32 Zn34 3.021865 1_555
Zn33 Zn9 2.495724 1_555
Zn33 Zn7 2.590569 1_555
Zn33 Zn37 2.690403 1_555
Zn33 Zn44 2.863365 1_555
Zn33 Zn57 3.021867 1_555
Zn34 Zn45 2.712427 1_555
Zn34 Zn41 2.949246 1_555
Zn34 Zn53 2.949248 1_555
Zn34 Zn50 2.949248 1_555
Zn34 Zn4 2.949253 1_555
Zn34 Zn49 3.006563 1_555
Zn34 Zn55 3.006569 1_555
Zn35 Zn5 2.590567 1_555
Zn35 Zn56 2.590569 1_555
Zn35 Zn8 2.690416 1_556
Zn35 Zn60 2.863356 1_555
Zn35 Zn59 3.021865 1_555
Zn36 Zn42 2.584646 1_655
Zn36 Zn48 2.698494 1_554
Zn36 Zn47 2.698494 1_544
Zn37 Zn56 2.724476 1_655
Zn37 Zn57 3.006563 1_555
Zn38 Zn47 2.495724 1_555
Zn38 Zn52 2.590567 1_555
Zn38 Zn5 2.690403 1_555
Zn38 Zn54 2.863365 1_555
Zn39 Zn46 2.590567 1_555
Zn39 Zn43 2.690403 1_555
Zn39 Zn50 2.724476 1_455
Zn39 Zn54 2.905639 1_555
Zn40 Zn42 2.584637 1_666
Zn40 Zn9 2.698476 1_555
Zn40 Zn47 2.698476 1_555
Zn40 Zn48 2.698494 1_565
Zn41 Zn45 2.905639 1_555
Zn42 Zn58 2.584637 1_555
Zn42 Zn47 2.584637 1_444
Zn42 Zn9 2.584637 1_444
Zn42 Zn48 2.584646 1_454
Zn43 Zn55 2.590569 1_555
Zn44 Zn57 2.712427 1_555
Zn44 Zn51 2.863356 1_555
Zn44 Zn7 2.905645 1_555
Zn45 Zn60 2.538635 1_655
Zn45 Zn53 2.905634 1_555
Zn45 Zn50 2.905634 1_555
Zn46 Zn6 2.590569 1_555
Zn46 Zn50 2.690416 1_455
Zn46 Zn53 2.690422 1_455
Zn46 Zn54 2.863356 1_555
Zn47 Zn9 2.698476 1_555
Zn47 Zn48 2.796463 1_565
Zn49 Zn55 2.619805 1_555
Zn49 Zn53 2.724476 1_555
Zn50 Zn53 2.619805 1_555
Zn51 Zn6 2.690416 1_545
Zn51 Zn52 2.690422 1_545
Zn51 Zn57 3.021865 1_555
Zn52 Zn6 2.619805 1_555
Zn52 Zn54 2.905634 1_555
Zn52 Zn57 3.006562 1_565
Zn53 Zn6 2.724476 1_655
Zn54 Zn6 2.905634 1_555
Zn56 Zn60 2.905634 1_555
Zn56 Zn59 2.949248 1_555
Zn57 Zn7 2.949253 1_555
Zn57 Zn6 3.006562 1_545
Zn59 Zn60 2.712427 1_555
Zn59 Zn8 3.006562 1_556
Zn59 Zn7 3.006569 1_555
