# generated using pymatgen
data_Na3Fe2(PO4)3
_symmetry_space_group_name_H-M   'P 1'
_cell_length_a   8.84698128
_cell_length_b   8.84698128
_cell_length_c   8.90897937
_cell_angle_alpha   59.75687650
_cell_angle_beta   59.75687650
_cell_angle_gamma   60.15068847
_symmetry_Int_Tables_number   1
_chemical_formula_structural   Na3Fe2(PO4)3
_chemical_formula_sum   'Na6 Fe4 P6 O24'
_cell_volume   491.79699861
_cell_formula_units_Z   2
loop_
 _symmetry_equiv_pos_site_id
 _symmetry_equiv_pos_as_xyz
  1  'x, y, z'
loop_
 _atom_site_type_symbol
 _atom_site_label
 _atom_site_symmetry_multiplicity
 _atom_site_fract_x
 _atom_site_fract_y
 _atom_site_fract_z
 _atom_site_occupancy
  Na  Na0  1  0.24840200  0.10902000  0.38398700  1
  Na  Na1  1  0.75159800  0.89098000  0.61601300  1
  Na  Na2  1  0.10902000  0.24840200  0.88398700  1
  Na  Na3  1  0.89098000  0.75159800  0.11601300  1
  Na  Na4  1  0.00000000  0.50000000  0.50000000  1
  Na  Na5  1  0.50000000  0.00000000  0.00000000  1
  Fe  Fe0  1  0.64220700  0.15335500  0.14646700  1
  Fe  Fe1  1  0.84664500  0.35779300  0.35353300  1
  Fe  Fe2  1  0.35779300  0.84664500  0.85353300  1
  Fe  Fe3  1  0.15335500  0.64220700  0.64646700  1
  P  P0  1  0.25259500  0.45016200  0.03660100  1
  P  P1  1  0.54983800  0.74740500  0.46339900  1
  P  P2  1  0.04414200  0.95585800  0.25000000  1
  P  P3  1  0.74740500  0.54983800  0.96339900  1
  P  P4  1  0.45016200  0.25259500  0.53660100  1
  P  P5  1  0.95585800  0.04414200  0.75000000  1
  O  O0  1  0.56438200  0.91310700  0.27620200  1
  O  O1  1  0.37491100  0.70981800  0.51407800  1
  O  O2  1  0.41648100  0.26839000  0.06727500  1
  O  O3  1  0.08689300  0.43561800  0.22379800  1
  O  O4  1  0.06172900  0.77934400  0.42191500  1
  O  O5  1  0.93827100  0.22065600  0.57808500  1
  O  O6  1  0.20164900  0.46785600  0.88474400  1
  O  O7  1  0.62508900  0.29018200  0.48592200  1
  O  O8  1  0.73161000  0.58351900  0.43272500  1
  O  O9  1  0.12685700  0.01533800  0.78241900  1
  O  O10  1  0.43561800  0.08689300  0.72379800  1
  O  O11  1  0.77934400  0.06172900  0.92191500  1
  O  O12  1  0.29018200  0.62508900  0.98592200  1
  O  O13  1  0.46785600  0.20164900  0.38474400  1
  O  O14  1  0.58351900  0.73161000  0.93272500  1
  O  O15  1  0.98466200  0.87314300  0.71758100  1
  O  O16  1  0.87314300  0.98466200  0.21758100  1
  O  O17  1  0.79835100  0.53214400  0.11525600  1
  O  O18  1  0.91310700  0.56438200  0.77620200  1
  O  O19  1  0.22065600  0.93827100  0.07808500  1
  O  O20  1  0.26839000  0.41648100  0.56727500  1
  O  O21  1  0.70981800  0.37491100  0.01407800  1
  O  O22  1  0.53214400  0.79835100  0.61525600  1
  O  O23  1  0.01533800  0.12685700  0.28241900  1
loop_
_geom_bond_atom_site_label_1
_geom_bond_atom_site_label_2
_geom_bond_distance
_geom_bond_site_symmetry_2
Na0 O5 2.395254 1_455
Na0 O0 2.426979 1_545
Na0 O2 2.452240 1_555
Na0 O13 2.458371 1_555
Na0 O3 2.493508 1_555
Na0 O23 2.550861 1_555
Na0 O1 2.884039 1_545
Na0 O9 2.919193 1_555
Na1 O4 2.395254 1_655
Na1 O10 2.426979 1_565
Na1 O14 2.452240 1_555
Na1 O22 2.458371 1_555
Na1 O18 2.493508 1_555
Na1 O15 2.550861 1_555
Na1 O7 2.884039 1_565
Na1 O16 2.919193 1_555
Na2 O19 2.395254 1_546
Na2 O18 2.426979 1_455
Na2 O20 2.452240 1_555
Na2 O6 2.458371 1_555
Na2 O10 2.493508 1_555
Na2 O9 2.550861 1_555
Na2 O21 2.884039 1_456
Na2 O23 2.919193 1_556
Na3 O11 2.395254 1_564
Na3 O3 2.426979 1_655
Na3 O8 2.452240 1_555
Na3 O17 2.458371 1_555
Na3 O0 2.493508 1_555
Na3 O16 2.550861 1_555
Na3 O12 2.884039 1_654
Na3 O15 2.919193 1_554
Na4 O20 2.405029 1_555
Na4 O8 2.405029 1_455
Na4 O3 2.457805 1_555
Na4 O18 2.457805 1_455
Na4 O4 2.473604 1_555
Na4 O5 2.473604 1_455
Na5 O2 2.405029 1_555
Na5 O14 2.405029 1_544
Na5 O10 2.457805 1_554
Na5 O0 2.457805 1_545
Na5 O11 2.473604 1_554
Na5 O19 2.473604 1_545
Fe0 O21 1.928342 1_555
Fe0 O13 2.006809 1_555
Fe0 O16 2.029558 1_545
Fe0 O2 2.048012 1_555
Fe0 O11 2.083457 1_554
Fe0 O0 2.123209 1_545
Fe1 O7 1.928342 1_555
Fe1 O17 2.006809 1_555
Fe1 O23 2.029558 1_655
Fe1 O8 2.048012 1_555
Fe1 O5 2.083457 1_555
Fe1 O3 2.123209 1_655
Fe2 O12 1.928342 1_555
Fe2 O22 2.006809 1_555
Fe2 O9 2.029558 1_565
Fe2 O14 2.048012 1_555
Fe2 O19 2.083457 1_556
Fe2 O10 2.123209 1_565
Fe3 O1 1.928342 1_555
Fe3 O6 2.006809 1_555
Fe3 O15 2.029558 1_455
Fe3 O20 2.048012 1_555
Fe3 O4 2.083457 1_555
Fe3 O18 2.123209 1_455
O0 P1 1.567086 1_555
O1 P1 1.538374 1_555
O2 P0 1.548682 1_555
O3 P0 1.567086 1_555
O4 P2 1.548383 1_555
O5 P5 1.548383 1_555
O6 P0 1.545525 1_556
O7 P4 1.538374 1_555
O8 P1 1.548682 1_555
O9 P5 1.555391 1_455
O10 P4 1.567086 1_555
O11 P5 1.548383 1_555
O12 P0 1.538374 1_556
O13 P4 1.545525 1_555
O14 P3 1.548682 1_555
O15 P5 1.555391 1_565
O16 P2 1.555391 1_655
O17 P3 1.545525 1_554
O18 P3 1.567086 1_555
O19 P2 1.548383 1_555
O20 P4 1.548682 1_555
O21 P3 1.538374 1_554
O22 P1 1.545525 1_555
O23 P2 1.555391 1_545
