# generated using pymatgen
data_NaLi2N
_symmetry_space_group_name_H-M   'P 1'
_cell_length_a   3.65834104
_cell_length_b   3.65834104
_cell_length_c   4.76141600
_cell_angle_alpha   90.00000000
_cell_angle_beta   90.00000000
_cell_angle_gamma   119.99998265
_symmetry_Int_Tables_number   1
_chemical_formula_structural   NaLi2N
_chemical_formula_sum   'Na1 Li2 N1'
_cell_volume   55.18680008
_cell_formula_units_Z   1
loop_
 _symmetry_equiv_pos_site_id
 _symmetry_equiv_pos_as_xyz
  1  'x, y, z'
loop_
 _atom_site_type_symbol
 _atom_site_label
 _atom_site_symmetry_multiplicity
 _atom_site_fract_x
 _atom_site_fract_y
 _atom_site_fract_z
 _atom_site_occupancy
  Na  Na0  1  0.00000000  0.00000000  0.50000000  1
  Li  Li0  1  0.33333300  0.66666700  0.00000000  1
  Li  Li1  1  0.66666700  0.33333300  0.00000000  1
  N  N0  1  0.00000000  0.00000000  0.00000000  1
loop_
_geom_bond_atom_site_label_1
_geom_bond_atom_site_label_2
_geom_bond_distance
_geom_bond_site_symmetry_2
Li0 N0 2.112142 1_565
Li0 N0 2.112146 1_665
Li0 N0 2.112146 1_555
Li1 N0 2.112142 1_655
Li1 N0 2.112146 1_665
Li1 N0 2.112146 1_555
N0 Na0 2.380708 1_555
N0 Na0 2.380708 1_554
