# generated using pymatgen
data_LaGeI
_symmetry_space_group_name_H-M   'P 1'
_cell_length_a   4.40554940
_cell_length_b   4.40555095
_cell_length_c   11.92073994
_cell_angle_alpha   90.00000000
_cell_angle_beta   90.00000000
_cell_angle_gamma   120.00000398
_symmetry_Int_Tables_number   1
_chemical_formula_structural   LaGeI
_chemical_formula_sum   'La2 Ge2 I2'
_cell_volume   200.37066117
_cell_formula_units_Z   2
loop_
 _symmetry_equiv_pos_site_id
 _symmetry_equiv_pos_as_xyz
  1  'x, y, z'
loop_
 _atom_site_type_symbol
 _atom_site_label
 _atom_site_symmetry_multiplicity
 _atom_site_fract_x
 _atom_site_fract_y
 _atom_site_fract_z
 _atom_site_occupancy
  La  La0  1  -0.00000000  -0.00000000  0.17202414  1
  La  La1  1  0.00000000  0.00000000  0.82797586  1
  Ge  Ge0  1  0.33333300  0.66666700  0.99076891  1
  Ge  Ge1  1  0.66666700  0.33333300  0.00923109  1
  I  I0  1  0.66666700  0.33333300  0.65036090  1
  I  I1  1  0.33333300  0.66666700  0.34963910  1
loop_
_geom_bond_atom_site_label_1
_geom_bond_atom_site_label_2
_geom_bond_distance
_geom_bond_site_symmetry_2
Ge0 Ge1 2.553046 1_456
Ge0 Ge1 2.553047 1_566
Ge0 Ge1 2.553054 1_556
Ge0 La1 3.199311 1_565
Ge0 La1 3.199314 1_665
Ge0 La1 3.199315 1_555
Ge0 La0 3.337397 1_566
Ge0 La0 3.337400 1_666
Ge0 La0 3.337400 1_556
Ge1 La0 3.199311 1_655
Ge1 La0 3.199314 1_555
Ge1 La0 3.199315 1_665
Ge1 La1 3.337397 1_654
Ge1 La1 3.337400 1_554
Ge1 La1 3.337400 1_664
I0 La1 3.309468 1_655
I0 La1 3.309470 1_555
I0 La1 3.309471 1_665
I1 La0 3.309468 1_565
I1 La0 3.309470 1_665
I1 La0 3.309471 1_555
