# generated using pymatgen
data_Li14Ti21O48
_symmetry_space_group_name_H-M   'P 1'
_cell_length_a   5.97534046
_cell_length_b   5.97534046
_cell_length_c   29.23675208
_cell_angle_alpha   89.94185270
_cell_angle_beta   89.94185270
_cell_angle_gamma   60.01494276
_symmetry_Int_Tables_number   1
_chemical_formula_structural   Li14Ti21O48
_chemical_formula_sum   'Li14 Ti21 O48'
_cell_volume   904.17010339
_cell_formula_units_Z   1
loop_
 _symmetry_equiv_pos_site_id
 _symmetry_equiv_pos_as_xyz
  1  'x, y, z'
loop_
 _atom_site_type_symbol
 _atom_site_label
 _atom_site_symmetry_multiplicity
 _atom_site_fract_x
 _atom_site_fract_y
 _atom_site_fract_z
 _atom_site_occupancy
  Li  Li0  1  0.66625900  0.66625900  0.16514400  1
  Li  Li1  1  0.66720200  0.66720200  0.04251800  1
  Li  Li2  1  0.33317600  0.33317600  0.33216300  1
  Li  Li3  1  0.33355900  0.33355900  0.20904200  1
  Li  Li4  1  0.00006900  0.00006900  0.18718800  1
  Li  Li5  1  0.00013300  0.00013300  0.37614900  1
  Li  Li6  1  0.99975800  0.99975800  0.49880300  1
  Li  Li7  1  0.66298400  0.66298400  0.66770200  1
  Li  Li8  1  0.66821600  0.66821600  0.54375300  1
  Li  Li9  1  0.33568700  0.33568700  0.70922900  1
  Li  Li10  1  0.33224300  0.33224300  0.52144900  1
  Li  Li11  1  0.33126500  0.33126500  0.83221300  1
  Li  Li12  1  0.00289500  0.00289500  0.87368200  1
  Li  Li13  1  0.83349900  0.83349900  0.77063200  1
  Ti  Ti0  1  0.16192100  0.67517800  0.10615300  1
  Ti  Ti1  1  0.67517800  0.16192100  0.10615300  1
  Ti  Ti2  1  0.33571700  0.33571700  0.02126900  1
  Ti  Ti3  1  0.16264900  0.16264900  0.10599300  1
  Ti  Ti4  1  0.83680500  0.32639500  0.26872100  1
  Ti  Ti5  1  0.32639500  0.83680500  0.26872100  1
  Ti  Ti6  1  0.49646400  0.00705500  0.43958400  1
  Ti  Ti7  1  0.83677900  0.83677900  0.26870300  1
  Ti  Ti8  1  0.00705500  0.49646400  0.43958400  1
  Ti  Ti9  1  0.66666800  0.66666800  0.35419100  1
  Ti  Ti10  1  0.17108600  0.66096200  0.60148900  1
  Ti  Ti11  1  0.49648900  0.49648900  0.43962800  1
  Ti  Ti12  1  0.66096200  0.17108600  0.60148900  1
  Ti  Ti13  1  0.16870500  0.16870500  0.60367700  1
  Ti  Ti14  1  0.83356500  0.33237800  0.77032700  1
  Ti  Ti15  1  0.33237800  0.83356500  0.77032700  1
  Ti  Ti16  1  0.98727000  0.98727000  0.68984000  1
  Ti  Ti17  1  0.49658700  0.00073900  0.93860200  1
  Ti  Ti18  1  0.00073900  0.49658700  0.93860200  1
  Ti  Ti19  1  0.67852600  0.67852600  0.85015100  1
  Ti  Ti20  1  0.49995300  0.49995300  0.93698500  1
  O  O0  1  0.48100500  0.48100500  0.06468900  1
  O  O1  1  0.03915400  0.48070100  0.06479300  1
  O  O2  1  0.33327800  0.33327800  0.14031200  1
  O  O3  1  0.48070100  0.03915400  0.06479300  1
  O  O4  1  0.15468800  0.15468800  0.23513800  1
  O  O5  1  0.84448000  0.31052900  0.14008600  1
  O  O6  1  0.31052900  0.84448000  0.14008600  1
  O  O7  1  0.99997700  0.99997700  0.30628900  1
  O  O8  1  0.69107900  0.15466200  0.23509300  1
  O  O9  1  0.99995700  0.99995700  0.07082800  1
  O  O10  1  0.15466200  0.69107900  0.23509300  1
  O  O11  1  0.84443200  0.84443200  0.14017300  1
  O  O12  1  0.81411600  0.81411600  0.39774700  1
  O  O13  1  0.51928000  0.96148500  0.31055200  1
  O  O14  1  0.96148500  0.51928000  0.31055200  1
  O  O15  1  0.66659900  0.66659900  0.47359200  1
  O  O16  1  0.66670300  0.66670300  0.23486000  1
  O  O17  1  0.37185200  0.81405200  0.39777800  1
  O  O18  1  0.51919400  0.51919400  0.31058000  1
  O  O19  1  0.81405200  0.37185100  0.39777800  1
  O  O20  1  0.48820600  0.48820600  0.56809100  1
  O  O21  1  0.17853700  0.64242400  0.47324600  1
  O  O22  1  0.64242400  0.17853700  0.47324600  1
  O  O23  1  0.33335100  0.33335100  0.40206400  1
  O  O24  1  0.02517800  0.48874900  0.56869500  1
  O  O25  1  0.33426900  0.33426900  0.63923100  1
  O  O26  1  0.48874900  0.02517800  0.56869500  1
  O  O27  1  0.17850000  0.17850000  0.47321500  1
  O  O28  1  0.15061600  0.15061600  0.73028000  1
  O  O29  1  0.85340900  0.29312500  0.64201700  1
  O  O30  1  0.29312500  0.85340900  0.64201700  1
  O  O31  1  0.01195400  0.01195400  0.80521300  1
  O  O32  1  0.70353100  0.16430600  0.72827000  1
  O  O33  1  0.99933100  0.99933100  0.56738000  1
  O  O34  1  0.16430600  0.70353100  0.72827000  1
  O  O35  1  0.85081200  0.85081200  0.64333400  1
  O  O36  1  0.50350400  0.96385700  0.81302900  1
  O  O37  1  0.81636300  0.81636300  0.89835100  1
  O  O38  1  0.96385700  0.50350400  0.81302900  1
  O  O39  1  0.66697800  0.66697800  0.97327300  1
  O  O40  1  0.65496000  0.65496000  0.73624200  1
  O  O41  1  0.36885000  0.81549700  0.89956700  1
  O  O42  1  0.81549700  0.36885000  0.89956700  1
  O  O43  1  0.51690600  0.51690600  0.81144400  1
  O  O44  1  0.18765700  0.62306900  0.97651900  1
  O  O45  1  0.62306900  0.18765700  0.97651900  1
  O  O46  1  0.33284500  0.33284500  0.90196400  1
  O  O47  1  0.18715700  0.18715700  0.97656100  1
loop_
_geom_bond_atom_site_label_1
_geom_bond_atom_site_label_2
_geom_bond_distance
_geom_bond_site_symmetry_2
Li0 O6 1.981914 1_555
Li0 O5 1.981914 1_555
Li0 O11 1.982357 1_555
Li0 O16 2.038280 1_555
Li1 O39 2.024503 1_554
Li1 O0 2.032304 1_555
Li1 O3 2.032604 1_565
Li1 O1 2.032604 1_655
Li2 O18 2.025145 1_555
Li2 O14 2.025172 1_455
Li2 O13 2.025172 1_545
Li2 O23 2.043681 1_555
Li3 O4 2.001345 1_555
Li3 O8 2.001408 1_555
Li3 O10 2.001408 1_555
Li3 O2 2.009447 1_555
Li4 O6 2.115582 1_545
Li4 O5 2.115582 1_455
Li4 O11 2.118689 1_445
Li4 O8 2.125198 1_455
Li4 O10 2.125198 1_545
Li4 O4 2.128610 1_555
Li5 O12 2.025272 1_445
Li5 O19 2.025469 1_455
Li5 O17 2.025474 1_545
Li5 O7 2.042482 1_445
Li6 O27 1.994509 1_665
Li6 O21 1.995056 1_655
Li6 O22 1.995056 1_565
Li6 O33 2.004968 1_555
Li7 O40 2.005510 1_555
Li7 O29 2.056928 1_555
Li7 O30 2.056928 1_555
Li7 O35 2.069462 1_555
Li8 O24 1.986598 1_655
Li8 O26 1.986598 1_565
Li8 O20 1.993383 1_555
Li8 O15 2.051368 1_555
Li9 O34 1.985258 1_555
Li9 O32 1.985258 1_555
Li9 O28 2.011038 1_555
Li9 O25 2.046584 1_555
Li10 O26 2.105120 1_555
Li10 O24 2.105120 1_555
Li10 O20 2.114197 1_555
Li10 O27 2.127300 1_555
Li10 O22 2.135582 1_555
Li10 O21 2.135582 1_555
Li11 O38 1.984042 1_455
Li11 O36 1.984042 1_545
Li11 O43 2.014163 1_555
Li11 O46 2.039377 1_555
Li12 O31 2.003895 1_555
Li12 O41 2.040206 1_545
Li12 O42 2.040206 1_455
Li12 O37 2.059930 1_445
Li13 O40 2.104557 1_555
Li13 O31 2.106474 1_665
Li13 O38 2.119696 1_555
Li13 O36 2.119696 1_555
Li13 O32 2.122951 1_565
Li13 O34 2.122951 1_655
O0 Ti2 1.968931 1_555
O0 Ti0 2.058648 1_555
O0 Ti1 2.058648 1_555
O1 Ti2 1.993279 1_555
O1 Ti3 2.050038 1_555
O1 Ti0 2.051220 1_555
O2 Ti0 2.031397 1_555
O2 Ti1 2.031397 1_555
O2 Ti3 2.031993 1_555
O3 Ti2 1.993279 1_555
O3 Ti3 2.050038 1_555
O3 Ti1 2.051220 1_555
O4 Ti5 1.917019 1_545
O4 Ti4 1.917019 1_455
O5 Ti1 1.922994 1_555
O5 Ti3 1.925503 1_655
O6 Ti0 1.922994 1_555
O6 Ti3 1.925503 1_565
O7 Ti5 2.014525 1_655
O7 Ti4 2.014525 1_565
O7 Ti7 2.016015 1_555
O8 Ti4 1.916975 1_555
O8 Ti7 1.917423 1_545
O9 Ti0 1.972334 1_655
O9 Ti1 1.972334 1_565
O9 Ti3 1.973781 1_665
O10 Ti5 1.916975 1_555
O10 Ti7 1.917423 1_455
O11 Ti0 1.921347 1_655
O11 Ti1 1.921347 1_565
O12 Ti9 1.988618 1_555
O12 Ti8 2.058854 1_655
O12 Ti6 2.058854 1_565
O13 Ti9 1.988405 1_555
O13 Ti7 2.058059 1_555
O13 Ti5 2.059643 1_555
O14 Ti9 1.988405 1_555
O14 Ti7 2.058059 1_555
O14 Ti4 2.059643 1_555
O15 Ti11 2.022196 1_555
O15 Ti8 2.022718 1_655
O15 Ti6 2.022718 1_565
O16 Ti4 2.019943 1_555
O16 Ti5 2.019943 1_555
O16 Ti7 2.020151 1_555
O17 Ti9 1.987427 1_555
O17 Ti11 2.058400 1_555
O17 Ti6 2.059470 1_565
O18 Ti9 1.989856 1_555
O18 Ti5 2.058995 1_555
O18 Ti4 2.058995 1_555
O19 Ti9 1.987431 1_555
O19 Ti11 2.058399 1_555
O19 Ti8 2.059474 1_655
O20 Ti12 1.911232 1_555
O20 Ti10 1.911232 1_555
O21 Ti8 1.917353 1_555
O21 Ti11 1.917801 1_555
O22 Ti6 1.917353 1_555
O22 Ti11 1.917801 1_555
O23 Ti8 2.013231 1_555
O23 Ti6 2.013231 1_555
O23 Ti11 2.015143 1_555
O24 Ti10 1.907554 1_555
O24 Ti13 1.948635 1_555
O25 Ti13 2.005096 1_555
O25 Ti12 2.018492 1_555
O25 Ti10 2.018492 1_555
O26 Ti12 1.907554 1_555
O26 Ti13 1.948635 1_555
O27 Ti6 1.918025 1_555
O27 Ti8 1.918025 1_555
O28 Ti14 2.020142 1_455
O28 Ti15 2.020142 1_545
O28 Ti16 2.064020 1_445
O29 Ti13 1.988983 1_655
O29 Ti12 2.025050 1_555
O29 Ti16 2.114406 1_545
O30 Ti13 1.988983 1_565
O30 Ti10 2.025050 1_555
O30 Ti16 2.114406 1_455
O31 Ti15 1.949528 1_545
O31 Ti14 1.949528 1_455
O32 Ti16 1.860591 1_545
O32 Ti14 1.977038 1_555
O33 Ti12 2.014847 1_565
O33 Ti10 2.014847 1_655
O33 Ti13 2.050097 1_665
O34 Ti16 1.860591 1_455
O34 Ti15 1.977038 1_555
O35 Ti16 1.961502 1_555
O35 Ti10 2.067395 1_655
O35 Ti12 2.067395 1_565
O36 Ti19 1.842501 1_555
O36 Ti15 2.002664 1_555
O37 Ti19 2.006327 1_555
O37 Ti18 2.035581 1_655
O37 Ti17 2.035581 1_565
O38 Ti19 1.842501 1_555
O38 Ti14 2.002664 1_555
O39 Ti18 2.002474 1_655
O39 Ti17 2.002474 1_565
O39 Ti20 2.029199 1_555
O40 Ti15 1.946670 1_555
O40 Ti14 1.946670 1_555
O41 Ti20 1.971470 1_555
O41 Ti17 1.989735 1_565
O41 Ti19 2.159731 1_555
O42 Ti20 1.971470 1_555
O42 Ti18 1.989735 1_655
O42 Ti19 2.159731 1_555
O43 Ti19 2.020548 1_555
O43 Ti15 2.038086 1_555
O43 Ti14 2.038086 1_555
O44 Ti18 1.973711 1_555
O44 Ti2 1.980420 1_556
O44 Ti20 1.996142 1_555
O45 Ti17 1.973711 1_555
O45 Ti2 1.980420 1_556
O45 Ti20 1.996142 1_555
O46 Ti20 2.010781 1_555
O46 Ti17 2.024801 1_555
O46 Ti18 2.024801 1_555
O47 Ti17 1.957236 1_555
O47 Ti18 1.957236 1_555
O47 Ti2 2.019139 1_556
