# generated using pymatgen
data_LiUBO5
_symmetry_space_group_name_H-M   'P 1'
_cell_length_a   10.69218300
_cell_length_b   5.90077900
_cell_length_c   6.87387644
_cell_angle_alpha   75.05821537
_cell_angle_beta   90.00000000
_cell_angle_gamma   90.00000000
_symmetry_Int_Tables_number   1
_chemical_formula_structural   LiUBO5
_chemical_formula_sum   'Li4 U4 B4 O20'
_cell_volume   419.02431870
_cell_formula_units_Z   4
loop_
 _symmetry_equiv_pos_site_id
 _symmetry_equiv_pos_as_xyz
  1  'x, y, z'
loop_
 _atom_site_type_symbol
 _atom_site_label
 _atom_site_symmetry_multiplicity
 _atom_site_fract_x
 _atom_site_fract_y
 _atom_site_fract_z
 _atom_site_occupancy
  Li  Li0  1  0.27096900  0.44831500  0.12405200  1
  Li  Li1  1  0.77096900  0.55168500  0.37594800  1
  Li  Li2  1  0.22903100  0.44831500  0.62405200  1
  Li  Li3  1  0.72903100  0.55168500  0.87594800  1
  U  U0  1  0.93423300  0.09941300  0.72888400  1
  U  U1  1  0.06576700  0.90058700  0.27111600  1
  U  U2  1  0.56576700  0.09941300  0.22888400  1
  U  U3  1  0.43423300  0.90058700  0.77111600  1
  B  B0  1  0.35242600  0.78430200  0.29846400  1
  B  B1  1  0.64757400  0.21569800  0.70153600  1
  B  B2  1  0.85242600  0.21569800  0.20153600  1
  B  B3  1  0.14757400  0.78430200  0.79846400  1
  O  O0  1  0.91047400  0.13855700  0.38739000  1
  O  O1  1  0.17554700  0.14938900  0.21337400  1
  O  O2  1  0.25641800  0.65477600  0.82771900  1
  O  O3  1  0.08525200  0.85020900  0.95173300  1
  O  O4  1  0.41047400  0.86144300  0.11261000  1
  O  O5  1  0.74358200  0.34522400  0.17228100  1
  O  O6  1  0.94990600  0.66334400  0.32056400  1
  O  O7  1  0.41474800  0.85020900  0.45173300  1
  O  O8  1  0.91474800  0.14979100  0.04826700  1
  O  O9  1  0.08952600  0.86144300  0.61261000  1
  O  O10  1  0.58952600  0.13855700  0.88739000  1
  O  O11  1  0.32445300  0.14938900  0.71337400  1
  O  O12  1  0.58525200  0.14979100  0.54826700  1
  O  O13  1  0.75641800  0.34522400  0.67228100  1
  O  O14  1  0.24358200  0.65477600  0.32771900  1
  O  O15  1  0.67554700  0.85061100  0.28662600  1
  O  O16  1  0.44990600  0.33665600  0.17943600  1
  O  O17  1  0.55009400  0.66334400  0.82056400  1
  O  O18  1  0.05009400  0.33665600  0.67943600  1
  O  O19  1  0.82445300  0.85061100  0.78662600  1
loop_
_geom_bond_atom_site_label_1
_geom_bond_atom_site_label_2
_geom_bond_distance
_geom_bond_site_symmetry_2
Li0 O1 1.992681 1_555
Li0 O16 2.027348 1_555
Li0 O2 2.092347 1_554
Li0 O14 2.099863 1_555
Li1 O15 1.992681 1_555
Li1 O6 2.027348 1_555
Li1 O13 2.092347 1_555
Li1 O5 2.099863 1_555
Li2 O11 1.992681 1_555
Li2 O18 2.027348 1_555
Li2 O14 2.092347 1_555
Li2 O2 2.099863 1_555
Li3 O19 1.992681 1_555
Li3 O17 2.027348 1_555
Li3 O5 2.092347 1_556
Li3 O13 2.099863 1_555
B0 O14 1.378305 1_555
B0 O7 1.384391 1_555
B0 O4 1.387315 1_555
B1 O13 1.378305 1_555
B1 O12 1.384391 1_555
B1 O10 1.387315 1_555
B2 O5 1.378305 1_555
B2 O8 1.384391 1_555
B2 O0 1.387315 1_555
B3 O2 1.378305 1_555
B3 O3 1.384391 1_555
B3 O9 1.387315 1_555
O0 U0 2.312686 1_555
O0 U1 2.438515 1_645
O1 U1 1.841254 1_545
O2 U3 2.361974 1_555
O3 U1 2.299586 1_556
O3 U0 2.440210 1_465
O4 U3 2.312686 1_554
O4 U2 2.438515 1_565
O5 U2 2.361974 1_555
O6 U1 1.834277 1_655
O7 U3 2.299586 1_555
O7 U2 2.440210 1_565
O8 U0 2.299586 1_554
O8 U1 2.440210 1_645
O9 U1 2.312686 1_555
O9 U0 2.438515 1_465
O10 U2 2.312686 1_556
O10 U3 2.438515 1_545
O11 U3 1.841254 1_545
O12 U2 2.299586 1_555
O12 U3 2.440210 1_545
O13 U0 2.361974 1_555
O14 U1 2.361974 1_555
O15 U2 1.841254 1_565
O16 U2 1.834277 1_555
O17 U3 1.834277 1_555
O18 U0 1.834277 1_455
O19 U0 1.841254 1_565
