# generated using pymatgen
data_BaDy2MnO5
_symmetry_space_group_name_H-M   'P 1'
_cell_length_a   5.80415300
_cell_length_b   7.21398500
_cell_length_c   12.51656500
_cell_angle_alpha   90.00000000
_cell_angle_beta   90.00000000
_cell_angle_gamma   90.00000000
_symmetry_Int_Tables_number   1
_chemical_formula_structural   BaDy2MnO5
_chemical_formula_sum   'Ba4 Dy8 Mn4 O20'
_cell_volume   524.08200282
_cell_formula_units_Z   4
loop_
 _symmetry_equiv_pos_site_id
 _symmetry_equiv_pos_as_xyz
  1  'x, y, z'
loop_
 _atom_site_type_symbol
 _atom_site_label
 _atom_site_symmetry_multiplicity
 _atom_site_fract_x
 _atom_site_fract_y
 _atom_site_fract_z
 _atom_site_occupancy
  Ba  Ba0  1  0.25000000  0.91860400  0.89900300  1
  Ba  Ba1  1  0.75000000  0.08139600  0.10099700  1
  Ba  Ba2  1  0.75000000  0.41860400  0.60099700  1
  Ba  Ba3  1  0.25000000  0.58139600  0.39900300  1
  Dy  Dy0  1  0.25000000  0.12300900  0.29333000  1
  Dy  Dy1  1  0.75000000  0.87699100  0.70667000  1
  Dy  Dy2  1  0.75000000  0.62300900  0.20667000  1
  Dy  Dy3  1  0.25000000  0.37699100  0.79333000  1
  Dy  Dy4  1  0.25000000  0.40012400  0.07404600  1
  Dy  Dy5  1  0.75000000  0.59987600  0.92595400  1
  Dy  Dy6  1  0.75000000  0.90012400  0.42595400  1
  Dy  Dy7  1  0.25000000  0.09987600  0.57404600  1
  Mn  Mn0  1  0.25000000  0.69198300  0.65202600  1
  Mn  Mn1  1  0.75000000  0.30801700  0.34797400  1
  Mn  Mn2  1  0.75000000  0.19198300  0.84797400  1
  Mn  Mn3  1  0.25000000  0.80801700  0.15202600  1
  O  O0  1  0.00167600  0.16224800  0.43470700  1
  O  O1  1  0.50167600  0.83775200  0.56529300  1
  O  O2  1  0.99832400  0.66224800  0.06529300  1
  O  O3  1  0.49832400  0.33775200  0.93470700  1
  O  O4  1  0.99832400  0.83775200  0.56529300  1
  O  O5  1  0.49832400  0.16224800  0.43470700  1
  O  O6  1  0.00167600  0.33775200  0.93470700  1
  O  O7  1  0.50167600  0.66224800  0.06529300  1
  O  O8  1  0.49882200  0.36169000  0.22409400  1
  O  O9  1  0.99882200  0.63831000  0.77590600  1
  O  O10  1  0.50117800  0.86169000  0.27590600  1
  O  O11  1  0.00117800  0.13831000  0.72409400  1
  O  O12  1  0.50117800  0.63831000  0.77590600  1
  O  O13  1  0.00117800  0.36169000  0.22409400  1
  O  O14  1  0.49882200  0.13831000  0.72409400  1
  O  O15  1  0.99882200  0.86169000  0.27590600  1
  O  O16  1  0.25000000  0.07933800  0.10101100  1
  O  O17  1  0.75000000  0.92066200  0.89898900  1
  O  O18  1  0.75000000  0.57933800  0.39898900  1
  O  O19  1  0.25000000  0.42066200  0.60101100  1
loop_
_geom_bond_atom_site_label_1
_geom_bond_atom_site_label_2
_geom_bond_distance
_geom_bond_site_symmetry_2
Ba0 O16 2.781646 1_566
Ba0 O17 2.902114 1_455
Ba0 O17 2.902114 1_555
Ba0 O9 2.930520 1_455
Ba0 O12 2.930520 1_555
Ba0 O14 3.064418 1_565
Ba0 O11 3.064418 1_565
Ba0 O7 3.144212 1_556
Ba0 O2 3.144212 1_456
Ba0 O6 3.379351 1_565
Ba0 O3 3.379351 1_565
Ba1 O17 2.781646 1_544
Ba1 O16 2.902114 1_555
Ba1 O16 2.902114 1_655
Ba1 O13 2.930520 1_655
Ba1 O8 2.930520 1_555
Ba1 O10 3.064418 1_545
Ba1 O15 3.064418 1_545
Ba1 O6 3.144212 1_654
Ba1 O3 3.144212 1_554
Ba1 O7 3.379351 1_545
Ba1 O2 3.379351 1_545
Ba2 O18 2.781646 1_555
Ba2 O19 2.902114 1_555
Ba2 O19 2.902114 1_655
Ba2 O11 2.930520 1_655
Ba2 O14 2.930520 1_555
Ba2 O9 3.064418 1_555
Ba2 O12 3.064418 1_555
Ba2 O5 3.144212 1_555
Ba2 O0 3.144212 1_655
Ba2 O1 3.379351 1_555
Ba2 O4 3.379351 1_555
Ba3 O19 2.781646 1_555
Ba3 O18 2.902114 1_555
Ba3 O18 2.902114 1_455
Ba3 O10 2.930520 1_555
Ba3 O15 2.930520 1_455
Ba3 O8 3.064418 1_555
Ba3 O13 3.064418 1_555
Ba3 O1 3.144212 1_555
Ba3 O4 3.144212 1_455
Ba3 O0 3.379351 1_555
Ba3 O5 3.379351 1_555
Dy0 O0 2.299745 1_555
Dy0 O5 2.299745 1_555
Dy0 O15 2.393065 1_445
Dy0 O10 2.393065 1_545
Dy0 O8 2.408619 1_555
Dy0 O13 2.408619 1_555
Dy0 O16 2.427701 1_555
Dy1 O1 2.299745 1_555
Dy1 O4 2.299745 1_555
Dy1 O11 2.393065 1_665
Dy1 O14 2.393065 1_565
Dy1 O12 2.408619 1_555
Dy1 O9 2.408619 1_555
Dy1 O17 2.427701 1_555
Dy2 O7 2.299745 1_555
Dy2 O2 2.299745 1_555
Dy2 O13 2.393065 1_655
Dy2 O8 2.393065 1_555
Dy2 O15 2.408619 1_555
Dy2 O10 2.408619 1_555
Dy2 O18 2.427701 1_555
Dy3 O6 2.299745 1_555
Dy3 O3 2.299745 1_555
Dy3 O9 2.393065 1_455
Dy3 O12 2.393065 1_555
Dy3 O14 2.408619 1_555
Dy3 O11 2.408619 1_555
Dy3 O19 2.427701 1_555
Dy4 O3 2.306843 1_554
Dy4 O6 2.306843 1_554
Dy4 O16 2.338628 1_555
Dy4 O8 2.385329 1_555
Dy4 O13 2.385329 1_555
Dy4 O7 2.391979 1_555
Dy4 O2 2.391979 1_455
Dy5 O7 2.306843 1_556
Dy5 O2 2.306843 1_556
Dy5 O17 2.338628 1_555
Dy5 O9 2.385329 1_555
Dy5 O12 2.385329 1_555
Dy5 O3 2.391979 1_555
Dy5 O6 2.391979 1_655
Dy6 O4 2.306843 1_555
Dy6 O1 2.306843 1_555
Dy6 O18 2.338628 1_555
Dy6 O10 2.385329 1_555
Dy6 O15 2.385329 1_555
Dy6 O0 2.391979 1_665
Dy6 O5 2.391979 1_565
Dy7 O5 2.306843 1_555
Dy7 O0 2.306843 1_555
Dy7 O19 2.338628 1_555
Dy7 O11 2.385329 1_555
Dy7 O14 2.385329 1_555
Dy7 O4 2.391979 1_445
Dy7 O1 2.391979 1_545
Mn0 O19 2.058827 1_555
Mn0 O4 2.101945 1_455
Mn0 O1 2.101945 1_555
Mn0 O12 2.163223 1_555
Mn0 O9 2.163223 1_455
Mn1 O18 2.058827 1_555
Mn1 O0 2.101945 1_655
Mn1 O5 2.101945 1_555
Mn1 O13 2.163223 1_655
Mn1 O8 2.163223 1_555
Mn2 O17 2.058827 1_545
Mn2 O6 2.101945 1_655
Mn2 O3 2.101945 1_555
Mn2 O11 2.163223 1_655
Mn2 O14 2.163223 1_555
Mn3 O16 2.058827 1_565
Mn3 O2 2.101945 1_455
Mn3 O7 2.101945 1_555
Mn3 O10 2.163223 1_555
Mn3 O15 2.163223 1_455
