# generated using pymatgen
data_NiH20(C4N5)2
_symmetry_space_group_name_H-M   'P 1'
_cell_length_a   9.13508900
_cell_length_b   6.58165300
_cell_length_c   11.44278060
_cell_angle_alpha   81.64694237
_cell_angle_beta   90.00000000
_cell_angle_gamma   90.00000000
_symmetry_Int_Tables_number   1
_chemical_formula_structural   NiH20(C4N5)2
_chemical_formula_sum   'Ni2 H40 C16 N20'
_cell_volume   680.68721323
_cell_formula_units_Z   2
loop_
 _symmetry_equiv_pos_site_id
 _symmetry_equiv_pos_as_xyz
  1  'x, y, z'
loop_
 _atom_site_type_symbol
 _atom_site_label
 _atom_site_symmetry_multiplicity
 _atom_site_fract_x
 _atom_site_fract_y
 _atom_site_fract_z
 _atom_site_occupancy
  Ni  Ni0  1  0.50000000  0.50000000  0.50000000  1
  Ni  Ni1  1  0.00000000  0.50000000  0.00000000  1
  H  H0  1  0.53650400  0.63502400  0.86384500  1
  H  H1  1  0.96349600  0.63502400  0.36384500  1
  H  H2  1  0.57560700  0.39013900  0.30754700  1
  H  H3  1  0.39079500  0.92663900  0.69790700  1
  H  H4  1  0.84425800  0.20486900  0.96448100  1
  H  H5  1  0.81635300  0.47571600  0.40594400  1
  H  H6  1  0.46349600  0.36497600  0.13615500  1
  H  H7  1  0.79465800  0.84824700  0.77647300  1
  H  H8  1  0.59653800  0.83633500  0.04672300  1
  H  H9  1  0.52303400  0.89200400  0.22394800  1
  H  H10  1  0.65574200  0.20486900  0.46448100  1
  H  H11  1  0.03650400  0.36497600  0.63615500  1
  H  H12  1  0.16489500  0.95662300  0.55551200  1
  H  H13  1  0.78879500  0.86864100  0.02993300  1
  H  H14  1  0.02303400  0.10799600  0.27605200  1
  H  H15  1  0.07560700  0.60986100  0.19245300  1
  H  H16  1  0.31635300  0.52428400  0.09405600  1
  H  H17  1  0.42439300  0.60986100  0.69245300  1
  H  H18  1  0.47696600  0.10799600  0.77605200  1
  H  H19  1  0.28879500  0.13135900  0.47006700  1
  H  H20  1  0.20534200  0.15175300  0.22352700  1
  H  H21  1  0.15574200  0.79513100  0.03551900  1
  H  H22  1  0.09653800  0.16366500  0.45327700  1
  H  H23  1  0.29465800  0.15175300  0.72352700  1
  H  H24  1  0.60920500  0.07336100  0.30209300  1
  H  H25  1  0.34425800  0.79513100  0.53551900  1
  H  H26  1  0.97696600  0.89200400  0.72394800  1
  H  H27  1  0.10920500  0.92663900  0.19790700  1
  H  H28  1  0.70534200  0.84824700  0.27647300  1
  H  H29  1  0.21120500  0.13135900  0.97006700  1
  H  H30  1  0.71120500  0.86864100  0.52993300  1
  H  H31  1  0.83510500  0.04337700  0.44448800  1
  H  H32  1  0.33510500  0.95662300  0.05551200  1
  H  H33  1  0.66489500  0.04337700  0.94448800  1
  H  H34  1  0.90346200  0.83633500  0.54672300  1
  H  H35  1  0.40346200  0.16366500  0.95327700  1
  H  H36  1  0.68364700  0.47571600  0.90594400  1
  H  H37  1  0.89079500  0.07336100  0.80209300  1
  H  H38  1  0.18364700  0.52428400  0.59405600  1
  H  H39  1  0.92439300  0.39013900  0.80754700  1
  C  C0  1  0.81634300  0.95180400  0.53146600  1
  C  C1  1  0.10719400  0.53992100  0.76141500  1
  C  C2  1  0.37301700  0.03254200  0.76152400  1
  C  C3  1  0.87301700  0.96745800  0.73847600  1
  C  C4  1  0.60719400  0.46007900  0.73858500  1
  C  C5  1  0.39280600  0.53992100  0.26141500  1
  C  C6  1  0.77803700  0.23824200  0.12513700  1
  C  C7  1  0.12698300  0.03254200  0.26152400  1
  C  C8  1  0.18365700  0.04819600  0.46853400  1
  C  C9  1  0.72196300  0.23824200  0.62513700  1
  C  C10  1  0.68365700  0.95180400  0.03146600  1
  C  C11  1  0.89280600  0.46007900  0.23858500  1
  C  C12  1  0.27803700  0.76175800  0.37486300  1
  C  C13  1  0.22196300  0.76175800  0.87486300  1
  C  C14  1  0.31634300  0.04819600  0.96853400  1
  C  C15  1  0.62698300  0.96745800  0.23847600  1
  N  N0  1  0.48984300  0.46342200  0.34226200  1
  N  N1  1  0.71569900  0.32540100  0.72478700  1
  N  N2  1  0.59602400  0.50965700  0.85151100  1
  N  N3  1  0.01015700  0.46342200  0.84226200  1
  N  N4  1  0.14329100  0.70256600  0.97223900  1
  N  N5  1  0.35670900  0.70256600  0.47223900  1
  N  N6  1  0.40397600  0.49034300  0.14848900  1
  N  N7  1  0.32227000  0.92138300  0.87403700  1
  N  N8  1  0.90397600  0.50965700  0.35151100  1
  N  N9  1  0.98984300  0.53657800  0.15773800  1
  N  N10  1  0.85670900  0.29743400  0.02776100  1
  N  N11  1  0.64329100  0.29743400  0.52776100  1
  N  N12  1  0.28430100  0.67459900  0.27521300  1
  N  N13  1  0.78430100  0.32540100  0.22478700  1
  N  N14  1  0.17773000  0.92138300  0.37403700  1
  N  N15  1  0.51015700  0.53657800  0.65773800  1
  N  N16  1  0.21569900  0.67459900  0.77521300  1
  N  N17  1  0.82227000  0.07861700  0.62596300  1
  N  N18  1  0.09602400  0.49034300  0.64848900  1
  N  N19  1  0.67773000  0.07861700  0.12596300  1
loop_
_geom_bond_atom_site_label_1
_geom_bond_atom_site_label_2
_geom_bond_distance
_geom_bond_site_symmetry_2
H0 N2 1.014994 1_555
H1 N8 1.014994 1_555
H2 N0 1.029520 1_555
H4 N10 1.018131 1_556
H5 N8 1.018895 1_555
H6 N6 1.014994 1_555
H10 N11 1.018131 1_555
H11 N18 1.014994 1_555
H15 N9 1.029520 1_455
H16 N6 1.018895 1_555
H17 N15 1.029520 1_555
H21 N4 1.018131 1_554
H25 N5 1.018131 1_555
H36 N2 1.018895 1_555
H38 N18 1.018895 1_555
H39 N3 1.029520 1_655
C0 H34 1.096748 1_555
C0 H31 1.099502 1_565
C0 H30 1.106862 1_555
C0 N17 1.459794 1_565
C1 N3 1.326569 1_555
C1 N16 1.354173 1_555
C1 N18 1.381717 1_555
C2 H3 1.090664 1_545
C2 H18 1.095424 1_555
C2 H23 1.103597 1_555
C2 N7 1.460837 1_545
C3 H37 1.090664 1_565
C3 H26 1.095424 1_555
C3 H7 1.103597 1_555
C3 N17 1.460837 1_565
C4 N15 1.326569 1_555
C4 N1 1.354173 1_555
C4 N2 1.381717 1_555
C5 N0 1.326569 1_555
C5 N12 1.354173 1_555
C5 N6 1.381717 1_555
C6 N10 1.335553 1_555
C6 N13 1.350045 1_555
C6 N19 1.393050 1_555
C7 H27 1.090664 1_545
C7 H14 1.095424 1_555
C7 H20 1.103597 1_555
C7 N14 1.460837 1_545
C8 H22 1.096748 1_555
C8 H12 1.099502 1_545
C8 H19 1.106862 1_555
C8 N14 1.459794 1_545
C9 N11 1.335553 1_555
C9 N1 1.350045 1_555
C9 N17 1.393050 1_555
C10 H8 1.096748 1_555
C10 H33 1.099502 1_564
C10 H13 1.106862 1_555
C10 N19 1.459794 1_565
C11 N9 1.326569 1_555
C11 N13 1.354173 1_555
C11 N8 1.381717 1_555
C12 N5 1.335553 1_555
C12 N12 1.350045 1_555
C12 N14 1.393050 1_555
C13 N4 1.335553 1_555
C13 N16 1.350045 1_555
C13 N7 1.393050 1_555
C14 H35 1.096748 1_555
C14 H32 1.099502 1_546
C14 H29 1.106862 1_555
C14 N7 1.459794 1_545
C15 H24 1.090664 1_565
C15 H9 1.095424 1_555
C15 H28 1.103597 1_555
C15 N19 1.460837 1_565
N0 Ni0 1.857607 1_555
N3 Ni1 1.857607 1_556
N4 Ni1 1.862458 1_556
N5 Ni0 1.862458 1_555
N9 Ni1 1.857607 1_655
N10 Ni1 1.862458 1_655
N11 Ni0 1.862458 1_555
N15 Ni0 1.857607 1_555
