# generated using pymatgen
data_Mo6PbCl14
_symmetry_space_group_name_H-M   'P 1'
_cell_length_a   13.12403183
_cell_length_b   13.12403183
_cell_length_c   13.12403183
_cell_angle_alpha   90.00000000
_cell_angle_beta   90.00000000
_cell_angle_gamma   90.00000000
_symmetry_Int_Tables_number   1
_chemical_formula_structural   Mo6PbCl14
_chemical_formula_sum   'Mo24 Pb4 Cl56'
_cell_volume   2260.48601780
_cell_formula_units_Z   4
loop_
 _symmetry_equiv_pos_site_id
 _symmetry_equiv_pos_as_xyz
  1  'x, y, z'
loop_
 _atom_site_type_symbol
 _atom_site_label
 _atom_site_symmetry_multiplicity
 _atom_site_fract_x
 _atom_site_fract_y
 _atom_site_fract_z
 _atom_site_occupancy
  Mo  Mo0  1  0.78535105  0.11743362  0.27779161  1
  Mo  Mo1  1  0.27779161  0.78535105  0.11743362  1
  Mo  Mo2  1  0.61743362  0.22220839  0.28535105  1
  Mo  Mo3  1  0.11743362  0.72220839  0.21464895  1
  Mo  Mo4  1  0.72220839  0.21464895  0.11743362  1
  Mo  Mo5  1  0.88256638  0.72220839  0.78535105  1
  Mo  Mo6  1  0.38256638  0.22220839  0.71464895  1
  Mo  Mo7  1  0.22220839  0.28535105  0.61743362  1
  Mo  Mo8  1  0.72220839  0.78535105  0.88256638  1
  Mo  Mo9  1  0.78535105  0.88256638  0.72220839  1
  Mo  Mo10  1  0.61743362  0.77779161  0.71464895  1
  Mo  Mo11  1  0.77779161  0.71464895  0.61743362  1
  Mo  Mo12  1  0.71464895  0.38256638  0.22220839  1
  Mo  Mo13  1  0.88256638  0.27779161  0.21464895  1
  Mo  Mo14  1  0.77779161  0.28535105  0.38256638  1
  Mo  Mo15  1  0.28535105  0.61743362  0.22220839  1
  Mo  Mo16  1  0.71464895  0.61743362  0.77779161  1
  Mo  Mo17  1  0.22220839  0.71464895  0.38256638  1
  Mo  Mo18  1  0.27779161  0.21464895  0.88256638  1
  Mo  Mo19  1  0.11743362  0.27779161  0.78535105  1
  Mo  Mo20  1  0.28535105  0.38256638  0.77779161  1
  Mo  Mo21  1  0.38256638  0.77779161  0.28535105  1
  Mo  Mo22  1  0.21464895  0.88256638  0.27779161  1
  Mo  Mo23  1  0.21464895  0.11743362  0.72220839  1
  Pb  Pb0  1  0.75000000  0.75000000  0.25000000  1
  Pb  Pb1  1  0.25000000  0.25000000  0.25000000  1
  Pb  Pb2  1  0.25000000  0.75000000  0.75000000  1
  Pb  Pb3  1  0.75000000  0.25000000  0.75000000  1
  Cl  Cl0  1  0.94130842  0.68170762  0.16306596  1
  Cl  Cl1  1  0.93622628  0.81562897  0.62980386  1
  Cl  Cl2  1  0.18437103  0.62980386  0.06377372  1
  Cl  Cl3  1  0.56377372  0.31562897  0.12980386  1
  Cl  Cl4  1  0.18170762  0.66306596  0.55869158  1
  Cl  Cl5  1  0.83693404  0.94130842  0.31829238  1
  Cl  Cl6  1  0.06377372  0.18437103  0.62980386  1
  Cl  Cl7  1  0.55869158  0.81829238  0.33693404  1
  Cl  Cl8  1  0.31829238  0.83693404  0.94130842  1
  Cl  Cl9  1  0.68437103  0.87019614  0.56377372  1
  Cl  Cl10  1  0.44130842  0.81829238  0.66306596  1
  Cl  Cl11  1  0.31562897  0.87019614  0.43622628  1
  Cl  Cl12  1  0.11583583  0.88416417  0.11583583  1
  Cl  Cl13  1  0.62980386  0.06377372  0.18437103  1
  Cl  Cl14  1  0.61583583  0.61583583  0.61583583  1
  Cl  Cl15  1  0.68437103  0.12980386  0.43622628  1
  Cl  Cl16  1  0.37019614  0.93622628  0.18437103  1
  Cl  Cl17  1  0.33693404  0.55869158  0.81829238  1
  Cl  Cl18  1  0.44130842  0.18170762  0.33693404  1
  Cl  Cl19  1  0.88416417  0.11583583  0.11583583  1
  Cl  Cl20  1  0.12980386  0.43622628  0.68437103  1
  Cl  Cl21  1  0.81829238  0.33693404  0.55869158  1
  Cl  Cl22  1  0.43622628  0.68437103  0.12980386  1
  Cl  Cl23  1  0.05869158  0.31829238  0.16306596  1
  Cl  Cl24  1  0.18170762  0.33693404  0.44130842  1
  Cl  Cl25  1  0.43622628  0.31562897  0.87019614  1
  Cl  Cl26  1  0.37019614  0.06377372  0.81562897  1
  Cl  Cl27  1  0.81829238  0.66306596  0.44130842  1
  Cl  Cl28  1  0.11583583  0.11583583  0.88416417  1
  Cl  Cl29  1  0.16306596  0.05869158  0.31829238  1
  Cl  Cl30  1  0.68170762  0.16306596  0.94130842  1
  Cl  Cl31  1  0.18437103  0.37019614  0.93622628  1
  Cl  Cl32  1  0.94130842  0.31829238  0.83693404  1
  Cl  Cl33  1  0.81562897  0.37019614  0.06377372  1
  Cl  Cl34  1  0.88416417  0.88416417  0.88416417  1
  Cl  Cl35  1  0.87019614  0.43622628  0.31562897  1
  Cl  Cl36  1  0.12980386  0.56377372  0.31562897  1
  Cl  Cl37  1  0.55869158  0.18170762  0.66306596  1
  Cl  Cl38  1  0.06377372  0.81562897  0.37019614  1
  Cl  Cl39  1  0.66306596  0.44130842  0.81829238  1
  Cl  Cl40  1  0.56377372  0.68437103  0.87019614  1
  Cl  Cl41  1  0.31562897  0.12980386  0.56377372  1
  Cl  Cl42  1  0.87019614  0.56377372  0.68437103  1
  Cl  Cl43  1  0.16306596  0.94130842  0.68170762  1
  Cl  Cl44  1  0.05869158  0.68170762  0.83693404  1
  Cl  Cl45  1  0.83693404  0.05869158  0.68170762  1
  Cl  Cl46  1  0.33693404  0.44130842  0.18170762  1
  Cl  Cl47  1  0.61583583  0.38416417  0.38416417  1
  Cl  Cl48  1  0.68170762  0.83693404  0.05869158  1
  Cl  Cl49  1  0.31829238  0.16306596  0.05869158  1
  Cl  Cl50  1  0.62980386  0.93622628  0.81562897  1
  Cl  Cl51  1  0.66306596  0.55869158  0.18170762  1
  Cl  Cl52  1  0.38416417  0.38416417  0.61583583  1
  Cl  Cl53  1  0.38416417  0.61583583  0.38416417  1
  Cl  Cl54  1  0.93622628  0.18437103  0.37019614  1
  Cl  Cl55  1  0.81562897  0.62980386  0.93622628  1
loop_
_geom_bond_atom_site_label_1
_geom_bond_atom_site_label_2
_geom_bond_distance
_geom_bond_site_symmetry_2
Cl0 Mo3 2.466522 1_655
Cl0 Pb0 2.899796 1_555
Cl1 Mo11 2.471068 1_555
Cl1 Mo9 2.482578 1_555
Cl1 Mo5 2.483243 1_555
Cl2 Mo15 2.471068 1_555
Cl2 Mo3 2.482578 1_555
Cl2 Mo1 2.483243 1_555
Cl3 Mo4 2.471068 1_555
Cl3 Mo12 2.482578 1_555
Cl3 Mo2 2.483243 1_555
Cl4 Mo17 2.466522 1_555
Cl4 Pb2 2.899796 1_555
Cl5 Mo0 2.466522 1_565
Cl5 Pb0 2.899796 1_555
Cl6 Mo7 2.471068 1_555
Cl6 Mo23 2.482578 1_555
Cl6 Mo19 2.483243 1_555
Cl7 Mo21 2.466522 1_555
Cl7 Pb0 2.899796 1_555
Cl8 Mo1 2.466522 1_556
Cl8 Pb2 2.899796 1_555
Cl9 Mo9 2.471068 1_555
Cl9 Mo10 2.482578 1_555
Cl9 Mo11 2.483243 1_555
Cl10 Mo10 2.466522 1_555
Cl10 Pb2 2.899796 1_555
Cl11 Mo22 2.471068 1_555
Cl11 Mo21 2.482578 1_555
Cl11 Mo17 2.483243 1_555
Cl12 Mo3 2.489981 1_555
Cl12 Mo1 2.489981 1_555
Cl12 Mo22 2.489981 1_555
Cl13 Mo2 2.471068 1_555
Cl13 Mo4 2.482578 1_555
Cl13 Mo0 2.483243 1_555
Cl14 Mo16 2.489981 1_555
Cl14 Mo10 2.489981 1_555
Cl14 Mo11 2.489981 1_555
Cl15 Mo0 2.471068 1_555
Cl15 Mo2 2.482578 1_555
Cl15 Mo14 2.483243 1_555
Cl16 Mo21 2.471068 1_555
Cl16 Mo1 2.482578 1_555
Cl16 Mo22 2.483243 1_555
Cl17 Mo20 2.466522 1_555
Cl17 Pb2 2.899796 1_555
Cl18 Mo2 2.466522 1_555
Cl18 Pb1 2.899796 1_555
Cl19 Mo4 2.489981 1_555
Cl19 Mo0 2.489981 1_555
Cl19 Mo13 2.489981 1_555
Cl20 Mo19 2.471068 1_555
Cl20 Mo7 2.482578 1_555
Cl20 Mo20 2.483243 1_555
Cl21 Mo14 2.466522 1_555
Cl21 Pb3 2.899796 1_555
Cl22 Mo1 2.471068 1_555
Cl22 Mo15 2.482578 1_555
Cl22 Mo21 2.483243 1_555
Cl23 Mo13 2.466522 1_455
Cl23 Pb1 2.899796 1_555
Cl24 Mo7 2.466522 1_555
Cl24 Pb1 2.899796 1_555
Cl25 Mo18 2.471068 1_555
Cl25 Mo20 2.482578 1_555
Cl25 Mo6 2.483243 1_555
Cl26 Mo6 2.471068 1_555
Cl26 Mo18 2.482578 1_555
Cl26 Mo23 2.483243 1_555
Cl27 Mo11 2.466522 1_555
Cl27 Pb0 2.899796 1_555
Cl28 Mo19 2.489981 1_555
Cl28 Mo23 2.489981 1_555
Cl28 Mo18 2.489981 1_555
Cl29 Mo22 2.466522 1_545
Cl29 Pb1 2.899796 1_555
Cl30 Mo4 2.466522 1_556
Cl30 Pb3 2.899796 1_555
Cl31 Mo20 2.471068 1_555
Cl31 Mo19 2.482578 1_555
Cl31 Mo18 2.483243 1_555
Cl32 Mo19 2.466522 1_655
Cl32 Pb3 2.899796 1_555
Cl33 Mo12 2.471068 1_555
Cl33 Mo13 2.482578 1_555
Cl33 Mo4 2.483243 1_555
Cl34 Mo5 2.489981 1_555
Cl34 Mo8 2.489981 1_555
Cl34 Mo9 2.489981 1_555
Cl35 Mo13 2.471068 1_555
Cl35 Mo14 2.482578 1_555
Cl35 Mo12 2.483243 1_555
Cl36 Mo3 2.471068 1_555
Cl36 Mo17 2.482578 1_555
Cl36 Mo15 2.483243 1_555
Cl37 Mo6 2.466522 1_555
Cl37 Pb3 2.899796 1_555
Cl38 Mo17 2.471068 1_555
Cl38 Mo22 2.482578 1_555
Cl38 Mo3 2.483243 1_555
Cl39 Mo16 2.466522 1_555
Cl39 Pb3 2.899796 1_555
Cl40 Mo8 2.471068 1_555
Cl40 Mo16 2.482578 1_555
Cl40 Mo10 2.483243 1_555
Cl41 Mo23 2.471068 1_555
Cl41 Mo6 2.482578 1_555
Cl41 Mo7 2.483243 1_555
Cl42 Mo5 2.471068 1_555
Cl42 Mo11 2.482578 1_555
Cl42 Mo16 2.483243 1_555
Cl43 Mo23 2.466522 1_565
Cl43 Pb2 2.899796 1_555
Cl44 Mo5 2.466522 1_455
Cl44 Pb2 2.899796 1_555
Cl45 Mo9 2.466522 1_545
Cl45 Pb3 2.899796 1_555
Cl46 Mo15 2.466522 1_555
Cl46 Pb1 2.899796 1_555
Cl47 Mo14 2.489981 1_555
Cl47 Mo2 2.489981 1_555
Cl47 Mo12 2.489981 1_555
Cl48 Mo8 2.466522 1_554
Cl48 Pb0 2.899796 1_555
Cl49 Mo18 2.466522 1_554
Cl49 Pb1 2.899796 1_555
Cl50 Mo10 2.471068 1_555
Cl50 Mo8 2.482578 1_555
Cl50 Mo9 2.483243 1_555
Cl51 Mo12 2.466522 1_555
Cl51 Pb0 2.899796 1_555
Cl52 Mo20 2.489981 1_555
Cl52 Mo7 2.489981 1_555
Cl52 Mo6 2.489981 1_555
Cl53 Mo21 2.489981 1_555
Cl53 Mo15 2.489981 1_555
Cl53 Mo17 2.489981 1_555
Cl54 Mo14 2.471068 1_555
Cl54 Mo0 2.482578 1_555
Cl54 Mo13 2.483243 1_555
Cl55 Mo16 2.471068 1_555
Cl55 Mo5 2.482578 1_555
Cl55 Mo8 2.483243 1_555
