# generated using pymatgen
data_Nd4Ga2S5O4
_symmetry_space_group_name_H-M   'P 1'
_cell_length_a   5.82966200
_cell_length_b   18.59545000
_cell_length_c   22.90048400
_cell_angle_alpha   90.00000000
_cell_angle_beta   90.00000000
_cell_angle_gamma   90.00000000
_symmetry_Int_Tables_number   1
_chemical_formula_structural   Nd4Ga2S5O4
_chemical_formula_sum   'Nd32 Ga16 S40 O32'
_cell_volume   2482.53127876
_cell_formula_units_Z   8
loop_
 _symmetry_equiv_pos_site_id
 _symmetry_equiv_pos_as_xyz
  1  'x, y, z'
loop_
 _atom_site_type_symbol
 _atom_site_label
 _atom_site_symmetry_multiplicity
 _atom_site_fract_x
 _atom_site_fract_y
 _atom_site_fract_z
 _atom_site_occupancy
  Nd  Nd0  1  0.48372500  0.44787900  0.92983100  1
  Nd  Nd1  1  0.51627500  0.55212100  0.07016900  1
  Nd  Nd2  1  0.97483700  0.46359600  0.81071000  1
  Nd  Nd3  1  0.53086100  0.41167100  0.18380400  1
  Nd  Nd4  1  0.02516300  0.96359600  0.68929000  1
  Nd  Nd5  1  0.98596800  0.92792700  0.44760300  1
  Nd  Nd6  1  0.98596800  0.57207300  0.94760300  1
  Nd  Nd7  1  0.48372500  0.05212100  0.42983100  1
  Nd  Nd8  1  0.47483700  0.46359600  0.68929000  1
  Nd  Nd9  1  0.46913900  0.91167100  0.31619600  1
  Nd  Nd10  1  0.51403200  0.42792700  0.44760300  1
  Nd  Nd11  1  0.01627500  0.55212100  0.42983100  1
  Nd  Nd12  1  0.98372500  0.44787900  0.57016900  1
  Nd  Nd13  1  0.51403200  0.07207300  0.94760300  1
  Nd  Nd14  1  0.96913900  0.58832900  0.68380400  1
  Nd  Nd15  1  0.51627500  0.94787900  0.57016900  1
  Nd  Nd16  1  0.02516300  0.53640400  0.18929000  1
  Nd  Nd17  1  0.03086100  0.08832900  0.81619600  1
  Nd  Nd18  1  0.03086100  0.41167100  0.31619600  1
  Nd  Nd19  1  0.52516300  0.96359600  0.81071000  1
  Nd  Nd20  1  0.47483700  0.03640400  0.18929000  1
  Nd  Nd21  1  0.52516300  0.53640400  0.31071000  1
  Nd  Nd22  1  0.53086100  0.08832900  0.68380400  1
  Nd  Nd23  1  0.01403200  0.07207300  0.55239700  1
  Nd  Nd24  1  0.01627500  0.94787900  0.92983100  1
  Nd  Nd25  1  0.48596800  0.92792700  0.05239700  1
  Nd  Nd26  1  0.01403200  0.42792700  0.05239700  1
  Nd  Nd27  1  0.48596800  0.57207300  0.55239700  1
  Nd  Nd28  1  0.97483700  0.03640400  0.31071000  1
  Nd  Nd29  1  0.46913900  0.58832900  0.81619600  1
  Nd  Nd30  1  0.96913900  0.91167100  0.18380400  1
  Nd  Nd31  1  0.98372500  0.05212100  0.07016900  1
  Ga  Ga0  1  0.53019600  0.73118300  0.20088100  1
  Ga  Ga1  1  0.96980400  0.26881700  0.70088100  1
  Ga  Ga2  1  0.03019600  0.73118300  0.29911900  1
  Ga  Ga3  1  0.03019600  0.76881700  0.79911900  1
  Ga  Ga4  1  0.36411200  0.76761000  0.94603900  1
  Ga  Ga5  1  0.46980400  0.26881700  0.79911900  1
  Ga  Ga6  1  0.86411200  0.76761000  0.55396100  1
  Ga  Ga7  1  0.13588800  0.26761000  0.94603900  1
  Ga  Ga8  1  0.63588800  0.23239000  0.05396100  1
  Ga  Ga9  1  0.36411200  0.73239000  0.44603900  1
  Ga  Ga10  1  0.63588800  0.26761000  0.55396100  1
  Ga  Ga11  1  0.53019600  0.76881700  0.70088100  1
  Ga  Ga12  1  0.96980400  0.23118300  0.20088100  1
  Ga  Ga13  1  0.46980400  0.23118300  0.29911900  1
  Ga  Ga14  1  0.13588800  0.23239000  0.44603900  1
  Ga  Ga15  1  0.86411200  0.73239000  0.05396100  1
  S  S0  1  0.04423800  0.88891500  0.80785300  1
  S  S1  1  0.45576200  0.38891500  0.80785300  1
  S  S2  1  0.39628900  0.18197100  0.51317300  1
  S  S3  1  0.89628900  0.31802900  0.48682700  1
  S  S4  1  0.52741800  0.62697900  0.42346900  1
  S  S5  1  0.97258200  0.37302100  0.92346900  1
  S  S6  1  0.83735700  0.27001300  0.28962600  1
  S  S7  1  0.16247800  0.70113400  0.87826900  1
  S  S8  1  0.60371100  0.68197100  0.98682700  1
  S  S9  1  0.83735700  0.22998700  0.78962600  1
  S  S10  1  0.83752200  0.29886600  0.12173100  1
  S  S11  1  0.33752200  0.20113400  0.87826900  1
  S  S12  1  0.47258200  0.37302100  0.57653100  1
  S  S13  1  0.33735700  0.22998700  0.71037400  1
  S  S14  1  0.52741800  0.87302100  0.92346900  1
  S  S15  1  0.16264300  0.72998700  0.71037400  1
  S  S16  1  0.45576200  0.11108500  0.30785300  1
  S  S17  1  0.04423800  0.61108500  0.30785300  1
  S  S18  1  0.02741800  0.87302100  0.57653100  1
  S  S19  1  0.16247800  0.79886600  0.37826900  1
  S  S20  1  0.10371100  0.81802900  0.01317300  1
  S  S21  1  0.54423800  0.88891500  0.69214700  1
  S  S22  1  0.33752200  0.29886600  0.37826900  1
  S  S23  1  0.95576200  0.11108500  0.19214700  1
  S  S24  1  0.66264300  0.77001300  0.28962600  1
  S  S25  1  0.89628900  0.18197100  0.98682700  1
  S  S26  1  0.60371100  0.81802900  0.48682700  1
  S  S27  1  0.16264300  0.77001300  0.21037400  1
  S  S28  1  0.66247800  0.70113400  0.62173100  1
  S  S29  1  0.54423800  0.61108500  0.19214700  1
  S  S30  1  0.33735700  0.27001300  0.21037400  1
  S  S31  1  0.47258200  0.12697900  0.07653100  1
  S  S32  1  0.83752200  0.20113400  0.62173100  1
  S  S33  1  0.95576200  0.38891500  0.69214700  1
  S  S34  1  0.66247800  0.79886600  0.12173100  1
  S  S35  1  0.02741800  0.62697900  0.07653100  1
  S  S36  1  0.66264300  0.72998700  0.78962600  1
  S  S37  1  0.97258200  0.12697900  0.42346900  1
  S  S38  1  0.39628900  0.31802900  0.01317300  1
  S  S39  1  0.10371100  0.68197100  0.51317300  1
  O  O0  1  0.72690500  0.52350300  0.62335500  1
  O  O1  1  0.72833200  0.52820300  0.87631400  1
  O  O2  1  0.22106800  0.96557900  0.25064800  1
  O  O3  1  0.77893200  0.03442100  0.74935200  1
  O  O4  1  0.77309500  0.02350300  0.62335500  1
  O  O5  1  0.75635800  0.50385400  0.49995600  1
  O  O6  1  0.27166800  0.47179700  0.12368600  1
  O  O7  1  0.72690500  0.97649700  0.12335500  1
  O  O8  1  0.74364200  0.00385400  0.49995600  1
  O  O9  1  0.74364200  0.49614600  0.99995600  1
  O  O10  1  0.27309500  0.02350300  0.87664500  1
  O  O11  1  0.22833200  0.97179700  0.12368600  1
  O  O12  1  0.24364200  0.49614600  0.50004400  1
  O  O13  1  0.72106800  0.53442100  0.74935200  1
  O  O14  1  0.22690500  0.97649700  0.37664500  1
  O  O15  1  0.77309500  0.47649700  0.12335500  1
  O  O16  1  0.25635800  0.50385400  0.00004400  1
  O  O17  1  0.75635800  0.99614600  0.99995600  1
  O  O18  1  0.27166800  0.02820300  0.62368600  1
  O  O19  1  0.25635800  0.99614600  0.50004400  1
  O  O20  1  0.77893200  0.46557900  0.24935200  1
  O  O21  1  0.77166800  0.02820300  0.87631400  1
  O  O22  1  0.22833200  0.52820300  0.62368600  1
  O  O23  1  0.72106800  0.96557900  0.24935200  1
  O  O24  1  0.27309500  0.47649700  0.37664500  1
  O  O25  1  0.72833200  0.97179700  0.37631400  1
  O  O26  1  0.27893200  0.03442100  0.75064800  1
  O  O27  1  0.22106800  0.53442100  0.75064800  1
  O  O28  1  0.27893200  0.46557900  0.25064800  1
  O  O29  1  0.22690500  0.52350300  0.87664500  1
  O  O30  1  0.24364200  0.00385400  0.00004400  1
  O  O31  1  0.77166800  0.47179700  0.37631400  1
loop_
_geom_bond_atom_site_label_1
_geom_bond_atom_site_label_2
_geom_bond_distance
_geom_bond_site_symmetry_2
Nd0 O16 2.329311 1_556
Nd0 O9 2.383361 1_555
Nd0 O29 2.388010 1_555
Nd0 O1 2.401341 1_555
Nd0 S1 3.005268 1_555
Nd0 S38 3.119752 1_556
Nd0 S5 3.175013 1_555
Nd0 S5 3.292126 1_455
Nd1 O9 2.329311 1_554
Nd1 O16 2.383361 1_555
Nd1 O15 2.388010 1_555
Nd1 O6 2.401341 1_555
Nd1 S29 3.005268 1_555
Nd1 S8 3.119752 1_554
Nd1 S35 3.175013 1_555
Nd1 S35 3.292126 1_655
Nd2 O29 2.383331 1_655
Nd2 O27 2.384724 1_655
Nd2 O1 2.401153 1_555
Nd2 O13 2.428481 1_555
Nd2 S33 3.051716 1_555
Nd2 S5 3.083005 1_555
Nd2 S1 3.129407 1_655
Nd2 S1 3.330122 1_555
Nd3 O20 2.312908 1_555
Nd3 O15 2.315949 1_555
Nd3 O6 2.329939 1_555
Nd3 O28 2.346292 1_555
Nd3 S30 2.929460 1_555
Nd3 S10 3.101100 1_555
Nd4 O4 2.383331 1_465
Nd4 O3 2.384724 1_465
Nd4 O18 2.401153 1_565
Nd4 O26 2.428481 1_565
Nd4 S0 3.051716 1_555
Nd4 S18 3.083005 1_555
Nd4 S21 3.129407 1_455
Nd4 S21 3.330122 1_555
Nd5 O8 2.329484 1_565
Nd5 O14 2.330047 1_655
Nd5 O19 2.352900 1_655
Nd5 O25 2.363583 1_555
Nd5 S19 3.056080 1_655
Nd5 S18 3.133396 1_655
Nd5 S26 3.154213 1_555
Nd6 O9 2.329484 1_555
Nd6 O29 2.330047 1_655
Nd6 O16 2.352900 1_656
Nd6 O1 2.363583 1_555
Nd6 S7 3.056080 1_655
Nd6 S35 3.133396 1_656
Nd6 S8 3.154213 1_555
Nd7 O19 2.329311 1_545
Nd7 O8 2.383361 1_555
Nd7 O14 2.388010 1_545
Nd7 O25 2.401341 1_545
Nd7 S16 3.005268 1_555
Nd7 S2 3.119752 1_555
Nd7 S37 3.175013 1_555
Nd7 S37 3.292126 1_455
Nd8 O0 2.383331 1_555
Nd8 O13 2.384724 1_555
Nd8 O22 2.401153 1_555
Nd8 O27 2.428481 1_555
Nd8 S1 3.051716 1_555
Nd8 S12 3.083005 1_555
Nd8 S33 3.129407 1_555
Nd8 S33 3.330122 1_455
Nd9 O2 2.312908 1_555
Nd9 O14 2.315949 1_555
Nd9 O25 2.329939 1_555
Nd9 O23 2.346292 1_555
Nd9 S24 2.929460 1_555
Nd9 S19 3.101100 1_555
Nd10 O5 2.329484 1_555
Nd10 O24 2.330047 1_555
Nd10 O12 2.352900 1_555
Nd10 O31 2.363583 1_555
Nd10 S22 3.056080 1_555
Nd10 S12 3.133396 1_555
Nd10 S3 3.154213 1_555
Nd11 O12 2.329311 1_555
Nd11 O5 2.383361 1_455
Nd11 O24 2.388010 1_555
Nd11 O31 2.401341 1_455
Nd11 S17 3.005268 1_555
Nd11 S39 3.119752 1_555
Nd11 S4 3.175013 1_455
Nd11 S4 3.292126 1_555
Nd12 O5 2.329311 1_555
Nd12 O12 2.383361 1_655
Nd12 O0 2.388010 1_555
Nd12 O22 2.401341 1_655
Nd12 S33 3.005268 1_555
Nd12 S3 3.119752 1_555
Nd12 S12 3.175013 1_655
Nd12 S12 3.292126 1_555
Nd13 O17 2.329484 1_545
Nd13 O10 2.330047 1_555
Nd13 O30 2.352900 1_556
Nd13 O21 2.363583 1_555
Nd13 S11 3.056080 1_555
Nd13 S31 3.133396 1_556
Nd13 S25 3.154213 1_555
Nd14 O13 2.312908 1_555
Nd14 O0 2.315949 1_555
Nd14 O22 2.329939 1_655
Nd14 O27 2.346292 1_655
Nd14 S15 2.929460 1_655
Nd14 S28 3.101100 1_555
Nd15 O8 2.329311 1_565
Nd15 O19 2.383361 1_555
Nd15 O4 2.388010 1_565
Nd15 O18 2.401341 1_565
Nd15 S21 3.005268 1_555
Nd15 S26 3.119752 1_555
Nd15 S18 3.175013 1_555
Nd15 S18 3.292126 1_655
Nd16 O15 2.383331 1_455
Nd16 O20 2.384724 1_455
Nd16 O6 2.401153 1_555
Nd16 O28 2.428481 1_555
Nd16 S17 3.051716 1_555
Nd16 S35 3.083005 1_555
Nd16 S29 3.129407 1_455
Nd16 S29 3.330122 1_555
Nd17 O26 2.312908 1_555
Nd17 O10 2.315949 1_555
Nd17 O21 2.329939 1_455
Nd17 O3 2.346292 1_455
Nd17 S9 2.929460 1_455
Nd17 S11 3.101100 1_555
Nd18 O28 2.312908 1_555
Nd18 O24 2.315949 1_555
Nd18 O31 2.329939 1_455
Nd18 O20 2.346292 1_455
Nd18 S6 2.929460 1_455
Nd18 S22 3.101100 1_555
Nd19 O10 2.383331 1_565
Nd19 O26 2.384724 1_565
Nd19 O21 2.401153 1_565
Nd19 O3 2.428481 1_565
Nd19 S21 3.051716 1_555
Nd19 S14 3.083005 1_555
Nd19 S0 3.129407 1_555
Nd19 S0 3.330122 1_655
Nd20 O7 2.383331 1_545
Nd20 O23 2.384724 1_545
Nd20 O11 2.401153 1_545
Nd20 O2 2.428481 1_545
Nd20 S16 3.051716 1_555
Nd20 S31 3.083005 1_555
Nd20 S23 3.129407 1_555
Nd20 S23 3.330122 1_455
Nd21 O24 2.383331 1_555
Nd21 O28 2.384724 1_555
Nd21 O31 2.401153 1_555
Nd21 O20 2.428481 1_555
Nd21 S29 3.051716 1_555
Nd21 S4 3.083005 1_555
Nd21 S17 3.129407 1_555
Nd21 S17 3.330122 1_655
Nd22 O3 2.312908 1_555
Nd22 O4 2.315949 1_555
Nd22 O18 2.329939 1_555
Nd22 O26 2.346292 1_555
Nd22 S13 2.929460 1_555
Nd22 S32 3.101100 1_555
Nd23 O19 2.329484 1_545
Nd23 O4 2.330047 1_455
Nd23 O8 2.352900 1_455
Nd23 O18 2.363583 1_555
Nd23 S32 3.056080 1_455
Nd23 S37 3.133396 1_455
Nd23 S2 3.154213 1_555
Nd24 O30 2.329311 1_566
Nd24 O17 2.383361 1_455
Nd24 O10 2.388010 1_565
Nd24 O21 2.401341 1_465
Nd24 S0 3.005268 1_555
Nd24 S20 3.119752 1_556
Nd24 S14 3.175013 1_455
Nd24 S14 3.292126 1_555
Nd25 O30 2.329484 1_565
Nd25 O7 2.330047 1_555
Nd25 O17 2.352900 1_554
Nd25 O11 2.363583 1_555
Nd25 S34 3.056080 1_555
Nd25 S14 3.133396 1_554
Nd25 S20 3.154213 1_555
Nd26 O16 2.329484 1_555
Nd26 O15 2.330047 1_455
Nd26 O9 2.352900 1_454
Nd26 O6 2.363583 1_555
Nd26 S10 3.056080 1_455
Nd26 S5 3.133396 1_454
Nd26 S38 3.154213 1_555
Nd27 O12 2.329484 1_555
Nd27 O0 2.330047 1_555
Nd27 O5 2.352900 1_555
Nd27 O22 2.363583 1_555
Nd27 S28 3.056080 1_555
Nd27 S4 3.133396 1_555
Nd27 S39 3.154213 1_555
Nd28 O14 2.383331 1_645
Nd28 O2 2.384724 1_645
Nd28 O25 2.401153 1_545
Nd28 O23 2.428481 1_545
Nd28 S23 3.051716 1_555
Nd28 S37 3.083005 1_555
Nd28 S16 3.129407 1_655
Nd28 S16 3.330122 1_555
Nd29 O27 2.312908 1_555
Nd29 O29 2.315949 1_555
Nd29 O1 2.329939 1_555
Nd29 O13 2.346292 1_555
Nd29 S36 2.929460 1_555
Nd29 S7 3.101100 1_555
Nd30 O23 2.312908 1_555
Nd30 O7 2.315949 1_555
Nd30 O11 2.329939 1_655
Nd30 O2 2.346292 1_655
Nd30 S27 2.929460 1_655
Nd30 S34 3.101100 1_555
Nd31 O17 2.329311 1_544
Nd31 O30 2.383361 1_655
Nd31 O7 2.388010 1_545
Nd31 O11 2.401341 1_645
Nd31 S23 3.005268 1_555
Nd31 S25 3.119752 1_554
Nd31 S31 3.175013 1_655
Nd31 S31 3.292126 1_555
Ga0 S29 2.243709 1_555
Ga0 S27 2.271528 1_555
Ga0 S24 2.290808 1_555
Ga0 S34 2.337557 1_555
Ga1 S33 2.243709 1_555
Ga1 S13 2.271528 1_655
Ga1 S9 2.290808 1_555
Ga1 S32 2.337557 1_555
Ga2 S17 2.243709 1_555
Ga2 S24 2.271528 1_455
Ga2 S27 2.290808 1_555
Ga2 S19 2.337557 1_555
Ga3 S0 2.243709 1_555
Ga3 S36 2.271528 1_455
Ga3 S15 2.290808 1_555
Ga3 S7 2.337557 1_555
Ga4 S14 2.239584 1_555
Ga4 S7 2.306159 1_555
Ga4 S8 2.315063 1_555
Ga4 S20 2.355229 1_556
Ga5 S1 2.243709 1_555
Ga5 S9 2.271528 1_555
Ga5 S13 2.290808 1_555
Ga5 S11 2.337557 1_555
Ga6 S18 2.239584 1_655
Ga6 S28 2.306159 1_555
Ga6 S39 2.315063 1_655
Ga6 S26 2.355229 1_555
Ga7 S5 2.239584 1_455
Ga7 S11 2.306159 1_555
Ga7 S25 2.315063 1_455
Ga7 S38 2.355229 1_556
Ga8 S31 2.239584 1_555
Ga8 S10 2.306159 1_555
Ga8 S38 2.315063 1_555
Ga8 S25 2.355229 1_554
Ga9 S4 2.239584 1_555
Ga9 S19 2.306159 1_555
Ga9 S26 2.315063 1_555
Ga9 S39 2.355229 1_555
Ga10 S12 2.239584 1_555
Ga10 S32 2.306159 1_555
Ga10 S2 2.315063 1_555
Ga10 S3 2.355229 1_555
Ga11 S21 2.243709 1_555
Ga11 S15 2.271528 1_555
Ga11 S36 2.290808 1_555
Ga11 S28 2.337557 1_555
Ga12 S23 2.243709 1_555
Ga12 S30 2.271528 1_655
Ga12 S6 2.290808 1_555
Ga12 S10 2.337557 1_555
Ga13 S16 2.243709 1_555
Ga13 S6 2.271528 1_555
Ga13 S30 2.290808 1_555
Ga13 S22 2.337557 1_555
Ga14 S37 2.239584 1_455
Ga14 S22 2.306159 1_555
Ga14 S3 2.315063 1_455
Ga14 S2 2.355229 1_555
Ga15 S35 2.239584 1_655
Ga15 S34 2.306159 1_555
Ga15 S20 2.315063 1_655
Ga15 S8 2.355229 1_554
