# generated using pymatgen
data_Cu29(Ag6As7)2
_symmetry_space_group_name_H-M   'P 1'
_cell_length_a   11.86992593
_cell_length_b   11.86673766
_cell_length_c   11.84539848
_cell_angle_alpha   90.14384273
_cell_angle_beta   90.03728748
_cell_angle_gamma   90.00195565
_symmetry_Int_Tables_number   1
_chemical_formula_structural   Cu29(Ag6As7)2
_chemical_formula_sum   'Cu58 Ag24 As28'
_cell_volume   1668.50520002
_cell_formula_units_Z   2
loop_
 _symmetry_equiv_pos_site_id
 _symmetry_equiv_pos_as_xyz
  1  'x, y, z'
loop_
 _atom_site_type_symbol
 _atom_site_label
 _atom_site_symmetry_multiplicity
 _atom_site_fract_x
 _atom_site_fract_y
 _atom_site_fract_z
 _atom_site_occupancy
  Ag  Ag0  1  0.00264015  0.99830234  0.82159434  1
  Ag  Ag1  1  0.99826528  0.82142023  0.00266825  1
  Ag  Ag2  1  0.00412344  0.68052363  0.49555522  1
  Ag  Ag3  1  0.17847209  0.99788836  0.99860482  1
  Ag  Ag4  1  0.18232128  0.50161920  0.49821705  1
  Ag  Ag5  1  0.32005967  0.49943494  0.00030769  1
  Ag  Ag6  1  0.31826664  0.00376208  0.50476848  1
  Ag  Ag7  1  0.49966029  0.49974820  0.82031549  1
  Ag  Ag8  1  0.49796355  0.82347610  0.50138236  1
  Ag  Ag9  1  0.49811374  0.18122967  0.50177632  1
  Ag  Ag10  1  0.49963559  0.50021305  0.17959969  1
  Ag  Ag11  1  0.49929605  0.67796795  0.00039091  1
  Ag  Ag12  1  0.49822603  0.00105135  0.32386591  1
  Ag  Ag13  1  0.49890707  0.32065134  1.00041248  1
  Ag  Ag14  1  0.49461259  0.00347851  0.68062822  1
  Ag  Ag15  1  0.67754967  0.49899911  0.99893109  1
  Ag  Ag16  1  0.67522127  0.00129859  0.50119996  1
  Ag  Ag17  1  0.82496658  0.50166505  0.49844269  1
  Ag  Ag18  1  0.82319547  0.00116668  0.99900594  1
  Ag  Ag19  1  0.00157851  0.17659609  0.99980909  1
  Ag  Ag20  1  0.00176669  0.32306342  0.49838105  1
  Ag  Ag21  1  0.00477990  0.50351013  0.31930429  1
  Ag  Ag22  1  0.00155624  0.50118006  0.67597715  1
  Ag  Ag23  1  0.99913574  0.99849545  0.17860055  1
  As  As0  1  0.00115858  0.99963459  0.49995848  1
  As  As1  1  0.99156940  0.23987076  0.75788022  1
  As  As2  1  0.99889293  0.74971711  0.25013868  1
  As  As3  1  0.01042323  0.75967174  0.75989271  1
  As  As4  1  0.24319788  0.24119588  0.00982383  1
  As  As5  1  0.23955837  0.00897807  0.24200629  1
  As  As6  1  0.25142865  0.99807665  0.74855974  1
  As  As7  1  0.23946033  0.75807543  0.99077378  1
  As  As8  1  0.25753194  0.24147935  0.50988572  1
  As  As9  1  0.24076505  0.50842276  0.25796360  1
  As  As10  1  0.25061406  0.49673394  0.74951630  1
  As  As11  1  0.24105986  0.74247306  0.49021098  1
  As  As12  1  0.50043307  0.50032602  0.50006732  1
  As  As13  1  0.49731142  -0.00044830  0.99986429  1
  As  As14  1  0.50103244  0.25072859  0.24802396  1
  As  As15  1  0.49045130  0.24140741  0.74264074  1
  As  As16  1  0.49640930  0.75001714  0.25081278  1
  As  As17  1  0.50086803  0.75205609  0.75042999  1
  As  As18  1  0.75127440  0.24996449  0.49736478  1
  As  As19  1  0.75110140  0.49816814  0.24854205  1
  As  As20  1  0.75011241  0.50111512  0.75170036  1
  As  As21  1  0.75045692  0.75183479  0.50255827  1
  As  As22  1  0.75822833  0.24162929  0.98823480  1
  As  As23  1  0.75925470  0.98987085  0.24034997  1
  As  As24  1  0.75947081  0.01064740  0.75979442  1
  As  As25  1  0.75955837  0.75982112  0.01101733  1
  As  As26  1  0.01131364  0.24169250  0.24146297  1
  As  As27  1  0.00116054  0.49980268  0.00006971  1
  Cu  Cu0  1  0.11904888  0.12032865  0.37950878  1
  Cu  Cu1  1  0.12026310  0.37835472  0.12124320  1
  Cu  Cu2  1  0.12506047  0.11673446  0.61968025  1
  Cu  Cu3  1  0.11661401  0.61915851  0.12558054  1
  Cu  Cu4  1  0.11892622  0.37961039  0.88086757  1
  Cu  Cu5  1  0.11636245  0.87479931  0.38062488  1
  Cu  Cu6  1  0.11906057  0.62137634  0.88011531  1
  Cu  Cu7  1  0.11933462  0.88217368  0.62492077  1
  Cu  Cu8  1  0.17257432  0.32912457  0.33858968  1
  Cu  Cu9  1  0.15965998  0.32719174  0.67089469  1
  Cu  Cu10  1  0.16910667  0.66852531  0.66785721  1
  Cu  Cu11  1  0.17100860  0.16744557  0.83030662  1
  Cu  Cu12  1  0.16842509  0.82938960  0.17062614  1
  Cu  Cu13  1  0.32661261  0.67034504  0.15994593  1
  Cu  Cu14  1  0.33187864  0.66754954  0.83175021  1
  Cu  Cu15  1  0.32720299  0.82817945  0.66203645  1
  Cu  Cu16  1  0.33130076  0.16870508  0.33244129  1
  Cu  Cu17  1  0.32882796  0.33894643  0.17171479  1
  Cu  Cu18  1  0.32905407  0.32713050  0.84034107  1
  Cu  Cu19  1  0.32704235  0.84154343  0.33024598  1
  Cu  Cu20  1  0.38077157  0.38154634  0.38088724  1
  Cu  Cu21  1  0.37881934  0.37690741  0.62177132  1
  Cu  Cu22  1  0.37667621  0.62207705  0.37827543  1
  Cu  Cu23  1  0.38131584  0.62068697  0.61838629  1
  Cu  Cu24  1  0.37744110  0.12080860  0.12059106  1
  Cu  Cu25  1  0.38047124  0.11685443  0.87483551  1
  Cu  Cu26  1  0.37938689  0.88088758  0.11950505  1
  Cu  Cu27  1  0.37308598  0.88114425  0.87845110  1
  Cu  Cu28  1  0.61883167  0.11814679  0.11767153  1
  Cu  Cu29  1  0.62009432  0.11930048  0.88094272  1
  Cu  Cu30  1  0.62076821  0.88099510  0.11926504  1
  Cu  Cu31  1  0.61909250  0.88209964  0.88258464  1
  Cu  Cu32  1  0.62298579  0.37875611  0.37774526  1
  Cu  Cu33  1  0.61909423  0.38087962  0.61956528  1
  Cu  Cu34  1  0.62003364  0.61922781  0.38107362  1
  Cu  Cu35  1  0.62263220  0.62277982  0.62207767  1
  Cu  Cu36  1  0.67166787  0.15941224  0.32699375  1
  Cu  Cu37  1  0.67255704  0.32738114  0.15868442  1
  Cu  Cu38  1  0.66787593  0.16889789  0.66827243  1
  Cu  Cu39  1  0.66029469  0.32906982  0.82857149  1
  Cu  Cu40  1  0.66728252  0.66789467  0.16831954  1
  Cu  Cu41  1  0.66709171  0.83242724  0.33260469  1
  Cu  Cu42  1  0.67175538  0.67285393  0.84099864  1
  Cu  Cu43  1  0.67119571  0.84226307  0.67280865  1
  Cu  Cu44  1  0.83163401  0.16959030  0.16815619  1
  Cu  Cu45  1  0.83048460  0.83063452  0.83077526  1
  Cu  Cu46  1  0.84202739  0.32855472  0.32709194  1
  Cu  Cu47  1  0.83303103  0.33256396  0.66715399  1
  Cu  Cu48  1  0.83129193  0.66958191  0.33102551  1
  Cu  Cu49  1  0.84174528  0.67184813  0.67186957  1
  Cu  Cu50  1  0.88183083  0.11833594  0.38072992  1
  Cu  Cu51  1  0.88056759  0.11891642  0.62095202  1
  Cu  Cu52  1  0.88172813  0.38060010  0.11710450  1
  Cu  Cu53  1  0.87923510  0.37796731  0.88008837  1
  Cu  Cu54  1  0.88246104  0.62526043  0.11920939  1
  Cu  Cu55  1  0.88230844  0.88087247  0.37499430  1
  Cu  Cu56  1  0.88149582  0.61891165  0.88198284  1
  Cu  Cu57  1  0.88116199  0.88274759  0.61940936  1
loop_
_geom_bond_atom_site_label_1
_geom_bond_atom_site_label_2
_geom_bond_distance
_geom_bond_site_symmetry_2
Ag0 Cu11 2.834064 1_565
Ag0 Cu45 2.854382 1_455
Ag0 As3 2.924267 1_555
Ag0 Ag3 2.957502 1_555
Ag0 As1 2.969039 1_465
Ag0 As24 2.981021 1_465
Ag0 Ag19 2.985072 1_565
Ag0 Ag18 2.993302 1_465
Ag0 Ag1 3.005306 1_456
Ag0 Cu7 3.038640 1_555
Ag0 As6 3.077754 1_555
Ag0 Cu57 3.110346 1_455
Ag0 Cu51 3.132024 1_465
Ag0 Cu2 3.135037 1_565
Ag1 Cu12 2.835579 1_655
Ag1 Cu45 2.849549 1_554
Ag1 As25 2.927976 1_555
Ag1 Ag23 2.955771 1_555
Ag1 As7 2.963380 1_654
Ag1 As3 2.969477 1_654
Ag1 Ag18 2.978354 1_564
Ag1 Ag3 2.993895 1_654
Ag1 Cu54 3.038443 1_555
Ag1 As2 3.054435 1_555
Ag1 Cu56 3.117642 1_554
Ag1 Cu6 3.127964 1_654
Ag1 Cu3 3.141532 1_655
Ag2 Cu10 2.831477 1_555
Ag2 Cu48 2.831483 1_455
Ag2 Cu49 2.844948 1_455
Ag2 As11 2.907654 1_555
Ag2 Ag21 2.957908 1_555
Ag2 Cu5 2.993527 1_555
Ag2 Ag4 2.997129 1_555
Ag2 Ag22 3.020045 1_555
Ag2 As2 3.023375 1_455
Ag2 As21 3.128781 1_455
Ag2 Cu55 3.130050 1_455
Ag2 Cu7 3.150101 1_555
Ag2 Cu57 3.166504 1_455
Ag2 As3 3.267564 1_555
Ag3 Cu11 2.837351 1_565
Ag3 Cu12 2.860973 1_556
Ag3 As7 2.937710 1_555
Ag3 As5 2.975098 1_566
Ag3 As4 2.990322 1_566
Ag3 Cu27 3.045634 1_555
Ag3 As6 3.086433 1_555
Ag3 Cu26 3.109966 1_556
Ag3 Cu24 3.127018 1_566
Ag3 Cu25 3.147415 1_565
Ag4 Cu8 2.785491 1_555
Ag4 Cu10 2.822386 1_555
Ag4 Cu9 2.926178 1_555
Ag4 As9 2.930977 1_555
Ag4 As11 2.943712 1_555
Ag4 Cu22 3.065655 1_555
Ag4 Cu20 3.083052 1_555
Ag4 As10 3.085319 1_555
Ag4 Cu23 3.096323 1_555
Ag4 Cu21 3.127137 1_555
Ag4 As8 3.216816 1_555
Ag5 Cu13 2.770517 1_555
Ag5 Cu18 2.786308 1_554
Ag5 Cu17 2.789171 1_555
Ag5 Cu14 2.829571 1_554
Ag5 Ag7 3.016040 1_554
Ag5 As10 3.082540 1_554
Ag5 Cu4 3.115881 1_554
Ag5 Cu1 3.123377 1_555
Ag5 Cu6 3.133585 1_554
Ag5 Cu3 3.169610 1_555
Ag5 As9 3.195984 1_555
Ag5 As4 3.199631 1_555
Ag5 As7 3.217134 1_554
Ag6 Cu15 2.800404 1_545
Ag6 Cu19 2.823206 1_545
Ag6 Cu16 2.835911 1_555
Ag6 As8 2.912107 1_555
Ag6 Cu2 2.984054 1_555
Ag6 As6 2.996222 1_545
Ag6 Ag9 2.998958 1_555
Ag6 Ag8 3.021308 1_545
Ag6 Cu7 3.114115 1_545
Ag6 Cu0 3.116522 1_555
Ag6 Cu5 3.198747 1_545
Ag6 As11 3.237365 1_545
Ag6 As5 3.249871 1_555
Ag7 Cu39 2.783592 1_555
Ag7 Cu14 2.819398 1_555
Ag7 Cu18 2.890673 1_555
Ag7 Cu42 2.906742 1_555
Ag7 As10 3.072475 1_555
Ag7 As20 3.082515 1_555
Ag7 Cu33 3.105148 1_555
Ag7 As17 3.108443 1_555
Ag7 Cu21 3.113158 1_555
Ag7 Cu23 3.125265 1_555
Ag7 Cu35 3.130141 1_555
Ag7 As15 3.200388 1_555
Ag8 Cu15 2.781627 1_555
Ag8 Cu41 2.836323 1_555
Ag8 Cu19 2.875482 1_555
Ag8 Cu43 2.897158 1_555
Ag8 As17 3.071614 1_555
Ag8 As16 3.091402 1_555
Ag8 Cu23 3.106122 1_555
Ag8 As21 3.115381 1_555
Ag8 Cu22 3.144923 1_555
Ag8 Cu35 3.149679 1_555
Ag8 Cu34 3.160794 1_555
Ag8 As11 3.199866 1_555
Ag9 Cu16 2.821246 1_555
Ag9 Cu38 2.822733 1_555
Ag9 Cu36 2.932620 1_555
Ag9 As15 2.940871 1_555
Ag9 As8 2.945422 1_555
Ag9 Cu21 3.066539 1_555
Ag9 Cu33 3.098800 1_555
Ag9 Cu20 3.107399 1_555
Ag9 As18 3.114209 1_555
Ag9 As14 3.119098 1_555
Ag9 Cu32 3.141611 1_555
Ag10 Cu17 2.789309 1_555
Ag10 Cu40 2.817558 1_555
Ag10 Cu13 2.889670 1_555
Ag10 Cu37 2.911907 1_555
Ag10 Ag11 2.996366 1_555
Ag10 Ag13 3.003813 1_554
Ag10 Ag15 3.007614 1_554
Ag10 Ag5 3.008002 1_555
Ag10 As14 3.071513 1_555
Ag10 As16 3.080253 1_555
Ag10 As19 3.094180 1_555
Ag10 Cu20 3.111235 1_555
Ag10 Cu34 3.116260 1_555
Ag10 Cu32 3.121329 1_555
Ag10 Cu22 3.122094 1_555
Ag10 As9 3.211909 1_555
Ag11 Cu42 2.786300 1_554
Ag11 Cu13 2.790623 1_555
Ag11 Cu40 2.818362 1_555
Ag11 Cu14 2.819295 1_554
Ag11 Ag15 2.997957 1_554
Ag11 Ag7 3.000016 1_554
Ag11 Ag5 3.002419 1_555
Ag11 As16 3.085254 1_555
Ag11 As17 3.090842 1_554
Ag11 Cu26 3.130629 1_555
Ag11 Cu30 3.137901 1_555
Ag11 Cu31 3.139516 1_554
Ag11 Cu27 3.187273 1_554
Ag11 As7 3.229460 1_554
Ag11 As25 3.240639 1_555
Ag12 Cu19 2.778124 1_545
Ag12 Cu36 2.787575 1_555
Ag12 Cu16 2.809602 1_555
Ag12 Cu41 2.834351 1_545
Ag12 Ag16 2.969948 1_555
Ag12 Ag8 2.980653 1_545
Ag12 Ag9 2.998365 1_555
Ag12 Ag6 3.026790 1_555
Ag12 As14 3.098402 1_555
Ag12 As16 3.100080 1_545
Ag12 Cu26 3.140257 1_545
Ag12 Cu24 3.144169 1_555
Ag12 Cu28 3.157101 1_555
Ag12 Cu30 3.163320 1_545
Ag12 As5 3.220689 1_555
Ag12 As23 3.255712 1_545
Ag13 Cu18 2.767985 1_555
Ag13 Cu37 2.786402 1_556
Ag13 Cu39 2.798066 1_555
Ag13 Cu17 2.871127 1_556
Ag13 Ag15 2.995968 1_555
Ag13 Ag5 3.001356 1_556
Ag13 Ag7 3.015096 1_555
Ag13 As14 3.050258 1_556
Ag13 Cu28 3.121660 1_556
Ag13 Cu24 3.122276 1_556
Ag13 Cu29 3.125214 1_555
Ag13 Cu25 3.164915 1_555
Ag13 As4 3.180402 1_556
Ag13 As15 3.194190 1_555
Ag13 As22 3.221040 1_555
Ag14 Cu43 2.839280 1_545
Ag14 Cu38 2.847104 1_555
Ag14 Cu15 2.884687 1_545
Ag14 As15 2.916072 1_555
Ag14 Ag6 2.952175 1_555
Ag14 Cu25 2.987724 1_555
Ag14 Ag9 2.993640 1_555
Ag14 As6 2.997866 1_545
Ag14 Ag8 3.008279 1_545
Ag14 Ag16 3.019864 1_555
Ag14 As17 3.098893 1_545
Ag14 Cu27 3.114586 1_545
Ag14 Cu29 3.117151 1_555
Ag14 Cu31 3.161266 1_545
Ag14 As24 3.281180 1_555
Ag15 Cu37 2.784147 1_556
Ag15 Cu42 2.789280 1_555
Ag15 Cu40 2.835120 1_556
Ag15 Cu39 2.856481 1_555
Ag15 Ag7 2.988215 1_555
Ag15 As20 3.053282 1_555
Ag15 As19 3.082438 1_556
Ag15 Cu53 3.125734 1_555
Ag15 Cu52 3.132566 1_556
Ag15 Cu56 3.133420 1_555
Ag15 Cu54 3.189883 1_556
Ag15 As22 3.203019 1_555
Ag15 As25 3.247329 1_556
Ag16 Cu43 2.777675 1_545
Ag16 Cu36 2.792811 1_555
Ag16 Cu38 2.803610 1_555
Ag16 Cu41 2.827207 1_545
Ag16 Ag8 2.979854 1_545
Ag16 Ag9 2.996469 1_555
Ag16 As18 3.086275 1_555
Ag16 As21 3.092198 1_545
Ag16 Cu51 3.144317 1_555
Ag16 Cu57 3.149769 1_545
Ag16 Cu50 3.161332 1_555
Ag16 Cu55 3.211498 1_545
Ag16 As24 3.223289 1_555
Ag16 As23 3.250010 1_545
Ag17 Cu48 2.815847 1_555
Ag17 Cu47 2.837188 1_555
Ag17 Cu49 2.883907 1_555
Ag17 Cu46 2.891428 1_555
Ag17 Ag22 2.968246 1_655
Ag17 Ag20 2.982679 1_655
Ag17 Ag2 3.004751 1_655
Ag17 Ag21 3.010794 1_655
Ag17 As19 3.086921 1_555
Ag17 As21 3.097945 1_555
Ag17 As18 3.112278 1_555
Ag17 As20 3.129328 1_555
Ag17 Cu34 3.130809 1_555
Ag17 Cu32 3.147093 1_555
Ag17 Cu35 3.157975 1_555
Ag17 Cu33 3.177923 1_555
Ag18 Cu44 2.828220 1_556
Ag18 Cu45 2.837916 1_545
Ag18 As24 2.934734 1_555
Ag18 As22 2.958937 1_555
Ag18 As23 2.961685 1_546
Ag18 As25 2.965682 1_546
Ag18 Ag19 2.969311 1_655
Ag18 Ag23 2.980381 1_546
Ag18 Cu29 3.120683 1_555
Ag18 Cu31 3.123017 1_545
Ag18 Cu28 3.127642 1_556
Ag18 Cu30 3.138583 1_546
Ag19 Cu44 2.838797 1_456
Ag19 Cu11 2.844633 1_555
Ag19 As26 2.965193 1_556
Ag19 As1 2.966609 1_455
Ag19 As4 2.970880 1_556
Ag19 Ag3 2.984370 1_545
Ag19 As22 2.993033 1_455
Ag19 Ag23 2.995910 1_446
Ag19 Cu4 3.122248 1_555
Ag19 Cu1 3.125038 1_556
Ag19 Cu52 3.130621 1_456
Ag19 Cu53 3.137655 1_455
Ag20 Cu9 2.772242 1_555
Ag20 Cu8 2.775636 1_555
Ag20 Cu46 2.777026 1_455
Ag20 Cu47 2.832855 1_455
Ag20 Ag22 2.978389 1_555
Ag20 Ag4 3.013723 1_555
Ag20 Ag21 3.018119 1_555
Ag20 As18 3.097256 1_455
Ag20 Cu0 3.113582 1_555
Ag20 Cu50 3.138679 1_455
Ag20 Cu51 3.172789 1_455
Ag20 As8 3.189508 1_555
Ag20 As26 3.192585 1_555
Ag20 Cu2 3.196308 1_555
Ag20 As1 3.233212 1_455
Ag21 Cu46 2.837589 1_455
Ag21 Cu48 2.853595 1_455
Ag21 Cu8 2.881582 1_555
Ag21 As9 2.894911 1_555
Ag21 Ag4 2.987889 1_555
Ag21 Cu3 2.988480 1_555
Ag21 As2 3.037147 1_455
Ag21 Cu1 3.094492 1_555
Ag21 As19 3.125706 1_455
Ag21 Cu54 3.134672 1_455
Ag21 Cu52 3.158351 1_455
Ag21 As26 3.239583 1_555
Ag22 Cu49 2.775452 1_455
Ag22 Cu9 2.790738 1_555
Ag22 Cu10 2.812317 1_555
Ag22 Cu47 2.830998 1_455
Ag22 Ag4 3.007253 1_555
Ag22 As10 3.081913 1_555
Ag22 As20 3.117050 1_455
Ag22 Cu6 3.131321 1_555
Ag22 Cu56 3.150398 1_455
Ag22 Cu4 3.150526 1_555
Ag22 Cu53 3.180220 1_455
Ag22 As3 3.223808 1_555
Ag22 As1 3.253618 1_455
Ag23 Cu12 2.841369 1_655
Ag23 Cu44 2.844620 1_565
Ag23 As23 2.942120 1_555
Ag23 As5 2.953042 1_665
Ag23 As26 2.982139 1_665
Ag23 Ag3 3.013839 1_654
Ag23 Cu55 3.050183 1_555
Ag23 As2 3.073445 1_555
Ag23 Cu50 3.111472 1_565
Ag23 Cu0 3.123778 1_665
Ag23 Cu5 3.135444 1_655
As0 Cu57 2.442773 1_455
As0 Cu50 2.447960 1_465
As0 Cu5 2.460637 1_555
As0 Cu0 2.461282 1_565
As0 Cu2 2.468269 1_565
As0 Cu51 2.469667 1_465
As0 Cu7 2.471729 1_555
As0 Cu55 2.480763 1_455
As1 Cu47 2.430975 1_555
As1 Cu11 2.452087 1_655
As1 Cu9 2.474718 1_655
As1 Cu51 2.532270 1_555
As1 Cu53 2.559254 1_555
As1 Cu4 2.672506 1_655
As1 Cu2 2.705054 1_655
As2 Cu48 2.405619 1_555
As2 Cu12 2.416045 1_655
As2 Cu54 2.546004 1_555
As2 Cu55 2.552639 1_555
As2 Cu3 2.553661 1_655
As2 Cu5 2.553826 1_655
As3 Cu10 2.429630 1_555
As3 Cu45 2.444362 1_455
As3 Cu49 2.484706 1_455
As3 Cu7 2.520888 1_555
As3 Cu6 2.528561 1_555
As3 Cu56 2.690438 1_455
As3 Cu57 2.695446 1_455
As4 Cu11 2.451574 1_554
As4 Cu17 2.458112 1_555
As4 Cu18 2.474225 1_554
As4 Cu24 2.511657 1_555
As4 Cu1 2.551919 1_555
As4 Cu4 2.686449 1_554
As4 Cu25 2.716742 1_554
As5 Cu16 2.431924 1_555
As5 Cu12 2.441198 1_545
As5 Cu19 2.475437 1_545
As5 Cu0 2.537207 1_555
As5 Cu24 2.553566 1_555
As5 Cu26 2.676394 1_545
As5 Cu5 2.717708 1_545
As6 Cu11 2.424863 1_565
As6 Cu15 2.432102 1_555
As6 Cu27 2.527068 1_555
As6 Cu7 2.545942 1_555
As6 Cu25 2.560576 1_565
As6 Cu2 2.563433 1_565
As7 Cu14 2.428650 1_555
As7 Cu12 2.441139 1_556
As7 Cu13 2.485461 1_556
As7 Cu6 2.525625 1_555
As7 Cu27 2.535988 1_555
As7 Cu26 2.682018 1_556
As7 Cu3 2.722091 1_556
As8 Cu16 2.433894 1_555
As8 Cu9 2.452522 1_555
As8 Cu8 2.494757 1_555
As8 Cu2 2.523387 1_555
As8 Cu21 2.529537 1_555
As8 Cu0 2.671957 1_555
As8 Cu20 2.693143 1_555
As9 Cu13 2.468027 1_555
As9 Cu8 2.470913 1_555
As9 Cu17 2.484409 1_555
As9 Cu3 2.522890 1_555
As9 Cu22 2.537683 1_555
As9 Cu1 2.652419 1_555
As9 Cu20 2.675230 1_555
As10 Cu14 2.444765 1_555
As10 Cu10 2.456907 1_555
As10 Cu9 2.463703 1_555
As10 Cu18 2.466735 1_555
As10 Cu21 2.572910 1_555
As10 Cu4 2.609566 1_555
As10 Cu23 2.645309 1_555
As10 Cu6 2.647853 1_555
As11 Cu10 2.437024 1_555
As11 Cu19 2.455167 1_555
As11 Cu15 2.491861 1_555
As11 Cu5 2.519833 1_555
As11 Cu22 2.526660 1_555
As11 Cu23 2.678312 1_555
As11 Cu7 2.715148 1_555
As12 Cu20 2.446321 1_555
As12 Cu23 2.448700 1_555
As12 Cu33 2.450360 1_555
As12 Cu34 2.450609 1_555
As12 Cu32 2.507826 1_555
As12 Cu35 2.508162 1_555
As12 Cu21 2.514016 1_555
As12 Cu22 2.516841 1_555
As13 Cu31 2.440315 1_545
As13 Cu26 2.441950 1_546
As13 Cu28 2.448662 1_556
As13 Cu25 2.462180 1_555
As13 Cu24 2.476394 1_556
As13 Cu30 2.476811 1_546
As13 Cu29 2.477972 1_555
As13 Cu27 2.490775 1_545
As14 Cu16 2.452290 1_555
As14 Cu17 2.468526 1_555
As14 Cu37 2.469831 1_555
As14 Cu36 2.480809 1_555
As14 Cu32 2.598082 1_555
As14 Cu24 2.606323 1_555
As14 Cu28 2.608717 1_555
As14 Cu20 2.629699 1_555
As15 Cu38 2.439353 1_555
As15 Cu18 2.457934 1_555
As15 Cu39 2.484851 1_555
As15 Cu25 2.520913 1_555
As15 Cu21 2.529902 1_555
As15 Cu29 2.675879 1_555
As15 Cu33 2.685370 1_555
As16 Cu41 2.447903 1_555
As16 Cu40 2.452813 1_555
As16 Cu19 2.470640 1_555
As16 Cu13 2.471130 1_555
As16 Cu22 2.572682 1_555
As16 Cu26 2.601920 1_555
As16 Cu34 2.636700 1_555
As16 Cu30 2.652894 1_555
As17 Cu14 2.442204 1_555
As17 Cu43 2.466999 1_555
As17 Cu42 2.480152 1_555
As17 Cu15 2.482689 1_555
As17 Cu35 2.597167 1_555
As17 Cu31 2.605025 1_555
As17 Cu23 2.622055 1_555
As17 Cu27 2.634064 1_555
As18 Cu47 2.436193 1_555
As18 Cu38 2.452795 1_555
As18 Cu36 2.471214 1_555
As18 Cu46 2.471938 1_555
As18 Cu32 2.582751 1_555
As18 Cu50 2.596594 1_555
As18 Cu51 2.631629 1_555
As18 Cu33 2.638610 1_555
As19 Cu40 2.440901 1_555
As19 Cu48 2.446832 1_555
As19 Cu46 2.467801 1_555
As19 Cu37 2.469283 1_555
As19 Cu32 2.583924 1_555
As19 Cu52 2.601345 1_555
As19 Cu34 2.634527 1_555
As19 Cu54 2.658447 1_555
As20 Cu47 2.442062 1_555
As20 Cu42 2.475460 1_555
As20 Cu39 2.478793 1_555
As20 Cu49 2.488556 1_555
As20 Cu35 2.596146 1_555
As20 Cu56 2.598767 1_555
As20 Cu53 2.608795 1_555
As20 Cu33 2.624811 1_555
As21 Cu41 2.440044 1_555
As21 Cu48 2.448372 1_555
As21 Cu43 2.468877 1_555
As21 Cu49 2.470662 1_555
As21 Cu35 2.581737 1_555
As21 Cu57 2.592783 1_555
As21 Cu34 2.632356 1_555
As21 Cu55 2.663076 1_555
As22 Cu39 2.451939 1_555
As22 Cu44 2.457431 1_556
As22 Cu37 2.477614 1_556
As22 Cu53 2.516811 1_555
As22 Cu29 2.529582 1_555
As22 Cu52 2.680133 1_556
As22 Cu28 2.692621 1_556
As23 Cu41 2.427619 1_555
As23 Cu44 2.455148 1_565
As23 Cu36 2.484581 1_565
As23 Cu55 2.521449 1_555
As23 Cu30 2.533006 1_555
As23 Cu50 2.681414 1_565
As23 Cu28 2.686121 1_565
As24 Cu38 2.427501 1_555
As24 Cu45 2.447221 1_545
As24 Cu43 2.477987 1_545
As24 Cu51 2.536784 1_555
As24 Cu29 2.540228 1_555
As24 Cu57 2.673191 1_545
As24 Cu31 2.689452 1_545
As25 Cu40 2.423713 1_555
As25 Cu45 2.446347 1_554
As25 Cu42 2.488771 1_554
As25 Cu54 2.515638 1_555
As25 Cu30 2.533669 1_555
As25 Cu31 2.684754 1_554
As25 Cu56 2.686520 1_554
As26 Cu44 2.455323 1_455
As26 Cu8 2.460715 1_555
As26 Cu46 2.475198 1_455
As26 Cu1 2.518773 1_555
As26 Cu0 2.528367 1_555
As26 Cu50 2.691048 1_455
As26 Cu52 2.694901 1_455
As27 Cu52 2.438205 1_455
As27 Cu4 2.444314 1_554
As27 Cu56 2.445291 1_454
As27 Cu6 2.464053 1_554
As27 Cu3 2.465998 1_555
As27 Cu1 2.478669 1_555
As27 Cu54 2.487052 1_455
As27 Cu53 2.488287 1_454
Cu0 Cu8 2.604621 1_555
Cu0 Cu16 2.644085 1_555
Cu0 Cu50 2.815906 1_455
Cu0 Cu2 2.846202 1_555
Cu0 Cu5 2.913869 1_545
Cu1 Cu17 2.589309 1_555
Cu1 Cu8 2.713057 1_555
Cu1 Cu52 2.831912 1_455
Cu1 Cu4 2.847455 1_554
Cu1 Cu3 2.858218 1_555
Cu2 Cu9 2.601137 1_555
Cu2 Cu7 2.785147 1_545
Cu2 Cu51 2.902277 1_455
Cu3 Cu54 2.781304 1_455
Cu3 Cu6 2.907983 1_554
Cu4 Cu9 2.607825 1_555
Cu4 Cu53 2.845191 1_455
Cu4 Cu6 2.869010 1_555
Cu5 Cu55 2.779902 1_455
Cu5 Cu7 2.895077 1_555
Cu10 Cu23 2.647812 1_555
Cu10 Cu7 2.653617 1_555
Cu11 Cu25 2.611578 1_555
Cu11 Cu2 2.622033 1_555
Cu11 Cu4 2.659462 1_555
Cu12 Cu5 2.618266 1_555
Cu12 Cu3 2.622885 1_555
Cu13 Cu3 2.597189 1_555
Cu14 Cu23 2.652575 1_555
Cu15 Cu7 2.586874 1_555
Cu15 Cu23 2.595531 1_555
Cu16 Cu20 2.654362 1_555
Cu16 Cu8 2.679302 1_555
Cu17 Cu20 2.601261 1_555
Cu17 Cu8 2.714189 1_555
Cu18 Cu25 2.602080 1_555
Cu18 Cu4 2.615243 1_555
Cu19 Cu5 2.601242 1_555
Cu20 Cu8 2.596533 1_555
Cu20 Cu21 2.854146 1_555
Cu20 Cu22 2.854975 1_555
Cu20 Cu32 2.875521 1_555
Cu21 Cu33 2.852571 1_555
Cu21 Cu23 2.893398 1_555
Cu22 Cu23 2.844795 1_555
Cu23 Cu35 2.864818 1_555
Cu24 Cu28 2.865694 1_555
Cu24 Cu25 2.911578 1_554
Cu25 Cu27 2.798917 1_545
Cu25 Cu29 2.845326 1_555
Cu27 Cu31 2.920479 1_555
Cu28 Cu36 2.602485 1_555
Cu28 Cu37 2.607885 1_555
Cu28 Cu44 2.665857 1_555
Cu28 Cu29 2.804265 1_554
Cu28 Cu30 2.814422 1_545
Cu29 Cu39 2.610958 1_555
Cu29 Cu38 2.650198 1_555
Cu29 Cu31 2.814941 1_545
Cu30 Cu31 2.803695 1_554
Cu31 Cu43 2.603213 1_555
Cu31 Cu42 2.606412 1_555
Cu31 Cu45 2.654424 1_555
Cu32 Cu33 2.864905 1_555
Cu33 Cu39 2.598585 1_555
Cu33 Cu38 2.646320 1_555
Cu33 Cu47 2.663640 1_555
Cu33 Cu35 2.870951 1_555
Cu36 Cu50 2.620203 1_555
Cu37 Cu52 2.609404 1_555
Cu42 Cu56 2.616039 1_555
Cu43 Cu57 2.616463 1_555
Cu44 Cu52 2.645229 1_555
Cu44 Cu50 2.659161 1_555
Cu45 Cu57 2.650013 1_555
Cu45 Cu56 2.655992 1_555
Cu46 Cu52 2.607646 1_555
Cu46 Cu50 2.618710 1_555
Cu49 Cu56 2.611147 1_555
Cu49 Cu57 2.622330 1_555
Cu50 Cu55 2.818571 1_545
Cu50 Cu51 2.845567 1_555
Cu51 Cu57 2.802576 1_545
Cu52 Cu53 2.807783 1_554
Cu52 Cu54 2.903377 1_555
Cu53 Cu56 2.859380 1_555
Cu54 Cu56 2.810880 1_554
Cu55 Cu57 2.895264 1_555
Cu56 Cu6 2.820128 1_655
Cu57 Cu7 2.827812 1_655
