# generated using pymatgen
data_Y4TiSi2(O3F2)3
_symmetry_space_group_name_H-M   'P 1'
_cell_length_a   9.22893371
_cell_length_b   9.22893371
_cell_length_c   7.12522500
_cell_angle_alpha   90.00000000
_cell_angle_beta   90.00000000
_cell_angle_gamma   109.11065916
_symmetry_Int_Tables_number   1
_chemical_formula_structural   Y4TiSi2(O3F2)3
_chemical_formula_sum   'Y8 Ti2 Si4 O18 F12'
_cell_volume   573.43207129
_cell_formula_units_Z   2
loop_
 _symmetry_equiv_pos_site_id
 _symmetry_equiv_pos_as_xyz
  1  'x, y, z'
loop_
 _atom_site_type_symbol
 _atom_site_label
 _atom_site_symmetry_multiplicity
 _atom_site_fract_x
 _atom_site_fract_y
 _atom_site_fract_z
 _atom_site_occupancy
  Y  Y0  1  0.58244400  0.28940800  0.25000000  1
  Y  Y1  1  0.07561700  0.33674700  0.75000000  1
  Y  Y2  1  0.28940800  0.58244400  0.25000000  1
  Y  Y3  1  0.41755600  0.71059200  0.75000000  1
  Y  Y4  1  0.33674700  0.07561700  0.75000000  1
  Y  Y5  1  0.66325300  0.92438300  0.25000000  1
  Y  Y6  1  0.71059200  0.41755600  0.75000000  1
  Y  Y7  1  0.92438300  0.66325300  0.25000000  1
  Ti  Ti0  1  0.00000000  0.00000000  0.50000000  1
  Ti  Ti1  1  0.00000000  0.00000000  0.00000000  1
  Si  Si0  1  0.27730100  0.96355500  0.25000000  1
  Si  Si1  1  0.72269900  0.03644500  0.75000000  1
  Si  Si2  1  0.96355500  0.27730100  0.25000000  1
  Si  Si3  1  0.03644500  0.72269900  0.75000000  1
  O  O0  1  0.22095300  0.03227400  0.44297300  1
  O  O1  1  0.02872200  0.46563200  0.25000000  1
  O  O2  1  0.06164900  0.06164900  0.75000000  1
  O  O3  1  0.97127800  0.53436800  0.75000000  1
  O  O4  1  0.80563700  0.22301600  0.75000000  1
  O  O5  1  0.77904700  0.96772600  0.94297300  1
  O  O6  1  0.22301600  0.80563700  0.75000000  1
  O  O7  1  0.22095300  0.03227400  0.05702700  1
  O  O8  1  0.03227400  0.22095300  0.44297300  1
  O  O9  1  0.96772600  0.77904700  0.55702700  1
  O  O10  1  0.03227400  0.22095300  0.05702700  1
  O  O11  1  0.53436800  0.97127800  0.75000000  1
  O  O12  1  0.96772600  0.77904700  0.94297300  1
  O  O13  1  0.46563200  0.02872200  0.25000000  1
  O  O14  1  0.19436300  0.77698400  0.25000000  1
  O  O15  1  0.77904700  0.96772600  0.55702700  1
  O  O16  1  0.77698400  0.19436300  0.25000000  1
  O  O17  1  0.93835100  0.93835100  0.25000000  1
  F  F0  1  0.24524400  0.52885500  0.93861100  1
  F  F1  1  0.75475600  0.47114500  0.43861100  1
  F  F2  1  0.69913600  0.69913600  0.25000000  1
  F  F3  1  0.58413200  0.58413200  0.75000000  1
  F  F4  1  0.30086400  0.30086400  0.75000000  1
  F  F5  1  0.75475600  0.47114500  0.06138900  1
  F  F6  1  0.41586800  0.41586800  0.25000000  1
  F  F7  1  0.52885500  0.24524400  0.93861100  1
  F  F8  1  0.47114500  0.75475600  0.06138900  1
  F  F9  1  0.24524400  0.52885500  0.56138900  1
  F  F10  1  0.47114500  0.75475600  0.43861100  1
  F  F11  1  0.52885500  0.24524400  0.56138900  1
loop_
_geom_bond_atom_site_label_1
_geom_bond_atom_site_label_2
_geom_bond_distance
_geom_bond_site_symmetry_2
O0 Si0 1.667081 1_545
O0 Ti0 2.003571 1_555
O0 Y4 2.409955 1_555
O1 Si2 1.642624 1_455
O1 Y2 2.291735 1_555
O1 Y7 2.324558 1_455
O2 Ti0 1.899608 1_555
O2 Ti1 1.899608 1_556
O2 Y1 2.499626 1_555
O2 Y4 2.499626 1_555
O3 Si3 1.642624 1_655
O3 Y6 2.291735 1_555
O3 Y1 2.324558 1_655
O4 Si1 1.639413 1_555
O4 Y6 2.241442 1_555
O4 Y1 2.365897 1_655
O5 Si1 1.667081 1_565
O5 Ti1 2.003571 1_666
O5 Y5 2.409955 1_556
O6 Si3 1.639413 1_555
O6 Y3 2.241442 1_555
O6 Y4 2.365897 1_565
O7 Si0 1.667081 1_545
O7 Ti1 2.003571 1_555
O7 Y4 2.409955 1_554
O8 Si2 1.667081 1_455
O8 Ti0 2.003571 1_555
O8 Y1 2.409955 1_555
O9 Si3 1.667081 1_655
O9 Ti0 2.003571 1_665
O9 Y7 2.409955 1_555
O10 Si2 1.667081 1_455
O10 Ti1 2.003571 1_555
O10 Y1 2.409955 1_554
O11 Si1 1.642624 1_565
O11 Y3 2.291735 1_555
O11 Y4 2.324558 1_565
O12 Si3 1.667081 1_655
O12 Ti1 2.003571 1_666
O12 Y7 2.409955 1_556
O13 Si0 1.642624 1_545
O13 Y0 2.291735 1_555
O13 Y5 2.324558 1_545
O14 Si0 1.639413 1_555
O14 Y2 2.241442 1_555
O14 Y7 2.365897 1_455
O15 Si1 1.667081 1_565
O15 Ti0 2.003571 1_665
O15 Y5 2.409955 1_555
O16 Si2 1.639413 1_555
O16 Y0 2.241442 1_555
O16 Y5 2.365897 1_545
O17 Ti0 1.899608 1_665
O17 Ti1 1.899608 1_665
O17 Y5 2.499626 1_555
O17 Y7 2.499626 1_555
F0 Y2 2.280666 1_556
F0 Y3 2.324140 1_555
F0 Y1 2.362786 1_555
F1 Y6 2.280666 1_555
F1 Y0 2.324140 1_555
F1 Y7 2.362786 1_555
F2 Y7 2.209480 1_555
F2 Y5 2.209480 1_555
F3 Y6 2.213654 1_555
F3 Y3 2.213654 1_555
F4 Y4 2.209480 1_555
F4 Y1 2.209480 1_555
F5 Y6 2.280666 1_554
F5 Y0 2.324140 1_555
F5 Y7 2.362786 1_555
F6 Y0 2.213654 1_555
F6 Y2 2.213654 1_555
F7 Y0 2.280666 1_556
F7 Y6 2.324140 1_555
F7 Y4 2.362786 1_555
F8 Y3 2.280666 1_554
F8 Y2 2.324140 1_555
F8 Y5 2.362786 1_555
F9 Y2 2.280666 1_555
F9 Y3 2.324140 1_555
F9 Y1 2.362786 1_555
F10 Y3 2.280666 1_555
F10 Y2 2.324140 1_555
F10 Y5 2.362786 1_555
F11 Y0 2.280666 1_555
F11 Y6 2.324140 1_555
F11 Y4 2.362786 1_555
