# generated using pymatgen
data_BaMo2Se2O11
_symmetry_space_group_name_H-M   'P 1'
_cell_length_a   9.02146529
_cell_length_b   9.02146529
_cell_length_c   7.99006600
_cell_angle_alpha   90.00000000
_cell_angle_beta   90.00000000
_cell_angle_gamma   126.38225486
_symmetry_Int_Tables_number   1
_chemical_formula_structural   BaMo2Se2O11
_chemical_formula_sum   'Ba2 Mo4 Se4 O22'
_cell_volume   523.53081206
_cell_formula_units_Z   2
loop_
 _symmetry_equiv_pos_site_id
 _symmetry_equiv_pos_as_xyz
  1  'x, y, z'
loop_
 _atom_site_type_symbol
 _atom_site_label
 _atom_site_symmetry_multiplicity
 _atom_site_fract_x
 _atom_site_fract_y
 _atom_site_fract_z
 _atom_site_occupancy
  Ba  Ba0  1  0.23146000  0.23146000  0.33209200  1
  Ba  Ba1  1  0.76854000  0.76854000  0.83209200  1
  Mo  Mo0  1  0.62553900  0.84259800  0.34025500  1
  Mo  Mo1  1  0.37446100  0.15740200  0.84025500  1
  Mo  Mo2  1  0.84259800  0.62553900  0.34025500  1
  Mo  Mo3  1  0.15740200  0.37446100  0.84025500  1
  Se  Se0  1  0.87666600  0.29230300  0.18976900  1
  Se  Se1  1  0.70769700  0.12333400  0.68976900  1
  Se  Se2  1  0.29230300  0.87666600  0.18976900  1
  Se  Se3  1  0.12333400  0.70769700  0.68976900  1
  O  O0  1  0.38462100  0.56592200  0.87086800  1
  O  O1  1  0.81448100  0.81448100  0.41742700  1
  O  O2  1  0.63306900  0.91357000  0.60366900  1
  O  O3  1  0.14853100  0.86486300  0.34022300  1
  O  O4  1  0.91357000  0.63306900  0.60366900  1
  O  O5  1  0.66715600  0.84510900  0.12620000  1
  O  O6  1  0.15489100  0.33284400  0.62620000  1
  O  O7  1  0.08643100  0.36693100  0.10366900  1
  O  O8  1  0.51514900  0.04459800  0.81805700  1
  O  O9  1  0.36693100  0.08643100  0.10366900  1
  O  O10  1  0.61537900  0.43407800  0.37086800  1
  O  O11  1  0.95540200  0.48485100  0.31805700  1
  O  O12  1  0.86486300  0.14853100  0.34022300  1
  O  O13  1  0.43407800  0.61537900  0.37086800  1
  O  O14  1  0.33284400  0.15489100  0.62620000  1
  O  O15  1  0.18551900  0.18551900  0.91742700  1
  O  O16  1  0.85146900  0.13513700  0.84022300  1
  O  O17  1  0.13513700  0.85146900  0.84022300  1
  O  O18  1  0.48485100  0.95540200  0.31805700  1
  O  O19  1  0.84510900  0.66715600  0.12620000  1
  O  O20  1  0.04459800  0.51514900  0.81805700  1
  O  O21  1  0.56592200  0.38462100  0.87086800  1
loop_
_geom_bond_atom_site_label_1
_geom_bond_atom_site_label_2
_geom_bond_distance
_geom_bond_site_symmetry_2
Ba0 O14 2.754171 1_555
Ba0 O6 2.754171 1_555
Ba0 O13 2.814687 1_555
Ba0 O10 2.814687 1_555
Ba0 O9 2.904052 1_555
Ba0 O7 2.904052 1_555
Ba0 O12 2.926849 1_455
Ba0 O3 2.926849 1_545
Ba1 O5 2.754171 1_556
Ba1 O19 2.754171 1_556
Ba1 O0 2.814687 1_555
Ba1 O21 2.814687 1_555
Ba1 O4 2.904058 1_555
Ba1 O2 2.904058 1_555
Ba1 O16 2.926849 1_565
Ba1 O17 2.926849 1_655
Mo0 O13 1.744923 1_555
Mo0 O5 1.748301 1_555
Mo0 O1 1.965430 1_555
Mo0 O18 2.051898 1_555
Mo0 O2 2.189225 1_555
Mo0 O12 2.282460 1_565
Mo1 O21 1.744923 1_555
Mo1 O14 1.748301 1_555
Mo1 O15 1.965430 1_555
Mo1 O8 2.051898 1_555
Mo1 O9 2.189222 1_556
Mo1 O17 2.282460 1_545
Mo2 O10 1.744923 1_555
Mo2 O19 1.748301 1_555
Mo2 O1 1.965430 1_555
Mo2 O11 2.051898 1_555
Mo2 O4 2.189225 1_555
Mo2 O3 2.282460 1_655
Mo3 O0 1.744923 1_555
Mo3 O6 1.748301 1_555
Mo3 O15 1.965430 1_555
Mo3 O20 2.051898 1_555
Mo3 O7 2.189222 1_556
Mo3 O16 2.282460 1_455
O2 Se1 1.730947 1_565
O3 Se2 1.724797 1_555
O4 Se3 1.730947 1_655
O7 Se0 1.730955 1_455
O8 Se1 1.763193 1_555
O9 Se2 1.730955 1_545
O11 Se0 1.763193 1_555
O12 Se0 1.724797 1_555
O16 Se1 1.724797 1_555
O17 Se3 1.724797 1_555
O18 Se2 1.763193 1_555
O20 Se3 1.763193 1_555
