# generated using pymatgen
data_RbCuCl3
_symmetry_space_group_name_H-M   'P 1'
_cell_length_a   7.06061256
_cell_length_b   7.06061256
_cell_length_c   5.97463400
_cell_angle_alpha   90.00000000
_cell_angle_beta   90.00000000
_cell_angle_gamma   120.00000521
_symmetry_Int_Tables_number   1
_chemical_formula_structural   RbCuCl3
_chemical_formula_sum   'Rb2 Cu2 Cl6'
_cell_volume   257.94474003
_cell_formula_units_Z   2
loop_
 _symmetry_equiv_pos_site_id
 _symmetry_equiv_pos_as_xyz
  1  'x, y, z'
loop_
 _atom_site_type_symbol
 _atom_site_label
 _atom_site_symmetry_multiplicity
 _atom_site_fract_x
 _atom_site_fract_y
 _atom_site_fract_z
 _atom_site_occupancy
  Rb  Rb0  1  0.66666700  0.33333300  0.25000000  1
  Rb  Rb1  1  0.33333300  0.66666700  0.75000000  1
  Cu  Cu0  1  0.00000000  0.00000000  0.00000000  1
  Cu  Cu1  1  0.00000000  0.00000000  0.50000000  1
  Cl  Cl0  1  0.31775900  0.15887900  0.75000000  1
  Cl  Cl1  1  0.68224100  0.84112100  0.25000000  1
  Cl  Cl2  1  0.15887900  0.31775900  0.25000000  1
  Cl  Cl3  1  0.84112100  0.15887900  0.75000000  1
  Cl  Cl4  1  0.15887900  0.84112100  0.25000000  1
  Cl  Cl5  1  0.84112100  0.68224100  0.75000000  1
loop_
_geom_bond_atom_site_label_1
_geom_bond_atom_site_label_2
_geom_bond_distance
_geom_bond_site_symmetry_2
Cl0 Cu1 2.450761 1_555
Cl0 Cu0 2.450761 1_556
Cl0 Rb1 3.531583 1_545
Cl0 Rb1 3.531598 1_555
Cl0 Rb0 3.670927 1_555
Cl0 Rb0 3.670927 1_556
Cl1 Cu0 2.450761 1_665
Cl1 Cu1 2.450761 1_665
Cl1 Rb0 3.531583 1_565
Cl1 Rb0 3.531598 1_555
Cl1 Rb1 3.670927 1_554
Cl1 Rb1 3.670927 1_555
Cl2 Cu0 2.450761 1_555
Cl2 Cu1 2.450761 1_555
Cl2 Rb0 3.531583 1_455
Cl2 Rb0 3.531598 1_555
Cl2 Rb1 3.670927 1_554
Cl2 Rb1 3.670927 1_555
Cl3 Cu0 2.450757 1_656
Cl3 Cu1 2.450757 1_655
Cl3 Rb1 3.531591 1_655
Cl3 Rb1 3.531591 1_545
Cl3 Rb0 3.670927 1_556
Cl3 Rb0 3.670927 1_555
Cl4 Cu1 2.450757 1_565
Cl4 Cu0 2.450757 1_565
Cl4 Rb0 3.531591 1_455
Cl4 Rb0 3.531591 1_565
Cl4 Rb1 3.670927 1_554
Cl4 Rb1 3.670927 1_555
Cl5 Cu1 2.450761 1_665
Cl5 Cu0 2.450761 1_666
Cl5 Rb1 3.531583 1_655
Cl5 Rb1 3.531598 1_555
Cl5 Rb0 3.670927 1_555
Cl5 Rb0 3.670927 1_556
