# generated using pymatgen
data_BaZnTeCl2O3
_symmetry_space_group_name_H-M   'P 1'
_cell_length_a   5.72231400
_cell_length_b   12.52130100
_cell_length_c   19.81985700
_cell_angle_alpha   90.00000000
_cell_angle_beta   90.00000000
_cell_angle_gamma   90.00000000
_symmetry_Int_Tables_number   1
_chemical_formula_structural   BaZnTeCl2O3
_chemical_formula_sum   'Ba8 Zn8 Te8 Cl16 O24'
_cell_volume   1420.10892726
_cell_formula_units_Z   8
loop_
 _symmetry_equiv_pos_site_id
 _symmetry_equiv_pos_as_xyz
  1  'x, y, z'
loop_
 _atom_site_type_symbol
 _atom_site_label
 _atom_site_symmetry_multiplicity
 _atom_site_fract_x
 _atom_site_fract_y
 _atom_site_fract_z
 _atom_site_occupancy
  Ba  Ba0  1  0.25000000  0.33255600  0.66993400  1
  Ba  Ba1  1  0.25000000  0.94293200  0.28955700  1
  Ba  Ba2  1  0.25000000  0.83255600  0.83006600  1
  Ba  Ba3  1  0.75000000  0.66744400  0.33006600  1
  Ba  Ba4  1  0.75000000  0.55706800  0.78955700  1
  Ba  Ba5  1  0.25000000  0.44293200  0.21044300  1
  Ba  Ba6  1  0.75000000  0.16744400  0.16993400  1
  Ba  Ba7  1  0.75000000  0.05706800  0.71044300  1
  Zn  Zn0  1  0.25000000  0.57021400  0.92749000  1
  Zn  Zn1  1  0.75000000  0.01382400  0.90638200  1
  Zn  Zn2  1  0.25000000  0.48617600  0.40638200  1
  Zn  Zn3  1  0.75000000  0.42978600  0.07251000  1
  Zn  Zn4  1  0.25000000  0.98617600  0.09361800  1
  Zn  Zn5  1  0.25000000  0.07021400  0.57251000  1
  Zn  Zn6  1  0.75000000  0.51382400  0.59361800  1
  Zn  Zn7  1  0.75000000  0.92978600  0.42749000  1
  Te  Te0  1  0.75000000  0.85987400  0.16065100  1
  Te  Te1  1  0.75000000  0.35987400  0.33934900  1
  Te  Te2  1  0.75000000  0.22540100  0.54885000  1
  Te  Te3  1  0.25000000  0.14012600  0.83934900  1
  Te  Te4  1  0.25000000  0.27459900  0.04885000  1
  Te  Te5  1  0.25000000  0.77459900  0.45115000  1
  Te  Te6  1  0.75000000  0.72540100  0.95115000  1
  Te  Te7  1  0.25000000  0.64012600  0.66065100  1
  Cl  Cl0  1  0.25000000  0.37562000  0.49523400  1
  Cl  Cl1  1  0.75000000  0.43980600  0.95972000  1
  Cl  Cl2  1  0.25000000  0.94060700  0.65477900  1
  Cl  Cl3  1  0.25000000  0.69413300  0.24070500  1
  Cl  Cl4  1  0.25000000  0.06019400  0.45972000  1
  Cl  Cl5  1  0.75000000  0.55939300  0.15477900  1
  Cl  Cl6  1  0.75000000  0.62438000  0.50476600  1
  Cl  Cl7  1  0.25000000  0.56019400  0.04028000  1
  Cl  Cl8  1  0.25000000  0.44060700  0.84522100  1
  Cl  Cl9  1  0.75000000  0.93980600  0.54028000  1
  Cl  Cl10  1  0.75000000  0.80586700  0.74070500  1
  Cl  Cl11  1  0.75000000  0.05939300  0.34522100  1
  Cl  Cl12  1  0.25000000  0.19413300  0.25929500  1
  Cl  Cl13  1  0.25000000  0.87562000  0.00476600  1
  Cl  Cl14  1  0.75000000  0.30586700  0.75929500  1
  Cl  Cl15  1  0.75000000  0.12438000  0.99523400  1
  O  O0  1  0.49286500  0.83032800  0.39576600  1
  O  O1  1  0.50713500  0.16967200  0.60423400  1
  O  O2  1  0.50713500  0.66967200  0.89576600  1
  O  O3  1  0.50640500  0.46439500  0.33879700  1
  O  O4  1  0.25000000  0.66083400  0.75317200  1
  O  O5  1  0.75000000  0.83916600  0.25317200  1
  O  O6  1  0.50640500  0.96439500  0.16120300  1
  O  O7  1  0.25000000  0.64179400  0.40734500  1
  O  O8  1  0.75000000  0.35820600  0.59265500  1
  O  O9  1  0.00713500  0.83032800  0.39576600  1
  O  O10  1  0.75000000  0.33916600  0.24682800  1
  O  O11  1  0.99286500  0.66967200  0.89576600  1
  O  O12  1  0.99359500  0.46439500  0.33879700  1
  O  O13  1  0.25000000  0.16083400  0.74682800  1
  O  O14  1  0.75000000  0.85820600  0.90734500  1
  O  O15  1  0.99286500  0.16967200  0.60423400  1
  O  O16  1  0.49359500  0.53560500  0.66120300  1
  O  O17  1  0.00640500  0.03560500  0.83879700  1
  O  O18  1  0.99359500  0.96439500  0.16120300  1
  O  O19  1  0.25000000  0.14179400  0.09265500  1
  O  O20  1  0.49286500  0.33032800  0.10423400  1
  O  O21  1  0.00713500  0.33032800  0.10423400  1
  O  O22  1  0.49359500  0.03560500  0.83879700  1
  O  O23  1  0.00640500  0.53560500  0.66120300  1
loop_
_geom_bond_atom_site_label_1
_geom_bond_atom_site_label_2
_geom_bond_distance
_geom_bond_site_symmetry_2
Ba0 O13 2.635517 1_555
Ba0 O1 2.832016 1_555
Ba0 O15 2.832016 1_455
Ba0 O16 2.904646 1_555
Ba0 O23 2.904646 1_555
Ba0 O8 3.261188 1_555
Ba0 O8 3.261188 1_455
Ba0 Cl14 3.381534 1_555
Ba0 Cl14 3.381534 1_455
Ba0 Cl0 3.504263 1_555
Ba0 Cl8 3.728305 1_555
Ba1 O9 2.889738 1_555
Ba1 O0 2.889738 1_555
Ba1 O6 2.949018 1_555
Ba1 O18 2.949018 1_455
Ba1 Cl12 3.202039 1_565
Ba1 O5 3.224037 1_455
Ba1 O5 3.224037 1_555
Ba1 Cl3 3.262285 1_555
Ba1 Cl11 3.395565 1_565
Ba1 Cl11 3.395565 1_465
Ba1 Cl4 3.678355 1_565
Ba2 O4 2.635517 1_555
Ba2 O11 2.832016 1_455
Ba2 O2 2.832016 1_555
Ba2 O22 2.904646 1_565
Ba2 O17 2.904646 1_565
Ba2 O14 3.261188 1_555
Ba2 O14 3.261188 1_455
Ba2 Cl10 3.381534 1_455
Ba2 Cl10 3.381534 1_555
Ba2 Cl13 3.504263 1_556
Ba2 Cl2 3.728305 1_555
Ba3 O5 2.635517 1_555
Ba3 O0 2.832016 1_555
Ba3 O9 2.832016 1_655
Ba3 O3 2.904646 1_555
Ba3 O12 2.904646 1_555
Ba3 O7 3.261188 1_655
Ba3 O7 3.261188 1_555
Ba3 Cl3 3.381534 1_655
Ba3 Cl3 3.381534 1_555
Ba3 Cl6 3.504263 1_555
Ba3 Cl5 3.728305 1_555
Ba4 O11 2.889738 1_555
Ba4 O2 2.889738 1_555
Ba4 O23 2.949018 1_655
Ba4 O16 2.949018 1_555
Ba4 Cl14 3.202039 1_555
Ba4 O4 3.224037 1_655
Ba4 O4 3.224037 1_555
Ba4 Cl10 3.262285 1_555
Ba4 Cl8 3.395565 1_555
Ba4 Cl8 3.395565 1_655
Ba4 Cl1 3.678355 1_555
Ba5 O20 2.889738 1_555
Ba5 O21 2.889738 1_555
Ba5 O12 2.949018 1_455
Ba5 O3 2.949018 1_555
Ba5 Cl3 3.202039 1_555
Ba5 O10 3.224037 1_455
Ba5 O10 3.224037 1_555
Ba5 Cl12 3.262285 1_555
Ba5 Cl5 3.395565 1_555
Ba5 Cl5 3.395565 1_455
Ba5 Cl7 3.678355 1_555
Ba6 O10 2.635517 1_555
Ba6 O21 2.832016 1_655
Ba6 O20 2.832016 1_555
Ba6 O6 2.904646 1_545
Ba6 O18 2.904646 1_545
Ba6 O19 3.261188 1_555
Ba6 O19 3.261188 1_655
Ba6 Cl12 3.381534 1_555
Ba6 Cl12 3.381534 1_655
Ba6 Cl15 3.504263 1_554
Ba6 Cl11 3.728305 1_555
Ba7 O1 2.889738 1_555
Ba7 O15 2.889738 1_555
Ba7 O17 2.949018 1_655
Ba7 O22 2.949018 1_555
Ba7 Cl10 3.202039 1_545
Ba7 O13 3.224037 1_655
Ba7 O13 3.224037 1_555
Ba7 Cl14 3.262285 1_555
Ba7 Cl2 3.395565 1_545
Ba7 Cl2 3.395565 1_645
Ba7 Cl9 3.678355 1_545
Cl0 Zn2 2.239987 1_555
Cl1 Zn3 2.239000 1_556
Cl2 Zn5 2.300513 1_565
Cl4 Zn5 2.239000 1_555
Cl5 Zn3 2.300513 1_555
Cl6 Zn6 2.239987 1_555
Cl7 Zn0 2.239000 1_554
Cl8 Zn0 2.300513 1_555
Cl9 Zn7 2.239000 1_555
Cl11 Zn7 2.300513 1_545
Cl13 Zn4 2.239987 1_555
Cl15 Zn1 2.239987 1_555
O0 Te5 1.903492 1_555
O0 Zn7 2.027626 1_555
O1 Te2 1.903492 1_555
O1 Zn5 2.027626 1_555
O2 Te6 1.903492 1_555
O2 Zn0 2.027626 1_555
O3 Te1 1.912054 1_555
O3 Zn2 2.005360 1_555
O4 Te7 1.851994 1_555
O5 Te0 1.851994 1_555
O6 Te0 1.912054 1_555
O6 Zn4 2.005360 1_555
O7 Te5 1.875898 1_555
O7 Zn2 1.948633 1_555
O8 Te2 1.875898 1_555
O8 Zn6 1.948633 1_555
O9 Te5 1.903492 1_555
O9 Zn7 2.027626 1_455
O10 Te1 1.851994 1_555
O11 Te6 1.903492 1_555
O11 Zn0 2.027626 1_655
O12 Te1 1.912054 1_555
O12 Zn2 2.005360 1_655
O13 Te3 1.851994 1_555
O14 Te6 1.875898 1_555
O14 Zn1 1.948633 1_565
O15 Te2 1.903492 1_555
O15 Zn5 2.027626 1_655
O16 Te7 1.912054 1_555
O16 Zn6 2.005360 1_555
O17 Te3 1.912054 1_555
O17 Zn1 2.005360 1_455
O18 Te0 1.912054 1_555
O18 Zn4 2.005360 1_655
O19 Te4 1.875898 1_555
O19 Zn4 1.948633 1_545
O20 Te4 1.903492 1_555
O20 Zn3 2.027626 1_555
O21 Te4 1.903492 1_555
O21 Zn3 2.027626 1_455
O22 Te3 1.912054 1_555
O22 Zn1 2.005360 1_555
O23 Te7 1.912054 1_555
O23 Zn6 2.005360 1_455
