# generated using pymatgen
data_BaLi2Ti6O14
_symmetry_space_group_name_H-M   'P 1'
_cell_length_a   10.13311332
_cell_length_b   10.13311332
_cell_length_c   11.67974300
_cell_angle_alpha   90.00000000
_cell_angle_beta   90.00000000
_cell_angle_gamma   111.47901343
_symmetry_Int_Tables_number   1
_chemical_formula_structural   BaLi2Ti6O14
_chemical_formula_sum   'Ba4 Li8 Ti24 O56'
_cell_volume   1115.98823281
_cell_formula_units_Z   4
loop_
 _symmetry_equiv_pos_site_id
 _symmetry_equiv_pos_as_xyz
  1  'x, y, z'
loop_
 _atom_site_type_symbol
 _atom_site_label
 _atom_site_symmetry_multiplicity
 _atom_site_fract_x
 _atom_site_fract_y
 _atom_site_fract_z
 _atom_site_occupancy
  Ba  Ba0  1  0.85494800  0.85494800  0.37932300  1
  Ba  Ba1  1  0.35494800  0.35494800  0.12067700  1
  Ba  Ba2  1  0.64505200  0.64505200  0.87932300  1
  Ba  Ba3  1  0.14505200  0.14505200  0.62067700  1
  Li  Li0  1  0.05564700  0.43445400  0.12108000  1
  Li  Li1  1  0.55564700  0.93445400  0.37892000  1
  Li  Li2  1  0.06554600  0.44435300  0.62108000  1
  Li  Li3  1  0.93445400  0.55564700  0.37892000  1
  Li  Li4  1  0.56554600  0.94435300  0.87892000  1
  Li  Li5  1  0.94435300  0.56554600  0.87892000  1
  Li  Li6  1  0.44435300  0.06554600  0.62108000  1
  Li  Li7  1  0.43445400  0.05564700  0.12108000  1
  Ti  Ti0  1  0.73747900  0.26252100  0.00000000  1
  Ti  Ti1  1  0.24052400  0.01934500  0.35696500  1
  Ti  Ti2  1  0.74349000  0.24349000  0.25000000  1
  Ti  Ti3  1  0.75947600  0.98065500  0.64303500  1
  Ti  Ti4  1  0.50632900  0.72450200  0.61361400  1
  Ti  Ti5  1  0.25651000  0.75651000  0.75000000  1
  Ti  Ti6  1  0.48065500  0.25947600  0.85696500  1
  Ti  Ti7  1  0.75651000  0.25651000  0.75000000  1
  Ti  Ti8  1  0.51934500  0.74052400  0.14303500  1
  Ti  Ti9  1  0.77549800  0.99367100  0.11361400  1
  Ti  Ti10  1  0.76252100  0.23747900  0.50000000  1
  Ti  Ti11  1  0.25947600  0.48065500  0.85696500  1
  Ti  Ti12  1  0.99367100  0.77549800  0.11361400  1
  Ti  Ti13  1  0.27549800  0.49367100  0.38638600  1
  Ti  Ti14  1  0.49367100  0.27549800  0.38638600  1
  Ti  Ti15  1  0.98065500  0.75947600  0.64303500  1
  Ti  Ti16  1  0.22450200  0.00632900  0.88638600  1
  Ti  Ti17  1  0.23747900  0.76252100  0.50000000  1
  Ti  Ti18  1  0.01934500  0.24052400  0.35696500  1
  Ti  Ti19  1  0.72450200  0.50632900  0.61361400  1
  Ti  Ti20  1  0.00632900  0.22450200  0.88638600  1
  Ti  Ti21  1  0.24349000  0.74349000  0.25000000  1
  Ti  Ti22  1  0.74052400  0.51934500  0.14303500  1
  Ti  Ti23  1  0.26252100  0.73747900  0.00000000  1
  O  O0  1  0.87883300  0.34718200  0.37219000  1
  O  O1  1  0.59614500  0.59614500  0.12656600  1
  O  O2  1  0.36717300  0.63282700  0.50000000  1
  O  O3  1  0.62116700  0.15281800  0.87219000  1
  O  O4  1  0.85876200  0.63161300  0.74016200  1
  O  O5  1  0.13701800  0.36379700  0.97999400  1
  O  O6  1  0.36960900  0.63392500  0.74871900  1
  O  O7  1  0.12436600  0.64761800  0.12197300  1
  O  O8  1  0.59578700  0.59578700  0.63002500  1
  O  O9  1  0.85238200  0.37563400  0.62197300  1
  O  O10  1  0.90421300  0.90421300  0.13002500  1
  O  O11  1  0.36298200  0.13620300  0.47999400  1
  O  O12  1  0.86960900  0.13392500  0.75128100  1
  O  O13  1  0.13039100  0.86607500  0.24871900  1
  O  O14  1  0.36607500  0.63039100  0.25128100  1
  O  O15  1  0.63282700  0.36717300  0.50000000  1
  O  O16  1  0.36838700  0.14123800  0.25983800  1
  O  O17  1  0.86838700  0.64123800  0.24016200  1
  O  O18  1  0.63620300  0.86298200  0.02000600  1
  O  O19  1  0.12780100  0.87219900  0.50000000  1
  O  O20  1  0.64761800  0.12436600  0.12197300  1
  O  O21  1  0.37219900  0.62780100  0.00000000  1
  O  O22  1  0.12116700  0.65281800  0.62781000  1
  O  O23  1  0.15281800  0.62116700  0.87219000  1
  O  O24  1  0.13161300  0.35876200  0.75983800  1
  O  O25  1  0.63701800  0.86379700  0.52000600  1
  O  O26  1  0.37883300  0.84718200  0.12781000  1
  O  O27  1  0.86298200  0.63620300  0.02000600  1
  O  O28  1  0.84718200  0.37883300  0.12781000  1
  O  O29  1  0.13392500  0.86960900  0.75128100  1
  O  O30  1  0.13282700  0.86717300  0.00000000  1
  O  O31  1  0.40421300  0.40421300  0.36997500  1
  O  O32  1  0.09578700  0.09578700  0.86997500  1
  O  O33  1  0.36379700  0.13701800  0.97999400  1
  O  O34  1  0.35238200  0.87563400  0.87802700  1
  O  O35  1  0.62436600  0.14761800  0.37802700  1
  O  O36  1  0.63161300  0.85876200  0.74016200  1
  O  O37  1  0.63392500  0.36960900  0.74871900  1
  O  O38  1  0.65281800  0.12116700  0.62781000  1
  O  O39  1  0.87563400  0.35238200  0.87802700  1
  O  O40  1  0.87219900  0.12780100  0.50000000  1
  O  O41  1  0.62780100  0.37219900  0.00000000  1
  O  O42  1  0.13620300  0.36298200  0.47999400  1
  O  O43  1  0.37563400  0.85238200  0.62197300  1
  O  O44  1  0.64123800  0.86838700  0.24016200  1
  O  O45  1  0.40385500  0.40385500  0.87343400  1
  O  O46  1  0.09614500  0.09614500  0.37343400  1
  O  O47  1  0.86717300  0.13282700  0.00000000  1
  O  O48  1  0.63039100  0.36607500  0.25128100  1
  O  O49  1  0.90385500  0.90385500  0.62656600  1
  O  O50  1  0.14123800  0.36838700  0.25983800  1
  O  O51  1  0.86607500  0.13039100  0.24871900  1
  O  O52  1  0.34718200  0.87883300  0.37219000  1
  O  O53  1  0.86379700  0.63701800  0.52000600  1
  O  O54  1  0.35876200  0.13161300  0.75983800  1
  O  O55  1  0.14761800  0.62436600  0.37802700  1
loop_
_geom_bond_atom_site_label_1
_geom_bond_atom_site_label_2
_geom_bond_distance
_geom_bond_site_symmetry_2
Ba0 O44 2.750621 1_555
Ba0 O17 2.750621 1_555
Ba0 O46 2.752676 1_665
Ba0 O53 2.780215 1_555
Ba0 O25 2.780215 1_555
Ba0 O49 2.941148 1_555
Ba0 O10 2.965489 1_555
Ba0 O19 3.050842 1_655
Ba0 O40 3.050842 1_565
Ba0 O13 3.146327 1_655
Ba0 O51 3.146327 1_565
Ba1 O50 2.750621 1_555
Ba1 O16 2.750621 1_555
Ba1 O1 2.752676 1_555
Ba1 O33 2.780215 1_554
Ba1 O5 2.780215 1_554
Ba1 O45 2.941148 1_554
Ba1 O31 2.965489 1_555
Ba1 O41 3.050842 1_555
Ba1 O21 3.050842 1_555
Ba1 O48 3.146327 1_555
Ba1 O14 3.146327 1_555
Ba2 O4 2.750621 1_555
Ba2 O36 2.750621 1_555
Ba2 O45 2.752676 1_555
Ba2 O18 2.780215 1_556
Ba2 O27 2.780215 1_556
Ba2 O1 2.941148 1_556
Ba2 O8 2.965489 1_555
Ba2 O21 3.050842 1_556
Ba2 O41 3.050842 1_556
Ba2 O6 3.146327 1_555
Ba2 O37 3.146327 1_555
Ba3 O24 2.750621 1_555
Ba3 O54 2.750621 1_555
Ba3 O49 2.752676 1_445
Ba3 O11 2.780215 1_555
Ba3 O42 2.780215 1_555
Ba3 O46 2.941148 1_555
Ba3 O32 2.965489 1_555
Ba3 O40 3.050842 1_455
Ba3 O19 3.050842 1_545
Ba3 O12 3.146327 1_455
Ba3 O29 3.146327 1_545
Li0 O28 1.978430 1_455
Li0 O7 2.012256 1_555
Li0 O50 2.062071 1_555
Li0 O5 2.083319 1_554
Li1 O52 1.978430 1_555
Li1 O35 2.012256 1_565
Li1 O44 2.062071 1_555
Li1 O25 2.083319 1_555
Li2 O22 1.978430 1_555
Li2 O9 2.012256 1_455
Li2 O24 2.062071 1_555
Li2 O42 2.083319 1_555
Li3 O0 1.978430 1_555
Li3 O55 2.012256 1_655
Li3 O17 2.062071 1_555
Li3 O53 2.083319 1_555
Li4 O3 1.978430 1_565
Li4 O34 2.012256 1_555
Li4 O36 2.062071 1_555
Li4 O18 2.083319 1_556
Li5 O23 1.978430 1_655
Li5 O39 2.012256 1_555
Li5 O4 2.062071 1_555
Li5 O27 2.083319 1_556
Li6 O38 1.978430 1_555
Li6 O43 2.012256 1_545
Li6 O54 2.062071 1_555
Li6 O11 2.083319 1_555
Li7 O26 1.978430 1_545
Li7 O20 2.012256 1_555
Li7 O16 2.062071 1_555
Li7 O33 2.083319 1_554
O0 Ti10 1.973266 1_555
O0 Ti2 1.991570 1_555
O0 Ti18 2.086600 1_655
O1 Ti8 1.901791 1_555
O1 Ti22 1.901791 1_555
O2 Ti4 1.911257 1_555
O2 Ti13 1.911257 1_555
O2 Ti17 2.172344 1_555
O3 Ti0 1.973266 1_556
O3 Ti7 1.991570 1_555
O3 Ti6 2.086600 1_555
O4 Ti15 1.821886 1_555
O4 Ti19 2.093409 1_555
O5 Ti20 1.890111 1_555
O5 Ti11 1.982606 1_555
O6 Ti5 1.974624 1_555
O6 Ti11 1.996669 1_555
O6 Ti4 2.078607 1_555
O7 Ti21 1.943728 1_555
O7 Ti23 1.971034 1_555
O7 Ti12 2.167795 1_455
O8 Ti4 1.850798 1_555
O8 Ti19 1.850798 1_555
O9 Ti7 1.943728 1_555
O9 Ti10 1.971034 1_555
O9 Ti19 2.167795 1_555
O10 Ti12 1.850798 1_555
O10 Ti9 1.850798 1_555
O11 Ti14 1.890111 1_555
O11 Ti1 1.982606 1_555
O12 Ti7 1.974624 1_555
O12 Ti3 1.996669 1_545
O12 Ti20 2.078607 1_655
O13 Ti21 1.974624 1_555
O13 Ti1 1.996669 1_565
O13 Ti12 2.078607 1_455
O14 Ti21 1.974624 1_555
O14 Ti8 1.996669 1_555
O14 Ti13 2.078607 1_555
O15 Ti19 1.911257 1_555
O15 Ti14 1.911257 1_555
O15 Ti10 2.172344 1_555
O16 Ti1 1.821886 1_555
O16 Ti14 2.093409 1_555
O17 Ti22 1.821886 1_555
O17 Ti12 2.093409 1_555
O18 Ti9 1.890111 1_555
O18 Ti8 1.982606 1_555
O19 Ti17 1.837081 1_555
O19 Ti15 2.252028 1_455
O19 Ti1 2.252028 1_565
O20 Ti2 1.943728 1_555
O20 Ti0 1.971034 1_555
O20 Ti9 2.167795 1_545
O21 Ti23 1.837081 1_555
O21 Ti8 2.252028 1_555
O21 Ti11 2.252028 1_554
O22 Ti17 1.973266 1_555
O22 Ti5 1.991570 1_555
O22 Ti15 2.086600 1_455
O23 Ti23 1.973266 1_556
O23 Ti5 1.991570 1_555
O23 Ti11 2.086600 1_555
O24 Ti11 1.821886 1_555
O24 Ti20 2.093409 1_555
O25 Ti4 1.890111 1_555
O25 Ti3 1.982606 1_555
O26 Ti23 1.973266 1_555
O26 Ti21 1.991570 1_555
O26 Ti8 2.086600 1_555
O27 Ti12 1.890111 1_555
O27 Ti22 1.982606 1_555
O28 Ti0 1.973266 1_555
O28 Ti2 1.991570 1_555
O28 Ti22 2.086600 1_555
O29 Ti5 1.974624 1_555
O29 Ti15 1.996669 1_455
O29 Ti16 2.078607 1_565
O30 Ti12 1.911257 1_455
O30 Ti16 1.911257 1_564
O30 Ti23 2.172344 1_555
O31 Ti13 1.850798 1_555
O31 Ti14 1.850798 1_555
O32 Ti16 1.850798 1_555
O32 Ti20 1.850798 1_555
O33 Ti16 1.890111 1_555
O33 Ti6 1.982606 1_555
O34 Ti5 1.943728 1_555
O34 Ti23 1.971034 1_556
O34 Ti16 2.167795 1_565
O35 Ti2 1.943728 1_555
O35 Ti10 1.971034 1_555
O35 Ti14 2.167795 1_555
O36 Ti3 1.821886 1_555
O36 Ti4 2.093409 1_555
O37 Ti7 1.974624 1_555
O37 Ti6 1.996669 1_555
O37 Ti19 2.078607 1_555
O38 Ti10 1.973266 1_555
O38 Ti7 1.991570 1_555
O38 Ti3 2.086600 1_545
O39 Ti7 1.943728 1_555
O39 Ti0 1.971034 1_556
O39 Ti20 2.167795 1_655
O40 Ti10 1.837081 1_555
O40 Ti3 2.252028 1_545
O40 Ti18 2.252028 1_655
O41 Ti0 1.837081 1_555
O41 Ti22 2.252028 1_555
O41 Ti6 2.252028 1_554
O42 Ti13 1.890111 1_555
O42 Ti18 1.982606 1_555
O43 Ti5 1.943728 1_555
O43 Ti17 1.971034 1_555
O43 Ti4 2.167795 1_555
O44 Ti8 1.821886 1_555
O44 Ti9 2.093409 1_555
O45 Ti6 1.901791 1_555
O45 Ti11 1.901791 1_555
O46 Ti18 1.901791 1_555
O46 Ti1 1.901791 1_555
O47 Ti9 1.911257 1_545
O47 Ti20 1.911257 1_654
O47 Ti0 2.172344 1_555
O48 Ti2 1.974624 1_555
O48 Ti22 1.996669 1_555
O48 Ti14 2.078607 1_555
O49 Ti3 1.901791 1_555
O49 Ti15 1.901791 1_555
O50 Ti18 1.821886 1_555
O50 Ti13 2.093409 1_555
O51 Ti2 1.974624 1_555
O51 Ti18 1.996669 1_655
O51 Ti9 2.078607 1_545
O52 Ti17 1.973266 1_555
O52 Ti21 1.991570 1_555
O52 Ti1 2.086600 1_565
O53 Ti19 1.890111 1_555
O53 Ti15 1.982606 1_555
O54 Ti6 1.821886 1_555
O54 Ti16 2.093409 1_555
O55 Ti21 1.943728 1_555
O55 Ti17 1.971034 1_555
O55 Ti13 2.167795 1_555
