# generated using pymatgen
data_K2SnBr6
_symmetry_space_group_name_H-M   'P 1'
_cell_length_a   7.69197808
_cell_length_b   7.48332245
_cell_length_c   10.53803883
_cell_angle_alpha   90.48209563
_cell_angle_beta   90.00000000
_cell_angle_gamma   90.00000000
_symmetry_Int_Tables_number   1
_chemical_formula_structural   K2SnBr6
_chemical_formula_sum   'K4 Sn2 Br12'
_cell_volume   606.56440055
_cell_formula_units_Z   2
loop_
 _symmetry_equiv_pos_site_id
 _symmetry_equiv_pos_as_xyz
  1  'x, y, z'
loop_
 _atom_site_type_symbol
 _atom_site_label
 _atom_site_symmetry_multiplicity
 _atom_site_fract_x
 _atom_site_fract_y
 _atom_site_fract_z
 _atom_site_occupancy
  K  K0  1  0.43799995  0.98222975  0.25181446  1
  K  K1  1  0.06200005  0.48222975  0.75181446  1
  K  K2  1  0.93799995  0.51777025  0.24818554  1
  K  K3  1  0.56200005  0.01777025  0.74818554  1
  Sn  Sn0  1  0.00000000  -0.00000000  -0.00000000  1
  Sn  Sn1  1  0.50000000  0.50000000  0.50000000  1
  Br  Br0  1  0.50753797  0.43062247  0.25605258  1
  Br  Br1  1  0.21816066  0.69454036  0.46778800  1
  Br  Br2  1  0.00753797  0.06937753  0.24394642  1
  Br  Br3  1  0.28183934  0.19454036  0.96778800  1
  Br  Br4  1  0.78183934  0.30545964  0.53221200  1
  Br  Br5  1  0.49246203  0.56937753  0.74394642  1
  Br  Br6  1  0.30403021  0.21638469  0.53581509  1
  Br  Br7  1  0.19596979  0.71638469  0.03581509  1
  Br  Br8  1  0.99246203  0.93062247  0.75605358  1
  Br  Br9  1  0.69596979  0.78361531  0.46418491  1
  Br  Br10  1  0.71816066  0.80545964  0.03221200  1
  Br  Br11  1  0.80403021  0.28361531  0.96418491  1
loop_
_geom_bond_atom_site_label_1
_geom_bond_atom_site_label_2
_geom_bond_distance
_geom_bond_site_symmetry_2
Br0 Sn1 2.618985 1_555
Br0 K2 3.375870 1_555
Br0 K0 3.397754 1_545
Br1 Sn1 2.634904 1_555
Br1 K2 3.420200 1_455
Br1 K0 3.571650 1_555
Br1 K1 3.606335 1_555
Br2 Sn0 2.618975 1_555
Br2 K0 3.375870 1_545
Br2 K2 3.397755 1_455
Br3 Sn0 2.634904 1_556
Br3 K3 3.420200 1_555
Br3 K1 3.571650 1_555
Br3 K0 3.606335 1_546
Br4 Sn1 2.634904 1_555
Br4 K1 3.420200 1_655
Br4 K3 3.571650 1_555
Br4 K2 3.606335 1_555
Br5 Sn1 2.618975 1_555
Br5 K1 3.375870 1_555
Br5 K3 3.397755 1_565
Br6 Sn1 2.632999 1_555
Br6 K3 3.348282 1_555
Br6 K1 3.539569 1_555
Br6 K0 3.605687 1_545
Br7 Sn0 2.632999 1_565
Br7 K2 3.348282 1_455
Br7 K0 3.539569 1_555
Br7 K1 3.605687 1_554
Br8 Sn0 2.618975 1_666
Br8 K3 3.375870 1_565
Br8 K1 3.397755 1_655
Br9 Sn1 2.632999 1_555
Br9 K0 3.348282 1_555
Br9 K2 3.539569 1_555
Br9 K3 3.605687 1_565
Br10 Sn0 2.634904 1_665
Br10 K0 3.420200 1_555
Br10 K2 3.571650 1_555
Br10 K3 3.606335 1_564
Br11 Sn0 2.632999 1_656
Br11 K1 3.348282 1_655
Br11 K3 3.539569 1_555
Br11 K2 3.605687 1_556
