# generated using pymatgen
data_Ti(TlS)4
_symmetry_space_group_name_H-M   'P 1'
_cell_length_a   8.31276518
_cell_length_b   8.42080475
_cell_length_c   15.58668147
_cell_angle_alpha   74.82352849
_cell_angle_beta   90.00000000
_cell_angle_gamma   90.00000000
_symmetry_Int_Tables_number   1
_chemical_formula_structural   Ti(TlS)4
_chemical_formula_sum   'Ti4 Tl16 S16'
_cell_volume   1053.01830987
_cell_formula_units_Z   4
loop_
 _symmetry_equiv_pos_site_id
 _symmetry_equiv_pos_as_xyz
  1  'x, y, z'
loop_
 _atom_site_type_symbol
 _atom_site_label
 _atom_site_symmetry_multiplicity
 _atom_site_fract_x
 _atom_site_fract_y
 _atom_site_fract_z
 _atom_site_occupancy
  Ti  Ti0  1  0.88839260  0.20856217  0.62209476  1
  Ti  Ti1  1  0.38839260  0.79143783  0.87790524  1
  Ti  Ti2  1  0.11160740  0.79143783  0.37790524  1
  Ti  Ti3  1  0.61160740  0.20856217  0.12209476  1
  Tl  Tl0  1  0.71706778  0.61199612  0.35802447  1
  Tl  Tl1  1  0.21706778  0.38800388  0.14197553  1
  Tl  Tl2  1  0.28293222  0.38800388  0.64197553  1
  Tl  Tl3  1  0.78293222  0.61199612  0.85802447  1
  Tl  Tl4  1  0.89662192  0.18246291  0.37600323  1
  Tl  Tl5  1  0.39662192  0.81753709  0.12399677  1
  Tl  Tl6  1  0.10337808  0.81753709  0.62399677  1
  Tl  Tl7  1  0.60337808  0.18246291  0.87600323  1
  Tl  Tl8  1  0.32119924  0.40840597  0.39106717  1
  Tl  Tl9  1  0.82119924  0.59159403  0.10893283  1
  Tl  Tl10  1  0.67880076  0.59159403  0.60893283  1
  Tl  Tl11  1  0.17880076  0.40840597  0.89106717  1
  Tl  Tl12  1  0.49492169  0.02928569  0.36904642  1
  Tl  Tl13  1  0.99492169  0.97071431  0.13095358  1
  Tl  Tl14  1  0.50507831  0.97071431  0.63095358  1
  Tl  Tl15  1  0.00507831  0.02928569  0.86904642  1
  S  S0  1  0.10865525  0.18338601  0.53908159  1
  S  S1  1  0.60865525  0.81661399  0.96091841  1
  S  S2  1  0.89134475  0.81661399  0.46091841  1
  S  S3  1  0.39134475  0.18338601  0.03908159  1
  S  S4  1  0.67058857  0.29848831  0.53713548  1
  S  S5  1  0.17058857  0.70151169  0.96286452  1
  S  S6  1  0.32941143  0.70151169  0.46286452  1
  S  S7  1  0.82941143  0.29848831  0.03713548  1
  S  S8  1  0.94489408  0.38586955  0.70451191  1
  S  S9  1  0.44489408  0.61413045  0.79548809  1
  S  S10  1  0.05510592  0.61413045  0.29548809  1
  S  S11  1  0.55510592  0.38586955  0.20451191  1
  S  S12  1  0.83065077  0.95473888  0.71198890  1
  S  S13  1  0.33065077  0.04526112  0.78801110  1
  S  S14  1  0.16934923  0.04526112  0.28801110  1
  S  S15  1  0.66934923  0.95473888  0.21198890  1
loop_
_geom_bond_atom_site_label_1
_geom_bond_atom_site_label_2
_geom_bond_distance
_geom_bond_site_symmetry_2
S0 Ti0 2.283698 1_455
S0 Tl2 3.014407 1_555
S0 Tl6 3.018236 1_545
S0 Tl4 3.094852 1_455
S0 Tl8 3.121821 1_555
S1 Ti1 2.283698 1_555
S1 Tl3 3.014407 1_555
S1 Tl7 3.018236 1_565
S1 Tl5 3.094852 1_556
S1 Tl9 3.121821 1_556
S2 Ti2 2.283698 1_655
S2 Tl0 3.014407 1_555
S2 Tl4 3.018236 1_565
S2 Tl6 3.094852 1_655
S2 Tl10 3.121821 1_555
S3 Ti3 2.283698 1_555
S3 Tl1 3.014407 1_555
S3 Tl5 3.018236 1_545
S3 Tl7 3.094852 1_554
S3 Tl11 3.121821 1_554
S4 Ti0 2.253905 1_555
S4 Tl10 2.965661 1_555
S4 Tl14 3.088091 1_545
S5 Ti1 2.253905 1_555
S5 Tl11 2.965661 1_555
S5 Tl15 3.088091 1_565
S6 Ti2 2.253905 1_555
S6 Tl8 2.965661 1_555
S6 Tl12 3.088091 1_565
S7 Ti3 2.253905 1_555
S7 Tl9 2.965661 1_555
S7 Tl13 3.088091 1_545
S8 Ti0 2.259276 1_555
S8 Tl10 2.960071 1_555
S8 Tl2 2.972799 1_655
S9 Ti1 2.259276 1_555
S9 Tl11 2.960071 1_555
S9 Tl3 2.972799 1_555
S10 Ti2 2.259276 1_555
S10 Tl8 2.960071 1_555
S10 Tl0 2.972799 1_455
S11 Ti3 2.259276 1_555
S11 Tl9 2.960071 1_555
S11 Tl1 2.972799 1_555
S12 Ti0 2.279044 1_565
S12 Tl14 2.974748 1_555
S12 Tl6 3.030733 1_655
S12 Tl15 3.048578 1_665
S12 Tl3 3.198241 1_555
S13 Ti1 2.279044 1_545
S13 Tl15 2.974748 1_555
S13 Tl7 3.030733 1_555
S13 Tl14 3.048578 1_545
S13 Tl2 3.198241 1_555
S14 Ti2 2.279044 1_545
S14 Tl12 2.974748 1_555
S14 Tl4 3.030733 1_455
S14 Tl13 3.048578 1_445
S14 Tl1 3.198241 1_555
S15 Ti3 2.279044 1_565
S15 Tl13 2.974748 1_555
S15 Tl5 3.030733 1_555
S15 Tl12 3.048578 1_565
S15 Tl0 3.198241 1_555
