# generated using pymatgen
data_Tm3Mn3Ga2Si
_symmetry_space_group_name_H-M   'P 1'
_cell_length_a   7.02741619
_cell_length_b   7.02741619
_cell_length_c   3.86240600
_cell_angle_alpha   90.00000000
_cell_angle_beta   90.00000000
_cell_angle_gamma   120.00000180
_symmetry_Int_Tables_number   1
_chemical_formula_structural   Tm3Mn3Ga2Si
_chemical_formula_sum   'Tm3 Mn3 Ga2 Si1'
_cell_volume   165.18853316
_cell_formula_units_Z   1
loop_
 _symmetry_equiv_pos_site_id
 _symmetry_equiv_pos_as_xyz
  1  'x, y, z'
loop_
 _atom_site_type_symbol
 _atom_site_label
 _atom_site_symmetry_multiplicity
 _atom_site_fract_x
 _atom_site_fract_y
 _atom_site_fract_z
 _atom_site_occupancy
  Tm  Tm0  1  0.40456500  0.40456500  0.50000000  1
  Tm  Tm1  1  0.00000000  0.59543500  0.50000000  1
  Tm  Tm2  1  0.59543500  0.00000000  0.50000000  1
  Mn  Mn0  1  0.22142200  0.00000000  0.00000000  1
  Mn  Mn1  1  0.00000000  0.22142200  0.00000000  1
  Mn  Mn2  1  0.77857800  0.77857800  0.00000000  1
  Ga  Ga0  1  0.66666700  0.33333300  0.00000000  1
  Ga  Ga1  1  0.33333300  0.66666700  0.00000000  1
  Si  Si0  1  0.00000000  0.00000000  0.50000000  1
loop_
_geom_bond_atom_site_label_1
_geom_bond_atom_site_label_2
_geom_bond_distance
_geom_bond_site_symmetry_2
Mn0 Si0 2.480072 1_554
Mn0 Si0 2.480072 1_555
Mn0 Mn2 2.695114 1_445
Mn0 Mn1 2.695114 1_555
Mn0 Tm1 3.132063 1_544
Mn0 Tm1 3.132063 1_545
Mn0 Tm0 3.132063 1_555
Mn0 Tm0 3.132063 1_554
Mn0 Tm2 3.261555 1_555
Mn0 Tm2 3.261555 1_554
Mn1 Si0 2.480072 1_554
Mn1 Si0 2.480072 1_555
Mn1 Mn2 2.695114 1_445
Mn1 Tm2 3.132063 1_454
Mn1 Tm2 3.132063 1_455
Mn1 Tm0 3.132063 1_555
Mn1 Tm0 3.132063 1_554
Mn1 Tm1 3.261555 1_554
Mn1 Tm1 3.261555 1_555
Mn2 Si0 2.480072 1_664
Mn2 Si0 2.480072 1_665
Mn2 Tm1 3.132063 1_654
Mn2 Tm2 3.132063 1_564
Mn2 Tm1 3.132063 1_655
Mn2 Tm2 3.132063 1_565
Mn2 Tm0 3.261555 1_555
Mn2 Tm0 3.261555 1_554
Ga0 Mn1 2.819199 1_655
Ga0 Mn0 2.819204 1_555
Ga0 Mn2 2.819206 1_555
Ga0 Tm2 2.880052 1_554
Ga0 Tm2 2.880052 1_555
Ga0 Tm1 2.880054 1_654
Ga0 Tm1 2.880054 1_655
Ga0 Tm0 2.880057 1_555
Ga0 Tm0 2.880057 1_554
Ga1 Mn0 2.819199 1_565
Ga1 Mn1 2.819204 1_555
Ga1 Mn2 2.819206 1_555
Ga1 Tm1 2.880052 1_554
Ga1 Tm1 2.880052 1_555
Ga1 Tm2 2.880054 1_565
Ga1 Tm2 2.880054 1_564
Ga1 Tm0 2.880057 1_555
Ga1 Tm0 2.880057 1_554
Si0 Tm0 2.843047 1_555
Si0 Tm2 2.843047 1_455
Si0 Tm1 2.843047 1_545
