# generated using pymatgen
data_Gd3Fe5O12
_symmetry_space_group_name_H-M   'P 1'
_cell_length_a   10.93514340
_cell_length_b   10.93514411
_cell_length_c   10.93514300
_cell_angle_alpha   109.47122044
_cell_angle_beta   109.47122174
_cell_angle_gamma   109.47121822
_symmetry_Int_Tables_number   1
_chemical_formula_structural   Gd3Fe5O12
_chemical_formula_sum   'Gd12 Fe20 O48'
_cell_volume   1006.58760285
_cell_formula_units_Z   4
loop_
 _symmetry_equiv_pos_site_id
 _symmetry_equiv_pos_as_xyz
  1  'x, y, z'
loop_
 _atom_site_type_symbol
 _atom_site_label
 _atom_site_symmetry_multiplicity
 _atom_site_fract_x
 _atom_site_fract_y
 _atom_site_fract_z
 _atom_site_occupancy
  Gd  Gd0  1  0.37500000  0.75000000  0.12500000  1
  Gd  Gd1  1  0.87500000  0.62500000  0.25000000  1
  Gd  Gd2  1  0.37500000  0.12500000  0.25000000  1
  Gd  Gd3  1  0.62500000  0.25000000  0.87500000  1
  Gd  Gd4  1  0.12500000  0.37500000  0.75000000  1
  Gd  Gd5  1  0.25000000  0.87500000  0.62500000  1
  Gd  Gd6  1  0.87500000  0.75000000  0.62500000  1
  Gd  Gd7  1  0.12500000  0.25000000  0.37500000  1
  Gd  Gd8  1  0.25000000  0.37500000  0.12500000  1
  Gd  Gd9  1  0.62500000  0.87500000  0.75000000  1
  Gd  Gd10  1  0.75000000  0.12500000  0.37500000  1
  Gd  Gd11  1  0.75000000  0.62500000  0.87500000  1
  Fe  Fe0  1  0.00000000  0.00000000  0.50000000  1
  Fe  Fe1  1  0.12500000  0.75000000  0.87500000  1
  Fe  Fe2  1  0.87500000  0.12500000  0.75000000  1
  Fe  Fe3  1  0.50000000  0.00000000  0.50000000  1
  Fe  Fe4  1  0.50000000  0.00000000  0.00000000  1
  Fe  Fe5  1  0.62500000  0.75000000  0.37500000  1
  Fe  Fe6  1  0.00000000  0.00000000  0.00000000  1
  Fe  Fe7  1  0.00000000  0.50000000  0.00000000  1
  Fe  Fe8  1  0.25000000  0.62500000  0.37500000  1
  Fe  Fe9  1  0.00000000  0.50000000  0.50000000  1
  Fe  Fe10  1  0.25000000  0.12500000  0.87500000  1
  Fe  Fe11  1  0.37500000  0.25000000  0.62500000  1
  Fe  Fe12  1  0.87500000  0.25000000  0.12500000  1
  Fe  Fe13  1  0.75000000  0.37500000  0.62500000  1
  Fe  Fe14  1  0.37500000  0.62500000  0.75000000  1
  Fe  Fe15  1  0.50000000  0.50000000  0.50000000  1
  Fe  Fe16  1  0.62500000  0.37500000  0.25000000  1
  Fe  Fe17  1  0.75000000  0.87500000  0.12500000  1
  Fe  Fe18  1  0.50000000  0.50000000  0.00000000  1
  Fe  Fe19  1  0.12500000  0.87500000  0.25000000  1
  O  O0  1  0.12510500  0.59572700  0.91662400  1
  O  O1  1  0.52937800  0.62510500  0.70848100  1
  O  O2  1  0.87489500  0.97062200  0.79151900  1
  O  O3  1  0.90427300  0.37489500  0.58337600  1
  O  O4  1  0.12510500  0.02937800  0.20848100  1
  O  O5  1  0.29151900  0.32089600  0.91662400  1
  O  O6  1  0.08337600  0.70848100  0.67910400  1
  O  O7  1  0.82089600  0.79151900  0.41662400  1
  O  O8  1  0.52937800  0.40427300  0.82089600  1
  O  O9  1  0.17910400  0.47062200  0.59572700  1
  O  O10  1  0.09572700  0.97062200  0.67910400  1
  O  O11  1  0.17910400  0.20848100  0.58337600  1
  O  O12  1  0.41662400  0.09572700  0.62510500  1
  O  O13  1  0.41662400  0.82089600  0.79151900  1
  O  O14  1  0.02937800  0.20848100  0.12510500  1
  O  O15  1  0.62510500  0.41662400  0.09572700  1
  O  O16  1  0.79151900  0.41662400  0.82089600  1
  O  O17  1  0.20848100  0.12510500  0.02937800  1
  O  O18  1  0.97062200  0.79151900  0.87489500  1
  O  O19  1  0.59572700  0.17910400  0.47062200  1
  O  O20  1  0.20848100  0.58337600  0.17910400  1
  O  O21  1  0.02937800  0.32089600  0.90427300  1
  O  O22  1  0.67910400  0.09572700  0.97062200  1
  O  O23  1  0.58337600  0.17910400  0.20848100  1
  O  O24  1  0.37489500  0.29151900  0.47062200  1
  O  O25  1  0.08337600  0.87489500  0.40427300  1
  O  O26  1  0.58337600  0.90427300  0.37489500  1
  O  O27  1  0.91662400  0.12510500  0.59572700  1
  O  O28  1  0.40427300  0.08337600  0.87489500  1
  O  O29  1  0.82089600  0.52937800  0.40427300  1
  O  O30  1  0.62510500  0.70848100  0.52937800  1
  O  O31  1  0.90427300  0.02937800  0.32089600  1
  O  O32  1  0.29151900  0.47062200  0.37489500  1
  O  O33  1  0.09572700  0.62510500  0.41662400  1
  O  O34  1  0.37489500  0.58337600  0.90427300  1
  O  O35  1  0.32089600  0.91662400  0.29151900  1
  O  O36  1  0.70848100  0.67910400  0.08337600  1
  O  O37  1  0.97062200  0.67910400  0.09572700  1
  O  O38  1  0.67910400  0.08337600  0.70848100  1
  O  O39  1  0.47062200  0.59572700  0.17910400  1
  O  O40  1  0.59572700  0.91662400  0.12510500  1
  O  O41  1  0.79151900  0.87489500  0.97062200  1
  O  O42  1  0.40427300  0.82089600  0.52937800  1
  O  O43  1  0.32089600  0.90427300  0.02937800  1
  O  O44  1  0.91662400  0.29151900  0.32089600  1
  O  O45  1  0.47062200  0.37489500  0.29151900  1
  O  O46  1  0.87489500  0.40427300  0.08337600  1
  O  O47  1  0.70848100  0.52937800  0.62510500  1
loop_
_geom_bond_atom_site_label_1
_geom_bond_atom_site_label_2
_geom_bond_distance
_geom_bond_site_symmetry_2
Gd0 O26 2.391297 1_555
Gd0 O0 2.391297 1_554
Gd0 O43 2.391300 1_555
Gd0 O39 2.391300 1_555
Gd0 O34 2.492107 1_554
Gd0 O40 2.492108 1_555
Gd0 O35 2.492115 1_555
Gd0 O20 2.492115 1_555
Gd1 O15 2.391297 1_555
Gd1 O25 2.391297 1_655
Gd1 O37 2.391300 1_555
Gd1 O29 2.391300 1_555
Gd1 O33 2.492107 1_655
Gd1 O46 2.492107 1_555
Gd1 O36 2.492115 1_555
Gd1 O7 2.492115 1_555
Gd2 O23 2.391297 1_555
Gd2 O4 2.391297 1_555
Gd2 O35 2.391297 1_545
Gd2 O45 2.391297 1_555
Gd2 O19 2.492103 1_555
Gd2 O43 2.492103 1_545
Gd2 O17 2.492107 1_555
Gd2 O24 2.492107 1_555
Gd3 O12 2.391297 1_555
Gd3 O46 2.391297 1_556
Gd3 O22 2.391300 1_555
Gd3 O8 2.391300 1_555
Gd3 O15 2.492107 1_556
Gd3 O28 2.492108 1_555
Gd3 O38 2.492115 1_555
Gd3 O16 2.492115 1_555
Gd4 O34 2.391297 1_555
Gd4 O27 2.391297 1_455
Gd4 O21 2.391300 1_555
Gd4 O9 2.391300 1_555
Gd4 O3 2.492107 1_455
Gd4 O0 2.492107 1_555
Gd4 O5 2.492115 1_555
Gd4 O11 2.492115 1_555
Gd5 O28 2.391297 1_565
Gd5 O33 2.391297 1_555
Gd5 O42 2.391300 1_555
Gd5 O10 2.391300 1_555
Gd5 O25 2.492107 1_555
Gd5 O12 2.492108 1_565
Gd5 O13 2.492115 1_555
Gd5 O6 2.492115 1_555
Gd6 O7 2.391296 1_555
Gd6 O18 2.391296 1_555
Gd6 O6 2.391296 1_655
Gd6 O30 2.391297 1_555
Gd6 O29 2.492103 1_555
Gd6 O10 2.492103 1_655
Gd6 O2 2.492107 1_555
Gd6 O47 2.492108 1_555
Gd7 O11 2.391296 1_555
Gd7 O14 2.391296 1_555
Gd7 O44 2.391296 1_455
Gd7 O24 2.391297 1_555
Gd7 O9 2.492103 1_555
Gd7 O31 2.492103 1_455
Gd7 O4 2.492107 1_555
Gd7 O32 2.492108 1_555
Gd8 O5 2.391296 1_554
Gd8 O32 2.391296 1_555
Gd8 O20 2.391297 1_555
Gd8 O17 2.391297 1_555
Gd8 O21 2.492103 1_554
Gd8 O39 2.492103 1_555
Gd8 O45 2.492107 1_555
Gd8 O14 2.492108 1_555
Gd9 O13 2.391297 1_555
Gd9 O2 2.391297 1_555
Gd9 O38 2.391297 1_565
Gd9 O1 2.391297 1_555
Gd9 O42 2.492103 1_555
Gd9 O22 2.492103 1_565
Gd9 O41 2.492107 1_555
Gd9 O30 2.492107 1_555
Gd10 O40 2.391297 1_545
Gd10 O3 2.391297 1_555
Gd10 O19 2.391300 1_555
Gd10 O31 2.391300 1_555
Gd10 O27 2.492107 1_555
Gd10 O26 2.492108 1_545
Gd10 O23 2.492115 1_555
Gd10 O44 2.492115 1_555
Gd11 O36 2.391296 1_556
Gd11 O47 2.391296 1_555
Gd11 O16 2.391297 1_555
Gd11 O41 2.391297 1_555
Gd11 O37 2.492103 1_556
Gd11 O8 2.492103 1_555
Gd11 O1 2.492107 1_555
Gd11 O18 2.492108 1_555
Fe0 O27 2.076447 1_455
Fe0 O25 2.076447 1_545
Fe0 O7 2.076452 1_445
Fe0 O11 2.076452 1_555
Fe0 O31 2.076456 1_455
Fe0 O10 2.076456 1_545
Fe1 O6 1.888371 1_555
Fe1 O43 1.888376 1_556
Fe1 O18 1.888382 1_455
Fe1 O0 1.888382 1_555
Fe2 O38 1.888371 1_555
Fe2 O21 1.888376 1_655
Fe2 O27 1.888382 1_555
Fe2 O2 1.888382 1_545
Fe3 O26 2.076447 1_545
Fe3 O12 2.076447 1_555
Fe3 O35 2.076451 1_545
Fe3 O38 2.076451 1_555
Fe3 O19 2.076456 1_555
Fe3 O42 2.076456 1_545
Fe4 O28 2.076447 1_554
Fe4 O40 2.076447 1_545
Fe4 O23 2.076451 1_555
Fe4 O13 2.076451 1_544
Fe4 O43 2.076456 1_545
Fe4 O22 2.076456 1_554
Fe5 O7 1.888371 1_555
Fe5 O39 1.888376 1_555
Fe5 O30 1.888382 1_555
Fe5 O26 1.888382 1_555
Fe6 O2 2.076447 1_444
Fe6 O4 2.076447 1_555
Fe6 O17 2.076447 1_555
Fe6 O41 2.076447 1_444
Fe6 O14 2.076447 1_555
Fe6 O18 2.076447 1_444
Fe7 O46 2.076447 1_455
Fe7 O0 2.076447 1_554
Fe7 O20 2.076451 1_555
Fe7 O16 2.076451 1_454
Fe7 O21 2.076456 1_554
Fe7 O37 2.076456 1_455
Fe8 O20 1.888371 1_555
Fe8 O42 1.888376 1_555
Fe8 O33 1.888382 1_555
Fe8 O32 1.888382 1_555
Fe9 O33 2.076447 1_555
Fe9 O3 2.076447 1_455
Fe9 O44 2.076452 1_455
Fe9 O6 2.076452 1_555
Fe9 O9 2.076456 1_555
Fe9 O29 2.076456 1_455
Fe10 O5 1.888371 1_555
Fe10 O10 1.888376 1_545
Fe10 O17 1.888382 1_556
Fe10 O28 1.888382 1_555
Fe11 O11 1.888371 1_555
Fe11 O8 1.888376 1_555
Fe11 O24 1.888382 1_555
Fe11 O12 1.888382 1_555
Fe12 O44 1.888371 1_555
Fe12 O22 1.888376 1_554
Fe12 O14 1.888382 1_655
Fe12 O46 1.888382 1_555
Fe13 O16 1.888371 1_555
Fe13 O19 1.888376 1_555
Fe13 O3 1.888382 1_555
Fe13 O47 1.888382 1_555
Fe14 O13 1.888371 1_555
Fe14 O9 1.888376 1_555
Fe14 O34 1.888382 1_555
Fe14 O1 1.888382 1_555
Fe15 O1 2.076447 1_555
Fe15 O45 2.076447 1_555
Fe15 O32 2.076447 1_555
Fe15 O47 2.076447 1_555
Fe15 O24 2.076447 1_555
Fe15 O30 2.076447 1_555
Fe16 O23 1.888371 1_555
Fe16 O29 1.888376 1_555
Fe16 O15 1.888382 1_555
Fe16 O45 1.888382 1_555
Fe17 O36 1.888371 1_555
Fe17 O31 1.888376 1_565
Fe17 O41 1.888382 1_554
Fe17 O40 1.888382 1_555
Fe18 O34 2.076447 1_554
Fe18 O15 2.076447 1_555
Fe18 O5 2.076452 1_554
Fe18 O36 2.076452 1_555
Fe18 O39 2.076456 1_555
Fe18 O8 2.076456 1_554
Fe19 O35 1.888371 1_555
Fe19 O37 1.888376 1_455
Fe19 O25 1.888382 1_555
Fe19 O4 1.888382 1_565
