# generated using pymatgen
data_RbC8
_symmetry_space_group_name_H-M   'P 1'
_cell_length_a   4.95341366
_cell_length_b   4.95343566
_cell_length_c   11.49740434
_cell_angle_alpha   96.17668768
_cell_angle_beta   96.19083510
_cell_angle_gamma   120.00462005
_symmetry_Int_Tables_number   1
_chemical_formula_structural   RbC8
_chemical_formula_sum   'Rb2 C16'
_cell_volume   238.56140065
_cell_formula_units_Z   2
loop_
 _symmetry_equiv_pos_site_id
 _symmetry_equiv_pos_as_xyz
  1  'x, y, z'
loop_
 _atom_site_type_symbol
 _atom_site_label
 _atom_site_symmetry_multiplicity
 _atom_site_fract_x
 _atom_site_fract_y
 _atom_site_fract_z
 _atom_site_occupancy
  Rb  Rb0  1  0.87517674  0.12483458  0.24993340  1
  Rb  Rb1  1  0.12482326  0.87516542  0.75006660  1
  C  C0  1  0.83325858  0.41657336  0.50004460  1
  C  C1  1  0.58344377  0.16675402  0.99995286  1
  C  C2  1  0.16680217  0.08349544  0.50005574  1
  C  C3  1  0.83319783  0.91650456  0.49994426  1
  C  C4  1  0.66569397  0.58232259  0.49765282  1
  C  C5  1  0.08468374  0.66804678  0.00235610  1
  C  C6  1  0.41655623  0.83324598  0.00004714  1
  C  C7  1  0.33430603  0.41767741  0.50234718  1
  C  C8  1  0.66802015  0.08464549  0.50233960  1
  C  C9  1  0.91531626  0.33195322  0.99764390  1
  C  C10  1  0.08348179  0.16678464  0.00005204  1
  C  C11  1  0.16674142  0.58342664  0.49995540  1
  C  C12  1  0.91651821  0.83321536  0.99994796  1
  C  C13  1  0.33197985  0.91535451  0.49766040  1
  C  C14  1  0.58229234  0.66566657  0.99764172  1
  C  C15  1  0.41770766  0.33433243  0.00235828  1
loop_
_geom_bond_atom_site_label_1
_geom_bond_atom_site_label_2
_geom_bond_distance
_geom_bond_site_symmetry_2
C0 C8 1.428992 1_555
C0 C4 1.430129 1_555
C0 C11 1.430694 1_655
C0 Rb1 3.150804 1_655
C0 Rb0 3.152037 1_555
C1 C9 1.428785 1_555
C1 C15 1.430143 1_556
C1 C6 1.430819 1_546
C1 Rb1 3.149444 1_545
C1 Rb0 3.150349 1_556
C2 C7 1.428825 1_555
C2 C3 1.430785 1_445
C2 Rb1 3.150142 1_545
C2 Rb0 3.150429 1_455
C3 C4 1.428825 1_555
C3 C8 1.430158 1_565
C3 Rb0 3.150142 1_565
C3 Rb1 3.150429 1_655
C4 C7 1.432560 1_555
C4 Rb1 3.173290 1_655
C5 C6 1.428785 1_555
C5 C9 1.432580 1_454
C5 Rb1 3.172819 1_554
C6 Rb0 3.149444 1_565
C6 Rb1 3.150349 1_554
C7 Rb0 3.173290 1_455
C8 Rb0 3.174359 1_555
C9 Rb0 3.172819 1_556
C10 C15 1.428975 1_555
C10 C9 1.430220 1_454
C10 C12 1.430657 1_444
C10 Rb0 3.148854 1_455
C10 Rb1 3.149423 1_544
C11 C13 1.428992 1_555
C11 C7 1.430129 1_555
C11 Rb0 3.150804 1_455
C11 Rb1 3.152037 1_555
C12 C14 1.428975 1_555
C12 C5 1.430220 1_656
C12 Rb1 3.148854 1_655
C12 Rb0 3.149423 1_566
C13 C2 1.430158 1_565
C13 C8 1.432394 1_565
C13 Rb1 3.174359 1_555
C14 C6 1.430147 1_556
C14 C15 1.432385 1_556
C14 Rb0 3.172447 1_566
C15 Rb1 3.172445 1_544
