# generated using pymatgen
data_Sr3Se3(ClO4)2
_symmetry_space_group_name_H-M   'P 1'
_cell_length_a   5.60104600
_cell_length_b   11.74125400
_cell_length_c   17.75078200
_cell_angle_alpha   90.00000000
_cell_angle_beta   90.00000000
_cell_angle_gamma   90.00000000
_symmetry_Int_Tables_number   1
_chemical_formula_structural   Sr3Se3(ClO4)2
_chemical_formula_sum   'Sr12 Se12 Cl8 O32'
_cell_volume   1167.35006850
_cell_formula_units_Z   4
loop_
 _symmetry_equiv_pos_site_id
 _symmetry_equiv_pos_as_xyz
  1  'x, y, z'
loop_
 _atom_site_type_symbol
 _atom_site_label
 _atom_site_symmetry_multiplicity
 _atom_site_fract_x
 _atom_site_fract_y
 _atom_site_fract_z
 _atom_site_occupancy
  Sr  Sr0  1  0.75000000  0.03923400  0.80105800  1
  Sr  Sr1  1  0.75000000  0.53923400  0.69894200  1
  Sr  Sr2  1  0.75000000  0.37121200  0.92374900  1
  Sr  Sr3  1  0.25000000  0.96076600  0.19894200  1
  Sr  Sr4  1  0.75000000  0.87121200  0.57625100  1
  Sr  Sr5  1  0.25000000  0.13218000  0.98648800  1
  Sr  Sr6  1  0.25000000  0.12878800  0.42374900  1
  Sr  Sr7  1  0.25000000  0.62878800  0.07625100  1
  Sr  Sr8  1  0.25000000  0.46076600  0.30105800  1
  Sr  Sr9  1  0.75000000  0.86782000  0.01351200  1
  Sr  Sr10  1  0.25000000  0.63218000  0.51351200  1
  Sr  Sr11  1  0.75000000  0.36782000  0.48648800  1
  Se  Se0  1  0.75000000  0.62932400  0.39687200  1
  Se  Se1  1  0.75000000  0.12932400  0.10312800  1
  Se  Se2  1  0.75000000  0.25546700  0.30731400  1
  Se  Se3  1  0.25000000  0.55486300  0.83482800  1
  Se  Se4  1  0.75000000  0.44513700  0.16517200  1
  Se  Se5  1  0.25000000  0.05486300  0.66517200  1
  Se  Se6  1  0.25000000  0.87067600  0.89687200  1
  Se  Se7  1  0.25000000  0.24453300  0.80731400  1
  Se  Se8  1  0.75000000  0.94513700  0.33482800  1
  Se  Se9  1  0.75000000  0.75546700  0.19268600  1
  Se  Se10  1  0.25000000  0.37067600  0.60312800  1
  Se  Se11  1  0.25000000  0.74453300  0.69268600  1
  Cl  Cl0  1  0.75000000  0.10261000  0.49953800  1
  Cl  Cl1  1  0.75000000  0.25579300  0.69584400  1
  Cl  Cl2  1  0.25000000  0.74420700  0.30415600  1
  Cl  Cl3  1  0.25000000  0.89739000  0.50046200  1
  Cl  Cl4  1  0.75000000  0.75579300  0.80415600  1
  Cl  Cl5  1  0.25000000  0.39739000  0.99953800  1
  Cl  Cl6  1  0.75000000  0.60261000  0.00046200  1
  Cl  Cl7  1  0.25000000  0.24420700  0.19584400  1
  O  O0  1  0.48272200  0.21639100  0.86632000  1
  O  O1  1  0.99016800  0.53084500  0.17584500  1
  O  O2  1  0.99016800  0.03084500  0.32415500  1
  O  O3  1  0.51727800  0.78360900  0.13368000  1
  O  O4  1  0.51727800  0.28360900  0.36632000  1
  O  O5  1  0.98272200  0.28360900  0.36632000  1
  O  O6  1  0.00983200  0.46915500  0.82415500  1
  O  O7  1  0.01727800  0.21639100  0.86632000  1
  O  O8  1  0.98531900  0.03544200  0.08752700  1
  O  O9  1  0.98272200  0.78360900  0.13368000  1
  O  O10  1  0.01727800  0.71639100  0.63368000  1
  O  O11  1  0.51468100  0.03544200  0.08752700  1
  O  O12  1  0.01468100  0.96455800  0.91247300  1
  O  O13  1  0.25000000  0.79655200  0.98063000  1
  O  O14  1  0.25000000  0.09695500  0.76667000  1
  O  O15  1  0.98531900  0.53544200  0.41247300  1
  O  O16  1  0.01468100  0.46455800  0.58752700  1
  O  O17  1  0.25000000  0.59695500  0.73333000  1
  O  O18  1  0.51468100  0.53544200  0.41247300  1
  O  O19  1  0.75000000  0.90304500  0.23333000  1
  O  O20  1  0.50983200  0.53084500  0.17584500  1
  O  O21  1  0.49016800  0.96915500  0.67584500  1
  O  O22  1  0.75000000  0.20344800  0.01937000  1
  O  O23  1  0.48272200  0.71639100  0.63368000  1
  O  O24  1  0.75000000  0.40304500  0.26667000  1
  O  O25  1  0.00983200  0.96915500  0.67584500  1
  O  O26  1  0.48531900  0.46455800  0.58752700  1
  O  O27  1  0.48531900  0.96455800  0.91247300  1
  O  O28  1  0.49016800  0.46915500  0.82415500  1
  O  O29  1  0.50983200  0.03084500  0.32415500  1
  O  O30  1  0.25000000  0.29655200  0.51937000  1
  O  O31  1  0.75000000  0.70344800  0.48063000  1
loop_
_geom_bond_atom_site_label_1
_geom_bond_atom_site_label_2
_geom_bond_distance
_geom_bond_site_symmetry_2
Cl0 Sr4 3.039051 1_545
Cl0 Sr6 3.122062 1_655
Cl0 Sr6 3.122062 1_555
Cl0 Sr11 3.122502 1_555
Cl1 Sr0 3.154875 1_555
Cl1 Sr1 3.328407 1_555
Cl2 Sr3 3.154875 1_555
Cl2 Sr8 3.328407 1_555
Cl3 Sr6 3.039051 1_565
Cl3 Sr4 3.122062 1_455
Cl3 Sr4 3.122062 1_555
Cl3 Sr10 3.122502 1_555
Cl4 Sr1 3.154875 1_555
Cl4 Sr0 3.328407 1_565
Cl5 Sr7 3.039051 1_556
Cl5 Sr2 3.122062 1_455
Cl5 Sr2 3.122062 1_555
Cl5 Sr5 3.122502 1_555
Cl6 Sr2 3.039051 1_554
Cl6 Sr7 3.122062 1_655
Cl6 Sr7 3.122062 1_555
Cl6 Sr9 3.122502 1_555
Cl7 Sr8 3.154875 1_555
Cl7 Sr3 3.328407 1_545
O0 Se7 1.704497 1_555
O0 Sr2 2.566064 1_555
O0 Sr5 2.688253 1_555
O0 Sr0 2.812422 1_555
O1 Se4 1.690595 1_555
O1 Sr7 2.562381 1_655
O1 Sr8 2.781203 1_655
O2 Se8 1.690595 1_545
O2 Sr6 2.562381 1_655
O2 Sr3 2.781203 1_645
O3 Se9 1.704497 1_555
O3 Sr7 2.566064 1_555
O3 Sr9 2.688253 1_555
O3 Sr3 2.812422 1_555
O4 Se2 1.704497 1_555
O4 Sr6 2.566064 1_555
O4 Sr11 2.688253 1_555
O4 Sr8 2.812422 1_555
O5 Se2 1.704497 1_555
O5 Sr6 2.566064 1_655
O5 Sr11 2.688253 1_555
O5 Sr8 2.812422 1_655
O6 Se3 1.690595 1_555
O6 Sr2 2.562381 1_455
O6 Sr1 2.781203 1_455
O7 Se7 1.704497 1_555
O7 Sr2 2.566064 1_455
O7 Sr5 2.688253 1_555
O7 Sr0 2.812422 1_455
O8 Se1 1.740387 1_555
O8 Sr5 2.589323 1_654
O8 Sr3 2.622565 1_645
O8 Sr9 2.708640 1_545
O9 Se9 1.704497 1_555
O9 Sr7 2.566064 1_655
O9 Sr9 2.688253 1_555
O9 Sr3 2.812422 1_655
O10 Se11 1.704497 1_555
O10 Sr4 2.566064 1_455
O10 Sr10 2.688253 1_555
O10 Sr1 2.812422 1_455
O11 Se1 1.740387 1_555
O11 Sr5 2.589323 1_554
O11 Sr3 2.622565 1_545
O11 Sr9 2.708640 1_545
O12 Se6 1.740387 1_555
O12 Sr9 2.589323 1_456
O12 Sr0 2.622565 1_465
O12 Sr5 2.708640 1_565
O13 Se6 1.722766 1_555
O13 Sr7 2.600181 1_556
O13 Sr9 2.980571 1_556
O13 Sr9 2.980571 1_456
O14 Se5 1.868223 1_555
O14 Se7 1.876948 1_555
O14 Sr0 2.945307 1_555
O14 Sr0 2.945307 1_455
O15 Se0 1.740387 1_555
O15 Sr10 2.589323 1_655
O15 Sr8 2.622565 1_655
O15 Sr11 2.708640 1_555
O16 Se10 1.740387 1_555
O16 Sr11 2.589323 1_455
O16 Sr1 2.622565 1_455
O16 Sr10 2.708640 1_555
O17 Se3 1.868223 1_555
O17 Se11 1.876948 1_555
O17 Sr1 2.945307 1_555
O17 Sr1 2.945307 1_455
O18 Se0 1.740387 1_555
O18 Sr10 2.589323 1_555
O18 Sr8 2.622565 1_555
O18 Sr11 2.708640 1_555
O19 Se8 1.868223 1_555
O19 Se9 1.876948 1_555
O19 Sr3 2.945307 1_555
O19 Sr3 2.945307 1_655
O20 Se4 1.690595 1_555
O20 Sr7 2.562381 1_555
O20 Sr8 2.781203 1_555
O21 Se5 1.690595 1_565
O21 Sr4 2.562381 1_555
O21 Sr0 2.781203 1_565
O22 Se1 1.722766 1_555
O22 Sr2 2.600181 1_554
O22 Sr5 2.980571 1_554
O22 Sr5 2.980571 1_654
O23 Se11 1.704497 1_555
O23 Sr4 2.566064 1_555
O23 Sr10 2.688253 1_555
O23 Sr1 2.812422 1_555
O24 Se4 1.868223 1_555
O24 Se2 1.876948 1_555
O24 Sr8 2.945307 1_555
O24 Sr8 2.945307 1_655
O25 Se5 1.690595 1_565
O25 Sr4 2.562381 1_455
O25 Sr0 2.781203 1_465
O26 Se10 1.740387 1_555
O26 Sr11 2.589323 1_555
O26 Sr1 2.622565 1_555
O26 Sr10 2.708640 1_555
O27 Se6 1.740387 1_555
O27 Sr9 2.589323 1_556
O27 Sr0 2.622565 1_565
O27 Sr5 2.708640 1_565
O28 Se3 1.690595 1_555
O28 Sr2 2.562381 1_555
O28 Sr1 2.781203 1_555
O29 Se8 1.690595 1_545
O29 Sr6 2.562381 1_555
O29 Sr3 2.781203 1_545
O30 Se10 1.722766 1_555
O30 Sr6 2.600181 1_555
O30 Sr11 2.980571 1_555
O30 Sr11 2.980571 1_455
O31 Se0 1.722766 1_555
O31 Sr4 2.600181 1_555
O31 Sr10 2.980571 1_655
O31 Sr10 2.980571 1_555
