# generated using pymatgen
data_Na2ZrSiO5
_symmetry_space_group_name_H-M   'P 1'
_cell_length_a   5.53856500
_cell_length_b   13.85916400
_cell_length_c   14.03236137
_cell_angle_alpha   60.67976386
_cell_angle_beta   90.00000000
_cell_angle_gamma   90.00000000
_symmetry_Int_Tables_number   1
_chemical_formula_structural   Na2ZrSiO5
_chemical_formula_sum   'Na16 Zr8 Si8 O40'
_cell_volume   939.13910130
_cell_formula_units_Z   8
loop_
 _symmetry_equiv_pos_site_id
 _symmetry_equiv_pos_as_xyz
  1  'x, y, z'
loop_
 _atom_site_type_symbol
 _atom_site_label
 _atom_site_symmetry_multiplicity
 _atom_site_fract_x
 _atom_site_fract_y
 _atom_site_fract_z
 _atom_site_occupancy
  Na  Na0  1  0.26540600  0.85337600  0.07701300  1
  Na  Na1  1  0.26274900  0.32865600  0.81860700  1
  Na  Na2  1  0.23725100  0.82865600  0.81860700  1
  Na  Na3  1  0.76593600  0.93167000  0.42159900  1
  Na  Na4  1  0.76274900  0.17134400  0.18139300  1
  Na  Na5  1  0.24211300  0.35226500  0.31810000  1
  Na  Na6  1  0.25788700  0.85226500  0.31810000  1
  Na  Na7  1  0.23459400  0.35337600  0.07701300  1
  Na  Na8  1  0.73406400  0.43167000  0.42159900  1
  Na  Na9  1  0.23406400  0.06833000  0.57840100  1
  Na  Na10  1  0.74211300  0.14773500  0.68190000  1
  Na  Na11  1  0.73459400  0.14662400  0.92298700  1
  Na  Na12  1  0.26593600  0.56833000  0.57840100  1
  Na  Na13  1  0.73725100  0.67134400  0.18139300  1
  Na  Na14  1  0.76540600  0.64662400  0.92298700  1
  Na  Na15  1  0.75788700  0.64773500  0.68190000  1
  Zr  Zr0  1  0.26350600  0.12761300  0.06517500  1
  Zr  Zr1  1  0.73649400  0.87238700  0.93482500  1
  Zr  Zr2  1  0.73921900  0.69293900  0.43504800  1
  Zr  Zr3  1  0.23921900  0.80706100  0.56495200  1
  Zr  Zr4  1  0.23649400  0.62761300  0.06517500  1
  Zr  Zr5  1  0.26078100  0.30706100  0.56495200  1
  Zr  Zr6  1  0.76078100  0.19293900  0.43504800  1
  Zr  Zr7  1  0.76350600  0.37238700  0.93482500  1
  Si  Si0  1  0.27870100  0.56704400  0.84092400  1
  Si  Si1  1  0.22455000  0.59141300  0.34065200  1
  Si  Si2  1  0.72455000  0.90858700  0.65934800  1
  Si  Si3  1  0.72129900  0.43295600  0.15907600  1
  Si  Si4  1  0.27545000  0.09141300  0.34065200  1
  Si  Si5  1  0.77545000  0.40858700  0.65934800  1
  Si  Si6  1  0.77870100  0.93295600  0.15907600  1
  Si  Si7  1  0.22129900  0.06704400  0.84092400  1
  O  O0  1  0.74970200  0.34885400  0.29121500  1
  O  O1  1  0.75029800  0.84885400  0.29121500  1
  O  O2  1  0.56421700  0.11029600  0.35878100  1
  O  O3  1  0.71112800  0.54160600  0.58935700  1
  O  O4  1  0.40061800  0.96075900  0.87562600  1
  O  O5  1  0.19955900  0.62915800  0.91081900  1
  O  O6  1  0.78887200  0.04160600  0.58935700  1
  O  O7  1  0.28887200  0.45839400  0.41064300  1
  O  O8  1  0.59744100  0.34180600  0.61834700  1
  O  O9  1  0.90061800  0.53924100  0.12437400  1
  O  O10  1  0.59938200  0.03924100  0.12437400  1
  O  O11  1  0.97324600  0.22978900  0.00247400  1
  O  O12  1  0.25029800  0.65114600  0.70878500  1
  O  O13  1  0.30044100  0.12915800  0.91081900  1
  O  O14  1  0.56651700  0.52933200  0.86509600  1
  O  O15  1  0.02675400  0.77021100  0.99752600  1
  O  O16  1  0.09938200  0.46075900  0.87562600  1
  O  O17  1  0.43348300  0.47066800  0.13490400  1
  O  O18  1  0.52675400  0.72978900  0.00247400  1
  O  O19  1  0.96566900  0.26528000  0.50705000  1
  O  O20  1  0.21112800  0.95839400  0.41064300  1
  O  O21  1  0.24970200  0.15114600  0.70878500  1
  O  O22  1  0.43578300  0.88970400  0.64121900  1
  O  O23  1  0.40255900  0.65819400  0.38165300  1
  O  O24  1  0.03433100  0.73472000  0.49295000  1
  O  O25  1  0.80044100  0.37084200  0.08918100  1
  O  O26  1  0.09744100  0.15819400  0.38165300  1
  O  O27  1  0.22312100  0.13873800  0.20958600  1
  O  O28  1  0.69955900  0.87084200  0.08918100  1
  O  O29  1  0.06651700  0.97066800  0.13490400  1
  O  O30  1  0.53433100  0.76528000  0.50705000  1
  O  O31  1  0.90255900  0.84180600  0.61834700  1
  O  O32  1  0.46566900  0.23472000  0.49295000  1
  O  O33  1  0.06421700  0.38970400  0.64121900  1
  O  O34  1  0.77687900  0.86126200  0.79041400  1
  O  O35  1  0.93578300  0.61029600  0.35878100  1
  O  O36  1  0.47324600  0.27021100  0.99752600  1
  O  O37  1  0.72312100  0.36126200  0.79041400  1
  O  O38  1  0.93348300  0.02933200  0.86509600  1
  O  O39  1  0.27687900  0.63873800  0.20958600  1
loop_
_geom_bond_atom_site_label_1
_geom_bond_atom_site_label_2
_geom_bond_distance
_geom_bond_site_symmetry_2
Na0 O15 2.361947 1_554
Na0 O29 2.410211 1_555
Na0 O28 2.431102 1_555
Na0 O4 2.577331 1_554
Na0 O39 2.625621 1_555
Na0 O18 2.806703 1_555
Na1 O13 2.420450 1_555
Na1 O33 2.461362 1_555
Na1 O16 2.499102 1_555
Na1 O36 2.515354 1_555
Na1 O37 2.585945 1_555
Na1 O11 2.764589 1_456
Na2 O5 2.420450 1_555
Na2 O22 2.461362 1_555
Na2 O4 2.499102 1_555
Na2 O15 2.515354 1_555
Na2 O34 2.585945 1_455
Na2 O18 2.764589 1_556
Na3 O30 2.385985 1_555
Na3 O2 2.452884 1_565
Na3 O20 2.486935 1_655
Na3 O31 2.525545 1_555
Na3 O1 2.594015 1_555
Na3 O24 2.825979 1_655
Na4 O25 2.420450 1_555
Na4 O2 2.461362 1_555
Na4 O10 2.499102 1_555
Na4 O11 2.515354 1_555
Na4 O27 2.585945 1_655
Na4 O36 2.764589 1_554
Na5 O7 2.405726 1_555
Na5 O32 2.508447 1_555
Na5 O17 2.508613 1_555
Na5 O26 2.514448 1_555
Na5 O0 2.756795 1_455
Na5 O19 2.774369 1_455
Na5 O0 2.839985 1_555
Na6 O20 2.405726 1_555
Na6 O24 2.508447 1_555
Na6 O29 2.508613 1_555
Na6 O23 2.514448 1_555
Na6 O1 2.756795 1_555
Na6 O30 2.774369 1_555
Na6 O1 2.839985 1_455
Na7 O36 2.361947 1_554
Na7 O17 2.410211 1_555
Na7 O25 2.431102 1_455
Na7 O16 2.577331 1_554
Na7 O27 2.625621 1_555
Na7 O11 2.806703 1_455
Na8 O19 2.385985 1_555
Na8 O35 2.452884 1_555
Na8 O7 2.486935 1_555
Na8 O8 2.525545 1_555
Na8 O0 2.594015 1_555
Na8 O32 2.825979 1_555
Na9 O32 2.385985 1_555
Na9 O22 2.452884 1_545
Na9 O6 2.486935 1_455
Na9 O26 2.525545 1_555
Na9 O21 2.594015 1_555
Na9 O19 2.825979 1_455
Na10 O6 2.405726 1_555
Na10 O19 2.508447 1_555
Na10 O38 2.508613 1_555
Na10 O8 2.514448 1_555
Na10 O21 2.756795 1_555
Na10 O32 2.774369 1_555
Na10 O21 2.839985 1_655
Na11 O11 2.361947 1_556
Na11 O38 2.410211 1_555
Na11 O13 2.431102 1_555
Na11 O10 2.577331 1_556
Na11 O37 2.625621 1_555
Na11 O36 2.806703 1_555
Na12 O24 2.385985 1_555
Na12 O33 2.452884 1_555
Na12 O3 2.486935 1_555
Na12 O23 2.525545 1_555
Na12 O12 2.594015 1_555
Na12 O30 2.825979 1_555
Na13 O28 2.420450 1_555
Na13 O35 2.461362 1_555
Na13 O9 2.499102 1_555
Na13 O18 2.515354 1_555
Na13 O39 2.585945 1_555
Na13 O15 2.764589 1_654
Na14 O18 2.361947 1_556
Na14 O14 2.410211 1_555
Na14 O5 2.431102 1_655
Na14 O9 2.577331 1_556
Na14 O34 2.625621 1_555
Na14 O15 2.806703 1_655
Na15 O3 2.405726 1_555
Na15 O30 2.508447 1_555
Na15 O14 2.508613 1_555
Na15 O31 2.514448 1_555
Na15 O12 2.756795 1_655
Na15 O24 2.774369 1_655
Na15 O12 2.839985 1_555
O0 Si3 1.644623 1_555
O0 Zr6 2.115488 1_555
O1 Si6 1.644623 1_555
O1 Zr2 2.115488 1_555
O2 Si4 1.660224 1_555
O2 Zr6 2.200665 1_555
O3 Si5 1.648287 1_555
O3 Zr2 2.159606 1_555
O4 Si7 1.640366 1_565
O4 Zr1 2.157379 1_555
O5 Si0 1.649864 1_555
O5 Zr4 2.165260 1_556
O6 Si2 1.648287 1_545
O6 Zr6 2.159606 1_555
O7 Si1 1.648287 1_555
O7 Zr5 2.159606 1_555
O8 Si5 1.637426 1_555
O8 Zr5 2.150210 1_555
O9 Si3 1.640366 1_555
O9 Zr4 2.157379 1_655
O10 Si6 1.640366 1_545
O10 Zr0 2.157379 1_555
O11 Zr0 2.035586 1_655
O11 Zr7 2.078204 1_554
O12 Si0 1.644623 1_555
O12 Zr3 2.115488 1_555
O13 Si7 1.649864 1_555
O13 Zr0 2.165260 1_556
O14 Si0 1.660033 1_555
O14 Zr7 2.189641 1_555
O15 Zr1 2.035586 1_455
O15 Zr4 2.078204 1_556
O16 Si0 1.640366 1_555
O16 Zr7 2.157379 1_455
O17 Si3 1.660033 1_555
O17 Zr4 2.189641 1_555
O18 Zr4 2.035586 1_555
O18 Zr1 2.078204 1_554
O19 Zr5 2.031703 1_655
O19 Zr6 2.075048 1_555
O20 Si4 1.648287 1_565
O20 Zr3 2.159606 1_555
O21 Si7 1.644623 1_555
O21 Zr5 2.115488 1_555
O22 Si2 1.660224 1_555
O22 Zr3 2.200665 1_555
O23 Si1 1.637426 1_555
O23 Zr2 2.150210 1_555
O24 Zr2 2.031703 1_455
O24 Zr3 2.075048 1_555
O25 Si3 1.649864 1_555
O25 Zr7 2.165260 1_554
O26 Si4 1.637426 1_555
O26 Zr6 2.150210 1_455
O27 Si4 1.647819 1_555
O27 Zr0 2.118067 1_555
O28 Si6 1.649864 1_555
O28 Zr1 2.165260 1_554
O29 Si6 1.660033 1_455
O29 Zr0 2.189641 1_565
O30 Zr3 2.031703 1_555
O30 Zr2 2.075048 1_555
O31 Si2 1.637426 1_555
O31 Zr3 2.150210 1_655
O32 Zr6 2.031703 1_555
O32 Zr5 2.075048 1_555
O33 Si5 1.660224 1_455
O33 Zr5 2.200665 1_555
O34 Si2 1.647819 1_555
O34 Zr1 2.118067 1_555
O35 Si1 1.660224 1_655
O35 Zr2 2.200665 1_555
O36 Zr7 2.035586 1_555
O36 Zr0 2.078204 1_556
O37 Si5 1.647819 1_555
O37 Zr7 2.118067 1_555
O38 Si7 1.660033 1_655
O38 Zr1 2.189641 1_545
O39 Si1 1.647819 1_555
O39 Zr4 2.118067 1_555
