# generated using pymatgen
data_La6Zr8F47
_symmetry_space_group_name_H-M   'P 1'
_cell_length_a   11.01450400
_cell_length_b   11.01450400
_cell_length_c   12.68803729
_cell_angle_alpha   55.37024336
_cell_angle_beta   55.37024336
_cell_angle_gamma   71.11643424
_symmetry_Int_Tables_number   1
_chemical_formula_structural   La6Zr8F47
_chemical_formula_sum   'La6 Zr8 F47'
_cell_volume   1042.21257282
_cell_formula_units_Z   1
loop_
 _symmetry_equiv_pos_site_id
 _symmetry_equiv_pos_as_xyz
  1  'x, y, z'
loop_
 _atom_site_type_symbol
 _atom_site_label
 _atom_site_symmetry_multiplicity
 _atom_site_fract_x
 _atom_site_fract_y
 _atom_site_fract_z
 _atom_site_occupancy
  La  La0  1  0.24471200  0.24886900  0.38005000  1
  La  La1  1  0.37691300  0.87885600  0.12347500  1
  La  La2  1  0.75113100  0.75528800  0.61995000  1
  La  La3  1  0.62180600  0.37819400  0.50000000  1
  La  La4  1  0.12114400  0.62308700  0.87652500  1
  La  La5  1  0.87727100  0.12272900  0.00000000  1
  Zr  Zr0  1  0.84205800  0.00004900  0.75140900  1
  Zr  Zr1  1  0.50847500  0.35301700  0.90974200  1
  Zr  Zr2  1  0.34420100  0.99766000  0.75168600  1
  Zr  Zr3  1  0.00234000  0.65579900  0.24831400  1
  Zr  Zr4  1  0.99995100  0.15794200  0.24859100  1
  Zr  Zr5  1  0.15413800  0.50182600  0.59334900  1
  Zr  Zr6  1  0.49817400  0.84586200  0.40665100  1
  Zr  Zr7  1  0.64698300  0.49152500  0.09025800  1
  F  F0  1  0.35272300  0.02203500  0.38057900  1
  F  F1  1  0.01424700  0.14976800  0.59838200  1
  F  F2  1  0.17314400  0.40495200  0.48638100  1
  F  F3  1  0.47088300  0.33915000  0.27370000  1
  F  F4  1  0.25748600  0.68461800  0.39146600  1
  F  F5  1  0.68723300  0.22703900  0.93197800  1
  F  F6  1  0.15234800  0.48292600  0.25100800  1
  F  F7  1  0.49736800  0.85735400  0.23911700  1
  F  F8  1  0.54872000  0.45128000  0.00000000  1
  F  F9  1  0.48894000  0.65939800  0.10771500  1
  F  F10  1  0.18343600  0.76304500  0.16546300  1
  F  F11  1  0.15523400  0.99048400  0.24534700  1
  F  F12  1  0.66085000  0.52911700  0.72630000  1
  F  F13  1  0.10024900  0.18120200  0.33162200  1
  F  F14  1  0.63592500  0.92519500  0.92793100  1
  F  F15  1  0.97796500  0.64727700  0.61942100  1
  F  F16  1  0.41877900  0.14481400  0.02461800  1
  F  F17  1  0.81879800  0.89975100  0.66837800  1
  F  F18  1  0.36044100  0.99748100  0.90626100  1
  F  F19  1  0.51707400  0.84765200  0.74899200  1
  F  F20  1  0.90667800  0.68423700  0.42688400  1
  F  F21  1  0.23695500  0.81656400  0.83453700  1
  F  F22  1  0.74019400  0.18000000  0.64779700  1
  F  F23  1  0.07480500  0.36407500  0.07207000  1
  F  F24  1  0.59504800  0.82685600  0.51361900  1
  F  F25  1  0.14011500  0.08093500  0.84803700  1
  F  F26  1  0.85023200  0.98575300  0.40161800  1
  F  F27  1  0.50908300  0.36205200  0.73649000  1
  F  F28  1  0.34060200  0.51106000  0.89228500  1
  F  F29  1  0.00251900  0.63955900  0.09373900  1
  F  F30  1  0.50821200  0.15550500  0.60204000  1
  F  F31  1  0.31576300  0.09332200  0.57311600  1
  F  F32  1  0.91906500  0.85988500  0.15196300  1
  F  F33  1  0.82000000  0.25980600  0.35220300  1
  F  F34  1  0.14264600  0.50263200  0.76088300  1
  F  F35  1  0.84449500  0.49178800  0.39796000  1
  F  F36  1  0.65842100  0.00753000  0.23492700  1
  F  F37  1  0.35985100  0.41932900  0.56684800  1
  F  F38  1  0.00253700  0.13549700  0.09686000  1
  F  F39  1  0.31538200  0.74251400  0.60853400  1
  F  F40  1  0.58067100  0.64014900  0.43315200  1
  F  F41  1  0.63794800  0.49091700  0.26351000  1
  F  F42  1  0.00951600  0.84476600  0.75465300  1
  F  F43  1  0.86450300  0.99746300  0.90314000  1
  F  F44  1  0.77296100  0.31276700  0.06802200  1
  F  F45  1  0.85518600  0.58122100  0.97538200  1
  F  F46  1  0.99247000  0.34157900  0.76507300  1
loop_
_geom_bond_atom_site_label_1
_geom_bond_atom_site_label_2
_geom_bond_distance
_geom_bond_site_symmetry_2
F0 Zr6 2.074113 1_545
F0 La0 2.392433 1_555
F1 Zr0 2.070390 1_455
F1 La0 2.381999 1_555
F2 Zr5 2.050071 1_555
F2 La0 2.438706 1_555
F3 Zr7 2.129048 1_555
F3 La0 2.296406 1_555
F4 Zr5 2.053981 1_555
F4 La1 2.517848 1_555
F5 Zr1 2.073560 1_555
F5 La5 2.411606 1_556
F6 Zr3 2.076188 1_555
F6 La0 2.400008 1_555
F7 Zr6 2.061437 1_555
F7 La1 2.362925 1_555
F8 Zr1 2.230605 1_554
F8 Zr7 2.230605 1_555
F9 Zr7 2.107618 1_555
F9 La1 2.396618 1_555
F10 Zr3 2.051805 1_555
F10 La1 2.479770 1_555
F11 Zr4 2.072041 1_465
F11 La1 2.406470 1_555
F12 Zr1 2.129048 1_555
F12 La2 2.296406 1_555
F13 Zr4 2.051498 1_455
F13 La0 2.421632 1_555
F14 Zr0 2.045604 1_565
F14 La1 2.452301 1_556
F15 Zr5 2.074113 1_655
F15 La2 2.392433 1_555
F16 Zr1 2.095352 1_554
F16 La1 2.531450 1_545
F17 Zr0 2.051498 1_565
F17 La2 2.421632 1_555
F18 Zr2 2.067030 1_555
F18 La1 2.378638 1_556
F19 Zr2 2.076188 1_555
F19 La2 2.400008 1_555
F20 Zr3 2.054612 1_655
F20 La2 2.467678 1_555
F21 Zr2 2.051805 1_555
F21 La4 2.479770 1_555
F22 Zr0 2.047227 1_555
F22 La3 2.503283 1_555
F23 Zr4 2.045601 1_455
F23 La4 2.452304 1_554
F24 Zr6 2.050071 1_555
F24 La2 2.438706 1_555
F25 Zr2 2.050712 1_545
F25 La5 2.472442 1_456
F26 Zr4 2.070390 1_565
F26 La2 2.381999 1_555
F27 Zr1 2.139445 1_555
F27 La3 2.424681 1_555
F28 Zr1 2.107618 1_555
F28 La4 2.396618 1_555
F29 Zr3 2.067030 1_555
F29 La4 2.378638 1_554
F30 Zr2 2.067374 1_545
F30 La3 2.407098 1_555
F31 Zr2 2.054612 1_545
F31 La0 2.467678 1_555
F32 Zr3 2.050712 1_655
F32 La5 2.472442 1_565
F33 Zr4 2.047227 1_555
F33 La3 2.503283 1_555
F34 Zr5 2.061437 1_555
F34 La4 2.362925 1_555
F35 Zr3 2.067374 1_655
F35 La3 2.407098 1_555
F36 Zr6 2.070643 1_545
F36 La5 2.412575 1_555
F37 Zr5 2.054594 1_555
F37 La3 2.461473 1_555
F38 Zr4 2.059672 1_455
F38 La5 2.383911 1_455
F39 Zr6 2.053981 1_555
F39 La4 2.517848 1_555
F40 Zr6 2.054594 1_555
F40 La3 2.461473 1_555
F41 Zr7 2.139445 1_555
F41 La3 2.424681 1_555
F42 Zr0 2.072041 1_465
F42 La4 2.406470 1_555
F43 Zr0 2.059672 1_565
F43 La5 2.383911 1_566
F44 Zr7 2.073560 1_555
F44 La5 2.411606 1_555
F45 Zr7 2.095352 1_556
F45 La4 2.531450 1_655
F46 Zr5 2.070643 1_655
F46 La5 2.412575 1_556
