# generated using pymatgen
data_LiV6O13
_symmetry_space_group_name_H-M   'P 1'
_cell_length_a   3.72003840
_cell_length_b   11.46433421
_cell_length_c   12.13745835
_cell_angle_alpha   110.40831088
_cell_angle_beta   90.16672360
_cell_angle_gamma   99.33072330
_symmetry_Int_Tables_number   1
_chemical_formula_structural   LiV6O13
_chemical_formula_sum   'Li2 V12 O26'
_cell_volume   477.73521650
_cell_formula_units_Z   2
loop_
 _symmetry_equiv_pos_site_id
 _symmetry_equiv_pos_as_xyz
  1  'x, y, z'
loop_
 _atom_site_type_symbol
 _atom_site_label
 _atom_site_symmetry_multiplicity
 _atom_site_fract_x
 _atom_site_fract_y
 _atom_site_fract_z
 _atom_site_occupancy
  Li  Li0  1  0.81172000  0.63003600  0.23572300  1
  Li  Li1  1  0.18828000  0.36996400  0.76427700  1
  V  V0  1  0.77325600  0.55159700  0.92599500  1
  V  V1  1  0.22674400  0.44840300  0.07400500  1
  V  V2  1  0.21996500  0.49317300  0.38846300  1
  V  V3  1  0.78003500  0.50682700  0.61153700  1
  V  V4  1  0.94732700  0.89661800  0.04163400  1
  V  V5  1  0.05267300  0.10338200  0.95836600  1
  V  V6  1  0.42625800  0.85466000  0.51591200  1
  V  V7  1  0.57374200  0.14534000  0.48408800  1
  V  V8  1  0.92779800  0.85439300  0.71629800  1
  V  V9  1  0.07220200  0.14560700  0.28370200  1
  V  V10  1  0.43607800  0.87202100  0.23076600  1
  V  V11  1  0.56392200  0.12797900  0.76923400  1
  O  O0  1  0.75451100  0.50616300  0.07171600  1
  O  O1  1  0.24548900  0.49383700  0.92828400  1
  O  O2  1  0.24752700  0.49810300  0.57039900  1
  O  O3  1  0.75247300  0.50189700  0.42960100  1
  O  O4  1  0.93586300  0.87347000  0.55852200  1
  O  O5  1  0.06413700  0.12653000  0.44147800  1
  O  O6  1  0.44377900  0.88842700  0.06881800  1
  O  O7  1  0.55622100  0.11157300  0.93118200  1
  O  O8  1  0.95932900  0.91861400  0.21733800  1
  O  O9  1  0.04067100  0.08138600  0.78266200  1
  O  O10  1  0.44885300  0.89743300  0.69527200  1
  O  O11  1  0.55114700  0.10256700  0.30472800  1
  O  O12  1  0.73933700  0.49629700  0.75564600  1
  O  O13  1  0.26066300  0.50370300  0.24435400  1
  O  O14  1  0.85469500  0.71046300  0.97224600  1
  O  O15  1  0.14530600  0.28953700  0.02775400  1
  O  O16  1  0.34420100  0.69662800  0.44941000  1
  O  O17  1  0.65579900  0.30337200  0.55058900  1
  O  O18  1  0.85099800  0.69420000  0.67855800  1
  O  O19  1  0.14900200  0.30580000  0.32144200  1
  O  O20  1  0.35749000  0.71504600  0.19654500  1
  O  O21  1  0.64251000  0.28495500  0.80345500  1
  O  O22  1  0.95932000  0.91841000  0.89349100  1
  O  O23  1  0.04068000  0.08159000  0.10650900  1
  O  O24  1  0.45678400  0.91390000  0.40001600  1
  O  O25  1  0.54321600  0.08610000  0.59998400  1
loop_
_geom_bond_atom_site_label_1
_geom_bond_atom_site_label_2
_geom_bond_distance
_geom_bond_site_symmetry_2
Li0 O0 1.988120 1_555
Li0 O20 2.209917 1_555
Li0 O20 2.232756 1_655
Li0 O13 2.335646 1_555
Li0 O13 2.405606 1_655
Li1 O1 1.988120 1_555
Li1 O21 2.209909 1_555
Li1 O21 2.232751 1_455
Li1 O12 2.335646 1_555
Li1 O12 2.405606 1_455
O0 V1 1.971151 1_555
O0 V1 1.978659 1_655
O0 V0 2.008941 1_554
O1 V0 1.971151 1_555
O1 V0 1.978659 1_455
O1 V1 2.008941 1_556
O2 V3 1.819442 1_455
O2 V3 2.019566 1_555
O2 V2 2.190843 1_555
O3 V2 1.819442 1_655
O3 V2 2.019566 1_555
O3 V3 2.190843 1_555
O4 V6 1.921404 1_555
O4 V6 1.922831 1_655
O4 V8 2.001563 1_555
O5 V7 1.921404 1_555
O5 V7 1.922831 1_455
O5 V9 2.001563 1_555
O6 V4 1.895994 1_555
O6 V4 1.898085 1_455
O6 V10 2.038711 1_555
O7 V5 1.895994 1_555
O7 V5 1.898085 1_655
O7 V11 2.038711 1_555
O8 V10 1.955377 1_655
O8 V10 1.956070 1_555
O8 V4 2.057743 1_555
O8 V9 2.403962 1_665
O9 V11 1.955377 1_455
O9 V11 1.956070 1_555
O9 V5 2.057743 1_555
O9 V8 2.403962 1_445
O10 V8 1.961209 1_455
O10 V8 1.962976 1_555
O10 V6 2.056164 1_555
O10 V11 2.439467 1_565
O11 V9 1.961209 1_655
O11 V9 1.962976 1_555
O11 V7 2.056164 1_555
O11 V10 2.439467 1_545
O12 V3 1.799939 1_555
O12 V0 1.936800 1_555
O13 V2 1.799939 1_555
O13 V1 1.936800 1_555
O14 V0 1.682577 1_555
O14 V4 1.972038 1_556
O15 V1 1.682577 1_555
O15 V5 1.972038 1_554
O16 V6 1.681197 1_555
O16 V2 2.155544 1_555
O17 V7 1.681196 1_555
O17 V3 2.155544 1_555
O18 V8 1.704878 1_555
O18 V3 1.985440 1_555
O19 V9 1.704878 1_555
O19 V2 1.985440 1_555
O20 V10 1.674511 1_555
O21 V11 1.674522 1_555
O22 V4 1.899378 1_556
O22 V5 1.957694 1_665
O22 V8 2.011863 1_555
O23 V5 1.899378 1_554
O23 V4 1.957694 1_445
O23 V9 2.011863 1_555
O24 V6 1.759286 1_555
O24 V10 1.937959 1_555
O24 V7 2.450596 1_565
O25 V7 1.759286 1_555
O25 V11 1.937959 1_555
O25 V6 2.450596 1_545
