# generated using pymatgen
data_Hf2P2O9
_symmetry_space_group_name_H-M   'P 1'
_cell_length_a   7.55859425
_cell_length_b   7.55859425
_cell_length_c   10.00976695
_cell_angle_alpha   53.20753673
_cell_angle_beta   53.20753673
_cell_angle_gamma   51.48817246
_symmetry_Int_Tables_number   1
_chemical_formula_structural   Hf2P2O9
_chemical_formula_sum   'Hf4 P4 O18'
_cell_volume   334.23521816
_cell_formula_units_Z   2
loop_
 _symmetry_equiv_pos_site_id
 _symmetry_equiv_pos_as_xyz
  1  'x, y, z'
loop_
 _atom_site_type_symbol
 _atom_site_label
 _atom_site_symmetry_multiplicity
 _atom_site_fract_x
 _atom_site_fract_y
 _atom_site_fract_z
 _atom_site_occupancy
  Hf  Hf0  1  0.31601168  0.31601168  0.63514303  1
  Hf  Hf1  1  0.68398832  0.68398832  0.36485697  1
  Hf  Hf2  1  0.05742106  0.05742106  0.09670871  1
  Hf  Hf3  1  0.94257894  0.94257894  0.90329129  1
  P  P0  1  0.40785188  0.40785188  0.83684611  1
  P  P1  1  0.83011562  0.83011562  0.54337967  1
  P  P2  1  0.59214812  0.59214812  0.16315389  1
  P  P3  1  0.16988438  0.16988438  0.45662033  1
  O  O0  1  0.48485057  0.48485057  0.63320704  1
  O  O1  1  0.72648223  0.72648223  0.52547891  1
  O  O2  1  0.26659944  0.26659944  0.90482033  1
  O  O3  1  0.27351777  0.27351777  0.47452109  1
  O  O4  1  0.99454595  0.37513235  0.35707691  1
  O  O5  1  0.37957343  0.75870265  0.10292962  1
  O  O6  1  0.24129735  0.62042657  0.89707038  1
  O  O7  1  0.88544456  0.88544456  0.15687362  1
  O  O8  1  0.00545405  0.62486765  0.64292309  1
  O  O9  1  0.96751259  0.96751259  0.35648347  1
  O  O10  1  0.51514943  0.51514943  0.36679296  1
  O  O11  1  0.73340056  0.73340056  0.09517967  1
  O  O12  1  0.75870265  0.37957343  0.10292962  1
  O  O13  1  0.03248741  0.03248741  0.64351653  1
  O  O14  1  0.62042657  0.24129735  0.89707038  1
  O  O15  1  0.62486765  0.00545405  0.64292309  1
  O  O16  1  0.11455544  0.11455544  0.84312638  1
  O  O17  1  0.37513235  0.99454595  0.35707691  1
loop_
_geom_bond_atom_site_label_1
_geom_bond_atom_site_label_2
_geom_bond_distance
_geom_bond_site_symmetry_2
Hf0 O15 2.034821 1_555
Hf0 O8 2.034821 1_555
Hf0 O3 2.038859 1_555
Hf0 O16 2.065090 1_555
Hf0 O10 2.209513 1_555
Hf0 O0 2.286190 1_555
Hf0 O2 2.307422 1_555
Hf1 O4 2.034821 1_555
Hf1 O17 2.034821 1_555
Hf1 O1 2.038859 1_555
Hf1 O7 2.065090 1_555
Hf1 O0 2.209513 1_555
Hf1 O10 2.286190 1_555
Hf1 O11 2.307422 1_555
Hf2 O7 1.992749 1_445
Hf2 O9 2.006708 1_445
Hf2 O5 2.048786 1_545
Hf2 O12 2.048786 1_455
Hf2 O16 2.102888 1_554
Hf2 O2 2.127632 1_554
Hf3 O16 1.992749 1_665
Hf3 O13 2.006708 1_665
Hf3 O14 2.048786 1_565
Hf3 O6 2.048786 1_655
Hf3 O7 2.102888 1_556
Hf3 O11 2.127632 1_556
O0 P0 1.553124 1_555
O1 P1 1.536128 1_555
O2 P0 1.556296 1_555
O3 P3 1.536128 1_555
O4 P3 1.525030 1_655
O5 P2 1.504019 1_555
O6 P0 1.504019 1_555
O8 P1 1.525030 1_455
O9 P1 1.531542 1_555
O10 P2 1.553124 1_555
O11 P2 1.556296 1_555
O12 P2 1.504019 1_555
O13 P3 1.531542 1_555
O14 P0 1.504019 1_555
O15 P1 1.525030 1_545
O17 P3 1.525030 1_565
