# generated using pymatgen
data_BaVS3
_symmetry_space_group_name_H-M   'P 1'
_cell_length_a   6.83732578
_cell_length_b   8.79610863
_cell_length_c   8.81395441
_cell_angle_alpha   79.63771987
_cell_angle_beta   67.17801594
_cell_angle_gamma   67.12908783
_symmetry_Int_Tables_number   1
_chemical_formula_structural   BaVS3
_chemical_formula_sum   'Ba4 V4 S12'
_cell_volume   449.91308247
_cell_formula_units_Z   4
loop_
 _symmetry_equiv_pos_site_id
 _symmetry_equiv_pos_as_xyz
  1  'x, y, z'
loop_
 _atom_site_type_symbol
 _atom_site_label
 _atom_site_symmetry_multiplicity
 _atom_site_fract_x
 _atom_site_fract_y
 _atom_site_fract_z
 _atom_site_occupancy
  Ba  Ba0  1  0.33603100  0.53958300  0.78835400  1
  Ba  Ba1  1  0.66303200  0.95887700  0.71506000  1
  Ba  Ba2  1  0.33308300  0.03766400  0.29616900  1
  Ba  Ba3  1  0.65722900  0.46729100  0.21825000  1
  V  V0  1  0.97359300  0.78461900  0.26819600  1
  V  V1  1  0.02232100  0.48281200  0.47254700  1
  V  V2  1  0.97323500  0.27509400  0.77843700  1
  V  V3  1  0.01893300  0.98377900  0.97835500  1
  S  S0  1  0.82803700  0.05554900  0.28837700  1
  S  S1  1  0.16697200  0.46159100  0.20446400  1
  S  S2  1  0.82601600  0.54605000  0.80191800  1
  S  S3  1  0.16595900  0.96131600  0.70676600  1
  S  S4  1  0.31869300  0.79072300  0.05251600  1
  S  S5  1  0.83806700  0.79072300  0.05251600  1
  S  S6  1  0.67741400  0.70486000  0.46439400  1
  S  S7  1  0.15333200  0.70486000  0.46439400  1
  S  S8  1  0.31676200  0.29126700  0.55228000  1
  S  S9  1  0.83969100  0.29126700  0.55228000  1
  S  S10  1  0.67380100  0.20148700  0.96251300  1
  S  S11  1  0.16219900  0.20148700  0.96251300  1
loop_
_geom_bond_atom_site_label_1
_geom_bond_atom_site_label_2
_geom_bond_distance
_geom_bond_site_symmetry_2
Ba0 S8 3.344989 1_555
Ba0 S9 3.344993 1_555
Ba0 S1 3.417671 1_556
Ba0 S7 3.418926 1_555
Ba0 S6 3.418930 1_555
Ba0 S2 3.420894 1_455
Ba0 S2 3.420901 1_555
Ba0 S4 3.427482 1_556
Ba0 S5 3.427482 1_456
Ba0 S3 3.459258 1_555
Ba0 S11 3.507590 1_555
Ba0 S10 3.507594 1_555
Ba1 S10 3.352240 1_565
Ba1 S11 3.352244 1_565
Ba1 S7 3.364497 1_655
Ba1 S6 3.364500 1_555
Ba1 S2 3.395630 1_555
Ba1 S3 3.419367 1_655
Ba1 S3 3.419374 1_555
Ba1 S9 3.457944 1_565
Ba1 S8 3.457947 1_565
Ba1 S5 3.502758 1_556
Ba1 S4 3.502765 1_556
Ba1 S0 3.527487 1_565
Ba2 S4 3.368661 1_545
Ba2 S5 3.368661 1_545
Ba2 S3 3.371646 1_545
Ba2 S9 3.392162 1_455
Ba2 S8 3.392165 1_555
Ba2 S0 3.422225 1_455
Ba2 S0 3.422231 1_555
Ba2 S11 3.452874 1_554
Ba2 S10 3.452878 1_554
Ba2 S7 3.478511 1_545
Ba2 S6 3.478514 1_545
Ba2 S1 3.490540 1_555
Ba3 S7 3.343636 1_555
Ba3 S6 3.343640 1_555
Ba3 S0 3.365966 1_555
Ba3 S5 3.405072 1_555
Ba3 S4 3.405072 1_555
Ba3 S2 3.420387 1_554
Ba3 S1 3.420861 1_555
Ba3 S1 3.420861 1_655
Ba3 S10 3.471578 1_554
Ba3 S11 3.471582 1_654
Ba3 S8 3.511332 1_555
Ba3 S9 3.511335 1_555
S0 V0 2.207487 1_545
S0 V3 2.604261 1_644
S1 V1 2.190545 1_555
S1 V0 2.686076 1_455
S2 V2 2.210763 1_555
S2 V1 2.741642 1_655
S3 V3 2.220087 1_555
S3 V2 2.628236 1_465
S4 V3 2.333706 1_554
S4 V0 2.401325 1_455
S5 V3 2.333710 1_654
S5 V0 2.401334 1_555
S6 V0 2.352628 1_555
S6 V1 2.425272 1_655
S7 V0 2.352623 1_455
S7 V1 2.425268 1_555
S8 V1 2.328197 1_555
S8 V2 2.456880 1_455
S9 V1 2.328202 1_655
S9 V2 2.456885 1_555
S10 V2 2.306249 1_555
S10 V3 2.429404 1_645
S11 V2 2.306244 1_455
S11 V3 2.429404 1_545
