# generated using pymatgen
data_Ta2MnO6
_symmetry_space_group_name_H-M   'P 1'
_cell_length_a   5.08849525
_cell_length_b   5.77282803
_cell_length_c   14.40662839
_cell_angle_alpha   90.00000000
_cell_angle_beta   90.00000000
_cell_angle_gamma   90.00000000
_symmetry_Int_Tables_number   1
_chemical_formula_structural   Ta2MnO6
_chemical_formula_sum   'Ta8 Mn4 O24'
_cell_volume   423.19482435
_cell_formula_units_Z   4
loop_
 _symmetry_equiv_pos_site_id
 _symmetry_equiv_pos_as_xyz
  1  'x, y, z'
loop_
 _atom_site_type_symbol
 _atom_site_label
 _atom_site_symmetry_multiplicity
 _atom_site_fract_x
 _atom_site_fract_y
 _atom_site_fract_z
 _atom_site_occupancy
  Ta  Ta0  1  0.23789733  0.67671979  0.16182623  1
  Ta  Ta1  1  0.73789733  0.82328021  0.33817377  1
  Ta  Ta2  1  0.26210267  0.67671979  0.83817377  1
  Ta  Ta3  1  0.76210267  0.82328021  0.66182623  1
  Ta  Ta4  1  0.76210267  0.32328021  0.83817377  1
  Ta  Ta5  1  0.26210267  0.17671979  0.66182623  1
  Ta  Ta6  1  0.73789733  0.32328021  0.16182623  1
  Ta  Ta7  1  0.23789733  0.17671979  0.33817377  1
  Mn  Mn0  1  0.75000000  0.82906192  0.00000000  1
  Mn  Mn1  1  0.25000000  0.67093808  0.50000000  1
  Mn  Mn2  1  0.25000000  0.17093808  0.00000000  1
  Mn  Mn3  1  0.75000000  0.32906192  0.50000000  1
  O  O0  1  0.56302364  0.60017988  0.09853446  1
  O  O1  1  0.06302364  0.89982012  0.40146554  1
  O  O2  1  0.93697636  0.60017988  0.90146554  1
  O  O3  1  0.43697636  0.89982012  0.59853446  1
  O  O4  1  0.43697636  0.39982012  0.90146554  1
  O  O5  1  0.93697636  0.10017988  0.59853446  1
  O  O6  1  0.06302364  0.39982012  0.09853446  1
  O  O7  1  0.56302364  0.10017988  0.40146554  1
  O  O8  1  0.09425304  0.88370946  0.08121366  1
  O  O9  1  0.59425304  0.61629054  0.41878634  1
  O  O10  1  0.40574696  0.88370946  0.91878634  1
  O  O11  1  0.90574696  0.61629054  0.58121366  1
  O  O12  1  0.90574696  0.11629054  0.91878634  1
  O  O13  1  0.40574696  0.38370946  0.58121366  1
  O  O14  1  0.59425304  0.11629054  0.08121366  1
  O  O15  1  0.09425304  0.38370946  0.41878634  1
  O  O16  1  0.41282113  0.87293843  0.25578683  1
  O  O17  1  0.91282113  0.62706157  0.24421317  1
  O  O18  1  0.08717887  0.87293843  0.74421317  1
  O  O19  1  0.58717887  0.62706157  0.75578683  1
  O  O20  1  0.58717887  0.12706157  0.74421317  1
  O  O21  1  0.08717887  0.37293843  0.75578683  1
  O  O22  1  0.91282113  0.12706157  0.25578683  1
  O  O23  1  0.41282113  0.37293843  0.24421317  1
loop_
_geom_bond_atom_site_label_1
_geom_bond_atom_site_label_2
_geom_bond_distance
_geom_bond_site_symmetry_2
Mn0 O8 2.130027 1_655
Mn0 O10 2.130027 1_554
Mn0 O0 2.160130 1_555
Mn0 O2 2.160130 1_554
Mn0 O12 2.178620 1_564
Mn0 O14 2.178620 1_565
Mn1 O9 2.130027 1_555
Mn1 O11 2.130027 1_455
Mn1 O3 2.160130 1_555
Mn1 O1 2.160130 1_555
Mn1 O13 2.178620 1_555
Mn1 O15 2.178620 1_555
Mn2 O14 2.130027 1_555
Mn2 O12 2.130027 1_454
Mn2 O6 2.160130 1_555
Mn2 O4 2.160130 1_554
Mn2 O10 2.178620 1_544
Mn2 O8 2.178620 1_545
Mn3 O15 2.130027 1_655
Mn3 O13 2.130027 1_555
Mn3 O7 2.160130 1_555
Mn3 O5 2.160130 1_555
Mn3 O9 2.178620 1_555
Mn3 O11 2.178620 1_555
O0 Ta0 1.940026 1_555
O0 Ta6 2.044119 1_555
O1 Ta1 1.940026 1_455
O1 Ta7 2.044119 1_565
O2 Ta2 1.940026 1_655
O2 Ta4 2.044119 1_555
O3 Ta3 1.940026 1_555
O3 Ta5 2.044119 1_565
O4 Ta4 1.940026 1_555
O4 Ta2 2.044119 1_555
O5 Ta5 1.940026 1_655
O5 Ta3 2.044119 1_545
O6 Ta6 1.940026 1_455
O6 Ta0 2.044119 1_555
O7 Ta7 1.940026 1_555
O7 Ta1 2.044119 1_545
O8 Ta0 1.819570 1_555
O9 Ta1 1.819570 1_555
O10 Ta2 1.819570 1_555
O11 Ta3 1.819570 1_555
O12 Ta4 1.819570 1_555
O13 Ta5 1.819570 1_555
O14 Ta6 1.819570 1_555
O15 Ta7 1.819570 1_555
O16 Ta0 1.976803 1_555
O16 Ta1 2.056006 1_555
O16 Ta7 2.297049 1_565
O17 Ta1 1.976803 1_555
O17 Ta0 2.056006 1_655
O17 Ta6 2.297049 1_555
O18 Ta2 1.976803 1_555
O18 Ta3 2.056006 1_455
O18 Ta5 2.297049 1_565
O19 Ta3 1.976803 1_555
O19 Ta2 2.056006 1_555
O19 Ta4 2.297049 1_555
O20 Ta4 1.976803 1_555
O20 Ta5 2.056006 1_555
O20 Ta3 2.297049 1_545
O21 Ta5 1.976803 1_555
O21 Ta4 2.056006 1_455
O21 Ta2 2.297049 1_555
O22 Ta6 1.976803 1_555
O22 Ta7 2.056006 1_655
O22 Ta1 2.297049 1_545
O23 Ta7 1.976803 1_555
O23 Ta6 2.056006 1_555
O23 Ta0 2.297049 1_555
