# generated using pymatgen
data_NaB5H10O13
_symmetry_space_group_name_H-M   'P 1'
_cell_length_a   9.91926632
_cell_length_b   9.91926632
_cell_length_c   13.56403919
_cell_angle_alpha   77.82278943
_cell_angle_beta   77.82278943
_cell_angle_gamma   111.74877044
_symmetry_Int_Tables_number   1
_chemical_formula_structural   NaB5H10O13
_chemical_formula_sum   'Na4 B20 H40 O52'
_cell_volume   1148.63276676
_cell_formula_units_Z   4
loop_
 _symmetry_equiv_pos_site_id
 _symmetry_equiv_pos_as_xyz
  1  'x, y, z'
loop_
 _atom_site_type_symbol
 _atom_site_label
 _atom_site_symmetry_multiplicity
 _atom_site_fract_x
 _atom_site_fract_y
 _atom_site_fract_z
 _atom_site_occupancy
  Na  Na0  1  0.84456700  0.15543300  0.75000000  1
  Na  Na1  1  0.15543300  0.84456700  0.25000000  1
  Na  Na2  1  0.37606200  0.62393800  0.75000000  1
  Na  Na3  1  0.62393800  0.37606200  0.25000000  1
  B  B0  1  0.83062600  0.66285600  0.82202200  1
  B  B1  1  0.33714400  0.16937400  0.67797800  1
  B  B2  1  0.16937400  0.33714400  0.17797800  1
  B  B3  1  0.66285600  0.83062600  0.32202200  1
  B  B4  1  0.97972700  0.66521000  0.95081100  1
  B  B5  1  0.33479000  0.02027300  0.54918900  1
  B  B6  1  0.02027300  0.33479000  0.04918900  1
  B  B7  1  0.66521000  0.97972700  0.45081100  1
  B  B8  1  0.70611400  0.56621800  0.01918300  1
  B  B9  1  0.43378200  0.29388600  0.48081700  1
  B  B10  1  0.29388600  0.43378200  0.98081700  1
  B  B11  1  0.56621800  0.70611400  0.51918300  1
  B  B12  1  0.86545400  0.63774900  0.64027300  1
  B  B13  1  0.36225100  0.13454600  0.85972700  1
  B  B14  1  0.13454600  0.36225100  0.35972700  1
  B  B15  1  0.63774900  0.86545400  0.14027300  1
  B  B16  1  0.89101800  0.87989900  0.66346400  1
  B  B17  1  0.12010100  0.10898200  0.83653600  1
  B  B18  1  0.10898200  0.12010100  0.33653600  1
  B  B19  1  0.87989900  0.89101800  0.16346400  1
  H  H0  1  0.20904800  0.74933300  0.90705800  1
  H  H1  1  0.25066700  0.79095200  0.59294200  1
  H  H2  1  0.79095200  0.25066700  0.09294200  1
  H  H3  1  0.74933300  0.20904800  0.40705800  1
  H  H4  1  0.47824500  0.47423600  0.09608400  1
  H  H5  1  0.52576400  0.52175500  0.40391600  1
  H  H6  1  0.52175500  0.52576400  0.90391600  1
  H  H7  1  0.47423600  0.47824500  0.59608400  1
  H  H8  1  0.81565800  0.44151800  0.59975800  1
  H  H9  1  0.55848200  0.18434200  0.90024200  1
  H  H10  1  0.18434200  0.55848200  0.40024200  1
  H  H11  1  0.44151800  0.81565800  0.09975800  1
  H  H12  1  0.95878600  0.07936800  0.54666600  1
  H  H13  1  0.92063200  0.04121400  0.95333400  1
  H  H14  1  0.04121400  0.92063200  0.45333400  1
  H  H15  1  0.07936800  0.95878600  0.04666600  1
  H  H16  1  0.77624100  0.38423300  0.82226500  1
  H  H17  1  0.61576700  0.22375900  0.67773500  1
  H  H18  1  0.22375900  0.61576700  0.17773500  1
  H  H19  1  0.38423300  0.77624100  0.32226500  1
  H  H20  1  0.80107400  0.28552400  0.91921200  1
  H  H21  1  0.71447600  0.19892600  0.58078800  1
  H  H22  1  0.19892600  0.71447600  0.08078800  1
  H  H23  1  0.28552400  0.80107400  0.41921200  1
  H  H24  1  0.10123000  0.39373400  0.56480600  1
  H  H25  1  0.60626600  0.89877000  0.93519400  1
  H  H26  1  0.89877000  0.60626600  0.43519400  1
  H  H27  1  0.39373400  0.10123000  0.06480600  1
  H  H28  1  0.13926600  0.30998100  0.66125500  1
  H  H29  1  0.69001900  0.86073400  0.83874500  1
  H  H30  1  0.86073400  0.69001900  0.33874500  1
  H  H31  1  0.30998100  0.13926600  0.16125500  1
  H  H32  1  0.09314500  0.63511100  0.75058100  1
  H  H33  1  0.36488900  0.90685500  0.74941900  1
  H  H34  1  0.90685500  0.36488900  0.24941900  1
  H  H35  1  0.63511100  0.09314500  0.25058100  1
  H  H36  1  0.12658100  0.53215300  0.67773500  1
  H  H37  1  0.46784700  0.87341900  0.82226500  1
  H  H38  1  0.87341900  0.46784700  0.32226500  1
  H  H39  1  0.53215300  0.12658100  0.17773500  1
  O  O0  1  0.11579200  0.70145300  0.97220600  1
  O  O1  1  0.29854700  0.88420800  0.52779400  1
  O  O2  1  0.88420800  0.29854700  0.02779400  1
  O  O3  1  0.70145300  0.11579200  0.47220600  1
  O  O4  1  0.84679400  0.61015900  0.03687900  1
  O  O5  1  0.38984100  0.15320600  0.46312100  1
  O  O6  1  0.15320600  0.38984100  0.96312100  1
  O  O7  1  0.61015900  0.84679400  0.53687900  1
  O  O8  1  0.58007400  0.50347200  0.10818600  1
  O  O9  1  0.49652800  0.41992600  0.39181400  1
  O  O10  1  0.41992600  0.49652800  0.89181400  1
  O  O11  1  0.50347200  0.58007400  0.60818600  1
  O  O12  1  0.97247200  0.68224900  0.84915700  1
  O  O13  1  0.31775100  0.02752800  0.65084300  1
  O  O14  1  0.02752800  0.31775100  0.15084300  1
  O  O15  1  0.68224900  0.97247200  0.34915700  1
  O  O16  1  0.69446100  0.58239500  0.91875100  1
  O  O17  1  0.41760500  0.30553900  0.58124900  1
  O  O18  1  0.30553900  0.41760500  0.08124900  1
  O  O19  1  0.58239500  0.69446100  0.41875100  1
  O  O20  1  0.81623000  0.57059600  0.74836600  1
  O  O21  1  0.42940400  0.18377000  0.75163400  1
  O  O22  1  0.18377000  0.42940400  0.25163400  1
  O  O23  1  0.57059600  0.81623000  0.24836600  1
  O  O24  1  0.83545200  0.81226800  0.77127100  1
  O  O25  1  0.18773200  0.16454800  0.72872900  1
  O  O26  1  0.16454800  0.18773200  0.22872900  1
  O  O27  1  0.81226800  0.83545200  0.27127100  1
  O  O28  1  0.86537600  0.55672100  0.57031600  1
  O  O29  1  0.44327900  0.13462400  0.92968400  1
  O  O30  1  0.13462400  0.44327900  0.42968400  1
  O  O31  1  0.55672100  0.86537600  0.07031600  1
  O  O32  1  0.91917100  0.79728800  0.59584900  1
  O  O33  1  0.20271200  0.08082900  0.90415100  1
  O  O34  1  0.08082900  0.20271200  0.40415100  1
  O  O35  1  0.79728800  0.91917100  0.09584900  1
  O  O36  1  0.91430100  0.02845900  0.62410500  1
  O  O37  1  0.97154100  0.08569900  0.87589500  1
  O  O38  1  0.08569900  0.97154100  0.37589500  1
  O  O39  1  0.02845900  0.91430100  0.12410500  1
  O  O40  1  0.75027700  0.27756400  0.86372200  1
  O  O41  1  0.72243600  0.24972300  0.63627800  1
  O  O42  1  0.24972300  0.72243600  0.13627800  1
  O  O43  1  0.27756400  0.75027700  0.36372200  1
  O  O44  1  0.08463800  0.37236300  0.64257200  1
  O  O45  1  0.62763700  0.91536200  0.85742800  1
  O  O46  1  0.91536200  0.62763700  0.35742800  1
  O  O47  1  0.37236300  0.08463800  0.14257200  1
  O  O48  1  0.17157100  0.63003000  0.69466200  1
  O  O49  1  0.36997000  0.82842900  0.80533800  1
  O  O50  1  0.82842900  0.36997000  0.30533800  1
  O  O51  1  0.63003000  0.17157100  0.19466200  1
loop_
_geom_bond_atom_site_label_1
_geom_bond_atom_site_label_2
_geom_bond_distance
_geom_bond_site_symmetry_2
Na0 O40 2.396072 1_555
Na0 O41 2.396072 1_555
Na0 O44 2.416652 1_655
Na0 O45 2.416652 1_545
Na0 O37 2.456722 1_555
Na0 O36 2.456722 1_555
Na1 O43 2.396072 1_555
Na1 O42 2.396072 1_555
Na1 O47 2.416652 1_565
Na1 O46 2.416652 1_455
Na1 O38 2.456722 1_555
Na1 O39 2.456722 1_555
Na2 O10 2.285096 1_555
Na2 O11 2.285096 1_555
Na2 O49 2.322818 1_555
Na2 O48 2.322818 1_555
Na3 O9 2.285096 1_555
Na3 O8 2.285096 1_555
Na3 O50 2.322818 1_555
Na3 O51 2.322818 1_555
B0 O24 1.475052 1_555
B0 O16 1.481373 1_555
B0 O12 1.483209 1_555
B0 O20 1.484958 1_555
B1 O25 1.475052 1_555
B1 O17 1.481373 1_555
B1 O13 1.483209 1_555
B1 O21 1.484958 1_555
B2 O26 1.475052 1_555
B2 O18 1.481373 1_555
B2 O14 1.483209 1_555
B2 O22 1.484958 1_555
B3 O27 1.475052 1_555
B3 O19 1.481373 1_555
B3 O15 1.483209 1_555
B3 O23 1.484958 1_555
B4 O0 1.372855 1_655
B4 O12 1.373864 1_555
B4 O4 1.395642 1_556
B5 O1 1.372855 1_545
B5 O13 1.373864 1_555
B5 O5 1.395642 1_555
B6 O2 1.372855 1_455
B6 O14 1.373864 1_555
B6 O6 1.395642 1_554
B7 O3 1.372855 1_565
B7 O15 1.373864 1_555
B7 O7 1.395642 1_555
B8 O8 1.370213 1_555
B8 O16 1.372162 1_554
B8 O4 1.389084 1_555
B9 O9 1.370213 1_555
B9 O17 1.372162 1_555
B9 O5 1.389084 1_555
B10 O10 1.370213 1_555
B10 O18 1.372162 1_556
B10 O6 1.389084 1_555
B11 O11 1.370213 1_555
B11 O19 1.372162 1_555
B11 O7 1.389084 1_555
B12 O28 1.366749 1_555
B12 O20 1.369938 1_555
B12 O32 1.410219 1_555
B13 O29 1.366749 1_555
B13 O21 1.369938 1_555
B13 O33 1.410219 1_555
B14 O30 1.366749 1_555
B14 O22 1.369938 1_555
B14 O34 1.410219 1_555
B15 O31 1.366749 1_555
B15 O23 1.369938 1_555
B15 O35 1.410219 1_555
B16 O24 1.365380 1_555
B16 O36 1.368850 1_565
B16 O32 1.403277 1_555
B17 O25 1.365380 1_555
B17 O37 1.368850 1_455
B17 O33 1.403277 1_555
B18 O26 1.365380 1_555
B18 O38 1.368850 1_545
B18 O34 1.403277 1_555
B19 O27 1.365380 1_555
B19 O39 1.368850 1_655
B19 O35 1.403277 1_555
H0 O0 1.007294 1_555
H1 O1 1.007294 1_555
H2 O2 1.007294 1_555
H3 O3 1.007294 1_555
H4 O8 1.002118 1_555
H4 O18 1.664563 1_555
H5 O9 1.002118 1_555
H5 O19 1.664563 1_555
H6 O10 1.002118 1_555
H6 O16 1.664563 1_555
H7 O11 1.002118 1_555
H7 O17 1.664563 1_555
H8 O28 1.007611 1_555
H9 O29 1.007611 1_555
H10 O30 1.007611 1_555
H11 O31 1.007611 1_555
H12 O36 0.984168 1_555
H13 O37 0.984168 1_555
H14 O38 0.984168 1_555
H15 O39 0.984168 1_555
H16 O40 0.993992 1_555
H17 O41 0.993992 1_555
H18 O42 0.993992 1_555
H19 O43 0.993992 1_555
H20 O40 0.991065 1_555
H21 O41 0.991065 1_555
H22 O42 0.991065 1_555
H23 O43 0.991065 1_555
H24 O44 0.995613 1_555
H25 O45 0.995613 1_555
H26 O46 0.995613 1_555
H27 O47 0.995613 1_555
H28 O44 0.990452 1_555
H29 O45 0.990452 1_555
H30 O46 0.990452 1_555
H31 O47 0.990452 1_555
H32 O48 0.989583 1_555
H33 O49 0.989583 1_555
H34 O50 0.989583 1_555
H35 O51 0.989583 1_555
H36 O48 1.005305 1_555
H37 O49 1.005305 1_555
H38 O50 1.005305 1_555
H39 O51 1.005305 1_555
