# generated using pymatgen
data_Ba3Na2Cr4F20
_symmetry_space_group_name_H-M   'P 1'
_cell_length_a   21.02565000
_cell_length_b   5.54881100
_cell_length_c   9.19877266
_cell_angle_alpha   53.69763229
_cell_angle_beta   90.00000000
_cell_angle_gamma   90.00000000
_symmetry_Int_Tables_number   1
_chemical_formula_structural   Ba3Na2Cr4F20
_chemical_formula_sum   'Ba6 Na4 Cr8 F40'
_cell_volume   864.89315843
_cell_formula_units_Z   2
loop_
 _symmetry_equiv_pos_site_id
 _symmetry_equiv_pos_as_xyz
  1  'x, y, z'
loop_
 _atom_site_type_symbol
 _atom_site_label
 _atom_site_symmetry_multiplicity
 _atom_site_fract_x
 _atom_site_fract_y
 _atom_site_fract_z
 _atom_site_occupancy
  Ba  Ba0  1  0.22321700  0.03396300  0.99407400  1
  Ba  Ba1  1  0.27678300  0.03396300  0.49407400  1
  Ba  Ba2  1  0.72321700  0.96603700  0.50592600  1
  Ba  Ba3  1  0.50000000  0.00000000  0.50000000  1
  Ba  Ba4  1  0.77678300  0.96603700  0.00592600  1
  Ba  Ba5  1  0.00000000  0.00000000  0.00000000  1
  Na  Na0  1  0.59102100  0.79057100  0.22620900  1
  Na  Na1  1  0.90897900  0.79057100  0.72620900  1
  Na  Na2  1  0.40897900  0.20942900  0.77379100  1
  Na  Na3  1  0.09102100  0.20942900  0.27379100  1
  Cr  Cr0  1  0.89664200  0.30598200  0.21303400  1
  Cr  Cr1  1  0.36162400  0.50482400  0.96806800  1
  Cr  Cr2  1  0.60335800  0.30598200  0.71303400  1
  Cr  Cr3  1  0.13837600  0.50482400  0.46806800  1
  Cr  Cr4  1  0.63837600  0.49517600  0.03193200  1
  Cr  Cr5  1  0.39664200  0.69401800  0.28696600  1
  Cr  Cr6  1  0.10335800  0.69401800  0.78696600  1
  Cr  Cr7  1  0.86162400  0.49517600  0.53193200  1
  F  F0  1  0.17835000  0.88906000  0.35750100  1
  F  F1  1  0.67900800  0.53451200  0.20569500  1
  F  F2  1  0.82099200  0.53451200  0.70569500  1
  F  F3  1  0.09206500  0.53259700  0.64539500  1
  F  F4  1  0.88852400  0.16847500  0.06448700  1
  F  F5  1  0.19429800  0.67526300  0.77126900  1
  F  F6  1  0.21056400  0.30523800  0.62778200  1
  F  F7  1  0.61147600  0.16847500  0.56448700  1
  F  F8  1  0.01183100  0.68737300  0.81199600  1
  F  F9  1  0.60740300  0.71641400  0.49928900  1
  F  F10  1  0.32099200  0.46548800  0.79430500  1
  F  F11  1  0.67835000  0.11094000  0.14249900  1
  F  F12  1  0.69429800  0.32473700  0.72873100  1
  F  F13  1  0.90793500  0.46740300  0.35460500  1
  F  F14  1  0.82165000  0.11094000  0.64249900  1
  F  F15  1  0.11147600  0.83152500  0.93551300  1
  F  F16  1  0.28943600  0.30523800  0.12778200  1
  F  F17  1  0.80570200  0.32473700  0.22873100  1
  F  F18  1  0.30570200  0.67526300  0.27126900  1
  F  F19  1  0.90179200  0.89076800  0.43628500  1
  F  F20  1  0.98816900  0.31262700  0.18800400  1
  F  F21  1  0.59206500  0.46740300  0.85460500  1
  F  F22  1  0.56718600  0.30119600  0.19385500  1
  F  F23  1  0.48816900  0.68737300  0.31199600  1
  F  F24  1  0.71056400  0.69476200  0.87221800  1
  F  F25  1  0.38852400  0.83152500  0.43551300  1
  F  F26  1  0.40793500  0.53259700  0.14539500  1
  F  F27  1  0.39259700  0.28358600  0.50071100  1
  F  F28  1  0.89259700  0.71641400  0.99928900  1
  F  F29  1  0.43281400  0.69880400  0.80614500  1
  F  F30  1  0.78943600  0.69476200  0.37221800  1
  F  F31  1  0.51183100  0.31262700  0.68800400  1
  F  F32  1  0.59820800  0.89076800  0.93628500  1
  F  F33  1  0.06718600  0.69880400  0.30614500  1
  F  F34  1  0.17900800  0.46548800  0.29430500  1
  F  F35  1  0.09820800  0.10923200  0.56371500  1
  F  F36  1  0.10740300  0.28358600  0.00071100  1
  F  F37  1  0.32165000  0.88906000  0.85750100  1
  F  F38  1  0.40179200  0.10923200  0.06371500  1
  F  F39  1  0.93281400  0.30119600  0.69385500  1
loop_
_geom_bond_atom_site_label_1
_geom_bond_atom_site_label_2
_geom_bond_distance
_geom_bond_site_symmetry_2
Ba0 F18 2.731604 1_546
Ba0 F6 2.772024 1_555
Ba0 F37 2.775639 1_545
Ba0 F15 2.790748 1_545
Ba0 F16 2.812342 1_556
Ba0 F36 2.819917 1_556
Ba0 F34 2.850612 1_546
Ba0 F10 2.850680 1_555
Ba0 F5 2.932081 1_555
Ba0 F0 3.087037 1_546
Ba1 F5 2.731604 1_545
Ba1 F16 2.772024 1_555
Ba1 F0 2.775639 1_545
Ba1 F25 2.790748 1_545
Ba1 F6 2.812342 1_555
Ba1 F27 2.819917 1_555
Ba1 F10 2.850612 1_545
Ba1 F34 2.850680 1_555
Ba1 F18 2.932081 1_555
Ba1 F37 3.087037 1_545
Ba2 F17 2.731604 1_565
Ba2 F24 2.772024 1_555
Ba2 F14 2.775639 1_565
Ba2 F7 2.790748 1_565
Ba2 F30 2.812342 1_555
Ba2 F9 2.819917 1_555
Ba2 F1 2.850612 1_565
Ba2 F2 2.850680 1_555
Ba2 F12 2.932081 1_555
Ba2 F11 3.087037 1_565
Ba3 F22 2.673276 1_555
Ba3 F29 2.673276 1_545
Ba3 F7 2.715897 1_555
Ba3 F25 2.715897 1_545
Ba3 F27 2.754611 1_555
Ba3 F9 2.754611 1_545
Ba3 F31 3.100683 1_555
Ba3 F23 3.100683 1_545
Ba3 F31 3.128845 1_545
Ba3 F23 3.128845 1_555
Ba4 F12 2.731604 1_564
Ba4 F30 2.772024 1_555
Ba4 F11 2.775639 1_565
Ba4 F4 2.790748 1_565
Ba4 F24 2.812342 1_554
Ba4 F28 2.819917 1_554
Ba4 F2 2.850612 1_564
Ba4 F1 2.850680 1_555
Ba4 F17 2.932081 1_555
Ba4 F14 3.087037 1_564
Ba5 F33 2.673276 1_545
Ba5 F39 2.673276 1_454
Ba5 F15 2.715897 1_544
Ba5 F4 2.715897 1_455
Ba5 F36 2.754611 1_555
Ba5 F28 2.754611 1_444
Ba5 F20 3.100683 1_455
Ba5 F8 3.100683 1_544
Ba5 F8 3.128845 1_554
Ba5 F20 3.128845 1_445
Cr0 F17 1.924966 1_555
Cr0 F4 1.926922 1_555
Cr0 F20 1.935896 1_555
Cr0 F28 1.938447 1_554
Cr0 F19 1.983636 1_545
Cr0 F13 1.983875 1_555
Cr1 F37 1.928429 1_555
Cr1 F29 1.928529 1_555
Cr1 F10 1.935330 1_555
Cr1 F16 1.939607 1_556
Cr1 F26 1.982502 1_556
Cr1 F38 2.004711 1_556
Cr2 F12 1.924966 1_555
Cr2 F7 1.926922 1_555
Cr2 F31 1.935896 1_555
Cr2 F9 1.938447 1_555
Cr2 F32 1.983636 1_545
Cr2 F21 1.983875 1_555
Cr3 F0 1.928429 1_555
Cr3 F33 1.928529 1_555
Cr3 F34 1.935330 1_555
Cr3 F6 1.939607 1_555
Cr3 F3 1.982502 1_555
Cr3 F35 2.004711 1_555
Cr4 F11 1.928429 1_555
Cr4 F22 1.928529 1_555
Cr4 F1 1.935330 1_555
Cr4 F24 1.939607 1_554
Cr4 F21 1.982502 1_554
Cr4 F32 2.004711 1_554
Cr5 F18 1.924966 1_555
Cr5 F25 1.926922 1_555
Cr5 F23 1.935896 1_555
Cr5 F27 1.938447 1_555
Cr5 F38 1.983636 1_565
Cr5 F26 1.983875 1_555
Cr6 F5 1.924966 1_555
Cr6 F15 1.926922 1_555
Cr6 F8 1.935896 1_555
Cr6 F36 1.938447 1_556
Cr6 F35 1.983636 1_565
Cr6 F3 1.983875 1_555
Cr7 F14 1.928429 1_555
Cr7 F39 1.928529 1_555
Cr7 F2 1.935330 1_555
Cr7 F30 1.939607 1_555
Cr7 F13 1.982502 1_555
Cr7 F19 2.004711 1_555
F0 Na3 2.345983 1_565
F1 Na0 2.407127 1_555
F2 Na1 2.407127 1_555
F8 Na1 2.256569 1_455
F9 Na0 2.318226 1_555
F10 Na2 2.407127 1_555
F11 Na0 2.345983 1_545
F14 Na1 2.345983 1_545
F19 Na1 2.385125 1_555
F20 Na3 2.256569 1_655
F22 Na0 2.714621 1_545
F23 Na0 2.256569 1_555
F27 Na2 2.318226 1_555
F28 Na1 2.318226 1_555
F29 Na2 2.714621 1_565
F31 Na2 2.256569 1_555
F32 Na0 2.385125 1_556
F33 Na3 2.714621 1_565
F34 Na3 2.407127 1_555
F35 Na3 2.385125 1_555
F36 Na3 2.318226 1_555
F37 Na2 2.345983 1_565
F38 Na2 2.385125 1_554
F39 Na1 2.714621 1_545
