# generated using pymatgen
data_Cu3NiH6(ClO3)2
_symmetry_space_group_name_H-M   'P 1'
_cell_length_a   6.08403307
_cell_length_b   9.28680414
_cell_length_c   6.97040247
_cell_angle_alpha   90.10730080
_cell_angle_beta   89.79765477
_cell_angle_gamma   101.96003544
_symmetry_Int_Tables_number   1
_chemical_formula_structural   Cu3NiH6(ClO3)2
_chemical_formula_sum   'Cu6 Ni2 H12 Cl4 O12'
_cell_volume   385.28435703
_cell_formula_units_Z   2
loop_
 _symmetry_equiv_pos_site_id
 _symmetry_equiv_pos_as_xyz
  1  'x, y, z'
loop_
 _atom_site_type_symbol
 _atom_site_label
 _atom_site_symmetry_multiplicity
 _atom_site_fract_x
 _atom_site_fract_y
 _atom_site_fract_z
 _atom_site_occupancy
  Cu  Cu0  1  0.74966500  0.24977200  0.74991100  1
  Cu  Cu1  1  0.24930400  0.74956000  0.24985100  1
  Cu  Cu2  1  0.74958800  0.24976600  0.25017600  1
  Cu  Cu3  1  0.25028700  0.75030200  0.74948100  1
  Cu  Cu4  1  0.50129900  0.50250000  0.00043600  1
  Cu  Cu5  1  0.99896600  0.99737900  0.49940900  1
  Ni  Ni0  1  0.50022600  0.00010400  0.50028600  1
  Ni  Ni1  1  0.00062300  0.50050600  0.00011000  1
  H  H0  1  0.95340200  0.77601600  0.00030200  1
  H  H1  1  0.45320300  0.27675400  0.50018900  1
  H  H2  1  0.25434700  0.47760200  0.70063100  1
  H  H3  1  0.75299800  0.97746100  0.20010800  1
  H  H4  1  0.74669600  0.52258500  0.29985000  1
  H  H5  1  0.24557100  0.02230200  0.79973800  1
  H  H6  1  0.04611700  0.22345300  0.99987600  1
  H  H7  1  0.54622200  0.72377000  0.49954500  1
  H  H8  1  0.25348000  0.47729300  0.30077700  1
  H  H9  1  0.75365300  0.97760000  0.79950900  1
  H  H10  1  0.74604600  0.52226300  0.70062900  1
  H  H11  1  0.24643900  0.02223400  0.19952900  1
  Cl  Cl0  1  0.63908500  0.81961000  0.99984800  1
  Cl  Cl1  1  0.13945700  0.32023800  0.50025700  1
  Cl  Cl2  1  0.36053500  0.17954000  0.99982600  1
  Cl  Cl3  1  0.86117900  0.68067300  0.50010200  1
  O  O0  1  0.72375800  0.45525400  0.18724200  1
  O  O1  1  0.22356600  0.95501800  0.68705600  1
  O  O2  1  0.72364400  0.45503900  0.81315100  1
  O  O3  1  0.22779300  0.95618800  0.31315400  1
  O  O4  1  0.08804200  0.73088700  0.99993300  1
  O  O5  1  0.58626700  0.23008600  0.50012400  1
  O  O6  1  0.27321600  0.54363800  0.18748200  1
  O  O7  1  0.77640300  0.04459800  0.68671800  1
  O  O8  1  0.27657700  0.54542100  0.81273700  1
  O  O9  1  0.77682900  0.04465800  0.31283700  1
  O  O10  1  0.91371200  0.27083900  0.99990100  1
  O  O11  1  0.41180500  0.76908900  0.49928900  1
loop_
_geom_bond_atom_site_label_1
_geom_bond_atom_site_label_2
_geom_bond_distance
_geom_bond_site_symmetry_2
Cu0 O2 1.993664 1_555
Cu0 O7 1.993964 1_555
Cu0 O5 1.997220 1_555
Cu0 O10 2.000227 1_555
Cu1 O4 1.991925 1_554
Cu1 O11 1.992488 1_555
Cu1 O6 1.994748 1_555
Cu1 O3 1.998640 1_555
Cu2 O5 1.992445 1_555
Cu2 O9 1.995235 1_555
Cu2 O10 1.996672 1_554
Cu2 O0 1.996687 1_555
Cu3 O11 1.988819 1_555
Cu3 O1 1.990442 1_555
Cu3 O4 1.992429 1_555
Cu3 O8 1.992485 1_555
Cu4 O2 1.990203 1_554
Cu4 O6 1.994117 1_555
Cu4 O8 1.995085 1_554
Cu4 O0 1.995130 1_555
Cu5 O7 1.990461 1_565
Cu5 O1 1.992527 1_655
Cu5 O9 1.992750 1_565
Cu5 O3 1.994025 1_655
Ni0 O3 2.085219 1_545
Ni0 O5 2.091001 1_555
Ni0 O1 2.097097 1_545
Ni0 O9 2.099600 1_555
Ni0 O7 2.099623 1_555
Ni0 O11 2.100900 1_545
Ni1 O6 2.086804 1_555
Ni1 O10 2.088376 1_454
Ni1 O4 2.094931 1_554
Ni1 O8 2.096389 1_554
Ni1 O0 2.099658 1_455
Ni1 O2 2.105906 1_454
H0 O4 0.994454 1_654
H1 O5 0.994306 1_555
H2 O8 0.994580 1_555
H3 O9 0.994661 1_565
H4 O0 0.994654 1_555
H5 O1 0.994742 1_545
H6 O10 0.994737 1_455
H7 O11 0.994279 1_555
H8 O6 0.994069 1_555
H9 O7 0.994870 1_565
H10 O2 0.994635 1_555
H11 O3 0.994336 1_545
Cl0 H0 2.035137 1_556
Cl0 H3 2.038598 1_556
Cl0 H9 2.040976 1_555
Cl0 Cu4 2.890026 1_556
Cl0 Cu1 2.901608 1_556
Cl0 Cu3 2.906749 1_555
Cl1 H8 2.030610 1_555
Cl1 H1 2.031311 1_555
Cl1 H2 2.037380 1_555
Cl1 Cu0 2.900424 1_455
Cl1 Cu2 2.911143 1_455
Cl1 Cu5 2.942515 1_445
Cl2 H11 2.033272 1_556
Cl2 H5 2.035348 1_555
Cl2 H6 2.036892 1_555
Cl2 Cu0 2.898293 1_555
Cl2 Cu2 2.908324 1_556
Cl2 Cu4 2.943544 1_556
Cl3 H7 2.037149 1_555
Cl3 H4 2.040658 1_555
Cl3 H10 2.045061 1_555
Cl3 Cu5 2.886431 1_555
Cl3 Cu1 2.894314 1_655
Cl3 Cu3 2.904213 1_655
