# generated using pymatgen
data_Ca14MnAs11
_symmetry_space_group_name_H-M   'P 1'
_cell_length_a   15.32153477
_cell_length_b   15.32153477
_cell_length_c   15.32153477
_cell_angle_alpha   118.10574662
_cell_angle_beta   118.09790667
_cell_angle_gamma   93.32042950
_symmetry_Int_Tables_number   1
_chemical_formula_structural   Ca14MnAs11
_chemical_formula_sum   'Ca56 Mn4 As44'
_cell_volume   2611.49098807
_cell_formula_units_Z   4
loop_
 _symmetry_equiv_pos_site_id
 _symmetry_equiv_pos_as_xyz
  1  'x, y, z'
loop_
 _atom_site_type_symbol
 _atom_site_label
 _atom_site_symmetry_multiplicity
 _atom_site_fract_x
 _atom_site_fract_y
 _atom_site_fract_z
 _atom_site_occupancy
  Ca  Ca0  1  0.14648800  0.74915000  0.39828400  1
  Ca  Ca1  1  0.87805300  0.74665500  0.28267100  1
  Ca  Ca2  1  0.64943800  0.78355900  0.27747700  1
  Ca  Ca3  1  0.00009800  0.52209300  0.33697700  1
  Ca  Ca4  1  0.12123500  0.97055700  0.60329300  1
  Ca  Ca5  1  0.15415400  0.37151300  0.36855800  1
  Ca  Ca6  1  0.23178700  0.12890500  0.34929000  1
  Ca  Ca7  1  0.77961400  0.62890500  0.39711800  1
  Ca  Ca8  1  0.22667900  0.75116300  0.66509000  1
  Ca  Ca9  1  0.50000000  0.89794300  0.39794300  1
  Ca  Ca10  1  0.00295500  0.87151300  0.71736000  1
  Ca  Ca11  1  0.73061200  0.88286800  0.60505000  1
  Ca  Ca12  1  0.00000000  0.60240300  0.60240300  1
  Ca  Ca13  1  0.30995700  0.97720000  0.47489300  1
  Ca  Ca14  1  0.99990200  0.33687900  0.52199600  1
  Ca  Ca15  1  0.41419000  0.74897500  0.47744000  1
  Ca  Ca16  1  0.77332100  0.43841100  0.52448400  1
  Ca  Ca17  1  0.36726400  0.47055700  0.34932100  1
  Ca  Ca18  1  0.22038600  0.61750400  0.84929000  1
  Ca  Ca19  1  0.86720800  0.01951500  0.39539900  1
  Ca  Ca20  1  0.58581000  0.06325000  0.33478500  1
  Ca  Ca21  1  0.46398400  0.24665500  0.36860200  1
  Ca  Ca22  1  0.81488400  0.83687900  0.83697700  1
  Ca  Ca23  1  0.99704500  0.71440500  0.86855800  1
  Ca  Ca24  1  0.85351200  0.25179600  0.60266200  1
  Ca  Ca25  1  0.53601600  0.90461700  0.78267100  1
  Ca  Ca26  1  0.62411600  0.51951500  0.65230600  1
  Ca  Ca27  1  0.12194700  0.40461700  0.86860200  1
  Ca  Ca28  1  0.37843700  0.60093800  0.63428300  1
  Ca  Ca29  1  0.87876500  0.48205700  0.84932100  1
  Ca  Ca30  1  0.96665500  0.10093800  0.72250100  1
  Ca  Ca31  1  0.64913400  0.75179600  0.89828400  1
  Ca  Ca32  1  0.50608100  0.28355900  0.63412100  1
  Ca  Ca33  1  0.69004300  0.16493500  0.66724200  1
  Ca  Ca34  1  0.03334500  0.75584600  0.13428300  1
  Ca  Ca35  1  0.91392700  0.93841100  0.16509000  1
  Ca  Ca36  1  0.63273600  0.98205700  0.10329300  1
  Ca  Ca37  1  0.27781800  0.38286800  0.65225600  1
  Ca  Ca38  1  0.13279200  0.52819100  0.15230600  1
  Ca  Ca39  1  0.72846500  0.56325000  0.97744000  1
  Ca  Ca40  1  0.08607300  0.25116300  0.02448400  1
  Ca  Ca41  1  0.49769300  0.66493500  0.97489300  1
  Ca  Ca42  1  0.18511600  0.02209300  0.02199600  1
  Ca  Ca43  1  0.50000000  0.39794300  0.89794300  1
  Ca  Ca44  1  0.76821300  0.11750400  0.89711800  1
  Ca  Ca45  1  0.49391900  0.12804000  0.77747700  1
  Ca  Ca46  1  0.00000000  0.10240300  0.10240300  1
  Ca  Ca47  1  0.27153500  0.24897500  0.83478500  1
  Ca  Ca48  1  0.72218200  0.37443800  0.10505000  1
  Ca  Ca49  1  0.26938800  0.87443800  0.15225600  1
  Ca  Ca50  1  0.35056200  0.62804000  0.13412100  1
  Ca  Ca51  1  0.37588400  0.02819100  0.89539900  1
  Ca  Ca52  1  0.50230700  0.47720000  0.16724200  1
  Ca  Ca53  1  0.84584600  0.21440500  0.21736000  1
  Ca  Ca54  1  0.62156300  0.25584600  0.22250100  1
  Ca  Ca55  1  0.35086600  0.24915000  0.10266200  1
  Mn  Mn0  1  0.62534100  0.62554400  0.50088200  1
  Mn  Mn1  1  0.12466200  0.12554400  0.50020300  1
  Mn  Mn2  1  0.87533800  0.37554100  0.00088200  1
  Mn  Mn3  1  0.37465900  0.87554100  0.00020300  1
  As  As0  1  0.06514200  0.92597900  0.36898500  1
  As  As1  1  0.22981100  0.58264400  0.40558400  1
  As  As2  1  0.00976500  0.73988200  0.50006100  1
  As  As3  1  0.86873200  0.88129100  0.50008000  1
  As  As4  1  0.83255000  0.42765100  0.35374500  1
  As  As5  1  0.05223400  0.18418000  0.35960200  1
  As  As6  1  0.55265900  0.69315500  0.36908700  1
  As  As7  1  0.25790800  0.75794200  0.26618800  1
  As  As8  1  0.16745000  0.52119400  0.59510100  1
  As  As9  1  0.55699400  0.42597900  0.36083700  1
  As  As10  1  0.77018900  0.17577400  0.35283300  1
  As  As11  1  0.57352200  0.97961600  0.64622700  1
  As  As12  1  0.82457800  0.68418000  0.63194600  1
  As  As13  1  0.17542200  0.80736700  0.85960200  1
  As  As14  1  0.99023500  0.49029500  0.73011600  1
  As  As15  1  0.05705500  0.19884100  0.63188500  1
  As  As16  1  0.56695700  0.69884100  0.64178600  1
  As  As17  1  0.32212200  0.91664400  0.64526200  1
  As  As18  1  0.67787800  0.32314000  0.59452300  1
  As  As19  1  0.74209200  0.00827900  0.50003300  1
  As  As20  1  0.07390600  0.92765100  0.09510100  1
  As  As21  1  0.38121100  0.38129100  0.51255800  1
  As  As22  1  0.42647800  0.07270500  0.40609300  1
  As  As23  1  0.76017900  0.99029500  0.00006100  1
  As  As24  1  0.13126800  0.63134800  0.01255800  1
  As  As25  1  0.82294100  0.67577400  0.90558400  1
  As  As26  1  0.17705900  0.08264400  0.85283300  1
  As  As27  1  0.93485800  0.30384300  0.86083700  1
  As  As28  1  0.44300600  0.80384300  0.86898500  1
  As  As29  1  0.50824600  0.50827900  0.76618800  1
  As  As30  1  0.32406800  0.19315500  0.64049600  1
  As  As31  1  0.67593200  0.31642800  0.86908700  1
  As  As32  1  0.92609400  0.02119400  0.85374500  1
  As  As33  1  0.72861800  0.82314000  0.14526200  1
  As  As34  1  0.94294500  0.57482900  0.14178600  1
  As  As35  1  0.33338800  0.47961600  0.90609300  1
  As  As36  1  0.23982100  0.23988200  0.23011600  1
  As  As37  1  0.94776600  0.30736700  0.13194600  1
  As  As38  1  0.44734100  0.81642800  0.14049600  1
  As  As39  1  0.66661200  0.57270500  0.14622700  1
  As  As40  1  0.61878900  0.13134800  0.00008000  1
  As  As41  1  0.49175400  0.25794200  0.00003300  1
  As  As42  1  0.27138200  0.41664400  0.09452300  1
  As  As43  1  0.43304300  0.07482900  0.13188500  1
loop_
_geom_bond_atom_site_label_1
_geom_bond_atom_site_label_2
_geom_bond_distance
_geom_bond_site_symmetry_2
As0 Mn1 2.526022 1_565
As0 Ca4 2.967901 1_555
As0 Ca35 2.992893 1_455
As0 Ca34 3.055192 1_555
As0 Ca1 3.099666 1_455
As0 Ca13 3.169289 1_555
As0 Ca0 3.178870 1_555
As0 Ca19 3.539445 1_465
As1 Ca0 2.943158 1_555
As1 Ca17 2.976871 1_555
As1 Ca28 3.004461 1_555
As1 Ca15 3.046308 1_555
As1 Ca38 3.055655 1_555
As1 Ca5 3.057276 1_555
As1 Ca3 3.093692 1_555
As2 Ca8 3.012408 1_555
As2 Ca3 3.022966 1_555
As2 Ca10 3.031174 1_555
As2 Ca1 3.032424 1_455
As2 Ca7 3.058273 1_455
As2 Ca4 3.065788 1_555
As2 Ca0 3.176668 1_555
As2 Ca12 3.196008 1_555
As3 Ca2 2.995766 1_555
As3 Ca30 2.997188 1_565
As3 Ca1 3.062598 1_555
As3 Ca10 3.064481 1_655
As3 Ca19 3.198259 1_565
As3 Ca11 3.200131 1_555
As3 Ca7 3.304234 1_555
As3 Ca4 3.305272 1_655
As4 Ca12 2.941409 1_655
As4 Ca48 2.981124 1_555
As4 Ca53 3.021317 1_555
As4 Ca3 3.048109 1_655
As4 Ca54 3.053937 1_555
As4 Ca7 3.078027 1_555
As4 Ca16 3.088886 1_555
As4 Ca14 3.566372 1_555
As5 Mn1 2.523172 1_555
As5 Ca6 2.977178 1_555
As5 Ca14 2.986487 1_455
As5 Ca53 3.097171 1_455
As5 Ca5 3.098938 1_555
As5 Ca46 3.162341 1_555
As5 Ca35 3.178829 1_445
As5 Ca37 3.555358 1_555
As6 Mn0 2.525299 1_555
As6 Ca11 2.974709 1_555
As6 Ca52 2.987120 1_555
As6 Ca50 3.049812 1_555
As6 Ca2 3.105116 1_555
As6 Ca9 3.164426 1_555
As6 Ca15 3.190388 1_555
As6 Ca7 3.554328 1_555
As7 Ca34 3.049528 1_555
As7 Ca50 3.051155 1_555
As7 Ca13 3.051688 1_555
As7 Ca15 3.063554 1_555
As7 Ca38 3.064502 1_555
As7 Ca49 3.074486 1_555
As7 Ca9 3.221781 1_555
As7 Ca0 3.242441 1_555
As8 Ca12 2.941416 1_555
As8 Ca37 2.981111 1_555
As8 Ca5 3.021329 1_555
As8 Ca14 3.048106 1_455
As8 Ca28 3.053941 1_555
As8 Ca18 3.078011 1_555
As8 Ca8 3.088901 1_555
As8 Ca3 3.566372 1_555
As9 Mn0 2.526022 1_555
As9 Ca17 2.967897 1_555
As9 Ca16 2.992893 1_555
As9 Ca54 3.055192 1_555
As9 Ca21 3.099666 1_555
As9 Ca52 3.169303 1_555
As9 Ca55 3.178870 1_555
As9 Ca26 3.539430 1_555
As10 Ca24 2.943162 1_555
As10 Ca36 2.976876 1_545
As10 Ca54 3.004449 1_555
As10 Ca20 3.046315 1_555
As10 Ca19 3.055655 1_555
As10 Ca53 3.057261 1_555
As10 Ca14 3.093686 1_555
As11 Ca9 2.936161 1_555
As11 Ca44 2.992517 1_565
As11 Ca45 3.004285 1_565
As11 Ca25 3.056053 1_555
As11 Ca11 3.057906 1_555
As11 Ca33 3.059882 1_565
As11 Ca15 3.094900 1_555
As12 Mn0 2.523172 1_555
As12 Ca7 2.977173 1_555
As12 Ca22 2.986478 1_555
As12 Ca23 3.097161 1_555
As12 Ca10 3.098931 1_655
As12 Ca12 3.162341 1_655
As12 Ca16 3.178829 1_555
As12 Ca11 3.555358 1_555
As13 Mn3 2.523171 1_556
As13 Ca18 2.977153 1_555
As13 Ca42 2.986493 1_566
As13 Ca10 3.097171 1_555
As13 Ca23 3.098925 1_455
As13 Ca12 3.162336 1_555
As13 Ca8 3.178831 1_555
As13 Ca49 3.555353 1_556
As14 Ca16 3.012407 1_555
As14 Ca14 3.022940 1_555
As14 Ca23 3.031189 1_555
As14 Ca27 3.032433 1_655
As14 Ca18 3.058277 1_655
As14 Ca29 3.065788 1_555
As14 Ca24 3.176659 1_555
As14 Ca12 3.196007 1_655
As15 Mn1 2.524533 1_555
As15 Ca47 2.981268 1_555
As15 Ca19 2.984135 1_455
As15 Ca27 3.090173 1_555
As15 Ca30 3.103064 1_455
As15 Ca24 3.147139 1_455
As15 Ca14 3.202406 1_455
As16 Mn0 2.524521 1_555
As16 Ca15 2.981274 1_555
As16 Ca26 2.984125 1_555
As16 Ca25 3.090177 1_555
As16 Ca28 3.103077 1_555
As16 Ca31 3.147142 1_555
As16 Ca22 3.202406 1_555
As17 Ca0 2.933406 1_555
As17 Ca51 2.996536 1_565
As17 Ca25 3.023686 1_555
As17 Ca45 3.054572 1_565
As17 Ca8 3.061663 1_555
As17 Ca4 3.082196 1_555
As17 Ca13 3.090785 1_555
As17 Ca15 3.579602 1_555
As18 Ca24 2.933409 1_555
As18 Ca26 2.996537 1_555
As18 Ca21 3.023686 1_555
As18 Ca32 3.054558 1_555
As18 Ca16 3.061676 1_555
As18 Ca29 3.082181 1_555
As18 Ca33 3.090778 1_555
As18 Ca20 3.579608 1_555
As19 As3 2.826255 1_545
As19 Ca30 3.049531 1_555
As19 Ca2 3.051146 1_545
As19 Ca33 3.051688 1_555
As19 Ca20 3.063556 1_555
As19 Ca19 3.064497 1_555
As19 Ca11 3.074486 1_545
As19 Ca9 3.221782 1_545
As19 Ca24 3.242450 1_555
As20 Ca46 2.941409 1_565
As20 Ca49 2.981124 1_555
As20 Ca23 3.021324 1_454
As20 Ca42 3.048096 1_565
As20 Ca34 3.053937 1_555
As20 Ca6 3.078021 1_565
As20 Ca35 3.088886 1_455
As20 Ca22 3.566363 1_454
As21 As29 2.826277 1_555
As21 Ca32 2.995769 1_555
As21 Ca28 2.997189 1_555
As21 Ca21 3.062589 1_555
As21 Ca5 3.064466 1_555
As21 Ca26 3.198259 1_555
As21 Ca37 3.200144 1_555
As21 Ca6 3.304234 1_555
As21 Ca17 3.305272 1_555
As22 Ca9 2.936164 1_545
As22 Ca6 2.992517 1_555
As22 Ca32 3.004299 1_555
As22 Ca21 3.056032 1_555
As22 Ca49 3.057900 1_545
As22 Ca13 3.059899 1_545
As22 Ca20 3.094889 1_555
As23 Ca35 3.012398 1_555
As23 Ca22 3.022960 1_554
As23 Ca53 3.031185 1_565
As23 Ca25 3.032424 1_554
As23 Ca44 3.058286 1_564
As23 Ca36 3.065788 1_555
As23 Ca31 3.176655 1_554
As23 Ca46 3.196012 1_665
As24 As7 2.826277 1_555
As24 Ca50 2.995762 1_555
As24 Ca34 2.997196 1_555
As24 Ca27 3.062608 1_554
As24 Ca23 3.064472 1_454
As24 Ca38 3.198259 1_555
As24 Ca49 3.200128 1_555
As24 Ca18 3.304234 1_554
As24 Ca29 3.305276 1_454
As25 Ca31 2.943165 1_555
As25 Ca29 2.976884 1_555
As25 Ca34 3.004456 1_656
As25 Ca39 3.046328 1_555
As25 Ca26 3.055655 1_555
As25 Ca23 3.057261 1_555
As25 Ca22 3.093676 1_555
As26 Ca55 2.943162 1_556
As26 Ca4 2.976871 1_545
As26 Ca30 3.004449 1_455
As26 Ca47 3.046315 1_555
As26 Ca51 3.055655 1_555
As26 Ca10 3.057272 1_545
As26 Ca42 3.093701 1_556
As27 Mn2 2.526022 1_556
As27 Ca29 2.967892 1_555
As27 Ca40 2.992893 1_656
As27 Ca30 3.055192 1_555
As27 Ca27 3.099659 1_655
As27 Ca33 3.169292 1_555
As27 Ca24 3.178870 1_555
As27 Ca38 3.539438 1_656
As28 Mn3 2.526022 1_556
As28 Ca36 2.967897 1_556
As28 Ca8 2.992893 1_555
As28 Ca28 3.055192 1_555
As28 Ca25 3.099655 1_555
As28 Ca41 3.169303 1_555
As28 Ca31 3.178870 1_555
As28 Ca51 3.539445 1_565
As29 Ca28 3.049540 1_555
As29 Ca32 3.051142 1_555
As29 Ca41 3.051688 1_555
As29 Ca39 3.063550 1_555
As29 Ca26 3.064523 1_555
As29 Ca37 3.074482 1_555
As29 Ca43 3.221769 1_555
As29 Ca31 3.242454 1_555
As30 Mn1 2.525299 1_555
As30 Ca37 2.974709 1_555
As30 Ca13 2.987114 1_545
As30 Ca45 3.049805 1_555
As30 Ca32 3.105103 1_555
As30 Ca43 3.164426 1_555
As30 Ca47 3.190388 1_555
As30 Ca6 3.554343 1_555
As31 Mn2 2.525299 1_556
As31 Ca48 2.974709 1_556
As31 Ca33 2.987129 1_555
As31 Ca32 3.049812 1_555
As31 Ca45 3.105096 1_555
As31 Ca43 3.164426 1_555
As31 Ca39 3.190388 1_555
As31 Ca44 3.554328 1_555
As32 Ca46 2.941406 1_656
As32 Ca11 2.981123 1_545
As32 Ca10 3.021317 1_645
As32 Ca22 3.048096 1_545
As32 Ca30 3.053948 1_555
As32 Ca44 3.078034 1_555
As32 Ca40 3.088897 1_656
As32 Ca42 3.566360 1_656
As33 Ca31 2.933406 1_554
As33 Ca19 2.996536 1_565
As33 Ca1 3.023679 1_555
As33 Ca2 3.054554 1_555
As33 Ca35 3.061663 1_555
As33 Ca36 3.082182 1_555
As33 Ca41 3.090790 1_554
As33 Ca39 3.579602 1_554
As34 Mn2 2.524521 1_555
As34 Ca39 2.981274 1_554
As34 Ca38 2.984135 1_655
As34 Ca1 3.090188 1_555
As34 Ca34 3.103077 1_655
As34 Ca0 3.147142 1_655
As34 Ca3 3.202406 1_655
As35 Ca43 2.936171 1_555
As35 Ca18 2.992510 1_555
As35 Ca50 3.004296 1_556
As35 Ca27 3.056039 1_555
As35 Ca37 3.057898 1_555
As35 Ca41 3.059877 1_555
As35 Ca47 3.094903 1_555
As36 Ca40 3.012398 1_555
As36 Ca42 3.022953 1_555
As36 Ca5 3.031171 1_555
As36 Ca21 3.032426 1_555
As36 Ca6 3.058273 1_555
As36 Ca17 3.065788 1_555
As36 Ca55 3.176655 1_555
As36 Ca46 3.196012 1_555
As37 Mn2 2.523184 1_555
As37 Ca44 2.977167 1_554
As37 Ca3 2.986487 1_655
As37 Ca5 3.097163 1_655
As37 Ca53 3.098932 1_555
As37 Ca46 3.162327 1_655
As37 Ca40 3.178828 1_655
As37 Ca48 3.555364 1_555
As38 Mn3 2.525299 1_555
As38 Ca49 2.974709 1_555
As38 Ca41 2.987120 1_554
As38 Ca2 3.049808 1_555
As38 Ca50 3.105103 1_555
As38 Ca9 3.164426 1_555
As38 Ca20 3.190388 1_565
As38 Ca18 3.554334 1_554
As39 Ca43 2.936164 1_554
As39 Ca7 2.992518 1_555
As39 Ca2 3.004296 1_555
As39 Ca1 3.056032 1_555
As39 Ca48 3.057900 1_555
As39 Ca52 3.059888 1_555
As39 Ca39 3.094889 1_554
As40 As41 2.826266 1_555
As40 Ca45 2.995773 1_554
As40 Ca54 2.997188 1_555
As40 Ca25 3.062607 1_544
As40 Ca53 3.064472 1_555
As40 Ca51 3.198259 1_554
As40 Ca48 3.200131 1_555
As40 Ca44 3.304234 1_554
As40 Ca36 3.305286 1_545
As41 Ca54 3.049540 1_555
As41 Ca45 3.051155 1_554
As41 Ca52 3.051688 1_555
As41 Ca47 3.063550 1_554
As41 Ca51 3.064510 1_554
As41 Ca48 3.074482 1_555
As41 Ca43 3.221769 1_554
As41 Ca55 3.242454 1_555
As42 Ca55 2.933402 1_555
As42 Ca38 2.996525 1_555
As42 Ca27 3.023683 1_554
As42 Ca50 3.054576 1_555
As42 Ca40 3.061656 1_555
As42 Ca17 3.082168 1_555
As42 Ca52 3.090795 1_555
As42 Ca47 3.579614 1_554
As43 Mn3 2.524522 1_545
As43 Ca20 2.981264 1_555
As43 Ca51 2.984145 1_554
As43 Ca21 3.090177 1_555
As43 Ca54 3.103084 1_555
As43 Ca55 3.147147 1_555
As43 Ca42 3.202406 1_555
