# generated using pymatgen
data_K2SmP2S7
_symmetry_space_group_name_H-M   'P 1'
_cell_length_a   11.95999658
_cell_length_b   11.95999658
_cell_length_c   9.05142618
_cell_angle_alpha   83.24089089
_cell_angle_beta   83.24089089
_cell_angle_gamma   32.94283024
_symmetry_Int_Tables_number   1
_chemical_formula_structural   K2SmP2S7
_chemical_formula_sum   'K4 Sm2 P4 S14'
_cell_volume   698.75361609
_cell_formula_units_Z   2
loop_
 _symmetry_equiv_pos_site_id
 _symmetry_equiv_pos_as_xyz
  1  'x, y, z'
loop_
 _atom_site_type_symbol
 _atom_site_label
 _atom_site_symmetry_multiplicity
 _atom_site_fract_x
 _atom_site_fract_y
 _atom_site_fract_z
 _atom_site_occupancy
  K  K0  1  0.57160200  0.31343200  0.69771700  1
  K  K1  1  0.81767300  0.55404500  0.87932700  1
  K  K2  1  0.68656800  0.42839800  0.30228300  1
  K  K3  1  0.44595500  0.18232700  0.12067300  1
  Sm  Sm0  1  0.95020600  0.72911000  0.53339100  1
  Sm  Sm1  1  0.27089000  0.04979400  0.46660900  1
  P  P0  1  0.42239700  0.12218800  0.70725300  1
  P  P1  1  0.87781200  0.57760300  0.29274700  1
  P  P2  1  0.11454600  0.85523600  0.38699400  1
  P  P3  1  0.14476400  0.88545400  0.61300600  1
  S  S0  1  0.19062800  0.92758500  0.24330200  1
  S  S1  1  0.49427000  0.07710000  0.48103300  1
  S  S2  1  0.92290000  0.50573000  0.51896700  1
  S  S3  1  0.07468800  0.30619000  0.19519000  1
  S  S4  1  0.07241500  0.80937200  0.75669800  1
  S  S5  1  0.58771000  0.78303000  0.23067100  1
  S  S6  1  0.94730700  0.18417400  0.61636400  1
  S  S7  1  0.21697000  0.41229000  0.76932900  1
  S  S8  1  0.31763200  0.05041500  0.76940300  1
  S  S9  1  0.81582600  0.05269300  0.38363600  1
  S  S10  1  0.30145500  0.56134000  0.38826100  1
  S  S11  1  0.94958500  0.68236800  0.23059700  1
  S  S12  1  0.43866000  0.69854500  0.61173900  1
  S  S13  1  0.69381000  0.92531200  0.80481000  1
loop_
_geom_bond_atom_site_label_1
_geom_bond_atom_site_label_2
_geom_bond_distance
_geom_bond_site_symmetry_2
K0 S7 3.305125 1_555
K0 S6 3.309520 1_555
K0 S10 3.342513 1_555
K0 S9 3.343991 1_555
K0 S12 3.391783 1_555
K0 S4 3.416033 1_555
K0 S4 3.448685 1_645
K0 S13 3.536958 1_545
K1 S2 3.288421 1_555
K1 S13 3.294818 1_555
K1 S3 3.345127 1_656
K1 S7 3.515773 1_655
K1 S8 3.524087 1_565
K1 S5 3.539351 1_556
K1 S8 3.547432 1_655
K2 S5 3.305125 1_555
K2 S9 3.309520 1_555
K2 S12 3.342513 1_555
K2 S6 3.343991 1_555
K2 S10 3.391783 1_555
K2 S0 3.416033 1_555
K2 S0 3.448685 1_645
K2 S3 3.536958 1_655
K3 S1 3.288421 1_555
K3 S3 3.294818 1_555
K3 S13 3.345127 1_544
K3 S5 3.515773 1_545
K3 S11 3.524087 1_455
K3 S7 3.539351 1_554
K3 S11 3.547432 1_545
P0 S8 2.036905 1_555
P0 S7 2.053409 1_555
P0 S13 2.053691 1_545
P0 S1 2.071232 1_555
P1 S11 2.036905 1_555
P1 S5 2.053409 1_555
P1 S3 2.053691 1_655
P1 S2 2.071232 1_555
P2 S0 2.011560 1_555
P2 S10 2.039787 1_555
P2 S9 2.046837 1_465
P2 P3 2.239094 1_555
P3 S4 2.011560 1_555
P3 S12 2.039787 1_555
P3 S6 2.046837 1_465
S0 Sm1 3.263480 1_565
S1 Sm1 2.969485 1_555
S1 Sm0 3.055081 1_545
S2 Sm0 2.969485 1_555
S2 Sm1 3.055081 1_655
S3 Sm1 2.907136 1_555
S4 Sm0 3.263480 1_455
S5 Sm1 2.916460 1_565
S6 Sm1 2.869855 1_655
S7 Sm0 2.916460 1_455
S8 Sm1 2.862957 1_555
S9 Sm0 2.869855 1_545
S10 Sm0 2.927994 1_455
S11 Sm0 2.862957 1_555
S12 Sm1 2.927994 1_565
S13 Sm0 2.907136 1_555
