# generated using pymatgen
data_Pb2CBr2O3
_symmetry_space_group_name_H-M   'P 1'
_cell_length_a   8.47971600
_cell_length_b   8.47971600
_cell_length_c   9.23209700
_cell_angle_alpha   90.00000000
_cell_angle_beta   90.00000000
_cell_angle_gamma   90.00000000
_symmetry_Int_Tables_number   1
_chemical_formula_structural   Pb2CBr2O3
_chemical_formula_sum   'Pb8 C4 Br8 O12'
_cell_volume   663.83932117
_cell_formula_units_Z   4
loop_
 _symmetry_equiv_pos_site_id
 _symmetry_equiv_pos_as_xyz
  1  'x, y, z'
loop_
 _atom_site_type_symbol
 _atom_site_label
 _atom_site_symmetry_multiplicity
 _atom_site_fract_x
 _atom_site_fract_y
 _atom_site_fract_z
 _atom_site_occupancy
  Pb  Pb0  1  0.16359100  0.66359100  0.25067500  1
  Pb  Pb1  1  0.33640900  0.16359100  0.25067500  1
  Pb  Pb2  1  0.66359100  0.83640900  0.25067500  1
  Pb  Pb3  1  0.66359100  0.83640900  0.74932500  1
  Pb  Pb4  1  0.33640900  0.16359100  0.74932500  1
  Pb  Pb5  1  0.83640900  0.33640900  0.25067500  1
  Pb  Pb6  1  0.16359100  0.66359100  0.74932500  1
  Pb  Pb7  1  0.83640900  0.33640900  0.74932500  1
  C  C0  1  0.32416300  0.82416300  0.00000000  1
  C  C1  1  0.17583700  0.32416300  0.00000000  1
  C  C2  1  0.82416300  0.67583700  0.00000000  1
  C  C3  1  0.67583700  0.17583700  0.00000000  1
  Br  Br0  1  0.00000000  0.00000000  0.23662400  1
  Br  Br1  1  0.50000000  0.50000000  0.76337600  1
  Br  Br2  1  0.00000000  0.00000000  0.76337600  1
  Br  Br3  1  0.50000000  0.50000000  0.23662400  1
  Br  Br4  1  0.34984000  0.84984000  0.50000000  1
  Br  Br5  1  0.15016000  0.34984000  0.50000000  1
  Br  Br6  1  0.84984000  0.65016000  0.50000000  1
  Br  Br7  1  0.65016000  0.15016000  0.50000000  1
  O  O0  1  0.21402500  0.71402500  0.00000000  1
  O  O1  1  0.28597500  0.21402500  0.00000000  1
  O  O2  1  0.71402500  0.78597500  0.00000000  1
  O  O3  1  0.78597500  0.28597500  0.00000000  1
  O  O4  1  0.37283900  0.87283900  0.12479800  1
  O  O5  1  0.12716100  0.37283900  0.12479800  1
  O  O6  1  0.87283900  0.62716100  0.12479800  1
  O  O7  1  0.87283900  0.62716100  0.87520200  1
  O  O8  1  0.12716100  0.37283900  0.87520200  1
  O  O9  1  0.62716100  0.12716100  0.12479800  1
  O  O10  1  0.37283900  0.87283900  0.87520200  1
  O  O11  1  0.62716100  0.12716100  0.87520200  1
loop_
_geom_bond_atom_site_label_1
_geom_bond_atom_site_label_2
_geom_bond_distance
_geom_bond_site_symmetry_2
C0 O4 1.291581 1_555
C0 O10 1.291581 1_554
C0 O0 1.320789 1_555
C1 O5 1.291581 1_555
C1 O8 1.291581 1_554
C1 O1 1.320789 1_555
C2 O6 1.291581 1_555
C2 O7 1.291581 1_554
C2 O2 1.320789 1_555
C3 O9 1.291581 1_555
C3 O11 1.291581 1_554
C3 O3 1.320789 1_555
Br0 Pb1 3.174712 1_555
Br0 Pb5 3.174712 1_455
Br0 Pb0 3.174712 1_545
Br0 Pb2 3.174712 1_445
Br1 Pb3 3.174712 1_555
Br1 Pb6 3.174712 1_555
Br1 Pb7 3.174712 1_555
Br1 Pb4 3.174712 1_555
Br2 Pb7 3.174712 1_455
Br2 Pb4 3.174712 1_555
Br2 Pb3 3.174712 1_445
Br2 Pb6 3.174712 1_545
Br3 Pb2 3.174712 1_555
Br3 Pb0 3.174712 1_555
Br3 Pb5 3.174712 1_555
Br3 Pb1 3.174712 1_555
Br4 Pb0 3.207315 1_555
Br4 Pb6 3.207315 1_555
Br5 Pb1 3.207315 1_555
Br5 Pb4 3.207315 1_555
Br6 Pb2 3.207315 1_555
Br6 Pb3 3.207315 1_555
Br7 Pb5 3.207315 1_555
Br7 Pb7 3.207315 1_555
O0 Pb6 2.391982 1_554
O0 Pb0 2.391982 1_555
O1 Pb4 2.391982 1_554
O1 Pb1 2.391982 1_555
O2 Pb2 2.391982 1_555
O2 Pb3 2.391982 1_554
O3 Pb7 2.391982 1_554
O3 Pb5 2.391982 1_555
O4 Pb2 2.743098 1_555
O4 Pb1 2.743098 1_565
O4 Pb0 2.765362 1_555
O5 Pb0 2.743098 1_555
O5 Pb5 2.743098 1_455
O5 Pb1 2.765362 1_555
O6 Pb5 2.743098 1_555
O6 Pb0 2.743098 1_655
O6 Pb2 2.765362 1_555
O7 Pb7 2.743098 1_555
O7 Pb6 2.743098 1_655
O7 Pb3 2.765362 1_555
O8 Pb6 2.743098 1_555
O8 Pb7 2.743098 1_455
O8 Pb4 2.765362 1_555
O9 Pb2 2.743098 1_545
O9 Pb1 2.743098 1_555
O9 Pb5 2.765362 1_555
O10 Pb3 2.743098 1_555
O10 Pb4 2.743098 1_565
O10 Pb6 2.765362 1_555
O11 Pb3 2.743098 1_545
O11 Pb4 2.743098 1_555
O11 Pb7 2.765362 1_555
