# generated using pymatgen
data_Cs2Na2B10O17
_symmetry_space_group_name_H-M   'P 1'
_cell_length_a   11.53294530
_cell_length_b   11.53294530
_cell_length_c   11.20283771
_cell_angle_alpha   76.02277902
_cell_angle_beta   76.02277902
_cell_angle_gamma   33.43416001
_symmetry_Int_Tables_number   1
_chemical_formula_structural   Cs2Na2B10O17
_chemical_formula_sum   'Cs4 Na4 B20 O34'
_cell_volume   794.46225986
_cell_formula_units_Z   2
loop_
 _symmetry_equiv_pos_site_id
 _symmetry_equiv_pos_as_xyz
  1  'x, y, z'
loop_
 _atom_site_type_symbol
 _atom_site_label
 _atom_site_symmetry_multiplicity
 _atom_site_fract_x
 _atom_site_fract_y
 _atom_site_fract_z
 _atom_site_occupancy
  Cs  Cs0  1  0.24512600  0.63416100  0.59658800  1
  Cs  Cs1  1  0.36583900  0.75487400  0.90341200  1
  Cs  Cs2  1  0.75487400  0.36583900  0.40341200  1
  Cs  Cs3  1  0.63416100  0.24512600  0.09658800  1
  Na  Na0  1  0.31194500  0.22062300  0.18390700  1
  Na  Na1  1  0.22062300  0.31194500  0.68390700  1
  Na  Na2  1  0.68805500  0.77937700  0.81609300  1
  Na  Na3  1  0.77937700  0.68805500  0.31609300  1
  B  B0  1  0.25237100  0.85860800  0.26223100  1
  B  B1  1  0.74762900  0.14139200  0.73776900  1
  B  B2  1  0.20592100  0.48450200  0.34918200  1
  B  B3  1  0.51549800  0.79407900  0.15081800  1
  B  B4  1  0.85860800  0.25237100  0.76223100  1
  B  B5  1  0.75018400  0.89058100  0.00317200  1
  B  B6  1  0.96605400  0.32424900  0.85894100  1
  B  B7  1  0.48450200  0.20592100  0.84918200  1
  B  B8  1  0.10941900  0.24981600  0.49682800  1
  B  B9  1  0.79407900  0.51549800  0.65081800  1
  B  B10  1  0.67575100  0.03394600  0.64105900  1
  B  B11  1  0.11446800  0.55424700  0.93744300  1
  B  B12  1  0.32424900  0.96605400  0.35894100  1
  B  B13  1  0.55424700  0.11446800  0.43744300  1
  B  B14  1  0.03394600  0.67575100  0.14105900  1
  B  B15  1  0.14139200  0.74762900  0.23776900  1
  B  B16  1  0.89058100  0.75018400  0.50317200  1
  B  B17  1  0.44575300  0.88553200  0.56255700  1
  B  B18  1  0.24981600  0.10941900  0.99682800  1
  B  B19  1  0.88553200  0.44575300  0.06255700  1
  O  O0  1  0.84361200  0.80978100  0.61796200  1
  O  O1  1  0.54931000  0.09000500  0.97424200  1
  O  O2  1  0.10914700  0.89085300  0.25000000  1
  O  O3  1  0.05561500  0.78694600  0.14206200  1
  O  O4  1  0.74651700  0.42275400  0.67808400  1
  O  O5  1  0.57724600  0.25348300  0.82191600  1
  O  O6  1  0.09000500  0.54931000  0.47424200  1
  O  O7  1  0.08651700  0.55231100  0.25551600  1
  O  O8  1  0.89085300  0.10914700  0.75000000  1
  O  O9  1  0.89783200  0.73554100  0.91742800  1
  O  O10  1  0.15638800  0.19021900  0.38203800  1
  O  O11  1  0.59095600  0.75018800  0.64887400  1
  O  O12  1  0.91348300  0.44768900  0.74448400  1
  O  O13  1  0.10216800  0.26445900  0.08257200  1
  O  O14  1  0.78694600  0.05561500  0.64206200  1
  O  O15  1  0.94438500  0.21305400  0.85793800  1
  O  O16  1  0.19021900  0.15638800  0.88203800  1
  O  O17  1  0.17992500  0.53217200  0.03837900  1
  O  O18  1  0.21305400  0.94438500  0.35793800  1
  O  O19  1  0.53217200  0.17992500  0.53837900  1
  O  O20  1  0.42275400  0.74651700  0.17808400  1
  O  O21  1  0.75018800  0.59095600  0.14887400  1
  O  O22  1  0.24981200  0.40904400  0.85112600  1
  O  O23  1  0.55231100  0.08651700  0.75551600  1
  O  O24  1  0.26445900  0.10216800  0.58257200  1
  O  O25  1  0.40904400  0.24981200  0.35112600  1
  O  O26  1  0.80978100  0.84361200  0.11796200  1
  O  O27  1  0.82007500  0.46782800  0.96162100  1
  O  O28  1  0.73554100  0.89783200  0.41742800  1
  O  O29  1  0.45069000  0.90999500  0.02575800  1
  O  O30  1  0.25348300  0.57724600  0.32191600  1
  O  O31  1  0.90999500  0.45069000  0.52575800  1
  O  O32  1  0.46782800  0.82007500  0.46162100  1
  O  O33  1  0.44768900  0.91348300  0.24448400  1
loop_
_geom_bond_atom_site_label_1
_geom_bond_atom_site_label_2
_geom_bond_distance
_geom_bond_site_symmetry_2
Cs0 O14 2.972402 1_465
Cs0 O0 3.106002 1_455
Cs0 O19 3.238872 1_555
Cs0 O30 3.261224 1_555
Cs0 O6 3.284990 1_555
Cs0 O22 3.337473 1_555
Cs0 O5 3.401243 1_555
Cs0 O8 3.668149 1_465
Cs0 O18 3.705874 1_555
Cs1 O15 2.972402 1_465
Cs1 O16 3.106002 1_565
Cs1 O27 3.238872 1_555
Cs1 O20 3.261224 1_556
Cs1 O29 3.284990 1_556
Cs1 O11 3.337473 1_555
Cs1 O4 3.401243 1_555
Cs1 O8 3.668149 1_465
Cs1 O3 3.705874 1_556
Cs2 O18 2.972402 1_645
Cs2 O10 3.106002 1_655
Cs2 O32 3.238872 1_555
Cs2 O4 3.261224 1_555
Cs2 O31 3.284990 1_555
Cs2 O21 3.337473 1_555
Cs2 O20 3.401243 1_555
Cs2 O2 3.668149 1_645
Cs2 O14 3.705874 1_555
Cs3 O3 2.972402 1_645
Cs3 O26 3.106002 1_545
Cs3 O17 3.238872 1_555
Cs3 O5 3.261224 1_554
Cs3 O1 3.284990 1_554
Cs3 O25 3.337473 1_555
Cs3 O30 3.401243 1_555
Cs3 O2 3.668149 1_645
Cs3 O15 3.705874 1_554
Na0 O33 2.356947 1_545
Na0 O7 2.431423 1_555
Na0 O13 2.530946 1_555
Na0 O25 2.612268 1_555
Na0 O1 2.645869 1_554
Na0 O10 2.649262 1_555
Na0 O17 2.669247 1_555
Na1 O12 2.356947 1_455
Na1 O23 2.431423 1_555
Na1 O24 2.530946 1_555
Na1 O22 2.612268 1_555
Na1 O6 2.645869 1_555
Na1 O16 2.649262 1_555
Na1 O19 2.669247 1_555
Na2 O23 2.356947 1_565
Na2 O12 2.431423 1_555
Na2 O9 2.530946 1_555
Na2 O11 2.612268 1_555
Na2 O29 2.645869 1_556
Na2 O0 2.649262 1_555
Na2 O27 2.669247 1_555
Na3 O7 2.356947 1_655
Na3 O33 2.431423 1_555
Na3 O28 2.530946 1_555
Na3 O21 2.612268 1_555
Na3 O31 2.645869 1_555
Na3 O26 2.649262 1_555
Na3 O32 2.669247 1_555
B0 O18 1.364801 1_555
B0 O20 1.369377 1_555
B0 O2 1.394624 1_555
B1 O14 1.364801 1_555
B1 O5 1.369377 1_555
B1 O8 1.394624 1_555
B2 O7 1.453687 1_555
B2 O25 1.492546 1_555
B2 O6 1.497356 1_555
B2 O30 1.509549 1_555
B3 O33 1.453687 1_555
B3 O21 1.492546 1_555
B3 O29 1.497356 1_555
B3 O20 1.509549 1_555
B4 O15 1.364801 1_555
B4 O4 1.369377 1_555
B4 O8 1.394624 1_555
B5 O1 1.367980 1_564
B5 O26 1.374276 1_555
B5 O9 1.406139 1_554
B6 O12 1.446227 1_555
B6 O16 1.492050 1_655
B6 O27 1.493736 1_555
B6 O15 1.500120 1_555
B7 O23 1.453687 1_555
B7 O22 1.492546 1_555
B7 O1 1.497356 1_555
B7 O5 1.509549 1_555
B8 O31 1.367980 1_455
B8 O10 1.374276 1_555
B8 O24 1.406139 1_555
B9 O12 1.453687 1_555
B9 O11 1.492546 1_555
B9 O31 1.497356 1_555
B9 O4 1.509549 1_555
B10 O23 1.446227 1_555
B10 O0 1.492050 1_545
B10 O19 1.493736 1_555
B10 O14 1.500120 1_555
B11 O17 1.365968 1_556
B11 O22 1.366102 1_555
B11 O9 1.410485 1_455
B12 O33 1.446227 1_555
B12 O10 1.492050 1_565
B12 O32 1.493736 1_555
B12 O18 1.500120 1_555
B13 O19 1.365968 1_555
B13 O25 1.366102 1_555
B13 O28 1.410485 1_545
B14 O7 1.446227 1_555
B14 O26 1.492050 1_455
B14 O17 1.493736 1_555
B14 O3 1.500120 1_555
B15 O3 1.364801 1_555
B15 O30 1.369377 1_555
B15 O2 1.394624 1_555
B16 O6 1.367980 1_655
B16 O0 1.374276 1_555
B16 O28 1.406139 1_555
B17 O32 1.365968 1_555
B17 O11 1.366102 1_555
B17 O24 1.410485 1_565
B18 O29 1.367980 1_546
B18 O16 1.374276 1_555
B18 O13 1.406139 1_556
B19 O27 1.365968 1_554
B19 O21 1.366102 1_555
B19 O13 1.410485 1_655
