# generated using pymatgen
data_Tb2AlGe3
_symmetry_space_group_name_H-M   'P 1'
_cell_length_a   4.23477400
_cell_length_b   6.80907000
_cell_length_c   17.82672700
_cell_angle_alpha   90.00000000
_cell_angle_beta   90.00000000
_cell_angle_gamma   90.00000000
_symmetry_Int_Tables_number   1
_chemical_formula_structural   Tb2AlGe3
_chemical_formula_sum   'Tb8 Al4 Ge12'
_cell_volume   514.03140192
_cell_formula_units_Z   4
loop_
 _symmetry_equiv_pos_site_id
 _symmetry_equiv_pos_as_xyz
  1  'x, y, z'
loop_
 _atom_site_type_symbol
 _atom_site_label
 _atom_site_symmetry_multiplicity
 _atom_site_fract_x
 _atom_site_fract_y
 _atom_site_fract_z
 _atom_site_occupancy
  Tb  Tb0  1  0.75000000  0.33080600  0.29580400  1
  Tb  Tb1  1  0.75000000  0.32836500  0.08523900  1
  Tb  Tb2  1  0.25000000  0.67163500  0.91476100  1
  Tb  Tb3  1  0.25000000  0.16919400  0.79580400  1
  Tb  Tb4  1  0.75000000  0.82836500  0.41476100  1
  Tb  Tb5  1  0.75000000  0.83080600  0.20419600  1
  Tb  Tb6  1  0.25000000  0.17163500  0.58523900  1
  Tb  Tb7  1  0.25000000  0.66919400  0.70419600  1
  Al  Al0  1  0.75000000  0.55032400  0.56460600  1
  Al  Al1  1  0.25000000  0.94967600  0.06460600  1
  Al  Al2  1  0.75000000  0.05032400  0.93539400  1
  Al  Al3  1  0.25000000  0.44967600  0.43539400  1
  Ge  Ge0  1  0.75000000  0.25159700  0.46543300  1
  Ge  Ge1  1  0.25000000  0.14466400  0.18831800  1
  Ge  Ge2  1  0.75000000  0.85533600  0.81168200  1
  Ge  Ge3  1  0.75000000  0.35533600  0.68831800  1
  Ge  Ge4  1  0.75000000  0.46674100  0.82717600  1
  Ge  Ge5  1  0.25000000  0.03325900  0.32717600  1
  Ge  Ge6  1  0.75000000  0.96674100  0.67282400  1
  Ge  Ge7  1  0.25000000  0.64466400  0.31168200  1
  Ge  Ge8  1  0.25000000  0.74840300  0.53456700  1
  Ge  Ge9  1  0.25000000  0.53325900  0.17282400  1
  Ge  Ge10  1  0.75000000  0.75159700  0.03456700  1
  Ge  Ge11  1  0.25000000  0.24840300  0.96543300  1
loop_
_geom_bond_atom_site_label_1
_geom_bond_atom_site_label_2
_geom_bond_distance
_geom_bond_site_symmetry_2
Al0 Ge8 2.566937 1_655
Al0 Ge8 2.566937 1_555
Al0 Ge3 2.574190 1_555
Al0 Ge0 2.694986 1_555
Al0 Tb7 3.366117 1_655
Al0 Tb7 3.366117 1_555
Al1 Ge10 2.566937 1_455
Al1 Ge10 2.566937 1_555
Al1 Ge1 2.574190 1_565
Al1 Ge11 2.694986 1_564
Al1 Tb5 3.366117 1_555
Al1 Tb5 3.366117 1_455
Al2 Ge11 2.566937 1_655
Al2 Ge11 2.566937 1_555
Al2 Ge2 2.574190 1_545
Al2 Ge10 2.694986 1_546
Al2 Tb3 3.366117 1_655
Al2 Tb3 3.366117 1_555
Al3 Ge0 2.566937 1_555
Al3 Ge0 2.566937 1_455
Al3 Ge7 2.574190 1_555
Al3 Ge8 2.694986 1_555
Al3 Tb0 3.366117 1_555
Al3 Tb0 3.366117 1_455
Ge0 Tb4 3.020074 1_545
Ge0 Tb6 3.056337 1_555
Ge0 Tb6 3.056337 1_655
Ge0 Tb0 3.071651 1_555
Ge1 Ge5 2.589004 1_555
Ge1 Ge9 2.660348 1_555
Ge1 Tb5 3.021682 1_445
Ge1 Tb5 3.021682 1_545
Ge1 Tb1 3.069942 1_455
Ge1 Tb1 3.069942 1_555
Ge1 Tb0 3.124307 1_555
Ge1 Tb0 3.124307 1_455
Ge2 Ge6 2.589004 1_555
Ge2 Ge4 2.660348 1_555
Ge2 Tb3 3.021682 1_565
Ge2 Tb3 3.021682 1_665
Ge2 Tb2 3.069942 1_555
Ge2 Tb2 3.069942 1_655
Ge2 Tb7 3.124307 1_655
Ge2 Tb7 3.124307 1_555
Ge3 Ge4 2.589004 1_555
Ge3 Ge6 2.660348 1_545
Ge3 Tb7 3.021682 1_655
Ge3 Tb7 3.021682 1_555
Ge3 Tb6 3.069942 1_555
Ge3 Tb6 3.069942 1_655
Ge3 Tb3 3.124307 1_555
Ge3 Tb3 3.124307 1_655
Ge4 Tb2 2.977845 1_555
Ge4 Tb2 2.977845 1_655
Ge4 Tb3 2.983429 1_655
Ge4 Tb3 2.983429 1_555
Ge4 Tb7 3.345138 1_655
Ge4 Tb7 3.345138 1_555
Ge5 Ge7 2.660348 1_545
Ge5 Tb4 2.977845 1_545
Ge5 Tb4 2.977845 1_445
Ge5 Tb0 2.983429 1_555
Ge5 Tb0 2.983429 1_455
Ge5 Tb5 3.345138 1_445
Ge5 Tb5 3.345138 1_545
Ge6 Tb6 2.977845 1_565
Ge6 Tb6 2.977845 1_665
Ge6 Tb7 2.983429 1_555
Ge6 Tb7 2.983429 1_655
Ge6 Tb3 3.345138 1_665
Ge6 Tb3 3.345138 1_565
Ge7 Ge9 2.589004 1_555
Ge7 Tb0 3.021682 1_555
Ge7 Tb0 3.021682 1_455
Ge7 Tb4 3.069942 1_455
Ge7 Tb4 3.069942 1_555
Ge7 Tb5 3.124307 1_455
Ge7 Tb5 3.124307 1_555
Ge8 Tb6 3.020074 1_565
Ge8 Tb4 3.056337 1_455
Ge8 Tb4 3.056337 1_555
Ge8 Tb7 3.071651 1_555
Ge9 Tb1 2.977845 1_455
Ge9 Tb1 2.977845 1_555
Ge9 Tb5 2.983429 1_455
Ge9 Tb5 2.983429 1_555
Ge9 Tb0 3.345138 1_555
Ge9 Tb0 3.345138 1_455
Ge10 Tb1 3.020074 1_555
Ge10 Tb2 3.056337 1_654
Ge10 Tb2 3.056337 1_554
Ge10 Tb5 3.071651 1_555
Ge11 Tb2 3.020074 1_555
Ge11 Tb1 3.056337 1_456
Ge11 Tb1 3.056337 1_556
Ge11 Tb3 3.071651 1_555
