# generated using pymatgen
data_Ce4C4Br3
_symmetry_space_group_name_H-M   'P 1'
_cell_length_a   4.15334900
_cell_length_b   10.97736372
_cell_length_c   11.09374425
_cell_angle_alpha   102.84411737
_cell_angle_beta   90.28664680
_cell_angle_gamma   94.45770275
_symmetry_Int_Tables_number   1
_chemical_formula_structural   Ce4C4Br3
_chemical_formula_sum   'Ce8 C8 Br6'
_cell_volume   491.51841746
_cell_formula_units_Z   2
loop_
 _symmetry_equiv_pos_site_id
 _symmetry_equiv_pos_as_xyz
  1  'x, y, z'
loop_
 _atom_site_type_symbol
 _atom_site_label
 _atom_site_symmetry_multiplicity
 _atom_site_fract_x
 _atom_site_fract_y
 _atom_site_fract_z
 _atom_site_occupancy
  Ce  Ce0  1  0.62024300  0.16700900  0.01768100  1
  Ce  Ce1  1  0.24240600  0.36169500  0.83056200  1
  Ce  Ce2  1  0.37975700  0.83299100  0.98231900  1
  Ce  Ce3  1  0.62561100  0.17250100  0.56114800  1
  Ce  Ce4  1  0.98558600  0.97857400  0.24008300  1
  Ce  Ce5  1  0.01441400  0.02142600  0.75991700  1
  Ce  Ce6  1  0.75759400  0.63830500  0.16943800  1
  Ce  Ce7  1  0.37438900  0.82749900  0.43885200  1
  C  C0  1  0.50798800  0.84774300  0.21454700  1
  C  C1  1  0.86367200  0.95911100  0.99524800  1
  C  C2  1  0.23868300  0.76161700  0.19464400  1
  C  C3  1  0.13632800  0.04088900  0.00475200  1
  C  C4  1  0.13448100  0.03884000  0.51642500  1
  C  C5  1  0.86551900  0.96116000  0.48357500  1
  C  C6  1  0.76131700  0.23838300  0.80535600  1
  C  C7  1  0.49201200  0.15225700  0.78545300  1
  Br  Br0  1  0.19347000  0.38832500  0.57719900  1
  Br  Br1  1  0.19989100  0.40304900  0.11059100  1
  Br  Br2  1  0.80010900  0.59695100  0.88940900  1
  Br  Br3  1  0.58579100  0.20442000  0.29594000  1
  Br  Br4  1  0.41420900  0.79558000  0.70406000  1
  Br  Br5  1  0.80653000  0.61167500  0.42280100  1
loop_
_geom_bond_atom_site_label_1
_geom_bond_atom_site_label_2
_geom_bond_distance
_geom_bond_site_symmetry_2
C0 C2 1.390690 1_555
C0 Ce4 2.334160 1_555
C0 Ce6 2.544622 1_555
C0 Ce2 2.595084 1_554
C0 Ce7 2.605730 1_555
C0 Ce4 2.675853 1_455
C1 C3 1.377716 1_666
C1 Ce2 2.335203 1_555
C1 Ce0 2.530047 1_566
C1 Ce2 2.628291 1_655
C1 Ce4 2.718613 1_556
C1 Ce5 2.901629 1_665
C2 Ce6 2.304070 1_455
C2 Ce6 2.616628 1_555
C2 Ce4 2.625249 1_455
C2 Ce7 2.688983 1_555
C2 Ce2 2.696002 1_554
C3 Ce0 2.335203 1_555
C3 Ce2 2.530047 1_544
C3 Ce0 2.628291 1_455
C3 Ce5 2.718613 1_554
C3 Ce4 2.901629 1_445
C4 C5 1.348158 1_445
C4 Ce3 2.400182 1_555
C4 Ce7 2.568262 1_545
C4 Ce3 2.652319 1_455
C4 Ce5 2.794664 1_555
C4 Ce4 3.038774 1_445
C5 Ce7 2.400182 1_555
C5 Ce3 2.568262 1_565
C5 Ce7 2.652319 1_655
C5 Ce4 2.794664 1_555
C5 Ce5 3.038774 1_665
C6 C7 1.390690 1_555
C6 Ce1 2.304070 1_655
C6 Ce1 2.616628 1_555
C6 Ce5 2.625249 1_655
C6 Ce3 2.688983 1_555
C6 Ce0 2.696002 1_556
C7 Ce5 2.334160 1_555
C7 Ce1 2.544622 1_555
C7 Ce0 2.595084 1_556
C7 Ce3 2.605730 1_555
C7 Ce5 2.675853 1_655
Br0 Ce1 2.897564 1_555
Br0 Ce3 3.056595 1_555
Br0 Ce3 3.185429 1_455
Br1 Ce1 3.046143 1_554
Br1 Ce0 3.218390 1_555
Br1 Ce6 3.235731 1_455
Br1 Ce6 3.281204 1_555
Br1 Ce0 3.374942 1_455
Br2 Ce6 3.046143 1_556
Br2 Ce2 3.218390 1_555
Br2 Ce1 3.235731 1_655
Br2 Ce1 3.281204 1_555
Br2 Ce2 3.374942 1_655
Br3 Ce0 3.027906 1_555
Br3 Ce4 3.042170 1_545
Br3 Ce3 3.044477 1_555
Br3 Ce4 3.329498 1_445
Br4 Ce2 3.027906 1_555
Br4 Ce5 3.042170 1_565
Br4 Ce7 3.044477 1_555
Br4 Ce5 3.329498 1_665
Br5 Ce6 2.897564 1_555
Br5 Ce7 3.056595 1_555
Br5 Ce7 3.185429 1_655
