# generated using pymatgen
data_Li2U4W4O25
_symmetry_space_group_name_H-M   'P 1'
_cell_length_a   7.77273192
_cell_length_b   7.77273192
_cell_length_c   22.50348338
_cell_angle_alpha   81.61609568
_cell_angle_beta   81.61609568
_cell_angle_gamma   49.14045140
_symmetry_Int_Tables_number   1
_chemical_formula_structural   Li2U4W4O25
_chemical_formula_sum   'Li4 U8 W8 O50'
_cell_volume   1014.95270676
_cell_formula_units_Z   2
loop_
 _symmetry_equiv_pos_site_id
 _symmetry_equiv_pos_as_xyz
  1  'x, y, z'
loop_
 _atom_site_type_symbol
 _atom_site_label
 _atom_site_symmetry_multiplicity
 _atom_site_fract_x
 _atom_site_fract_y
 _atom_site_fract_z
 _atom_site_occupancy
  Li  Li0  1  0.35547200  0.43171800  0.44630800  1
  Li  Li1  1  0.56828200  0.64452800  0.05369200  1
  Li  Li2  1  0.64452800  0.56828200  0.55369200  1
  Li  Li3  1  0.43171800  0.35547200  0.94630800  1
  U  U0  1  0.25415200  0.16156300  0.84514800  1
  U  U1  1  0.83843700  0.74584800  0.65485200  1
  U  U2  1  0.96437600  0.03562400  0.75000000  1
  U  U3  1  0.03562400  0.96437600  0.25000000  1
  U  U4  1  0.00000000  0.00000000  0.00000000  1
  U  U5  1  0.16156300  0.25415200  0.34514800  1
  U  U6  1  0.74584800  0.83843700  0.15485200  1
  U  U7  1  0.00000000  0.00000000  0.50000000  1
  W  W0  1  0.41909000  0.41234600  0.69002700  1
  W  W1  1  0.58091000  0.58765400  0.30997300  1
  W  W2  1  0.22441400  0.21240700  0.58978900  1
  W  W3  1  0.58765400  0.58091000  0.80997300  1
  W  W4  1  0.21240700  0.22441400  0.08978900  1
  W  W5  1  0.41234600  0.41909000  0.19002700  1
  W  W6  1  0.78759300  0.77558600  0.91021100  1
  W  W7  1  0.77558600  0.78759300  0.41021100  1
  O  O0  1  0.74241300  0.28758100  0.51771400  1
  O  O1  1  0.03792900  0.18428200  0.05592100  1
  O  O2  1  0.23617600  0.37883300  0.65219700  1
  O  O3  1  0.81571800  0.96207100  0.44407900  1
  O  O4  1  0.37883300  0.23617600  0.15219700  1
  O  O5  1  0.84059800  0.93592700  0.08598700  1
  O  O6  1  0.12631000  0.70025600  0.71290900  1
  O  O7  1  0.50707100  0.95408200  0.62392400  1
  O  O8  1  0.90830700  0.30891100  0.80846900  1
  O  O9  1  0.50350100  0.48324600  0.37286500  1
  O  O10  1  0.25758700  0.71241900  0.48228600  1
  O  O11  1  0.71241900  0.25758700  0.98228600  1
  O  O12  1  0.28919700  0.32388400  0.02511200  1
  O  O13  1  0.12357600  0.06116300  0.18202400  1
  O  O14  1  0.62116700  0.76382400  0.84780300  1
  O  O15  1  0.30891100  0.90830700  0.30846900  1
  O  O16  1  0.93883700  0.87642400  0.31797600  1
  O  O17  1  0.87369000  0.29974400  0.28709100  1
  O  O18  1  0.29974400  0.87369000  0.78709100  1
  O  O19  1  0.57378300  0.42621700  0.75000000  1
  O  O20  1  0.06407300  0.15940200  0.41401300  1
  O  O21  1  0.95408200  0.50707100  0.12392400  1
  O  O22  1  0.71080300  0.67611600  0.97488800  1
  O  O23  1  0.48574300  0.91118900  0.09827700  1
  O  O24  1  0.32388400  0.28919700  0.52511200  1
  O  O25  1  0.09169300  0.69108900  0.19153100  1
  O  O26  1  0.74040500  0.66302400  0.72571200  1
  O  O27  1  0.49649900  0.51675400  0.62713500  1
  O  O28  1  0.49292900  0.04591800  0.37607600  1
  O  O29  1  0.91118900  0.48574300  0.59827700  1
  O  O30  1  0.76382400  0.62116700  0.34780300  1
  O  O31  1  0.15940200  0.06407300  0.91401300  1
  O  O32  1  0.18428200  0.03792900  0.55592100  1
  O  O33  1  0.08881100  0.51425700  0.40172300  1
  O  O34  1  0.93592700  0.84059800  0.58598700  1
  O  O35  1  0.28758100  0.74241300  0.01771400  1
  O  O36  1  0.04591800  0.49292900  0.87607600  1
  O  O37  1  0.66302400  0.74040500  0.22571200  1
  O  O38  1  0.25959500  0.33697600  0.27428800  1
  O  O39  1  0.51675400  0.49649900  0.12713500  1
  O  O40  1  0.70025600  0.12631000  0.21290900  1
  O  O41  1  0.87642400  0.93883700  0.81797600  1
  O  O42  1  0.51425700  0.08881100  0.90172300  1
  O  O43  1  0.96207100  0.81571800  0.94407900  1
  O  O44  1  0.42621700  0.57378300  0.25000000  1
  O  O45  1  0.48324600  0.50350100  0.87286500  1
  O  O46  1  0.69108900  0.09169300  0.69153100  1
  O  O47  1  0.06116300  0.12357600  0.68202400  1
  O  O48  1  0.33697600  0.25959500  0.77428800  1
  O  O49  1  0.67611600  0.71080300  0.47488800  1
loop_
_geom_bond_atom_site_label_1
_geom_bond_atom_site_label_2
_geom_bond_distance
_geom_bond_site_symmetry_2
Li0 O9 2.017711 1_555
Li0 O24 2.021957 1_555
Li0 O10 2.039168 1_555
Li0 O33 2.095979 1_555
Li1 O39 2.017711 1_555
Li1 O22 2.021957 1_554
Li1 O35 2.039168 1_555
Li1 O23 2.095979 1_555
Li2 O27 2.017711 1_555
Li2 O49 2.021957 1_555
Li2 O0 2.039168 1_555
Li2 O29 2.095979 1_555
Li3 O45 2.017711 1_555
Li3 O12 2.021957 1_556
Li3 O11 2.039168 1_555
Li3 O42 2.095979 1_555
O0 U7 1.826329 1_655
O1 W4 1.855160 1_555
O1 U4 2.215528 1_555
O2 W0 1.927720 1_555
O2 W2 2.091889 1_555
O2 U1 2.481064 1_455
O3 W7 1.855160 1_555
O3 U7 2.215528 1_665
O4 W5 1.927720 1_555
O4 W4 2.091889 1_555
O4 U6 2.481064 1_545
O5 U6 1.890263 1_555
O5 U4 2.313997 1_665
O6 W0 1.944972 1_555
O6 U2 2.260786 1_465
O6 U1 2.553260 1_455
O7 W2 1.928481 1_565
O7 U1 2.116055 1_555
O8 W3 1.945399 1_555
O8 U0 2.358453 1_655
O8 U2 2.422782 1_555
O9 W1 1.754787 1_555
O10 U7 1.826329 1_565
O11 U4 1.826329 1_656
O12 W4 1.759175 1_555
O13 U3 1.845440 1_545
O13 W4 2.520993 1_555
O14 W3 1.927720 1_555
O14 W6 2.091889 1_555
O14 U0 2.481064 1_565
O15 W1 1.945399 1_555
O15 U5 2.358453 1_565
O15 U3 2.422782 1_555
O16 U3 1.845440 1_655
O16 W7 2.520993 1_555
O17 W1 1.944972 1_555
O17 U3 2.260786 1_645
O17 U5 2.553260 1_655
O18 W3 1.944972 1_555
O18 U2 2.260786 1_465
O18 U0 2.553260 1_565
O19 W0 1.990990 1_555
O19 W3 1.990990 1_555
O19 U2 2.524767 1_555
O20 U5 1.890263 1_555
O20 U7 2.313997 1_555
O21 W4 1.928481 1_655
O21 U6 2.116055 1_555
O22 W6 1.759175 1_555
O23 W4 1.921607 1_565
O23 U6 2.252292 1_555
O24 W2 1.759175 1_555
O25 W5 1.945399 1_555
O25 U6 2.358453 1_455
O25 U3 2.422782 1_555
O26 U1 1.877748 1_555
O26 W3 2.322619 1_555
O27 W0 1.754787 1_555
O28 W7 1.928481 1_545
O28 U5 2.116055 1_555
O29 W2 1.921607 1_655
O29 U1 2.252292 1_555
O30 W1 1.927720 1_555
O30 W7 2.091889 1_555
O30 U5 2.481064 1_655
O31 U0 1.890263 1_555
O31 U4 2.313997 1_556
O32 W2 1.855160 1_555
O32 U7 2.215528 1_555
O33 W7 1.921607 1_455
O33 U5 2.252292 1_555
O34 U1 1.890263 1_555
O34 U7 2.313997 1_665
O35 U4 1.826329 1_565
O36 W6 1.928481 1_455
O36 U0 2.116055 1_555
O37 U6 1.877748 1_555
O37 W1 2.322619 1_555
O38 U5 1.877748 1_555
O38 W5 2.322619 1_555
O39 W5 1.754787 1_555
O40 W5 1.944972 1_555
O40 U3 2.260786 1_645
O40 U6 2.553260 1_545
O41 U2 1.845440 1_565
O41 W6 2.520993 1_555
O42 W6 1.921607 1_545
O42 U0 2.252292 1_555
O43 W6 1.855160 1_555
O43 U4 2.215528 1_666
O44 W5 1.990990 1_555
O44 W1 1.990990 1_555
O44 U3 2.524767 1_555
O45 W3 1.754787 1_555
O46 W0 1.945399 1_555
O46 U1 2.358453 1_545
O46 U2 2.422782 1_555
O47 U2 1.845440 1_455
O47 W2 2.520993 1_555
O48 U0 1.877748 1_555
O48 W0 2.322619 1_555
O49 W7 1.759175 1_555
