# generated using pymatgen
data_BaBeSiO4
_symmetry_space_group_name_H-M   'P 1'
_cell_length_a   5.12008946
_cell_length_b   5.19298789
_cell_length_c   5.19298588
_cell_angle_alpha   61.12163874
_cell_angle_beta   60.65268866
_cell_angle_gamma   60.65271269
_symmetry_Int_Tables_number   1
_chemical_formula_structural   BaBeSiO4
_chemical_formula_sum   'Ba1 Be1 Si1 O4'
_cell_volume   99.41018228
_cell_formula_units_Z   1
loop_
 _symmetry_equiv_pos_site_id
 _symmetry_equiv_pos_as_xyz
  1  'x, y, z'
loop_
 _atom_site_type_symbol
 _atom_site_label
 _atom_site_symmetry_multiplicity
 _atom_site_fract_x
 _atom_site_fract_y
 _atom_site_fract_z
 _atom_site_occupancy
  Ba  Ba0  1  0.02670100  0.98654500  0.98654600  1
  Be  Be0  1  0.26396300  0.25201200  0.25201200  1
  Si  Si0  1  0.51505900  0.50077400  0.50077400  1
  O  O0  1  0.44012800  0.37583800  0.87812000  1
  O  O1  1  0.88907000  0.32855500  0.32855500  1
  O  O2  1  0.44012600  0.87812000  0.37583600  1
  O  O3  1  0.28565300  0.42715600  0.42715800  1
loop_
_geom_bond_atom_site_label_1
_geom_bond_atom_site_label_2
_geom_bond_distance
_geom_bond_site_symmetry_2
Ba0 O1 2.720026 1_466
Ba0 O0 2.833821 1_465
Ba0 O2 2.833825 1_456
Ba0 O3 2.865313 1_565
Ba0 O3 2.865318 1_556
Ba0 O0 2.971833 1_555
Ba0 O2 2.971841 1_555
Be0 O2 1.625688 1_545
Be0 O0 1.625690 1_554
Be0 O1 1.630120 1_455
Be0 O3 1.632132 1_555
O0 Si0 1.639222 1_555
O1 Si0 1.637648 1_555
O2 Si0 1.639221 1_555
O3 Si0 1.641153 1_555
