# generated using pymatgen
data_LaInRh
_symmetry_space_group_name_H-M   'P 1'
_cell_length_a   7.65387811
_cell_length_b   7.65387811
_cell_length_c   4.12820936
_cell_angle_alpha   90.00000000
_cell_angle_beta   90.00000000
_cell_angle_gamma   120.00000247
_symmetry_Int_Tables_number   1
_chemical_formula_structural   LaInRh
_chemical_formula_sum   'La3 In3 Rh3'
_cell_volume   209.43796915
_cell_formula_units_Z   3
loop_
 _symmetry_equiv_pos_site_id
 _symmetry_equiv_pos_as_xyz
  1  'x, y, z'
loop_
 _atom_site_type_symbol
 _atom_site_label
 _atom_site_symmetry_multiplicity
 _atom_site_fract_x
 _atom_site_fract_y
 _atom_site_fract_z
 _atom_site_occupancy
  La  La0  1  -0.00000000  0.58647338  0.50000000  1
  La  La1  1  0.58647338  -0.00000000  0.50000000  1
  La  La2  1  0.41352662  0.41352662  0.50000000  1
  In  In0  1  0.00000000  0.24467513  0.00000000  1
  In  In1  1  0.24467513  0.00000000  -0.00000000  1
  In  In2  1  0.75532487  0.75532487  -0.00000000  1
  Rh  Rh0  1  -0.00000000  -0.00000000  0.50000000  1
  Rh  Rh1  1  0.66666700  0.33333300  0.00000000  1
  Rh  Rh2  1  0.33333300  0.66666700  0.00000000  1
loop_
_geom_bond_atom_site_label_1
_geom_bond_atom_site_label_2
_geom_bond_distance
_geom_bond_site_symmetry_2
La0 Rh2 3.095220 1_556
La0 Rh2 3.095220 1_555
La0 Rh1 3.095222 1_456
La0 Rh1 3.095222 1_455
La0 Rh0 3.165082 1_565
La1 Rh1 3.095220 1_555
La1 Rh1 3.095220 1_556
La1 Rh2 3.095222 1_546
La1 Rh2 3.095222 1_545
La1 Rh0 3.165082 1_655
La2 Rh1 3.095226 1_556
La2 Rh2 3.095226 1_556
La2 Rh2 3.095226 1_555
La2 Rh1 3.095226 1_555
La2 Rh0 3.165082 1_555
In0 Rh0 2.787039 1_555
In0 Rh0 2.787039 1_554
In0 Rh1 2.949711 1_455
In0 Rh2 2.949716 1_555
In0 La0 3.332329 1_554
In0 La0 3.332329 1_555
In0 La1 3.443550 1_454
In0 La1 3.443550 1_455
In0 La2 3.443550 1_554
In0 La2 3.443550 1_555
In1 Rh0 2.787039 1_555
In1 Rh0 2.787039 1_554
In1 Rh2 2.949711 1_545
In1 Rh1 2.949716 1_555
In1 La1 3.332329 1_554
In1 La1 3.332329 1_555
In1 La0 3.443550 1_545
In1 La0 3.443550 1_544
In1 La2 3.443550 1_554
In1 La2 3.443550 1_555
In2 Rh0 2.787039 1_665
In2 Rh0 2.787039 1_664
In2 Rh2 2.949718 1_555
In2 Rh1 2.949718 1_555
In2 La2 3.332329 1_554
In2 La2 3.332329 1_555
In2 La0 3.443550 1_655
In2 La0 3.443550 1_654
In2 La1 3.443550 1_565
In2 La1 3.443550 1_564
