# generated using pymatgen
data_HfNCl
_symmetry_space_group_name_H-M   'P 1'
_cell_length_a   9.74299539
_cell_length_b   9.74299539
_cell_length_c   9.74299571
_cell_angle_alpha   21.08102850
_cell_angle_beta   21.08102850
_cell_angle_gamma   21.08102959
_symmetry_Int_Tables_number   1
_chemical_formula_structural   HfNCl
_chemical_formula_sum   'Hf2 N2 Cl2'
_cell_volume   104.79245995
_cell_formula_units_Z   2
loop_
 _symmetry_equiv_pos_site_id
 _symmetry_equiv_pos_as_xyz
  1  'x, y, z'
loop_
 _atom_site_type_symbol
 _atom_site_label
 _atom_site_symmetry_multiplicity
 _atom_site_fract_x
 _atom_site_fract_y
 _atom_site_fract_z
 _atom_site_occupancy
  Hf  Hf0  1  0.87876347  0.87876347  0.87876347  1
  Hf  Hf1  1  0.12123653  0.12123653  0.12123653  1
  N  N0  1  0.80344154  0.80344154  0.80344154  1
  N  N1  1  0.19655846  0.19655846  0.19655846  1
  Cl  Cl0  1  0.60859855  0.60859855  0.60859855  1
  Cl  Cl1  1  0.39140145  0.39140145  0.39140145  1
loop_
_geom_bond_atom_site_label_1
_geom_bond_atom_site_label_2
_geom_bond_distance
_geom_bond_site_symmetry_2
Hf0 N1 2.105349 1_566
Hf0 N1 2.105349 1_656
Hf0 N1 2.105349 1_665
Hf0 N0 2.151908 1_555
Hf1 N0 2.105349 1_454
Hf1 N0 2.105349 1_544
Hf1 N0 2.105349 1_445
Hf1 N1 2.151908 1_555
Cl0 Hf0 2.737211 1_545
Cl0 Hf0 2.737211 1_455
Cl0 Hf0 2.737212 1_554
Cl1 Hf1 2.737211 1_565
Cl1 Hf1 2.737211 1_655
Cl1 Hf1 2.737212 1_556
