# generated using pymatgen
data_Zn2SeCl2O3
_symmetry_space_group_name_H-M   'P 1'
_cell_length_a   7.64370929
_cell_length_b   7.70536024
_cell_length_c   10.23578450
_cell_angle_alpha   90.00000000
_cell_angle_beta   90.00000000
_cell_angle_gamma   99.72518611
_symmetry_Int_Tables_number   1
_chemical_formula_structural   Zn2SeCl2O3
_chemical_formula_sum   'Zn8 Se4 Cl8 O12'
_cell_volume   594.19891245
_cell_formula_units_Z   4
loop_
 _symmetry_equiv_pos_site_id
 _symmetry_equiv_pos_as_xyz
  1  'x, y, z'
loop_
 _atom_site_type_symbol
 _atom_site_label
 _atom_site_symmetry_multiplicity
 _atom_site_fract_x
 _atom_site_fract_y
 _atom_site_fract_z
 _atom_site_occupancy
  Zn  Zn0  1  0.89238940  0.22718463  0.98976903  1
  Zn  Zn1  1  0.87519779  0.91689597  0.72159118  1
  Zn  Zn2  1  0.60761060  0.77281537  0.48976903  1
  Zn  Zn3  1  0.62480221  0.08310403  0.22159118  1
  Zn  Zn4  1  0.10761060  0.77281537  0.01023097  1
  Zn  Zn5  1  0.12480221  0.08310403  0.27840882  1
  Zn  Zn6  1  0.37519779  0.91689597  0.77840882  1
  Zn  Zn7  1  0.39238940  0.22718463  0.51023097  1
  Se  Se0  1  0.31412904  0.18746578  0.03244577  1
  Se  Se1  1  0.81412904  0.18746578  0.46755423  1
  Se  Se2  1  0.18587096  0.81253422  0.53244577  1
  Se  Se3  1  0.68587096  0.81253422  0.96755423  1
  Cl  Cl0  1  0.46551788  0.22387264  0.71925764  1
  Cl  Cl1  1  0.96551788  0.22387264  0.78074236  1
  Cl  Cl2  1  0.75947003  0.60098429  0.59949659  1
  Cl  Cl3  1  0.74052997  0.39901571  0.09949659  1
  Cl  Cl4  1  0.53448212  0.77612736  0.28074236  1
  Cl  Cl5  1  0.24053097  0.39901571  0.40050341  1
  Cl  Cl6  1  0.03448212  0.77612736  0.21925764  1
  Cl  Cl7  1  0.25946903  0.60098429  0.90050341  1
  O  O0  1  0.27928423  0.98692378  0.95222004  1
  O  O1  1  0.87808262  0.12145087  0.31742836  1
  O  O2  1  0.89581777  0.80745155  0.90905016  1
  O  O3  1  0.72071577  0.01307622  0.04777996  1
  O  O4  1  0.39581777  0.80745155  0.59094984  1
  O  O5  1  0.22071577  0.01307622  0.45222004  1
  O  O6  1  0.77928423  0.98692378  0.54777996  1
  O  O7  1  0.12191738  0.87854913  0.68257164  1
  O  O8  1  0.60418223  0.19254845  0.40905016  1
  O  O9  1  0.62191738  0.87854913  0.81742836  1
  O  O10  1  0.10418223  0.19254845  0.09094984  1
  O  O11  1  0.37808262  0.12145087  0.18257164  1
loop_
_geom_bond_atom_site_label_1
_geom_bond_atom_site_label_2
_geom_bond_distance
_geom_bond_site_symmetry_2
Cl0 Zn7 2.212601 1_555
Cl0 Zn6 2.426203 1_545
Cl1 Zn0 2.212601 1_555
Cl1 Zn1 2.426203 1_545
Cl2 Zn2 2.209322 1_555
Cl2 Zn1 2.746316 1_555
Cl3 Zn0 2.209322 1_554
Cl3 Zn3 2.746316 1_555
Cl4 Zn2 2.212601 1_555
Cl4 Zn3 2.426203 1_565
Cl5 Zn7 2.209317 1_555
Cl5 Zn5 2.746317 1_555
Cl6 Zn4 2.212601 1_555
Cl6 Zn5 2.426203 1_565
Cl7 Zn4 2.209317 1_556
Cl7 Zn6 2.746317 1_555
O0 Se0 1.730321 1_566
O0 Zn4 2.016160 1_556
O0 Zn6 2.031617 1_555
O1 Se1 1.715526 1_555
O1 Zn5 1.997879 1_655
O1 Zn3 2.145798 1_555
O2 Se3 1.719496 1_555
O2 Zn4 1.977518 1_656
O2 Zn1 2.112503 1_555
O3 Se3 1.730321 1_544
O3 Zn0 2.016160 1_554
O3 Zn3 2.031617 1_555
O4 Se2 1.719496 1_555
O4 Zn2 1.977518 1_555
O4 Zn6 2.112503 1_555
O5 Se2 1.730321 1_545
O5 Zn7 2.016160 1_555
O5 Zn5 2.031617 1_555
O6 Se1 1.730321 1_565
O6 Zn2 2.016160 1_555
O6 Zn1 2.031617 1_555
O7 Se2 1.715526 1_555
O7 Zn1 1.997879 1_455
O7 Zn6 2.145798 1_555
O8 Se1 1.719496 1_555
O8 Zn7 1.977518 1_555
O8 Zn3 2.112503 1_555
O9 Se3 1.715526 1_555
O9 Zn6 1.997879 1_555
O9 Zn1 2.145798 1_555
O10 Se0 1.719496 1_555
O10 Zn0 1.977518 1_454
O10 Zn5 2.112503 1_555
O11 Se0 1.715526 1_555
O11 Zn3 1.997879 1_555
O11 Zn5 2.145798 1_555
