# generated using pymatgen
data_PrAl3(BO3)4
_symmetry_space_group_name_H-M   'P 1'
_cell_length_a   5.98336410
_cell_length_b   5.98336410
_cell_length_c   11.27052401
_cell_angle_alpha   81.64552590
_cell_angle_beta   81.64552590
_cell_angle_gamma   104.24511281
_symmetry_Int_Tables_number   1
_chemical_formula_structural   PrAl3(BO3)4
_chemical_formula_sum   'Pr2 Al6 B8 O24'
_cell_volume   379.97665342
_cell_formula_units_Z   2
loop_
 _symmetry_equiv_pos_site_id
 _symmetry_equiv_pos_as_xyz
  1  'x, y, z'
loop_
 _atom_site_type_symbol
 _atom_site_label
 _atom_site_symmetry_multiplicity
 _atom_site_fract_x
 _atom_site_fract_y
 _atom_site_fract_z
 _atom_site_occupancy
  Pr  Pr0  1  0.03765100  0.96234900  0.25000000  1
  Pr  Pr1  1  0.96234900  0.03765100  0.75000000  1
  Al  Al0  1  0.19545900  0.69399800  0.52844900  1
  Al  Al1  1  0.58925500  0.41074500  0.25000000  1
  Al  Al2  1  0.80454100  0.30600200  0.47155100  1
  Al  Al3  1  0.41074500  0.58925500  0.75000000  1
  Al  Al4  1  0.30600200  0.80454100  0.97155100  1
  Al  Al5  1  0.69399800  0.19545900  0.02844900  1
  B  B0  1  0.12259700  0.49173100  0.22208800  1
  B  B1  1  0.71909900  0.77719600  0.50592900  1
  B  B2  1  0.50826900  0.87740300  0.27791200  1
  B  B3  1  0.28090100  0.22280400  0.49407100  1
  B  B4  1  0.49173100  0.12259700  0.72208800  1
  B  B5  1  0.77719600  0.71909900  0.00592900  1
  B  B6  1  0.87740300  0.50826900  0.77791200  1
  B  B7  1  0.22280400  0.28090100  0.99407100  1
  O  O0  1  0.35484200  0.27117500  0.74286400  1
  O  O1  1  0.99672600  0.19495300  0.06041800  1
  O  O2  1  0.69421500  0.18245100  0.63681100  1
  O  O3  1  0.89756700  0.42253600  0.29463200  1
  O  O4  1  0.49283700  0.69662300  0.57461600  1
  O  O5  1  0.00327400  0.80504700  0.93958200  1
  O  O6  1  0.72882500  0.64515800  0.75713600  1
  O  O7  1  0.18245100  0.69421500  0.13681100  1
  O  O8  1  0.80504700  0.00327400  0.43958200  1
  O  O9  1  0.42253600  0.89756700  0.79463200  1
  O  O10  1  0.50716300  0.30337700  0.42538400  1
  O  O11  1  0.64515800  0.72882500  0.25713600  1
  O  O12  1  0.30578500  0.81754900  0.36318900  1
  O  O13  1  0.86985200  0.63185000  0.49565500  1
  O  O14  1  0.57746400  0.10243300  0.20536800  1
  O  O15  1  0.30337700  0.50716300  0.92538400  1
  O  O16  1  0.36815000  0.13014800  0.00434500  1
  O  O17  1  0.27117500  0.35484200  0.24286400  1
  O  O18  1  0.13014800  0.36815000  0.50434500  1
  O  O19  1  0.69662300  0.49283700  0.07461600  1
  O  O20  1  0.10243300  0.57746400  0.70536800  1
  O  O21  1  0.19495300  0.99672600  0.56041800  1
  O  O22  1  0.81754900  0.30578500  0.86318900  1
  O  O23  1  0.63185000  0.86985200  0.99565500  1
loop_
_geom_bond_atom_site_label_1
_geom_bond_atom_site_label_2
_geom_bond_distance
_geom_bond_site_symmetry_2
Al0 O12 1.858449 1_555
Al0 O21 1.898101 1_555
Al0 O4 1.922142 1_555
Al0 O18 1.958959 1_555
Al0 O20 1.963254 1_555
Al0 O13 1.990758 1_455
Al1 O17 1.865337 1_555
Al1 O11 1.865337 1_555
Al1 O10 1.937716 1_555
Al1 O19 1.937716 1_555
Al1 O14 1.969012 1_555
Al1 O3 1.969012 1_555
Al2 O2 1.858449 1_555
Al2 O8 1.898101 1_555
Al2 O10 1.922142 1_555
Al2 O13 1.958959 1_555
Al2 O3 1.963254 1_555
Al2 O18 1.990758 1_655
Al3 O0 1.865337 1_555
Al3 O6 1.865337 1_555
Al3 O15 1.937716 1_555
Al3 O4 1.937716 1_555
Al3 O20 1.969012 1_555
Al3 O9 1.969012 1_555
Al4 O7 1.858449 1_556
Al4 O5 1.898101 1_555
Al4 O15 1.922142 1_555
Al4 O23 1.958959 1_555
Al4 O9 1.963254 1_555
Al4 O16 1.990758 1_566
Al5 O22 1.858449 1_554
Al5 O1 1.898101 1_555
Al5 O19 1.922142 1_555
Al5 O16 1.958959 1_555
Al5 O14 1.963254 1_555
Al5 O23 1.990758 1_544
B0 O7 1.366707 1_555
B0 O17 1.370804 1_555
B0 O3 1.400062 1_455
B1 O8 1.380360 1_565
B1 O4 1.389350 1_555
B1 O13 1.402962 1_555
B2 O12 1.366707 1_555
B2 O11 1.370804 1_555
B2 O14 1.400062 1_565
B3 O21 1.380360 1_545
B3 O10 1.389350 1_555
B3 O18 1.402962 1_555
B4 O2 1.366707 1_555
B4 O0 1.370804 1_555
B4 O9 1.400062 1_545
B5 O5 1.380360 1_654
B5 O19 1.389350 1_555
B5 O23 1.402962 1_554
B6 O22 1.366707 1_555
B6 O6 1.370804 1_555
B6 O20 1.400062 1_655
B7 O1 1.380360 1_456
B7 O15 1.389350 1_555
B7 O16 1.402962 1_556
O0 Pr1 2.402391 1_455
O1 Pr0 2.453159 1_645
O2 Pr1 2.430966 1_555
O5 Pr1 2.453159 1_465
O6 Pr1 2.402391 1_565
O7 Pr0 2.430966 1_555
O8 Pr0 2.453159 1_645
O11 Pr0 2.402391 1_655
O12 Pr0 2.430966 1_555
O17 Pr0 2.402391 1_545
O21 Pr1 2.453159 1_465
O22 Pr1 2.430966 1_555
