# generated using pymatgen
data_NdCu(MoO4)2
_symmetry_space_group_name_H-M   'P 1'
_cell_length_a   10.05556000
_cell_length_b   10.49166400
_cell_length_c   14.96714200
_cell_angle_alpha   90.00000000
_cell_angle_beta   90.00000000
_cell_angle_gamma   90.00000000
_symmetry_Int_Tables_number   1
_chemical_formula_structural   NdCu(MoO4)2
_chemical_formula_sum   'Nd8 Cu8 Mo16 O64'
_cell_volume   1579.02684834
_cell_formula_units_Z   8
loop_
 _symmetry_equiv_pos_site_id
 _symmetry_equiv_pos_as_xyz
  1  'x, y, z'
loop_
 _atom_site_type_symbol
 _atom_site_label
 _atom_site_symmetry_multiplicity
 _atom_site_fract_x
 _atom_site_fract_y
 _atom_site_fract_z
 _atom_site_occupancy
  Nd  Nd0  1  0.77736800  0.03497000  0.89633500  1
  Nd  Nd1  1  0.77736800  0.53497000  0.60366500  1
  Nd  Nd2  1  0.22263200  0.46503000  0.39633500  1
  Nd  Nd3  1  0.72263200  0.03497000  0.39633500  1
  Nd  Nd4  1  0.72263200  0.53497000  0.10366500  1
  Nd  Nd5  1  0.27736800  0.46503000  0.89633500  1
  Nd  Nd6  1  0.27736800  0.96503000  0.60366500  1
  Nd  Nd7  1  0.22263200  0.96503000  0.10366500  1
  Cu  Cu0  1  0.69351300  0.68149400  0.30562700  1
  Cu  Cu1  1  0.19351300  0.31850600  0.19437300  1
  Cu  Cu2  1  0.69351300  0.18149400  0.19437300  1
  Cu  Cu3  1  0.30648700  0.31850600  0.69437300  1
  Cu  Cu4  1  0.80648700  0.18149400  0.69437300  1
  Cu  Cu5  1  0.30648700  0.81850600  0.80562700  1
  Cu  Cu6  1  0.80648700  0.68149400  0.80562700  1
  Cu  Cu7  1  0.19351300  0.81850600  0.30562700  1
  Mo  Mo0  1  0.32894700  0.60262500  0.15335400  1
  Mo  Mo1  1  0.99810300  0.22077400  0.55816300  1
  Mo  Mo2  1  0.00189700  0.77922600  0.44183700  1
  Mo  Mo3  1  0.82894700  0.89737500  0.15335400  1
  Mo  Mo4  1  0.67105300  0.39737500  0.84664600  1
  Mo  Mo5  1  0.17105300  0.60262500  0.65335400  1
  Mo  Mo6  1  0.67105300  0.89737500  0.65335400  1
  Mo  Mo7  1  0.82894700  0.39737500  0.34664600  1
  Mo  Mo8  1  0.32894700  0.10262500  0.34664600  1
  Mo  Mo9  1  0.50189700  0.22077400  0.05816300  1
  Mo  Mo10  1  0.99810300  0.72077400  0.94183700  1
  Mo  Mo11  1  0.17105300  0.10262500  0.84664600  1
  Mo  Mo12  1  0.50189700  0.72077400  0.44183700  1
  Mo  Mo13  1  0.49810300  0.27922600  0.55816300  1
  Mo  Mo14  1  0.49810300  0.77922600  0.94183700  1
  Mo  Mo15  1  0.00189700  0.27922600  0.05816300  1
  O  O0  1  0.78631900  0.42291300  0.46042400  1
  O  O1  1  0.59299000  0.13427100  0.97588100  1
  O  O2  1  0.61367500  0.31641700  0.13160000  1
  O  O3  1  0.60546200  0.66762000  0.99571800  1
  O  O4  1  0.10546200  0.33238000  0.50428200  1
  O  O5  1  0.38632500  0.18358300  0.63160000  1
  O  O6  1  0.71368100  0.42291300  0.96042400  1
  O  O7  1  0.09850600  0.11491300  0.62416200  1
  O  O8  1  0.90149400  0.38508700  0.12416200  1
  O  O9  1  0.27420000  0.76184100  0.18338400  1
  O  O10  1  0.49555600  0.91237200  0.66536500  1
  O  O11  1  0.49555600  0.41237200  0.83463500  1
  O  O12  1  0.90701000  0.13427100  0.47588100  1
  O  O13  1  0.11367500  0.18358300  0.13160000  1
  O  O14  1  0.39453800  0.33238000  0.00428200  1
  O  O15  1  0.00444400  0.41237200  0.33463500  1
  O  O16  1  0.59299000  0.63427100  0.52411900  1
  O  O17  1  0.25555800  0.48718600  0.72656400  1
  O  O18  1  0.24444200  0.98718600  0.27343600  1
  O  O19  1  0.90701000  0.63427100  0.02411900  1
  O  O20  1  0.89453800  0.66762000  0.49571800  1
  O  O21  1  0.99555600  0.08762800  0.83463500  1
  O  O22  1  0.09299000  0.36572900  0.97588100  1
  O  O23  1  0.88632500  0.81641700  0.86840000  1
  O  O24  1  0.74444200  0.51281400  0.27343600  1
  O  O25  1  0.11367500  0.68358300  0.36840000  1
  O  O26  1  0.50444400  0.58762800  0.16536500  1
  O  O27  1  0.40701000  0.36572900  0.47588100  1
  O  O28  1  0.72580000  0.23815900  0.81661600  1
  O  O29  1  0.88632500  0.31641700  0.63160000  1
  O  O30  1  0.72580000  0.73815900  0.68338400  1
  O  O31  1  0.21368100  0.07708700  0.96042400  1
  O  O32  1  0.22580000  0.26184100  0.81661600  1
  O  O33  1  0.28631900  0.57708700  0.03957600  1
  O  O34  1  0.89453800  0.16762000  0.00428200  1
  O  O35  1  0.77420000  0.73815900  0.18338400  1
  O  O36  1  0.39453800  0.83238000  0.49571800  1
  O  O37  1  0.59850600  0.88508700  0.87583800  1
  O  O38  1  0.60546200  0.16762000  0.50428200  1
  O  O39  1  0.99555600  0.58762800  0.66536500  1
  O  O40  1  0.25555800  0.98718600  0.77343600  1
  O  O41  1  0.09850600  0.61491300  0.87583800  1
  O  O42  1  0.75555800  0.51281400  0.77343600  1
  O  O43  1  0.40701000  0.86572900  0.02411900  1
  O  O44  1  0.38632500  0.68358300  0.86840000  1
  O  O45  1  0.21368100  0.57708700  0.53957600  1
  O  O46  1  0.61367500  0.81641700  0.36840000  1
  O  O47  1  0.00444400  0.91237200  0.16536500  1
  O  O48  1  0.59850600  0.38508700  0.62416200  1
  O  O49  1  0.10546200  0.83238000  0.99571800  1
  O  O50  1  0.28631900  0.07708700  0.46042400  1
  O  O51  1  0.78631900  0.92291300  0.03957600  1
  O  O52  1  0.75555800  0.01281400  0.72656400  1
  O  O53  1  0.90149400  0.88508700  0.37583800  1
  O  O54  1  0.40149400  0.61491300  0.37583800  1
  O  O55  1  0.71368100  0.92291300  0.53957600  1
  O  O56  1  0.22580000  0.76184100  0.68338400  1
  O  O57  1  0.40149400  0.11491300  0.12416200  1
  O  O58  1  0.77420000  0.23815900  0.31661600  1
  O  O59  1  0.27420000  0.26184100  0.31661600  1
  O  O60  1  0.24444200  0.48718600  0.22656400  1
  O  O61  1  0.74444200  0.01281400  0.22656400  1
  O  O62  1  0.50444400  0.08762800  0.33463500  1
  O  O63  1  0.09299000  0.86572900  0.52411900  1
loop_
_geom_bond_atom_site_label_1
_geom_bond_atom_site_label_2
_geom_bond_distance
_geom_bond_site_symmetry_2
Nd0 O37 2.408682 1_545
Nd0 O34 2.436270 1_556
Nd0 O1 2.437272 1_555
Nd0 O21 2.443700 1_555
Nd0 O51 2.446759 1_546
Nd0 O28 2.497412 1_555
Nd0 O52 2.561005 1_555
Nd0 O23 2.575458 1_545
Nd1 O48 2.408682 1_555
Nd1 O20 2.436270 1_555
Nd1 O16 2.437272 1_555
Nd1 O39 2.443700 1_555
Nd1 O0 2.446759 1_555
Nd1 O30 2.497412 1_555
Nd1 O42 2.561005 1_555
Nd1 O29 2.575458 1_555
Nd2 O54 2.408682 1_555
Nd2 O4 2.436270 1_555
Nd2 O27 2.437272 1_555
Nd2 O15 2.443700 1_555
Nd2 O45 2.446759 1_555
Nd2 O59 2.497412 1_555
Nd2 O60 2.561005 1_555
Nd2 O25 2.575458 1_555
Nd3 O53 2.408682 1_545
Nd3 O38 2.436270 1_555
Nd3 O12 2.437272 1_555
Nd3 O62 2.443700 1_555
Nd3 O55 2.446759 1_545
Nd3 O58 2.497412 1_555
Nd3 O61 2.561005 1_555
Nd3 O46 2.575458 1_545
Nd4 O8 2.408682 1_555
Nd4 O3 2.436270 1_554
Nd4 O19 2.437272 1_555
Nd4 O26 2.443700 1_555
Nd4 O6 2.446759 1_554
Nd4 O35 2.497412 1_555
Nd4 O24 2.561005 1_555
Nd4 O2 2.575458 1_555
Nd5 O41 2.408682 1_555
Nd5 O14 2.436270 1_556
Nd5 O22 2.437272 1_555
Nd5 O11 2.443700 1_555
Nd5 O33 2.446759 1_556
Nd5 O32 2.497412 1_555
Nd5 O17 2.561005 1_555
Nd5 O44 2.575458 1_555
Nd6 O7 2.408682 1_565
Nd6 O36 2.436270 1_555
Nd6 O63 2.437272 1_555
Nd6 O10 2.443700 1_555
Nd6 O50 2.446759 1_565
Nd6 O56 2.497412 1_555
Nd6 O40 2.561005 1_555
Nd6 O5 2.575458 1_565
Nd7 O57 2.408682 1_565
Nd7 O49 2.436270 1_554
Nd7 O43 2.437272 1_555
Nd7 O47 2.443700 1_555
Nd7 O31 2.446759 1_564
Nd7 O9 2.497412 1_555
Nd7 O18 2.561005 1_555
Nd7 O13 2.575458 1_565
Cu0 O46 1.879112 1_555
Cu0 O24 1.904301 1_555
Cu0 O35 2.087888 1_555
Cu1 O13 1.879112 1_555
Cu1 O60 1.904301 1_555
Cu1 O59 2.087888 1_555
Cu2 O2 1.879112 1_555
Cu2 O61 1.904301 1_555
Cu2 O58 2.087888 1_555
Cu3 O5 1.879112 1_555
Cu3 O17 1.904301 1_555
Cu3 O32 2.087888 1_555
Cu4 O29 1.879112 1_555
Cu4 O52 1.904301 1_555
Cu4 O28 2.087888 1_555
Cu5 O44 1.879112 1_555
Cu5 O40 1.904301 1_555
Cu5 O56 2.087888 1_555
Cu6 O23 1.879112 1_555
Cu6 O42 1.904301 1_555
Cu6 O30 2.087888 1_555
Cu7 O25 1.879112 1_555
Cu7 O18 1.904301 1_555
Cu7 O9 2.087888 1_555
Mo0 O33 1.776374 1_555
Mo0 O26 1.780818 1_555
Mo0 O9 1.815338 1_555
Mo0 O60 1.841087 1_555
Mo1 O12 1.783077 1_555
Mo1 O4 1.785182 1_655
Mo1 O7 1.796845 1_655
Mo1 O29 1.865044 1_555
Mo2 O63 1.783077 1_555
Mo2 O20 1.785182 1_455
Mo2 O53 1.796845 1_455
Mo2 O25 1.865044 1_555
Mo3 O51 1.776374 1_555
Mo3 O47 1.780818 1_655
Mo3 O35 1.815338 1_555
Mo3 O61 1.841087 1_565
Mo4 O6 1.776374 1_555
Mo4 O11 1.780818 1_555
Mo4 O28 1.815338 1_555
Mo4 O42 1.841087 1_555
Mo5 O45 1.776374 1_555
Mo5 O39 1.780818 1_455
Mo5 O56 1.815338 1_555
Mo5 O17 1.841087 1_555
Mo6 O55 1.776374 1_555
Mo6 O10 1.780818 1_555
Mo6 O30 1.815338 1_555
Mo6 O52 1.841087 1_565
Mo7 O0 1.776374 1_555
Mo7 O15 1.780818 1_655
Mo7 O58 1.815338 1_555
Mo7 O24 1.841087 1_555
Mo8 O50 1.776374 1_555
Mo8 O62 1.780818 1_555
Mo8 O59 1.815338 1_555
Mo8 O18 1.841087 1_545
Mo9 O1 1.783077 1_554
Mo9 O14 1.785182 1_555
Mo9 O57 1.796845 1_555
Mo9 O2 1.865044 1_555
Mo10 O19 1.783077 1_556
Mo10 O49 1.785182 1_655
Mo10 O41 1.796845 1_655
Mo10 O23 1.865044 1_555
Mo11 O31 1.776374 1_555
Mo11 O21 1.780818 1_455
Mo11 O32 1.815338 1_555
Mo11 O40 1.841087 1_545
Mo12 O16 1.783077 1_555
Mo12 O36 1.785182 1_555
Mo12 O54 1.796845 1_555
Mo12 O46 1.865044 1_555
Mo13 O27 1.783077 1_555
Mo13 O38 1.785182 1_555
Mo13 O48 1.796845 1_555
Mo13 O5 1.865044 1_555
Mo14 O43 1.783077 1_556
Mo14 O3 1.785182 1_555
Mo14 O37 1.796845 1_555
Mo14 O44 1.865044 1_555
Mo15 O22 1.783077 1_554
Mo15 O34 1.785182 1_455
Mo15 O8 1.796845 1_455
Mo15 O13 1.865044 1_555
