# generated using pymatgen
data_Ca3Zn2(CuP2)2
_symmetry_space_group_name_H-M   'P 1'
_cell_length_a   4.04216202
_cell_length_b   4.04216202
_cell_length_c   14.71145200
_cell_angle_alpha   90.00000000
_cell_angle_beta   90.00000000
_cell_angle_gamma   120.00000031
_symmetry_Int_Tables_number   1
_chemical_formula_structural   Ca3Zn2(CuP2)2
_chemical_formula_sum   'Ca3 Zn2 Cu2 P4'
_cell_volume   208.16782447
_cell_formula_units_Z   1
loop_
 _symmetry_equiv_pos_site_id
 _symmetry_equiv_pos_as_xyz
  1  'x, y, z'
loop_
 _atom_site_type_symbol
 _atom_site_label
 _atom_site_symmetry_multiplicity
 _atom_site_fract_x
 _atom_site_fract_y
 _atom_site_fract_z
 _atom_site_occupancy
  Ca  Ca0  1  0.00000000  0.00000000  0.73200800  1
  Ca  Ca1  1  0.00000000  0.00000000  0.00000000  1
  Ca  Ca2  1  0.00000000  0.00000000  0.26799200  1
  Zn  Zn0  1  0.33333300  0.66666700  0.43815000  1
  Zn  Zn1  1  0.66666700  0.33333300  0.56185000  1
  Cu  Cu0  1  0.33333300  0.66666700  0.86457700  1
  Cu  Cu1  1  0.66666700  0.33333300  0.13542300  1
  P  P0  1  0.33333300  0.66666700  0.13405600  1
  P  P1  1  0.66666700  0.33333300  0.86594400  1
  P  P2  1  0.33333300  0.66666700  0.61061700  1
  P  P3  1  0.66666700  0.33333300  0.38938300  1
loop_
_geom_bond_atom_site_label_1
_geom_bond_atom_site_label_2
_geom_bond_distance
_geom_bond_site_symmetry_2
Ca0 P2 2.938633 1_545
Ca0 P2 2.938636 1_445
Ca0 P2 2.938636 1_555
Ca0 Cu0 3.041373 1_545
Ca0 Cu0 3.041376 1_445
Ca0 Cu0 3.041376 1_555
Ca0 P1 3.054308 1_455
Ca0 P1 3.054310 1_445
Ca0 P1 3.054310 1_555
Ca1 P0 3.055447 1_545
Ca1 P1 3.055447 1_454
Ca1 P0 3.055450 1_445
Ca1 P0 3.055450 1_555
Ca1 P1 3.055450 1_444
Ca1 P1 3.055450 1_554
Ca1 Cu1 3.068466 1_455
Ca1 Cu0 3.068466 1_544
Ca1 Cu1 3.068469 1_555
Ca1 Cu1 3.068469 1_445
Ca1 Cu0 3.068469 1_554
Ca1 Cu0 3.068469 1_444
Ca2 P3 2.938633 1_455
Ca2 P3 2.938636 1_445
Ca2 P3 2.938636 1_555
Ca2 Cu1 3.041373 1_455
Ca2 Cu1 3.041376 1_555
Ca2 Cu1 3.041376 1_445
Ca2 P0 3.054308 1_545
Ca2 P0 3.054310 1_555
Ca2 P0 3.054310 1_445
Cu0 P1 2.333828 1_455
Cu0 P1 2.333828 1_565
Cu0 P1 2.333835 1_555
Cu1 P0 2.333828 1_655
Cu1 P0 2.333828 1_545
Cu1 P0 2.333835 1_555
P2 Zn1 2.441528 1_455
P2 Zn1 2.441528 1_565
P2 Zn1 2.441534 1_555
P2 Zn0 2.537240 1_555
P3 Zn0 2.441528 1_655
P3 Zn0 2.441528 1_545
P3 Zn0 2.441534 1_555
P3 Zn1 2.537240 1_555
