# generated using pymatgen
data_Al2(WO4)3
_symmetry_space_group_name_H-M   'P 1'
_cell_length_a   9.22254200
_cell_length_b   9.31104400
_cell_length_c   12.89263900
_cell_angle_alpha   90.00000000
_cell_angle_beta   90.00000000
_cell_angle_gamma   90.00000000
_symmetry_Int_Tables_number   1
_chemical_formula_structural   Al2(WO4)3
_chemical_formula_sum   'Al8 W12 O48'
_cell_volume   1107.11017709
_cell_formula_units_Z   4
loop_
 _symmetry_equiv_pos_site_id
 _symmetry_equiv_pos_as_xyz
  1  'x, y, z'
loop_
 _atom_site_type_symbol
 _atom_site_label
 _atom_site_symmetry_multiplicity
 _atom_site_fract_x
 _atom_site_fract_y
 _atom_site_fract_z
 _atom_site_occupancy
  Al  Al0  1  0.00160100  0.21738400  0.88241800  1
  Al  Al1  1  0.49825900  0.21740700  0.61970200  1
  Al  Al2  1  0.50174100  0.28259300  0.11970200  1
  Al  Al3  1  0.99839900  0.28261600  0.38241800  1
  Al  Al4  1  0.50174100  0.71740700  0.88029800  1
  Al  Al5  1  0.00160100  0.78261600  0.11758200  1
  Al  Al6  1  0.49825900  0.78259300  0.38029800  1
  Al  Al7  1  0.99839900  0.71738400  0.61758200  1
  W  W0  1  0.14510600  0.13302200  0.14570100  1
  W  W1  1  0.64252800  0.13462200  0.35664600  1
  W  W2  1  0.85489400  0.63302200  0.35429900  1
  W  W3  1  0.22334800  0.00000000  0.50000000  1
  W  W4  1  0.64252800  0.86537800  0.64335400  1
  W  W5  1  0.14510600  0.86697800  0.85429900  1
  W  W6  1  0.77665200  0.50000000  0.00000000  1
  W  W7  1  0.85489400  0.36697800  0.64570100  1
  W  W8  1  0.35747200  0.63462200  0.14335400  1
  W  W9  1  0.27412200  0.50000000  0.50000000  1
  W  W10  1  0.72587800  0.00000000  0.00000000  1
  W  W11  1  0.35747200  0.36537800  0.85664600  1
  O  O0  1  0.33663600  0.09267000  0.59364000  1
  O  O1  1  0.56486700  0.24468800  0.25514400  1
  O  O2  1  0.43611800  0.68473900  0.02058700  1
  O  O3  1  0.43513300  0.74468800  0.24485600  1
  O  O4  1  0.15899700  0.58941600  0.59483600  1
  O  O5  1  0.10784200  0.12683800  0.43436700  1
  O  O6  1  0.39316700  0.55507000  0.83419300  1
  O  O7  1  0.56388200  0.81526100  0.52058700  1
  O  O8  1  0.84100300  0.91058400  0.09483600  1
  O  O9  1  0.38345900  0.62924200  0.43106800  1
  O  O10  1  0.56388200  0.18473900  0.47941300  1
  O  O11  1  0.16336400  0.66037200  0.13821600  1
  O  O12  1  0.33863000  0.83738100  0.85692000  1
  O  O13  1  0.89215800  0.37316200  0.93436700  1
  O  O14  1  0.06078500  0.76051100  0.75374300  1
  O  O15  1  0.93921500  0.73948900  0.25374300  1
  O  O16  1  0.43513300  0.25531200  0.75514400  1
  O  O17  1  0.66336400  0.40733000  0.09364000  1
  O  O18  1  0.88891500  0.44319800  0.33433300  1
  O  O19  1  0.60683300  0.05507000  0.66580700  1
  O  O20  1  0.06859700  0.81847200  0.97802200  1
  O  O21  1  0.84100300  0.08941600  0.90516400  1
  O  O22  1  0.83663600  0.83962800  0.63821600  1
  O  O23  1  0.89215800  0.62683800  0.06563300  1
  O  O24  1  0.66137000  0.66261900  0.35692000  1
  O  O25  1  0.88891500  0.55680200  0.66566700  1
  O  O26  1  0.16336400  0.33962800  0.86178400  1
  O  O27  1  0.39316700  0.44493000  0.16580700  1
  O  O28  1  0.93140300  0.68152800  0.47802200  1
  O  O29  1  0.11108500  0.94319800  0.16566700  1
  O  O30  1  0.56486700  0.75531200  0.74485600  1
  O  O31  1  0.83663600  0.16037200  0.36178400  1
  O  O32  1  0.10784200  0.87316200  0.56563300  1
  O  O33  1  0.93921500  0.26051100  0.74625700  1
  O  O34  1  0.93140300  0.31847200  0.52197800  1
  O  O35  1  0.15899700  0.41058400  0.40516400  1
  O  O36  1  0.43611800  0.31526100  0.97941300  1
  O  O37  1  0.11108500  0.05680200  0.83433300  1
  O  O38  1  0.66137000  0.33738100  0.64308000  1
  O  O39  1  0.06078500  0.23948900  0.24625700  1
  O  O40  1  0.61654100  0.12924200  0.06893200  1
  O  O41  1  0.06859700  0.18152800  0.02197800  1
  O  O42  1  0.33663600  0.90733000  0.40636000  1
  O  O43  1  0.33863000  0.16261900  0.14308000  1
  O  O44  1  0.61654100  0.87075800  0.93106800  1
  O  O45  1  0.38345900  0.37075800  0.56893200  1
  O  O46  1  0.60683300  0.94493000  0.33419300  1
  O  O47  1  0.66336400  0.59267000  0.90636000  1
loop_
_geom_bond_atom_site_label_1
_geom_bond_atom_site_label_2
_geom_bond_distance
_geom_bond_site_symmetry_2
Al0 O13 1.889755 1_455
Al0 O33 1.890496 1_455
Al0 O26 1.895251 1_555
Al0 O37 1.907733 1_555
Al0 O21 1.923390 1_455
Al0 O41 1.931501 1_556
Al1 O16 1.874228 1_555
Al1 O45 1.894247 1_555
Al1 O38 1.897797 1_555
Al1 O19 1.908062 1_555
Al1 O0 1.919281 1_555
Al1 O10 1.931368 1_555
Al2 O1 1.874228 1_555
Al2 O40 1.894247 1_555
Al2 O43 1.897797 1_555
Al2 O27 1.908062 1_555
Al2 O17 1.919281 1_555
Al2 O36 1.931368 1_554
Al3 O5 1.889755 1_655
Al3 O39 1.890496 1_655
Al3 O31 1.895251 1_555
Al3 O18 1.907733 1_555
Al3 O35 1.923390 1_655
Al3 O34 1.931501 1_555
Al4 O30 1.874228 1_555
Al4 O44 1.894247 1_555
Al4 O12 1.897797 1_555
Al4 O6 1.908062 1_555
Al4 O47 1.919281 1_555
Al4 O2 1.931368 1_556
Al5 O23 1.889755 1_455
Al5 O15 1.890496 1_455
Al5 O11 1.895251 1_555
Al5 O29 1.907733 1_555
Al5 O8 1.923390 1_455
Al5 O20 1.931501 1_554
Al6 O3 1.874228 1_555
Al6 O9 1.894247 1_555
Al6 O24 1.897797 1_555
Al6 O46 1.908062 1_555
Al6 O42 1.919281 1_555
Al6 O7 1.931368 1_555
Al7 O32 1.889755 1_655
Al7 O14 1.890496 1_655
Al7 O22 1.895251 1_555
Al7 O25 1.907733 1_555
Al7 O4 1.923390 1_655
Al7 O28 1.931501 1_555
O0 W3 1.814835 1_555
O1 W1 1.809909 1_555
O2 W8 1.802516 1_555
O3 W8 1.809909 1_555
O4 W9 1.820828 1_555
O5 W3 1.801541 1_555
O6 W11 1.819819 1_555
O7 W4 1.802516 1_555
O8 W10 1.820828 1_565
O9 W9 1.804088 1_555
O10 W1 1.802516 1_555
O11 W8 1.807368 1_555
O12 W5 1.806249 1_555
O13 W6 1.801541 1_556
O14 W5 1.807815 1_555
O15 W2 1.807815 1_555
O16 W11 1.809909 1_555
O17 W6 1.814835 1_555
O18 W2 1.813456 1_555
O19 W4 1.819819 1_545
O20 W5 1.801737 1_555
O21 W10 1.820828 1_556
O22 W4 1.807368 1_555
O23 W6 1.801541 1_555
O24 W2 1.806249 1_555
O25 W7 1.813456 1_555
O26 W11 1.807368 1_555
O27 W8 1.819819 1_555
O28 W2 1.801737 1_555
O29 W0 1.813456 1_565
O30 W4 1.809909 1_555
O31 W1 1.807368 1_555
O32 W3 1.801541 1_565
O33 W7 1.807815 1_555
O34 W7 1.801737 1_555
O35 W9 1.820828 1_555
O36 W11 1.802516 1_555
O37 W5 1.813456 1_545
O38 W7 1.806249 1_555
O39 W0 1.807815 1_555
O40 W10 1.804088 1_555
O41 W0 1.801737 1_555
O42 W3 1.814835 1_565
O43 W0 1.806249 1_555
O44 W10 1.804088 1_566
O45 W9 1.804088 1_555
O46 W1 1.819819 1_565
O47 W6 1.814835 1_556
