# generated using pymatgen
data_Li5GaO2
_symmetry_space_group_name_H-M   'P 1'
_cell_length_a   7.10895100
_cell_length_b   7.10895100
_cell_length_c   8.91705700
_cell_angle_alpha   90.00000000
_cell_angle_beta   90.00000000
_cell_angle_gamma   90.00000000
_symmetry_Int_Tables_number   1
_chemical_formula_structural   Li5GaO2
_chemical_formula_sum   'Li20 Ga4 O8'
_cell_volume   450.64295320
_cell_formula_units_Z   4
loop_
 _symmetry_equiv_pos_site_id
 _symmetry_equiv_pos_as_xyz
  1  'x, y, z'
loop_
 _atom_site_type_symbol
 _atom_site_label
 _atom_site_symmetry_multiplicity
 _atom_site_fract_x
 _atom_site_fract_y
 _atom_site_fract_z
 _atom_site_occupancy
  Li  Li0  1  0.14137500  0.73183600  0.78738100  1
  Li  Li1  1  0.91196500  0.00000000  0.75000000  1
  Li  Li2  1  0.85862500  0.73183600  0.21261900  1
  Li  Li3  1  0.26816400  0.85862500  0.46261900  1
  Li  Li4  1  0.35050100  0.00000000  0.75000000  1
  Li  Li5  1  0.50000000  0.81207200  0.00000000  1
  Li  Li6  1  0.08803500  0.00000000  0.25000000  1
  Li  Li7  1  0.18792800  0.50000000  0.25000000  1
  Li  Li8  1  0.26816400  0.14137500  0.03738100  1
  Li  Li9  1  0.64949900  0.00000000  0.25000000  1
  Li  Li10  1  0.14137500  0.26816400  0.71261900  1
  Li  Li11  1  0.00000000  0.35050100  0.00000000  1
  Li  Li12  1  0.00000000  0.91196500  0.00000000  1
  Li  Li13  1  0.50000000  0.18792800  0.50000000  1
  Li  Li14  1  0.85862500  0.26816400  0.28738100  1
  Li  Li15  1  0.00000000  0.08803500  0.50000000  1
  Li  Li16  1  0.00000000  0.64949900  0.50000000  1
  Li  Li17  1  0.73183600  0.14137500  0.96261900  1
  Li  Li18  1  0.81207200  0.50000000  0.75000000  1
  Li  Li19  1  0.73183600  0.85862500  0.53738100  1
  Ga  Ga0  1  0.42342600  0.50000000  0.75000000  1
  Ga  Ga1  1  0.50000000  0.57657400  0.50000000  1
  Ga  Ga2  1  0.57657400  0.50000000  0.25000000  1
  Ga  Ga3  1  0.50000000  0.42342600  0.00000000  1
  O  O0  1  0.08617900  0.24676800  0.17833000  1
  O  O1  1  0.91382100  0.75323200  0.67833000  1
  O  O2  1  0.08617900  0.75323200  0.32167000  1
  O  O3  1  0.75323200  0.91382100  0.07167000  1
  O  O4  1  0.91382100  0.24676800  0.82167000  1
  O  O5  1  0.24676800  0.08617900  0.57167000  1
  O  O6  1  0.75323200  0.08617900  0.42833000  1
  O  O7  1  0.24676800  0.91382100  0.92833000  1
loop_
_geom_bond_atom_site_label_1
_geom_bond_atom_site_label_2
_geom_bond_distance
_geom_bond_site_symmetry_2
Li0 O1 1.893563 1_455
Li0 O7 1.953136 1_555
Li1 O4 1.867094 1_555
Li1 O1 1.867094 1_545
Li2 O2 1.893563 1_655
Li2 O3 1.953136 1_555
Li3 O5 1.893563 1_565
Li3 O2 1.953136 1_555
Li4 O5 1.856827 1_555
Li4 O7 1.856827 1_545
Li5 O7 2.042646 1_554
Li5 O3 2.042646 1_555
Li6 O2 1.867094 1_545
Li6 O0 1.867094 1_555
Li7 O0 2.042646 1_555
Li7 O2 2.042646 1_555
Li8 O7 1.893563 1_544
Li8 O0 1.953136 1_555
Li9 O3 1.856827 1_545
Li9 O6 1.856827 1_555
Li10 O4 1.893563 1_455
Li10 O5 1.953136 1_555
Li11 O0 1.856827 1_555
Li11 O4 1.856827 1_454
Li12 O3 1.867094 1_455
Li12 O7 1.867094 1_554
Li13 O6 2.042646 1_555
Li13 O5 2.042646 1_555
Li14 O0 1.893563 1_655
Li14 O6 1.953136 1_555
Li15 O6 1.867094 1_455
Li15 O5 1.867094 1_555
Li16 O2 1.856827 1_555
Li16 O1 1.856827 1_455
Li17 O3 1.893563 1_546
Li17 O4 1.953136 1_555
Li18 O4 2.042646 1_555
Li18 O1 2.042646 1_555
Li19 O6 1.893563 1_565
Li19 O1 1.953136 1_555
Ga0 Ga3 2.358448 1_556
Ga0 Ga1 2.358448 1_555
Ga0 Li10 2.616821 1_555
Ga0 Li0 2.616821 1_555
Ga0 Li18 2.762865 1_555
Ga0 Li13 3.191819 1_555
Ga0 Li5 3.191819 1_556
Ga1 Ga2 2.358448 1_555
Ga1 Li3 2.616821 1_555
Ga1 Li19 2.616821 1_555
Ga1 Li13 2.762865 1_555
Ga1 Li7 3.191819 1_555
Ga1 Li18 3.191819 1_555
Ga2 Ga3 2.358448 1_555
Ga2 Li14 2.616821 1_555
Ga2 Li2 2.616821 1_555
Ga2 Li7 2.762865 1_555
Ga2 Li13 3.191819 1_555
Ga2 Li5 3.191819 1_555
Ga3 Li8 2.616821 1_555
Ga3 Li17 2.616821 1_554
Ga3 Li5 2.762865 1_555
Ga3 Li7 3.191819 1_555
Ga3 Li18 3.191819 1_554
