# generated using pymatgen
data_V2Ni(PO5)2
_symmetry_space_group_name_H-M   'P 1'
_cell_length_a   7.41765000
_cell_length_b   6.42264700
_cell_length_c   7.39031370
_cell_angle_alpha   89.87820309
_cell_angle_beta   90.00000000
_cell_angle_gamma   90.00000000
_symmetry_Int_Tables_number   1
_chemical_formula_structural   V2Ni(PO5)2
_chemical_formula_sum   'V4 Ni2 P4 O20'
_cell_volume   352.08075153
_cell_formula_units_Z   2
loop_
 _symmetry_equiv_pos_site_id
 _symmetry_equiv_pos_as_xyz
  1  'x, y, z'
loop_
 _atom_site_type_symbol
 _atom_site_label
 _atom_site_symmetry_multiplicity
 _atom_site_fract_x
 _atom_site_fract_y
 _atom_site_fract_z
 _atom_site_occupancy
  V  V0  1  0.27929000  0.74502400  0.83418300  1
  V  V1  1  0.77929000  0.25497600  0.66581700  1
  V  V2  1  0.72071000  0.25497600  0.16581700  1
  V  V3  1  0.22071000  0.74502400  0.33418300  1
  Ni  Ni0  1  0.00000000  0.00000000  0.00000000  1
  Ni  Ni1  1  0.50000000  0.00000000  0.50000000  1
  P  P0  1  0.62196900  0.74971300  0.12773900  1
  P  P1  1  0.87803100  0.74971300  0.62773900  1
  P  P2  1  0.12196900  0.25028700  0.37226100  1
  P  P3  1  0.37803100  0.25028700  0.87226100  1
  O  O0  1  0.00497000  0.77898600  0.79457800  1
  O  O1  1  0.66421900  0.22723900  0.39048800  1
  O  O2  1  0.74578600  0.93811800  0.62399000  1
  O  O3  1  0.25421400  0.06188200  0.37601000  1
  O  O4  1  0.75421400  0.93811800  0.12399000  1
  O  O5  1  0.50497000  0.22101400  0.70542200  1
  O  O6  1  0.99503000  0.22101400  0.20542200  1
  O  O7  1  0.73955900  0.55405200  0.14625200  1
  O  O8  1  0.00956400  0.25454200  0.54644800  1
  O  O9  1  0.76044100  0.55405200  0.64625200  1
  O  O10  1  0.49043600  0.25454200  0.04644800  1
  O  O11  1  0.99043600  0.74545800  0.45355200  1
  O  O12  1  0.33578100  0.77276100  0.60951200  1
  O  O13  1  0.26044100  0.44594800  0.85374800  1
  O  O14  1  0.83578100  0.22723900  0.89048800  1
  O  O15  1  0.16421900  0.77276100  0.10951200  1
  O  O16  1  0.50956400  0.74545800  0.95355200  1
  O  O17  1  0.24578600  0.06188200  0.87601000  1
  O  O18  1  0.49503000  0.77898600  0.29457800  1
  O  O19  1  0.23955900  0.44594800  0.35374800  1
loop_
_geom_bond_atom_site_label_1
_geom_bond_atom_site_label_2
_geom_bond_distance
_geom_bond_site_symmetry_2
Ni0 O14 2.064915 1_454
Ni0 O15 2.064915 1_545
Ni0 O17 2.078451 1_554
Ni0 O4 2.078451 1_445
Ni0 O6 2.080917 1_455
Ni0 O0 2.080917 1_544
Ni1 O1 2.064915 1_555
Ni1 O12 2.064915 1_545
Ni1 O2 2.078451 1_545
Ni1 O3 2.078451 1_555
Ni1 O5 2.080917 1_555
Ni1 O18 2.080917 1_545
O0 P1 1.563072 1_455
O0 V0 2.067227 1_555
O1 V2 1.721324 1_555
O1 V1 2.214072 1_555
O2 P1 1.557923 1_555
O2 V1 2.074003 1_565
O3 P2 1.557923 1_555
O3 V3 2.074003 1_545
O4 P0 1.557923 1_555
O4 V2 2.074003 1_565
O5 P3 1.563072 1_555
O5 V1 2.067227 1_555
O6 P2 1.563072 1_655
O6 V2 2.067227 1_555
O7 P0 1.535575 1_555
O7 V2 1.931056 1_555
O8 P2 1.534021 1_555
O8 V1 1.922454 1_455
O9 P1 1.535575 1_555
O9 V1 1.931056 1_555
O10 P3 1.534021 1_554
O10 V2 1.922454 1_555
O11 P1 1.534021 1_555
O11 V3 1.922454 1_655
O12 V0 1.721324 1_555
O12 V3 2.214072 1_555
O13 P3 1.535575 1_555
O13 V0 1.931056 1_555
O14 V1 1.721324 1_555
O14 V2 2.214072 1_556
O15 V3 1.721324 1_555
O15 V0 2.214072 1_554
O16 P0 1.534021 1_556
O16 V0 1.922454 1_555
O17 P3 1.557923 1_555
O17 V0 2.074003 1_545
O18 P0 1.563072 1_555
O18 V3 2.067227 1_555
O19 P2 1.535575 1_555
O19 V3 1.931056 1_555
