# generated using pymatgen
data_K2LaH4N5O17
_symmetry_space_group_name_H-M   'P 1'
_cell_length_a   12.56790916
_cell_length_b   12.32255349
_cell_length_c   8.46533022
_cell_angle_alpha   71.68643981
_cell_angle_beta   68.56261391
_cell_angle_gamma   39.75094629
_symmetry_Int_Tables_number   1
_chemical_formula_structural   K2LaH4N5O17
_chemical_formula_sum   'K4 La2 H8 N10 O34'
_cell_volume   779.11654510
_cell_formula_units_Z   2
loop_
 _symmetry_equiv_pos_site_id
 _symmetry_equiv_pos_as_xyz
  1  'x, y, z'
loop_
 _atom_site_type_symbol
 _atom_site_label
 _atom_site_symmetry_multiplicity
 _atom_site_fract_x
 _atom_site_fract_y
 _atom_site_fract_z
 _atom_site_occupancy
  K  K0  1  0.52395900  0.68061300  0.43960000  1
  K  K1  1  0.43960000  0.35582800  0.52395900  1
  K  K2  1  0.89417200  0.81040000  0.56938700  1
  K  K3  1  0.56938700  0.72604100  0.89417200  1
  La  La0  1  0.00234800  0.99765200  0.00234800  1
  La  La1  1  0.25234800  0.24765200  0.25234800  1
  H  H0  1  0.14263200  0.15050200  0.77653600  1
  H  H1  1  0.77653600  0.93033000  0.14263200  1
  H  H2  1  0.31967000  0.47346400  0.09949800  1
  H  H3  1  0.09949800  0.10736800  0.31967000  1
  H  H4  1  0.11322700  0.16899300  0.96427400  1
  H  H5  1  0.96427400  0.75350600  0.11322700  1
  H  H6  1  0.49649400  0.28572600  0.08100700  1
  H  H7  1  0.08100700  0.13677300  0.49649400  1
  N  N0  1  0.80920000  0.20909000  0.31283200  1
  N  N1  1  0.31283200  0.66887800  0.80920000  1
  N  N2  1  0.58112200  0.93716800  0.04091000  1
  N  N3  1  0.04091000  0.44080000  0.58112200  1
  N  N4  1  0.80819900  0.34102400  0.77331100  1
  N  N5  1  0.77331100  0.07746700  0.80819900  1
  N  N6  1  0.17253300  0.47668900  0.90897600  1
  N  N7  1  0.90897600  0.44180100  0.17253300  1
  N  N8  1  0.25530800  0.74469200  0.25530800  1
  N  N9  1  0.50530800  0.99469200  0.50530800  1
  O  O0  1  0.95701900  0.14015200  0.22945300  1
  O  O1  1  0.22945300  0.67337600  0.95701900  1
  O  O2  1  0.57662400  0.02054700  0.10984800  1
  O  O3  1  0.10984800  0.29298100  0.57662400  1
  O  O4  1  0.75471000  0.16806300  0.27238600  1
  O  O5  1  0.27238600  0.80484100  0.75471000  1
  O  O6  1  0.44515900  0.97761400  0.08193700  1
  O  O7  1  0.08193700  0.49529000  0.44515900  1
  O  O8  1  0.72492800  0.30851000  0.42500900  1
  O  O9  1  0.42500900  0.54155300  0.72492800  1
  O  O10  1  0.70844700  0.82499100  0.94149000  1
  O  O11  1  0.94149000  0.52507200  0.70844700  1
  O  O12  1  0.77153200  0.34366800  0.93429800  1
  O  O13  1  0.93429800  0.95050200  0.77153200  1
  O  O14  1  0.29949800  0.31570200  0.90633200  1
  O  O15  1  0.90633200  0.47846800  0.29949800  1
  O  O16  1  0.92880900  0.19504000  0.70934900  1
  O  O17  1  0.70934900  0.16680300  0.92880900  1
  O  O18  1  0.08319700  0.54065100  0.05496000  1
  O  O19  1  0.05496000  0.32119100  0.08319700  1
  O  O20  1  0.73057600  0.47513900  0.68150800  1
  O  O21  1  0.68150800  0.11277700  0.73057600  1
  O  O22  1  0.13722300  0.56849200  0.77486100  1
  O  O23  1  0.77486100  0.51942400  0.13722300  1
  O  O24  1  0.11664600  0.79274700  0.28719400  1
  O  O25  1  0.28719400  0.80341200  0.11664600  1
  O  O26  1  0.44658800  0.96280600  0.45725300  1
  O  O27  1  0.45725300  0.13335400  0.44658800  1
  O  O28  1  0.35546100  0.64453900  0.35546100  1
  O  O29  1  0.60546100  0.89453900  0.60546100  1
  O  O30  1  0.15611200  0.08998300  0.88915600  1
  O  O31  1  0.88915600  0.86474900  0.15611200  1
  O  O32  1  0.38525100  0.36084400  0.16001700  1
  O  O33  1  0.16001700  0.09388800  0.38525100  1
loop_
_geom_bond_atom_site_label_1
_geom_bond_atom_site_label_2
_geom_bond_distance
_geom_bond_site_symmetry_2
K0 O20 2.804679 1_555
K0 O28 2.817525 1_555
K0 O26 2.842667 1_555
K0 O23 2.846926 1_555
K0 O5 2.900775 1_555
K0 O9 2.965977 1_555
K0 O8 3.120756 1_555
K0 O15 3.160574 1_555
K0 O33 3.363915 1_565
K1 O21 2.804679 1_555
K1 O28 2.817525 1_555
K1 O27 2.842654 1_555
K1 O22 2.846926 1_555
K1 O4 2.900775 1_555
K1 O8 2.965977 1_555
K1 O9 3.120756 1_555
K1 O14 3.160574 1_555
K1 O32 3.363915 1_555
K2 O22 2.804679 1_655
K2 O29 2.817525 1_555
K2 O24 2.842659 1_655
K2 O21 2.846926 1_565
K2 O7 2.900775 1_655
K2 O11 2.965977 1_555
K2 O10 3.120756 1_555
K2 O13 3.160574 1_555
K2 O31 3.363915 1_555
K3 O23 2.804679 1_556
K3 O29 2.817525 1_555
K3 O25 2.842664 1_556
K3 O20 2.846926 1_555
K3 O6 2.900775 1_556
K3 O10 2.965977 1_555
K3 O11 3.120756 1_555
K3 O12 3.160574 1_555
K3 O30 3.363915 1_565
La0 O0 2.624262 1_465
La0 O1 2.624262 1_554
La0 O4 2.662385 1_465
La0 O5 2.662385 1_554
La0 O30 2.699880 1_564
La0 O31 2.699880 1_455
La0 O17 2.711101 1_464
La0 O16 2.711105 1_464
La0 O25 2.716958 1_555
La0 O24 2.716961 1_555
La0 O13 2.754250 1_454
La0 O12 2.754250 1_464
La1 O2 2.624262 1_555
La1 O3 2.624262 1_555
La1 O6 2.662385 1_545
La1 O7 2.662385 1_555
La1 O33 2.699880 1_555
La1 O32 2.699880 1_555
La1 O18 2.711105 1_555
La1 O19 2.711112 1_555
La1 O26 2.716963 1_545
La1 O27 2.716968 1_555
La1 O15 2.754250 1_455
La1 O14 2.754250 1_554
H0 O30 0.985262 1_555
H1 O31 0.985262 1_555
H2 O32 0.985262 1_555
H3 O33 0.985262 1_555
H4 O30 0.987131 1_555
H5 O31 0.987131 1_555
H6 O32 0.987131 1_555
H7 O33 0.987131 1_555
N0 O8 1.234971 1_555
N0 O4 1.286214 1_555
N0 O0 1.289490 1_555
N1 O9 1.234971 1_555
N1 O5 1.286214 1_555
N1 O1 1.289490 1_555
N2 O10 1.234971 1_554
N2 O6 1.286214 1_555
N2 O2 1.289490 1_565
N3 O11 1.234971 1_455
N3 O7 1.286214 1_555
N3 O3 1.289490 1_555
N4 O20 1.246937 1_555
N4 O12 1.271387 1_555
N4 O16 1.283036 1_555
N5 O21 1.246944 1_555
N5 O13 1.271388 1_545
N5 O17 1.283036 1_555
N6 O22 1.246937 1_555
N6 O14 1.271387 1_555
N6 O18 1.283036 1_556
N7 O23 1.246933 1_555
N7 O15 1.271395 1_555
N7 O19 1.283036 1_655
N8 O28 1.249056 1_555
N8 O25 1.276824 1_555
N8 O24 1.276830 1_555
N9 O29 1.249056 1_555
N9 O26 1.276818 1_555
N9 O27 1.276829 1_565
