# generated using pymatgen
data_SrHo2O4
_symmetry_space_group_name_H-M   'P 1'
_cell_length_a   3.38897064
_cell_length_b   10.02919908
_cell_length_c   11.85586780
_cell_angle_alpha   90.00000000
_cell_angle_beta   90.00000000
_cell_angle_gamma   90.00000000
_symmetry_Int_Tables_number   1
_chemical_formula_structural   SrHo2O4
_chemical_formula_sum   'Sr4 Ho8 O16'
_cell_volume   402.96507418
_cell_formula_units_Z   4
loop_
 _symmetry_equiv_pos_site_id
 _symmetry_equiv_pos_as_xyz
  1  'x, y, z'
loop_
 _atom_site_type_symbol
 _atom_site_label
 _atom_site_symmetry_multiplicity
 _atom_site_fract_x
 _atom_site_fract_y
 _atom_site_fract_z
 _atom_site_occupancy
  Sr  Sr0  1  0.25000000  0.24757784  0.35031105  1
  Sr  Sr1  1  0.25000000  0.74757784  0.14968895  1
  Sr  Sr2  1  0.75000000  0.25242216  0.85031105  1
  Sr  Sr3  1  0.75000000  0.75242216  0.64968895  1
  Ho  Ho0  1  0.75000000  0.92318746  0.38947267  1
  Ho  Ho1  1  0.25000000  0.57712187  0.38815816  1
  Ho  Ho2  1  0.75000000  0.92287813  0.88815816  1
  Ho  Ho3  1  0.25000000  0.57681254  0.88947267  1
  Ho  Ho4  1  0.75000000  0.42318746  0.11052733  1
  Ho  Ho5  1  0.75000000  0.42287813  0.61184184  1
  Ho  Ho6  1  0.25000000  0.07681254  0.61052733  1
  Ho  Ho7  1  0.25000000  0.07712187  0.11184184  1
  O  O0  1  0.25000000  0.07405609  0.92285845  1
  O  O1  1  0.75000000  0.62493148  0.01956861  1
  O  O2  1  0.25000000  0.98516766  0.28345712  1
  O  O3  1  0.75000000  0.01483234  0.71654288  1
  O  O4  1  0.75000000  0.51483234  0.78345712  1
  O  O5  1  0.75000000  0.12493148  0.48043139  1
  O  O6  1  0.25000000  0.78832658  0.82645778  1
  O  O7  1  0.75000000  0.42594391  0.42285845  1
  O  O8  1  0.75000000  0.71167342  0.32645778  1
  O  O9  1  0.25000000  0.37506852  0.98043139  1
  O  O10  1  0.75000000  0.21167342  0.17354222  1
  O  O11  1  0.25000000  0.28832658  0.67354222  1
  O  O12  1  0.25000000  0.48516766  0.21654288  1
  O  O13  1  0.75000000  0.92594391  0.07714155  1
  O  O14  1  0.25000000  0.57405609  0.57714155  1
  O  O15  1  0.25000000  0.87506852  0.51956861  1
loop_
_geom_bond_atom_site_label_1
_geom_bond_atom_site_label_2
_geom_bond_distance
_geom_bond_site_symmetry_2
Ho0 O2 2.199431 1_555
Ho0 O2 2.199431 1_655
Ho0 O8 2.249030 1_555
Ho0 O5 2.292772 1_565
Ho0 O15 2.341618 1_555
Ho0 O15 2.341618 1_655
Ho1 O12 2.233897 1_555
Ho1 O14 2.240773 1_555
Ho1 O8 2.286349 1_455
Ho1 O8 2.286349 1_555
Ho1 O7 2.310709 1_455
Ho1 O7 2.310709 1_555
Ho2 O3 2.233897 1_565
Ho2 O13 2.240773 1_556
Ho2 O6 2.286349 1_655
Ho2 O6 2.286349 1_555
Ho2 O0 2.310709 1_665
Ho2 O0 2.310709 1_565
Ho3 O4 2.199431 1_555
Ho3 O4 2.199431 1_455
Ho3 O6 2.249030 1_555
Ho3 O9 2.292772 1_555
Ho3 O1 2.341618 1_456
Ho3 O1 2.341618 1_556
Ho4 O12 2.199431 1_555
Ho4 O12 2.199431 1_655
Ho4 O10 2.249030 1_555
Ho4 O1 2.292772 1_555
Ho4 O9 2.341618 1_554
Ho4 O9 2.341618 1_654
Ho5 O4 2.233897 1_555
Ho5 O7 2.240773 1_555
Ho5 O11 2.286349 1_655
Ho5 O11 2.286349 1_555
Ho5 O14 2.310709 1_555
Ho5 O14 2.310709 1_655
Ho6 O3 2.199431 1_455
Ho6 O3 2.199431 1_555
Ho6 O11 2.249030 1_555
Ho6 O15 2.292772 1_545
Ho6 O5 2.341618 1_455
Ho6 O5 2.341618 1_555
Ho7 O2 2.233897 1_545
Ho7 O0 2.240773 1_554
Ho7 O10 2.286349 1_555
Ho7 O10 2.286349 1_455
Ho7 O13 2.310709 1_445
Ho7 O13 2.310709 1_545
O0 Sr2 2.609813 1_455
O0 Sr2 2.609813 1_555
O1 Sr1 2.600804 1_555
O1 Sr1 2.600804 1_655
O2 Sr0 2.748529 1_565
O2 Sr1 2.862360 1_555
O3 Sr3 2.748529 1_545
O3 Sr2 2.862360 1_555
O4 Sr2 2.748529 1_555
O4 Sr3 2.862360 1_555
O5 Sr0 2.600804 1_555
O5 Sr0 2.600804 1_655
O6 Sr3 2.719027 1_555
O6 Sr3 2.719027 1_455
O7 Sr0 2.609813 1_655
O7 Sr0 2.609813 1_555
O8 Sr1 2.719027 1_655
O8 Sr1 2.719027 1_555
O9 Sr2 2.600804 1_455
O9 Sr2 2.600804 1_555
O10 Sr0 2.719027 1_655
O10 Sr0 2.719027 1_555
O11 Sr2 2.719027 1_555
O11 Sr2 2.719027 1_455
O12 Sr1 2.748529 1_555
O12 Sr0 2.862360 1_555
O13 Sr1 2.609813 1_555
O13 Sr1 2.609813 1_655
O14 Sr3 2.609813 1_555
O14 Sr3 2.609813 1_455
O15 Sr3 2.600804 1_455
O15 Sr3 2.600804 1_555
