# generated using pymatgen
data_TiSiRu
_symmetry_space_group_name_H-M   'P 1'
_cell_length_a   3.95415100
_cell_length_b   6.09911100
_cell_length_c   7.26835800
_cell_angle_alpha   90.00000000
_cell_angle_beta   90.00000000
_cell_angle_gamma   90.00000000
_symmetry_Int_Tables_number   1
_chemical_formula_structural   TiSiRu
_chemical_formula_sum   'Ti4 Si4 Ru4'
_cell_volume   175.28957881
_cell_formula_units_Z   4
loop_
 _symmetry_equiv_pos_site_id
 _symmetry_equiv_pos_as_xyz
  1  'x, y, z'
loop_
 _atom_site_type_symbol
 _atom_site_label
 _atom_site_symmetry_multiplicity
 _atom_site_fract_x
 _atom_site_fract_y
 _atom_site_fract_z
 _atom_site_occupancy
  Ti  Ti0  1  0.75000000  0.98027200  0.18628700  1
  Ti  Ti1  1  0.25000000  0.01972800  0.81371300  1
  Ti  Ti2  1  0.75000000  0.48027200  0.31371300  1
  Ti  Ti3  1  0.25000000  0.51972800  0.68628700  1
  Si  Si0  1  0.75000000  0.22413600  0.62415900  1
  Si  Si1  1  0.25000000  0.77586400  0.37584100  1
  Si  Si2  1  0.75000000  0.72413600  0.87584100  1
  Si  Si3  1  0.25000000  0.27586400  0.12415900  1
  Ru  Ru0  1  0.75000000  0.83487300  0.55590900  1
  Ru  Ru1  1  0.25000000  0.16512700  0.44409100  1
  Ru  Ru2  1  0.75000000  0.33487300  0.94409100  1
  Ru  Ru3  1  0.25000000  0.66512700  0.05590900  1
loop_
_geom_bond_atom_site_label_1
_geom_bond_atom_site_label_2
_geom_bond_distance
_geom_bond_site_symmetry_2
Si0 Ti1 2.713170 1_555
Si0 Ti1 2.713170 1_655
Si0 Ti3 2.713486 1_555
Si0 Ti3 2.713486 1_655
Si0 Ti2 2.744442 1_555
Si1 Ti0 2.713170 1_555
Si1 Ti0 2.713170 1_455
Si1 Ti2 2.713486 1_555
Si1 Ti2 2.713486 1_455
Si1 Ti3 2.744442 1_555
Si2 Ti3 2.713170 1_555
Si2 Ti3 2.713170 1_655
Si2 Ti1 2.713486 1_565
Si2 Ti1 2.713486 1_665
Si2 Ti0 2.744442 1_556
Si3 Ti2 2.713170 1_555
Si3 Ti2 2.713170 1_455
Si3 Ti0 2.713486 1_545
Si3 Ti0 2.713486 1_445
Si3 Ti1 2.744442 1_554
Ru0 Si1 2.398189 1_655
Ru0 Si1 2.398189 1_555
Ru0 Si2 2.421478 1_555
Ru0 Si0 2.425430 1_565
Ru0 Ti2 2.788617 1_555
Ru0 Ti0 2.829125 1_555
Ru0 Ti3 2.915703 1_655
Ru0 Ti3 2.915703 1_555
Ru0 Ti1 2.948075 1_565
Ru0 Ti1 2.948075 1_665
Ru1 Si0 2.398189 1_455
Ru1 Si0 2.398189 1_555
Ru1 Si3 2.421478 1_555
Ru1 Si1 2.425430 1_545
Ru1 Ti3 2.788617 1_555
Ru1 Ti1 2.829125 1_555
Ru1 Ti2 2.915703 1_555
Ru1 Ti2 2.915703 1_455
Ru1 Ti0 2.948075 1_445
Ru1 Ti0 2.948075 1_545
Ru2 Si3 2.398189 1_656
Ru2 Si3 2.398189 1_556
Ru2 Si0 2.421478 1_555
Ru2 Si2 2.425430 1_555
Ru2 Ti0 2.788617 1_546
Ru2 Ti2 2.829125 1_556
Ru2 Ti1 2.915703 1_555
Ru2 Ti1 2.915703 1_655
Ru2 Ti3 2.948075 1_655
Ru2 Ti3 2.948075 1_555
Ru3 Si2 2.398189 1_554
Ru3 Si2 2.398189 1_454
Ru3 Si1 2.421478 1_555
Ru3 Si3 2.425430 1_555
Ru3 Ti1 2.788617 1_564
Ru3 Ti3 2.829125 1_554
Ru3 Ti0 2.915703 1_555
Ru3 Ti0 2.915703 1_455
Ru3 Ti2 2.948075 1_455
Ru3 Ti2 2.948075 1_555
