# generated using pymatgen
data_SrCu2Te2(ClO3)2
_symmetry_space_group_name_H-M   'P 1'
_cell_length_a   7.37437900
_cell_length_b   7.30303800
_cell_length_c   8.38358526
_cell_angle_alpha   83.26751979
_cell_angle_beta   90.00000000
_cell_angle_gamma   90.00000000
_symmetry_Int_Tables_number   1
_chemical_formula_structural   SrCu2Te2(ClO3)2
_chemical_formula_sum   'Sr2 Cu4 Te4 Cl4 O12'
_cell_volume   448.38769369
_cell_formula_units_Z   2
loop_
 _symmetry_equiv_pos_site_id
 _symmetry_equiv_pos_as_xyz
  1  'x, y, z'
loop_
 _atom_site_type_symbol
 _atom_site_label
 _atom_site_symmetry_multiplicity
 _atom_site_fract_x
 _atom_site_fract_y
 _atom_site_fract_z
 _atom_site_occupancy
  Sr  Sr0  1  0.95372700  0.37434500  0.55987200  1
  Sr  Sr1  1  0.45372700  0.62565500  0.44012800  1
  Cu  Cu0  1  0.94370500  0.18072300  0.08495700  1
  Cu  Cu1  1  0.46171600  0.13942100  0.58677700  1
  Cu  Cu2  1  0.44370500  0.81927700  0.91504300  1
  Cu  Cu3  1  0.96171600  0.86057900  0.41322300  1
  Te  Te0  1  0.59581900  0.36869300  0.88478400  1
  Te  Te1  1  0.32107900  0.14850200  0.26717700  1
  Te  Te2  1  0.09581900  0.63130700  0.11521600  1
  Te  Te3  1  0.82107900  0.85149800  0.73282300  1
  Cl  Cl0  1  0.20389500  0.60051800  0.73160700  1
  Cl  Cl1  1  0.72820800  0.95255000  0.11632200  1
  Cl  Cl2  1  0.22820800  0.04745000  0.88367800  1
  Cl  Cl3  1  0.70389500  0.39948200  0.26839300  1
  O  O0  1  0.40162900  0.96219600  0.43527100  1
  O  O1  1  0.29359700  0.29786900  0.44221800  1
  O  O2  1  0.08297900  0.03800900  0.25692200  1
  O  O3  1  0.90162900  0.03780400  0.56472900  1
  O  O4  1  0.57867700  0.35912200  0.65794500  1
  O  O5  1  0.84669200  0.30844100  0.88497600  1
  O  O6  1  0.63066500  0.62928900  0.87597600  1
  O  O7  1  0.58297900  0.96199100  0.74307800  1
  O  O8  1  0.34669200  0.69155900  0.11502400  1
  O  O9  1  0.07867700  0.64087800  0.34205500  1
  O  O10  1  0.13066500  0.37071100  0.12402400  1
  O  O11  1  0.79359700  0.70213100  0.55778200  1
loop_
_geom_bond_atom_site_label_1
_geom_bond_atom_site_label_2
_geom_bond_distance
_geom_bond_site_symmetry_2
Cu0 O5 1.956013 1_554
Cu0 O2 1.966537 1_655
Cu0 O10 2.009925 1_655
Cu1 O7 1.948754 1_545
Cu1 O0 1.967301 1_545
Cu1 O4 1.974523 1_555
Cu1 O1 2.003992 1_555
Cu2 O8 1.956013 1_556
Cu2 O7 1.966537 1_555
Cu2 O6 2.009925 1_555
Cu3 O2 1.948754 1_665
Cu3 O3 1.967301 1_565
Cu3 O9 1.974523 1_655
Cu3 O11 2.003992 1_555
Cl0 Cu2 2.936120 1_555
Cl0 Sr0 2.960097 1_455
Cl0 Sr1 3.048634 1_555
Cl1 Cu0 2.295336 1_565
Cl2 Cu2 2.295336 1_545
Cl3 Cu0 2.936120 1_555
Cl3 Sr1 2.960097 1_555
Cl3 Sr0 3.048634 1_555
O0 Te1 1.934021 1_565
O0 Sr1 2.483231 1_555
O1 Te1 1.939017 1_555
O1 Sr1 2.667460 1_555
O1 Sr0 2.774112 1_455
O2 Te1 1.938498 1_555
O3 Te3 1.934021 1_545
O3 Sr0 2.483231 1_555
O4 Te0 1.915356 1_555
O4 Sr1 2.671906 1_555
O4 Sr0 2.883813 1_555
O5 Te0 1.901599 1_555
O5 Sr0 2.824119 1_555
O6 Te0 1.913240 1_555
O6 Te3 2.364085 1_555
O7 Te3 1.938498 1_555
O8 Te2 1.901599 1_555
O8 Sr1 2.824119 1_555
O9 Te2 1.915356 1_555
O9 Sr0 2.671906 1_455
O9 Sr1 2.883813 1_555
O10 Te2 1.913240 1_555
O10 Te1 2.364085 1_555
O11 Te3 1.939017 1_555
O11 Sr0 2.667460 1_555
O11 Sr1 2.774112 1_555
