# generated using pymatgen
data_Cs2NaMnF6
_symmetry_space_group_name_H-M   'P 1'
_cell_length_a   11.04863772
_cell_length_b   11.04863772
_cell_length_c   11.04863734
_cell_angle_alpha   33.53787469
_cell_angle_beta   33.53787469
_cell_angle_gamma   33.53787653
_symmetry_Int_Tables_number   1
_chemical_formula_structural   Cs2NaMnF6
_chemical_formula_sum   'Cs4 Na2 Mn2 F12'
_cell_volume   366.69171983
_cell_formula_units_Z   2
loop_
 _symmetry_equiv_pos_site_id
 _symmetry_equiv_pos_as_xyz
  1  'x, y, z'
loop_
 _atom_site_type_symbol
 _atom_site_label
 _atom_site_symmetry_multiplicity
 _atom_site_fract_x
 _atom_site_fract_y
 _atom_site_fract_z
 _atom_site_occupancy
  Cs  Cs0  1  0.12681200  0.12681200  0.12681200  1
  Cs  Cs1  1  0.87318800  0.87318800  0.87318800  1
  Cs  Cs2  1  0.28442200  0.28442200  0.28442200  1
  Cs  Cs3  1  0.71557800  0.71557800  0.71557800  1
  Na  Na0  1  0.59638800  0.59638800  0.59638800  1
  Na  Na1  1  0.40361200  0.40361200  0.40361200  1
  Mn  Mn0  1  0.50000000  0.50000000  0.50000000  1
  Mn  Mn1  1  0.00000000  0.00000000  0.00000000  1
  F  F0  1  0.18673900  0.18673900  0.73673000  1
  F  F1  1  0.73673000  0.18673900  0.18673900  1
  F  F2  1  0.18673900  0.73673000  0.18673900  1
  F  F3  1  0.81326100  0.26327000  0.81326100  1
  F  F4  1  0.81326100  0.81326100  0.26327000  1
  F  F5  1  0.26327000  0.81326100  0.81326100  1
  F  F6  1  0.39554800  0.39554800  0.82171900  1
  F  F7  1  0.82171900  0.39554800  0.39554800  1
  F  F8  1  0.17828100  0.60445200  0.60445200  1
  F  F9  1  0.60445200  0.60445200  0.17828100  1
  F  F10  1  0.60445200  0.17828100  0.60445200  1
  F  F11  1  0.39554800  0.82171900  0.39554800  1
loop_
_geom_bond_atom_site_label_1
_geom_bond_atom_site_label_2
_geom_bond_distance
_geom_bond_site_symmetry_2
Cs0 F8 3.200008 1_554
Cs0 F10 3.200008 1_554
Cs0 F8 3.200008 1_545
Cs0 F10 3.200008 1_455
Cs0 F9 3.200008 1_455
Cs0 F9 3.200008 1_545
Cs0 F11 3.212708 1_545
Cs0 F7 3.212708 1_455
Cs0 F6 3.212708 1_554
Cs0 F0 3.266255 1_554
Cs0 F1 3.266255 1_455
Cs0 F2 3.266255 1_545
Cs1 F7 3.200008 1_556
Cs1 F11 3.200008 1_556
Cs1 F11 3.200008 1_655
Cs1 F7 3.200008 1_565
Cs1 F6 3.200008 1_655
Cs1 F6 3.200008 1_565
Cs1 F10 3.212708 1_565
Cs1 F8 3.212708 1_655
Cs1 F9 3.212708 1_556
Cs1 F4 3.266255 1_556
Cs1 F5 3.266255 1_655
Cs1 F3 3.266255 1_565
Cs2 F3 3.215572 1_455
Cs2 F5 3.215572 1_545
Cs2 F3 3.215572 1_554
Cs2 F5 3.215572 1_554
Cs2 F4 3.215572 1_455
Cs2 F4 3.215572 1_545
Cs2 F6 3.276537 1_554
Cs2 F7 3.276537 1_455
Cs2 F11 3.276537 1_545
Cs2 F0 3.356026 1_555
Cs2 F1 3.356026 1_555
Cs2 F2 3.356026 1_555
Cs3 F1 3.215572 1_565
Cs3 F2 3.215572 1_655
Cs3 F2 3.215572 1_556
Cs3 F1 3.215572 1_556
Cs3 F0 3.215572 1_565
Cs3 F0 3.215572 1_655
Cs3 F9 3.276537 1_556
Cs3 F8 3.276537 1_655
Cs3 F10 3.276537 1_565
Cs3 F4 3.356026 1_555
Cs3 F3 3.356026 1_555
Cs3 F5 3.356026 1_555
F0 Mn1 2.015381 1_556
F0 Na1 2.279727 1_555
F1 Mn1 2.015381 1_655
F1 Na1 2.279727 1_555
F2 Mn1 2.015381 1_565
F2 Na1 2.279727 1_555
F3 Mn1 2.015381 1_656
F3 Na0 2.279727 1_555
F4 Mn1 2.015381 1_665
F4 Na0 2.279727 1_555
F5 Mn1 2.015381 1_566
F5 Na0 2.279727 1_555
F6 Mn0 1.960072 1_555
F6 Na0 2.415711 1_555
F7 Mn0 1.960072 1_555
F7 Na0 2.415711 1_555
F8 Mn0 1.960072 1_555
F8 Na1 2.415711 1_555
F9 Mn0 1.960072 1_555
F9 Na1 2.415711 1_555
F10 Mn0 1.960072 1_555
F10 Na1 2.415711 1_555
F11 Mn0 1.960072 1_555
F11 Na0 2.415711 1_555
