# generated using pymatgen
data_NaPO3
_symmetry_space_group_name_H-M   'P 1'
_cell_length_a   7.61998559
_cell_length_b   7.88601616
_cell_length_c   13.12362076
_cell_angle_alpha   90.00000000
_cell_angle_beta   90.00000000
_cell_angle_gamma   90.00000000
_symmetry_Int_Tables_number   1
_chemical_formula_structural   NaPO3
_chemical_formula_sum   'Na12 P12 O36'
_cell_volume   788.61581934
_cell_formula_units_Z   12
loop_
 _symmetry_equiv_pos_site_id
 _symmetry_equiv_pos_as_xyz
  1  'x, y, z'
loop_
 _atom_site_type_symbol
 _atom_site_label
 _atom_site_symmetry_multiplicity
 _atom_site_fract_x
 _atom_site_fract_y
 _atom_site_fract_z
 _atom_site_occupancy
  Na  Na0  1  0.81750982  0.00287039  0.42727836  1
  Na  Na1  1  0.03733737  0.75000000  0.22330372  1
  Na  Na2  1  0.46266263  0.25000000  0.72330372  1
  Na  Na3  1  0.31750982  0.49712961  0.07272164  1
  Na  Na4  1  0.18249018  0.50287039  0.57272164  1
  Na  Na5  1  0.68249018  0.50287039  0.92727836  1
  Na  Na6  1  0.96266263  0.25000000  0.77669628  1
  Na  Na7  1  0.31750982  0.00287039  0.07272164  1
  Na  Na8  1  0.18249018  0.99712961  0.57272164  1
  Na  Na9  1  0.68249018  0.99712961  0.92727836  1
  Na  Na10  1  0.53733737  0.75000000  0.27669628  1
  Na  Na11  1  0.81750982  0.49712961  0.42727836  1
  P  P0  1  0.75072723  0.93308280  0.67226210  1
  P  P1  1  0.01884877  0.75000000  0.96206309  1
  P  P2  1  0.51884877  0.75000000  0.53793691  1
  P  P3  1  0.25072723  0.56691720  0.82773790  1
  P  P4  1  0.48115123  0.25000000  0.46206309  1
  P  P5  1  0.24927277  0.43308280  0.32773790  1
  P  P6  1  0.24927277  0.06691720  0.32773790  1
  P  P7  1  0.74927277  0.06691720  0.17226210  1
  P  P8  1  0.75072723  0.56691720  0.67226210  1
  P  P9  1  0.74927277  0.43308280  0.17226210  1
  P  P10  1  0.98115123  0.25000000  0.03793691  1
  P  P11  1  0.25072723  0.93308280  0.82773790  1
  O  O0  1  0.13693286  0.75000000  0.05255783  1
  O  O1  1  0.36306714  0.25000000  0.55255783  1
  O  O2  1  0.56824174  0.59204022  0.61081895  1
  O  O3  1  0.56824174  0.90795978  0.61081895  1
  O  O4  1  0.78345612  0.94047742  0.25359404  1
  O  O5  1  0.06824174  0.90795978  0.88918105  1
  O  O6  1  0.78345612  0.55952258  0.25359404  1
  O  O7  1  0.63693286  0.75000000  0.44744217  1
  O  O8  1  0.43175826  0.09204022  0.38918105  1
  O  O9  1  0.71654388  0.05952258  0.75359404  1
  O  O10  1  0.93175826  0.40795978  0.11081895  1
  O  O11  1  0.82646343  0.75000000  0.97486617  1
  O  O12  1  0.60533808  0.03819847  0.09885210  1
  O  O13  1  0.73051012  0.25000000  0.22596842  1
  O  O14  1  0.43175826  0.40795978  0.38918105  1
  O  O15  1  0.17353657  0.25000000  0.02513383  1
  O  O16  1  0.21654388  0.44047742  0.74640596  1
  O  O17  1  0.67353657  0.25000000  0.47486617  1
  O  O18  1  0.28345612  0.55952258  0.24640596  1
  O  O19  1  0.86306714  0.25000000  0.94744217  1
  O  O20  1  0.71654388  0.44047742  0.75359404  1
  O  O21  1  0.10533808  0.03819847  0.40114790  1
  O  O22  1  0.76948988  0.75000000  0.72596842  1
  O  O23  1  0.89466192  0.96180153  0.59885210  1
  O  O24  1  0.21654388  0.05952258  0.74640596  1
  O  O25  1  0.28345612  0.94047742  0.24640596  1
  O  O26  1  0.93175826  0.09204022  0.11081895  1
  O  O27  1  0.26948988  0.75000000  0.77403158  1
  O  O28  1  0.60533808  0.46180153  0.09885210  1
  O  O29  1  0.32646343  0.75000000  0.52513383  1
  O  O30  1  0.89466192  0.53819847  0.59885210  1
  O  O31  1  0.10533808  0.46180153  0.40114790  1
  O  O32  1  0.06824174  0.59204022  0.88918105  1
  O  O33  1  0.39466192  0.96180153  0.90114790  1
  O  O34  1  0.23051012  0.25000000  0.27403158  1
  O  O35  1  0.39466192  0.53819847  0.90114790  1
loop_
_geom_bond_atom_site_label_1
_geom_bond_atom_site_label_2
_geom_bond_distance
_geom_bond_site_symmetry_2
Na0 O21 2.237308 1_655
Na0 O17 2.322001 1_555
Na0 O4 2.346262 1_545
Na0 O23 2.349580 1_545
Na0 O7 2.437207 1_545
Na1 O0 2.365831 1_555
Na1 O18 2.421870 1_555
Na1 O25 2.421870 1_555
Na1 O4 2.481313 1_455
Na1 O6 2.481313 1_455
Na2 O1 2.365831 1_555
Na2 O16 2.421870 1_555
Na2 O24 2.421870 1_555
Na2 O9 2.481313 1_555
Na2 O20 2.481313 1_555
Na3 O28 2.237308 1_555
Na3 O15 2.322001 1_555
Na3 O18 2.346262 1_555
Na3 O35 2.349580 1_554
Na3 O0 2.437207 1_555
Na4 O30 2.237308 1_455
Na4 O29 2.322001 1_555
Na4 O16 2.346262 1_555
Na4 O31 2.349580 1_555
Na4 O1 2.437207 1_555
Na5 O35 2.237308 1_555
Na5 O11 2.322001 1_555
Na5 O20 2.346262 1_555
Na5 O28 2.349580 1_556
Na5 O19 2.437207 1_555
Na6 O19 2.365831 1_555
Na6 O9 2.421870 1_555
Na6 O20 2.421870 1_555
Na6 O16 2.481313 1_655
Na6 O24 2.481313 1_655
Na7 O12 2.237308 1_555
Na7 O15 2.322001 1_555
Na7 O25 2.346262 1_545
Na7 O33 2.349580 1_544
Na7 O0 2.437207 1_545
Na8 O23 2.237308 1_455
Na8 O29 2.322001 1_555
Na8 O24 2.346262 1_565
Na8 O21 2.349580 1_565
Na8 O1 2.437207 1_565
Na9 O33 2.237308 1_555
Na9 O11 2.322001 1_555
Na9 O9 2.346262 1_565
Na9 O12 2.349580 1_566
Na9 O19 2.437207 1_565
Na10 O7 2.365831 1_555
Na10 O4 2.421870 1_555
Na10 O6 2.421870 1_555
Na10 O18 2.481313 1_555
Na10 O25 2.481313 1_555
Na11 O31 2.237308 1_655
Na11 O17 2.322001 1_555
Na11 O6 2.346262 1_555
Na11 O30 2.349580 1_555
Na11 O7 2.437207 1_555
O0 P1 1.489992 1_554
O1 P4 1.489992 1_555
O2 P2 1.614994 1_555
O2 P8 1.619585 1_555
O3 P2 1.614994 1_555
O3 P0 1.619585 1_555
O4 P7 1.483694 1_565
O5 P1 1.614994 1_555
O5 P11 1.619585 1_555
O6 P9 1.483694 1_555
O7 P2 1.489992 1_555
O8 P4 1.614994 1_555
O8 P6 1.619585 1_555
O9 P0 1.483694 1_545
O10 P10 1.614994 1_555
O10 P9 1.619585 1_555
O11 P1 1.475571 1_655
O12 P7 1.477284 1_555
O13 P7 1.612996 1_555
O13 P9 1.612996 1_555
O14 P4 1.614994 1_555
O14 P5 1.619585 1_555
O15 P10 1.475571 1_455
O16 P3 1.483694 1_555
O17 P4 1.475571 1_555
O18 P5 1.483694 1_555
O19 P10 1.489992 1_556
O20 P8 1.483694 1_555
O21 P6 1.477284 1_555
O22 P8 1.612996 1_555
O22 P0 1.612996 1_555
O23 P0 1.477284 1_555
O24 P11 1.483694 1_545
O25 P6 1.483694 1_565
O26 P10 1.614994 1_555
O26 P7 1.619585 1_555
O27 P3 1.612996 1_555
O27 P11 1.612996 1_555
O28 P9 1.477284 1_555
O29 P2 1.475571 1_555
O30 P8 1.477284 1_555
O31 P5 1.477284 1_555
O32 P1 1.614994 1_555
O32 P3 1.619585 1_555
O33 P11 1.477284 1_555
O34 P6 1.612996 1_555
O34 P5 1.612996 1_555
O35 P3 1.477284 1_555
