# generated using pymatgen
data_Ta16(Cu3O16)3
_symmetry_space_group_name_H-M   'P 1'
_cell_length_a   10.76119896
_cell_length_b   10.74683478
_cell_length_c   10.73765450
_cell_angle_alpha   60.11675240
_cell_angle_beta   59.98392886
_cell_angle_gamma   59.89931874
_symmetry_Int_Tables_number   1
_chemical_formula_structural   Ta16(Cu3O16)3
_chemical_formula_sum   'Ta16 Cu9 O48'
_cell_volume   878.07675646
_cell_formula_units_Z   1
loop_
 _symmetry_equiv_pos_site_id
 _symmetry_equiv_pos_as_xyz
  1  'x, y, z'
loop_
 _atom_site_type_symbol
 _atom_site_label
 _atom_site_symmetry_multiplicity
 _atom_site_fract_x
 _atom_site_fract_y
 _atom_site_fract_z
 _atom_site_occupancy
  Ta  Ta0  1  0.62471900  0.12317200  0.62916500  1
  Ta  Ta1  1  0.37705600  0.37083500  0.87682800  1
  Ta  Ta2  1  0.62916500  0.62294400  0.62471900  1
  Ta  Ta3  1  0.63017000  0.12092400  0.12330800  1
  Ta  Ta4  1  0.62294400  0.62916500  0.12317200  1
  Ta  Ta5  1  0.12092400  0.63017000  0.12559900  1
  Ta  Ta6  1  0.36983000  0.87907600  0.87669200  1
  Ta  Ta7  1  0.37083500  0.37705600  0.37528100  1
  Ta  Ta8  1  0.12559900  0.12330800  0.12092400  1
  Ta  Ta9  1  0.12317200  0.62471900  0.62294400  1
  Ta  Ta10  1  0.87669200  0.87440100  0.36983000  1
  Ta  Ta11  1  0.37528100  0.87682800  0.37083500  1
  Ta  Ta12  1  0.12330800  0.12559900  0.63017000  1
  Ta  Ta13  1  0.87682800  0.37528100  0.37705600  1
  Ta  Ta14  1  0.87440100  0.87669200  0.87907600  1
  Ta  Ta15  1  0.87907600  0.36983000  0.87440100  1
  Cu  Cu0  1  0.50000000  0.00000000  0.50000000  1
  Cu  Cu1  1  0.75000000  0.75000000  0.75000000  1
  Cu  Cu2  1  0.75025200  0.24974800  0.75025200  1
  Cu  Cu3  1  0.00000000  0.50000000  0.00000000  1
  Cu  Cu4  1  0.25000000  0.25000000  0.25000000  1
  Cu  Cu5  1  0.24974800  0.75025200  0.24974800  1
  Cu  Cu6  1  0.50000000  0.50000000  0.50000000  1
  Cu  Cu7  1  0.25141200  0.74858800  0.74858800  1
  Cu  Cu8  1  0.74858800  0.25141200  0.25141200  1
  O  O0  1  0.68710000  0.81165700  0.49866500  1
  O  O1  1  0.49866500  0.00257800  0.68710000  1
  O  O2  1  0.68817600  0.49982500  0.31182400  1
  O  O3  1  0.49442300  0.20153600  0.79846400  1
  O  O4  1  0.70008000  0.99457100  0.00542900  1
  O  O5  1  0.49982500  0.68817600  0.50017500  1
  O  O6  1  0.56242800  0.43757200  0.75699500  1
  O  O7  1  0.74413100  0.25586900  0.93881700  1
  O  O8  1  0.18834300  0.31290000  0.99742200  1
  O  O9  1  0.50133500  0.99742200  0.31290000  1
  O  O10  1  0.43744600  0.25327900  0.06301700  1
  O  O11  1  0.74672100  0.56255400  0.75374300  1
  O  O12  1  0.25541500  0.56285400  0.93591800  1
  O  O13  1  0.74458500  0.43714600  0.06408200  1
  O  O14  1  0.43714600  0.74458500  0.75418700  1
  O  O15  1  0.56285400  0.25541500  0.24581300  1
  O  O16  1  0.56255400  0.74672100  0.93698300  1
  O  O17  1  0.25327900  0.43744600  0.24625700  1
  O  O18  1  0.99742200  0.50133500  0.18834300  1
  O  O19  1  0.31290000  0.18834300  0.50133500  1
  O  O20  1  0.43757200  0.56242800  0.24300500  1
  O  O21  1  0.25586900  0.74413100  0.06118300  1
  O  O22  1  0.20224800  0.00292000  0.79775200  1
  O  O23  1  0.50017500  0.31182400  0.49982500  1
  O  O24  1  0.99457100  0.70008000  0.29992000  1
  O  O25  1  0.29992000  0.00542900  0.99457100  1
  O  O26  1  0.20153600  0.49442300  0.50557700  1
  O  O27  1  0.50557700  0.79846400  0.20153600  1
  O  O28  1  0.00292000  0.20224800  0.99708000  1
  O  O29  1  0.31182400  0.50017500  0.68817600  1
  O  O30  1  0.06118300  0.93881700  0.25586900  1
  O  O31  1  0.24300500  0.75699500  0.43757200  1
  O  O32  1  0.00257800  0.49866500  0.81165700  1
  O  O33  1  0.93698300  0.75374300  0.56255400  1
  O  O34  1  0.24625700  0.06301700  0.25327900  1
  O  O35  1  0.75418700  0.06408200  0.43714600  1
  O  O36  1  0.24581300  0.93591800  0.56285400  1
  O  O37  1  0.06408200  0.75418700  0.74458500  1
  O  O38  1  0.93591800  0.24581300  0.25541500  1
  O  O39  1  0.06301700  0.24625700  0.43744600  1
  O  O40  1  0.75374300  0.93698300  0.74672100  1
  O  O41  1  0.81165700  0.68710000  0.00257800  1
  O  O42  1  0.75699500  0.24300500  0.56242800  1
  O  O43  1  0.93881700  0.06118300  0.74413100  1
  O  O44  1  0.99708000  0.79775200  0.00292000  1
  O  O45  1  0.00542900  0.29992000  0.70008000  1
  O  O46  1  0.79846400  0.50557700  0.49442300  1
  O  O47  1  0.79775200  0.99708000  0.20224800  1
loop_
_geom_bond_atom_site_label_1
_geom_bond_atom_site_label_2
_geom_bond_distance
_geom_bond_site_symmetry_2
Cu0 O9 2.015764 1_545
Cu0 O19 2.015764 1_555
Cu0 O0 2.015764 1_545
Cu0 O1 2.015764 1_555
Cu1 O11 2.012480 1_555
Cu1 O16 2.012485 1_555
Cu1 O33 2.012486 1_555
Cu1 O40 2.012491 1_555
Cu2 O6 2.017895 1_555
Cu2 O42 2.017895 1_555
Cu2 O7 2.025636 1_555
Cu2 O43 2.025636 1_555
Cu3 O32 2.015764 1_554
Cu3 O18 2.015764 1_455
Cu3 O8 2.015764 1_554
Cu3 O41 2.015764 1_455
Cu4 O17 2.012480 1_555
Cu4 O10 2.012485 1_555
Cu4 O39 2.012486 1_555
Cu4 O34 2.012491 1_555
Cu5 O20 2.017895 1_555
Cu5 O31 2.017895 1_555
Cu5 O30 2.025636 1_555
Cu5 O21 2.025636 1_555
Cu6 O2 2.022289 1_555
Cu6 O29 2.022289 1_555
Cu6 O23 2.022289 1_555
Cu6 O5 2.022289 1_555
Cu7 O14 2.007921 1_555
Cu7 O36 2.007921 1_555
Cu7 O37 2.007921 1_555
Cu7 O12 2.007921 1_555
Cu8 O13 2.007921 1_555
Cu8 O38 2.007921 1_555
Cu8 O35 2.007921 1_555
Cu8 O15 2.007921 1_555
O0 Ta2 2.005595 1_555
O0 Ta10 2.039017 1_555
O1 Ta0 2.005595 1_555
O1 Ta6 2.039023 1_545
O2 Ta4 2.041188 1_555
O2 Ta13 2.041188 1_555
O3 Ta0 1.941873 1_555
O3 Ta1 1.941873 1_555
O4 Ta14 1.935783 1_554
O4 Ta3 1.935786 1_565
O5 Ta2 2.041188 1_555
O5 Ta11 2.041188 1_555
O6 Ta2 2.024058 1_555
O6 Ta1 2.024058 1_555
O7 Ta15 2.005499 1_555
O7 Ta3 2.005503 1_556
O8 Ta1 2.005595 1_555
O8 Ta8 2.039017 1_556
O9 Ta11 2.005595 1_555
O9 Ta3 2.039023 1_565
O10 Ta1 1.993706 1_554
O10 Ta3 2.051905 1_555
O11 Ta2 1.993715 1_555
O11 Ta15 2.051895 1_555
O12 Ta1 2.034398 1_555
O12 Ta5 2.057944 1_556
O13 Ta4 2.034398 1_555
O13 Ta15 2.057944 1_554
O14 Ta2 2.034398 1_555
O14 Ta6 2.057935 1_555
O15 Ta7 2.034398 1_555
O15 Ta3 2.057935 1_555
O16 Ta4 1.993706 1_556
O16 Ta6 2.051905 1_555
O17 Ta7 1.993715 1_555
O17 Ta5 2.051895 1_555
O18 Ta13 2.005595 1_555
O18 Ta5 2.039026 1_655
O19 Ta7 2.005595 1_555
O19 Ta12 2.039017 1_555
O20 Ta4 2.024058 1_555
O20 Ta7 2.024058 1_555
O21 Ta5 2.005499 1_555
O21 Ta6 2.005503 1_554
O22 Ta12 1.933845 1_555
O22 Ta6 1.933845 1_545
O23 Ta0 2.041188 1_555
O23 Ta7 2.041188 1_555
O24 Ta10 1.935777 1_555
O24 Ta5 1.935777 1_655
O25 Ta8 1.935783 1_556
O25 Ta6 1.935786 1_545
O26 Ta9 1.941873 1_555
O26 Ta7 1.941873 1_555
O27 Ta4 1.941873 1_555
O27 Ta11 1.941873 1_555
O28 Ta15 1.933851 1_455
O28 Ta8 1.933854 1_556
O29 Ta9 2.041188 1_555
O29 Ta1 2.041188 1_555
O30 Ta8 2.005508 1_565
O30 Ta10 2.005508 1_455
O31 Ta9 2.024058 1_555
O31 Ta11 2.024058 1_555
O32 Ta9 2.005595 1_555
O32 Ta15 2.039026 1_455
O33 Ta9 1.993707 1_655
O33 Ta10 2.051905 1_555
O34 Ta11 1.993712 1_545
O34 Ta8 2.051887 1_555
O35 Ta0 2.034398 1_555
O35 Ta10 2.057944 1_545
O36 Ta11 2.034398 1_555
O36 Ta12 2.057944 1_565
O37 Ta9 2.034398 1_555
O37 Ta14 2.057938 1_455
O38 Ta13 2.034398 1_555
O38 Ta8 2.057938 1_655
O39 Ta13 1.993707 1_455
O39 Ta12 2.051905 1_555
O40 Ta0 1.993712 1_565
O40 Ta14 2.051887 1_555
O41 Ta4 2.005595 1_555
O41 Ta14 2.039017 1_554
O42 Ta0 2.024058 1_555
O42 Ta13 2.024058 1_555
O43 Ta14 2.005508 1_545
O43 Ta12 2.005508 1_655
O44 Ta5 1.933851 1_655
O44 Ta14 1.933854 1_554
O45 Ta12 1.935777 1_555
O45 Ta15 1.935777 1_455
O46 Ta2 1.941873 1_555
O46 Ta13 1.941873 1_555
O47 Ta10 1.933845 1_555
O47 Ta3 1.933845 1_565
