# generated using pymatgen
data_FeP2PbO7
_symmetry_space_group_name_H-M   'P 1'
_cell_length_a   8.44761400
_cell_length_b   5.46259600
_cell_length_c   14.05632891
_cell_angle_alpha   67.84828889
_cell_angle_beta   90.00000000
_cell_angle_gamma   90.00000000
_symmetry_Int_Tables_number   1
_chemical_formula_structural   FeP2PbO7
_chemical_formula_sum   'Fe4 P8 Pb4 O28'
_cell_volume   600.76487466
_cell_formula_units_Z   4
loop_
 _symmetry_equiv_pos_site_id
 _symmetry_equiv_pos_as_xyz
  1  'x, y, z'
loop_
 _atom_site_type_symbol
 _atom_site_label
 _atom_site_symmetry_multiplicity
 _atom_site_fract_x
 _atom_site_fract_y
 _atom_site_fract_z
 _atom_site_occupancy
  Fe  Fe0  1  0.34991700  0.92553700  0.89426700  1
  Fe  Fe1  1  0.84991700  0.07446300  0.60573300  1
  Fe  Fe2  1  0.65008300  0.07446300  0.10573300  1
  Fe  Fe3  1  0.15008300  0.92553700  0.39426700  1
  P  P0  1  0.53926700  0.91457700  0.33596600  1
  P  P1  1  0.30028500  0.29624500  0.01827600  1
  P  P2  1  0.19971500  0.29624500  0.51827600  1
  P  P3  1  0.46073300  0.08542300  0.66403400  1
  P  P4  1  0.96073300  0.91457700  0.83596600  1
  P  P5  1  0.69971500  0.70375500  0.98172400  1
  P  P6  1  0.03926700  0.08542300  0.16403400  1
  P  P7  1  0.80028500  0.70375500  0.48172400  1
  Pb  Pb0  1  0.67531200  0.43404800  0.77836900  1
  Pb  Pb1  1  0.82468800  0.43404800  0.27836900  1
  Pb  Pb2  1  0.32468800  0.56595200  0.22163100  1
  Pb  Pb3  1  0.17531200  0.56595200  0.72163100  1
  O  O0  1  0.56335500  0.21441100  0.29825900  1
  O  O1  1  0.59582500  0.92110200  0.90425400  1
  O  O2  1  0.12122600  0.20592000  0.23449000  1
  O  O3  1  0.09582500  0.07889800  0.59574600  1
  O  O4  1  0.86489100  0.16637700  0.15104700  1
  O  O5  1  0.06335500  0.78558900  0.20174100  1
  O  O6  1  0.63510900  0.16637700  0.65104700  1
  O  O7  1  0.62122600  0.79408000  0.26551000  1
  O  O8  1  0.90417500  0.92110200  0.40425400  1
  O  O9  1  0.36489100  0.83362300  0.34895300  1
  O  O10  1  0.11715700  0.21570500  0.05099800  1
  O  O11  1  0.67141300  0.43299100  0.97514600  1
  O  O12  1  0.18845800  0.29453500  0.40943200  1
  O  O13  1  0.61715700  0.78429500  0.44900200  1
  O  O14  1  0.43664500  0.78558900  0.70174100  1
  O  O15  1  0.87877400  0.79408000  0.76551000  1
  O  O16  1  0.81154200  0.70546500  0.59056800  1
  O  O17  1  0.37877400  0.20592000  0.73449000  1
  O  O18  1  0.82858700  0.43299100  0.47514600  1
  O  O19  1  0.17141300  0.56700900  0.52485400  1
  O  O20  1  0.93664500  0.21441100  0.79825900  1
  O  O21  1  0.88284300  0.78429500  0.94900200  1
  O  O22  1  0.40417500  0.07889800  0.09574600  1
  O  O23  1  0.32858700  0.56700900  0.02485400  1
  O  O24  1  0.68845800  0.70546500  0.09056800  1
  O  O25  1  0.31154200  0.29453500  0.90943200  1
  O  O26  1  0.38284300  0.21570500  0.55099800  1
  O  O27  1  0.13510900  0.83362300  0.84895300  1
loop_
_geom_bond_atom_site_label_1
_geom_bond_atom_site_label_2
_geom_bond_distance
_geom_bond_site_symmetry_2
Fe0 O27 2.047388 1_555
Fe0 O1 2.081599 1_555
Fe0 O23 2.127549 1_556
Fe0 O25 2.130152 1_565
Fe0 O17 2.203453 1_565
Fe1 O6 2.047388 1_555
Fe1 O3 2.081599 1_655
Fe1 O18 2.127549 1_555
Fe1 O16 2.130152 1_545
Fe1 O15 2.203453 1_545
Fe2 O4 2.047388 1_555
Fe2 O22 2.081599 1_555
Fe2 O11 2.127549 1_554
Fe2 O24 2.130152 1_545
Fe2 O7 2.203453 1_545
Fe3 O9 2.047388 1_555
Fe3 O8 2.081599 1_455
Fe3 O19 2.127549 1_555
Fe3 O12 2.130152 1_565
Fe3 O2 2.203453 1_565
O0 P0 1.533068 1_545
O0 Pb1 2.477574 1_555
O0 Pb2 2.711627 1_555
O1 P5 1.546177 1_555
O1 Pb0 2.773846 1_565
O2 P6 1.544349 1_555
O2 Pb2 2.566457 1_555
O3 P2 1.546177 1_555
O3 Pb3 2.773846 1_545
O4 P6 1.529024 1_655
O4 Pb1 2.725742 1_555
O5 P6 1.533068 1_565
O5 Pb2 2.477574 1_555
O5 Pb1 2.711627 1_455
O6 P3 1.529024 1_555
O6 Pb0 2.725742 1_555
O7 P0 1.544349 1_555
O7 Pb1 2.566457 1_555
O8 P7 1.546177 1_555
O8 Pb1 2.773846 1_565
O9 P0 1.529024 1_555
O9 Pb2 2.725742 1_555
O10 P6 1.615923 1_555
O10 P1 1.626563 1_555
O11 P5 1.535091 1_555
O11 Pb0 2.763987 1_555
O12 P2 1.536439 1_555
O12 Pb2 2.745831 1_555
O13 P0 1.615923 1_555
O13 P7 1.626563 1_555
O14 P3 1.533068 1_565
O14 Pb3 2.477574 1_555
O14 Pb0 2.711627 1_555
O15 P4 1.544349 1_555
O15 Pb0 2.566457 1_555
O16 P7 1.536439 1_555
O16 Pb0 2.745831 1_555
O17 P3 1.544349 1_555
O17 Pb3 2.566457 1_555
O18 P7 1.535091 1_555
O18 Pb1 2.763987 1_555
O19 P2 1.535091 1_555
O19 Pb3 2.763987 1_555
O20 P4 1.533068 1_545
O20 Pb0 2.477574 1_555
O20 Pb3 2.711627 1_655
O21 P4 1.615923 1_555
O21 P5 1.626563 1_555
O22 P1 1.546177 1_555
O22 Pb2 2.773846 1_545
O23 P1 1.535091 1_555
O23 Pb2 2.763987 1_555
O24 P5 1.536439 1_554
O24 Pb1 2.745831 1_555
O25 P1 1.536439 1_556
O25 Pb3 2.745831 1_555
O26 P3 1.615923 1_555
O26 P2 1.626563 1_555
O27 P4 1.529024 1_455
O27 Pb3 2.725742 1_555
