# generated using pymatgen
data_Na2Zn2O3
_symmetry_space_group_name_H-M   'P 1'
_cell_length_a   6.15717705
_cell_length_b   6.15717705
_cell_length_c   9.34317363
_cell_angle_alpha   90.00000000
_cell_angle_beta   90.00000000
_cell_angle_gamma   90.00000000
_symmetry_Int_Tables_number   1
_chemical_formula_structural   Na2Zn2O3
_chemical_formula_sum   'Na8 Zn8 O12'
_cell_volume   354.20745991
_cell_formula_units_Z   4
loop_
 _symmetry_equiv_pos_site_id
 _symmetry_equiv_pos_as_xyz
  1  'x, y, z'
loop_
 _atom_site_type_symbol
 _atom_site_label
 _atom_site_symmetry_multiplicity
 _atom_site_fract_x
 _atom_site_fract_y
 _atom_site_fract_z
 _atom_site_occupancy
  Na  Na0  1  0.74672633  0.53369860  0.64686789  1
  Na  Na1  1  0.96630140  0.24672633  0.39686789  1
  Na  Na2  1  0.46630140  0.25327367  0.85313211  1
  Na  Na3  1  0.25327367  0.46630140  0.14686789  1
  Na  Na4  1  0.03369860  0.75327367  0.89686789  1
  Na  Na5  1  0.75327367  0.03369860  0.10313211  1
  Na  Na6  1  0.53369860  0.74672633  0.35313211  1
  Na  Na7  1  0.24672633  0.96630140  0.60313211  1
  Zn  Zn0  1  0.25530501  0.45691439  0.61427666  1
  Zn  Zn1  1  0.04308561  0.75530501  0.36427666  1
  Zn  Zn2  1  0.45691439  0.25530501  0.38572334  1
  Zn  Zn3  1  0.75530501  0.04308561  0.63572334  1
  Zn  Zn4  1  0.24469499  0.95691439  0.13572334  1
  Zn  Zn5  1  0.54308561  0.74469499  0.88572334  1
  Zn  Zn6  1  0.95691439  0.24469499  0.86427666  1
  Zn  Zn7  1  0.74469499  0.54308561  0.11427666  1
  O  O0  1  0.32071774  0.67928226  0.75000000  1
  O  O1  1  0.24297482  0.51340979  0.40529433  1
  O  O2  1  0.48659021  0.75702518  0.09470567  1
  O  O3  1  0.75702518  0.48659021  0.90529433  1
  O  O4  1  0.67928226  0.32071774  0.25000000  1
  O  O5  1  0.98659021  0.74297482  0.15529433  1
  O  O6  1  0.82071774  0.82071774  0.50000000  1
  O  O7  1  0.51340979  0.24297482  0.59470567  1
  O  O8  1  0.01340979  0.25702518  0.65529433  1
  O  O9  1  0.25702518  0.01340979  0.34470567  1
  O  O10  1  0.74297482  0.98659021  0.84470567  1
  O  O11  1  0.17928226  0.17928226  -0.00000000  1
loop_
_geom_bond_atom_site_label_1
_geom_bond_atom_site_label_2
_geom_bond_distance
_geom_bond_site_symmetry_2
Na0 O6 2.283333 1_555
Na0 O7 2.346379 1_555
Na0 O8 2.367366 1_655
Na0 O3 2.432709 1_555
Na1 O4 2.283333 1_555
Na1 O9 2.346379 1_655
Na1 O1 2.367366 1_655
Na1 O8 2.432709 1_655
Na2 O11 2.283333 1_556
Na2 O3 2.346379 1_555
Na2 O10 2.367366 1_545
Na2 O7 2.432709 1_555
Na3 O11 2.283333 1_555
Na3 O2 2.346379 1_555
Na3 O5 2.367366 1_455
Na3 O1 2.432709 1_555
Na4 O0 2.283333 1_555
Na4 O10 2.346379 1_455
Na4 O3 2.367366 1_455
Na4 O5 2.432709 1_456
Na5 O4 2.283333 1_555
Na5 O5 2.346379 1_545
Na5 O2 2.367366 1_545
Na5 O10 2.432709 1_544
Na6 O6 2.283333 1_555
Na6 O1 2.346379 1_555
Na6 O9 2.367366 1_565
Na6 O2 2.432709 1_555
Na7 O0 2.283333 1_555
Na7 O8 2.346379 1_565
Na7 O7 2.367366 1_565
Na7 O9 2.432709 1_565
O0 Zn0 1.909150 1_555
O0 Zn5 1.909150 1_555
O1 Zn1 1.969749 1_555
O1 Zn0 1.984754 1_555
O1 Zn2 2.072237 1_555
O2 Zn4 1.969749 1_555
O2 Zn5 1.984754 1_554
O2 Zn7 2.072237 1_555
O3 Zn6 1.969749 1_555
O3 Zn7 1.984754 1_556
O3 Zn5 2.072237 1_555
O4 Zn7 1.909150 1_555
O4 Zn2 1.909150 1_555
O5 Zn7 1.969749 1_555
O5 Zn1 1.984754 1_655
O5 Zn4 2.072237 1_655
O6 Zn3 1.909150 1_565
O6 Zn1 1.909150 1_655
O7 Zn3 1.969749 1_555
O7 Zn2 1.984754 1_555
O7 Zn0 2.072237 1_555
O8 Zn0 1.969749 1_555
O8 Zn6 1.984754 1_455
O8 Zn3 2.072237 1_455
O9 Zn2 1.969749 1_555
O9 Zn4 1.984754 1_545
O9 Zn1 2.072237 1_545
O10 Zn5 1.969749 1_555
O10 Zn3 1.984754 1_565
O10 Zn6 2.072237 1_565
O11 Zn6 1.909150 1_454
O11 Zn4 1.909150 1_545
