# generated using pymatgen
data_Mn5(NiBi2)2
_symmetry_space_group_name_H-M   'P 1'
_cell_length_a   8.50716916
_cell_length_b   8.50716916
_cell_length_c   8.50716916
_cell_angle_alpha   60.00000000
_cell_angle_beta   60.00000000
_cell_angle_gamma   60.00000000
_symmetry_Int_Tables_number   1
_chemical_formula_structural   Mn5(NiBi2)2
_chemical_formula_sum   'Mn10 Ni4 Bi8'
_cell_volume   435.35166277
_cell_formula_units_Z   2
loop_
 _symmetry_equiv_pos_site_id
 _symmetry_equiv_pos_as_xyz
  1  'x, y, z'
loop_
 _atom_site_type_symbol
 _atom_site_label
 _atom_site_symmetry_multiplicity
 _atom_site_fract_x
 _atom_site_fract_y
 _atom_site_fract_z
 _atom_site_occupancy
  Mn  Mn0  1  0.91662500  0.25012400  0.91662500  1
  Mn  Mn1  1  0.91662500  0.91662500  0.25012400  1
  Mn  Mn2  1  0.25012400  0.91662500  0.91662500  1
  Mn  Mn3  1  0.91662500  0.91662500  0.91662500  1
  Mn  Mn4  1  0.50556300  0.50556300  0.99443700  1
  Mn  Mn5  1  0.99443700  0.50556300  0.50556300  1
  Mn  Mn6  1  0.50556300  0.99443700  0.99443700  1
  Mn  Mn7  1  0.99443700  0.99443700  0.50556300  1
  Mn  Mn8  1  0.99443700  0.50556300  0.99443700  1
  Mn  Mn9  1  0.50556300  0.99443700  0.50556300  1
  Ni  Ni0  1  0.12233200  0.63300400  0.12233200  1
  Ni  Ni1  1  0.12233200  0.12233200  0.63300400  1
  Ni  Ni2  1  0.63300400  0.12233200  0.12233200  1
  Ni  Ni3  1  0.12233200  0.12233200  0.12233200  1
  Bi  Bi0  1  0.75000000  0.75000000  0.75000000  1
  Bi  Bi1  1  0.25000000  0.25000000  0.25000000  1
  Bi  Bi2  1  0.28927000  0.28927000  0.71073000  1
  Bi  Bi3  1  0.71073000  0.28927000  0.28927000  1
  Bi  Bi4  1  0.28927000  0.71073000  0.71073000  1
  Bi  Bi5  1  0.71073000  0.71073000  0.28927000  1
  Bi  Bi6  1  0.71073000  0.28927000  0.71073000  1
  Bi  Bi7  1  0.28927000  0.71073000  0.28927000  1
loop_
_geom_bond_atom_site_label_1
_geom_bond_atom_site_label_2
_geom_bond_distance
_geom_bond_site_symmetry_2
Mn0 Ni2 2.562071 1_556
Mn0 Ni1 2.562071 1_655
Mn0 Ni3 2.562078 1_656
Mn0 Mn4 2.985582 1_555
Mn0 Mn5 2.985582 1_555
Mn0 Mn8 2.985588 1_555
Mn1 Ni0 2.562071 1_655
Mn1 Ni2 2.562071 1_565
Mn1 Ni3 2.562078 1_665
Mn1 Mn5 2.985582 1_555
Mn1 Mn9 2.985582 1_555
Mn1 Mn7 2.985588 1_555
Mn2 Ni1 2.562071 1_565
Mn2 Ni0 2.562071 1_556
Mn2 Ni3 2.562078 1_566
Mn2 Mn4 2.985582 1_555
Mn2 Mn9 2.985582 1_555
Mn2 Mn6 2.985588 1_555
Mn3 Ni1 2.562075 1_665
Mn3 Ni0 2.562075 1_656
Mn3 Ni2 2.562075 1_566
Mn3 Mn7 2.985580 1_555
Mn3 Mn8 2.985580 1_555
Mn3 Mn6 2.985580 1_555
Mn4 Ni2 2.661952 1_556
Mn4 Ni0 2.661952 1_556
Mn5 Ni1 2.661952 1_655
Mn5 Ni0 2.661952 1_655
Mn6 Ni3 2.661952 1_566
Mn6 Ni2 2.661952 1_566
Mn7 Ni3 2.661952 1_665
Mn7 Ni1 2.661952 1_665
Mn8 Ni3 2.661952 1_656
Mn8 Ni0 2.661952 1_656
Mn9 Ni1 2.661952 1_565
Mn9 Ni2 2.661952 1_565
Bi0 Mn7 2.940810 1_555
Bi0 Mn8 2.940810 1_555
Bi0 Mn6 2.940810 1_555
Bi0 Mn4 2.940810 1_555
Bi0 Mn5 2.940810 1_555
Bi0 Mn9 2.940810 1_555
Bi1 Ni3 2.660374 1_555
Bi1 Ni0 2.660374 1_555
Bi1 Ni1 2.660374 1_555
Bi1 Ni2 2.660374 1_555
Bi1 Mn4 3.074667 1_554
Bi1 Mn9 3.074667 1_545
Bi1 Mn5 3.074667 1_455
Bi1 Mn7 3.074667 1_445
Bi1 Mn6 3.074667 1_544
Bi1 Mn8 3.074667 1_454
Bi2 Mn0 2.854549 1_455
Bi2 Mn2 2.854549 1_545
Bi2 Ni3 2.892401 1_556
Bi2 Ni1 2.892401 1_555
Bi2 Mn6 3.045355 1_545
Bi2 Mn8 3.045355 1_455
Bi2 Mn9 3.045355 1_545
Bi2 Mn5 3.045355 1_455
Bi3 Mn1 2.854549 1_545
Bi3 Mn0 2.854549 1_554
Bi3 Ni3 2.892401 1_655
Bi3 Ni2 2.892401 1_555
Bi3 Mn8 3.045355 1_554
Bi3 Mn7 3.045355 1_545
Bi3 Mn9 3.045355 1_545
Bi3 Mn4 3.045355 1_554
Bi4 Mn2 2.854542 1_555
Bi4 Mn3 2.854546 1_455
Bi4 Ni1 2.892401 1_565
Bi4 Ni0 2.892401 1_556
Bi4 Mn9 3.045355 1_555
Bi4 Mn4 3.045355 1_555
Bi4 Mn8 3.045355 1_455
Bi4 Mn7 3.045355 1_455
Bi5 Mn1 2.854542 1_555
Bi5 Mn3 2.854546 1_554
Bi5 Ni2 2.892401 1_565
Bi5 Ni0 2.892401 1_655
Bi5 Mn9 3.045355 1_555
Bi5 Mn5 3.045355 1_555
Bi5 Mn6 3.045355 1_554
Bi5 Mn8 3.045355 1_554
Bi6 Mn0 2.854542 1_555
Bi6 Mn3 2.854546 1_545
Bi6 Ni2 2.892401 1_556
Bi6 Ni1 2.892401 1_655
Bi6 Mn4 3.045355 1_555
Bi6 Mn5 3.045355 1_555
Bi6 Mn7 3.045355 1_545
Bi6 Mn6 3.045355 1_545
Bi7 Mn2 2.854549 1_554
Bi7 Mn1 2.854549 1_455
Bi7 Ni3 2.892401 1_565
Bi7 Ni0 2.892401 1_555
Bi7 Mn6 3.045355 1_554
Bi7 Mn7 3.045355 1_455
Bi7 Mn5 3.045355 1_455
Bi7 Mn4 3.045355 1_554
