# generated using pymatgen
data_LiMnFeF6
_symmetry_space_group_name_H-M   'P 1'
_cell_length_a   8.84190718
_cell_length_b   8.84190718
_cell_length_c   4.72755000
_cell_angle_alpha   90.00000000
_cell_angle_beta   90.00000000
_cell_angle_gamma   119.99999387
_symmetry_Int_Tables_number   1
_chemical_formula_structural   LiMnFeF6
_chemical_formula_sum   'Li3 Mn3 Fe3 F18'
_cell_volume   320.08011348
_cell_formula_units_Z   3
loop_
 _symmetry_equiv_pos_site_id
 _symmetry_equiv_pos_as_xyz
  1  'x, y, z'
loop_
 _atom_site_type_symbol
 _atom_site_label
 _atom_site_symmetry_multiplicity
 _atom_site_fract_x
 _atom_site_fract_y
 _atom_site_fract_z
 _atom_site_occupancy
  Li  Li0  1  0.66666700  0.33333300  0.49545000  1
  Li  Li1  1  0.00000000  0.00000000  0.00000000  1
  Li  Li2  1  0.33333300  0.66666700  0.50455000  1
  Mn  Mn0  1  0.00000000  0.35411800  0.00000000  1
  Mn  Mn1  1  0.35411800  0.00000000  0.00000000  1
  Mn  Mn2  1  0.64588200  0.64588200  0.00000000  1
  Fe  Fe0  1  0.31311200  0.31311200  0.50000000  1
  Fe  Fe1  1  0.68688800  0.00000000  0.50000000  1
  Fe  Fe2  1  0.00000000  0.68688800  0.50000000  1
  F  F0  1  0.89171000  0.46846300  0.27151400  1
  F  F1  1  0.78409100  0.56252400  0.72165200  1
  F  F2  1  0.43747600  0.22156600  0.72165200  1
  F  F3  1  0.88621100  0.10814500  0.24306000  1
  F  F4  1  0.21590900  0.77843400  0.27834800  1
  F  F5  1  0.46846300  0.89171000  0.72848600  1
  F  F6  1  0.57675300  0.10829000  0.27151400  1
  F  F7  1  0.89185500  0.77806600  0.24306000  1
  F  F8  1  0.53153700  0.42324700  0.27151400  1
  F  F9  1  0.77843400  0.21590900  0.72165200  1
  F  F10  1  0.11378900  0.22193400  0.75694000  1
  F  F11  1  0.10829000  0.57675300  0.72848600  1
  F  F12  1  0.10814500  0.88621100  0.75694000  1
  F  F13  1  0.22156600  0.43747600  0.27834800  1
  F  F14  1  0.22193400  0.11378900  0.24306000  1
  F  F15  1  0.42324700  0.53153700  0.72848600  1
  F  F16  1  0.56252400  0.78409100  0.27834800  1
  F  F17  1  0.77806600  0.89185500  0.75694000  1
loop_
_geom_bond_atom_site_label_1
_geom_bond_atom_site_label_2
_geom_bond_distance
_geom_bond_site_symmetry_2
F0 Fe2 1.991049 1_655
F0 Li0 2.032301 1_555
F0 Mn0 2.134158 1_655
F1 Fe2 1.962761 1_655
F1 Li0 2.055282 1_555
F1 Mn2 2.160761 1_556
F2 Fe0 1.962767 1_555
F2 Li0 2.055282 1_555
F2 Mn1 2.160754 1_556
F3 Fe1 1.952087 1_555
F3 Li1 2.051592 1_655
F3 Mn0 2.207836 1_655
F4 Fe2 1.962761 1_555
F4 Li2 2.055282 1_555
F4 Mn1 2.160755 1_565
F5 Fe1 1.991049 1_565
F5 Li2 2.032301 1_555
F5 Mn1 2.134158 1_566
F6 Fe1 1.991049 1_555
F6 Li0 2.032300 1_555
F6 Mn1 2.134159 1_555
F7 Fe2 1.952087 1_655
F7 Li1 2.051592 1_665
F7 Mn2 2.207836 1_555
F8 Fe0 1.991049 1_555
F8 Li0 2.032307 1_555
F8 Mn2 2.134159 1_555
F9 Fe1 1.962761 1_555
F9 Li0 2.055282 1_555
F9 Mn0 2.160755 1_656
F10 Fe0 1.952087 1_555
F10 Li1 2.051592 1_556
F10 Mn0 2.207836 1_556
F11 Fe2 1.991049 1_555
F11 Li2 2.032300 1_555
F11 Mn0 2.134159 1_556
F12 Fe2 1.952087 1_555
F12 Li1 2.051592 1_566
F12 Mn1 2.207836 1_566
F13 Fe0 1.962767 1_555
F13 Li2 2.055282 1_555
F13 Mn0 2.160754 1_555
F14 Fe0 1.952087 1_555
F14 Li1 2.051592 1_555
F14 Mn1 2.207836 1_555
F15 Fe0 1.991049 1_555
F15 Li2 2.032307 1_555
F15 Mn2 2.134159 1_556
F16 Fe1 1.962761 1_565
F16 Li2 2.055282 1_555
F16 Mn2 2.160761 1_555
F17 Fe1 1.952087 1_565
F17 Li1 2.051592 1_666
F17 Mn2 2.207836 1_556
