# generated using pymatgen
data_Sr5(ReO6)2
_symmetry_space_group_name_H-M   'P 1'
_cell_length_a   20.01019380
_cell_length_b   20.01019380
_cell_length_c   20.01019414
_cell_angle_alpha   29.20252479
_cell_angle_beta   29.20252479
_cell_angle_gamma   29.20252268
_symmetry_Int_Tables_number   1
_chemical_formula_structural   Sr5(ReO6)2
_chemical_formula_sum   'Sr30 Re12 O72'
_cell_volume   1687.45417704
_cell_formula_units_Z   6
loop_
 _symmetry_equiv_pos_site_id
 _symmetry_equiv_pos_as_xyz
  1  'x, y, z'
loop_
 _atom_site_type_symbol
 _atom_site_label
 _atom_site_symmetry_multiplicity
 _atom_site_fract_x
 _atom_site_fract_y
 _atom_site_fract_z
 _atom_site_occupancy
  Sr  Sr0  1  0.69678200  0.03488200  0.32946100  1
  Sr  Sr1  1  0.77807700  0.49001200  0.08432300  1
  Sr  Sr2  1  0.96511800  0.67053900  0.30321900  1
  Sr  Sr3  1  0.67053900  0.30321800  0.96511800  1
  Sr  Sr4  1  0.91567700  0.22192300  0.50998800  1
  Sr  Sr5  1  0.22192300  0.50998800  0.91567700  1
  Sr  Sr6  1  0.46511800  0.80321800  0.17053900  1
  Sr  Sr7  1  0.58432300  0.99001200  0.27807700  1
  Sr  Sr8  1  0.08432300  0.77807700  0.49001200  1
  Sr  Sr9  1  0.39618200  0.39618200  0.39618200  1
  Sr  Sr10  1  0.19678100  0.82946100  0.53488200  1
  Sr  Sr11  1  0.03488200  0.32946100  0.69678100  1
  Sr  Sr12  1  0.17053900  0.46511800  0.80321800  1
  Sr  Sr13  1  0.60381800  0.60381800  0.60381800  1
  Sr  Sr14  1  0.49001200  0.08432300  0.77807700  1
  Sr  Sr15  1  0.75000000  0.75000000  0.75000000  1
  Sr  Sr16  1  0.30321900  0.96511800  0.67053900  1
  Sr  Sr17  1  0.32946100  0.69678100  0.03488200  1
  Sr  Sr18  1  0.50998800  0.91567700  0.22192300  1
  Sr  Sr19  1  0.99001200  0.27807700  0.58432300  1
  Sr  Sr20  1  0.82946100  0.53488200  0.19678100  1
  Sr  Sr21  1  0.00998800  0.72192300  0.41567700  1
  Sr  Sr22  1  0.53488200  0.19678100  0.82946100  1
  Sr  Sr23  1  0.72192300  0.41567700  0.00998800  1
  Sr  Sr24  1  0.89618200  0.89618200  0.89618200  1
  Sr  Sr25  1  0.80321800  0.17053900  0.46511800  1
  Sr  Sr26  1  0.41567700  0.00998800  0.72192300  1
  Sr  Sr27  1  0.25000000  0.25000000  0.25000000  1
  Sr  Sr28  1  0.10381800  0.10381800  0.10381800  1
  Sr  Sr29  1  0.27807700  0.58432300  0.99001200  1
  Re  Re0  1  0.66173300  0.66173300  0.66173300  1
  Re  Re1  1  0.08211800  0.41788200  0.75000000  1
  Re  Re2  1  0.58211800  0.25000000  0.91788200  1
  Re  Re3  1  0.33826700  0.33826700  0.33826700  1
  Re  Re4  1  0.91788200  0.58211800  0.25000000  1
  Re  Re5  1  0.16173300  0.16173300  0.16173300  1
  Re  Re6  1  0.75000000  0.08211800  0.41788200  1
  Re  Re7  1  0.00000000  0.00000000  0.00000000  1
  Re  Re8  1  0.50000000  0.50000000  0.50000000  1
  Re  Re9  1  0.25000000  0.91788200  0.58211800  1
  Re  Re10  1  0.83826700  0.83826700  0.83826700  1
  Re  Re11  1  0.41788200  0.75000000  0.08211800  1
  O  O0  1  0.79117100  0.22445900  0.30306300  1
  O  O1  1  0.47683400  0.41480100  0.18499200  1
  O  O2  1  0.16283400  0.55290700  0.53606000  1
  O  O3  1  0.00105200  0.23166900  0.30345400  1
  O  O4  1  0.96394000  0.94709300  0.33716600  1
  O  O5  1  0.29117100  0.80306300  0.72445900  1
  O  O6  1  0.02123700  0.86018700  0.17440500  1
  O  O7  1  0.47876300  0.32559500  0.63981300  1
  O  O8  1  0.08519900  0.02316600  0.31500800  1
  O  O9  1  0.31500800  0.08519900  0.02316600  1
  O  O10  1  0.44709300  0.46394000  0.83716600  1
  O  O11  1  0.58519900  0.81500800  0.52316600  1
  O  O12  1  0.18499200  0.47683400  0.41480100  1
  O  O13  1  0.49894800  0.19654600  0.26833100  1
  O  O14  1  0.41480100  0.18499200  0.47683400  1
  O  O15  1  0.55290700  0.53606000  0.16283400  1
  O  O16  1  0.52316600  0.58519900  0.81500800  1
  O  O17  1  0.92191300  0.52707500  0.72573600  1
  O  O18  1  0.47292500  0.27426400  0.07808700  1
  O  O19  1  0.66283400  0.03606000  0.05290700  1
  O  O20  1  0.69654600  0.99894800  0.76833100  1
  O  O21  1  0.22573600  0.02707500  0.42191300  1
  O  O22  1  0.33716600  0.96394000  0.94709300  1
  O  O23  1  0.69693700  0.20882900  0.77554100  1
  O  O24  1  0.97292500  0.57808700  0.77426400  1
  O  O25  1  0.80345400  0.73166900  0.50105200  1
  O  O26  1  0.82559500  0.97876300  0.13981300  1
  O  O27  1  0.53606000  0.16283400  0.55290700  1
  O  O28  1  0.36018700  0.52123700  0.67440500  1
  O  O29  1  0.68499200  0.91480100  0.97683400  1
  O  O30  1  0.27426400  0.07808700  0.47292500  1
  O  O31  1  0.77554100  0.69693700  0.20882900  1
  O  O32  1  0.76833100  0.69654600  0.99894800  1
  O  O33  1  0.91480100  0.97683400  0.68499200  1
  O  O34  1  0.13981300  0.82559500  0.97876300  1
  O  O35  1  0.02707500  0.42191300  0.22573600  1
  O  O36  1  0.23166900  0.30345400  0.00105200  1
  O  O37  1  0.63981300  0.47876300  0.32559500  1
  O  O38  1  0.22445900  0.30306300  0.79117100  1
  O  O39  1  0.19654600  0.26833100  0.49894800  1
  O  O40  1  0.17440500  0.02123700  0.86018700  1
  O  O41  1  0.26833100  0.49894800  0.19654600  1
  O  O42  1  0.32559500  0.63981300  0.47876300  1
  O  O43  1  0.50105200  0.80345400  0.73166900  1
  O  O44  1  0.07808700  0.47292500  0.27426400  1
  O  O45  1  0.72445900  0.29117100  0.80306300  1
  O  O46  1  0.73166900  0.50105200  0.80345400  1
  O  O47  1  0.30345400  0.00105200  0.23166900  1
  O  O48  1  0.97876300  0.13981300  0.82559500  1
  O  O49  1  0.52707500  0.72573600  0.92191300  1
  O  O50  1  0.77426400  0.97292500  0.57808700  1
  O  O51  1  0.83716600  0.44709300  0.46394000  1
  O  O52  1  0.94709300  0.33716600  0.96394000  1
  O  O53  1  0.27554100  0.70882900  0.19693700  1
  O  O54  1  0.46394000  0.83716600  0.44709300  1
  O  O55  1  0.19693700  0.27554100  0.70882900  1
  O  O56  1  0.72573600  0.92191300  0.52707500  1
  O  O57  1  0.05290700  0.66283400  0.03606000  1
  O  O58  1  0.57808700  0.77426400  0.97292500  1
  O  O59  1  0.02316600  0.31500800  0.08519900  1
  O  O60  1  0.70882900  0.19693700  0.27554100  1
  O  O61  1  0.97683400  0.68499200  0.91480100  1
  O  O62  1  0.42191300  0.22573600  0.02707500  1
  O  O63  1  0.80306300  0.72445900  0.29117100  1
  O  O64  1  0.67440500  0.36018700  0.52123700  1
  O  O65  1  0.30306300  0.79117100  0.22445900  1
  O  O66  1  0.86018700  0.17440500  0.02123700  1
  O  O67  1  0.20882900  0.77554100  0.69693700  1
  O  O68  1  0.99894800  0.76833100  0.69654600  1
  O  O69  1  0.03606000  0.05290700  0.66283400  1
  O  O70  1  0.81500800  0.52316600  0.58519900  1
  O  O71  1  0.52123700  0.67440500  0.36018700  1
loop_
_geom_bond_atom_site_label_1
_geom_bond_atom_site_label_2
_geom_bond_distance
_geom_bond_site_symmetry_2
O0 Re6 1.854069 1_555
O0 Sr1 2.535731 1_555
O0 Sr25 2.557375 1_555
O0 Sr28 2.784581 1_655
O1 Re3 1.951121 1_555
O1 Sr23 2.525001 1_555
O1 Sr17 2.526377 1_555
O1 Sr9 2.645090 1_555
O2 Re1 1.894694 1_555
O2 Sr9 2.532858 1_555
O2 Sr8 2.557321 1_555
O2 Sr21 2.678826 1_555
O3 Re5 1.869021 1_555
O3 Sr25 2.611709 1_455
O3 Sr4 2.623951 1_455
O3 Sr20 2.640826 1_455
O4 Re6 1.894694 1_565
O4 Sr28 2.532858 1_665
O4 Sr21 2.557321 1_655
O4 Sr8 2.678826 1_655
O5 Re9 1.854069 1_555
O5 Sr29 2.535731 1_555
O5 Sr16 2.557391 1_555
O5 Sr13 2.784580 1_555
O6 Re7 1.911842 1_565
O6 Sr21 2.623865 1_555
O6 Sr17 2.682197 1_555
O6 Sr2 2.759673 1_455
O6 Sr0 2.853751 1_465
O7 Re8 1.911842 1_555
O7 Sr14 2.623865 1_555
O7 Sr12 2.682194 1_555
O7 Sr22 2.759673 1_555
O7 Sr25 2.853751 1_555
O8 Re5 1.951121 1_555
O8 Sr8 2.525001 1_545
O8 Sr25 2.526380 1_455
O8 Sr28 2.645090 1_555
O9 Re5 1.951121 1_555
O9 Sr14 2.525001 1_554
O9 Sr6 2.526380 1_545
O9 Sr28 2.645090 1_555
O10 Re2 1.894694 1_555
O10 Sr13 2.532858 1_555
O10 Sr5 2.557321 1_555
O10 Sr29 2.678826 1_555
O11 Re0 1.951121 1_555
O11 Sr7 2.525001 1_555
O11 Sr16 2.526377 1_555
O11 Sr13 2.645090 1_555
O12 Re3 1.951121 1_555
O12 Sr21 2.525001 1_555
O12 Sr11 2.526377 1_555
O12 Sr9 2.645090 1_555
O13 Re3 1.869021 1_555
O13 Sr0 2.611709 1_555
O13 Sr7 2.623951 1_545
O13 Sr3 2.640828 1_554
O14 Re3 1.951121 1_555
O14 Sr26 2.525001 1_555
O14 Sr0 2.526380 1_555
O14 Sr9 2.645090 1_555
O15 Re11 1.894694 1_555
O15 Sr9 2.532858 1_555
O15 Sr1 2.557321 1_555
O15 Sr23 2.678826 1_555
O16 Re0 1.951121 1_555
O16 Sr29 2.525001 1_555
O16 Sr3 2.526380 1_555
O16 Sr13 2.645090 1_555
O17 Re1 1.980767 1_655
O17 Sr15 2.458379 1_555
O17 Sr23 2.652616 1_556
O17 Sr11 2.681422 1_655
O17 Sr21 2.734379 1_655
O18 Re2 1.980767 1_554
O18 Sr27 2.458379 1_555
O18 Sr7 2.652616 1_545
O18 Sr3 2.681406 1_554
O18 Sr29 2.734379 1_554
O19 Re2 1.894694 1_554
O19 Sr24 2.532858 1_544
O19 Sr7 2.557321 1_545
O19 Sr18 2.678826 1_545
O20 Re10 1.869021 1_555
O20 Sr22 2.611692 1_565
O20 Sr14 2.623951 1_565
O20 Sr25 2.640828 1_565
O21 Re9 1.980767 1_545
O21 Sr27 2.458379 1_555
O21 Sr18 2.652616 1_545
O21 Sr10 2.681422 1_545
O21 Sr4 2.734379 1_455
O22 Re11 1.894694 1_556
O22 Sr28 2.532858 1_566
O22 Sr26 2.557321 1_565
O22 Sr14 2.678826 1_565
O23 Re2 1.854069 1_555
O23 Sr4 2.535731 1_555
O23 Sr22 2.557391 1_555
O23 Sr24 2.784580 1_545
O24 Re1 1.980767 1_655
O24 Sr15 2.458379 1_555
O24 Sr8 2.652616 1_655
O24 Sr12 2.681406 1_655
O24 Sr1 2.734379 1_556
O25 Re0 1.869021 1_555
O25 Sr2 2.611692 1_555
O25 Sr21 2.623951 1_655
O25 Sr0 2.640828 1_565
O26 Re7 1.911842 1_665
O26 Sr7 2.623865 1_555
O26 Sr2 2.682197 1_555
O26 Sr0 2.759685 1_565
O26 Sr3 2.853751 1_564
O27 Re6 1.894694 1_555
O27 Sr9 2.532858 1_555
O27 Sr14 2.557321 1_555
O27 Sr26 2.678826 1_555
O28 Re8 1.911842 1_555
O28 Sr5 2.623865 1_555
O28 Sr10 2.682197 1_555
O28 Sr12 2.759685 1_555
O28 Sr22 2.853757 1_555
O29 Re10 1.951121 1_555
O29 Sr18 2.525001 1_556
O29 Sr22 2.526377 1_565
O29 Sr24 2.645090 1_555
O30 Re9 1.980767 1_545
O30 Sr27 2.458379 1_555
O30 Sr19 2.652616 1_455
O30 Sr16 2.681422 1_545
O30 Sr7 2.734379 1_545
O31 Re4 1.854069 1_555
O31 Sr18 2.535731 1_555
O31 Sr20 2.557391 1_555
O31 Sr24 2.784581 1_554
O32 Re10 1.869021 1_555
O32 Sr20 2.611692 1_556
O32 Sr1 2.623951 1_556
O32 Sr6 2.640828 1_556
O33 Re10 1.951121 1_555
O33 Sr4 2.525001 1_565
O33 Sr10 2.526377 1_655
O33 Sr24 2.645090 1_555
O34 Re7 1.911842 1_566
O34 Sr29 2.623865 1_555
O34 Sr16 2.682197 1_555
O34 Sr17 2.759673 1_556
O34 Sr2 2.853757 1_456
O35 Re4 1.980767 1_455
O35 Sr27 2.458379 1_555
O35 Sr4 2.652616 1_455
O35 Sr20 2.681422 1_455
O35 Sr5 2.734379 1_554
O36 Re5 1.869021 1_555
O36 Sr12 2.611709 1_554
O36 Sr5 2.623951 1_554
O36 Sr22 2.640826 1_554
O37 Re8 1.911842 1_555
O37 Sr1 2.623865 1_555
O37 Sr25 2.682194 1_555
O37 Sr20 2.759673 1_555
O37 Sr6 2.853751 1_555
O38 Re1 1.854069 1_555
O38 Sr14 2.535731 1_555
O38 Sr12 2.557375 1_555
O38 Sr28 2.784581 1_556
O39 Re3 1.869021 1_555
O39 Sr11 2.611692 1_555
O39 Sr19 2.623951 1_455
O39 Sr16 2.640826 1_545
O40 Re7 1.911842 1_556
O40 Sr26 2.623865 1_555
O40 Sr11 2.682197 1_555
O40 Sr16 2.759673 1_545
O40 Sr17 2.853757 1_546
O41 Re3 1.869021 1_555
O41 Sr17 2.611692 1_555
O41 Sr29 2.623951 1_554
O41 Sr2 2.640826 1_455
O42 Re8 1.911842 1_555
O42 Sr8 2.623865 1_555
O42 Sr6 2.682194 1_555
O42 Sr10 2.759673 1_555
O42 Sr12 2.853752 1_555
O43 Re0 1.869021 1_555
O43 Sr16 2.611692 1_555
O43 Sr26 2.623951 1_565
O43 Sr17 2.640826 1_556
O44 Re4 1.980767 1_455
O44 Sr27 2.458379 1_555
O44 Sr29 2.652616 1_554
O44 Sr2 2.681422 1_455
O44 Sr19 2.734379 1_455
O45 Re2 1.854069 1_555
O45 Sr19 2.535731 1_555
O45 Sr3 2.557375 1_555
O45 Sr13 2.784581 1_555
O46 Re0 1.869021 1_555
O46 Sr3 2.611709 1_555
O46 Sr23 2.623951 1_556
O46 Sr11 2.640826 1_655
O47 Re5 1.869021 1_555
O47 Sr6 2.611709 1_545
O47 Sr18 2.623951 1_545
O47 Sr10 2.640826 1_545
O48 Re7 1.911842 1_656
O48 Sr19 2.623865 1_555
O48 Sr3 2.682194 1_555
O48 Sr11 2.759673 1_655
O48 Sr16 2.853757 1_645
O49 Re11 1.980767 1_556
O49 Sr15 2.458379 1_555
O49 Sr26 2.652616 1_565
O49 Sr17 2.681422 1_556
O49 Sr23 2.734379 1_556
O50 Re6 1.980767 1_565
O50 Sr15 2.458379 1_555
O50 Sr14 2.652616 1_565
O50 Sr25 2.681406 1_565
O50 Sr8 2.734379 1_655
O51 Re4 1.894694 1_555
O51 Sr13 2.532858 1_555
O51 Sr4 2.557321 1_555
O51 Sr19 2.678826 1_555
O52 Re1 1.894694 1_655
O52 Sr28 2.532858 1_656
O52 Sr23 2.557321 1_556
O52 Sr1 2.678826 1_556
O53 Re11 1.854069 1_555
O53 Sr21 2.535731 1_555
O53 Sr17 2.557391 1_555
O53 Sr9 2.784581 1_555
O54 Re9 1.894694 1_555
O54 Sr13 2.532858 1_555
O54 Sr18 2.557321 1_555
O54 Sr7 2.678826 1_555
O55 Re1 1.854069 1_555
O55 Sr26 2.535731 1_555
O55 Sr11 2.557391 1_555
O55 Sr9 2.784581 1_555
O56 Re6 1.980767 1_565
O56 Sr15 2.458379 1_555
O56 Sr21 2.652616 1_655
O56 Sr0 2.681406 1_565
O56 Sr26 2.734379 1_565
O57 Re4 1.894694 1_455
O57 Sr24 2.532858 1_454
O57 Sr29 2.557321 1_554
O57 Sr5 2.678826 1_554
O58 Re11 1.980767 1_556
O58 Sr15 2.458379 1_555
O58 Sr1 2.652616 1_556
O58 Sr6 2.681406 1_556
O58 Sr14 2.734379 1_565
O59 Re5 1.951121 1_555
O59 Sr1 2.525001 1_455
O59 Sr12 2.526380 1_554
O59 Sr28 2.645090 1_555
O60 Re6 1.854069 1_555
O60 Sr23 2.535731 1_555
O60 Sr0 2.557375 1_555
O60 Sr9 2.784580 1_555
O61 Re10 1.951121 1_555
O61 Sr5 2.525001 1_655
O61 Sr20 2.526377 1_556
O61 Sr24 2.645090 1_555
O62 Re2 1.980767 1_554
O62 Sr27 2.458379 1_555
O62 Sr5 2.652616 1_554
O62 Sr22 2.681422 1_554
O62 Sr18 2.734379 1_545
O63 Re4 1.854069 1_555
O63 Sr7 2.535731 1_555
O63 Sr2 2.557391 1_555
O63 Sr13 2.784581 1_555
O64 Re8 1.911842 1_555
O64 Sr4 2.623865 1_555
O64 Sr22 2.682197 1_555
O64 Sr25 2.759685 1_555
O64 Sr20 2.853757 1_555
O65 Re11 1.854069 1_555
O65 Sr8 2.535731 1_555
O65 Sr6 2.557375 1_555
O65 Sr28 2.784580 1_565
O66 Re7 1.911842 1_655
O66 Sr23 2.623865 1_555
O66 Sr0 2.682194 1_555
O66 Sr3 2.759685 1_554
O66 Sr11 2.853757 1_654
O67 Re9 1.854069 1_555
O67 Sr5 2.535731 1_555
O67 Sr10 2.557391 1_555
O67 Sr24 2.784581 1_455
O68 Re10 1.869021 1_555
O68 Sr10 2.611692 1_655
O68 Sr8 2.623951 1_655
O68 Sr12 2.640827 1_655
O69 Re9 1.894694 1_545
O69 Sr24 2.532858 1_445
O69 Sr19 2.557321 1_455
O69 Sr4 2.678826 1_455
O70 Re0 1.951121 1_555
O70 Sr19 2.525001 1_555
O70 Sr2 2.526377 1_555
O70 Sr13 2.645090 1_555
O71 Re8 1.911842 1_555
O71 Sr18 2.623865 1_555
O71 Sr20 2.682197 1_555
O71 Sr6 2.759685 1_555
O71 Sr10 2.853757 1_555
