# generated using pymatgen
data_Cu2H10C6S3N4
_symmetry_space_group_name_H-M   'P 1'
_cell_length_a   30.59924800
_cell_length_b   5.82795500
_cell_length_c   7.63732722
_cell_angle_alpha   67.39801826
_cell_angle_beta   90.00000000
_cell_angle_gamma   90.00000000
_symmetry_Int_Tables_number   1
_chemical_formula_structural   Cu2H10C6S3N4
_chemical_formula_sum   'Cu8 H40 C24 S12 N16'
_cell_volume   1257.36883126
_cell_formula_units_Z   4
loop_
 _symmetry_equiv_pos_site_id
 _symmetry_equiv_pos_as_xyz
  1  'x, y, z'
loop_
 _atom_site_type_symbol
 _atom_site_label
 _atom_site_symmetry_multiplicity
 _atom_site_fract_x
 _atom_site_fract_y
 _atom_site_fract_z
 _atom_site_occupancy
  Cu  Cu0  1  0.71378000  0.17971200  0.01169500  1
  Cu  Cu1  1  0.95976400  0.57459200  0.58332000  1
  Cu  Cu2  1  0.21378000  0.82028800  0.48830500  1
  Cu  Cu3  1  0.45976400  0.42540800  0.91668000  1
  Cu  Cu4  1  0.78622000  0.17971200  0.51169500  1
  Cu  Cu5  1  0.28622000  0.82028800  0.98830500  1
  Cu  Cu6  1  0.54023600  0.57459200  0.08332000  1
  Cu  Cu7  1  0.04023600  0.42540800  0.41668000  1
  H  H0  1  0.65429600  0.82323400  0.49597400  1
  H  H1  1  0.13718200  0.41862100  0.78638400  1
  H  H2  1  0.84570400  0.82323400  0.99597400  1
  H  H3  1  0.16954400  0.72421200  0.91064200  1
  H  H4  1  0.40764900  0.77015300  0.30540300  1
  H  H5  1  0.59235100  0.22984700  0.69459700  1
  H  H6  1  0.66954400  0.27578800  0.58935800  1
  H  H7  1  0.94679300  0.46255000  0.06130700  1
  H  H8  1  0.44679300  0.53745000  0.43869300  1
  H  H9  1  0.09767300  0.20034800  0.93035200  1
  H  H10  1  0.15429600  0.17676600  0.00402600  1
  H  H11  1  0.92565000  0.25245600  0.96338900  1
  H  H12  1  0.63718200  0.58137900  0.71361600  1
  H  H13  1  0.57435000  0.25245600  0.46338900  1
  H  H14  1  0.09235100  0.77015300  0.80540300  1
  H  H15  1  0.33045600  0.72421200  0.41064200  1
  H  H16  1  0.86281800  0.58137900  0.21361600  1
  H  H17  1  0.90764900  0.22984700  0.19459700  1
  H  H18  1  0.05320700  0.53745000  0.93869300  1
  H  H19  1  0.39073200  0.35459800  0.67362700  1
  H  H20  1  0.42565000  0.74754400  0.53661100  1
  H  H21  1  0.18440100  0.46529700  0.12218200  1
  H  H22  1  0.31559900  0.46529700  0.62218200  1
  H  H23  1  0.55320700  0.46255000  0.56130700  1
  H  H24  1  0.34570400  0.17676600  0.50402600  1
  H  H25  1  0.81559900  0.53470300  0.87781800  1
  H  H26  1  0.89073200  0.64540200  0.82637300  1
  H  H27  1  0.34847700  0.70938000  0.64004200  1
  H  H28  1  0.36281800  0.41862100  0.28638400  1
  H  H29  1  0.15152300  0.70938000  0.14004200  1
  H  H30  1  0.40232700  0.20034800  0.43035200  1
  H  H31  1  0.83045600  0.27578800  0.08935800  1
  H  H32  1  0.10926800  0.35459800  0.17362700  1
  H  H33  1  0.07435000  0.74754400  0.03661100  1
  H  H34  1  0.90232700  0.79965200  0.06964800  1
  H  H35  1  0.84847700  0.29062000  0.85995800  1
  H  H36  1  0.59767300  0.79965200  0.56964800  1
  H  H37  1  0.60926800  0.64540200  0.32637300  1
  H  H38  1  0.65152300  0.29062000  0.35995800  1
  H  H39  1  0.68440100  0.53470300  0.37781800  1
  C  C0  1  0.23648300  0.26841700  0.60685400  1
  C  C1  1  0.98933000  0.98127800  0.71539700  1
  C  C2  1  0.34102500  0.60236300  0.55337700  1
  C  C3  1  0.62758500  0.69714600  0.56816400  1
  C  C4  1  0.73648300  0.73158300  0.89314600  1
  C  C5  1  0.26351700  0.26841700  0.10685400  1
  C  C6  1  0.51067000  0.98127800  0.21539700  1
  C  C7  1  0.38699300  0.77277400  0.93926700  1
  C  C8  1  0.15897500  0.60236300  0.05337700  1
  C  C9  1  0.08194100  0.64433300  0.94721300  1
  C  C10  1  0.41805900  0.64433300  0.44721300  1
  C  C11  1  0.65897500  0.39763700  0.44662300  1
  C  C12  1  0.84102500  0.39763700  0.94662300  1
  C  C13  1  0.48933000  0.01872200  0.78460300  1
  C  C14  1  0.11300700  0.77277400  0.43926700  1
  C  C15  1  0.91805900  0.35566700  0.05278700  1
  C  C16  1  0.37241500  0.30285400  0.43183600  1
  C  C17  1  0.88699300  0.22722600  0.56073300  1
  C  C18  1  0.12758500  0.30285400  0.93183600  1
  C  C19  1  0.87241500  0.69714600  0.06816400  1
  C  C20  1  0.01067000  0.01872200  0.28460300  1
  C  C21  1  0.76351700  0.73158300  0.39314600  1
  C  C22  1  0.61300700  0.22722600  0.06073300  1
  C  C23  1  0.58194100  0.35566700  0.55278700  1
  S  S0  1  0.75595500  0.01396900  0.83725500  1
  S  S1  1  0.64462500  0.01152700  0.03893100  1
  S  S2  1  0.01257600  0.22417800  0.73553500  1
  S  S3  1  0.48742400  0.22417800  0.23553500  1
  S  S4  1  0.35537500  0.98847300  0.96106900  1
  S  S5  1  0.14462500  0.98847300  0.46106900  1
  S  S6  1  0.85537500  0.01152700  0.53893100  1
  S  S7  1  0.24404500  0.98603100  0.16274500  1
  S  S8  1  0.25595500  0.98603100  0.66274500  1
  S  S9  1  0.74404500  0.01396900  0.33725500  1
  S  S10  1  0.51257600  0.77582200  0.76446500  1
  S  S11  1  0.98742400  0.77582200  0.26446500  1
  N  N0  1  0.52715600  0.80726400  0.19793800  1
  N  N1  1  0.38144700  0.46806000  0.53655600  1
  N  N2  1  0.88144700  0.53194000  0.96344400  1
  N  N3  1  0.47284400  0.19273600  0.80206200  1
  N  N4  1  0.41023400  0.61743500  0.92625800  1
  N  N5  1  0.08976600  0.61743500  0.42625800  1
  N  N6  1  0.22315900  0.47287200  0.56625100  1
  N  N7  1  0.91023400  0.38256500  0.57374200  1
  N  N8  1  0.72315900  0.52712800  0.93374900  1
  N  N9  1  0.11855300  0.46806000  0.03655600  1
  N  N10  1  0.77684100  0.52712800  0.43374900  1
  N  N11  1  0.58976600  0.38256500  0.07374200  1
  N  N12  1  0.61855300  0.53194000  0.46344400  1
  N  N13  1  0.97284400  0.80726400  0.69793800  1
  N  N14  1  0.27684100  0.47287200  0.06625100  1
  N  N15  1  0.02715600  0.19273600  0.30206200  1
loop_
_geom_bond_atom_site_label_1
_geom_bond_atom_site_label_2
_geom_bond_distance
_geom_bond_site_symmetry_2
Cu0 N8 1.899943 1_554
Cu0 S1 2.307625 1_555
Cu0 S0 2.315722 1_554
Cu0 S9 2.475239 1_555
Cu1 N7 1.902026 1_555
Cu1 N13 1.917711 1_555
Cu1 S11 2.413858 1_555
Cu1 S2 2.511701 1_655
Cu2 N6 1.899943 1_555
Cu2 S5 2.307625 1_555
Cu2 S8 2.315722 1_555
Cu2 S7 2.475239 1_555
Cu3 N4 1.902026 1_555
Cu3 N3 1.917711 1_555
Cu3 S3 2.413858 1_556
Cu3 S10 2.511701 1_555
Cu4 N10 1.899943 1_555
Cu4 S6 2.307625 1_555
Cu4 S9 2.315722 1_555
Cu4 S0 2.475239 1_555
Cu5 N14 1.899943 1_556
Cu5 S4 2.307625 1_555
Cu5 S7 2.315722 1_556
Cu5 S8 2.475239 1_555
Cu6 N11 1.902026 1_555
Cu6 N0 1.917711 1_555
Cu6 S10 2.413858 1_554
Cu6 S3 2.511701 1_555
Cu7 N5 1.902026 1_555
Cu7 N15 1.917711 1_555
Cu7 S2 2.413858 1_555
Cu7 S11 2.511701 1_455
H19 N1 1.040092 1_555
H26 N2 1.040092 1_555
H32 N9 1.040092 1_555
H37 N12 1.040092 1_555
C0 N6 1.182442 1_555
C0 S8 1.644895 1_545
C1 N13 1.185197 1_555
C1 S2 1.643448 1_665
C2 H27 1.093798 1_555
C2 H22 1.094027 1_555
C2 H15 1.096444 1_555
C2 N1 1.495430 1_555
C3 H12 1.095154 1_555
C3 H36 1.095430 1_555
C3 H0 1.095710 1_555
C3 N12 1.494970 1_555
C4 N8 1.182442 1_555
C4 S0 1.644895 1_565
C5 N14 1.182442 1_555
C5 S7 1.644895 1_545
C6 N0 1.185197 1_555
C6 S3 1.643448 1_565
C7 N4 1.185047 1_555
C7 S4 1.644661 1_555
C8 H29 1.093798 1_555
C8 H21 1.094027 1_555
C8 H3 1.096444 1_554
C8 N9 1.495430 1_555
C9 H18 1.093831 1_555
C9 H33 1.094352 1_556
C9 H14 1.096225 1_555
C9 N9 1.495734 1_556
C10 H8 1.093831 1_555
C10 H20 1.094352 1_555
C10 H4 1.096225 1_555
C10 N1 1.495734 1_555
C11 H38 1.093798 1_555
C11 H39 1.094027 1_555
C11 H6 1.096444 1_555
C11 N12 1.495430 1_555
C12 H35 1.093798 1_555
C12 H25 1.094027 1_555
C12 H31 1.096444 1_556
C12 N2 1.495430 1_555
C13 N3 1.185197 1_555
C13 S10 1.643448 1_545
C14 N5 1.185047 1_555
C14 S5 1.644661 1_555
C15 H7 1.093831 1_555
C15 H11 1.094352 1_554
C15 H17 1.096225 1_555
C15 N2 1.495734 1_554
C16 H28 1.095154 1_555
C16 H30 1.095430 1_555
C16 H24 1.095710 1_555
C16 N1 1.494970 1_555
C17 N7 1.185047 1_555
C17 S6 1.644661 1_555
C18 H1 1.095154 1_555
C18 H9 1.095430 1_555
C18 H10 1.095710 1_556
C18 N9 1.494970 1_556
C19 H16 1.095154 1_555
C19 H34 1.095430 1_555
C19 H2 1.095710 1_554
C19 N2 1.494970 1_554
C20 N15 1.185197 1_555
C20 S11 1.643448 1_445
C21 N10 1.182442 1_555
C21 S9 1.644895 1_565
C22 N11 1.185047 1_555
C22 S1 1.644661 1_555
C23 H23 1.093831 1_555
C23 H13 1.094352 1_555
C23 H5 1.096225 1_555
C23 N12 1.495734 1_555
