# generated using pymatgen
data_K3SbTe3
_symmetry_space_group_name_H-M   'P 1'
_cell_length_a   10.47095485
_cell_length_b   10.47095485
_cell_length_c   10.47095485
_cell_angle_alpha   90.00000000
_cell_angle_beta   90.00000000
_cell_angle_gamma   90.00000000
_symmetry_Int_Tables_number   1
_chemical_formula_structural   K3SbTe3
_chemical_formula_sum   'K12 Sb4 Te12'
_cell_volume   1148.04486619
_cell_formula_units_Z   4
loop_
 _symmetry_equiv_pos_site_id
 _symmetry_equiv_pos_as_xyz
  1  'x, y, z'
loop_
 _atom_site_type_symbol
 _atom_site_label
 _atom_site_symmetry_multiplicity
 _atom_site_fract_x
 _atom_site_fract_y
 _atom_site_fract_z
 _atom_site_occupancy
  K  K0  1  0.58032453  0.58032453  0.58032453  1
  K  K1  1  0.91967547  0.41967547  0.08032453  1
  K  K2  1  0.08032453  0.91967547  0.41967547  1
  K  K3  1  0.41967547  0.08032453  0.91967547  1
  K  K4  1  0.32185149  0.32185149  0.32185149  1
  K  K5  1  0.17814851  0.67814851  0.82185149  1
  K  K6  1  0.82185149  0.17814851  0.67814851  1
  K  K7  1  0.67814851  0.82185149  0.17814851  1
  K  K8  1  0.81714892  0.81714892  0.81714892  1
  K  K9  1  0.68285108  0.18285108  0.31714892  1
  K  K10  1  0.31714892  0.68285108  0.18285108  1
  K  K11  1  0.18285108  0.31714892  0.68285108  1
  Sb  Sb0  1  0.02935715  0.02935715  0.02935715  1
  Sb  Sb1  1  0.47064285  0.97064285  0.52935715  1
  Sb  Sb2  1  0.52935715  0.47064285  0.97064285  1
  Sb  Sb3  1  0.97064285  0.52935715  0.47064285  1
  Te  Te0  1  0.22530837  0.60894792  0.49756212  1
  Te  Te1  1  0.49756212  0.22530837  0.60894792  1
  Te  Te2  1  0.60894792  0.49756212  0.22530837  1
  Te  Te3  1  0.89105208  0.50243788  0.72530837  1
  Te  Te4  1  0.99756212  0.27469163  0.39105208  1
  Te  Te5  1  0.39105208  0.99756212  0.27469163  1
  Te  Te6  1  0.00243788  0.77469163  0.10894792  1
  Te  Te7  1  0.50243788  0.72530837  0.89105208  1
  Te  Te8  1  0.10894792  0.00243788  0.77469163  1
  Te  Te9  1  0.72530837  0.89105208  0.50243788  1
  Te  Te10  1  0.77469163  0.10894792  0.00243788  1
  Te  Te11  1  0.27469163  0.39105208  0.99756212  1
loop_
_geom_bond_atom_site_label_1
_geom_bond_atom_site_label_2
_geom_bond_distance
_geom_bond_site_symmetry_2
K0 Te7 3.681821 1_555
K0 Te9 3.681821 1_555
K0 Te3 3.681821 1_555
K0 Te0 3.828783 1_555
K0 Te1 3.828783 1_555
K0 Te2 3.828783 1_555
K1 Te4 3.681821 1_555
K1 Te10 3.681821 1_555
K1 Te2 3.681821 1_555
K1 Te11 3.828783 1_654
K1 Te3 3.828783 1_554
K1 Te6 3.828783 1_655
K2 Te5 3.681821 1_555
K2 Te6 3.681821 1_555
K2 Te0 3.681821 1_555
K2 Te4 3.828783 1_465
K2 Te8 3.828783 1_565
K2 Te9 3.828783 1_455
K3 Te11 3.681821 1_555
K3 Te1 3.681821 1_555
K3 Te8 3.681821 1_555
K3 Te5 3.828783 1_546
K3 Te7 3.828783 1_545
K3 Te10 3.828783 1_556
K4 Te5 3.507010 1_545
K4 Te4 3.507010 1_455
K4 Te11 3.507010 1_554
K4 Te0 3.666616 1_555
K4 Te1 3.666616 1_555
K4 Te2 3.666616 1_555
K5 Te0 3.507010 1_555
K5 Te7 3.507010 1_555
K5 Te8 3.507010 1_565
K5 Te11 3.666616 1_555
K5 Te3 3.666616 1_455
K5 Te6 3.666616 1_556
K6 Te3 3.507010 1_555
K6 Te1 3.507010 1_555
K6 Te10 3.507010 1_556
K6 Te4 3.666616 1_555
K6 Te9 3.666616 1_545
K6 Te8 3.666616 1_655
K7 Te6 3.507010 1_655
K7 Te9 3.507010 1_555
K7 Te2 3.507010 1_555
K7 Te7 3.666616 1_554
K7 Te5 3.666616 1_555
K7 Te10 3.666616 1_565
K8 Te9 3.518917 1_555
K8 Te3 3.518917 1_555
K8 Te7 3.518917 1_555
K8 Te6 3.646558 1_656
K8 Te10 3.646558 1_566
K8 Te8 3.646558 1_665
K9 Te4 3.518917 1_555
K9 Te10 3.518917 1_555
K9 Te2 3.518917 1_555
K9 Te1 3.646558 1_555
K9 Te5 3.646558 1_545
K9 Te9 3.646558 1_545
K10 Te5 3.518917 1_555
K10 Te6 3.518917 1_555
K10 Te0 3.518917 1_555
K10 Te11 3.646558 1_554
K10 Te2 3.646558 1_555
K10 Te7 3.646558 1_554
K11 Te11 3.518917 1_555
K11 Te8 3.518917 1_555
K11 Te1 3.518917 1_555
K11 Te0 3.646558 1_555
K11 Te3 3.646558 1_455
K11 Te4 3.646558 1_455
Sb0 Te8 2.807971 1_554
Sb0 Te6 2.807971 1_545
Sb0 Te10 2.807971 1_455
Sb1 Te1 2.807971 1_565
Sb1 Te5 2.807971 1_555
Sb1 Te9 2.807971 1_555
Sb2 Te2 2.807971 1_556
Sb2 Te11 2.807971 1_555
Sb2 Te7 2.807971 1_555
Sb3 Te0 2.807971 1_655
Sb3 Te4 2.807971 1_555
Sb3 Te3 2.807971 1_555
