# generated using pymatgen
data_La3Si2ClO8
_symmetry_space_group_name_H-M   'P 1'
_cell_length_a   8.02985403
_cell_length_b   8.02985403
_cell_length_c   8.90673512
_cell_angle_alpha   82.56603597
_cell_angle_beta   82.56603597
_cell_angle_gamma   48.26566875
_symmetry_Int_Tables_number   1
_chemical_formula_structural   La3Si2ClO8
_chemical_formula_sum   'La6 Si4 Cl2 O16'
_cell_volume   424.23150413
_cell_formula_units_Z   2
loop_
 _symmetry_equiv_pos_site_id
 _symmetry_equiv_pos_as_xyz
  1  'x, y, z'
loop_
 _atom_site_type_symbol
 _atom_site_label
 _atom_site_symmetry_multiplicity
 _atom_site_fract_x
 _atom_site_fract_y
 _atom_site_fract_z
 _atom_site_occupancy
  La  La0  1  0.93098200  0.06901800  0.75000000  1
  La  La1  1  0.41960100  0.21158600  0.17065300  1
  La  La2  1  0.78841400  0.58039900  0.32934700  1
  La  La3  1  0.58039900  0.78841400  0.82934700  1
  La  La4  1  0.21158600  0.41960100  0.67065300  1
  La  La5  1  0.06901800  0.93098200  0.25000000  1
  Si  Si0  1  0.10194500  0.21451000  0.97357900  1
  Si  Si1  1  0.89805500  0.78549000  0.02642100  1
  Si  Si2  1  0.78549000  0.89805500  0.52642100  1
  Si  Si3  1  0.21451000  0.10194500  0.47357900  1
  Cl  Cl0  1  0.47543500  0.52456500  0.75000000  1
  Cl  Cl1  1  0.52456500  0.47543500  0.25000000  1
  O  O0  1  0.38148800  0.90707300  0.35319900  1
  O  O1  1  0.95714100  0.20039000  0.46738200  1
  O  O2  1  0.79651300  0.68518300  0.58096500  1
  O  O3  1  0.68518300  0.79651300  0.08096500  1
  O  O4  1  0.79961000  0.04285900  0.03261800  1
  O  O5  1  0.90707300  0.38148800  0.85319900  1
  O  O6  1  0.61851200  0.09292700  0.64680100  1
  O  O7  1  0.72791700  0.96401500  0.34759800  1
  O  O8  1  0.27208400  0.03598500  0.65240200  1
  O  O9  1  0.96401500  0.72791600  0.84759800  1
  O  O10  1  0.31481700  0.20348700  0.91903500  1
  O  O11  1  0.04285900  0.79961000  0.53261800  1
  O  O12  1  0.20348700  0.31481700  0.41903500  1
  O  O13  1  0.20039000  0.95714100  0.96738200  1
  O  O14  1  0.09292700  0.61851200  0.14680100  1
  O  O15  1  0.03598500  0.27208400  0.15240200  1
loop_
_geom_bond_atom_site_label_1
_geom_bond_atom_site_label_2
_geom_bond_distance
_geom_bond_site_symmetry_2
La0 O8 2.608528 1_655
La0 O9 2.608528 1_545
La0 O4 2.638997 1_556
La0 O1 2.638997 1_555
La0 O6 2.662151 1_555
La0 O5 2.662151 1_555
La0 O11 2.698527 1_645
La0 O13 2.698527 1_645
La1 O14 2.481151 1_555
La1 O12 2.481676 1_555
La1 O7 2.492281 1_545
La1 O10 2.516585 1_554
La1 O4 2.571855 1_555
La1 O3 2.660794 1_545
La1 O15 2.805002 1_555
La1 O0 2.924882 1_545
La2 O0 2.481151 1_555
La2 O3 2.481676 1_555
La2 O15 2.492277 1_655
La2 O2 2.516585 1_555
La2 O1 2.571855 1_555
La2 O12 2.660794 1_655
La2 O7 2.805006 1_555
La2 O14 2.924882 1_655
La3 O5 2.481151 1_555
La3 O2 2.481676 1_555
La3 O8 2.492277 1_565
La3 O3 2.516585 1_556
La3 O13 2.571855 1_555
La3 O10 2.660794 1_565
La3 O9 2.805002 1_555
La3 O6 2.924882 1_565
La4 O6 2.481151 1_555
La4 O10 2.481676 1_555
La4 O9 2.492277 1_455
La4 O12 2.516585 1_555
La4 O11 2.571855 1_555
La4 O2 2.660794 1_455
La4 O8 2.805002 1_555
La4 O5 2.924882 1_455
La5 O7 2.608520 1_455
La5 O15 2.608528 1_565
La5 O11 2.638997 1_555
La5 O13 2.638997 1_554
La5 O14 2.662151 1_555
La5 O0 2.662151 1_555
La5 O4 2.698527 1_465
La5 O1 2.698527 1_465
Cl0 La4 2.935577 1_555
Cl0 La3 2.935577 1_555
Cl0 La0 2.991153 1_555
Cl1 La1 2.935577 1_555
Cl1 La2 2.935577 1_555
Cl1 La5 2.991153 1_555
O0 Si3 1.632418 1_565
O1 Si3 1.655942 1_655
O2 Si2 1.661467 1_555
O3 Si1 1.661467 1_555
O4 Si1 1.655942 1_545
O5 Si0 1.632418 1_655
O6 Si2 1.632418 1_545
O7 Si2 1.636242 1_555
O8 Si3 1.636244 1_555
O9 Si1 1.636244 1_556
O10 Si0 1.661467 1_555
O11 Si2 1.655942 1_455
O12 Si3 1.661467 1_555
O13 Si0 1.655942 1_565
O14 Si1 1.632418 1_455
O15 Si0 1.636244 1_554
