# generated using pymatgen
data_CdI2
_symmetry_space_group_name_H-M   'P 1'
_cell_length_a   4.28818512
_cell_length_b   4.28818512
_cell_length_c   50.93379172
_cell_angle_alpha   90.00000000
_cell_angle_beta   90.00000000
_cell_angle_gamma   119.99998730
_symmetry_Int_Tables_number   1
_chemical_formula_structural   CdI2
_chemical_formula_sum   'Cd7 I14'
_cell_volume   811.11745182
_cell_formula_units_Z   7
loop_
 _symmetry_equiv_pos_site_id
 _symmetry_equiv_pos_as_xyz
  1  'x, y, z'
loop_
 _atom_site_type_symbol
 _atom_site_label
 _atom_site_symmetry_multiplicity
 _atom_site_fract_x
 _atom_site_fract_y
 _atom_site_fract_z
 _atom_site_occupancy
  Cd  Cd0  1  -0.00000000  0.00000000  0.03563882  1
  Cd  Cd1  1  0.66666700  0.33333300  0.60702306  1
  Cd  Cd2  1  0.66666700  0.33333300  0.89297830  1
  Cd  Cd3  1  0.66666700  0.33333300  0.74999161  1
  Cd  Cd4  1  0.66666700  0.33333300  0.17854634  1
  Cd  Cd5  1  0.66666700  0.33333300  0.46440232  1
  Cd  Cd6  1  0.66666700  0.33333300  0.32134793  1
  I  I0  1  0.33333300  0.66666700  0.14477172  1
  I  I1  1  -0.00000000  -0.00000000  0.21237527  1
  I  I2  1  -0.00000000  -0.00000000  0.35522673  1
  I  I3  1  0.66666700  0.33333300  0.06951981  1
  I  I4  1  -0.00000000  -0.00000000  0.92676492  1
  I  I5  1  0.33333300  0.66666700  0.43059023  1
  I  I6  1  -0.00000000  0.00000000  0.64066823  1
  I  I7  1  0.33333300  0.66666700  0.00190975  1
  I  I8  1  -0.00000000  -0.00000000  0.49816828  1
  I  I9  1  -0.00000000  -0.00000000  0.78380222  1
  I  I10  1  0.33333300  0.66666700  0.57333251  1
  I  I11  1  0.33333300  0.66666700  0.71619629  1
  I  I12  1  0.33333300  0.66666700  0.85916029  1
  I  I13  1  0.33333300  0.66666700  0.28758337  1
loop_
_geom_bond_atom_site_label_1
_geom_bond_atom_site_label_2
_geom_bond_distance
_geom_bond_site_symmetry_2
Cd0 I7 3.013444 1_545
Cd0 I7 3.013448 1_555
Cd0 I7 3.013448 1_445
Cd0 I3 3.017863 1_455
Cd0 I3 3.017866 1_445
Cd0 I3 3.017866 1_555
Cd1 I6 3.011010 1_655
Cd1 I6 3.011014 1_555
Cd1 I6 3.011014 1_665
Cd1 I10 3.012327 1_545
Cd1 I10 3.012327 1_655
Cd1 I10 3.012333 1_555
Cd2 I4 3.015117 1_655
Cd2 I4 3.015120 1_555
Cd2 I4 3.015120 1_665
Cd2 I12 3.016030 1_545
Cd2 I12 3.016030 1_655
Cd2 I12 3.016035 1_555
Cd3 I11 3.015370 1_545
Cd3 I11 3.015370 1_655
Cd3 I11 3.015376 1_555
Cd3 I9 3.015814 1_655
Cd3 I9 3.015818 1_555
Cd3 I9 3.015818 1_665
Cd4 I0 3.014768 1_655
Cd4 I0 3.014768 1_545
Cd4 I0 3.014774 1_555
Cd4 I1 3.016347 1_655
Cd4 I1 3.016350 1_665
Cd4 I1 3.016350 1_555
Cd5 I8 3.014516 1_655
Cd5 I8 3.014520 1_555
Cd5 I8 3.014520 1_665
Cd5 I5 3.015858 1_655
Cd5 I5 3.015858 1_545
Cd5 I5 3.015863 1_555
Cd6 I13 3.014476 1_545
Cd6 I13 3.014476 1_655
Cd6 I13 3.014481 1_555
Cd6 I2 3.017799 1_655
Cd6 I2 3.017802 1_665
Cd6 I2 3.017802 1_555
