# generated using pymatgen
data_Ce4Si2S3O7
_symmetry_space_group_name_H-M   'P 1'
_cell_length_a   11.12771077
_cell_length_b   11.12776601
_cell_length_c   11.12776598
_cell_angle_alpha   100.15582085
_cell_angle_beta   114.31958299
_cell_angle_gamma   114.31958061
_symmetry_Int_Tables_number   1
_chemical_formula_structural   Ce4Si2S3O7
_chemical_formula_sum   'Ce16 Si8 S12 O28'
_cell_volume   1040.20869623
_cell_formula_units_Z   4
loop_
 _symmetry_equiv_pos_site_id
 _symmetry_equiv_pos_as_xyz
  1  'x, y, z'
loop_
 _atom_site_type_symbol
 _atom_site_label
 _atom_site_symmetry_multiplicity
 _atom_site_fract_x
 _atom_site_fract_y
 _atom_site_fract_z
 _atom_site_occupancy
  Ce  Ce0  1  0.09387576  0.04694618  0.29693534  1
  Ce  Ce1  1  0.48464717  0.82801538  0.34333921  1
  Ce  Ce2  1  0.01535283  0.65666079  0.17198462  1
  Ce  Ce3  1  0.25000000  0.29695517  0.70304483  1
  Ce  Ce4  1  0.98464717  0.34333921  0.82801538  1
  Ce  Ce5  1  0.98462755  0.64130685  0.65662996  1
  Ce  Ce6  1  0.25000000  0.95304553  0.04695447  1
  Ce  Ce7  1  0.75000000  0.04695447  0.95304553  1
  Ce  Ce8  1  0.48462755  0.65662996  0.64130685  1
  Ce  Ce9  1  0.59387576  0.29693534  0.04694618  1
  Ce  Ce10  1  0.90612424  0.95305382  0.70306466  1
  Ce  Ce11  1  0.75000000  0.70304483  0.29695517  1
  Ce  Ce12  1  0.51537245  0.34337004  0.35869315  1
  Ce  Ce13  1  0.40612424  0.70306466  0.95305382  1
  Ce  Ce14  1  0.01537245  0.35869315  0.34337004  1
  Ce  Ce15  1  0.51535283  0.17198462  0.65666079  1
  Si  Si0  1  0.37376579  0.47047440  0.09676314  1
  Si  Si1  1  0.62623421  0.52952560  0.90323686  1
  Si  Si2  1  0.37378048  0.90329532  0.77702111  1
  Si  Si3  1  0.12621952  0.22297889  0.09670468  1
  Si  Si4  1  0.87376579  0.09676314  0.47047440  1
  Si  Si5  1  0.87378048  0.77702111  0.90329532  1
  Si  Si6  1  0.62621952  0.09670468  0.22297889  1
  Si  Si7  1  0.12623421  0.90323686  0.52952560  1
  S  S0  1  0.64883624  1.00000976  0.64883803  1
  S  S1  1  0.35116376  -0.00000976  0.35116197  1
  S  S2  1  0.14884395  0.50000071  0.64883609  1
  S  S3  1  0.85115605  0.49999929  0.35116391  1
  S  S4  1  0.75000000  0.87500880  0.12499120  1
  S  S5  1  0.25000000  0.12499120  0.87500880  1
  S  S6  1  0.64884395  0.64883609  0.50000071  1
  S  S7  1  0.85116376  0.35116197  -0.00000976  1
  S  S8  1  0.35115605  0.35116391  0.49999929  1
  S  S9  1  0.25000000  0.62499932  0.37500068  1
  S  S10  1  0.14883624  0.64883803  1.00000976  1
  S  S11  1  0.75000000  0.37500068  0.62499932  1
  O  O0  1  0.25000546  0.85437206  0.60436827  1
  O  O1  1  0.97625616  0.80221216  0.82598558  1
  O  O2  1  0.22856383  0.07609550  0.56715079  1
  O  O3  1  0.72855415  0.16140959  0.15245070  1
  O  O4  1  0.52376082  0.34973335  0.82597098  1
  O  O5  1  0.27143617  0.43284921  0.92390450  1
  O  O6  1  0.72856383  0.56715079  0.07609550  1
  O  O7  1  0.02376082  0.82597098  0.34973335  1
  O  O8  1  0.49103186  0.56710920  0.83859672  1
  O  O9  1  0.50896814  0.43289080  0.16140328  1
  O  O10  1  0.77143617  0.92390450  0.43284921  1
  O  O11  1  0.00896654  0.84755608  0.07606706  1
  O  O12  1  0.49103346  0.92393294  0.15244392  1
  O  O13  1  0.47625616  0.82598558  0.80221216  1
  O  O14  1  0.52374384  0.17401442  0.19778784  1
  O  O15  1  0.74999454  0.14562794  0.39563173  1
  O  O16  1  0.99103186  0.83859672  0.56710920  1
  O  O17  1  0.50896654  0.07606706  0.84755608  1
  O  O18  1  0.02374384  0.19778784  0.17401442  1
  O  O19  1  0.99103346  0.15244392  0.92393294  1
  O  O20  1  0.00896814  0.16140328  0.43289080  1
  O  O21  1  0.75000546  0.60436827  0.85437206  1
  O  O22  1  0.47623918  0.65026665  0.17402902  1
  O  O23  1  0.27144585  0.83859041  0.84754930  1
  O  O24  1  0.22855415  0.15245070  0.16140959  1
  O  O25  1  0.24999454  0.39563173  0.14562794  1
  O  O26  1  0.77144585  0.84754930  0.83859041  1
  O  O27  1  0.97623918  0.17402902  0.65026665  1
loop_
_geom_bond_atom_site_label_1
_geom_bond_atom_site_label_2
_geom_bond_distance
_geom_bond_site_symmetry_2
Ce0 O20 2.508522 1_555
Ce0 O11 2.508748 1_545
Ce0 O18 2.511346 1_555
Ce0 O7 2.511424 1_545
Ce0 O24 2.633524 1_555
Ce0 O2 2.633754 1_555
Ce0 S4 2.934706 1_445
Ce0 S8 2.958676 1_555
Ce0 S1 2.958794 1_555
Ce1 O22 2.420509 1_555
Ce1 O10 2.552928 1_555
Ce1 O12 2.553057 1_555
Ce1 S9 2.867994 1_555
Ce1 S1 2.874914 1_565
Ce1 S0 2.875324 1_555
Ce1 S10 3.457377 1_554
Ce1 S6 3.457724 1_555
Ce2 O7 2.420509 1_555
Ce2 O6 2.552928 1_455
Ce2 O11 2.553057 1_555
Ce2 S9 2.867994 1_555
Ce2 S10 2.874914 1_554
Ce2 S7 2.875324 1_455
Ce2 S1 3.457377 1_565
Ce2 S3 3.457724 1_455
Ce3 O5 2.508629 1_555
Ce3 O2 2.508629 1_555
Ce3 O4 2.511388 1_555
Ce3 O27 2.511388 1_455
Ce3 O20 2.633224 1_555
Ce3 O8 2.633224 1_555
Ce3 S5 2.935109 1_555
Ce3 S2 2.958411 1_555
Ce3 S8 2.958411 1_555
Ce4 O27 2.420509 1_555
Ce4 O5 2.552928 1_655
Ce4 O19 2.553057 1_555
Ce4 S11 2.867994 1_555
Ce4 S7 2.874914 1_556
Ce4 S10 2.875324 1_655
Ce4 S0 3.457377 1_545
Ce4 S2 3.457724 1_655
Ce5 O1 2.420366 1_555
Ce5 O16 2.553045 1_555
Ce5 O23 2.553192 1_655
Ce5 S11 2.867901 1_555
Ce5 S3 2.875065 1_555
Ce5 S2 2.875473 1_655
Ce5 S6 3.457112 1_555
Ce5 S10 3.457816 1_655
Ce6 O24 2.508509 1_565
Ce6 O23 2.508509 1_554
Ce6 O1 2.511267 1_454
Ce6 O14 2.511267 1_565
Ce6 O12 2.633129 1_555
Ce6 O11 2.633129 1_555
Ce6 S5 2.934797 1_564
Ce6 S1 2.958493 1_565
Ce6 S10 2.958493 1_554
Ce7 O26 2.508509 1_545
Ce7 O3 2.508509 1_556
Ce7 O18 2.511267 1_656
Ce7 O13 2.511267 1_545
Ce7 O17 2.633129 1_555
Ce7 O19 2.633129 1_555
Ce7 S4 2.934797 1_546
Ce7 S0 2.958493 1_545
Ce7 S7 2.958493 1_556
Ce8 O13 2.420366 1_555
Ce8 O8 2.553045 1_555
Ce8 O26 2.553192 1_555
Ce8 S9 2.867901 1_555
Ce8 S8 2.875065 1_555
Ce8 S6 2.875473 1_555
Ce8 S2 3.457112 1_555
Ce8 S0 3.457816 1_555
Ce9 O9 2.508522 1_555
Ce9 O17 2.508748 1_554
Ce9 O14 2.511346 1_555
Ce9 O4 2.511424 1_554
Ce9 O3 2.633524 1_555
Ce9 O6 2.633754 1_555
Ce9 S5 2.934706 1_554
Ce9 S3 2.958676 1_555
Ce9 S7 2.958794 1_555
Ce10 O16 2.508522 1_555
Ce10 O19 2.508748 1_565
Ce10 O1 2.511346 1_555
Ce10 O27 2.511424 1_565
Ce10 O26 2.633524 1_555
Ce10 O10 2.633754 1_555
Ce10 S5 2.934706 1_665
Ce10 S6 2.958676 1_555
Ce10 S0 2.958794 1_555
Ce11 O6 2.508629 1_555
Ce11 O10 2.508629 1_555
Ce11 O22 2.511388 1_555
Ce11 O7 2.511388 1_655
Ce11 O16 2.633224 1_555
Ce11 O9 2.633224 1_555
Ce11 S4 2.935109 1_555
Ce11 S3 2.958411 1_555
Ce11 S6 2.958411 1_555
Ce12 O14 2.420366 1_555
Ce12 O9 2.553045 1_555
Ce12 O24 2.553192 1_555
Ce12 S11 2.867901 1_555
Ce12 S6 2.875065 1_555
Ce12 S8 2.875473 1_555
Ce12 S3 3.457112 1_555
Ce12 S1 3.457816 1_555
Ce13 O8 2.508522 1_555
Ce13 O12 2.508748 1_556
Ce13 O13 2.511346 1_555
Ce13 O22 2.511424 1_556
Ce13 O23 2.633524 1_555
Ce13 O5 2.633754 1_555
Ce13 S4 2.934706 1_556
Ce13 S2 2.958676 1_555
Ce13 S10 2.958794 1_555
Ce14 O18 2.420366 1_555
Ce14 O20 2.553045 1_555
Ce14 O3 2.553192 1_455
Ce14 S9 2.867901 1_555
Ce14 S2 2.875065 1_555
Ce14 S3 2.875473 1_455
Ce14 S8 3.457112 1_555
Ce14 S7 3.457816 1_455
Ce15 O4 2.420509 1_555
Ce15 O2 2.552928 1_555
Ce15 O17 2.553057 1_555
Ce15 S11 2.867994 1_555
Ce15 S0 2.874914 1_545
Ce15 S1 2.875324 1_555
Ce15 S7 3.457377 1_556
Ce15 S8 3.457724 1_555
O0 Si7 1.648630 1_555
O0 Si2 1.648819 1_555
O1 Si5 1.657938 1_555
O2 Si7 1.640472 1_545
O3 Si6 1.640483 1_555
O4 Si1 1.658029 1_555
O5 Si0 1.640472 1_556
O6 Si1 1.640472 1_554
O7 Si7 1.658029 1_555
O8 Si1 1.639755 1_555
O9 Si0 1.639755 1_555
O10 Si4 1.640472 1_565
O11 Si5 1.639661 1_454
O12 Si6 1.639661 1_565
O13 Si2 1.657938 1_555
O14 Si6 1.657938 1_555
O15 Si4 1.648630 1_555
O15 Si6 1.648819 1_555
O16 Si7 1.639755 1_655
O17 Si2 1.639661 1_545
O18 Si3 1.657938 1_555
O19 Si3 1.639661 1_656
O20 Si4 1.639755 1_455
O21 Si1 1.648630 1_555
O21 Si5 1.648819 1_555
O22 Si0 1.658029 1_555
O23 Si2 1.640483 1_555
O24 Si3 1.640483 1_555
O25 Si0 1.648630 1_555
O25 Si3 1.648819 1_555
O26 Si5 1.640483 1_555
O27 Si4 1.658029 1_555
