# generated using pymatgen
data_Na5CrP2(O4F)2
_symmetry_space_group_name_H-M   'P 1'
_cell_length_a   10.71576190
_cell_length_b   10.71576190
_cell_length_c   6.76644900
_cell_angle_alpha   90.00000000
_cell_angle_beta   90.00000000
_cell_angle_gamma   119.99999940
_symmetry_Int_Tables_number   1
_chemical_formula_structural   Na5CrP2(O4F)2
_chemical_formula_sum   'Na15 Cr3 P6 O24 F6'
_cell_volume   672.87990354
_cell_formula_units_Z   3
loop_
 _symmetry_equiv_pos_site_id
 _symmetry_equiv_pos_as_xyz
  1  'x, y, z'
loop_
 _atom_site_type_symbol
 _atom_site_label
 _atom_site_symmetry_multiplicity
 _atom_site_fract_x
 _atom_site_fract_y
 _atom_site_fract_z
 _atom_site_occupancy
  Na  Na0  1  0.66666700  0.33333300  0.57265000  1
  Na  Na1  1  0.00000000  0.00000000  0.50000000  1
  Na  Na2  1  0.33333300  0.66666700  0.42735000  1
  Na  Na3  1  0.66666700  0.33333300  0.01569100  1
  Na  Na4  1  0.17180300  0.85581900  0.23989700  1
  Na  Na5  1  0.31598400  0.17180300  0.76010300  1
  Na  Na6  1  0.50000000  0.50000000  0.50000000  1
  Na  Na7  1  0.14418100  0.31598400  0.23989700  1
  Na  Na8  1  0.82819700  0.14418100  0.76010300  1
  Na  Na9  1  0.68401600  0.82819700  0.23989700  1
  Na  Na10  1  0.50000000  0.00000000  0.50000000  1
  Na  Na11  1  0.33333300  0.66666700  0.98430900  1
  Na  Na12  1  0.00000000  0.00000000  0.00000000  1
  Na  Na13  1  0.85581900  0.68401600  0.76010300  1
  Na  Na14  1  0.00000000  0.50000000  0.50000000  1
  Cr  Cr0  1  0.00000000  0.50000000  0.00000000  1
  Cr  Cr1  1  0.50000000  0.50000000  0.00000000  1
  Cr  Cr2  1  0.50000000  0.00000000  0.00000000  1
  P  P0  1  0.81416000  0.18273900  0.25068500  1
  P  P1  1  0.81726100  0.63142100  0.25068500  1
  P  P2  1  0.36857900  0.18584000  0.25068500  1
  P  P3  1  0.18273900  0.36857900  0.74931500  1
  P  P4  1  0.63142100  0.81416000  0.74931500  1
  P  P5  1  0.18584000  0.81726100  0.74931500  1
  O  O0  1  0.74028600  0.17091400  0.44989900  1
  O  O1  1  0.42247700  0.07510400  0.21207500  1
  O  O2  1  0.82908600  0.56937200  0.44989900  1
  O  O3  1  0.34737300  0.42247700  0.78792500  1
  O  O4  1  0.89299800  0.09497400  0.24561900  1
  O  O5  1  0.17091400  0.43062800  0.55010100  1
  O  O6  1  0.25971400  0.82908600  0.55010100  1
  O  O7  1  0.79802300  0.89299800  0.75438100  1
  O  O8  1  0.43062800  0.25971400  0.44989900  1
  O  O9  1  0.56681600  0.70391600  0.92591800  1
  O  O10  1  0.43318400  0.29608400  0.07408200  1
  O  O11  1  0.56937200  0.74028600  0.55010100  1
  O  O12  1  0.70391600  0.13710100  0.07408200  1
  O  O13  1  0.65262700  0.57752300  0.21207500  1
  O  O14  1  0.92489600  0.34737300  0.21207500  1
  O  O15  1  0.57752300  0.92489600  0.78792500  1
  O  O16  1  0.90502600  0.79802300  0.24561900  1
  O  O17  1  0.86289900  0.56681600  0.07408200  1
  O  O18  1  0.10700200  0.90502600  0.75438100  1
  O  O19  1  0.07510400  0.65262700  0.78792500  1
  O  O20  1  0.09497400  0.20197700  0.75438100  1
  O  O21  1  0.13710100  0.43318400  0.92591800  1
  O  O22  1  0.29608400  0.86289900  0.92591800  1
  O  O23  1  0.20197700  0.10700200  0.24561900  1
  F  F0  1  0.62276400  0.48141100  0.79845800  1
  F  F1  1  0.37723600  0.51858900  0.20154200  1
  F  F2  1  0.85864600  0.37723600  0.79845800  1
  F  F3  1  0.48141100  0.85864600  0.20154200  1
  F  F4  1  0.51858900  0.14135400  0.79845800  1
  F  F5  1  0.14135400  0.62276400  0.20154200  1
loop_
_geom_bond_atom_site_label_1
_geom_bond_atom_site_label_2
_geom_bond_distance
_geom_bond_site_symmetry_2
Na0 O0 2.390474 1_555
Na0 O2 2.390481 1_555
Na0 O8 2.390483 1_555
Na1 O4 2.545606 1_455
Na1 O18 2.545606 1_545
Na1 O7 2.545612 1_445
Na1 O23 2.545612 1_555
Na1 O16 2.545613 1_445
Na1 O20 2.545613 1_555
Na2 O6 2.390474 1_555
Na2 O5 2.390481 1_555
Na2 O11 2.390483 1_555
Na3 O12 2.361444 1_555
Na3 O17 2.361457 1_555
Na3 O10 2.361464 1_555
Na4 O6 2.375934 1_555
Na4 O22 2.488356 1_554
Na4 O1 2.541759 1_565
Na4 O23 2.545692 1_565
Na4 O16 2.605159 1_455
Na5 O8 2.375934 1_555
Na5 O10 2.488353 1_556
Na5 O3 2.541759 1_555
Na5 O20 2.545703 1_555
Na5 O18 2.605163 1_545
Na6 O8 2.320193 1_555
Na6 O11 2.320193 1_555
Na6 O3 2.408723 1_555
Na6 O13 2.408723 1_555
Na7 O5 2.375934 1_555
Na7 O21 2.488350 1_554
Na7 O14 2.541759 1_455
Na7 O4 2.545697 1_455
Na7 O23 2.605170 1_555
Na8 O0 2.375934 1_555
Na8 O12 2.488356 1_556
Na8 O15 2.541759 1_545
Na8 O7 2.545692 1_545
Na8 O20 2.605159 1_655
Na9 O11 2.375934 1_555
Na9 O9 2.488353 1_554
Na9 O13 2.541759 1_555
Na9 O16 2.545703 1_555
Na9 O4 2.605163 1_565
Na10 O6 2.320193 1_545
Na10 O0 2.320193 1_555
Na10 O15 2.408723 1_545
Na10 O1 2.408723 1_555
Na11 O22 2.361444 1_555
Na11 O21 2.361457 1_555
Na11 O9 2.361464 1_555
Na12 O4 2.505898 1_455
Na12 O18 2.505898 1_544
Na12 O23 2.505905 1_555
Na12 O7 2.505905 1_444
Na12 O16 2.505905 1_445
Na12 O20 2.505905 1_554
Na13 O2 2.375934 1_555
Na13 O17 2.488350 1_556
Na13 O19 2.541759 1_655
Na13 O18 2.545697 1_655
Na13 O7 2.605170 1_555
Na14 O5 2.320193 1_555
Na14 O2 2.320193 1_455
Na14 O19 2.408723 1_555
Na14 O14 2.408723 1_455
Cr0 F2 1.972828 1_454
Cr0 F5 1.972828 1_555
Cr0 O21 1.993531 1_554
Cr0 O17 1.993531 1_455
Cr0 O19 2.016323 1_554
Cr0 O14 2.016323 1_455
Cr1 F1 1.972823 1_555
Cr1 F0 1.972823 1_554
Cr1 O9 1.993521 1_554
Cr1 O10 1.993521 1_555
Cr1 O13 2.016323 1_555
Cr1 O3 2.016323 1_554
Cr2 F3 1.972831 1_545
Cr2 F4 1.972831 1_554
Cr2 O22 1.993524 1_544
Cr2 O12 1.993524 1_555
Cr2 O15 2.016323 1_544
Cr2 O1 2.016323 1_555
O0 P0 1.536044 1_555
O1 P2 1.579632 1_555
O2 P1 1.536044 1_555
O3 P3 1.579632 1_555
O4 P0 1.547216 1_555
O5 P3 1.536044 1_555
O6 P5 1.536044 1_555
O7 P4 1.547206 1_555
O8 P2 1.536044 1_555
O9 P4 1.576382 1_555
O10 P2 1.576382 1_555
O11 P4 1.536044 1_555
O12 P0 1.576383 1_555
O13 P1 1.579632 1_555
O14 P0 1.579632 1_555
O15 P4 1.579632 1_555
O16 P1 1.547206 1_555
O17 P1 1.576376 1_555
O18 P5 1.547216 1_555
O19 P5 1.579632 1_555
O20 P3 1.547206 1_555
O21 P3 1.576376 1_555
O22 P5 1.576383 1_555
O23 P2 1.547206 1_555
F0 Na13 2.365536 1_555
F0 Na3 2.376186 1_556
F0 Na0 2.412509 1_555
F0 Na6 2.471977 1_555
F1 Na7 2.365536 1_555
F1 Na11 2.376186 1_554
F1 Na2 2.412509 1_555
F1 Na6 2.471977 1_555
F2 Na8 2.365541 1_555
F2 Na3 2.376169 1_556
F2 Na0 2.412492 1_555
F2 Na14 2.471981 1_655
F3 Na9 2.365530 1_555
F3 Na11 2.376174 1_554
F3 Na2 2.412497 1_555
F3 Na10 2.471983 1_565
F4 Na5 2.365530 1_555
F4 Na3 2.376174 1_556
F4 Na0 2.412497 1_555
F4 Na10 2.471983 1_555
F5 Na4 2.365541 1_555
F5 Na11 2.376169 1_554
F5 Na2 2.412492 1_555
F5 Na14 2.471981 1_555
