# generated using pymatgen
data_VPO5
_symmetry_space_group_name_H-M   'P 1'
_cell_length_a   9.37609000
_cell_length_b   9.37609000
_cell_length_c   8.74594000
_cell_angle_alpha   90.00000000
_cell_angle_beta   90.00000000
_cell_angle_gamma   90.00000000
_symmetry_Int_Tables_number   1
_chemical_formula_structural   VPO5
_chemical_formula_sum   'V8 P8 O40'
_cell_volume   768.86488835
_cell_formula_units_Z   8
loop_
 _symmetry_equiv_pos_site_id
 _symmetry_equiv_pos_as_xyz
  1  'x, y, z'
loop_
 _atom_site_type_symbol
 _atom_site_label
 _atom_site_symmetry_multiplicity
 _atom_site_fract_x
 _atom_site_fract_y
 _atom_site_fract_z
 _atom_site_occupancy
  V  V0  1  0.58619400  0.24974200  0.00000000  1
  V  V1  1  0.91380600  0.74974200  0.00000000  1
  V  V2  1  0.75025800  0.58619400  0.50000000  1
  V  V3  1  0.25025800  0.91380600  0.50000000  1
  V  V4  1  0.41380600  0.75025800  0.00000000  1
  V  V5  1  0.08619400  0.25025800  0.00000000  1
  V  V6  1  0.74974200  0.08619400  0.50000000  1
  V  V7  1  0.24974200  0.41380600  0.50000000  1
  P  P0  1  0.00000000  0.00000000  0.75000000  1
  P  P1  1  0.50000000  0.00000000  0.25000000  1
  P  P2  1  0.00000000  0.50000000  0.25000000  1
  P  P3  1  0.00000000  0.50000000  0.75000000  1
  P  P4  1  0.00000000  0.00000000  0.25000000  1
  P  P5  1  0.50000000  0.50000000  0.25000000  1
  P  P6  1  0.50000000  0.50000000  0.75000000  1
  P  P7  1  0.50000000  0.00000000  0.75000000  1
  O  O0  1  0.25222500  0.80564100  0.00000000  1
  O  O1  1  0.80564100  0.74777500  0.50000000  1
  O  O2  1  0.08857400  0.10246300  0.14994100  1
  O  O3  1  0.58857400  0.39753700  0.85005900  1
  O  O4  1  0.41142600  0.60246300  0.14994100  1
  O  O5  1  0.19435900  0.25222500  0.50000000  1
  O  O6  1  0.89753700  0.08857400  0.35005900  1
  O  O7  1  0.36486600  0.00440100  0.35010600  1
  O  O8  1  0.00440100  0.63513400  0.85010600  1
  O  O9  1  0.10246300  0.91142600  0.35005900  1
  O  O10  1  0.24777500  0.30564100  0.00000000  1
  O  O11  1  0.10246300  0.91142600  0.64994100  1
  O  O12  1  0.63513400  0.99559900  0.35010600  1
  O  O13  1  0.60246300  0.58857400  0.35005900  1
  O  O14  1  0.39753700  0.41142600  0.35005900  1
  O  O15  1  0.30564100  0.75222500  0.50000000  1
  O  O16  1  0.69435900  0.24777500  0.50000000  1
  O  O17  1  0.36486600  0.00440100  0.64989400  1
  O  O18  1  0.49559900  0.13513400  0.85010600  1
  O  O19  1  0.63513400  0.99559900  0.64989400  1
  O  O20  1  0.86486600  0.49559900  0.64989400  1
  O  O21  1  0.39753700  0.41142600  0.64994100  1
  O  O22  1  0.91142600  0.89753700  0.85005900  1
  O  O23  1  0.13513400  0.50440100  0.35010600  1
  O  O24  1  0.86486600  0.49559900  0.35010600  1
  O  O25  1  0.91142600  0.89753700  0.14994100  1
  O  O26  1  0.00440100  0.63513400  0.14989400  1
  O  O27  1  0.08857400  0.10246300  0.85005900  1
  O  O28  1  0.41142600  0.60246300  0.85005900  1
  O  O29  1  0.50440100  0.86486600  0.14989400  1
  O  O30  1  0.75222500  0.69435900  0.00000000  1
  O  O31  1  0.49559900  0.13513400  0.14989400  1
  O  O32  1  0.89753700  0.08857400  0.64994100  1
  O  O33  1  0.60246300  0.58857400  0.64994100  1
  O  O34  1  0.99559900  0.36486600  0.85010600  1
  O  O35  1  0.99559900  0.36486600  0.14989400  1
  O  O36  1  0.50440100  0.86486600  0.85010600  1
  O  O37  1  0.13513400  0.50440100  0.64989400  1
  O  O38  1  0.74777500  0.19435900  0.00000000  1
  O  O39  1  0.58857400  0.39753700  0.14994100  1
loop_
_geom_bond_atom_site_label_1
_geom_bond_atom_site_label_2
_geom_bond_distance
_geom_bond_site_symmetry_2
O0 V4 1.601520 1_555
O1 V2 1.601520 1_555
O2 P4 1.542226 1_555
O2 V5 1.908003 1_555
O3 P6 1.542226 1_555
O3 V0 1.908003 1_556
O4 P5 1.542226 1_555
O4 V4 1.908003 1_555
O5 V7 1.601520 1_555
O6 P4 1.542226 1_655
O6 V6 1.908003 1_555
O7 P1 1.540650 1_555
O7 V3 1.896013 1_545
O8 P3 1.540650 1_555
O8 V1 1.896013 1_456
O9 P4 1.542226 1_565
O9 V3 1.908003 1_555
O10 V5 1.601520 1_555
O11 P0 1.542226 1_565
O11 V3 1.908003 1_555
O12 P1 1.540650 1_565
O12 V6 1.896013 1_565
O13 P5 1.542226 1_555
O13 V2 1.908003 1_555
O14 P5 1.542226 1_555
O14 V7 1.908003 1_555
O15 V3 1.601520 1_555
O16 V6 1.601520 1_555
O17 P7 1.540650 1_555
O17 V3 1.896013 1_545
O18 P7 1.540650 1_555
O18 V0 1.896013 1_556
O19 P7 1.540650 1_565
O19 V6 1.896013 1_565
O20 P3 1.540650 1_655
O20 V2 1.896013 1_555
O21 P6 1.542226 1_555
O21 V7 1.908003 1_555
O22 P0 1.542226 1_665
O22 V1 1.908003 1_556
O23 P2 1.540650 1_555
O23 V7 1.896013 1_555
O24 P2 1.540650 1_655
O24 V2 1.896013 1_555
O25 P4 1.542226 1_665
O25 V1 1.908003 1_555
O26 P2 1.540650 1_555
O26 V1 1.896013 1_455
O27 P0 1.542226 1_555
O27 V5 1.908003 1_556
O28 P6 1.542226 1_555
O28 V4 1.908003 1_556
O29 P1 1.540650 1_565
O29 V4 1.896013 1_555
O30 V1 1.601520 1_555
O31 P1 1.540650 1_555
O31 V0 1.896013 1_555
O32 P0 1.542226 1_655
O32 V6 1.908003 1_555
O33 P6 1.542226 1_555
O33 V2 1.908003 1_555
O34 P3 1.540650 1_655
O34 V5 1.896013 1_656
O35 P2 1.540650 1_655
O35 V5 1.896013 1_655
O36 P7 1.540650 1_565
O36 V4 1.896013 1_556
O37 P3 1.540650 1_555
O37 V7 1.896013 1_555
O38 V0 1.601520 1_555
O39 P5 1.542226 1_555
O39 V0 1.908003 1_555
