# generated using pymatgen
data_Cr4P9O32
_symmetry_space_group_name_H-M   'P 1'
_cell_length_a   13.94349800
_cell_length_b   13.94349800
_cell_length_c   6.28832300
_cell_angle_alpha   90.00000000
_cell_angle_beta   90.00000000
_cell_angle_gamma   90.00000000
_symmetry_Int_Tables_number   1
_chemical_formula_structural   Cr4P9O32
_chemical_formula_sum   'Cr8 P18 O64'
_cell_volume   1222.58290419
_cell_formula_units_Z   2
loop_
 _symmetry_equiv_pos_site_id
 _symmetry_equiv_pos_as_xyz
  1  'x, y, z'
loop_
 _atom_site_type_symbol
 _atom_site_label
 _atom_site_symmetry_multiplicity
 _atom_site_fract_x
 _atom_site_fract_y
 _atom_site_fract_z
 _atom_site_occupancy
  Cr  Cr0  1  0.11730800  0.19521100  0.12166000  1
  Cr  Cr1  1  0.19521100  0.88269200  0.87834000  1
  Cr  Cr2  1  0.61730800  0.30478900  0.37834000  1
  Cr  Cr3  1  0.69521100  0.61730800  0.62166000  1
  Cr  Cr4  1  0.30478900  0.38269200  0.62166000  1
  Cr  Cr5  1  0.38269200  0.69521100  0.37834000  1
  Cr  Cr6  1  0.88269200  0.80478900  0.12166000  1
  Cr  Cr7  1  0.80478900  0.11730800  0.87834000  1
  P  P0  1  0.10814300  0.24943900  0.63241500  1
  P  P1  1  0.56062600  0.80021600  0.61373500  1
  P  P2  1  0.80021600  0.43937400  0.38626500  1
  P  P3  1  0.75056100  0.10814300  0.36758500  1
  P  P4  1  0.43937400  0.19978400  0.61373500  1
  P  P5  1  0.30021600  0.06062600  0.11373500  1
  P  P6  1  0.19978400  0.56062600  0.38626500  1
  P  P7  1  0.25056100  0.39185700  0.13241500  1
  P  P8  1  0.69978400  0.93937400  0.11373500  1
  P  P9  1  0.60814300  0.25056100  0.86758500  1
  P  P10  1  0.24943900  0.89185700  0.36758500  1
  P  P11  1  0.00000000  0.00000000  0.00000000  1
  P  P12  1  0.39185700  0.74943900  0.86758500  1
  P  P13  1  0.89185700  0.75056100  0.63241500  1
  P  P14  1  0.93937400  0.30021600  0.88626500  1
  P  P15  1  0.50000000  0.50000000  0.50000000  1
  P  P16  1  0.06062600  0.69978400  0.88626500  1
  P  P17  1  0.74943900  0.60814300  0.13241500  1
  O  O0  1  0.63390700  0.31793100  0.68150700  1
  O  O1  1  0.68206900  0.63390700  0.31849300  1
  O  O2  1  0.21909300  0.50098000  0.17000100  1
  O  O3  1  0.75008000  0.34270300  0.35448400  1
  O  O4  1  0.25007800  0.00618000  0.93018700  1
  O  O5  1  0.92965600  0.40679500  0.92197400  1
  O  O6  1  0.49382000  0.24992200  0.43018700  1
  O  O7  1  0.56525400  0.56430900  0.63977200  1
  O  O8  1  0.93474600  0.06430900  0.86022800  1
  O  O9  1  0.43569100  0.56525400  0.36022800  1
  O  O10  1  0.99382000  0.25007800  0.06981300  1
  O  O11  1  0.33037400  0.83934000  0.87722800  1
  O  O12  1  0.57034400  0.90679500  0.57802600  1
  O  O13  1  0.42965600  0.09320500  0.57802600  1
  O  O14  1  0.18206900  0.86609300  0.18150700  1
  O  O15  1  0.19313500  0.89405400  0.57489700  1
  O  O16  1  0.93569100  0.93474600  0.13977200  1
  O  O17  1  0.74992200  0.99382000  0.93018700  1
  O  O18  1  0.06525400  0.93569100  0.86022800  1
  O  O19  1  0.30686500  0.39405400  0.92510300  1
  O  O20  1  0.83934000  0.66962600  0.12277200  1
  O  O21  1  0.09320500  0.57034400  0.42197400  1
  O  O22  1  0.50098000  0.78090700  0.82999900  1
  O  O23  1  0.75007800  0.49382000  0.56981300  1
  O  O24  1  0.16962600  0.33934000  0.62277200  1
  O  O25  1  0.74992000  0.84270300  0.14551600  1
  O  O26  1  0.36609300  0.68206900  0.68150700  1
  O  O27  1  0.16066000  0.33037400  0.12277200  1
  O  O28  1  0.80686500  0.10594600  0.57489700  1
  O  O29  1  0.56430900  0.43474600  0.36022800  1
  O  O30  1  0.40679500  0.07034400  0.07802600  1
  O  O31  1  0.24992200  0.50618000  0.56981300  1
  O  O32  1  0.07034400  0.59320500  0.92197400  1
  O  O33  1  0.69313500  0.60594600  0.92510300  1
  O  O34  1  0.34270300  0.24992000  0.64551600  1
  O  O35  1  0.24992000  0.65729700  0.35448400  1
  O  O36  1  0.49902000  0.21909300  0.82999900  1
  O  O37  1  0.81793100  0.13390700  0.18150700  1
  O  O38  1  0.15729700  0.74992000  0.85448400  1
  O  O39  1  0.25008000  0.15729700  0.14551600  1
  O  O40  1  0.66066000  0.16962600  0.37722800  1
  O  O41  1  0.83037400  0.66066000  0.62277200  1
  O  O42  1  0.71909300  0.99902000  0.32999900  1
  O  O43  1  0.66962600  0.16066000  0.87722800  1
  O  O44  1  0.90679500  0.42965600  0.42197400  1
  O  O45  1  0.89405400  0.80686500  0.42510300  1
  O  O46  1  0.06430900  0.06525400  0.13977200  1
  O  O47  1  0.31793100  0.36609300  0.31849300  1
  O  O48  1  0.84270300  0.25008000  0.85448400  1
  O  O49  1  0.65729700  0.75008000  0.64551600  1
  O  O50  1  0.99902000  0.28090700  0.67000100  1
  O  O51  1  0.59320500  0.92965600  0.07802600  1
  O  O52  1  0.60594600  0.30686500  0.07489700  1
  O  O53  1  0.78090700  0.49902000  0.17000100  1
  O  O54  1  0.28090700  0.00098000  0.32999900  1
  O  O55  1  0.50618000  0.75007800  0.43018700  1
  O  O56  1  0.00618000  0.74992200  0.06981300  1
  O  O57  1  0.86609300  0.81793100  0.81849300  1
  O  O58  1  0.13390700  0.18206900  0.81849300  1
  O  O59  1  0.00098000  0.71909300  0.67000100  1
  O  O60  1  0.43474600  0.43569100  0.63977200  1
  O  O61  1  0.33934000  0.83037400  0.37722800  1
  O  O62  1  0.39405400  0.69313500  0.07489700  1
  O  O63  1  0.10594600  0.19313500  0.42510300  1
loop_
_geom_bond_atom_site_label_1
_geom_bond_atom_site_label_2
_geom_bond_distance
_geom_bond_site_symmetry_2
Cr0 O10 1.912162 1_455
Cr0 O63 1.914932 1_555
Cr0 O58 1.929133 1_554
Cr0 O39 1.931143 1_555
Cr0 O46 1.960261 1_555
Cr0 O27 1.979225 1_555
Cr1 O4 1.912162 1_565
Cr1 O15 1.914932 1_555
Cr1 O14 1.929133 1_556
Cr1 O38 1.931143 1_555
Cr1 O18 1.960261 1_555
Cr1 O11 1.979225 1_555
Cr2 O6 1.912162 1_555
Cr2 O52 1.914932 1_555
Cr2 O0 1.929133 1_555
Cr2 O3 1.931143 1_555
Cr2 O29 1.960261 1_555
Cr2 O40 1.979225 1_555
Cr3 O23 1.912162 1_555
Cr3 O33 1.914932 1_555
Cr3 O1 1.929133 1_555
Cr3 O49 1.931143 1_555
Cr3 O7 1.960261 1_555
Cr3 O41 1.979225 1_555
Cr4 O31 1.912162 1_555
Cr4 O19 1.914932 1_555
Cr4 O47 1.929133 1_555
Cr4 O34 1.931143 1_555
Cr4 O60 1.960261 1_555
Cr4 O24 1.979225 1_555
Cr5 O55 1.912162 1_555
Cr5 O62 1.914932 1_555
Cr5 O26 1.929133 1_555
Cr5 O35 1.931143 1_555
Cr5 O9 1.960261 1_555
Cr5 O61 1.979225 1_555
Cr6 O56 1.912162 1_655
Cr6 O45 1.914932 1_555
Cr6 O57 1.929133 1_554
Cr6 O25 1.931143 1_555
Cr6 O16 1.960261 1_555
Cr6 O20 1.979225 1_555
Cr7 O17 1.912162 1_545
Cr7 O28 1.914932 1_555
Cr7 O37 1.929133 1_556
Cr7 O48 1.931143 1_555
Cr7 O8 1.960261 1_555
Cr7 O43 1.979225 1_555
O0 P9 1.542937 1_555
O1 P17 1.542937 1_555
O2 P7 1.601099 1_555
O2 P6 1.616663 1_555
O3 P2 1.531522 1_555
O4 P5 1.548313 1_556
O5 P14 1.509049 1_555
O6 P4 1.548313 1_555
O7 P15 1.550626 1_555
O8 P11 1.550626 1_656
O9 P15 1.550626 1_555
O10 P14 1.548313 1_554
O11 P12 1.519858 1_555
O12 P1 1.509049 1_555
O13 P4 1.509049 1_555
O14 P10 1.542937 1_555
O15 P10 1.522094 1_555
O16 P11 1.550626 1_665
O17 P8 1.548313 1_556
O18 P11 1.550626 1_566
O19 P7 1.522094 1_556
O20 P17 1.519858 1_555
O21 P6 1.509049 1_555
O22 P12 1.601099 1_555
O22 P1 1.616663 1_555
O23 P2 1.548313 1_555
O24 P0 1.519858 1_555
O25 P8 1.531522 1_555
O26 P12 1.542937 1_555
O27 P7 1.519858 1_555
O28 P3 1.522094 1_555
O29 P15 1.550626 1_555
O30 P5 1.509049 1_555
O31 P6 1.548313 1_555
O32 P16 1.509049 1_555
O33 P17 1.522094 1_556
O34 P4 1.531522 1_555
O35 P6 1.531522 1_555
O36 P9 1.601099 1_555
O36 P4 1.616663 1_555
O37 P3 1.542937 1_555
O38 P16 1.531522 1_555
O39 P5 1.531522 1_555
O40 P3 1.519858 1_555
O41 P13 1.519858 1_555
O42 P3 1.601099 1_565
O42 P8 1.616663 1_555
O43 P9 1.519858 1_555
O44 P2 1.509049 1_555
O45 P13 1.522094 1_555
O46 P11 1.550626 1_555
O47 P7 1.542937 1_555
O48 P14 1.531522 1_555
O49 P1 1.531522 1_555
O50 P0 1.601099 1_655
O50 P14 1.616663 1_555
O51 P8 1.509049 1_555
O52 P9 1.522094 1_554
O53 P17 1.601099 1_555
O53 P2 1.616663 1_555
O54 P10 1.601099 1_545
O54 P5 1.616663 1_555
O55 P1 1.548313 1_555
O56 P16 1.548313 1_554
O57 P13 1.542937 1_555
O58 P0 1.542937 1_555
O59 P13 1.601099 1_455
O59 P16 1.616663 1_555
O60 P15 1.550626 1_555
O61 P10 1.519858 1_555
O62 P12 1.522094 1_554
O63 P0 1.522094 1_555
