# generated using pymatgen
data_ZrHg3(SeCl3)2
_symmetry_space_group_name_H-M   'P 1'
_cell_length_a   7.73230900
_cell_length_b   6.78593100
_cell_length_c   13.50368588
_cell_angle_alpha   88.23098035
_cell_angle_beta   90.00000000
_cell_angle_gamma   90.00000000
_symmetry_Int_Tables_number   1
_chemical_formula_structural   ZrHg3(SeCl3)2
_chemical_formula_sum   'Zr2 Hg6 Se4 Cl12'
_cell_volume   708.21306214
_cell_formula_units_Z   2
loop_
 _symmetry_equiv_pos_site_id
 _symmetry_equiv_pos_as_xyz
  1  'x, y, z'
loop_
 _atom_site_type_symbol
 _atom_site_label
 _atom_site_symmetry_multiplicity
 _atom_site_fract_x
 _atom_site_fract_y
 _atom_site_fract_z
 _atom_site_occupancy
  Zr  Zr0  1  0.50000000  0.50000000  0.50000000  1
  Zr  Zr1  1  0.00000000  0.50000000  0.00000000  1
  Hg  Hg0  1  0.29435800  0.00685200  0.73913700  1
  Hg  Hg1  1  0.79435800  0.99314800  0.76086300  1
  Hg  Hg2  1  0.20564200  0.00685200  0.23913700  1
  Hg  Hg3  1  0.50000000  0.00000000  0.00000000  1
  Hg  Hg4  1  0.70564200  0.99314800  0.26086300  1
  Hg  Hg5  1  0.00000000  0.00000000  0.50000000  1
  Se  Se0  1  0.46292200  0.82102400  0.16899000  1
  Se  Se1  1  0.96292200  0.17897600  0.33101000  1
  Se  Se2  1  0.03707800  0.82102400  0.66899000  1
  Se  Se3  1  0.53707800  0.17897600  0.83101000  1
  Cl  Cl0  1  0.35105600  0.80916800  0.44177100  1
  Cl  Cl1  1  0.22193500  0.36341500  0.56556700  1
  Cl  Cl2  1  0.05050300  0.35151100  0.83591700  1
  Cl  Cl3  1  0.27806500  0.36341500  0.06556700  1
  Cl  Cl4  1  0.77806500  0.63658500  0.43443300  1
  Cl  Cl5  1  0.14894400  0.80916800  0.94177100  1
  Cl  Cl6  1  0.44949700  0.35151100  0.33591700  1
  Cl  Cl7  1  0.85105600  0.19083200  0.05822900  1
  Cl  Cl8  1  0.94949700  0.64848900  0.16408300  1
  Cl  Cl9  1  0.55050300  0.64848900  0.66408300  1
  Cl  Cl10  1  0.64894400  0.19083200  0.55822900  1
  Cl  Cl11  1  0.72193500  0.63658500  0.93443300  1
loop_
_geom_bond_atom_site_label_1
_geom_bond_atom_site_label_2
_geom_bond_distance
_geom_bond_site_symmetry_2
Hg0 Se3 2.552492 1_555
Hg0 Se2 2.553187 1_545
Hg1 Se2 2.552492 1_655
Hg1 Se3 2.553187 1_565
Hg2 Se1 2.552492 1_455
Hg2 Se0 2.553187 1_545
Hg3 Se3 2.567802 1_554
Hg3 Se0 2.567802 1_545
Hg4 Se0 2.552492 1_555
Hg4 Se1 2.553187 1_565
Hg5 Se1 2.567802 1_455
Hg5 Se2 2.567802 1_545
Cl0 Zr0 2.498873 1_555
Cl1 Zr0 2.493027 1_555
Cl2 Zr1 2.493012 1_556
Cl3 Zr1 2.493027 1_555
Cl4 Zr0 2.493027 1_555
Cl5 Zr1 2.498873 1_556
Cl6 Zr0 2.493012 1_555
Cl7 Zr1 2.498873 1_655
Cl8 Zr1 2.493012 1_655
Cl9 Zr0 2.493012 1_555
Cl10 Zr0 2.498873 1_555
Cl11 Zr1 2.493027 1_656
