# generated using pymatgen
data_Ag3Te2Au
_symmetry_space_group_name_H-M   'P 1'
_cell_length_a   9.05928283
_cell_length_b   9.05928283
_cell_length_c   9.05928283
_cell_angle_alpha   109.47122063
_cell_angle_beta   109.47122063
_cell_angle_gamma   109.47122063
_symmetry_Int_Tables_number   1
_chemical_formula_structural   Ag3Te2Au
_chemical_formula_sum   'Ag12 Te8 Au4'
_cell_volume   572.34720275
_cell_formula_units_Z   4
loop_
 _symmetry_equiv_pos_site_id
 _symmetry_equiv_pos_as_xyz
  1  'x, y, z'
loop_
 _atom_site_type_symbol
 _atom_site_label
 _atom_site_symmetry_multiplicity
 _atom_site_fract_x
 _atom_site_fract_y
 _atom_site_fract_z
 _atom_site_occupancy
  Ag  Ag0  1  0.60816563  0.75000000  0.35816563  1
  Ag  Ag1  1  0.25000000  0.60816563  0.35816563  1
  Ag  Ag2  1  0.75000000  0.89183437  0.14183437  1
  Ag  Ag3  1  0.60816563  0.35816563  0.25000000  1
  Ag  Ag4  1  0.89183437  0.14183437  0.75000000  1
  Ag  Ag5  1  0.35816563  0.25000000  0.60816563  1
  Ag  Ag6  1  0.35816563  0.60816563  0.75000000  1
  Ag  Ag7  1  0.25000000  0.14183437  0.89183437  1
  Ag  Ag8  1  0.14183437  0.89183437  0.25000000  1
  Ag  Ag9  1  0.75000000  0.35816563  0.60816563  1
  Ag  Ag10  1  0.89183437  0.25000000  0.14183437  1
  Ag  Ag11  1  0.14183437  0.75000000  0.89183437  1
  Te  Te0  1  0.50000000  0.00000000  0.95946528  1
  Te  Te1  1  0.54053472  0.50000000  0.00000000  1
  Te  Te2  1  0.95946528  0.95946528  0.95946528  1
  Te  Te3  1  0.00000000  0.54053472  0.50000000  1
  Te  Te4  1  0.50000000  0.00000000  0.54053472  1
  Te  Te5  1  0.95946528  0.50000000  0.00000000  1
  Te  Te6  1  0.00000000  0.95946528  0.50000000  1
  Te  Te7  1  0.54053472  0.54053472  0.54053472  1
  Au  Au0  1  0.25000000  0.25000000  0.25000000  1
  Au  Au1  1  -0.00000000  0.25000000  0.50000000  1
  Au  Au2  1  0.25000000  0.50000000  0.00000000  1
  Au  Au3  1  0.50000000  0.00000000  0.25000000  1
loop_
_geom_bond_atom_site_label_1
_geom_bond_atom_site_label_2
_geom_bond_distance
_geom_bond_site_symmetry_2
Ag0 Te6 2.948836 1_655
Ag0 Te7 2.948836 1_555
Ag0 Te1 2.980514 1_555
Ag0 Te4 2.980514 1_565
Ag0 Au2 3.060844 1_555
Ag0 Au3 3.060844 1_565
Ag0 Ag1 3.065906 1_555
Ag0 Ag2 3.065906 1_555
Ag0 Ag4 3.352897 1_565
Ag0 Ag3 3.352897 1_555
Ag1 Te4 2.948836 1_565
Ag1 Te3 2.948836 1_555
Ag1 Te5 2.980514 1_455
Ag1 Te7 2.980514 1_555
Ag1 Au2 3.060844 1_555
Ag1 Au0 3.060844 1_555
Ag1 Ag10 3.065906 1_455
Ag1 Ag6 3.352897 1_555
Ag1 Ag8 3.352897 1_555
Ag2 Te1 2.948836 1_555
Ag2 Te2 2.948836 1_554
Ag2 Te6 2.980514 1_655
Ag2 Te0 2.980514 1_564
Ag2 Au1 3.060844 1_665
Ag2 Au3 3.060844 1_565
Ag2 Ag8 3.352897 1_655
Ag2 Ag6 3.352897 1_554
Ag3 Te1 2.948836 1_555
Ag3 Te3 2.948836 1_655
Ag3 Te7 2.980514 1_555
Ag3 Te0 2.980514 1_554
Ag3 Au3 3.060844 1_555
Ag3 Au0 3.060844 1_555
Ag3 Ag9 3.065906 1_555
Ag3 Ag7 3.065906 1_554
Ag4 Te2 2.948836 1_545
Ag4 Te4 2.948836 1_555
Ag4 Te5 2.980514 1_556
Ag4 Te6 2.980514 1_645
Ag4 Au1 3.060844 1_655
Ag4 Au2 3.060844 1_656
Ag4 Ag7 3.065906 1_655
Ag4 Ag9 3.065906 1_555
Ag5 Te4 2.948836 1_555
Ag5 Te1 2.948836 1_556
Ag5 Te6 2.980514 1_545
Ag5 Te7 2.980514 1_555
Ag5 Au1 3.060844 1_555
Ag5 Au0 3.060844 1_555
Ag5 Ag6 3.065906 1_555
Ag5 Ag8 3.065906 1_545
Ag5 Ag7 3.352897 1_555
Ag5 Ag9 3.352897 1_555
Ag6 Te7 2.948836 1_555
Ag6 Te0 2.948836 1_565
Ag6 Te3 2.980514 1_555
Ag6 Te1 2.980514 1_556
Ag6 Au1 3.060844 1_555
Ag6 Au2 3.060844 1_556
Ag7 Te6 2.948836 1_545
Ag7 Te0 2.948836 1_555
Ag7 Te1 2.980514 1_556
Ag7 Te2 2.980514 1_445
Ag7 Au2 3.060844 1_556
Ag7 Au0 3.060844 1_556
Ag8 Te6 2.948836 1_555
Ag8 Te5 2.948836 1_455
Ag8 Te2 2.980514 1_454
Ag8 Te4 2.980514 1_565
Ag8 Au3 3.060844 1_565
Ag8 Au0 3.060844 1_565
Ag9 Te7 2.948836 1_555
Ag9 Te5 2.948836 1_556
Ag9 Te3 2.980514 1_655
Ag9 Te4 2.980514 1_555
Ag9 Au1 3.060844 1_655
Ag9 Au3 3.060844 1_555
Ag10 Te0 2.948836 1_554
Ag10 Te5 2.948836 1_555
Ag10 Te2 2.980514 1_544
Ag10 Te3 2.980514 1_655
Ag10 Au1 3.060844 1_655
Ag10 Au0 3.060844 1_655
Ag10 Ag2 3.065906 1_545
Ag10 Ag4 3.352897 1_554
Ag10 Ag3 3.352897 1_555
Ag11 Te2 2.948836 1_455
Ag11 Te3 2.948836 1_555
Ag11 Te5 2.980514 1_456
Ag11 Te0 2.980514 1_565
Ag11 Au2 3.060844 1_556
Ag11 Au3 3.060844 1_566
Ag11 Ag6 3.065906 1_555
Ag11 Ag8 3.065906 1_556
Ag11 Ag7 3.352897 1_565
Ag11 Ag9 3.352897 1_455
Au0 Te2 2.632036 1_444
Au0 Te7 2.632036 1_555
Au1 Te3 2.632036 1_555
Au1 Te6 2.632036 1_545
Au2 Te1 2.632036 1_555
Au2 Te5 2.632036 1_455
Au3 Te4 2.632036 1_555
Au3 Te0 2.632036 1_554
