# generated using pymatgen
data_CdI2
_symmetry_space_group_name_H-M   'P 1'
_cell_length_a   4.28996995
_cell_length_b   4.28996995
_cell_length_c   57.58839862
_cell_angle_alpha   90.00000000
_cell_angle_beta   90.00000000
_cell_angle_gamma   120.00001091
_symmetry_Int_Tables_number   1
_chemical_formula_structural   CdI2
_chemical_formula_sum   'Cd8 I16'
_cell_volume   917.85501615
_cell_formula_units_Z   8
loop_
 _symmetry_equiv_pos_site_id
 _symmetry_equiv_pos_as_xyz
  1  'x, y, z'
loop_
 _atom_site_type_symbol
 _atom_site_label
 _atom_site_symmetry_multiplicity
 _atom_site_fract_x
 _atom_site_fract_y
 _atom_site_fract_z
 _atom_site_occupancy
  Cd  Cd0  1  0.00000000  -0.00000000  0.78120281  1
  Cd  Cd1  1  0.00000000  -0.00000000  0.40597474  1
  Cd  Cd2  1  0.00000000  -0.00000000  0.90629366  1
  Cd  Cd3  1  0.66666700  0.33333300  0.53130721  1
  Cd  Cd4  1  0.66666700  0.33333300  0.28163775  1
  Cd  Cd5  1  0.00000000  -0.00000000  0.15632086  1
  Cd  Cd6  1  0.66666700  0.33333300  0.03122724  1
  Cd  Cd7  1  0.66666700  0.33333300  0.65597074  1
  I  I0  1  0.33333300  0.66666700  0.81103028  1
  I  I1  1  0.33333300  0.66666700  0.56103502  1
  I  I2  1  0.66666700  0.33333300  0.12641861  1
  I  I3  1  0.00000000  -0.00000000  0.25173399  1
  I  I4  1  0.33333300  0.66666700  0.06102569  1
  I  I5  1  0.33333300  0.66666700  0.43576899  1
  I  I6  1  0.66666700  0.33333300  0.75140967  1
  I  I7  1  0.33333300  0.66666700  0.18622972  1
  I  I8  1  0.66666700  0.33333300  0.87642462  1
  I  I9  1  0.33333300  0.66666700  0.31155660  1
  I  I10  1  0.33333300  0.66666700  0.93620451  1
  I  I11  1  0.00000000  -0.00000000  0.50156814  1
  I  I12  1  0.66666700  0.33333300  0.37622305  1
  I  I13  1  0.00000000  -0.00000000  0.62621507  1
  I  I14  1  0.33333300  0.66666700  0.68574739  1
  I  I15  1  0.00000000  -0.00000000  0.00147264  1
loop_
_geom_bond_atom_site_label_1
_geom_bond_atom_site_label_2
_geom_bond_distance
_geom_bond_site_symmetry_2
Cd0 I6 3.013032 1_455
Cd0 I6 3.013035 1_445
Cd0 I6 3.013035 1_555
Cd0 I0 3.014159 1_545
Cd0 I0 3.014161 1_445
Cd0 I0 3.014161 1_555
Cd1 I12 3.011674 1_455
Cd1 I12 3.011676 1_555
Cd1 I12 3.011676 1_445
Cd1 I5 3.013069 1_545
Cd1 I5 3.013071 1_555
Cd1 I5 3.013071 1_445
Cd2 I8 3.015523 1_455
Cd2 I8 3.015526 1_555
Cd2 I8 3.015526 1_445
Cd2 I10 3.016898 1_545
Cd2 I10 3.016900 1_555
Cd2 I10 3.016900 1_445
Cd3 I1 3.010891 1_545
Cd3 I1 3.010891 1_655
Cd3 I1 3.010898 1_555
Cd3 I11 3.011260 1_655
Cd3 I11 3.011263 1_665
Cd3 I11 3.011263 1_555
Cd4 I3 3.016664 1_655
Cd4 I3 3.016667 1_665
Cd4 I3 3.016667 1_555
Cd4 I9 3.017160 1_545
Cd4 I9 3.017160 1_655
Cd4 I9 3.017167 1_555
Cd5 I2 3.016615 1_455
Cd5 I2 3.016617 1_445
Cd5 I2 3.016617 1_555
Cd5 I7 3.016832 1_545
Cd5 I7 3.016835 1_445
Cd5 I7 3.016835 1_555
Cd6 I15 3.011769 1_655
Cd6 I15 3.011772 1_555
Cd6 I15 3.011772 1_665
Cd6 I4 3.013206 1_545
Cd6 I4 3.013206 1_655
Cd6 I4 3.013213 1_555
Cd7 I13 3.011804 1_655
Cd7 I13 3.011807 1_665
Cd7 I13 3.011807 1_555
Cd7 I14 3.012491 1_545
Cd7 I14 3.012491 1_655
Cd7 I14 3.012498 1_555
