# generated using pymatgen
data_CaCuAsHO5
_symmetry_space_group_name_H-M   'P 1'
_cell_length_a   5.88755800
_cell_length_b   7.43266400
_cell_length_c   9.49257000
_cell_angle_alpha   90.00000000
_cell_angle_beta   90.00000000
_cell_angle_gamma   90.00000000
_symmetry_Int_Tables_number   1
_chemical_formula_structural   CaCuAsHO5
_chemical_formula_sum   'Ca4 Cu4 As4 H4 O20'
_cell_volume   415.39714516
_cell_formula_units_Z   4
loop_
 _symmetry_equiv_pos_site_id
 _symmetry_equiv_pos_as_xyz
  1  'x, y, z'
loop_
 _atom_site_type_symbol
 _atom_site_label
 _atom_site_symmetry_multiplicity
 _atom_site_fract_x
 _atom_site_fract_y
 _atom_site_fract_z
 _atom_site_occupancy
  Ca  Ca0  1  0.02002000  0.13315500  0.67918900  1
  Ca  Ca1  1  0.52002000  0.36684500  0.32081100  1
  Ca  Ca2  1  0.97998000  0.63315500  0.82081100  1
  Ca  Ca3  1  0.47998000  0.86684500  0.17918900  1
  Cu  Cu0  1  0.75142900  0.75336800  0.50077200  1
  Cu  Cu1  1  0.25142900  0.74663200  0.49922800  1
  Cu  Cu2  1  0.24857100  0.25336800  0.99922800  1
  Cu  Cu3  1  0.74857100  0.24663200  0.00077200  1
  As  As0  1  0.48543100  0.38133800  0.66353600  1
  As  As1  1  0.98543100  0.11866200  0.33646400  1
  As  As2  1  0.51456900  0.88133800  0.83646400  1
  As  As3  1  0.01456900  0.61866200  0.16353600  1
  H  H0  1  0.48911200  0.00871500  0.48333600  1
  H  H1  1  0.98911200  0.49128500  0.51666400  1
  H  H2  1  0.51088800  0.50871500  0.01666400  1
  H  H3  1  0.01088800  0.99128500  0.98333600  1
  O  O0  1  0.50471800  0.56209300  0.54184300  1
  O  O1  1  0.00471800  0.93790700  0.45815700  1
  O  O2  1  0.49528200  0.06209300  0.95815700  1
  O  O3  1  0.99528200  0.43790700  0.04184300  1
  O  O4  1  0.41565600  0.20693200  0.55263700  1
  O  O5  1  0.91565600  0.29306800  0.44736300  1
  O  O6  1  0.58434400  0.70693200  0.94736300  1
  O  O7  1  0.08434400  0.79306800  0.05263700  1
  O  O8  1  0.25468500  0.39861200  0.77390600  1
  O  O9  1  0.75468500  0.10138800  0.22609400  1
  O  O10  1  0.74531500  0.89861200  0.72609400  1
  O  O11  1  0.24531500  0.60138800  0.27390600  1
  O  O12  1  0.73815000  0.36294700  0.75212900  1
  O  O13  1  0.23815000  0.13705300  0.24787100  1
  O  O14  1  0.26185000  0.86294700  0.74787100  1
  O  O15  1  0.76185000  0.63705300  0.25212900  1
  O  O16  1  0.49914800  0.89043800  0.43288200  1
  O  O17  1  0.99914800  0.60956200  0.56711800  1
  O  O18  1  0.50085200  0.39043800  0.06711800  1
  O  O19  1  0.00085200  0.10956200  0.93288200  1
loop_
_geom_bond_atom_site_label_1
_geom_bond_atom_site_label_2
_geom_bond_distance
_geom_bond_site_symmetry_2
Ca0 O19 2.417211 1_555
Ca0 O10 2.419311 1_445
Ca0 O12 2.480036 1_455
Ca0 O14 2.546717 1_545
Ca0 O1 2.552727 1_545
Ca0 O8 2.571023 1_555
Ca0 O5 2.575465 1_455
Ca0 O4 2.677612 1_555
Ca1 O18 2.417211 1_555
Ca1 O11 2.419311 1_555
Ca1 O13 2.480036 1_555
Ca1 O15 2.546717 1_555
Ca1 O0 2.552727 1_555
Ca1 O9 2.571023 1_555
Ca1 O4 2.575465 1_555
Ca1 O5 2.677612 1_555
Ca2 O17 2.417211 1_555
Ca2 O8 2.419311 1_655
Ca2 O14 2.480036 1_655
Ca2 O12 2.546717 1_555
Ca2 O3 2.552727 1_556
Ca2 O10 2.571023 1_555
Ca2 O7 2.575465 1_656
Ca2 O6 2.677612 1_555
Ca3 O16 2.417211 1_555
Ca3 O9 2.419311 1_565
Ca3 O15 2.480036 1_555
Ca3 O13 2.546717 1_565
Ca3 O2 2.552727 1_564
Ca3 O11 2.571023 1_555
Ca3 O6 2.575465 1_554
Ca3 O7 2.677612 1_555
Cu0 O16 1.912964 1_555
Cu0 O17 1.914735 1_555
Cu0 O1 2.066110 1_655
Cu0 O0 2.069543 1_555
Cu0 O10 2.396154 1_555
Cu0 O15 2.514361 1_555
Cu1 O17 1.912964 1_455
Cu1 O16 1.914735 1_555
Cu1 O0 2.066110 1_555
Cu1 O1 2.069543 1_555
Cu1 O11 2.396154 1_555
Cu1 O14 2.514361 1_555
Cu2 O18 1.912964 1_556
Cu2 O19 1.914735 1_555
Cu2 O3 2.066110 1_456
Cu2 O2 2.069543 1_555
Cu2 O8 2.396154 1_555
Cu2 O13 2.514361 1_556
Cu3 O19 1.912964 1_654
Cu3 O18 1.914735 1_555
Cu3 O2 2.066110 1_554
Cu3 O3 2.069543 1_555
Cu3 O9 2.396154 1_555
Cu3 O12 2.514361 1_554
As0 O12 1.714574 1_555
As0 O4 1.719700 1_555
As0 O8 1.720394 1_555
As0 O0 1.775472 1_555
As1 O13 1.714574 1_655
As1 O5 1.719700 1_555
As1 O9 1.720394 1_555
As1 O1 1.775472 1_645
As2 O14 1.714574 1_555
As2 O6 1.719700 1_555
As2 O10 1.720394 1_555
As2 O2 1.775472 1_565
As3 O15 1.714574 1_455
As3 O7 1.719700 1_555
As3 O11 1.720394 1_555
As3 O3 1.775472 1_455
H0 O16 1.002852 1_545
H0 O4 1.670434 1_555
H1 O17 1.002852 1_555
H1 O5 1.670434 1_555
H2 O18 1.002852 1_555
H2 O6 1.670434 1_554
H3 O19 1.002852 1_565
H3 O7 1.670434 1_556
