# generated using pymatgen
data_KEr2F7
_symmetry_space_group_name_H-M   'P 1'
_cell_length_a   7.68503260
_cell_length_b   11.65259235
_cell_length_c   13.13659529
_cell_angle_alpha   90.00000000
_cell_angle_beta   90.00000000
_cell_angle_gamma   90.00000000
_symmetry_Int_Tables_number   1
_chemical_formula_structural   KEr2F7
_chemical_formula_sum   'K8 Er16 F56'
_cell_volume   1176.38936073
_cell_formula_units_Z   8
loop_
 _symmetry_equiv_pos_site_id
 _symmetry_equiv_pos_as_xyz
  1  'x, y, z'
loop_
 _atom_site_type_symbol
 _atom_site_label
 _atom_site_symmetry_multiplicity
 _atom_site_fract_x
 _atom_site_fract_y
 _atom_site_fract_z
 _atom_site_occupancy
  K  K0  1  0.25000000  0.91496750  0.90495138  1
  K  K1  1  0.75000000  0.43355511  0.06668806  1
  K  K2  1  0.75000000  0.58503250  0.40495138  1
  K  K3  1  0.25000000  0.41496750  0.59504862  1
  K  K4  1  0.25000000  0.56644489  0.93331194  1
  K  K5  1  0.25000000  0.06644489  0.56668806  1
  K  K6  1  0.75000000  0.93355511  0.43331194  1
  K  K7  1  0.75000000  0.08503250  0.09504862  1
  Er  Er0  1  0.47596167  0.74371811  0.66268130  1
  Er  Er1  1  0.25000000  0.50692873  0.24174564  1
  Er  Er2  1  0.75000000  0.49307127  0.75825436  1
  Er  Er3  1  0.97596167  0.25628189  0.33731870  1
  Er  Er4  1  0.25000000  0.20964891  0.06264145  1
  Er  Er5  1  0.75000000  0.99307127  0.74174564  1
  Er  Er6  1  0.52403833  0.25628189  0.33731870  1
  Er  Er7  1  0.52403833  0.75628189  0.16268130  1
  Er  Er8  1  0.75000000  0.29035109  0.56264145  1
  Er  Er9  1  0.75000000  0.79035109  0.93735855  1
  Er  Er10  1  0.25000000  0.70964891  0.43735855  1
  Er  Er11  1  0.47596167  0.24371811  0.83731870  1
  Er  Er12  1  0.25000000  0.00692873  0.25825436  1
  Er  Er13  1  0.02403833  0.24371811  0.83731870  1
  Er  Er14  1  0.97596167  0.75628189  0.16268130  1
  Er  Er15  1  0.02403833  0.74371811  0.66268130  1
  F  F0  1  0.98328512  0.21946020  0.00290955  1
  F  F1  1  0.99305807  0.92771320  0.23141316  1
  F  F2  1  0.75000000  0.86662969  0.09521205  1
  F  F3  1  0.75000000  0.19110264  0.83668768  1
  F  F4  1  0.91901972  0.33132814  0.69864723  1
  F  F5  1  0.75000000  0.24396317  0.23390077  1
  F  F6  1  0.42110364  0.58694644  0.12191980  1
  F  F7  1  0.57889636  0.41305356  0.87808020  1
  F  F8  1  0.75000000  0.74396317  0.26609923  1
  F  F9  1  0.49305807  0.57228680  0.73141316  1
  F  F10  1  0.07889636  0.08694644  0.37808020  1
  F  F11  1  0.75000000  0.97560057  0.91209620  1
  F  F12  1  0.51671488  0.21946020  0.00290955  1
  F  F13  1  0.42110364  0.08694644  0.37808020  1
  F  F14  1  0.91901972  0.83132814  0.80135277  1
  F  F15  1  0.01671488  0.28053980  0.50290955  1
  F  F16  1  0.25000000  0.02439943  0.08790380  1
  F  F17  1  0.75000000  0.12396680  0.62584127  1
  F  F18  1  0.25000000  0.80889736  0.16331232  1
  F  F19  1  0.51671488  0.71946020  0.49709045  1
  F  F20  1  0.25000000  0.33770186  0.91997486  1
  F  F21  1  0.25000000  0.63337031  0.59521205  1
  F  F22  1  0.58098028  0.83132814  0.80135277  1
  F  F23  1  0.98328512  0.71946020  0.49709045  1
  F  F24  1  0.41901972  0.66867186  0.30135277  1
  F  F25  1  0.50694193  0.92771320  0.23141316  1
  F  F26  1  0.01671488  0.78053980  0.99709045  1
  F  F27  1  0.48328512  0.28053980  0.50290955  1
  F  F28  1  0.75000000  0.66229814  0.08002514  1
  F  F29  1  0.75000000  0.36662969  0.40478795  1
  F  F30  1  0.48328512  0.78053980  0.99709045  1
  F  F31  1  0.25000000  0.52439943  0.41209620  1
  F  F32  1  0.92110364  0.91305356  0.62191980  1
  F  F33  1  0.08098028  0.66867186  0.30135277  1
  F  F34  1  0.75000000  0.16229814  0.41997486  1
  F  F35  1  0.25000000  0.83770186  0.58002514  1
  F  F36  1  0.25000000  0.75603683  0.76609923  1
  F  F37  1  0.25000000  0.30889736  0.33668768  1
  F  F38  1  0.75000000  0.69110264  0.66331232  1
  F  F39  1  0.25000000  0.13337031  0.90478795  1
  F  F40  1  0.99305807  0.42771320  0.26858684  1
  F  F41  1  0.08098028  0.16867186  0.19864723  1
  F  F42  1  0.41901972  0.16867186  0.19864723  1
  F  F43  1  0.00694193  0.57228680  0.73141316  1
  F  F44  1  0.25000000  0.87603320  0.37415873  1
  F  F45  1  0.07889636  0.58694644  0.12191980  1
  F  F46  1  0.25000000  0.37603320  0.12584127  1
  F  F47  1  0.92110364  0.41305356  0.87808020  1
  F  F48  1  0.50694193  0.42771320  0.26858684  1
  F  F49  1  0.25000000  0.25603683  0.73390077  1
  F  F50  1  0.00694193  0.07228680  0.76858684  1
  F  F51  1  0.49305807  0.07228680  0.76858684  1
  F  F52  1  0.58098028  0.33132814  0.69864723  1
  F  F53  1  0.75000000  0.62396680  0.87415873  1
  F  F54  1  0.57889636  0.91305356  0.62191980  1
  F  F55  1  0.75000000  0.47560057  0.58790380  1
loop_
_geom_bond_atom_site_label_1
_geom_bond_atom_site_label_2
_geom_bond_distance
_geom_bond_site_symmetry_2
Er0 F54 2.192260 1_555
Er0 F38 2.193440 1_555
Er0 F9 2.196128 1_555
Er0 F36 2.209480 1_555
Er0 F19 2.215834 1_555
Er0 F22 2.238762 1_555
Er0 F35 2.322473 1_555
Er0 F21 2.335476 1_555
Er1 F46 2.155164 1_555
Er1 F48 2.208043 1_555
Er1 F40 2.208043 1_455
Er1 F31 2.247067 1_555
Er1 F45 2.253055 1_555
Er1 F6 2.253055 1_555
Er1 F24 2.419202 1_555
Er1 F33 2.419202 1_555
Er1 F37 2.623064 1_555
Er2 F53 2.155164 1_555
Er2 F9 2.208043 1_555
Er2 F43 2.208043 1_655
Er2 F55 2.247067 1_555
Er2 F7 2.253055 1_555
Er2 F47 2.253055 1_555
Er2 F4 2.419202 1_555
Er2 F52 2.419202 1_555
Er2 F38 2.623064 1_555
Er3 F10 2.192260 1_655
Er3 F37 2.193440 1_655
Er3 F40 2.196128 1_555
Er3 F5 2.209480 1_555
Er3 F15 2.215834 1_655
Er3 F41 2.238762 1_655
Er3 F34 2.322473 1_555
Er3 F29 2.335476 1_555
Er4 F46 2.109090 1_555
Er4 F16 2.183997 1_555
Er4 F0 2.197750 1_455
Er4 F12 2.197750 1_555
Er4 F39 2.256125 1_554
Er4 F41 2.259939 1_555
Er4 F42 2.259939 1_555
Er4 F20 2.395612 1_554
Er5 F17 2.155164 1_565
Er5 F50 2.208043 1_665
Er5 F51 2.208043 1_565
Er5 F11 2.247067 1_555
Er5 F32 2.253055 1_555
Er5 F54 2.253055 1_555
Er5 F22 2.419202 1_555
Er5 F14 2.419202 1_555
Er5 F3 2.623064 1_565
Er6 F13 2.192260 1_555
Er6 F37 2.193440 1_555
Er6 F48 2.196128 1_555
Er6 F5 2.209480 1_555
Er6 F27 2.215834 1_555
Er6 F42 2.238762 1_555
Er6 F34 2.322473 1_555
Er6 F29 2.335476 1_555
Er7 F6 2.192260 1_555
Er7 F18 2.193440 1_555
Er7 F25 2.196128 1_555
Er7 F8 2.209480 1_555
Er7 F30 2.215834 1_554
Er7 F24 2.238762 1_555
Er7 F28 2.322473 1_555
Er7 F2 2.335476 1_555
Er8 F17 2.109090 1_555
Er8 F55 2.183997 1_555
Er8 F27 2.197750 1_555
Er8 F15 2.197750 1_655
Er8 F29 2.256125 1_555
Er8 F4 2.259939 1_555
Er8 F52 2.259939 1_555
Er8 F34 2.395612 1_555
Er9 F53 2.109090 1_555
Er9 F11 2.183997 1_555
Er9 F30 2.197750 1_555
Er9 F26 2.197750 1_655
Er9 F2 2.256125 1_556
Er9 F22 2.259939 1_555
Er9 F14 2.259939 1_555
Er9 F28 2.395612 1_556
Er10 F44 2.109090 1_555
Er10 F31 2.183997 1_555
Er10 F19 2.197750 1_555
Er10 F23 2.197750 1_455
Er10 F21 2.256125 1_555
Er10 F33 2.259939 1_555
Er10 F24 2.259939 1_555
Er10 F35 2.395612 1_555
Er11 F7 2.192260 1_555
Er11 F3 2.193440 1_555
Er11 F51 2.196128 1_555
Er11 F49 2.209480 1_555
Er11 F12 2.215834 1_556
Er11 F52 2.238762 1_555
Er11 F20 2.322473 1_555
Er11 F39 2.335476 1_555
Er12 F44 2.155164 1_545
Er12 F25 2.208043 1_545
Er12 F1 2.208043 1_445
Er12 F16 2.247067 1_555
Er12 F10 2.253055 1_555
Er12 F13 2.253055 1_555
Er12 F41 2.419202 1_555
Er12 F42 2.419202 1_555
Er12 F18 2.623064 1_545
Er13 F47 2.192260 1_455
Er13 F3 2.193440 1_455
Er13 F50 2.196128 1_555
Er13 F49 2.209480 1_555
Er13 F0 2.215834 1_456
Er13 F4 2.238762 1_455
Er13 F20 2.322473 1_555
Er13 F39 2.335476 1_555
Er14 F45 2.192260 1_655
Er14 F18 2.193440 1_655
Er14 F1 2.196128 1_555
Er14 F8 2.209480 1_555
Er14 F26 2.215834 1_654
Er14 F33 2.238762 1_655
Er14 F28 2.322473 1_555
Er14 F2 2.335476 1_555
Er15 F32 2.192260 1_455
Er15 F38 2.193440 1_455
Er15 F43 2.196128 1_555
Er15 F36 2.209480 1_555
Er15 F23 2.215834 1_455
Er15 F14 2.238762 1_455
Er15 F35 2.322473 1_555
Er15 F21 2.335476 1_555
F0 K7 2.670750 1_555
F0 K1 3.184327 1_555
F1 K7 3.171532 1_565
F1 K6 3.244721 1_555
F2 K7 2.544960 1_565
F4 K3 3.044977 1_655
F5 K7 2.599399 1_555
F5 K1 3.115414 1_555
F6 K4 2.815130 1_554
F6 K1 3.179609 1_555
F7 K1 2.815130 1_556
F7 K4 3.179609 1_555
F8 K2 2.599399 1_555
F8 K6 3.115414 1_555
F9 K3 3.171532 1_555
F9 K4 3.244721 1_555
F10 K5 2.815130 1_555
F10 K6 3.179609 1_445
F11 K7 2.720707 1_566
F12 K7 2.670750 1_555
F12 K1 3.184327 1_555
F13 K5 2.815130 1_555
F13 K6 3.179609 1_545
F14 K0 3.044977 1_655
F15 K3 2.670750 1_555
F15 K5 3.184327 1_555
F16 K0 2.720707 1_544
F19 K2 2.670750 1_555
F19 K6 3.184327 1_555
F20 K4 2.671201 1_555
F21 K3 2.544960 1_555
F22 K0 3.044977 1_555
F23 K2 2.670750 1_555
F23 K6 3.184327 1_555
F24 K2 3.044977 1_555
F25 K7 3.171532 1_565
F25 K6 3.244721 1_555
F26 K0 2.670750 1_555
F26 K4 3.184327 1_555
F27 K3 2.670750 1_555
F27 K5 3.184327 1_555
F28 K1 2.671201 1_555
F29 K2 2.544960 1_555
F30 K0 2.670750 1_555
F30 K4 3.184327 1_555
F31 K3 2.720707 1_555
F32 K6 2.815130 1_555
F32 K5 3.179609 1_665
F33 K2 3.044977 1_455
F34 K6 2.671201 1_545
F35 K5 2.671201 1_565
F36 K0 2.599399 1_555
F36 K4 3.115414 1_555
F39 K0 2.544960 1_545
F40 K2 3.171532 1_555
F40 K1 3.244721 1_555
F41 K7 3.044977 1_455
F42 K7 3.044977 1_555
F43 K3 3.171532 1_555
F43 K4 3.244721 1_555
F45 K4 2.815130 1_554
F45 K1 3.179609 1_455
F47 K1 2.815130 1_556
F47 K4 3.179609 1_655
F48 K2 3.171532 1_555
F48 K1 3.244721 1_555
F49 K3 2.599399 1_555
F49 K5 3.115414 1_555
F50 K0 3.171532 1_545
F50 K5 3.244721 1_555
F51 K0 3.171532 1_545
F51 K5 3.244721 1_555
F52 K3 3.044977 1_555
F54 K6 2.815130 1_555
F54 K5 3.179609 1_565
F55 K2 2.720707 1_555
