# generated using pymatgen
data_BaNb2O6
_symmetry_space_group_name_H-M   'P 1'
_cell_length_a   7.33219696
_cell_length_b   7.33219696
_cell_length_c   10.41630912
_cell_angle_alpha   90.00000000
_cell_angle_beta   90.00000000
_cell_angle_gamma   115.09541601
_symmetry_Int_Tables_number   1
_chemical_formula_structural   BaNb2O6
_chemical_formula_sum   'Ba4 Nb8 O24'
_cell_volume   507.13061541
_cell_formula_units_Z   4
loop_
 _symmetry_equiv_pos_site_id
 _symmetry_equiv_pos_as_xyz
  1  'x, y, z'
loop_
 _atom_site_type_symbol
 _atom_site_label
 _atom_site_symmetry_multiplicity
 _atom_site_fract_x
 _atom_site_fract_y
 _atom_site_fract_z
 _atom_site_occupancy
  Ba  Ba0  1  0.42703188  0.57296812  0.75000000  1
  Ba  Ba1  1  0.12968408  0.87031592  0.25000000  1
  Ba  Ba2  1  0.57296812  0.42703188  0.25000000  1
  Ba  Ba3  1  0.87031592  0.12968408  0.75000000  1
  Nb  Nb0  1  0.41090882  0.12476498  0.92267965  1
  Nb  Nb1  1  0.87523502  0.58909118  0.57732035  1
  Nb  Nb2  1  0.58909118  0.87523502  0.42267965  1
  Nb  Nb3  1  0.63288421  0.90934812  0.07230218  1
  Nb  Nb4  1  0.12476498  0.41090882  0.07732035  1
  Nb  Nb5  1  0.09065188  0.36711579  0.42769782  1
  Nb  Nb6  1  0.36711579  0.09065188  0.57230218  1
  Nb  Nb7  1  0.90934812  0.63288421  0.92769782  1
  O  O0  1  0.88024000  0.11865961  0.46611396  1
  O  O1  1  0.91882520  0.51759485  0.10884542  1
  O  O2  1  0.11865961  0.88024000  0.53388604  1
  O  O3  1  0.34143607  0.66093004  0.38386956  1
  O  O4  1  0.88134039  0.11976000  0.03388604  1
  O  O5  1  0.66093004  0.34143607  0.61613044  1
  O  O6  1  0.65856393  0.33906996  0.88386956  1
  O  O7  1  0.30499746  0.30499746  -0.00000000  1
  O  O8  1  0.70686976  0.86643564  0.25015644  1
  O  O9  1  0.33906996  0.65856393  0.11613044  1
  O  O10  1  0.08117480  0.48240515  0.60884542  1
  O  O11  1  0.31152495  0.31152495  0.50000000  1
  O  O12  1  0.48240515  0.08117480  0.39115458  1
  O  O13  1  0.86643564  0.70686976  0.74984356  1
  O  O14  1  0.51759485  0.91882520  0.89115458  1
  O  O15  1  0.69500254  0.69500254  0.50000000  1
  O  O16  1  0.07868043  0.48478218  0.89159549  1
  O  O17  1  0.92131957  0.51521782  0.39159549  1
  O  O18  1  0.48478218  0.07868043  0.10840451  1
  O  O19  1  0.11976000  0.88134039  0.96611396  1
  O  O20  1  0.13356436  0.29313024  0.24984356  1
  O  O21  1  0.68847505  0.68847505  -0.00000000  1
  O  O22  1  0.51521782  0.92131957  0.60840451  1
  O  O23  1  0.29313024  0.13356436  0.75015644  1
loop_
_geom_bond_atom_site_label_1
_geom_bond_atom_site_label_2
_geom_bond_distance
_geom_bond_site_symmetry_2
Ba0 O14 2.757738 1_555
Ba0 O10 2.757738 1_555
Ba0 O22 2.777833 1_555
Ba0 O16 2.777833 1_555
Ba0 O23 2.942914 1_555
Ba0 O13 2.942914 1_555
Ba0 O21 3.129865 1_556
Ba0 O11 3.129865 1_555
Ba0 O7 3.154528 1_556
Ba0 O15 3.154528 1_555
Ba0 O5 3.199565 1_555
Ba0 O6 3.199565 1_555
Ba1 O12 2.801597 1_565
Ba1 O1 2.801597 1_455
Ba1 O17 2.813226 1_455
Ba1 O18 2.813226 1_565
Ba1 O3 2.955330 1_555
Ba1 O9 2.955330 1_555
Ba1 O19 2.959887 1_554
Ba1 O2 2.959887 1_555
Ba1 O20 3.088199 1_565
Ba1 O8 3.088199 1_455
Ba2 O1 2.757738 1_555
Ba2 O12 2.757738 1_555
Ba2 O18 2.777833 1_555
Ba2 O17 2.777833 1_555
Ba2 O20 2.942914 1_555
Ba2 O8 2.942914 1_555
Ba2 O21 3.129865 1_555
Ba2 O11 3.129865 1_555
Ba2 O7 3.154528 1_555
Ba2 O15 3.154528 1_555
Ba2 O9 3.199565 1_555
Ba2 O3 3.199565 1_555
Ba3 O10 2.801597 1_655
Ba3 O14 2.801597 1_545
Ba3 O22 2.813226 1_545
Ba3 O16 2.813226 1_655
Ba3 O5 2.955330 1_555
Ba3 O6 2.955330 1_555
Ba3 O0 2.959887 1_555
Ba3 O4 2.959887 1_556
Ba3 O13 3.088199 1_545
Ba3 O23 3.088199 1_655
Nb0 O6 1.873366 1_555
Nb0 O7 1.966868 1_556
Nb0 O14 2.000437 1_545
Nb0 O23 2.006638 1_555
Nb0 O18 2.074939 1_556
Nb0 O19 2.171524 1_545
Nb1 O5 1.873366 1_555
Nb1 O15 1.966868 1_555
Nb1 O10 2.000437 1_655
Nb1 O13 2.006638 1_555
Nb1 O17 2.074939 1_555
Nb1 O2 2.171524 1_655
Nb2 O3 1.873366 1_555
Nb2 O15 1.966868 1_555
Nb2 O12 2.000437 1_565
Nb2 O8 2.006638 1_555
Nb2 O22 2.074939 1_555
Nb2 O0 2.171524 1_565
Nb3 O4 1.864123 1_565
Nb3 O21 1.978889 1_555
Nb3 O8 1.992520 1_555
Nb3 O18 2.001448 1_565
Nb3 O14 2.080764 1_554
Nb3 O9 2.206901 1_555
Nb4 O9 1.873366 1_555
Nb4 O7 1.966868 1_555
Nb4 O1 2.000437 1_455
Nb4 O20 2.006638 1_555
Nb4 O16 2.074939 1_554
Nb4 O4 2.171524 1_455
Nb5 O0 1.864123 1_455
Nb5 O11 1.978889 1_555
Nb5 O20 1.992520 1_555
Nb5 O17 2.001448 1_455
Nb5 O10 2.080764 1_555
Nb5 O3 2.206901 1_555
Nb6 O2 1.864123 1_545
Nb6 O11 1.978889 1_555
Nb6 O23 1.992520 1_555
Nb6 O22 2.001448 1_545
Nb6 O12 2.080764 1_555
Nb6 O5 2.206901 1_555
Nb7 O19 1.864123 1_655
Nb7 O21 1.978889 1_556
Nb7 O13 1.992520 1_555
Nb7 O16 2.001448 1_655
Nb7 O1 2.080764 1_556
Nb7 O6 2.206901 1_555
