# generated using pymatgen
data_ThMg2
_symmetry_space_group_name_H-M   'P 1'
_cell_length_a   6.08080343
_cell_length_b   6.08080246
_cell_length_c   19.47032925
_cell_angle_alpha   90.00000000
_cell_angle_beta   90.00000000
_cell_angle_gamma   120.00007799
_symmetry_Int_Tables_number   1
_chemical_formula_structural   ThMg2
_chemical_formula_sum   'Th8 Mg16'
_cell_volume   623.48419035
_cell_formula_units_Z   8
loop_
 _symmetry_equiv_pos_site_id
 _symmetry_equiv_pos_as_xyz
  1  'x, y, z'
loop_
 _atom_site_type_symbol
 _atom_site_label
 _atom_site_symmetry_multiplicity
 _atom_site_fract_x
 _atom_site_fract_y
 _atom_site_fract_z
 _atom_site_occupancy
  Th  Th0  1  0.33333400  0.66666600  0.84251129  1
  Th  Th1  1  0.00000000  -0.00000000  0.09066674  1
  Th  Th2  1  0.00000000  -0.00000000  0.90933326  1
  Th  Th3  1  0.66666600  0.33333400  0.15748871  1
  Th  Th4  1  0.00000000  -0.00000000  0.59066674  1
  Th  Th5  1  0.66666600  0.33333400  0.34251129  1
  Th  Th6  1  0.00000000  -0.00000000  0.40933326  1
  Th  Th7  1  0.33333400  0.66666600  0.65748871  1
  Mg  Mg0  1  0.50000000  0.50000000  0.50000000  1
  Mg  Mg1  1  0.83910263  0.16089737  0.75000000  1
  Mg  Mg2  1  0.66666600  0.33333400  0.87385853  1
  Mg  Mg3  1  0.16089637  0.32179473  0.25000000  1
  Mg  Mg4  1  0.32179473  0.16089637  0.75000000  1
  Mg  Mg5  1  0.83910363  0.67820527  0.75000000  1
  Mg  Mg6  1  0.50000000  -0.00000000  0.50000000  1
  Mg  Mg7  1  0.67820527  0.83910363  0.25000000  1
  Mg  Mg8  1  0.50000000  0.50000000  -0.00000000  1
  Mg  Mg9  1  0.16089737  0.83910263  0.25000000  1
  Mg  Mg10  1  0.33333400  0.66666600  0.37385853  1
  Mg  Mg11  1  0.00000000  0.50000000  -0.00000000  1
  Mg  Mg12  1  0.66666600  0.33333400  0.62614147  1
  Mg  Mg13  1  0.00000000  0.50000000  0.50000000  1
  Mg  Mg14  1  0.33333400  0.66666600  0.12614147  1
  Mg  Mg15  1  0.50000000  -0.00000000  -0.00000000  1
loop_
_geom_bond_atom_site_label_1
_geom_bond_atom_site_label_2
_geom_bond_distance
_geom_bond_site_symmetry_2
Th0 Th7 3.602451 1_555
Th0 Th2 3.744070 1_555
Th0 Th2 3.744071 1_665
Th0 Th2 3.744084 1_565
Th1 Th2 3.530623 1_554
Th1 Th3 3.744070 1_445
Th1 Th3 3.744071 1_555
Th1 Th3 3.744084 1_455
Th3 Th5 3.602451 1_555
Th4 Th6 3.530623 1_555
Th4 Th7 3.744070 1_555
Th4 Th7 3.744071 1_445
Th4 Th7 3.744084 1_545
Th5 Th6 3.744070 1_665
Th5 Th6 3.744071 1_555
Th5 Th6 3.744084 1_655
Mg0 Mg10 3.018831 1_555
Mg0 Mg12 3.018831 1_555
Mg0 Mg6 3.040401 1_565
Mg0 Mg6 3.040401 1_555
Mg0 Mg13 3.040402 1_555
Mg0 Mg13 3.040402 1_655
Mg0 Th4 3.515728 1_665
Mg0 Th6 3.515728 1_665
Mg0 Th6 3.515728 1_555
Mg0 Th4 3.515728 1_555
Mg0 Th5 3.533252 1_555
Mg0 Th7 3.533252 1_555
Mg1 Mg5 2.935158 1_545
Mg1 Mg4 2.935159 1_655
Mg1 Mg2 3.018948 1_555
Mg1 Mg12 3.018948 1_555
Mg1 Mg5 3.145644 1_555
Mg1 Mg4 3.145645 1_555
Mg1 Th7 3.534420 1_655
Mg1 Th0 3.534420 1_655
Mg1 Th0 3.534420 1_545
Mg1 Th7 3.534420 1_545
Mg1 Th2 3.534940 1_655
Mg1 Th4 3.534940 1_655
Mg2 Mg8 3.018831 1_556
Mg2 Mg5 3.018940 1_555
Mg2 Mg4 3.018940 1_555
Mg2 Th0 3.563399 1_555
Mg2 Th0 3.563416 1_545
Mg2 Th0 3.563416 1_655
Mg2 Th2 3.578046 1_665
Mg2 Th2 3.578047 1_555
Mg2 Th2 3.578061 1_655
Mg3 Mg7 2.935146 1_445
Mg3 Mg9 2.935158 1_545
Mg3 Mg9 3.145644 1_555
Mg3 Mg7 3.145650 1_555
Mg3 Th3 3.534423 1_555
Mg3 Th5 3.534423 1_555
Mg3 Th3 3.534423 1_455
Mg3 Th5 3.534423 1_455
Mg3 Th1 3.534939 1_555
Mg3 Th6 3.534939 1_555
Mg4 Mg5 2.935146 1_445
Mg4 Mg5 3.145650 1_555
Mg4 Th0 3.534423 1_555
Mg4 Th7 3.534423 1_555
Mg4 Th0 3.534423 1_545
Mg4 Th7 3.534423 1_545
Mg4 Th4 3.534939 1_555
Mg4 Th2 3.534939 1_555
Mg5 Th0 3.534423 1_555
Mg5 Th7 3.534423 1_555
Mg5 Th7 3.534423 1_655
Mg5 Th0 3.534423 1_655
Mg5 Th4 3.534939 1_665
Mg5 Th2 3.534939 1_665
Mg6 Th6 3.515731 1_555
Mg6 Th4 3.515731 1_555
Mg6 Th6 3.515731 1_655
Mg6 Th4 3.515731 1_655
Mg6 Th5 3.533256 1_555
Mg6 Th7 3.533256 1_545
Mg7 Mg9 2.935159 1_655
Mg7 Mg9 3.145645 1_555
Mg7 Th3 3.534423 1_555
Mg7 Th5 3.534423 1_555
Mg7 Th3 3.534423 1_565
Mg7 Th5 3.534423 1_565
Mg7 Th1 3.534939 1_665
Mg7 Th6 3.534939 1_665
Mg8 Th2 3.515728 1_664
Mg8 Th2 3.515728 1_554
Mg8 Th1 3.515728 1_665
Mg8 Th1 3.515728 1_555
Mg8 Th3 3.533252 1_555
Mg8 Th0 3.533252 1_554
Mg9 Th3 3.534420 1_455
Mg9 Th5 3.534420 1_455
Mg9 Th3 3.534420 1_565
Mg9 Th5 3.534420 1_565
Mg9 Th1 3.534940 1_565
Mg9 Th6 3.534940 1_565
Mg10 Mg6 3.018836 1_565
Mg10 Mg13 3.018836 1_555
Mg10 Mg3 3.018940 1_555
Mg10 Mg7 3.018940 1_555
Mg10 Mg9 3.018948 1_555
Mg10 Th5 3.563399 1_555
Mg10 Th5 3.563416 1_565
Mg10 Th5 3.563416 1_455
Mg10 Th6 3.578046 1_555
Mg10 Th6 3.578047 1_665
Mg10 Th6 3.578061 1_565
Mg11 Mg14 3.018836 1_555
Mg11 Mg2 3.018836 1_454
Mg11 Mg15 3.040398 1_565
Mg11 Mg15 3.040398 1_455
Mg11 Mg8 3.040402 1_555
Mg11 Mg8 3.040402 1_455
Mg11 Th2 3.515731 1_554
Mg11 Th2 3.515731 1_564
Mg11 Th1 3.515731 1_565
Mg11 Th1 3.515731 1_555
Mg11 Th0 3.533256 1_554
Mg11 Th3 3.533256 1_455
Mg12 Mg6 3.018836 1_555
Mg12 Mg13 3.018836 1_655
Mg12 Mg5 3.018940 1_555
Mg12 Mg4 3.018940 1_555
Mg12 Th7 3.563399 1_555
Mg12 Th7 3.563416 1_545
Mg12 Th7 3.563416 1_655
Mg12 Th4 3.578046 1_665
Mg12 Th4 3.578047 1_555
Mg12 Th4 3.578061 1_655
Mg13 Mg6 3.040398 1_565
Mg13 Mg6 3.040398 1_455
Mg13 Th6 3.515731 1_565
Mg13 Th4 3.515731 1_555
Mg13 Th4 3.515731 1_565
Mg13 Th6 3.515731 1_555
Mg13 Th7 3.533256 1_555
Mg13 Th5 3.533256 1_455
Mg14 Mg8 3.018831 1_555
Mg14 Mg15 3.018836 1_565
Mg14 Mg3 3.018940 1_555
Mg14 Mg7 3.018940 1_555
Mg14 Mg9 3.018948 1_555
Mg14 Th3 3.563399 1_555
Mg14 Th3 3.563416 1_565
Mg14 Th3 3.563416 1_455
Mg14 Th1 3.578046 1_555
Mg14 Th1 3.578047 1_665
Mg14 Th1 3.578061 1_565
Mg15 Mg2 3.018836 1_554
Mg15 Mg8 3.040401 1_555
Mg15 Mg8 3.040401 1_545
Mg15 Th2 3.515731 1_554
Mg15 Th2 3.515731 1_654
Mg15 Th1 3.515731 1_555
Mg15 Th1 3.515731 1_655
Mg15 Th3 3.533256 1_555
Mg15 Th0 3.533256 1_544
