# generated using pymatgen
data_Ho3Mn3Ga2Si
_symmetry_space_group_name_H-M   'P 1'
_cell_length_a   3.92644800
_cell_length_b   7.06248128
_cell_length_c   7.06248128
_cell_angle_alpha   119.99999330
_cell_angle_beta   90.00000000
_cell_angle_gamma   90.00000000
_symmetry_Int_Tables_number   1
_chemical_formula_structural   Ho3Mn3Ga2Si
_chemical_formula_sum   'Ho3 Mn3 Ga2 Si1'
_cell_volume   169.60753064
_cell_formula_units_Z   1
loop_
 _symmetry_equiv_pos_site_id
 _symmetry_equiv_pos_as_xyz
  1  'x, y, z'
loop_
 _atom_site_type_symbol
 _atom_site_label
 _atom_site_symmetry_multiplicity
 _atom_site_fract_x
 _atom_site_fract_y
 _atom_site_fract_z
 _atom_site_occupancy
  Ho  Ho0  1  0.50000000  0.59269900  0.59269900  1
  Ho  Ho1  1  0.50000000  0.40730100  0.00000000  1
  Ho  Ho2  1  0.50000000  0.00000000  0.40730100  1
  Mn  Mn0  1  0.00000000  0.77976000  0.00000000  1
  Mn  Mn1  1  0.00000000  0.22024000  0.22024000  1
  Mn  Mn2  1  0.00000000  0.00000000  0.77976000  1
  Ga  Ga0  1  0.00000000  0.33333300  0.66666700  1
  Ga  Ga1  1  0.00000000  0.66666700  0.33333300  1
  Si  Si0  1  0.50000000  0.00000000  0.00000000  1
loop_
_geom_bond_atom_site_label_1
_geom_bond_atom_site_label_2
_geom_bond_distance
_geom_bond_site_symmetry_2
Ho0 Si0 2.876556 1_566
Ho0 Mn0 3.173942 1_656
Ho0 Mn0 3.173942 1_556
Ho0 Mn2 3.173942 1_565
Ho0 Mn2 3.173942 1_665
Ho0 Mn1 3.282331 1_555
Ho0 Mn1 3.282331 1_655
Ho1 Si0 2.876556 1_555
Ho1 Mn1 3.173942 1_655
Ho1 Mn1 3.173942 1_555
Ho1 Mn2 3.173942 1_654
Ho1 Mn2 3.173942 1_554
Ho1 Mn0 3.282331 1_555
Ho1 Mn0 3.282331 1_655
Ho2 Si0 2.876556 1_555
Ho2 Mn1 3.173942 1_555
Ho2 Mn1 3.173942 1_655
Ho2 Mn0 3.173942 1_645
Ho2 Mn0 3.173942 1_545
Ho2 Mn2 3.282331 1_655
Ho2 Mn2 3.282331 1_555
Mn0 Si0 2.504724 1_465
Mn0 Si0 2.504724 1_565
Mn0 Mn2 2.694103 1_564
Mn0 Mn1 2.694103 1_565
Mn1 Si0 2.504725 1_455
Mn1 Si0 2.504725 1_555
Mn1 Mn2 2.694103 1_554
Mn2 Si0 2.504724 1_456
Mn2 Si0 2.504724 1_556
Ga0 Mn2 2.839069 1_555
Ga0 Mn0 2.839075 1_556
Ga0 Mn1 2.839076 1_555
Ga0 Ho1 2.905065 1_456
Ga0 Ho1 2.905065 1_556
Ga0 Ho2 2.905067 1_455
Ga0 Ho2 2.905067 1_555
Ga0 Ho0 2.905070 1_555
Ga0 Ho0 2.905070 1_455
Ga1 Mn0 2.839069 1_555
Ga1 Mn2 2.839075 1_565
Ga1 Mn1 2.839076 1_555
Ga1 Ho2 2.905065 1_565
Ga1 Ho2 2.905065 1_465
Ga1 Ho1 2.905067 1_555
Ga1 Ho1 2.905067 1_455
Ga1 Ho0 2.905070 1_455
Ga1 Ho0 2.905070 1_555
