# generated using pymatgen
data_Yb3GeO
_symmetry_space_group_name_H-M   'P 1'
_cell_length_a   6.58064500
_cell_length_b   6.59302600
_cell_length_c   9.32698800
_cell_angle_alpha   90.00000000
_cell_angle_beta   90.00000000
_cell_angle_gamma   90.00000000
_symmetry_Int_Tables_number   1
_chemical_formula_structural   Yb3GeO
_chemical_formula_sum   'Yb12 Ge4 O4'
_cell_volume   404.66409249
_cell_formula_units_Z   4
loop_
 _symmetry_equiv_pos_site_id
 _symmetry_equiv_pos_as_xyz
  1  'x, y, z'
loop_
 _atom_site_type_symbol
 _atom_site_label
 _atom_site_symmetry_multiplicity
 _atom_site_fract_x
 _atom_site_fract_y
 _atom_site_fract_z
 _atom_site_occupancy
  Yb  Yb0  1  0.77279600  0.22716000  0.47912400  1
  Yb  Yb1  1  0.27279600  0.27284000  0.47912400  1
  Yb  Yb2  1  0.50333900  0.04095400  0.75000000  1
  Yb  Yb3  1  0.49666100  0.95904600  0.25000000  1
  Yb  Yb4  1  0.99666100  0.54095400  0.25000000  1
  Yb  Yb5  1  0.72720400  0.72716000  0.52087600  1
  Yb  Yb6  1  0.22720400  0.77284000  0.52087600  1
  Yb  Yb7  1  0.27279600  0.27284000  0.02087600  1
  Yb  Yb8  1  0.00333800  0.45904600  0.75000000  1
  Yb  Yb9  1  0.77279600  0.22716000  0.02087600  1
  Yb  Yb10  1  0.72720400  0.72716000  0.97912400  1
  Yb  Yb11  1  0.22720400  0.77284000  0.97912400  1
  Ge  Ge0  1  0.98772500  0.99768400  0.75000000  1
  Ge  Ge1  1  0.48772500  0.50231600  0.75000000  1
  Ge  Ge2  1  0.01227500  0.00231600  0.25000000  1
  Ge  Ge3  1  0.51227500  0.49768400  0.25000000  1
  O  O0  1  0.50000000  0.00000000  0.00000000  1
  O  O1  1  0.50000000  0.00000000  0.50000000  1
  O  O2  1  0.00000000  0.50000000  0.50000000  1
  O  O3  1  0.00000000  0.50000000  0.00000000  1
loop_
_geom_bond_atom_site_label_1
_geom_bond_atom_site_label_2
_geom_bond_distance
_geom_bond_site_symmetry_2
Ge0 Yb6 3.041050 1_655
Ge0 Yb11 3.041050 1_655
Ge0 Yb8 3.043506 1_665
Ge0 Yb2 3.200313 1_565
Ge0 Yb9 3.266868 1_566
Ge0 Yb0 3.266868 1_565
Ge0 Yb10 3.269130 1_555
Ge0 Yb5 3.269130 1_555
Ge0 Yb2 3.405044 1_665
Ge0 Yb8 3.552740 1_655
Ge0 Yb7 3.632241 1_666
Ge0 Yb1 3.632241 1_665
Ge1 Yb10 3.041050 1_555
Ge1 Yb5 3.041050 1_555
Ge1 Yb2 3.043507 1_555
Ge1 Yb8 3.200319 1_555
Ge1 Yb7 3.266868 1_556
Ge1 Yb1 3.266868 1_555
Ge1 Yb11 3.269130 1_555
Ge1 Yb6 3.269130 1_555
Ge1 Yb8 3.405038 1_655
Ge1 Yb2 3.552740 1_565
Ge1 Yb9 3.632241 1_556
Ge1 Yb0 3.632241 1_555
Ge2 Yb0 3.041050 1_455
Ge2 Yb9 3.041050 1_455
Ge2 Yb4 3.043507 1_445
Ge2 Yb3 3.200313 1_545
Ge2 Yb6 3.266868 1_545
Ge2 Yb11 3.266868 1_544
Ge2 Yb1 3.269130 1_555
Ge2 Yb7 3.269130 1_555
Ge2 Yb3 3.405044 1_445
Ge2 Yb4 3.552740 1_455
Ge2 Yb5 3.632241 1_445
Ge2 Yb10 3.632241 1_444
Ge3 Yb7 3.041050 1_555
Ge3 Yb1 3.041050 1_555
Ge3 Yb3 3.043507 1_555
Ge3 Yb4 3.200313 1_555
Ge3 Yb5 3.266868 1_555
Ge3 Yb10 3.266868 1_554
Ge3 Yb0 3.269130 1_555
Ge3 Yb9 3.269130 1_555
Ge3 Yb4 3.405044 1_455
Ge3 Yb3 3.552740 1_545
Ge3 Yb11 3.632241 1_554
Ge3 Yb6 3.632241 1_555
O0 Yb9 2.345971 1_555
O0 Yb11 2.345971 1_544
O0 Yb10 2.347171 1_544
O0 Yb7 2.347171 1_555
O0 Yb3 2.347431 1_545
O0 Yb2 2.347431 1_554
O1 Yb0 2.345971 1_555
O1 Yb6 2.345971 1_545
O1 Yb5 2.347171 1_545
O1 Yb1 2.347171 1_555
O1 Yb3 2.347431 1_545
O1 Yb2 2.347431 1_555
O2 Yb1 2.345971 1_555
O2 Yb5 2.345971 1_455
O2 Yb0 2.347171 1_455
O2 Yb6 2.347171 1_555
O2 Yb8 2.347431 1_555
O2 Yb4 2.347431 1_455
O3 Yb7 2.345971 1_555
O3 Yb10 2.345971 1_454
O3 Yb9 2.347171 1_455
O3 Yb11 2.347171 1_554
O3 Yb8 2.347431 1_554
O3 Yb4 2.347431 1_455
