# generated using pymatgen
data_Cs2Np2PO4F7
_symmetry_space_group_name_H-M   'P 1'
_cell_length_a   16.50873400
_cell_length_b   7.90043800
_cell_length_c   8.99859345
_cell_angle_alpha   67.49518687
_cell_angle_beta   90.00000000
_cell_angle_gamma   90.00000000
_symmetry_Int_Tables_number   1
_chemical_formula_structural   Cs2Np2PO4F7
_chemical_formula_sum   'Cs8 Np8 P4 O16 F28'
_cell_volume   1084.27589459
_cell_formula_units_Z   4
loop_
 _symmetry_equiv_pos_site_id
 _symmetry_equiv_pos_as_xyz
  1  'x, y, z'
loop_
 _atom_site_type_symbol
 _atom_site_label
 _atom_site_symmetry_multiplicity
 _atom_site_fract_x
 _atom_site_fract_y
 _atom_site_fract_z
 _atom_site_occupancy
  Cs  Cs0  1  0.50684500  0.26453700  0.35314200  1
  Cs  Cs1  1  0.99315500  0.76453700  0.35314200  1
  Cs  Cs2  1  0.82981400  0.08694800  0.02794900  1
  Cs  Cs3  1  0.17018600  0.91305200  0.97205100  1
  Cs  Cs4  1  0.32981400  0.41305200  0.97205100  1
  Cs  Cs5  1  0.00684500  0.23546300  0.64685800  1
  Cs  Cs6  1  0.67018600  0.58694800  0.02794900  1
  Cs  Cs7  1  0.49315500  0.73546300  0.64685800  1
  Np  Np0  1  0.76049300  0.99455600  0.54238100  1
  Np  Np1  1  0.57967900  0.16985800  0.85138700  1
  Np  Np2  1  0.92032100  0.66985800  0.85138700  1
  Np  Np3  1  0.23950700  0.00544400  0.45761900  1
  Np  Np4  1  0.07967900  0.33014200  0.14861300  1
  Np  Np5  1  0.73950700  0.49455600  0.54238100  1
  Np  Np6  1  0.26049300  0.50544400  0.45761900  1
  Np  Np7  1  0.42032100  0.83014200  0.14861300  1
  P  P0  1  0.62686200  0.88257600  0.27174000  1
  P  P1  1  0.37313800  0.11742400  0.72826000  1
  P  P2  1  0.12686200  0.61742400  0.72826000  1
  P  P3  1  0.87313800  0.38257600  0.27174000  1
  O  O0  1  0.32712100  0.30374200  0.67580900  1
  O  O1  1  0.67287900  0.69625800  0.32419100  1
  O  O2  1  0.64555900  0.00318400  0.09287300  1
  O  O3  1  0.34710500  0.01127100  0.62231200  1
  O  O4  1  0.82712100  0.19625800  0.32419100  1
  O  O5  1  0.53480800  0.83875700  0.29325500  1
  O  O6  1  0.03480800  0.66124300  0.70674500  1
  O  O7  1  0.17287900  0.80374200  0.67580900  1
  O  O8  1  0.35444100  0.99681600  0.90712700  1
  O  O9  1  0.65289500  0.98872900  0.37768800  1
  O  O10  1  0.96519200  0.33875700  0.29325500  1
  O  O11  1  0.15289500  0.51127100  0.62231200  1
  O  O12  1  0.85444100  0.50318400  0.09287300  1
  O  O13  1  0.14555900  0.49681600  0.90712700  1
  O  O14  1  0.84710500  0.48872900  0.37768800  1
  O  O15  1  0.46519200  0.16124300  0.70674500  1
  F  F0  1  0.40134800  0.58881600  0.39477500  1
  F  F1  1  0.90134800  0.91118400  0.60522500  1
  F  F2  1  0.35185400  0.97853600  0.28259600  1
  F  F3  1  0.69348400  0.69922900  0.65119400  1
  F  F4  1  0.79562400  0.81362900  0.82417900  1
  F  F5  1  0.30484500  0.70102000  0.56699600  1
  F  F6  1  0.14814600  0.47853600  0.28259600  1
  F  F7  1  0.94883400  0.91096200  0.90109100  1
  F  F8  1  0.44883400  0.58903800  0.09890900  1
  F  F9  1  0.52745100  0.87481800  0.95347900  1
  F  F10  1  0.59865200  0.41118400  0.60522500  1
  F  F11  1  0.05116600  0.08903800  0.09890900  1
  F  F12  1  0.70437600  0.31362900  0.82417900  1
  F  F13  1  0.30651600  0.30077100  0.34880600  1
  F  F14  1  0.97254900  0.37481800  0.95347900  1
  F  F15  1  0.80651600  0.19922900  0.65119400  1
  F  F16  1  0.55116600  0.41096200  0.90109100  1
  F  F17  1  0.80484500  0.79898000  0.43300400  1
  F  F18  1  0.29562400  0.68637100  0.17582100  1
  F  F19  1  0.69515500  0.29898000  0.43300400  1
  F  F20  1  0.85185400  0.52146400  0.71740400  1
  F  F21  1  0.19348400  0.80077100  0.34880600  1
  F  F22  1  0.64814600  0.02146400  0.71740400  1
  F  F23  1  0.19515500  0.20102000  0.56699600  1
  F  F24  1  0.47254900  0.12518200  0.04652100  1
  F  F25  1  0.09865200  0.08881600  0.39477500  1
  F  F26  1  0.02745100  0.62518200  0.04652100  1
  F  F27  1  0.20437600  0.18637100  0.17582100  1
loop_
_geom_bond_atom_site_label_1
_geom_bond_atom_site_label_2
_geom_bond_distance
_geom_bond_site_symmetry_2
Cs0 F8 2.869430 1_555
Cs0 O15 3.045600 1_555
Cs0 O9 3.200283 1_545
Cs0 F19 3.225614 1_555
Cs0 F0 3.236035 1_555
Cs0 F10 3.285859 1_555
Cs0 F13 3.318486 1_555
Cs0 F24 3.386901 1_555
Cs1 F11 2.869430 1_665
Cs1 O6 3.045600 1_655
Cs1 O14 3.200283 1_555
Cs1 F17 3.225614 1_555
Cs1 F25 3.236035 1_665
Cs1 F1 3.285859 1_555
Cs1 F21 3.318486 1_655
Cs1 F26 3.386901 1_655
Cs2 F7 2.883047 1_544
Cs2 F12 2.888591 1_554
Cs2 O4 3.101032 1_555
Cs2 O2 3.120247 1_555
Cs2 F14 3.163431 1_554
Cs2 F15 3.182215 1_554
Cs2 F4 3.372630 1_544
Cs2 F17 3.504751 1_545
Cs3 F11 2.883047 1_566
Cs3 F18 2.888591 1_556
Cs3 O7 3.101032 1_555
Cs3 O8 3.120247 1_555
Cs3 F26 3.163431 1_556
Cs3 F21 3.182215 1_556
Cs3 F27 3.372630 1_566
Cs3 F23 3.504751 1_565
Cs4 F8 2.883047 1_556
Cs4 F27 2.888591 1_556
Cs4 O0 3.101032 1_555
Cs4 O13 3.120247 1_555
Cs4 F24 3.163431 1_556
Cs4 F13 3.182215 1_556
Cs4 F18 3.372630 1_556
Cs4 F5 3.504751 1_555
Cs5 F7 2.869430 1_445
Cs5 O10 3.045600 1_455
Cs5 O11 3.200283 1_555
Cs5 F23 3.225614 1_555
Cs5 F1 3.236035 1_445
Cs5 F25 3.285859 1_555
Cs5 F15 3.318486 1_455
Cs5 F14 3.386901 1_455
Cs6 F16 2.883047 1_554
Cs6 F4 2.888591 1_554
Cs6 O1 3.101032 1_555
Cs6 O12 3.120247 1_555
Cs6 F9 3.163431 1_554
Cs6 F3 3.182215 1_554
Cs6 F12 3.372630 1_554
Cs6 F19 3.504751 1_555
Cs7 F16 2.869430 1_555
Cs7 O5 3.045600 1_555
Cs7 O3 3.200283 1_565
Cs7 F5 3.225614 1_555
Cs7 F10 3.236035 1_555
Cs7 F0 3.285859 1_555
Cs7 F3 3.318486 1_555
Cs7 F9 3.386901 1_555
Np0 O4 2.282335 1_565
Np0 O9 2.325071 1_555
Np1 O15 2.310580 1_555
Np1 O2 2.334180 1_556
Np2 O6 2.310580 1_655
Np2 O12 2.334180 1_556
Np3 O7 2.282335 1_545
Np3 O3 2.325071 1_555
Np4 O10 2.310580 1_455
Np4 O13 2.334180 1_554
Np5 O1 2.282335 1_555
Np5 O14 2.325071 1_555
Np6 O0 2.282335 1_555
Np6 O11 2.325071 1_555
Np7 O5 2.310580 1_555
Np7 O8 2.334180 1_554
O0 P1 1.560384 1_555
O1 P0 1.560384 1_555
O2 P0 1.555572 1_545
O3 P1 1.552117 1_555
O4 P3 1.560384 1_555
O5 P0 1.554186 1_555
O6 P2 1.554186 1_555
O7 P2 1.560384 1_555
O8 P1 1.555572 1_565
O9 P0 1.552117 1_555
O10 P3 1.554186 1_555
O11 P2 1.552117 1_555
O12 P3 1.555572 1_555
O13 P2 1.555572 1_555
O14 P3 1.552117 1_555
O15 P1 1.554186 1_555
F0 Np7 2.325265 1_555
F0 Np6 2.423985 1_555
F1 Np2 2.325265 1_555
F1 Np0 2.423985 1_555
F2 Np7 2.277657 1_555
F2 Np3 2.494381 1_565
F3 Np5 2.315772 1_555
F3 Np0 2.424353 1_555
F4 Np2 2.318407 1_555
F4 Np0 2.456625 1_555
F5 Np6 2.248661 1_555
F5 Np3 2.470730 1_565
F6 Np4 2.277657 1_555
F6 Np6 2.494381 1_555
F7 Np2 2.168452 1_555
F8 Np7 2.168452 1_555
F9 Np1 2.319788 1_565
F9 Np7 2.421013 1_556
F10 Np1 2.325265 1_555
F10 Np5 2.423985 1_555
F11 Np4 2.168452 1_555
F12 Np1 2.318407 1_555
F12 Np5 2.456625 1_555
F13 Np6 2.315772 1_555
F13 Np3 2.424353 1_555
F14 Np2 2.319788 1_555
F14 Np4 2.421013 1_656
F15 Np0 2.315772 1_545
F15 Np5 2.424353 1_555
F16 Np1 2.168452 1_555
F17 Np0 2.248661 1_555
F17 Np5 2.470730 1_555
F18 Np7 2.318407 1_555
F18 Np6 2.456625 1_555
F19 Np5 2.248661 1_555
F19 Np0 2.470730 1_545
F20 Np2 2.277657 1_555
F20 Np5 2.494381 1_555
F21 Np3 2.315772 1_565
F21 Np6 2.424353 1_555
F22 Np1 2.277657 1_555
F22 Np0 2.494381 1_545
F23 Np3 2.248661 1_555
F23 Np6 2.470730 1_555
F24 Np7 2.319788 1_545
F24 Np1 2.421013 1_554
F25 Np4 2.325265 1_555
F25 Np3 2.423985 1_555
F26 Np4 2.319788 1_555
F26 Np2 2.421013 1_454
F27 Np4 2.318407 1_555
F27 Np3 2.456625 1_555
