# generated using pymatgen
data_BaCd(PO3)4
_symmetry_space_group_name_H-M   'P 1'
_cell_length_a   9.41192500
_cell_length_b   7.35086100
_cell_length_c   16.79407165
_cell_angle_alpha   64.73542756
_cell_angle_beta   90.00000000
_cell_angle_gamma   90.00000000
_symmetry_Int_Tables_number   1
_chemical_formula_structural   BaCd(PO3)4
_chemical_formula_sum   'Ba4 Cd4 P16 O48'
_cell_volume   1050.76982293
_cell_formula_units_Z   4
loop_
 _symmetry_equiv_pos_site_id
 _symmetry_equiv_pos_as_xyz
  1  'x, y, z'
loop_
 _atom_site_type_symbol
 _atom_site_label
 _atom_site_symmetry_multiplicity
 _atom_site_fract_x
 _atom_site_fract_y
 _atom_site_fract_z
 _atom_site_occupancy
  Ba  Ba0  1  0.89225000  0.64780200  0.36711700  1
  Ba  Ba1  1  0.39225000  0.35219800  0.13288300  1
  Ba  Ba2  1  0.10775000  0.35219800  0.63288300  1
  Ba  Ba3  1  0.60775000  0.64780200  0.86711700  1
  Cd  Cd0  1  0.22921500  0.84593500  0.15743900  1
  Cd  Cd1  1  0.72921500  0.15406500  0.34256100  1
  Cd  Cd2  1  0.77078500  0.15406500  0.84256100  1
  Cd  Cd3  1  0.27078500  0.84593500  0.65743900  1
  P  P0  1  0.83260900  0.81178100  0.55821000  1
  P  P1  1  0.33260900  0.18821900  0.94179000  1
  P  P2  1  0.16739100  0.18821900  0.44179000  1
  P  P3  1  0.66739100  0.81178100  0.05821000  1
  P  P4  1  0.75013200  0.22025300  0.04080300  1
  P  P5  1  0.25013200  0.77974700  0.45919700  1
  P  P6  1  0.24986800  0.77974700  0.95919700  1
  P  P7  1  0.74986800  0.22025300  0.54080300  1
  P  P8  1  0.52058200  0.19014500  0.67357700  1
  P  P9  1  0.02058200  0.80985500  0.82642300  1
  P  P10  1  0.47941800  0.80985500  0.32642300  1
  P  P11  1  0.97941800  0.19014500  0.17357700  1
  P  P12  1  0.60020700  0.58077000  0.67742400  1
  P  P13  1  0.10020700  0.41923000  0.82257600  1
  P  P14  1  0.39979300  0.41923000  0.32257600  1
  P  P15  1  0.89979300  0.58077000  0.17742400  1
  O  O0  1  0.68005000  0.69788500  0.58478900  1
  O  O1  1  0.18005000  0.30211500  0.91521100  1
  O  O2  1  0.31995000  0.30211500  0.41521100  1
  O  O3  1  0.81995000  0.69788500  0.08478900  1
  O  O4  1  0.80981700  0.99402500  0.58718300  1
  O  O5  1  0.30981700  0.00597500  0.91281700  1
  O  O6  1  0.19018300  0.00597500  0.41281700  1
  O  O7  1  0.69018300  0.99402500  0.08718300  1
  O  O8  1  0.90451400  0.19951600  0.08569700  1
  O  O9  1  0.40451400  0.80048400  0.41430300  1
  O  O10  1  0.09548600  0.80048400  0.91430300  1
  O  O11  1  0.59548600  0.19951600  0.58569700  1
  O  O12  1  0.50919100  0.42381400  0.65530700  1
  O  O13  1  0.00919100  0.57618600  0.84469300  1
  O  O14  1  0.49080900  0.57618600  0.34469300  1
  O  O15  1  0.99080900  0.42381400  0.15530700  1
  O  O16  1  0.83983300  0.89016500  0.45907300  1
  O  O17  1  0.33983300  0.10983500  0.04092700  1
  O  O18  1  0.16016700  0.10983500  0.54092700  1
  O  O19  1  0.66016700  0.89016500  0.95907300  1
  O  O20  1  0.95178200  0.68624000  0.61161900  1
  O  O21  1  0.45178200  0.31376000  0.88838100  1
  O  O22  1  0.04821800  0.31376000  0.38838100  1
  O  O23  1  0.54821800  0.68624000  0.11161900  1
  O  O24  1  0.77756600  0.28668500  0.94400200  1
  O  O25  1  0.27756600  0.71331500  0.55599800  1
  O  O26  1  0.22243400  0.71331500  0.05599800  1
  O  O27  1  0.72243400  0.28668500  0.44400200  1
  O  O28  1  0.84676300  0.35315600  0.56347600  1
  O  O29  1  0.34676300  0.64684400  0.93652400  1
  O  O30  1  0.15323700  0.64684400  0.43652400  1
  O  O31  1  0.65323700  0.35315600  0.06347600  1
  O  O32  1  0.36952100  0.12676800  0.67036100  1
  O  O33  1  0.86952100  0.87323200  0.82963900  1
  O  O34  1  0.63047900  0.87323200  0.32963900  1
  O  O35  1  0.13047900  0.12676800  0.17036100  1
  O  O36  1  0.89145100  0.07347300  0.25423600  1
  O  O37  1  0.39145100  0.92652700  0.24576400  1
  O  O38  1  0.10854900  0.92652700  0.74576400  1
  O  O39  1  0.60854900  0.07347300  0.75423600  1
  O  O40  1  0.70470800  0.47789200  0.75109700  1
  O  O41  1  0.20470800  0.52210800  0.74890300  1
  O  O42  1  0.29529200  0.52210800  0.24890300  1
  O  O43  1  0.79529200  0.47789200  0.25109700  1
  O  O44  1  0.50109300  0.72317100  0.69332000  1
  O  O45  1  0.00109300  0.27682900  0.80668000  1
  O  O46  1  0.49890700  0.27682900  0.30668000  1
  O  O47  1  0.99890700  0.72317100  0.19332000  1
loop_
_geom_bond_atom_site_label_1
_geom_bond_atom_site_label_2
_geom_bond_distance
_geom_bond_site_symmetry_2
Ba0 O30 2.717642 1_655
Ba0 O22 2.750162 1_655
Ba0 O16 2.854966 1_555
Ba0 O43 2.875149 1_555
Ba0 O36 2.884683 1_565
Ba0 O34 2.884789 1_555
Ba0 O27 2.888340 1_555
Ba0 O47 2.907487 1_555
Ba0 O28 3.106810 1_555
Ba1 O31 2.717642 1_555
Ba1 O23 2.750162 1_555
Ba1 O17 2.854966 1_555
Ba1 O42 2.875149 1_555
Ba1 O37 2.884683 1_545
Ba1 O35 2.884789 1_555
Ba1 O26 2.888340 1_555
Ba1 O46 2.907487 1_555
Ba1 O29 3.106810 1_554
Ba2 O28 2.717642 1_455
Ba2 O20 2.750162 1_455
Ba2 O18 2.854966 1_555
Ba2 O41 2.875149 1_555
Ba2 O38 2.884683 1_545
Ba2 O32 2.884789 1_555
Ba2 O25 2.888340 1_555
Ba2 O45 2.907487 1_555
Ba2 O30 3.106810 1_555
Ba3 O29 2.717642 1_555
Ba3 O21 2.750162 1_555
Ba3 O19 2.854966 1_555
Ba3 O40 2.875149 1_555
Ba3 O39 2.884683 1_565
Ba3 O33 2.884789 1_555
Ba3 O24 2.888340 1_555
Ba3 O44 2.907487 1_555
Ba3 O31 3.106810 1_556
Cd0 O26 2.296601 1_555
Cd0 O42 2.300315 1_555
Cd0 O47 2.326364 1_455
Cd0 O17 2.331471 1_565
Cd0 O35 2.356839 1_565
Cd0 O37 2.373382 1_555
Cd1 O27 2.296601 1_555
Cd1 O43 2.300315 1_555
Cd1 O46 2.326364 1_555
Cd1 O16 2.331471 1_545
Cd1 O34 2.356839 1_545
Cd1 O36 2.373382 1_555
Cd2 O24 2.296601 1_555
Cd2 O40 2.300315 1_555
Cd2 O45 2.326364 1_655
Cd2 O19 2.331471 1_545
Cd2 O33 2.356839 1_545
Cd2 O39 2.373382 1_555
Cd3 O25 2.296601 1_555
Cd3 O41 2.300315 1_555
Cd3 O44 2.326364 1_555
Cd3 O18 2.331471 1_565
Cd3 O32 2.356839 1_565
Cd3 O38 2.373382 1_555
O0 P12 1.607136 1_555
O0 P0 1.625711 1_555
O1 P13 1.607136 1_555
O1 P1 1.625711 1_555
O2 P14 1.607136 1_555
O2 P2 1.625711 1_555
O3 P15 1.607136 1_555
O3 P3 1.625711 1_555
O4 P7 1.607751 1_565
O4 P0 1.622912 1_555
O5 P6 1.607751 1_545
O5 P1 1.622912 1_555
O6 P5 1.607751 1_545
O6 P2 1.622912 1_555
O7 P4 1.607751 1_565
O7 P3 1.622912 1_555
O8 P11 1.610325 1_555
O8 P4 1.613964 1_555
O9 P10 1.610325 1_555
O9 P5 1.613964 1_555
O10 P9 1.610325 1_555
O10 P6 1.613964 1_555
O11 P8 1.610325 1_555
O11 P7 1.613964 1_555
O12 P12 1.602736 1_555
O12 P8 1.614358 1_555
O13 P13 1.602736 1_555
O13 P9 1.614358 1_555
O14 P14 1.602736 1_555
O14 P10 1.614358 1_555
O15 P15 1.602736 1_555
O15 P11 1.614358 1_555
O16 P0 1.513174 1_555
O17 P1 1.513174 1_554
O18 P2 1.513174 1_555
O19 P3 1.513174 1_556
O20 P0 1.485829 1_555
O21 P1 1.485829 1_555
O22 P2 1.485829 1_555
O23 P3 1.485829 1_555
O24 P4 1.506763 1_556
O25 P5 1.506763 1_555
O26 P6 1.506763 1_554
O27 P7 1.506763 1_555
O28 P7 1.499547 1_555
O29 P6 1.499547 1_555
O30 P5 1.499547 1_555
O31 P4 1.499547 1_555
O32 P8 1.504287 1_555
O33 P9 1.504287 1_655
O34 P10 1.504287 1_555
O35 P11 1.504287 1_455
O36 P11 1.504753 1_555
O37 P10 1.504753 1_555
O38 P9 1.504753 1_555
O39 P8 1.504753 1_555
O40 P12 1.507126 1_555
O41 P13 1.507126 1_555
O42 P14 1.507126 1_555
O43 P15 1.507126 1_555
O44 P12 1.508557 1_555
O45 P13 1.508557 1_555
O46 P14 1.508557 1_555
O47 P15 1.508557 1_555
