# generated using pymatgen
data_InBiO3
_symmetry_space_group_name_H-M   'P 1'
_cell_length_a   5.71046200
_cell_length_b   6.05481900
_cell_length_c   8.41845500
_cell_angle_alpha   90.00000000
_cell_angle_beta   90.00000000
_cell_angle_gamma   90.00000000
_symmetry_Int_Tables_number   1
_chemical_formula_structural   InBiO3
_chemical_formula_sum   'In4 Bi4 O12'
_cell_volume   291.07493270
_cell_formula_units_Z   4
loop_
 _symmetry_equiv_pos_site_id
 _symmetry_equiv_pos_as_xyz
  1  'x, y, z'
loop_
 _atom_site_type_symbol
 _atom_site_label
 _atom_site_symmetry_multiplicity
 _atom_site_fract_x
 _atom_site_fract_y
 _atom_site_fract_z
 _atom_site_occupancy
  In  In0  1  0.99951000  0.50058200  0.51519700  1
  In  In1  1  0.00049000  0.49941800  0.01519700  1
  In  In2  1  0.49951000  0.99941800  0.01519700  1
  In  In3  1  0.50049000  0.00058200  0.51519700  1
  Bi  Bi0  1  0.99832200  0.93883100  0.79302700  1
  Bi  Bi1  1  0.50167800  0.43883100  0.79302700  1
  Bi  Bi2  1  0.49832200  0.56116900  0.29302700  1
  Bi  Bi3  1  0.00167800  0.06116900  0.29302700  1
  O  O0  1  0.80221800  0.79293500  0.43491900  1
  O  O1  1  0.11629400  0.44912700  0.25761300  1
  O  O2  1  0.88370600  0.55087300  0.75761300  1
  O  O3  1  0.15916700  0.16188800  0.52894300  1
  O  O4  1  0.65916700  0.33811200  0.02894300  1
  O  O5  1  0.34083300  0.66188800  0.52894300  1
  O  O6  1  0.84083300  0.83811200  0.02894300  1
  O  O7  1  0.61629400  0.05087300  0.75761300  1
  O  O8  1  0.19778200  0.20706500  0.93491900  1
  O  O9  1  0.69778200  0.29293500  0.43491900  1
  O  O10  1  0.38370600  0.94912700  0.25761300  1
  O  O11  1  0.30221800  0.70706500  0.93491900  1
loop_
_geom_bond_atom_site_label_1
_geom_bond_atom_site_label_2
_geom_bond_distance
_geom_bond_site_symmetry_2
In0 O2 2.166741 1_555
In0 O5 2.183193 1_655
In0 O0 2.204412 1_555
In0 O9 2.237453 1_555
In0 O3 2.247246 1_655
In0 O1 2.289983 1_655
In1 O1 2.166741 1_555
In1 O4 2.183193 1_455
In1 O8 2.204412 1_554
In1 O11 2.237453 1_554
In1 O6 2.247246 1_455
In1 O2 2.289983 1_454
In2 O10 2.166741 1_555
In2 O6 2.183193 1_555
In2 O11 2.204412 1_554
In2 O8 2.237453 1_564
In2 O4 2.247246 1_565
In2 O7 2.289983 1_564
In3 O7 2.166741 1_555
In3 O3 2.183193 1_555
In3 O9 2.204412 1_555
In3 O0 2.237453 1_545
In3 O5 2.247246 1_545
In3 O10 2.289983 1_545
Bi0 O6 2.263866 1_556
Bi0 O7 2.303972 1_565
Bi0 O8 2.315583 1_665
Bi0 O2 2.456652 1_555
Bi0 O11 2.531339 1_655
Bi0 O3 2.758660 1_665
Bi1 O4 2.263866 1_556
Bi1 O2 2.303972 1_555
Bi1 O11 2.315583 1_555
Bi1 O7 2.456652 1_555
Bi1 O8 2.531339 1_555
Bi1 O5 2.758660 1_555
Bi2 O5 2.263866 1_555
Bi2 O1 2.303972 1_555
Bi2 O9 2.315583 1_555
Bi2 O10 2.456652 1_555
Bi2 O0 2.531339 1_555
Bi2 O4 2.758660 1_555
Bi3 O3 2.263866 1_555
Bi3 O10 2.303972 1_545
Bi3 O0 2.315583 1_445
Bi3 O1 2.456652 1_555
Bi3 O9 2.531339 1_455
Bi3 O6 2.758660 1_445
