# generated using pymatgen
data_CdSbS2Br
_symmetry_space_group_name_H-M   'P 1'
_cell_length_a   3.97388200
_cell_length_b   6.89302609
_cell_length_c   9.84493534
_cell_angle_alpha   91.53843228
_cell_angle_beta   90.00000000
_cell_angle_gamma   106.75344272
_symmetry_Int_Tables_number   1
_chemical_formula_structural   CdSbS2Br
_chemical_formula_sum   'Cd2 Sb2 S4 Br2'
_cell_volume   258.12512774
_cell_formula_units_Z   2
loop_
 _symmetry_equiv_pos_site_id
 _symmetry_equiv_pos_as_xyz
  1  'x, y, z'
loop_
 _atom_site_type_symbol
 _atom_site_label
 _atom_site_symmetry_multiplicity
 _atom_site_fract_x
 _atom_site_fract_y
 _atom_site_fract_z
 _atom_site_occupancy
  Cd  Cd0  1  0.00000000  0.00000000  0.00000000  1
  Cd  Cd1  1  0.00000000  0.00000000  0.50000000  1
  Sb  Sb0  1  0.28614200  0.57228400  0.68474100  1
  Sb  Sb1  1  0.71385800  0.42771600  0.31525900  1
  S  S0  1  0.91405800  0.82811600  0.73883900  1
  S  S1  1  0.35357900  0.70715800  0.44951400  1
  S  S2  1  0.64642100  0.29284200  0.55048600  1
  S  S3  1  0.08594200  0.17188400  0.26116100  1
  Br  Br0  1  0.36552200  0.73104400  0.07555500  1
  Br  Br1  1  0.63447800  0.26895600  0.92444500  1
loop_
_geom_bond_atom_site_label_1
_geom_bond_atom_site_label_2
_geom_bond_distance
_geom_bond_site_symmetry_2
Cd0 S3 2.781037 1_555
Cd0 S0 2.781037 1_444
Cd1 S3 2.639237 1_555
Cd1 S0 2.639237 1_445
Cd1 S2 2.806627 1_455
Cd1 S1 2.806627 1_545
Cd1 S2 2.806627 1_555
Cd1 S1 2.806627 1_445
S0 Sb0 2.651895 1_655
S0 Sb0 2.651895 1_555
S1 Sb0 2.504199 1_555
S1 Sb1 2.993354 1_555
S1 Sb1 2.993354 1_455
S2 Sb1 2.504199 1_555
S2 Sb0 2.993354 1_655
S2 Sb0 2.993354 1_555
S3 Sb1 2.651895 1_455
S3 Sb1 2.651895 1_555
Br0 Cd0 2.779696 1_665
Br0 Cd0 2.779696 1_565
Br1 Cd0 2.779696 1_656
Br1 Cd0 2.779696 1_556
