# generated using pymatgen
data_Nd2W2O9
_symmetry_space_group_name_H-M   'P 1'
_cell_length_a   9.88499478
_cell_length_b   7.67107860
_cell_length_c   9.26472467
_cell_angle_alpha   72.54995830
_cell_angle_beta   90.00000000
_cell_angle_gamma   90.00000000
_symmetry_Int_Tables_number   1
_chemical_formula_structural   Nd2W2O9
_chemical_formula_sum   'Nd8 W8 O36'
_cell_volume   670.19951804
_cell_formula_units_Z   4
loop_
 _symmetry_equiv_pos_site_id
 _symmetry_equiv_pos_as_xyz
  1  'x, y, z'
loop_
 _atom_site_type_symbol
 _atom_site_label
 _atom_site_symmetry_multiplicity
 _atom_site_fract_x
 _atom_site_fract_y
 _atom_site_fract_z
 _atom_site_occupancy
  Nd  Nd0  1  0.45332916  0.28322310  0.42714611  1
  Nd  Nd1  1  0.04667084  0.28322310  0.92714611  1
  Nd  Nd2  1  0.55325275  0.77248962  0.15325931  1
  Nd  Nd3  1  0.05325275  0.22751038  0.34674069  1
  Nd  Nd4  1  0.94674725  0.77248962  0.65325931  1
  Nd  Nd5  1  0.44674725  0.22751038  0.84674069  1
  Nd  Nd6  1  0.95332916  0.71677690  0.07285389  1
  Nd  Nd7  1  0.54667084  0.71677690  0.57285389  1
  W  W0  1  0.24820696  0.92966451  0.73798995  1
  W  W1  1  0.72634046  0.42461983  0.96404412  1
  W  W2  1  0.75179304  0.07033549  0.26201005  1
  W  W3  1  0.77365954  0.42461983  0.46404412  1
  W  W4  1  0.25179304  0.92966451  0.23798995  1
  W  W5  1  0.74820696  0.07033549  0.76201005  1
  W  W6  1  0.27365954  0.57538017  0.03595588  1
  W  W7  1  0.22634046  0.57538017  0.53595588  1
  O  O0  1  0.59054621  0.95213271  0.34237569  1
  O  O1  1  0.63464393  0.26271293  0.64055410  1
  O  O2  1  0.13464393  0.73728707  0.85944590  1
  O  O3  1  0.70895502  0.58842769  0.07206538  1
  O  O4  1  0.39469787  0.44642645  0.60739167  1
  O  O5  1  0.29104498  0.41157231  0.92793462  1
  O  O6  1  0.61991728  0.98858013  0.90478610  1
  O  O7  1  0.62212272  0.22805903  0.07774322  1
  O  O8  1  0.21795876  0.10033300  0.83874994  1
  O  O9  1  0.28204124  0.10033300  0.33874994  1
  O  O10  1  0.60530213  0.55357355  0.39260833  1
  O  O11  1  0.10530213  0.44642645  0.10739167  1
  O  O12  1  0.87787728  0.22805903  0.57774322  1
  O  O13  1  0.09054621  0.04786729  0.15762431  1
  O  O14  1  0.40945379  0.04786729  0.65762431  1
  O  O15  1  0.12212272  0.77194097  0.42225678  1
  O  O16  1  0.40384110  0.49442758  0.17706856  1
  O  O17  1  0.37787728  0.77194097  0.92225678  1
  O  O18  1  0.09615890  0.49442758  0.67706856  1
  O  O19  1  0.59615890  0.50557242  0.82293144  1
  O  O20  1  0.11991728  0.01141987  0.59521390  1
  O  O21  1  0.90945379  0.95213271  0.84237569  1
  O  O22  1  0.68860024  0.25817177  0.36026745  1
  O  O23  1  0.20895502  0.41157231  0.42793462  1
  O  O24  1  0.86535607  0.26271293  0.14055410  1
  O  O25  1  0.36535607  0.73728707  0.35944590  1
  O  O26  1  0.31139976  0.74182823  0.63973255  1
  O  O27  1  0.90384110  0.50557242  0.32293144  1
  O  O28  1  0.81139976  0.25817177  0.86026745  1
  O  O29  1  0.89469787  0.55357355  0.89260833  1
  O  O30  1  0.79104498  0.58842769  0.57206538  1
  O  O31  1  0.88008272  0.98858013  0.40478610  1
  O  O32  1  0.71795876  0.89966700  0.66125006  1
  O  O33  1  0.38008272  0.01141987  0.09521390  1
  O  O34  1  0.78204124  0.89966700  0.16125006  1
  O  O35  1  0.18860024  0.74182823  0.13973255  1
loop_
_geom_bond_atom_site_label_1
_geom_bond_atom_site_label_2
_geom_bond_distance
_geom_bond_site_symmetry_2
Nd0 O14 2.386449 1_555
Nd0 O22 2.429182 1_555
Nd0 O4 2.438399 1_555
Nd0 O16 2.445599 1_555
Nd0 O9 2.488970 1_555
Nd0 O10 2.502425 1_555
Nd0 O23 2.609418 1_555
Nd0 O1 2.638124 1_555
Nd0 O0 3.178619 1_545
Nd1 O13 2.386449 1_556
Nd1 O28 2.429182 1_455
Nd1 O11 2.438399 1_556
Nd1 O18 2.445599 1_555
Nd1 O8 2.488970 1_555
Nd1 O29 2.502425 1_455
Nd1 O5 2.609418 1_555
Nd1 O24 2.638124 1_456
Nd1 O21 3.178619 1_445
Nd2 O3 2.359102 1_555
Nd2 O10 2.401824 1_555
Nd2 O33 2.446959 1_565
Nd2 O34 2.472909 1_555
Nd2 O6 2.488534 1_554
Nd2 O16 2.549047 1_555
Nd2 O0 2.559869 1_555
Nd2 O25 2.619622 1_555
Nd2 O17 2.755193 1_554
Nd3 O23 2.359102 1_555
Nd3 O11 2.401824 1_555
Nd3 O31 2.446959 1_445
Nd3 O9 2.472909 1_555
Nd3 O20 2.488534 1_555
Nd3 O27 2.549047 1_455
Nd3 O13 2.559869 1_555
Nd3 O24 2.619622 1_455
Nd3 O12 2.755193 1_455
Nd4 O30 2.359102 1_555
Nd4 O29 2.401824 1_555
Nd4 O20 2.446959 1_665
Nd4 O32 2.472909 1_555
Nd4 O31 2.488534 1_555
Nd4 O18 2.549047 1_655
Nd4 O21 2.559869 1_555
Nd4 O2 2.619622 1_655
Nd4 O15 2.755193 1_655
Nd5 O5 2.359102 1_555
Nd5 O4 2.401824 1_555
Nd5 O6 2.446959 1_545
Nd5 O8 2.472909 1_555
Nd5 O33 2.488534 1_556
Nd5 O19 2.549047 1_555
Nd5 O14 2.559869 1_555
Nd5 O1 2.619622 1_555
Nd5 O7 2.755193 1_556
Nd6 O21 2.386449 1_554
Nd6 O35 2.429182 1_655
Nd6 O29 2.438399 1_554
Nd6 O27 2.445599 1_555
Nd6 O34 2.488970 1_555
Nd6 O11 2.502425 1_655
Nd6 O3 2.609418 1_555
Nd6 O2 2.638124 1_654
Nd6 O13 3.178619 1_665
Nd7 O0 2.386449 1_555
Nd7 O26 2.429182 1_555
Nd7 O10 2.438399 1_555
Nd7 O19 2.445599 1_555
Nd7 O32 2.488970 1_555
Nd7 O4 2.502425 1_555
Nd7 O30 2.609418 1_555
Nd7 O25 2.638124 1_555
Nd7 O14 3.178619 1_565
O0 W2 1.874099 1_565
O1 W5 1.925681 1_555
O1 W3 2.210664 1_555
O2 W0 1.925681 1_555
O2 W6 2.210664 1_556
O3 W1 1.834213 1_554
O4 W7 1.947695 1_555
O5 W6 1.834213 1_556
O6 W5 1.803805 1_565
O7 W1 1.868659 1_554
O7 W2 2.186901 1_555
O8 W0 1.846044 1_545
O9 W4 1.846044 1_545
O10 W3 1.947695 1_555
O11 W6 1.947695 1_555
O12 W3 1.868659 1_555
O12 W5 2.186901 1_555
O13 W4 1.874099 1_545
O14 W0 1.874099 1_545
O15 W7 1.868659 1_555
O15 W4 2.186901 1_555
O16 W6 1.806627 1_555
O17 W6 1.868659 1_556
O17 W0 2.186901 1_555
O18 W7 1.806627 1_555
O19 W1 1.806627 1_555
O20 W0 1.803805 1_545
O21 W5 1.874099 1_565
O22 W3 1.999488 1_555
O22 W2 2.020346 1_555
O23 W7 1.834213 1_555
O24 W2 1.925681 1_555
O24 W1 2.210664 1_554
O25 W4 1.925681 1_555
O25 W7 2.210664 1_555
O26 W7 1.999488 1_555
O26 W0 2.020346 1_555
O27 W3 1.806627 1_555
O28 W1 1.999488 1_555
O28 W5 2.020346 1_555
O29 W1 1.947695 1_555
O30 W3 1.834213 1_555
O31 W2 1.803805 1_565
O32 W5 1.846044 1_565
O33 W4 1.803805 1_545
O34 W2 1.846044 1_565
O35 W6 1.999488 1_555
O35 W4 2.020346 1_555
