# generated using pymatgen
data_CsYSeCl2O3
_symmetry_space_group_name_H-M   'P 1'
_cell_length_a   7.08253400
_cell_length_b   6.71676600
_cell_length_c   18.17809438
_cell_angle_alpha   76.80477412
_cell_angle_beta   90.00000000
_cell_angle_gamma   90.00000000
_symmetry_Int_Tables_number   1
_chemical_formula_structural   CsYSeCl2O3
_chemical_formula_sum   'Cs4 Y4 Se4 Cl8 O12'
_cell_volume   841.93173727
_cell_formula_units_Z   4
loop_
 _symmetry_equiv_pos_site_id
 _symmetry_equiv_pos_as_xyz
  1  'x, y, z'
loop_
 _atom_site_type_symbol
 _atom_site_label
 _atom_site_symmetry_multiplicity
 _atom_site_fract_x
 _atom_site_fract_y
 _atom_site_fract_z
 _atom_site_occupancy
  Cs  Cs0  1  0.20737500  0.75633200  0.05487600  1
  Cs  Cs1  1  0.29262500  0.75633200  0.55487600  1
  Cs  Cs2  1  0.70737500  0.24366800  0.44512400  1
  Cs  Cs3  1  0.79262500  0.24366800  0.94512400  1
  Y  Y0  1  0.32582600  0.14019200  0.74234100  1
  Y  Y1  1  0.67417400  0.85980800  0.25765900  1
  Y  Y2  1  0.82582600  0.85980800  0.75765900  1
  Y  Y3  1  0.17417400  0.14019200  0.24234100  1
  Se  Se0  1  0.82109500  0.36155200  0.70728000  1
  Se  Se1  1  0.17890500  0.63844800  0.29272000  1
  Se  Se2  1  0.67890500  0.36155200  0.20728000  1
  Se  Se3  1  0.32109500  0.63844800  0.79272000  1
  Cl  Cl0  1  0.18433100  0.12619100  0.38972700  1
  Cl  Cl1  1  0.15463700  0.23199100  0.09158100  1
  Cl  Cl2  1  0.68433100  0.87380900  0.11027300  1
  Cl  Cl3  1  0.65463700  0.76800900  0.40841900  1
  Cl  Cl4  1  0.31566900  0.12619100  0.88972700  1
  Cl  Cl5  1  0.84536300  0.76800900  0.90841900  1
  Cl  Cl6  1  0.34536300  0.23199100  0.59158100  1
  Cl  Cl7  1  0.81566900  0.87380900  0.61027300  1
  O  O0  1  0.84921500  0.17725900  0.24393400  1
  O  O1  1  0.50121500  0.81740900  0.76523600  1
  O  O2  1  0.99878500  0.81740900  0.26523600  1
  O  O3  1  0.00121500  0.18259100  0.73476400  1
  O  O4  1  0.15078500  0.82274100  0.75606600  1
  O  O5  1  0.49878500  0.18259100  0.23476400  1
  O  O6  1  0.82983300  0.50671500  0.77251400  1
  O  O7  1  0.67016700  0.50671500  0.27251400  1
  O  O8  1  0.32983300  0.49328500  0.72748600  1
  O  O9  1  0.65078500  0.17725900  0.74393400  1
  O  O10  1  0.34921500  0.82274100  0.25606600  1
  O  O11  1  0.17016700  0.49328500  0.22748600  1
loop_
_geom_bond_atom_site_label_1
_geom_bond_atom_site_label_2
_geom_bond_distance
_geom_bond_site_symmetry_2
Cs0 O11 3.241210 1_555
Cs1 O8 3.241210 1_555
Cs2 O7 3.241210 1_555
Cs3 O6 3.241210 1_555
Cl0 Y3 2.660279 1_555
Cl0 Cs1 3.516749 1_545
Cl0 Cs2 3.662067 1_455
Cl0 Cs2 3.965175 1_555
Cl1 Y3 2.671775 1_555
Cl1 Cs0 3.430050 1_545
Cl1 Cs0 3.451883 1_555
Cl1 Cs3 3.684103 1_454
Cl2 Y1 2.660279 1_555
Cl2 Cs3 3.516749 1_564
Cl2 Cs0 3.662067 1_555
Cl2 Cs0 3.965175 1_655
Cl3 Y1 2.671775 1_555
Cl3 Cs2 3.430050 1_565
Cl3 Cs2 3.451883 1_555
Cl3 Cs1 3.684103 1_555
Cl4 Y0 2.660279 1_555
Cl4 Cs0 3.516749 1_546
Cl4 Cs3 3.662067 1_555
Cl4 Cs3 3.965175 1_455
Cl5 Y2 2.671775 1_555
Cl5 Cs3 3.430050 1_565
Cl5 Cs3 3.451883 1_555
Cl5 Cs0 3.684103 1_656
Cl6 Y0 2.671775 1_555
Cl6 Cs1 3.430050 1_545
Cl6 Cs1 3.451883 1_555
Cl6 Cs2 3.684103 1_555
Cl7 Y2 2.660279 1_555
Cl7 Cs2 3.516749 1_565
Cl7 Cs1 3.662067 1_655
Cl7 Cs1 3.965175 1_555
O0 Se2 1.747762 1_555
O0 Y3 2.315852 1_655
O0 Y1 2.429564 1_545
O1 Se3 1.745783 1_555
O1 Y2 2.316869 1_555
O1 Y0 2.450469 1_565
O2 Se1 1.745783 1_655
O2 Y1 2.316869 1_555
O2 Y3 2.450469 1_665
O3 Se0 1.745783 1_455
O3 Y0 2.316869 1_555
O3 Y2 2.450469 1_445
O4 Se3 1.747762 1_555
O4 Y2 2.315852 1_455
O4 Y0 2.429564 1_565
O5 Se2 1.745783 1_555
O5 Y3 2.316869 1_555
O5 Y1 2.450469 1_545
O6 Se0 1.699575 1_555
O6 Y2 2.325088 1_555
O7 Se2 1.699575 1_555
O7 Y1 2.325088 1_555
O8 Se3 1.699575 1_555
O8 Y0 2.325088 1_555
O9 Se0 1.747762 1_555
O9 Y0 2.315852 1_555
O9 Y2 2.429564 1_545
O10 Se1 1.747762 1_555
O10 Y1 2.315852 1_555
O10 Y3 2.429564 1_565
O11 Se1 1.699575 1_555
O11 Y3 2.325088 1_555
