# generated using pymatgen
data_Ba14MnSb11
_symmetry_space_group_name_H-M   'P 1'
_cell_length_a   17.92246388
_cell_length_b   17.92246449
_cell_length_c   17.92246478
_cell_angle_alpha   94.37919897
_cell_angle_beta   117.50162922
_cell_angle_gamma   117.50778312
_symmetry_Int_Tables_number   1
_chemical_formula_structural   Ba14MnSb11
_chemical_formula_sum   'Ba56 Mn4 Sb44'
_cell_volume   4211.01321391
_cell_formula_units_Z   4
loop_
 _symmetry_equiv_pos_site_id
 _symmetry_equiv_pos_as_xyz
  1  'x, y, z'
loop_
 _atom_site_type_symbol
 _atom_site_label
 _atom_site_symmetry_multiplicity
 _atom_site_fract_x
 _atom_site_fract_y
 _atom_site_fract_z
 _atom_site_occupancy
  Ba  Ba0  1  0.14440892  0.74956640  0.89259103  1
  Ba  Ba1  1  0.03097897  0.74554703  0.62794767  1
  Ba  Ba2  1  0.02506379  0.78250115  0.39741078  1
  Ba  Ba3  1  0.08966159  0.52451763  0.75191522  1
  Ba  Ba4  1  0.35443337  0.97930326  0.87472843  1
  Ba  Ba5  1  0.11737499  0.37168457  0.90245755  1
  Ba  Ba6  1  0.10443378  0.12536449  0.97944875  1
  Ba  Ba7  1  0.14366250  0.89366250  0.25000000  1
  Ba  Ba8  1  0.14591574  0.62536449  0.52093070  1
  Ba  Ba9  1  0.41147638  0.74886754  0.97456644  1
  Ba  Ba10  1  0.46922702  0.87168457  0.75430958  1
  Ba  Ba11  1  0.35566918  0.87511591  0.47830508  1
  Ba  Ba12  1  0.35627538  0.60627538  0.75000000  1
  Ba  Ba13  1  0.22508075  0.97463578  0.06198264  1
  Ba  Ba14  1  0.27260241  0.33774637  0.74808478  1
  Ba  Ba15  1  0.22686659  0.75128052  0.16277514  1
  Ba  Ba16  1  0.10457484  0.47930326  0.12486989  1
  Ba  Ba17  1  0.27430109  0.43690994  0.52543356  1
  Ba  Ba18  1  0.14469558  0.02194087  0.62505883  1
  Ba  Ba19  1  0.60443378  0.62498504  0.97906930  1
  Ba  Ba20  1  0.08850538  0.06409145  0.33722486  1
  Ba  Ba21  1  0.11759936  0.24554703  0.21456806  1
  Ba  Ba22  1  0.58966159  0.83774637  0.56514396  1
  Ba  Ba23  1  0.61737499  0.71491744  0.74569042  1
  Ba  Ba24  1  0.35697538  0.25181789  0.60740897  1
  Ba  Ba25  1  0.39688204  0.52194087  0.37724529  1
  Ba  Ba26  1  0.53097897  0.90303130  0.28543194  1
  Ba  Ba27  1  0.61759936  0.40303130  0.87205233  1
  Ba  Ba28  1  0.38537166  0.60316787  0.12809223  1
  Ba  Ba29  1  0.47507563  0.10316787  0.71779621  1
  Ba  Ba30  1  0.60457484  0.47970495  0.62527157  1
  Ba  Ba31  1  0.64440892  0.75181789  0.39484252  1
  Ba  Ba32  1  0.38509037  0.28250115  0.25743736  1
  Ba  Ba33  1  0.41265314  0.16309811  0.43801736  1
  Ba  Ba34  1  0.88537166  0.75727942  0.78220379  1
  Ba  Ba35  1  0.91147638  0.93690994  0.66260885  1
  Ba  Ba36  1  0.39681083  0.37511591  0.01944673  1
  Ba  Ba37  1  0.85443337  0.97970495  0.37513011  1
  Ba  Ba38  1  0.72686659  0.56409145  0.47558607  1
  Ba  Ba39  1  0.89688204  0.51963675  0.87494117  1
  Ba  Ba40  1  0.77430109  0.24886754  0.83739115  1
  Ba  Ba41  1  0.72508075  0.66309811  0.25044497  1
  Ba  Ba42  1  0.77260241  0.02451763  0.93485604  1
  Ba  Ba43  1  0.64366250  0.39366250  0.25000000  1
  Ba  Ba44  1  0.64591574  0.12498504  0.52055125  1
  Ba  Ba45  1  0.52506379  0.12765301  0.24256264  1
  Ba  Ba46  1  0.58850538  0.25128052  0.02441393  1
  Ba  Ba47  1  0.85566918  0.37736410  0.48055327  1
  Ba  Ba48  1  0.85627538  0.10627538  0.75000000  1
  Ba  Ba49  1  0.89681083  0.87736410  0.02169492  1
  Ba  Ba50  1  0.88509037  0.62765301  0.10258922  1
  Ba  Ba51  1  0.64469558  0.01963675  0.12275471  1
  Ba  Ba52  1  0.91265314  0.47463578  0.24955503  1
  Ba  Ba53  1  0.96922702  0.21491744  0.59754245  1
  Ba  Ba54  1  0.97507563  0.25727942  0.37190777  1
  Ba  Ba55  1  0.85697538  0.24956640  0.10515748  1
  Mn  Mn0  1  0.25001170  0.12528784  0.87483581  1
  Mn  Mn1  1  0.25045203  0.62528784  0.37527614  1
  Mn  Mn2  1  0.75001170  0.87517589  0.12472386  1
  Mn  Mn3  1  0.75045203  0.37517589  0.62516419  1
  Sb  Sb0  1  0.12174186  0.93598024  0.81951065  1
  Sb  Sb1  1  0.15782096  0.58573883  0.97928972  1
  Sb  Sb2  1  0.24999540  0.74350392  0.75639530  1
  Sb  Sb3  1  0.25008715  0.88194691  0.61814143  1
  Sb  Sb4  1  0.10665221  0.42799212  0.58543786  1
  Sb  Sb5  1  0.11569122  0.18035079  0.80121887  1
  Sb  Sb6  1  0.00774761  0.75382668  0.00383058  1
  Sb  Sb7  1  0.12131595  0.68551697  0.30159646  1
  Sb  Sb8  1  0.34255426  0.52121435  0.91456214  1
  Sb  Sb9  1  0.11646959  0.43598024  0.31423838  1
  Sb  Sb10  1  0.10644911  0.17853124  0.52071028  1
  Sb  Sb11  1  0.39276580  0.97916171  0.32081930  1
  Sb  Sb12  1  0.37913191  0.68035079  0.56465957  1
  Sb  Sb13  1  0.61569122  0.81447234  0.93534043  1
  Sb  Sb14  1  0.37953636  0.19944624  0.81477365  1
  Sb  Sb15  1  0.48710862  0.49360010  0.74360470  1
  Sb  Sb16  1  0.38467259  0.69944624  0.31990988  1
  Sb  Sb17  1  0.39251214  0.91385165  0.07189927  1
  Sb  Sb18  1  0.34195237  0.32061287  0.42810073  1
  Sb  Sb19  1  0.24999609  0.00391703  0.49616942  1
  Sb  Sb20  1  0.26380547  0.38194691  0.13185975  1
  Sb  Sb21  1  0.84255426  0.92799212  0.82133991  1
  Sb  Sb22  1  0.15834241  0.07194650  0.17918070  1
  Sb  Sb23  1  0.74999540  0.99360010  0.50649148  1
  Sb  Sb24  1  0.76380547  0.63194572  0.88185857  1
  Sb  Sb25  1  0.65782096  0.67853124  0.57208213  1
  Sb  Sb26  1  0.60644911  0.08573883  0.92791787  1
  Sb  Sb27  1  0.61646959  0.30223121  0.68048935  1
  Sb  Sb28  1  0.50774761  0.50391703  0.25392094  1
  Sb  Sb29  1  0.62174186  0.80223121  0.18576162  1
  Sb  Sb30  1  0.38392051  0.18551697  0.06420102  1
  Sb  Sb31  1  0.62131595  0.31971949  0.43579898  1
  Sb  Sb32  1  0.60665221  0.02121435  0.67866009  1
  Sb  Sb33  1  0.89251214  0.82061287  0.47866049  1
  Sb  Sb34  1  0.88467259  0.56476271  0.68522635  1
  Sb  Sb35  1  0.65834241  0.47916171  0.08639590  1
  Sb  Sb36  1  0.87913191  0.31447234  0.69878113  1
  Sb  Sb37  1  0.98710862  0.24350392  0.99350852  1
  Sb  Sb38  1  0.88392051  0.81971949  0.19840354  1
  Sb  Sb39  1  0.89276580  0.57194650  0.41360410  1
  Sb  Sb40  1  0.75008715  0.13194572  0.36814025  1
  Sb  Sb41  1  0.74999609  0.25382668  0.24607906  1
  Sb  Sb42  1  0.84195237  0.41385165  0.02133951  1
  Sb  Sb43  1  0.87953636  0.06476271  0.18009012  1
loop_
_geom_bond_atom_site_label_1
_geom_bond_atom_site_label_2
_geom_bond_distance
_geom_bond_site_symmetry_2
Ba0 Sb17 3.468846 1_556
Ba0 Sb1 3.478108 1_555
Ba0 Sb2 3.737199 1_555
Ba0 Sb34 3.788435 1_455
Ba0 Sb0 3.804397 1_555
Ba0 Sb6 3.826102 1_556
Ba1 Sb2 3.536825 1_555
Ba1 Sb33 3.553735 1_455
Ba1 Sb39 3.583436 1_455
Ba1 Sb3 3.641877 1_555
Ba1 Sb34 3.684255 1_455
Ba1 Sb0 3.742509 1_555
Ba2 Sb39 3.533312 1_455
Ba2 Sb3 3.555319 1_555
Ba2 Sb19 3.562573 1_565
Ba2 Sb33 3.573903 1_455
Ba2 Sb38 3.626943 1_455
Ba2 Sb7 3.741119 1_555
Ba3 Sb36 3.511208 1_455
Ba3 Sb4 3.539123 1_555
Ba3 Sb1 3.575505 1_555
Ba3 Sb2 3.603953 1_555
Ba3 Sb34 3.737714 1_455
Ba3 Sb8 4.137171 1_555
Ba4 Sb0 3.471938 1_555
Ba4 Sb26 3.568660 1_565
Ba4 Sb17 3.670794 1_556
Ba4 Sb2 3.676867 1_555
Ba4 Mn0 3.856654 1_565
Ba4 Sb3 3.937946 1_555
Ba4 Sb14 4.047004 1_565
Ba5 Sb37 3.539497 1_455
Ba5 Sb8 3.553643 1_555
Ba5 Sb1 3.583568 1_555
Ba5 Sb20 3.646753 1_556
Ba5 Sb36 3.687497 1_455
Ba5 Sb5 3.735773 1_555
Ba6 Sb5 3.479634 1_555
Ba6 Sb22 3.584395 1_556
Ba6 Sb21 3.663537 1_445
Ba6 Sb37 3.672718 1_455
Ba6 Mn0 3.852742 1_555
Ba6 Sb20 3.938235 1_556
Ba6 Sb30 4.036720 1_556
Ba7 Sb11 3.470057 1_555
Ba7 Sb22 3.470057 1_565
Ba7 Sb38 3.797467 1_455
Ba7 Sb7 3.797467 1_555
Ba7 Sb6 3.798247 1_555
Ba7 Sb19 3.798247 1_565
Ba8 Sb12 3.479634 1_555
Ba8 Sb39 3.584395 1_455
Ba8 Sb4 3.663537 1_555
Ba8 Sb2 3.672718 1_555
Ba8 Mn1 3.852742 1_555
Ba8 Sb3 3.938235 1_555
Ba8 Sb7 4.036720 1_555
Ba9 Sb29 3.519594 1_556
Ba9 Sb17 3.548270 1_556
Ba9 Sb8 3.574507 1_555
Ba9 Sb2 3.592894 1_555
Ba9 Sb13 3.714827 1_555
Ba9 Sb1 4.163864 1_555
Ba10 Sb2 3.539496 1_555
Ba10 Sb32 3.553644 1_565
Ba10 Sb26 3.583568 1_565
Ba10 Sb3 3.646753 1_555
Ba10 Sb13 3.687497 1_555
Ba10 Sb12 3.735773 1_555
Ba11 Sb7 3.479354 1_555
Ba11 Sb32 3.570850 1_565
Ba11 Sb11 3.643859 1_555
Ba11 Sb19 3.674785 1_565
Ba11 Sb3 3.797881 1_555
Ba11 Mn1 3.838743 1_555
Ba11 Sb12 4.041885 1_555
Ba12 Sb4 3.477569 1_555
Ba12 Sb8 3.477569 1_555
Ba12 Sb15 3.765173 1_555
Ba12 Sb2 3.765173 1_555
Ba12 Sb13 3.793711 1_555
Ba12 Sb12 3.793711 1_555
Ba13 Sb30 3.510570 1_565
Ba13 Sb22 3.545742 1_565
Ba13 Sb17 3.574891 1_555
Ba13 Sb6 3.647103 1_555
Ba13 Sb0 3.703640 1_554
Ba13 Sb11 4.171372 1_555
Ba14 Sb5 3.511208 1_555
Ba14 Sb8 3.539123 1_555
Ba14 Sb10 3.575505 1_555
Ba14 Sb15 3.603953 1_555
Ba14 Sb14 3.737714 1_555
Ba14 Sb4 4.137171 1_555
Ba15 Sb16 3.501979 1_555
Ba15 Sb1 3.536728 1_554
Ba15 Sb11 3.575216 1_555
Ba15 Sb6 3.659653 1_555
Ba15 Sb7 3.727345 1_555
Ba15 Sb17 4.141960 1_555
Ba16 Sb9 3.471938 1_555
Ba16 Sb1 3.568660 1_554
Ba16 Sb42 3.670794 1_455
Ba16 Sb37 3.676867 1_454
Ba16 Mn1 3.856654 1_555
Ba16 Sb20 3.937946 1_555
Ba16 Sb16 4.047004 1_555
Ba17 Sb9 3.519594 1_555
Ba17 Sb18 3.548270 1_555
Ba17 Sb4 3.574506 1_555
Ba17 Sb15 3.592894 1_555
Ba17 Sb12 3.714827 1_555
Ba17 Sb10 4.163864 1_555
Ba18 Sb14 3.487025 1_555
Ba18 Sb33 3.587381 1_445
Ba18 Sb10 3.638470 1_555
Ba18 Sb19 3.671195 1_555
Ba18 Sb3 3.798039 1_545
Ba18 Mn0 3.838506 1_555
Ba18 Sb0 4.030753 1_545
Ba19 Sb13 3.479634 1_555
Ba19 Sb35 3.584395 1_556
Ba19 Sb8 3.663537 1_555
Ba19 Sb15 3.672718 1_555
Ba19 Mn2 3.852742 1_556
Ba19 Sb24 3.938235 1_555
Ba19 Sb38 4.036720 1_556
Ba20 Sb43 3.501979 1_455
Ba20 Sb10 3.536728 1_555
Ba20 Sb22 3.575216 1_555
Ba20 Sb19 3.659653 1_555
Ba20 Sb38 3.727345 1_445
Ba20 Sb18 4.141960 1_555
Ba21 Sb37 3.536826 1_454
Ba21 Sb18 3.553735 1_555
Ba21 Sb22 3.583436 1_555
Ba21 Sb20 3.641877 1_555
Ba21 Sb43 3.684255 1_455
Ba21 Sb9 3.742509 1_555
Ba22 Sb12 3.511208 1_555
Ba22 Sb32 3.539123 1_565
Ba22 Sb25 3.575505 1_555
Ba22 Sb23 3.603953 1_555
Ba22 Sb16 3.737715 1_555
Ba22 Sb21 4.137171 1_555
Ba23 Sb15 3.539497 1_555
Ba23 Sb21 3.553644 1_555
Ba23 Sb25 3.583568 1_555
Ba23 Sb24 3.646753 1_555
Ba23 Sb12 3.687497 1_555
Ba23 Sb13 3.735773 1_555
Ba24 Sb18 3.468845 1_555
Ba24 Sb10 3.478108 1_555
Ba24 Sb15 3.737199 1_555
Ba24 Sb14 3.788435 1_555
Ba24 Sb27 3.804397 1_555
Ba24 Sb19 3.826102 1_555
Ba25 Sb16 3.487025 1_555
Ba25 Sb18 3.587381 1_555
Ba25 Sb25 3.638470 1_555
Ba25 Sb28 3.671195 1_555
Ba25 Sb20 3.798039 1_555
Ba25 Mn1 3.838506 1_555
Ba25 Sb9 4.030753 1_555
Ba26 Sb23 3.536826 1_555
Ba26 Sb17 3.553735 1_555
Ba26 Sb11 3.583436 1_555
Ba26 Sb40 3.641877 1_565
Ba26 Sb16 3.684255 1_555
Ba26 Sb29 3.742509 1_555
Ba27 Sb15 3.536826 1_555
Ba27 Sb42 3.553735 1_556
Ba27 Sb35 3.583436 1_556
Ba27 Sb24 3.641877 1_555
Ba27 Sb14 3.684255 1_555
Ba27 Sb27 3.742509 1_555
Ba28 Sb1 3.534601 1_554
Ba28 Sb20 3.559287 1_555
Ba28 Sb28 3.564955 1_555
Ba28 Sb8 3.574943 1_554
Ba28 Sb29 3.629740 1_555
Ba28 Sb16 3.735006 1_555
Ba29 Sb26 3.534601 1_555
Ba29 Sb3 3.559287 1_545
Ba29 Sb19 3.564955 1_555
Ba29 Sb32 3.574943 1_555
Ba29 Sb27 3.629740 1_555
Ba29 Sb14 3.735006 1_555
Ba30 Sb27 3.471938 1_555
Ba30 Sb25 3.568660 1_555
Ba30 Sb18 3.670794 1_555
Ba30 Sb15 3.676867 1_555
Ba30 Mn3 3.856654 1_555
Ba30 Sb24 3.937946 1_555
Ba30 Sb34 4.047004 1_555
Ba31 Sb33 3.468845 1_555
Ba31 Sb25 3.478108 1_555
Ba31 Sb23 3.737199 1_555
Ba31 Sb16 3.788435 1_555
Ba31 Sb29 3.804397 1_555
Ba31 Sb28 3.826102 1_555
Ba32 Sb22 3.533312 1_555
Ba32 Sb20 3.555319 1_555
Ba32 Sb28 3.562573 1_555
Ba32 Sb18 3.573903 1_555
Ba32 Sb31 3.626943 1_555
Ba32 Sb30 3.741119 1_555
Ba33 Sb31 3.510570 1_555
Ba33 Sb11 3.545743 1_545
Ba33 Sb18 3.574891 1_555
Ba33 Sb19 3.647103 1_555
Ba33 Sb27 3.703640 1_555
Ba33 Sb22 4.171372 1_555
Ba34 Sb25 3.534601 1_555
Ba34 Sb24 3.559287 1_555
Ba34 Sb6 3.564955 1_656
Ba34 Sb21 3.574943 1_555
Ba34 Sb0 3.629740 1_655
Ba34 Sb34 3.735006 1_555
Ba35 Sb0 3.519594 1_655
Ba35 Sb33 3.548270 1_555
Ba35 Sb21 3.574507 1_555
Ba35 Sb23 3.592894 1_555
Ba35 Sb5 3.714827 1_665
Ba35 Sb25 4.163864 1_555
Ba36 Sb30 3.479354 1_555
Ba36 Sb8 3.570850 1_554
Ba36 Sb35 3.643859 1_555
Ba36 Sb28 3.674785 1_555
Ba36 Sb20 3.797881 1_555
Ba36 Mn0 3.838743 1_554
Ba36 Sb5 4.041885 1_554
Ba37 Sb29 3.471938 1_555
Ba37 Sb10 3.568660 1_665
Ba37 Sb33 3.670794 1_555
Ba37 Sb23 3.676867 1_555
Ba37 Mn2 3.856654 1_555
Ba37 Sb40 3.937946 1_565
Ba37 Sb43 4.047004 1_565
Ba38 Sb34 3.501979 1_555
Ba38 Sb25 3.536728 1_555
Ba38 Sb39 3.575216 1_555
Ba38 Sb28 3.659653 1_555
Ba38 Sb31 3.727345 1_555
Ba38 Sb33 4.141960 1_555
Ba39 Sb34 3.487025 1_555
Ba39 Sb42 3.587381 1_556
Ba39 Sb1 3.638470 1_655
Ba39 Sb6 3.671195 1_656
Ba39 Sb24 3.798039 1_555
Ba39 Mn3 3.838506 1_555
Ba39 Sb27 4.030753 1_555
Ba40 Sb27 3.519594 1_555
Ba40 Sb42 3.548270 1_556
Ba40 Sb32 3.574507 1_555
Ba40 Sb37 3.592894 1_555
Ba40 Sb36 3.714826 1_555
Ba40 Sb26 4.163864 1_555
Ba41 Sb38 3.510570 1_555
Ba41 Sb35 3.545743 1_555
Ba41 Sb33 3.574892 1_555
Ba41 Sb28 3.647103 1_555
Ba41 Sb29 3.703639 1_555
Ba41 Sb39 4.171372 1_555
Ba42 Sb13 3.511208 1_545
Ba42 Sb21 3.539123 1_545
Ba42 Sb26 3.575505 1_555
Ba42 Sb37 3.603953 1_555
Ba42 Sb43 3.737715 1_556
Ba42 Sb32 4.137171 1_555
Ba43 Sb39 3.470057 1_555
Ba43 Sb35 3.470058 1_555
Ba43 Sb30 3.797467 1_555
Ba43 Sb31 3.797467 1_555
Ba43 Sb41 3.798246 1_555
Ba43 Sb28 3.798247 1_555
Ba44 Sb36 3.479634 1_555
Ba44 Sb11 3.584395 1_545
Ba44 Sb32 3.663537 1_555
Ba44 Sb23 3.672718 1_545
Ba44 Mn3 3.852742 1_555
Ba44 Sb40 3.938235 1_555
Ba44 Sb31 4.036720 1_555
Ba45 Sb11 3.533312 1_545
Ba45 Sb40 3.555319 1_555
Ba45 Sb41 3.562573 1_555
Ba45 Sb17 3.573903 1_545
Ba45 Sb30 3.626943 1_555
Ba45 Sb31 3.741119 1_555
Ba46 Sb14 3.501979 1_554
Ba46 Sb26 3.536728 1_554
Ba46 Sb35 3.575216 1_555
Ba46 Sb41 3.659653 1_555
Ba46 Sb30 3.727345 1_555
Ba46 Sb42 4.141960 1_555
Ba47 Sb31 3.479354 1_555
Ba47 Sb4 3.570850 1_655
Ba47 Sb39 3.643859 1_555
Ba47 Sb41 3.674785 1_555
Ba47 Sb40 3.797881 1_555
Ba47 Mn3 3.838743 1_555
Ba47 Sb36 4.041885 1_555
Ba48 Sb32 3.477569 1_555
Ba48 Sb21 3.477569 1_545
Ba48 Sb23 3.765173 1_545
Ba48 Sb37 3.765173 1_555
Ba48 Sb5 3.793711 1_655
Ba48 Sb36 3.793711 1_555
Ba49 Sb38 3.479354 1_555
Ba49 Sb21 3.570850 1_554
Ba49 Sb22 3.643859 1_665
Ba49 Sb6 3.674785 1_655
Ba49 Sb24 3.797881 1_554
Ba49 Mn2 3.838743 1_555
Ba49 Sb13 4.041885 1_554
Ba50 Sb35 3.533312 1_555
Ba50 Sb24 3.555319 1_554
Ba50 Sb6 3.562573 1_655
Ba50 Sb42 3.573903 1_555
Ba50 Sb7 3.626943 1_655
Ba50 Sb38 3.741119 1_555
Ba51 Sb43 3.487025 1_555
Ba51 Sb17 3.587381 1_545
Ba51 Sb26 3.638470 1_554
Ba51 Sb41 3.671195 1_555
Ba51 Sb40 3.798039 1_555
Ba51 Mn2 3.838506 1_545
Ba51 Sb29 4.030753 1_545
Ba52 Sb7 3.510570 1_655
Ba52 Sb39 3.545743 1_555
Ba52 Sb42 3.574891 1_555
Ba52 Sb41 3.647103 1_555
Ba52 Sb9 3.703639 1_655
Ba52 Sb35 4.171372 1_555
Ba53 Sb23 3.539497 1_545
Ba53 Sb4 3.553644 1_655
Ba53 Sb10 3.583568 1_655
Ba53 Sb40 3.646753 1_555
Ba53 Sb5 3.687497 1_655
Ba53 Sb36 3.735773 1_555
Ba54 Sb10 3.534601 1_655
Ba54 Sb40 3.559287 1_555
Ba54 Sb41 3.564955 1_555
Ba54 Sb4 3.574943 1_655
Ba54 Sb9 3.629740 1_655
Ba54 Sb43 3.735006 1_555
Ba55 Sb42 3.468846 1_555
Ba55 Sb26 3.478108 1_554
Ba55 Sb37 3.737199 1_554
Ba55 Sb43 3.788435 1_555
Ba55 Sb9 3.804397 1_655
Ba55 Sb41 3.826102 1_555
Mn0 Sb0 2.820572 1_545
Mn0 Sb30 2.822853 1_556
Mn0 Sb5 2.823125 1_555
Mn0 Sb14 2.826738 1_555
Mn1 Sb9 2.820572 1_555
Mn1 Sb7 2.822853 1_555
Mn1 Sb12 2.823125 1_555
Mn1 Sb16 2.826738 1_555
Mn2 Sb29 2.820572 1_555
Mn2 Sb38 2.822853 1_555
Mn2 Sb13 2.823125 1_554
Mn2 Sb43 2.826738 1_565
Mn3 Sb27 2.820572 1_555
Mn3 Sb31 2.822853 1_555
Mn3 Sb36 2.823125 1_555
Mn3 Sb34 2.826738 1_555
Sb19 Sb3 3.207361 1_545
Sb20 Sb28 3.207361 1_555
Sb24 Sb6 3.207361 1_656
Sb40 Sb41 3.207361 1_555
