# generated using pymatgen
data_Ca10(Al2Ge3)3
_symmetry_space_group_name_H-M   'P 1'
_cell_length_a   10.71080801
_cell_length_b   10.71080801
_cell_length_c   10.71080870
_cell_angle_alpha   81.37178477
_cell_angle_beta   81.37178477
_cell_angle_gamma   81.37178198
_symmetry_Int_Tables_number   1
_chemical_formula_structural   Ca10(Al2Ge3)3
_chemical_formula_sum   'Ca20 Al12 Ge18'
_cell_volume   1190.83995639
_cell_formula_units_Z   2
loop_
 _symmetry_equiv_pos_site_id
 _symmetry_equiv_pos_as_xyz
  1  'x, y, z'
loop_
 _atom_site_type_symbol
 _atom_site_label
 _atom_site_symmetry_multiplicity
 _atom_site_fract_x
 _atom_site_fract_y
 _atom_site_fract_z
 _atom_site_occupancy
  Ca  Ca0  1  0.79292000  0.20708000  0.50000000  1
  Ca  Ca1  1  0.20708000  0.50000000  0.79292000  1
  Ca  Ca2  1  0.29144300  0.70855700  0.00000000  1
  Ca  Ca3  1  0.79292000  0.50000000  0.20708000  1
  Ca  Ca4  1  0.00000000  0.29144300  0.70855700  1
  Ca  Ca5  1  0.65596500  0.94679400  0.65596500  1
  Ca  Ca6  1  0.34403500  0.34403500  0.05320600  1
  Ca  Ca7  1  0.00000000  0.70855700  0.29144300  1
  Ca  Ca8  1  0.34403500  0.05320600  0.34403500  1
  Ca  Ca9  1  0.94679400  0.65596500  0.65596500  1
  Ca  Ca10  1  0.20708000  0.79292000  0.50000000  1
  Ca  Ca11  1  0.50000000  0.79292000  0.20708000  1
  Ca  Ca12  1  0.05320600  0.34403500  0.34403500  1
  Ca  Ca13  1  0.00000000  0.00000000  0.00000000  1
  Ca  Ca14  1  0.70855700  0.29144300  0.00000000  1
  Ca  Ca15  1  0.65596500  0.65596500  0.94679400  1
  Ca  Ca16  1  0.50000000  0.50000000  0.50000000  1
  Ca  Ca17  1  0.29144300  0.00000000  0.70855700  1
  Ca  Ca18  1  0.50000000  0.20708000  0.79292000  1
  Ca  Ca19  1  0.70855700  0.00000000  0.29144300  1
  Al  Al0  1  0.03112900  0.03112900  0.31757400  1
  Al  Al1  1  0.28541100  0.28541100  0.50032500  1
  Al  Al2  1  0.71458900  0.49967500  0.71458900  1
  Al  Al3  1  0.31757400  0.03112900  0.03112900  1
  Al  Al4  1  0.68242600  0.96887100  0.96887100  1
  Al  Al5  1  0.28541100  0.50032500  0.28541100  1
  Al  Al6  1  0.49967500  0.71458900  0.71458900  1
  Al  Al7  1  0.96887100  0.96887100  0.68242600  1
  Al  Al8  1  0.71458900  0.71458900  0.49967500  1
  Al  Al9  1  0.50032500  0.28541100  0.28541100  1
  Al  Al10  1  0.03112900  0.31757400  0.03112900  1
  Al  Al11  1  0.96887100  0.68242600  0.96887100  1
  Ge  Ge0  1  0.10913100  0.51361800  0.10913100  1
  Ge  Ge1  1  0.51315200  0.18592300  0.51315200  1
  Ge  Ge2  1  0.18592300  0.51315200  0.51315200  1
  Ge  Ge3  1  0.89086900  0.89086900  0.48638200  1
  Ge  Ge4  1  0.20452000  0.88361000  0.20452000  1
  Ge  Ge5  1  0.48684800  0.81407700  0.48684800  1
  Ge  Ge6  1  0.11639000  0.79548000  0.79548000  1
  Ge  Ge7  1  0.48638200  0.89086900  0.89086900  1
  Ge  Ge8  1  0.51361800  0.10913100  0.10913100  1
  Ge  Ge9  1  0.88361000  0.20452000  0.20452000  1
  Ge  Ge10  1  0.10913100  0.10913100  0.51361800  1
  Ge  Ge11  1  0.79548000  0.79548000  0.11639000  1
  Ge  Ge12  1  0.79548000  0.11639000  0.79548000  1
  Ge  Ge13  1  0.89086900  0.48638200  0.89086900  1
  Ge  Ge14  1  0.48684800  0.48684800  0.81407700  1
  Ge  Ge15  1  0.51315200  0.51315200  0.18592300  1
  Ge  Ge16  1  0.20452000  0.20452000  0.88361000  1
  Ge  Ge17  1  0.81407700  0.48684800  0.48684800  1
loop_
_geom_bond_atom_site_label_1
_geom_bond_atom_site_label_2
_geom_bond_distance
_geom_bond_site_symmetry_2
Ca0 Ge17 3.019597 1_555
Ca0 Ge1 3.019597 1_555
Ca0 Ge9 3.171135 1_555
Ca0 Ge12 3.171135 1_555
Ca0 Ge10 3.410136 1_655
Ca0 Ge3 3.410136 1_545
Ca1 Ge14 3.019597 1_555
Ca1 Ge2 3.019597 1_555
Ca1 Ge6 3.171134 1_555
Ca1 Ge16 3.171134 1_555
Ca1 Ge13 3.410136 1_455
Ca1 Ge0 3.410136 1_556
Ca2 Ge6 3.045906 1_554
Ca2 Ge4 3.045906 1_555
Ca2 Ge7 3.056978 1_554
Ca2 Ge0 3.056978 1_555
Ca2 Ge15 3.558405 1_555
Ca2 Ge14 3.558405 1_554
Ca3 Ge15 3.019597 1_555
Ca3 Ge17 3.019597 1_555
Ca3 Ge9 3.171134 1_555
Ca3 Ge11 3.171134 1_555
Ca3 Ge0 3.410136 1_655
Ca3 Ge13 3.410136 1_554
Ca4 Ge16 3.045906 1_555
Ca4 Ge12 3.045906 1_455
Ca4 Ge13 3.056978 1_455
Ca4 Ge10 3.056978 1_555
Ca4 Ge17 3.558405 1_455
Ca4 Ge2 3.558405 1_555
Ca5 Ge3 2.913996 1_555
Ca5 Ge7 2.913996 1_555
Ca5 Ge1 3.096885 1_565
Ca5 Ge12 3.172474 1_565
Ca5 Ge5 3.333543 1_555
Ca6 Ge8 2.913996 1_555
Ca6 Ge0 2.913996 1_555
Ca6 Ge14 3.096885 1_554
Ca6 Ge16 3.172474 1_554
Ca6 Ge15 3.333543 1_555
Ca7 Ge11 3.045906 1_455
Ca7 Ge4 3.045906 1_555
Ca7 Ge0 3.056978 1_555
Ca7 Ge3 3.056978 1_455
Ca7 Ge2 3.558405 1_555
Ca7 Ge17 3.558405 1_455
Ca8 Ge10 2.913996 1_555
Ca8 Ge8 2.913996 1_555
Ca8 Ge5 3.096885 1_545
Ca8 Ge4 3.172474 1_545
Ca8 Ge1 3.333543 1_555
Ca9 Ge3 2.913996 1_555
Ca9 Ge13 2.913996 1_555
Ca9 Ge2 3.096885 1_655
Ca9 Ge6 3.172474 1_655
Ca9 Ge17 3.333543 1_555
Ca10 Ge5 3.019597 1_555
Ca10 Ge2 3.019597 1_555
Ca10 Ge4 3.171135 1_555
Ca10 Ge6 3.171135 1_555
Ca10 Ge10 3.410136 1_565
Ca10 Ge3 3.410136 1_455
Ca11 Ge15 3.019597 1_555
Ca11 Ge5 3.019597 1_555
Ca11 Ge4 3.171134 1_555
Ca11 Ge11 3.171134 1_555
Ca11 Ge8 3.410136 1_565
Ca11 Ge7 3.410136 1_554
Ca12 Ge10 2.913996 1_555
Ca12 Ge0 2.913996 1_555
Ca12 Ge17 3.096885 1_455
Ca12 Ge9 3.172474 1_455
Ca12 Ge2 3.333543 1_555
Ca13 Ge6 3.309437 1_544
Ca13 Ge12 3.309437 1_454
Ca13 Ge9 3.309437 1_455
Ca13 Ge4 3.309437 1_545
Ca13 Ge11 3.309437 1_445
Ca13 Ge16 3.309437 1_554
Ca14 Ge12 3.045906 1_554
Ca14 Ge9 3.045906 1_555
Ca14 Ge13 3.056978 1_554
Ca14 Ge8 3.056978 1_555
Ca14 Ge15 3.558405 1_555
Ca14 Ge14 3.558405 1_554
Ca15 Ge7 2.913996 1_555
Ca15 Ge13 2.913996 1_555
Ca15 Ge15 3.096885 1_556
Ca15 Ge11 3.172474 1_556
Ca15 Ge14 3.333543 1_555
Ca16 Ge5 3.328346 1_555
Ca16 Ge17 3.328346 1_555
Ca16 Ge1 3.328346 1_555
Ca16 Ge2 3.328346 1_555
Ca16 Ge14 3.328347 1_555
Ca16 Ge15 3.328347 1_555
Ca17 Ge16 3.045906 1_555
Ca17 Ge6 3.045906 1_545
Ca17 Ge7 3.056978 1_545
Ca17 Ge10 3.056978 1_555
Ca17 Ge5 3.558405 1_545
Ca17 Ge1 3.558405 1_555
Ca18 Ge14 3.019597 1_555
Ca18 Ge1 3.019597 1_555
Ca18 Ge12 3.171134 1_555
Ca18 Ge16 3.171134 1_555
Ca18 Ge7 3.410136 1_545
Ca18 Ge8 3.410136 1_556
Ca19 Ge11 3.045906 1_545
Ca19 Ge9 3.045906 1_555
Ca19 Ge8 3.056978 1_555
Ca19 Ge3 3.056978 1_545
Ca19 Ge1 3.558405 1_555
Ca19 Ge5 3.558405 1_545
Al0 Ge9 2.535889 1_455
Al0 Ge4 2.535889 1_545
Al0 Ge3 2.613444 1_445
Al0 Ge10 2.658437 1_555
Al0 Ca13 3.536422 1_555
Al1 Ge1 2.526110 1_555
Al1 Ge2 2.526110 1_555
Al1 Ge10 2.838739 1_555
Al1 Al5 3.001275 1_555
Al1 Al9 3.001275 1_555
Al1 Ca8 3.138065 1_555
Al1 Ca12 3.138065 1_555
Al1 Ca16 3.485076 1_555
Al1 Ca17 3.501706 1_555
Al1 Ca4 3.501706 1_555
Al2 Ge14 2.526110 1_555
Al2 Ge17 2.526110 1_555
Al2 Ge13 2.838740 1_555
Al2 Al6 3.001274 1_555
Al2 Al8 3.001275 1_555
Al2 Ca9 3.138065 1_555
Al2 Ca15 3.138065 1_555
Al2 Ca16 3.485076 1_555
Al2 Ca4 3.501706 1_655
Al2 Ca14 3.501706 1_556
Al3 Ge16 2.535889 1_554
Al3 Ge4 2.535889 1_545
Al3 Ge7 2.613444 1_544
Al3 Ge8 2.658437 1_555
Al3 Ca13 3.536422 1_555
Al4 Ge11 2.535889 1_556
Al4 Ge12 2.535889 1_565
Al4 Ge8 2.613444 1_566
Al4 Ge7 2.658437 1_555
Al4 Ca13 3.536422 1_666
Al5 Ge15 2.526110 1_555
Al5 Ge2 2.526110 1_555
Al5 Ge0 2.838740 1_555
Al5 Al9 3.001274 1_555
Al5 Ca12 3.138065 1_555
Al5 Ca6 3.138065 1_555
Al5 Ca16 3.485076 1_555
Al5 Ca7 3.501706 1_555
Al5 Ca2 3.501706 1_555
Al6 Ge14 2.526110 1_555
Al6 Ge5 2.526110 1_555
Al6 Ge7 2.838740 1_555
Al6 Al8 3.001275 1_555
Al6 Ca5 3.138065 1_555
Al6 Ca15 3.138065 1_555
Al6 Ca16 3.485076 1_555
Al6 Ca17 3.501706 1_565
Al6 Ca2 3.501706 1_556
Al7 Ge12 2.535889 1_565
Al7 Ge6 2.535889 1_655
Al7 Ge10 2.613444 1_665
Al7 Ge3 2.658437 1_555
Al7 Ca13 3.536422 1_666
Al8 Ge5 2.526110 1_555
Al8 Ge17 2.526110 1_555
Al8 Ge3 2.838739 1_555
Al8 Ca9 3.138065 1_555
Al8 Ca5 3.138065 1_555
Al8 Ca16 3.485076 1_555
Al8 Ca7 3.501706 1_655
Al8 Ca19 3.501706 1_565
Al9 Ge15 2.526110 1_555
Al9 Ge1 2.526110 1_555
Al9 Ge8 2.838740 1_555
Al9 Ca8 3.138065 1_555
Al9 Ca6 3.138065 1_555
Al9 Ca16 3.485076 1_555
Al9 Ca19 3.501706 1_555
Al9 Ca14 3.501706 1_555
Al10 Ge16 2.535889 1_554
Al10 Ge9 2.535889 1_455
Al10 Ge13 2.613444 1_454
Al10 Ge0 2.658437 1_555
Al10 Ca13 3.536422 1_555
Al11 Ge11 2.535889 1_556
Al11 Ge6 2.535889 1_655
Al11 Ge0 2.613444 1_656
Al11 Ge13 2.658437 1_555
Al11 Ca13 3.536422 1_666
