# generated using pymatgen
data_KLiZnP2O7
_symmetry_space_group_name_H-M   'P 1'
_cell_length_a   5.15802200
_cell_length_b   10.44247700
_cell_length_c   12.60045100
_cell_angle_alpha   90.00000000
_cell_angle_beta   90.00000000
_cell_angle_gamma   90.00000000
_symmetry_Int_Tables_number   1
_chemical_formula_structural   KLiZnP2O7
_chemical_formula_sum   'K4 Li4 Zn4 P8 O28'
_cell_volume   678.69212087
_cell_formula_units_Z   4
loop_
 _symmetry_equiv_pos_site_id
 _symmetry_equiv_pos_as_xyz
  1  'x, y, z'
loop_
 _atom_site_type_symbol
 _atom_site_label
 _atom_site_symmetry_multiplicity
 _atom_site_fract_x
 _atom_site_fract_y
 _atom_site_fract_z
 _atom_site_occupancy
  K  K0  1  0.00874900  0.75642900  0.00000000  1
  K  K1  1  0.49794000  0.49047600  0.50000000  1
  K  K2  1  0.50206000  0.99047600  0.50000000  1
  K  K3  1  0.99125100  0.25642900  0.00000000  1
  Li  Li0  1  0.03848400  0.47487200  0.24989800  1
  Li  Li1  1  0.96151600  0.97487200  0.24989800  1
  Li  Li2  1  0.03848400  0.47487200  0.75010200  1
  Li  Li3  1  0.96151600  0.97487200  0.75010200  1
  Zn  Zn0  1  0.53233900  0.27306400  0.74873100  1
  Zn  Zn1  1  0.53233900  0.27306400  0.25126900  1
  Zn  Zn2  1  0.46766100  0.77306400  0.25126900  1
  Zn  Zn3  1  0.46766100  0.77306400  0.74873100  1
  P  P0  1  0.98104900  0.71938200  0.38262600  1
  P  P1  1  0.01895100  0.21938200  0.61737400  1
  P  P2  1  0.98104900  0.71938200  0.61737400  1
  P  P3  1  0.01895100  0.21938200  0.38262600  1
  P  P4  1  0.53468900  0.52452300  0.11780200  1
  P  P5  1  0.53468900  0.52452300  0.88219800  1
  P  P6  1  0.46531100  0.02452300  0.88219800  1
  P  P7  1  0.46531100  0.02452300  0.11780200  1
  O  O0  1  0.82574800  0.51351900  0.87273200  1
  O  O1  1  0.61622900  0.93348100  0.80746900  1
  O  O2  1  0.31640200  0.23199600  0.62554900  1
  O  O3  1  0.57029500  0.16248100  0.12706700  1
  O  O4  1  0.57029500  0.16248100  0.87293300  1
  O  O5  1  0.91881100  0.08396100  0.62651400  1
  O  O6  1  0.11782900  0.81488500  0.30696800  1
  O  O7  1  0.94469800  0.27582500  0.50000000  1
  O  O8  1  0.91881100  0.08396100  0.37348600  1
  O  O9  1  0.61622900  0.93348100  0.19253100  1
  O  O10  1  0.82574800  0.51351900  0.12726800  1
  O  O11  1  0.31640200  0.23199600  0.37445100  1
  O  O12  1  0.17425200  0.01351900  0.12726800  1
  O  O13  1  0.38377100  0.43348100  0.80746900  1
  O  O14  1  0.08118900  0.58396100  0.37348600  1
  O  O15  1  0.17425200  0.01351900  0.87273200  1
  O  O16  1  0.88217100  0.31488500  0.69303200  1
  O  O17  1  0.44478900  0.47584400  0.00000000  1
  O  O18  1  0.42970500  0.66248100  0.12706700  1
  O  O19  1  0.55521100  0.97584400  0.00000000  1
  O  O20  1  0.11782900  0.81488500  0.69303200  1
  O  O21  1  0.88217100  0.31488500  0.30696800  1
  O  O22  1  0.08118900  0.58396100  0.62651400  1
  O  O23  1  0.42970500  0.66248100  0.87293300  1
  O  O24  1  0.68359800  0.73199600  0.62554900  1
  O  O25  1  0.68359800  0.73199600  0.37445100  1
  O  O26  1  0.05530200  0.77582500  0.50000000  1
  O  O27  1  0.38377100  0.43348100  0.19253100  1
loop_
_geom_bond_atom_site_label_1
_geom_bond_atom_site_label_2
_geom_bond_distance
_geom_bond_site_symmetry_2
K0 O18 2.870632 1_555
K0 O23 2.870632 1_554
K0 O10 3.145931 1_455
K0 O0 3.145931 1_454
K0 O12 3.241569 1_565
K0 O15 3.241569 1_564
K0 O19 3.274502 1_455
K1 O22 2.848699 1_555
K1 O14 2.848699 1_555
K1 O25 3.127382 1_555
K1 O24 3.127382 1_555
K1 O7 3.214727 1_555
K1 O2 3.265727 1_555
K1 O11 3.265727 1_555
K2 O8 2.848699 1_565
K2 O5 2.848699 1_565
K2 O11 3.127382 1_565
K2 O2 3.127382 1_565
K2 O26 3.214727 1_555
K2 O25 3.265727 1_555
K2 O24 3.265727 1_555
K3 O3 2.870632 1_555
K3 O4 2.870632 1_554
K3 O12 3.145931 1_655
K3 O15 3.145931 1_654
K3 O10 3.241569 1_555
K3 O0 3.241569 1_554
K3 O17 3.274502 1_655
Li0 O10 1.937667 1_455
Li0 O14 1.941978 1_555
Li0 O27 1.970097 1_555
Li0 O21 1.989545 1_455
Li1 O12 1.937667 1_665
Li1 O8 1.941978 1_565
Li1 O9 1.970097 1_555
Li1 O6 1.989545 1_655
Li2 O0 1.937667 1_455
Li2 O22 1.941978 1_555
Li2 O13 1.970097 1_555
Li2 O16 1.989545 1_455
Li3 O15 1.937667 1_665
Li3 O5 1.941978 1_565
Li3 O1 1.970097 1_555
Li3 O20 1.989545 1_655
O0 P5 1.510397 1_555
O1 P6 1.548047 1_565
O1 Zn3 1.985235 1_555
O2 P1 1.543344 1_555
O2 Zn0 1.957970 1_555
O3 P7 1.543456 1_555
O3 Zn1 1.954745 1_555
O4 P6 1.543456 1_555
O4 Zn0 1.954745 1_555
O5 P1 1.509909 1_655
O6 P0 1.549568 1_455
O6 Zn2 1.984766 1_555
O7 P1 1.637506 1_655
O7 P3 1.637506 1_655
O8 P3 1.509909 1_655
O9 P7 1.548047 1_565
O9 Zn2 1.985235 1_555
O10 P4 1.510397 1_555
O11 P3 1.543344 1_555
O11 Zn1 1.957970 1_555
O12 P7 1.510397 1_555
O13 P5 1.548047 1_555
O13 Zn0 1.985235 1_555
O14 P0 1.509909 1_455
O15 P6 1.510397 1_555
O16 P1 1.549568 1_655
O16 Zn0 1.984766 1_555
O17 P4 1.636075 1_555
O17 P5 1.636075 1_554
O18 P4 1.543456 1_555
O18 Zn2 1.954745 1_555
O19 P7 1.636075 1_565
O19 P6 1.636075 1_564
O20 P2 1.549568 1_455
O20 Zn3 1.984766 1_555
O21 P3 1.549568 1_655
O21 Zn1 1.984766 1_555
O22 P2 1.509909 1_455
O23 P5 1.543456 1_555
O23 Zn3 1.954745 1_555
O24 P2 1.543344 1_555
O24 Zn3 1.957970 1_555
O25 P0 1.543344 1_555
O25 Zn2 1.957970 1_555
O26 P2 1.637506 1_455
O26 P0 1.637506 1_455
O27 P4 1.548047 1_555
O27 Zn1 1.985235 1_555
