# generated using pymatgen
data_BaFe2(SeO3)4
_symmetry_space_group_name_H-M   'P 1'
_cell_length_a   5.30942000
_cell_length_b   10.34760100
_cell_length_c   14.19222511
_cell_angle_alpha   49.20963783
_cell_angle_beta   90.00000000
_cell_angle_gamma   90.00000000
_symmetry_Int_Tables_number   1
_chemical_formula_structural   BaFe2(SeO3)4
_chemical_formula_sum   'Ba2 Fe4 Se8 O24'
_cell_volume   590.32793775
_cell_formula_units_Z   2
loop_
 _symmetry_equiv_pos_site_id
 _symmetry_equiv_pos_as_xyz
  1  'x, y, z'
loop_
 _atom_site_type_symbol
 _atom_site_label
 _atom_site_symmetry_multiplicity
 _atom_site_fract_x
 _atom_site_fract_y
 _atom_site_fract_z
 _atom_site_occupancy
  Ba  Ba0  1  0.06131400  0.00000000  0.75000000  1
  Ba  Ba1  1  0.93868600  0.00000000  0.25000000  1
  Fe  Fe0  1  0.00000000  0.50000000  0.50000000  1
  Fe  Fe1  1  0.50000000  0.00000000  0.00000000  1
  Fe  Fe2  1  0.50000000  0.00000000  0.50000000  1
  Fe  Fe3  1  0.00000000  0.50000000  0.00000000  1
  Se  Se0  1  0.49705800  0.34090200  0.18339700  1
  Se  Se1  1  0.00782000  0.74674100  0.59405500  1
  Se  Se2  1  0.00782000  0.25325900  0.90594500  1
  Se  Se3  1  0.99218000  0.25325900  0.40594500  1
  Se  Se4  1  0.50294200  0.34090200  0.68339700  1
  Se  Se5  1  0.50294200  0.65909800  0.81660300  1
  Se  Se6  1  0.49705800  0.65909800  0.31660300  1
  Se  Se7  1  0.99218000  0.74674100  0.09405500  1
  O  O0  1  0.21200400  0.70309600  0.34974900  1
  O  O1  1  0.29334800  0.81107000  0.03240400  1
  O  O2  1  0.78799600  0.70309600  0.84974900  1
  O  O3  1  0.81419600  0.91352000  0.96657100  1
  O  O4  1  0.70665200  0.81107000  0.53240400  1
  O  O5  1  0.30266200  0.34840300  0.58339200  1
  O  O6  1  0.18580400  0.08648000  0.03342900  1
  O  O7  1  0.69733800  0.34840300  0.08339200  1
  O  O8  1  0.78799600  0.29690400  0.65025100  1
  O  O9  1  0.58587200  0.13662100  0.31646300  1
  O  O10  1  0.69733800  0.65159700  0.41660800  1
  O  O11  1  0.29334800  0.18893000  0.46759600  1
  O  O12  1  0.58587200  0.86337900  0.18353700  1
  O  O13  1  0.81419600  0.08648000  0.53342900  1
  O  O14  1  0.41412800  0.13662100  0.81646300  1
  O  O15  1  0.05503100  0.41889500  0.90464900  1
  O  O16  1  0.70665200  0.18893000  0.96759600  1
  O  O17  1  0.94496900  0.41889500  0.40464900  1
  O  O18  1  0.05503100  0.58110500  0.59535100  1
  O  O19  1  0.41412800  0.86337900  0.68353700  1
  O  O20  1  0.30266200  0.65159700  0.91660800  1
  O  O21  1  0.18580400  0.91352000  0.46657100  1
  O  O22  1  0.94496900  0.58110500  0.09535100  1
  O  O23  1  0.21200400  0.29690400  0.15025100  1
loop_
_geom_bond_atom_site_label_1
_geom_bond_atom_site_label_2
_geom_bond_distance
_geom_bond_site_symmetry_2
Ba0 O8 2.804633 1_455
Ba0 O2 2.804633 1_445
Ba0 O14 2.853001 1_555
Ba0 O19 2.853001 1_545
Ba0 O3 2.894081 1_445
Ba0 O13 2.894081 1_455
Ba0 O5 3.015311 1_555
Ba0 O20 3.015311 1_545
Ba0 O1 3.341497 1_546
Ba0 O11 3.341497 1_555
Ba1 O23 2.804633 1_655
Ba1 O0 2.804633 1_645
Ba1 O9 2.853001 1_555
Ba1 O12 2.853001 1_545
Ba1 O21 2.894081 1_645
Ba1 O6 2.894081 1_655
Ba1 O7 3.015311 1_555
Ba1 O10 3.015311 1_545
Ba1 O4 3.341497 1_545
Ba1 O16 3.341497 1_554
Fe0 O10 2.004497 1_455
Fe0 O5 2.004497 1_555
Fe0 O18 2.026044 1_555
Fe0 O17 2.026044 1_455
Fe0 O0 2.091745 1_555
Fe0 O8 2.091745 1_455
Fe1 O16 2.015580 1_554
Fe1 O1 2.015580 1_545
Fe1 O12 2.044509 1_545
Fe1 O14 2.044509 1_554
Fe1 O3 2.088889 1_544
Fe1 O6 2.088889 1_555
Fe2 O11 2.015580 1_555
Fe2 O4 2.015580 1_545
Fe2 O19 2.044509 1_545
Fe2 O9 2.044509 1_555
Fe2 O13 2.088889 1_555
Fe2 O21 2.088889 1_545
Fe3 O20 2.004497 1_554
Fe3 O7 2.004497 1_455
Fe3 O22 2.026044 1_455
Fe3 O15 2.026044 1_554
Fe3 O2 2.091745 1_454
Fe3 O23 2.091745 1_555
O0 Se6 1.731759 1_555
O1 Se7 1.733367 1_455
O2 Se5 1.731759 1_555
O3 Se7 1.750741 1_556
O4 Se1 1.733367 1_655
O5 Se4 1.734139 1_555
O6 Se2 1.750741 1_554
O7 Se0 1.734139 1_555
O8 Se4 1.731759 1_555
O9 Se0 1.743904 1_555
O10 Se6 1.734139 1_555
O11 Se3 1.733367 1_455
O12 Se6 1.743904 1_555
O13 Se3 1.750741 1_555
O14 Se4 1.743904 1_555
O15 Se2 1.720336 1_555
O16 Se2 1.733367 1_655
O17 Se3 1.720336 1_555
O18 Se1 1.720336 1_555
O19 Se5 1.743904 1_555
O20 Se5 1.734139 1_555
O21 Se1 1.750741 1_555
O22 Se7 1.720336 1_555
O23 Se0 1.731759 1_555
