# generated using pymatgen
data_Sr2Co2O5
_symmetry_space_group_name_H-M   'P 1'
_cell_length_a   5.32828340
_cell_length_b   5.41127482
_cell_length_c   8.95969850
_cell_angle_alpha   107.55554929
_cell_angle_beta   107.30878474
_cell_angle_gamma   89.96290115
_symmetry_Int_Tables_number   1
_chemical_formula_structural   Sr2Co2O5
_chemical_formula_sum   'Sr4 Co4 O10'
_cell_volume   234.01856303
_cell_formula_units_Z   2
loop_
 _symmetry_equiv_pos_site_id
 _symmetry_equiv_pos_as_xyz
  1  'x, y, z'
loop_
 _atom_site_type_symbol
 _atom_site_label
 _atom_site_symmetry_multiplicity
 _atom_site_fract_x
 _atom_site_fract_y
 _atom_site_fract_z
 _atom_site_occupancy
  Sr  Sr0  1  0.37819242  0.88121487  0.77765185  1
  Sr  Sr1  1  0.10051571  0.60320738  0.22244252  1
  Sr  Sr2  1  0.87871735  0.39670204  0.77755516  1
  Sr  Sr3  1  0.60110886  0.11867454  0.22232572  1
  Co  Co0  1  0.27535919  0.18800319  0.49972755  1
  Co  Co1  1  0.98771055  -0.00002044  0.00014997  1
  Co  Co2  1  0.77574279  0.81241184  0.50029792  1
  Co  Co3  1  0.48748397  0.49977883  -0.00025234  1
  O  O0  1  0.33600512  0.38280313  0.71421105  1
  O  O1  1  0.62258670  0.61709011  0.28594423  1
  O  O2  1  0.13324396  0.86316114  0.50001193  1
  O  O3  1  0.12174791  0.16740466  0.28498350  1
  O  O4  1  0.74197667  0.75183596  0.00646475  1
  O  O5  1  0.24173145  0.75416016  0.00596182  1
  O  O6  1  0.83741427  0.83239574  0.71495904  1
  O  O7  1  0.73582063  0.24823319  0.99404434  1
  O  O8  1  0.63315994  0.13738690  0.50000221  1
  O  O9  1  0.23548051  0.24555576  0.99351677  1
loop_
_geom_bond_atom_site_label_1
_geom_bond_atom_site_label_2
_geom_bond_distance
_geom_bond_site_symmetry_2
Co0 O0 1.821385 1_555
Co0 O3 1.821524 1_555
Co0 O2 1.915430 1_545
Co0 O8 1.925245 1_555
Co1 O5 1.897788 1_645
Co1 O7 1.899285 1_554
Co1 O9 1.899725 1_654
Co1 O4 1.900737 1_545
Co1 O3 2.316289 1_655
Co1 O6 2.319117 1_544
Co2 O1 1.820859 1_555
Co2 O6 1.821335 1_555
Co2 O8 1.915592 1_565
Co2 O2 1.925603 1_655
Co3 O7 1.897959 1_554
Co3 O4 1.899226 1_555
Co3 O5 1.899308 1_555
Co3 O9 1.900003 1_554
Co3 O0 2.322109 1_554
Co3 O1 2.327381 1_555
O0 Sr0 2.578294 1_555
O0 Sr2 2.657339 1_455
O0 Sr2 2.772687 1_555
O0 Sr0 2.931649 1_545
O1 Sr3 2.578046 1_555
O1 Sr1 2.664613 1_555
O1 Sr1 2.765924 1_655
O1 Sr3 2.932411 1_565
O2 Sr0 2.413014 1_555
O2 Sr1 2.413685 1_555
O3 Sr1 2.578222 1_555
O3 Sr3 2.658070 1_455
O3 Sr3 2.769755 1_555
O3 Sr1 2.928900 1_545
O4 Sr1 2.603497 1_655
O4 Sr3 2.605807 1_565
O4 Sr2 2.634390 1_554
O4 Sr0 2.636235 1_554
O5 Sr3 2.608587 1_565
O5 Sr1 2.611600 1_555
O5 Sr0 2.630573 1_554
O5 Sr2 2.632922 1_454
O6 Sr2 2.577807 1_555
O6 Sr0 2.664570 1_555
O6 Sr0 2.763379 1_655
O6 Sr2 2.929477 1_565
O7 Sr2 2.609063 1_555
O7 Sr0 2.611143 1_545
O7 Sr1 2.630728 1_656
O7 Sr3 2.632371 1_556
O8 Sr3 2.413355 1_555
O8 Sr2 2.413765 1_555
O9 Sr0 2.603608 1_545
O9 Sr2 2.605867 1_455
O9 Sr3 2.634461 1_556
O9 Sr1 2.636466 1_556
