# generated using pymatgen
data_Eu(Ni2B)6
_symmetry_space_group_name_H-M   'P 1'
_cell_length_a   5.99629975
_cell_length_b   5.99629975
_cell_length_c   5.99630031
_cell_angle_alpha   104.44088296
_cell_angle_beta   104.44088296
_cell_angle_gamma   104.44087596
_symmetry_Int_Tables_number   1
_chemical_formula_structural   Eu(Ni2B)6
_chemical_formula_sum   'Eu1 Ni12 B6'
_cell_volume   190.70715283
_cell_formula_units_Z   1
loop_
 _symmetry_equiv_pos_site_id
 _symmetry_equiv_pos_as_xyz
  1  'x, y, z'
loop_
 _atom_site_type_symbol
 _atom_site_label
 _atom_site_symmetry_multiplicity
 _atom_site_fract_x
 _atom_site_fract_y
 _atom_site_fract_z
 _atom_site_occupancy
  Eu  Eu0  1  0.00000000  0.00000000  0.00000000  1
  Ni  Ni0  1  0.81220126  0.54073120  0.54073120  1
  Ni  Ni1  1  0.50000000  0.86845593  0.13154407  1
  Ni  Ni2  1  0.13154407  0.50000000  0.86845593  1
  Ni  Ni3  1  0.13154407  0.86845593  0.50000000  1
  Ni  Ni4  1  0.86845593  0.50000000  0.13154407  1
  Ni  Ni5  1  0.54073120  0.54073120  0.81220126  1
  Ni  Ni6  1  0.50000000  0.13154407  0.86845593  1
  Ni  Ni7  1  0.45926880  0.45926880  0.18779874  1
  Ni  Ni8  1  0.86845593  0.13154407  0.50000000  1
  Ni  Ni9  1  0.18779874  0.45926880  0.45926880  1
  Ni  Ni10  1  0.45926880  0.18779874  0.45926880  1
  Ni  Ni11  1  0.54073120  0.81220126  0.54073120  1
  B  B0  1  0.23308998  0.66115238  0.23308998  1
  B  B1  1  0.76691002  0.76691002  0.33884762  1
  B  B2  1  0.33884762  0.76691002  0.76691002  1
  B  B3  1  0.66115238  0.23308998  0.23308998  1
  B  B4  1  0.23308998  0.23308998  0.66115238  1
  B  B5  1  0.76691002  0.33884762  0.76691002  1
loop_
_geom_bond_atom_site_label_1
_geom_bond_atom_site_label_2
_geom_bond_distance
_geom_bond_site_symmetry_2
Eu0 Ni9 3.091933 1_555
Eu0 Ni10 3.091933 1_555
Eu0 Ni11 3.091933 1_444
Eu0 Ni0 3.091933 1_444
Eu0 Ni5 3.091933 1_444
Eu0 Ni7 3.091933 1_555
Eu0 Ni4 3.247084 1_455
Eu0 Ni1 3.247084 1_545
Eu0 Ni6 3.247084 1_454
Eu0 Ni2 3.247084 1_544
Eu0 Ni1 3.247085 1_445
Eu0 Ni6 3.247085 1_554
Eu0 Ni2 3.247085 1_554
Eu0 Ni4 3.247085 1_445
Eu0 Ni8 3.247085 1_455
Eu0 Ni3 3.247085 1_545
Eu0 Ni3 3.247085 1_544
Eu0 Ni8 3.247085 1_454
B0 Ni4 2.018376 1_455
B0 Ni2 2.018376 1_554
B0 Ni7 2.053576 1_555
B0 Ni9 2.053576 1_555
B0 Ni11 2.064538 1_555
B0 Ni3 2.085365 1_555
B0 Ni1 2.085365 1_555
B0 Eu0 3.145445 1_565
B1 Ni8 2.018376 1_565
B1 Ni3 2.018376 1_655
B1 Ni11 2.053576 1_555
B1 Ni0 2.053576 1_555
B1 Ni7 2.064538 1_555
B1 Ni4 2.085365 1_555
B1 Ni1 2.085365 1_555
B1 Eu0 3.145446 1_665
B2 Ni6 2.018376 1_565
B2 Ni1 2.018376 1_556
B2 Ni5 2.053576 1_555
B2 Ni11 2.053576 1_555
B2 Ni9 2.064538 1_555
B2 Ni3 2.085365 1_555
B2 Ni2 2.085365 1_555
B2 Eu0 3.145445 1_566
B3 Ni1 2.018376 1_545
B3 Ni6 2.018376 1_554
B3 Ni7 2.053576 1_555
B3 Ni10 2.053576 1_555
B3 Ni0 2.064538 1_555
B3 Ni8 2.085365 1_555
B3 Ni4 2.085365 1_555
B3 Eu0 3.145445 1_655
B4 Ni3 2.018376 1_545
B4 Ni8 2.018376 1_455
B4 Ni9 2.053576 1_555
B4 Ni10 2.053576 1_555
B4 Ni5 2.064538 1_555
B4 Ni2 2.085365 1_555
B4 Ni6 2.085365 1_555
B4 Eu0 3.145446 1_556
B5 Ni2 2.018376 1_655
B5 Ni4 2.018376 1_556
B5 Ni5 2.053576 1_555
B5 Ni0 2.053576 1_555
B5 Ni10 2.064538 1_555
B5 Ni8 2.085365 1_555
B5 Ni6 2.085365 1_555
B5 Eu0 3.145445 1_656
