# generated using pymatgen
data_NaMg3Al(MoO4)5
_symmetry_space_group_name_H-M   'P 1'
_cell_length_a   6.95782900
_cell_length_b   7.03199535
_cell_length_c   17.95398092
_cell_angle_alpha   87.74375079
_cell_angle_beta   87.80394727
_cell_angle_gamma   78.91832105
_symmetry_Int_Tables_number   1
_chemical_formula_structural   NaMg3Al(MoO4)5
_chemical_formula_sum   'Na2 Mg6 Al2 Mo10 O40'
_cell_volume   860.97070702
_cell_formula_units_Z   2
loop_
 _symmetry_equiv_pos_site_id
 _symmetry_equiv_pos_as_xyz
  1  'x, y, z'
loop_
 _atom_site_type_symbol
 _atom_site_label
 _atom_site_symmetry_multiplicity
 _atom_site_fract_x
 _atom_site_fract_y
 _atom_site_fract_z
 _atom_site_occupancy
  Na  Na0  1  0.88950400  0.66764800  0.69097600  1
  Na  Na1  1  0.11049600  0.33235200  0.30902400  1
  Mg  Mg0  1  0.81451000  0.17132000  0.50747300  1
  Mg  Mg1  1  0.18549000  0.82868000  0.49252700  1
  Mg  Mg2  1  0.22076300  0.57265600  0.87377800  1
  Mg  Mg3  1  0.77923700  0.42734400  0.12622200  1
  Mg  Mg4  1  0.83057700  0.91686000  0.88698900  1
  Mg  Mg5  1  0.16942300  0.08314000  0.11301100  1
  Al  Al0  1  0.25030900  0.30226100  0.73508400  1
  Al  Al1  1  0.74969100  0.69773900  0.26491600  1
  Mo  Mo0  1  0.27259300  0.06182000  0.90216400  1
  Mo  Mo1  1  0.72740700  0.93818000  0.09783600  1
  Mo  Mo2  1  0.78314400  0.17774100  0.71698300  1
  Mo  Mo3  1  0.21685600  0.82225900  0.28301700  1
  Mo  Mo4  1  0.26994800  0.30710100  0.53169500  1
  Mo  Mo5  1  0.73005200  0.69289900  0.46830500  1
  Mo  Mo6  1  0.75241300  0.45400000  0.91437900  1
  Mo  Mo7  1  0.24758700  0.54600000  0.08562100  1
  Mo  Mo8  1  0.31835400  0.78285400  0.69258100  1
  Mo  Mo9  1  0.68164600  0.21714600  0.30741900  1
  O  O0  1  0.14463400  0.87154100  0.87948100  1
  O  O1  1  0.85536600  0.12845900  0.12051900  1
  O  O2  1  0.51652200  0.21003900  0.50875600  1
  O  O3  1  0.48347800  0.78996100  0.49124400  1
  O  O4  1  0.24611100  0.34492500  0.63139400  1
  O  O5  1  0.75388900  0.65507500  0.36860600  1
  O  O6  1  0.18210500  0.80055100  0.61034300  1
  O  O7  1  0.81789500  0.19944900  0.38965700  1
  O  O8  1  0.80679300  0.12178400  0.62202700  1
  O  O9  1  0.19320700  0.87821600  0.37797300  1
  O  O10  1  0.51938700  0.53953600  0.87597600  1
  O  O11  1  0.48061300  0.46046400  0.12402400  1
  O  O12  1  0.74832300  0.46662800  0.01273100  1
  O  O13  1  0.25167700  0.53337200  0.98726900  1
  O  O14  1  0.12321200  0.13408700  0.50434800  1
  O  O15  1  0.87678800  0.86591300  0.49565200  1
  O  O16  1  0.20117300  0.53231600  0.48192800  1
  O  O17  1  0.79882700  0.46768400  0.51807200  1
  O  O18  1  0.52971400  0.28500700  0.73574800  1
  O  O19  1  0.47028600  0.71499300  0.26425200  1
  O  O20  1  0.96110400  0.33487300  0.73237800  1
  O  O21  1  0.03889600  0.66512700  0.26762200  1
  O  O22  1  0.22655400  0.59031600  0.75132700  1
  O  O23  1  0.77344600  0.40968400  0.24867300  1
  O  O24  1  0.28248600  0.02345900  0.73138200  1
  O  O25  1  0.71751400  0.97654100  0.26861800  1
  O  O26  1  0.23346200  0.28659000  0.84106700  1
  O  O27  1  0.76653800  0.71341000  0.15893300  1
  O  O28  1  0.20628500  0.11997500  0.99533900  1
  O  O29  1  0.79371500  0.88002500  0.00466100  1
  O  O30  1  0.83957500  0.94940500  0.76725900  1
  O  O31  1  0.16042500  0.05059500  0.23274100  1
  O  O32  1  0.52509800  0.96442500  0.89441400  1
  O  O33  1  0.47490200  0.03557500  0.10558600  1
  O  O34  1  0.91249300  0.61542300  0.87666400  1
  O  O35  1  0.08750700  0.38457700  0.12333600  1
  O  O36  1  0.83898800  0.20597000  0.88979300  1
  O  O37  1  0.16101200  0.79403000  0.11020700  1
  O  O38  1  0.56594100  0.70888900  0.66845400  1
  O  O39  1  0.43405900  0.29111100  0.33154600  1
loop_
_geom_bond_atom_site_label_1
_geom_bond_atom_site_label_2
_geom_bond_distance
_geom_bond_site_symmetry_2
Na0 O38 2.263956 1_555
Na0 O20 2.391639 1_555
Na0 O30 2.415502 1_555
Na0 O22 2.574403 1_655
Na0 O6 2.740982 1_655
Na1 O39 2.263956 1_555
Na1 O21 2.391639 1_555
Na1 O31 2.415502 1_555
Na1 O23 2.574403 1_455
Na1 O7 2.740982 1_455
Mg0 O2 2.037956 1_555
Mg0 O8 2.072813 1_555
Mg0 O17 2.081710 1_555
Mg0 O14 2.112083 1_655
Mg0 O7 2.116379 1_555
Mg0 O15 2.125131 1_545
Mg1 O3 2.037956 1_555
Mg1 O9 2.072813 1_555
Mg1 O16 2.081710 1_555
Mg1 O15 2.112083 1_455
Mg1 O6 2.116379 1_555
Mg1 O14 2.125131 1_565
Mg2 O10 2.047556 1_555
Mg2 O13 2.059340 1_555
Mg2 O0 2.072020 1_555
Mg2 O26 2.102387 1_555
Mg2 O34 2.106757 1_455
Mg2 O22 2.196363 1_555
Mg3 O11 2.047556 1_555
Mg3 O12 2.059340 1_555
Mg3 O1 2.072020 1_555
Mg3 O27 2.102387 1_555
Mg3 O35 2.106757 1_655
Mg3 O23 2.196363 1_555
Mg4 O36 2.047719 1_565
Mg4 O32 2.087050 1_555
Mg4 O34 2.100184 1_555
Mg4 O29 2.130075 1_556
Mg4 O0 2.146565 1_655
Mg4 O30 2.152594 1_555
Mg5 O37 2.047719 1_545
Mg5 O33 2.087050 1_555
Mg5 O35 2.100184 1_555
Mg5 O28 2.130075 1_554
Mg5 O1 2.146565 1_455
Mg5 O31 2.152594 1_555
Al0 O4 1.874411 1_555
Al0 O26 1.902093 1_555
Al0 O18 1.924887 1_555
Al0 O24 1.933552 1_555
Al0 O20 1.983249 1_455
Al0 O22 2.032127 1_555
Al1 O5 1.874411 1_555
Al1 O27 1.902093 1_555
Al1 O19 1.924887 1_555
Al1 O25 1.933552 1_555
Al1 O21 1.983249 1_655
Al1 O23 2.032127 1_555
Mo0 O28 1.760893 1_555
Mo0 O32 1.761048 1_545
Mo0 O0 1.810390 1_545
Mo0 O26 1.869914 1_555
Mo1 O29 1.760893 1_555
Mo1 O33 1.761048 1_565
Mo1 O1 1.810390 1_565
Mo1 O27 1.869914 1_555
Mo2 O8 1.759208 1_555
Mo2 O30 1.793816 1_545
Mo2 O18 1.804149 1_555
Mo2 O20 1.845729 1_555
Mo3 O9 1.759208 1_555
Mo3 O31 1.793816 1_565
Mo3 O19 1.804149 1_555
Mo3 O21 1.845729 1_555
Mo4 O2 1.759735 1_555
Mo4 O16 1.779190 1_555
Mo4 O4 1.816620 1_555
Mo4 O14 1.823892 1_555
Mo5 O3 1.759735 1_555
Mo5 O17 1.779190 1_555
Mo5 O5 1.816620 1_555
Mo5 O15 1.823892 1_555
Mo6 O12 1.770397 1_556
Mo6 O10 1.773161 1_555
Mo6 O36 1.798919 1_555
Mo6 O34 1.831746 1_555
Mo7 O13 1.770397 1_554
Mo7 O11 1.773161 1_555
Mo7 O37 1.798919 1_555
Mo7 O35 1.831746 1_555
Mo8 O38 1.744095 1_555
Mo8 O6 1.772481 1_555
Mo8 O24 1.824111 1_565
Mo8 O22 1.876674 1_555
Mo9 O39 1.744095 1_555
Mo9 O7 1.772481 1_555
Mo9 O25 1.824111 1_545
Mo9 O23 1.876674 1_555
