# generated using pymatgen
data_NaZr2CuF11
_symmetry_space_group_name_H-M   'P 1'
_cell_length_a   5.56927028
_cell_length_b   5.88992715
_cell_length_c   7.76804603
_cell_angle_alpha   110.49498988
_cell_angle_beta   96.15114576
_cell_angle_gamma   105.98282512
_symmetry_Int_Tables_number   1
_chemical_formula_structural   NaZr2CuF11
_chemical_formula_sum   'Na1 Zr2 Cu1 F11'
_cell_volume   223.51728664
_cell_formula_units_Z   1
loop_
 _symmetry_equiv_pos_site_id
 _symmetry_equiv_pos_as_xyz
  1  'x, y, z'
loop_
 _atom_site_type_symbol
 _atom_site_label
 _atom_site_symmetry_multiplicity
 _atom_site_fract_x
 _atom_site_fract_y
 _atom_site_fract_z
 _atom_site_occupancy
  Na  Na0  1  0.00000000  0.00000000  0.00000000  1
  Zr  Zr0  1  0.48424500  0.26795100  0.76298200  1
  Zr  Zr1  1  0.51575500  0.73204900  0.23701800  1
  Cu  Cu0  1  0.00000000  0.50000000  0.50000000  1
  F  F0  1  0.24858300  0.82208800  0.11363400  1
  F  F1  1  0.19056100  0.94480400  0.71779700  1
  F  F2  1  0.75919500  0.48370600  0.65852300  1
  F  F3  1  0.75141700  0.17791200  0.88636600  1
  F  F4  1  0.34694900  0.33922800  0.02393700  1
  F  F5  1  0.80943900  0.05519600  0.28220300  1
  F  F6  1  0.77799100  0.60006200  0.34968500  1
  F  F7  1  0.22200900  0.39993800  0.65031500  1
  F  F8  1  0.24080500  0.51629400  0.34147700  1
  F  F9  1  0.50000000  0.00000000  0.50000000  1
  F  F10  1  0.65305100  0.66077200  0.97606300  1
loop_
_geom_bond_atom_site_label_1
_geom_bond_atom_site_label_2
_geom_bond_distance
_geom_bond_site_symmetry_2
Cu0 F2 1.920925 1_455
Cu0 F8 1.920925 1_555
Cu0 F6 1.952767 1_455
Cu0 F7 1.952767 1_555
Cu0 F1 2.415080 1_555
Cu0 F5 2.415080 1_455
F0 Zr1 1.974522 1_555
F0 Na0 2.231285 1_565
F1 Zr0 2.028744 1_565
F1 Na0 2.495424 1_566
F2 Zr0 2.129521 1_555
F3 Zr0 1.974522 1_555
F3 Na0 2.231285 1_656
F4 Zr1 2.182586 1_555
F4 Zr0 2.187035 1_554
F4 Na0 2.301534 1_555
F5 Zr1 2.028744 1_545
F5 Na0 2.495424 1_655
F6 Zr1 2.081111 1_555
F7 Zr0 2.081111 1_555
F8 Zr1 2.129521 1_555
F9 Zr1 2.128083 1_545
F9 Zr0 2.128083 1_555
F10 Zr0 2.182586 1_555
F10 Zr1 2.187035 1_556
F10 Na0 2.301534 1_666
