# generated using pymatgen
data_Yb(GeRh)2
_symmetry_space_group_name_H-M   'P 1'
_cell_length_a   4.08482481
_cell_length_b   4.08482481
_cell_length_c   5.86305419
_cell_angle_alpha   110.38660910
_cell_angle_beta   110.38660910
_cell_angle_gamma   90.00000000
_symmetry_Int_Tables_number   1
_chemical_formula_structural   Yb(GeRh)2
_chemical_formula_sum   'Yb1 Ge2 Rh2'
_cell_volume   85.13435935
_cell_formula_units_Z   1
loop_
 _symmetry_equiv_pos_site_id
 _symmetry_equiv_pos_as_xyz
  1  'x, y, z'
loop_
 _atom_site_type_symbol
 _atom_site_label
 _atom_site_symmetry_multiplicity
 _atom_site_fract_x
 _atom_site_fract_y
 _atom_site_fract_z
 _atom_site_occupancy
  Yb  Yb0  1  0.00000000  0.00000000  0.00000000  1
  Ge  Ge0  1  0.37949126  0.37949126  0.75898253  1
  Ge  Ge1  1  0.62050874  0.62050874  0.24101747  1
  Rh  Rh0  1  0.25000000  0.75000000  0.50000000  1
  Rh  Rh1  1  0.75000000  0.25000000  0.50000000  1
loop_
_geom_bond_atom_site_label_1
_geom_bond_atom_site_label_2
_geom_bond_distance
_geom_bond_site_symmetry_2
Ge0 Rh1 2.432591 1_555
Ge0 Rh0 2.432591 1_555
Ge0 Rh1 2.432591 1_455
Ge0 Rh0 2.432591 1_545
Ge0 Ge1 2.459442 1_556
Ge0 Yb0 3.139285 1_666
Ge0 Yb0 3.139285 1_656
Ge0 Yb0 3.139285 1_566
Ge0 Yb0 3.139285 1_556
Ge1 Rh1 2.432591 1_555
Ge1 Rh0 2.432591 1_555
Ge1 Rh0 2.432591 1_655
Ge1 Rh1 2.432591 1_565
Ge1 Yb0 3.139285 1_555
Ge1 Yb0 3.139285 1_655
Ge1 Yb0 3.139285 1_565
Ge1 Yb0 3.139285 1_665
Rh0 Yb0 3.267962 1_566
Rh0 Yb0 3.267962 1_666
Rh0 Yb0 3.267962 1_565
Rh0 Yb0 3.267962 1_555
Rh1 Yb0 3.267962 1_655
Rh1 Yb0 3.267962 1_666
Rh1 Yb0 3.267962 1_656
Rh1 Yb0 3.267962 1_555
