# generated using pymatgen
data_Ca36Sn23
_symmetry_space_group_name_H-M   'P 1'
_cell_length_a   12.59466708
_cell_length_b   12.59466708
_cell_length_c   23.10763740
_cell_angle_alpha   90.00000000
_cell_angle_beta   90.00000000
_cell_angle_gamma   90.00000000
_symmetry_Int_Tables_number   1
_chemical_formula_structural   Ca36Sn23
_chemical_formula_sum   'Ca72 Sn46'
_cell_volume   3665.46374503
_cell_formula_units_Z   2
loop_
 _symmetry_equiv_pos_site_id
 _symmetry_equiv_pos_as_xyz
  1  'x, y, z'
loop_
 _atom_site_type_symbol
 _atom_site_label
 _atom_site_symmetry_multiplicity
 _atom_site_fract_x
 _atom_site_fract_y
 _atom_site_fract_z
 _atom_site_occupancy
  Ca  Ca0  1  0.41749862  0.28328789  0.50000000  1
  Ca  Ca1  1  0.00000000  0.50000000  0.27951560  1
  Ca  Ca2  1  0.58250138  0.71671211  0.50000000  1
  Ca  Ca3  1  0.21110050  0.94357579  0.09200800  1
  Ca  Ca4  1  0.28649545  0.41320389  0.63097902  1
  Ca  Ca5  1  0.21350455  0.91320389  0.36902098  1
  Ca  Ca6  1  0.21179930  0.07676057  0.23819127  1
  Ca  Ca7  1  0.50000000  0.00000000  0.27951560  1
  Ca  Ca8  1  0.07676057  0.78820070  0.23819127  1
  Ca  Ca9  1  0.78889950  0.05642421  0.90799200  1
  Ca  Ca10  1  0.28649545  0.41320389  0.36902098  1
  Ca  Ca11  1  0.41320389  0.71350455  0.63097902  1
  Ca  Ca12  1  0.21350455  0.91320389  0.63097902  1
  Ca  Ca13  1  0.57676057  0.71179930  0.23819127  1
  Ca  Ca14  1  0.28889950  0.44357579  0.09200800  1
  Ca  Ca15  1  0.78820070  0.92323943  0.23819127  1
  Ca  Ca16  1  0.78649545  0.08679611  0.36902098  1
  Ca  Ca17  1  0.21671211  0.08250138  0.50000000  1
  Ca  Ca18  1  0.94357579  0.78889950  0.09200800  1
  Ca  Ca19  1  0.50000000  0.00000000  0.72048440  1
  Ca  Ca20  1  0.92323943  0.21179930  0.76180873  1
  Ca  Ca21  1  0.78649545  0.08679611  0.63097902  1
  Ca  Ca22  1  0.55642421  0.28889950  0.90799200  1
  Ca  Ca23  1  0.94357579  0.78889950  0.90799200  1
  Ca  Ca24  1  0.44357579  0.71110050  0.90799200  1
  Ca  Ca25  1  0.28820070  0.57676057  0.23819127  1
  Ca  Ca26  1  0.71671211  0.41749862  0.50000000  1
  Ca  Ca27  1  0.28820070  0.57676057  0.76180873  1
  Ca  Ca28  1  0.78889950  0.05642421  0.09200800  1
  Ca  Ca29  1  0.21110050  0.94357579  0.90799200  1
  Ca  Ca30  1  0.00000000  0.50000000  0.72048440  1
  Ca  Ca31  1  0.71350455  0.58679611  0.63097902  1
  Ca  Ca32  1  0.05642421  0.21110050  0.09200800  1
  Ca  Ca33  1  0.78328789  0.91749862  0.50000000  1
  Ca  Ca34  1  0.58679611  0.28649545  0.63097902  1
  Ca  Ca35  1  0.57676057  0.71179930  0.76180873  1
  Ca  Ca36  1  0.91320389  0.78649545  0.63097902  1
  Ca  Ca37  1  0.42323943  0.28820070  0.76180873  1
  Ca  Ca38  1  0.71350455  0.58679611  0.36902098  1
  Ca  Ca39  1  0.00000000  0.50000000  0.87281256  1
  Ca  Ca40  1  0.50000000  0.00000000  0.42831625  1
  Ca  Ca41  1  0.28328789  0.58250138  0.50000000  1
  Ca  Ca42  1  0.00000000  0.50000000  0.12718744  1
  Ca  Ca43  1  0.07676057  0.78820070  0.76180873  1
  Ca  Ca44  1  0.05642421  0.21110050  0.90799200  1
  Ca  Ca45  1  0.91749862  0.21671211  0.50000000  1
  Ca  Ca46  1  0.00000000  0.50000000  0.57168375  1
  Ca  Ca47  1  0.08679611  0.21350455  0.63097902  1
  Ca  Ca48  1  0.58679611  0.28649545  0.36902098  1
  Ca  Ca49  1  0.21179930  0.07676057  0.76180873  1
  Ca  Ca50  1  0.71110050  0.55642421  0.09200800  1
  Ca  Ca51  1  0.50000000  0.00000000  0.87281256  1
  Ca  Ca52  1  0.83513578  0.33513578  0.00000000  1
  Ca  Ca53  1  0.00000000  0.50000000  0.42831625  1
  Ca  Ca54  1  0.50000000  0.00000000  0.57168375  1
  Ca  Ca55  1  0.92323943  0.21179930  0.23819127  1
  Ca  Ca56  1  0.78820070  0.92323943  0.76180873  1
  Ca  Ca57  1  0.66486422  0.83513578  0.00000000  1
  Ca  Ca58  1  0.08250138  0.78328789  0.50000000  1
  Ca  Ca59  1  0.44357579  0.71110050  0.09200800  1
  Ca  Ca60  1  0.41320389  0.71350455  0.36902098  1
  Ca  Ca61  1  0.55642421  0.28889950  0.09200800  1
  Ca  Ca62  1  0.91320389  0.78649545  0.36902098  1
  Ca  Ca63  1  0.08679611  0.21350455  0.36902098  1
  Ca  Ca64  1  0.33513578  0.16486422  0.00000000  1
  Ca  Ca65  1  0.16486422  0.66486422  0.00000000  1
  Ca  Ca66  1  0.71179930  0.42323943  0.76180873  1
  Ca  Ca67  1  0.71179930  0.42323943  0.23819127  1
  Ca  Ca68  1  0.50000000  0.00000000  0.12718744  1
  Ca  Ca69  1  0.42323943  0.28820070  0.23819127  1
  Ca  Ca70  1  0.28889950  0.44357579  0.90799200  1
  Ca  Ca71  1  0.71110050  0.55642421  0.90799200  1
  Sn  Sn0  1  0.16270346  0.33729654  0.21551099  1
  Sn  Sn1  1  0.83729654  0.66270346  0.78448901  1
  Sn  Sn2  1  0.16270346  0.33729654  0.78448901  1
  Sn  Sn3  1  0.19641901  0.69641901  0.13029441  1
  Sn  Sn4  1  0.00000000  0.00000000  0.83565397  1
  Sn  Sn5  1  0.34257482  0.84257482  0.50000000  1
  Sn  Sn6  1  0.65303973  0.84696027  0.36090607  1
  Sn  Sn7  1  0.83729654  0.66270346  0.21551099  1
  Sn  Sn8  1  0.65303973  0.84696027  0.63909393  1
  Sn  Sn9  1  0.84696027  0.34696027  0.63909393  1
  Sn  Sn10  1  0.30358099  0.19641901  0.13029441  1
  Sn  Sn11  1  0.00000000  0.00000000  0.56613573  1
  Sn  Sn12  1  0.66270346  0.16270346  0.21551099  1
  Sn  Sn13  1  0.66270346  0.16270346  0.78448901  1
  Sn  Sn14  1  0.15303973  0.65303973  0.36090607  1
  Sn  Sn15  1  0.80358099  0.30358099  0.86970559  1
  Sn  Sn16  1  0.34696027  0.15303973  0.63909393  1
  Sn  Sn17  1  0.34696027  0.15303973  0.36090607  1
  Sn  Sn18  1  0.84257482  0.65742518  0.50000000  1
  Sn  Sn19  1  0.69641901  0.80358099  0.13029441  1
  Sn  Sn20  1  0.08758677  0.41241323  0.00000000  1
  Sn  Sn21  1  0.65742518  0.15742518  0.50000000  1
  Sn  Sn22  1  0.30358099  0.19641901  0.86970559  1
  Sn  Sn23  1  0.19641901  0.69641901  0.86970559  1
  Sn  Sn24  1  0.50000000  0.50000000  0.69870878  1
  Sn  Sn25  1  0.00000000  0.00000000  0.30129122  1
  Sn  Sn26  1  0.91241323  0.58758677  0.00000000  1
  Sn  Sn27  1  0.50000000  0.50000000  0.30129122  1
  Sn  Sn28  1  0.50000000  0.50000000  0.83565397  1
  Sn  Sn29  1  0.58758677  0.08758677  0.00000000  1
  Sn  Sn30  1  0.50000000  0.50000000  0.00000000  1
  Sn  Sn31  1  0.00000000  0.00000000  0.00000000  1
  Sn  Sn32  1  0.15742518  0.34257482  0.50000000  1
  Sn  Sn33  1  0.41241323  0.91241323  0.00000000  1
  Sn  Sn34  1  0.00000000  0.00000000  0.69870878  1
  Sn  Sn35  1  0.33729654  0.83729654  0.21551099  1
  Sn  Sn36  1  0.80358099  0.30358099  0.13029441  1
  Sn  Sn37  1  0.33729654  0.83729654  0.78448901  1
  Sn  Sn38  1  0.69641901  0.80358099  0.86970559  1
  Sn  Sn39  1  0.00000000  0.00000000  0.43386427  1
  Sn  Sn40  1  0.15303973  0.65303973  0.63909393  1
  Sn  Sn41  1  0.00000000  0.00000000  0.16434603  1
  Sn  Sn42  1  0.50000000  0.50000000  0.56613573  1
  Sn  Sn43  1  0.50000000  0.50000000  0.16434603  1
  Sn  Sn44  1  0.50000000  0.50000000  0.43386427  1
  Sn  Sn45  1  0.84696027  0.34696027  0.36090607  1
loop_
_geom_bond_atom_site_label_1
_geom_bond_atom_site_label_2
_geom_bond_distance
_geom_bond_site_symmetry_2
Ca0 Sn44 3.296197 1_555
Ca0 Sn42 3.296197 1_555
Ca0 Sn32 3.359570 1_555
Ca0 Sn21 3.412345 1_555
Ca0 Sn17 3.716306 1_555
Ca0 Sn16 3.716306 1_555
Ca1 Sn0 3.253588 1_555
Ca1 Sn7 3.253588 1_455
Ca1 Sn45 3.311734 1_455
Ca1 Sn14 3.311734 1_555
Ca2 Sn44 3.296197 1_555
Ca2 Sn42 3.296197 1_555
Ca2 Sn18 3.359570 1_555
Ca2 Sn5 3.412345 1_555
Ca2 Sn6 3.716306 1_555
Ca2 Sn8 3.716306 1_555
Ca3 Sn41 3.219943 1_565
Ca3 Sn3 3.241417 1_555
Ca3 Sn33 3.332099 1_555
Ca3 Sn31 3.477667 1_565
Ca3 Sn10 3.504321 1_565
Ca3 Sn35 3.530217 1_555
Ca4 Sn42 3.266645 1_555
Ca4 Sn24 3.297772 1_555
Ca4 Sn16 3.369234 1_555
Ca4 Sn40 3.461892 1_555
Ca4 Sn32 3.548840 1_555
Ca5 Sn39 3.266645 1_565
Ca5 Sn25 3.297772 1_565
Ca5 Sn14 3.369234 1_555
Ca5 Sn17 3.461892 1_565
Ca5 Sn5 3.548840 1_555
Ca6 Sn10 3.134282 1_555
Ca6 Sn25 3.190056 1_555
Ca6 Sn41 3.310920 1_555
Ca6 Sn0 3.379995 1_555
Ca6 Sn17 3.444085 1_555
Ca6 Sn35 3.445145 1_545
Ca7 Sn35 3.253588 1_545
Ca7 Sn12 3.253588 1_555
Ca7 Sn6 3.311734 1_545
Ca7 Sn17 3.311734 1_555
Ca8 Sn3 3.134282 1_555
Ca8 Sn25 3.190056 1_565
Ca8 Sn41 3.310920 1_565
Ca8 Sn35 3.379995 1_555
Ca8 Sn14 3.444085 1_555
Ca8 Sn7 3.445145 1_455
Ca9 Sn4 3.219943 1_655
Ca9 Sn15 3.241417 1_555
Ca9 Sn29 3.332099 1_556
Ca9 Sn31 3.477667 1_656
Ca9 Sn38 3.504321 1_545
Ca9 Sn13 3.530217 1_555
Ca10 Sn44 3.266645 1_555
Ca10 Sn27 3.297772 1_555
Ca10 Sn17 3.369234 1_555
Ca10 Sn14 3.461892 1_555
Ca10 Sn32 3.548840 1_555
Ca11 Sn42 3.266645 1_555
Ca11 Sn24 3.297772 1_555
Ca11 Sn40 3.369234 1_555
Ca11 Sn8 3.461892 1_555
Ca11 Sn5 3.548840 1_555
Ca12 Sn11 3.266645 1_565
Ca12 Sn34 3.297772 1_565
Ca12 Sn40 3.369234 1_555
Ca12 Sn16 3.461892 1_565
Ca12 Sn5 3.548840 1_555
Ca13 Sn19 3.134282 1_555
Ca13 Sn27 3.190056 1_555
Ca13 Sn43 3.310920 1_555
Ca13 Sn7 3.379995 1_555
Ca13 Sn6 3.444085 1_555
Ca13 Sn35 3.445145 1_555
Ca14 Sn43 3.219943 1_555
Ca14 Sn10 3.241417 1_555
Ca14 Sn20 3.332099 1_555
Ca14 Sn30 3.477667 1_555
Ca14 Sn3 3.504321 1_555
Ca14 Sn0 3.530217 1_555
Ca15 Sn19 3.134282 1_555
Ca15 Sn25 3.190056 1_665
Ca15 Sn41 3.310920 1_665
Ca15 Sn7 3.379995 1_555
Ca15 Sn6 3.444085 1_555
Ca15 Sn12 3.445145 1_565
Ca16 Sn39 3.266645 1_655
Ca16 Sn25 3.297772 1_655
Ca16 Sn45 3.369234 1_555
Ca16 Sn6 3.461892 1_545
Ca16 Sn21 3.548840 1_555
Ca17 Sn39 3.296197 1_555
Ca17 Sn11 3.296197 1_555
Ca17 Sn32 3.359570 1_555
Ca17 Sn5 3.412345 1_545
Ca17 Sn17 3.716306 1_555
Ca17 Sn16 3.716306 1_555
Ca18 Sn41 3.219943 1_665
Ca18 Sn19 3.241417 1_555
Ca18 Sn26 3.332099 1_555
Ca18 Sn31 3.477667 1_665
Ca18 Sn3 3.504321 1_655
Ca18 Sn7 3.530217 1_555
Ca19 Sn37 3.253588 1_545
Ca19 Sn13 3.253588 1_555
Ca19 Sn8 3.311734 1_545
Ca19 Sn16 3.311734 1_555
Ca20 Sn15 3.134282 1_555
Ca20 Sn34 3.190056 1_655
Ca20 Sn4 3.310920 1_655
Ca20 Sn13 3.379995 1_555
Ca20 Sn9 3.444085 1_555
Ca20 Sn2 3.445145 1_655
Ca21 Sn11 3.266645 1_655
Ca21 Sn34 3.297772 1_655
Ca21 Sn9 3.369234 1_555
Ca21 Sn8 3.461892 1_545
Ca21 Sn21 3.548840 1_555
Ca22 Sn28 3.219943 1_555
Ca22 Sn15 3.241417 1_555
Ca22 Sn29 3.332099 1_556
Ca22 Sn30 3.477667 1_556
Ca22 Sn22 3.504321 1_555
Ca22 Sn13 3.530217 1_555
Ca23 Sn4 3.219943 1_665
Ca23 Sn38 3.241417 1_555
Ca23 Sn26 3.332099 1_556
Ca23 Sn31 3.477667 1_666
Ca23 Sn23 3.504321 1_655
Ca23 Sn1 3.530217 1_555
Ca24 Sn28 3.219943 1_555
Ca24 Sn23 3.241417 1_555
Ca24 Sn33 3.332099 1_556
Ca24 Sn30 3.477667 1_556
Ca24 Sn38 3.504321 1_555
Ca24 Sn37 3.530217 1_555
Ca25 Sn3 3.134282 1_555
Ca25 Sn27 3.190056 1_555
Ca25 Sn43 3.310920 1_555
Ca25 Sn35 3.379995 1_555
Ca25 Sn14 3.444085 1_555
Ca25 Sn0 3.445145 1_555
Ca26 Sn44 3.296197 1_555
Ca26 Sn42 3.296197 1_555
Ca26 Sn21 3.359570 1_555
Ca26 Sn18 3.412345 1_555
Ca26 Sn45 3.716306 1_555
Ca26 Sn9 3.716306 1_555
Ca27 Sn23 3.134282 1_555
Ca27 Sn24 3.190056 1_555
Ca27 Sn28 3.310920 1_555
Ca27 Sn37 3.379995 1_555
Ca27 Sn40 3.444085 1_555
Ca27 Sn2 3.445145 1_555
Ca28 Sn41 3.219943 1_655
Ca28 Sn36 3.241417 1_555
Ca28 Sn29 3.332099 1_555
Ca28 Sn31 3.477667 1_655
Ca28 Sn19 3.504321 1_545
Ca28 Sn12 3.530217 1_555
Ca29 Sn4 3.219943 1_565
Ca29 Sn23 3.241417 1_555
Ca29 Sn33 3.332099 1_556
Ca29 Sn31 3.477667 1_566
Ca29 Sn22 3.504321 1_565
Ca29 Sn37 3.530217 1_555
Ca30 Sn2 3.253588 1_555
Ca30 Sn1 3.253588 1_455
Ca30 Sn9 3.311734 1_455
Ca30 Sn40 3.311734 1_555
Ca31 Sn42 3.266645 1_555
Ca31 Sn24 3.297772 1_555
Ca31 Sn8 3.369234 1_555
Ca31 Sn9 3.461892 1_555
Ca31 Sn18 3.548840 1_555
Ca32 Sn41 3.219943 1_555
Ca32 Sn10 3.241417 1_555
Ca32 Sn20 3.332099 1_555
Ca32 Sn31 3.477667 1_555
Ca32 Sn36 3.504321 1_455
Ca32 Sn0 3.530217 1_555
Ca33 Sn39 3.296197 1_665
Ca33 Sn11 3.296197 1_665
Ca33 Sn18 3.359570 1_555
Ca33 Sn21 3.412345 1_565
Ca33 Sn6 3.716306 1_555
Ca33 Sn8 3.716306 1_555
Ca34 Sn42 3.266645 1_555
Ca34 Sn24 3.297772 1_555
Ca34 Sn9 3.369234 1_555
Ca34 Sn16 3.461892 1_555
Ca34 Sn21 3.548840 1_555
Ca35 Sn38 3.134282 1_555
Ca35 Sn24 3.190056 1_555
Ca35 Sn28 3.310920 1_555
Ca35 Sn1 3.379995 1_555
Ca35 Sn8 3.444085 1_555
Ca35 Sn37 3.445145 1_555
Ca36 Sn11 3.266645 1_665
Ca36 Sn34 3.297772 1_665
Ca36 Sn8 3.369234 1_555
Ca36 Sn40 3.461892 1_655
Ca36 Sn18 3.548840 1_555
Ca37 Sn22 3.134282 1_555
Ca37 Sn24 3.190056 1_555
Ca37 Sn28 3.310920 1_555
Ca37 Sn2 3.379995 1_555
Ca37 Sn16 3.444085 1_555
Ca37 Sn13 3.445145 1_555
Ca38 Sn44 3.266645 1_555
Ca38 Sn27 3.297772 1_555
Ca38 Sn6 3.369234 1_555
Ca38 Sn45 3.461892 1_555
Ca38 Sn18 3.548840 1_555
Ca39 Sn26 3.327387 1_456
Ca39 Sn20 3.327387 1_556
Ca39 Sn15 3.499263 1_455
Ca39 Sn23 3.499263 1_555
Ca39 Sn2 3.544556 1_555
Ca39 Sn1 3.544556 1_455
Ca40 Sn6 3.139553 1_545
Ca40 Sn17 3.139553 1_555
Ca40 Sn5 3.256707 1_545
Ca40 Sn21 3.256707 1_555
Ca41 Sn44 3.296197 1_555
Ca41 Sn42 3.296197 1_555
Ca41 Sn5 3.359570 1_555
Ca41 Sn32 3.412345 1_555
Ca41 Sn14 3.716306 1_555
Ca41 Sn40 3.716306 1_555
Ca42 Sn20 3.327387 1_555
Ca42 Sn26 3.327387 1_455
Ca42 Sn36 3.499263 1_455
Ca42 Sn3 3.499263 1_555
Ca42 Sn0 3.544556 1_555
Ca42 Sn7 3.544556 1_455
Ca43 Sn23 3.134282 1_555
Ca43 Sn34 3.190056 1_565
Ca43 Sn4 3.310920 1_565
Ca43 Sn37 3.379995 1_555
Ca43 Sn40 3.444085 1_555
Ca43 Sn1 3.445145 1_455
Ca44 Sn4 3.219943 1_555
Ca44 Sn22 3.241417 1_555
Ca44 Sn20 3.332099 1_556
Ca44 Sn31 3.477667 1_556
Ca44 Sn15 3.504321 1_455
Ca44 Sn2 3.530217 1_555
Ca45 Sn39 3.296197 1_655
Ca45 Sn11 3.296197 1_655
Ca45 Sn21 3.359570 1_555
Ca45 Sn32 3.412345 1_655
Ca45 Sn45 3.716306 1_555
Ca45 Sn9 3.716306 1_555
Ca46 Sn9 3.139553 1_455
Ca46 Sn40 3.139553 1_555
Ca46 Sn32 3.256707 1_555
Ca46 Sn18 3.256707 1_455
Ca47 Sn11 3.266645 1_555
Ca47 Sn34 3.297772 1_555
Ca47 Sn16 3.369234 1_555
Ca47 Sn9 3.461892 1_455
Ca47 Sn32 3.548840 1_555
Ca48 Sn44 3.266645 1_555
Ca48 Sn27 3.297772 1_555
Ca48 Sn45 3.369234 1_555
Ca48 Sn17 3.461892 1_555
Ca48 Sn21 3.548840 1_555
Ca49 Sn22 3.134282 1_555
Ca49 Sn34 3.190056 1_555
Ca49 Sn4 3.310920 1_555
Ca49 Sn2 3.379995 1_555
Ca49 Sn16 3.444085 1_555
Ca49 Sn37 3.445145 1_545
Ca50 Sn43 3.219943 1_555
Ca50 Sn19 3.241417 1_555
Ca50 Sn26 3.332099 1_555
Ca50 Sn30 3.477667 1_555
Ca50 Sn36 3.504321 1_555
Ca50 Sn7 3.530217 1_555
Ca51 Sn29 3.327387 1_556
Ca51 Sn33 3.327387 1_546
Ca51 Sn38 3.499263 1_545
Ca51 Sn22 3.499263 1_555
Ca51 Sn37 3.544556 1_545
Ca51 Sn13 3.544556 1_555
Ca52 Sn15 3.062806 1_554
Ca52 Sn36 3.062806 1_555
Ca52 Sn20 3.325166 1_655
Ca52 Sn26 3.325166 1_555
Ca53 Sn45 3.139553 1_455
Ca53 Sn14 3.139553 1_555
Ca53 Sn32 3.256707 1_555
Ca53 Sn18 3.256707 1_455
Ca54 Sn8 3.139553 1_545
Ca54 Sn16 3.139553 1_555
Ca54 Sn5 3.256707 1_545
Ca54 Sn21 3.256707 1_555
Ca55 Sn36 3.134282 1_555
Ca55 Sn25 3.190056 1_655
Ca55 Sn41 3.310920 1_655
Ca55 Sn12 3.379995 1_555
Ca55 Sn45 3.444085 1_555
Ca55 Sn0 3.445145 1_655
Ca56 Sn38 3.134282 1_555
Ca56 Sn34 3.190056 1_665
Ca56 Sn4 3.310920 1_665
Ca56 Sn1 3.379995 1_555
Ca56 Sn8 3.444085 1_555
Ca56 Sn13 3.445145 1_565
Ca57 Sn38 3.062806 1_554
Ca57 Sn19 3.062806 1_555
Ca57 Sn29 3.325166 1_565
Ca57 Sn33 3.325166 1_555
Ca58 Sn39 3.296197 1_565
Ca58 Sn11 3.296197 1_565
Ca58 Sn5 3.359570 1_555
Ca58 Sn18 3.412345 1_455
Ca58 Sn14 3.716306 1_555
Ca58 Sn40 3.716306 1_555
Ca59 Sn43 3.219943 1_555
Ca59 Sn3 3.241417 1_555
Ca59 Sn33 3.332099 1_555
Ca59 Sn30 3.477667 1_555
Ca59 Sn19 3.504321 1_555
Ca59 Sn35 3.530217 1_555
Ca60 Sn44 3.266645 1_555
Ca60 Sn27 3.297772 1_555
Ca60 Sn14 3.369234 1_555
Ca60 Sn6 3.461892 1_555
Ca60 Sn5 3.548840 1_555
Ca61 Sn43 3.219943 1_555
Ca61 Sn36 3.241417 1_555
Ca61 Sn29 3.332099 1_555
Ca61 Sn30 3.477667 1_555
Ca61 Sn10 3.504321 1_555
Ca61 Sn12 3.530217 1_555
Ca62 Sn39 3.266645 1_665
Ca62 Sn25 3.297772 1_665
Ca62 Sn6 3.369234 1_555
Ca62 Sn14 3.461892 1_655
Ca62 Sn18 3.548840 1_555
Ca63 Sn39 3.266645 1_555
Ca63 Sn25 3.297772 1_555
Ca63 Sn17 3.369234 1_555
Ca63 Sn45 3.461892 1_455
Ca63 Sn32 3.548840 1_555
Ca64 Sn22 3.062806 1_554
Ca64 Sn10 3.062806 1_555
Ca64 Sn33 3.325166 1_545
Ca64 Sn29 3.325166 1_555
Ca65 Sn23 3.062806 1_554
Ca65 Sn3 3.062806 1_555
Ca65 Sn20 3.325166 1_555
Ca65 Sn26 3.325166 1_455
Ca66 Sn15 3.134282 1_555
Ca66 Sn24 3.190056 1_555
Ca66 Sn28 3.310920 1_555
Ca66 Sn13 3.379995 1_555
Ca66 Sn9 3.444085 1_555
Ca66 Sn1 3.445145 1_555
Ca67 Sn36 3.134282 1_555
Ca67 Sn27 3.190056 1_555
Ca67 Sn43 3.310920 1_555
Ca67 Sn12 3.379995 1_555
Ca67 Sn45 3.444085 1_555
Ca67 Sn7 3.445145 1_555
Ca68 Sn29 3.327387 1_555
Ca68 Sn33 3.327387 1_545
Ca68 Sn19 3.499263 1_545
Ca68 Sn10 3.499263 1_555
Ca68 Sn35 3.544556 1_545
Ca68 Sn12 3.544556 1_555
Ca69 Sn10 3.134282 1_555
Ca69 Sn27 3.190056 1_555
Ca69 Sn43 3.310920 1_555
Ca69 Sn0 3.379995 1_555
Ca69 Sn17 3.444085 1_555
Ca69 Sn12 3.445145 1_555
Ca70 Sn28 3.219943 1_555
Ca70 Sn22 3.241417 1_555
Ca70 Sn20 3.332099 1_556
Ca70 Sn30 3.477667 1_556
Ca70 Sn23 3.504321 1_555
Ca70 Sn2 3.530217 1_555
Ca71 Sn28 3.219943 1_555
Ca71 Sn38 3.241417 1_555
Ca71 Sn26 3.332099 1_556
Ca71 Sn30 3.477667 1_556
Ca71 Sn15 3.504321 1_555
Ca71 Sn1 3.530217 1_555
Sn0 Sn10 3.189653 1_555
Sn1 Sn38 3.189653 1_555
Sn2 Sn22 3.189653 1_555
Sn3 Sn35 3.189653 1_555
Sn11 Sn39 3.056481 1_555
Sn11 Sn34 3.063450 1_555
Sn12 Sn36 3.189653 1_555
Sn13 Sn15 3.189653 1_555
Sn19 Sn7 3.189653 1_555
Sn20 Sn26 3.120112 1_455
Sn23 Sn37 3.189653 1_555
Sn24 Sn42 3.063450 1_555
Sn25 Sn39 3.063450 1_555
Sn27 Sn44 3.063450 1_555
Sn29 Sn33 3.120112 1_545
Sn42 Sn44 3.056481 1_555
