# generated using pymatgen
data_Ba3EuRu2O9
_symmetry_space_group_name_H-M   'P 1'
_cell_length_a   6.00928298
_cell_length_b   6.00928298
_cell_length_c   14.72075800
_cell_angle_alpha   90.00000000
_cell_angle_beta   90.00000000
_cell_angle_gamma   120.00001077
_symmetry_Int_Tables_number   1
_chemical_formula_structural   Ba3EuRu2O9
_chemical_formula_sum   'Ba6 Eu2 Ru4 O18'
_cell_volume   460.36899689
_cell_formula_units_Z   2
loop_
 _symmetry_equiv_pos_site_id
 _symmetry_equiv_pos_as_xyz
  1  'x, y, z'
loop_
 _atom_site_type_symbol
 _atom_site_label
 _atom_site_symmetry_multiplicity
 _atom_site_fract_x
 _atom_site_fract_y
 _atom_site_fract_z
 _atom_site_occupancy
  Ba  Ba0  1  0.66666700  0.33333300  0.40190500  1
  Ba  Ba1  1  0.33333300  0.66666700  0.90190500  1
  Ba  Ba2  1  0.66666700  0.33333300  0.09809500  1
  Ba  Ba3  1  0.00000000  0.00000000  0.25000000  1
  Ba  Ba4  1  0.33333300  0.66666700  0.59809500  1
  Ba  Ba5  1  0.00000000  0.00000000  0.75000000  1
  Eu  Eu0  1  0.00000000  0.00000000  0.50000000  1
  Eu  Eu1  1  0.00000000  0.00000000  0.00000000  1
  Ru  Ru0  1  0.33333300  0.66666700  0.16529700  1
  Ru  Ru1  1  0.33333300  0.66666700  0.33470300  1
  Ru  Ru2  1  0.66666700  0.33333300  0.66529700  1
  Ru  Ru3  1  0.66666700  0.33333300  0.83470300  1
  O  O0  1  0.35784300  0.17892100  0.59137700  1
  O  O1  1  0.82107900  0.64215700  0.90862300  1
  O  O2  1  0.82107900  0.17892100  0.90862300  1
  O  O3  1  0.98257700  0.49128900  0.75000000  1
  O  O4  1  0.17892100  0.82107900  0.09137700  1
  O  O5  1  0.50871100  0.01742300  0.75000000  1
  O  O6  1  0.17892100  0.35784300  0.40862300  1
  O  O7  1  0.49128900  0.98257700  0.25000000  1
  O  O8  1  0.35784300  0.17892100  0.90862300  1
  O  O9  1  0.01742300  0.50871100  0.25000000  1
  O  O10  1  0.49128900  0.50871100  0.25000000  1
  O  O11  1  0.64215700  0.82107900  0.40862300  1
  O  O12  1  0.64215700  0.82107900  0.09137700  1
  O  O13  1  0.50871100  0.49128900  0.75000000  1
  O  O14  1  0.17892100  0.35784300  0.09137700  1
  O  O15  1  0.82107900  0.17892100  0.59137700  1
  O  O16  1  0.82107900  0.64215700  0.59137700  1
  O  O17  1  0.17892100  0.82107900  0.40862300  1
loop_
_geom_bond_atom_site_label_1
_geom_bond_atom_site_label_2
_geom_bond_distance
_geom_bond_site_symmetry_2
Ba0 O9 2.886605 1_655
Ba0 O7 2.886605 1_545
Ba0 O10 2.886605 1_555
Ba0 O11 3.008967 1_545
Ba0 O6 3.008967 1_655
Ba0 O17 3.008972 1_655
Ba0 O17 3.008972 1_545
Ba0 O6 3.008979 1_555
Ba0 O11 3.008979 1_555
Ba0 O16 3.219084 1_555
Ba0 O0 3.219084 1_555
Ba0 O15 3.219084 1_555
Ba1 O5 2.886605 1_565
Ba1 O3 2.886605 1_455
Ba1 O13 2.886605 1_555
Ba1 O1 3.008967 1_455
Ba1 O8 3.008967 1_565
Ba1 O2 3.008972 1_565
Ba1 O2 3.008972 1_455
Ba1 O8 3.008979 1_555
Ba1 O1 3.008979 1_555
Ba1 O12 3.219084 1_556
Ba1 O14 3.219084 1_556
Ba1 O4 3.219084 1_556
Ba2 O9 2.886605 1_655
Ba2 O7 2.886605 1_545
Ba2 O10 2.886605 1_555
Ba2 O12 3.008967 1_545
Ba2 O14 3.008967 1_655
Ba2 O4 3.008972 1_655
Ba2 O4 3.008972 1_545
Ba2 O14 3.008979 1_555
Ba2 O12 3.008979 1_555
Ba2 O1 3.219084 1_554
Ba2 O8 3.219084 1_554
Ba2 O2 3.219084 1_554
Ba3 O17 2.986728 1_545
Ba3 O4 2.986728 1_545
Ba3 O6 2.986731 1_555
Ba3 O11 2.986731 1_445
Ba3 O14 2.986731 1_555
Ba3 O12 2.986731 1_445
Ba3 O7 3.006006 1_445
Ba3 O9 3.006006 1_555
Ba3 O10 3.006009 1_445
Ba3 O10 3.006009 1_555
Ba3 O9 3.006012 1_545
Ba3 O7 3.006012 1_545
Ba4 O5 2.886605 1_565
Ba4 O3 2.886605 1_455
Ba4 O13 2.886605 1_555
Ba4 O16 3.008967 1_455
Ba4 O0 3.008967 1_565
Ba4 O15 3.008972 1_565
Ba4 O15 3.008972 1_455
Ba4 O0 3.008979 1_555
Ba4 O16 3.008979 1_555
Ba4 O11 3.219084 1_555
Ba4 O6 3.219084 1_555
Ba4 O17 3.219084 1_555
Ba5 O2 2.986728 1_455
Ba5 O15 2.986728 1_455
Ba5 O8 2.986731 1_555
Ba5 O1 2.986731 1_445
Ba5 O0 2.986731 1_555
Ba5 O16 2.986731 1_445
Ba5 O3 3.006006 1_445
Ba5 O5 3.006006 1_555
Ba5 O13 3.006009 1_445
Ba5 O13 3.006009 1_555
Ba5 O5 3.006012 1_455
Ba5 O3 3.006012 1_455
Eu0 O15 2.297276 1_455
Eu0 O17 2.297276 1_545
Eu0 O0 2.297280 1_555
Eu0 O16 2.297280 1_445
Eu0 O6 2.297280 1_555
Eu0 O11 2.297280 1_445
Eu1 O4 2.297276 1_545
Eu1 O2 2.297276 1_454
Eu1 O14 2.297280 1_555
Eu1 O8 2.297280 1_554
Eu1 O12 2.297280 1_445
Eu1 O1 2.297280 1_444
O0 Ru2 1.940905 1_555
O1 Ru3 1.940905 1_555
O2 Ru3 1.940906 1_555
O3 Ru3 2.063410 1_555
O3 Ru2 2.063410 1_555
O4 Ru0 1.940906 1_555
O5 Ru3 2.063410 1_555
O5 Ru2 2.063410 1_555
O6 Ru1 1.940905 1_555
O7 Ru1 2.063410 1_555
O7 Ru0 2.063410 1_555
O8 Ru3 1.940905 1_555
O9 Ru1 2.063410 1_555
O9 Ru0 2.063410 1_555
O10 Ru1 2.063418 1_555
O10 Ru0 2.063418 1_555
O11 Ru1 1.940905 1_555
O12 Ru0 1.940905 1_555
O13 Ru3 2.063418 1_555
O13 Ru2 2.063418 1_555
O14 Ru0 1.940905 1_555
O15 Ru2 1.940906 1_555
O16 Ru2 1.940905 1_555
O17 Ru1 1.940906 1_555
