# generated using pymatgen
data_Ti2CuSb3
_symmetry_space_group_name_H-M   'P 1'
_cell_length_a   3.80794900
_cell_length_b   3.80794900
_cell_length_c   8.27392600
_cell_angle_alpha   90.00000000
_cell_angle_beta   90.00000000
_cell_angle_gamma   90.00000000
_symmetry_Int_Tables_number   1
_chemical_formula_structural   Ti2CuSb3
_chemical_formula_sum   'Ti2 Cu1 Sb3'
_cell_volume   119.97586197
_cell_formula_units_Z   1
loop_
 _symmetry_equiv_pos_site_id
 _symmetry_equiv_pos_as_xyz
  1  'x, y, z'
loop_
 _atom_site_type_symbol
 _atom_site_label
 _atom_site_symmetry_multiplicity
 _atom_site_fract_x
 _atom_site_fract_y
 _atom_site_fract_z
 _atom_site_occupancy
  Ti  Ti0  1  0.50000000  0.00000000  0.26260600  1
  Ti  Ti1  1  0.00000000  0.50000000  0.73739400  1
  Cu  Cu0  1  0.00000000  0.00000000  0.00000000  1
  Sb  Sb0  1  0.50000000  0.00000000  0.62505200  1
  Sb  Sb1  1  0.00000000  0.50000000  0.37494800  1
  Sb  Sb2  1  0.50000000  0.50000000  0.00000000  1
loop_
_geom_bond_atom_site_label_1
_geom_bond_atom_site_label_2
_geom_bond_distance
_geom_bond_site_symmetry_2
Cu0 Sb2 2.692627 1_555
Cu0 Sb2 2.692627 1_545
Cu0 Sb2 2.692627 1_445
Cu0 Sb2 2.692627 1_455
Cu0 Ti1 2.888962 1_544
Cu0 Ti0 2.888962 1_455
Cu0 Ti1 2.888962 1_554
Cu0 Ti0 2.888962 1_555
Sb0 Ti1 2.848548 1_645
Sb0 Ti1 2.848548 1_545
Sb0 Ti1 2.848548 1_555
Sb0 Ti1 2.848548 1_655
Sb0 Ti0 2.998851 1_555
Sb1 Ti0 2.848548 1_465
Sb1 Ti0 2.848548 1_565
Sb1 Ti0 2.848548 1_455
Sb1 Ti0 2.848548 1_555
Sb1 Ti1 2.998851 1_555
Sb2 Ti0 2.888962 1_565
Sb2 Ti1 2.888962 1_554
Sb2 Ti1 2.888962 1_654
Sb2 Ti0 2.888962 1_555
