# generated using pymatgen
data_TiHg6As4Br7
_symmetry_space_group_name_H-M   'P 1'
_cell_length_a   12.71642100
_cell_length_b   12.71642100
_cell_length_c   12.71642100
_cell_angle_alpha   90.00000000
_cell_angle_beta   90.00000000
_cell_angle_gamma   90.00000000
_symmetry_Int_Tables_number   1
_chemical_formula_structural   TiHg6As4Br7
_chemical_formula_sum   'Ti4 Hg24 As16 Br28'
_cell_volume   2056.33890733
_cell_formula_units_Z   4
loop_
 _symmetry_equiv_pos_site_id
 _symmetry_equiv_pos_as_xyz
  1  'x, y, z'
loop_
 _atom_site_type_symbol
 _atom_site_label
 _atom_site_symmetry_multiplicity
 _atom_site_fract_x
 _atom_site_fract_y
 _atom_site_fract_z
 _atom_site_occupancy
  Ti  Ti0  1  0.00000000  0.50000000  0.00000000  1
  Ti  Ti1  1  0.50000000  0.50000000  0.50000000  1
  Ti  Ti2  1  0.00000000  0.00000000  0.50000000  1
  Ti  Ti3  1  0.50000000  0.00000000  0.00000000  1
  Hg  Hg0  1  0.04174500  0.69251600  0.30265800  1
  Hg  Hg1  1  0.19251600  0.30265800  0.45825500  1
  Hg  Hg2  1  0.30748400  0.69734200  0.95825500  1
  Hg  Hg3  1  0.80265800  0.04174500  0.80748400  1
  Hg  Hg4  1  0.54174500  0.69251600  0.19734200  1
  Hg  Hg5  1  0.45825500  0.30748400  0.80265800  1
  Hg  Hg6  1  0.95825500  0.19251600  0.19734200  1
  Hg  Hg7  1  0.19734200  0.54174500  0.69251600  1
  Hg  Hg8  1  0.95825500  0.30748400  0.69734200  1
  Hg  Hg9  1  0.04174500  0.80748400  0.80265800  1
  Hg  Hg10  1  0.80748400  0.80265800  0.04174500  1
  Hg  Hg11  1  0.19734200  0.95825500  0.19251600  1
  Hg  Hg12  1  0.69251600  0.30265800  0.04174500  1
  Hg  Hg13  1  0.30265800  0.04174500  0.69251600  1
  Hg  Hg14  1  0.80265800  0.45825500  0.30748400  1
  Hg  Hg15  1  0.30265800  0.45825500  0.19251600  1
  Hg  Hg16  1  0.54174500  0.80748400  0.69734200  1
  Hg  Hg17  1  0.45825500  0.19251600  0.30265800  1
  Hg  Hg18  1  0.19251600  0.19734200  0.95825500  1
  Hg  Hg19  1  0.80748400  0.69734200  0.54174500  1
  Hg  Hg20  1  0.69734200  0.95825500  0.30748400  1
  Hg  Hg21  1  0.69734200  0.54174500  0.80748400  1
  Hg  Hg22  1  0.69251600  0.19734200  0.54174500  1
  Hg  Hg23  1  0.30748400  0.80265800  0.45825500  1
  As  As0  1  0.15595800  0.15595800  0.15595800  1
  As  As1  1  0.34404200  0.65595800  0.15595800  1
  As  As2  1  0.22940100  0.77059900  0.27059900  1
  As  As3  1  0.72940100  0.72940100  0.72940100  1
  As  As4  1  0.84404200  0.65595800  0.34404200  1
  As  As5  1  0.15595800  0.34404200  0.65595800  1
  As  As6  1  0.34404200  0.84404200  0.65595800  1
  As  As7  1  0.65595800  0.34404200  0.84404200  1
  As  As8  1  0.27059900  0.22940100  0.77059900  1
  As  As9  1  0.77059900  0.22940100  0.72940100  1
  As  As10  1  0.77059900  0.27059900  0.22940100  1
  As  As11  1  0.27059900  0.27059900  0.27059900  1
  As  As12  1  0.72940100  0.77059900  0.22940100  1
  As  As13  1  0.84404200  0.84404200  0.84404200  1
  As  As14  1  0.65595800  0.15595800  0.34404200  1
  As  As15  1  0.22940100  0.72940100  0.77059900  1
  Br  Br0  1  0.53889900  0.04512400  0.80779600  1
  Br  Br1  1  0.30779600  0.53889900  0.45487600  1
  Br  Br2  1  0.30779600  0.96110100  0.95487600  1
  Br  Br3  1  0.45487600  0.19220400  0.03889900  1
  Br  Br4  1  0.95487600  0.30779600  0.96110100  1
  Br  Br5  1  0.04512400  0.69220400  0.03889900  1
  Br  Br6  1  0.04512400  0.80779600  0.53889900  1
  Br  Br7  1  0.00000000  0.00000000  0.00000000  1
  Br  Br8  1  0.54512400  0.80779600  0.96110100  1
  Br  Br9  1  0.03889900  0.04512400  0.69220400  1
  Br  Br10  1  0.46110100  0.95487600  0.19220400  1
  Br  Br11  1  0.53889900  0.45487600  0.30779600  1
  Br  Br12  1  0.03889900  0.45487600  0.19220400  1
  Br  Br13  1  0.50000000  0.50000000  0.00000000  1
  Br  Br14  1  0.96110100  0.54512400  0.80779600  1
  Br  Br15  1  0.54512400  0.69220400  0.46110100  1
  Br  Br16  1  0.80779600  0.96110100  0.54512400  1
  Br  Br17  1  0.50000000  0.00000000  0.50000000  1
  Br  Br18  1  0.19220400  0.03889900  0.45487600  1
  Br  Br19  1  0.95487600  0.19220400  0.46110100  1
  Br  Br20  1  0.96110100  0.95487600  0.30779600  1
  Br  Br21  1  0.46110100  0.54512400  0.69220400  1
  Br  Br22  1  0.19220400  0.46110100  0.95487600  1
  Br  Br23  1  0.45487600  0.30779600  0.53889900  1
  Br  Br24  1  0.00000000  0.50000000  0.50000000  1
  Br  Br25  1  0.80779600  0.53889900  0.04512400  1
  Br  Br26  1  0.69220400  0.46110100  0.54512400  1
  Br  Br27  1  0.69220400  0.03889900  0.04512400  1
loop_
_geom_bond_atom_site_label_1
_geom_bond_atom_site_label_2
_geom_bond_distance
_geom_bond_site_symmetry_2
As0 As11 2.525024 1_555
As0 Hg11 2.610294 1_545
As0 Hg18 2.610294 1_554
As0 Hg6 2.610294 1_455
As1 As2 2.525024 1_555
As1 Hg4 2.610294 1_555
As1 Hg15 2.610294 1_555
As1 Hg2 2.610294 1_554
As2 Hg11 2.616603 1_555
As2 Hg0 2.616603 1_555
As2 Hg23 2.616603 1_555
As3 Hg16 2.616603 1_555
As3 Hg19 2.616603 1_555
As3 Hg21 2.616603 1_555
As4 Hg0 2.610294 1_655
As4 Hg19 2.610294 1_555
As4 Hg14 2.610294 1_555
As5 As8 2.525024 1_555
As5 Hg1 2.610294 1_555
As5 Hg7 2.610294 1_555
As5 Hg8 2.610294 1_455
As6 Hg13 2.610294 1_565
As6 Hg16 2.610294 1_555
As6 Hg23 2.610294 1_555
As7 As9 2.525024 1_555
As7 Hg12 2.610294 1_556
As7 Hg5 2.610294 1_555
As7 Hg21 2.610294 1_555
As8 Hg18 2.616603 1_555
As8 Hg13 2.616603 1_555
As8 Hg5 2.616603 1_555
As9 Hg22 2.616603 1_555
As9 Hg8 2.616603 1_555
As9 Hg3 2.616603 1_555
As10 As14 2.525024 1_555
As10 Hg6 2.616603 1_555
As10 Hg12 2.616603 1_555
As10 Hg14 2.616603 1_555
As11 Hg17 2.616603 1_555
As11 Hg1 2.616603 1_555
As11 Hg15 2.616603 1_555
As12 As4 2.525024 1_555
As12 Hg20 2.616603 1_555
As12 Hg4 2.616603 1_555
As12 Hg10 2.616603 1_555
As13 As3 2.525024 1_555
As13 Hg9 2.610294 1_655
As13 Hg10 2.610294 1_556
As13 Hg3 2.610294 1_565
As14 Hg17 2.610294 1_555
As14 Hg22 2.610294 1_555
As14 Hg20 2.610294 1_545
As15 As6 2.525024 1_555
As15 Hg7 2.616603 1_555
As15 Hg2 2.616603 1_555
As15 Hg9 2.616603 1_555
Br0 Ti3 2.558868 1_556
Br1 Ti1 2.558868 1_555
Br2 Ti3 2.558868 1_566
Br3 Ti3 2.558868 1_555
Br4 Ti0 2.558868 1_656
Br5 Ti0 2.558868 1_555
Br6 Ti2 2.558868 1_565
Br8 Ti3 2.558868 1_566
Br9 Ti2 2.558868 1_555
Br10 Ti3 2.558868 1_565
Br11 Ti1 2.558868 1_555
Br12 Ti0 2.558868 1_555
Br14 Ti0 2.558868 1_656
Br15 Ti1 2.558868 1_555
Br16 Ti2 2.558868 1_665
Br18 Ti2 2.558868 1_555
Br19 Ti2 2.558868 1_655
Br20 Ti2 2.558868 1_665
Br21 Ti1 2.558868 1_555
Br22 Ti0 2.558868 1_556
Br23 Ti1 2.558868 1_555
Br25 Ti0 2.558868 1_655
Br26 Ti1 2.558868 1_555
Br27 Ti3 2.558868 1_555
