# generated using pymatgen
data_BaYbCo4O7
_symmetry_space_group_name_H-M   'P 1'
_cell_length_a   6.32730536
_cell_length_b   6.32730536
_cell_length_c   10.48658200
_cell_angle_alpha   90.00000000
_cell_angle_beta   90.00000000
_cell_angle_gamma   119.99999336
_symmetry_Int_Tables_number   1
_chemical_formula_structural   BaYbCo4O7
_chemical_formula_sum   'Ba2 Yb2 Co8 O14'
_cell_volume   363.58186012
_cell_formula_units_Z   2
loop_
 _symmetry_equiv_pos_site_id
 _symmetry_equiv_pos_as_xyz
  1  'x, y, z'
loop_
 _atom_site_type_symbol
 _atom_site_label
 _atom_site_symmetry_multiplicity
 _atom_site_fract_x
 _atom_site_fract_y
 _atom_site_fract_z
 _atom_site_occupancy
  Ba  Ba0  1  0.66666700  0.33333300  0.51761700  1
  Ba  Ba1  1  0.33333300  0.66666700  0.01761700  1
  Yb  Yb0  1  0.66666700  0.33333300  0.87302100  1
  Yb  Yb1  1  0.33333300  0.66666700  0.37302100  1
  Co  Co0  1  0.17203500  0.82796500  0.68067300  1
  Co  Co1  1  0.82796500  0.65593000  0.18067300  1
  Co  Co2  1  0.82796500  0.17203500  0.18067300  1
  Co  Co3  1  0.00000000  0.00000000  0.93712900  1
  Co  Co4  1  0.65593000  0.82796500  0.68067300  1
  Co  Co5  1  0.17203500  0.34407000  0.68067300  1
  Co  Co6  1  0.34407000  0.17203500  0.18067300  1
  Co  Co7  1  0.00000000  0.00000000  0.43712900  1
  O  O0  1  0.67104000  0.83552000  0.50141000  1
  O  O1  1  0.50518300  0.49481700  0.72625100  1
  O  O2  1  0.83552000  0.67104000  0.00141000  1
  O  O3  1  0.49481700  0.50518300  0.22625100  1
  O  O4  1  0.16448000  0.83552000  0.50141000  1
  O  O5  1  0.98963500  0.49481700  0.72625100  1
  O  O6  1  0.00000000  0.00000000  0.74792900  1
  O  O7  1  0.50518300  0.01036500  0.72625100  1
  O  O8  1  0.49481700  0.98963500  0.22625100  1
  O  O9  1  0.32896000  0.16448000  0.00141000  1
  O  O10  1  0.01036500  0.50518300  0.22625100  1
  O  O11  1  0.16448000  0.32896000  0.50141000  1
  O  O12  1  0.00000000  0.00000000  0.24792900  1
  O  O13  1  0.83552000  0.16448000  0.00141000  1
loop_
_geom_bond_atom_site_label_1
_geom_bond_atom_site_label_2
_geom_bond_distance
_geom_bond_site_symmetry_2
Ba0 O1 2.814017 1_555
Ba0 O7 2.814017 1_555
Ba0 O5 2.814017 1_555
Ba0 O11 3.168302 1_655
Ba0 O0 3.168302 1_545
Ba0 O4 3.168306 1_545
Ba0 O4 3.168306 1_655
Ba0 O0 3.168308 1_555
Ba0 O11 3.168308 1_555
Ba1 O3 2.814017 1_555
Ba1 O10 2.814017 1_555
Ba1 O8 2.814017 1_555
Ba1 O9 3.168302 1_565
Ba1 O2 3.168302 1_455
Ba1 O13 3.168306 1_455
Ba1 O13 3.168306 1_565
Ba1 O2 3.168308 1_555
Ba1 O9 3.168308 1_555
Co0 O4 1.881679 1_555
Co0 O5 1.889708 1_455
Co0 O7 1.889708 1_565
Co0 O6 2.012968 1_565
Co1 O2 1.881679 1_555
Co1 O10 1.889702 1_655
Co1 O3 1.889708 1_555
Co1 O12 2.012969 1_665
Co2 O13 1.881679 1_555
Co2 O8 1.889708 1_545
Co2 O10 1.889708 1_655
Co2 O12 2.012968 1_655
Co3 O13 1.924489 1_456
Co3 O9 1.924489 1_556
Co3 O2 1.924489 1_446
Co3 O6 1.984061 1_555
Co4 O0 1.881679 1_555
Co4 O7 1.889702 1_565
Co4 O1 1.889708 1_555
Co4 O6 2.012969 1_665
Co5 O11 1.881679 1_555
Co5 O5 1.889702 1_455
Co5 O1 1.889708 1_555
Co5 O6 2.012969 1_555
Co6 O9 1.881679 1_555
Co6 O8 1.889702 1_545
Co6 O3 1.889708 1_555
Co6 O12 2.012969 1_555
Co7 O4 1.924489 1_545
Co7 O0 1.924489 1_445
Co7 O11 1.924489 1_555
Co7 O12 1.984061 1_555
O0 Yb1 2.288460 1_555
O1 Yb0 2.345389 1_555
O2 Yb0 2.288460 1_554
O3 Yb1 2.345389 1_555
O4 Yb1 2.288455 1_555
O5 Yb0 2.345389 1_555
O7 Yb0 2.345389 1_555
O8 Yb1 2.345389 1_555
O9 Yb0 2.288460 1_554
O10 Yb1 2.345389 1_555
O11 Yb1 2.288460 1_555
O13 Yb0 2.288455 1_554
