# generated using pymatgen
data_KVOF4
_symmetry_space_group_name_H-M   'P 1'
_cell_length_a   14.00243000
_cell_length_b   5.64153400
_cell_length_c   5.68503939
_cell_angle_alpha   84.15390599
_cell_angle_beta   90.00000000
_cell_angle_gamma   90.00000000
_symmetry_Int_Tables_number   1
_chemical_formula_structural   KVOF4
_chemical_formula_sum   'K4 V4 O4 F16'
_cell_volume   446.75505649
_cell_formula_units_Z   4
loop_
 _symmetry_equiv_pos_site_id
 _symmetry_equiv_pos_as_xyz
  1  'x, y, z'
loop_
 _atom_site_type_symbol
 _atom_site_label
 _atom_site_symmetry_multiplicity
 _atom_site_fract_x
 _atom_site_fract_y
 _atom_site_fract_z
 _atom_site_occupancy
  K  K0  1  0.87705600  0.45433500  0.73072600  1
  K  K1  1  0.62294400  0.95433500  0.73072600  1
  K  K2  1  0.12294400  0.54566500  0.26927400  1
  K  K3  1  0.37705600  0.04566500  0.26927400  1
  V  V0  1  0.64605900  0.44445700  0.21595700  1
  V  V1  1  0.85394100  0.94445700  0.21595700  1
  V  V2  1  0.35394100  0.55554300  0.78404300  1
  V  V3  1  0.14605900  0.05554300  0.78404300  1
  O  O0  1  0.58607100  0.66463500  0.29860300  1
  O  O1  1  0.41392900  0.33536500  0.70139700  1
  O  O2  1  0.91392900  0.16463500  0.29860300  1
  O  O3  1  0.08607100  0.83536500  0.70139700  1
  F  F0  1  0.39205700  0.56284900  0.09146700  1
  F  F1  1  0.06551600  0.31039800  0.70390900  1
  F  F2  1  0.24511900  0.39613900  0.91417000  1
  F  F3  1  0.78313300  0.84653000  0.48025300  1
  F  F4  1  0.28313300  0.65347000  0.51974700  1
  F  F5  1  0.10794300  0.06284900  0.09146700  1
  F  F6  1  0.25488100  0.89613900  0.91417000  1
  F  F7  1  0.71686700  0.34653000  0.48025300  1
  F  F8  1  0.89205700  0.93715100  0.90853200  1
  F  F9  1  0.43448400  0.81039800  0.70390900  1
  F  F10  1  0.74511900  0.10386100  0.08583000  1
  F  F11  1  0.93448400  0.68960200  0.29609100  1
  F  F12  1  0.56551600  0.18960200  0.29609100  1
  F  F13  1  0.75488100  0.60386100  0.08583000  1
  F  F14  1  0.21686700  0.15347000  0.51974700  1
  F  F15  1  0.60794300  0.43715100  0.90853200  1
loop_
_geom_bond_atom_site_label_1
_geom_bond_atom_site_label_2
_geom_bond_distance
_geom_bond_site_symmetry_2
K0 O2 3.129003 1_555
K1 O0 3.129003 1_555
K2 O3 3.129003 1_555
K3 O1 3.129003 1_555
O0 V0 1.608765 1_555
O1 V2 1.608765 1_555
O2 V1 1.608765 1_545
O3 V3 1.608765 1_565
F0 V2 1.831869 1_554
F0 K3 2.996354 1_555
F0 K3 3.007661 1_565
F1 V3 1.847492 1_555
F1 K0 2.769771 1_455
F1 K2 2.801001 1_555
F2 V2 1.882110 1_555
F2 K2 2.839125 1_556
F2 K3 3.253419 1_556
F3 V1 1.837595 1_555
F3 K1 2.757743 1_555
F3 K0 2.830362 1_555
F4 V2 1.837595 1_555
F4 K2 2.757743 1_555
F4 K3 2.830362 1_565
F5 V3 1.831869 1_554
F5 K2 2.996354 1_545
F5 K2 3.007661 1_555
F6 V3 1.882110 1_565
F6 K3 2.839125 1_566
F6 K2 3.253419 1_556
F7 V0 1.837595 1_555
F7 K0 2.757743 1_555
F7 K1 2.830362 1_545
F8 V1 1.831874 1_556
F8 K0 2.996353 1_565
F8 K0 3.007658 1_555
F9 V2 1.847492 1_555
F9 K1 2.769771 1_555
F9 K3 2.801001 1_565
F10 V1 1.882110 1_545
F10 K1 2.839125 1_544
F10 K0 3.253419 1_554
F11 V1 1.847492 1_555
F11 K2 2.769771 1_655
F11 K0 2.801001 1_555
F12 V0 1.847492 1_555
F12 K3 2.769771 1_555
F12 K1 2.801001 1_545
F13 V0 1.882110 1_555
F13 K0 2.839125 1_554
F13 K1 3.253419 1_554
F14 V3 1.837595 1_555
F14 K3 2.757743 1_555
F14 K2 2.830362 1_555
F15 V0 1.831874 1_556
F15 K1 2.996353 1_555
F15 K1 3.007658 1_545
