# generated using pymatgen
data_NaCaMgCr(SiO3)4
_symmetry_space_group_name_H-M   'P 1'
_cell_length_a   6.63347077
_cell_length_b   6.63347077
_cell_length_c   16.03268251
_cell_angle_alpha   77.61853180
_cell_angle_beta   77.61853180
_cell_angle_gamma   84.59505244
_symmetry_Int_Tables_number   1
_chemical_formula_structural   NaCaMgCr(SiO3)4
_chemical_formula_sum   'Na3 Ca3 Mg3 Cr3 Si12 O36'
_cell_volume   672.18970536
_cell_formula_units_Z   3
loop_
 _symmetry_equiv_pos_site_id
 _symmetry_equiv_pos_as_xyz
  1  'x, y, z'
loop_
 _atom_site_type_symbol
 _atom_site_label
 _atom_site_symmetry_multiplicity
 _atom_site_fract_x
 _atom_site_fract_y
 _atom_site_fract_z
 _atom_site_occupancy
  Na  Na0  1  0.70092200  0.29992800  0.33183400  1
  Na  Na1  1  0.30133800  0.69866200  0.50000000  1
  Na  Na2  1  0.70007200  0.29907800  0.66816600  1
  Ca  Ca0  1  0.29939000  0.70088200  0.83509200  1
  Ca  Ca1  1  0.70294200  0.29705800  0.00000000  1
  Ca  Ca2  1  0.29911800  0.70061000  0.16490800  1
  Mg  Mg0  1  0.90551700  0.09690900  0.83163500  1
  Mg  Mg1  1  0.09037200  0.90962800  0.00000000  1
  Mg  Mg2  1  0.90309100  0.09448300  0.16836500  1
  Cr  Cr0  1  0.09143000  0.90602400  0.33472100  1
  Cr  Cr1  1  0.90422700  0.09577300  0.50000000  1
  Cr  Cr2  1  0.09397600  0.90857000  0.66527900  1
  Si  Si0  1  0.38179500  0.19333200  0.83843700  1
  Si  Si1  1  0.80493600  0.62112700  0.82646400  1
  Si  Si2  1  0.19292600  0.37909900  0.00593700  1
  Si  Si3  1  0.62090100  0.80707400  0.99406300  1
  Si  Si4  1  0.37887300  0.19506400  0.17353600  1
  Si  Si5  1  0.80666800  0.61820500  0.16156300  1
  Si  Si6  1  0.19912500  0.38006300  0.34064400  1
  Si  Si7  1  0.61758800  0.80123400  0.32763200  1
  Si  Si8  1  0.38291100  0.20096600  0.50656800  1
  Si  Si9  1  0.79903400  0.61708900  0.49343200  1
  Si  Si10  1  0.19876600  0.38241200  0.67236800  1
  Si  Si11  1  0.61993700  0.80087500  0.65935600  1
  O  O0  1  0.33315300  0.37002600  0.75058300  1
  O  O1  1  0.61237700  0.10231900  0.81324700  1
  O  O2  1  0.20079400  0.02834100  0.86865800  1
  O  O3  1  0.97460200  0.80016400  0.79345800  1
  O  O4  1  0.89175900  0.38898000  0.85496000  1
  O  O5  1  0.36581600  0.33748600  0.91553800  1
  O  O6  1  0.63730300  0.66384300  0.91755400  1
  O  O7  1  0.10947200  0.61340500  0.97723600  1
  O  O8  1  0.02749400  0.20076600  0.03615100  1
  O  O9  1  0.79923400  0.97250600  0.96384900  1
  O  O10  1  0.38659500  0.89052800  0.02276400  1
  O  O11  1  0.33615700  0.36269700  0.08244600  1
  O  O12  1  0.66251400  0.63418400  0.08446200  1
  O  O13  1  0.61102000  0.10824100  0.14504000  1
  O  O14  1  0.19983600  0.02539800  0.20654200  1
  O  O15  1  0.97165900  0.79920600  0.13134200  1
  O  O16  1  0.89768100  0.38762300  0.18675300  1
  O  O17  1  0.35682100  0.34140800  0.24795700  1
  O  O18  1  0.62997400  0.66684700  0.24941700  1
  O  O19  1  0.11233800  0.61627900  0.31307500  1
  O  O20  1  0.03348900  0.19408700  0.37149100  1
  O  O21  1  0.80588900  0.96105200  0.29980900  1
  O  O22  1  0.38285800  0.89304900  0.35233500  1
  O  O23  1  0.33767700  0.36090600  0.41607400  1
  O  O24  1  0.66031600  0.63468200  0.41772900  1
  O  O25  1  0.61569900  0.10615300  0.48178900  1
  O  O26  1  0.19467700  0.03544400  0.53729000  1
  O  O27  1  0.96455600  0.80532300  0.46271000  1
  O  O28  1  0.89384700  0.38430100  0.51821100  1
  O  O29  1  0.36531800  0.33968400  0.58227100  1
  O  O30  1  0.63909400  0.66232300  0.58392600  1
  O  O31  1  0.10695100  0.61714200  0.64766500  1
  O  O32  1  0.03894800  0.19411100  0.70019100  1
  O  O33  1  0.80591300  0.96651100  0.62850900  1
  O  O34  1  0.38372100  0.88766200  0.68692500  1
  O  O35  1  0.65859200  0.64317900  0.75204300  1
loop_
_geom_bond_atom_site_label_1
_geom_bond_atom_site_label_2
_geom_bond_distance
_geom_bond_site_symmetry_2
Na0 O16 2.390237 1_555
Na0 O21 2.418345 1_545
Na0 O20 2.425331 1_655
Na0 O25 2.445551 1_555
Na0 O23 2.539457 1_555
Na0 O18 2.561890 1_555
Na0 O24 2.817740 1_555
Na0 O17 2.851957 1_555
Na1 O22 2.415209 1_555
Na1 O31 2.415209 1_555
Na1 O27 2.437732 1_455
Na1 O26 2.437732 1_565
Na1 O29 2.508607 1_555
Na1 O24 2.508607 1_555
Na1 O30 2.817879 1_555
Na1 O23 2.817879 1_555
Na2 O1 2.390237 1_555
Na2 O32 2.418345 1_655
Na2 O33 2.425331 1_545
Na2 O28 2.445551 1_555
Na2 O30 2.539457 1_555
Na2 O0 2.561890 1_555
Na2 O29 2.817740 1_555
Na2 O35 2.851957 1_555
Ca0 O7 2.335993 1_555
Ca0 O2 2.349148 1_565
Ca0 O3 2.383682 1_455
Ca0 O34 2.406167 1_555
Ca0 O35 2.506615 1_555
Ca0 O5 2.525639 1_555
Ca0 O0 2.784820 1_555
Ca0 O6 2.803672 1_555
Ca1 O8 2.344403 1_655
Ca1 O9 2.344403 1_544
Ca1 O4 2.373770 1_554
Ca1 O13 2.373770 1_555
Ca1 O11 2.554339 1_555
Ca1 O6 2.554339 1_554
Ca1 O12 2.817214 1_555
Ca1 O5 2.817214 1_554
Ca2 O10 2.335993 1_555
Ca2 O15 2.349148 1_455
Ca2 O14 2.383682 1_565
Ca2 O19 2.406167 1_555
Ca2 O17 2.506615 1_555
Ca2 O12 2.525639 1_555
Ca2 O18 2.784820 1_555
Ca2 O11 2.803672 1_555
Mg0 O1 2.024247 1_555
Mg0 O4 2.040742 1_555
Mg0 O32 2.089306 1_655
Mg0 O9 2.095218 1_545
Mg0 O2 2.147263 1_655
Mg0 O3 2.164694 1_545
Mg1 O10 2.061854 1_555
Mg1 O7 2.061854 1_554
Mg1 O2 2.080141 1_564
Mg1 O15 2.080141 1_455
Mg1 O9 2.112877 1_454
Mg1 O8 2.112877 1_565
Mg2 O16 2.024247 1_555
Mg2 O13 2.040742 1_555
Mg2 O21 2.089306 1_545
Mg2 O8 2.095218 1_655
Mg2 O15 2.147263 1_545
Mg2 O14 2.164694 1_655
Cr0 O22 2.004167 1_555
Cr0 O19 2.012213 1_555
Cr0 O27 2.035375 1_455
Cr0 O14 2.035457 1_565
Cr0 O21 2.066652 1_455
Cr0 O20 2.096233 1_565
Cr1 O25 1.989813 1_555
Cr1 O28 1.989813 1_555
Cr1 O20 2.043790 1_655
Cr1 O33 2.043790 1_545
Cr1 O26 2.115619 1_655
Cr1 O27 2.115619 1_545
Cr2 O31 2.004167 1_555
Cr2 O34 2.012213 1_555
Cr2 O26 2.035375 1_565
Cr2 O3 2.035457 1_455
Cr2 O32 2.066652 1_565
Cr2 O33 2.096233 1_455
O0 Si10 1.671931 1_555
O0 Si0 1.696337 1_555
O1 Si0 1.591489 1_555
O2 Si0 1.626308 1_555
O3 Si1 1.638321 1_555
O4 Si1 1.598717 1_555
O5 Si0 1.698613 1_555
O5 Si2 1.700348 1_556
O6 Si3 1.685914 1_555
O6 Si1 1.694494 1_555
O7 Si2 1.604486 1_556
O8 Si2 1.615295 1_555
O9 Si3 1.615295 1_555
O10 Si3 1.604486 1_554
O11 Si2 1.685914 1_555
O11 Si4 1.694494 1_555
O12 Si5 1.698613 1_555
O12 Si3 1.700348 1_554
O13 Si4 1.598717 1_555
O14 Si4 1.638321 1_555
O15 Si5 1.626308 1_555
O16 Si5 1.591489 1_555
O17 Si4 1.668101 1_555
O17 Si6 1.677655 1_555
O18 Si7 1.671931 1_555
O18 Si5 1.696337 1_555
O19 Si6 1.619952 1_555
O20 Si6 1.653614 1_555
O21 Si7 1.640379 1_555
O22 Si7 1.616358 1_555
O23 Si6 1.646850 1_555
O23 Si8 1.669512 1_555
O24 Si9 1.652710 1_555
O24 Si7 1.679204 1_555
O25 Si8 1.612151 1_555
O26 Si8 1.664303 1_555
O27 Si9 1.664303 1_555
O28 Si9 1.612151 1_555
O29 Si8 1.652710 1_555
O29 Si10 1.679204 1_555
O30 Si11 1.646850 1_555
O30 Si9 1.669512 1_555
O31 Si10 1.616358 1_555
O32 Si10 1.640379 1_555
O33 Si11 1.653614 1_555
O34 Si11 1.619952 1_555
O35 Si1 1.668101 1_555
O35 Si11 1.677655 1_555
