# generated using pymatgen
data_Cs3Sb2I9
_symmetry_space_group_name_H-M   'P 1'
_cell_length_a   8.51747396
_cell_length_b   8.51747344
_cell_length_c   10.52961796
_cell_angle_alpha   90.00000000
_cell_angle_beta   90.00000000
_cell_angle_gamma   119.99999790
_symmetry_Int_Tables_number   1
_chemical_formula_structural   Cs3Sb2I9
_chemical_formula_sum   'Cs3 Sb2 I9'
_cell_volume   661.55332689
_cell_formula_units_Z   1
loop_
 _symmetry_equiv_pos_site_id
 _symmetry_equiv_pos_as_xyz
  1  'x, y, z'
loop_
 _atom_site_type_symbol
 _atom_site_label
 _atom_site_symmetry_multiplicity
 _atom_site_fract_x
 _atom_site_fract_y
 _atom_site_fract_z
 _atom_site_occupancy
  Cs  Cs0  1  0.00000000  -0.00000000  -0.00000000  1
  Cs  Cs1  1  0.66666700  0.33333300  0.67136133  1
  Cs  Cs2  1  0.33333300  0.66666700  0.32863867  1
  Sb  Sb0  1  0.66666700  0.33333300  0.18809723  1
  Sb  Sb1  1  0.33333300  0.66666700  0.81190277  1
  I  I0  1  0.50000000  0.50000000  -0.00000000  1
  I  I1  1  0.50000000  -0.00000000  -0.00000000  1
  I  I2  1  0.00000000  0.50000000  -0.00000000  1
  I  I3  1  0.16782344  0.83217656  0.66339561  1
  I  I4  1  0.16782344  0.33564788  0.66339561  1
  I  I5  1  0.66435212  0.83217656  0.66339561  1
  I  I6  1  0.33564788  0.16782344  0.33660439  1
  I  I7  1  0.83217656  0.66435212  0.33660439  1
  I  I8  1  0.83217656  0.16782344  0.33660439  1
loop_
_geom_bond_atom_site_label_1
_geom_bond_atom_site_label_2
_geom_bond_distance
_geom_bond_site_symmetry_2
Cs0 I2 4.258737 1_555
Cs0 I2 4.258737 1_545
Cs0 I1 4.258737 1_455
Cs0 I1 4.258737 1_555
Cs0 I0 4.258737 1_555
Cs0 I0 4.258737 1_445
Cs0 I3 4.323424 1_544
Cs0 I8 4.323424 1_455
Cs0 I4 4.323429 1_554
Cs0 I7 4.323429 1_445
Cs0 I6 4.323429 1_555
Cs0 I5 4.323429 1_444
Cs1 I1 4.245026 1_556
Cs1 I2 4.245026 1_656
Cs1 I0 4.245030 1_556
Cs1 I5 4.259588 1_545
Cs1 I4 4.259589 1_655
Cs1 I3 4.259597 1_545
Cs1 I3 4.259597 1_655
Cs1 I5 4.259605 1_555
Cs1 I4 4.259606 1_555
Cs1 I8 4.287962 1_555
Cs1 I7 4.287962 1_555
Cs1 I6 4.287962 1_555
Cs2 I1 4.245026 1_565
Cs2 I2 4.245026 1_555
Cs2 I0 4.245030 1_555
Cs2 I6 4.259588 1_565
Cs2 I7 4.259589 1_455
Cs2 I8 4.259597 1_565
Cs2 I8 4.259597 1_455
Cs2 I6 4.259605 1_555
Cs2 I7 4.259606 1_555
Cs2 I3 4.287962 1_555
Cs2 I4 4.287962 1_555
Cs2 I5 4.287962 1_555
I0 Sb0 3.157274 1_555
I0 Sb1 3.157274 1_554
I1 Sb1 3.157269 1_544
I1 Sb0 3.157269 1_555
I2 Sb0 3.157269 1_455
I2 Sb1 3.157269 1_554
I3 Sb1 2.899516 1_555
I4 Sb1 2.899516 1_555
I5 Sb1 2.899516 1_555
I6 Sb0 2.899516 1_555
I7 Sb0 2.899516 1_555
I8 Sb0 2.899516 1_555
