# generated using pymatgen
data_Hg3AsS4Br
_symmetry_space_group_name_H-M   'P 1'
_cell_length_a   7.58720948
_cell_length_b   7.58720948
_cell_length_c   10.06009200
_cell_angle_alpha   90.00000000
_cell_angle_beta   90.00000000
_cell_angle_gamma   119.99999544
_symmetry_Int_Tables_number   1
_chemical_formula_structural   Hg3AsS4Br
_chemical_formula_sum   'Hg6 As2 S8 Br2'
_cell_volume   501.52981207
_cell_formula_units_Z   2
loop_
 _symmetry_equiv_pos_site_id
 _symmetry_equiv_pos_as_xyz
  1  'x, y, z'
loop_
 _atom_site_type_symbol
 _atom_site_label
 _atom_site_symmetry_multiplicity
 _atom_site_fract_x
 _atom_site_fract_y
 _atom_site_fract_z
 _atom_site_occupancy
  Hg  Hg0  1  0.49738900  0.99477800  0.24259100  1
  Hg  Hg1  1  0.99477800  0.49738900  0.74259100  1
  Hg  Hg2  1  0.00522200  0.50261100  0.24259100  1
  Hg  Hg3  1  0.50261100  0.49738900  0.74259100  1
  Hg  Hg4  1  0.50261100  0.00522200  0.74259100  1
  Hg  Hg5  1  0.49738900  0.50261100  0.24259100  1
  As  As0  1  0.00000000  0.00000000  0.73436700  1
  As  As1  1  0.00000000  0.00000000  0.23436700  1
  S  S0  1  0.70149700  0.85074800  0.85476400  1
  S  S1  1  0.66666700  0.33333300  0.61731500  1
  S  S2  1  0.85074800  0.14925200  0.35476400  1
  S  S3  1  0.14925200  0.29850300  0.85476400  1
  S  S4  1  0.29850300  0.14925200  0.35476400  1
  S  S5  1  0.85074800  0.70149700  0.35476400  1
  S  S6  1  0.14925200  0.85074800  0.85476400  1
  S  S7  1  0.33333300  0.66666700  0.11731500  1
  Br  Br0  1  0.66666700  0.33333300  0.03625600  1
  Br  Br1  1  0.33333300  0.66666700  0.53625600  1
loop_
_geom_bond_atom_site_label_1
_geom_bond_atom_site_label_2
_geom_bond_distance
_geom_bond_site_symmetry_2
Hg0 S7 2.497266 1_555
Hg0 S2 2.587023 1_565
Hg0 S4 2.587029 1_565
Hg1 S1 2.497266 1_555
Hg1 S6 2.587023 1_655
Hg1 S3 2.587029 1_655
Hg2 S7 2.497266 1_555
Hg2 S2 2.587023 1_455
Hg2 S5 2.587029 1_455
Hg3 S1 2.497271 1_555
Hg3 S0 2.587023 1_555
Hg3 S3 2.587023 1_555
Hg4 S1 2.497266 1_555
Hg4 S6 2.587023 1_545
Hg4 S0 2.587029 1_545
Hg5 S7 2.497271 1_555
Hg5 S5 2.587023 1_555
Hg5 S4 2.587023 1_555
As0 S0 2.305217 1_445
As0 S3 2.305217 1_555
As0 S6 2.305222 1_545
As1 S4 2.305217 1_555
As1 S5 2.305217 1_445
As1 S2 2.305222 1_455
Br0 Hg0 3.042590 1_545
Br0 Hg2 3.042590 1_655
Br0 Hg5 3.042594 1_555
Br1 Hg1 3.042590 1_455
Br1 Hg4 3.042590 1_565
Br1 Hg3 3.042594 1_555
