# generated using pymatgen
data_Hf6Si7Ni16
_symmetry_space_group_name_H-M   'P 1'
_cell_length_a   7.99717367
_cell_length_b   7.99717955
_cell_length_c   7.99717415
_cell_angle_alpha   60.00110900
_cell_angle_beta   60.00108420
_cell_angle_gamma   60.00109859
_symmetry_Int_Tables_number   1
_chemical_formula_structural   Hf6Si7Ni16
_chemical_formula_sum   'Hf6 Si7 Ni16'
_cell_volume   361.66437673
_cell_formula_units_Z   1
loop_
 _symmetry_equiv_pos_site_id
 _symmetry_equiv_pos_as_xyz
  1  'x, y, z'
loop_
 _atom_site_type_symbol
 _atom_site_label
 _atom_site_symmetry_multiplicity
 _atom_site_fract_x
 _atom_site_fract_y
 _atom_site_fract_z
 _atom_site_occupancy
  Hf  Hf0  1  0.79415832  0.20584397  0.79415730  1
  Hf  Hf1  1  0.79416071  0.79415569  0.20584158  1
  Hf  Hf2  1  0.20584123  0.79415647  0.79416011  1
  Hf  Hf3  1  0.20583923  0.20584435  0.79415809  1
  Hf  Hf4  1  0.79415894  0.20584391  0.20583972  1
  Hf  Hf5  1  0.20584129  0.79415598  0.20584271  1
  Si  Si0  1  0.00000079  0.49999921  0.00000082  1
  Si  Si1  1  0.49999990  0.50000007  0.49999999  1
  Si  Si2  1  0.49999918  0.49999922  0.00000079  1
  Si  Si3  1  0.49999909  0.00000083  0.50000003  1
  Si  Si4  1  -0.00000005  0.49999921  0.49999999  1
  Si  Si5  1  -0.00000002  0.00000080  0.49999928  1
  Si  Si6  1  0.49999920  0.00000084  0.00000081  1
  Ni  Ni0  1  0.16831727  0.16832608  0.16831930  1
  Ni  Ni1  1  0.61822901  0.61822014  0.14532317  1
  Ni  Ni2  1  0.38177084  0.38177839  0.38177220  1
  Ni  Ni3  1  0.16831989  0.49503899  0.16832152  1
  Ni  Ni4  1  0.16831873  0.16832693  0.49503610  1
  Ni  Ni5  1  0.14532271  0.61822080  0.61822733  1
  Ni  Ni6  1  0.61822562  0.14532668  0.61822330  1
  Ni  Ni7  1  0.83168206  0.83167304  0.83168092  1
  Ni  Ni8  1  0.85467669  0.38177878  0.38177248  1
  Ni  Ni9  1  0.38177148  0.38177957  0.85467620  1
  Ni  Ni10  1  0.38177502  0.85467361  0.38177554  1
  Ni  Ni11  1  0.50496613  0.83167273  0.83168046  1
  Ni  Ni12  1  0.61822961  0.61822124  0.61822741  1
  Ni  Ni13  1  0.83168060  0.83167281  0.50496446  1
  Ni  Ni14  1  0.49503632  0.16832611  0.16831984  1
  Ni  Ni15  1  0.83167920  0.50496251  0.83167857  1
loop_
_geom_bond_atom_site_label_1
_geom_bond_atom_site_label_2
_geom_bond_distance
_geom_bond_site_symmetry_2
Hf0 Ni15 2.725397 1_555
Hf0 Ni4 2.725456 1_655
Hf0 Ni14 2.725468 1_556
Hf0 Ni7 2.725482 1_545
Hf0 Ni6 2.744934 1_555
Hf0 Ni12 2.744952 1_555
Hf0 Ni8 2.744991 1_555
Hf0 Ni9 2.745004 1_555
Hf0 Si4 2.871211 1_655
Hf0 Si5 2.871218 1_655
Hf0 Si2 2.871221 1_556
Hf0 Si6 2.871224 1_556
Hf1 Ni13 2.725405 1_555
Hf1 Ni7 2.725425 1_554
Hf1 Ni3 2.725437 1_655
Hf1 Ni14 2.725516 1_565
Hf1 Ni8 2.744943 1_555
Hf1 Ni1 2.744944 1_555
Hf1 Ni10 2.744997 1_555
Hf1 Ni12 2.745006 1_555
Hf1 Si0 2.871197 1_655
Hf1 Si4 2.871216 1_655
Hf1 Si6 2.871224 1_565
Hf1 Si3 2.871248 1_565
Hf2 Ni7 2.725417 1_455
Hf2 Ni11 2.725419 1_555
Hf2 Ni3 2.725451 1_556
Hf2 Ni4 2.725515 1_565
Hf2 Ni9 2.744942 1_555
Hf2 Ni5 2.744953 1_555
Hf2 Ni10 2.744991 1_555
Hf2 Ni12 2.745023 1_555
Hf2 Si0 2.871200 1_556
Hf2 Si2 2.871221 1_556
Hf2 Si5 2.871224 1_565
Hf2 Si3 2.871240 1_565
Hf3 Ni4 2.725402 1_555
Hf3 Ni0 2.725425 1_556
Hf3 Ni15 2.725445 1_455
Hf3 Ni11 2.725529 1_545
Hf3 Ni5 2.744939 1_555
Hf3 Ni9 2.744944 1_555
Hf3 Ni6 2.745002 1_555
Hf3 Ni2 2.745007 1_555
Hf3 Si0 2.871199 1_556
Hf3 Si4 2.871213 1_555
Hf3 Si6 2.871227 1_556
Hf3 Si3 2.871237 1_555
Hf4 Ni14 2.725406 1_555
Hf4 Ni0 2.725408 1_655
Hf4 Ni15 2.725453 1_554
Hf4 Ni13 2.725520 1_545
Hf4 Ni1 2.744937 1_555
Hf4 Ni8 2.744943 1_555
Hf4 Ni6 2.744984 1_555
Hf4 Ni2 2.745020 1_555
Hf4 Si0 2.871197 1_655
Hf4 Si5 2.871215 1_655
Hf4 Si2 2.871221 1_555
Hf4 Si3 2.871245 1_555
Hf5 Ni3 2.725387 1_555
Hf5 Ni13 2.725459 1_455
Hf5 Ni0 2.725475 1_565
Hf5 Ni11 2.725476 1_554
Hf5 Ni10 2.744934 1_555
Hf5 Ni2 2.744954 1_555
Hf5 Ni5 2.744990 1_555
Hf5 Ni1 2.745009 1_555
Hf5 Si4 2.871218 1_555
Hf5 Si5 2.871219 1_565
Hf5 Si2 2.871221 1_555
Hf5 Si6 2.871227 1_565
Ni0 Si0 2.308809 1_555
Ni0 Si5 2.308857 1_555
Ni0 Si6 2.308868 1_555
Ni0 Ni8 2.543615 1_455
Ni0 Ni9 2.543629 1_554
Ni0 Ni10 2.543679 1_545
Ni0 Ni3 2.612801 1_555
Ni0 Ni4 2.612820 1_555
Ni0 Ni14 2.612831 1_555
Ni1 Si1 2.315953 1_555
Ni1 Si2 2.495968 1_555
Ni1 Si0 2.496015 1_655
Ni1 Si6 2.496074 1_565
Ni1 Ni15 2.543596 1_554
Ni1 Ni11 2.543605 1_554
Ni1 Ni7 2.543619 1_554
Ni1 Ni8 2.674187 1_555
Ni1 Ni2 2.674204 1_555
Ni1 Ni10 2.674237 1_555
Ni2 Si1 2.315913 1_555
Ni2 Si4 2.496006 1_555
Ni2 Si2 2.496010 1_555
Ni2 Si3 2.496051 1_555
Ni2 Ni3 2.543563 1_555
Ni2 Ni4 2.543568 1_555
Ni2 Ni5 2.674190 1_555
Ni2 Ni6 2.674237 1_555
Ni3 Si0 2.308798 1_555
Ni3 Si4 2.308827 1_555
Ni3 Si2 2.308833 1_555
Ni3 Ni8 2.543597 1_455
Ni3 Ni9 2.543608 1_554
Ni3 Ni4 2.612828 1_555
Ni4 Si4 2.308795 1_555
Ni4 Si5 2.308820 1_555
Ni4 Si3 2.308850 1_555
Ni4 Ni8 2.543604 1_455
Ni5 Si1 2.315955 1_555
Ni5 Si4 2.495959 1_555
Ni5 Si0 2.496026 1_556
Ni5 Si5 2.496070 1_565
Ni5 Ni7 2.543614 1_455
Ni5 Ni9 2.674191 1_555
Ni6 Si1 2.315932 1_555
Ni6 Si3 2.495986 1_555
Ni6 Si5 2.496033 1_655
Ni6 Si6 2.496053 1_556
Ni6 Ni7 2.543682 1_545
Ni6 Ni8 2.674222 1_555
Ni6 Ni9 2.674237 1_555
Ni7 Si0 2.308821 1_656
Ni7 Si5 2.308872 1_665
Ni7 Si6 2.308882 1_566
Ni8 Si1 2.315952 1_555
Ni8 Si4 2.495956 1_655
Ni8 Si0 2.496015 1_655
Ni8 Si5 2.496057 1_655
Ni9 Si1 2.315949 1_555
Ni9 Si2 2.495961 1_556
Ni9 Si0 2.496008 1_556
Ni9 Si6 2.496062 1_556
Ni10 Si1 2.315933 1_555
Ni10 Si3 2.495987 1_565
Ni10 Si6 2.496036 1_565
Ni10 Si5 2.496037 1_565
Ni10 Ni14 2.543665 1_565
Ni10 Ni4 2.543667 1_565
Ni10 Ni5 2.674233 1_555
Ni10 Ni12 2.674241 1_555
Ni11 Si2 2.308811 1_556
Ni11 Si6 2.308828 1_566
Ni11 Si3 2.308858 1_565
Ni11 Ni12 2.543575 1_555
Ni11 Ni6 2.543667 1_565
Ni11 Ni7 2.612807 1_555
Ni11 Ni15 2.612814 1_555
Ni11 Ni13 2.612841 1_555
Ni12 Si1 2.315912 1_555
Ni12 Si4 2.496002 1_655
Ni12 Si2 2.496022 1_556
Ni12 Si3 2.496064 1_565
Ni12 Ni15 2.543561 1_555
Ni12 Ni13 2.543564 1_555
Ni12 Ni8 2.674189 1_555
Ni12 Ni9 2.674203 1_555
Ni13 Si4 2.308806 1_655
Ni13 Si5 2.308829 1_665
Ni13 Si3 2.308859 1_565
Ni13 Ni5 2.543601 1_655
Ni13 Ni6 2.543664 1_565
Ni13 Ni7 2.612815 1_555
Ni13 Ni15 2.612819 1_555
Ni14 Si2 2.308799 1_555
Ni14 Si6 2.308818 1_555
Ni14 Si3 2.308846 1_555
Ni14 Ni2 2.543571 1_555
Ni14 Ni9 2.543620 1_554
Ni14 Ni3 2.612838 1_555
Ni14 Ni4 2.612855 1_555
Ni15 Si0 2.308812 1_656
Ni15 Si4 2.308836 1_655
Ni15 Si2 2.308845 1_556
Ni15 Ni5 2.543591 1_655
Ni15 Ni7 2.612784 1_555
