# generated using pymatgen
data_BaLu2CuO5
_symmetry_space_group_name_H-M   'P 1'
_cell_length_a   5.62016600
_cell_length_b   7.09310800
_cell_length_c   12.05655700
_cell_angle_alpha   90.00000000
_cell_angle_beta   90.00000000
_cell_angle_gamma   90.00000000
_symmetry_Int_Tables_number   1
_chemical_formula_structural   BaLu2CuO5
_chemical_formula_sum   'Ba4 Lu8 Cu4 O20'
_cell_volume   480.62794637
_cell_formula_units_Z   4
loop_
 _symmetry_equiv_pos_site_id
 _symmetry_equiv_pos_as_xyz
  1  'x, y, z'
loop_
 _atom_site_type_symbol
 _atom_site_label
 _atom_site_symmetry_multiplicity
 _atom_site_fract_x
 _atom_site_fract_y
 _atom_site_fract_z
 _atom_site_occupancy
  Ba  Ba0  1  0.25000000  0.92941100  0.90367500  1
  Ba  Ba1  1  0.75000000  0.07058900  0.09632500  1
  Ba  Ba2  1  0.75000000  0.42941100  0.59632500  1
  Ba  Ba3  1  0.25000000  0.57058900  0.40367500  1
  Lu  Lu0  1  0.25000000  0.11490500  0.28686600  1
  Lu  Lu1  1  0.75000000  0.88509500  0.71313400  1
  Lu  Lu2  1  0.75000000  0.61490500  0.21313400  1
  Lu  Lu3  1  0.25000000  0.38509500  0.78686600  1
  Lu  Lu4  1  0.25000000  0.39807100  0.07382700  1
  Lu  Lu5  1  0.75000000  0.60192900  0.92617300  1
  Lu  Lu6  1  0.75000000  0.89807100  0.42617300  1
  Lu  Lu7  1  0.25000000  0.10192900  0.57382700  1
  Cu  Cu0  1  0.25000000  0.71728800  0.66060300  1
  Cu  Cu1  1  0.75000000  0.28271200  0.33939700  1
  Cu  Cu2  1  0.75000000  0.21728800  0.83939700  1
  Cu  Cu3  1  0.25000000  0.78271200  0.16060300  1
  O  O0  1  0.99774300  0.15842100  0.43190000  1
  O  O1  1  0.49774300  0.84157900  0.56810000  1
  O  O2  1  0.00225700  0.65842100  0.06810000  1
  O  O3  1  0.50225700  0.34157900  0.93190000  1
  O  O4  1  0.00225700  0.84157900  0.56810000  1
  O  O5  1  0.50225700  0.15842100  0.43190000  1
  O  O6  1  0.99774300  0.34157900  0.93190000  1
  O  O7  1  0.49774300  0.65842100  0.06810000  1
  O  O8  1  0.50132300  0.36043500  0.22803300  1
  O  O9  1  0.00132300  0.63956500  0.77196700  1
  O  O10  1  0.49867700  0.86043500  0.27196700  1
  O  O11  1  0.99867700  0.13956500  0.72803300  1
  O  O12  1  0.49867700  0.63956500  0.77196700  1
  O  O13  1  0.99867700  0.36043500  0.22803300  1
  O  O14  1  0.50132300  0.13956500  0.72803300  1
  O  O15  1  0.00132300  0.86043500  0.27196700  1
  O  O16  1  0.25000000  0.09010500  0.10185300  1
  O  O17  1  0.75000000  0.90989500  0.89814700  1
  O  O18  1  0.75000000  0.59010500  0.39814700  1
  O  O19  1  0.25000000  0.40989500  0.60185300  1
loop_
_geom_bond_atom_site_label_1
_geom_bond_atom_site_label_2
_geom_bond_distance
_geom_bond_site_symmetry_2
Ba0 O16 2.647292 1_566
Ba0 O17 2.814280 1_455
Ba0 O17 2.814280 1_555
Ba0 O14 2.949831 1_565
Ba0 O11 2.949831 1_465
Ba0 O12 2.949853 1_555
Ba0 O9 2.949853 1_555
Ba0 O2 3.092454 1_556
Ba0 O7 3.092454 1_556
Ba0 O6 3.266941 1_465
Ba0 O3 3.266941 1_565
Ba1 O17 2.647292 1_544
Ba1 O16 2.814280 1_655
Ba1 O16 2.814280 1_555
Ba1 O15 2.949831 1_645
Ba1 O10 2.949831 1_545
Ba1 O8 2.949853 1_555
Ba1 O13 2.949853 1_555
Ba1 O6 3.092454 1_554
Ba1 O3 3.092454 1_554
Ba1 O2 3.266941 1_645
Ba1 O7 3.266941 1_545
Ba2 O18 2.647292 1_555
Ba2 O19 2.814280 1_655
Ba2 O19 2.814280 1_555
Ba2 O12 2.949831 1_555
Ba2 O9 2.949831 1_655
Ba2 O14 2.949853 1_555
Ba2 O11 2.949853 1_555
Ba2 O0 3.092454 1_555
Ba2 O5 3.092454 1_555
Ba2 O4 3.266941 1_655
Ba2 O1 3.266941 1_555
Ba3 O19 2.647292 1_555
Ba3 O18 2.814280 1_455
Ba3 O18 2.814280 1_555
Ba3 O8 2.949831 1_555
Ba3 O13 2.949831 1_455
Ba3 O10 2.949853 1_555
Ba3 O15 2.949853 1_555
Ba3 O4 3.092454 1_555
Ba3 O1 3.092454 1_555
Ba3 O5 3.266941 1_555
Ba3 O0 3.266941 1_455
Lu0 O16 2.237545 1_555
Lu0 O5 2.272193 1_555
Lu0 O0 2.272193 1_455
Lu0 O15 2.289876 1_545
Lu0 O10 2.289876 1_545
Lu0 O8 2.351872 1_555
Lu0 O13 2.351872 1_455
Lu1 O17 2.237545 1_555
Lu1 O1 2.272193 1_555
Lu1 O4 2.272193 1_655
Lu1 O14 2.289876 1_565
Lu1 O11 2.289876 1_565
Lu1 O12 2.351872 1_555
Lu1 O9 2.351872 1_655
Lu2 O18 2.237545 1_555
Lu2 O2 2.272193 1_655
Lu2 O7 2.272193 1_555
Lu2 O8 2.289876 1_555
Lu2 O13 2.289876 1_555
Lu2 O10 2.351872 1_555
Lu2 O15 2.351872 1_655
Lu3 O19 2.237545 1_555
Lu3 O3 2.272193 1_555
Lu3 O6 2.272193 1_455
Lu3 O12 2.289876 1_555
Lu3 O9 2.289876 1_555
Lu3 O11 2.351872 1_455
Lu3 O14 2.351872 1_555
Lu4 O16 2.210415 1_555
Lu4 O6 2.257997 1_454
Lu4 O3 2.257997 1_554
Lu4 O7 2.313805 1_555
Lu4 O2 2.313805 1_555
Lu4 O13 2.350097 1_455
Lu4 O8 2.350097 1_555
Lu5 O17 2.210415 1_555
Lu5 O7 2.257997 1_556
Lu5 O2 2.257997 1_656
Lu5 O3 2.313805 1_555
Lu5 O6 2.313805 1_555
Lu5 O9 2.350097 1_655
Lu5 O12 2.350097 1_555
Lu6 O18 2.210415 1_555
Lu6 O4 2.257997 1_655
Lu6 O1 2.257997 1_555
Lu6 O5 2.313805 1_565
Lu6 O0 2.313805 1_565
Lu6 O10 2.350097 1_555
Lu6 O15 2.350097 1_655
Lu7 O19 2.210415 1_555
Lu7 O5 2.257997 1_555
Lu7 O0 2.257997 1_455
Lu7 O4 2.313805 1_545
Lu7 O1 2.313805 1_545
Lu7 O11 2.350097 1_455
Lu7 O14 2.350097 1_555
Cu0 O1 1.989903 1_555
Cu0 O4 1.989903 1_555
Cu0 O12 2.014940 1_555
Cu0 O9 2.014940 1_555
Cu0 O19 2.292541 1_555
Cu1 O5 1.989903 1_555
Cu1 O0 1.989903 1_555
Cu1 O8 2.014940 1_555
Cu1 O13 2.014940 1_555
Cu1 O18 2.292541 1_555
Cu2 O6 1.989903 1_555
Cu2 O3 1.989903 1_555
Cu2 O11 2.014940 1_555
Cu2 O14 2.014940 1_555
Cu2 O17 2.292541 1_545
Cu3 O2 1.989903 1_555
Cu3 O7 1.989903 1_555
Cu3 O10 2.014940 1_555
Cu3 O15 2.014940 1_555
Cu3 O16 2.292541 1_565
