# generated using pymatgen
data_Ca(BH)2
_symmetry_space_group_name_H-M   'P 1'
_cell_length_a   3.23341200
_cell_length_b   5.32075900
_cell_length_c   11.11428800
_cell_angle_alpha   90.00000000
_cell_angle_beta   90.00000000
_cell_angle_gamma   90.00000000
_symmetry_Int_Tables_number   1
_chemical_formula_structural   Ca(BH)2
_chemical_formula_sum   'Ca4 B8 H8'
_cell_volume   191.21250029
_cell_formula_units_Z   4
loop_
 _symmetry_equiv_pos_site_id
 _symmetry_equiv_pos_as_xyz
  1  'x, y, z'
loop_
 _atom_site_type_symbol
 _atom_site_label
 _atom_site_symmetry_multiplicity
 _atom_site_fract_x
 _atom_site_fract_y
 _atom_site_fract_z
 _atom_site_occupancy
  Ca  Ca0  1  0.98116200  0.25000000  0.84921400  1
  Ca  Ca1  1  0.01883800  0.75000000  0.15078600  1
  Ca  Ca2  1  0.51883800  0.25000000  0.34921400  1
  Ca  Ca3  1  0.48116200  0.75000000  0.65078600  1
  B  B0  1  0.51680200  0.25000000  0.10731300  1
  B  B1  1  0.98319800  0.25000000  0.60731300  1
  B  B2  1  0.48382400  0.25000000  0.65626800  1
  B  B3  1  0.51617600  0.75000000  0.34373200  1
  B  B4  1  0.48319800  0.75000000  0.89268700  1
  B  B5  1  0.98382400  0.75000000  0.84373200  1
  B  B6  1  0.01617600  0.25000000  0.15626800  1
  B  B7  1  0.01680200  0.75000000  0.39268700  1
  H  H0  1  0.09975700  0.75000000  0.95131700  1
  H  H1  1  0.90024300  0.25000000  0.04868300  1
  H  H2  1  0.00000000  0.50000000  0.50000000  1
  H  H3  1  0.59975700  0.25000000  0.54868300  1
  H  H4  1  0.50000000  0.00000000  0.00000000  1
  H  H5  1  0.40024300  0.75000000  0.45131700  1
  H  H6  1  0.00000000  0.00000000  0.50000000  1
  H  H7  1  0.50000000  0.50000000  0.00000000  1
loop_
_geom_bond_atom_site_label_1
_geom_bond_atom_site_label_2
_geom_bond_distance
_geom_bond_site_symmetry_2
Ca0 H1 2.232342 1_556
Ca0 H7 2.645463 1_556
Ca0 H4 2.645463 1_556
Ca0 H7 2.718892 1_656
Ca0 H4 2.718892 1_656
Ca1 H0 2.232342 1_554
Ca1 H4 2.645463 1_565
Ca1 H7 2.645463 1_555
Ca1 H4 2.718892 1_465
Ca1 H7 2.718892 1_455
Ca2 H3 2.232342 1_555
Ca2 H2 2.645463 1_655
Ca2 H6 2.645463 1_655
Ca2 H2 2.718892 1_555
Ca2 H6 2.718892 1_555
Ca3 H5 2.232342 1_555
Ca3 H6 2.645463 1_565
Ca3 H2 2.645463 1_555
Ca3 H2 2.718892 1_655
Ca3 H6 2.718892 1_665
B0 H1 1.400637 1_555
B0 H7 1.787430 1_555
B0 H4 1.787430 1_555
B0 Ca2 2.688565 1_555
B1 H3 1.400637 1_555
B1 H6 1.787430 1_655
B1 H2 1.787430 1_655
B1 Ca0 2.688565 1_555
B2 H3 1.253113 1_555
B2 Ca3 2.661091 1_555
B2 Ca3 2.661091 1_545
B2 Ca0 2.680425 1_555
B2 Ca0 2.690788 1_455
B3 H5 1.253113 1_555
B3 Ca2 2.661091 1_565
B3 Ca2 2.661091 1_555
B3 Ca1 2.680425 1_555
B3 Ca1 2.690788 1_655
B4 H0 1.400637 1_555
B4 H4 1.787430 1_566
B4 H7 1.787430 1_556
B4 Ca3 2.688565 1_555
B5 H0 1.253113 1_655
B5 Ca0 2.661091 1_565
B5 Ca0 2.661091 1_555
B5 Ca3 2.680425 1_655
B5 Ca3 2.690788 1_555
B6 H1 1.253113 1_455
B6 Ca1 2.661091 1_545
B6 Ca1 2.661091 1_555
B6 Ca2 2.680425 1_455
B6 Ca2 2.690788 1_555
B7 H5 1.400637 1_555
B7 H6 1.787430 1_565
B7 H2 1.787430 1_555
B7 Ca1 2.688565 1_555
