# generated using pymatgen
data_ZnS
_symmetry_space_group_name_H-M   'P 1'
_cell_length_a   3.80699226
_cell_length_b   3.80699262
_cell_length_c   74.76293535
_cell_angle_alpha   90.00000000
_cell_angle_beta   90.00000000
_cell_angle_gamma   119.99999691
_symmetry_Int_Tables_number   1
_chemical_formula_structural   ZnS
_chemical_formula_sum   'Zn24 S24'
_cell_volume   938.38491544
_cell_formula_units_Z   24
loop_
 _symmetry_equiv_pos_site_id
 _symmetry_equiv_pos_as_xyz
  1  'x, y, z'
loop_
 _atom_site_type_symbol
 _atom_site_label
 _atom_site_symmetry_multiplicity
 _atom_site_fract_x
 _atom_site_fract_y
 _atom_site_fract_z
 _atom_site_occupancy
  Zn  Zn0  1  0.00000000  0.00000000  0.91666914  1
  Zn  Zn1  1  0.66666700  0.33333300  0.83337293  1
  Zn  Zn2  1  0.66666700  0.33333300  0.33335783  1
  Zn  Zn3  1  0.00000000  0.00000000  0.29169877  1
  Zn  Zn4  1  -0.00000000  -0.00000000  0.54168864  1
  Zn  Zn5  1  0.66666700  0.33333300  0.08334963  1
  Zn  Zn6  1  0.33333300  0.66666700  0.45837780  1
  Zn  Zn7  1  0.00000000  0.00000000  0.79168612  1
  Zn  Zn8  1  0.66666700  0.33333300  0.58337414  1
  Zn  Zn9  1  0.33333300  0.66666700  0.25005298  1
  Zn  Zn10  1  0.66666700  0.33333300  0.20835007  1
  Zn  Zn11  1  0.66666700  0.33333300  0.75000409  1
  Zn  Zn12  1  0.00000000  -0.00000000  0.66668753  1
  Zn  Zn13  1  0.33333300  0.66666700  0.04168739  1
  Zn  Zn14  1  -0.00000000  0.00000000  0.12501710  1
  Zn  Zn15  1  0.33333300  0.66666700  0.16667078  1
  Zn  Zn16  1  0.66666700  0.33333300  0.95834601  1
  Zn  Zn17  1  0.33333300  0.66666700  0.37501039  1
  Zn  Zn18  1  0.00000000  -0.00000000  0.41669337  1
  Zn  Zn19  1  0.33333300  0.66666700  0.62500656  1
  Zn  Zn20  1  0.33333300  0.66666700  0.70837288  1
  Zn  Zn21  1  -0.00000000  -0.00000000  0.00003866  1
  Zn  Zn22  1  0.66666700  0.33333300  0.50000860  1
  Zn  Zn23  1  0.33333300  0.66666700  0.87501764  1
  S  S0  1  0.33333300  0.66666700  0.65619495  1
  S  S1  1  0.33333300  0.66666700  0.19785551  1
  S  S2  1  0.66666700  0.33333300  0.53119522  1
  S  S3  1  0.66666700  0.33333300  0.78119410  1
  S  S4  1  0.33333300  0.66666700  0.90622303  1
  S  S5  1  0.33333300  0.66666700  0.40619835  1
  S  S6  1  0.00000000  0.00000000  0.69792661  1
  S  S7  1  0.66666700  0.33333300  0.86456243  1
  S  S8  1  0.66666700  0.33333300  0.23959020  1
  S  S9  1  0.33333300  0.66666700  0.73955904  1
  S  S10  1  0.66666700  0.33333300  0.11455825  1
  S  S11  1  0.33333300  0.66666700  0.28123800  1
  S  S12  1  0.66666700  0.33333300  0.61455996  1
  S  S13  1  0.66666700  0.33333300  0.98958928  1
  S  S14  1  0.66666700  0.33333300  0.36455669  1
  S  S15  1  0.00000000  0.00000000  0.32289797  1
  S  S16  1  0.33333300  0.66666700  0.07289602  1
  S  S17  1  0.33333300  0.66666700  0.48956147  1
  S  S18  1  0.00000000  -0.00000000  0.15622468  1
  S  S19  1  0.00000000  0.00000000  0.82292661  1
  S  S20  1  -0.00000000  0.00000000  0.57292693  1
  S  S21  1  0.00000000  0.00000000  0.44793094  1
  S  S22  1  0.00000000  -0.00000000  0.94785405  1
  S  S23  1  0.00000000  -0.00000000  0.03123664  1
loop_
_geom_bond_atom_site_label_1
_geom_bond_atom_site_label_2
_geom_bond_distance
_geom_bond_site_symmetry_2
S0 Zn19 2.331736 1_555
S0 Zn12 2.333758 1_565
S0 Zn12 2.333761 1_665
S0 Zn12 2.333761 1_555
S1 Zn15 2.331462 1_555
S1 Zn10 2.333808 1_455
S1 Zn10 2.333808 1_565
S1 Zn10 2.333814 1_555
S2 Zn22 2.331603 1_555
S2 Zn4 2.333779 1_655
S2 Zn4 2.333782 1_555
S2 Zn4 2.333782 1_665
S3 Zn11 2.331857 1_555
S3 Zn7 2.333744 1_655
S3 Zn7 2.333747 1_555
S3 Zn7 2.333747 1_665
S4 Zn0 2.332592 1_565
S4 Zn0 2.332595 1_665
S4 Zn0 2.332596 1_555
S4 Zn23 2.333007 1_555
S5 Zn17 2.331703 1_555
S5 Zn18 2.333819 1_565
S5 Zn18 2.333822 1_665
S5 Zn18 2.333822 1_555
S6 Zn20 2.332596 1_545
S6 Zn20 2.332599 1_445
S6 Zn20 2.332600 1_555
S6 Zn12 2.335525 1_555
S7 Zn1 2.331819 1_555
S7 Zn23 2.332820 1_655
S7 Zn23 2.332820 1_545
S7 Zn23 2.332826 1_555
S8 Zn9 2.333010 1_655
S8 Zn9 2.333010 1_545
S8 Zn9 2.333016 1_555
S8 Zn10 2.335604 1_555
S9 Zn20 2.331569 1_555
S9 Zn11 2.332566 1_455
S9 Zn11 2.332566 1_565
S9 Zn11 2.332572 1_555
S10 Zn14 2.332911 1_655
S10 Zn14 2.332914 1_555
S10 Zn14 2.332915 1_665
S10 Zn5 2.333248 1_555
S11 Zn9 2.331484 1_555
S11 Zn3 2.332959 1_565
S11 Zn3 2.332963 1_665
S11 Zn3 2.332963 1_555
S12 Zn8 2.331543 1_555
S12 Zn19 2.332605 1_655
S12 Zn19 2.332605 1_545
S12 Zn19 2.332611 1_555
S13 Zn21 2.332674 1_656
S13 Zn21 2.332677 1_556
S13 Zn21 2.332677 1_666
S13 Zn16 2.335839 1_555
S14 Zn2 2.332518 1_555
S14 Zn17 2.332782 1_655
S14 Zn17 2.332783 1_545
S14 Zn17 2.332789 1_555
S15 Zn3 2.332544 1_555
S15 Zn2 2.332937 1_455
S15 Zn2 2.332940 1_555
S15 Zn2 2.332940 1_445
S16 Zn5 2.332780 1_455
S16 Zn5 2.332780 1_565
S16 Zn5 2.332786 1_555
S16 Zn13 2.333249 1_555
S17 Zn6 2.331383 1_555
S17 Zn22 2.332618 1_455
S17 Zn22 2.332618 1_565
S17 Zn22 2.332624 1_555
S18 Zn15 2.332592 1_545
S18 Zn15 2.332595 1_445
S18 Zn15 2.332595 1_555
S18 Zn14 2.333170 1_555
S19 Zn1 2.332598 1_455
S19 Zn1 2.332601 1_555
S19 Zn1 2.332601 1_445
S19 Zn7 2.335631 1_555
S20 Zn8 2.332620 1_455
S20 Zn8 2.332623 1_555
S20 Zn8 2.332623 1_445
S20 Zn4 2.335466 1_555
S21 Zn6 2.332611 1_545
S21 Zn6 2.332614 1_445
S21 Zn6 2.332614 1_555
S21 Zn18 2.335412 1_555
S22 Zn0 2.331475 1_555
S22 Zn16 2.333742 1_455
S22 Zn16 2.333745 1_555
S22 Zn16 2.333745 1_445
S23 Zn21 2.332453 1_555
S23 Zn13 2.332708 1_545
S23 Zn13 2.332712 1_445
S23 Zn13 2.332712 1_555
