# generated using pymatgen
data_Sm3RuO7
_symmetry_space_group_name_H-M   'P 1'
_cell_length_a   7.41577532
_cell_length_b   10.76047965
_cell_length_c   14.75933934
_cell_angle_alpha   90.00000000
_cell_angle_beta   90.00000000
_cell_angle_gamma   90.00000000
_symmetry_Int_Tables_number   1
_chemical_formula_structural   Sm3RuO7
_chemical_formula_sum   'Sm24 Ru8 O56'
_cell_volume   1177.75542055
_cell_formula_units_Z   8
loop_
 _symmetry_equiv_pos_site_id
 _symmetry_equiv_pos_as_xyz
  1  'x, y, z'
loop_
 _atom_site_type_symbol
 _atom_site_label
 _atom_site_symmetry_multiplicity
 _atom_site_fract_x
 _atom_site_fract_y
 _atom_site_fract_z
 _atom_site_occupancy
  Sm  Sm0  1  0.74746307  0.95195173  0.46903359  1
  Sm  Sm1  1  0.75560668  0.90893069  0.71943964  1
  Sm  Sm2  1  0.50370437  0.67240646  0.38995674  1
  Sm  Sm3  1  0.25253693  0.45195173  0.53096641  1
  Sm  Sm4  1  0.73186583  0.39700248  0.97421661  1
  Sm  Sm5  1  0.49647662  0.68888750  0.86045839  1
  Sm  Sm6  1  0.74207486  0.46377251  0.22401649  1
  Sm  Sm7  1  0.24439332  0.40893069  0.28056036  1
  Sm  Sm8  1  0.49629563  0.17240646  0.61004326  1
  Sm  Sm9  1  0.26813417  0.89700248  0.02578339  1
  Sm  Sm10  1  0.24207486  0.96377251  0.27598351  1
  Sm  Sm11  1  0.25792514  0.96377251  0.77598351  1
  Sm  Sm12  1  0.75792514  0.46377251  0.72401649  1
  Sm  Sm13  1  0.23186583  0.89700248  0.52578339  1
  Sm  Sm14  1  0.99629563  0.67240646  0.88995674  1
  Sm  Sm15  1  0.00370437  0.17240646  0.11004326  1
  Sm  Sm16  1  0.74439332  0.90893069  0.21943964  1
  Sm  Sm17  1  0.75253693  0.95195173  0.96903359  1
  Sm  Sm18  1  0.50352338  0.18888750  0.13954161  1
  Sm  Sm19  1  0.25560668  0.40893069  0.78056036  1
  Sm  Sm20  1  0.00352338  0.68888750  0.36045839  1
  Sm  Sm21  1  0.99647662  0.18888750  0.63954161  1
  Sm  Sm22  1  0.24746307  0.45195173  0.03096641  1
  Sm  Sm23  1  0.76813417  0.39700248  0.47421661  1
  Ru  Ru0  1  0.49808733  0.67904373  0.12633297  1
  Ru  Ru1  1  0.00191267  0.67904373  0.62633297  1
  Ru  Ru2  1  0.99859222  0.68159012  0.12487710  1
  Ru  Ru3  1  0.50140778  0.68159012  0.62487710  1
  Ru  Ru4  1  0.49859222  0.18159012  0.37512290  1
  Ru  Ru5  1  0.99808733  0.17904373  0.37366703  1
  Ru  Ru6  1  0.00140778  0.18159012  0.87512290  1
  Ru  Ru7  1  0.50191267  0.17904373  0.87366703  1
  O  O0  1  0.53436681  0.80868778  0.53305293  1
  O  O1  1  0.53683350  0.05702221  0.28142912  1
  O  O2  1  0.74913680  0.68807665  0.16832629  1
  O  O3  1  0.44910479  0.83172113  0.18803066  1
  O  O4  1  0.73453239  0.31118617  0.61796312  1
  O  O5  1  0.04387235  0.02205006  0.43534437  1
  O  O6  1  0.54425654  0.55488386  0.53337399  1
  O  O7  1  0.54387235  0.52205006  0.06465563  1
  O  O8  1  0.76546761  0.31118617  0.11796312  1
  O  O9  1  0.55089521  0.33172113  0.81196934  1
  O  O10  1  0.94910479  0.33172113  0.31196934  1
  O  O11  1  0.96219572  0.31046126  0.78152489  1
  O  O12  1  0.74864566  0.17213930  0.41769631  1
  O  O13  1  0.26522966  0.31299564  0.64498815  1
  O  O14  1  0.24079382  0.04991461  0.63191131  1
  O  O15  1  0.96316650  0.05702221  0.78142912  1
  O  O16  1  0.45574346  0.05488386  0.46662601  1
  O  O17  1  0.03780428  0.81046126  0.21847511  1
  O  O18  1  0.95612765  0.52205006  0.56465563  1
  O  O19  1  0.04345620  0.27908149  0.48439016  1
  O  O20  1  0.25920618  0.04991461  0.13191131  1
  O  O21  1  0.23240659  0.54699980  0.39577344  1
  O  O22  1  0.54345620  0.77908149  0.01560984  1
  O  O23  1  0.74079382  0.54991461  0.86808869  1
  O  O24  1  0.75920618  0.54991461  0.36808869  1
  O  O25  1  0.24864566  0.67213930  0.08230369  1
  O  O26  1  0.54224687  0.07737883  0.76381668  1
  O  O27  1  0.25086320  0.18807665  0.83167371  1
  O  O28  1  0.76759341  0.04699980  0.60422656  1
  O  O29  1  0.24913680  0.18807665  0.33167371  1
  O  O30  1  0.04224687  0.57737883  0.73618332  1
  O  O31  1  0.26546761  0.81118617  0.38203688  1
  O  O32  1  0.53780428  0.31046126  0.28152489  1
  O  O33  1  0.25135434  0.67213930  0.58230369  1
  O  O34  1  0.76522966  0.81299564  0.85501185  1
  O  O35  1  0.04425654  0.05488386  0.96662601  1
  O  O36  1  0.46563319  0.30868778  0.46694707  1
  O  O37  1  0.96563319  0.80868778  0.03305293  1
  O  O38  1  0.75086320  0.68807665  0.66832629  1
  O  O39  1  0.46219572  0.81046126  0.71847511  1
  O  O40  1  0.03683350  0.55702221  0.21857088  1
  O  O41  1  0.45654380  0.27908149  0.98439016  1
  O  O42  1  0.45612765  0.02205006  0.93534437  1
  O  O43  1  0.75135434  0.17213930  0.91769631  1
  O  O44  1  0.73240659  0.04699980  0.10422656  1
  O  O45  1  0.23477034  0.31299564  0.14498815  1
  O  O46  1  0.45775313  0.57737883  0.23618332  1
  O  O47  1  0.95654380  0.77908149  0.51560984  1
  O  O48  1  0.26759341  0.54699980  0.89577344  1
  O  O49  1  0.46316650  0.55702221  0.71857088  1
  O  O50  1  0.03436681  0.30868778  0.96694707  1
  O  O51  1  0.95574346  0.55488386  0.03337399  1
  O  O52  1  0.95775313  0.07737883  0.26381668  1
  O  O53  1  0.23453239  0.81118617  0.88203688  1
  O  O54  1  0.05089521  0.83172113  0.68803066  1
  O  O55  1  0.73477034  0.81299564  0.35501185  1
loop_
_geom_bond_atom_site_label_1
_geom_bond_atom_site_label_2
_geom_bond_distance
_geom_bond_site_symmetry_2
O0 Ru3 1.940850 1_555
O0 Sm0 2.401368 1_555
O0 Sm13 2.438627 1_555
O0 Sm2 2.581231 1_555
O1 Ru4 1.946643 1_555
O1 Sm16 2.397005 1_545
O1 Sm10 2.406511 1_545
O1 Sm18 2.541638 1_555
O2 Ru2 1.959149 1_555
O2 Ru0 1.964591 1_555
O2 Sm16 2.493609 1_555
O2 Sm6 2.550276 1_555
O3 Ru0 1.913173 1_555
O3 Sm16 2.387540 1_555
O3 Sm10 2.461970 1_555
O3 Sm9 2.833535 1_555
O4 Sm12 2.275089 1_555
O4 Sm8 2.316243 1_555
O4 Sm23 2.327232 1_555
O4 Sm21 2.367837 1_555
O5 Ru5 1.948791 1_455
O5 Sm13 2.352843 1_545
O5 Sm0 2.376522 1_445
O5 Sm10 2.843558 1_545
O6 Ru3 1.945200 1_555
O6 Sm3 2.430642 1_555
O6 Sm2 2.483999 1_555
O6 Sm23 2.530788 1_555
O7 Ru0 1.948791 1_555
O7 Sm4 2.352843 1_554
O7 Sm22 2.376522 1_555
O7 Sm6 2.843558 1_555
O8 Sm6 2.275089 1_555
O8 Sm15 2.316243 1_655
O8 Sm4 2.327232 1_554
O8 Sm18 2.367837 1_555
O9 Ru7 1.913173 1_555
O9 Sm19 2.387540 1_555
O9 Sm12 2.461970 1_555
O9 Sm4 2.833535 1_555
O10 Ru5 1.913173 1_555
O10 Sm7 2.387540 1_655
O10 Sm6 2.461970 1_555
O10 Sm23 2.833535 1_555
O11 Ru6 1.978870 1_655
O11 Sm12 2.395131 1_555
O11 Sm19 2.420190 1_655
O11 Sm21 2.483434 1_555
O12 Ru4 1.960548 1_555
O12 Ru5 1.962037 1_555
O12 Sm0 2.487547 1_545
O12 Sm23 2.563478 1_555
O13 Sm19 2.252682 1_555
O13 Sm3 2.253151 1_555
O13 Sm8 2.343244 1_555
O13 Sm21 2.400421 1_455
O14 Sm13 2.272728 1_545
O14 Sm11 2.323136 1_545
O14 Sm8 2.330566 1_555
O14 Sm21 2.351930 1_455
O15 Ru6 1.946643 1_655
O15 Sm1 2.397005 1_545
O15 Sm11 2.406511 1_645
O15 Sm21 2.541638 1_555
O16 Ru4 1.945200 1_555
O16 Sm0 2.430642 1_545
O16 Sm8 2.483999 1_555
O16 Sm13 2.530788 1_545
O17 Ru2 1.978870 1_455
O17 Sm10 2.395131 1_555
O17 Sm16 2.420190 1_455
O17 Sm20 2.483434 1_555
O18 Ru1 1.948791 1_655
O18 Sm23 2.352843 1_555
O18 Sm3 2.376522 1_655
O18 Sm12 2.843558 1_555
O19 Ru5 1.985588 1_455
O19 Sm23 2.408582 1_455
O19 Sm21 2.511394 1_455
O19 Sm3 2.517305 1_555
O20 Sm9 2.272728 1_545
O20 Sm10 2.323136 1_545
O20 Sm15 2.330566 1_555
O20 Sm18 2.351930 1_555
O21 Sm3 2.247173 1_555
O21 Sm7 2.259816 1_555
O21 Sm20 2.341734 1_555
O21 Sm2 2.424051 1_555
O22 Ru0 1.985588 1_555
O22 Sm9 2.408582 1_555
O22 Sm5 2.511394 1_554
O22 Sm17 2.517305 1_554
O23 Sm4 2.272728 1_555
O23 Sm12 2.323136 1_555
O23 Sm14 2.330566 1_555
O23 Sm5 2.351930 1_555
O24 Sm23 2.272728 1_555
O24 Sm6 2.323136 1_555
O24 Sm2 2.330566 1_555
O24 Sm20 2.351930 1_655
O25 Ru2 1.960548 1_455
O25 Ru0 1.962037 1_555
O25 Sm22 2.487547 1_555
O25 Sm9 2.563478 1_555
O26 Ru7 1.978610 1_555
O26 Sm11 2.443825 1_545
O26 Sm1 2.493571 1_545
O26 Sm8 2.512523 1_555
O27 Ru6 1.959149 1_555
O27 Ru7 1.964591 1_555
O27 Sm19 2.493609 1_555
O27 Sm11 2.550276 1_545
O28 Sm0 2.247173 1_545
O28 Sm1 2.259816 1_545
O28 Sm21 2.341734 1_555
O28 Sm8 2.424051 1_555
O29 Ru4 1.959149 1_555
O29 Ru5 1.964591 1_455
O29 Sm7 2.493609 1_555
O29 Sm10 2.550276 1_545
O30 Ru1 1.978610 1_555
O30 Sm12 2.443825 1_455
O30 Sm19 2.493571 1_555
O30 Sm14 2.512523 1_455
O31 Sm10 2.275089 1_555
O31 Sm2 2.316243 1_555
O31 Sm13 2.327232 1_555
O31 Sm20 2.367837 1_555
O32 Ru4 1.978870 1_555
O32 Sm6 2.395131 1_555
O32 Sm7 2.420190 1_555
O32 Sm18 2.483434 1_555
O33 Ru3 1.960548 1_555
O33 Ru1 1.962037 1_555
O33 Sm3 2.487547 1_555
O33 Sm13 2.563478 1_555
O34 Sm1 2.252682 1_555
O34 Sm17 2.253151 1_555
O34 Sm14 2.343244 1_555
O34 Sm5 2.400421 1_555
O35 Ru6 1.945200 1_555
O35 Sm17 2.430642 1_445
O35 Sm15 2.483999 1_556
O35 Sm9 2.530788 1_546
O36 Ru4 1.940850 1_555
O36 Sm3 2.401368 1_555
O36 Sm23 2.438627 1_555
O36 Sm8 2.581231 1_555
O37 Ru2 1.940850 1_555
O37 Sm17 2.401368 1_554
O37 Sm9 2.438627 1_655
O37 Sm14 2.581231 1_554
O38 Ru3 1.959149 1_555
O38 Ru1 1.964591 1_655
O38 Sm1 2.493609 1_555
O38 Sm12 2.550276 1_555
O39 Ru3 1.978870 1_555
O39 Sm11 2.395131 1_555
O39 Sm1 2.420190 1_555
O39 Sm5 2.483434 1_555
O40 Ru2 1.946643 1_455
O40 Sm7 2.397005 1_555
O40 Sm6 2.406511 1_455
O40 Sm20 2.541638 1_555
O41 Ru7 1.985588 1_555
O41 Sm4 2.408582 1_555
O41 Sm18 2.511394 1_556
O41 Sm22 2.517305 1_556
O42 Ru7 1.948791 1_555
O42 Sm9 2.352843 1_546
O42 Sm17 2.376522 1_545
O42 Sm11 2.843558 1_545
O43 Ru6 1.960548 1_655
O43 Ru7 1.962037 1_555
O43 Sm17 2.487547 1_545
O43 Sm4 2.563478 1_555
O44 Sm17 2.247173 1_544
O44 Sm16 2.259816 1_545
O44 Sm18 2.341734 1_555
O44 Sm15 2.424051 1_655
O45 Sm7 2.252682 1_555
O45 Sm22 2.253151 1_555
O45 Sm15 2.343244 1_555
O45 Sm18 2.400421 1_555
O46 Ru0 1.978610 1_555
O46 Sm6 2.443825 1_555
O46 Sm7 2.493571 1_555
O46 Sm2 2.512523 1_555
O47 Ru1 1.985588 1_655
O47 Sm13 2.408582 1_655
O47 Sm20 2.511394 1_655
O47 Sm0 2.517305 1_555
O48 Sm22 2.247173 1_556
O48 Sm19 2.259816 1_555
O48 Sm5 2.341734 1_555
O48 Sm14 2.424051 1_455
O49 Ru3 1.946643 1_555
O49 Sm19 2.397005 1_555
O49 Sm12 2.406511 1_555
O49 Sm5 2.541638 1_555
O50 Ru6 1.940850 1_555
O50 Sm22 2.401368 1_556
O50 Sm4 2.438627 1_455
O50 Sm15 2.581231 1_556
O51 Ru2 1.945200 1_555
O51 Sm22 2.430642 1_655
O51 Sm14 2.483999 1_554
O51 Sm4 2.530788 1_554
O52 Ru5 1.978610 1_555
O52 Sm10 2.443825 1_645
O52 Sm16 2.493571 1_545
O52 Sm15 2.512523 1_655
O53 Sm11 2.275089 1_555
O53 Sm14 2.316243 1_455
O53 Sm9 2.327232 1_556
O53 Sm5 2.367837 1_555
O54 Ru1 1.913173 1_555
O54 Sm1 2.387540 1_455
O54 Sm11 2.461970 1_555
O54 Sm13 2.833535 1_555
O55 Sm16 2.252682 1_555
O55 Sm0 2.253151 1_555
O55 Sm2 2.343244 1_555
O55 Sm20 2.400421 1_655
