# generated using pymatgen
data_Cr2(Co7B2)3
_symmetry_space_group_name_H-M   'P 1'
_cell_length_a   7.34566990
_cell_length_b   7.34566990
_cell_length_c   7.34566990
_cell_angle_alpha   60.00000000
_cell_angle_beta   60.00000000
_cell_angle_gamma   60.00000000
_symmetry_Int_Tables_number   1
_chemical_formula_structural   Cr2(Co7B2)3
_chemical_formula_sum   'Cr2 Co21 B6'
_cell_volume   280.27168649
_cell_formula_units_Z   1
loop_
 _symmetry_equiv_pos_site_id
 _symmetry_equiv_pos_as_xyz
  1  'x, y, z'
loop_
 _atom_site_type_symbol
 _atom_site_label
 _atom_site_symmetry_multiplicity
 _atom_site_fract_x
 _atom_site_fract_y
 _atom_site_fract_z
 _atom_site_occupancy
  Cr  Cr0  1  0.75000000  0.75000000  0.75000000  1
  Cr  Cr1  1  0.25000000  0.25000000  0.25000000  1
  Co  Co0  1  0.00000000  0.00000000  0.00000000  1
  Co  Co1  1  0.62050700  0.62050700  0.13848000  1
  Co  Co2  1  0.62050700  0.13848000  0.62050700  1
  Co  Co3  1  0.13848000  0.62050700  0.62050700  1
  Co  Co4  1  0.62050700  0.62050700  0.62050700  1
  Co  Co5  1  0.37949300  0.37949300  0.86152000  1
  Co  Co6  1  0.37949300  0.86152000  0.37949300  1
  Co  Co7  1  0.86152000  0.37949300  0.37949300  1
  Co  Co8  1  0.37949300  0.37949300  0.37949300  1
  Co  Co9  1  0.00000000  0.00000000  0.33874200  1
  Co  Co10  1  0.66125800  0.00000000  0.33874200  1
  Co  Co11  1  0.00000000  0.66125800  0.33874200  1
  Co  Co12  1  0.66125800  0.33874200  0.00000000  1
  Co  Co13  1  0.00000000  0.33874200  0.00000000  1
  Co  Co14  1  0.00000000  0.33874200  0.66125800  1
  Co  Co15  1  0.33874200  0.66125800  0.00000000  1
  Co  Co16  1  0.33874200  0.00000000  0.66125800  1
  Co  Co17  1  0.33874200  0.00000000  0.00000000  1
  Co  Co18  1  0.00000000  0.00000000  0.66125800  1
  Co  Co19  1  0.00000000  0.66125800  0.00000000  1
  Co  Co20  1  0.66125800  0.00000000  0.00000000  1
  B  B0  1  0.72476800  0.72476800  0.27523200  1
  B  B1  1  0.27523200  0.72476800  0.27523200  1
  B  B2  1  0.72476800  0.27523200  0.27523200  1
  B  B3  1  0.27523200  0.27523200  0.72476800  1
  B  B4  1  0.72476800  0.27523200  0.72476800  1
  B  B5  1  0.27523200  0.72476800  0.72476800  1
loop_
_geom_bond_atom_site_label_1
_geom_bond_atom_site_label_2
_geom_bond_distance
_geom_bond_site_symmetry_2
Co0 Co11 2.488287 1_545
Co0 Co19 2.488287 1_545
Co0 Co10 2.488287 1_455
Co0 Co14 2.488287 1_554
Co0 Co13 2.488287 1_555
Co0 Co20 2.488287 1_455
Co0 Co17 2.488287 1_555
Co0 Co18 2.488287 1_554
Co0 Co12 2.488287 1_455
Co0 Co16 2.488287 1_554
Co0 Co9 2.488287 1_555
Co0 Co15 2.488287 1_545
Co1 Cr0 2.329992 1_554
Co2 Cr0 2.329992 1_545
Co3 Cr0 2.329992 1_455
Co4 Cr0 2.329986 1_555
Co5 Cr1 2.329992 1_556
Co6 Cr1 2.329992 1_565
Co7 Cr1 2.329992 1_655
Co8 Cr1 2.329986 1_555
B0 Co19 2.074891 1_655
B0 Co20 2.074891 1_565
B0 Co11 2.074891 1_655
B0 Co10 2.074891 1_565
B0 Co1 2.075434 1_555
B0 Co6 2.075440 1_555
B0 Co7 2.075440 1_555
B0 Co4 2.075440 1_555
B1 Co11 2.074891 1_555
B1 Co15 2.074891 1_555
B1 Co9 2.074891 1_565
B1 Co17 2.074891 1_565
B1 Co6 2.075434 1_555
B1 Co1 2.075440 1_555
B1 Co3 2.075440 1_555
B1 Co8 2.075440 1_555
B2 Co10 2.074891 1_555
B2 Co12 2.074891 1_555
B2 Co13 2.074891 1_655
B2 Co9 2.074891 1_655
B2 Co7 2.075434 1_555
B2 Co2 2.075440 1_555
B2 Co1 2.075440 1_555
B2 Co8 2.075440 1_555
B3 Co14 2.074891 1_555
B3 Co16 2.074891 1_555
B3 Co17 2.074891 1_556
B3 Co13 2.074891 1_556
B3 Co5 2.075434 1_555
B3 Co2 2.075440 1_555
B3 Co3 2.075440 1_555
B3 Co8 2.075440 1_555
B4 Co18 2.074891 1_655
B4 Co20 2.074891 1_556
B4 Co12 2.074891 1_556
B4 Co14 2.074891 1_655
B4 Co2 2.075434 1_555
B4 Co5 2.075440 1_555
B4 Co7 2.075440 1_555
B4 Co4 2.075440 1_555
B5 Co18 2.074891 1_565
B5 Co19 2.074891 1_556
B5 Co16 2.074891 1_565
B5 Co15 2.074891 1_556
B5 Co3 2.075434 1_555
B5 Co5 2.075440 1_555
B5 Co6 2.075440 1_555
B5 Co4 2.075440 1_555
