# generated using pymatgen
data_Lu4B3C4
_symmetry_space_group_name_H-M   'P 1'
_cell_length_a   3.39687297
_cell_length_b   3.48160548
_cell_length_c   11.76537604
_cell_angle_alpha   87.50173323
_cell_angle_beta   83.62813961
_cell_angle_gamma   90.09454005
_symmetry_Int_Tables_number   1
_chemical_formula_structural   Lu4B3C4
_chemical_formula_sum   'Lu4 B3 C4'
_cell_volume   138.15012220
_cell_formula_units_Z   1
loop_
 _symmetry_equiv_pos_site_id
 _symmetry_equiv_pos_as_xyz
  1  'x, y, z'
loop_
 _atom_site_type_symbol
 _atom_site_label
 _atom_site_symmetry_multiplicity
 _atom_site_fract_x
 _atom_site_fract_y
 _atom_site_fract_z
 _atom_site_occupancy
  Lu  Lu0  1  0.19163925  0.97791861  0.65049262  1
  Lu  Lu1  1  0.60776139  0.45081630  0.85805151  1
  Lu  Lu2  1  0.39223861  0.54918370  0.14194849  1
  Lu  Lu3  1  0.80836075  0.02208139  0.34950738  1
  B  B0  1  0.73398070  0.49391452  0.54091843  1
  B  B1  1  0.26601930  0.50608548  0.45908157  1
  B  B2  1  0.00000000  0.00000000  -0.00000000  1
  C  C0  1  0.10520259  0.94178113  0.87841509  1
  C  C1  1  0.31533618  0.52486348  0.33096103  1
  C  C2  1  0.68466382  0.47513652  0.66903897  1
  C  C3  1  0.89479741  0.05821887  0.12158491  1
loop_
_geom_bond_atom_site_label_1
_geom_bond_atom_site_label_2
_geom_bond_distance
_geom_bond_site_symmetry_2
B0 C2 1.496621 1_555
B1 C1 1.496621 1_555
B2 C0 1.458475 1_544
B2 C3 1.458475 1_455
C0 Lu1 2.418285 1_555
C0 Lu1 2.439371 1_455
C0 Lu1 2.444342 1_565
C0 Lu1 2.473109 1_465
C0 Lu0 2.662459 1_555
C1 Lu2 2.208004 1_555
C1 Lu3 2.439448 1_455
C1 Lu3 2.440003 1_565
C1 Lu3 2.443251 1_465
C1 Lu3 2.444192 1_555
C2 Lu1 2.208004 1_555
C2 Lu0 2.439448 1_655
C2 Lu0 2.440003 1_545
C2 Lu0 2.443251 1_645
C2 Lu0 2.444192 1_555
C3 Lu2 2.418285 1_555
C3 Lu2 2.439371 1_655
C3 Lu2 2.444342 1_545
C3 Lu2 2.473109 1_645
C3 Lu3 2.662459 1_555
