# generated using pymatgen
data_Sr5As3ClO12
_symmetry_space_group_name_H-M   'P 1'
_cell_length_a   10.45512178
_cell_length_b   10.45512178
_cell_length_c   7.30065500
_cell_angle_alpha   90.00000000
_cell_angle_beta   90.00000000
_cell_angle_gamma   119.99999862
_symmetry_Int_Tables_number   1
_chemical_formula_structural   Sr5As3ClO12
_chemical_formula_sum   'Sr10 As6 Cl2 O24'
_cell_volume   691.11553526
_cell_formula_units_Z   2
loop_
 _symmetry_equiv_pos_site_id
 _symmetry_equiv_pos_as_xyz
  1  'x, y, z'
loop_
 _atom_site_type_symbol
 _atom_site_label
 _atom_site_symmetry_multiplicity
 _atom_site_fract_x
 _atom_site_fract_y
 _atom_site_fract_z
 _atom_site_occupancy
  Sr  Sr0  1  0.33333300  0.66666700  0.00241600  1
  Sr  Sr1  1  0.24690800  0.25657700  0.75000000  1
  Sr  Sr2  1  0.33333300  0.66666700  0.49758400  1
  Sr  Sr3  1  0.74342300  0.99033000  0.75000000  1
  Sr  Sr4  1  0.00967000  0.75309200  0.75000000  1
  Sr  Sr5  1  0.66666700  0.33333300  0.99758400  1
  Sr  Sr6  1  0.66666700  0.33333300  0.50241600  1
  Sr  Sr7  1  0.99033000  0.24690800  0.25000000  1
  Sr  Sr8  1  0.75309200  0.74342300  0.25000000  1
  Sr  Sr9  1  0.25657700  0.00967000  0.25000000  1
  As  As0  1  0.03089000  0.40801600  0.75000000  1
  As  As1  1  0.96911000  0.59198400  0.25000000  1
  As  As2  1  0.59198400  0.62287300  0.75000000  1
  As  As3  1  0.62287300  0.03089000  0.25000000  1
  As  As4  1  0.40801600  0.37712700  0.25000000  1
  As  As5  1  0.37712700  0.96911000  0.75000000  1
  Cl  Cl0  1  0.00000000  0.00000000  0.00000000  1
  Cl  Cl1  1  0.00000000  0.00000000  0.50000000  1
  O  O0  1  0.15642100  0.66122600  0.25000000  1
  O  O1  1  0.47000000  0.87054900  0.75000000  1
  O  O2  1  0.09132400  0.35330800  0.93786800  1
  O  O3  1  0.59945100  0.47000000  0.25000000  1
  O  O4  1  0.50480500  0.84357900  0.25000000  1
  O  O5  1  0.73801600  0.09132400  0.06213200  1
  O  O6  1  0.12945100  0.59945100  0.75000000  1
  O  O7  1  0.35330800  0.26198400  0.06213200  1
  O  O8  1  0.84357900  0.33877400  0.75000000  1
  O  O9  1  0.40054900  0.53000000  0.75000000  1
  O  O10  1  0.26198400  0.90867600  0.93786800  1
  O  O11  1  0.73801600  0.09132400  0.43786800  1
  O  O12  1  0.90867600  0.64669200  0.43786800  1
  O  O13  1  0.26198400  0.90867600  0.56213200  1
  O  O14  1  0.35330800  0.26198400  0.43786800  1
  O  O15  1  0.53000000  0.12945100  0.25000000  1
  O  O16  1  0.64669200  0.73801600  0.56213200  1
  O  O17  1  0.33877400  0.49519500  0.25000000  1
  O  O18  1  0.64669200  0.73801600  0.93786800  1
  O  O19  1  0.49519500  0.15642100  0.75000000  1
  O  O20  1  0.09132400  0.35330800  0.56213200  1
  O  O21  1  0.66122600  0.50480500  0.75000000  1
  O  O22  1  0.90867600  0.64669200  0.06213200  1
  O  O23  1  0.87054900  0.40054900  0.25000000  1
loop_
_geom_bond_atom_site_label_1
_geom_bond_atom_site_label_2
_geom_bond_distance
_geom_bond_site_symmetry_2
As0 O8 1.715089 1_455
As0 O20 1.723068 1_555
As0 O2 1.723068 1_555
As0 O6 1.733584 1_555
As1 O0 1.715089 1_655
As1 O12 1.723068 1_555
As1 O22 1.723068 1_555
As1 O23 1.733584 1_555
As2 O21 1.715079 1_555
As2 O16 1.723074 1_555
As2 O18 1.723074 1_555
As2 O9 1.733584 1_555
As3 O4 1.715087 1_545
As3 O11 1.723074 1_555
As3 O5 1.723074 1_555
As3 O15 1.733575 1_555
As4 O17 1.715079 1_555
As4 O14 1.723074 1_555
As4 O7 1.723074 1_555
As4 O3 1.733584 1_555
As5 O19 1.715087 1_565
As5 O13 1.723074 1_555
As5 O10 1.723074 1_555
As5 O1 1.733575 1_555
Cl0 Sr9 3.204103 1_555
Cl0 Sr3 3.204103 1_444
Cl0 Sr8 3.204107 1_445
Cl0 Sr1 3.204107 1_554
Cl0 Sr7 3.204112 1_455
Cl0 Sr4 3.204112 1_544
Cl1 Sr9 3.204103 1_555
Cl1 Sr3 3.204103 1_445
Cl1 Sr8 3.204107 1_445
Cl1 Sr1 3.204107 1_555
Cl1 Sr7 3.204112 1_455
Cl1 Sr4 3.204112 1_545
O0 Sr0 2.566383 1_555
O0 Sr2 2.566383 1_555
O0 Sr9 3.248595 1_565
O1 Sr3 2.482002 1_555
O1 Sr0 2.633545 1_556
O1 Sr2 2.633545 1_555
O2 Sr7 2.524003 1_456
O2 Sr1 2.682359 1_555
O2 Sr0 3.011331 1_556
O3 Sr8 2.482001 1_555
O3 Sr6 2.633551 1_555
O3 Sr5 2.633551 1_554
O4 Sr0 2.566386 1_555
O4 Sr2 2.566386 1_555
O4 Sr8 3.248585 1_555
O5 Sr3 2.524006 1_544
O5 Sr7 2.682352 1_555
O5 Sr5 3.011324 1_554
O6 Sr4 2.481992 1_555
O6 Sr0 2.633544 1_556
O6 Sr2 2.633544 1_555
O7 Sr1 2.524001 1_554
O7 Sr9 2.682350 1_555
O7 Sr5 3.011334 1_554
O8 Sr5 2.566383 1_555
O8 Sr6 2.566383 1_555
O8 Sr3 3.248595 1_545
O9 Sr1 2.482001 1_555
O9 Sr2 2.633551 1_555
O9 Sr0 2.633551 1_556
O10 Sr9 2.524006 1_566
O10 Sr4 2.682352 1_555
O10 Sr0 3.011324 1_556
O11 Sr3 2.524006 1_545
O11 Sr7 2.682352 1_555
O11 Sr6 3.011324 1_555
O12 Sr4 2.524003 1_655
O12 Sr8 2.682359 1_555
O12 Sr6 3.011331 1_555
O13 Sr9 2.524006 1_565
O13 Sr4 2.682352 1_555
O13 Sr2 3.011324 1_555
O14 Sr1 2.524001 1_555
O14 Sr9 2.682350 1_555
O14 Sr6 3.011334 1_555
O15 Sr9 2.482002 1_555
O15 Sr5 2.633545 1_554
O15 Sr6 2.633545 1_555
O16 Sr8 2.524001 1_555
O16 Sr3 2.682350 1_555
O16 Sr2 3.011334 1_555
O17 Sr0 2.566390 1_555
O17 Sr2 2.566390 1_555
O17 Sr7 3.248592 1_455
O18 Sr8 2.524001 1_556
O18 Sr3 2.682350 1_555
O18 Sr0 3.011334 1_556
O19 Sr5 2.566386 1_555
O19 Sr6 2.566386 1_555
O19 Sr1 3.248585 1_555
O20 Sr7 2.524003 1_455
O20 Sr1 2.682359 1_555
O20 Sr2 3.011331 1_555
O21 Sr6 2.566390 1_555
O21 Sr5 2.566390 1_555
O21 Sr4 3.248592 1_655
O22 Sr4 2.524003 1_654
O22 Sr8 2.682359 1_555
O22 Sr5 3.011331 1_554
O23 Sr7 2.481992 1_555
O23 Sr5 2.633544 1_554
O23 Sr6 2.633544 1_555
