# generated using pymatgen
data_CsSO3
_symmetry_space_group_name_H-M   'P 1'
_cell_length_a   6.33106207
_cell_length_b   6.33106359
_cell_length_c   11.60598051
_cell_angle_alpha   90.00000000
_cell_angle_beta   90.00000000
_cell_angle_gamma   120.00000256
_symmetry_Int_Tables_number   1
_chemical_formula_structural   CsSO3
_chemical_formula_sum   'Cs4 S4 O12'
_cell_volume   402.87071972
_cell_formula_units_Z   4
loop_
 _symmetry_equiv_pos_site_id
 _symmetry_equiv_pos_as_xyz
  1  'x, y, z'
loop_
 _atom_site_type_symbol
 _atom_site_label
 _atom_site_symmetry_multiplicity
 _atom_site_fract_x
 _atom_site_fract_y
 _atom_site_fract_z
 _atom_site_occupancy
  Cs  Cs0  1  0.66666700  0.33333300  0.23979306  1
  Cs  Cs1  1  0.00000000  0.00000000  0.00006696  1
  Cs  Cs2  1  0.33333300  0.66666700  0.73979306  1
  Cs  Cs3  1  0.00000000  0.00000000  0.50006696  1
  S  S0  1  0.33333300  0.66666700  0.21968765  1
  S  S1  1  0.66666700  0.33333300  0.71968765  1
  S  S2  1  0.33333300  0.66666700  0.40499897  1
  S  S3  1  0.66666700  0.33333300  0.90499897  1
  O  O0  1  0.40875660  0.20437780  0.68991761  1
  O  O1  1  0.07638813  0.53819407  0.43740251  1
  O  O2  1  0.20437780  0.40875660  0.18991761  1
  O  O3  1  0.53819407  0.07638813  0.93740251  1
  O  O4  1  0.46180593  0.92361187  0.43740251  1
  O  O5  1  0.92361187  0.46180593  0.93740251  1
  O  O6  1  0.20437780  0.79562220  0.18991761  1
  O  O7  1  0.79562220  0.59124340  0.68991761  1
  O  O8  1  0.59124340  0.79562220  0.18991761  1
  O  O9  1  0.79562220  0.20437780  0.68991761  1
  O  O10  1  0.53819407  0.46180593  0.93740251  1
  O  O11  1  0.46180593  0.53819407  0.43740251  1
loop_
_geom_bond_atom_site_label_1
_geom_bond_atom_site_label_2
_geom_bond_distance
_geom_bond_site_symmetry_2
Cs0 O1 3.210363 1_655
Cs0 O4 3.210363 1_545
Cs0 O11 3.210367 1_555
Cs0 O2 3.244477 1_655
Cs0 O8 3.244478 1_545
Cs0 O6 3.244482 1_655
Cs0 O6 3.244482 1_545
Cs0 O2 3.244489 1_555
Cs0 O8 3.244490 1_555
Cs1 O6 3.142887 1_545
Cs1 O8 3.142891 1_445
Cs1 O2 3.142891 1_555
Cs1 O3 3.274896 1_554
Cs1 O3 3.274896 1_454
Cs1 O10 3.274896 1_554
Cs1 O10 3.274896 1_444
Cs1 O5 3.274896 1_454
Cs1 O5 3.274896 1_444
Cs2 O5 3.210363 1_455
Cs2 O3 3.210363 1_565
Cs2 O10 3.210367 1_555
Cs2 O7 3.244477 1_455
Cs2 O0 3.244478 1_565
Cs2 O9 3.244482 1_455
Cs2 O9 3.244482 1_565
Cs2 O7 3.244489 1_555
Cs2 O0 3.244490 1_555
Cs3 O9 3.142887 1_455
Cs3 O0 3.142891 1_555
Cs3 O7 3.142891 1_445
Cs3 O4 3.274896 1_445
Cs3 O4 3.274896 1_545
Cs3 O11 3.274896 1_445
Cs3 O11 3.274896 1_555
Cs3 O1 3.274896 1_545
Cs3 O1 3.274896 1_555
O0 S1 1.455685 1_555
O1 S2 1.458125 1_555
O2 S0 1.455685 1_555
O3 S3 1.458126 1_555
O4 S2 1.458126 1_555
O5 S3 1.458125 1_555
O6 S0 1.455685 1_555
O7 S1 1.455685 1_555
O8 S0 1.455685 1_555
O9 S1 1.455685 1_555
O10 S3 1.458131 1_555
O11 S2 1.458131 1_555
