# generated using pymatgen
data_HfCr2
_symmetry_space_group_name_H-M   'P 1'
_cell_length_a   5.02087777
_cell_length_b   5.02087751
_cell_length_c   8.03770566
_cell_angle_alpha   90.00000000
_cell_angle_beta   90.00000000
_cell_angle_gamma   119.99999506
_symmetry_Int_Tables_number   1
_chemical_formula_structural   HfCr2
_chemical_formula_sum   'Hf4 Cr8'
_cell_volume   175.47773780
_cell_formula_units_Z   4
loop_
 _symmetry_equiv_pos_site_id
 _symmetry_equiv_pos_as_xyz
  1  'x, y, z'
loop_
 _atom_site_type_symbol
 _atom_site_label
 _atom_site_symmetry_multiplicity
 _atom_site_fract_x
 _atom_site_fract_y
 _atom_site_fract_z
 _atom_site_occupancy
  Hf  Hf0  1  0.33333300  0.66666700  0.43977938  1
  Hf  Hf1  1  0.66666700  0.33333300  0.56022062  1
  Hf  Hf2  1  0.66666700  0.33333300  0.93977938  1
  Hf  Hf3  1  0.33333300  0.66666700  0.06022062  1
  Cr  Cr0  1  0.16846138  0.33692176  0.75000000  1
  Cr  Cr1  1  0.16846138  0.83153862  0.75000000  1
  Cr  Cr2  1  0.33692176  0.16846138  0.25000000  1
  Cr  Cr3  1  0.83153862  0.66307824  0.25000000  1
  Cr  Cr4  1  0.66307824  0.83153862  0.75000000  1
  Cr  Cr5  1  0.00000000  -0.00000000  -0.00000000  1
  Cr  Cr6  1  0.83153862  0.16846138  0.25000000  1
  Cr  Cr7  1  0.00000000  -0.00000000  0.50000000  1
loop_
_geom_bond_atom_site_label_1
_geom_bond_atom_site_label_2
_geom_bond_distance
_geom_bond_site_symmetry_2
Hf0 Hf3 3.050782 1_555
Hf0 Hf1 3.056177 1_565
Hf0 Hf1 3.056177 1_455
Hf0 Hf1 3.056185 1_555
Hf1 Hf2 3.050782 1_555
Hf2 Hf3 3.056177 1_546
Hf2 Hf3 3.056177 1_656
Hf2 Hf3 3.056185 1_556
Cr0 Cr1 2.483411 1_555
Cr0 Cr4 2.483411 1_555
Cr0 Cr7 2.486772 1_555
Cr0 Cr5 2.486772 1_556
Cr0 Cr1 2.537467 1_545
Cr0 Cr4 2.537467 1_445
Cr0 Hf3 2.876306 1_556
Cr0 Hf0 2.876306 1_555
Cr0 Hf1 2.937578 1_555
Cr0 Hf2 2.937578 1_555
Cr0 Hf1 2.937578 1_455
Cr0 Hf2 2.937578 1_455
Cr1 Cr4 2.483411 1_555
Cr1 Cr5 2.486775 1_566
Cr1 Cr7 2.486775 1_565
Cr1 Cr4 2.537467 1_455
Cr1 Hf3 2.876302 1_556
Cr1 Hf0 2.876302 1_555
Cr1 Hf1 2.937578 1_565
Cr1 Hf2 2.937578 1_565
Cr1 Hf1 2.937578 1_455
Cr1 Hf2 2.937578 1_455
Cr2 Cr6 2.483411 1_555
Cr2 Cr3 2.483411 1_555
Cr2 Cr5 2.486772 1_555
Cr2 Cr7 2.486772 1_555
Cr2 Cr6 2.537467 1_455
Cr2 Cr3 2.537467 1_445
Cr2 Hf2 2.876306 1_554
Cr2 Hf1 2.876306 1_555
Cr2 Hf3 2.937578 1_555
Cr2 Hf0 2.937578 1_555
Cr2 Hf3 2.937578 1_545
Cr2 Hf0 2.937578 1_545
Cr3 Cr6 2.483411 1_555
Cr3 Cr5 2.486772 1_665
Cr3 Cr7 2.486772 1_665
Cr3 Cr6 2.537467 1_565
Cr3 Hf2 2.876306 1_554
Cr3 Hf1 2.876306 1_555
Cr3 Hf3 2.937578 1_555
Cr3 Hf0 2.937578 1_555
Cr3 Hf0 2.937578 1_655
Cr3 Hf3 2.937578 1_655
Cr4 Cr7 2.486772 1_665
Cr4 Cr5 2.486772 1_666
Cr4 Hf3 2.876306 1_556
Cr4 Hf0 2.876306 1_555
Cr4 Hf1 2.937578 1_555
Cr4 Hf2 2.937578 1_555
Cr4 Hf1 2.937578 1_565
Cr4 Hf2 2.937578 1_565
Cr5 Cr6 2.486775 1_455
Cr5 Hf3 2.938936 1_545
Cr5 Hf2 2.938936 1_454
Cr5 Hf3 2.938940 1_555
Cr5 Hf2 2.938940 1_444
Cr5 Hf2 2.938940 1_554
Cr5 Hf3 2.938940 1_445
Cr6 Cr7 2.486775 1_655
Cr6 Hf2 2.876302 1_554
Cr6 Hf1 2.876302 1_555
Cr6 Hf0 2.937578 1_545
Cr6 Hf3 2.937578 1_545
Cr6 Hf3 2.937578 1_655
Cr6 Hf0 2.937578 1_655
Cr7 Hf1 2.938936 1_455
Cr7 Hf0 2.938936 1_545
Cr7 Hf1 2.938940 1_445
Cr7 Hf0 2.938940 1_555
Cr7 Hf0 2.938940 1_445
Cr7 Hf1 2.938940 1_555
