# generated using pymatgen
data_TlPF6
_symmetry_space_group_name_H-M   'P 1'
_cell_length_a   7.73749911
_cell_length_b   7.73749911
_cell_length_c   7.73749911
_cell_angle_alpha   90.00000000
_cell_angle_beta   90.00000000
_cell_angle_gamma   90.00000000
_symmetry_Int_Tables_number   1
_chemical_formula_structural   TlPF6
_chemical_formula_sum   'Tl4 P4 F24'
_cell_volume   463.23550226
_cell_formula_units_Z   4
loop_
 _symmetry_equiv_pos_site_id
 _symmetry_equiv_pos_as_xyz
  1  'x, y, z'
loop_
 _atom_site_type_symbol
 _atom_site_label
 _atom_site_symmetry_multiplicity
 _atom_site_fract_x
 _atom_site_fract_y
 _atom_site_fract_z
 _atom_site_occupancy
  Tl  Tl0  1  0.50000000  0.50000000  0.50000000  1
  Tl  Tl1  1  -0.00000000  0.50000000  -0.00000000  1
  Tl  Tl2  1  -0.00000000  0.00000000  0.50000000  1
  Tl  Tl3  1  0.50000000  0.00000000  -0.00000000  1
  P  P0  1  -0.00000000  0.00000000  -0.00000000  1
  P  P1  1  0.50000000  0.00000000  0.50000000  1
  P  P2  1  0.50000000  0.50000000  -0.00000000  1
  P  P3  1  -0.00000000  0.50000000  0.50000000  1
  F  F0  1  0.13688227  0.14216636  0.93009545  1
  F  F1  1  0.93009545  0.13688227  0.14216636  1
  F  F2  1  0.14216636  0.93009545  0.13688227  1
  F  F3  1  0.35783364  0.06990455  0.63688227  1
  F  F4  1  0.43009545  0.36311773  0.85783364  1
  F  F5  1  0.85783364  0.43009545  0.36311773  1
  F  F6  1  0.56990455  0.86311773  0.64216636  1
  F  F7  1  0.06990455  0.63688227  0.35783364  1
  F  F8  1  0.64216636  0.56990455  0.86311773  1
  F  F9  1  0.63688227  0.35783364  0.06990455  1
  F  F10  1  0.86311773  0.64216636  0.56990455  1
  F  F11  1  0.36311773  0.85783364  0.43009545  1
  F  F12  1  0.86311773  0.85783364  0.06990455  1
  F  F13  1  0.06990455  0.86311773  0.85783364  1
  F  F14  1  0.85783364  0.06990455  0.86311773  1
  F  F15  1  0.64216636  0.93009545  0.36311773  1
  F  F16  1  0.56990455  0.63688227  0.14216636  1
  F  F17  1  0.14216636  0.56990455  0.63688227  1
  F  F18  1  0.43009545  0.13688227  0.35783364  1
  F  F19  1  0.93009545  0.36311773  0.64216636  1
  F  F20  1  0.35783364  0.43009545  0.13688227  1
  F  F21  1  0.36311773  0.64216636  0.93009545  1
  F  F22  1  0.13688227  0.35783364  0.43009545  1
  F  F23  1  0.63688227  0.14216636  0.56990455  1
loop_
_geom_bond_atom_site_label_1
_geom_bond_atom_site_label_2
_geom_bond_distance
_geom_bond_site_symmetry_2
F0 P0 1.619979 1_556
F1 P0 1.619979 1_655
F2 P0 1.619979 1_565
F3 P1 1.619979 1_555
F4 P2 1.619979 1_556
F5 P3 1.619979 1_655
F6 P1 1.619979 1_565
F7 P3 1.619979 1_555
F8 P2 1.619979 1_556
F9 P2 1.619979 1_555
F10 P3 1.619979 1_655
F11 P1 1.619979 1_565
F12 P0 1.619979 1_665
F13 P0 1.619979 1_566
F14 P0 1.619979 1_656
F15 P1 1.619979 1_565
F16 P2 1.619979 1_555
F17 P3 1.619979 1_555
F18 P1 1.619979 1_555
F19 P3 1.619979 1_655
F20 P2 1.619979 1_555
F21 P2 1.619979 1_556
F22 P3 1.619979 1_555
F23 P1 1.619979 1_555
