# generated using pymatgen
data_Ba4NaMn2O9
_symmetry_space_group_name_H-M   'P 1'
_cell_length_a   10.17527500
_cell_length_b   10.17527556
_cell_length_c   8.40623200
_cell_angle_alpha   90.00000000
_cell_angle_beta   90.00000000
_cell_angle_gamma   120.00000143
_symmetry_Int_Tables_number   1
_chemical_formula_structural   Ba4NaMn2O9
_chemical_formula_sum   'Ba12 Na3 Mn6 O27'
_cell_volume   753.74480521
_cell_formula_units_Z   3
loop_
 _symmetry_equiv_pos_site_id
 _symmetry_equiv_pos_as_xyz
  1  'x, y, z'
loop_
 _atom_site_type_symbol
 _atom_site_label
 _atom_site_symmetry_multiplicity
 _atom_site_fract_x
 _atom_site_fract_y
 _atom_site_fract_z
 _atom_site_occupancy
  Ba  Ba0  1  0.00000000  0.35326800  0.50000000  1
  Ba  Ba1  1  0.67352500  0.67352500  0.00000000  1
  Ba  Ba2  1  0.66435700  0.97756700  0.24556800  1
  Ba  Ba3  1  0.00000000  0.32647500  0.00000000  1
  Ba  Ba4  1  0.33564300  0.31321000  0.75443200  1
  Ba  Ba5  1  0.35326800  0.00000000  0.50000000  1
  Ba  Ba6  1  0.97756700  0.66435700  0.75443200  1
  Ba  Ba7  1  0.02243300  0.68679000  0.24556800  1
  Ba  Ba8  1  0.68679000  0.02243300  0.75443200  1
  Ba  Ba9  1  0.31321000  0.33564300  0.24556800  1
  Ba  Ba10  1  0.32647500  0.00000000  0.00000000  1
  Ba  Ba11  1  0.64673200  0.64673200  0.50000000  1
  Na  Na0  1  0.66666700  0.33333300  0.25606700  1
  Na  Na1  1  0.00000000  0.00000000  0.50000000  1
  Na  Na2  1  0.33333300  0.66666700  0.74393300  1
  Mn  Mn0  1  0.66666700  0.33333300  0.59561000  1
  Mn  Mn1  1  0.00000000  0.00000000  0.84026200  1
  Mn  Mn2  1  0.00000000  0.00000000  0.15973800  1
  Mn  Mn3  1  0.33333300  0.66666700  0.40439000  1
  Mn  Mn4  1  0.33333300  0.66666700  0.08519900  1
  Mn  Mn5  1  0.66666700  0.33333300  0.91480100  1
  O  O0  1  0.65564100  0.47590900  0.75567300  1
  O  O1  1  0.85483900  0.00000000  0.00000000  1
  O  O2  1  0.00859800  0.16404300  0.71912700  1
  O  O3  1  0.18202000  0.67866500  0.52768100  1
  O  O4  1  0.50849800  0.32735100  0.03849000  1
  O  O5  1  0.32735100  0.50849800  0.96151000  1
  O  O6  1  0.81885300  0.49150200  0.03849000  1
  O  O7  1  0.52409100  0.17973200  0.75567300  1
  O  O8  1  0.67264900  0.18114700  0.03849000  1
  O  O9  1  0.18114700  0.67264900  0.96151000  1
  O  O10  1  0.50335500  0.32133500  0.47231900  1
  O  O11  1  0.49150200  0.81885300  0.96151000  1
  O  O12  1  0.14516100  0.14516100  0.00000000  1
  O  O13  1  0.34435900  0.82026800  0.24432700  1
  O  O14  1  0.32133500  0.50335500  0.52768100  1
  O  O15  1  0.47590900  0.65564100  0.24432700  1
  O  O16  1  0.81798000  0.49664500  0.47231900  1
  O  O17  1  0.49664500  0.81798000  0.52768100  1
  O  O18  1  0.17973200  0.52409100  0.24432700  1
  O  O19  1  0.99140200  0.15544400  0.28087300  1
  O  O20  1  0.00000000  0.85483900  0.00000000  1
  O  O21  1  0.84455600  0.83595700  0.28087300  1
  O  O22  1  0.16404300  0.00859800  0.28087300  1
  O  O23  1  0.82026800  0.34435900  0.75567300  1
  O  O24  1  0.67866500  0.18202000  0.47231900  1
  O  O25  1  0.15544400  0.99140200  0.71912700  1
  O  O26  1  0.83595700  0.84455600  0.71912700  1
loop_
_geom_bond_atom_site_label_1
_geom_bond_atom_site_label_2
_geom_bond_distance
_geom_bond_site_symmetry_2
Ba0 O2 2.697483 1_555
Ba0 O19 2.697491 1_455
Ba0 O23 2.793973 1_455
Ba0 O18 2.793973 1_555
Ba0 O14 2.843203 1_555
Ba0 O24 2.843203 1_455
Ba0 O16 2.883550 1_455
Ba0 O3 2.883550 1_555
Ba1 O15 2.815828 1_555
Ba1 O0 2.815828 1_554
Ba1 O20 2.882787 1_655
Ba1 O1 2.882787 1_565
Ba1 O21 2.908385 1_555
Ba1 O26 2.908385 1_554
Ba1 O11 2.908719 1_554
Ba1 O6 2.908719 1_555
Ba1 O5 3.068709 1_554
Ba1 O4 3.068709 1_555
Ba2 O8 2.674617 1_565
Ba2 O1 2.761824 1_565
Ba2 O24 2.771198 1_565
Ba2 O13 2.819990 1_555
Ba2 O15 2.850598 1_555
Ba2 O21 2.858035 1_555
Ba2 O17 2.898619 1_555
Ba2 O19 2.900856 1_565
Ba2 O11 2.926266 1_554
Ba3 O23 2.815828 1_454
Ba3 O18 2.815828 1_555
Ba3 O12 2.882787 1_555
Ba3 O1 2.882787 1_455
Ba3 O2 2.908382 1_554
Ba3 O19 2.908388 1_455
Ba3 O8 2.908719 1_455
Ba3 O5 2.908719 1_554
Ba3 O6 3.068709 1_455
Ba3 O9 3.068709 1_554
Ba4 O5 2.674617 1_555
Ba4 O12 2.761824 1_556
Ba4 O14 2.771198 1_555
Ba4 O0 2.819990 1_555
Ba4 O7 2.850598 1_555
Ba4 O25 2.858026 1_545
Ba4 O10 2.898619 1_555
Ba4 O2 2.900857 1_555
Ba4 O4 2.926266 1_556
Ba5 O22 2.697483 1_555
Ba5 O25 2.697490 1_545
Ba5 O7 2.793973 1_555
Ba5 O13 2.793973 1_545
Ba5 O3 2.843203 1_545
Ba5 O10 2.843203 1_555
Ba5 O24 2.883550 1_555
Ba5 O17 2.883550 1_545
Ba6 O9 2.674617 1_655
Ba6 O20 2.761824 1_656
Ba6 O3 2.771198 1_655
Ba6 O23 2.819991 1_555
Ba6 O0 2.850598 1_555
Ba6 O26 2.858035 1_555
Ba6 O16 2.898619 1_555
Ba6 O25 2.900856 1_655
Ba6 O6 2.926266 1_556
Ba7 O6 2.674617 1_455
Ba7 O20 2.761824 1_555
Ba7 O16 2.771198 1_455
Ba7 O18 2.819991 1_555
Ba7 O13 2.850598 1_555
Ba7 O22 2.858026 1_565
Ba7 O3 2.898619 1_555
Ba7 O21 2.900848 1_455
Ba7 O9 2.926266 1_554
Ba8 O11 2.674617 1_545
Ba8 O1 2.761824 1_556
Ba8 O17 2.771198 1_545
Ba8 O7 2.819991 1_555
Ba8 O23 2.850598 1_555
Ba8 O2 2.858026 1_655
Ba8 O24 2.898619 1_555
Ba8 O26 2.900848 1_545
Ba8 O8 2.926266 1_556
Ba9 O4 2.674617 1_555
Ba9 O12 2.761824 1_555
Ba9 O10 2.771198 1_555
Ba9 O15 2.819991 1_555
Ba9 O18 2.850598 1_555
Ba9 O19 2.858026 1_455
Ba9 O14 2.898619 1_555
Ba9 O22 2.900857 1_555
Ba9 O5 2.926266 1_554
Ba10 O7 2.815828 1_554
Ba10 O13 2.815828 1_545
Ba10 O20 2.882787 1_545
Ba10 O12 2.882787 1_555
Ba10 O22 2.908382 1_555
Ba10 O25 2.908387 1_544
Ba10 O4 2.908719 1_555
Ba10 O9 2.908719 1_544
Ba10 O8 3.068709 1_555
Ba10 O11 3.068709 1_544
Ba11 O21 2.697487 1_555
Ba11 O26 2.697487 1_555
Ba11 O15 2.793973 1_555
Ba11 O0 2.793973 1_555
Ba11 O16 2.843203 1_555
Ba11 O17 2.843203 1_555
Ba11 O14 2.883550 1_555
Ba11 O10 2.883550 1_555
Na0 O8 2.416852 1_555
Na0 O6 2.416855 1_555
Na0 O4 2.416858 1_555
Na0 O24 2.424464 1_555
Na0 O16 2.424468 1_555
Na0 O10 2.424471 1_555
Na1 O25 2.457813 1_545
Na1 O19 2.457813 1_455
Na1 O26 2.457816 1_445
Na1 O21 2.457816 1_445
Na1 O22 2.457819 1_555
Na1 O2 2.457819 1_555
Na2 O9 2.416852 1_555
Na2 O11 2.416855 1_555
Na2 O5 2.416858 1_555
Na2 O3 2.424464 1_555
Na2 O17 2.424468 1_555
Na2 O14 2.424471 1_555
Mn0 O24 1.909855 1_555
Mn0 O16 1.909860 1_555
Mn0 O10 1.909864 1_555
Mn0 O23 2.022483 1_555
Mn0 O7 2.022486 1_555
Mn0 O0 2.022491 1_555
Mn1 O25 1.919550 1_545
Mn1 O26 1.919555 1_445
Mn1 O2 1.919559 1_555
Mn1 O1 1.996192 1_456
Mn1 O12 1.996192 1_556
Mn1 O20 1.996192 1_546
Mn2 O19 1.919550 1_455
Mn2 O21 1.919555 1_445
Mn2 O22 1.919559 1_555
Mn2 O1 1.996192 1_455
Mn2 O12 1.996192 1_555
Mn2 O20 1.996192 1_545
Mn3 O3 1.909855 1_555
Mn3 O17 1.909860 1_555
Mn3 O14 1.909864 1_555
Mn3 O13 2.022483 1_555
Mn3 O18 2.022486 1_555
Mn3 O15 2.022491 1_555
Mn4 O9 1.891301 1_554
Mn4 O11 1.891305 1_554
Mn4 O5 1.891309 1_554
Mn4 O13 2.017263 1_555
Mn4 O18 2.017266 1_555
Mn4 O15 2.017270 1_555
Mn5 O8 1.891301 1_556
Mn5 O6 1.891305 1_556
Mn5 O4 1.891309 1_556
Mn5 O23 2.017263 1_555
Mn5 O7 2.017266 1_555
Mn5 O0 2.017270 1_555
