# generated using pymatgen
data_Na2Er2B2O7
_symmetry_space_group_name_H-M   'P 1'
_cell_length_a   6.22533800
_cell_length_b   10.26998300
_cell_length_c   10.62234182
_cell_angle_alpha   62.26668401
_cell_angle_beta   90.00000000
_cell_angle_gamma   90.00000000
_symmetry_Int_Tables_number   1
_chemical_formula_structural   Na2Er2B2O7
_chemical_formula_sum   'Na8 Er8 B8 O28'
_cell_volume   601.11373193
_cell_formula_units_Z   4
loop_
 _symmetry_equiv_pos_site_id
 _symmetry_equiv_pos_as_xyz
  1  'x, y, z'
loop_
 _atom_site_type_symbol
 _atom_site_label
 _atom_site_symmetry_multiplicity
 _atom_site_fract_x
 _atom_site_fract_y
 _atom_site_fract_z
 _atom_site_occupancy
  Na  Na0  1  0.55677400  0.76363900  0.47587200  1
  Na  Na1  1  0.94322600  0.26363900  0.47587200  1
  Na  Na2  1  0.24084300  0.54795400  0.38841500  1
  Na  Na3  1  0.75915700  0.45204600  0.61158500  1
  Na  Na4  1  0.44322600  0.23636100  0.52412800  1
  Na  Na5  1  0.74084300  0.95204600  0.61158500  1
  Na  Na6  1  0.05677400  0.73636100  0.52412800  1
  Na  Na7  1  0.25915700  0.04795400  0.38841500  1
  Er  Er0  1  0.45937100  0.18380300  0.01468700  1
  Er  Er1  1  0.95937100  0.31619700  0.98531300  1
  Er  Er2  1  0.41793800  0.58484100  0.81915500  1
  Er  Er3  1  0.91793800  0.91515900  0.18084500  1
  Er  Er4  1  0.54062900  0.81619700  0.98531300  1
  Er  Er5  1  0.04062900  0.68380300  0.01468700  1
  Er  Er6  1  0.58206200  0.41515900  0.18084500  1
  Er  Er7  1  0.08206200  0.08484100  0.81915500  1
  B  B0  1  0.15326800  0.35231100  0.20568600  1
  B  B1  1  0.25156600  0.91741500  0.68691400  1
  B  B2  1  0.24843400  0.41741500  0.68691400  1
  B  B3  1  0.75156600  0.58258500  0.31308600  1
  B  B4  1  0.65326800  0.14768900  0.79431400  1
  B  B5  1  0.84673200  0.64768900  0.79431400  1
  B  B6  1  0.34673200  0.85231100  0.20568600  1
  B  B7  1  0.74843400  0.08258500  0.31308600  1
  O  O0  1  0.25720400  0.27134200  0.14743300  1
  O  O1  1  0.66300300  0.44605200  0.39595800  1
  O  O2  1  0.25162600  0.86613500  0.31434300  1
  O  O3  1  0.75720400  0.22865800  0.85256700  1
  O  O4  1  0.75162600  0.63386500  0.68565700  1
  O  O5  1  0.83699700  0.94605200  0.39595800  1
  O  O6  1  0.76345700  0.13296400  0.16422900  1
  O  O7  1  0.74837400  0.13386500  0.68565700  1
  O  O8  1  0.35170500  0.83281600  0.63535000  1
  O  O9  1  0.73654300  0.63296400  0.16422900  1
  O  O10  1  0.54396500  0.91417400  0.14713900  1
  O  O11  1  0.95603500  0.41417400  0.14713900  1
  O  O12  1  0.85170500  0.66718400  0.36465000  1
  O  O13  1  0.14829500  0.33281600  0.63535000  1
  O  O14  1  0.37534500  0.59708400  0.02555900  1
  O  O15  1  0.24837400  0.36613500  0.31434300  1
  O  O16  1  0.16300300  0.05394800  0.60404200  1
  O  O17  1  0.26345700  0.36703600  0.83577100  1
  O  O18  1  0.12465500  0.09708400  0.02555900  1
  O  O19  1  0.45603500  0.08582600  0.85286100  1
  O  O20  1  0.74279600  0.72865800  0.85256700  1
  O  O21  1  0.23654300  0.86703600  0.83577100  1
  O  O22  1  0.04396500  0.58582600  0.85286100  1
  O  O23  1  0.64829500  0.16718400  0.36465000  1
  O  O24  1  0.33699700  0.55394800  0.60404200  1
  O  O25  1  0.87534500  0.90291600  0.97444100  1
  O  O26  1  0.62465500  0.40291600  0.97444100  1
  O  O27  1  0.24279600  0.77134200  0.14743300  1
loop_
_geom_bond_atom_site_label_1
_geom_bond_atom_site_label_2
_geom_bond_distance
_geom_bond_site_symmetry_2
Na0 O4 2.334378 1_555
Na0 O24 2.373685 1_555
Na0 O5 2.406922 1_555
Na0 O2 2.445352 1_555
Na0 O8 2.474746 1_555
Na0 O12 2.614835 1_555
Na1 O7 2.334378 1_555
Na1 O16 2.373685 1_655
Na1 O1 2.406922 1_555
Na1 O15 2.445352 1_655
Na1 O13 2.474746 1_655
Na1 O23 2.614835 1_555
Na2 O15 2.339962 1_555
Na2 O24 2.395736 1_555
Na2 O27 2.519969 1_555
Na2 O13 2.588438 1_555
Na2 O12 2.672824 1_455
Na2 O1 2.816107 1_555
Na3 O4 2.339962 1_555
Na3 O1 2.395736 1_555
Na3 O3 2.519969 1_555
Na3 O12 2.588438 1_555
Na3 O13 2.672824 1_655
Na3 O24 2.816107 1_555
Na4 O15 2.334378 1_555
Na4 O1 2.373685 1_555
Na4 O16 2.406922 1_555
Na4 O7 2.445352 1_555
Na4 O23 2.474746 1_555
Na4 O13 2.614835 1_555
Na5 O7 2.339962 1_565
Na5 O5 2.395736 1_555
Na5 O20 2.519969 1_555
Na5 O23 2.588438 1_565
Na5 O8 2.672824 1_555
Na5 O16 2.816107 1_665
Na6 O2 2.334378 1_555
Na6 O5 2.373685 1_455
Na6 O24 2.406922 1_555
Na6 O4 2.445352 1_455
Na6 O12 2.474746 1_455
Na6 O8 2.614835 1_555
Na7 O2 2.339962 1_545
Na7 O16 2.395736 1_555
Na7 O0 2.519969 1_555
Na7 O8 2.588438 1_545
Na7 O23 2.672824 1_555
Na7 O5 2.816107 1_445
Er0 O18 2.247815 1_555
Er0 O17 2.304781 1_554
Er0 O26 2.325926 1_554
Er0 O0 2.358045 1_555
Er0 O19 2.361694 1_554
Er0 O6 2.368032 1_555
Er0 O3 2.424295 1_554
Er0 O10 2.509711 1_545
Er1 O26 2.247815 1_555
Er1 O6 2.304781 1_556
Er1 O18 2.325926 1_656
Er1 O3 2.358045 1_555
Er1 O11 2.361694 1_556
Er1 O17 2.368032 1_655
Er1 O0 2.424295 1_656
Er1 O22 2.509711 1_655
Er2 O26 2.235928 1_555
Er2 O14 2.269299 1_556
Er2 O22 2.356216 1_555
Er2 O17 2.364757 1_555
Er2 O8 2.416597 1_555
Er2 O4 2.432109 1_555
Er2 O24 2.500108 1_555
Er2 O20 2.623981 1_555
Er3 O18 2.235928 1_665
Er3 O25 2.269299 1_554
Er3 O10 2.356216 1_555
Er3 O6 2.364757 1_565
Er3 O12 2.416597 1_555
Er3 O2 2.432109 1_655
Er3 O5 2.500108 1_555
Er3 O27 2.623981 1_655
Er4 O25 2.247815 1_555
Er4 O9 2.304781 1_556
Er4 O14 2.325926 1_556
Er4 O20 2.358045 1_555
Er4 O10 2.361694 1_556
Er4 O21 2.368032 1_555
Er4 O27 2.424295 1_556
Er4 O19 2.509711 1_565
Er5 O14 2.247815 1_555
Er5 O21 2.304781 1_554
Er5 O25 2.325926 1_454
Er5 O27 2.358045 1_555
Er5 O22 2.361694 1_554
Er5 O9 2.368032 1_455
Er5 O20 2.424295 1_454
Er5 O11 2.509711 1_455
Er6 O14 2.235928 1_555
Er6 O26 2.269299 1_554
Er6 O11 2.356216 1_555
Er6 O9 2.364757 1_555
Er6 O23 2.416597 1_555
Er6 O15 2.432109 1_555
Er6 O1 2.500108 1_555
Er6 O0 2.623981 1_555
Er7 O25 2.235928 1_445
Er7 O18 2.269299 1_556
Er7 O19 2.356216 1_555
Er7 O21 2.364757 1_545
Er7 O13 2.416597 1_555
Er7 O7 2.432109 1_455
Er7 O16 2.500108 1_555
Er7 O3 2.623981 1_455
B0 O15 1.362119 1_555
B0 O11 1.389341 1_455
B0 O0 1.404252 1_555
B1 O8 1.373468 1_555
B1 O16 1.377030 1_565
B1 O21 1.419593 1_555
B2 O13 1.373468 1_555
B2 O24 1.377030 1_555
B2 O17 1.419593 1_555
B3 O12 1.373468 1_555
B3 O1 1.377030 1_555
B3 O9 1.419593 1_555
B4 O7 1.362119 1_555
B4 O19 1.389341 1_555
B4 O3 1.404252 1_555
B5 O4 1.362119 1_555
B5 O22 1.389341 1_655
B5 O20 1.404252 1_555
B6 O2 1.362119 1_555
B6 O10 1.389341 1_555
B6 O27 1.404252 1_555
B7 O23 1.373468 1_555
B7 O5 1.377030 1_545
B7 O6 1.419593 1_555
