# generated using pymatgen
data_Cs3MnI5
_symmetry_space_group_name_H-M   'P 1'
_cell_length_a   10.33003781
_cell_length_b   10.33003645
_cell_length_c   11.03022578
_cell_angle_alpha   117.94660136
_cell_angle_beta   117.94660429
_cell_angle_gamma   89.95252646
_symmetry_Int_Tables_number   1
_chemical_formula_structural   Cs3MnI5
_chemical_formula_sum   'Cs6 Mn2 I10'
_cell_volume   881.67490407
_cell_formula_units_Z   2
loop_
 _symmetry_equiv_pos_site_id
 _symmetry_equiv_pos_as_xyz
  1  'x, y, z'
loop_
 _atom_site_type_symbol
 _atom_site_label
 _atom_site_symmetry_multiplicity
 _atom_site_fract_x
 _atom_site_fract_y
 _atom_site_fract_z
 _atom_site_occupancy
  Cs  Cs0  1  0.15600259  0.34399741  0.00000000  1
  Cs  Cs1  1  0.25000000  0.25000000  0.50000000  1
  Cs  Cs2  1  0.34405804  0.84405804  0.00000000  1
  Cs  Cs3  1  0.84399741  0.65600259  -0.00000000  1
  Cs  Cs4  1  0.75000000  0.75000000  0.50000000  1
  Cs  Cs5  1  0.65594196  0.15594196  -0.00000000  1
  Mn  Mn0  1  0.24992675  0.74992675  0.49985449  1
  Mn  Mn1  1  0.75007325  0.25007325  0.50014551  1
  I  I0  1  0.19891663  0.99480552  0.69372215  1
  I  I1  1  0.80108337  0.00519448  0.30627785  1
  I  I2  1  0.69941941  0.19941941  0.69445707  1
  I  I3  1  0.50519448  0.30108337  0.30627785  1
  I  I4  1  -0.00000000  -0.00000000  -0.00000000  1
  I  I5  1  0.49480552  0.69891663  0.69372215  1
  I  I6  1  0.00496334  0.50496334  0.30554293  1
  I  I7  1  0.30058059  0.80058059  0.30554293  1
  I  I8  1  0.99503666  0.49503666  0.69445707  1
  I  I9  1  0.50000000  0.50000000  -0.00000000  1
loop_
_geom_bond_atom_site_label_1
_geom_bond_atom_site_label_2
_geom_bond_distance
_geom_bond_site_symmetry_2
Cs0 I0 3.821021 1_544
Cs0 I3 3.821021 1_555
Cs0 I4 3.903059 1_555
Cs0 I9 3.903059 1_555
Cs0 I8 4.028558 1_454
Cs0 I6 4.028558 1_555
Cs0 I7 4.028566 1_555
Cs0 I2 4.028566 1_454
Cs1 I4 4.131187 1_555
Cs1 I9 4.131187 1_556
Cs1 I5 4.258249 1_555
Cs1 I0 4.258249 1_545
Cs1 I1 4.258250 1_455
Cs1 I3 4.258250 1_555
Cs1 I7 4.259066 1_545
Cs1 I2 4.259067 1_555
Cs1 I6 4.259071 1_555
Cs1 I8 4.259072 1_455
Cs2 I7 3.820931 1_555
Cs2 I8 3.820942 1_454
Cs2 I9 3.900939 1_555
Cs2 I4 3.900939 1_565
Cs2 I3 4.033040 1_565
Cs2 I0 4.033040 1_554
Cs2 I1 4.033040 1_565
Cs2 I5 4.033040 1_554
Cs3 I1 3.821021 1_565
Cs3 I5 3.821021 1_554
Cs3 I4 3.903059 1_665
Cs3 I9 3.903059 1_555
Cs3 I6 4.028558 1_655
Cs3 I8 4.028558 1_554
Cs3 I2 4.028566 1_554
Cs3 I7 4.028566 1_655
Cs4 I9 4.131187 1_555
Cs4 I4 4.131187 1_666
Cs4 I3 4.258249 1_555
Cs4 I1 4.258249 1_565
Cs4 I0 4.258250 1_655
Cs4 I5 4.258250 1_555
Cs4 I2 4.259066 1_565
Cs4 I7 4.259067 1_555
Cs4 I8 4.259071 1_555
Cs4 I6 4.259072 1_655
Cs5 I2 3.820931 1_554
Cs5 I6 3.820942 1_655
Cs5 I9 3.900939 1_555
Cs5 I4 3.900939 1_655
Cs5 I5 4.033040 1_544
Cs5 I1 4.033040 1_555
Cs5 I0 4.033040 1_544
Cs5 I3 4.033040 1_555
I0 Mn0 2.689450 1_555
I1 Mn1 2.689450 1_555
I2 Mn1 2.691492 1_555
I3 Mn1 2.689451 1_555
I5 Mn0 2.689451 1_555
I6 Mn0 2.691469 1_555
I7 Mn0 2.691492 1_555
I8 Mn1 2.691469 1_555
