# generated using pymatgen
data_NiH12C4(N2O3)2
_symmetry_space_group_name_H-M   'P 1'
_cell_length_a   9.30472455
_cell_length_b   9.30472455
_cell_length_c   7.15752500
_cell_angle_alpha   90.00000000
_cell_angle_beta   90.00000000
_cell_angle_gamma   120.00000395
_symmetry_Int_Tables_number   1
_chemical_formula_structural   NiH12C4(N2O3)2
_chemical_formula_sum   'Ni2 H24 C8 N8 O12'
_cell_volume   536.66161192
_cell_formula_units_Z   2
loop_
 _symmetry_equiv_pos_site_id
 _symmetry_equiv_pos_as_xyz
  1  'x, y, z'
loop_
 _atom_site_type_symbol
 _atom_site_label
 _atom_site_symmetry_multiplicity
 _atom_site_fract_x
 _atom_site_fract_y
 _atom_site_fract_z
 _atom_site_occupancy
  Ni  Ni0  1  0.00000000  0.00000000  0.00000000  1
  Ni  Ni1  1  0.00000000  0.00000000  0.50000000  1
  H  H0  1  0.54891000  0.64473100  0.33366600  1
  H  H1  1  0.09582100  0.64473100  0.33366600  1
  H  H2  1  0.26895500  0.73104500  0.61090900  1
  H  H3  1  0.90417900  0.54891000  0.66633400  1
  H  H4  1  0.42054200  0.57945800  0.12870600  1
  H  H5  1  0.09582100  0.45109000  0.33366600  1
  H  H6  1  0.45109000  0.09582100  0.66633400  1
  H  H7  1  0.15891700  0.57945800  0.12870600  1
  H  H8  1  0.35526900  0.90417900  0.33366600  1
  H  H9  1  0.57945800  0.15891700  0.87129400  1
  H  H10  1  0.64473100  0.09582100  0.66633400  1
  H  H11  1  0.73104500  0.26895500  0.38909100  1
  H  H12  1  0.90417900  0.35526900  0.66633400  1
  H  H13  1  0.35526900  0.45109000  0.33366600  1
  H  H14  1  0.64473100  0.54891000  0.66633400  1
  H  H15  1  0.73104500  0.46208900  0.38909100  1
  H  H16  1  0.45109000  0.35526900  0.66633400  1
  H  H17  1  0.54891000  0.90417900  0.33366600  1
  H  H18  1  0.26895500  0.53791100  0.61090900  1
  H  H19  1  0.57945800  0.42054200  0.87129400  1
  H  H20  1  0.84108300  0.42054200  0.87129400  1
  H  H21  1  0.46208900  0.73104500  0.61090900  1
  H  H22  1  0.53791100  0.26895500  0.38909100  1
  H  H23  1  0.42054200  0.84108300  0.12870600  1
  C  C0  1  0.66666700  0.33333300  0.43855700  1
  C  C1  1  0.33333300  0.66666700  0.56144300  1
  C  C2  1  0.15764300  0.57882100  0.28150000  1
  C  C3  1  0.57882100  0.15764300  0.71850000  1
  C  C4  1  0.84235700  0.42117900  0.71850000  1
  C  C5  1  0.42117900  0.57882100  0.28150000  1
  C  C6  1  0.42117900  0.84235700  0.28150000  1
  C  C7  1  0.57882100  0.42117900  0.71850000  1
  N  N0  1  0.10963500  0.21927100  0.83328900  1
  N  N1  1  0.21927100  0.10963500  0.16671100  1
  N  N2  1  0.33333300  0.66666700  0.35143800  1
  N  N3  1  0.10963500  0.89036500  0.83328900  1
  N  N4  1  0.89036500  0.78072900  0.16671100  1
  N  N5  1  0.78072900  0.89036500  0.83328900  1
  N  N6  1  0.89036500  0.10963500  0.16671100  1
  N  N7  1  0.66666700  0.33333300  0.64856200  1
  O  O0  1  0.10946700  0.89053300  0.65306400  1
  O  O1  1  0.82157900  0.64315900  0.09012000  1
  O  O2  1  0.78106700  0.89053300  0.65306400  1
  O  O3  1  0.64315900  0.82157900  0.90988000  1
  O  O4  1  0.89053300  0.78106700  0.34693600  1
  O  O5  1  0.17842100  0.82157900  0.90988000  1
  O  O6  1  0.17842100  0.35684100  0.90988000  1
  O  O7  1  0.21893300  0.10946700  0.34693600  1
  O  O8  1  0.35684100  0.17842100  0.09012000  1
  O  O9  1  0.82157900  0.17842100  0.09012000  1
  O  O10  1  0.89053300  0.10946700  0.34693600  1
  O  O11  1  0.10946700  0.21893300  0.65306400  1
loop_
_geom_bond_atom_site_label_1
_geom_bond_atom_site_label_2
_geom_bond_distance
_geom_bond_site_symmetry_2
Ni1 O11 2.076684 1_555
Ni1 O2 2.076684 1_445
Ni1 O7 2.076684 1_555
Ni1 O4 2.076684 1_445
Ni1 O0 2.076691 1_545
Ni1 O10 2.076691 1_455
C0 H15 1.096279 1_555
C0 H22 1.096279 1_555
C0 H11 1.096279 1_555
C0 N7 1.503116 1_555
C1 H21 1.096279 1_555
C1 H18 1.096279 1_555
C1 H2 1.096279 1_555
C1 N2 1.503116 1_555
C2 H7 1.093675 1_555
C2 H5 1.095069 1_555
C2 H1 1.095077 1_555
C2 N2 1.501626 1_555
C3 H9 1.093675 1_555
C3 H6 1.095069 1_555
C3 H10 1.095077 1_555
C3 N7 1.501626 1_555
C4 H20 1.093675 1_555
C4 H3 1.095069 1_555
C4 H12 1.095077 1_555
C4 N7 1.501626 1_555
C5 H4 1.093675 1_555
C5 H13 1.095069 1_555
C5 H0 1.095069 1_555
C5 N2 1.501642 1_555
C6 H23 1.093675 1_555
C6 H17 1.095069 1_555
C6 H8 1.095077 1_555
C6 N2 1.501626 1_555
C7 H19 1.093675 1_555
C7 H16 1.095069 1_555
C7 H14 1.095069 1_555
C7 N7 1.501642 1_555
N0 O6 1.236698 1_555
N0 O11 1.289968 1_555
N0 Ni0 2.132088 1_556
N1 O8 1.236698 1_555
N1 O7 1.289968 1_555
N1 Ni0 2.132088 1_555
N3 O5 1.236713 1_555
N3 O0 1.289968 1_555
N3 Ni0 2.132082 1_566
N4 O1 1.236698 1_555
N4 O4 1.289968 1_555
N4 Ni0 2.132088 1_665
N5 O3 1.236698 1_555
N5 O2 1.289968 1_555
N5 Ni0 2.132088 1_666
N6 O9 1.236713 1_555
N6 O10 1.289968 1_555
N6 Ni0 2.132082 1_655
