# generated using pymatgen
data_SbS4N4Cl5
_symmetry_space_group_name_H-M   'P 1'
_cell_length_a   13.08195900
_cell_length_b   7.36302400
_cell_length_c   15.97159792
_cell_angle_alpha   72.66395959
_cell_angle_beta   90.00000000
_cell_angle_gamma   90.00000000
_symmetry_Int_Tables_number   1
_chemical_formula_structural   SbS4N4Cl5
_chemical_formula_sum   'Sb4 S16 N16 Cl20'
_cell_volume   1468.54333565
_cell_formula_units_Z   4
loop_
 _symmetry_equiv_pos_site_id
 _symmetry_equiv_pos_as_xyz
  1  'x, y, z'
loop_
 _atom_site_type_symbol
 _atom_site_label
 _atom_site_symmetry_multiplicity
 _atom_site_fract_x
 _atom_site_fract_y
 _atom_site_fract_z
 _atom_site_occupancy
  Sb  Sb0  1  0.78584500  0.83014400  0.09814300  1
  Sb  Sb1  1  0.21415500  0.16985600  0.90185700  1
  Sb  Sb2  1  0.28584500  0.16985600  0.40185700  1
  Sb  Sb3  1  0.71415500  0.83014400  0.59814300  1
  S  S0  1  0.00674600  0.46858900  0.85846100  1
  S  S1  1  0.51173700  0.15286200  0.29632400  1
  S  S2  1  0.99325400  0.53141100  0.14153900  1
  S  S3  1  0.01173700  0.84713800  0.20367600  1
  S  S4  1  0.48826300  0.84713800  0.70367600  1
  S  S5  1  0.08748600  0.70847900  0.68724900  1
  S  S6  1  0.49325400  0.46858900  0.35846100  1
  S  S7  1  0.41251400  0.70847900  0.18724900  1
  S  S8  1  0.98826300  0.15286200  0.79632400  1
  S  S9  1  0.43096800  0.37048100  0.12119500  1
  S  S10  1  0.06903200  0.37048100  0.62119500  1
  S  S11  1  0.93096800  0.62951900  0.37880500  1
  S  S12  1  0.58748600  0.29152100  0.81275100  1
  S  S13  1  0.91251400  0.29152100  0.31275100  1
  S  S14  1  0.56903200  0.62951900  0.87880500  1
  S  S15  1  0.50674600  0.53141100  0.64153900  1
  N  N0  1  0.00769900  0.21912800  0.69308600  1
  N  N1  1  0.06111400  0.27338400  0.84670600  1
  N  N2  1  0.43888600  0.27338400  0.34670600  1
  N  N3  1  0.96775300  0.34902300  0.22195700  1
  N  N4  1  0.93888600  0.72661600  0.15329400  1
  N  N5  1  0.99230100  0.78087200  0.30691400  1
  N  N6  1  0.56111400  0.72661600  0.65329400  1
  N  N7  1  0.88268600  0.45025500  0.35753700  1
  N  N8  1  0.49230100  0.21912800  0.19308600  1
  N  N9  1  0.50769900  0.78087200  0.80691400  1
  N  N10  1  0.61731400  0.45025500  0.85753700  1
  N  N11  1  0.53224700  0.34902300  0.72195700  1
  N  N12  1  0.11731400  0.54974500  0.64246300  1
  N  N13  1  0.46775300  0.65097700  0.27804300  1
  N  N14  1  0.03224700  0.65097700  0.77804300  1
  N  N15  1  0.38268600  0.54974500  0.14246300  1
  Cl  Cl0  1  0.37686000  0.05660700  0.96408200  1
  Cl  Cl1  1  0.36297300  0.86142700  0.46027400  1
  Cl  Cl2  1  0.75216200  0.90436200  0.73236500  1
  Cl  Cl3  1  0.25216200  0.09563800  0.76763500  1
  Cl  Cl4  1  0.72005000  0.51138100  0.16110900  1
  Cl  Cl5  1  0.12314000  0.05660700  0.46408200  1
  Cl  Cl6  1  0.74783800  0.90436200  0.23236500  1
  Cl  Cl7  1  0.86297300  0.13857300  0.03972600  1
  Cl  Cl8  1  0.16372900  0.25616800  0.03032000  1
  Cl  Cl9  1  0.87686000  0.94339300  0.53591800  1
  Cl  Cl10  1  0.13702700  0.86142700  0.96027400  1
  Cl  Cl11  1  0.62314000  0.94339300  0.03591800  1
  Cl  Cl12  1  0.66372900  0.74383200  0.46968000  1
  Cl  Cl13  1  0.63702700  0.13857300  0.53972600  1
  Cl  Cl14  1  0.27995000  0.48861900  0.83889100  1
  Cl  Cl15  1  0.22005000  0.48861900  0.33889100  1
  Cl  Cl16  1  0.33627100  0.25616800  0.53032000  1
  Cl  Cl17  1  0.83627100  0.74383200  0.96968000  1
  Cl  Cl18  1  0.77995000  0.51138100  0.66110900  1
  Cl  Cl19  1  0.24783800  0.09563800  0.26763500  1
loop_
_geom_bond_atom_site_label_1
_geom_bond_atom_site_label_2
_geom_bond_distance
_geom_bond_site_symmetry_2
N0 S10 1.562537 1_555
N0 S8 1.594381 1_455
N1 S0 1.663657 1_555
N1 S8 1.663980 1_455
N1 Sb1 2.228255 1_555
N2 S6 1.663657 1_555
N2 S1 1.663980 1_555
N2 Sb2 2.228255 1_555
N3 S13 1.561547 1_555
N3 S2 1.592641 1_555
N4 S2 1.663657 1_555
N4 S3 1.663980 1_655
N4 Sb0 2.228255 1_555
N5 S11 1.562537 1_555
N5 S3 1.594381 1_655
N6 S15 1.663657 1_555
N6 S4 1.663980 1_555
N6 Sb3 2.228255 1_555
N7 S11 1.588627 1_555
N7 S13 1.590017 1_555
N8 S9 1.562537 1_555
N8 S1 1.594381 1_555
N9 S14 1.562537 1_555
N9 S4 1.594381 1_555
N10 S14 1.588627 1_555
N10 S12 1.590017 1_555
N11 S12 1.561547 1_555
N11 S15 1.592641 1_555
N12 S10 1.588627 1_555
N12 S5 1.590017 1_555
N13 S7 1.561547 1_555
N13 S6 1.592641 1_555
N14 S5 1.561547 1_555
N14 S0 1.592641 1_555
N15 S9 1.588627 1_555
N15 S7 1.590017 1_555
Cl0 Sb1 2.391581 1_555
Cl1 Sb2 2.404817 1_565
Cl2 Sb3 2.416529 1_555
Cl3 Sb1 2.416529 1_555
Cl4 Sb0 2.419555 1_555
Cl5 Sb2 2.391581 1_555
Cl6 Sb0 2.416529 1_555
Cl7 Sb0 2.404817 1_545
Cl8 Sb1 2.413678 1_554
Cl9 Sb3 2.391581 1_555
Cl10 Sb1 2.404817 1_565
Cl11 Sb0 2.391581 1_555
Cl12 Sb3 2.413678 1_555
Cl13 Sb3 2.404817 1_545
Cl14 Sb1 2.419555 1_555
Cl15 Sb2 2.419555 1_555
Cl16 Sb2 2.413678 1_555
Cl17 Sb0 2.413678 1_556
Cl18 Sb3 2.419555 1_555
Cl19 Sb2 2.416529 1_555
