# generated using pymatgen
data_K2LaNb5O15
_symmetry_space_group_name_H-M   'P 1'
_cell_length_a   12.80775000
_cell_length_b   12.80775000
_cell_length_c   3.97715700
_cell_angle_alpha   90.00000000
_cell_angle_beta   90.00000000
_cell_angle_gamma   90.00000000
_symmetry_Int_Tables_number   1
_chemical_formula_structural   K2LaNb5O15
_chemical_formula_sum   'K4 La2 Nb10 O30'
_cell_volume   652.40670971
_cell_formula_units_Z   2
loop_
 _symmetry_equiv_pos_site_id
 _symmetry_equiv_pos_as_xyz
  1  'x, y, z'
loop_
 _atom_site_type_symbol
 _atom_site_label
 _atom_site_symmetry_multiplicity
 _atom_site_fract_x
 _atom_site_fract_y
 _atom_site_fract_z
 _atom_site_occupancy
  K  K0  1  0.67111800  0.17111800  0.50000000  1
  K  K1  1  0.32888200  0.82888200  0.50000000  1
  K  K2  1  0.82888200  0.67111800  0.50000000  1
  K  K3  1  0.17111800  0.32888200  0.50000000  1
  La  La0  1  0.50000000  0.50000000  0.50000000  1
  La  La1  1  0.00000000  0.00000000  0.50000000  1
  Nb  Nb0  1  0.71404300  0.42432800  0.00000000  1
  Nb  Nb1  1  0.42432800  0.28595700  0.00000000  1
  Nb  Nb2  1  0.00000000  0.50000000  0.00000000  1
  Nb  Nb3  1  0.57567200  0.71404300  0.00000000  1
  Nb  Nb4  1  0.78595700  0.92432800  0.00000000  1
  Nb  Nb5  1  0.21404300  0.07567200  0.00000000  1
  Nb  Nb6  1  0.92432800  0.21404300  0.00000000  1
  Nb  Nb7  1  0.28595700  0.57567200  0.00000000  1
  Nb  Nb8  1  0.07567200  0.78595700  0.00000000  1
  Nb  Nb9  1  0.50000000  0.00000000  0.00000000  1
  O  O0  1  0.63277500  0.56104200  0.00000000  1
  O  O1  1  0.86722500  0.06104200  0.00000000  1
  O  O2  1  0.42317100  0.30713100  0.50000000  1
  O  O3  1  0.56104200  0.36722500  0.00000000  1
  O  O4  1  0.21508100  0.71508100  0.00000000  1
  O  O5  1  0.50160200  0.15711200  0.00000000  1
  O  O6  1  0.15711200  0.49839800  0.00000000  1
  O  O7  1  0.65711200  0.00160200  0.00000000  1
  O  O8  1  0.28491900  0.21508100  0.00000000  1
  O  O9  1  0.84288800  0.50160200  0.00000000  1
  O  O10  1  0.34288800  0.99839800  0.00000000  1
  O  O11  1  0.13277500  0.93895800  0.00000000  1
  O  O12  1  0.36722500  0.43895800  0.00000000  1
  O  O13  1  0.19286900  0.07682900  0.50000000  1
  O  O14  1  0.71508100  0.78491900  0.00000000  1
  O  O15  1  0.99839800  0.65711200  0.00000000  1
  O  O16  1  0.57682900  0.69286900  0.50000000  1
  O  O17  1  0.69286900  0.42317100  0.50000000  1
  O  O18  1  0.00000000  0.50000000  0.50000000  1
  O  O19  1  0.06104200  0.13277500  0.00000000  1
  O  O20  1  0.07682900  0.80713100  0.50000000  1
  O  O21  1  0.92317100  0.19286900  0.50000000  1
  O  O22  1  0.30713100  0.57682900  0.50000000  1
  O  O23  1  0.43895800  0.63277500  0.00000000  1
  O  O24  1  0.00160200  0.34288800  0.00000000  1
  O  O25  1  0.78491900  0.28491900  0.00000000  1
  O  O26  1  0.80713100  0.92317100  0.50000000  1
  O  O27  1  0.93895800  0.86722500  0.00000000  1
  O  O28  1  0.50000000  0.00000000  0.50000000  1
  O  O29  1  0.49839800  0.84288800  0.00000000  1
loop_
_geom_bond_atom_site_label_1
_geom_bond_atom_site_label_2
_geom_bond_distance
_geom_bond_site_symmetry_2
K0 O25 2.864133 1_555
K0 O25 2.864133 1_556
K0 O7 2.949641 1_556
K0 O7 2.949641 1_555
K0 O5 2.949641 1_555
K0 O5 2.949641 1_556
K0 O28 3.099442 1_555
K0 O21 3.240230 1_555
K0 O17 3.240230 1_555
K1 O4 2.864133 1_555
K1 O4 2.864133 1_556
K1 O10 2.949641 1_555
K1 O10 2.949641 1_556
K1 O29 2.949641 1_555
K1 O29 2.949641 1_556
K1 O28 3.099442 1_565
K1 O22 3.240230 1_555
K1 O20 3.240230 1_555
K2 O14 2.864133 1_556
K2 O14 2.864133 1_555
K2 O9 2.949641 1_555
K2 O15 2.949641 1_556
K2 O15 2.949641 1_555
K2 O9 2.949641 1_556
K2 O18 3.099442 1_655
K2 O26 3.240230 1_555
K2 O16 3.240230 1_555
K3 O8 2.864133 1_556
K3 O8 2.864133 1_555
K3 O6 2.949641 1_556
K3 O6 2.949641 1_555
K3 O24 2.949641 1_556
K3 O24 2.949641 1_555
K3 O18 3.099442 1_555
K3 O2 3.240230 1_555
K3 O13 3.240230 1_555
La0 O16 2.658993 1_555
La0 O17 2.658993 1_555
La0 O2 2.658993 1_555
La0 O22 2.658993 1_555
La0 O12 2.730850 1_555
La0 O0 2.730850 1_555
La0 O3 2.730850 1_556
La0 O3 2.730850 1_555
La0 O0 2.730850 1_556
La0 O23 2.730850 1_556
La0 O23 2.730850 1_555
La0 O12 2.730850 1_556
La1 O26 2.658993 1_445
La1 O20 2.658993 1_545
La1 O13 2.658993 1_555
La1 O21 2.658993 1_455
La1 O27 2.730850 1_445
La1 O1 2.730850 1_456
La1 O1 2.730850 1_455
La1 O27 2.730850 1_446
La1 O11 2.730850 1_546
La1 O19 2.730850 1_555
La1 O19 2.730850 1_556
La1 O11 2.730850 1_545
Nb0 O9 1.924247 1_555
Nb0 O25 2.003022 1_555
Nb0 O17 2.007040 1_555
Nb0 O17 2.007040 1_554
Nb0 O0 2.037004 1_555
Nb0 O3 2.091630 1_555
Nb1 O5 1.924247 1_555
Nb1 O8 2.003022 1_555
Nb1 O2 2.007040 1_554
Nb1 O2 2.007040 1_555
Nb1 O3 2.037004 1_555
Nb1 O12 2.091630 1_555
Nb2 O18 1.988579 1_555
Nb2 O18 1.988579 1_554
Nb2 O24 2.012356 1_555
Nb2 O15 2.012356 1_455
Nb2 O9 2.012356 1_455
Nb2 O6 2.012356 1_555
Nb3 O29 1.924247 1_555
Nb3 O14 2.003022 1_555
Nb3 O16 2.007040 1_555
Nb3 O16 2.007040 1_554
Nb3 O23 2.037004 1_555
Nb3 O0 2.091630 1_555
Nb4 O7 1.924247 1_565
Nb4 O14 2.003022 1_555
Nb4 O26 2.007040 1_555
Nb4 O26 2.007040 1_554
Nb4 O1 2.037004 1_565
Nb4 O27 2.091630 1_555
Nb5 O10 1.924247 1_545
Nb5 O8 2.003022 1_555
Nb5 O13 2.007040 1_555
Nb5 O13 2.007040 1_554
Nb5 O11 2.037004 1_545
Nb5 O19 2.091630 1_555
Nb6 O24 1.924247 1_655
Nb6 O25 2.003022 1_555
Nb6 O21 2.007040 1_555
Nb6 O21 2.007040 1_554
Nb6 O19 2.037004 1_655
Nb6 O1 2.091630 1_555
Nb7 O6 1.924247 1_555
Nb7 O4 2.003022 1_555
Nb7 O22 2.007040 1_555
Nb7 O22 2.007040 1_554
Nb7 O12 2.037004 1_555
Nb7 O23 2.091630 1_555
Nb8 O15 1.924247 1_455
Nb8 O4 2.003022 1_555
Nb8 O20 2.007040 1_554
Nb8 O20 2.007040 1_555
Nb8 O27 2.037004 1_455
Nb8 O11 2.091630 1_555
Nb9 O28 1.988579 1_554
Nb9 O28 1.988579 1_555
Nb9 O10 2.012356 1_545
Nb9 O5 2.012356 1_555
Nb9 O29 2.012356 1_545
Nb9 O7 2.012356 1_555
