# generated using pymatgen
data_Mo2NCl7
_symmetry_space_group_name_H-M   'P 1'
_cell_length_a   9.21235175
_cell_length_b   10.07045176
_cell_length_c   13.23391115
_cell_angle_alpha   101.65317073
_cell_angle_beta   108.67747949
_cell_angle_gamma   101.55630190
_symmetry_Int_Tables_number   1
_chemical_formula_structural   Mo2NCl7
_chemical_formula_sum   'Mo8 N4 Cl28'
_cell_volume   1091.65549295
_cell_formula_units_Z   4
loop_
 _symmetry_equiv_pos_site_id
 _symmetry_equiv_pos_as_xyz
  1  'x, y, z'
loop_
 _atom_site_type_symbol
 _atom_site_label
 _atom_site_symmetry_multiplicity
 _atom_site_fract_x
 _atom_site_fract_y
 _atom_site_fract_z
 _atom_site_occupancy
  Mo  Mo0  1  0.05818700  0.93900539  0.72920376  1
  Mo  Mo1  1  0.94181300  0.06099461  0.27079624  1
  Mo  Mo2  1  0.84650798  0.57183829  0.67638008  1
  Mo  Mo3  1  0.15349202  0.42816171  0.32361992  1
  Mo  Mo4  1  0.61546018  0.40119271  0.81987386  1
  Mo  Mo5  1  0.38453982  0.59880729  0.18012614  1
  Mo  Mo6  1  0.47320397  0.10986112  0.77022010  1
  Mo  Mo7  1  0.52679603  0.89013888  0.22977990  1
  N  N0  1  0.25099899  0.01285181  0.75315075  1
  N  N1  1  0.74900101  0.98714819  0.24684925  1
  N  N2  1  0.74733438  0.49803162  0.74729045  1
  N  N3  1  0.25266562  0.50196838  0.25270955  1
  Cl  Cl0  1  0.94038739  0.05342670  0.61153578  1
  Cl  Cl1  1  0.05961261  0.94657330  0.38846422  1
  Cl  Cl2  1  0.04254985  0.06898017  0.88552597  1
  Cl  Cl3  1  0.95745015  0.93101983  0.11447403  1
  Cl  Cl4  1  0.02341230  0.73806739  0.58369018  1
  Cl  Cl5  1  0.97658770  0.26193261  0.41630982  1
  Cl  Cl6  1  0.08088436  0.75663842  0.83557776  1
  Cl  Cl7  1  0.91911564  0.24336158  0.16442224  1
  Cl  Cl8  1  0.74476445  0.77167844  0.68310437  1
  Cl  Cl9  1  0.25523555  0.22832156  0.31689563  1
  Cl  Cl10  1  0.02772585  0.44597968  0.68751782  1
  Cl  Cl11  1  0.97227415  0.55402032  0.31248218  1
  Cl  Cl12  1  0.67797764  0.45424053  0.50046829  1
  Cl  Cl13  1  0.32202236  0.54575947  0.49953171  1
  Cl  Cl14  1  0.49379189  0.57647443  0.81197344  1
  Cl  Cl15  1  0.50620811  0.42352557  0.18802656  1
  Cl  Cl16  1  0.80650988  0.49639715  0.99267614  1
  Cl  Cl17  1  0.19349012  0.50360285  0.00732386  1
  Cl  Cl18  1  0.73860537  0.21948227  0.77256872  1
  Cl  Cl19  1  0.26139463  0.78051773  0.22743128  1
  Cl  Cl20  1  0.38998061  0.25678188  0.64290336  1
  Cl  Cl21  1  0.61001939  0.74321812  0.35709664  1
  Cl  Cl22  1  0.43405377  0.29122605  0.90125254  1
  Cl  Cl23  1  0.56594623  0.70877395  0.09874746  1
  Cl  Cl24  1  0.43118691  0.93748606  0.61488771  1
  Cl  Cl25  1  0.56881309  0.06251394  0.38511229  1
  Cl  Cl26  1  0.58961248  0.01118060  0.90172974  1
  Cl  Cl27  1  0.41038752  0.98881940  0.09827026  1
loop_
_geom_bond_atom_site_label_1
_geom_bond_atom_site_label_2
_geom_bond_distance
_geom_bond_site_symmetry_2
Mo0 N0 1.680342 1_565
Mo1 N1 1.680342 1_545
Mo2 N2 1.681251 1_555
Mo3 N3 1.681251 1_555
Mo4 N2 2.000196 1_555
Mo5 N3 2.000196 1_555
Mo6 N0 2.002296 1_555
Mo7 N1 2.002296 1_555
Cl0 Mo0 2.252519 1_645
Cl1 Mo1 2.252519 1_465
Cl2 Mo0 2.277337 1_545
Cl3 Mo1 2.277337 1_565
Cl4 Mo0 2.382575 1_555
Cl4 Mo2 2.824842 1_455
Cl5 Mo1 2.382575 1_555
Cl5 Mo3 2.824842 1_655
Cl6 Mo0 2.531404 1_555
Cl6 Mo2 2.540991 1_455
Cl7 Mo1 2.531404 1_555
Cl7 Mo3 2.540991 1_655
Cl8 Mo2 2.381882 1_555
Cl8 Mo0 2.838236 1_655
Cl9 Mo3 2.381882 1_555
Cl9 Mo1 2.838236 1_455
Cl10 Mo2 2.276147 1_455
Cl11 Mo3 2.276147 1_655
Cl12 Mo2 2.251037 1_555
Cl13 Mo3 2.251037 1_555
Cl14 Mo4 2.274918 1_555
Cl15 Mo5 2.274918 1_555
Cl16 Mo4 2.259839 1_555
Cl17 Mo5 2.259839 1_555
Cl18 Mo4 2.418948 1_555
Cl18 Mo6 2.460400 1_555
Cl19 Mo5 2.418948 1_555
Cl19 Mo7 2.460400 1_555
Cl20 Mo4 2.492516 1_555
Cl20 Mo6 2.499995 1_555
Cl21 Mo5 2.492516 1_555
Cl21 Mo7 2.499995 1_555
Cl22 Mo6 2.420324 1_555
Cl22 Mo4 2.464158 1_555
Cl23 Mo7 2.420324 1_555
Cl23 Mo5 2.464158 1_555
Cl24 Mo6 2.273432 1_565
Cl25 Mo7 2.273432 1_545
Cl26 Mo6 2.257613 1_555
Cl27 Mo7 2.257613 1_555
