# generated using pymatgen
data_CeF3
_symmetry_space_group_name_H-M   'P 1'
_cell_length_a   7.10749571
_cell_length_b   7.11025670
_cell_length_c   7.22845846
_cell_angle_alpha   90.00000000
_cell_angle_beta   90.00000000
_cell_angle_gamma   119.95460498
_symmetry_Int_Tables_number   1
_chemical_formula_structural   CeF3
_chemical_formula_sum   'Ce6 F18'
_cell_volume   316.50216562
_cell_formula_units_Z   6
loop_
 _symmetry_equiv_pos_site_id
 _symmetry_equiv_pos_as_xyz
  1  'x, y, z'
loop_
 _atom_site_type_symbol
 _atom_site_label
 _atom_site_symmetry_multiplicity
 _atom_site_fract_x
 _atom_site_fract_y
 _atom_site_fract_z
 _atom_site_occupancy
  Ce  Ce0  1  0.66645164  0.00011192  0.75000000  1
  Ce  Ce1  1  0.33354836  -0.00011192  0.25000000  1
  Ce  Ce2  1  0.99814485  0.66600749  0.75000000  1
  Ce  Ce3  1  0.66779360  0.66793591  0.25000000  1
  Ce  Ce4  1  0.00185515  0.33399251  0.25000000  1
  Ce  Ce5  1  0.33220640  0.33206409  0.75000000  1
  F  F0  1  0.33334654  0.00117830  0.57914317  1
  F  F1  1  0.66665346  -0.00117830  0.07914317  1
  F  F2  1  0.66665346  -0.00117830  0.42085683  1
  F  F3  1  0.00100941  0.00053843  0.25000000  1
  F  F4  1  0.33261418  0.33381614  0.42091811  1
  F  F5  1  0.00158490  0.66777384  0.07915862  1
  F  F6  1  0.66735649  0.33371401  0.25000000  1
  F  F7  1  0.66738582  0.66618386  0.57908189  1
  F  F8  1  0.66588727  0.33296605  0.75000000  1
  F  F9  1  -0.00158490  0.33222616  0.92084138  1
  F  F10  1  0.66738582  0.66618386  0.92091811  1
  F  F11  1  0.33261418  0.33381614  0.07908189  1
  F  F12  1  0.00158490  0.66777384  0.42084138  1
  F  F13  1  0.33411273  0.66703395  0.25000000  1
  F  F14  1  -0.00158490  0.33222616  0.57915862  1
  F  F15  1  0.33334654  0.00117830  0.92085683  1
  F  F16  1  0.33264351  0.66628599  0.75000000  1
  F  F17  1  -0.00100941  -0.00053843  0.75000000  1
loop_
_geom_bond_atom_site_label_1
_geom_bond_atom_site_label_2
_geom_bond_distance
_geom_bond_site_symmetry_2
Ce0 F17 2.365831 1_655
Ce0 F8 2.368684 1_555
Ce0 F16 2.374692 1_545
Ce0 F1 2.379219 1_556
Ce0 F2 2.379219 1_555
Ce0 F14 2.665385 1_655
Ce0 F9 2.665385 1_655
Ce0 F15 2.673677 1_555
Ce0 F0 2.673677 1_555
Ce0 F7 2.679469 1_545
Ce0 F10 2.679469 1_545
Ce1 F3 2.365831 1_555
Ce1 F13 2.368684 1_545
Ce1 F6 2.374692 1_555
Ce1 F15 2.379219 1_554
Ce1 F0 2.379219 1_555
Ce1 F5 2.665385 1_545
Ce1 F12 2.665385 1_545
Ce1 F1 2.673677 1_555
Ce1 F2 2.673677 1_555
Ce1 F11 2.679469 1_555
Ce1 F4 2.679469 1_555
Ce2 F8 2.366394 1_555
Ce2 F17 2.367948 1_665
Ce2 F16 2.376460 1_655
Ce2 F12 2.379404 1_655
Ce2 F5 2.379404 1_656
Ce2 F10 2.656299 1_555
Ce2 F7 2.656299 1_555
Ce2 F9 2.676191 1_655
Ce2 F14 2.676191 1_655
Ce2 F15 2.685297 1_665
Ce2 F0 2.685297 1_665
Ce3 F3 2.368235 1_665
Ce3 F13 2.368440 1_555
Ce3 F6 2.374854 1_555
Ce3 F7 2.378782 1_555
Ce3 F10 2.378782 1_554
Ce3 F1 2.660738 1_565
Ce3 F2 2.660738 1_565
Ce3 F12 2.675096 1_655
Ce3 F5 2.675096 1_655
Ce3 F11 2.682117 1_555
Ce3 F4 2.682117 1_555
Ce4 F13 2.366394 1_555
Ce4 F3 2.367948 1_555
Ce4 F6 2.376460 1_455
Ce4 F14 2.379404 1_555
Ce4 F9 2.379404 1_554
Ce4 F4 2.656299 1_555
Ce4 F11 2.656299 1_555
Ce4 F5 2.676191 1_555
Ce4 F12 2.676191 1_555
Ce4 F1 2.685297 1_455
Ce4 F2 2.685297 1_455
Ce5 F17 2.368235 1_555
Ce5 F8 2.368440 1_555
Ce5 F16 2.374854 1_555
Ce5 F4 2.378782 1_555
Ce5 F11 2.378782 1_556
Ce5 F15 2.660738 1_555
Ce5 F0 2.660738 1_555
Ce5 F9 2.675096 1_555
Ce5 F14 2.675096 1_555
Ce5 F7 2.682117 1_555
Ce5 F10 2.682117 1_555
