# generated using pymatgen
data_Li4CO4
_symmetry_space_group_name_H-M   'P 1'
_cell_length_a   5.11744650
_cell_length_b   5.11744650
_cell_length_c   7.43516973
_cell_angle_alpha   88.66704045
_cell_angle_beta   88.66704045
_cell_angle_gamma   48.09713249
_symmetry_Int_Tables_number   1
_chemical_formula_structural   Li4CO4
_chemical_formula_sum   'Li4 C1 O4'
_cell_volume   144.87445314
_cell_formula_units_Z   1
loop_
 _symmetry_equiv_pos_site_id
 _symmetry_equiv_pos_as_xyz
  1  'x, y, z'
loop_
 _atom_site_type_symbol
 _atom_site_label
 _atom_site_symmetry_multiplicity
 _atom_site_fract_x
 _atom_site_fract_y
 _atom_site_fract_z
 _atom_site_occupancy
  Li  Li0  1  0.86800100  0.78199900  0.02643200  1
  Li  Li1  1  0.76148700  0.26180800  0.19987900  1
  Li  Li2  1  0.73819200  0.23851300  0.80012100  1
  Li  Li3  1  0.21800100  0.13199900  0.97356800  1
  C  C0  1  0.38262400  0.61737600  0.00000000  1
  O  O0  1  0.19142000  0.79230100  0.84319000  1
  O  O1  1  0.20769900  0.80858000  0.15681000  1
  O  O2  1  0.46139600  0.28899200  0.01439000  1
  O  O3  1  0.71100800  0.53860400  0.98561000  1
loop_
_geom_bond_atom_site_label_1
_geom_bond_atom_site_label_2
_geom_bond_distance
_geom_bond_site_symmetry_2
Li0 O3 1.911699 1_554
Li0 O2 1.963638 1_565
Li0 O1 2.092986 1_655
Li0 O0 2.146298 1_654
Li0 O2 2.314931 1_655
Li1 O1 1.903267 1_645
Li1 O3 2.009133 1_554
Li1 O2 2.020893 1_555
Li1 O1 2.317704 1_555
Li2 O0 1.903267 1_645
Li2 O2 2.009133 1_556
Li2 O3 2.020893 1_555
Li2 O0 2.317704 1_555
Li3 O2 1.911699 1_556
Li3 O3 1.963638 1_455
Li3 O0 2.092986 1_545
Li3 O1 2.146298 1_546
Li3 O3 2.314931 1_545
C0 O0 1.397365 1_554
C0 O1 1.397365 1_555
C0 O2 1.444564 1_555
C0 O3 1.444564 1_554
C0 Li1 2.138800 1_555
C0 Li2 2.138800 1_554
C0 Li0 2.168885 1_455
C0 Li3 2.168885 1_564
