# generated using pymatgen
data_BaHgO2
_symmetry_space_group_name_H-M   'P 1'
_cell_length_a   6.98173176
_cell_length_b   6.98173176
_cell_length_c   12.67976000
_cell_angle_alpha   90.00000000
_cell_angle_beta   90.00000000
_cell_angle_gamma   119.99999775
_symmetry_Int_Tables_number   1
_chemical_formula_structural   BaHgO2
_chemical_formula_sum   'Ba6 Hg6 O12'
_cell_volume   535.26394846
_cell_formula_units_Z   6
loop_
 _symmetry_equiv_pos_site_id
 _symmetry_equiv_pos_as_xyz
  1  'x, y, z'
loop_
 _atom_site_type_symbol
 _atom_site_label
 _atom_site_symmetry_multiplicity
 _atom_site_fract_x
 _atom_site_fract_y
 _atom_site_fract_z
 _atom_site_occupancy
  Ba  Ba0  1  0.33333300  0.66666700  0.96747000  1
  Ba  Ba1  1  0.66666700  0.33333300  0.46747000  1
  Ba  Ba2  1  0.00000000  0.00000000  0.50000000  1
  Ba  Ba3  1  0.33333300  0.66666700  0.53253000  1
  Ba  Ba4  1  0.66666700  0.33333300  0.03253000  1
  Ba  Ba5  1  0.00000000  0.00000000  0.00000000  1
  Hg  Hg0  1  0.17484100  0.82515900  0.25000000  1
  Hg  Hg1  1  0.65031700  0.82515900  0.25000000  1
  Hg  Hg2  1  0.82515900  0.17484100  0.75000000  1
  Hg  Hg3  1  0.34968300  0.17484100  0.75000000  1
  Hg  Hg4  1  0.82515900  0.65031700  0.75000000  1
  Hg  Hg5  1  0.17484100  0.34968300  0.25000000  1
  O  O0  1  0.65010700  0.68736200  0.10978900  1
  O  O1  1  0.68736200  0.65010700  0.89021100  1
  O  O2  1  0.03725500  0.34989300  0.10978900  1
  O  O3  1  0.34989300  0.03725500  0.89021100  1
  O  O4  1  0.68736200  0.03725500  0.60978900  1
  O  O5  1  0.31263800  0.96274500  0.10978900  1
  O  O6  1  0.03725500  0.68736200  0.39021100  1
  O  O7  1  0.65010700  0.96274500  0.39021100  1
  O  O8  1  0.96274500  0.65010700  0.60978900  1
  O  O9  1  0.96274500  0.31263800  0.89021100  1
  O  O10  1  0.34989300  0.31263800  0.60978900  1
  O  O11  1  0.31263800  0.34989300  0.39021100  1
loop_
_geom_bond_atom_site_label_1
_geom_bond_atom_site_label_2
_geom_bond_distance
_geom_bond_site_symmetry_2
Ba0 O3 2.714452 1_565
Ba0 O9 2.714455 1_455
Ba0 O1 2.714459 1_555
Ba0 O5 2.801621 1_556
Ba0 O2 2.801624 1_556
Ba0 O0 2.801627 1_556
Ba1 O7 2.714452 1_545
Ba1 O6 2.714455 1_655
Ba1 O11 2.714459 1_555
Ba1 O4 2.801621 1_555
Ba1 O8 2.801624 1_555
Ba1 O10 2.801627 1_555
Ba2 O4 2.708829 1_455
Ba2 O6 2.708829 1_545
Ba2 O8 2.708829 1_445
Ba2 O7 2.708829 1_445
Ba2 O10 2.708829 1_555
Ba2 O11 2.708829 1_555
Ba3 O8 2.714452 1_455
Ba3 O4 2.714455 1_565
Ba3 O10 2.714459 1_555
Ba3 O6 2.801621 1_555
Ba3 O7 2.801624 1_555
Ba3 O11 2.801627 1_555
Ba4 O2 2.714452 1_655
Ba4 O5 2.714455 1_545
Ba4 O0 2.714459 1_555
Ba4 O9 2.801621 1_554
Ba4 O3 2.801624 1_554
Ba4 O1 2.801627 1_554
Ba5 O9 2.708829 1_454
Ba5 O5 2.708829 1_545
Ba5 O2 2.708829 1_555
Ba5 O3 2.708829 1_554
Ba5 O0 2.708829 1_445
Ba5 O1 2.708829 1_444
Hg0 O5 2.021106 1_555
Hg0 O6 2.021106 1_555
Hg1 O7 2.021104 1_555
Hg1 O0 2.021108 1_555
Hg2 O9 2.021106 1_555
Hg2 O4 2.021106 1_555
Hg3 O3 2.021104 1_555
Hg3 O10 2.021108 1_555
Hg4 O8 2.021104 1_555
Hg4 O1 2.021108 1_555
Hg5 O2 2.021104 1_555
Hg5 O11 2.021108 1_555
