# generated using pymatgen
data_Li3Fe2(PO4)3
_symmetry_space_group_name_H-M   'P 1'
_cell_length_a   8.79904200
_cell_length_b   8.47191400
_cell_length_c   12.30617389
_cell_angle_alpha   87.53286288
_cell_angle_beta   90.00000000
_cell_angle_gamma   90.00000000
_symmetry_Int_Tables_number   1
_chemical_formula_structural   Li3Fe2(PO4)3
_chemical_formula_sum   'Li12 Fe8 P12 O48'
_cell_volume   916.51005085
_cell_formula_units_Z   4
loop_
 _symmetry_equiv_pos_site_id
 _symmetry_equiv_pos_as_xyz
  1  'x, y, z'
loop_
 _atom_site_type_symbol
 _atom_site_label
 _atom_site_symmetry_multiplicity
 _atom_site_fract_x
 _atom_site_fract_y
 _atom_site_fract_z
 _atom_site_occupancy
  Li  Li0  1  0.19166800  0.70907900  0.95291100  1
  Li  Li1  1  0.80833200  0.29092100  0.04708900  1
  Li  Li2  1  0.40274000  0.50000000  0.25000000  1
  Li  Li3  1  0.09732400  0.00000000  0.25000000  1
  Li  Li4  1  0.80833200  0.70907900  0.45291100  1
  Li  Li5  1  0.59726000  0.50000000  0.75000000  1
  Li  Li6  1  0.19166800  0.29092100  0.54708900  1
  Li  Li7  1  0.50000000  0.50000000  0.00000000  1
  Li  Li8  1  0.00000000  0.00000000  0.50000000  1
  Li  Li9  1  0.90267600  0.00000000  0.75000000  1
  Li  Li10  1  0.00000000  0.00000000  0.00000000  1
  Li  Li11  1  0.50000000  0.50000000  0.50000000  1
  Fe  Fe0  1  0.99495300  0.28705800  0.35721100  1
  Fe  Fe1  1  0.00504700  0.71294200  0.64278900  1
  Fe  Fe2  1  0.99495300  0.71294200  0.14278900  1
  Fe  Fe3  1  0.00504700  0.28705800  0.85721100  1
  Fe  Fe4  1  0.49962900  0.78978700  0.35507900  1
  Fe  Fe5  1  0.50037100  0.21021300  0.64492100  1
  Fe  Fe6  1  0.49962900  0.21021300  0.14492100  1
  Fe  Fe7  1  0.50037100  0.78978700  0.85507900  1
  P  P0  1  0.29361400  0.50000000  0.75000000  1
  P  P1  1  0.70638600  0.50000000  0.25000000  1
  P  P2  1  0.14761200  0.64941100  0.39756900  1
  P  P3  1  0.79804600  0.00000000  0.25000000  1
  P  P4  1  0.64340300  0.15640700  0.89489300  1
  P  P5  1  0.64340300  0.84359300  0.60510700  1
  P  P6  1  0.14761200  0.35058900  0.10243100  1
  P  P7  1  0.85238800  0.35058900  0.60243100  1
  P  P8  1  0.20195400  0.00000000  0.75000000  1
  P  P9  1  0.35659700  0.15640700  0.39489300  1
  P  P10  1  0.85238800  0.64941100  0.89756900  1
  P  P11  1  0.35659700  0.84359300  0.10510700  1
  O  O0  1  0.06090100  0.24976500  0.01900500  1
  O  O1  1  0.89492200  0.47234200  0.91121000  1
  O  O2  1  0.90234900  0.27703600  0.71391300  1
  O  O3  1  0.39986800  0.57019900  0.83743900  1
  O  O4  1  0.70316600  0.87064300  0.30888400  1
  O  O5  1  0.82011000  0.14012300  0.90908900  1
  O  O6  1  0.58972000  0.74476400  0.50826000  1
  O  O7  1  0.90794300  0.06553500  0.33775400  1
  O  O8  1  0.06090100  0.75023500  0.48099500  1
  O  O9  1  0.41972500  0.01086500  0.10631500  1
  O  O10  1  0.41028000  0.74476400  0.00826000  1
  O  O11  1  0.17989000  0.85987700  0.09091100  1
  O  O12  1  0.82011000  0.85987700  0.59091100  1
  O  O13  1  0.80625800  0.37976300  0.31228000  1
  O  O14  1  0.70316600  0.12935700  0.19111600  1
  O  O15  1  0.59705300  0.74937100  0.71018600  1
  O  O16  1  0.39986800  0.42980100  0.66256100  1
  O  O17  1  0.59705300  0.25062900  0.78981400  1
  O  O18  1  0.41972500  0.98913500  0.39368500  1
  O  O19  1  0.32288700  0.34836900  0.08809800  1
  O  O20  1  0.09765100  0.27703600  0.21391300  1
  O  O21  1  0.58027500  0.01086500  0.60631500  1
  O  O22  1  0.60013200  0.57019900  0.33743900  1
  O  O23  1  0.29683400  0.12935700  0.69111600  1
  O  O24  1  0.19374200  0.37976300  0.81228000  1
  O  O25  1  0.10507800  0.52765800  0.08879000  1
  O  O26  1  0.58972000  0.25523600  0.99174000  1
  O  O27  1  0.93909900  0.75023500  0.98099500  1
  O  O28  1  0.09765100  0.72296400  0.28608700  1
  O  O29  1  0.41028000  0.25523600  0.49174000  1
  O  O30  1  0.09205700  0.06553500  0.83775400  1
  O  O31  1  0.17989000  0.14012300  0.40908900  1
  O  O32  1  0.67711300  0.34836900  0.58809800  1
  O  O33  1  0.40294700  0.74937100  0.21018600  1
  O  O34  1  0.40294700  0.25062900  0.28981400  1
  O  O35  1  0.09205700  0.93446500  0.66224600  1
  O  O36  1  0.58027500  0.98913500  0.89368500  1
  O  O37  1  0.60013200  0.42980100  0.16256100  1
  O  O38  1  0.32288700  0.65163100  0.41190200  1
  O  O39  1  0.90234900  0.72296400  0.78608700  1
  O  O40  1  0.80625800  0.62023700  0.18772000  1
  O  O41  1  0.10507800  0.47234200  0.41121000  1
  O  O42  1  0.93909900  0.24976500  0.51900500  1
  O  O43  1  0.19374200  0.62023700  0.68772000  1
  O  O44  1  0.29683400  0.87064300  0.80888400  1
  O  O45  1  0.67711300  0.65163100  0.91190200  1
  O  O46  1  0.89492200  0.52765800  0.58879000  1
  O  O47  1  0.90794300  0.93446500  0.16224600  1
loop_
_geom_bond_atom_site_label_1
_geom_bond_atom_site_label_2
_geom_bond_distance
_geom_bond_site_symmetry_2
Li0 O10 2.067176 1_556
Li0 O11 2.171109 1_556
Li0 O27 2.278222 1_455
Li0 O25 2.348967 1_556
Li0 O44 2.379580 1_555
Li1 O26 2.067176 1_554
Li1 O5 2.171109 1_554
Li1 O0 2.278222 1_655
Li1 O1 2.348967 1_554
Li1 O14 2.379580 1_555
Li2 O22 2.140872 1_555
Li2 O37 2.140872 1_555
Li2 O34 2.148077 1_555
Li2 O33 2.148077 1_555
Li2 O38 2.516720 1_555
Li2 O19 2.516720 1_555
Li3 O47 2.074340 1_445
Li3 O7 2.074340 1_455
Li3 O20 2.369814 1_555
Li3 O28 2.369814 1_545
Li3 O31 2.443361 1_555
Li3 O11 2.443361 1_545
Li4 O6 2.067176 1_555
Li4 O12 2.171109 1_555
Li4 O8 2.278222 1_655
Li4 O46 2.348967 1_555
Li4 O4 2.379580 1_555
Li5 O3 2.140872 1_555
Li5 O16 2.140872 1_555
Li5 O17 2.148077 1_555
Li5 O15 2.148077 1_555
Li5 O45 2.516720 1_555
Li5 O32 2.516720 1_555
Li6 O29 2.067176 1_555
Li6 O31 2.171109 1_555
Li6 O42 2.278222 1_455
Li6 O41 2.348967 1_555
Li6 O23 2.379580 1_555
Li7 O10 2.225221 1_555
Li7 O26 2.225221 1_554
Li7 O37 2.242667 1_555
Li7 O3 2.242667 1_554
Li7 O45 2.265916 1_554
Li7 O19 2.265916 1_555
Li8 O35 2.203511 1_545
Li8 O7 2.203511 1_455
Li8 O8 2.204964 1_545
Li8 O42 2.204964 1_455
Li8 O12 2.247660 1_445
Li8 O31 2.247660 1_555
Li9 O35 2.074340 1_645
Li9 O30 2.074340 1_655
Li9 O2 2.369814 1_555
Li9 O39 2.369814 1_545
Li9 O5 2.443361 1_555
Li9 O12 2.443361 1_545
Li10 O30 2.203511 1_554
Li10 O47 2.203511 1_445
Li10 O0 2.204964 1_555
Li10 O27 2.204964 1_444
Li10 O11 2.247660 1_545
Li10 O5 2.247660 1_454
Li11 O6 2.225221 1_555
Li11 O29 2.225221 1_555
Li11 O16 2.242667 1_555
Li11 O22 2.242667 1_555
Li11 O38 2.265916 1_555
Li11 O32 2.265916 1_555
Fe0 O13 1.908374 1_555
Fe0 O41 1.983515 1_655
Fe0 O20 1.986562 1_655
Fe0 O7 2.050430 1_555
Fe0 O42 2.061926 1_555
Fe0 O31 2.129963 1_655
Fe1 O43 1.908374 1_555
Fe1 O46 1.983515 1_455
Fe1 O39 1.986562 1_455
Fe1 O35 2.050430 1_555
Fe1 O8 2.061926 1_555
Fe1 O12 2.129963 1_455
Fe2 O40 1.908374 1_555
Fe2 O25 1.983515 1_655
Fe2 O28 1.986562 1_655
Fe2 O47 2.050430 1_555
Fe2 O27 2.061926 1_554
Fe2 O11 2.129963 1_655
Fe3 O24 1.908374 1_555
Fe3 O1 1.983515 1_455
Fe3 O2 1.986562 1_455
Fe3 O30 2.050430 1_555
Fe3 O0 2.061926 1_556
Fe3 O5 2.129963 1_455
Fe4 O18 1.908233 1_555
Fe4 O4 1.991560 1_555
Fe4 O33 2.018136 1_555
Fe4 O38 2.051094 1_555
Fe4 O6 2.065304 1_555
Fe4 O22 2.079606 1_555
Fe5 O21 1.908233 1_555
Fe5 O23 1.991560 1_555
Fe5 O17 2.018136 1_555
Fe5 O32 2.051094 1_555
Fe5 O29 2.065304 1_555
Fe5 O16 2.079606 1_555
Fe6 O9 1.908233 1_555
Fe6 O14 1.991560 1_555
Fe6 O34 2.018136 1_555
Fe6 O19 2.051094 1_555
Fe6 O26 2.065304 1_554
Fe6 O37 2.079606 1_555
Fe7 O36 1.908233 1_555
Fe7 O44 1.991560 1_555
Fe7 O15 2.018136 1_555
Fe7 O45 2.051094 1_555
Fe7 O10 2.065304 1_556
Fe7 O3 2.079606 1_555
O0 P6 1.562452 1_555
O1 P10 1.548195 1_555
O2 P7 1.545998 1_555
O3 P0 1.562289 1_555
O4 P3 1.534506 1_565
O5 P4 1.570045 1_555
O6 P5 1.559000 1_555
O7 P3 1.568808 1_555
O8 P2 1.562452 1_555
O9 P11 1.522757 1_545
O10 P11 1.559000 1_555
O11 P11 1.570045 1_555
O12 P5 1.570045 1_555
O13 P1 1.526457 1_555
O14 P3 1.534506 1_555
O15 P5 1.544931 1_555
O16 P0 1.562289 1_555
O17 P4 1.544931 1_555
O18 P9 1.522757 1_565
O19 P6 1.552512 1_555
O20 P6 1.545998 1_555
O21 P5 1.522757 1_545
O22 P1 1.562289 1_555
O23 P8 1.534506 1_555
O24 P0 1.526457 1_555
O25 P6 1.548195 1_555
O26 P4 1.559000 1_555
O27 P10 1.562452 1_555
O28 P2 1.545998 1_555
O29 P9 1.559000 1_555
O30 P8 1.568808 1_555
O31 P9 1.570045 1_555
O32 P7 1.552512 1_555
O33 P11 1.544931 1_555
O34 P9 1.544931 1_555
O35 P8 1.568808 1_565
O36 P4 1.522757 1_565
O37 P1 1.562289 1_555
O38 P2 1.552512 1_555
O39 P10 1.545998 1_555
O40 P1 1.526457 1_555
O41 P2 1.548195 1_555
O42 P7 1.562452 1_555
O43 P0 1.526457 1_555
O44 P8 1.534506 1_565
O45 P10 1.552512 1_555
O46 P7 1.548195 1_555
O47 P3 1.568808 1_565
