# generated using pymatgen
data_U(Al2Cr)4
_symmetry_space_group_name_H-M   'P 1'
_cell_length_a   6.75254880
_cell_length_b   6.75254880
_cell_length_c   6.75254880
_cell_angle_alpha   97.87261603
_cell_angle_beta   97.87261603
_cell_angle_gamma   136.55691129
_symmetry_Int_Tables_number   1
_chemical_formula_structural   U(Al2Cr)4
_chemical_formula_sum   'U1 Al8 Cr4'
_cell_volume   196.68581023
_cell_formula_units_Z   1
loop_
 _symmetry_equiv_pos_site_id
 _symmetry_equiv_pos_as_xyz
  1  'x, y, z'
loop_
 _atom_site_type_symbol
 _atom_site_label
 _atom_site_symmetry_multiplicity
 _atom_site_fract_x
 _atom_site_fract_y
 _atom_site_fract_z
 _atom_site_occupancy
  U  U0  1  0.00000000  0.00000000  0.00000000  1
  Al  Al0  1  0.34186800  0.00000000  0.34186800  1
  Al  Al1  1  0.00000000  0.34186800  0.34186800  1
  Al  Al2  1  0.00000000  0.65813200  0.65813200  1
  Al  Al3  1  0.65813200  0.00000000  0.65813200  1
  Al  Al4  1  0.28321100  0.50000000  0.78321100  1
  Al  Al5  1  0.50000000  0.28321100  0.78321100  1
  Al  Al6  1  0.50000000  0.71678900  0.21678900  1
  Al  Al7  1  0.71678900  0.50000000  0.21678900  1
  Cr  Cr0  1  0.50000000  0.50000000  0.50000000  1
  Cr  Cr1  1  0.00000000  0.50000000  0.00000000  1
  Cr  Cr2  1  0.50000000  0.00000000  0.00000000  1
  Cr  Cr3  1  0.00000000  0.00000000  0.50000000  1
loop_
_geom_bond_atom_site_label_1
_geom_bond_atom_site_label_2
_geom_bond_distance
_geom_bond_site_symmetry_2
Al0 Cr1 2.672925 1_545
Al0 Cr3 2.672925 1_555
Al0 Cr0 2.672925 1_555
Al0 Cr2 2.672925 1_555
Al0 Al7 2.734364 1_445
Al0 Al7 2.734364 1_555
Al0 Al3 2.805725 1_555
Al0 Al5 2.877614 1_555
Al0 Al6 2.877614 1_545
Al0 U0 3.032870 1_555
Al1 Cr1 2.672925 1_555
Al1 Cr3 2.672925 1_555
Al1 Cr0 2.672925 1_555
Al1 Cr2 2.672925 1_455
Al1 Al6 2.734364 1_445
Al1 Al6 2.734364 1_555
Al1 Al2 2.805725 1_555
Al1 Al4 2.877614 1_555
Al1 Al7 2.877614 1_455
Al1 U0 3.032870 1_555
Al2 Cr0 2.672925 1_455
Al2 Cr3 2.672925 1_565
Al2 Cr1 2.672925 1_556
Al2 Cr2 2.672925 1_566
Al2 Al5 2.734364 1_565
Al2 Al5 2.734364 1_455
Al2 Al4 2.877614 1_555
Al2 Al7 2.877614 1_455
Al2 U0 3.032870 1_566
Al3 Cr3 2.672925 1_655
Al3 Cr0 2.672925 1_545
Al3 Cr1 2.672925 1_656
Al3 Cr2 2.672925 1_556
Al3 Al4 2.734364 1_545
Al3 Al4 2.734364 1_655
Al3 Al5 2.877614 1_555
Al3 Al6 2.877614 1_545
Al3 U0 3.032870 1_656
Al4 Cr3 2.562636 1_555
Al4 Cr0 2.562636 1_555
Al4 Cr1 2.562636 1_556
Al4 Cr2 2.562636 1_566
Al4 Al6 2.719867 1_556
Al4 Al5 2.719867 1_555
Al4 U0 3.153458 1_556
Al4 U0 3.153458 1_666
Al5 Cr1 2.562636 1_656
Al5 Cr2 2.562636 1_556
Al5 Cr3 2.562636 1_555
Al5 Cr0 2.562636 1_555
Al5 Al7 2.719867 1_556
Al5 U0 3.153458 1_556
Al5 U0 3.153458 1_666
Al6 Cr2 2.562636 1_565
Al6 Cr1 2.562636 1_555
Al6 Cr3 2.562636 1_665
Al6 Cr0 2.562636 1_555
Al6 Al7 2.719867 1_555
Al6 U0 3.153458 1_665
Al6 U0 3.153458 1_555
Al7 Cr1 2.562636 1_655
Al7 Cr2 2.562636 1_555
Al7 Cr3 2.562636 1_665
Al7 Cr0 2.562636 1_555
Al7 U0 3.153458 1_665
Al7 U0 3.153458 1_555
Cr0 Cr3 2.499092 1_665
Cr0 Cr3 2.499092 1_555
Cr0 U0 3.376274 1_555
Cr0 U0 3.376274 1_666
Cr1 Cr2 2.499092 1_455
Cr1 Cr2 2.499092 1_565
Cr1 U0 3.376274 1_555
Cr1 U0 3.376274 1_565
Cr2 U0 3.376274 1_655
Cr2 U0 3.376274 1_555
Cr3 U0 3.376274 1_555
Cr3 U0 3.376274 1_556
