# generated using pymatgen
data_RbIn3F10
_symmetry_space_group_name_H-M   'P 1'
_cell_length_a   6.94652400
_cell_length_b   7.90996100
_cell_length_c   8.42010600
_cell_angle_alpha   90.00000000
_cell_angle_beta   90.00000000
_cell_angle_gamma   90.00000000
_symmetry_Int_Tables_number   1
_chemical_formula_structural   RbIn3F10
_chemical_formula_sum   'Rb2 In6 F20'
_cell_volume   462.65732401
_cell_formula_units_Z   2
loop_
 _symmetry_equiv_pos_site_id
 _symmetry_equiv_pos_as_xyz
  1  'x, y, z'
loop_
 _atom_site_type_symbol
 _atom_site_label
 _atom_site_symmetry_multiplicity
 _atom_site_fract_x
 _atom_site_fract_y
 _atom_site_fract_z
 _atom_site_occupancy
  Rb  Rb0  1  0.99068100  0.50000000  0.50000000  1
  Rb  Rb1  1  0.00931900  0.50000000  0.00000000  1
  In  In0  1  0.50000000  0.27650500  0.75000000  1
  In  In1  1  0.50000000  0.73543200  0.75000000  1
  In  In2  1  0.50000000  0.72349500  0.25000000  1
  In  In3  1  0.50000000  0.26456800  0.25000000  1
  In  In4  1  0.00000000  0.00500100  0.75000000  1
  In  In5  1  0.00000000  0.99499900  0.25000000  1
  F  F0  1  0.19571900  0.80434500  0.76885100  1
  F  F1  1  0.19412700  0.20767900  0.75941500  1
  F  F2  1  0.97134300  0.00000000  0.00000000  1
  F  F3  1  0.80428100  0.80434500  0.73114900  1
  F  F4  1  0.80428100  0.19565500  0.26885100  1
  F  F5  1  0.50000000  0.00549600  0.75000000  1
  F  F6  1  0.67896100  0.50556100  0.76082500  1
  F  F7  1  0.80587300  0.79232100  0.25941500  1
  F  F8  1  0.49951900  0.27802400  0.50007200  1
  F  F9  1  0.50048100  0.72197600  0.00007200  1
  F  F10  1  0.19412700  0.79232100  0.24058500  1
  F  F11  1  0.49951900  0.72197600  0.49992800  1
  F  F12  1  0.80587300  0.20767900  0.74058500  1
  F  F13  1  0.19571900  0.19565500  0.23114900  1
  F  F14  1  0.32103900  0.50556100  0.73917500  1
  F  F15  1  0.50048100  0.27802400  0.99992800  1
  F  F16  1  0.50000000  0.99450400  0.25000000  1
  F  F17  1  0.67896100  0.49443900  0.23917500  1
  F  F18  1  0.32103900  0.49443900  0.26082500  1
  F  F19  1  0.02865700  0.00000000  0.50000000  1
loop_
_geom_bond_atom_site_label_1
_geom_bond_atom_site_label_2
_geom_bond_distance
_geom_bond_site_symmetry_2
F0 In4 2.095891 1_565
F0 In1 2.188615 1_555
F0 Rb1 3.355598 1_556
F1 In4 2.096408 1_555
F1 In0 2.194823 1_555
F1 Rb1 3.331401 1_556
F2 In5 2.114788 1_645
F2 In4 2.114788 1_654
F3 In4 2.095891 1_665
F3 In1 2.188615 1_555
F3 Rb0 3.355598 1_555
F4 In5 2.095891 1_645
F4 In3 2.188615 1_555
F4 Rb0 3.355598 1_555
F5 In1 2.136196 1_545
F5 In0 2.143671 1_555
F6 In0 2.199194 1_555
F6 In1 2.204508 1_555
F6 Rb1 3.053512 1_656
F6 Rb0 3.084468 1_555
F7 In5 2.096408 1_655
F7 In2 2.194823 1_555
F7 Rb0 3.331401 1_555
F8 In0 2.104457 1_555
F8 In3 2.108324 1_555
F9 In2 2.104457 1_555
F9 In1 2.108324 1_554
F10 In5 2.096408 1_555
F10 In2 2.194823 1_555
F10 Rb1 3.331401 1_555
F11 In2 2.104457 1_555
F11 In1 2.108324 1_555
F12 In4 2.096408 1_655
F12 In0 2.194823 1_555
F12 Rb0 3.331401 1_555
F13 In5 2.095891 1_545
F13 In3 2.188615 1_555
F13 Rb1 3.355598 1_555
F14 In0 2.199194 1_555
F14 In1 2.204508 1_555
F14 Rb0 3.053512 1_455
F14 Rb1 3.084468 1_556
F15 In0 2.104457 1_555
F15 In3 2.108324 1_556
F16 In3 2.136196 1_565
F16 In2 2.143671 1_555
F17 In2 2.199194 1_555
F17 In3 2.204508 1_555
F17 Rb1 3.053512 1_655
F17 Rb0 3.084468 1_555
F18 In2 2.199194 1_555
F18 In3 2.204508 1_555
F18 Rb0 3.053512 1_455
F18 Rb1 3.084468 1_555
F19 In4 2.114788 1_555
F19 In5 2.114788 1_545
