# generated using pymatgen
data_Mn2Cu3H24(OF)12
_symmetry_space_group_name_H-M   'P 1'
_cell_length_a   7.53926600
_cell_length_b   7.65433950
_cell_length_c   8.26147907
_cell_angle_alpha   89.81712160
_cell_angle_beta   88.00261940
_cell_angle_gamma   86.27572780
_symmetry_Int_Tables_number   1
_chemical_formula_structural   Mn2Cu3H24(OF)12
_chemical_formula_sum   'Mn2 Cu3 H24 O12 F12'
_cell_volume   475.45819963
_cell_formula_units_Z   1
loop_
 _symmetry_equiv_pos_site_id
 _symmetry_equiv_pos_as_xyz
  1  'x, y, z'
loop_
 _atom_site_type_symbol
 _atom_site_label
 _atom_site_symmetry_multiplicity
 _atom_site_fract_x
 _atom_site_fract_y
 _atom_site_fract_z
 _atom_site_occupancy
  Mn  Mn0  1  0.50000000  0.00000000  0.00000000  1
  Mn  Mn1  1  0.00000000  0.50000000  0.50000000  1
  Cu  Cu0  1  0.00000000  0.00000000  0.00000000  1
  Cu  Cu1  1  0.50000000  0.00000000  0.50000000  1
  Cu  Cu2  1  0.50000000  0.50000000  0.00000000  1
  H  H0  1  0.01441400  0.21351200  0.76002900  1
  H  H1  1  0.98558600  0.78648800  0.23997100  1
  H  H2  1  0.20841400  0.11241300  0.78028600  1
  H  H3  1  0.79158600  0.88758700  0.21971400  1
  H  H4  1  0.02089100  0.22600700  0.22779600  1
  H  H5  1  0.97910900  0.77399300  0.77220400  1
  H  H6  1  0.14735000  0.27191800  0.07584000  1
  H  H7  1  0.85265000  0.72808200  0.92416000  1
  H  H8  1  0.81937400  0.11949500  0.48289500  1
  H  H9  1  0.18062600  0.88050500  0.51710500  1
  H  H10  1  0.83506200  0.93033000  0.56098500  1
  H  H11  1  0.16493800  0.06967000  0.43901500  1
  H  H12  1  0.44769500  0.24080400  0.29814400  1
  H  H13  1  0.55230500  0.75919600  0.70185600  1
  H  H14  1  0.39020700  0.32287500  0.47338200  1
  H  H15  1  0.60979300  0.67712500  0.52661800  1
  H  H16  1  0.73981900  0.50368100  0.20991600  1
  H  H17  1  0.26018100  0.49631900  0.79008400  1
  H  H18  1  0.83033100  0.38428000  0.07038200  1
  H  H19  1  0.16966900  0.61572000  0.92961800  1
  H  H20  1  0.52872500  0.28466200  0.77417600  1
  H  H21  1  0.47127500  0.71533800  0.22582400  1
  H  H22  1  0.70233600  0.39965800  0.75460000  1
  H  H23  1  0.29766400  0.60034200  0.24540000  1
  O  O0  1  0.07575100  0.09961400  0.78841200  1
  O  O1  1  0.92424900  0.90038600  0.21158800  1
  O  O2  1  0.02747500  0.23392100  0.10373500  1
  O  O3  1  0.97252500  0.76607900  0.89626500  1
  O  O4  1  0.75209200  0.03580300  0.54830800  1
  O  O5  1  0.24790800  0.96419700  0.45169200  1
  O  O6  1  0.47817500  0.24146800  0.41507800  1
  O  O7  1  0.52182500  0.75853200  0.58492200  1
  O  O8  1  0.74498000  0.48670000  0.09068300  1
  O  O9  1  0.25502000  0.51330000  0.90931700  1
  O  O10  1  0.57327600  0.40468100  0.78624300  1
  O  O11  1  0.42672400  0.59531900  0.21375700  1
  F  F0  1  0.71741800  0.09849600  0.97025100  1
  F  F1  1  0.28258200  0.90150400  0.02974900  1
  F  F2  1  0.41621200  0.11239800  0.77621200  1
  F  F3  1  0.58378800  0.88760200  0.22378800  1
  F  F4  1  0.40362700  0.21616700  0.10836700  1
  F  F5  1  0.59637300  0.78383300  0.89163300  1
  F  F6  1  0.90846400  0.41200600  0.70153600  1
  F  F7  1  0.09153600  0.58799400  0.29846400  1
  F  F8  1  0.00753900  0.23433000  0.40782600  1
  F  F9  1  0.99246100  0.76567000  0.59217400  1
  F  F10  1  0.23040100  0.45377400  0.57805200  1
  F  F11  1  0.76959900  0.54622600  0.42194800  1
loop_
_geom_bond_atom_site_label_1
_geom_bond_atom_site_label_2
_geom_bond_distance
_geom_bond_site_symmetry_2
Cu0 O1 1.985351 1_445
Cu0 O0 1.985351 1_554
Cu0 O2 2.013367 1_555
Cu0 O3 2.013367 1_444
Cu0 F1 2.234797 1_545
Cu0 F0 2.234797 1_454
Cu1 O6 1.973749 1_555
Cu1 O7 1.973749 1_545
Cu1 O5 1.991947 1_545
Cu1 O4 1.991947 1_555
Cu1 F2 2.487533 1_555
Cu1 F3 2.487533 1_545
Cu2 O10 1.960600 1_554
Cu2 O11 1.960600 1_555
Cu2 O9 2.013570 1_554
Cu2 O8 2.013570 1_555
Cu2 F4 2.489324 1_555
Cu2 F5 2.489324 1_554
H0 O0 0.991347 1_555
H1 O1 0.991347 1_555
H2 O0 1.011175 1_555
H3 O1 1.011175 1_555
H4 O2 1.026186 1_555
H5 O3 1.026186 1_555
H6 O2 0.986762 1_555
H7 O3 0.986762 1_555
H8 O4 0.990265 1_555
H9 O5 0.990265 1_555
H10 O4 0.996221 1_565
H11 O5 0.996221 1_545
H12 O6 1.000869 1_555
H13 O7 1.000869 1_555
H14 O6 0.993026 1_555
H15 O7 0.993026 1_555
H16 O8 0.993077 1_555
H17 O9 0.993077 1_555
H18 O8 0.992255 1_555
H19 O9 0.992255 1_555
H20 O10 1.004842 1_555
H21 O11 1.004842 1_555
H22 O10 0.997023 1_555
H23 O11 0.997023 1_555
F0 Mn0 1.856600 1_556
F1 Mn0 1.856600 1_565
F2 H2 1.565825 1_555
F2 H20 1.613265 1_555
F2 Mn0 2.134949 1_556
F3 H3 1.565825 1_555
F3 H21 1.613265 1_555
F3 Mn0 2.134949 1_565
F4 H12 1.628005 1_555
F4 Mn0 1.968532 1_555
F5 H13 1.628005 1_555
F5 Mn0 1.968532 1_566
F6 H22 1.608579 1_555
F6 Mn1 1.917085 1_655
F7 H23 1.608579 1_555
F7 Mn1 1.917085 1_555
F8 H4 1.488499 1_555
F8 Mn1 2.170298 1_555
F9 H5 1.488499 1_555
F9 Mn1 2.170298 1_655
F10 Mn1 1.885505 1_555
F11 Mn1 1.885505 1_655
