# generated using pymatgen
data_CrP2Pb5O13
_symmetry_space_group_name_H-M   'P 1'
_cell_length_a   9.62105800
_cell_length_b   10.49379700
_cell_length_c   13.71209500
_cell_angle_alpha   90.00000000
_cell_angle_beta   90.00000000
_cell_angle_gamma   90.00000000
_symmetry_Int_Tables_number   1
_chemical_formula_structural   CrP2Pb5O13
_chemical_formula_sum   'Cr4 P8 Pb20 O52'
_cell_volume   1384.39271370
_cell_formula_units_Z   4
loop_
 _symmetry_equiv_pos_site_id
 _symmetry_equiv_pos_as_xyz
  1  'x, y, z'
loop_
 _atom_site_type_symbol
 _atom_site_label
 _atom_site_symmetry_multiplicity
 _atom_site_fract_x
 _atom_site_fract_y
 _atom_site_fract_z
 _atom_site_occupancy
  Cr  Cr0  1  0.57054700  0.75000000  0.00082700  1
  Cr  Cr1  1  0.07054700  0.25000000  0.49917300  1
  Cr  Cr2  1  0.42945300  0.25000000  0.99917300  1
  Cr  Cr3  1  0.92945300  0.75000000  0.50082700  1
  P  P0  1  0.43035500  0.96673200  0.33999600  1
  P  P1  1  0.43035500  0.53326800  0.33999600  1
  P  P2  1  0.06964500  0.96673200  0.83999600  1
  P  P3  1  0.06964500  0.53326800  0.83999600  1
  P  P4  1  0.56964500  0.03326800  0.66000400  1
  P  P5  1  0.93035500  0.46673200  0.16000400  1
  P  P6  1  0.56964500  0.46673200  0.66000400  1
  P  P7  1  0.93035500  0.03326800  0.16000400  1
  Pb  Pb0  1  0.21337300  0.94334500  0.57584100  1
  Pb  Pb1  1  0.29617500  0.25000000  0.76432700  1
  Pb  Pb2  1  0.65774400  0.25000000  0.22062400  1
  Pb  Pb3  1  0.34225600  0.75000000  0.77937600  1
  Pb  Pb4  1  0.15774400  0.75000000  0.27937600  1
  Pb  Pb5  1  0.79617500  0.75000000  0.73567300  1
  Pb  Pb6  1  0.71337300  0.05665500  0.92415900  1
  Pb  Pb7  1  0.21337300  0.55665500  0.57584100  1
  Pb  Pb8  1  0.97121700  0.75000000  0.02366700  1
  Pb  Pb9  1  0.20382500  0.25000000  0.26432700  1
  Pb  Pb10  1  0.02878300  0.25000000  0.97633300  1
  Pb  Pb11  1  0.47121700  0.25000000  0.47633300  1
  Pb  Pb12  1  0.28662700  0.94334500  0.07584100  1
  Pb  Pb13  1  0.71337300  0.44334500  0.92415900  1
  Pb  Pb14  1  0.78662700  0.05665500  0.42415900  1
  Pb  Pb15  1  0.28662700  0.55665500  0.07584100  1
  Pb  Pb16  1  0.84225600  0.25000000  0.72062400  1
  Pb  Pb17  1  0.70382500  0.75000000  0.23567300  1
  Pb  Pb18  1  0.52878300  0.75000000  0.52366700  1
  Pb  Pb19  1  0.78662700  0.44334500  0.42415900  1
  O  O0  1  0.67510200  0.25000000  0.38741600  1
  O  O1  1  0.59239100  0.61293200  0.67136200  1
  O  O2  1  0.09239100  0.38706800  0.82863800  1
  O  O3  1  0.15460500  0.25000000  0.60622000  1
  O  O4  1  0.34769100  0.60492500  0.25888100  1
  O  O5  1  0.88018500  0.41914800  0.05784100  1
  O  O6  1  0.84769100  0.10492500  0.24111900  1
  O  O7  1  0.10718400  0.12150100  0.43315200  1
  O  O8  1  0.58943500  0.56260000  0.33146800  1
  O  O9  1  0.08943500  0.43740000  0.16853200  1
  O  O10  1  0.59239100  0.88706800  0.67136200  1
  O  O11  1  0.61981500  0.08085200  0.55784100  1
  O  O12  1  0.38018500  0.58085200  0.44215900  1
  O  O13  1  0.08943500  0.06260000  0.16853200  1
  O  O14  1  0.34539500  0.25000000  0.10622000  1
  O  O15  1  0.38018500  0.91914800  0.44215900  1
  O  O16  1  0.90760900  0.88706800  0.17136200  1
  O  O17  1  0.60152300  0.25000000  0.02055700  1
  O  O18  1  0.89847700  0.25000000  0.52055700  1
  O  O19  1  0.10152300  0.75000000  0.47944300  1
  O  O20  1  0.89281600  0.87849900  0.56684800  1
  O  O21  1  0.34769100  0.89507500  0.25888100  1
  O  O22  1  0.11981500  0.58085200  0.94215900  1
  O  O23  1  0.84539500  0.75000000  0.39378000  1
  O  O24  1  0.40760900  0.11293200  0.32863800  1
  O  O25  1  0.17510200  0.75000000  0.11258400  1
  O  O26  1  0.11981500  0.91914800  0.94215900  1
  O  O27  1  0.91056500  0.93740000  0.83146800  1
  O  O28  1  0.09239100  0.11293200  0.82863800  1
  O  O29  1  0.32489800  0.75000000  0.61258400  1
  O  O30  1  0.39281600  0.12150100  0.93315200  1
  O  O31  1  0.15230900  0.89507500  0.75888100  1
  O  O32  1  0.41056500  0.43740000  0.66853200  1
  O  O33  1  0.15230900  0.60492500  0.75888100  1
  O  O34  1  0.61981500  0.41914800  0.55784100  1
  O  O35  1  0.82489800  0.25000000  0.88741600  1
  O  O36  1  0.65230900  0.39507500  0.74111900  1
  O  O37  1  0.10718400  0.37849900  0.43315200  1
  O  O38  1  0.88018500  0.08085200  0.05784100  1
  O  O39  1  0.39281600  0.37849900  0.93315200  1
  O  O40  1  0.41056500  0.06260000  0.66853200  1
  O  O41  1  0.91056500  0.56260000  0.83146800  1
  O  O42  1  0.65460500  0.75000000  0.89378000  1
  O  O43  1  0.90760900  0.61293200  0.17136200  1
  O  O44  1  0.84769100  0.39507500  0.24111900  1
  O  O45  1  0.40760900  0.38706800  0.32863800  1
  O  O46  1  0.58943500  0.93740000  0.33146800  1
  O  O47  1  0.60718400  0.62150100  0.06684800  1
  O  O48  1  0.65230900  0.10492500  0.74111900  1
  O  O49  1  0.60718400  0.87849900  0.06684800  1
  O  O50  1  0.89281600  0.62150100  0.56684800  1
  O  O51  1  0.39847700  0.75000000  0.97944300  1
loop_
_geom_bond_atom_site_label_1
_geom_bond_atom_site_label_2
_geom_bond_distance
_geom_bond_site_symmetry_2
Cr0 O49 1.661953 1_555
Cr0 O47 1.661953 1_555
Cr0 O42 1.675885 1_554
Cr0 O51 1.681262 1_554
Cr1 O37 1.661953 1_555
Cr1 O7 1.661953 1_555
Cr1 O3 1.675885 1_555
Cr1 O18 1.681262 1_455
Cr2 O39 1.661953 1_555
Cr2 O30 1.661953 1_555
Cr2 O14 1.675885 1_556
Cr2 O17 1.681262 1_556
Cr3 O20 1.661953 1_555
Cr3 O50 1.661953 1_555
Cr3 O23 1.675885 1_555
Cr3 O19 1.681262 1_655
O0 Pb2 2.293157 1_555
O0 Pb11 2.309627 1_555
O0 Pb19 2.349824 1_555
O0 Pb14 2.349824 1_555
O1 P6 1.557529 1_555
O1 Pb18 2.558295 1_555
O1 Pb5 2.586610 1_555
O2 P3 1.557529 1_555
O2 Pb10 2.558295 1_555
O2 Pb1 2.586610 1_555
O3 Pb1 2.560336 1_555
O4 P1 1.560473 1_555
O4 Pb4 2.395071 1_555
O4 Pb15 2.627002 1_555
O5 P5 1.563572 1_555
O5 Pb13 2.449554 1_554
O5 Pb10 2.538450 1_654
O6 P7 1.560473 1_555
O6 Pb2 2.395071 1_555
O6 Pb14 2.627002 1_555
O7 Pb9 2.835802 1_555
O8 P1 1.565536 1_555
O8 Pb19 2.604008 1_555
O8 Pb17 2.608429 1_555
O9 P5 1.565536 1_455
O9 Pb15 2.604008 1_555
O9 Pb9 2.608429 1_555
O10 P4 1.557529 1_565
O10 Pb18 2.558295 1_555
O10 Pb5 2.586610 1_555
O11 P4 1.563572 1_555
O11 Pb14 2.449554 1_555
O11 Pb11 2.538450 1_555
O12 P1 1.563572 1_555
O12 Pb7 2.449554 1_555
O12 Pb18 2.538450 1_555
O13 P7 1.565536 1_455
O13 Pb12 2.604008 1_545
O13 Pb9 2.608429 1_555
O14 Pb9 2.560336 1_555
O15 P0 1.563572 1_555
O15 Pb0 2.449554 1_555
O15 Pb18 2.538450 1_555
O16 P7 1.557529 1_565
O16 Pb8 2.558295 1_555
O16 Pb17 2.586610 1_555
O17 Pb6 2.649860 1_554
O17 Pb13 2.649860 1_554
O17 Pb2 2.796155 1_555
O18 Pb19 2.649860 1_555
O18 Pb14 2.649860 1_555
O18 Pb16 2.796155 1_555
O19 Pb0 2.649860 1_555
O19 Pb7 2.649860 1_555
O19 Pb4 2.796155 1_555
O20 Pb5 2.835802 1_555
O21 P0 1.560473 1_555
O21 Pb4 2.395071 1_555
O21 Pb12 2.627002 1_555
O22 P3 1.563572 1_555
O22 Pb15 2.449554 1_556
O22 Pb8 2.538450 1_456
O23 Pb17 2.560336 1_555
O24 P0 1.557529 1_545
O24 Pb11 2.558295 1_555
O24 Pb9 2.586610 1_555
O25 Pb4 2.293157 1_555
O25 Pb8 2.309627 1_455
O25 Pb15 2.349824 1_555
O25 Pb12 2.349824 1_555
O26 P2 1.563572 1_555
O26 Pb12 2.449554 1_556
O26 Pb8 2.538450 1_456
O27 P2 1.565536 1_655
O27 Pb6 2.604008 1_565
O27 Pb5 2.608429 1_555
O28 P2 1.557529 1_545
O28 Pb10 2.558295 1_555
O28 Pb1 2.586610 1_555
O29 Pb3 2.293157 1_555
O29 Pb18 2.309627 1_555
O29 Pb0 2.349824 1_555
O29 Pb7 2.349824 1_555
O30 Pb1 2.835802 1_555
O31 P2 1.560473 1_555
O31 Pb3 2.395071 1_555
O31 Pb0 2.627002 1_555
O32 P6 1.565536 1_555
O32 Pb7 2.604008 1_555
O32 Pb1 2.608429 1_555
O33 P3 1.560473 1_555
O33 Pb3 2.395071 1_555
O33 Pb7 2.627002 1_555
O34 P6 1.563572 1_555
O34 Pb19 2.449554 1_555
O34 Pb11 2.538450 1_555
O35 Pb16 2.293157 1_555
O35 Pb10 2.309627 1_655
O35 Pb13 2.349824 1_555
O35 Pb6 2.349824 1_555
O36 P6 1.560473 1_555
O36 Pb16 2.395071 1_555
O36 Pb13 2.627002 1_555
O37 Pb9 2.835802 1_555
O38 P7 1.563572 1_555
O38 Pb6 2.449554 1_554
O38 Pb10 2.538450 1_654
O39 Pb1 2.835802 1_555
O40 P4 1.565536 1_555
O40 Pb0 2.604008 1_545
O40 Pb1 2.608429 1_555
O41 P3 1.565536 1_655
O41 Pb13 2.604008 1_555
O41 Pb5 2.608429 1_555
O42 Pb5 2.560336 1_555
O43 P5 1.557529 1_555
O43 Pb8 2.558295 1_555
O43 Pb17 2.586610 1_555
O44 P5 1.560473 1_555
O44 Pb2 2.395071 1_555
O44 Pb19 2.627002 1_555
O45 P1 1.557529 1_555
O45 Pb11 2.558295 1_555
O45 Pb9 2.586610 1_555
O46 P0 1.565536 1_555
O46 Pb14 2.604008 1_565
O46 Pb17 2.608429 1_555
O47 Pb17 2.835802 1_555
O48 P4 1.560473 1_555
O48 Pb16 2.395071 1_555
O48 Pb6 2.627002 1_555
O49 Pb17 2.835802 1_555
O50 Pb5 2.835802 1_555
O51 Pb15 2.649860 1_556
O51 Pb12 2.649860 1_556
O51 Pb3 2.796155 1_555
