# generated using pymatgen
data_Nd2Zr2O7
_symmetry_space_group_name_H-M   'P 1'
_cell_length_a   7.56879924
_cell_length_b   7.56879924
_cell_length_c   7.56879924
_cell_angle_alpha   60.00000000
_cell_angle_beta   60.00000000
_cell_angle_gamma   60.00000000
_symmetry_Int_Tables_number   1
_chemical_formula_structural   Nd2Zr2O7
_chemical_formula_sum   'Nd4 Zr4 O14'
_cell_volume   306.59562987
_cell_formula_units_Z   2
loop_
 _symmetry_equiv_pos_site_id
 _symmetry_equiv_pos_as_xyz
  1  'x, y, z'
loop_
 _atom_site_type_symbol
 _atom_site_label
 _atom_site_symmetry_multiplicity
 _atom_site_fract_x
 _atom_site_fract_y
 _atom_site_fract_z
 _atom_site_occupancy
  Nd  Nd0  1  0.12500000  0.12500000  0.12500000  1
  Nd  Nd1  1  0.62500000  0.12500000  0.12500000  1
  Nd  Nd2  1  0.12500000  0.12500000  0.62500000  1
  Nd  Nd3  1  0.12500000  0.62500000  0.12500000  1
  Zr  Zr0  1  0.62500000  0.62500000  0.62500000  1
  Zr  Zr1  1  0.12500000  0.62500000  0.62500000  1
  Zr  Zr2  1  0.62500000  0.62500000  0.12500000  1
  Zr  Zr3  1  0.62500000  0.12500000  0.62500000  1
  O  O0  1  -0.00000000  -0.00000000  -0.00000000  1
  O  O1  1  0.25000000  0.25000000  0.25000000  1
  O  O2  1  0.29037745  0.29037745  0.70962255  1
  O  O3  1  0.54037745  0.54037745  0.95962255  1
  O  O4  1  0.70962255  0.29037745  0.70962255  1
  O  O5  1  0.70962255  0.29037745  0.29037745  1
  O  O6  1  0.29037745  0.70962255  0.70962255  1
  O  O7  1  0.29037745  0.70962255  0.29037745  1
  O  O8  1  0.70962255  0.70962255  0.29037745  1
  O  O9  1  0.95962255  0.54037745  0.54037745  1
  O  O10  1  0.54037745  0.95962255  0.95962255  1
  O  O11  1  0.95962255  0.95962255  0.54037745  1
  O  O12  1  0.95962255  0.54037745  0.95962255  1
  O  O13  1  0.54037745  0.95962255  0.54037745  1
loop_
_geom_bond_atom_site_label_1
_geom_bond_atom_site_label_2
_geom_bond_distance
_geom_bond_site_symmetry_2
Nd0 O0 2.317462 1_555
Nd0 O1 2.317462 1_555
Nd0 O12 2.591133 1_454
Nd0 O10 2.591133 1_544
Nd0 O7 2.591133 1_545
Nd0 O11 2.591133 1_445
Nd0 O5 2.591133 1_455
Nd0 O2 2.591133 1_554
Nd1 O0 2.317462 1_655
Nd1 O1 2.317462 1_555
Nd1 O10 2.591133 1_544
Nd1 O5 2.591133 1_555
Nd1 O4 2.591133 1_554
Nd1 O13 2.591133 1_545
Nd1 O3 2.591133 1_554
Nd1 O8 2.591133 1_545
Nd2 O0 2.317462 1_556
Nd2 O1 2.317462 1_555
Nd2 O11 2.591133 1_445
Nd2 O2 2.591133 1_555
Nd2 O9 2.591133 1_455
Nd2 O13 2.591133 1_545
Nd2 O6 2.591133 1_545
Nd2 O4 2.591133 1_455
Nd3 O1 2.317462 1_555
Nd3 O0 2.317462 1_565
Nd3 O12 2.591133 1_454
Nd3 O7 2.591133 1_555
Nd3 O9 2.591133 1_455
Nd3 O8 2.591133 1_455
Nd3 O6 2.591133 1_554
Nd3 O3 2.591133 1_554
O2 Zr3 2.097827 1_555
O2 Zr1 2.097827 1_555
O3 Zr2 2.097827 1_556
O3 Zr0 2.097827 1_555
O4 Zr3 2.097827 1_555
O4 Zr0 2.097827 1_555
O5 Zr2 2.097827 1_555
O5 Zr3 2.097827 1_555
O6 Zr1 2.097827 1_555
O6 Zr0 2.097827 1_555
O7 Zr1 2.097827 1_555
O7 Zr2 2.097827 1_555
O8 Zr2 2.097827 1_555
O8 Zr0 2.097827 1_555
O9 Zr1 2.097827 1_655
O9 Zr0 2.097827 1_555
O10 Zr2 2.097827 1_556
O10 Zr3 2.097827 1_565
O11 Zr3 2.097827 1_565
O11 Zr1 2.097827 1_655
O12 Zr2 2.097827 1_556
O12 Zr1 2.097827 1_655
O13 Zr3 2.097827 1_565
O13 Zr0 2.097827 1_555
