# generated using pymatgen
data_As3H9RhC3(ClO)3
_symmetry_space_group_name_H-M   'P 1'
_cell_length_a   9.12663000
_cell_length_b   9.19188900
_cell_length_c   17.15447728
_cell_angle_alpha   67.05301647
_cell_angle_beta   90.00000000
_cell_angle_gamma   90.00000000
_symmetry_Int_Tables_number   1
_chemical_formula_structural   As3H9RhC3(ClO)3
_chemical_formula_sum   'As12 H36 Rh4 C12 Cl12 O12'
_cell_volume   1325.22355430
_cell_formula_units_Z   4
loop_
 _symmetry_equiv_pos_site_id
 _symmetry_equiv_pos_as_xyz
  1  'x, y, z'
loop_
 _atom_site_type_symbol
 _atom_site_label
 _atom_site_symmetry_multiplicity
 _atom_site_fract_x
 _atom_site_fract_y
 _atom_site_fract_z
 _atom_site_occupancy
  As  As0  1  0.35966400  0.76699000  0.57818200  1
  As  As1  1  0.28200300  0.12170900  0.52474500  1
  As  As2  1  0.71799700  0.87829100  0.47525500  1
  As  As3  1  0.21799700  0.12170900  0.02474500  1
  As  As4  1  0.85966400  0.23301000  0.92181800  1
  As  As5  1  0.14033600  0.76699000  0.07818200  1
  As  As6  1  0.41654300  0.93332600  0.38512000  1
  As  As7  1  0.78200300  0.87829100  0.97525500  1
  As  As8  1  0.58345700  0.06667400  0.61488000  1
  As  As9  1  0.91654300  0.06667400  0.11488000  1
  As  As10  1  0.08345700  0.93332600  0.88512000  1
  As  As11  1  0.64033600  0.23301000  0.42181800  1
  H  H0  1  0.21948300  0.98689900  0.75132300  1
  H  H1  1  0.21357200  0.48633400  0.12164000  1
  H  H2  1  0.71357200  0.51366600  0.37836000  1
  H  H3  1  0.78642800  0.51366600  0.87836000  1
  H  H4  1  0.27297900  0.54693500  0.70938800  1
  H  H5  1  0.28490100  0.77754100  0.31613900  1
  H  H6  1  0.61287700  0.65359600  0.99861800  1
  H  H7  1  0.78490100  0.22245900  0.18386100  1
  H  H8  1  0.89978900  0.79779800  0.39041300  1
  H  H9  1  0.55424500  0.12662400  0.74335400  1
  H  H10  1  0.10021100  0.20220200  0.60958700  1
  H  H11  1  0.21509900  0.77754100  0.81613900  1
  H  H12  1  0.72702100  0.45306500  0.29061200  1
  H  H13  1  0.38712300  0.34640400  0.00138200  1
  H  H14  1  0.48695100  0.16405300  0.02457400  1
  H  H15  1  0.86715900  0.39295900  0.37142800  1
  H  H16  1  0.71509900  0.22245900  0.68386100  1
  H  H17  1  0.63284100  0.39295900  0.87142800  1
  H  H18  1  0.28051700  0.98689900  0.25132300  1
  H  H19  1  0.22702100  0.54693500  0.20938800  1
  H  H20  1  0.01304900  0.16405300  0.52457400  1
  H  H21  1  0.05424500  0.87337600  0.75664600  1
  H  H22  1  0.94575500  0.12662400  0.24335400  1
  H  H23  1  0.88712300  0.65359600  0.49861800  1
  H  H24  1  0.77297900  0.45306500  0.79061200  1
  H  H25  1  0.28642800  0.48633400  0.62164000  1
  H  H26  1  0.11287700  0.34640400  0.50138200  1
  H  H27  1  0.60021100  0.79779800  0.89041300  1
  H  H28  1  0.36715900  0.60704100  0.12857200  1
  H  H29  1  0.51304900  0.83594700  0.97542600  1
  H  H30  1  0.78051700  0.01310100  0.24867700  1
  H  H31  1  0.98695100  0.83594700  0.47542600  1
  H  H32  1  0.39978900  0.20220200  0.10958700  1
  H  H33  1  0.13284100  0.60704100  0.62857200  1
  H  H34  1  0.44575500  0.87337600  0.25664600  1
  H  H35  1  0.71948300  0.01310100  0.74867700  1
  Rh  Rh0  1  0.60531200  0.81235700  0.60961600  1
  Rh  Rh1  1  0.89468800  0.81235700  0.10961600  1
  Rh  Rh2  1  0.10531200  0.18764300  0.89038400  1
  Rh  Rh3  1  0.39468800  0.18764300  0.39038400  1
  C  C0  1  0.75089400  0.42102100  0.35784900  1
  C  C1  1  0.15156600  0.88721400  0.79063600  1
  C  C2  1  0.39479900  0.22084100  0.04249200  1
  C  C3  1  0.65156600  0.11278600  0.70936400  1
  C  C4  1  0.10520100  0.22084100  0.54249200  1
  C  C5  1  0.74910600  0.42102100  0.85784900  1
  C  C6  1  0.60520100  0.77915900  0.95750800  1
  C  C7  1  0.25089400  0.57897900  0.14215100  1
  C  C8  1  0.89479900  0.77915900  0.45750800  1
  C  C9  1  0.34843400  0.88721400  0.29063600  1
  C  C10  1  0.24910600  0.57897900  0.64215100  1
  C  C11  1  0.84843400  0.11278600  0.20936400  1
  Cl  Cl0  1  0.50903700  0.73213100  0.75145300  1
  Cl  Cl1  1  0.49096300  0.26786900  0.24854700  1
  Cl  Cl2  1  0.14484000  0.16604700  0.35028900  1
  Cl  Cl3  1  0.85516000  0.83395300  0.64971100  1
  Cl  Cl4  1  0.13566200  0.45216600  0.88462500  1
  Cl  Cl5  1  0.36433800  0.45216600  0.38462500  1
  Cl  Cl6  1  0.63566200  0.54783400  0.61537500  1
  Cl  Cl7  1  0.64484000  0.83395300  0.14971100  1
  Cl  Cl8  1  0.86433800  0.54783400  0.11537500  1
  Cl  Cl9  1  0.99096300  0.73213100  0.25145300  1
  Cl  Cl10  1  0.00903700  0.26786900  0.74854700  1
  Cl  Cl11  1  0.35516000  0.16604700  0.85028900  1
  O  O0  1  0.89777600  0.85682000  0.89445300  1
  O  O1  1  0.77098300  0.08362900  0.42199300  1
  O  O2  1  0.39777600  0.14318000  0.60554700  1
  O  O3  1  0.17079200  0.77464900  0.97213200  1
  O  O4  1  0.82920800  0.22535100  0.02786800  1
  O  O5  1  0.67079200  0.22535100  0.52786800  1
  O  O6  1  0.22901700  0.91637100  0.57800700  1
  O  O7  1  0.60222400  0.85682000  0.39445300  1
  O  O8  1  0.10222400  0.14318000  0.10554700  1
  O  O9  1  0.72901700  0.08362900  0.92199300  1
  O  O10  1  0.32920800  0.77464900  0.47213200  1
  O  O11  1  0.27098300  0.91637100  0.07800700  1
loop_
_geom_bond_atom_site_label_1
_geom_bond_atom_site_label_2
_geom_bond_distance
_geom_bond_site_symmetry_2
As0 O10 1.814375 1_555
As0 O6 1.817669 1_555
As0 C10 1.931361 1_555
As0 Rh0 2.380399 1_555
As1 O6 1.812843 1_545
As1 O2 1.813842 1_555
As1 C4 1.934690 1_555
As1 Rh3 2.376609 1_555
As2 O1 1.812843 1_565
As2 O7 1.813842 1_555
As2 C8 1.934690 1_555
As2 Rh0 2.376609 1_555
As3 O11 1.812843 1_545
As3 O8 1.813842 1_555
As3 C2 1.934690 1_555
As3 Rh2 2.376609 1_554
As4 O4 1.814375 1_556
As4 O9 1.817669 1_555
As4 C5 1.931361 1_555
As4 Rh2 2.380399 1_655
As5 O3 1.814375 1_554
As5 O11 1.817669 1_555
As5 C7 1.931361 1_555
As5 Rh1 2.380399 1_455
As6 O10 1.814679 1_555
As6 O7 1.817743 1_555
As6 C9 1.931012 1_555
As6 Rh3 2.382680 1_565
As7 O9 1.812843 1_565
As7 O0 1.813842 1_555
As7 C6 1.934690 1_555
As7 Rh1 2.376609 1_556
As8 O5 1.814679 1_555
As8 O2 1.817743 1_555
As8 C3 1.931012 1_555
As8 Rh0 2.382680 1_545
As9 O4 1.814679 1_555
As9 O8 1.817743 1_655
As9 C11 1.931012 1_555
As9 Rh1 2.382680 1_545
As10 O3 1.814679 1_555
As10 O0 1.817743 1_455
As10 C1 1.931012 1_555
As10 Rh2 2.382680 1_565
As11 O5 1.814375 1_555
As11 O1 1.817669 1_555
As11 C0 1.931361 1_555
As11 Rh3 2.380399 1_555
C0 H2 1.094834 1_555
C0 H12 1.095302 1_555
C0 H15 1.095396 1_555
C1 H0 1.093971 1_555
C1 H11 1.095438 1_555
C1 H21 1.096775 1_555
C2 H14 1.095173 1_555
C2 H13 1.095288 1_555
C2 H32 1.096548 1_555
C3 H35 1.093971 1_555
C3 H16 1.095438 1_555
C3 H9 1.096775 1_555
C4 H20 1.095173 1_555
C4 H26 1.095288 1_555
C4 H10 1.096548 1_555
C5 H3 1.094834 1_555
C5 H24 1.095302 1_555
C5 H17 1.095396 1_555
C6 H29 1.095173 1_555
C6 H6 1.095288 1_555
C6 H27 1.096548 1_555
C7 H1 1.094834 1_555
C7 H19 1.095302 1_555
C7 H28 1.095396 1_555
C8 H31 1.095173 1_555
C8 H23 1.095288 1_555
C8 H8 1.096548 1_555
C9 H18 1.093971 1_555
C9 H5 1.095438 1_555
C9 H34 1.096775 1_555
C10 H25 1.094834 1_555
C10 H4 1.095302 1_555
C10 H33 1.095396 1_555
C11 H30 1.093971 1_555
C11 H7 1.095438 1_555
C11 H22 1.096775 1_555
Cl0 Rh0 2.415974 1_555
Cl1 Rh3 2.415974 1_555
Cl2 Rh3 2.412174 1_555
Cl3 Rh0 2.412174 1_555
Cl4 Rh2 2.410644 1_555
Cl5 Rh3 2.410644 1_555
Cl6 Rh0 2.410644 1_555
Cl7 Rh1 2.412174 1_555
Cl8 Rh1 2.410644 1_555
Cl9 Rh1 2.415974 1_555
Cl10 Rh2 2.415974 1_555
Cl11 Rh2 2.412174 1_555
