# generated using pymatgen
data_K2Ge2Se5
_symmetry_space_group_name_H-M   'P 1'
_cell_length_a   10.03382800
_cell_length_b   10.25008800
_cell_length_c   23.98850230
_cell_angle_alpha   86.65548963
_cell_angle_beta   90.00000000
_cell_angle_gamma   90.00000000
_symmetry_Int_Tables_number   1
_chemical_formula_structural   K2Ge2Se5
_chemical_formula_sum   'K16 Ge16 Se40'
_cell_volume   2462.95829230
_cell_formula_units_Z   8
loop_
 _symmetry_equiv_pos_site_id
 _symmetry_equiv_pos_as_xyz
  1  'x, y, z'
loop_
 _atom_site_type_symbol
 _atom_site_label
 _atom_site_symmetry_multiplicity
 _atom_site_fract_x
 _atom_site_fract_y
 _atom_site_fract_z
 _atom_site_occupancy
  K  K0  1  0.88042400  0.15915800  0.84332900  1
  K  K1  1  0.85367600  0.67982800  0.76081600  1
  K  K2  1  0.64632400  0.67982800  0.26081600  1
  K  K3  1  0.49804100  0.43294000  0.89523600  1
  K  K4  1  0.62053300  0.68289600  0.49701900  1
  K  K5  1  0.35367600  0.32017200  0.73918400  1
  K  K6  1  0.38042400  0.84084200  0.65667100  1
  K  K7  1  0.00195900  0.43294000  0.39523600  1
  K  K8  1  0.99804100  0.56706000  0.60476400  1
  K  K9  1  0.14632400  0.32017200  0.23918400  1
  K  K10  1  0.11957600  0.84084200  0.15667100  1
  K  K11  1  0.50195900  0.56706000  0.10476400  1
  K  K12  1  0.61957600  0.15915800  0.34332900  1
  K  K13  1  0.37946700  0.31710400  0.50298100  1
  K  K14  1  0.12053300  0.31710400  0.00298100  1
  K  K15  1  0.87946700  0.68289600  0.99701900  1
  Ge  Ge0  1  0.08437500  0.16058400  0.62076900  1
  Ge  Ge1  1  0.41562500  0.16058400  0.12076900  1
  Ge  Ge2  1  0.24237500  0.72616900  0.30724700  1
  Ge  Ge3  1  0.72843200  0.26015600  0.03176500  1
  Ge  Ge4  1  0.58437500  0.83941600  0.87923100  1
  Ge  Ge5  1  0.77181400  0.94627300  0.62439300  1
  Ge  Ge6  1  0.27181400  0.05372700  0.87560700  1
  Ge  Ge7  1  0.22843200  0.73984400  0.46823500  1
  Ge  Ge8  1  0.27156800  0.73984400  0.96823500  1
  Ge  Ge9  1  0.91562500  0.83941600  0.37923100  1
  Ge  Ge10  1  0.74237500  0.27383100  0.19275300  1
  Ge  Ge11  1  0.77156800  0.26015600  0.53176500  1
  Ge  Ge12  1  0.22818600  0.05372700  0.37560700  1
  Ge  Ge13  1  0.25762500  0.72616900  0.80724700  1
  Ge  Ge14  1  0.72818600  0.94627300  0.12439300  1
  Ge  Ge15  1  0.75762500  0.27383100  0.69275300  1
  Se  Se0  1  0.80564600  0.36965100  0.95109300  1
  Se  Se1  1  0.68237200  0.05101600  0.70424500  1
  Se  Se2  1  0.18237200  0.94898400  0.79575500  1
  Se  Se3  1  0.48924600  0.93838800  0.12780300  1
  Se  Se4  1  0.19035400  0.96027400  0.96354900  1
  Se  Se5  1  0.68721200  0.83671500  0.37535500  1
  Se  Se6  1  0.98924600  0.06161200  0.37219700  1
  Se  Se7  1  0.98770900  0.72777900  0.46653700  1
  Se  Se8  1  0.69435400  0.36965100  0.45109300  1
  Se  Se9  1  0.82027400  0.38153700  0.10639500  1
  Se  Se10  1  0.29629700  0.26946100  0.36720000  1
  Se  Se11  1  0.31762800  0.94898400  0.29575500  1
  Se  Se12  1  0.48770900  0.27222100  0.03346300  1
  Se  Se13  1  0.18721200  0.16328500  0.12464500  1
  Se  Se14  1  0.80964600  0.03972600  0.03645100  1
  Se  Se15  1  0.17972600  0.61846300  0.89360500  1
  Se  Se16  1  0.18360800  0.61302300  0.73283500  1
  Se  Se17  1  0.00107300  0.71549500  0.30355500  1
  Se  Se18  1  0.31639200  0.61302300  0.23283500  1
  Se  Se19  1  0.31278800  0.16328500  0.62464500  1
  Se  Se20  1  0.81639200  0.38697700  0.26716500  1
  Se  Se21  1  0.67972600  0.38153700  0.60639500  1
  Se  Se22  1  0.69035400  0.03972600  0.53645100  1
  Se  Se23  1  0.81278800  0.83671500  0.87535500  1
  Se  Se24  1  0.99892700  0.28450500  0.69644500  1
  Se  Se25  1  0.51075400  0.06161200  0.87219700  1
  Se  Se26  1  0.32027400  0.61846300  0.39360500  1
  Se  Se27  1  0.30564600  0.63034900  0.54890700  1
  Se  Se28  1  0.51229100  0.72777900  0.96653700  1
  Se  Se29  1  0.68360800  0.38697700  0.76716500  1
  Se  Se30  1  0.01075400  0.93838800  0.62780300  1
  Se  Se31  1  0.50107300  0.28450500  0.19644500  1
  Se  Se32  1  0.30964600  0.96027400  0.46354900  1
  Se  Se33  1  0.19435400  0.63034900  0.04890700  1
  Se  Se34  1  0.01229100  0.27222100  0.53346300  1
  Se  Se35  1  0.70370300  0.73053900  0.63280000  1
  Se  Se36  1  0.81762800  0.05101600  0.20424500  1
  Se  Se37  1  0.20370300  0.26946100  0.86720000  1
  Se  Se38  1  0.49892700  0.71549500  0.80355500  1
  Se  Se39  1  0.79629700  0.73053900  0.13280000  1
loop_
_geom_bond_atom_site_label_1
_geom_bond_atom_site_label_2
_geom_bond_distance
_geom_bond_site_symmetry_2
K0 Se23 3.417309 1_545
K0 Se29 3.491882 1_555
K0 Se37 3.493350 1_655
K0 Se0 3.542822 1_555
K0 Se24 3.866729 1_555
K1 Se23 3.289266 1_555
K1 Se35 3.432036 1_555
K1 Se29 3.448516 1_555
K1 Se16 3.454323 1_655
K1 Se38 3.728068 1_555
K2 Se5 3.289266 1_555
K2 Se39 3.432036 1_555
K2 Se20 3.448516 1_555
K2 Se18 3.454323 1_555
K2 Se17 3.728068 1_655
K3 Se0 3.411894 1_555
K3 Se37 3.480501 1_555
K3 Se38 3.532960 1_555
K3 Se28 3.561220 1_555
K3 Se12 3.616930 1_556
K3 Se29 3.646408 1_555
K3 Se15 3.716201 1_555
K3 Se25 3.879935 1_555
K4 Se5 3.303699 1_555
K4 Se35 3.424869 1_555
K4 Se27 3.426919 1_555
K4 Se8 3.533310 1_555
K4 Se7 3.778924 1_555
K4 Se22 3.894461 1_565
K5 Se19 3.289266 1_555
K5 Se37 3.432036 1_555
K5 Se16 3.448516 1_555
K5 Se29 3.454323 1_555
K5 Se24 3.728068 1_455
K6 Se19 3.417309 1_565
K6 Se16 3.491882 1_555
K6 Se35 3.493350 1_555
K6 Se27 3.542822 1_555
K6 Se38 3.866729 1_555
K7 Se8 3.411894 1_455
K7 Se10 3.480501 1_555
K7 Se17 3.532960 1_555
K7 Se7 3.561220 1_455
K7 Se34 3.616930 1_555
K7 Se20 3.646408 1_455
K7 Se26 3.716201 1_555
K7 Se6 3.879935 1_455
K8 Se27 3.411894 1_655
K8 Se35 3.480501 1_555
K8 Se24 3.532960 1_555
K8 Se34 3.561220 1_655
K8 Se7 3.616930 1_555
K8 Se16 3.646408 1_655
K8 Se21 3.716201 1_555
K8 Se30 3.879935 1_655
K9 Se13 3.289266 1_555
K9 Se10 3.432036 1_555
K9 Se18 3.448516 1_555
K9 Se20 3.454323 1_455
K9 Se31 3.728068 1_555
K10 Se13 3.417309 1_565
K10 Se18 3.491882 1_555
K10 Se39 3.493350 1_455
K10 Se33 3.542822 1_555
K10 Se17 3.866729 1_555
K11 Se33 3.411894 1_555
K11 Se39 3.480501 1_555
K11 Se31 3.532960 1_555
K11 Se12 3.561220 1_555
K11 Se28 3.616930 1_554
K11 Se18 3.646408 1_555
K11 Se9 3.716201 1_555
K11 Se3 3.879935 1_555
K12 Se5 3.417309 1_545
K12 Se20 3.491882 1_555
K12 Se10 3.493350 1_555
K12 Se8 3.542822 1_555
K12 Se31 3.866729 1_555
K13 Se19 3.303699 1_555
K13 Se10 3.424869 1_555
K13 Se8 3.426919 1_555
K13 Se27 3.533310 1_555
K13 Se34 3.778924 1_555
K13 Se32 3.894461 1_545
K14 Se13 3.303699 1_555
K14 Se37 3.424869 1_554
K14 Se0 3.426919 1_454
K14 Se33 3.533310 1_555
K14 Se12 3.778924 1_555
K14 Se4 3.894461 1_544
K15 Se23 3.303699 1_555
K15 Se39 3.424869 1_556
K15 Se33 3.426919 1_656
K15 Se0 3.533310 1_555
K15 Se28 3.778924 1_555
K15 Se14 3.894461 1_566
Ge0 Se19 2.293975 1_555
Ge0 Se30 2.390909 1_545
Ge0 Se24 2.431677 1_455
Ge0 Se34 2.437040 1_555
Ge1 Se13 2.293975 1_555
Ge1 Se3 2.390909 1_545
Ge1 Se31 2.431677 1_555
Ge1 Se12 2.437040 1_555
Ge2 Se18 2.307486 1_555
Ge2 Se11 2.405982 1_555
Ge2 Se26 2.419591 1_555
Ge2 Se17 2.425504 1_555
Ge3 Se0 2.313321 1_554
Ge3 Se14 2.398344 1_555
Ge3 Se12 2.419001 1_555
Ge3 Se9 2.421175 1_555
Ge4 Se23 2.293975 1_555
Ge4 Se25 2.390909 1_565
Ge4 Se38 2.431677 1_555
Ge4 Se28 2.437040 1_555
Ge5 Se35 2.312035 1_555
Ge5 Se30 2.400078 1_655
Ge5 Se22 2.408373 1_565
Ge5 Se1 2.422249 1_565
Ge6 Se37 2.312035 1_555
Ge6 Se25 2.400078 1_555
Ge6 Se4 2.408373 1_545
Ge6 Se2 2.422249 1_545
Ge7 Se27 2.313321 1_555
Ge7 Se32 2.398344 1_555
Ge7 Se7 2.419001 1_455
Ge7 Se26 2.421175 1_555
Ge8 Se33 2.313321 1_556
Ge8 Se4 2.398344 1_555
Ge8 Se28 2.419001 1_555
Ge8 Se15 2.421175 1_555
Ge9 Se5 2.293975 1_555
Ge9 Se6 2.390909 1_565
Ge9 Se17 2.431677 1_655
Ge9 Se7 2.437040 1_555
Ge10 Se20 2.307486 1_555
Ge10 Se36 2.405982 1_555
Ge10 Se9 2.419591 1_555
Ge10 Se31 2.425504 1_555
Ge11 Se8 2.313321 1_555
Ge11 Se22 2.398344 1_555
Ge11 Se34 2.419001 1_655
Ge11 Se21 2.421175 1_555
Ge12 Se10 2.312035 1_555
Ge12 Se6 2.400078 1_455
Ge12 Se32 2.408373 1_545
Ge12 Se11 2.422249 1_545
Ge13 Se16 2.307486 1_555
Ge13 Se2 2.405982 1_555
Ge13 Se15 2.419591 1_555
Ge13 Se38 2.425504 1_555
Ge14 Se39 2.312035 1_555
Ge14 Se3 2.400078 1_555
Ge14 Se14 2.408373 1_565
Ge14 Se36 2.422249 1_565
Ge15 Se29 2.307486 1_555
Ge15 Se1 2.405982 1_555
Ge15 Se21 2.419591 1_555
Ge15 Se24 2.425504 1_555
