# generated using pymatgen
data_ZnSeO3
_symmetry_space_group_name_H-M   'P 1'
_cell_length_a   6.21569912
_cell_length_b   7.21441768
_cell_length_c   12.01209078
_cell_angle_alpha   90.00000000
_cell_angle_beta   90.00000000
_cell_angle_gamma   90.00000000
_symmetry_Int_Tables_number   1
_chemical_formula_structural   ZnSeO3
_chemical_formula_sum   'Zn8 Se8 O24'
_cell_volume   538.65397811
_cell_formula_units_Z   8
loop_
 _symmetry_equiv_pos_site_id
 _symmetry_equiv_pos_as_xyz
  1  'x, y, z'
loop_
 _atom_site_type_symbol
 _atom_site_label
 _atom_site_symmetry_multiplicity
 _atom_site_fract_x
 _atom_site_fract_y
 _atom_site_fract_z
 _atom_site_occupancy
  Zn  Zn0  1  0.86475875  0.39201579  0.59519351  1
  Zn  Zn1  1  0.36475875  0.60798421  0.90480649  1
  Zn  Zn2  1  0.63524125  0.89201579  0.40480649  1
  Zn  Zn3  1  0.13524125  0.10798421  0.09519351  1
  Zn  Zn4  1  0.13524125  0.60798421  0.40480649  1
  Zn  Zn5  1  0.63524125  0.39201579  0.09519351  1
  Zn  Zn6  1  0.36475875  0.10798421  0.59519351  1
  Zn  Zn7  1  0.86475875  0.89201579  0.90480649  1
  Se  Se0  1  0.89047911  0.95455554  0.64296684  1
  Se  Se1  1  0.39047911  0.04544446  0.85703316  1
  Se  Se2  1  0.60952089  0.45455554  0.35703316  1
  Se  Se3  1  0.10952089  0.54544446  0.14296684  1
  Se  Se4  1  0.10952089  0.04544446  0.35703316  1
  Se  Se5  1  0.60952089  0.95455554  0.14296684  1
  Se  Se6  1  0.39047911  0.54544446  0.64296684  1
  Se  Se7  1  0.89047911  0.45455554  0.85703316  1
  O  O0  1  0.01930642  0.65248488  0.90701466  1
  O  O1  1  0.51930642  0.34751512  0.59298534  1
  O  O2  1  0.48069358  0.15248488  0.09298534  1
  O  O3  1  0.98069358  0.84751512  0.40701466  1
  O  O4  1  0.98069358  0.34751512  0.09298534  1
  O  O5  1  0.48069358  0.65248488  0.40701466  1
  O  O6  1  0.51930642  0.84751512  0.90701466  1
  O  O7  1  0.01930642  0.15248488  0.59298534  1
  O  O8  1  0.65801047  0.46951051  0.93424611  1
  O  O9  1  0.15801047  0.53048949  0.56575389  1
  O  O10  1  0.84198953  0.96951051  0.06575389  1
  O  O11  1  0.34198953  0.03048949  0.43424611  1
  O  O12  1  0.34198953  0.53048949  0.06575389  1
  O  O13  1  0.84198953  0.46951051  0.43424611  1
  O  O14  1  0.15801047  0.03048949  0.93424611  1
  O  O15  1  0.65801047  0.96951051  0.56575389  1
  O  O16  1  0.79978058  0.03492466  0.76711075  1
  O  O17  1  0.29978058  0.96507534  0.73288925  1
  O  O18  1  0.70021942  0.53492466  0.23288925  1
  O  O19  1  0.20021942  0.46507534  0.26711075  1
  O  O20  1  0.20021942  0.96507534  0.23288925  1
  O  O21  1  0.70021942  0.03492466  0.26711075  1
  O  O22  1  0.29978058  0.46507534  0.76711075  1
  O  O23  1  0.79978058  0.53492466  0.73288925  1
loop_
_geom_bond_atom_site_label_1
_geom_bond_atom_site_label_2
_geom_bond_distance
_geom_bond_site_symmetry_2
O0 Se7 1.743757 1_455
O0 Zn7 1.977307 1_455
O0 Zn1 2.171258 1_555
O1 Se6 1.743757 1_555
O1 Zn6 1.977307 1_555
O1 Zn0 2.171258 1_555
O2 Se5 1.743757 1_545
O2 Zn5 1.977307 1_555
O2 Zn3 2.171258 1_555
O3 Se4 1.743757 1_665
O3 Zn4 1.977307 1_655
O3 Zn2 2.171258 1_555
O4 Se3 1.743757 1_655
O4 Zn3 1.977307 1_655
O4 Zn5 2.171258 1_555
O5 Se2 1.743757 1_555
O5 Zn2 1.977307 1_555
O5 Zn4 2.171258 1_555
O6 Se1 1.743757 1_565
O6 Zn1 1.977307 1_555
O6 Zn7 2.171258 1_555
O7 Se0 1.743757 1_445
O7 Zn0 1.977307 1_455
O7 Zn6 2.171258 1_555
O8 Se7 1.720399 1_555
O8 Zn5 2.017500 1_556
O8 Zn1 2.108445 1_555
O9 Se6 1.720399 1_555
O9 Zn4 2.017500 1_555
O9 Zn0 2.108445 1_455
O10 Se5 1.720399 1_555
O10 Zn7 2.017500 1_554
O10 Zn3 2.108445 1_665
O11 Se4 1.720399 1_555
O11 Zn6 2.017500 1_555
O11 Zn2 2.108445 1_545
O12 Se3 1.720399 1_555
O12 Zn1 2.017500 1_554
O12 Zn5 2.108445 1_555
O13 Se2 1.720399 1_555
O13 Zn0 2.017500 1_555
O13 Zn4 2.108445 1_655
O14 Se1 1.720399 1_555
O14 Zn3 2.017500 1_556
O14 Zn7 2.108445 1_445
O15 Se0 1.720399 1_555
O15 Zn2 2.017500 1_555
O15 Zn6 2.108445 1_565
O16 Se0 1.696398 1_545
O16 Zn7 1.990441 1_545
O17 Se1 1.696398 1_565
O17 Zn6 1.990441 1_565
O18 Se2 1.696398 1_555
O18 Zn5 1.990441 1_555
O19 Se3 1.696398 1_555
O19 Zn4 1.990441 1_555
O20 Se4 1.696398 1_565
O20 Zn3 1.990441 1_565
O21 Se5 1.696398 1_545
O21 Zn2 1.990441 1_545
O22 Se6 1.696398 1_555
O22 Zn1 1.990441 1_555
O23 Se7 1.696398 1_555
O23 Zn0 1.990441 1_555
