# generated using pymatgen
data_La4Mn5(Si2O11)2
_symmetry_space_group_name_H-M   'P 1'
_cell_length_a   7.62760191
_cell_length_b   7.62760191
_cell_length_c   11.81717803
_cell_angle_alpha   67.54468749
_cell_angle_beta   67.54468749
_cell_angle_gamma   43.70813771
_symmetry_Int_Tables_number   1
_chemical_formula_structural   La4Mn5(Si2O11)2
_chemical_formula_sum   'La4 Mn5 Si4 O22'
_cell_volume   432.97617933
_cell_formula_units_Z   1
loop_
 _symmetry_equiv_pos_site_id
 _symmetry_equiv_pos_as_xyz
  1  'x, y, z'
loop_
 _atom_site_type_symbol
 _atom_site_label
 _atom_site_symmetry_multiplicity
 _atom_site_fract_x
 _atom_site_fract_y
 _atom_site_fract_z
 _atom_site_occupancy
  La  La0  1  0.76191100  0.76191100  0.26137000  1
  La  La1  1  0.23808900  0.23808900  0.73863000  1
  La  La2  1  0.94844700  0.94844700  0.74789000  1
  La  La3  1  0.05155300  0.05155300  0.25211000  1
  Mn  Mn0  1  0.74886100  0.25113900  0.00000000  1
  Mn  Mn1  1  0.25113900  0.74886100  0.00000000  1
  Mn  Mn2  1  0.73238400  0.73238400  0.00096200  1
  Mn  Mn3  1  0.26761600  0.26761600  0.99903800  1
  Mn  Mn4  1  0.50000000  0.50000000  0.50000000  1
  Si  Si0  1  0.83483100  0.83483100  0.55048500  1
  Si  Si1  1  0.16516900  0.16516900  0.44951500  1
  Si  Si2  1  0.58711900  0.58711900  0.73646700  1
  Si  Si3  1  0.41288100  0.41288100  0.26353300  1
  O  O0  1  0.67146700  0.18005100  0.18156000  1
  O  O1  1  0.81994900  0.32853300  0.81844000  1
  O  O2  1  0.32853300  0.81994900  0.81844000  1
  O  O3  1  0.18005100  0.67146700  0.18156000  1
  O  O4  1  0.45867200  0.96115200  0.12448400  1
  O  O5  1  0.03884800  0.54132800  0.87551600  1
  O  O6  1  0.54132800  0.03884800  0.87551600  1
  O  O7  1  0.96115200  0.45867200  0.12448400  1
  O  O8  1  0.35250200  0.89220800  0.39983600  1
  O  O9  1  0.10779200  0.64749800  0.60016400  1
  O  O10  1  0.64749800  0.10779200  0.60016400  1
  O  O11  1  0.89220800  0.35250200  0.39983600  1
  O  O12  1  0.91212800  0.91212800  0.98706000  1
  O  O13  1  0.08787200  0.08787200  0.01294000  1
  O  O14  1  0.58452700  0.58452700  0.01224100  1
  O  O15  1  0.41547300  0.41547300  0.98775900  1
  O  O16  1  0.50333700  0.50333700  0.67811200  1
  O  O17  1  0.49666300  0.49666300  0.32188800  1
  O  O18  1  0.70795500  0.70795500  0.63423500  1
  O  O19  1  0.29204500  0.29204500  0.36576500  1
  O  O20  1  0.86495500  0.86495500  0.40303800  1
  O  O21  1  0.13504500  0.13504500  0.59696200  1
loop_
_geom_bond_atom_site_label_1
_geom_bond_atom_site_label_2
_geom_bond_distance
_geom_bond_site_symmetry_2
La0 O7 2.484844 1_555
La0 O4 2.484844 1_555
La0 O11 2.503775 1_555
La0 O8 2.503775 1_555
La0 O0 2.560436 1_565
La0 O3 2.560436 1_655
La0 O20 2.634708 1_555
La1 O5 2.484844 1_555
La1 O6 2.484844 1_555
La1 O9 2.503775 1_555
La1 O10 2.503775 1_555
La1 O2 2.560436 1_545
La1 O1 2.560436 1_455
La1 O21 2.634708 1_555
La2 O21 2.506558 1_665
La2 O6 2.552289 1_565
La2 O5 2.552289 1_655
La2 O12 2.656358 1_555
La2 O2 2.678586 1_655
La2 O1 2.678586 1_565
La2 O9 2.683451 1_655
La2 O10 2.683451 1_565
La2 O16 2.969555 1_655
La2 O16 2.969555 1_565
La3 O20 2.506558 1_445
La3 O4 2.552289 1_545
La3 O7 2.552289 1_455
La3 O13 2.656358 1_555
La3 O0 2.678586 1_455
La3 O3 2.678586 1_545
La3 O8 2.683451 1_545
La3 O11 2.683451 1_455
La3 O17 2.969555 1_545
La3 O17 2.969555 1_455
Mn0 O15 1.895492 1_554
Mn0 O14 1.895492 1_555
Mn0 O12 1.939532 1_544
Mn0 O13 1.939532 1_655
Mn0 O0 1.962720 1_555
Mn0 O1 1.962720 1_554
Mn1 O15 1.895492 1_554
Mn1 O14 1.895492 1_555
Mn1 O13 1.939532 1_565
Mn1 O12 1.939532 1_454
Mn1 O3 1.962720 1_555
Mn1 O2 1.962720 1_554
Mn2 O5 1.965632 1_654
Mn2 O6 1.965632 1_564
Mn2 O7 1.971073 1_555
Mn2 O4 1.971073 1_555
Mn2 O14 2.042254 1_555
Mn2 O12 2.481887 1_554
Mn3 O4 1.965632 1_546
Mn3 O7 1.965632 1_456
Mn3 O5 1.971073 1_555
Mn3 O6 1.971073 1_555
Mn3 O15 2.042254 1_555
Mn3 O13 2.481887 1_556
Mn4 O17 2.124662 1_555
Mn4 O16 2.124662 1_555
Mn4 O11 2.250059 1_555
Mn4 O8 2.250059 1_555
Mn4 O9 2.250059 1_555
Mn4 O10 2.250059 1_555
O0 Si3 1.665252 1_555
O1 Si2 1.665252 1_555
O2 Si2 1.665252 1_555
O3 Si3 1.665252 1_555
O8 Si1 1.647147 1_565
O9 Si0 1.647147 1_455
O10 Si0 1.647147 1_545
O11 Si1 1.647147 1_655
O16 Si2 1.598766 1_555
O17 Si3 1.598766 1_555
O18 Si2 1.638731 1_555
O18 Si0 1.656283 1_555
O19 Si3 1.638731 1_555
O19 Si1 1.656283 1_555
O20 Si0 1.614378 1_555
O21 Si1 1.614378 1_555
