# generated using pymatgen
data_Ti3Ir
_symmetry_space_group_name_H-M   'P 1'
_cell_length_a   4.99972693
_cell_length_b   4.99972693
_cell_length_c   4.99972693
_cell_angle_alpha   90.00000000
_cell_angle_beta   90.00000000
_cell_angle_gamma   90.00000000
_symmetry_Int_Tables_number   1
_chemical_formula_structural   Ti3Ir
_chemical_formula_sum   'Ti6 Ir2'
_cell_volume   124.97952087
_cell_formula_units_Z   2
loop_
 _symmetry_equiv_pos_site_id
 _symmetry_equiv_pos_as_xyz
  1  'x, y, z'
loop_
 _atom_site_type_symbol
 _atom_site_label
 _atom_site_symmetry_multiplicity
 _atom_site_fract_x
 _atom_site_fract_y
 _atom_site_fract_z
 _atom_site_occupancy
  Ti  Ti0  1  0.50000000  0.25000000  -0.00000000  1
  Ti  Ti1  1  0.50000000  0.75000000  -0.00000000  1
  Ti  Ti2  1  0.25000000  0.00000000  0.50000000  1
  Ti  Ti3  1  0.75000000  0.00000000  0.50000000  1
  Ti  Ti4  1  0.00000000  0.50000000  0.25000000  1
  Ti  Ti5  1  0.00000000  0.50000000  0.75000000  1
  Ir  Ir0  1  0.50000000  0.50000000  0.50000000  1
  Ir  Ir1  1  0.00000000  0.00000000  -0.00000000  1
loop_
_geom_bond_atom_site_label_1
_geom_bond_atom_site_label_2
_geom_bond_distance
_geom_bond_site_symmetry_2
Ti0 Ti1 2.499863 1_555
Ti0 Ti1 2.499863 1_545
Ti0 Ti2 3.061695 1_555
Ti0 Ti4 3.061695 1_655
Ti0 Ti5 3.061695 1_654
Ti0 Ti3 3.061695 1_555
Ti0 Ti2 3.061695 1_554
Ti0 Ti4 3.061695 1_555
Ti0 Ti5 3.061695 1_554
Ti0 Ti3 3.061695 1_554
Ti1 Ti4 3.061695 1_655
Ti1 Ti5 3.061695 1_554
Ti1 Ti3 3.061695 1_564
Ti1 Ti2 3.061695 1_565
Ti1 Ti2 3.061695 1_564
Ti1 Ti5 3.061695 1_654
Ti1 Ti4 3.061695 1_555
Ti1 Ti3 3.061695 1_565
Ti2 Ti3 2.499863 1_455
Ti2 Ti3 2.499863 1_555
Ti2 Ti4 3.061695 1_555
Ti2 Ti4 3.061695 1_545
Ti2 Ti5 3.061695 1_555
Ti2 Ti5 3.061695 1_545
Ti3 Ti4 3.061695 1_655
Ti3 Ti4 3.061695 1_645
Ti3 Ti5 3.061695 1_655
Ti3 Ti5 3.061695 1_645
Ti4 Ti5 2.499863 1_555
Ti4 Ti5 2.499863 1_554
Ir0 Ti5 2.794932 1_555
Ir0 Ti0 2.794932 1_556
Ir0 Ti2 2.794932 1_565
Ir0 Ti5 2.794932 1_655
Ir0 Ti0 2.794932 1_555
Ir0 Ti3 2.794932 1_555
Ir0 Ti4 2.794932 1_555
Ir0 Ti3 2.794932 1_565
Ir0 Ti1 2.794932 1_555
Ir0 Ti1 2.794932 1_556
Ir0 Ti4 2.794932 1_655
Ir0 Ti2 2.794932 1_555
Ir1 Ti3 2.794932 1_454
Ir1 Ti3 2.794932 1_455
Ir1 Ti0 2.794932 1_555
Ir1 Ti4 2.794932 1_545
Ir1 Ti5 2.794932 1_544
Ir1 Ti1 2.794932 1_545
Ir1 Ti4 2.794932 1_555
Ir1 Ti1 2.794932 1_445
Ir1 Ti5 2.794932 1_554
Ir1 Ti2 2.794932 1_554
Ir1 Ti2 2.794932 1_555
Ir1 Ti0 2.794932 1_455
