# generated using pymatgen
data_Cs7Cu6F19
_symmetry_space_group_name_H-M   'P 1'
_cell_length_a   6.25390924
_cell_length_b   11.44072763
_cell_length_c   15.85169456
_cell_angle_alpha   82.62092964
_cell_angle_beta   90.00000000
_cell_angle_gamma   90.00000000
_symmetry_Int_Tables_number   1
_chemical_formula_structural   Cs7Cu6F19
_chemical_formula_sum   'Cs14 Cu12 F38'
_cell_volume   1124.78411777
_cell_formula_units_Z   2
loop_
 _symmetry_equiv_pos_site_id
 _symmetry_equiv_pos_as_xyz
  1  'x, y, z'
loop_
 _atom_site_type_symbol
 _atom_site_label
 _atom_site_symmetry_multiplicity
 _atom_site_fract_x
 _atom_site_fract_y
 _atom_site_fract_z
 _atom_site_occupancy
  Cs  Cs0  1  0.00844543  0.05413416  0.15155255  1
  Cs  Cs1  1  0.98980445  0.59416998  0.79299999  1
  Cs  Cs2  1  0.01019555  0.40583002  0.20700001  1
  Cs  Cs3  1  0.50844543  0.94586584  0.34844745  1
  Cs  Cs4  1  0.99834637  0.15861094  0.43384785  1
  Cs  Cs5  1  0.49834637  0.84138906  0.06615215  1
  Cs  Cs6  1  0.51019555  0.59416998  0.29299999  1
  Cs  Cs7  1  -0.00000000  0.50000000  0.50000000  1
  Cs  Cs8  1  0.00165363  0.84138906  0.56615215  1
  Cs  Cs9  1  0.49155457  0.05413416  0.65155255  1
  Cs  Cs10  1  0.48980445  0.40583002  0.70700001  1
  Cs  Cs11  1  0.50000000  0.50000000  -0.00000000  1
  Cs  Cs12  1  0.50165363  0.15861094  0.93384785  1
  Cs  Cs13  1  0.99155457  0.94586584  0.84844745  1
  Cu  Cu0  1  0.99690064  0.67101804  0.01392131  1
  Cu  Cu1  1  0.99604082  0.27189550  0.82133756  1
  Cu  Cu2  1  0.49690064  0.32898196  0.48607869  1
  Cu  Cu3  1  0.50395918  0.27189550  0.32133756  1
  Cu  Cu4  1  0.00309936  0.32898196  0.98607869  1
  Cu  Cu5  1  0.50518474  0.23105297  0.15298159  1
  Cu  Cu6  1  0.00518474  0.76894703  0.34701841  1
  Cu  Cu7  1  0.49604082  0.72810450  0.67866244  1
  Cu  Cu8  1  0.99481526  0.23105297  0.65298159  1
  Cu  Cu9  1  0.50309936  0.67101804  0.51392131  1
  Cu  Cu10  1  0.00395918  0.72810450  0.17866244  1
  Cu  Cu11  1  0.49481526  0.76894703  0.84701841  1
  F  F0  1  0.80748900  0.63732448  0.11159797  1
  F  F1  1  0.27611880  0.27580269  0.07424874  1
  F  F2  1  0.77380757  0.35871249  0.86399426  1
  F  F3  1  0.28924317  0.70843045  0.43168300  1
  F  F4  1  0.50000000  0.50000000  0.50000000  1
  F  F5  1  0.71075683  0.29156955  0.56831700  1
  F  F6  1  0.99971971  0.38210649  0.69092051  1
  F  F7  1  0.72104919  0.81346855  0.72040993  1
  F  F8  1  0.00028029  0.61789351  0.30907949  1
  F  F9  1  0.77895081  0.81346855  0.22040993  1
  F  F10  1  0.72619243  0.35871249  0.36399426  1
  F  F11  1  0.80072325  0.18597997  0.75296437  1
  F  F12  1  0.69251100  0.63732448  0.61159797  1
  F  F13  1  0.50028029  0.38210649  0.19092051  1
  F  F14  1  0.78924317  0.29156955  0.06831700  1
  F  F15  1  0.27895081  0.18653145  0.27959007  1
  F  F16  1  0.49971971  0.61789351  0.80907949  1
  F  F17  1  0.98977930  0.07712930  0.62484898  1
  F  F18  1  0.22388120  0.27580269  0.57424874  1
  F  F19  1  0.48977930  0.92287070  0.87515102  1
  F  F20  1  0.00465921  0.83094219  0.04412371  1
  F  F21  1  0.69927675  0.18597997  0.25296437  1
  F  F22  1  0.51022070  0.07712930  0.12484898  1
  F  F23  1  0.19251100  0.36267552  0.88840203  1
  F  F24  1  0.19927675  0.81402003  0.24703563  1
  F  F25  1  0.30072325  0.81402003  0.74703563  1
  F  F26  1  0.30748900  0.36267552  0.38840203  1
  F  F27  1  0.01022070  0.92287070  0.37515102  1
  F  F28  1  0.22619243  0.64128751  0.13600574  1
  F  F29  1  0.21075683  0.70843045  0.93168300  1
  F  F30  1  0.77611880  0.72419731  0.42575126  1
  F  F31  1  0.72388120  0.72419731  0.92575126  1
  F  F32  1  0.22104919  0.18653145  0.77959007  1
  F  F33  1  0.49534079  0.83094219  0.54412371  1
  F  F34  1  0.27380757  0.64128751  0.63600574  1
  F  F35  1  0.50465921  0.16905781  0.45587629  1
  F  F36  1  -0.00000000  0.50000000  -0.00000000  1
  F  F37  1  0.99534079  0.16905781  0.95587629  1
loop_
_geom_bond_atom_site_label_1
_geom_bond_atom_site_label_2
_geom_bond_distance
_geom_bond_site_symmetry_2
Cs0 F21 3.036586 1_455
Cs0 F22 3.150924 1_455
Cs0 F1 3.152329 1_555
Cs0 F9 3.171826 1_445
Cs0 F15 3.172584 1_555
Cs0 F22 3.172883 1_555
Cs0 F14 3.174671 1_455
Cs0 F24 3.192745 1_545
Cs0 F37 3.210768 1_454
Cs0 F20 3.246188 1_545
Cs1 F29 3.031371 1_655
Cs1 F34 3.048587 1_655
Cs1 F6 3.084943 1_555
Cs1 F16 3.090355 1_555
Cs1 F2 3.093394 1_555
Cs1 F7 3.114841 1_555
Cs1 F23 3.143190 1_655
Cs1 F25 3.188652 1_655
Cs1 F31 3.195475 1_555
Cs1 F16 3.213393 1_655
Cs1 F36 3.320190 1_656
Cs1 F12 3.406545 1_555
Cs2 F14 3.031371 1_455
Cs2 F10 3.048587 1_455
Cs2 F8 3.084943 1_555
Cs2 F13 3.090355 1_555
Cs2 F28 3.093394 1_555
Cs2 F15 3.114841 1_555
Cs2 F0 3.143190 1_455
Cs2 F21 3.188652 1_455
Cs2 F1 3.195475 1_555
Cs2 F13 3.213393 1_455
Cs2 F36 3.320190 1_555
Cs2 F26 3.406545 1_555
Cs3 F24 3.036586 1_555
Cs3 F27 3.150924 1_555
Cs3 F30 3.152329 1_555
Cs3 F15 3.171826 1_565
Cs3 F9 3.172584 1_555
Cs3 F27 3.172883 1_655
Cs3 F3 3.174671 1_555
Cs3 F21 3.192745 1_565
Cs3 F33 3.210768 1_555
Cs3 F35 3.246188 1_565
Cs4 F10 2.951743 1_555
Cs4 F27 2.964769 1_645
Cs4 F15 2.993363 1_655
Cs4 F26 3.045549 1_655
Cs4 F17 3.051853 1_555
Cs4 F18 3.083313 1_655
Cs4 F35 3.111179 1_555
Cs4 F35 3.189553 1_655
Cs4 F5 3.305317 1_555
Cs4 F21 3.403985 1_555
Cs5 F28 2.951743 1_555
Cs5 F22 2.964769 1_565
Cs5 F9 2.993363 1_555
Cs5 F0 3.045549 1_555
Cs5 F19 3.051853 1_554
Cs5 F31 3.083313 1_554
Cs5 F20 3.111179 1_555
Cs5 F20 3.189553 1_655
Cs5 F29 3.305317 1_554
Cs5 F24 3.403985 1_555
Cs6 F3 3.031371 1_555
Cs6 F28 3.048587 1_555
Cs6 F13 3.084943 1_555
Cs6 F8 3.090355 1_655
Cs6 F10 3.093394 1_555
Cs6 F9 3.114841 1_555
Cs6 F26 3.143190 1_555
Cs6 F24 3.188652 1_555
Cs6 F30 3.195475 1_555
Cs6 F8 3.213393 1_555
Cs6 F4 3.320190 1_555
Cs6 F0 3.406545 1_555
Cs7 F18 3.024780 1_555
Cs7 F30 3.024780 1_455
Cs7 F5 3.076988 1_455
Cs7 F3 3.076988 1_555
Cs7 F4 3.126955 1_555
Cs7 F4 3.126955 1_455
Cs7 F8 3.151172 1_555
Cs7 F6 3.151172 1_455
Cs7 F26 3.163798 1_555
Cs7 F12 3.163798 1_455
Cs7 F34 3.329896 1_555
Cs7 F10 3.329896 1_455
Cs8 F34 2.951743 1_555
Cs8 F17 2.964769 1_465
Cs8 F7 2.993363 1_455
Cs8 F12 3.045549 1_455
Cs8 F27 3.051853 1_555
Cs8 F30 3.083313 1_455
Cs8 F33 3.111179 1_555
Cs8 F33 3.189553 1_455
Cs8 F3 3.305317 1_555
Cs8 F25 3.403985 1_555
Cs9 F11 3.036586 1_555
Cs9 F17 3.150924 1_555
Cs9 F18 3.152329 1_555
Cs9 F7 3.171826 1_545
Cs9 F32 3.172584 1_555
Cs9 F17 3.172883 1_455
Cs9 F5 3.174671 1_555
Cs9 F25 3.192745 1_545
Cs9 F35 3.210768 1_555
Cs9 F33 3.246188 1_545
Cs10 F5 3.031371 1_555
Cs10 F2 3.048587 1_555
Cs10 F16 3.084943 1_555
Cs10 F6 3.090355 1_455
Cs10 F34 3.093394 1_555
Cs10 F32 3.114841 1_555
Cs10 F12 3.143190 1_555
Cs10 F11 3.188652 1_555
Cs10 F18 3.195475 1_555
Cs10 F6 3.213393 1_555
Cs10 F4 3.320190 1_555
Cs10 F23 3.406545 1_555
Cs11 F1 3.024780 1_555
Cs11 F31 3.024780 1_554
Cs11 F14 3.076988 1_555
Cs11 F29 3.076988 1_554
Cs11 F36 3.126955 1_655
Cs11 F36 3.126955 1_555
Cs11 F16 3.151172 1_554
Cs11 F13 3.151172 1_555
Cs11 F23 3.163798 1_554
Cs11 F0 3.163798 1_555
Cs11 F2 3.329896 1_554
Cs11 F28 3.329896 1_555
Cs12 F2 2.951743 1_555
Cs12 F19 2.964769 1_545
Cs12 F32 2.993363 1_555
Cs12 F23 3.045549 1_555
Cs12 F22 3.051853 1_556
Cs12 F1 3.083313 1_556
Cs12 F37 3.111179 1_555
Cs12 F37 3.189553 1_455
Cs12 F14 3.305317 1_556
Cs12 F11 3.403985 1_555
Cs13 F25 3.036586 1_655
Cs13 F19 3.150924 1_655
Cs13 F31 3.152329 1_555
Cs13 F32 3.171826 1_665
Cs13 F7 3.172584 1_555
Cs13 F19 3.172883 1_555
Cs13 F29 3.174671 1_655
Cs13 F11 3.192745 1_565
Cs13 F20 3.210768 1_656
Cs13 F37 3.246188 1_565
Cu0 F29 1.878306 1_654
Cu0 F0 1.948289 1_555
Cu0 F20 1.950432 1_655
Cu0 F36 1.997035 1_655
Cu0 F31 2.240646 1_554
Cu0 F28 2.397510 1_655
Cu1 F32 1.880934 1_655
Cu1 F2 1.883587 1_555
Cu1 F11 1.976502 1_555
Cu1 F23 2.000537 1_655
Cu1 F6 2.279182 1_555
Cu1 F37 2.299567 1_555
Cu2 F5 1.878306 1_555
Cu2 F26 1.948289 1_555
Cu2 F35 1.950432 1_555
Cu2 F4 1.997035 1_555
Cu2 F18 2.240646 1_555
Cu2 F10 2.397510 1_555
Cu3 F15 1.880934 1_555
Cu3 F10 1.883587 1_555
Cu3 F21 1.976502 1_555
Cu3 F26 2.000537 1_555
Cu3 F13 2.279182 1_555
Cu3 F35 2.299567 1_555
Cu4 F14 1.878306 1_456
Cu4 F23 1.948289 1_555
Cu4 F37 1.950432 1_455
Cu4 F36 1.997035 1_556
Cu4 F1 2.240646 1_556
Cu4 F2 2.397510 1_455
Cu5 F22 1.871551 1_555
Cu5 F13 1.901612 1_555
Cu5 F1 1.925573 1_555
Cu5 F21 2.010291 1_555
Cu5 F14 2.279849 1_555
Cu5 F15 2.454900 1_555
Cu6 F27 1.871551 1_555
Cu6 F8 1.901612 1_555
Cu6 F30 1.925573 1_455
Cu6 F24 2.010291 1_555
Cu6 F3 2.279849 1_555
Cu6 F9 2.454900 1_455
Cu7 F7 1.880934 1_555
Cu7 F34 1.883587 1_555
Cu7 F25 1.976502 1_555
Cu7 F12 2.000537 1_555
Cu7 F16 2.279182 1_555
Cu7 F33 2.299567 1_555
Cu8 F17 1.871551 1_555
Cu8 F6 1.901612 1_555
Cu8 F18 1.925573 1_655
Cu8 F11 2.010291 1_555
Cu8 F5 2.279849 1_555
Cu8 F32 2.454900 1_655
Cu9 F3 1.878306 1_555
Cu9 F12 1.948289 1_555
Cu9 F33 1.950432 1_555
Cu9 F4 1.997035 1_555
Cu9 F30 2.240646 1_555
Cu9 F34 2.397510 1_555
Cu10 F9 1.880934 1_455
Cu10 F28 1.883587 1_555
Cu10 F24 1.976502 1_555
Cu10 F0 2.000537 1_455
Cu10 F8 2.279182 1_555
Cu10 F20 2.299567 1_555
Cu11 F19 1.871551 1_555
Cu11 F16 1.901612 1_555
Cu11 F31 1.925573 1_555
Cu11 F25 2.010291 1_555
Cu11 F29 2.279849 1_555
Cu11 F7 2.454900 1_555
