# generated using pymatgen
data_K3Nb2AsSe11
_symmetry_space_group_name_H-M   'P 1'
_cell_length_a   10.14478449
_cell_length_b   10.14478449
_cell_length_c   10.09721085
_cell_angle_alpha   82.85039004
_cell_angle_beta   82.85039004
_cell_angle_gamma   82.47342233
_symmetry_Int_Tables_number   1
_chemical_formula_structural   K3Nb2AsSe11
_chemical_formula_sum   'K6 Nb4 As2 Se22'
_cell_volume   1016.00958953
_cell_formula_units_Z   2
loop_
 _symmetry_equiv_pos_site_id
 _symmetry_equiv_pos_as_xyz
  1  'x, y, z'
loop_
 _atom_site_type_symbol
 _atom_site_label
 _atom_site_symmetry_multiplicity
 _atom_site_fract_x
 _atom_site_fract_y
 _atom_site_fract_z
 _atom_site_occupancy
  K  K0  1  0.89941400  0.05565600  0.74994900  1
  K  K1  1  0.05565600  0.89941400  0.24994900  1
  K  K2  1  0.80051900  0.66277100  0.91621200  1
  K  K3  1  0.66277100  0.80051900  0.41621200  1
  K  K4  1  0.27232700  0.43081100  0.16523500  1
  K  K5  1  0.43081100  0.27232700  0.66523500  1
  Nb  Nb0  1  0.41016000  0.82675500  0.83067100  1
  Nb  Nb1  1  0.82675500  0.41016000  0.33067100  1
  Nb  Nb2  1  0.15755800  0.70896700  0.64647400  1
  Nb  Nb3  1  0.70896700  0.15755800  0.14647400  1
  As  As0  1  0.04555100  0.35099100  0.59756700  1
  As  As1  1  0.35099100  0.04555100  0.09756700  1
  Se  Se0  1  0.14143900  0.74008200  0.90388800  1
  Se  Se1  1  0.74008200  0.14143900  0.40388800  1
  Se  Se2  1  0.25916700  0.94361900  0.62738400  1
  Se  Se3  1  0.94361900  0.25916700  0.12738400  1
  Se  Se4  1  0.44107300  0.64024500  0.66778800  1
  Se  Se5  1  0.64024500  0.44107300  0.16778800  1
  Se  Se6  1  0.19874300  0.50730200  0.49220900  1
  Se  Se7  1  0.50730200  0.19874300  0.99220900  1
  Se  Se8  1  0.22567700  0.03282300  0.90511100  1
  Se  Se9  1  0.03282300  0.22567700  0.40511100  1
  Se  Se10  1  0.13153900  0.51898700  0.84375600  1
  Se  Se11  1  0.51898700  0.13153900  0.34375600  1
  Se  Se12  1  0.44170700  0.81467300  0.08932900  1
  Se  Se13  1  0.81467300  0.44170700  0.58932900  1
  Se  Se14  1  0.49323400  0.57454300  0.89238600  1
  Se  Se15  1  0.57454300  0.49323400  0.39238600  1
  Se  Se16  1  0.31065200  0.81562700  0.43908500  1
  Se  Se17  1  0.81562700  0.31065200  0.93908500  1
  Se  Se18  1  0.59717800  0.94246900  0.74692900  1
  Se  Se19  1  0.94246900  0.59717800  0.24692900  1
  Se  Se20  1  0.93833500  0.78502600  0.58659900  1
  Se  Se21  1  0.78502600  0.93833500  0.08659900  1
loop_
_geom_bond_atom_site_label_1
_geom_bond_atom_site_label_2
_geom_bond_distance
_geom_bond_site_symmetry_2
K0 Se20 3.330936 1_545
K0 Se17 3.363214 1_555
K0 Se18 3.416844 1_545
K0 Se21 3.562413 1_546
K0 Se2 3.779188 1_645
K0 Se8 3.803033 1_655
K1 Se21 3.330936 1_455
K1 Se16 3.363214 1_555
K1 Se19 3.416844 1_455
K1 Se20 3.562413 1_455
K1 Se3 3.779188 1_465
K1 Se9 3.803033 1_565
K2 Se14 3.398241 1_555
K2 Se21 3.437209 1_556
K2 Se10 3.508674 1_655
K2 Se17 3.535146 1_555
K2 Se5 3.558443 1_556
K2 Se20 3.583040 1_555
K2 Se0 3.629249 1_655
K2 Se18 3.655858 1_555
K2 Se19 3.749727 1_556
K3 Se15 3.398241 1_555
K3 Se20 3.437209 1_555
K3 Se11 3.508674 1_565
K3 Se16 3.535146 1_555
K3 Se4 3.558443 1_555
K3 Se21 3.583040 1_555
K3 Se1 3.629249 1_565
K3 Se19 3.655858 1_555
K3 Se18 3.749727 1_555
K4 Se6 3.454267 1_555
K4 Se7 3.576906 1_554
K4 Se19 3.592605 1_455
K4 Se14 3.613557 1_554
K4 Se10 3.670622 1_554
K4 Se5 3.750878 1_555
K4 Se9 3.834810 1_555
K5 Se7 3.454267 1_555
K5 Se6 3.576906 1_555
K5 Se18 3.592605 1_545
K5 Se15 3.613557 1_555
K5 Se11 3.670622 1_555
K5 Se4 3.750878 1_555
K5 Se8 3.834810 1_555
Nb0 Se18 2.372685 1_555
Nb0 Se14 2.610390 1_555
Nb0 Se4 2.621851 1_555
Nb0 Se12 2.656436 1_556
Nb0 Se8 2.730180 1_565
Nb0 Se2 2.768825 1_555
Nb0 Se0 2.952264 1_555
Nb1 Se19 2.372685 1_555
Nb1 Se15 2.610390 1_555
Nb1 Se5 2.621851 1_555
Nb1 Se13 2.656436 1_555
Nb1 Se9 2.730180 1_655
Nb1 Se3 2.768825 1_555
Nb1 Se1 2.952264 1_555
Nb2 Se20 2.382422 1_455
Nb2 Se10 2.607484 1_555
Nb2 Se0 2.639495 1_555
Nb2 Se16 2.652295 1_555
Nb2 Se6 2.682095 1_555
Nb2 Se2 2.691767 1_555
Nb2 Se4 2.897638 1_555
Nb3 Se21 2.382422 1_545
Nb3 Se11 2.607484 1_555
Nb3 Se1 2.639495 1_555
Nb3 Se17 2.652295 1_554
Nb3 Se7 2.682095 1_554
Nb3 Se3 2.691767 1_555
Nb3 Se5 2.897638 1_555
As0 Se13 2.409264 1_455
As0 Se6 2.423978 1_555
As0 Se9 2.475790 1_555
As0 K0 3.604203 1_455
As1 Se12 2.409264 1_545
As1 Se7 2.423978 1_554
As1 Se8 2.475790 1_554
As1 K1 3.604203 1_545
Se0 Se10 2.413047 1_555
Se1 Se11 2.413047 1_555
Se14 Se4 2.386904 1_555
Se15 Se5 2.386904 1_555
Se16 Se2 2.400700 1_555
Se17 Se3 2.400700 1_556
