# generated using pymatgen
data_Sr8Si2PtO14
_symmetry_space_group_name_H-M   'P 1'
_cell_length_a   9.98604454
_cell_length_b   9.98604454
_cell_length_c   7.27649475
_cell_angle_alpha   70.27804607
_cell_angle_beta   70.27804607
_cell_angle_gamma   33.75718640
_symmetry_Int_Tables_number   1
_chemical_formula_structural   Sr8Si2PtO14
_chemical_formula_sum   'Sr8 Si2 Pt1 O14'
_cell_volume   377.30492172
_cell_formula_units_Z   1
loop_
 _symmetry_equiv_pos_site_id
 _symmetry_equiv_pos_as_xyz
  1  'x, y, z'
loop_
 _atom_site_type_symbol
 _atom_site_label
 _atom_site_symmetry_multiplicity
 _atom_site_fract_x
 _atom_site_fract_y
 _atom_site_fract_z
 _atom_site_occupancy
  Sr  Sr0  1  0.52444200  0.51979800  0.20110700  1
  Sr  Sr1  1  0.89028600  0.92489500  0.45741100  1
  Sr  Sr2  1  0.83573900  0.83261700  0.99476100  1
  Sr  Sr3  1  0.68387200  0.68828400  0.71125100  1
  Sr  Sr4  1  0.48020200  0.47555800  0.79889300  1
  Sr  Sr5  1  0.16738300  0.16426100  0.00523900  1
  Sr  Sr6  1  0.07510500  0.10971400  0.54258900  1
  Sr  Sr7  1  0.31171600  0.31612800  0.28874900  1
  Si  Si0  1  0.30917500  0.34796500  0.70550400  1
  Si  Si1  1  0.65203500  0.69082500  0.29449600  1
  Pt  Pt0  1  0.00336800  0.99663200  0.00000000  1
  O  O0  1  0.01181400  0.59634200  0.70051500  1
  O  O1  1  0.32212300  0.83815200  0.85973000  1
  O  O2  1  0.43751500  0.38728000  0.54023200  1
  O  O3  1  0.96961700  0.95496600  0.75873400  1
  O  O4  1  0.36530500  0.28755200  0.92872900  1
  O  O5  1  0.71244800  0.63469500  0.07127100  1
  O  O6  1  0.16184800  0.67787700  0.14027000  1
  O  O7  1  0.88083700  0.58312200  0.34614000  1
  O  O8  1  0.40365800  0.98818600  0.29948500  1
  O  O9  1  0.68269200  0.15632700  0.14228900  1
  O  O10  1  0.04503400  0.03038300  0.24126600  1
  O  O11  1  0.84367300  0.31730800  0.85771100  1
  O  O12  1  0.41687800  0.11916300  0.65386000  1
  O  O13  1  0.61272000  0.56248500  0.45976800  1
loop_
_geom_bond_atom_site_label_1
_geom_bond_atom_site_label_2
_geom_bond_distance
_geom_bond_site_symmetry_2
O0 Si0 1.654119 1_555
O0 Sr1 2.505512 1_455
O0 Sr3 2.539644 1_455
O0 Sr2 2.685745 1_455
O1 Pt0 2.049278 1_556
O1 Sr3 2.433987 1_555
O1 Sr4 2.627642 1_555
O1 Sr5 2.639945 1_566
O1 Sr6 2.694319 1_565
O1 Sr0 2.781413 1_556
O2 Si0 1.649452 1_555
O2 Sr4 2.605276 1_555
O2 Sr0 2.618102 1_555
O2 Sr1 2.729688 1_545
O3 Pt0 2.119968 1_656
O3 Sr6 2.433021 1_665
O3 Sr2 2.445385 1_555
O3 Sr1 2.745428 1_555
O3 Sr4 2.911123 1_655
O3 Sr4 2.968355 1_565
O4 Si0 1.645388 1_555
O4 Sr7 2.556365 1_556
O4 Sr4 2.717892 1_555
O4 Sr2 2.738893 1_545
O4 Sr5 2.927996 1_556
O4 Sr2 3.164028 1_455
O5 Si1 1.645388 1_555
O5 Sr3 2.556365 1_554
O5 Sr0 2.717892 1_555
O5 Sr5 2.738893 1_655
O5 Sr2 2.927996 1_554
O5 Sr5 3.164028 1_565
O6 Pt0 2.049278 1_555
O6 Sr7 2.433987 1_555
O6 Sr0 2.627642 1_555
O6 Sr2 2.639945 1_454
O6 Sr1 2.694319 1_455
O6 Sr4 2.781413 1_554
O7 Si1 1.654981 1_555
O7 Sr7 2.501974 1_655
O7 Sr3 2.636542 1_555
O7 Sr2 2.749469 1_554
O8 Si1 1.654119 1_555
O8 Sr6 2.505512 1_565
O8 Sr7 2.539644 1_565
O8 Sr5 2.685745 1_565
O9 Pt0 2.062742 1_645
O9 Sr7 2.461593 1_555
O9 Sr1 2.561556 1_545
O9 Sr0 2.628516 1_555
O9 Sr2 2.637708 1_544
O9 Sr4 2.794686 1_554
O10 Pt0 2.119968 1_545
O10 Sr1 2.433021 1_445
O10 Sr5 2.445385 1_555
O10 Sr6 2.745428 1_555
O10 Sr0 2.911123 1_545
O10 Sr0 2.968355 1_455
O11 Pt0 2.062742 1_646
O11 Sr3 2.461593 1_555
O11 Sr6 2.561556 1_655
O11 Sr4 2.628516 1_555
O11 Sr5 2.637708 1_656
O11 Sr0 2.794686 1_556
O12 Si0 1.654981 1_555
O12 Sr3 2.501974 1_545
O12 Sr7 2.636542 1_555
O12 Sr5 2.749469 1_556
O13 Si1 1.649452 1_555
O13 Sr0 2.605276 1_555
O13 Sr4 2.618102 1_555
O13 Sr6 2.729688 1_655
