# generated using pymatgen
data_Na2VCuF7
_symmetry_space_group_name_H-M   'P 1'
_cell_length_a   7.29970100
_cell_length_b   7.63846900
_cell_length_c   10.51504600
_cell_angle_alpha   90.00000000
_cell_angle_beta   90.00000000
_cell_angle_gamma   90.00000000
_symmetry_Int_Tables_number   1
_chemical_formula_structural   Na2VCuF7
_chemical_formula_sum   'Na8 V4 Cu4 F28'
_cell_volume   586.30361087
_cell_formula_units_Z   4
loop_
 _symmetry_equiv_pos_site_id
 _symmetry_equiv_pos_as_xyz
  1  'x, y, z'
loop_
 _atom_site_type_symbol
 _atom_site_label
 _atom_site_symmetry_multiplicity
 _atom_site_fract_x
 _atom_site_fract_y
 _atom_site_fract_z
 _atom_site_occupancy
  Na  Na0  1  0.00000000  0.50000000  0.00000000  1
  Na  Na1  1  0.50000000  0.50000000  0.00000000  1
  Na  Na2  1  0.00000000  0.00000000  0.50000000  1
  Na  Na3  1  0.50000000  0.00000000  0.50000000  1
  Na  Na4  1  0.25000000  0.22292500  0.76066400  1
  Na  Na5  1  0.75000000  0.77707500  0.23933600  1
  Na  Na6  1  0.75000000  0.72292500  0.73933600  1
  Na  Na7  1  0.25000000  0.27707500  0.26066400  1
  V  V0  1  0.25000000  0.72630800  0.76164000  1
  V  V1  1  0.75000000  0.27369200  0.23836000  1
  V  V2  1  0.75000000  0.22630800  0.73836000  1
  V  V3  1  0.25000000  0.77369200  0.26164000  1
  Cu  Cu0  1  0.00000000  0.00000000  0.00000000  1
  Cu  Cu1  1  0.50000000  0.00000000  0.00000000  1
  Cu  Cu2  1  0.00000000  0.50000000  0.50000000  1
  Cu  Cu3  1  0.50000000  0.50000000  0.50000000  1
  F  F0  1  0.25000000  0.08518900  0.99027300  1
  F  F1  1  0.75000000  0.91481100  0.00972700  1
  F  F2  1  0.75000000  0.58518900  0.50972700  1
  F  F3  1  0.25000000  0.41481100  0.49027300  1
  F  F4  1  0.25000000  0.95448300  0.67041900  1
  F  F5  1  0.75000000  0.04551700  0.32958100  1
  F  F6  1  0.75000000  0.45448300  0.82958100  1
  F  F7  1  0.25000000  0.54551700  0.17041900  1
  F  F8  1  0.25000000  0.49286800  0.84741600  1
  F  F9  1  0.75000000  0.50713200  0.15258400  1
  F  F10  1  0.75000000  0.99286800  0.65258400  1
  F  F11  1  0.25000000  0.00713200  0.34741600  1
  F  F12  1  0.95204100  0.16451200  0.85257400  1
  F  F13  1  0.45204100  0.83548800  0.14742600  1
  F  F14  1  0.04795900  0.66451200  0.64742600  1
  F  F15  1  0.54795900  0.33548800  0.35257400  1
  F  F16  1  0.04795900  0.83548800  0.14742600  1
  F  F17  1  0.54795900  0.16451200  0.85257400  1
  F  F18  1  0.95204100  0.33548800  0.35257400  1
  F  F19  1  0.45204100  0.66451200  0.64742600  1
  F  F20  1  0.05030800  0.77923100  0.88109800  1
  F  F21  1  0.55030800  0.22076900  0.11890200  1
  F  F22  1  0.94969200  0.27923100  0.61890200  1
  F  F23  1  0.44969200  0.72076900  0.38109800  1
  F  F24  1  0.94969200  0.22076900  0.11890200  1
  F  F25  1  0.44969200  0.77923100  0.88109800  1
  F  F26  1  0.05030800  0.72076900  0.38109800  1
  F  F27  1  0.55030800  0.27923100  0.61890200  1
loop_
_geom_bond_atom_site_label_1
_geom_bond_atom_site_label_2
_geom_bond_distance
_geom_bond_site_symmetry_2
Cu0 F1 1.940165 1_445
Cu0 F0 1.940165 1_554
Cu0 F12 2.026017 1_454
Cu0 F16 2.026017 1_545
Cu0 F20 2.131137 1_544
Cu0 F24 2.131137 1_455
Cu1 F1 1.940165 1_545
Cu1 F0 1.940165 1_554
Cu1 F17 2.026017 1_554
Cu1 F13 2.026017 1_545
Cu1 F25 2.131137 1_544
Cu1 F21 2.131137 1_555
Cu2 F3 1.940165 1_555
Cu2 F2 1.940165 1_455
Cu2 F14 2.026017 1_555
Cu2 F18 2.026017 1_455
Cu2 F22 2.131137 1_455
Cu2 F26 2.131137 1_555
Cu3 F2 1.940165 1_555
Cu3 F3 1.940165 1_555
Cu3 F15 2.026017 1_555
Cu3 F19 2.026017 1_555
Cu3 F27 2.131137 1_555
Cu3 F23 2.131137 1_555
F0 Na4 2.633625 1_555
F1 Na5 2.633625 1_555
F2 Na6 2.633625 1_555
F3 Na7 2.633625 1_555
F4 V0 1.989417 1_555
F4 Na4 2.259416 1_565
F4 Na3 2.581156 1_565
F4 Na2 2.581156 1_565
F5 V1 1.989417 1_555
F5 Na5 2.259416 1_545
F5 Na2 2.581156 1_655
F5 Na3 2.581156 1_555
F6 V2 1.989417 1_555
F6 Na6 2.259416 1_555
F6 Na0 2.581156 1_656
F6 Na1 2.581156 1_556
F7 V3 1.989417 1_555
F7 Na7 2.259416 1_555
F7 Na0 2.581156 1_555
F7 Na1 2.581156 1_555
F8 V0 1.998256 1_555
F8 Na4 2.254718 1_555
F8 Na1 2.430537 1_556
F8 Na0 2.430537 1_556
F9 V1 1.998256 1_555
F9 Na5 2.254718 1_555
F9 Na0 2.430537 1_655
F9 Na1 2.430537 1_555
F10 V2 1.998256 1_565
F10 Na6 2.254718 1_555
F10 Na3 2.430537 1_565
F10 Na2 2.430537 1_665
F11 V3 1.998256 1_545
F11 Na7 2.254718 1_555
F11 Na2 2.430537 1_555
F11 Na3 2.430537 1_555
F12 V2 1.959663 1_555
F12 Na4 2.421520 1_655
F13 V3 1.959663 1_555
F13 Na5 2.421520 1_555
F14 V0 1.959663 1_555
F14 Na6 2.421520 1_455
F15 V1 1.959663 1_555
F15 Na7 2.421520 1_555
F16 V3 1.959663 1_555
F16 Na5 2.421520 1_455
F17 V2 1.959663 1_555
F17 Na4 2.421520 1_555
F18 V1 1.959663 1_555
F18 Na7 2.421520 1_655
F19 V0 1.959663 1_555
F19 Na6 2.421520 1_555
F20 V0 1.966237 1_555
F20 Na0 2.499452 1_556
F20 Na6 2.685615 1_455
F21 V1 1.966237 1_555
F21 Na1 2.499452 1_555
F21 Na7 2.685615 1_555
F22 V2 1.966237 1_555
F22 Na2 2.499452 1_655
F22 Na4 2.685615 1_655
F23 V3 1.966237 1_555
F23 Na3 2.499452 1_565
F23 Na5 2.685615 1_555
F24 V1 1.966237 1_555
F24 Na0 2.499452 1_655
F24 Na7 2.685615 1_655
F25 V0 1.966237 1_555
F25 Na1 2.499452 1_556
F25 Na6 2.685615 1_555
F26 V3 1.966237 1_555
F26 Na2 2.499452 1_565
F26 Na5 2.685615 1_455
F27 V2 1.966237 1_555
F27 Na3 2.499452 1_555
F27 Na4 2.685615 1_555
