# generated using pymatgen
data_Ho4InIr
_symmetry_space_group_name_H-M   'P 1'
_cell_length_a   9.57763930
_cell_length_b   9.57763324
_cell_length_c   9.57762570
_cell_angle_alpha   60.00009344
_cell_angle_beta   60.00008086
_cell_angle_gamma   60.00010675
_symmetry_Int_Tables_number   1
_chemical_formula_structural   Ho4InIr
_chemical_formula_sum   'Ho16 In4 Ir4'
_cell_volume   621.24150701
_cell_formula_units_Z   4
loop_
 _symmetry_equiv_pos_site_id
 _symmetry_equiv_pos_as_xyz
  1  'x, y, z'
loop_
 _atom_site_type_symbol
 _atom_site_label
 _atom_site_symmetry_multiplicity
 _atom_site_fract_x
 _atom_site_fract_y
 _atom_site_fract_z
 _atom_site_occupancy
  Ho  Ho0  1  0.44035554  0.44035579  0.05964452  1
  Ho  Ho1  1  0.65122149  0.65122157  0.04633409  1
  Ho  Ho2  1  0.19121291  0.80878821  0.19120996  1
  Ho  Ho3  1  0.05964308  0.44035554  0.05964312  1
  Ho  Ho4  1  0.19121302  0.80878833  0.80878912  1
  Ho  Ho5  1  0.05964339  0.44035614  0.44035715  1
  Ho  Ho6  1  0.80878791  0.19121269  0.19121115  1
  Ho  Ho7  1  0.65122187  0.65122238  0.65122262  1
  Ho  Ho8  1  0.80878840  0.19121290  0.80878910  1
  Ho  Ho9  1  0.19121204  0.19120999  0.80878935  1
  Ho  Ho10  1  0.04633620  0.65122085  0.65122120  1
  Ho  Ho11  1  0.44035597  0.05964315  0.05964291  1
  Ho  Ho12  1  0.05964257  0.05964311  0.44035697  1
  Ho  Ho13  1  0.65122074  0.04633525  0.65122158  1
  Ho  Ho14  1  0.80878784  0.80879010  0.19121167  1
  Ho  Ho15  1  0.44035524  0.05964393  0.44035697  1
  In  In0  1  0.41682639  0.41682632  0.41682674  1
  In  In1  1  0.41682675  0.41682682  0.74952043  1
  In  In2  1  0.41682683  0.74951987  0.41682702  1
  In  In3  1  0.74951997  0.41682710  0.41682687  1
  Ir  Ir0  1  0.42257080  0.85914288  0.85914347  1
  Ir  Ir1  1  0.85914274  0.85914438  0.85914354  1
  Ir  Ir2  1  0.85914476  0.42257014  0.85914339  1
  Ir  Ir3  1  0.85914453  0.85914357  0.42256806  1
loop_
_geom_bond_atom_site_label_1
_geom_bond_atom_site_label_2
_geom_bond_distance
_geom_bond_site_symmetry_2
Ho0 In1 3.211455 1_554
Ho0 In0 3.211456 1_555
Ho0 Ir0 3.427273 1_554
Ho0 Ir2 3.427290 1_554
Ho1 Ir0 2.823240 1_554
Ho1 Ir2 2.823244 1_554
Ho1 Ir1 2.823259 1_554
Ho1 In0 3.432015 1_555
Ho1 In2 3.432016 1_555
Ho1 In3 3.432017 1_555
Ho2 Ir0 2.783007 1_554
Ho2 Ir3 2.783022 1_455
Ho2 In2 3.446298 1_555
Ho2 In0 3.446298 1_555
Ho3 In1 3.211466 1_554
Ho3 In3 3.211467 1_455
Ho3 Ir2 3.427236 1_454
Ho3 Ir1 3.427280 1_454
Ho4 Ir0 2.783006 1_555
Ho4 Ir1 2.783038 1_455
Ho4 In1 3.446294 1_555
Ho4 In2 3.446295 1_555
Ho5 In3 3.211461 1_455
Ho5 In0 3.211462 1_555
Ho5 Ir2 3.427260 1_455
Ho5 Ir3 3.427266 1_455
Ho6 Ir2 2.783014 1_554
Ho6 Ir3 2.783022 1_545
Ho6 In3 3.446291 1_555
Ho6 In0 3.446293 1_555
Ho7 Ir0 2.823240 1_555
Ho7 Ir2 2.823256 1_555
Ho7 Ir3 2.823259 1_555
Ho7 In3 3.432013 1_555
Ho7 In2 3.432014 1_555
Ho7 In1 3.432014 1_555
Ho8 Ir2 2.783011 1_555
Ho8 Ir1 2.783025 1_545
Ho8 In3 3.446297 1_555
Ho8 In1 3.446298 1_555
Ho9 Ir0 2.783016 1_545
Ho9 Ir2 2.783022 1_455
Ho9 In0 3.446301 1_555
Ho9 In1 3.446301 1_555
Ho10 Ir2 2.823245 1_455
Ho10 Ir3 2.823264 1_455
Ho10 Ir1 2.823268 1_455
Ho10 In0 3.432001 1_555
Ho10 In2 3.432005 1_555
Ho10 In1 3.432006 1_555
Ho11 In1 3.211465 1_554
Ho11 In2 3.211470 1_545
Ho11 Ir0 3.427247 1_544
Ho11 Ir1 3.427264 1_544
Ho12 In3 3.211470 1_455
Ho12 In2 3.211474 1_545
Ho12 Ir3 3.427254 1_445
Ho12 Ir1 3.427260 1_445
Ho13 Ir0 2.823246 1_545
Ho13 Ir1 2.823258 1_545
Ho13 Ir3 2.823265 1_545
Ho13 In0 3.432005 1_555
Ho13 In1 3.432010 1_555
Ho13 In3 3.432014 1_555
Ho14 Ir3 2.782998 1_555
Ho14 Ir1 2.783017 1_554
Ho14 In2 3.446297 1_555
Ho14 In3 3.446303 1_555
Ho15 In0 3.211458 1_555
Ho15 In2 3.211460 1_545
Ho15 Ir0 3.427266 1_545
Ho15 Ir3 3.427284 1_545
In0 In1 3.186420 1_555
In0 In2 3.186420 1_555
In0 In3 3.186423 1_555
In1 In2 3.186417 1_555
In1 In3 3.186419 1_555
In2 In3 3.186417 1_555
