# generated using pymatgen
data_Ba2Li3(PO3)7
_symmetry_space_group_name_H-M   'P 1'
_cell_length_a   8.71383000
_cell_length_b   11.79190100
_cell_length_c   18.25136198
_cell_angle_alpha   75.58155795
_cell_angle_beta   90.00000000
_cell_angle_gamma   90.00000000
_symmetry_Int_Tables_number   1
_chemical_formula_structural   Ba2Li3(PO3)7
_chemical_formula_sum   'Ba8 Li12 P28 O84'
_cell_volume   1816.30669964
_cell_formula_units_Z   4
loop_
 _symmetry_equiv_pos_site_id
 _symmetry_equiv_pos_as_xyz
  1  'x, y, z'
loop_
 _atom_site_type_symbol
 _atom_site_label
 _atom_site_symmetry_multiplicity
 _atom_site_fract_x
 _atom_site_fract_y
 _atom_site_fract_z
 _atom_site_occupancy
  Ba  Ba0  1  0.44412900  0.52741000  0.81861600  1
  Ba  Ba1  1  0.05587100  0.52741000  0.31861600  1
  Ba  Ba2  1  0.55587100  0.47259000  0.18138400  1
  Ba  Ba3  1  0.06837600  0.96544400  0.19623400  1
  Ba  Ba4  1  0.43162400  0.96544400  0.69623400  1
  Ba  Ba5  1  0.93162400  0.03455600  0.80376600  1
  Ba  Ba6  1  0.94412900  0.47259000  0.68138400  1
  Ba  Ba7  1  0.56837600  0.03455600  0.30376600  1
  Li  Li0  1  0.35341300  0.48415600  0.46499100  1
  Li  Li1  1  0.86464700  0.99875600  0.45532100  1
  Li  Li2  1  0.64658700  0.51584400  0.53500900  1
  Li  Li3  1  0.63535300  0.99875600  0.95532100  1
  Li  Li4  1  0.85341300  0.51584400  0.03500900  1
  Li  Li5  1  0.14658700  0.48415600  0.96499100  1
  Li  Li6  1  0.13535300  0.00124400  0.54467900  1
  Li  Li7  1  0.22545900  0.63565500  0.15468900  1
  Li  Li8  1  0.36464700  0.00124400  0.04467900  1
  Li  Li9  1  0.72545900  0.36434500  0.34531100  1
  Li  Li10  1  0.77454100  0.36434500  0.84531100  1
  Li  Li11  1  0.27454100  0.63565500  0.65468900  1
  P  P0  1  0.94026200  0.24621400  0.25560600  1
  P  P1  1  0.16369600  0.11785000  0.36220200  1
  P  P2  1  0.09692900  0.29555600  0.88638100  1
  P  P3  1  0.87921900  0.15729000  0.99901100  1
  P  P4  1  0.89393300  0.78275500  0.38606700  1
  P  P5  1  0.05973800  0.75378600  0.74439400  1
  P  P6  1  0.63665100  0.33101800  0.00884100  1
  P  P7  1  0.60606700  0.78275500  0.88606700  1
  P  P8  1  0.33630400  0.11785000  0.86220200  1
  P  P9  1  0.85688500  0.61320400  0.86212600  1
  P  P10  1  0.12078100  0.84271000  0.00098900  1
  P  P11  1  0.62078100  0.15729000  0.49901100  1
  P  P12  1  0.36334900  0.66898200  0.99115900  1
  P  P13  1  0.59692900  0.70444400  0.61361900  1
  P  P14  1  0.39393300  0.21724500  0.11393300  1
  P  P15  1  0.83630400  0.88215000  0.63779800  1
  P  P16  1  0.66369600  0.88215000  0.13779800  1
  P  P17  1  0.13665100  0.66898200  0.49115900  1
  P  P18  1  0.40307100  0.29555600  0.38638100  1
  P  P19  1  0.55973800  0.24621400  0.75560600  1
  P  P20  1  0.64311500  0.61320400  0.36212600  1
  P  P21  1  0.90307100  0.70444400  0.11361900  1
  P  P22  1  0.37921900  0.84271000  0.50098900  1
  P  P23  1  0.86334900  0.33101800  0.50884100  1
  P  P24  1  0.35688500  0.38679600  0.63787400  1
  P  P25  1  0.44026200  0.75378600  0.24439400  1
  P  P26  1  0.10606700  0.21724500  0.61393300  1
  P  P27  1  0.14311500  0.38679600  0.13787400  1
  O  O0  1  0.68542900  0.82444600  0.61085800  1
  O  O1  1  0.36428600  0.86866800  0.24024900  1
  O  O2  1  0.15149700  0.64518700  0.74386500  1
  O  O3  1  0.48183400  0.25658400  0.03345600  1
  O  O4  1  0.70653500  0.60858600  0.60864600  1
  O  O5  1  0.21305800  0.05942800  0.30200000  1
  O  O6  1  0.20424100  0.44969700  0.19468600  1
  O  O7  1  0.51816600  0.74341600  0.96654400  1
  O  O8  1  0.15801600  0.57754300  0.44722300  1
  O  O9  1  0.86679100  0.37175700  0.42400800  1
  O  O10  1  0.19455400  0.10913200  0.61204500  1
  O  O11  1  0.29575900  0.44969700  0.69468600  1
  O  O12  1  0.31457100  0.17555400  0.38914200  1
  O  O13  1  0.18542900  0.17555400  0.88914200  1
  O  O14  1  0.06432900  0.23569600  0.32352200  1
  O  O15  1  0.98183400  0.74341600  0.46654400  1
  O  O16  1  0.84198400  0.42245700  0.55277700  1
  O  O17  1  0.51702300  0.31707100  0.32190300  1
  O  O18  1  0.80544600  0.89086800  0.38795500  1
  O  O19  1  0.36679100  0.62824300  0.07599200  1
  O  O20  1  0.01816600  0.25658400  0.53345600  1
  O  O21  1  0.30544600  0.10913200  0.11204500  1
  O  O22  1  0.69455400  0.89086800  0.88795500  1
  O  O23  1  0.95173400  0.72867600  0.81954100  1
  O  O24  1  0.34198400  0.57754300  0.94722300  1
  O  O25  1  0.91778500  0.94881700  0.56789300  1
  O  O26  1  0.00537900  0.26093700  0.96495200  1
  O  O27  1  0.50537900  0.73906300  0.53504800  1
  O  O28  1  0.34850300  0.64518700  0.24386500  1
  O  O29  1  0.98297700  0.31707100  0.82190300  1
  O  O30  1  0.71305800  0.94057200  0.19800000  1
  O  O31  1  0.63571400  0.13133200  0.75975100  1
  O  O32  1  0.29346500  0.39141400  0.39135400  1
  O  O33  1  0.79346500  0.60858600  0.10864600  1
  O  O34  1  0.58221500  0.94881700  0.06789300  1
  O  O35  1  0.56432900  0.76430400  0.17647800  1
  O  O36  1  0.45091100  0.93101400  0.43817900  1
  O  O37  1  0.49791700  0.22075800  0.17893400  1
  O  O38  1  0.04908900  0.93101400  0.93817900  1
  O  O39  1  0.20090800  0.87582900  0.06595200  1
  O  O40  1  0.50208300  0.77924200  0.82106600  1
  O  O41  1  0.29909200  0.87582900  0.56595200  1
  O  O42  1  0.81457100  0.82444600  0.11085800  1
  O  O43  1  0.08221500  0.05118300  0.43210700  1
  O  O44  1  0.63320900  0.37175700  0.92400800  1
  O  O45  1  0.23421200  0.76620400  0.96163400  1
  O  O46  1  0.28150800  0.33096300  0.10092100  1
  O  O47  1  0.70090800  0.12417100  0.43404800  1
  O  O48  1  0.01702300  0.68292900  0.17809700  1
  O  O49  1  0.76578800  0.23379600  0.03836600  1
  O  O50  1  0.54826600  0.72867600  0.31954100  1
  O  O51  1  0.86428600  0.13133200  0.25975100  1
  O  O52  1  0.28694200  0.05942800  0.80200000  1
  O  O53  1  0.78150800  0.66903700  0.39907900  1
  O  O54  1  0.99791700  0.77924200  0.32106600  1
  O  O55  1  0.65801600  0.42245700  0.05277700  1
  O  O56  1  0.04826600  0.27132400  0.18045900  1
  O  O57  1  0.26578800  0.76620400  0.46163400  1
  O  O58  1  0.44548600  0.45631400  0.57148500  1
  O  O59  1  0.00208300  0.22075800  0.67893400  1
  O  O60  1  0.95091100  0.06898600  0.06182100  1
  O  O61  1  0.55451400  0.54368600  0.42851500  1
  O  O62  1  0.78694200  0.94057200  0.69800000  1
  O  O63  1  0.05451400  0.45631400  0.07148500  1
  O  O64  1  0.94548600  0.54368600  0.92851500  1
  O  O65  1  0.54908900  0.06898600  0.56182100  1
  O  O66  1  0.45173400  0.27132400  0.68045900  1
  O  O67  1  0.71849200  0.66903700  0.89907900  1
  O  O68  1  0.43567100  0.23569600  0.82352200  1
  O  O69  1  0.41778500  0.05118300  0.93210700  1
  O  O70  1  0.13320900  0.62824300  0.57599200  1
  O  O71  1  0.20653500  0.39141400  0.89135400  1
  O  O72  1  0.48297700  0.68292900  0.67809700  1
  O  O73  1  0.84850300  0.35481300  0.25613500  1
  O  O74  1  0.79575900  0.55030300  0.80531400  1
  O  O75  1  0.70424100  0.55030300  0.30531400  1
  O  O76  1  0.65149700  0.35481300  0.75613500  1
  O  O77  1  0.73421200  0.23379600  0.53836600  1
  O  O78  1  0.79909200  0.12417100  0.93404800  1
  O  O79  1  0.49462100  0.26093700  0.46495200  1
  O  O80  1  0.93567100  0.76430400  0.67647800  1
  O  O81  1  0.13571400  0.86866800  0.74024900  1
  O  O82  1  0.21849200  0.33096300  0.60092100  1
  O  O83  1  0.99462100  0.73906300  0.03504800  1
loop_
_geom_bond_atom_site_label_1
_geom_bond_atom_site_label_2
_geom_bond_distance
_geom_bond_site_symmetry_2
Ba0 O24 2.709675 1_555
Ba0 O71 2.749595 1_555
Ba0 O72 2.777214 1_555
Ba0 O44 2.832893 1_555
Ba0 O11 2.942732 1_555
Ba0 O40 3.023499 1_555
Ba0 O2 3.057574 1_555
Ba0 O74 3.080186 1_555
Ba0 O76 3.140641 1_555
Ba1 O8 2.709675 1_555
Ba1 O32 2.749595 1_555
Ba1 O48 2.777214 1_555
Ba1 O9 2.832893 1_455
Ba1 O6 2.942732 1_555
Ba1 O54 3.023499 1_455
Ba1 O28 3.057574 1_555
Ba1 O75 3.080186 1_455
Ba1 O73 3.140641 1_455
Ba2 O55 2.709675 1_555
Ba2 O33 2.749595 1_555
Ba2 O17 2.777214 1_555
Ba2 O19 2.832893 1_555
Ba2 O75 2.942732 1_555
Ba2 O37 3.023499 1_555
Ba2 O73 3.057574 1_555
Ba2 O6 3.080186 1_555
Ba2 O28 3.140641 1_555
Ba3 O60 2.658019 1_465
Ba3 O5 2.758516 1_565
Ba3 O54 2.810262 1_455
Ba3 O1 2.853032 1_555
Ba3 O21 2.864053 1_565
Ba3 O39 3.058721 1_555
Ba3 O51 3.076105 1_465
Ba3 O30 3.109451 1_455
Ba4 O65 2.658019 1_565
Ba4 O52 2.758516 1_565
Ba4 O40 2.810262 1_555
Ba4 O81 2.853032 1_555
Ba4 O10 2.864053 1_565
Ba4 O41 3.058721 1_555
Ba4 O31 3.076105 1_565
Ba4 O62 3.109451 1_555
Ba5 O38 2.658019 1_645
Ba5 O62 2.758516 1_545
Ba5 O59 2.810262 1_655
Ba5 O31 2.853032 1_555
Ba5 O22 2.864053 1_545
Ba5 O78 3.058721 1_555
Ba5 O81 3.076105 1_645
Ba5 O52 3.109451 1_655
Ba6 O16 2.709675 1_555
Ba6 O4 2.749595 1_555
Ba6 O29 2.777214 1_555
Ba6 O70 2.832893 1_655
Ba6 O74 2.942732 1_555
Ba6 O59 3.023499 1_655
Ba6 O76 3.057574 1_555
Ba6 O11 3.080186 1_655
Ba6 O2 3.140641 1_655
Ba7 O36 2.658019 1_545
Ba7 O30 2.758516 1_545
Ba7 O37 2.810262 1_555
Ba7 O51 2.853032 1_555
Ba7 O18 2.864053 1_545
Ba7 O47 3.058721 1_555
Ba7 O1 3.076105 1_545
Ba7 O5 3.109451 1_555
Li0 O61 1.942680 1_555
Li0 O32 2.001767 1_555
Li0 O8 2.009732 1_555
Li0 O58 2.052198 1_555
Li1 O43 2.006367 1_665
Li1 O47 2.021788 1_565
Li1 O18 2.043361 1_555
Li1 O25 2.044503 1_555
Li2 O58 1.942680 1_555
Li2 O4 2.001767 1_555
Li2 O16 2.009732 1_555
Li2 O61 2.052198 1_555
Li3 O69 2.006367 1_565
Li3 O78 2.021788 1_565
Li3 O22 2.043361 1_555
Li3 O34 2.044503 1_556
Li4 O63 1.942680 1_655
Li4 O33 2.001767 1_555
Li4 O55 2.009732 1_555
Li4 O64 2.052198 1_554
Li5 O64 1.942680 1_455
Li5 O71 2.001767 1_555
Li5 O24 2.009732 1_555
Li5 O63 2.052198 1_556
Li6 O25 2.006367 1_445
Li6 O41 2.021788 1_545
Li6 O10 2.043361 1_555
Li6 O43 2.044503 1_555
Li7 O19 1.910469 1_555
Li7 O28 1.975436 1_555
Li7 O48 1.977558 1_555
Li7 O6 2.139690 1_555
Li8 O34 2.006367 1_545
Li8 O39 2.021788 1_545
Li8 O21 2.043361 1_555
Li8 O69 2.044503 1_554
Li9 O9 1.910469 1_555
Li9 O73 1.975436 1_555
Li9 O17 1.977558 1_555
Li9 O75 2.139690 1_555
Li10 O44 1.910469 1_555
Li10 O76 1.975436 1_555
Li10 O29 1.977558 1_555
Li10 O74 2.139690 1_555
Li11 O70 1.910469 1_555
Li11 O2 1.975436 1_555
Li11 O72 1.977558 1_555
Li11 O11 2.139690 1_555
O0 P13 1.601283 1_555
O0 P15 1.612392 1_555
O1 P25 1.492694 1_555
O2 P5 1.511778 1_555
O3 P6 1.611143 1_555
O3 P14 1.618633 1_555
O4 P13 1.499737 1_555
O5 P1 1.497952 1_555
O6 P27 1.513943 1_555
O7 P12 1.611143 1_555
O7 P7 1.618633 1_555
O8 P17 1.506944 1_555
O9 P23 1.502847 1_555
O10 P26 1.497619 1_555
O11 P24 1.513943 1_555
O12 P18 1.601283 1_555
O12 P1 1.612392 1_555
O13 P2 1.601283 1_555
O13 P8 1.612392 1_555
O14 P0 1.626070 1_455
O14 P1 1.640312 1_555
O15 P17 1.611143 1_655
O15 P4 1.618633 1_555
O16 P23 1.506944 1_555
O17 P18 1.512128 1_555
O18 P4 1.497619 1_555
O19 P12 1.502847 1_554
O20 P23 1.611143 1_455
O20 P26 1.618633 1_555
O21 P14 1.497619 1_555
O22 P7 1.497619 1_555
O23 P9 1.616848 1_555
O23 P5 1.628577 1_655
O24 P12 1.506944 1_555
O25 P15 1.500149 1_555
O26 P2 1.602484 1_555
O26 P3 1.646318 1_455
O27 P13 1.602484 1_555
O27 P22 1.646318 1_555
O28 P25 1.511778 1_555
O29 P2 1.512128 1_655
O30 P16 1.497952 1_555
O31 P19 1.492694 1_555
O32 P18 1.499737 1_555
O33 P21 1.499737 1_555
O34 P16 1.500149 1_555
O35 P25 1.626070 1_555
O35 P16 1.640312 1_555
O36 P22 1.481288 1_555
O37 P14 1.501549 1_555
O38 P10 1.481288 1_556
O39 P10 1.508779 1_555
O40 P7 1.501549 1_555
O41 P22 1.508779 1_555
O42 P21 1.601283 1_555
O42 P16 1.612392 1_555
O43 P1 1.500149 1_555
O44 P6 1.502847 1_556
O45 P12 1.601026 1_555
O45 P10 1.621568 1_556
O46 P27 1.601168 1_555
O46 P14 1.629625 1_555
O47 P11 1.508779 1_555
O48 P21 1.512128 1_455
O49 P6 1.601026 1_555
O49 P3 1.621568 1_554
O50 P20 1.616848 1_555
O50 P25 1.628577 1_555
O51 P0 1.492694 1_555
O52 P8 1.497952 1_555
O53 P20 1.601168 1_555
O53 P4 1.629625 1_555
O54 P4 1.501549 1_555
O55 P6 1.506944 1_555
O56 P27 1.616848 1_555
O56 P0 1.628577 1_455
O57 P17 1.601026 1_555
O57 P22 1.621568 1_555
O58 P24 1.497194 1_555
O59 P26 1.501549 1_555
O60 P3 1.481288 1_554
O61 P20 1.497194 1_555
O62 P15 1.497952 1_555
O63 P27 1.497194 1_555
O64 P9 1.497194 1_555
O65 P11 1.481288 1_555
O66 P24 1.616848 1_555
O66 P19 1.628577 1_555
O67 P9 1.601168 1_555
O67 P7 1.629625 1_555
O68 P19 1.626070 1_555
O68 P8 1.640312 1_555
O69 P8 1.500149 1_555
O70 P17 1.502847 1_555
O71 P2 1.499737 1_555
O72 P13 1.512128 1_555
O73 P0 1.511778 1_555
O74 P9 1.513943 1_555
O75 P20 1.513943 1_555
O76 P19 1.511778 1_555
O77 P23 1.601026 1_555
O77 P11 1.621568 1_555
O78 P3 1.508779 1_555
O79 P18 1.602484 1_555
O79 P11 1.646318 1_555
O80 P5 1.626070 1_655
O80 P15 1.640312 1_555
O81 P5 1.492694 1_555
O82 P24 1.601168 1_555
O82 P26 1.629625 1_555
O83 P21 1.602484 1_555
O83 P10 1.646318 1_655
