# generated using pymatgen
data_Rb3Ta2AgSe12
_symmetry_space_group_name_H-M   'P 1'
_cell_length_a   14.31293300
_cell_length_b   10.03188200
_cell_length_c   18.09003592
_cell_angle_alpha   61.85598913
_cell_angle_beta   90.00000000
_cell_angle_gamma   90.00000000
_symmetry_Int_Tables_number   1
_chemical_formula_structural   Rb3Ta2AgSe12
_chemical_formula_sum   'Rb12 Ta8 Ag4 Se48'
_cell_volume   2290.35732473
_cell_formula_units_Z   4
loop_
 _symmetry_equiv_pos_site_id
 _symmetry_equiv_pos_as_xyz
  1  'x, y, z'
loop_
 _atom_site_type_symbol
 _atom_site_label
 _atom_site_symmetry_multiplicity
 _atom_site_fract_x
 _atom_site_fract_y
 _atom_site_fract_z
 _atom_site_occupancy
  Rb  Rb0  1  0.58522900  0.35026300  0.72325700  1
  Rb  Rb1  1  0.91477100  0.35026300  0.22325700  1
  Rb  Rb2  1  0.41477100  0.64973700  0.27674300  1
  Rb  Rb3  1  0.08522900  0.64973700  0.77674300  1
  Rb  Rb4  1  0.91467400  0.72040700  0.50523600  1
  Rb  Rb5  1  0.39398000  0.83796400  0.65724900  1
  Rb  Rb6  1  0.10602000  0.83796400  0.15724900  1
  Rb  Rb7  1  0.41467400  0.27959300  0.99476400  1
  Rb  Rb8  1  0.60602000  0.16203600  0.34275100  1
  Rb  Rb9  1  0.89398000  0.16203600  0.84275100  1
  Rb  Rb10  1  0.08532600  0.27959300  0.49476400  1
  Rb  Rb11  1  0.58532600  0.72040700  0.00523600  1
  Ta  Ta0  1  0.77864900  0.71425400  0.27269900  1
  Ta  Ta1  1  0.72135100  0.71425400  0.77269900  1
  Ta  Ta2  1  0.22173500  0.92237700  0.41968700  1
  Ta  Ta3  1  0.22135100  0.28574600  0.72730100  1
  Ta  Ta4  1  0.27826500  0.92237700  0.91968700  1
  Ta  Ta5  1  0.72173500  0.07762300  0.08031300  1
  Ta  Ta6  1  0.27864900  0.28574600  0.22730100  1
  Ta  Ta7  1  0.77826500  0.07762300  0.58031300  1
  Ag  Ag0  1  0.67319400  0.38216000  0.91918700  1
  Ag  Ag1  1  0.32680600  0.61784000  0.08081300  1
  Ag  Ag2  1  0.82680600  0.38216000  0.41918700  1
  Ag  Ag3  1  0.17319400  0.61784000  0.58081300  1
  Se  Se0  1  0.18382800  0.01068100  0.75773100  1
  Se  Se1  1  0.72428800  0.82858700  0.36531700  1
  Se  Se2  1  0.78726700  0.57360300  0.69575700  1
  Se  Se3  1  0.21273300  0.42639700  0.30424300  1
  Se  Se4  1  0.88447300  0.85068500  0.67458400  1
  Se  Se5  1  0.11552700  0.14931500  0.32541600  1
  Se  Se6  1  0.33339300  0.15542600  0.39151000  1
  Se  Se7  1  0.31617200  0.01068100  0.25773100  1
  Se  Se8  1  0.92420800  0.09976300  0.66001000  1
  Se  Se9  1  0.77571200  0.82858700  0.86531700  1
  Se  Se10  1  0.83671700  0.10654200  0.44612300  1
  Se  Se11  1  0.71273300  0.57360300  0.19575700  1
  Se  Se12  1  0.37289600  0.51558100  0.49781300  1
  Se  Se13  1  0.27571200  0.17141300  0.63468300  1
  Se  Se14  1  0.06590800  0.39692600  0.67580100  1
  Se  Se15  1  0.81617200  0.98931900  0.24226900  1
  Se  Se16  1  0.22428800  0.17141300  0.13468300  1
  Se  Se17  1  0.83339300  0.84457400  0.10849000  1
  Se  Se18  1  0.76850100  0.34863400  0.57185500  1
  Se  Se19  1  0.56590800  0.60307400  0.82419900  1
  Se  Se20  1  0.61552700  0.85068500  0.17458400  1
  Se  Se21  1  0.16328300  0.89345800  0.55387700  1
  Se  Se22  1  0.62710400  0.48441900  0.50218700  1
  Se  Se23  1  0.87289600  0.48441900  0.00218700  1
  Se  Se24  1  0.09879400  0.90180000  0.93600400  1
  Se  Se25  1  0.57579200  0.09976300  0.16001000  1
  Se  Se26  1  0.26850100  0.65136600  0.92814500  1
  Se  Se27  1  0.38447300  0.14931500  0.82541600  1
  Se  Se28  1  0.93409200  0.60307400  0.32419900  1
  Se  Se29  1  0.84908200  0.50643600  0.85974800  1
  Se  Se30  1  0.90120600  0.09820000  0.06399600  1
  Se  Se31  1  0.66660700  0.84457400  0.60849000  1
  Se  Se32  1  0.73149900  0.34863400  0.07185500  1
  Se  Se33  1  0.43409200  0.39692600  0.17580100  1
  Se  Se34  1  0.66328300  0.10654200  0.94612300  1
  Se  Se35  1  0.59879400  0.09820000  0.56399600  1
  Se  Se36  1  0.65091800  0.50643600  0.35974800  1
  Se  Se37  1  0.12710400  0.51558100  0.99781300  1
  Se  Se38  1  0.34908200  0.49356400  0.64025200  1
  Se  Se39  1  0.23149900  0.65136600  0.42814500  1
  Se  Se40  1  0.16660700  0.15542600  0.89151000  1
  Se  Se41  1  0.42420800  0.90023700  0.83999000  1
  Se  Se42  1  0.07579200  0.90023700  0.33999000  1
  Se  Se43  1  0.40120600  0.90180000  0.43600400  1
  Se  Se44  1  0.28726700  0.42639700  0.80424300  1
  Se  Se45  1  0.33671700  0.89345800  0.05387700  1
  Se  Se46  1  0.15091800  0.49356400  0.14025200  1
  Se  Se47  1  0.68382800  0.98931900  0.74226900  1
loop_
_geom_bond_atom_site_label_1
_geom_bond_atom_site_label_2
_geom_bond_distance
_geom_bond_site_symmetry_2
Rb0 Se27 3.495863 1_555
Rb0 Se2 3.546572 1_555
Rb0 Se22 3.617505 1_555
Rb0 Se38 3.702572 1_555
Rb0 Se47 3.747842 1_545
Rb0 Se34 3.765777 1_555
Rb0 Se19 3.769882 1_555
Rb0 Se18 3.798007 1_555
Rb1 Se5 3.495863 1_655
Rb1 Se11 3.546572 1_555
Rb1 Se23 3.617505 1_555
Rb1 Se46 3.702572 1_655
Rb1 Se15 3.747842 1_545
Rb1 Se10 3.765777 1_555
Rb1 Se28 3.769882 1_555
Rb1 Se32 3.798007 1_555
Rb2 Se20 3.495863 1_555
Rb2 Se3 3.546572 1_555
Rb2 Se12 3.617505 1_555
Rb2 Se36 3.702572 1_555
Rb2 Se7 3.747842 1_565
Rb2 Se45 3.765777 1_555
Rb2 Se33 3.769882 1_555
Rb2 Se39 3.798007 1_555
Rb3 Se4 3.495863 1_455
Rb3 Se44 3.546572 1_555
Rb3 Se37 3.617505 1_555
Rb3 Se29 3.702572 1_455
Rb3 Se0 3.747842 1_565
Rb3 Se21 3.765777 1_555
Rb3 Se14 3.769882 1_555
Rb3 Se26 3.798007 1_555
Rb4 Se1 3.524000 1_555
Rb4 Se42 3.524343 1_655
Rb4 Se2 3.547465 1_555
Rb4 Se10 3.672327 1_565
Rb4 Se4 3.880352 1_555
Rb4 Se14 3.910349 1_655
Rb4 Se18 3.936893 1_555
Rb4 Se28 3.978032 1_555
Rb5 Se13 3.596345 1_565
Rb5 Se38 3.666956 1_555
Rb5 Se41 3.667964 1_555
Rb5 Se21 3.705079 1_555
Rb5 Se19 3.743744 1_555
Rb5 Se43 3.744529 1_555
Rb5 Se35 3.755033 1_565
Rb5 Se31 3.994190 1_555
Rb5 Se44 4.011660 1_555
Rb6 Se16 3.596345 1_565
Rb6 Se46 3.666956 1_555
Rb6 Se42 3.667964 1_555
Rb6 Se45 3.705079 1_555
Rb6 Se28 3.743744 1_455
Rb6 Se24 3.744529 1_554
Rb6 Se30 3.755033 1_465
Rb6 Se17 3.994190 1_455
Rb6 Se3 4.011660 1_555
Rb7 Se16 3.524000 1_556
Rb7 Se25 3.524343 1_556
Rb7 Se44 3.547465 1_555
Rb7 Se45 3.672327 1_546
Rb7 Se27 3.880352 1_555
Rb7 Se19 3.910349 1_555
Rb7 Se26 3.936893 1_555
Rb7 Se33 3.978032 1_556
Rb8 Se1 3.596345 1_545
Rb8 Se36 3.666956 1_555
Rb8 Se25 3.667964 1_555
Rb8 Se10 3.705079 1_555
Rb8 Se33 3.743744 1_555
Rb8 Se35 3.744529 1_555
Rb8 Se43 3.755033 1_545
Rb8 Se6 3.994190 1_555
Rb8 Se11 4.011660 1_555
Rb9 Se9 3.596345 1_545
Rb9 Se29 3.666956 1_555
Rb9 Se8 3.667964 1_555
Rb9 Se34 3.705079 1_555
Rb9 Se14 3.743744 1_655
Rb9 Se30 3.744529 1_556
Rb9 Se24 3.755033 1_645
Rb9 Se40 3.994190 1_655
Rb9 Se2 4.011660 1_555
Rb10 Se13 3.524000 1_555
Rb10 Se8 3.524343 1_455
Rb10 Se3 3.547465 1_555
Rb10 Se21 3.672327 1_545
Rb10 Se5 3.880352 1_555
Rb10 Se28 3.910349 1_455
Rb10 Se39 3.936893 1_555
Rb10 Se14 3.978032 1_555
Rb11 Se9 3.524000 1_554
Rb11 Se41 3.524343 1_554
Rb11 Se11 3.547465 1_555
Rb11 Se34 3.672327 1_564
Rb11 Se20 3.880352 1_555
Rb11 Se33 3.910349 1_555
Rb11 Se32 3.936893 1_555
Rb11 Se19 3.978032 1_554
Ag0 Se19 2.574805 1_555
Ag0 Se34 2.575188 1_555
Ag0 Se32 2.749661 1_556
Ag0 Se29 2.789896 1_555
Ag0 Rb7 3.910518 1_555
Ag0 Rb0 3.914095 1_555
Ag1 Se33 2.574805 1_555
Ag1 Se45 2.575188 1_555
Ag1 Se26 2.749661 1_554
Ag1 Se46 2.789896 1_555
Ag1 Rb11 3.910518 1_555
Ag1 Rb2 3.914095 1_555
Ag2 Se28 2.574805 1_555
Ag2 Se10 2.575188 1_555
Ag2 Se18 2.749661 1_555
Ag2 Se36 2.789896 1_555
Ag2 Rb10 3.910518 1_655
Ag2 Rb1 3.914095 1_555
Ag3 Se14 2.574805 1_555
Ag3 Se21 2.575188 1_555
Ag3 Se39 2.749661 1_555
Ag3 Se38 2.789896 1_555
Ag3 Rb4 3.910518 1_455
Ag3 Rb3 3.914095 1_555
Se0 Se13 2.428658 1_555
Se0 Ta3 2.602473 1_555
Se0 Ta4 2.957534 1_545
Se1 Se15 2.428658 1_555
Se1 Ta0 2.557541 1_555
Se2 Ta1 2.582844 1_555
Se2 Se29 2.855135 1_555
Se2 Se4 2.967242 1_555
Se3 Ta6 2.582844 1_555
Se3 Se46 2.855135 1_555
Se3 Se5 2.967242 1_555
Se4 Se8 2.452568 1_565
Se4 Ta7 2.596048 1_565
Se4 Ta1 2.860577 1_555
Se5 Ta2 2.596048 1_545
Se5 Ta6 2.860577 1_555
Se6 Ta2 2.674989 1_545
Se6 Ta6 2.735618 1_555
Se7 Ta6 2.602473 1_555
Se7 Ta2 2.957534 1_545
Se8 Ta7 2.606408 1_555
Se9 Ta1 2.557541 1_555
Se10 Ta7 2.452038 1_555
Se11 Ta0 2.582844 1_555
Se11 Se36 2.855135 1_555
Se11 Se20 2.967242 1_555
Se12 Se39 2.433131 1_555
Se12 Se38 2.503514 1_555
Se13 Ta3 2.557541 1_555
Se14 Ta3 2.466093 1_555
Se15 Ta0 2.602473 1_555
Se15 Ta5 2.957534 1_565
Se16 Se7 2.428658 1_555
Se16 Ta6 2.557541 1_555
Se17 Ta5 2.674989 1_565
Se17 Ta0 2.735618 1_555
Se18 Se22 2.433131 1_555
Se18 Ta7 2.653698 1_555
Se19 Ta1 2.466093 1_555
Se20 Se25 2.452568 1_565
Se20 Ta5 2.596048 1_565
Se20 Ta0 2.860577 1_555
Se21 Ta2 2.452038 1_555
Se22 Se36 2.503514 1_555
Se23 Se32 2.433131 1_555
Se23 Se29 2.503514 1_554
Se24 Ta4 2.582783 1_555
Se25 Ta5 2.606408 1_555
Se26 Se37 2.433131 1_555
Se26 Ta4 2.653698 1_555
Se27 Se41 2.452568 1_545
Se27 Ta4 2.596048 1_545
Se27 Ta3 2.860577 1_555
Se27 Se44 2.967242 1_555
Se28 Ta0 2.466093 1_555
Se29 Ta1 2.659209 1_555
Se30 Ta5 2.582783 1_555
Se31 Ta7 2.674989 1_565
Se31 Ta1 2.735618 1_555
Se32 Ta5 2.653698 1_555
Se33 Ta6 2.466093 1_555
Se34 Ta5 2.452038 1_556
Se35 Ta7 2.582783 1_555
Se36 Ta0 2.659209 1_555
Se37 Se46 2.503514 1_556
Se38 Ta3 2.659209 1_555
Se38 Se44 2.855135 1_555
Se39 Ta2 2.653698 1_555
Se40 Ta4 2.674989 1_545
Se40 Ta3 2.735618 1_555
Se41 Ta4 2.606408 1_555
Se42 Se5 2.452568 1_565
Se42 Ta2 2.606408 1_555
Se43 Ta2 2.582783 1_555
Se44 Ta3 2.582844 1_555
Se45 Ta4 2.452038 1_554
Se46 Ta6 2.659209 1_555
Se47 Se9 2.428658 1_555
Se47 Ta1 2.602473 1_555
Se47 Ta7 2.957534 1_565
