# generated using pymatgen
data_LaMgRh
_symmetry_space_group_name_H-M   'P 1'
_cell_length_a   4.18217030
_cell_length_b   7.63832866
_cell_length_c   16.90881420
_cell_angle_alpha   90.00000000
_cell_angle_beta   90.00000000
_cell_angle_gamma   90.00000000
_symmetry_Int_Tables_number   1
_chemical_formula_structural   LaMgRh
_chemical_formula_sum   'La8 Mg8 Rh8'
_cell_volume   540.14854013
_cell_formula_units_Z   8
loop_
 _symmetry_equiv_pos_site_id
 _symmetry_equiv_pos_as_xyz
  1  'x, y, z'
loop_
 _atom_site_type_symbol
 _atom_site_label
 _atom_site_symmetry_multiplicity
 _atom_site_fract_x
 _atom_site_fract_y
 _atom_site_fract_z
 _atom_site_occupancy
  La  La0  1  0.75000000  0.83344621  0.06160441  1
  La  La1  1  0.75000000  0.95394894  0.28144317  1
  La  La2  1  0.25000000  0.54605106  0.78144317  1
  La  La3  1  0.75000000  0.45394894  0.21855683  1
  La  La4  1  0.25000000  0.16655379  0.93839559  1
  La  La5  1  0.25000000  0.04605106  0.71855683  1
  La  La6  1  0.25000000  0.66655379  0.56160441  1
  La  La7  1  0.75000000  0.33344621  0.43839559  1
  Mg  Mg0  1  0.75000000  0.00573510  0.56273959  1
  Mg  Mg1  1  0.25000000  0.99426490  0.43726041  1
  Mg  Mg2  1  0.75000000  0.36568033  0.64913024  1
  Mg  Mg3  1  0.25000000  0.49426490  0.06273959  1
  Mg  Mg4  1  0.25000000  0.63431967  0.35086976  1
  Mg  Mg5  1  0.75000000  0.86568033  0.85086976  1
  Mg  Mg6  1  0.25000000  0.13431967  0.14913024  1
  Mg  Mg7  1  0.75000000  0.50573510  0.93726041  1
  Rh  Rh0  1  0.25000000  0.24420621  0.56242813  1
  Rh  Rh1  1  0.25000000  0.75540633  0.18635792  1
  Rh  Rh2  1  0.75000000  0.75579379  0.43757187  1
  Rh  Rh3  1  0.25000000  0.25540633  0.31364208  1
  Rh  Rh4  1  0.75000000  0.74459367  0.68635792  1
  Rh  Rh5  1  0.75000000  0.25579379  0.06242813  1
  Rh  Rh6  1  0.25000000  0.74420621  0.93757187  1
  Rh  Rh7  1  0.75000000  0.24459367  0.81364208  1
loop_
_geom_bond_atom_site_label_1
_geom_bond_atom_site_label_2
_geom_bond_distance
_geom_bond_site_symmetry_2
La0 Rh1 3.029468 1_655
La0 Rh1 3.029468 1_555
La0 Rh6 3.039030 1_654
La0 Rh6 3.039030 1_554
La0 Rh5 3.226060 1_565
La0 Mg7 3.269003 1_554
La0 Mg3 3.329435 1_655
La0 Mg3 3.329435 1_555
La0 Mg6 3.441584 1_665
La0 Mg6 3.441584 1_565
La0 Mg5 3.571769 1_554
La1 Rh1 3.042608 1_555
La1 Rh1 3.042608 1_655
La1 Rh2 3.043066 1_555
La1 Rh3 3.157715 1_565
La1 Rh3 3.157715 1_665
La1 Mg6 3.357989 1_665
La1 Mg6 3.357989 1_565
La1 Mg1 3.377726 1_555
La1 Mg1 3.377726 1_655
La1 Mg4 3.422181 1_655
La1 Mg4 3.422181 1_555
La2 Rh4 3.042608 1_555
La2 Rh4 3.042608 1_455
La2 Rh6 3.043066 1_555
La2 Rh7 3.157715 1_455
La2 Rh7 3.157715 1_555
La2 Mg2 3.357989 1_455
La2 Mg2 3.357989 1_555
La2 Mg7 3.377726 1_455
La2 Mg7 3.377726 1_555
La2 Mg5 3.422181 1_455
La2 Mg5 3.422181 1_555
La3 Rh3 3.042608 1_555
La3 Rh3 3.042608 1_655
La3 Rh5 3.043066 1_555
La3 Rh1 3.157715 1_655
La3 Rh1 3.157715 1_555
La3 Mg4 3.357989 1_555
La3 Mg4 3.357989 1_655
La3 Mg3 3.377726 1_555
La3 Mg3 3.377726 1_655
La3 Mg6 3.422181 1_655
La3 Mg6 3.422181 1_555
La4 Rh7 3.029468 1_455
La4 Rh7 3.029468 1_555
La4 Rh5 3.039030 1_456
La4 Rh5 3.039030 1_556
La4 Rh6 3.226060 1_545
La4 Mg3 3.269003 1_556
La4 Mg7 3.329435 1_555
La4 Mg7 3.329435 1_455
La4 Mg5 3.441584 1_545
La4 Mg5 3.441584 1_445
La4 Mg6 3.571769 1_556
La5 Rh7 3.042608 1_455
La5 Rh7 3.042608 1_555
La5 Rh0 3.043066 1_555
La5 Rh4 3.157715 1_545
La5 Rh4 3.157715 1_445
La5 Mg5 3.357989 1_545
La5 Mg5 3.357989 1_445
La5 Mg0 3.377726 1_555
La5 Mg0 3.377726 1_455
La5 Mg2 3.422181 1_555
La5 Mg2 3.422181 1_455
La6 Rh4 3.029468 1_555
La6 Rh4 3.029468 1_455
La6 Rh2 3.039030 1_455
La6 Rh2 3.039030 1_555
La6 Rh0 3.226060 1_555
La6 Mg1 3.269003 1_555
La6 Mg0 3.329435 1_565
La6 Mg0 3.329435 1_465
La6 Mg2 3.441584 1_555
La6 Mg2 3.441584 1_455
La6 Mg4 3.571769 1_555
La7 Rh3 3.029468 1_555
La7 Rh3 3.029468 1_655
La7 Rh0 3.039030 1_555
La7 Rh0 3.039030 1_655
La7 Rh2 3.226060 1_555
La7 Mg0 3.269003 1_555
La7 Mg1 3.329435 1_545
La7 Mg1 3.329435 1_645
La7 Mg4 3.441584 1_655
La7 Mg4 3.441584 1_555
La7 Mg2 3.571769 1_555
Mg0 Rh0 2.773194 1_555
Mg0 Rh0 2.773194 1_655
Mg0 Rh2 2.850281 1_545
Mg0 Rh4 2.889267 1_545
Mg0 Mg1 2.980259 1_645
Mg0 Mg1 2.980259 1_545
Mg0 Mg2 3.113345 1_555
Mg1 Rh2 2.773194 1_455
Mg1 Rh2 2.773194 1_555
Mg1 Rh0 2.850281 1_565
Mg1 Rh3 2.889267 1_565
Mg1 Mg4 3.113345 1_555
Mg2 Rh0 2.717131 1_555
Mg2 Rh0 2.717131 1_655
Mg2 Rh7 2.931432 1_555
Mg2 Rh4 2.961926 1_555
Mg3 Rh5 2.773194 1_555
Mg3 Rh5 2.773194 1_455
Mg3 Rh6 2.850281 1_554
Mg3 Rh1 2.889267 1_555
Mg3 Mg7 2.980259 1_554
Mg3 Mg7 2.980259 1_454
Mg3 Mg6 3.113345 1_555
Mg4 Rh2 2.717131 1_555
Mg4 Rh2 2.717131 1_455
Mg4 Rh1 2.931432 1_555
Mg4 Rh3 2.961926 1_555
Mg5 Rh6 2.717131 1_655
Mg5 Rh6 2.717131 1_555
Mg5 Rh4 2.931432 1_555
Mg5 Rh7 2.961926 1_565
Mg5 Mg7 3.113345 1_555
Mg6 Rh5 2.717131 1_555
Mg6 Rh5 2.717131 1_455
Mg6 Rh3 2.931432 1_555
Mg6 Rh1 2.961926 1_545
Mg7 Rh6 2.773194 1_655
Mg7 Rh6 2.773194 1_555
Mg7 Rh5 2.850281 1_556
Mg7 Rh7 2.889267 1_555
