# generated using pymatgen
data_NaNbO2F
_symmetry_space_group_name_H-M   'P 1'
_cell_length_a   5.54797200
_cell_length_b   5.65444500
_cell_length_c   8.30973400
_cell_angle_alpha   90.00000000
_cell_angle_beta   90.00000000
_cell_angle_gamma   90.00000000
_symmetry_Int_Tables_number   1
_chemical_formula_structural   NaNbO2F
_chemical_formula_sum   'Na4 Nb4 O8 F4'
_cell_volume   260.68219346
_cell_formula_units_Z   4
loop_
 _symmetry_equiv_pos_site_id
 _symmetry_equiv_pos_as_xyz
  1  'x, y, z'
loop_
 _atom_site_type_symbol
 _atom_site_label
 _atom_site_symmetry_multiplicity
 _atom_site_fract_x
 _atom_site_fract_y
 _atom_site_fract_z
 _atom_site_occupancy
  Na  Na0  1  0.96814400  0.02469900  0.25000000  1
  Na  Na1  1  0.53185600  0.52469900  0.25000000  1
  Na  Na2  1  0.46814400  0.47530100  0.75000000  1
  Na  Na3  1  0.03185600  0.97530100  0.75000000  1
  Nb  Nb0  1  0.50000000  0.00000000  0.50000000  1
  Nb  Nb1  1  0.50000000  0.00000000  0.00000000  1
  Nb  Nb2  1  0.00000000  0.50000000  0.50000000  1
  Nb  Nb3  1  0.00000000  0.50000000  0.00000000  1
  O  O0  1  0.72521300  0.27283500  0.04110100  1
  O  O1  1  0.22521300  0.22716500  0.54110100  1
  O  O2  1  0.27478700  0.72716500  0.54110100  1
  O  O3  1  0.22521300  0.22716500  0.95889900  1
  O  O4  1  0.72521300  0.27283500  0.45889900  1
  O  O5  1  0.27478700  0.72716500  0.95889900  1
  O  O6  1  0.77478700  0.77283500  0.45889900  1
  O  O7  1  0.77478700  0.77283500  0.04110100  1
  F  F0  1  0.39046200  0.97699400  0.25000000  1
  F  F1  1  0.60953800  0.02300600  0.75000000  1
  F  F2  1  0.89046200  0.52300600  0.75000000  1
  F  F3  1  0.10953800  0.47699400  0.25000000  1
loop_
_geom_bond_atom_site_label_1
_geom_bond_atom_site_label_2
_geom_bond_distance
_geom_bond_site_symmetry_2
Na0 O6 2.488435 1_545
Na0 O7 2.488435 1_545
Na0 O0 2.607381 1_555
Na0 O4 2.607381 1_555
Na1 O0 2.488435 1_555
Na1 O4 2.488435 1_555
Na1 O6 2.607381 1_555
Na1 O7 2.607381 1_555
Na2 O5 2.488435 1_555
Na2 O2 2.488435 1_555
Na2 O1 2.607381 1_555
Na2 O3 2.607381 1_555
Na3 O1 2.488435 1_565
Na3 O3 2.488435 1_565
Na3 O5 2.607381 1_555
Na3 O2 2.607381 1_555
Nb0 O4 2.014412 1_555
Nb0 O2 2.014412 1_545
Nb0 O6 2.022548 1_545
Nb0 O1 2.022548 1_555
Nb1 O0 2.014412 1_555
Nb1 O5 2.014412 1_544
Nb1 O7 2.022548 1_545
Nb1 O3 2.022548 1_554
Nb2 O6 2.014412 1_455
Nb2 O1 2.014412 1_555
Nb2 O2 2.022548 1_555
Nb2 O4 2.022548 1_455
Nb3 O3 2.014412 1_554
Nb3 O7 2.014412 1_455
Nb3 O5 2.022548 1_554
Nb3 O0 2.022548 1_455
F0 Nb1 2.168402 1_565
F0 Nb0 2.168402 1_565
F0 Na0 2.358485 1_465
F0 Na1 2.675080 1_555
F1 Nb0 2.168402 1_555
F1 Nb1 2.168402 1_556
F1 Na3 2.358485 1_645
F1 Na2 2.675080 1_555
F2 Nb3 2.168402 1_656
F2 Nb2 2.168402 1_655
F2 Na2 2.358485 1_555
F2 Na3 2.675080 1_655
F3 Nb3 2.168402 1_555
F3 Nb2 2.168402 1_555
F3 Na1 2.358485 1_555
F3 Na0 2.675080 1_455
