# generated using pymatgen
data_Pr3SiSe2N3
_symmetry_space_group_name_H-M   'P 1'
_cell_length_a   11.59070481
_cell_length_b   11.59070481
_cell_length_c   11.59070425
_cell_angle_alpha   111.30250853
_cell_angle_beta   111.30250853
_cell_angle_gamma   111.30250772
_symmetry_Int_Tables_number   1
_chemical_formula_structural   Pr3SiSe2N3
_chemical_formula_sum   'Pr18 Si6 Se12 N18'
_cell_volume   1110.01882174
_cell_formula_units_Z   6
loop_
 _symmetry_equiv_pos_site_id
 _symmetry_equiv_pos_as_xyz
  1  'x, y, z'
loop_
 _atom_site_type_symbol
 _atom_site_label
 _atom_site_symmetry_multiplicity
 _atom_site_fract_x
 _atom_site_fract_y
 _atom_site_fract_z
 _atom_site_occupancy
  Pr  Pr0  1  0.12957400  0.96843700  0.24921400  1
  Pr  Pr1  1  0.34292900  0.71445100  0.39769000  1
  Pr  Pr2  1  0.87042600  0.03156300  0.75078600  1
  Pr  Pr3  1  0.28554900  0.60231000  0.65707100  1
  Pr  Pr4  1  0.83089500  0.55686500  0.04183400  1
  Pr  Pr5  1  0.65707100  0.28554900  0.60231000  1
  Pr  Pr6  1  0.96843700  0.24921400  0.12957400  1
  Pr  Pr7  1  0.03156300  0.75078600  0.87042600  1
  Pr  Pr8  1  0.44313500  0.95816600  0.16910500  1
  Pr  Pr9  1  0.39769000  0.34292900  0.71445100  1
  Pr  Pr10  1  0.55686500  0.04183400  0.83089500  1
  Pr  Pr11  1  0.24921400  0.12957400  0.96843700  1
  Pr  Pr12  1  0.04183400  0.83089500  0.55686500  1
  Pr  Pr13  1  0.60231000  0.65707100  0.28554900  1
  Pr  Pr14  1  0.16910500  0.44313500  0.95816600  1
  Pr  Pr15  1  0.75078600  0.87042600  0.03156300  1
  Pr  Pr16  1  0.95816600  0.16910500  0.44313500  1
  Pr  Pr17  1  0.71445100  0.39769000  0.34292900  1
  Si  Si0  1  0.28953900  0.39073200  0.21121800  1
  Si  Si1  1  0.60926800  0.78878200  0.71046100  1
  Si  Si2  1  0.39073200  0.21121800  0.28953900  1
  Si  Si3  1  0.78878200  0.71046100  0.60926800  1
  Si  Si4  1  0.21121800  0.28953900  0.39073200  1
  Si  Si5  1  0.71046100  0.60926800  0.78878200  1
  Se  Se0  1  0.29273800  0.87727000  0.83467000  1
  Se  Se1  1  0.83467000  0.29273800  0.87727000  1
  Se  Se2  1  0.97427500  0.44075400  0.64696700  1
  Se  Se3  1  0.64696700  0.97427500  0.44075400  1
  Se  Se4  1  0.55924600  0.35303300  0.02572500  1
  Se  Se5  1  0.35303300  0.02572500  0.55924600  1
  Se  Se6  1  0.12273000  0.16533000  0.70726200  1
  Se  Se7  1  0.16533000  0.70726200  0.12273000  1
  Se  Se8  1  0.70726200  0.12273000  0.16533000  1
  Se  Se9  1  0.44075400  0.64696700  0.97427500  1
  Se  Se10  1  0.02572500  0.55924600  0.35303300  1
  Se  Se11  1  0.87727000  0.83467000  0.29273800  1
  N  N0  1  0.44881200  0.78909500  0.64669500  1
  N  N1  1  0.74947100  0.97776700  0.87822200  1
  N  N2  1  0.23835500  0.41556800  0.33801700  1
  N  N3  1  0.25052900  0.02223300  0.12177800  1
  N  N4  1  0.12177800  0.25052900  0.02223300  1
  N  N5  1  0.76164500  0.58443200  0.66198300  1
  N  N6  1  0.02223300  0.12177800  0.25052900  1
  N  N7  1  0.97776700  0.87822200  0.74947100  1
  N  N8  1  0.41556800  0.33801700  0.23835500  1
  N  N9  1  0.87822200  0.74947100  0.97776700  1
  N  N10  1  0.58443200  0.66198300  0.76164500  1
  N  N11  1  0.21090500  0.35330500  0.55118800  1
  N  N12  1  0.78909500  0.64669500  0.44881200  1
  N  N13  1  0.66198300  0.76164500  0.58443200  1
  N  N14  1  0.55118800  0.21090500  0.35330500  1
  N  N15  1  0.33801700  0.23835500  0.41556800  1
  N  N16  1  0.35330500  0.55118800  0.21090500  1
  N  N17  1  0.64669500  0.44881200  0.78909500  1
loop_
_geom_bond_atom_site_label_1
_geom_bond_atom_site_label_2
_geom_bond_distance
_geom_bond_site_symmetry_2
Pr0 Se11 3.091311 1_455
Pr0 Se7 3.100552 1_555
Pr0 Se5 3.211943 1_565
Pr1 Se7 3.052367 1_555
Pr1 Se10 3.186959 1_555
Pr1 Se5 3.340941 1_565
Pr1 Se3 3.414079 1_555
Pr2 Se6 3.091311 1_655
Pr2 Se1 3.100552 1_555
Pr2 Se3 3.211943 1_545
Pr3 Se0 3.052367 1_555
Pr3 Se9 3.186959 1_555
Pr3 Se2 3.340941 1_455
Pr3 Se10 3.414079 1_555
Pr4 Se1 2.987906 1_554
Pr4 Se4 3.062302 1_555
Pr4 Se11 3.149163 1_555
Pr4 Se7 3.194646 1_655
Pr4 Se10 3.474899 1_655
Pr5 Se1 3.052367 1_555
Pr5 Se2 3.186959 1_555
Pr5 Se3 3.340941 1_545
Pr5 Se5 3.414079 1_555
Pr6 Se1 3.091311 1_554
Pr6 Se8 3.100552 1_555
Pr6 Se10 3.211944 1_655
Pr7 Se7 3.091311 1_556
Pr7 Se0 3.100552 1_555
Pr7 Se2 3.211944 1_455
Pr8 Se8 2.987906 1_565
Pr8 Se3 3.062302 1_555
Pr8 Se7 3.149163 1_555
Pr8 Se0 3.194645 1_554
Pr8 Se9 3.474899 1_554
Pr9 Se6 3.052367 1_555
Pr9 Se5 3.186959 1_555
Pr9 Se4 3.340941 1_556
Pr9 Se9 3.414079 1_555
Pr10 Se0 2.987906 1_545
Pr10 Se5 3.062302 1_555
Pr10 Se1 3.149163 1_555
Pr10 Se8 3.194645 1_556
Pr10 Se4 3.474899 1_556
Pr11 Se0 3.091311 1_545
Pr11 Se6 3.100552 1_555
Pr11 Se4 3.211944 1_556
Pr12 Se11 2.987905 1_455
Pr12 Se10 3.062302 1_555
Pr12 Se0 3.149163 1_555
Pr12 Se6 3.194646 1_565
Pr12 Se5 3.474899 1_565
Pr13 Se11 3.052367 1_555
Pr13 Se3 3.186959 1_555
Pr13 Se9 3.340941 1_554
Pr13 Se4 3.414079 1_555
Pr14 Se7 2.987906 1_556
Pr14 Se9 3.062302 1_555
Pr14 Se6 3.149163 1_555
Pr14 Se1 3.194646 1_455
Pr14 Se2 3.474899 1_455
Pr15 Se8 3.091311 1_565
Pr15 Se11 3.100552 1_555
Pr15 Se9 3.211944 1_554
Pr16 Se6 2.987905 1_655
Pr16 Se2 3.062302 1_555
Pr16 Se8 3.149163 1_555
Pr16 Se11 3.194646 1_545
Pr16 Se3 3.474899 1_545
Pr17 Se8 3.052367 1_555
Pr17 Se4 3.186959 1_555
Pr17 Se10 3.340941 1_655
Pr17 Se2 3.414079 1_555
N0 Si1 1.735867 1_555
N0 Pr1 2.329194 1_555
N0 Pr10 2.357004 1_565
N0 Pr3 2.379143 1_555
N1 Si1 1.800804 1_555
N1 Pr2 2.464680 1_565
N1 Pr15 2.511541 1_556
N1 Pr10 2.539059 1_565
N1 Pr6 2.644552 1_566
N2 Si0 1.744996 1_555
N2 Si4 1.749398 1_555
N2 Pr6 2.466366 1_455
N3 Si2 1.800804 1_555
N3 Pr0 2.464680 1_545
N3 Pr11 2.511541 1_554
N3 Pr8 2.539059 1_545
N3 Pr7 2.644552 1_544
N4 Si0 1.800804 1_555
N4 Pr11 2.464680 1_554
N4 Pr6 2.511541 1_455
N4 Pr14 2.539059 1_554
N4 Pr2 2.644552 1_454
N5 Si5 1.744996 1_555
N5 Si3 1.749398 1_555
N5 Pr7 2.466366 1_655
N6 Si4 1.800804 1_555
N6 Pr6 2.464680 1_455
N6 Pr0 2.511541 1_545
N6 Pr16 2.539059 1_455
N6 Pr15 2.644552 1_445
N7 Si3 1.800804 1_555
N7 Pr7 2.464680 1_655
N7 Pr2 2.511541 1_565
N7 Pr12 2.539059 1_655
N7 Pr11 2.644552 1_665
N8 Si2 1.744996 1_555
N8 Si0 1.749398 1_555
N8 Pr11 2.466366 1_554
N9 Si5 1.800804 1_555
N9 Pr15 2.464680 1_556
N9 Pr7 2.511541 1_655
N9 Pr4 2.539059 1_556
N9 Pr0 2.644552 1_656
N10 Si1 1.744996 1_555
N10 Si5 1.749398 1_555
N10 Pr15 2.466366 1_556
N11 Si4 1.735867 1_555
N11 Pr3 2.329194 1_555
N11 Pr16 2.357004 1_455
N11 Pr9 2.379143 1_555
N12 Si3 1.735867 1_555
N12 Pr17 2.329194 1_555
N12 Pr12 2.357004 1_655
N12 Pr13 2.379143 1_555
N13 Si3 1.744996 1_555
N13 Si1 1.749397 1_555
N13 Pr2 2.466366 1_565
N14 Si2 1.735867 1_555
N14 Pr5 2.329194 1_555
N14 Pr8 2.357004 1_545
N14 Pr17 2.379143 1_555
N15 Si4 1.744996 1_555
N15 Si2 1.749397 1_555
N15 Pr0 2.466366 1_545
N16 Si0 1.735867 1_555
N16 Pr13 2.329194 1_555
N16 Pr14 2.357004 1_554
N16 Pr1 2.379143 1_555
N17 Si5 1.735867 1_555
N17 Pr9 2.329194 1_555
N17 Pr4 2.357004 1_556
N17 Pr5 2.379143 1_555
