# generated using pymatgen
data_Eu(Al2Fe)4
_symmetry_space_group_name_H-M   'P 1'
_cell_length_a   5.00414323
_cell_length_b   6.71902010
_cell_length_c   6.72009351
_cell_angle_alpha   82.05449678
_cell_angle_beta   68.18027289
_cell_angle_gamma   68.17791454
_symmetry_Int_Tables_number   1
_chemical_formula_structural   Eu(Al2Fe)4
_chemical_formula_sum   'Eu1 Al8 Fe4'
_cell_volume   194.73082904
_cell_formula_units_Z   1
loop_
 _symmetry_equiv_pos_site_id
 _symmetry_equiv_pos_as_xyz
  1  'x, y, z'
loop_
 _atom_site_type_symbol
 _atom_site_label
 _atom_site_symmetry_multiplicity
 _atom_site_fract_x
 _atom_site_fract_y
 _atom_site_fract_z
 _atom_site_occupancy
  Eu  Eu0  1  0.00000000  -0.00000000  -0.00000000  1
  Al  Al0  1  0.34161867  0.65816276  0.65821885  1
  Al  Al1  1  0.99998905  0.34194660  0.65809613  1
  Al  Al2  1  0.72728087  0.77280185  0.77281134  1
  Al  Al3  1  0.50000711  0.22702941  0.77298142  1
  Al  Al4  1  0.27271913  0.22719815  0.22718866  1
  Al  Al5  1  0.65838133  0.34183724  0.34178115  1
  Al  Al6  1  0.49999289  0.77297059  0.22701858  1
  Al  Al7  1  0.00001095  0.65805340  0.34190387  1
  Fe  Fe0  1  0.00000000  -0.00000000  0.50000000  1
  Fe  Fe1  1  0.50000000  0.50000000  -0.00000000  1
  Fe  Fe2  1  0.50000000  -0.00000000  0.50000000  1
  Fe  Fe3  1  0.00000000  0.50000000  -0.00000000  1
loop_
_geom_bond_atom_site_label_1
_geom_bond_atom_site_label_2
_geom_bond_distance
_geom_bond_site_symmetry_2
Eu0 Fe3 3.359510 1_545
Eu0 Fe3 3.359510 1_555
Eu0 Fe0 3.360047 1_555
Eu0 Fe0 3.360047 1_554
Eu0 Fe1 3.361163 1_545
Eu0 Fe1 3.361163 1_455
Eu0 Fe2 3.361646 1_554
Eu0 Fe2 3.361646 1_455
Al0 Fe3 2.661595 1_556
Al0 Fe1 2.661771 1_556
Al0 Fe0 2.661802 1_565
Al0 Fe2 2.661911 1_565
Al0 Al2 2.698314 1_455
Al0 Al2 2.699036 1_555
Al0 Al3 2.782841 1_555
Al0 Al6 2.783743 1_555
Al0 Al5 2.791231 1_555
Al0 Eu0 3.015559 1_566
Al1 Fe3 2.661119 1_656
Al1 Fe0 2.661231 1_655
Al1 Fe1 2.663209 1_556
Al1 Fe2 2.663247 1_655
Al1 Al3 2.699566 1_555
Al1 Al3 2.699616 1_655
Al1 Al2 2.781194 1_555
Al1 Al4 2.781987 1_655
Al1 Al7 2.788968 1_655
Al1 Eu0 3.016353 1_656
Al2 Fe3 2.543344 1_656
Al2 Fe0 2.543443 1_665
Al2 Fe1 2.543543 1_556
Al2 Fe2 2.543712 1_565
Al2 Al7 2.781987 1_655
Al2 Al3 2.833270 1_565
Al2 Al6 2.833642 1_556
Al2 Eu0 3.204025 1_666
Al2 Eu0 3.207807 1_566
Al3 Fe1 2.542595 1_556
Al3 Fe2 2.542804 1_555
Al3 Fe3 2.544808 1_556
Al3 Fe0 2.544888 1_655
Al3 Al5 2.783743 1_555
Al3 Al4 2.833642 1_556
Al3 Eu0 3.204863 1_656
Al3 Eu0 3.204910 1_556
Al4 Fe3 2.543344 1_555
Al4 Fe0 2.543443 1_555
Al4 Fe1 2.543543 1_555
Al4 Fe2 2.543712 1_555
Al4 Al5 2.698314 1_455
Al4 Al5 2.699036 1_555
Al4 Al7 2.781194 1_555
Al4 Al6 2.833270 1_545
Al4 Eu0 3.204025 1_555
Al4 Eu0 3.207807 1_655
Al5 Fe3 2.661595 1_655
Al5 Fe1 2.661771 1_555
Al5 Fe0 2.661802 1_655
Al5 Fe2 2.661911 1_555
Al5 Al6 2.782841 1_555
Al5 Eu0 3.015559 1_655
Al6 Fe1 2.542595 1_555
Al6 Fe2 2.542804 1_565
Al6 Fe3 2.544808 1_655
Al6 Fe0 2.544888 1_565
Al6 Al7 2.699566 1_555
Al6 Al7 2.699616 1_655
Al6 Eu0 3.204863 1_565
Al6 Eu0 3.204910 1_665
Al7 Fe3 2.661119 1_555
Al7 Fe0 2.661231 1_565
Al7 Fe1 2.663209 1_555
Al7 Fe2 2.663247 1_465
Al7 Eu0 3.016353 1_565
Fe0 Fe2 2.502072 1_455
Fe0 Fe2 2.502072 1_555
Fe1 Fe3 2.502072 1_655
Fe1 Fe3 2.502072 1_555
