# generated using pymatgen
data_PbI2
_symmetry_space_group_name_H-M   'P 1'
_cell_length_a   4.62768684
_cell_length_b   4.62768759
_cell_length_c   36.67312773
_cell_angle_alpha   90.00000000
_cell_angle_beta   90.00000000
_cell_angle_gamma   120.00000220
_symmetry_Int_Tables_number   1
_chemical_formula_structural   PbI2
_chemical_formula_sum   'Pb5 I10'
_cell_volume   680.15292150
_cell_formula_units_Z   5
loop_
 _symmetry_equiv_pos_site_id
 _symmetry_equiv_pos_as_xyz
  1  'x, y, z'
loop_
 _atom_site_type_symbol
 _atom_site_label
 _atom_site_symmetry_multiplicity
 _atom_site_fract_x
 _atom_site_fract_y
 _atom_site_fract_z
 _atom_site_occupancy
  Pb  Pb0  1  -0.00000000  -0.00000000  0.85272803  1
  Pb  Pb1  1  0.33333300  0.66666700  0.45304397  1
  Pb  Pb2  1  0.33333300  0.66666700  0.65332950  1
  Pb  Pb3  1  0.33333300  0.66666700  0.25300479  1
  Pb  Pb4  1  0.33333300  0.66666700  0.05298683  1
  I  I0  1  0.66666700  0.33333300  0.10380073  1
  I  I1  1  0.66666700  0.33333300  0.70396947  1
  I  I2  1  -0.00000000  -0.00000000  0.20210707  1
  I  I3  1  0.33333300  0.66666700  0.80190947  1
  I  I4  1  0.66666700  0.33333300  0.50388054  1
  I  I5  1  0.00000000  0.00000000  0.00213410  1
  I  I6  1  0.66666700  0.33333300  0.30379355  1
  I  I7  1  0.66666700  0.33333300  0.90352414  1
  I  I8  1  -0.00000000  -0.00000000  0.40212790  1
  I  I9  1  0.00000000  0.00000000  0.60265691  1
loop_
_geom_bond_atom_site_label_1
_geom_bond_atom_site_label_2
_geom_bond_distance
_geom_bond_site_symmetry_2
I0 Pb4 3.257473 1_655
I0 Pb4 3.257473 1_545
I0 Pb4 3.257480 1_555
I1 Pb2 3.253828 1_655
I1 Pb2 3.253829 1_545
I1 Pb2 3.253835 1_555
I2 Pb3 3.259233 1_545
I2 Pb3 3.259236 1_445
I2 Pb3 3.259236 1_555
I3 Pb0 3.257571 1_565
I3 Pb0 3.257574 1_665
I3 Pb0 3.257574 1_555
I4 Pb1 3.257949 1_655
I4 Pb1 3.257949 1_545
I4 Pb1 3.257955 1_555
I5 Pb4 3.258288 1_545
I5 Pb4 3.258291 1_445
I5 Pb4 3.258291 1_555
I6 Pb3 3.256946 1_655
I6 Pb3 3.256946 1_545
I6 Pb3 3.256952 1_555
I7 Pb0 3.257100 1_655
I7 Pb0 3.257103 1_555
I7 Pb0 3.257103 1_665
I8 Pb1 3.259618 1_545
I8 Pb1 3.259621 1_445
I8 Pb1 3.259622 1_555
I9 Pb2 3.254511 1_545
I9 Pb2 3.254514 1_445
I9 Pb2 3.254515 1_555
