# generated using pymatgen
data_K3Np(MoO5)2
_symmetry_space_group_name_H-M   'P 1'
_cell_length_a   7.49409700
_cell_length_b   8.07523188
_cell_length_c   10.45884597
_cell_angle_alpha   91.97630768
_cell_angle_beta   94.26544580
_cell_angle_gamma   109.08517559
_symmetry_Int_Tables_number   1
_chemical_formula_structural   K3Np(MoO5)2
_chemical_formula_sum   'K6 Np2 Mo4 O20'
_cell_volume   595.32425204
_cell_formula_units_Z   2
loop_
 _symmetry_equiv_pos_site_id
 _symmetry_equiv_pos_as_xyz
  1  'x, y, z'
loop_
 _atom_site_type_symbol
 _atom_site_label
 _atom_site_symmetry_multiplicity
 _atom_site_fract_x
 _atom_site_fract_y
 _atom_site_fract_z
 _atom_site_occupancy
  K  K0  1  0.73352300  0.88198300  0.40698900  1
  K  K1  1  0.78776800  0.16283700  0.76589700  1
  K  K2  1  0.26647700  0.11801700  0.59301100  1
  K  K3  1  0.28078100  0.61425200  0.92805900  1
  K  K4  1  0.71921900  0.38574800  0.07194100  1
  K  K5  1  0.21223200  0.83716300  0.23410300  1
  Np  Np0  1  0.85546000  0.70360200  0.73956100  1
  Np  Np1  1  0.14454000  0.29639800  0.26043900  1
  Mo  Mo0  1  0.30292800  0.62905500  0.57485600  1
  Mo  Mo1  1  0.75039100  0.89109400  0.06416300  1
  Mo  Mo2  1  0.69707200  0.37094500  0.42514400  1
  Mo  Mo3  1  0.24960900  0.10890600  0.93583700  1
  O  O0  1  0.10080400  0.08897200  0.34540900  1
  O  O1  1  0.31572100  0.19258100  0.10258100  1
  O  O2  1  0.51473100  0.60950800  0.65668100  1
  O  O3  1  0.46188600  0.11326700  0.86931000  1
  O  O4  1  0.48526900  0.39049200  0.34331900  1
  O  O5  1  0.16334300  0.68581400  0.69315300  1
  O  O6  1  0.89919600  0.91102800  0.65459100  1
  O  O7  1  0.63287300  0.19849400  0.53173500  1
  O  O8  1  0.83665700  0.31418600  0.30684700  1
  O  O9  1  0.83684300  0.74604600  0.15558000  1
  O  O10  1  0.17627700  0.49792500  0.17095000  1
  O  O11  1  0.68427900  0.80741900  0.89741900  1
  O  O12  1  0.82372300  0.50207500  0.82905000  1
  O  O13  1  0.17535600  0.42485500  0.48453500  1
  O  O14  1  0.53811400  0.88673300  0.13069000  1
  O  O15  1  0.91323500  0.11788100  0.08139000  1
  O  O16  1  0.16315700  0.25395400  0.84442000  1
  O  O17  1  0.82464400  0.57514500  0.51546500  1
  O  O18  1  0.36712700  0.80150600  0.46826500  1
  O  O19  1  0.08676500  0.88211900  0.91861000  1
loop_
_geom_bond_atom_site_label_1
_geom_bond_atom_site_label_2
_geom_bond_distance
_geom_bond_site_symmetry_2
K0 O18 2.737899 1_555
K0 O6 2.755375 1_555
K0 O0 2.848501 1_665
K0 O17 3.012978 1_555
K0 O9 3.062371 1_555
K0 O14 3.148272 1_555
K0 O7 3.159259 1_565
K1 O3 2.660422 1_555
K1 O7 2.696776 1_555
K1 O6 2.697970 1_545
K1 O12 2.716496 1_555
K1 O16 2.718636 1_655
K1 O11 3.115513 1_545
K2 O7 2.737899 1_555
K2 O0 2.755375 1_555
K2 O6 2.848501 1_445
K2 O13 3.012978 1_555
K2 O16 3.062371 1_555
K2 O3 3.148272 1_555
K2 O18 3.159259 1_545
K3 O5 2.693226 1_555
K3 O10 2.815782 1_556
K3 O16 2.835482 1_555
K3 O11 2.962035 1_555
K3 O19 2.975372 1_555
K3 O14 3.057358 1_556
K4 O8 2.693226 1_555
K4 O12 2.815782 1_554
K4 O9 2.835482 1_555
K4 O1 2.962035 1_555
K4 O15 2.975372 1_555
K4 O3 3.057358 1_554
K5 O14 2.660422 1_555
K5 O18 2.696776 1_555
K5 O0 2.697970 1_565
K5 O10 2.716496 1_555
K5 O9 2.718636 1_455
K5 O1 3.115513 1_565
Np0 O12 1.861716 1_555
Np0 O6 1.868112 1_555
Np0 O5 2.440982 1_655
Np0 O11 2.448930 1_555
Np0 O2 2.491065 1_555
Np0 O17 2.493558 1_555
Np0 O19 2.507288 1_655
Np1 O10 1.861716 1_555
Np1 O0 1.868112 1_555
Np1 O8 2.440982 1_455
Np1 O1 2.448930 1_555
Np1 O4 2.491065 1_555
Np1 O13 2.493558 1_555
Np1 O15 2.507288 1_455
Mo0 O18 1.778286 1_555
Mo0 O2 1.802173 1_555
Mo0 O13 1.803537 1_555
Mo0 O5 1.817158 1_555
Mo1 O14 1.773641 1_555
Mo1 O9 1.785271 1_555
Mo1 O11 1.820622 1_554
Mo1 O15 1.832659 1_565
Mo2 O7 1.778286 1_555
Mo2 O4 1.802173 1_555
Mo2 O17 1.803537 1_555
Mo2 O8 1.817158 1_555
Mo3 O3 1.773641 1_555
Mo3 O16 1.785271 1_555
Mo3 O1 1.820622 1_556
Mo3 O19 1.832659 1_545
