# generated using pymatgen
data_TlBi25O39
_symmetry_space_group_name_H-M   'P 1'
_cell_length_a   9.01738900
_cell_length_b   9.01872164
_cell_length_c   14.68172495
_cell_angle_alpha   90.16505900
_cell_angle_beta   90.09363720
_cell_angle_gamma   109.62967292
_symmetry_Int_Tables_number   1
_chemical_formula_structural   TlBi25O39
_chemical_formula_sum   'Tl1 Bi25 O39'
_cell_volume   1124.59629088
_cell_formula_units_Z   1
loop_
 _symmetry_equiv_pos_site_id
 _symmetry_equiv_pos_as_xyz
  1  'x, y, z'
loop_
 _atom_site_type_symbol
 _atom_site_label
 _atom_site_symmetry_multiplicity
 _atom_site_fract_x
 _atom_site_fract_y
 _atom_site_fract_z
 _atom_site_occupancy
  Tl  Tl0  1  0.50084100  0.50428500  0.49723500  1
  Bi  Bi0  1  0.02412500  0.32521400  0.16734800  1
  Bi  Bi1  1  0.39417900  0.23391800  0.09705000  1
  Bi  Bi2  1  0.83288300  0.52411500  0.33413400  1
  Bi  Bi3  1  0.24124200  0.74132100  0.42807600  1
  Bi  Bi4  1  0.53020300  0.83276600  0.66304000  1
  Bi  Bi5  1  0.77259800  0.57872200  0.08313300  1
  Bi  Bi6  1  0.90391300  0.73383500  0.59636400  1
  Bi  Bi7  1  0.44467900  0.58231900  0.25330300  1
  Bi  Bi8  1  0.08381300  0.94518600  0.24713700  1
  Bi  Bi9  1  0.33164200  0.02392900  0.83140800  1
  Bi  Bi10  1  0.73239700  0.23214500  0.92888900  1
  Bi  Bi11  1  0.73604800  0.90338100  0.40598900  1
  Bi  Bi12  1  0.22617500  0.73371800  0.07639800  1
  Bi  Bi13  1  0.27679400  0.08828200  0.58180200  1
  Bi  Bi14  1  0.65371400  0.98814400  0.15438800  1
  Bi  Bi15  1  0.93784800  0.09405900  0.74019600  1
  Bi  Bi16  1  0.58140600  0.44687400  0.74834100  1
  Bi  Bi17  1  0.08821900  0.27490900  0.41524700  1
  Bi  Bi18  1  0.23226800  0.38494000  0.90920800  1
  Bi  Bi19  1  0.48724900  0.15913100  0.34581400  1
  Bi  Bi20  1  0.73397200  0.25313500  0.56598600  1
  Bi  Bi21  1  0.17297800  0.49228300  0.64745600  1
  Bi  Bi22  1  0.56107300  0.76710100  0.92083100  1
  Bi  Bi23  1  0.99586500  0.63819900  0.84235400  1
  Bi  Bi24  1  0.98403500  0.98019200  0.98639100  1
  O  O0  1  0.06296000  0.42488300  0.31102500  1
  O  O1  1  0.69937400  0.32123400  0.05717200  1
  O  O2  1  0.13369400  0.50072000  0.50007100  1
  O  O3  1  0.55078800  0.43631900  0.18649000  1
  O  O4  1  0.37998000  0.37951500  0.37672900  1
  O  O5  1  0.74236100  0.49672000  0.50223000  1
  O  O6  1  0.92633100  0.56500200  0.18862500  1
  O  O7  1  0.00298800  0.73659800  0.37718000  1
  O  O8  1  0.56397400  0.92346200  0.81367600  1
  O  O9  1  0.23277700  0.49804400  0.12082700  1
  O  O10  1  0.19728700  0.82297300  0.55711400  1
  O  O11  1  0.68636300  0.68601400  0.31591400  1
  O  O12  1  0.62760400  0.00067300  0.00020200  1
  O  O13  1  0.68874500  0.68951500  0.68920200  1
  O  O14  1  0.50804900  0.74963300  0.50267100  1
  O  O15  1  0.04503900  0.93603900  0.69017700  1
  O  O16  1  0.50682100  0.75402800  0.13031800  1
  O  O17  1  0.89512200  0.89900600  0.11705000  1
  O  O18  1  0.25605200  0.00551700  0.36962900  1
  O  O19  1  0.42354600  0.06723600  0.68992400  1
  O  O20  1  0.49925700  0.23585300  0.87889600  1
  O  O21  1  0.93612600  0.05090900  0.31185500  1
  O  O22  1  0.56646000  0.94489800  0.32026500  1
  O  O23  1  0.74311300  0.00806600  0.62625400  1
  O  O24  1  0.18357000  0.18270700  0.81580500  1
  O  O25  1  0.00818500  0.22238200  0.00166800  1
  O  O26  1  0.01652000  0.25726400  0.63075800  1
  O  O27  1  0.44231100  0.06586000  0.18075500  1
  O  O28  1  0.37749700  0.38559700  0.62068600  1
  O  O29  1  0.82183100  0.19983000  0.44218300  1
  O  O30  1  0.75674100  0.51254700  0.86698200  1
  O  O31  1  0.50058800  0.13437300  0.50075400  1
  O  O32  1  0.43177900  0.54696900  0.81758200  1
  O  O33  1  0.06193300  0.43288100  0.82418000  1
  O  O34  1  0.19485300  0.19505000  0.19519900  1
  O  O35  1  0.95064100  0.56752300  0.68288500  1
  O  O36  1  0.31343400  0.70226600  0.94471500  1
  O  O37  1  0.99893500  0.62857700  0.99955300  1
  O  O38  1  0.22321300  0.00321300  0.00728300  1
loop_
_geom_bond_atom_site_label_1
_geom_bond_atom_site_label_2
_geom_bond_distance
_geom_bond_site_symmetry_2
Bi0 O9 2.115658 1_555
Bi0 O34 2.265031 1_555
Bi0 O0 2.270567 1_555
Bi0 O25 2.587267 1_555
Bi0 O6 2.613488 1_455
Bi1 O27 2.108763 1_555
Bi1 O34 2.240100 1_555
Bi1 O3 2.301924 1_555
Bi1 O38 2.503044 1_555
Bi1 O1 2.662440 1_555
Bi2 O7 2.107004 1_655
Bi2 O6 2.282887 1_555
Bi2 O11 2.290504 1_555
Bi2 O0 2.543314 1_655
Bi2 O5 2.587018 1_555
Bi3 O10 2.116373 1_555
Bi3 O7 2.260313 1_555
Bi3 O2 2.317107 1_555
Bi3 O18 2.495965 1_565
Bi3 O14 2.619762 1_555
Bi4 O23 2.108583 1_565
Bi4 O13 2.258878 1_555
Bi4 O8 2.339439 1_555
Bi4 O14 2.456285 1_555
Bi4 O19 2.629693 1_565
Bi5 O6 2.108361 1_555
Bi5 O1 2.222115 1_555
Bi5 O37 2.295275 1_554
Bi5 O3 2.499584 1_555
Bi5 O17 2.767320 1_555
Bi6 O35 2.115368 1_555
Bi6 O15 2.294055 1_655
Bi6 O13 2.296279 1_555
Bi6 O5 2.547279 1_555
Bi6 O10 2.560390 1_655
Bi7 O3 2.110366 1_555
Bi7 O11 2.255730 1_555
Bi7 O16 2.325691 1_555
Bi7 O4 2.505008 1_555
Bi7 O9 2.648648 1_555
Bi8 O21 2.106560 1_465
Bi8 O34 2.271233 1_565
Bi8 O18 2.315163 1_565
Bi8 O17 2.494986 1_455
Bi8 O7 2.611398 1_555
Bi9 O20 2.114599 1_555
Bi9 O19 2.224198 1_555
Bi9 O24 2.274066 1_555
Bi9 O8 2.560027 1_545
Bi9 O38 2.747122 1_556
Bi10 O1 2.106029 1_556
Bi10 O20 2.236495 1_555
Bi10 O12 2.244454 1_556
Bi10 O30 2.628759 1_555
Bi10 O25 2.733693 1_656
Bi11 O22 2.108063 1_555
Bi11 O11 2.277212 1_555
Bi11 O21 2.311126 1_565
Bi11 O14 2.503994 1_555
Bi11 O29 2.574833 1_565
Bi12 O36 2.142228 1_554
Bi12 O9 2.244898 1_555
Bi12 O37 2.247593 1_454
Bi12 O16 2.597272 1_555
Bi12 O38 2.644892 1_565
Bi13 O19 2.114409 1_555
Bi13 O31 2.260149 1_555
Bi13 O10 2.283024 1_545
Bi13 O28 2.587265 1_555
Bi13 O15 2.622949 1_545
Bi14 O16 2.110124 1_555
Bi14 O27 2.274570 1_565
Bi14 O12 2.282591 1_565
Bi14 O22 2.551022 1_555
Bi14 O17 2.619675 1_555
Bi15 O15 2.103903 1_645
Bi15 O26 2.137090 1_655
Bi15 O23 2.356143 1_555
Bi15 O24 2.361716 1_655
Bi16 O32 2.118102 1_555
Bi16 O13 2.251674 1_555
Bi16 O30 2.289214 1_555
Bi16 O28 2.549308 1_555
Bi16 O20 2.631188 1_555
Bi17 O0 2.107248 1_555
Bi17 O2 2.299815 1_555
Bi17 O29 2.301501 1_455
Bi17 O21 2.525939 1_455
Bi17 O4 2.543990 1_555
Bi18 O33 2.132511 1_555
Bi18 O24 2.201226 1_555
Bi18 O32 2.331213 1_555
Bi18 O25 2.470858 1_556
Bi18 O36 2.753288 1_555
Bi19 O18 2.110108 1_555
Bi19 O31 2.293263 1_555
Bi19 O22 2.303881 1_545
Bi19 O4 2.525886 1_555
Bi19 O27 2.549598 1_555
Bi20 O29 2.101947 1_555
Bi20 O31 2.228550 1_555
Bi20 O5 2.368201 1_555
Bi20 O23 2.410019 1_555
Bi20 O26 2.706541 1_655
Bi21 O26 2.128347 1_555
Bi21 O2 2.197759 1_555
Bi21 O35 2.380353 1_455
Bi21 O28 2.381981 1_555
Bi21 O33 2.770879 1_555
Bi22 O8 2.110079 1_555
Bi22 O36 2.139593 1_555
Bi22 O12 2.299946 1_566
Bi22 O32 2.453639 1_555
Bi23 O30 2.104186 1_555
Bi23 O33 2.143318 1_655
Bi23 O37 2.310303 1_555
Bi23 O35 2.422358 1_555
Bi24 O17 2.116011 1_556
Bi24 O38 2.117881 1_666
Bi24 O25 2.132155 1_666
O4 Tl0 2.177716 1_555
O5 Tl0 2.202847 1_555
O14 Tl0 2.192962 1_555
O28 Tl0 2.210381 1_555
