# generated using pymatgen
data_Mg3Nb6O11
_symmetry_space_group_name_H-M   'P 1'
_cell_length_a   6.08901898
_cell_length_b   6.08901930
_cell_length_c   7.49807318
_cell_angle_alpha   90.00000000
_cell_angle_beta   90.00000000
_cell_angle_gamma   120.00000932
_symmetry_Int_Tables_number   1
_chemical_formula_structural   Mg3Nb6O11
_chemical_formula_sum   'Mg3 Nb6 O11'
_cell_volume   240.75479430
_cell_formula_units_Z   1
loop_
 _symmetry_equiv_pos_site_id
 _symmetry_equiv_pos_as_xyz
  1  'x, y, z'
loop_
 _atom_site_type_symbol
 _atom_site_label
 _atom_site_symmetry_multiplicity
 _atom_site_fract_x
 _atom_site_fract_y
 _atom_site_fract_z
 _atom_site_occupancy
  Mg  Mg0  1  0.00000000  -0.00000000  0.50000000  1
  Mg  Mg1  1  0.33333300  0.66666700  0.57606794  1
  Mg  Mg2  1  0.66666700  0.33333300  0.42393206  1
  Nb  Nb0  1  0.15420816  0.84579184  0.15345926  1
  Nb  Nb1  1  0.15420816  0.30841932  0.15345926  1
  Nb  Nb2  1  0.69158068  0.84579184  0.15345926  1
  Nb  Nb3  1  0.30841932  0.15420816  0.84654074  1
  Nb  Nb4  1  0.84579184  0.69158068  0.84654074  1
  Nb  Nb5  1  0.84579184  0.15420816  0.84654074  1
  O  O0  1  0.50000000  0.50000000  0.00000000  1
  O  O1  1  0.50000000  -0.00000000  0.00000000  1
  O  O2  1  0.00000000  0.50000000  0.00000000  1
  O  O3  1  0.15621145  0.84378855  0.67156124  1
  O  O4  1  0.15621145  0.31242290  0.67156124  1
  O  O5  1  0.68757710  0.84378855  0.67156124  1
  O  O6  1  0.31242290  0.15621145  0.32843876  1
  O  O7  1  0.84378855  0.68757710  0.32843876  1
  O  O8  1  0.84378855  0.15621145  0.32843876  1
  O  O9  1  0.33333300  0.66666700  0.31346307  1
  O  O10  1  0.66666700  0.33333300  0.68653693  1
loop_
_geom_bond_atom_site_label_1
_geom_bond_atom_site_label_2
_geom_bond_distance
_geom_bond_site_symmetry_2
Mg0 O5 2.090208 1_445
Mg0 O6 2.090208 1_555
Mg0 O4 2.090208 1_555
Mg0 O7 2.090208 1_445
Mg0 O3 2.090208 1_545
Mg0 O8 2.090208 1_455
Mg1 O9 1.969031 1_555
Mg1 O3 2.000536 1_555
Mg1 O5 2.000540 1_555
Mg1 O4 2.000540 1_555
Mg2 O10 1.969031 1_555
Mg2 O8 2.000536 1_555
Mg2 O6 2.000540 1_555
Mg2 O7 2.000540 1_555
Nb0 O7 2.097905 1_455
Nb0 O6 2.097905 1_565
Nb0 O1 2.159142 1_565
Nb0 O2 2.159142 1_555
Nb0 O9 2.237895 1_555
Nb1 O8 2.097905 1_455
Nb1 O6 2.097917 1_555
Nb1 O2 2.159128 1_555
Nb1 O0 2.159141 1_555
Nb1 O9 2.237886 1_555
Nb2 O8 2.097905 1_565
Nb2 O7 2.097917 1_555
Nb2 O1 2.159128 1_565
Nb2 O0 2.159141 1_555
Nb2 O9 2.237886 1_555
Nb3 O3 2.097905 1_545
Nb3 O4 2.097917 1_555
Nb3 O1 2.159128 1_556
Nb3 O0 2.159141 1_556
Nb3 O10 2.237886 1_555
Nb4 O3 2.097905 1_655
Nb4 O5 2.097917 1_555
Nb4 O2 2.159128 1_656
Nb4 O0 2.159141 1_556
Nb4 O10 2.237886 1_555
Nb5 O4 2.097905 1_655
Nb5 O5 2.097905 1_545
Nb5 O1 2.159142 1_556
Nb5 O2 2.159142 1_656
Nb5 O10 2.237895 1_555
