# generated using pymatgen
data_Ta2S
_symmetry_space_group_name_H-M   'P 1'
_cell_length_a   5.62045017
_cell_length_b   7.39180448
_cell_length_c   15.26698325
_cell_angle_alpha   90.00000000
_cell_angle_beta   90.00000000
_cell_angle_gamma   90.00000000
_symmetry_Int_Tables_number   1
_chemical_formula_structural   Ta2S
_chemical_formula_sum   'Ta24 S12'
_cell_volume   634.27092207
_cell_formula_units_Z   12
loop_
 _symmetry_equiv_pos_site_id
 _symmetry_equiv_pos_as_xyz
  1  'x, y, z'
loop_
 _atom_site_type_symbol
 _atom_site_label
 _atom_site_symmetry_multiplicity
 _atom_site_fract_x
 _atom_site_fract_y
 _atom_site_fract_z
 _atom_site_occupancy
  Ta  Ta0  1  0.13303420  0.00921068  0.25000000  1
  Ta  Ta1  1  0.10425939  0.90488458  0.59086118  1
  Ta  Ta2  1  0.89622878  0.71780745  0.15466744  1
  Ta  Ta3  1  0.60425939  0.09511542  0.90913882  1
  Ta  Ta4  1  0.60377122  0.71780745  0.84533256  1
  Ta  Ta5  1  0.86696580  0.99078932  0.75000000  1
  Ta  Ta6  1  0.10377122  0.28219255  0.65466744  1
  Ta  Ta7  1  0.89574061  0.09511542  0.40913882  1
  Ta  Ta8  1  0.89574061  0.09511542  0.09086118  1
  Ta  Ta9  1  0.62805967  0.34951023  0.75000000  1
  Ta  Ta10  1  0.39622878  0.28219255  0.34533256  1
  Ta  Ta11  1  0.87194033  0.34951023  0.25000000  1
  Ta  Ta12  1  0.63303420  0.99078932  0.25000000  1
  Ta  Ta13  1  0.39574061  0.90488458  0.09086118  1
  Ta  Ta14  1  0.39574061  0.90488458  0.40913882  1
  Ta  Ta15  1  0.36696580  0.00921068  0.75000000  1
  Ta  Ta16  1  0.39622878  0.28219255  0.15466744  1
  Ta  Ta17  1  0.10377122  0.28219255  0.84533256  1
  Ta  Ta18  1  0.89622878  0.71780745  0.34533256  1
  Ta  Ta19  1  0.60377122  0.71780745  0.65466744  1
  Ta  Ta20  1  0.60425939  0.09511542  0.59086118  1
  Ta  Ta21  1  0.12805967  0.65048977  0.75000000  1
  Ta  Ta22  1  0.10425939  0.90488458  0.90913882  1
  Ta  Ta23  1  0.37194033  0.65048977  0.25000000  1
  S  S0  1  0.26704476  0.58766432  0.09832243  1
  S  S1  1  0.73295524  0.41233568  0.90167757  1
  S  S2  1  0.25000000  0.17848865  0.50000000  1
  S  S3  1  0.75000000  0.82151135  -0.00000000  1
  S  S4  1  0.26704476  0.58766432  0.40167757  1
  S  S5  1  0.25000000  0.17848865  -0.00000000  1
  S  S6  1  0.76704476  0.41233568  0.09832243  1
  S  S7  1  0.23295524  0.58766432  0.59832243  1
  S  S8  1  0.73295524  0.41233568  0.59832243  1
  S  S9  1  0.23295524  0.58766432  0.90167757  1
  S  S10  1  0.75000000  0.82151135  0.50000000  1
  S  S11  1  0.76704476  0.41233568  0.40167757  1
loop_
_geom_bond_atom_site_label_1
_geom_bond_atom_site_label_2
_geom_bond_distance
_geom_bond_site_symmetry_2
Ta0 Ta12 2.813522 1_445
Ta0 Ta12 2.813522 1_545
Ta0 Ta7 2.843373 1_455
Ta0 Ta8 2.843373 1_455
Ta0 Ta10 2.894510 1_555
Ta0 Ta16 2.894510 1_555
Ta0 Ta11 2.912187 1_455
Ta0 Ta18 2.920521 1_445
Ta0 Ta2 2.920521 1_445
Ta0 Ta14 2.945782 1_545
Ta0 Ta13 2.945782 1_545
Ta0 Ta23 2.972198 1_545
Ta1 Ta5 2.843373 1_455
Ta1 Ta15 2.945782 1_565
Ta3 Ta5 2.945782 1_545
Ta4 Ta5 2.894510 1_555
Ta5 Ta6 2.920521 1_665
Ta5 Ta9 2.972198 1_565
Ta10 Ta12 2.920521 1_545
Ta11 Ta12 2.972198 1_545
Ta12 Ta13 2.843373 1_555
Ta12 Ta14 2.843373 1_555
Ta12 Ta18 2.894510 1_555
Ta12 Ta2 2.894510 1_555
Ta12 Ta23 2.912187 1_555
Ta12 Ta16 2.920521 1_565
Ta12 Ta7 2.945782 1_565
Ta12 Ta8 2.945782 1_565
Ta15 Ta5 2.813522 1_445
Ta15 Ta5 2.813522 1_545
Ta15 Ta3 2.843373 1_555
Ta15 Ta20 2.843373 1_555
Ta15 Ta6 2.894510 1_555
Ta15 Ta17 2.894510 1_555
Ta15 Ta9 2.912187 1_555
Ta15 Ta19 2.920521 1_545
Ta15 Ta4 2.920521 1_545
Ta15 Ta22 2.945782 1_545
Ta15 Ta21 2.972198 1_545
Ta17 Ta5 2.920521 1_445
Ta19 Ta5 2.894510 1_555
Ta20 Ta5 2.945782 1_545
Ta21 Ta5 2.912187 1_455
Ta22 Ta5 2.843373 1_455
S0 Ta23 2.434239 1_555
S0 Ta2 2.451346 1_455
S0 Ta13 2.456503 1_555
S0 Ta16 2.523027 1_555
S1 Ta9 2.434239 1_555
S1 Ta17 2.451346 1_655
S1 Ta3 2.456503 1_555
S1 Ta4 2.523027 1_555
S2 Ta7 2.503702 1_455
S2 Ta20 2.503702 1_555
S2 Ta14 2.585622 1_545
S2 Ta1 2.585622 1_545
S2 Ta10 2.615119 1_555
S2 Ta6 2.615119 1_555
S3 Ta22 2.503702 1_654
S3 Ta13 2.503702 1_555
S3 Ta3 2.585622 1_564
S3 Ta8 2.585622 1_565
S3 Ta4 2.615119 1_554
S3 Ta2 2.615119 1_555
S4 Ta23 2.434239 1_555
S4 Ta18 2.451346 1_455
S4 Ta14 2.456503 1_555
S4 Ta10 2.523027 1_555
S5 Ta3 2.503702 1_554
S5 Ta8 2.503702 1_455
S5 Ta22 2.585622 1_544
S5 Ta13 2.585622 1_545
S5 Ta16 2.615119 1_555
S5 Ta17 2.615119 1_554
S6 Ta11 2.434239 1_555
S6 Ta16 2.451346 1_555
S6 Ta8 2.456503 1_555
S6 Ta2 2.523027 1_555
S7 Ta21 2.434239 1_555
S7 Ta19 2.451346 1_555
S7 Ta1 2.456503 1_555
S7 Ta6 2.523027 1_555
S8 Ta9 2.434239 1_555
S8 Ta6 2.451346 1_655
S8 Ta20 2.456503 1_555
S8 Ta19 2.523027 1_555
S9 Ta21 2.434239 1_555
S9 Ta4 2.451346 1_555
S9 Ta22 2.456503 1_555
S9 Ta17 2.523027 1_555
S10 Ta1 2.503702 1_655
S10 Ta14 2.503702 1_555
S10 Ta20 2.585622 1_565
S10 Ta7 2.585622 1_565
S10 Ta18 2.615119 1_555
S10 Ta19 2.615119 1_555
S11 Ta11 2.434239 1_555
S11 Ta10 2.451346 1_555
S11 Ta7 2.456503 1_555
S11 Ta18 2.523027 1_555
