# generated using pymatgen
data_Sr3Ru2O7
_symmetry_space_group_name_H-M   'P 1'
_cell_length_a   10.52454684
_cell_length_b   10.52454684
_cell_length_c   10.52454684
_cell_angle_alpha   158.37729296
_cell_angle_beta   158.37729296
_cell_angle_gamma   30.76628642
_symmetry_Int_Tables_number   1
_chemical_formula_structural   Sr3Ru2O7
_chemical_formula_sum   'Sr3 Ru2 O7'
_cell_volume   158.19025927
_cell_formula_units_Z   1
loop_
 _symmetry_equiv_pos_site_id
 _symmetry_equiv_pos_as_xyz
  1  'x, y, z'
loop_
 _atom_site_type_symbol
 _atom_site_label
 _atom_site_symmetry_multiplicity
 _atom_site_fract_x
 _atom_site_fract_y
 _atom_site_fract_z
 _atom_site_occupancy
  Sr  Sr0  1  0.50000000  0.50000000  -0.00000000  1
  Sr  Sr1  1  0.68382663  0.68382663  -0.00000000  1
  Sr  Sr2  1  0.31617337  0.31617337  -0.00000000  1
  Ru  Ru0  1  0.09757643  0.09757643  -0.00000000  1
  Ru  Ru1  1  0.90242357  0.90242357  0.00000000  1
  O  O0  1  0.90348734  0.40348734  0.50000000  1
  O  O1  1  0.40348734  0.90348734  0.50000000  1
  O  O2  1  0.09651266  0.59651266  0.50000000  1
  O  O3  1  0.59651266  0.09651266  0.50000000  1
  O  O4  1  0.80429880  0.80429880  0.00000000  1
  O  O5  1  -0.00000000  -0.00000000  -0.00000000  1
  O  O6  1  0.19570120  0.19570120  -0.00000000  1
loop_
_geom_bond_atom_site_label_1
_geom_bond_atom_site_label_2
_geom_bond_distance
_geom_bond_site_symmetry_2
O0 Ru1 1.974270 1_556
O0 Ru1 1.974270 1_545
O0 Sr2 2.652807 1_555
O0 Sr2 2.652807 1_656
O0 Sr0 2.780983 1_555
O0 Sr0 2.780983 1_656
O1 Ru1 1.974270 1_556
O1 Ru1 1.974270 1_455
O1 Sr2 2.652807 1_555
O1 Sr2 2.652807 1_566
O1 Sr0 2.780983 1_555
O1 Sr0 2.780983 1_566
O2 Ru0 1.974270 1_566
O2 Ru0 1.974270 1_555
O2 Sr1 2.652807 1_556
O2 Sr1 2.652807 1_455
O2 Sr0 2.780983 1_556
O2 Sr0 2.780983 1_455
O3 Ru0 1.974270 1_656
O3 Ru0 1.974270 1_555
O3 Sr1 2.652807 1_545
O3 Sr1 2.652807 1_556
O3 Sr0 2.780983 1_556
O3 Sr0 2.780983 1_545
O4 Ru1 1.991440 1_555
O4 Sr1 2.444980 1_555
O4 Sr2 2.802254 1_655
O4 Sr2 2.802254 1_666
O4 Sr2 2.802254 1_554
O4 Sr2 2.802254 1_565
O5 Ru1 1.980312 1_445
O5 Ru0 1.980312 1_555
O5 Sr0 2.791872 1_556
O5 Sr0 2.791872 1_444
O5 Sr0 2.791872 1_545
O5 Sr0 2.791872 1_455
O6 Ru0 1.991440 1_555
O6 Sr2 2.444980 1_555
O6 Sr1 2.802254 1_455
O6 Sr1 2.802254 1_556
O6 Sr1 2.802254 1_444
O6 Sr1 2.802254 1_545
