# generated using pymatgen
data_Sr4Br6O
_symmetry_space_group_name_H-M   'P 1'
_cell_length_a   9.90887484
_cell_length_b   9.90884559
_cell_length_c   7.60409786
_cell_angle_alpha   90.00027956
_cell_angle_beta   89.99982625
_cell_angle_gamma   120.00063112
_symmetry_Int_Tables_number   1
_chemical_formula_structural   Sr4Br6O
_chemical_formula_sum   'Sr8 Br12 O2'
_cell_volume   646.58104779
_cell_formula_units_Z   2
loop_
 _symmetry_equiv_pos_site_id
 _symmetry_equiv_pos_as_xyz
  1  'x, y, z'
loop_
 _atom_site_type_symbol
 _atom_site_label
 _atom_site_symmetry_multiplicity
 _atom_site_fract_x
 _atom_site_fract_y
 _atom_site_fract_z
 _atom_site_occupancy
  Sr  Sr0  1  0.79935302  0.59870008  0.99789248  1
  Sr  Sr1  1  0.40130324  0.20065335  0.99788867  1
  Sr  Sr2  1  0.66666630  0.33333206  0.58481771  1
  Sr  Sr3  1  0.20065003  0.79935057  0.49789450  1
  Sr  Sr4  1  0.59870030  0.79934881  0.49788966  1
  Sr  Sr5  1  0.20064955  0.40129767  0.49789165  1
  Sr  Sr6  1  0.33333322  0.66666660  0.08481467  1
  Sr  Sr7  1  0.79935101  0.20064744  0.99789118  1
  Br  Br0  1  0.53441563  0.06884106  0.29343261  1
  Br  Br1  1  0.46556086  0.93116575  0.79344749  1
  Br  Br2  1  0.53441930  0.46558180  0.29344930  1
  Br  Br3  1  0.13857592  0.86144022  0.11284100  1
  Br  Br4  1  0.72286749  0.86142581  0.11283578  1
  Br  Br5  1  0.86142711  0.72285500  0.61282365  1
  Br  Br6  1  0.06883089  0.53443755  0.79345133  1
  Br  Br7  1  0.93116503  0.46557114  0.29344810  1
  Br  Br8  1  0.27714247  0.13857222  0.61282386  1
  Br  Br9  1  0.13857388  0.27713320  0.11283421  1
  Br  Br10  1  0.46558887  0.53440897  0.79345563  1
  Br  Br11  1  0.86142588  0.13856920  0.61282198  1
  O  O0  1  0.33333384  0.66666801  0.39797381  1
  O  O1  1  0.66666815  0.33333449  0.89797575  1
loop_
_geom_bond_atom_site_label_1
_geom_bond_atom_site_label_2
_geom_bond_distance
_geom_bond_site_symmetry_2
Br0 Sr2 3.171870 1_555
Br0 Sr1 3.196725 1_554
Br0 Sr7 3.196756 1_554
Br0 Sr3 3.413823 1_545
Br0 Sr4 3.413906 1_545
Br1 Sr6 3.171837 1_556
Br1 Sr3 3.196669 1_555
Br1 Sr4 3.196978 1_555
Br1 Sr1 3.413642 1_565
Br1 Sr7 3.413871 1_565
Br2 Sr2 3.171848 1_555
Br2 Sr1 3.196806 1_554
Br2 Sr0 3.196827 1_554
Br2 Sr4 3.413748 1_555
Br2 Sr5 3.413782 1_555
Br3 Sr3 3.115830 1_555
Br3 Sr1 3.176262 1_564
Br3 Sr0 3.176355 1_454
Br3 Sr6 3.349488 1_555
Br4 Sr4 3.115835 1_555
Br4 Sr0 3.176252 1_554
Br4 Sr7 3.176349 1_564
Br4 Sr6 3.349488 1_555
Br5 Sr0 3.115909 1_555
Br5 Sr3 3.176298 1_655
Br5 Sr4 3.176308 1_555
Br5 Sr2 3.349373 1_555
Br6 Sr6 3.171836 1_556
Br6 Sr3 3.196703 1_555
Br6 Sr5 3.197001 1_555
Br6 Sr0 3.413594 1_455
Br6 Sr7 3.413854 1_455
Br7 Sr2 3.171845 1_555
Br7 Sr7 3.196757 1_554
Br7 Sr0 3.196887 1_554
Br7 Sr5 3.413732 1_655
Br7 Sr3 3.413824 1_655
Br8 Sr1 3.115895 1_555
Br8 Sr5 3.176282 1_555
Br8 Sr3 3.176284 1_545
Br8 Sr2 3.349391 1_555
Br9 Sr5 3.115848 1_555
Br9 Sr1 3.176260 1_554
Br9 Sr7 3.176359 1_454
Br9 Sr6 3.349471 1_555
Br10 Sr6 3.171885 1_556
Br10 Sr5 3.196902 1_555
Br10 Sr4 3.196916 1_555
Br10 Sr1 3.413623 1_555
Br10 Sr0 3.413700 1_555
Br11 Sr7 3.115902 1_555
Br11 Sr4 3.176257 1_545
Br11 Sr5 3.176290 1_655
Br11 Sr2 3.349406 1_555
O0 Sr6 2.381293 1_555
O0 Sr4 2.400588 1_555
O0 Sr3 2.400612 1_555
O0 Sr5 2.400620 1_555
O1 Sr2 2.381284 1_555
O1 Sr1 2.400567 1_555
O1 Sr0 2.400573 1_555
O1 Sr7 2.400635 1_555
