# generated using pymatgen
data_Sr14MnBi11
_symmetry_space_group_name_H-M   'P 1'
_cell_length_a   17.42021627
_cell_length_b   17.42021627
_cell_length_c   17.42021627
_cell_angle_alpha   117.53088570
_cell_angle_beta   117.53088570
_cell_angle_gamma   94.33262978
_symmetry_Int_Tables_number   1
_chemical_formula_structural   Sr14MnBi11
_chemical_formula_sum   'Sr56 Mn4 Bi44'
_cell_volume   3865.60410949
_cell_formula_units_Z   4
loop_
 _symmetry_equiv_pos_site_id
 _symmetry_equiv_pos_as_xyz
  1  'x, y, z'
loop_
 _atom_site_type_symbol
 _atom_site_label
 _atom_site_symmetry_multiplicity
 _atom_site_fract_x
 _atom_site_fract_y
 _atom_site_fract_z
 _atom_site_occupancy
  Sr  Sr0  1  0.50026100  0.60394800  0.85191300  1
  Sr  Sr1  1  0.62500000  0.22971800  0.10471800  1
  Sr  Sr2  1  0.16050100  0.02611600  0.78149300  1
  Sr  Sr3  1  0.89721700  0.37584600  0.83741500  1
  Sr  Sr4  1  0.12500000  0.02028200  0.39528200  1
  Sr  Sr5  1  0.77028200  0.87500000  0.39528200  1
  Sr  Sr6  1  0.12900800  0.41050100  0.63438600  1
  Sr  Sr7  1  0.75203500  0.64834800  0.14808700  1
  Sr  Sr8  1  0.71156900  0.37415400  0.02137100  1
  Sr  Sr9  1  0.44019800  0.96156900  0.83741500  1
  Sr  Sr10  1  0.30980200  0.28843100  0.66258500  1
  Sr  Sr11  1  0.03843100  0.87584600  0.47862900  1
  Sr  Sr12  1  0.49796500  0.14605200  0.39631300  1
  Sr  Sr13  1  0.35394800  0.00203500  0.60368700  1
  Sr  Sr14  1  0.12500000  0.52028200  0.89528200  1
  Sr  Sr15  1  0.99796500  0.60165200  0.35191300  1
  Sr  Sr16  1  0.94019800  0.10278300  0.47862900  1
  Sr  Sr17  1  0.62584600  0.64721700  0.33741500  1
  Sr  Sr18  1  0.89605200  0.99973900  0.14808700  1
  Sr  Sr19  1  0.35278300  0.69019800  0.97862900  1
  Sr  Sr20  1  0.12415400  0.60278300  0.16258500  1
  Sr  Sr21  1  0.00026100  0.14834800  0.89631300  1
  Sr  Sr22  1  0.66050100  0.87900800  0.13438600  1
  Sr  Sr23  1  0.50537800  0.87099200  0.28149300  1
  Sr  Sr24  1  0.85278300  0.87415400  0.66258500  1
  Sr  Sr25  1  0.21156900  0.19019800  0.33741500  1
  Sr  Sr26  1  0.00537800  0.72388400  0.63438600  1
  Sr  Sr27  1  0.74462200  0.52611600  0.86561400  1
  Sr  Sr28  1  0.25203500  0.10394800  0.10368700  1
  Sr  Sr29  1  0.24462200  0.37900800  0.21850700  1
  Sr  Sr30  1  0.35165200  0.49973900  0.10368700  1
  Sr  Sr31  1  0.24973900  0.64605200  0.64808700  1
  Sr  Sr32  1  0.74973900  0.10165200  0.60368700  1
  Sr  Sr33  1  0.62500000  0.72971800  0.60471800  1
  Sr  Sr34  1  0.89834800  0.50203500  0.64808700  1
  Sr  Sr35  1  0.85165200  0.74796500  0.85191300  1
  Sr  Sr36  1  0.62099200  0.83949900  0.86561400  1
  Sr  Sr37  1  0.27611600  0.91050100  0.28149300  1
  Sr  Sr38  1  0.85394800  0.25026100  0.35191300  1
  Sr  Sr39  1  0.12584600  0.78843100  0.97862900  1
  Sr  Sr40  1  0.77611600  0.49462200  0.36561400  1
  Sr  Sr41  1  0.97388400  0.75537800  0.13438600  1
  Sr  Sr42  1  0.12099200  0.25537800  0.78149300  1
  Sr  Sr43  1  0.58949900  0.22388400  0.71850700  1
  Sr  Sr44  1  0.62415400  0.46156900  0.52137100  1
  Sr  Sr45  1  0.97971800  0.37500000  0.10471800  1
  Sr  Sr46  1  0.53843100  0.05980200  0.16258500  1
  Sr  Sr47  1  0.39605200  0.24796500  0.89631300  1
  Sr  Sr48  1  0.39834800  0.75026100  0.39631300  1
  Sr  Sr49  1  0.47971800  0.37500000  0.60471800  1
  Sr  Sr50  1  0.08949900  0.37099200  0.36561400  1
  Sr  Sr51  1  0.80980200  0.14721700  0.02137100  1
  Sr  Sr52  1  0.27028200  0.87500000  0.89528200  1
  Sr  Sr53  1  0.47388400  0.33949900  0.21850700  1
  Sr  Sr54  1  0.39721700  0.55980200  0.52137100  1
  Sr  Sr55  1  0.62900800  0.99462200  0.71850700  1
  Mn  Mn0  1  0.25000000  0.75000000  0.50000000  1
  Mn  Mn1  1  0.75000000  0.25000000  0.50000000  1
  Mn  Mn2  1  0.00000000  0.00000000  0.00000000  1
  Mn  Mn3  1  0.50000000  0.50000000  0.00000000  1
  Bi  Bi0  1  0.86530900  0.36530900  0.23061800  1
  Bi  Bi1  1  0.29111600  0.69888900  0.14543400  1
  Bi  Bi2  1  0.88469100  0.88469100  0.26938200  1
  Bi  Bi3  1  0.55345500  0.14568200  0.85456600  1
  Bi  Bi4  1  0.94888900  0.04111600  0.64543400  1
  Bi  Bi5  1  0.36530900  0.13469100  0.50000000  1
  Bi  Bi6  1  0.45888400  0.55111100  0.35456600  1
  Bi  Bi7  1  0.35431800  0.94654500  0.14543400  1
  Bi  Bi8  1  0.05668600  0.19805500  0.13248900  1
  Bi  Bi9  1  0.05345500  0.19888900  0.40777300  1
  Bi  Bi10  1  0.50000000  0.00000000  0.50000000  1
  Bi  Bi11  1  0.19654500  0.10431800  0.64543400  1
  Bi  Bi12  1  0.80194500  0.93443400  0.85863100  1
  Bi  Bi13  1  0.68443400  0.32580400  0.63248900  1
  Bi  Bi14  1  0.44805500  0.80668600  0.63248900  1
  Bi  Bi15  1  0.17419600  0.81556600  0.36751100  1
  Bi  Bi16  1  0.56556600  0.69805500  0.14136900  1
  Bi  Bi17  1  0.67419600  0.30668600  0.35863100  1
  Bi  Bi18  1  0.07580400  0.94331400  0.14136900  1
  Bi  Bi19  1  0.75000000  0.75000000  0.00000000  1
  Bi  Bi20  1  0.55668600  0.42419600  0.85863100  1
  Bi  Bi21  1  0.38469100  0.11530900  0.00000000  1
  Bi  Bi22  1  0.06556600  0.92419600  0.86751100  1
  Bi  Bi23  1  0.00000000  0.50000000  0.50000000  1
  Bi  Bi24  1  0.30194500  0.44331400  0.86751100  1
  Bi  Bi25  1  0.80111100  0.20888400  0.85456600  1
  Bi  Bi26  1  0.25000000  0.25000000  0.00000000  1
  Bi  Bi27  1  0.39568200  0.30345500  0.35456600  1
  Bi  Bi28  1  0.30111100  0.44654500  0.59222700  1
  Bi  Bi29  1  0.69654500  0.05111100  0.09222700  1
  Bi  Bi30  1  0.79111600  0.64568200  0.59222700  1
  Bi  Bi31  1  0.19331400  0.82580400  0.64136900  1
  Bi  Bi32  1  0.95888400  0.60431800  0.90777300  1
  Bi  Bi33  1  0.11530900  0.38469100  0.00000000  1
  Bi  Bi34  1  0.94805500  0.31556600  0.64136900  1
  Bi  Bi35  1  0.63469100  0.86530900  0.50000000  1
  Bi  Bi36  1  0.69331400  0.05194500  0.36751100  1
  Bi  Bi37  1  0.57580400  0.43443400  0.13248900  1
  Bi  Bi38  1  0.85431800  0.70888400  0.40777300  1
  Bi  Bi39  1  0.89568200  0.54111600  0.09222700  1
  Bi  Bi40  1  0.44888900  0.80345500  0.90777300  1
  Bi  Bi41  1  0.13469100  0.63469100  0.76938200  1
  Bi  Bi42  1  0.61530900  0.61530900  0.73061800  1
  Bi  Bi43  1  0.18443400  0.55194500  0.35863100  1
loop_
_geom_bond_atom_site_label_1
_geom_bond_atom_site_label_2
_geom_bond_distance
_geom_bond_site_symmetry_2
Bi0 Bi23 3.441294 1_655
Bi0 Sr40 3.468197 1_555
Bi0 Sr50 3.468211 1_655
Bi0 Sr51 3.469888 1_555
Bi0 Sr8 3.469888 1_555
Bi0 Sr15 3.572399 1_555
Bi0 Sr38 3.572399 1_555
Bi0 Sr1 3.625350 1_555
Bi0 Sr45 3.625350 1_555
Bi1 Sr14 3.389995 1_554
Bi1 Sr20 3.446976 1_555
Bi1 Sr37 3.451946 1_555
Bi1 Sr48 3.460505 1_555
Bi1 Sr23 3.478423 1_555
Bi1 Sr19 3.481966 1_554
Bi1 Sr30 3.550483 1_555
Bi1 Sr39 4.037370 1_554
Bi2 Sr41 3.468197 1_555
Bi2 Sr22 3.468211 1_555
Bi2 Sr11 3.469888 1_655
Bi2 Sr16 3.469888 1_565
Bi2 Sr18 3.572399 1_555
Bi2 Sr7 3.572399 1_555
Bi2 Sr5 3.625350 1_555
Bi2 Sr4 3.625350 1_665
Bi3 Sr1 3.389995 1_556
Bi3 Sr9 3.446976 1_545
Bi3 Sr55 3.451955 1_545
Bi3 Sr13 3.460505 1_555
Bi3 Sr43 3.478411 1_555
Bi3 Sr8 3.481966 1_556
Bi3 Sr47 3.550483 1_555
Bi3 Sr51 4.037370 1_556
Bi4 Sr5 3.389995 1_545
Bi4 Sr24 3.446976 1_545
Bi4 Sr2 3.451946 1_655
Bi4 Sr21 3.460505 1_655
Bi4 Sr42 3.478423 1_655
Bi4 Sr16 3.481966 1_555
Bi4 Sr32 3.550483 1_555
Bi4 Sr11 4.037370 1_645
Bi5 Sr43 3.468214 1_555
Bi5 Sr37 3.468214 1_545
Bi5 Sr25 3.469888 1_555
Bi5 Sr10 3.469888 1_555
Bi5 Sr13 3.572399 1_555
Bi5 Sr12 3.572399 1_555
Bi5 Sr4 3.625350 1_555
Bi5 Sr49 3.625350 1_555
Bi6 Sr33 3.389995 1_555
Bi6 Sr17 3.446976 1_555
Bi6 Sr53 3.451946 1_555
Bi6 Sr30 3.460505 1_555
Bi6 Sr29 3.478423 1_555
Bi6 Sr54 3.481966 1_555
Bi6 Sr48 3.550483 1_555
Bi6 Sr44 4.037370 1_555
Bi7 Sr52 3.389995 1_554
Bi7 Sr46 3.446976 1_565
Bi7 Sr23 3.451955 1_555
Bi7 Sr12 3.460505 1_565
Bi7 Sr37 3.478411 1_555
Bi7 Sr39 3.481966 1_554
Bi7 Sr28 3.550483 1_565
Bi7 Sr19 4.037370 1_554
Bi8 Mn2 2.867489 1_555
Bi8 Sr21 3.388566 1_554
Bi8 Sr25 3.412573 1_555
Bi8 Sr50 3.489784 1_555
Bi8 Sr29 3.526929 1_555
Bi8 Sr45 3.596728 1_455
Bi8 Sr51 3.629264 1_455
Bi8 Sr28 4.022533 1_555
Bi9 Sr4 3.389995 1_555
Bi9 Sr16 3.446976 1_455
Bi9 Sr6 3.451955 1_555
Bi9 Sr38 3.460505 1_455
Bi9 Sr50 3.478423 1_555
Bi9 Sr25 3.481966 1_555
Bi9 Sr18 3.550483 1_445
Bi9 Sr10 4.037370 1_555
Bi10 Bi5 3.441294 1_555
Bi10 Bi35 3.441294 1_545
Bi10 Sr43 3.464333 1_555
Bi10 Sr37 3.464333 1_545
Bi10 Sr55 3.464343 1_545
Bi10 Sr23 3.464343 1_545
Bi10 Sr32 3.733612 1_555
Bi10 Sr48 3.733612 1_545
Bi10 Sr13 3.733612 1_555
Bi10 Sr12 3.733612 1_555
Bi11 Sr4 3.389995 1_555
Bi11 Sr10 3.446976 1_555
Bi11 Sr42 3.451955 1_555
Bi11 Sr47 3.460505 1_555
Bi11 Sr2 3.478411 1_555
Bi11 Sr11 3.481966 1_545
Bi11 Sr13 3.550483 1_555
Bi11 Sr16 4.037370 1_455
Bi12 Mn2 2.867489 1_666
Bi12 Sr35 3.388566 1_555
Bi12 Sr51 3.412573 1_566
Bi12 Sr55 3.489784 1_555
Bi12 Sr36 3.526929 1_555
Bi12 Sr33 3.596728 1_555
Bi12 Sr24 3.629264 1_555
Bi12 Sr18 4.022533 1_556
Bi13 Mn1 2.867491 1_555
Bi13 Sr12 3.388571 1_555
Bi13 Sr3 3.412578 1_555
Bi13 Sr27 3.489784 1_555
Bi13 Sr43 3.526952 1_555
Bi13 Sr49 3.596722 1_555
Bi13 Sr44 3.629248 1_555
Bi13 Sr32 4.022549 1_555
Bi14 Mn0 2.867489 1_555
Bi14 Sr48 3.388566 1_555
Bi14 Sr9 3.412573 1_555
Bi14 Sr36 3.489784 1_555
Bi14 Sr55 3.526929 1_555
Bi14 Sr33 3.596728 1_555
Bi14 Sr54 3.629264 1_555
Bi14 Sr13 4.022533 1_565
Bi15 Mn0 2.867491 1_555
Bi15 Sr13 3.388571 1_565
Bi15 Sr20 3.412578 1_555
Bi15 Sr41 3.489784 1_455
Bi15 Sr37 3.526952 1_555
Bi15 Sr4 3.596722 1_565
Bi15 Sr11 3.629248 1_555
Bi15 Sr48 4.022549 1_555
Bi16 Mn3 2.867489 1_555
Bi16 Sr7 3.388566 1_555
Bi16 Sr19 3.412573 1_554
Bi16 Sr23 3.489784 1_555
Bi16 Sr22 3.526929 1_555
Bi16 Sr5 3.596728 1_555
Bi16 Sr17 3.629264 1_555
Bi16 Sr0 4.022533 1_554
Bi17 Mn1 2.867490 1_555
Bi17 Sr38 3.388583 1_555
Bi17 Sr44 3.412560 1_555
Bi17 Sr53 3.489784 1_555
Bi17 Sr40 3.526943 1_555
Bi17 Sr1 3.596735 1_555
Bi17 Sr46 3.629261 1_555
Bi17 Sr34 4.022539 1_555
Bi18 Mn2 2.867490 1_565
Bi18 Sr18 3.388583 1_455
Bi18 Sr39 3.412560 1_554
Bi18 Sr37 3.489784 1_555
Bi18 Sr41 3.526943 1_455
Bi18 Sr4 3.596735 1_565
Bi18 Sr25 3.629261 1_565
Bi18 Sr35 4.022539 1_454
Bi19 Bi42 3.441294 1_554
Bi19 Bi2 3.441294 1_555
Bi19 Sr27 3.464329 1_554
Bi19 Sr41 3.464329 1_555
Bi19 Sr22 3.464343 1_555
Bi19 Sr36 3.464343 1_554
Bi19 Sr18 3.733612 1_555
Bi19 Sr0 3.733612 1_554
Bi19 Sr7 3.733612 1_555
Bi19 Sr35 3.733612 1_554
Bi20 Mn3 2.867490 1_556
Bi20 Sr0 3.388583 1_555
Bi20 Sr8 3.412560 1_556
Bi20 Sr43 3.489784 1_555
Bi20 Sr27 3.526943 1_555
Bi20 Sr49 3.596735 1_555
Bi20 Sr10 3.629261 1_555
Bi20 Sr7 4.022539 1_556
Bi21 Bi26 3.441294 1_555
Bi21 Sr53 3.468214 1_555
Bi21 Sr2 3.468214 1_554
Bi21 Sr46 3.469888 1_555
Bi21 Sr9 3.469888 1_544
Bi21 Sr28 3.572399 1_555
Bi21 Sr47 3.572399 1_554
Bi21 Sr52 3.625350 1_544
Bi21 Sr1 3.625350 1_555
Bi22 Mn2 2.867491 1_566
Bi22 Sr28 3.388571 1_566
Bi22 Sr24 3.412578 1_455
Bi22 Sr26 3.489784 1_555
Bi22 Sr2 3.526952 1_565
Bi22 Sr52 3.596722 1_555
Bi22 Sr39 3.629248 1_555
Bi22 Sr21 4.022549 1_565
Bi23 Bi41 3.441294 1_555
Bi23 Sr26 3.464329 1_555
Bi23 Sr40 3.464329 1_455
Bi23 Sr6 3.464343 1_555
Bi23 Sr50 3.464343 1_555
Bi23 Sr31 3.733612 1_555
Bi23 Sr15 3.733612 1_455
Bi23 Sr38 3.733612 1_455
Bi23 Sr34 3.733612 1_455
Bi24 Mn3 2.867489 1_556
Bi24 Sr30 3.388566 1_556
Bi24 Sr10 3.412573 1_555
Bi24 Sr6 3.489784 1_555
Bi24 Sr42 3.526929 1_555
Bi24 Sr14 3.596728 1_555
Bi24 Sr19 3.629264 1_555
Bi24 Sr47 4.022533 1_555
Bi25 Sr45 3.389995 1_556
Bi25 Sr3 3.446976 1_555
Bi25 Sr43 3.451946 1_555
Bi25 Sr32 3.460505 1_555
Bi25 Sr55 3.478423 1_545
Bi25 Sr51 3.481966 1_556
Bi25 Sr21 3.550483 1_655
Bi25 Sr8 4.037370 1_556
Bi26 Bi33 3.441294 1_555
Bi26 Sr53 3.464333 1_555
Bi26 Sr2 3.464333 1_554
Bi26 Sr29 3.464343 1_555
Bi26 Sr42 3.464343 1_554
Bi26 Sr30 3.733612 1_555
Bi26 Sr21 3.733612 1_554
Bi26 Sr47 3.733612 1_554
Bi26 Sr28 3.733612 1_555
Bi27 Sr49 3.389995 1_555
Bi27 Sr25 3.446976 1_555
Bi27 Sr29 3.451955 1_555
Bi27 Sr28 3.460505 1_555
Bi27 Sr53 3.478411 1_555
Bi27 Sr44 3.481966 1_555
Bi27 Sr12 3.550483 1_555
Bi27 Sr54 4.037370 1_555
Bi28 Sr49 3.389995 1_555
Bi28 Sr54 3.446976 1_555
Bi28 Sr50 3.451955 1_555
Bi28 Sr31 3.460505 1_555
Bi28 Sr6 3.478423 1_555
Bi28 Sr10 3.481966 1_555
Bi28 Sr0 3.550483 1_555
Bi28 Sr25 4.037370 1_555
Bi29 Sr1 3.389995 1_555
Bi29 Sr51 3.446976 1_555
Bi29 Sr36 3.451955 1_544
Bi29 Sr18 3.460505 1_545
Bi29 Sr22 3.478423 1_545
Bi29 Sr46 3.481966 1_555
Bi29 Sr38 3.550483 1_555
Bi29 Sr9 4.037370 1_544
Bi30 Sr33 3.389995 1_555
Bi30 Sr44 3.446976 1_555
Bi30 Sr40 3.451963 1_555
Bi30 Sr34 3.460505 1_555
Bi30 Sr26 3.478419 1_655
Bi30 Sr24 3.481966 1_555
Bi30 Sr35 3.550483 1_555
Bi30 Sr17 4.037370 1_555
Bi31 Mn0 2.867490 1_555
Bi31 Sr31 3.388583 1_555
Bi31 Sr11 3.412560 1_555
Bi31 Sr2 3.489784 1_565
Bi31 Sr26 3.526943 1_555
Bi31 Sr52 3.596735 1_555
Bi31 Sr9 3.629261 1_555
Bi31 Sr15 4.022539 1_455
Bi32 Sr14 3.389995 1_655
Bi32 Sr39 3.446976 1_655
Bi32 Sr41 3.451963 1_556
Bi32 Sr35 3.460505 1_555
Bi32 Sr27 3.478419 1_555
Bi32 Sr3 3.481966 1_555
Bi32 Sr34 3.550483 1_555
Bi32 Sr20 4.037370 1_656
Bi33 Sr42 3.468211 1_554
Bi33 Sr29 3.468211 1_555
Bi33 Sr20 3.469888 1_555
Bi33 Sr3 3.469888 1_454
Bi33 Sr30 3.572399 1_555
Bi33 Sr21 3.572399 1_554
Bi33 Sr45 3.625350 1_455
Bi33 Sr14 3.625350 1_554
Bi34 Mn1 2.867489 1_555
Bi34 Sr34 3.388566 1_555
Bi34 Sr16 3.412573 1_555
Bi34 Sr42 3.489784 1_655
Bi34 Sr6 3.526929 1_655
Bi34 Sr14 3.596728 1_655
Bi34 Sr3 3.629264 1_555
Bi34 Sr38 4.022533 1_555
Bi35 Sr55 3.468211 1_555
Bi35 Sr23 3.468211 1_555
Bi35 Sr24 3.469888 1_555
Bi35 Sr17 3.469888 1_555
Bi35 Sr32 3.572399 1_565
Bi35 Sr48 3.572399 1_555
Bi35 Sr5 3.625350 1_555
Bi35 Sr33 3.625350 1_555
Bi36 Mn1 2.867489 1_555
Bi36 Sr32 3.388566 1_555
Bi36 Sr46 3.412573 1_555
Bi36 Sr22 3.489784 1_545
Bi36 Sr23 3.526929 1_545
Bi36 Sr5 3.596728 1_545
Bi36 Sr16 3.629264 1_555
Bi36 Sr12 4.022533 1_555
Bi37 Mn3 2.867491 1_555
Bi37 Sr47 3.388571 1_554
Bi37 Sr17 3.412578 1_555
Bi37 Sr40 3.489784 1_555
Bi37 Sr53 3.526952 1_555
Bi37 Sr1 3.596722 1_555
Bi37 Sr8 3.629248 1_555
Bi37 Sr30 4.022549 1_555
Bi38 Sr5 3.389995 1_555
Bi38 Sr11 3.446976 1_655
Bi38 Sr26 3.451963 1_655
Bi38 Sr15 3.460505 1_555
Bi38 Sr40 3.478419 1_555
Bi38 Sr17 3.481966 1_555
Bi38 Sr7 3.550483 1_555
Bi38 Sr24 4.037370 1_555
Bi39 Sr45 3.389995 1_555
Bi39 Sr8 3.446976 1_555
Bi39 Sr27 3.451963 1_554
Bi39 Sr7 3.460505 1_555
Bi39 Sr41 3.478419 1_555
Bi39 Sr20 3.481966 1_655
Bi39 Sr15 3.550483 1_555
Bi39 Sr3 4.037370 1_554
Bi40 Sr52 3.389995 1_555
Bi40 Sr19 3.446976 1_555
Bi40 Sr22 3.451955 1_556
Bi40 Sr0 3.460505 1_555
Bi40 Sr36 3.478423 1_555
Bi40 Sr9 3.481966 1_555
Bi40 Sr31 3.550483 1_555
Bi40 Sr46 4.037370 1_566
Bi41 Sr26 3.468197 1_555
Bi41 Sr6 3.468211 1_555
Bi41 Sr19 3.469888 1_555
Bi41 Sr39 3.469888 1_555
Bi41 Sr31 3.572399 1_555
Bi41 Sr34 3.572399 1_455
Bi41 Sr14 3.625350 1_555
Bi41 Sr52 3.625350 1_555
Bi42 Sr27 3.468197 1_555
Bi42 Sr36 3.468211 1_555
Bi42 Sr54 3.469888 1_555
Bi42 Sr44 3.469888 1_555
Bi42 Sr0 3.572399 1_555
Bi42 Sr35 3.572399 1_555
Bi42 Sr33 3.625350 1_555
Bi42 Sr49 3.625350 1_555
Bi43 Mn0 2.867489 1_555
Bi43 Sr15 3.388566 1_455
Bi43 Sr54 3.412573 1_555
Bi43 Sr29 3.489784 1_555
Bi43 Sr50 3.526929 1_555
Bi43 Sr45 3.596728 1_455
Bi43 Sr20 3.629264 1_555
Bi43 Sr31 4.022533 1_555
