# generated using pymatgen
data_SiC
_symmetry_space_group_name_H-M   'P 1'
_cell_length_a   3.07648508
_cell_length_b   3.07648427
_cell_length_c   40.26768340
_cell_angle_alpha   90.00000000
_cell_angle_beta   90.00000000
_cell_angle_gamma   119.99997640
_symmetry_Int_Tables_number   1
_chemical_formula_structural   SiC
_chemical_formula_sum   'Si16 C16'
_cell_volume   330.06303832
_cell_formula_units_Z   16
loop_
 _symmetry_equiv_pos_site_id
 _symmetry_equiv_pos_as_xyz
  1  'x, y, z'
loop_
 _atom_site_type_symbol
 _atom_site_label
 _atom_site_symmetry_multiplicity
 _atom_site_fract_x
 _atom_site_fract_y
 _atom_site_fract_z
 _atom_site_occupancy
  Si  Si0  1  0.33333300  0.66666700  0.81251166  1
  Si  Si1  1  0.33333300  0.66666700  0.56248732  1
  Si  Si2  1  0.00000000  0.00000000  0.37502844  1
  Si  Si3  1  0.66666700  0.33333300  0.93744337  1
  Si  Si4  1  0.66666700  0.33333300  0.06248732  1
  Si  Si5  1  0.00000000  -0.00000000  0.24998077  1
  Si  Si6  1  0.00000000  0.00000000  0.87502844  1
  Si  Si7  1  0.66666700  0.33333300  0.68746462  1
  Si  Si8  1  0.66666700  0.33333300  0.49997315  1
  Si  Si9  1  0.33333300  0.66666700  0.43744337  1
  Si  Si10  1  0.33333300  0.66666700  0.99997315  1
  Si  Si11  1  -0.00000000  0.00000000  0.74998077  1
  Si  Si12  1  0.66666700  0.33333300  0.31251166  1
  Si  Si13  1  -0.00000000  0.00000000  0.62491553  1
  Si  Si14  1  0.33333300  0.66666700  0.18746462  1
  Si  Si15  1  0.00000000  -0.00000000  0.12491553  1
  C  C0  1  0.00000000  0.00000000  0.17178814  1
  C  C1  1  0.33333300  0.66666700  0.48430688  1
  C  C2  1  0.66666700  0.33333300  0.35952155  1
  C  C3  1  0.33333300  0.66666700  0.04697750  1
  C  C4  1  0.66666700  0.33333300  0.54697750  1
  C  C5  1  0.00000000  -0.00000000  0.92189534  1
  C  C6  1  0.33333300  0.66666700  0.60935718  1
  C  C7  1  0.66666700  0.33333300  0.73447507  1
  C  C8  1  0.00000000  0.00000000  0.42189534  1
  C  C9  1  0.66666700  0.33333300  0.98430688  1
  C  C10  1  -0.00000000  0.00000000  0.79683349  1
  C  C11  1  0.66666700  0.33333300  0.10935718  1
  C  C12  1  0.33333300  0.66666700  0.85952155  1
  C  C13  1  0.00000000  -0.00000000  0.29683349  1
  C  C14  1  0.00000000  -0.00000000  0.67178814  1
  C  C15  1  0.33333300  0.66666700  0.23447507  1
loop_
_geom_bond_atom_site_label_1
_geom_bond_atom_site_label_2
_geom_bond_distance
_geom_bond_site_symmetry_2
C0 Si14 1.885045 1_545
C0 Si14 1.885048 1_555
C0 Si14 1.885049 1_445
C0 Si15 1.887451 1_555
C1 Si8 1.884908 1_565
C1 Si8 1.884908 1_455
C1 Si8 1.884913 1_555
C1 Si9 1.887085 1_555
C2 Si2 1.882769 1_655
C2 Si2 1.882772 1_665
C2 Si2 1.882773 1_555
C2 Si12 1.892979 1_555
C3 Si4 1.882809 1_565
C3 Si4 1.882809 1_455
C3 Si4 1.882814 1_555
C3 Si10 1.892756 1_554
C4 Si1 1.882809 1_545
C4 Si1 1.882809 1_655
C4 Si1 1.882814 1_555
C4 Si8 1.892756 1_555
C5 Si3 1.883320 1_455
C5 Si3 1.883322 1_445
C5 Si3 1.883323 1_555
C5 Si6 1.887221 1_555
C6 Si13 1.883458 1_565
C6 Si13 1.883461 1_555
C6 Si13 1.883461 1_665
C6 Si1 1.887341 1_555
C7 Si11 1.882754 1_655
C7 Si11 1.882756 1_665
C7 Si11 1.882757 1_555
C7 Si7 1.893002 1_555
C8 Si9 1.883320 1_545
C8 Si9 1.883322 1_555
C8 Si9 1.883323 1_445
C8 Si2 1.887221 1_555
C9 Si10 1.884908 1_545
C9 Si10 1.884908 1_655
C9 Si10 1.884913 1_555
C9 Si3 1.887085 1_555
C10 Si0 1.885068 1_545
C10 Si0 1.885071 1_555
C10 Si0 1.885071 1_445
C10 Si11 1.886650 1_555
C11 Si15 1.883458 1_655
C11 Si15 1.883461 1_665
C11 Si15 1.883461 1_555
C11 Si4 1.887341 1_555
C12 Si6 1.882769 1_565
C12 Si6 1.882772 1_555
C12 Si6 1.882773 1_665
C12 Si0 1.892979 1_555
C13 Si12 1.885068 1_455
C13 Si12 1.885071 1_445
C13 Si12 1.885071 1_555
C13 Si5 1.886650 1_555
C14 Si7 1.885045 1_455
C14 Si7 1.885048 1_445
C14 Si7 1.885049 1_555
C14 Si13 1.887451 1_555
C15 Si5 1.882754 1_565
C15 Si5 1.882756 1_555
C15 Si5 1.882757 1_665
C15 Si14 1.893002 1_555
