# generated using pymatgen
data_BaEu2ZnO5
_symmetry_space_group_name_H-M   'P 1'
_cell_length_a   5.84281100
_cell_length_b   7.30411500
_cell_length_c   12.68675500
_cell_angle_alpha   90.00000000
_cell_angle_beta   90.00000000
_cell_angle_gamma   90.00000000
_symmetry_Int_Tables_number   1
_chemical_formula_structural   BaEu2ZnO5
_chemical_formula_sum   'Ba4 Eu8 Zn4 O20'
_cell_volume   541.42710495
_cell_formula_units_Z   4
loop_
 _symmetry_equiv_pos_site_id
 _symmetry_equiv_pos_as_xyz
  1  'x, y, z'
loop_
 _atom_site_type_symbol
 _atom_site_label
 _atom_site_symmetry_multiplicity
 _atom_site_fract_x
 _atom_site_fract_y
 _atom_site_fract_z
 _atom_site_occupancy
  Ba  Ba0  1  0.25000000  0.92370400  0.90063000  1
  Ba  Ba1  1  0.75000000  0.07629600  0.09937000  1
  Ba  Ba2  1  0.75000000  0.42370400  0.59937000  1
  Ba  Ba3  1  0.25000000  0.57629600  0.40063000  1
  Eu  Eu0  1  0.25000000  0.11771400  0.28986400  1
  Eu  Eu1  1  0.75000000  0.88228600  0.71013600  1
  Eu  Eu2  1  0.75000000  0.61771400  0.21013600  1
  Eu  Eu3  1  0.25000000  0.38228600  0.78986400  1
  Eu  Eu4  1  0.25000000  0.39453300  0.07228200  1
  Eu  Eu5  1  0.75000000  0.60546700  0.92771800  1
  Eu  Eu6  1  0.75000000  0.89453300  0.42771800  1
  Eu  Eu7  1  0.25000000  0.10546700  0.57228200  1
  Zn  Zn0  1  0.25000000  0.69437000  0.65004600  1
  Zn  Zn1  1  0.75000000  0.30563000  0.34995400  1
  Zn  Zn2  1  0.75000000  0.19437000  0.84995400  1
  Zn  Zn3  1  0.25000000  0.80563000  0.15004600  1
  O  O0  1  0.99230700  0.17168500  0.43596500  1
  O  O1  1  0.49230700  0.82831500  0.56403500  1
  O  O2  1  0.00769300  0.67168500  0.06403500  1
  O  O3  1  0.50769300  0.32831500  0.93596500  1
  O  O4  1  0.00769300  0.82831500  0.56403500  1
  O  O5  1  0.50769300  0.17168500  0.43596500  1
  O  O6  1  0.99230700  0.32831500  0.93596500  1
  O  O7  1  0.49230700  0.67168500  0.06403500  1
  O  O8  1  0.50522900  0.35320400  0.22615200  1
  O  O9  1  0.00522900  0.64679600  0.77384800  1
  O  O10  1  0.49477100  0.85320400  0.27384800  1
  O  O11  1  0.99477100  0.14679600  0.72615200  1
  O  O12  1  0.49477100  0.64679600  0.77384800  1
  O  O13  1  0.99477100  0.35320400  0.22615200  1
  O  O14  1  0.50522900  0.14679600  0.72615200  1
  O  O15  1  0.00522900  0.85320400  0.27384800  1
  O  O16  1  0.25000000  0.06637800  0.09852600  1
  O  O17  1  0.75000000  0.93362200  0.90147400  1
  O  O18  1  0.75000000  0.56637800  0.40147400  1
  O  O19  1  0.25000000  0.43362200  0.59852600  1
loop_
_geom_bond_atom_site_label_1
_geom_bond_atom_site_label_2
_geom_bond_distance
_geom_bond_site_symmetry_2
Ba0 O16 2.718344 1_566
Ba0 O17 2.922323 1_455
Ba0 O17 2.922323 1_555
Ba0 O9 2.953512 1_555
Ba0 O12 2.953512 1_555
Ba0 O7 3.112952 1_556
Ba0 O2 3.112952 1_556
Ba0 O14 3.127127 1_565
Ba0 O11 3.127127 1_465
Ba0 O6 3.346923 1_465
Ba0 O3 3.346923 1_565
Ba1 O17 2.718344 1_544
Ba1 O16 2.922323 1_655
Ba1 O16 2.922323 1_555
Ba1 O8 2.953512 1_555
Ba1 O13 2.953512 1_555
Ba1 O6 3.112952 1_554
Ba1 O3 3.112952 1_554
Ba1 O15 3.127127 1_645
Ba1 O10 3.127127 1_545
Ba1 O7 3.346923 1_545
Ba1 O2 3.346923 1_645
Ba2 O18 2.718344 1_555
Ba2 O19 2.922323 1_555
Ba2 O19 2.922323 1_655
Ba2 O11 2.953512 1_555
Ba2 O14 2.953512 1_555
Ba2 O0 3.112952 1_555
Ba2 O5 3.112952 1_555
Ba2 O9 3.127127 1_655
Ba2 O12 3.127127 1_555
Ba2 O1 3.346923 1_555
Ba2 O4 3.346923 1_655
Ba3 O19 2.718344 1_555
Ba3 O18 2.922323 1_455
Ba3 O18 2.922323 1_555
Ba3 O10 2.953512 1_555
Ba3 O15 2.953512 1_555
Ba3 O1 3.112952 1_555
Ba3 O4 3.112952 1_555
Ba3 O8 3.127127 1_555
Ba3 O13 3.127127 1_455
Ba3 O0 3.346923 1_455
Ba3 O5 3.346923 1_555
Eu0 O15 2.412320 1_545
Eu0 O10 2.412320 1_545
Eu0 O13 2.415729 1_455
Eu0 O8 2.415729 1_555
Eu0 O5 2.420336 1_555
Eu0 O0 2.420336 1_455
Eu0 O16 2.456248 1_555
Eu1 O11 2.412320 1_565
Eu1 O14 2.412320 1_565
Eu1 O12 2.415729 1_555
Eu1 O9 2.415729 1_655
Eu1 O1 2.420336 1_555
Eu1 O4 2.420336 1_655
Eu1 O17 2.456248 1_555
Eu2 O8 2.412320 1_555
Eu2 O13 2.412320 1_555
Eu2 O10 2.415729 1_555
Eu2 O15 2.415729 1_655
Eu2 O7 2.420336 1_555
Eu2 O2 2.420336 1_655
Eu2 O18 2.456248 1_555
Eu3 O9 2.412320 1_555
Eu3 O12 2.412320 1_555
Eu3 O11 2.415729 1_455
Eu3 O14 2.415729 1_555
Eu3 O6 2.420336 1_455
Eu3 O3 2.420336 1_555
Eu3 O19 2.456248 1_555
Eu4 O6 2.343462 1_454
Eu4 O3 2.343462 1_554
Eu4 O16 2.419897 1_555
Eu4 O7 2.472509 1_555
Eu4 O2 2.472509 1_555
Eu4 O8 2.475016 1_555
Eu4 O13 2.475016 1_455
Eu5 O2 2.343462 1_656
Eu5 O7 2.343462 1_556
Eu5 O17 2.419897 1_555
Eu5 O3 2.472509 1_555
Eu5 O6 2.472509 1_555
Eu5 O9 2.475016 1_655
Eu5 O12 2.475016 1_555
Eu6 O1 2.343462 1_555
Eu6 O4 2.343462 1_655
Eu6 O18 2.419897 1_555
Eu6 O5 2.472509 1_565
Eu6 O0 2.472509 1_565
Eu6 O15 2.475016 1_655
Eu6 O10 2.475016 1_555
Eu7 O0 2.343462 1_455
Eu7 O5 2.343462 1_555
Eu7 O19 2.419897 1_555
Eu7 O4 2.472509 1_545
Eu7 O1 2.472509 1_545
Eu7 O11 2.475016 1_455
Eu7 O14 2.475016 1_555
O0 Zn1 2.037706 1_555
O1 Zn0 2.037706 1_555
O2 Zn3 2.037706 1_555
O3 Zn2 2.037706 1_555
O4 Zn0 2.037706 1_555
O5 Zn1 2.037706 1_555
O6 Zn2 2.037706 1_555
O7 Zn3 2.037706 1_555
O8 Zn1 2.152442 1_555
O9 Zn0 2.152442 1_555
O10 Zn3 2.152442 1_555
O11 Zn2 2.152442 1_555
O12 Zn0 2.152442 1_555
O13 Zn1 2.152442 1_555
O14 Zn2 2.152442 1_555
O15 Zn3 2.152442 1_555
O16 Zn3 2.013571 1_545
O17 Zn2 2.013571 1_565
O18 Zn1 2.013571 1_555
O19 Zn0 2.013571 1_555
