# generated using pymatgen
data_Na2CuSi3O8
_symmetry_space_group_name_H-M   'P 1'
_cell_length_a   10.41055700
_cell_length_b   8.01281200
_cell_length_c   9.73027488
_cell_angle_alpha   74.34396582
_cell_angle_beta   90.00000000
_cell_angle_gamma   90.00000000
_symmetry_Int_Tables_number   1
_chemical_formula_structural   Na2CuSi3O8
_chemical_formula_sum   'Na8 Cu4 Si12 O32'
_cell_volume   781.56447908
_cell_formula_units_Z   4
loop_
 _symmetry_equiv_pos_site_id
 _symmetry_equiv_pos_as_xyz
  1  'x, y, z'
loop_
 _atom_site_type_symbol
 _atom_site_label
 _atom_site_symmetry_multiplicity
 _atom_site_fract_x
 _atom_site_fract_y
 _atom_site_fract_z
 _atom_site_occupancy
  Na  Na0  1  0.48924000  0.29435600  0.12901400  1
  Na  Na1  1  0.01076000  0.29435600  0.62901400  1
  Na  Na2  1  0.51076000  0.70564400  0.87098600  1
  Na  Na3  1  0.02604800  0.30342400  0.95940800  1
  Na  Na4  1  0.98924000  0.70564400  0.37098600  1
  Na  Na5  1  0.47395200  0.30342400  0.45940800  1
  Na  Na6  1  0.52604800  0.69657600  0.54059200  1
  Na  Na7  1  0.97395200  0.69657600  0.04059200  1
  Cu  Cu0  1  0.72817500  0.51374700  0.31254000  1
  Cu  Cu1  1  0.77182500  0.51374700  0.81254000  1
  Cu  Cu2  1  0.22817500  0.48625300  0.18746000  1
  Cu  Cu3  1  0.27182500  0.48625300  0.68746000  1
  Si  Si0  1  0.78331000  0.88350800  0.60901300  1
  Si  Si1  1  0.21669000  0.11649200  0.39098700  1
  Si  Si2  1  0.22875200  0.88165500  0.19260900  1
  Si  Si3  1  0.47718500  0.69540400  0.19161100  1
  Si  Si4  1  0.52281500  0.30459600  0.80838900  1
  Si  Si5  1  0.77124800  0.11834500  0.80739100  1
  Si  Si6  1  0.71669000  0.88350800  0.10901300  1
  Si  Si7  1  0.28331000  0.11649200  0.89098700  1
  Si  Si8  1  0.72875200  0.11834500  0.30739100  1
  Si  Si9  1  0.02281500  0.69540400  0.69161100  1
  Si  Si10  1  0.27124800  0.88165500  0.69260900  1
  Si  Si11  1  0.97718500  0.30459600  0.30838900  1
  O  O0  1  0.44424700  0.39746300  0.66312300  1
  O  O1  1  0.39670500  0.57127300  0.11588900  1
  O  O2  1  0.10329500  0.57127300  0.61588900  1
  O  O3  1  0.41753600  0.20182800  0.93214700  1
  O  O4  1  0.79373100  0.96510500  0.95797300  1
  O  O5  1  0.69093900  0.73898700  0.70988700  1
  O  O6  1  0.82799800  0.04130800  0.67845500  1
  O  O7  1  0.88227500  0.15476800  0.27350900  1
  O  O8  1  0.67200200  0.04130800  0.17845500  1
  O  O9  1  0.38227500  0.84523200  0.22649100  1
  O  O10  1  0.11772500  0.84523200  0.72649100  1
  O  O11  1  0.91753600  0.79817200  0.56785300  1
  O  O12  1  0.30906100  0.26101300  0.29011300  1
  O  O13  1  0.55575300  0.60253700  0.33687700  1
  O  O14  1  0.20626900  0.03489500  0.04202700  1
  O  O15  1  0.70626900  0.96510500  0.45797300  1
  O  O16  1  0.14793100  0.71060500  0.18992000  1
  O  O17  1  0.35206900  0.71060500  0.68992000  1
  O  O18  1  0.17200200  0.95869200  0.32154500  1
  O  O19  1  0.58246400  0.79817200  0.06785300  1
  O  O20  1  0.61772500  0.15476800  0.77350900  1
  O  O21  1  0.89670500  0.42872700  0.38411100  1
  O  O22  1  0.85206900  0.28939500  0.81008000  1
  O  O23  1  0.19093900  0.26101300  0.79011300  1
  O  O24  1  0.64793100  0.28939500  0.31008000  1
  O  O25  1  0.05575300  0.39746300  0.16312300  1
  O  O26  1  0.80906100  0.73898700  0.20988700  1
  O  O27  1  0.94424700  0.60253700  0.83687700  1
  O  O28  1  0.32799800  0.95869200  0.82154500  1
  O  O29  1  0.29373100  0.03489500  0.54202700  1
  O  O30  1  0.08246400  0.20182800  0.43214700  1
  O  O31  1  0.60329500  0.42872700  0.88411100  1
loop_
_geom_bond_atom_site_label_1
_geom_bond_atom_site_label_2
_geom_bond_distance
_geom_bond_site_symmetry_2
Na0 O3 2.354327 1_554
Na0 O1 2.390573 1_555
Na0 O24 2.407718 1_555
Na0 O12 2.412676 1_555
Na0 O31 2.619715 1_554
Na0 O8 2.726963 1_555
Na1 O30 2.354327 1_555
Na1 O2 2.390573 1_555
Na1 O22 2.407718 1_455
Na1 O23 2.412676 1_555
Na1 O21 2.619715 1_455
Na1 O6 2.726963 1_455
Na2 O19 2.354327 1_556
Na2 O31 2.390573 1_555
Na2 O17 2.407718 1_555
Na2 O5 2.412676 1_555
Na2 O1 2.619715 1_556
Na2 O28 2.726963 1_555
Na3 O25 2.323509 1_556
Na3 O22 2.343613 1_455
Na3 O23 2.465343 1_555
Na3 O27 2.519675 1_455
Na3 O14 2.804016 1_556
Na4 O11 2.354327 1_555
Na4 O21 2.390573 1_555
Na4 O16 2.407718 1_655
Na4 O26 2.412676 1_555
Na4 O2 2.619715 1_655
Na4 O18 2.726963 1_655
Na5 O0 2.323509 1_555
Na5 O24 2.343613 1_555
Na5 O12 2.465343 1_555
Na5 O13 2.519675 1_555
Na5 O29 2.804016 1_555
Na6 O13 2.323509 1_555
Na6 O17 2.343613 1_555
Na6 O5 2.465343 1_555
Na6 O0 2.519675 1_555
Na6 O15 2.804016 1_555
Na7 O27 2.323509 1_554
Na7 O16 2.343613 1_655
Na7 O26 2.465343 1_555
Na7 O25 2.519675 1_655
Na7 O4 2.804016 1_554
Cu0 O21 1.941974 1_555
Cu0 O13 1.968562 1_555
Cu0 O24 1.988305 1_555
Cu0 O26 1.997779 1_555
Cu1 O31 1.941974 1_555
Cu1 O27 1.968562 1_555
Cu1 O22 1.988305 1_555
Cu1 O5 1.997779 1_555
Cu2 O1 1.941974 1_555
Cu2 O25 1.968562 1_555
Cu2 O16 1.988305 1_555
Cu2 O12 1.997779 1_555
Cu3 O2 1.941974 1_555
Cu3 O0 1.968562 1_555
Cu3 O17 1.988305 1_555
Cu3 O23 1.997779 1_555
O0 Si4 1.628797 1_555
O1 Si3 1.621631 1_555
O2 Si9 1.621631 1_555
O3 Si7 1.651786 1_555
O3 Si4 1.671596 1_555
O4 Si6 1.646826 1_556
O4 Si5 1.654778 1_565
O5 Si0 1.617308 1_555
O6 Si5 1.649860 1_555
O6 Si0 1.653140 1_545
O7 Si8 1.642063 1_555
O7 Si11 1.659120 1_555
O8 Si8 1.649860 1_555
O8 Si6 1.653140 1_545
O9 Si2 1.642063 1_555
O9 Si3 1.659120 1_555
O10 Si10 1.642063 1_555
O10 Si9 1.659120 1_555
O11 Si0 1.651786 1_555
O11 Si9 1.671596 1_655
O12 Si1 1.617308 1_555
O13 Si3 1.628797 1_555
O14 Si7 1.646826 1_554
O14 Si2 1.654778 1_545
O15 Si0 1.646826 1_555
O15 Si8 1.654778 1_565
O16 Si2 1.614466 1_555
O17 Si10 1.614466 1_555
O18 Si2 1.649860 1_555
O18 Si1 1.653140 1_565
O19 Si6 1.651786 1_555
O19 Si3 1.671596 1_555
O20 Si5 1.642063 1_555
O20 Si4 1.659120 1_555
O21 Si11 1.621631 1_555
O22 Si5 1.614466 1_555
O23 Si7 1.617308 1_555
O24 Si8 1.614466 1_555
O25 Si11 1.628797 1_455
O26 Si6 1.617308 1_555
O27 Si9 1.628797 1_655
O28 Si10 1.649860 1_555
O28 Si7 1.653140 1_565
O29 Si1 1.646826 1_555
O29 Si10 1.654778 1_545
O30 Si1 1.651786 1_555
O30 Si11 1.671596 1_455
O31 Si4 1.621631 1_555
