# generated using pymatgen
data_ZrP2O7
_symmetry_space_group_name_H-M   'P 1'
_cell_length_a   8.45708273
_cell_length_b   8.45708273
_cell_length_c   8.45708273
_cell_angle_alpha   90.00000000
_cell_angle_beta   90.00000000
_cell_angle_gamma   90.00000000
_symmetry_Int_Tables_number   1
_chemical_formula_structural   ZrP2O7
_chemical_formula_sum   'Zr4 P8 O28'
_cell_volume   604.86957093
_cell_formula_units_Z   4
loop_
 _symmetry_equiv_pos_site_id
 _symmetry_equiv_pos_as_xyz
  1  'x, y, z'
loop_
 _atom_site_type_symbol
 _atom_site_label
 _atom_site_symmetry_multiplicity
 _atom_site_fract_x
 _atom_site_fract_y
 _atom_site_fract_z
 _atom_site_occupancy
  Zr  Zr0  1  -0.00000000  0.50000000  0.50000000  1
  Zr  Zr1  1  0.50000000  0.50000000  0.00000000  1
  Zr  Zr2  1  0.50000000  -0.00000000  0.50000000  1
  Zr  Zr3  1  -0.00000000  -0.00000000  0.00000000  1
  P  P0  1  0.39299520  0.10700480  0.89299520  1
  P  P1  1  0.10700480  0.89299520  0.39299520  1
  P  P2  1  0.89299520  0.39299520  0.10700480  1
  P  P3  1  0.60700480  0.60700480  0.60700480  1
  P  P4  1  0.60700480  0.89299520  0.10700480  1
  P  P5  1  0.89299520  0.10700480  0.60700480  1
  P  P6  1  0.10700480  0.60700480  0.89299520  1
  P  P7  1  0.39299520  0.39299520  0.39299520  1
  O  O0  1  0.50000000  -0.00000000  0.00000000  1
  O  O1  1  -0.00000000  -0.00000000  0.50000000  1
  O  O2  1  -0.00000000  0.50000000  0.00000000  1
  O  O3  1  0.50000000  0.50000000  0.50000000  1
  O  O4  1  0.94256679  0.22448599  0.07756157  1
  O  O5  1  0.44256679  0.27551401  0.92243843  1
  O  O6  1  0.05743321  0.72448599  0.42243843  1
  O  O7  1  0.27551401  0.92243843  0.44256679  1
  O  O8  1  0.42243843  0.05743321  0.72448599  1
  O  O9  1  0.92243843  0.44256679  0.27551401  1
  O  O10  1  0.22448599  0.07756157  0.94256679  1
  O  O11  1  0.07756157  0.94256679  0.22448599  1
  O  O12  1  0.44256679  0.22448599  0.42243843  1
  O  O13  1  0.42243843  0.44256679  0.22448599  1
  O  O14  1  0.22448599  0.42243843  0.44256679  1
  O  O15  1  0.27551401  0.57756157  0.94256679  1
  O  O16  1  0.92243843  0.05743321  0.77551401  1
  O  O17  1  0.77551401  0.92243843  0.05743321  1
  O  O18  1  0.07756157  0.55743321  0.72448599  1
  O  O19  1  0.57756157  0.94256679  0.27551401  1
  O  O20  1  0.72448599  0.07756157  0.55743321  1
  O  O21  1  0.94256679  0.27551401  0.57756157  1
  O  O22  1  0.55743321  0.72448599  0.07756157  1
  O  O23  1  0.05743321  0.77551401  0.92243843  1
  O  O24  1  0.55743321  0.77551401  0.57756157  1
  O  O25  1  0.57756157  0.55743321  0.77551401  1
  O  O26  1  0.77551401  0.57756157  0.55743321  1
  O  O27  1  0.72448599  0.42243843  0.05743321  1
loop_
_geom_bond_atom_site_label_1
_geom_bond_atom_site_label_2
_geom_bond_distance
_geom_bond_site_symmetry_2
O0 P4 1.567417 1_545
O0 P0 1.567417 1_554
O1 P5 1.567417 1_455
O1 P1 1.567417 1_545
O2 P2 1.567417 1_455
O2 P6 1.567417 1_554
O3 P3 1.567417 1_555
O3 P7 1.567417 1_555
O4 P2 1.506206 1_555
O4 Zr3 2.066513 1_655
O5 P0 1.506206 1_555
O5 Zr1 2.066513 1_556
O6 P1 1.506206 1_555
O6 Zr0 2.066513 1_555
O7 P1 1.506206 1_555
O7 Zr2 2.066513 1_565
O8 P0 1.506206 1_555
O8 Zr2 2.066513 1_555
O9 P2 1.506206 1_555
O9 Zr0 2.066513 1_655
O10 P0 1.506206 1_555
O10 Zr3 2.066513 1_556
O11 P1 1.506206 1_555
O11 Zr3 2.066513 1_565
O12 P7 1.506206 1_555
O12 Zr2 2.066513 1_555
O13 P7 1.506206 1_555
O13 Zr1 2.066513 1_555
O14 P7 1.506206 1_555
O14 Zr0 2.066513 1_555
O15 P6 1.506206 1_555
O15 Zr1 2.066513 1_556
O16 P5 1.506206 1_555
O16 Zr3 2.066513 1_656
O17 P4 1.506206 1_555
O17 Zr3 2.066513 1_665
O18 P6 1.506206 1_555
O18 Zr0 2.066513 1_555
O19 P4 1.506206 1_555
O19 Zr2 2.066513 1_565
O20 P5 1.506206 1_555
O20 Zr2 2.066513 1_555
O21 P5 1.506206 1_555
O21 Zr0 2.066513 1_655
O22 P4 1.506206 1_555
O22 Zr1 2.066513 1_555
O23 P6 1.506206 1_555
O23 Zr3 2.066513 1_566
O24 P3 1.506206 1_555
O24 Zr2 2.066513 1_565
O25 P3 1.506206 1_555
O25 Zr1 2.066513 1_556
O26 P3 1.506206 1_555
O26 Zr0 2.066513 1_655
O27 P2 1.506206 1_555
O27 Zr1 2.066513 1_555
