# generated using pymatgen
data_Cs3TlF6
_symmetry_space_group_name_H-M   'P 1'
_cell_length_a   6.85971846
_cell_length_b   6.85971821
_cell_length_c   7.08820240
_cell_angle_alpha   118.93929923
_cell_angle_beta   118.93929800
_cell_angle_gamma   89.99999957
_symmetry_Int_Tables_number   1
_chemical_formula_structural   Cs3TlF6
_chemical_formula_sum   'Cs3 Tl1 F6'
_cell_volume   243.21375232
_cell_formula_units_Z   1
loop_
 _symmetry_equiv_pos_site_id
 _symmetry_equiv_pos_as_xyz
  1  'x, y, z'
loop_
 _atom_site_type_symbol
 _atom_site_label
 _atom_site_symmetry_multiplicity
 _atom_site_fract_x
 _atom_site_fract_y
 _atom_site_fract_z
 _atom_site_occupancy
  Cs  Cs0  1  0.50000000  0.50000000  -0.00000000  1
  Cs  Cs1  1  0.75000000  0.25000000  0.50000000  1
  Cs  Cs2  1  0.25000000  0.75000000  0.50000000  1
  Tl  Tl0  1  0.00000000  0.00000000  -0.00000000  1
  F  F0  1  -0.00000000  0.68917861  -0.00000000  1
  F  F1  1  0.77921301  0.77921301  0.55842502  1
  F  F2  1  0.68917861  -0.00000000  -0.00000000  1
  F  F3  1  0.22078699  0.22078699  0.44157498  1
  F  F4  1  0.00000000  0.31082139  0.00000000  1
  F  F5  1  0.31082139  0.00000000  0.00000000  1
loop_
_geom_bond_atom_site_label_1
_geom_bond_atom_site_label_2
_geom_bond_distance
_geom_bond_site_symmetry_2
Cs0 F1 2.886293 1_555
Cs0 F3 2.886293 1_554
Cs1 F2 2.891841 1_555
Cs1 F4 2.891841 1_656
Cs1 F0 2.891841 1_656
Cs1 F5 2.891841 1_555
Cs1 F1 3.443124 1_545
Cs1 F3 3.443124 1_655
Cs1 F1 3.443130 1_555
Cs1 F3 3.443131 1_555
Cs2 F5 2.891841 1_566
Cs2 F0 2.891841 1_555
Cs2 F4 2.891841 1_555
Cs2 F2 2.891841 1_566
Cs2 F3 3.443124 1_565
Cs2 F1 3.443124 1_455
Cs2 F3 3.443130 1_555
Cs2 F1 3.443131 1_555
F0 Tl0 2.132147 1_565
F1 Tl0 2.282338 1_666
F2 Tl0 2.132147 1_655
F3 Tl0 2.282338 1_555
F4 Tl0 2.132147 1_555
F5 Tl0 2.132147 1_555
