# generated using pymatgen
data_CS5N5O3F
_symmetry_space_group_name_H-M   'P 1'
_cell_length_a   7.34429200
_cell_length_b   8.39505282
_cell_length_c   8.97647813
_cell_angle_alpha   96.81839270
_cell_angle_beta   92.58770757
_cell_angle_gamma   106.80405512
_symmetry_Int_Tables_number   1
_chemical_formula_structural   CS5N5O3F
_chemical_formula_sum   'C2 S10 N10 O6 F2'
_cell_volume   524.22924810
_cell_formula_units_Z   2
loop_
 _symmetry_equiv_pos_site_id
 _symmetry_equiv_pos_as_xyz
  1  'x, y, z'
loop_
 _atom_site_type_symbol
 _atom_site_label
 _atom_site_symmetry_multiplicity
 _atom_site_fract_x
 _atom_site_fract_y
 _atom_site_fract_z
 _atom_site_occupancy
  C  C0  1  0.89361000  0.47922300  0.80688300  1
  C  C1  1  0.10639000  0.52077700  0.19311700  1
  S  S0  1  0.91190200  0.18728200  0.16470900  1
  S  S1  1  0.08809800  0.81271800  0.83529100  1
  S  S2  1  0.66249900  0.18269400  0.76294300  1
  S  S3  1  0.49211100  0.32972500  0.30362800  1
  S  S4  1  0.50788900  0.67027500  0.69637200  1
  S  S5  1  0.86791100  0.78514600  0.54384700  1
  S  S6  1  0.13208900  0.21485400  0.45615300  1
  S  S7  1  0.25647200  0.29661700  0.01988700  1
  S  S8  1  0.74352800  0.70338300  0.98011300  1
  S  S9  1  0.33750100  0.81730600  0.23705700  1
  N  N0  1  0.08752900  0.34918900  0.11884400  1
  N  N1  1  0.03435800  0.84629200  0.67071300  1
  N  N2  1  0.66527500  0.67163000  0.57951500  1
  N  N3  1  0.33472500  0.32837000  0.42048500  1
  N  N4  1  0.43188500  0.29980600  0.13129500  1
  N  N5  1  0.96564200  0.15370800  0.32928700  1
  N  N6  1  0.72028000  0.37705600  0.82496000  1
  N  N7  1  0.56811500  0.70019400  0.86870500  1
  N  N8  1  0.27972000  0.62294400  0.17504000  1
  N  N9  1  0.91247100  0.65081100  0.88115600  1
  O  O0  1  0.79693700  0.09589500  0.80358100  1
  O  O1  1  0.96848400  0.53945500  0.25815600  1
  O  O2  1  0.03151600  0.46054500  0.74184400  1
  O  O3  1  0.53628900  0.89141700  0.21957500  1
  O  O4  1  0.20306300  0.90410500  0.19641900  1
  O  O5  1  0.46371100  0.10858300  0.78042500  1
  F  F0  1  0.32712700  0.81872600  0.41855600  1
  F  F1  1  0.67287300  0.18127400  0.58144400  1
loop_
_geom_bond_atom_site_label_1
_geom_bond_atom_site_label_2
_geom_bond_distance
_geom_bond_site_symmetry_2
C0 O2 1.230742 1_655
C0 N6 1.342710 1_555
C0 N9 1.478834 1_555
C1 O1 1.230742 1_455
C1 N8 1.342710 1_555
C1 N0 1.478834 1_555
N0 S7 1.687127 1_555
N0 S0 1.687552 1_455
N1 S5 1.558013 1_455
N1 S1 1.590052 1_555
N2 S5 1.587739 1_555
N2 S4 1.594130 1_555
N3 S6 1.587739 1_555
N3 S3 1.594130 1_555
N4 S3 1.559963 1_555
N4 S7 1.586777 1_555
N5 S6 1.558013 1_655
N5 S0 1.590052 1_555
N6 S2 1.585874 1_555
N7 S4 1.559963 1_555
N7 S8 1.586777 1_555
N8 S9 1.585874 1_555
N9 S8 1.687127 1_555
N9 S1 1.687552 1_655
O0 S2 1.444125 1_555
O3 S9 1.435919 1_555
O4 S9 1.444125 1_555
O5 S2 1.435919 1_555
F0 S9 1.633228 1_555
F1 S2 1.633228 1_555
