# generated using pymatgen
data_Gd3BWO9
_symmetry_space_group_name_H-M   'P 1'
_cell_length_a   8.66959704
_cell_length_b   8.66959704
_cell_length_c   5.47653200
_cell_angle_alpha   90.00000000
_cell_angle_beta   90.00000000
_cell_angle_gamma   119.99999267
_symmetry_Int_Tables_number   1
_chemical_formula_structural   Gd3BWO9
_chemical_formula_sum   'Gd6 B2 W2 O18'
_cell_volume   356.47913682
_cell_formula_units_Z   2
loop_
 _symmetry_equiv_pos_site_id
 _symmetry_equiv_pos_as_xyz
  1  'x, y, z'
loop_
 _atom_site_type_symbol
 _atom_site_label
 _atom_site_symmetry_multiplicity
 _atom_site_fract_x
 _atom_site_fract_y
 _atom_site_fract_z
 _atom_site_occupancy
  Gd  Gd0  1  0.35587800  0.07877600  0.19885000  1
  Gd  Gd1  1  0.27710300  0.35587800  0.69885000  1
  Gd  Gd2  1  0.72289700  0.64412200  0.19885000  1
  Gd  Gd3  1  0.64412200  0.92122400  0.69885000  1
  Gd  Gd4  1  0.92122400  0.27710300  0.19885000  1
  Gd  Gd5  1  0.07877600  0.72289700  0.69885000  1
  B  B0  1  0.00000000  0.00000000  0.36879900  1
  B  B1  1  0.00000000  0.00000000  0.86879900  1
  W  W0  1  0.66666700  0.33333300  0.74163700  1
  W  W1  1  0.33333300  0.66666700  0.24163700  1
  O  O0  1  0.12499900  0.17925400  0.36016300  1
  O  O1  1  0.87500100  0.82074600  0.86016300  1
  O  O2  1  0.51902300  0.38696600  0.96897100  1
  O  O3  1  0.17925400  0.05425500  0.86016300  1
  O  O4  1  0.82074600  0.94574500  0.36016300  1
  O  O5  1  0.25964000  0.79622700  0.03450400  1
  O  O6  1  0.86794300  0.48097700  0.96897100  1
  O  O7  1  0.46341300  0.25964000  0.53450400  1
  O  O8  1  0.20377300  0.46341300  0.03450400  1
  O  O9  1  0.94574500  0.12499900  0.86016300  1
  O  O10  1  0.74036000  0.20377300  0.53450400  1
  O  O11  1  0.79622700  0.53658700  0.53450400  1
  O  O12  1  0.05425500  0.87500100  0.36016300  1
  O  O13  1  0.53658700  0.74036000  0.03450400  1
  O  O14  1  0.61303400  0.13205700  0.96897100  1
  O  O15  1  0.13205700  0.51902300  0.46897100  1
  O  O16  1  0.48097700  0.61303400  0.46897100  1
  O  O17  1  0.38696600  0.86794300  0.46897100  1
loop_
_geom_bond_atom_site_label_1
_geom_bond_atom_site_label_2
_geom_bond_distance
_geom_bond_site_symmetry_2
Gd0 O7 2.290207 1_555
Gd0 O5 2.337282 1_545
Gd0 O3 2.346234 1_554
Gd0 O14 2.395594 1_554
Gd0 O17 2.468740 1_545
Gd0 O12 2.473817 1_545
Gd0 O2 2.635395 1_554
Gd0 O0 2.699893 1_555
Gd1 O8 2.290211 1_556
Gd1 O7 2.337274 1_555
Gd1 O0 2.346237 1_555
Gd1 O16 2.395591 1_555
Gd1 O2 2.468733 1_555
Gd1 O3 2.473815 1_555
Gd1 O15 2.635401 1_555
Gd1 O9 2.699899 1_455
Gd2 O11 2.290211 1_555
Gd2 O13 2.337274 1_555
Gd2 O1 2.346237 1_554
Gd2 O2 2.395591 1_554
Gd2 O16 2.468733 1_555
Gd2 O4 2.473815 1_555
Gd2 O6 2.635401 1_554
Gd2 O12 2.699899 1_655
Gd3 O13 2.290207 1_556
Gd3 O10 2.337282 1_565
Gd3 O4 2.346234 1_555
Gd3 O17 2.395594 1_555
Gd3 O14 2.468740 1_565
Gd3 O9 2.473817 1_565
Gd3 O16 2.635395 1_555
Gd3 O1 2.699893 1_555
Gd4 O10 2.290207 1_555
Gd4 O8 2.337281 1_655
Gd4 O9 2.346240 1_554
Gd4 O6 2.395586 1_554
Gd4 O15 2.468736 1_655
Gd4 O0 2.473823 1_655
Gd4 O14 2.635394 1_554
Gd4 O4 2.699901 1_545
Gd5 O5 2.290207 1_556
Gd5 O11 2.337281 1_455
Gd5 O12 2.346240 1_555
Gd5 O15 2.395586 1_555
Gd5 O6 2.468736 1_455
Gd5 O1 2.473823 1_455
Gd5 O17 2.635394 1_555
Gd5 O3 2.699901 1_565
B0 O12 1.381161 1_545
B0 O4 1.381161 1_445
B0 O0 1.381161 1_555
B1 O9 1.381161 1_455
B1 O3 1.381161 1_555
B1 O1 1.381161 1_445
O2 W0 1.999961 1_555
O5 W1 1.916833 1_555
O6 W0 1.999957 1_555
O7 W0 1.916839 1_555
O8 W1 1.916838 1_555
O10 W0 1.916833 1_555
O11 W0 1.916838 1_555
O13 W1 1.916839 1_555
O14 W0 1.999955 1_555
O15 W1 1.999957 1_555
O16 W1 1.999961 1_555
O17 W1 1.999955 1_555
