# generated using pymatgen
data_KMg2V3(CuO6)2
_symmetry_space_group_name_H-M   'P 1'
_cell_length_a   8.84162712
_cell_length_b   8.84162712
_cell_length_c   7.12368104
_cell_angle_alpha   74.55543641
_cell_angle_beta   74.55543641
_cell_angle_gamma   92.26893108
_symmetry_Int_Tables_number   1
_chemical_formula_structural   KMg2V3(CuO6)2
_chemical_formula_sum   'K2 Mg4 V6 Cu4 O24'
_cell_volume   513.72232364
_cell_formula_units_Z   2
loop_
 _symmetry_equiv_pos_site_id
 _symmetry_equiv_pos_as_xyz
  1  'x, y, z'
loop_
 _atom_site_type_symbol
 _atom_site_label
 _atom_site_symmetry_multiplicity
 _atom_site_fract_x
 _atom_site_fract_y
 _atom_site_fract_z
 _atom_site_occupancy
  K  K0  1  0.99319900  0.00680100  0.25000000  1
  K  K1  1  0.00680100  0.99319900  0.75000000  1
  Mg  Mg0  1  0.62698500  0.94737400  0.62194400  1
  Mg  Mg1  1  0.05262600  0.37301500  0.87805600  1
  Mg  Mg2  1  0.37301500  0.05262600  0.37805600  1
  Mg  Mg3  1  0.94737400  0.62698500  0.12194400  1
  V  V0  1  0.35604000  0.11412700  0.88130400  1
  V  V1  1  0.28363500  0.71636500  0.75000000  1
  V  V2  1  0.11412700  0.35604000  0.38130400  1
  V  V3  1  0.64396000  0.88587300  0.11869600  1
  V  V4  1  0.88587300  0.64396000  0.61869600  1
  V  V5  1  0.71636500  0.28363500  0.25000000  1
  Cu  Cu0  1  0.73416600  0.26583400  0.75000000  1
  Cu  Cu1  1  0.26583400  0.73416600  0.25000000  1
  Cu  Cu2  1  0.50681200  0.49318800  0.25000000  1
  Cu  Cu3  1  0.49318800  0.50681200  0.75000000  1
  O  O0  1  0.49987900  0.71872100  0.17647900  1
  O  O1  1  0.28127900  0.50012100  0.32352100  1
  O  O2  1  0.50012100  0.28127900  0.82352100  1
  O  O3  1  0.71872100  0.49987900  0.67647900  1
  O  O4  1  0.16885700  0.75388000  0.96665200  1
  O  O5  1  0.24612000  0.83114300  0.53334800  1
  O  O6  1  0.83114300  0.24612000  0.03334800  1
  O  O7  1  0.75388000  0.16885700  0.46665200  1
  O  O8  1  0.97002000  0.59483400  0.81942500  1
  O  O9  1  0.40516600  0.02998000  0.68057500  1
  O  O10  1  0.02998000  0.40516600  0.18057500  1
  O  O11  1  0.59483400  0.97002000  0.31942500  1
  O  O12  1  0.01983400  0.66886500  0.37450300  1
  O  O13  1  0.33113500  0.98016600  0.12549700  1
  O  O14  1  0.98016600  0.33113500  0.62549700  1
  O  O15  1  0.66886500  0.01983400  0.87450300  1
  O  O16  1  0.82269600  0.81809200  0.11099100  1
  O  O17  1  0.18190800  0.17730400  0.38900900  1
  O  O18  1  0.17730400  0.18190800  0.88900900  1
  O  O19  1  0.81809200  0.82269600  0.61099100  1
  O  O20  1  0.48957500  0.72921000  0.73219500  1
  O  O21  1  0.27079000  0.51042500  0.76780500  1
  O  O22  1  0.51042500  0.27079000  0.26780500  1
  O  O23  1  0.72921000  0.48957500  0.23219500  1
loop_
_geom_bond_atom_site_label_1
_geom_bond_atom_site_label_2
_geom_bond_distance
_geom_bond_site_symmetry_2
K0 O18 2.666488 1_654
K0 O19 2.666488 1_545
K0 O17 2.740994 1_655
K0 O16 2.740994 1_545
K0 O12 2.919791 1_645
K0 O13 2.919791 1_645
K0 O7 2.931012 1_555
K0 O6 2.931012 1_555
K1 O17 2.666488 1_565
K1 O16 2.666488 1_456
K1 O18 2.740994 1_565
K1 O19 2.740994 1_455
K1 O14 2.919791 1_465
K1 O15 2.919791 1_465
K1 O4 2.931012 1_555
K1 O5 2.931012 1_555
Mg0 O19 2.049251 1_555
Mg0 O20 2.076772 1_555
Mg0 O7 2.080519 1_565
Mg0 O9 2.096178 1_565
Mg0 O15 2.175882 1_565
Mg0 O11 2.205924 1_555
Mg1 O18 2.049251 1_555
Mg1 O21 2.076772 1_555
Mg1 O6 2.080519 1_456
Mg1 O8 2.096178 1_455
Mg1 O14 2.175882 1_455
Mg1 O10 2.205924 1_556
Mg2 O17 2.049251 1_555
Mg2 O22 2.076772 1_555
Mg2 O5 2.080519 1_545
Mg2 O11 2.096178 1_545
Mg2 O13 2.175882 1_545
Mg2 O9 2.205924 1_555
Mg3 O16 2.049251 1_555
Mg3 O23 2.076772 1_555
Mg3 O4 2.080519 1_654
Mg3 O10 2.096178 1_655
Mg3 O12 2.175882 1_655
Mg3 O8 2.205924 1_554
Cu0 O2 2.014532 1_555
Cu0 O3 2.014532 1_555
Cu0 O15 2.109776 1_555
Cu0 O14 2.109776 1_555
Cu0 O6 2.363490 1_556
Cu0 O7 2.363490 1_555
Cu1 O1 2.014532 1_555
Cu1 O0 2.014532 1_555
Cu1 O13 2.109776 1_555
Cu1 O12 2.109776 1_555
Cu1 O4 2.363490 1_554
Cu1 O5 2.363490 1_555
Cu2 O0 1.930010 1_555
Cu2 O1 1.930010 1_555
Cu2 O23 1.938550 1_555
Cu2 O22 1.938550 1_555
Cu3 O2 1.930010 1_555
Cu3 O3 1.930010 1_555
Cu3 O20 1.938550 1_555
Cu3 O21 1.938550 1_555
O0 V3 1.795575 1_555
O1 V2 1.795575 1_555
O2 V0 1.795575 1_555
O3 V4 1.795575 1_555
O4 V1 1.728282 1_555
O5 V1 1.728282 1_555
O6 V5 1.728282 1_555
O7 V5 1.728282 1_555
O8 V4 1.745939 1_555
O9 V0 1.745939 1_555
O10 V2 1.745939 1_555
O11 V3 1.745939 1_555
O12 V4 1.776334 1_455
O13 V0 1.776334 1_564
O14 V2 1.776334 1_655
O15 V3 1.776334 1_546
O16 V3 1.704664 1_555
O17 V2 1.704664 1_555
O18 V0 1.704664 1_555
O19 V4 1.704664 1_555
O20 V1 1.788130 1_555
O21 V1 1.788130 1_555
O22 V5 1.788130 1_555
O23 V5 1.788130 1_555
