# generated using pymatgen
data_CsTm2Cu3Se5
_symmetry_space_group_name_H-M   'P 1'
_cell_length_a   7.62349281
_cell_length_b   7.62349281
_cell_length_c   17.24349400
_cell_angle_alpha   90.00000000
_cell_angle_beta   90.00000000
_cell_angle_gamma   148.67788336
_symmetry_Int_Tables_number   1
_chemical_formula_structural   CsTm2Cu3Se5
_chemical_formula_sum   'Cs2 Tm4 Cu6 Se10'
_cell_volume   520.96721190
_cell_formula_units_Z   2
loop_
 _symmetry_equiv_pos_site_id
 _symmetry_equiv_pos_as_xyz
  1  'x, y, z'
loop_
 _atom_site_type_symbol
 _atom_site_label
 _atom_site_symmetry_multiplicity
 _atom_site_fract_x
 _atom_site_fract_y
 _atom_site_fract_z
 _atom_site_occupancy
  Cs  Cs0  1  0.06111500  0.93888500  0.75000000  1
  Cs  Cs1  1  0.93888500  0.06111500  0.25000000  1
  Tm  Tm0  1  0.19237400  0.80762600  0.09157200  1
  Tm  Tm1  1  0.80762600  0.19237400  0.59157200  1
  Tm  Tm2  1  0.80762600  0.19237400  0.90842800  1
  Tm  Tm3  1  0.19237400  0.80762600  0.40842800  1
  Cu  Cu0  1  0.58290500  0.41709500  0.53298900  1
  Cu  Cu1  1  0.65577800  0.34422200  0.25000000  1
  Cu  Cu2  1  0.41709500  0.58290500  0.46701100  1
  Cu  Cu3  1  0.41709500  0.58290500  0.03298900  1
  Cu  Cu4  1  0.34422200  0.65577800  0.75000000  1
  Cu  Cu5  1  0.58290500  0.41709500  0.96701100  1
  Se  Se0  1  0.43720700  0.56279300  0.88784700  1
  Se  Se1  1  0.83027400  0.16972600  0.43022100  1
  Se  Se2  1  0.56279300  0.43720700  0.11215300  1
  Se  Se3  1  0.76191800  0.23808200  0.75000000  1
  Se  Se4  1  0.16972600  0.83027400  0.93022100  1
  Se  Se5  1  0.16972600  0.83027400  0.56977900  1
  Se  Se6  1  0.56279300  0.43720700  0.38784700  1
  Se  Se7  1  0.23808200  0.76191800  0.25000000  1
  Se  Se8  1  0.83027400  0.16972600  0.06977900  1
  Se  Se9  1  0.43720700  0.56279300  0.61215300  1
loop_
_geom_bond_atom_site_label_1
_geom_bond_atom_site_label_2
_geom_bond_distance
_geom_bond_site_symmetry_2
Cs0 Se5 3.492835 1_555
Cs0 Se4 3.492835 1_555
Cs0 Se3 3.595227 1_455
Cs0 Se3 3.595227 1_565
Cs0 Se0 3.632371 1_455
Cs0 Se9 3.632371 1_455
Cs0 Se0 3.632371 1_565
Cs0 Se9 3.632371 1_565
Cs0 Cu4 3.791330 1_455
Cs0 Cu4 3.791330 1_565
Cs1 Se1 3.492835 1_555
Cs1 Se8 3.492835 1_555
Cs1 Se7 3.595227 1_545
Cs1 Se7 3.595227 1_655
Cs1 Se2 3.632371 1_545
Cs1 Se6 3.632371 1_545
Cs1 Se2 3.632371 1_655
Cs1 Se6 3.632371 1_655
Cs1 Cu1 3.791330 1_655
Cs1 Cu1 3.791330 1_545
Cu0 Se5 2.502434 1_545
Cu0 Se5 2.502434 1_655
Cu0 Se6 2.520112 1_555
Cu0 Se9 2.537451 1_555
Cu1 Se7 2.386436 1_545
Cu1 Se7 2.386436 1_655
Cu1 Se2 2.741072 1_555
Cu1 Se6 2.741072 1_555
Cu2 Se1 2.502434 1_455
Cu2 Se1 2.502434 1_565
Cu2 Se9 2.520112 1_555
Cu2 Se6 2.537451 1_555
Cu3 Se8 2.502434 1_455
Cu3 Se8 2.502434 1_565
Cu3 Se0 2.520112 1_554
Cu3 Se2 2.537451 1_555
Cu4 Se3 2.386436 1_565
Cu4 Se3 2.386436 1_455
Cu4 Se0 2.741072 1_555
Cu4 Se9 2.741072 1_555
Cu5 Se4 2.502434 1_545
Cu5 Se4 2.502434 1_655
Cu5 Se2 2.520112 1_556
Cu5 Se0 2.537451 1_555
Se0 Tm2 2.824898 1_455
Se0 Tm2 2.824898 1_565
Se1 Tm1 2.802052 1_555
Se1 Tm3 2.911170 1_655
Se1 Tm3 2.911170 1_545
Se2 Tm0 2.824898 1_545
Se2 Tm0 2.824898 1_655
Se3 Tm2 2.813060 1_555
Se3 Tm1 2.813060 1_555
Se4 Tm0 2.802052 1_556
Se4 Tm2 2.911170 1_565
Se4 Tm2 2.911170 1_455
Se5 Tm3 2.802052 1_555
Se5 Tm1 2.911170 1_565
Se5 Tm1 2.911170 1_455
Se6 Tm3 2.824898 1_545
Se6 Tm3 2.824898 1_655
Se7 Tm0 2.813060 1_555
Se7 Tm3 2.813060 1_555
Se8 Tm2 2.802052 1_554
Se8 Tm0 2.911170 1_655
Se8 Tm0 2.911170 1_545
Se9 Tm1 2.824898 1_455
Se9 Tm1 2.824898 1_565
