# generated using pymatgen
data_Y4Sb3
_symmetry_space_group_name_H-M   'P 1'
_cell_length_a   7.97062582
_cell_length_b   7.97062643
_cell_length_c   7.97062702
_cell_angle_alpha   109.47121945
_cell_angle_beta   109.47122107
_cell_angle_gamma   109.47121868
_symmetry_Int_Tables_number   1
_chemical_formula_structural   Y4Sb3
_chemical_formula_sum   'Y8 Sb6'
_cell_volume   389.81225430
_cell_formula_units_Z   2
loop_
 _symmetry_equiv_pos_site_id
 _symmetry_equiv_pos_as_xyz
  1  'x, y, z'
loop_
 _atom_site_type_symbol
 _atom_site_label
 _atom_site_symmetry_multiplicity
 _atom_site_fract_x
 _atom_site_fract_y
 _atom_site_fract_z
 _atom_site_occupancy
  Y  Y0  1  0.35637548  0.50000000  0.00000000  1
  Y  Y1  1  0.50000000  -0.00000000  0.35637548  1
  Y  Y2  1  0.85637548  0.50000000  0.00000000  1
  Y  Y3  1  0.64362452  0.64362452  0.64362452  1
  Y  Y4  1  0.14362452  0.14362452  0.14362452  1
  Y  Y5  1  -0.00000000  0.85637548  0.50000000  1
  Y  Y6  1  0.50000000  -0.00000000  0.85637548  1
  Y  Y7  1  -0.00000000  0.35637548  0.50000000  1
  Sb  Sb0  1  0.12500000  0.75000000  0.87500000  1
  Sb  Sb1  1  0.62500000  0.37500000  0.25000000  1
  Sb  Sb2  1  0.37500000  0.25000000  0.62500000  1
  Sb  Sb3  1  0.75000000  0.87500000  0.12500000  1
  Sb  Sb4  1  0.25000000  0.62500000  0.37500000  1
  Sb  Sb5  1  0.87500000  0.12500000  0.75000000  1
loop_
_geom_bond_atom_site_label_1
_geom_bond_atom_site_label_2
_geom_bond_distance
_geom_bond_site_symmetry_2
Sb0 Y6 3.073936 1_565
Sb0 Y2 3.073936 1_456
Sb0 Y4 3.073936 1_566
Sb0 Y7 3.073936 1_555
Sb0 Y3 3.303478 1_455
Sb0 Y0 3.303478 1_556
Sb0 Y5 3.303479 1_555
Sb0 Y1 3.303479 1_566
Sb1 Y7 3.073936 1_655
Sb1 Y0 3.073936 1_555
Sb1 Y3 3.073936 1_555
Sb1 Y6 3.073936 1_554
Sb1 Y4 3.303478 1_555
Sb1 Y1 3.303478 1_555
Sb1 Y2 3.303478 1_555
Sb1 Y5 3.303478 1_655
Sb2 Y5 3.073936 1_545
Sb2 Y3 3.073936 1_555
Sb2 Y1 3.073936 1_555
Sb2 Y0 3.073936 1_556
Sb2 Y7 3.303478 1_555
Sb2 Y2 3.303478 1_556
Sb2 Y6 3.303478 1_555
Sb2 Y4 3.303479 1_555
Sb3 Y4 3.073936 1_665
Sb3 Y0 3.073936 1_555
Sb3 Y6 3.073936 1_564
Sb3 Y5 3.073936 1_655
Sb3 Y1 3.303478 1_565
Sb3 Y2 3.303478 1_555
Sb3 Y7 3.303479 1_665
Sb3 Y3 3.303479 1_554
Sb4 Y3 3.073936 1_555
Sb4 Y2 3.073936 1_455
Sb4 Y7 3.073936 1_555
Sb4 Y1 3.073936 1_565
Sb4 Y5 3.303478 1_555
Sb4 Y4 3.303478 1_555
Sb4 Y0 3.303479 1_555
Sb4 Y6 3.303479 1_565
Sb5 Y5 3.073936 1_645
Sb5 Y1 3.073936 1_555
Sb5 Y2 3.073936 1_556
Sb5 Y4 3.073936 1_656
Sb5 Y6 3.303478 1_555
Sb5 Y0 3.303478 1_656
Sb5 Y3 3.303478 1_545
Sb5 Y7 3.303478 1_655
