# generated using pymatgen
data_La2MoO6
_symmetry_space_group_name_H-M   'P 1'
_cell_length_a   8.70705926
_cell_length_b   8.70705926
_cell_length_c   8.70705926
_cell_angle_alpha   151.29254383
_cell_angle_beta   151.29254383
_cell_angle_gamma   41.04733443
_symmetry_Int_Tables_number   1
_chemical_formula_structural   La2MoO6
_chemical_formula_sum   'La2 Mo1 O6'
_cell_volume   151.97586324
_cell_formula_units_Z   1
loop_
 _symmetry_equiv_pos_site_id
 _symmetry_equiv_pos_as_xyz
  1  'x, y, z'
loop_
 _atom_site_type_symbol
 _atom_site_label
 _atom_site_symmetry_multiplicity
 _atom_site_fract_x
 _atom_site_fract_y
 _atom_site_fract_z
 _atom_site_occupancy
  La  La0  1  0.68042700  0.68042700  0.00000000  1
  La  La1  1  0.31957300  0.31957300  0.00000000  1
  Mo  Mo0  1  0.00000000  0.00000000  0.00000000  1
  O  O0  1  0.30013900  0.83436900  0.00000000  1
  O  O1  1  0.69986100  0.69986100  0.53423000  1
  O  O2  1  0.83436900  0.30013900  0.00000000  1
  O  O3  1  0.16563100  0.16563100  0.46577000  1
  O  O4  1  0.75000000  0.25000000  0.50000000  1
  O  O5  1  0.25000000  0.75000000  0.50000000  1
loop_
_geom_bond_atom_site_label_1
_geom_bond_atom_site_label_2
_geom_bond_distance
_geom_bond_site_symmetry_2
La0 O5 2.438597 1_655
La0 O4 2.438597 1_554
La0 O4 2.438597 1_565
La0 O5 2.438597 1_554
La0 O2 2.462970 1_555
La0 O0 2.462970 1_555
La1 O5 2.438597 1_544
La1 O4 2.438597 1_555
La1 O4 2.438597 1_454
La1 O5 2.438597 1_555
La1 O1 2.462970 1_555
La1 O3 2.462970 1_554
Mo0 O3 1.795729 1_555
Mo0 O2 1.795729 1_455
Mo0 O0 1.795729 1_545
Mo0 O1 1.795729 1_444
