# generated using pymatgen
data_Ca2NbInO6
_symmetry_space_group_name_H-M   'P 1'
_cell_length_a   5.79387700
_cell_length_b   5.57717000
_cell_length_c   9.78293182
_cell_angle_alpha   55.13190031
_cell_angle_beta   90.00000000
_cell_angle_gamma   90.00000000
_symmetry_Int_Tables_number   1
_chemical_formula_structural   Ca2NbInO6
_chemical_formula_sum   'Ca4 Nb2 In2 O12'
_cell_volume   259.36719490
_cell_formula_units_Z   2
loop_
 _symmetry_equiv_pos_site_id
 _symmetry_equiv_pos_as_xyz
  1  'x, y, z'
loop_
 _atom_site_type_symbol
 _atom_site_label
 _atom_site_symmetry_multiplicity
 _atom_site_fract_x
 _atom_site_fract_y
 _atom_site_fract_z
 _atom_site_occupancy
  Ca  Ca0  1  0.44479500  0.26164400  0.75249100  1
  Ca  Ca1  1  0.55520500  0.73835600  0.24750900  1
  Ca  Ca2  1  0.05520500  0.26164400  0.25249100  1
  Ca  Ca3  1  0.94479500  0.73835600  0.74750900  1
  Nb  Nb0  1  0.00000000  0.50000000  0.50000000  1
  Nb  Nb1  1  0.50000000  0.50000000  0.00000000  1
  In  In0  1  0.50000000  0.00000000  0.50000000  1
  In  In1  1  0.00000000  0.00000000  0.00000000  1
  O  O0  1  0.95766100  0.84727900  0.26079600  1
  O  O1  1  0.28908900  0.37633400  0.43910200  1
  O  O2  1  0.31116300  0.74100200  0.05272200  1
  O  O3  1  0.21091100  0.37633400  0.93910200  1
  O  O4  1  0.04233900  0.15272100  0.73920400  1
  O  O5  1  0.54233900  0.84727900  0.76079600  1
  O  O6  1  0.18883700  0.74100200  0.55272200  1
  O  O7  1  0.81116300  0.25899800  0.44727800  1
  O  O8  1  0.78908900  0.62366600  0.06089800  1
  O  O9  1  0.71091100  0.62366600  0.56089800  1
  O  O10  1  0.68883700  0.25899800  0.94727800  1
  O  O11  1  0.45766100  0.15272100  0.23920400  1
loop_
_geom_bond_atom_site_label_1
_geom_bond_atom_site_label_2
_geom_bond_distance
_geom_bond_site_symmetry_2
Ca0 O5 2.334945 1_545
Ca0 O10 2.366132 1_555
Ca0 O9 2.374874 1_555
Ca0 O4 2.431752 1_555
Ca0 O3 2.629339 1_555
Ca0 O6 2.681809 1_555
Ca0 O2 2.811825 1_546
Ca0 O1 2.894872 1_555
Ca1 O11 2.334945 1_565
Ca1 O2 2.366132 1_555
Ca1 O1 2.374874 1_555
Ca1 O0 2.431752 1_555
Ca1 O8 2.629339 1_555
Ca1 O7 2.681809 1_555
Ca1 O10 2.811825 1_564
Ca1 O9 2.894872 1_555
Ca2 O0 2.334945 1_445
Ca2 O7 2.366132 1_455
Ca2 O8 2.374874 1_455
Ca2 O11 2.431752 1_555
Ca2 O1 2.629339 1_555
Ca2 O2 2.681809 1_555
Ca2 O6 2.811825 1_545
Ca2 O3 2.894872 1_554
Ca3 O4 2.334945 1_665
Ca3 O6 2.366132 1_655
Ca3 O3 2.374874 1_655
Ca3 O5 2.431752 1_555
Ca3 O9 2.629339 1_555
Ca3 O10 2.681809 1_555
Ca3 O7 2.811825 1_565
Ca3 O8 2.894872 1_556
Nb0 O7 2.015530 1_455
Nb0 O6 2.015530 1_555
Nb0 O4 2.026173 1_555
Nb0 O0 2.026173 1_455
Nb0 O1 2.026298 1_555
Nb0 O9 2.026298 1_455
Nb1 O2 2.015530 1_555
Nb1 O10 2.015530 1_554
Nb1 O5 2.026173 1_554
Nb1 O11 2.026173 1_555
Nb1 O8 2.026298 1_555
Nb1 O3 2.026298 1_554
In0 O6 2.179661 1_545
In0 O7 2.179661 1_555
In0 O11 2.193250 1_555
In0 O5 2.193250 1_545
In0 O9 2.196309 1_545
In0 O1 2.196309 1_555
In1 O10 2.179661 1_454
In1 O2 2.179661 1_545
In1 O0 2.193250 1_445
In1 O4 2.193250 1_554
In1 O8 2.196309 1_445
In1 O3 2.196309 1_554
