# generated using pymatgen
data_BaAg2SnSe4
_symmetry_space_group_name_H-M   'P 1'
_cell_length_a   6.77408722
_cell_length_b   6.77408722
_cell_length_c   6.77408722
_cell_angle_alpha   115.80427981
_cell_angle_beta   111.54357801
_cell_angle_gamma   101.39038725
_symmetry_Int_Tables_number   1
_chemical_formula_structural   BaAg2SnSe4
_chemical_formula_sum   'Ba1 Ag2 Sn1 Se4'
_cell_volume   235.41360111
_cell_formula_units_Z   1
loop_
 _symmetry_equiv_pos_site_id
 _symmetry_equiv_pos_as_xyz
  1  'x, y, z'
loop_
 _atom_site_type_symbol
 _atom_site_label
 _atom_site_symmetry_multiplicity
 _atom_site_fract_x
 _atom_site_fract_y
 _atom_site_fract_z
 _atom_site_occupancy
  Ba  Ba0  1  0.00000000  0.00000000  0.00000000  1
  Ag  Ag0  1  0.30961900  0.80961900  0.50000000  1
  Ag  Ag1  1  0.69038100  0.19038100  0.50000000  1
  Sn  Sn0  1  0.50000000  0.50000000  0.00000000  1
  Se  Se0  1  0.52146300  0.53162300  0.40091000  1
  Se  Se1  1  0.47853700  0.87944700  0.01016000  1
  Se  Se2  1  0.13071200  0.12055300  0.59909000  1
  Se  Se3  1  0.86928800  0.46837700  0.98984000  1
loop_
_geom_bond_atom_site_label_1
_geom_bond_atom_site_label_2
_geom_bond_distance
_geom_bond_site_symmetry_2
Ba0 Se3 3.480032 1_454
Ba0 Se0 3.480035 1_444
Ba0 Se1 3.480035 1_545
Ba0 Se2 3.480036 1_555
Ba0 Se2 3.498253 1_554
Ba0 Se3 3.498256 1_444
Ba0 Se0 3.498256 1_555
Ba0 Se1 3.498256 1_445
Ag0 Se0 2.594347 1_555
Ag0 Se2 2.594352 1_565
Ag0 Se3 2.989138 1_454
Ag0 Se1 2.989141 1_556
Ag1 Se3 2.594346 1_555
Ag1 Se1 2.594347 1_545
Ag1 Se2 2.989134 1_655
Ag1 Se0 2.989141 1_555
Se0 Sn0 2.575619 1_555
Se1 Sn0 2.575619 1_555
Se2 Sn0 2.575622 1_556
Se3 Sn0 2.575626 1_556
