# generated using pymatgen
data_Zr2(NiP)3
_symmetry_space_group_name_H-M   'P 1'
_cell_length_a   3.62620459
_cell_length_b   9.99982736
_cell_length_c   12.26140341
_cell_angle_alpha   89.99858852
_cell_angle_beta   89.99999608
_cell_angle_gamma   89.99999177
_symmetry_Int_Tables_number   1
_chemical_formula_structural   Zr2(NiP)3
_chemical_formula_sum   'Zr8 Ni12 P12'
_cell_volume   444.61589720
_cell_formula_units_Z   4
loop_
 _symmetry_equiv_pos_site_id
 _symmetry_equiv_pos_as_xyz
  1  'x, y, z'
loop_
 _atom_site_type_symbol
 _atom_site_label
 _atom_site_symmetry_multiplicity
 _atom_site_fract_x
 _atom_site_fract_y
 _atom_site_fract_z
 _atom_site_occupancy
  Zr  Zr0  1  0.25000007  0.07308941  0.20901384  1
  Zr  Zr1  1  0.74999990  0.92692890  0.79099040  1
  Zr  Zr2  1  0.74999975  0.57308740  0.29097062  1
  Zr  Zr3  1  0.25000011  0.42690531  0.70902681  1
  Zr  Zr4  1  0.25000003  0.16297196  0.49555327  1
  Zr  Zr5  1  0.74999960  0.83704633  0.50446942  1
  Zr  Zr6  1  0.75000033  0.66297340  0.00443941  1
  Zr  Zr7  1  0.25000001  0.33702386  0.99553401  1
  Ni  Ni0  1  0.24999966  0.72480162  0.66543905  1
  Ni  Ni1  1  0.74999979  0.27518514  0.33462644  1
  Ni  Ni2  1  0.75000143  0.22478231  0.83459068  1
  Ni  Ni3  1  0.25000047  0.77519815  0.16535315  1
  Ni  Ni4  1  0.24999968  0.36469423  0.21760547  1
  Ni  Ni5  1  0.74999971  0.63528316  0.78236783  1
  Ni  Ni6  1  0.75000006  0.86474611  0.28236233  1
  Ni  Ni7  1  0.25000064  0.13528500  0.71769190  1
  Ni  Ni8  1  0.25000024  0.59633328  0.48350212  1
  Ni  Ni9  1  0.75000078  0.40364462  0.51660322  1
  Ni  Ni10  1  0.74999866  0.09634064  0.01645654  1
  Ni  Ni11  1  0.24999939  0.90367235  0.98339556  1
  P  P0  1  0.24999953  0.94493741  0.62896324  1
  P  P1  1  0.75000034  0.05507354  0.37106063  1
  P  P2  1  0.75000017  0.44493859  0.87104552  1
  P  P3  1  0.24999979  0.55506649  0.12893096  1
  P  P4  1  0.25000010  0.39739699  0.39906111  1
  P  P5  1  0.74999985  0.60261171  0.60094298  1
  P  P6  1  0.75000059  0.89737981  0.10095127  1
  P  P7  1  0.24999955  0.10260006  0.89905824  1
  P  P8  1  0.24999960  0.76285887  0.35393092  1
  P  P9  1  0.75000021  0.23715202  0.64607857  1
  P  P10  1  0.75000003  0.26284707  0.14608312  1
  P  P11  1  0.24999995  0.73714426  0.85390339  1
loop_
_geom_bond_atom_site_label_1
_geom_bond_atom_site_label_2
_geom_bond_distance
_geom_bond_site_symmetry_2
Ni0 P0 2.246283 1_555
Ni0 P11 2.314134 1_555
Ni0 P5 2.325028 1_455
Ni0 P5 2.325029 1_555
Ni0 Zr5 2.905619 1_555
Ni0 Zr5 2.905619 1_455
Ni0 Zr3 3.026462 1_555
Ni0 Zr1 3.121338 1_455
Ni0 Zr1 3.121340 1_555
Ni1 P1 2.245945 1_555
Ni1 P10 2.315099 1_555
Ni1 P4 2.324887 1_555
Ni1 P4 2.324889 1_655
Ni1 Zr4 2.905140 1_555
Ni1 Zr4 2.905141 1_655
Ni1 Zr2 3.026668 1_555
Ni1 Zr0 3.121505 1_555
Ni1 Zr0 3.121506 1_655
Ni2 P2 2.246454 1_555
Ni2 P9 2.314727 1_555
Ni2 P7 2.324843 1_655
Ni2 P7 2.324854 1_555
Ni2 Zr7 2.905422 1_655
Ni2 Zr7 2.905428 1_555
Ni2 Zr1 3.026092 1_545
Ni2 Zr3 3.121335 1_655
Ni2 Zr3 3.121341 1_555
Ni3 P3 2.246134 1_555
Ni3 P8 2.315515 1_555
Ni3 P6 2.324572 1_455
Ni3 P6 2.324573 1_555
Ni3 Zr6 2.905113 1_555
Ni3 Zr6 2.905114 1_455
Ni3 Zr0 3.026596 1_565
Ni3 Zr2 3.121581 1_555
Ni3 Zr2 3.121585 1_455
Ni4 P3 2.192281 1_555
Ni4 P4 2.248814 1_555
Ni4 P10 2.256922 1_455
Ni4 P10 2.256923 1_555
Ni4 Zr7 2.736937 1_554
Ni4 Zr2 2.905040 1_455
Ni4 Zr2 2.905041 1_555
Ni4 Zr0 2.917903 1_555
Ni5 P2 2.192060 1_555
Ni5 P5 2.248395 1_555
Ni5 P11 2.257047 1_555
Ni5 P11 2.257049 1_655
Ni5 Zr6 2.736959 1_556
Ni5 Zr3 2.904838 1_555
Ni5 Zr3 2.904840 1_655
Ni5 Zr1 2.918325 1_555
Ni6 P1 2.192083 1_565
Ni6 P6 2.248157 1_555
Ni6 P8 2.257303 1_655
Ni6 P8 2.257306 1_555
Ni6 Zr5 2.737388 1_555
Ni6 Zr0 2.904588 1_565
Ni6 Zr0 2.904588 1_665
Ni6 Zr2 2.918443 1_555
Ni7 P0 2.192443 1_545
Ni7 P7 2.247688 1_555
Ni7 P9 2.257425 1_555
Ni7 P9 2.257427 1_455
Ni7 Zr4 2.737760 1_555
Ni7 Zr1 2.904488 1_545
Ni7 Zr1 2.904492 1_445
Ni7 Zr3 2.918085 1_555
Ni8 P4 2.242657 1_555
Ni8 P8 2.301499 1_555
Ni8 P5 2.316215 1_555
Ni8 P5 2.316217 1_455
Ni8 Zr2 2.985687 1_555
Ni8 Zr2 2.985690 1_455
Ni8 Zr5 3.024489 1_555
Ni8 Zr5 3.024492 1_455
Ni8 Zr3 3.242970 1_555
Ni9 P5 2.242357 1_555
Ni9 P9 2.300449 1_555
Ni9 P4 2.316978 1_655
Ni9 P4 2.316982 1_555
Ni9 Zr3 2.984653 1_655
Ni9 Zr3 2.984656 1_555
Ni9 Zr4 3.024253 1_655
Ni9 Zr4 3.024257 1_555
Ni9 Zr2 3.244176 1_555
Ni10 P6 2.243134 1_545
Ni10 P10 2.301886 1_555
Ni10 P7 2.315882 1_554
Ni10 P7 2.315887 1_654
Ni10 Zr0 2.985931 1_555
Ni10 Zr0 2.985937 1_655
Ni10 Zr7 3.024193 1_554
Ni10 Zr7 3.024199 1_654
Ni10 Zr1 3.242345 1_544
Ni11 P7 2.241949 1_565
Ni11 P11 2.300905 1_555
Ni11 P6 2.317090 1_456
Ni11 P6 2.317097 1_556
Ni11 Zr1 2.984462 1_455
Ni11 Zr1 2.984464 1_555
Ni11 Zr6 3.024446 1_456
Ni11 Zr6 3.024450 1_556
Ni11 Zr0 3.243963 1_566
P0 Zr5 2.604138 1_555
P0 Zr5 2.604138 1_455
P0 Zr1 2.695672 1_455
P0 Zr1 2.695674 1_555
P0 Zr4 2.725690 1_565
P1 Zr4 2.604160 1_655
P1 Zr4 2.604161 1_555
P1 Zr0 2.695854 1_655
P1 Zr0 2.695856 1_555
P1 Zr5 2.725623 1_545
P2 Zr7 2.604166 1_655
P2 Zr7 2.604167 1_555
P2 Zr3 2.695619 1_655
P2 Zr3 2.695620 1_555
P2 Zr6 2.725638 1_556
P3 Zr6 2.604155 1_455
P3 Zr6 2.604158 1_555
P3 Zr2 2.695800 1_455
P3 Zr2 2.695800 1_555
P3 Zr7 2.725723 1_554
P4 Zr4 2.625829 1_555
P4 Zr2 2.851378 1_555
P4 Zr2 2.851379 1_455
P5 Zr5 2.625812 1_555
P5 Zr3 2.851439 1_555
P5 Zr3 2.851440 1_655
P6 Zr6 2.625824 1_555
P6 Zr0 2.851377 1_665
P6 Zr0 2.851379 1_565
P7 Zr7 2.625780 1_555
P7 Zr1 2.851171 1_445
P7 Zr1 2.851172 1_545
P8 Zr5 2.691615 1_455
P8 Zr5 2.691615 1_555
P8 Zr2 2.735793 1_455
P8 Zr2 2.735793 1_555
P9 Zr4 2.691483 1_655
P9 Zr4 2.691485 1_555
P9 Zr3 2.735625 1_655
P9 Zr3 2.735625 1_555
P10 Zr7 2.691650 1_654
P10 Zr7 2.691650 1_554
P10 Zr0 2.735569 1_655
P10 Zr0 2.735569 1_555
P11 Zr6 2.691523 1_456
P11 Zr6 2.691525 1_556
P11 Zr1 2.735695 1_455
P11 Zr1 2.735695 1_555
