# generated using pymatgen
data_SmBiRh
_symmetry_space_group_name_H-M   'P 1'
_cell_length_a   4.72864010
_cell_length_b   7.37797375
_cell_length_c   7.98456784
_cell_angle_alpha   90.00000000
_cell_angle_beta   90.00000000
_cell_angle_gamma   90.00000000
_symmetry_Int_Tables_number   1
_chemical_formula_structural   SmBiRh
_chemical_formula_sum   'Sm4 Bi4 Rh4'
_cell_volume   278.56386641
_cell_formula_units_Z   4
loop_
 _symmetry_equiv_pos_site_id
 _symmetry_equiv_pos_as_xyz
  1  'x, y, z'
loop_
 _atom_site_type_symbol
 _atom_site_label
 _atom_site_symmetry_multiplicity
 _atom_site_fract_x
 _atom_site_fract_y
 _atom_site_fract_z
 _atom_site_occupancy
  Sm  Sm0  1  0.25000000  0.01281616  0.69845610  1
  Sm  Sm1  1  0.75000000  0.98718384  0.30154390  1
  Sm  Sm2  1  0.75000000  0.48718384  0.19845610  1
  Sm  Sm3  1  0.25000000  0.51281616  0.80154390  1
  Bi  Bi0  1  0.75000000  0.81337619  0.90856936  1
  Bi  Bi1  1  0.25000000  0.68662381  0.40856936  1
  Bi  Bi2  1  0.25000000  0.18662381  0.09143064  1
  Bi  Bi3  1  0.75000000  0.31337619  0.59143064  1
  Rh  Rh0  1  0.75000000  0.20493953  0.92147539  1
  Rh  Rh1  1  0.75000000  0.70493953  0.57852461  1
  Rh  Rh2  1  0.25000000  0.29506047  0.42147539  1
  Rh  Rh3  1  0.25000000  0.79506047  0.07852461  1
loop_
_geom_bond_atom_site_label_1
_geom_bond_atom_site_label_2
_geom_bond_distance
_geom_bond_site_symmetry_2
Sm0 Sm3 3.779701 1_555
Sm0 Sm3 3.779701 1_545
Sm0 Sm1 3.958463 1_445
Sm0 Sm1 3.958463 1_545
Sm1 Sm2 3.779701 1_555
Sm1 Sm2 3.779701 1_565
Sm2 Sm3 3.958463 1_654
Sm2 Sm3 3.958463 1_554
Bi0 Rh3 2.729427 1_556
Bi0 Rh3 2.729427 1_656
Bi0 Rh1 2.754031 1_555
Bi0 Rh0 2.890781 1_565
Bi0 Sm0 3.251118 1_565
Bi0 Sm0 3.251118 1_665
Bi0 Sm2 3.339068 1_556
Bi0 Sm3 3.352265 1_655
Bi0 Sm3 3.352265 1_555
Bi0 Sm1 3.389658 1_556
Bi1 Rh1 2.729427 1_455
Bi1 Rh1 2.729427 1_555
Bi1 Rh3 2.754031 1_555
Bi1 Rh2 2.890781 1_555
Bi1 Sm2 3.251118 1_555
Bi1 Sm2 3.251118 1_455
Bi1 Sm0 3.339068 1_565
Bi1 Sm1 3.352265 1_555
Bi1 Sm1 3.352265 1_455
Bi1 Sm3 3.389658 1_555
Bi2 Rh0 2.729427 1_454
Bi2 Rh0 2.729427 1_554
Bi2 Rh2 2.754031 1_555
Bi2 Rh3 2.890781 1_545
Bi2 Sm1 3.251118 1_545
Bi2 Sm1 3.251118 1_445
Bi2 Sm3 3.339068 1_554
Bi2 Sm2 3.352265 1_555
Bi2 Sm2 3.352265 1_455
Bi2 Sm0 3.389658 1_554
Bi3 Rh2 2.729427 1_555
Bi3 Rh2 2.729427 1_655
Bi3 Rh0 2.754031 1_555
Bi3 Rh1 2.890781 1_555
Bi3 Sm3 3.251118 1_555
Bi3 Sm3 3.251118 1_655
Bi3 Sm1 3.339068 1_545
Bi3 Sm0 3.352265 1_555
Bi3 Sm0 3.352265 1_655
Bi3 Sm2 3.389658 1_555
Rh0 Sm2 3.037664 1_556
Rh0 Sm0 3.281798 1_655
Rh0 Sm0 3.281798 1_555
Rh0 Sm3 3.415662 1_655
Rh0 Sm3 3.415662 1_555
Rh0 Sm1 3.433722 1_546
Rh1 Sm1 3.037664 1_555
Rh1 Sm3 3.281798 1_655
Rh1 Sm3 3.281798 1_555
Rh1 Sm0 3.415662 1_565
Rh1 Sm0 3.415662 1_665
Rh1 Sm2 3.433722 1_555
Rh2 Sm0 3.037664 1_555
Rh2 Sm2 3.281798 1_455
Rh2 Sm2 3.281798 1_555
Rh2 Sm1 3.415662 1_445
Rh2 Sm1 3.415662 1_545
Rh2 Sm3 3.433722 1_555
Rh3 Sm3 3.037664 1_554
Rh3 Sm1 3.281798 1_555
Rh3 Sm1 3.281798 1_455
Rh3 Sm2 3.415662 1_455
Rh3 Sm2 3.415662 1_555
Rh3 Sm0 3.433722 1_564
