# generated using pymatgen
data_RbNb(BO3)2
_symmetry_space_group_name_H-M   'P 1'
_cell_length_a   20.22424000
_cell_length_b   7.52184000
_cell_length_c   12.21590974
_cell_angle_alpha   52.02724932
_cell_angle_beta   90.00000000
_cell_angle_gamma   90.00000000
_symmetry_Int_Tables_number   1
_chemical_formula_structural   RbNb(BO3)2
_chemical_formula_sum   'Rb10 Nb10 B20 O60'
_cell_volume   1464.92554871
_cell_formula_units_Z   10
loop_
 _symmetry_equiv_pos_site_id
 _symmetry_equiv_pos_as_xyz
  1  'x, y, z'
loop_
 _atom_site_type_symbol
 _atom_site_label
 _atom_site_symmetry_multiplicity
 _atom_site_fract_x
 _atom_site_fract_y
 _atom_site_fract_z
 _atom_site_occupancy
  Rb  Rb0  1  0.59309400  0.38256800  0.10568600  1
  Rb  Rb1  1  0.40690600  0.38256800  0.60568600  1
  Rb  Rb2  1  0.60667600  0.40288800  0.60024500  1
  Rb  Rb3  1  0.00691200  0.39639700  0.60060500  1
  Rb  Rb4  1  0.79329300  0.38900900  0.10509600  1
  Rb  Rb5  1  0.99308800  0.39639700  0.10060500  1
  Rb  Rb6  1  0.39332400  0.40288800  0.10024500  1
  Rb  Rb7  1  0.80686400  0.38914700  0.59697900  1
  Rb  Rb8  1  0.19313600  0.38914700  0.09697900  1
  Rb  Rb9  1  0.20670700  0.38900900  0.60509600  1
  Nb  Nb0  1  0.33390200  0.01052700  0.50040500  1
  Nb  Nb1  1  0.73230800  0.99829500  0.49894000  1
  Nb  Nb2  1  0.46666200  0.98388500  0.00009400  1
  Nb  Nb3  1  0.66609800  0.01052700  0.00040500  1
  Nb  Nb4  1  0.93199900  0.00251000  0.49698600  1
  Nb  Nb5  1  0.86706200  0.97952800  0.99770800  1
  Nb  Nb6  1  0.06800100  0.00251000  0.99698600  1
  Nb  Nb7  1  0.13293800  0.97952800  0.49770800  1
  Nb  Nb8  1  0.26769200  0.99829500  0.99894000  1
  Nb  Nb9  1  0.53333800  0.98388500  0.50009400  1
  B  B0  1  0.29780200  0.55773000  0.29384200  1
  B  B1  1  0.89735400  0.83902800  0.79375000  1
  B  B2  1  0.50594800  0.86059800  0.78984900  1
  B  B3  1  0.70219800  0.55773000  0.79384200  1
  B  B4  1  0.09249600  0.55154600  0.79363700  1
  B  B5  1  0.29038800  0.86067900  0.79307600  1
  B  B6  1  0.50993700  0.53403700  0.28765100  1
  B  B7  1  0.70961200  0.86067900  0.29307600  1
  B  B8  1  0.68990300  0.89976300  0.78023900  1
  B  B9  1  0.89402200  0.52867900  0.77479600  1
  B  B10  1  0.49405200  0.86059800  0.28984900  1
  B  B11  1  0.09961500  0.89984500  0.77568100  1
  B  B12  1  0.69567000  0.54094800  0.28285800  1
  B  B13  1  0.90750400  0.55154600  0.29363700  1
  B  B14  1  0.49006300  0.53403700  0.78765100  1
  B  B15  1  0.31009700  0.89976300  0.28023900  1
  B  B16  1  0.90038500  0.89984500  0.27568100  1
  B  B17  1  0.30433000  0.54094800  0.78285800  1
  B  B18  1  0.10597800  0.52867900  0.27479600  1
  B  B19  1  0.10264600  0.83902800  0.29375000  1
  O  O0  1  0.93331200  0.33854600  0.37414700  1
  O  O1  1  0.29134300  0.31861400  0.84946500  1
  O  O2  1  0.32818500  0.67136100  0.65059900  1
  O  O3  1  0.91133300  0.99019500  0.34247300  1
  O  O4  1  0.11858600  0.64660900  0.66583900  1
  O  O5  1  0.10996600  0.61058000  0.35151600  1
  O  O6  1  0.68418800  0.33755200  0.87029500  1
  O  O7  1  0.11803100  0.03572000  0.63952400  1
  O  O8  1  0.50798100  0.63157200  0.35604200  1
  O  O9  1  0.91019400  0.66637800  0.35117100  1
  O  O10  1  0.08933400  0.66383200  0.13748700  1
  O  O11  1  0.33050800  0.97594900  0.35150700  1
  O  O12  1  0.89003400  0.61058000  0.85151600  1
  O  O13  1  0.12110300  0.30672600  0.34277500  1
  O  O14  1  0.51000100  0.64772600  0.65347300  1
  O  O15  1  0.67181500  0.67136100  0.15059900  1
  O  O16  1  0.30994600  0.66440200  0.35432500  1
  O  O17  1  0.53461500  0.31935800  0.36266400  1
  O  O18  1  0.08866700  0.99019500  0.84247300  1
  O  O19  1  0.92587900  0.99333300  0.66752100  1
  O  O20  1  0.68661500  0.02116400  0.16235600  1
  O  O21  1  0.08980600  0.66637800  0.85117100  1
  O  O22  1  0.82060600  0.04419500  0.49729400  1
  O  O23  1  0.97921500  0.97155600  0.99586300  1
  O  O24  1  0.73611900  0.91591000  0.37181100  1
  O  O25  1  0.70893700  0.62867900  0.35463600  1
  O  O26  1  0.88141400  0.64660900  0.16583900  1
  O  O27  1  0.31581200  0.33755200  0.37029500  1
  O  O28  1  0.87375000  0.89624100  0.87265400  1
  O  O29  1  0.26388100  0.91591000  0.87181100  1
  O  O30  1  0.29232400  0.04570000  0.14380600  1
  O  O31  1  0.73010500  0.66653700  0.66603800  1
  O  O32  1  0.42321000  0.03401900  0.50331200  1
  O  O33  1  0.50917400  0.94136900  0.36028900  1
  O  O34  1  0.69005400  0.66440200  0.85432500  1
  O  O35  1  0.62189900  0.94398500  0.49787100  1
  O  O36  1  0.88196900  0.03572000  0.13952400  1
  O  O37  1  0.48999900  0.64772600  0.15347300  1
  O  O38  1  0.91066600  0.66383200  0.63748700  1
  O  O39  1  0.46727400  0.99865600  0.16029400  1
  O  O40  1  0.06668800  0.33854600  0.87414700  1
  O  O41  1  0.22255000  0.97832700  0.50213100  1
  O  O42  1  0.53272600  0.99865600  0.66029400  1
  O  O43  1  0.29106300  0.62867900  0.85463600  1
  O  O44  1  0.02078500  0.97155600  0.49586300  1
  O  O45  1  0.70865700  0.31861400  0.34946500  1
  O  O46  1  0.49201900  0.63157200  0.85604200  1
  O  O47  1  0.77745000  0.97832700  0.00213100  1
  O  O48  1  0.07412100  0.99333300  0.16752100  1
  O  O49  1  0.87889700  0.30672600  0.84277500  1
  O  O50  1  0.46538500  0.31935800  0.86266400  1
  O  O51  1  0.31338500  0.02116400  0.66235600  1
  O  O52  1  0.57679000  0.03401900  0.00331200  1
  O  O53  1  0.49082600  0.94136900  0.86028900  1
  O  O54  1  0.12625000  0.89624100  0.37265400  1
  O  O55  1  0.66949200  0.97594900  0.85150700  1
  O  O56  1  0.26989500  0.66653700  0.16603800  1
  O  O57  1  0.70767600  0.04570000  0.64380600  1
  O  O58  1  0.37810100  0.94398500  0.99787100  1
  O  O59  1  0.17939400  0.04419500  0.99729400  1
loop_
_geom_bond_atom_site_label_1
_geom_bond_atom_site_label_2
_geom_bond_distance
_geom_bond_site_symmetry_2
Nb0 O32 1.817283 1_555
Nb0 O27 1.974764 1_555
Nb0 O11 1.990731 1_545
Nb0 O2 2.031768 1_545
Nb0 O51 2.070591 1_555
Nb0 O41 2.263707 1_545
Nb1 O22 1.816590 1_565
Nb1 O45 1.988528 1_565
Nb1 O24 1.996502 1_555
Nb1 O31 2.031643 1_555
Nb1 O57 2.069675 1_565
Nb1 O35 2.271482 1_555
Nb2 O58 1.819012 1_554
Nb2 O53 1.982405 1_554
Nb2 O50 1.993353 1_564
Nb2 O39 2.027281 1_555
Nb2 O37 2.072889 1_555
Nb2 O52 2.263329 1_565
Nb3 O52 1.817283 1_555
Nb3 O6 1.974764 1_554
Nb3 O55 1.990731 1_544
Nb3 O15 2.031768 1_545
Nb3 O20 2.070591 1_555
Nb3 O47 2.263707 1_545
Nb4 O44 1.811799 1_645
Nb4 O3 1.990262 1_545
Nb4 O0 1.993448 1_555
Nb4 O19 2.045242 1_545
Nb4 O38 2.059403 1_545
Nb4 O22 2.274876 1_555
Nb5 O47 1.812997 1_556
Nb5 O28 1.980446 1_555
Nb5 O49 1.991104 1_565
Nb5 O36 2.042512 1_566
Nb5 O26 2.060183 1_556
Nb5 O23 2.269480 1_555
Nb6 O23 1.811799 1_445
Nb6 O18 1.990262 1_545
Nb6 O40 1.993448 1_555
Nb6 O48 2.045242 1_546
Nb6 O10 2.059403 1_546
Nb6 O59 2.274876 1_555
Nb7 O41 1.812997 1_555
Nb7 O54 1.980446 1_555
Nb7 O13 1.991104 1_565
Nb7 O7 2.042512 1_565
Nb7 O4 2.060183 1_555
Nb7 O44 2.269480 1_555
Nb8 O59 1.816590 1_565
Nb8 O1 1.988528 1_565
Nb8 O29 1.996502 1_555
Nb8 O56 2.031643 1_556
Nb8 O30 2.069675 1_566
Nb8 O58 2.271482 1_555
Nb9 O35 1.819012 1_555
Nb9 O33 1.982405 1_555
Nb9 O17 1.993353 1_565
Nb9 O42 2.027281 1_555
Nb9 O14 2.072889 1_555
Nb9 O32 2.263329 1_565
B0 O27 1.358068 1_555
B0 O56 1.361420 1_555
B0 O16 1.406965 1_555
B1 O28 1.361104 1_555
B1 O19 1.362095 1_555
B1 O12 1.407280 1_555
B2 O53 1.358828 1_555
B2 O42 1.361605 1_555
B2 O46 1.409509 1_555
B3 O6 1.358068 1_555
B3 O31 1.361420 1_555
B3 O34 1.406965 1_555
B4 O4 1.361343 1_555
B4 O40 1.366586 1_555
B4 O21 1.410685 1_555
B5 O51 1.360653 1_565
B5 O29 1.369957 1_555
B5 O43 1.412824 1_555
B6 O37 1.362231 1_555
B6 O17 1.369461 1_555
B6 O8 1.411396 1_555
B7 O20 1.360653 1_565
B7 O24 1.369957 1_555
B7 O25 1.412824 1_555
B8 O57 1.364026 1_565
B8 O55 1.367732 1_555
B8 O34 1.407684 1_555
B9 O38 1.364525 1_555
B9 O49 1.365406 1_555
B9 O12 1.405296 1_555
B10 O33 1.358828 1_555
B10 O39 1.361605 1_555
B10 O8 1.409509 1_555
B11 O7 1.363044 1_565
B11 O18 1.363439 1_555
B11 O21 1.407417 1_555
B12 O45 1.361373 1_555
B12 O15 1.362011 1_555
B12 O25 1.410082 1_555
B13 O26 1.361343 1_555
B13 O0 1.366586 1_555
B13 O9 1.410685 1_555
B14 O14 1.362231 1_555
B14 O50 1.369461 1_555
B14 O46 1.411396 1_555
B15 O30 1.364026 1_565
B15 O11 1.367732 1_555
B15 O16 1.407684 1_555
B16 O36 1.363044 1_565
B16 O3 1.363439 1_555
B16 O9 1.407417 1_555
B17 O1 1.361373 1_555
B17 O2 1.362011 1_555
B17 O43 1.410082 1_555
B18 O10 1.364525 1_555
B18 O13 1.365406 1_555
B18 O5 1.405296 1_555
B19 O54 1.361104 1_555
B19 O48 1.362095 1_555
B19 O5 1.407280 1_555
O0 Rb5 3.320778 1_555
O0 Rb3 3.396948 1_655
O1 Rb9 3.190067 1_555
O2 Rb1 3.003501 1_555
O3 Rb5 3.112882 1_565
O4 Rb9 3.041457 1_555
O4 Rb3 3.335221 1_555
O5 Rb9 3.138198 1_555
O5 Rb3 3.188379 1_555
O6 Rb2 3.403923 1_555
O7 Rb9 3.013231 1_555
O7 Rb3 3.324046 1_555
O8 Rb2 3.086689 1_555
O8 Rb1 3.155629 1_555
O9 Rb3 3.101628 1_655
O9 Rb7 3.166509 1_555
O10 Rb5 3.025509 1_455
O10 Rb8 3.190466 1_555
O11 Rb6 3.036163 1_565
O12 Rb4 3.138198 1_556
O12 Rb5 3.188379 1_556
O13 Rb8 3.038368 1_555
O14 Rb2 3.018397 1_555
O14 Rb1 3.177856 1_555
O15 Rb0 3.003501 1_555
O16 Rb1 3.123719 1_555
O16 Rb9 3.197803 1_555
O17 Rb0 3.105289 1_555
O18 Rb3 3.112882 1_565
O19 Rb3 3.081550 1_665
O19 Rb7 3.499005 1_565
O20 Rb0 3.021691 1_555
O20 Rb4 3.227685 1_555
O21 Rb5 3.101628 1_456
O21 Rb8 3.166509 1_556
O22 Rb7 3.490078 1_555
O24 Rb4 3.216884 1_565
O24 Rb7 3.449745 1_555
O25 Rb7 3.060889 1_555
O25 Rb2 3.145334 1_555
O26 Rb4 3.041457 1_555
O26 Rb5 3.335221 1_555
O27 Rb6 3.403923 1_555
O28 Rb7 3.398853 1_565
O29 Rb9 3.216884 1_565
O29 Rb8 3.449745 1_556
O30 Rb8 3.034218 1_555
O30 Rb6 3.148753 1_555
O31 Rb7 3.105008 1_555
O33 Rb0 3.296319 1_565
O34 Rb0 3.123719 1_556
O34 Rb4 3.197803 1_556
O35 Rb2 3.458390 1_555
O36 Rb4 3.013231 1_555
O36 Rb5 3.324046 1_555
O37 Rb6 3.018397 1_555
O37 Rb0 3.177856 1_555
O38 Rb3 3.025509 1_655
O38 Rb7 3.190466 1_555
O39 Rb6 3.045526 1_565
O40 Rb3 3.320778 1_555
O40 Rb5 3.396948 1_456
O42 Rb2 3.045526 1_565
O43 Rb8 3.060889 1_556
O43 Rb6 3.145334 1_556
O45 Rb4 3.190067 1_555
O46 Rb6 3.086689 1_556
O46 Rb0 3.155629 1_556
O48 Rb5 3.081550 1_465
O48 Rb8 3.499005 1_565
O49 Rb7 3.038368 1_555
O50 Rb1 3.105289 1_555
O51 Rb1 3.021691 1_555
O51 Rb9 3.227685 1_555
O53 Rb1 3.296319 1_565
O54 Rb8 3.398853 1_565
O55 Rb2 3.036163 1_565
O56 Rb8 3.105008 1_555
O57 Rb7 3.034218 1_555
O57 Rb2 3.148753 1_555
O58 Rb6 3.458390 1_556
O59 Rb8 3.490078 1_556
