# generated using pymatgen
data_Ba2Nd2Co4O11
_symmetry_space_group_name_H-M   'P 1'
_cell_length_a   3.95220000
_cell_length_b   7.65820100
_cell_length_c   8.00567000
_cell_angle_alpha   90.00000000
_cell_angle_beta   90.00000000
_cell_angle_gamma   90.00000000
_symmetry_Int_Tables_number   1
_chemical_formula_structural   Ba2Nd2Co4O11
_chemical_formula_sum   'Ba2 Nd2 Co4 O11'
_cell_volume   242.30554836
_cell_formula_units_Z   1
loop_
 _symmetry_equiv_pos_site_id
 _symmetry_equiv_pos_as_xyz
  1  'x, y, z'
loop_
 _atom_site_type_symbol
 _atom_site_label
 _atom_site_symmetry_multiplicity
 _atom_site_fract_x
 _atom_site_fract_y
 _atom_site_fract_z
 _atom_site_occupancy
  Ba  Ba0  1  0.50000000  0.99967600  0.25521400  1
  Ba  Ba1  1  0.50000000  0.99967600  0.74478600  1
  Nd  Nd0  1  0.50000000  0.50376700  0.23299500  1
  Nd  Nd1  1  0.50000000  0.50376700  0.76700500  1
  Co  Co0  1  0.00000000  0.26337600  0.50000000  1
  Co  Co1  1  0.00000000  0.74962400  0.00000000  1
  Co  Co2  1  0.00000000  0.25083000  0.00000000  1
  Co  Co3  1  0.00000000  0.73813400  0.50000000  1
  O  O0  1  0.00000000  0.29210600  0.27367000  1
  O  O1  1  0.00000000  0.29210600  0.72633000  1
  O  O2  1  0.50000000  0.72903400  0.00000000  1
  O  O3  1  0.50000000  0.26737300  0.00000000  1
  O  O4  1  0.00000000  0.50184500  0.00000000  1
  O  O5  1  0.00000000  0.70763000  0.26389400  1
  O  O6  1  0.00000000  0.00386400  0.50000000  1
  O  O7  1  0.50000000  0.31077900  0.50000000  1
  O  O8  1  0.00000000  0.70763000  0.73610600  1
  O  O9  1  0.50000000  0.68912500  0.50000000  1
  O  O10  1  0.00000000  0.98950700  0.00000000  1
loop_
_geom_bond_atom_site_label_1
_geom_bond_atom_site_label_2
_geom_bond_distance
_geom_bond_site_symmetry_2
Ba0 O6 2.783223 1_665
Ba0 O6 2.783223 1_565
Ba0 O10 2.843507 1_555
Ba0 O10 2.843507 1_655
Ba0 O3 2.894359 1_565
Ba0 O2 2.910378 1_555
Ba0 O5 2.985288 1_555
Ba0 O5 2.985288 1_655
Ba0 O0 2.990336 1_565
Ba0 O0 2.990336 1_665
Ba0 O9 3.081633 1_555
Ba0 O7 3.084896 1_565
Ba1 O6 2.783223 1_565
Ba1 O6 2.783223 1_665
Ba1 O10 2.843507 1_556
Ba1 O10 2.843507 1_656
Ba1 O3 2.894359 1_566
Ba1 O2 2.910378 1_556
Ba1 O8 2.985288 1_555
Ba1 O8 2.985288 1_655
Ba1 O1 2.990336 1_565
Ba1 O1 2.990336 1_665
Ba1 O9 3.081633 1_555
Ba1 O7 3.084896 1_565
Nd0 O5 2.530530 1_655
Nd0 O5 2.530530 1_555
Nd0 O2 2.540744 1_555
Nd0 O9 2.565958 1_555
Nd0 O0 2.576521 1_555
Nd0 O0 2.576521 1_655
Nd0 O7 2.598739 1_555
Nd0 O3 2.599356 1_555
Nd0 O4 2.717437 1_555
Nd0 O4 2.717437 1_655
Nd1 O8 2.530530 1_555
Nd1 O8 2.530530 1_655
Nd1 O2 2.540744 1_556
Nd1 O9 2.565958 1_555
Nd1 O1 2.576521 1_555
Nd1 O1 2.576521 1_655
Nd1 O7 2.598739 1_555
Nd1 O3 2.599356 1_556
Nd1 O4 2.717437 1_656
Nd1 O4 2.717437 1_556
Co0 O0 1.825233 1_555
Co0 O1 1.825233 1_555
Co0 O6 1.987395 1_555
Co0 O7 2.009168 1_555
Co0 O7 2.009168 1_455
Co1 O10 1.837072 1_555
Co1 O4 1.897541 1_555
Co1 O2 1.982381 1_455
Co1 O2 1.982381 1_555
Co1 O8 2.136986 1_554
Co1 O5 2.136986 1_555
Co2 O4 1.922323 1_555
Co2 O3 1.980157 1_455
Co2 O3 1.980157 1_555
Co2 O10 2.001264 1_545
Co2 O1 2.213597 1_554
Co2 O0 2.213597 1_555
Co3 O5 1.904568 1_555
Co3 O8 1.904568 1_555
Co3 O9 2.011427 1_555
Co3 O9 2.011427 1_455
Co3 O6 2.035014 1_565
