# generated using pymatgen
data_NaUO3
_symmetry_space_group_name_H-M   'P 1'
_cell_length_a   5.74520583
_cell_length_b   5.90574039
_cell_length_c   8.26116171
_cell_angle_alpha   90.00000000
_cell_angle_beta   90.00000000
_cell_angle_gamma   90.00000000
_symmetry_Int_Tables_number   1
_chemical_formula_structural   NaUO3
_chemical_formula_sum   'Na4 U4 O12'
_cell_volume   280.29868989
_cell_formula_units_Z   4
loop_
 _symmetry_equiv_pos_site_id
 _symmetry_equiv_pos_as_xyz
  1  'x, y, z'
loop_
 _atom_site_type_symbol
 _atom_site_label
 _atom_site_symmetry_multiplicity
 _atom_site_fract_x
 _atom_site_fract_y
 _atom_site_fract_z
 _atom_site_occupancy
  Na  Na0  1  0.50765533  0.53606873  0.25000000  1
  Na  Na1  1  0.00765533  0.96393127  0.75000000  1
  Na  Na2  1  0.99234467  0.03606873  0.25000000  1
  Na  Na3  1  0.49234467  0.46393127  0.75000000  1
  U  U0  1  -0.00000000  0.50000000  0.00000000  1
  U  U1  1  0.50000000  0.00000000  0.00000000  1
  U  U2  1  0.50000000  0.00000000  0.50000000  1
  U  U3  1  -0.00000000  0.50000000  0.50000000  1
  O  O0  1  0.69594041  0.30025352  0.44748427  1
  O  O1  1  0.19594041  0.19974648  0.55251573  1
  O  O2  1  0.80405959  0.80025352  0.05251573  1
  O  O3  1  0.30405959  0.69974648  0.94748427  1
  O  O4  1  0.30405959  0.69974648  0.55251573  1
  O  O5  1  0.80405959  0.80025352  0.44748427  1
  O  O6  1  0.19594041  0.19974648  0.94748427  1
  O  O7  1  0.69594041  0.30025352  0.05251573  1
  O  O8  1  0.10051740  0.46280593  0.25000000  1
  O  O9  1  0.60051740  0.03719407  0.75000000  1
  O  O10  1  0.39948260  0.96280593  0.25000000  1
  O  O11  1  0.89948260  0.53719407  0.75000000  1
loop_
_geom_bond_atom_site_label_1
_geom_bond_atom_site_label_2
_geom_bond_distance
_geom_bond_site_symmetry_2
Na0 O8 2.378771 1_555
Na0 O0 2.402352 1_555
Na0 O7 2.402352 1_555
Na0 O10 2.595695 1_555
Na0 O5 2.827676 1_555
Na0 O2 2.827676 1_555
Na0 O4 2.923738 1_555
Na0 O3 2.923738 1_554
Na1 O9 2.378771 1_465
Na1 O6 2.402352 1_565
Na1 O1 2.402352 1_565
Na1 O11 2.595695 1_455
Na1 O3 2.827676 1_555
Na1 O4 2.827676 1_555
Na1 O5 2.923738 1_455
Na1 O2 2.923738 1_456
Na2 O10 2.378771 1_645
Na2 O2 2.402352 1_545
Na2 O5 2.402352 1_545
Na2 O8 2.595695 1_655
Na2 O0 2.827676 1_555
Na2 O7 2.827676 1_555
Na2 O1 2.923738 1_655
Na2 O6 2.923738 1_654
Na3 O11 2.378771 1_555
Na3 O4 2.402352 1_555
Na3 O3 2.402352 1_555
Na3 O9 2.595695 1_555
Na3 O1 2.827676 1_555
Na3 O6 2.827676 1_555
Na3 O0 2.923738 1_555
Na3 O7 2.923738 1_556
O0 U2 2.144706 1_555
O0 U3 2.152069 1_655
O1 U3 2.144706 1_555
O1 U2 2.152069 1_555
O2 U0 2.144706 1_655
O2 U1 2.152069 1_565
O3 U1 2.144706 1_566
O3 U0 2.152069 1_556
O4 U2 2.144706 1_565
O4 U3 2.152069 1_555
O5 U3 2.144706 1_655
O5 U2 2.152069 1_565
O6 U0 2.144706 1_556
O6 U1 2.152069 1_556
O7 U1 2.144706 1_555
O7 U0 2.152069 1_655
O8 U0 2.155730 1_555
O8 U3 2.155730 1_555
O9 U2 2.155730 1_555
O9 U1 2.155730 1_556
O10 U1 2.155730 1_565
O10 U2 2.155730 1_565
O11 U0 2.155730 1_656
O11 U3 2.155730 1_655
