# generated using pymatgen
data_ErAgGe
_symmetry_space_group_name_H-M   'P 1'
_cell_length_a   7.06937077
_cell_length_b   7.06937036
_cell_length_c   4.16943363
_cell_angle_alpha   90.00000000
_cell_angle_beta   90.00000000
_cell_angle_gamma   119.99999702
_symmetry_Int_Tables_number   1
_chemical_formula_structural   ErAgGe
_chemical_formula_sum   'Er3 Ag3 Ge3'
_cell_volume   180.45511820
_cell_formula_units_Z   3
loop_
 _symmetry_equiv_pos_site_id
 _symmetry_equiv_pos_as_xyz
  1  'x, y, z'
loop_
 _atom_site_type_symbol
 _atom_site_label
 _atom_site_symmetry_multiplicity
 _atom_site_fract_x
 _atom_site_fract_y
 _atom_site_fract_z
 _atom_site_occupancy
  Er  Er0  1  0.58370216  0.00000000  -0.00000000  1
  Er  Er1  1  0.41629784  0.41629784  -0.00000000  1
  Er  Er2  1  0.00000000  0.58370216  -0.00000000  1
  Ag  Ag0  1  0.74877674  0.74877674  0.50000000  1
  Ag  Ag1  1  0.25122326  1.00000000  0.50000000  1
  Ag  Ag2  1  1.00000000  0.25122326  0.50000000  1
  Ge  Ge0  1  0.00000000  0.00000000  0.00000000  1
  Ge  Ge1  1  0.66666700  0.33333300  0.50000000  1
  Ge  Ge2  1  0.33333300  0.66666700  0.50000000  1
loop_
_geom_bond_atom_site_label_1
_geom_bond_atom_site_label_2
_geom_bond_distance
_geom_bond_site_symmetry_2
Er0 Ge0 2.942964 1_655
Er0 Ge1 2.976715 1_555
Er0 Ge1 2.976715 1_554
Er0 Ge2 2.976717 1_544
Er0 Ge2 2.976717 1_545
Er1 Ge0 2.942964 1_555
Er1 Ge2 2.976720 1_555
Er1 Ge2 2.976720 1_554
Er1 Ge1 2.976720 1_555
Er1 Ge1 2.976720 1_554
Er2 Ge0 2.942964 1_565
Er2 Ge2 2.976715 1_555
Er2 Ge2 2.976715 1_554
Er2 Ge1 2.976717 1_455
Er2 Ge1 2.976717 1_454
Ag0 Ge1 2.694010 1_555
Ag0 Ge2 2.694010 1_555
Ag0 Ge0 2.738647 1_665
Ag0 Ge0 2.738647 1_666
Ag0 Ag2 3.076105 1_565
Ag0 Ag1 3.076106 1_655
Ag0 Er1 3.141736 1_556
Ag0 Er1 3.141736 1_555
Ag0 Er0 3.306742 1_565
Ag0 Er0 3.306742 1_566
Ag0 Er2 3.306743 1_656
Ag0 Er2 3.306743 1_655
Ag1 Ge2 2.694003 1_555
Ag1 Ge1 2.694008 1_565
Ag1 Ge0 2.738647 1_566
Ag1 Ge0 2.738647 1_565
Ag1 Ag2 3.076105 1_465
Ag1 Er0 3.141736 1_566
Ag1 Er0 3.141736 1_565
Ag1 Er1 3.306743 1_565
Ag1 Er1 3.306743 1_566
Ag1 Er2 3.306743 1_556
Ag1 Er2 3.306743 1_555
Ag2 Ge1 2.694003 1_555
Ag2 Ge2 2.694008 1_655
Ag2 Ge0 2.738647 1_656
Ag2 Ge0 2.738647 1_655
Ag2 Er2 3.141735 1_656
Ag2 Er2 3.141735 1_655
Ag2 Er1 3.306743 1_656
Ag2 Er1 3.306743 1_655
Ag2 Er0 3.306743 1_556
Ag2 Er0 3.306743 1_555
