# generated using pymatgen
data_YbGeBiO5
_symmetry_space_group_name_H-M   'P 1'
_cell_length_a   5.51329800
_cell_length_b   11.02685900
_cell_length_c   15.54683500
_cell_angle_alpha   90.00000000
_cell_angle_beta   90.00000000
_cell_angle_gamma   90.00000000
_symmetry_Int_Tables_number   1
_chemical_formula_structural   YbGeBiO5
_chemical_formula_sum   'Yb8 Ge8 Bi8 O40'
_cell_volume   945.15987874
_cell_formula_units_Z   8
loop_
 _symmetry_equiv_pos_site_id
 _symmetry_equiv_pos_as_xyz
  1  'x, y, z'
loop_
 _atom_site_type_symbol
 _atom_site_label
 _atom_site_symmetry_multiplicity
 _atom_site_fract_x
 _atom_site_fract_y
 _atom_site_fract_z
 _atom_site_occupancy
  Yb  Yb0  1  0.00963600  0.35987200  0.94750500  1
  Yb  Yb1  1  0.49036400  0.85987200  0.05249500  1
  Yb  Yb2  1  0.50963600  0.14012800  0.94750500  1
  Yb  Yb3  1  0.50963600  0.64012800  0.55249500  1
  Yb  Yb4  1  0.99036400  0.64012800  0.05249500  1
  Yb  Yb5  1  0.99036400  0.14012800  0.44750500  1
  Yb  Yb6  1  0.49036400  0.35987200  0.44750500  1
  Yb  Yb7  1  0.00963600  0.85987200  0.55249500  1
  Ge  Ge0  1  0.50182700  0.09995200  0.59412900  1
  Ge  Ge1  1  0.49817300  0.90004800  0.40587100  1
  Ge  Ge2  1  0.50182700  0.59995200  0.90587100  1
  Ge  Ge3  1  0.99817300  0.59995200  0.40587100  1
  Ge  Ge4  1  0.99817300  0.09995200  0.09412900  1
  Ge  Ge5  1  0.00182700  0.90004800  0.90587100  1
  Ge  Ge6  1  0.00182700  0.40004800  0.59412900  1
  Ge  Ge7  1  0.49817300  0.40004800  0.09412900  1
  Bi  Bi0  1  0.55084100  0.15122900  0.26544800  1
  Bi  Bi1  1  0.94915900  0.15122900  0.76544800  1
  Bi  Bi2  1  0.55084100  0.65122900  0.23455200  1
  Bi  Bi3  1  0.94915900  0.65122900  0.73455200  1
  Bi  Bi4  1  0.05084100  0.84877100  0.23455200  1
  Bi  Bi5  1  0.05084100  0.34877100  0.26544800  1
  Bi  Bi6  1  0.44915900  0.34877100  0.76544800  1
  Bi  Bi7  1  0.44915900  0.84877100  0.73455200  1
  O  O0  1  0.09126600  0.81736600  0.80970500  1
  O  O1  1  0.70170900  0.51406200  0.13774500  1
  O  O2  1  0.79829100  0.51406200  0.63774500  1
  O  O3  1  0.22574000  0.46379500  0.05637100  1
  O  O4  1  0.34231300  0.19261000  0.52308600  1
  O  O5  1  0.24538000  0.72783300  0.65509700  1
  O  O6  1  0.27426000  0.46379500  0.55637100  1
  O  O7  1  0.20170900  0.48593800  0.36225500  1
  O  O8  1  0.72574000  0.03620500  0.05637100  1
  O  O9  1  0.74538000  0.77216700  0.65509700  1
  O  O10  1  0.79829100  0.01406200  0.86225500  1
  O  O11  1  0.29829100  0.98593800  0.63774500  1
  O  O12  1  0.40873400  0.81736600  0.30970500  1
  O  O13  1  0.09126600  0.31736600  0.69029500  1
  O  O14  1  0.74538000  0.27216700  0.84490300  1
  O  O15  1  0.75462000  0.27216700  0.34490300  1
  O  O16  1  0.22574000  0.96379500  0.44362900  1
  O  O17  1  0.27426000  0.96379500  0.94362900  1
  O  O18  1  0.29829100  0.48593800  0.86225500  1
  O  O19  1  0.40873400  0.31736600  0.19029500  1
  O  O20  1  0.65768700  0.30739000  0.02308600  1
  O  O21  1  0.25462000  0.72783300  0.15509700  1
  O  O22  1  0.77426000  0.53620500  0.94362900  1
  O  O23  1  0.25462000  0.22783300  0.34490300  1
  O  O24  1  0.84231300  0.30739000  0.52308600  1
  O  O25  1  0.72574000  0.53620500  0.44362900  1
  O  O26  1  0.77426000  0.03620500  0.55637100  1
  O  O27  1  0.59126600  0.68263400  0.80970500  1
  O  O28  1  0.24538000  0.22783300  0.84490300  1
  O  O29  1  0.65768700  0.80739000  0.47691400  1
  O  O30  1  0.20170900  0.98593800  0.13774500  1
  O  O31  1  0.90873400  0.68263400  0.30970500  1
  O  O32  1  0.90873400  0.18263400  0.19029500  1
  O  O33  1  0.15768700  0.19261000  0.02308600  1
  O  O34  1  0.75462000  0.77216700  0.15509700  1
  O  O35  1  0.70170900  0.01406200  0.36225500  1
  O  O36  1  0.59126600  0.18263400  0.69029500  1
  O  O37  1  0.15768700  0.69261000  0.47691400  1
  O  O38  1  0.34231300  0.69261000  0.97691400  1
  O  O39  1  0.84231300  0.80739000  0.97691400  1
loop_
_geom_bond_atom_site_label_1
_geom_bond_atom_site_label_2
_geom_bond_distance
_geom_bond_site_symmetry_2
Ge0 O4 1.742774 1_555
Ge0 O26 1.759180 1_555
Ge0 O11 1.816489 1_545
Ge0 O36 1.819243 1_555
Ge1 O29 1.742774 1_555
Ge1 O16 1.759180 1_555
Ge1 O35 1.816489 1_565
Ge1 O12 1.819243 1_555
Ge2 O38 1.742774 1_555
Ge2 O22 1.759180 1_555
Ge2 O18 1.816489 1_555
Ge2 O27 1.819243 1_555
Ge3 O37 1.742774 1_655
Ge3 O25 1.759180 1_555
Ge3 O7 1.816489 1_655
Ge3 O31 1.819243 1_555
Ge4 O33 1.742774 1_655
Ge4 O8 1.759180 1_555
Ge4 O30 1.816489 1_645
Ge4 O32 1.819243 1_555
Ge5 O39 1.742774 1_455
Ge5 O17 1.759180 1_555
Ge5 O10 1.816489 1_465
Ge5 O0 1.819243 1_555
Ge6 O24 1.742774 1_455
Ge6 O6 1.759180 1_555
Ge6 O2 1.816489 1_455
Ge6 O13 1.819243 1_555
Ge7 O20 1.742774 1_555
Ge7 O3 1.759180 1_555
Ge7 O1 1.816489 1_555
Ge7 O19 1.819243 1_555
Bi0 O15 2.136946 1_555
Bi0 O23 2.215088 1_555
Bi0 O35 2.290138 1_555
Bi0 O19 2.309781 1_555
Bi0 O32 2.319152 1_555
Bi1 O14 2.136946 1_555
Bi1 O28 2.215088 1_655
Bi1 O10 2.290138 1_555
Bi1 O13 2.309781 1_655
Bi1 O36 2.319152 1_555
Bi2 O34 2.136946 1_555
Bi2 O21 2.215088 1_555
Bi2 O1 2.290138 1_555
Bi2 O12 2.309781 1_555
Bi2 O31 2.319152 1_555
Bi3 O9 2.136946 1_555
Bi3 O5 2.215088 1_655
Bi3 O2 2.290138 1_555
Bi3 O0 2.309781 1_655
Bi3 O27 2.319152 1_555
Bi4 O21 2.136946 1_555
Bi4 O34 2.215088 1_455
Bi4 O30 2.290138 1_555
Bi4 O31 2.309781 1_455
Bi4 O12 2.319152 1_555
Bi5 O23 2.136946 1_555
Bi5 O15 2.215088 1_455
Bi5 O7 2.290138 1_555
Bi5 O32 2.309781 1_455
Bi5 O19 2.319152 1_555
Bi6 O28 2.136946 1_555
Bi6 O14 2.215088 1_555
Bi6 O18 2.290138 1_555
Bi6 O36 2.309781 1_555
Bi6 O13 2.319152 1_555
Bi7 O5 2.136946 1_555
Bi7 O9 2.215088 1_555
Bi7 O11 2.290138 1_555
Bi7 O27 2.309781 1_555
Bi7 O0 2.319152 1_555
O1 Yb4 2.494333 1_555
O2 Yb3 2.494333 1_555
O3 Yb4 2.338448 1_455
O3 Yb0 2.365874 1_554
O4 Yb6 2.334248 1_555
O4 Yb5 2.341109 1_455
O5 Yb3 2.366936 1_555
O5 Yb7 2.520638 1_555
O6 Yb3 2.338448 1_555
O6 Yb6 2.365874 1_555
O7 Yb6 2.494333 1_555
O8 Yb1 2.338448 1_545
O8 Yb2 2.365874 1_554
O9 Yb7 2.366936 1_655
O9 Yb3 2.520638 1_555
O10 Yb2 2.494333 1_555
O11 Yb7 2.494333 1_555
O14 Yb0 2.366936 1_655
O14 Yb2 2.520638 1_555
O15 Yb6 2.366936 1_555
O15 Yb5 2.520638 1_555
O16 Yb5 2.338448 1_465
O16 Yb7 2.365874 1_555
O17 Yb2 2.338448 1_565
O17 Yb1 2.365874 1_556
O18 Yb0 2.494333 1_555
O20 Yb2 2.334248 1_554
O20 Yb0 2.341109 1_654
O21 Yb4 2.366936 1_455
O21 Yb1 2.520638 1_555
O22 Yb0 2.338448 1_655
O22 Yb4 2.365874 1_556
O23 Yb5 2.366936 1_455
O23 Yb6 2.520638 1_555
O24 Yb5 2.334248 1_555
O24 Yb6 2.341109 1_555
O25 Yb6 2.338448 1_555
O25 Yb3 2.365874 1_555
O26 Yb7 2.338448 1_645
O26 Yb5 2.365874 1_555
O28 Yb2 2.366936 1_555
O28 Yb0 2.520638 1_555
O29 Yb3 2.334248 1_555
O29 Yb7 2.341109 1_655
O30 Yb1 2.494333 1_555
O33 Yb0 2.334248 1_554
O33 Yb2 2.341109 1_554
O34 Yb1 2.366936 1_555
O34 Yb4 2.520638 1_555
O35 Yb5 2.494333 1_555
O37 Yb7 2.334248 1_555
O37 Yb3 2.341109 1_555
O38 Yb1 2.334248 1_556
O38 Yb4 2.341109 1_456
O39 Yb4 2.334248 1_556
O39 Yb1 2.341109 1_556
