# generated using pymatgen
data_RbBe4(BO3)3
_symmetry_space_group_name_H-M   'P 1'
_cell_length_a   6.42971100
_cell_length_b   8.53028400
_cell_length_c   13.35319500
_cell_angle_alpha   90.00000000
_cell_angle_beta   90.00000000
_cell_angle_gamma   90.00000000
_symmetry_Int_Tables_number   1
_chemical_formula_structural   RbBe4(BO3)3
_chemical_formula_sum   'Rb4 Be16 B12 O36'
_cell_volume   732.38616959
_cell_formula_units_Z   4
loop_
 _symmetry_equiv_pos_site_id
 _symmetry_equiv_pos_as_xyz
  1  'x, y, z'
loop_
 _atom_site_type_symbol
 _atom_site_label
 _atom_site_symmetry_multiplicity
 _atom_site_fract_x
 _atom_site_fract_y
 _atom_site_fract_z
 _atom_site_occupancy
  Rb  Rb0  1  0.17417600  0.93328900  0.75000000  1
  Rb  Rb1  1  0.82582400  0.06671100  0.25000000  1
  Rb  Rb2  1  0.67417600  0.56671100  0.25000000  1
  Rb  Rb3  1  0.32582400  0.43328900  0.75000000  1
  Be  Be0  1  0.85721900  0.27641900  0.85713800  1
  Be  Be1  1  0.09365300  0.43818100  0.05720200  1
  Be  Be2  1  0.40634700  0.93818100  0.05720200  1
  Be  Be3  1  0.59365300  0.06181900  0.94279800  1
  Be  Be4  1  0.40634700  0.93818100  0.44279800  1
  Be  Be5  1  0.90634700  0.56181900  0.94279800  1
  Be  Be6  1  0.64278100  0.77641900  0.85713800  1
  Be  Be7  1  0.14278100  0.72358100  0.35713800  1
  Be  Be8  1  0.64278100  0.77641900  0.64286200  1
  Be  Be9  1  0.09365300  0.43818100  0.44279800  1
  Be  Be10  1  0.35721900  0.22358100  0.35713800  1
  Be  Be11  1  0.59365300  0.06181900  0.55720200  1
  Be  Be12  1  0.35721900  0.22358100  0.14286200  1
  Be  Be13  1  0.90634700  0.56181900  0.55720200  1
  Be  Be14  1  0.14278100  0.72358100  0.14286200  1
  Be  Be15  1  0.85721900  0.27641900  0.64286200  1
  B  B0  1  0.68947800  0.04789300  0.75000000  1
  B  B1  1  0.31052200  0.95210700  0.25000000  1
  B  B2  1  0.18947800  0.45210700  0.25000000  1
  B  B3  1  0.19710400  0.17717500  0.96460100  1
  B  B4  1  0.30289600  0.67717500  0.96460100  1
  B  B5  1  0.19710400  0.17717500  0.53539900  1
  B  B6  1  0.80289600  0.82282500  0.46460100  1
  B  B7  1  0.30289600  0.67717500  0.53539900  1
  B  B8  1  0.81052200  0.54789300  0.75000000  1
  B  B9  1  0.80289600  0.82282500  0.03539900  1
  B  B10  1  0.69710400  0.32282500  0.03539900  1
  B  B11  1  0.69710400  0.32282500  0.46460100  1
  O  O0  1  0.34974500  0.02857200  0.16116900  1
  O  O1  1  0.34045000  0.05332800  0.53630800  1
  O  O2  1  0.15955000  0.55332800  0.96369200  1
  O  O3  1  0.84974500  0.47142800  0.83883100  1
  O  O4  1  0.68622100  0.23653900  0.55414400  1
  O  O5  1  0.58228800  0.29041200  0.11745900  1
  O  O6  1  0.81377900  0.73653900  0.55414400  1
  O  O7  1  0.84045000  0.44667200  0.46369200  1
  O  O8  1  0.23261800  0.80125300  0.25000000  1
  O  O9  1  0.26738200  0.30125300  0.25000000  1
  O  O10  1  0.41771200  0.70958800  0.61745900  1
  O  O11  1  0.18622100  0.26346100  0.44585600  1
  O  O12  1  0.58228800  0.29041200  0.38254100  1
  O  O13  1  0.65955000  0.94667200  0.03630800  1
  O  O14  1  0.31377900  0.76346100  0.44585600  1
  O  O15  1  0.84045000  0.44667200  0.03630800  1
  O  O16  1  0.34974500  0.02857200  0.33883100  1
  O  O17  1  0.08228800  0.20958800  0.61745900  1
  O  O18  1  0.31377900  0.76346100  0.05414400  1
  O  O19  1  0.65955000  0.94667200  0.46369200  1
  O  O20  1  0.68622100  0.23653900  0.94585600  1
  O  O21  1  0.18622100  0.26346100  0.05414400  1
  O  O22  1  0.08228800  0.20958800  0.88254100  1
  O  O23  1  0.76738200  0.19874700  0.75000000  1
  O  O24  1  0.41771200  0.70958800  0.88254100  1
  O  O25  1  0.91771200  0.79041200  0.11745900  1
  O  O26  1  0.65025500  0.97142800  0.83883100  1
  O  O27  1  0.34045000  0.05332800  0.96369200  1
  O  O28  1  0.15025500  0.52857200  0.16116900  1
  O  O29  1  0.15025500  0.52857200  0.33883100  1
  O  O30  1  0.84974500  0.47142800  0.66116900  1
  O  O31  1  0.91771200  0.79041200  0.38254100  1
  O  O32  1  0.81377900  0.73653900  0.94585600  1
  O  O33  1  0.65025500  0.97142800  0.66116900  1
  O  O34  1  0.15955000  0.55332800  0.53630800  1
  O  O35  1  0.73261800  0.69874700  0.75000000  1
loop_
_geom_bond_atom_site_label_1
_geom_bond_atom_site_label_2
_geom_bond_distance
_geom_bond_site_symmetry_2
Be0 O22 1.591931 1_655
Be0 O20 1.651665 1_555
Be0 O23 1.679095 1_555
Be0 O3 1.682035 1_555
Be1 O21 1.605378 1_555
Be1 O28 1.629214 1_555
Be1 O2 1.644218 1_554
Be1 O15 1.653343 1_455
Be2 O18 1.605378 1_555
Be2 O0 1.629214 1_565
Be2 O27 1.644218 1_564
Be2 O13 1.653343 1_555
Be3 O20 1.605378 1_555
Be3 O26 1.629214 1_545
Be3 O13 1.644218 1_546
Be3 O27 1.653343 1_555
Be4 O14 1.605378 1_555
Be4 O16 1.629214 1_565
Be4 O1 1.644218 1_565
Be4 O19 1.653343 1_555
Be5 O32 1.605378 1_555
Be5 O3 1.629214 1_555
Be5 O15 1.644218 1_556
Be5 O2 1.653343 1_655
Be6 O24 1.591931 1_555
Be6 O32 1.651665 1_555
Be6 O35 1.679095 1_555
Be6 O26 1.682035 1_555
Be7 O31 1.591931 1_455
Be7 O14 1.651665 1_555
Be7 O8 1.679095 1_555
Be7 O29 1.682035 1_555
Be8 O10 1.591931 1_555
Be8 O6 1.651665 1_555
Be8 O35 1.679095 1_555
Be8 O33 1.682035 1_555
Be9 O11 1.605378 1_555
Be9 O29 1.629214 1_555
Be9 O34 1.644218 1_555
Be9 O7 1.653343 1_455
Be10 O12 1.591931 1_555
Be10 O11 1.651665 1_555
Be10 O9 1.679095 1_555
Be10 O16 1.682035 1_555
Be11 O4 1.605378 1_555
Be11 O33 1.629214 1_545
Be11 O19 1.644218 1_545
Be11 O1 1.653343 1_555
Be12 O5 1.591931 1_555
Be12 O21 1.651665 1_555
Be12 O9 1.679095 1_555
Be12 O0 1.682035 1_555
Be13 O6 1.605378 1_555
Be13 O30 1.629214 1_555
Be13 O7 1.644218 1_555
Be13 O34 1.653343 1_655
Be14 O25 1.591931 1_455
Be14 O18 1.651665 1_555
Be14 O8 1.679095 1_555
Be14 O28 1.682035 1_555
Be15 O17 1.591931 1_655
Be15 O4 1.651665 1_555
Be15 O23 1.679095 1_555
Be15 O30 1.682035 1_555
B0 O26 1.376979 1_545
B0 O33 1.376979 1_545
B0 O23 1.380879 1_555
B0 Rb0 3.266203 1_645
B1 O16 1.376979 1_565
B1 O0 1.376979 1_565
B1 O8 1.380879 1_555
B1 Rb1 3.266203 1_465
B2 O29 1.376979 1_555
B2 O28 1.376979 1_555
B2 O9 1.380879 1_555
B2 Rb2 3.266203 1_555
B3 O22 1.349864 1_555
B3 O27 1.402040 1_555
B3 O21 1.405817 1_556
B4 O24 1.349864 1_555
B4 O2 1.402040 1_555
B4 O18 1.405817 1_556
B5 O17 1.349864 1_555
B5 O1 1.402040 1_555
B5 O11 1.405817 1_555
B6 O31 1.349864 1_555
B6 O19 1.402040 1_555
B6 O6 1.405817 1_555
B7 O10 1.349864 1_555
B7 O34 1.402040 1_555
B7 O14 1.405817 1_555
B8 O30 1.376979 1_555
B8 O3 1.376979 1_555
B8 O35 1.380879 1_555
B8 Rb3 3.266203 1_555
B9 O25 1.349864 1_555
B9 O13 1.402040 1_555
B9 O32 1.405817 1_554
B10 O5 1.349864 1_555
B10 O15 1.402040 1_555
B10 O20 1.405817 1_554
B11 O12 1.349864 1_555
B11 O7 1.402040 1_555
B11 O4 1.405817 1_555
O0 Rb1 3.298923 1_555
O1 Rb0 3.214618 1_545
O2 Rb3 3.214618 1_555
O3 Rb3 3.298923 1_655
O5 Rb2 3.006066 1_555
O5 Rb1 3.037375 1_555
O7 Rb2 3.214618 1_555
O8 Rb2 3.473222 1_555
O9 Rb1 3.473222 1_455
O10 Rb3 3.006066 1_555
O10 Rb0 3.037375 1_555
O12 Rb2 3.006066 1_555
O12 Rb1 3.037375 1_555
O13 Rb1 3.214618 1_565
O15 Rb2 3.214618 1_555
O16 Rb1 3.298923 1_555
O17 Rb0 3.006066 1_545
O17 Rb3 3.037375 1_555
O19 Rb1 3.214618 1_565
O22 Rb0 3.006066 1_545
O22 Rb3 3.037375 1_555
O23 Rb3 3.473222 1_555
O24 Rb3 3.006066 1_555
O24 Rb0 3.037375 1_555
O25 Rb1 3.006066 1_565
O25 Rb2 3.037375 1_555
O26 Rb0 3.298923 1_555
O27 Rb0 3.214618 1_545
O28 Rb2 3.298923 1_455
O29 Rb2 3.298923 1_455
O30 Rb3 3.298923 1_655
O31 Rb1 3.006066 1_565
O31 Rb2 3.037375 1_555
O33 Rb0 3.298923 1_555
O34 Rb3 3.214618 1_555
O35 Rb0 3.473222 1_655
