# generated using pymatgen
data_Nd2Fe23B3
_symmetry_space_group_name_H-M   'P 1'
_cell_length_a   12.19019090
_cell_length_b   12.19019090
_cell_length_c   12.19019090
_cell_angle_alpha   109.47122063
_cell_angle_beta   109.47122063
_cell_angle_gamma   109.47122063
_symmetry_Int_Tables_number   1
_chemical_formula_structural   Nd2Fe23B3
_chemical_formula_sum   'Nd8 Fe92 B12'
_cell_volume   1394.47145951
_cell_formula_units_Z   4
loop_
 _symmetry_equiv_pos_site_id
 _symmetry_equiv_pos_as_xyz
  1  'x, y, z'
loop_
 _atom_site_type_symbol
 _atom_site_label
 _atom_site_symmetry_multiplicity
 _atom_site_fract_x
 _atom_site_fract_y
 _atom_site_fract_z
 _atom_site_occupancy
  Nd  Nd0  1  0.00000000  0.38490400  0.50000000  1
  Nd  Nd1  1  0.61509600  0.61509600  0.61509600  1
  Nd  Nd2  1  0.00000000  0.88490400  0.50000000  1
  Nd  Nd3  1  0.50000000  0.00000000  0.88490400  1
  Nd  Nd4  1  0.88490400  0.50000000  0.00000000  1
  Nd  Nd5  1  0.50000000  0.00000000  0.38490400  1
  Nd  Nd6  1  0.38490400  0.50000000  0.00000000  1
  Nd  Nd7  1  0.11509600  0.11509600  0.11509600  1
  Fe  Fe0  1  0.74876000  0.93881400  0.44421300  1
  Fe  Fe1  1  0.69005500  0.69545300  0.25124000  1
  Fe  Fe2  1  0.58010500  0.25000000  0.83010500  1
  Fe  Fe3  1  0.50000000  0.00000000  0.13714200  1
  Fe  Fe4  1  0.49460200  0.55578700  0.80454700  1
  Fe  Fe5  1  0.95332300  0.09615200  0.67689500  1
  Fe  Fe6  1  0.13714200  0.50000000  0.00000000  1
  Fe  Fe7  1  0.00539800  0.80994500  0.06118600  1
  Fe  Fe8  1  0.27642800  0.82310500  0.91925700  1
  Fe  Fe9  1  0.56725300  0.82959100  0.19134300  1
  Fe  Fe10  1  0.67689500  0.95332300  0.09615200  1
  Fe  Fe11  1  0.08010500  0.33010500  0.75000000  1
  Fe  Fe12  1  0.75000000  0.08010500  0.33010500  1
  Fe  Fe13  1  0.63714200  0.50000000  0.00000000  1
  Fe  Fe14  1  0.87591000  0.63824800  0.80865700  1
  Fe  Fe15  1  0.82959100  0.19134300  0.56725300  1
  Fe  Fe16  1  0.63824800  0.80865700  0.87591000  1
  Fe  Fe17  1  0.30865700  0.13824800  0.37591000  1
  Fe  Fe18  1  0.93881400  0.44421300  0.74876000  1
  Fe  Fe19  1  0.04667700  0.64282900  0.72357200  1
  Fe  Fe20  1  0.83010500  0.58010500  0.25000000  1
  Fe  Fe21  1  0.36285800  0.36285800  0.36285800  1
  Fe  Fe22  1  0.80454700  0.49460200  0.55578700  1
  Fe  Fe23  1  0.77642800  0.41925700  0.32310500  1
  Fe  Fe24  1  0.90384800  0.08074300  0.85717100  1
  Fe  Fe25  1  0.43274700  0.76233700  0.62408900  1
  Fe  Fe26  1  0.50000000  0.00000000  0.63714200  1
  Fe  Fe27  1  0.69545300  0.25124000  0.69005500  1
  Fe  Fe28  1  0.94421300  0.43881400  0.24876000  1
  Fe  Fe29  1  0.25000000  0.41989500  0.16989500  1
  Fe  Fe30  1  0.26233700  0.93274700  0.12408900  1
  Fe  Fe31  1  0.55578700  0.80454700  0.49460200  1
  Fe  Fe32  1  0.19545300  0.19005500  0.75124000  1
  Fe  Fe33  1  0.24876000  0.94421300  0.43881400  1
  Fe  Fe34  1  0.19134300  0.56725300  0.82959100  1
  Fe  Fe35  1  0.08074300  0.85717100  0.90384800  1
  Fe  Fe36  1  0.86285800  0.86285800  0.86285800  1
  Fe  Fe37  1  0.22357200  0.14282900  0.54667700  1
  Fe  Fe38  1  0.36175200  0.67040900  0.23766300  1
  Fe  Fe39  1  0.32310500  0.77642800  0.41925700  1
  Fe  Fe40  1  0.25124000  0.69005500  0.69545300  1
  Fe  Fe41  1  0.73766300  0.17040900  0.86175200  1
  Fe  Fe42  1  0.17689500  0.59615200  0.45332300  1
  Fe  Fe43  1  0.05578700  0.99460200  0.30454700  1
  Fe  Fe44  1  0.69134300  0.32959100  0.06725300  1
  Fe  Fe45  1  0.43881400  0.24876000  0.94421300  1
  Fe  Fe46  1  0.75124000  0.19545300  0.19005500  1
  Fe  Fe47  1  0.45332300  0.17689500  0.59615200  1
  Fe  Fe48  1  0.00000000  0.13714200  0.50000000  1
  Fe  Fe49  1  0.09615200  0.67689500  0.95332300  1
  Fe  Fe50  1  0.16989500  0.25000000  0.41989500  1
  Fe  Fe51  1  0.75000000  0.66989500  0.91989500  1
  Fe  Fe52  1  0.85717100  0.90384800  0.08074300  1
  Fe  Fe53  1  0.80865700  0.87591000  0.63824800  1
  Fe  Fe54  1  0.25000000  0.83010500  0.58010500  1
  Fe  Fe55  1  0.12408900  0.26233700  0.93274700  1
  Fe  Fe56  1  0.66989500  0.91989500  0.75000000  1
  Fe  Fe57  1  0.30994500  0.50539800  0.56118600  1
  Fe  Fe58  1  0.54667700  0.22357200  0.14282900  1
  Fe  Fe59  1  0.14282900  0.54667700  0.22357200  1
  Fe  Fe60  1  0.50539800  0.56118600  0.30994500  1
  Fe  Fe61  1  0.62409000  0.43274700  0.76233700  1
  Fe  Fe62  1  0.56118600  0.30994500  0.50539800  1
  Fe  Fe63  1  0.59615200  0.45332300  0.17689500  1
  Fe  Fe64  1  0.58074300  0.40384800  0.35717100  1
  Fe  Fe65  1  0.06118600  0.00539800  0.80994500  1
  Fe  Fe66  1  0.19005500  0.75124000  0.19545300  1
  Fe  Fe67  1  0.33010500  0.75000000  0.08010500  1
  Fe  Fe68  1  0.23766300  0.36175200  0.67040900  1
  Fe  Fe69  1  0.91925700  0.27642800  0.82310500  1
  Fe  Fe70  1  0.13824800  0.37591000  0.30865700  1
  Fe  Fe71  1  0.80994500  0.06118600  0.00539800  1
  Fe  Fe72  1  0.91989500  0.75000000  0.66989500  1
  Fe  Fe73  1  0.99460200  0.30454700  0.05578700  1
  Fe  Fe74  1  0.40384800  0.35717100  0.58074300  1
  Fe  Fe75  1  0.37591100  0.30865700  0.13824800  1
  Fe  Fe76  1  0.17040900  0.86175200  0.73766300  1
  Fe  Fe77  1  0.82310500  0.91925700  0.27642800  1
  Fe  Fe78  1  0.44421300  0.74876000  0.93881400  1
  Fe  Fe79  1  0.00000000  0.63714200  0.50000000  1
  Fe  Fe80  1  0.06725300  0.69134300  0.32959100  1
  Fe  Fe81  1  0.86175200  0.73766300  0.17040900  1
  Fe  Fe82  1  0.64282900  0.72357200  0.04667700  1
  Fe  Fe83  1  0.76233700  0.62409000  0.43274700  1
  Fe  Fe84  1  0.67040900  0.23766300  0.36175200  1
  Fe  Fe85  1  0.35717100  0.58074300  0.40384800  1
  Fe  Fe86  1  0.41925700  0.32310500  0.77642800  1
  Fe  Fe87  1  0.30454700  0.05578700  0.99460200  1
  Fe  Fe88  1  0.93274700  0.12408900  0.26233700  1
  Fe  Fe89  1  0.32959100  0.06725300  0.69134300  1
  Fe  Fe90  1  0.72357200  0.04667700  0.64282900  1
  Fe  Fe91  1  0.41989500  0.16989500  0.25000000  1
  B  B0  1  0.93695900  0.25000000  0.18695900  1
  B  B1  1  0.81304100  0.25000000  0.06304100  1
  B  B2  1  0.56304100  0.75000000  0.31304100  1
  B  B3  1  0.31304100  0.56304100  0.75000000  1
  B  B4  1  0.68695900  0.75000000  0.43695900  1
  B  B5  1  0.75000000  0.43695900  0.68695900  1
  B  B6  1  0.75000000  0.31304100  0.56304100  1
  B  B7  1  0.06304100  0.81304100  0.25000000  1
  B  B8  1  0.18695900  0.93695900  0.25000000  1
  B  B9  1  0.43695900  0.68695900  0.75000000  1
  B  B10  1  0.25000000  0.18695900  0.93695900  1
  B  B11  1  0.25000000  0.06304100  0.81304100  1
loop_
_geom_bond_atom_site_label_1
_geom_bond_atom_site_label_2
_geom_bond_distance
_geom_bond_site_symmetry_2
Fe0 Fe77 2.473112 1_555
Fe0 Fe90 2.515477 1_565
Fe0 Fe5 2.532117 1_565
Fe0 Fe12 2.548629 1_565
Fe0 Fe48 2.875156 1_665
Fe0 Nd2 3.244300 1_655
Fe0 Nd5 3.268093 1_565
Fe1 Fe63 2.473112 1_555
Fe1 Fe77 2.515474 1_555
Fe1 Fe82 2.532116 1_555
Fe1 Fe20 2.548618 1_555
Fe1 Fe13 2.875151 1_555
Fe1 Nd6 3.244307 1_555
Fe1 Nd2 3.268086 1_655
Fe2 Fe86 2.401096 1_555
Fe2 Fe47 2.401096 1_555
Fe2 Fe44 2.403528 1_556
Fe2 Fe41 2.403539 1_555
Fe2 Fe27 2.548618 1_555
Fe2 Fe45 2.548629 1_555
Fe2 Fe89 2.580409 1_555
Fe2 Fe61 2.580417 1_555
Fe2 Fe26 2.734935 1_555
Fe2 Nd4 3.239668 1_556
Fe2 Nd3 3.239668 1_555
Fe3 Fe8 2.563241 1_544
Fe3 Fe58 2.563241 1_555
Fe3 Fe9 2.667055 1_545
Fe3 Fe84 2.667060 1_555
Fe3 Fe30 2.667061 1_545
Fe3 Fe67 2.734935 1_545
Fe3 Fe91 2.734935 1_555
Fe3 Fe87 2.875151 1_554
Fe3 Fe46 2.875151 1_555
Fe3 Fe78 2.875156 1_544
Fe3 Nd5 3.020266 1_555
Fe3 Nd3 3.074829 1_554
Fe4 Fe82 2.473112 1_556
Fe4 Fe74 2.515474 1_555
Fe4 Fe86 2.532116 1_555
Fe4 Fe51 2.548618 1_555
Fe4 Nd6 3.244307 1_556
Fe4 Nd1 3.268086 1_555
Fe5 Fe53 2.446727 1_545
Fe5 Fe90 2.512316 1_555
Fe5 Fe65 2.515479 1_655
Fe5 Fe69 2.582477 1_555
Fe5 Fe55 2.610139 1_655
Fe5 Nd2 3.114160 1_645
Fe6 Fe69 2.563241 1_454
Fe6 Fe67 2.734935 1_555
Fe6 Fe73 2.875151 1_455
Fe6 Fe66 2.875151 1_555
Fe6 Nd6 3.020266 1_555
Fe6 Nd4 3.074829 1_455
Fe7 Nd7 3.244311 1_565
Fe7 Nd4 3.268082 1_455
Fe8 Fe87 2.532116 1_565
Fe8 Nd3 3.114160 1_565
Fe9 Nd5 3.116426 1_565
Fe9 Nd6 3.296368 1_555
Fe10 Fe12 2.401096 1_565
Fe10 Fe16 2.446727 1_554
Fe10 Fe46 2.473112 1_565
Fe10 Fe9 2.502947 1_555
Fe10 Fe82 2.512316 1_555
Fe10 Fe52 2.512316 1_555
Fe10 Fe71 2.515479 1_565
Fe10 Fe78 2.532117 1_554
Fe10 Fe3 2.563241 1_565
Fe10 Fe77 2.582477 1_555
Fe10 Fe88 2.610139 1_565
Fe10 Nd3 3.114160 1_564
Fe11 Fe69 2.401096 1_455
Fe11 Fe5 2.401096 1_455
Fe11 Fe34 2.403528 1_555
Fe11 Fe68 2.403539 1_555
Fe11 Fe32 2.548618 1_555
Fe11 Fe18 2.548629 1_455
Fe11 Fe15 2.580409 1_455
Fe11 Fe55 2.580417 1_555
Fe11 Fe48 2.734935 1_555
Fe11 Fe6 2.734935 1_556
Fe11 Nd6 3.239668 1_556
Fe11 Nd0 3.239668 1_555
Fe12 Fe77 2.401096 1_545
Fe12 Fe15 2.403528 1_555
Fe12 Fe84 2.403539 1_555
Fe12 Fe46 2.548618 1_555
Fe12 Fe9 2.580409 1_545
Fe12 Fe88 2.580417 1_555
Fe12 Fe3 2.734935 1_555
Fe12 Fe48 2.734935 1_655
Fe12 Nd0 3.239668 1_655
Fe12 Nd5 3.239668 1_555
Fe13 Fe63 2.563241 1_555
Fe13 Fe86 2.563241 1_554
Fe13 Fe82 2.563241 1_555
Fe13 Fe44 2.667055 1_555
Fe13 Fe81 2.667060 1_555
Fe13 Fe61 2.667066 1_554
Fe13 Fe2 2.734935 1_554
Fe13 Fe20 2.734935 1_555
Fe13 Fe51 2.734935 1_554
Fe13 Fe4 2.875151 1_554
Fe13 Fe45 2.875156 1_554
Fe13 Nd4 3.020266 1_555
Fe13 Nd6 3.074829 1_555
Fe14 Fe51 2.403528 1_555
Fe14 Fe49 2.446727 1_655
Fe14 Fe35 2.502947 1_655
Fe14 Fe72 2.580409 1_555
Fe14 Fe19 2.610142 1_655
Fe14 Fe36 2.667055 1_555
Fe14 Nd1 3.116426 1_555
Fe14 Nd4 3.296368 1_556
Fe15 Fe90 2.446727 1_555
Fe15 Fe5 2.502947 1_555
Fe15 Fe69 2.610142 1_555
Fe15 Fe48 2.667055 1_655
Fe15 Nd0 3.116426 1_655
Fe15 Nd5 3.296368 1_555
Fe16 Fe56 2.403528 1_555
Fe16 Fe52 2.502947 1_556
Fe16 Fe51 2.580409 1_555
Fe16 Fe82 2.610142 1_556
Fe16 Fe36 2.667055 1_555
Fe16 Nd1 3.116426 1_555
Fe16 Nd3 3.296368 1_565
Fe17 Fe91 2.403528 1_555
Fe17 Fe47 2.446727 1_555
Fe17 Fe74 2.502947 1_555
Fe17 Fe50 2.580409 1_555
Fe17 Fe37 2.610142 1_555
Fe17 Fe21 2.667055 1_555
Fe17 Nd7 3.116426 1_555
Fe17 Nd5 3.296368 1_555
Fe18 Fe69 2.473112 1_555
Fe18 Fe19 2.515477 1_655
Fe18 Fe49 2.532117 1_655
Fe18 Fe6 2.875156 1_656
Fe18 Nd4 3.244300 1_556
Fe18 Nd0 3.268093 1_655
Fe19 Fe72 2.401096 1_455
Fe19 Fe34 2.446727 1_555
Fe19 Fe22 2.473112 1_455
Fe19 Fe76 2.502941 1_555
Fe19 Fe49 2.512316 1_555
Fe19 Fe8 2.512316 1_555
Fe19 Fe40 2.532116 1_555
Fe19 Fe79 2.563241 1_555
Fe19 Fe35 2.582477 1_555
Fe19 Nd0 3.114160 1_555
Fe20 Fe23 2.401096 1_555
Fe20 Fe63 2.401096 1_555
Fe20 Fe80 2.403528 1_655
Fe20 Fe81 2.403539 1_555
Fe20 Fe28 2.548629 1_555
Fe20 Fe44 2.580409 1_555
Fe20 Fe83 2.580417 1_555
Fe20 Fe79 2.734935 1_655
Fe20 Nd4 3.239668 1_555
Fe20 Nd2 3.239668 1_655
Fe21 Fe85 2.563241 1_555
Fe21 Fe74 2.563241 1_555
Fe21 Fe64 2.563241 1_555
Fe21 Fe70 2.667055 1_555
Fe21 Fe75 2.667060 1_555
Fe21 Fe91 2.734935 1_555
Fe21 Fe50 2.734935 1_555
Fe21 Fe29 2.734935 1_555
Fe21 Fe62 2.875160 1_555
Fe21 Fe60 2.875160 1_555
Fe21 Fe57 2.875160 1_555
Fe21 Nd7 3.020266 1_555
Fe21 Nd1 3.074829 1_555
Fe22 Fe64 2.515474 1_555
Fe22 Fe23 2.532116 1_555
Fe22 Fe72 2.548618 1_555
Fe22 Fe79 2.875151 1_655
Fe22 Nd0 3.244307 1_655
Fe22 Nd1 3.268086 1_555
Fe23 Fe84 2.446718 1_555
Fe23 Fe28 2.473112 1_555
Fe23 Fe83 2.502954 1_555
Fe23 Fe64 2.512316 1_555
Fe23 Fe58 2.512316 1_555
Fe23 Fe46 2.515474 1_555
Fe23 Fe79 2.563241 1_655
Fe23 Fe63 2.582477 1_555
Fe23 Fe44 2.610142 1_555
Fe23 Nd0 3.114160 1_655
Fe24 Fe56 2.401096 1_545
Fe24 Fe55 2.446714 1_655
Fe24 Fe71 2.473109 1_556
Fe24 Fe53 2.502947 1_545
Fe24 Fe5 2.512316 1_555
Fe24 Fe69 2.512316 1_555
Fe24 Fe73 2.515474 1_556
Fe24 Fe65 2.532128 1_655
Fe24 Fe36 2.563241 1_545
Fe24 Fe90 2.582477 1_555
Fe24 Fe41 2.610131 1_555
Fe24 Nd7 3.114160 1_656
Fe25 Fe56 2.403530 1_555
Fe25 Fe85 2.446714 1_555
Fe25 Fe39 2.502944 1_555
Fe25 Fe54 2.580417 1_555
Fe25 Fe42 2.610139 1_555
Fe25 Fe26 2.667061 1_565
Fe25 Nd3 3.116440 1_565
Fe25 Nd1 3.296358 1_555
Fe26 Fe47 2.563241 1_555
Fe26 Fe39 2.563241 1_545
Fe26 Fe90 2.563241 1_555
Fe26 Fe89 2.667055 1_555
Fe26 Fe41 2.667060 1_555
Fe26 Fe54 2.734935 1_545
Fe26 Fe56 2.734935 1_545
Fe26 Fe31 2.875151 1_545
Fe26 Fe27 2.875151 1_555
Fe26 Fe33 2.875156 1_545
Fe26 Nd3 3.020266 1_555
Fe26 Nd5 3.074829 1_555
Fe27 Fe47 2.473112 1_555
Fe27 Fe69 2.515474 1_555
Fe27 Fe90 2.532116 1_555
Fe27 Nd5 3.244307 1_555
Fe27 Nd4 3.268086 1_556
Fe28 Fe59 2.515477 1_655
Fe28 Fe42 2.532117 1_655
Fe28 Fe79 2.875156 1_655
Fe28 Nd0 3.244300 1_655
Fe28 Nd4 3.268093 1_555
Fe29 Fe85 2.401096 1_555
Fe29 Fe59 2.401096 1_555
Fe29 Fe55 2.403530 1_554
Fe29 Fe75 2.403539 1_555
Fe29 Fe73 2.548618 1_455
Fe29 Fe60 2.548619 1_555
Fe29 Fe38 2.580406 1_555
Fe29 Fe70 2.580409 1_555
Fe29 Fe6 2.734935 1_555
Fe29 Nd6 3.239668 1_555
Fe29 Nd7 3.239668 1_555
Fe30 Fe91 2.403530 1_565
Fe30 Fe35 2.446714 1_554
Fe30 Fe8 2.502944 1_554
Fe30 Fe67 2.580417 1_555
Fe30 Fe49 2.610139 1_554
Fe30 Nd5 3.116440 1_565
Fe30 Nd7 3.296358 1_565
Fe31 Fe90 2.473112 1_565
Fe31 Fe85 2.515474 1_555
Fe31 Fe39 2.532116 1_555
Fe31 Fe56 2.548618 1_555
Fe31 Nd5 3.244307 1_565
Fe31 Nd1 3.268086 1_555
Fe32 Fe5 2.473112 1_455
Fe32 Fe86 2.515474 1_555
Fe32 Fe37 2.532116 1_555
Fe32 Fe48 2.875151 1_555
Fe32 Nd2 3.244307 1_545
Fe32 Nd6 3.268086 1_556
Fe33 Fe39 2.473112 1_555
Fe33 Fe37 2.515477 1_565
Fe33 Fe47 2.532117 1_565
Fe33 Fe54 2.548629 1_555
Fe33 Nd5 3.244300 1_565
Fe33 Nd2 3.268093 1_555
Fe34 Fe49 2.502947 1_555
Fe34 Fe67 2.580409 1_556
Fe34 Fe8 2.610142 1_555
Fe34 Fe6 2.667055 1_556
Fe34 Nd6 3.116426 1_556
Fe34 Nd0 3.296368 1_555
Fe35 Fe72 2.401096 1_455
Fe35 Fe65 2.473109 1_565
Fe35 Fe49 2.512316 1_555
Fe35 Fe8 2.512316 1_555
Fe35 Fe87 2.515474 1_565
Fe35 Fe7 2.532128 1_556
Fe35 Fe36 2.563241 1_455
Fe35 Fe76 2.610131 1_555
Fe35 Nd7 3.114160 1_566
Fe36 Fe52 2.563241 1_556
Fe36 Fe53 2.667055 1_555
Fe36 Fe72 2.734935 1_555
Fe36 Fe56 2.734935 1_555
Fe36 Fe51 2.734935 1_555
Fe36 Fe71 2.875160 1_566
Fe36 Fe7 2.875160 1_656
Fe36 Fe65 2.875160 1_665
Fe36 Nd1 3.020266 1_555
Fe36 Nd7 3.074829 1_666
Fe37 Fe50 2.401096 1_555
Fe37 Fe89 2.446727 1_555
Fe37 Fe43 2.473112 1_545
Fe37 Fe68 2.502941 1_555
Fe37 Fe47 2.512316 1_555
Fe37 Fe86 2.512316 1_555
Fe37 Fe48 2.563241 1_555
Fe37 Fe74 2.582477 1_555
Fe37 Nd2 3.114160 1_545
Fe38 Fe67 2.403539 1_555
Fe38 Fe39 2.446718 1_555
Fe38 Fe59 2.502941 1_555
Fe38 Fe85 2.610131 1_555
Fe38 Fe6 2.667060 1_555
Fe38 Nd6 3.116435 1_555
Fe38 Nd5 3.296368 1_565
Fe39 Fe54 2.401096 1_555
Fe39 Fe85 2.512316 1_555
Fe39 Fe59 2.512316 1_555
Fe39 Fe66 2.515474 1_555
Fe39 Fe42 2.582477 1_555
Fe39 Fe80 2.610142 1_555
Fe39 Nd5 3.114160 1_565
Fe40 Fe42 2.473112 1_555
Fe40 Fe8 2.515474 1_555
Fe40 Fe54 2.548618 1_555
Fe40 Fe79 2.875151 1_555
Fe40 Nd0 3.244307 1_555
Fe40 Nd3 3.268086 1_565
Fe41 Fe69 2.446718 1_555
Fe41 Fe90 2.502941 1_555
Fe41 Fe56 2.580406 1_545
Fe41 Nd3 3.116435 1_555
Fe41 Nd4 3.296368 1_556
Fe42 Fe54 2.401096 1_555
Fe42 Fe70 2.446727 1_555
Fe42 Fe80 2.502947 1_555
Fe42 Fe85 2.512316 1_555
Fe42 Fe59 2.512316 1_555
Fe42 Fe57 2.515479 1_555
Fe42 Fe79 2.563241 1_555
Fe42 Nd0 3.114160 1_555
Fe43 Fe52 2.515474 1_455
Fe43 Fe77 2.532116 1_455
Fe43 Fe50 2.548618 1_565
Fe43 Fe48 2.875151 1_565
Fe43 Nd2 3.244307 1_555
Fe43 Nd7 3.268086 1_565
Fe44 Fe58 2.446727 1_555
Fe44 Fe63 2.502947 1_555
Fe44 Nd4 3.116426 1_555
Fe44 Nd3 3.296368 1_554
Fe45 Fe86 2.473112 1_555
Fe45 Fe58 2.515477 1_556
Fe45 Fe63 2.532117 1_556
Fe45 Nd6 3.244300 1_556
Fe45 Nd3 3.268093 1_555
Fe46 Fe58 2.532116 1_555
Fe46 Nd3 3.244307 1_554
Fe46 Nd0 3.268086 1_655
Fe47 Fe89 2.502947 1_555
Fe47 Fe74 2.512316 1_555
Fe47 Fe62 2.515479 1_555
Fe47 Fe86 2.582477 1_555
Fe47 Fe61 2.610141 1_555
Fe47 Nd5 3.114160 1_555
Fe48 Fe77 2.563241 1_445
Fe48 Fe5 2.563241 1_455
Fe48 Fe68 2.667060 1_555
Fe48 Fe88 2.667061 1_455
Fe48 Fe50 2.734935 1_555
Fe48 Nd0 3.020266 1_555
Fe48 Nd2 3.074829 1_545
Fe49 Fe67 2.401096 1_556
Fe49 Fe66 2.473112 1_556
Fe49 Fe7 2.515479 1_556
Fe49 Fe6 2.563241 1_556
Fe49 Fe8 2.582477 1_555
Fe49 Nd4 3.114160 1_456
Fe50 Fe74 2.401096 1_555
Fe50 Fe70 2.403528 1_555
Fe50 Fe88 2.403530 1_455
Fe50 Fe57 2.548619 1_555
Fe50 Fe68 2.580406 1_555
Fe50 Nd0 3.239668 1_555
Fe50 Nd7 3.239668 1_555
Fe51 Fe82 2.401096 1_556
Fe51 Fe52 2.401096 1_556
Fe51 Fe61 2.403530 1_555
Fe51 Fe7 2.548619 1_656
Fe51 Fe81 2.580406 1_556
Fe51 Nd1 3.239668 1_555
Fe51 Nd4 3.239668 1_556
Fe52 Fe88 2.446714 1_565
Fe52 Fe7 2.473109 1_655
Fe52 Fe77 2.512316 1_555
Fe52 Fe71 2.532128 1_565
Fe52 Fe82 2.582477 1_555
Fe52 Fe81 2.610131 1_555
Fe52 Nd7 3.114160 1_665
Fe53 Fe72 2.403528 1_555
Fe53 Fe56 2.580409 1_555
Fe53 Fe90 2.610142 1_565
Fe53 Nd1 3.116426 1_555
Fe53 Nd2 3.296368 1_655
Fe54 Fe89 2.403528 1_565
Fe54 Fe76 2.403539 1_555
Fe54 Fe80 2.580409 1_555
Fe54 Fe79 2.734935 1_555
Fe54 Nd3 3.239668 1_565
Fe54 Nd2 3.239668 1_555
Fe55 Fe69 2.502944 1_455
Fe55 Fe6 2.667061 1_556
Fe55 Nd6 3.116440 1_556
Fe55 Nd7 3.296358 1_556
Fe56 Fe90 2.401096 1_565
Fe56 Fe71 2.548619 1_566
Fe56 Nd1 3.239668 1_555
Fe56 Nd3 3.239668 1_565
Fe57 Fe74 2.473109 1_555
Fe57 Fe85 2.532128 1_555
Fe57 Nd1 3.244311 1_555
Fe57 Nd0 3.268082 1_555
Fe58 Fe91 2.401096 1_555
Fe58 Fe87 2.473112 1_554
Fe58 Fe84 2.502941 1_555
Fe58 Fe63 2.512316 1_555
Fe58 Fe64 2.582477 1_555
Fe58 Fe75 2.610131 1_555
Fe58 Nd3 3.114160 1_554
Fe59 Fe80 2.446727 1_555
Fe59 Fe73 2.473112 1_455
Fe59 Fe66 2.532116 1_555
Fe59 Fe6 2.563241 1_555
Fe59 Fe85 2.582477 1_555
Fe59 Fe70 2.610142 1_555
Fe59 Nd4 3.114160 1_455
Fe60 Fe85 2.473109 1_555
Fe60 Fe63 2.515479 1_555
Fe60 Fe64 2.532128 1_555
Fe60 Nd1 3.244311 1_555
Fe60 Nd6 3.268082 1_555
Fe61 Fe74 2.446722 1_555
Fe61 Fe86 2.502954 1_555
Fe61 Nd4 3.116432 1_556
Fe61 Nd1 3.296359 1_555
Fe62 Fe64 2.473109 1_555
Fe62 Fe74 2.532128 1_555
Fe62 Fe91 2.548619 1_555
Fe62 Nd1 3.244311 1_555
Fe62 Nd5 3.268082 1_555
Fe63 Fe75 2.446718 1_555
Fe63 Fe64 2.512316 1_555
Fe63 Fe83 2.610141 1_555
Fe63 Nd6 3.114160 1_555
Fe64 Fe91 2.401096 1_555
Fe64 Fe83 2.446722 1_555
Fe64 Fe75 2.502941 1_555
Fe64 Fe84 2.610131 1_555
Fe64 Nd1 3.114160 1_555
Fe65 Fe72 2.548619 1_445
Fe65 Nd7 3.244311 1_556
Fe65 Nd2 3.268082 1_545
Fe66 Fe67 2.548618 1_555
Fe66 Nd4 3.244307 1_455
Fe66 Nd5 3.268086 1_565
Fe67 Fe8 2.401096 1_554
Fe67 Fe9 2.403528 1_555
Fe67 Fe78 2.548629 1_554
Fe67 Nd5 3.239668 1_565
Fe67 Nd6 3.239668 1_555
Fe68 Fe86 2.446718 1_555
Fe68 Fe74 2.610131 1_555
Fe68 Nd0 3.116435 1_555
Fe68 Nd6 3.296368 1_556
Fe69 Fe90 2.512316 1_555
Fe69 Fe73 2.532116 1_556
Fe69 Nd4 3.114160 1_556
Fe70 Fe85 2.502947 1_555
Fe70 Nd7 3.116426 1_555
Fe70 Nd0 3.296368 1_555
Fe71 Nd7 3.244311 1_655
Fe71 Nd3 3.268082 1_554
Fe72 Fe83 2.403530 1_555
Fe72 Fe76 2.580406 1_655
Fe72 Fe79 2.734935 1_655
Fe72 Nd1 3.239668 1_555
Fe72 Nd2 3.239668 1_655
Fe73 Nd4 3.244307 1_555
Fe73 Nd7 3.268086 1_655
Fe74 Fe86 2.512316 1_555
Fe74 Nd1 3.114160 1_555
Fe75 Fe91 2.580406 1_555
Fe75 Nd7 3.116435 1_555
Fe75 Nd6 3.296368 1_555
Fe76 Fe8 2.446718 1_555
Fe76 Fe79 2.667060 1_555
Fe76 Nd2 3.116435 1_555
Fe76 Nd3 3.296368 1_565
Fe77 Fe81 2.446718 1_555
Fe77 Fe88 2.502944 1_565
Fe77 Fe82 2.512316 1_555
Fe77 Fe9 2.610142 1_555
Fe77 Nd2 3.114160 1_655
Fe78 Fe8 2.473112 1_555
Fe78 Fe82 2.515477 1_556
Fe78 Nd3 3.244300 1_565
Fe78 Nd6 3.268093 1_556
Fe79 Fe80 2.667055 1_555
Fe79 Fe83 2.667066 1_455
Fe79 Nd2 3.020266 1_555
Fe79 Nd0 3.074829 1_555
Fe80 Nd2 3.116426 1_555
Fe80 Nd4 3.296368 1_455
Fe81 Fe82 2.502941 1_555
Fe81 Nd4 3.116435 1_555
Fe81 Nd2 3.296368 1_655
Fe82 Fe9 2.446727 1_555
Fe82 Nd6 3.114160 1_555
Fe83 Nd2 3.116432 1_655
Fe83 Nd1 3.296359 1_555
Fe84 Fe91 2.580406 1_555
Fe84 Nd5 3.116435 1_555
Fe84 Nd0 3.296368 1_655
Fe85 Nd1 3.114160 1_555
Fe86 Fe89 2.610142 1_555
Fe86 Nd6 3.114160 1_556
Fe87 Fe91 2.548618 1_556
Fe87 Nd3 3.244307 1_555
Fe87 Nd7 3.268086 1_556
Fe88 Nd0 3.116440 1_655
Fe88 Nd7 3.296358 1_655
Fe89 Nd3 3.116426 1_555
Fe89 Nd2 3.296368 1_545
Fe90 Nd5 3.114160 1_555
Fe91 Nd7 3.239668 1_555
Fe91 Nd5 3.239668 1_555
B0 B1 1.744272 1_555
B0 Fe70 2.030261 1_655
B0 Fe88 2.030263 1_555
B0 Fe28 2.130023 1_555
B0 Fe71 2.130029 1_555
B0 Fe46 2.153866 1_555
B0 Fe73 2.153866 1_555
B0 Nd0 3.297854 1_655
B0 Nd7 3.297854 1_655
B1 Fe44 2.030261 1_555
B1 Fe41 2.030262 1_554
B1 Fe46 2.130035 1_555
B1 Fe73 2.130035 1_555
B1 Fe71 2.153854 1_555
B1 Fe28 2.153860 1_555
B1 Nd4 3.297854 1_555
B1 Nd3 3.297854 1_554
B2 B4 1.744272 1_555
B2 Fe9 2.030261 1_555
B2 Fe38 2.030262 1_555
B2 Fe1 2.130035 1_555
B2 Fe31 2.130035 1_555
B2 Fe60 2.153854 1_555
B2 Fe0 2.153860 1_555
B2 Nd6 3.297854 1_555
B2 Nd5 3.297854 1_565
B3 B9 1.744272 1_555
B3 Fe34 2.030261 1_555
B3 Fe68 2.030262 1_555
B3 Fe40 2.130035 1_555
B3 Fe4 2.130035 1_555
B3 Fe57 2.153854 1_555
B3 Fe78 2.153860 1_555
B3 Nd0 3.297854 1_555
B3 Nd6 3.297854 1_556
B4 Fe83 2.030252 1_555
B4 Fe53 2.030261 1_555
B4 Fe0 2.130023 1_555
B4 Fe60 2.130029 1_555
B4 Fe1 2.153866 1_555
B4 Fe31 2.153866 1_555
B4 Nd2 3.297854 1_655
B4 Nd1 3.297854 1_555
B5 B6 1.744272 1_555
B5 Fe61 2.030252 1_555
B5 Fe14 2.030261 1_555
B5 Fe18 2.130023 1_555
B5 Fe62 2.130029 1_555
B5 Fe27 2.153866 1_555
B5 Fe22 2.153866 1_555
B5 Nd4 3.297854 1_556
B5 Nd1 3.297854 1_555
B6 Fe15 2.030261 1_555
B6 Fe84 2.030262 1_555
B6 Fe27 2.130035 1_555
B6 Fe22 2.130035 1_555
B6 Fe62 2.153854 1_555
B6 Fe18 2.153860 1_555
B6 Nd5 3.297854 1_555
B6 Nd0 3.297854 1_655
B7 B8 1.744272 1_555
B7 Fe80 2.030261 1_555
B7 Fe81 2.030262 1_455
B7 Fe66 2.130035 1_555
B7 Fe43 2.130035 1_555
B7 Fe7 2.153854 1_555
B7 Fe33 2.153860 1_555
B7 Nd2 3.297854 1_555
B7 Nd4 3.297854 1_455
B8 Fe17 2.030261 1_565
B8 Fe30 2.030263 1_555
B8 Fe33 2.130023 1_555
B8 Fe7 2.130029 1_555
B8 Fe66 2.153866 1_555
B8 Fe43 2.153866 1_555
B8 Nd5 3.297854 1_565
B8 Nd7 3.297854 1_565
B9 Fe16 2.030261 1_555
B9 Fe25 2.030263 1_555
B9 Fe78 2.130023 1_555
B9 Fe57 2.130029 1_555
B9 Fe40 2.153866 1_555
B9 Fe4 2.153866 1_555
B9 Nd3 3.297854 1_565
B9 Nd1 3.297854 1_555
B10 B11 1.744272 1_555
B10 Fe75 2.030262 1_556
B10 Fe55 2.030263 1_555
B10 Fe45 2.130023 1_555
B10 Fe65 2.130029 1_555
B10 Fe32 2.153866 1_555
B10 Fe87 2.153866 1_555
B10 Nd6 3.297854 1_556
B10 Nd7 3.297854 1_556
B11 Fe89 2.030261 1_555
B11 Fe76 2.030262 1_545
B11 Fe32 2.130035 1_555
B11 Fe87 2.130035 1_555
B11 Fe65 2.153854 1_555
B11 Fe45 2.153860 1_555
B11 Nd2 3.297854 1_545
B11 Nd3 3.297854 1_555
