# generated using pymatgen
data_Hf5Re24
_symmetry_space_group_name_H-M   'P 1'
_cell_length_a   8.42627248
_cell_length_b   8.42627240
_cell_length_c   8.42627296
_cell_angle_alpha   109.47121846
_cell_angle_beta   109.47122421
_cell_angle_gamma   109.47120788
_symmetry_Int_Tables_number   1
_chemical_formula_structural   Hf5Re24
_chemical_formula_sum   'Hf5 Re24'
_cell_volume   460.55837834
_cell_formula_units_Z   1
loop_
 _symmetry_equiv_pos_site_id
 _symmetry_equiv_pos_as_xyz
  1  'x, y, z'
loop_
 _atom_site_type_symbol
 _atom_site_label
 _atom_site_symmetry_multiplicity
 _atom_site_fract_x
 _atom_site_fract_y
 _atom_site_fract_z
 _atom_site_occupancy
  Hf  Hf0  1  0.00000000  0.37210363  0.00000000  1
  Hf  Hf1  1  0.00000000  -0.00000000  -0.00000000  1
  Hf  Hf2  1  -0.00000000  0.00000000  0.37210363  1
  Hf  Hf3  1  0.37210363  0.00000000  0.00000000  1
  Hf  Hf4  1  0.62789637  0.62789637  0.62789637  1
  Re  Re0  1  0.67683843  0.67683843  0.28086560  1
  Re  Re1  1  0.37550010  0.37550010  0.18193883  1
  Re  Re2  1  0.00000000  0.62449990  0.80643874  1
  Re  Re3  1  0.32316157  0.00000000  0.60402617  1
  Re  Re4  1  0.39597383  0.71913440  0.39597383  1
  Re  Re5  1  0.00000000  0.60402617  0.32316157  1
  Re  Re6  1  0.71913440  0.39597383  0.39597383  1
  Re  Re7  1  -0.00000000  0.80643874  0.62449990  1
  Re  Re8  1  0.39597383  0.39597383  0.71913440  1
  Re  Re9  1  0.62449990  0.80643874  -0.00000000  1
  Re  Re10  1  0.28086560  0.67683843  0.67683843  1
  Re  Re11  1  0.67683843  0.28086560  0.67683843  1
  Re  Re12  1  0.81806117  0.19356126  0.19356126  1
  Re  Re13  1  0.19356126  0.19356126  0.81806117  1
  Re  Re14  1  0.60402617  0.32316157  0.00000000  1
  Re  Re15  1  0.80643874  -0.00000000  0.62449990  1
  Re  Re16  1  0.19356126  0.81806117  0.19356126  1
  Re  Re17  1  0.37550010  0.18193883  0.37550010  1
  Re  Re18  1  0.32316157  0.60402617  0.00000000  1
  Re  Re19  1  0.62449990  0.00000000  0.80643874  1
  Re  Re20  1  0.00000000  0.32316157  0.60402617  1
  Re  Re21  1  0.60402617  0.00000000  0.32316157  1
  Re  Re22  1  0.80643874  0.62449990  0.00000000  1
  Re  Re23  1  0.18193883  0.37550010  0.37550010  1
loop_
_geom_bond_atom_site_label_1
_geom_bond_atom_site_label_2
_geom_bond_distance
_geom_bond_site_symmetry_2
Hf0 Re5 2.772434 1_555
Hf0 Re18 2.772434 1_555
Hf0 Re11 2.772437 1_454
Hf0 Re13 3.006491 1_554
Hf0 Re1 3.006491 1_555
Hf0 Re23 3.006491 1_555
Hf0 Re12 3.006492 1_455
Hf0 Re15 3.006492 1_454
Hf0 Re19 3.006492 1_454
Hf0 Re22 3.081520 1_455
Hf0 Re2 3.081520 1_554
Hf0 Re16 3.081520 1_555
Hf0 Hf1 3.135447 1_555
Hf0 Re4 3.222657 1_555
Hf0 Re14 3.222658 1_455
Hf0 Re20 3.222658 1_554
Hf1 Re16 3.038269 1_545
Hf1 Re12 3.038269 1_455
Hf1 Re19 3.038269 1_454
Hf1 Re2 3.038269 1_544
Hf1 Re15 3.038269 1_454
Hf1 Re13 3.038270 1_554
Hf1 Re7 3.038270 1_544
Hf1 Re17 3.038270 1_555
Hf1 Re22 3.038270 1_445
Hf1 Re9 3.038270 1_445
Hf1 Re23 3.038270 1_555
Hf1 Re1 3.038270 1_555
Hf1 Hf3 3.135447 1_555
Hf1 Hf2 3.135447 1_555
Hf1 Hf4 3.135447 1_444
Hf2 Re3 2.772433 1_555
Hf2 Re20 2.772434 1_555
Hf2 Re0 2.772437 1_445
Hf2 Re12 3.006491 1_455
Hf2 Re16 3.006491 1_545
Hf2 Re23 3.006492 1_555
Hf2 Re9 3.006492 1_445
Hf2 Re17 3.006492 1_555
Hf2 Re22 3.006492 1_445
Hf2 Re7 3.081520 1_545
Hf2 Re15 3.081520 1_455
Hf2 Re13 3.081520 1_555
Hf2 Re8 3.222657 1_555
Hf2 Re21 3.222658 1_455
Hf2 Re5 3.222658 1_545
Hf3 Re21 2.772434 1_555
Hf3 Re14 2.772434 1_555
Hf3 Re10 2.772437 1_544
Hf3 Re13 3.006491 1_554
Hf3 Re1 3.006491 1_555
Hf3 Re17 3.006492 1_555
Hf3 Re16 3.006492 1_545
Hf3 Re7 3.006492 1_544
Hf3 Re2 3.006492 1_544
Hf3 Re9 3.081520 1_545
Hf3 Re19 3.081520 1_554
Hf3 Re12 3.081520 1_555
Hf3 Re6 3.222657 1_555
Hf3 Re18 3.222658 1_545
Hf3 Re3 3.222658 1_554
Hf4 Re4 2.772427 1_555
Hf4 Re6 2.772427 1_555
Hf4 Re8 2.772428 1_555
Hf4 Re2 3.006491 1_655
Hf4 Re19 3.006491 1_565
Hf4 Re22 3.006491 1_556
Hf4 Re9 3.006492 1_556
Hf4 Re15 3.006492 1_565
Hf4 Re7 3.006492 1_655
Hf4 Re1 3.081520 1_555
Hf4 Re23 3.081520 1_555
Hf4 Re17 3.081520 1_555
Hf4 Re11 3.222650 1_555
Hf4 Re10 3.222650 1_555
Hf4 Re0 3.222650 1_555
Re0 Re1 2.543455 1_555
Re0 Re7 2.764921 1_655
Re0 Re15 2.764921 1_565
Re0 Re18 2.823103 1_555
Re0 Re14 2.823103 1_555
Re0 Re9 2.887273 1_555
Re0 Re22 2.887273 1_555
Re0 Re6 2.920781 1_555
Re0 Re4 2.920781 1_555
Re0 Re5 2.920789 1_655
Re0 Re21 2.920789 1_565
Re1 Re13 2.503487 1_554
Re1 Re17 2.663412 1_555
Re1 Re23 2.663412 1_555
Re1 Re6 2.764919 1_555
Re1 Re4 2.764919 1_555
Re1 Re18 2.887265 1_555
Re1 Re14 2.887265 1_555
Re2 Re7 2.503487 1_555
Re2 Re20 2.543458 1_555
Re2 Re22 2.663412 1_456
Re2 Re6 2.887267 1_455
Re3 Re7 2.764926 1_545
Re3 Re4 2.823106 1_545
Re3 Re5 2.920789 1_545
Re3 Re8 2.920789 1_555
Re4 Re5 2.920789 1_555
Re5 Re7 2.543458 1_555
Re5 Re6 2.823106 1_455
Re6 Re7 2.887268 1_655
Re8 Re9 2.887268 1_556
Re10 Re23 2.543455 1_555
Re10 Re9 2.764921 1_556
Re10 Re19 2.764922 1_565
Re10 Re5 2.823103 1_555
Re10 Re20 2.823104 1_555
Re10 Re7 2.887273 1_555
Re10 Re2 2.887273 1_555
Re10 Re8 2.920781 1_555
Re10 Re4 2.920781 1_555
Re10 Re3 2.920789 1_565
Re10 Re18 2.920789 1_556
Re11 Re17 2.543455 1_555
Re11 Re22 2.764921 1_556
Re11 Re2 2.764922 1_655
Re11 Re21 2.823103 1_555
Re11 Re3 2.823104 1_555
Re11 Re15 2.887273 1_555
Re11 Re19 2.887273 1_555
Re11 Re8 2.920781 1_555
Re11 Re6 2.920781 1_555
Re11 Re20 2.920789 1_655
Re11 Re14 2.920789 1_556
Re12 Re23 2.503487 1_655
Re12 Re6 2.543464 1_555
Re12 Re19 2.663412 1_554
Re12 Re9 2.663412 1_545
Re12 Re14 2.764926 1_555
Re12 Re21 2.764926 1_555
Re12 Re20 2.887266 1_655
Re12 Re5 2.887266 1_655
Re13 Re8 2.543465 1_555
Re13 Re15 2.663412 1_455
Re13 Re7 2.663412 1_545
Re13 Re20 2.764926 1_555
Re13 Re3 2.764926 1_555
Re13 Re14 2.887266 1_556
Re13 Re18 2.887266 1_556
Re14 Re22 2.543458 1_555
Re14 Re19 2.764926 1_554
Re14 Re8 2.823106 1_554
Re14 Re5 2.920788 1_655
Re14 Re3 2.920788 1_554
Re14 Re6 2.920789 1_555
Re15 Re19 2.503487 1_555
Re15 Re21 2.543458 1_555
Re15 Re7 2.663411 1_645
Re15 Re20 2.764926 1_655
Re15 Re4 2.887268 1_545
Re16 Re17 2.503487 1_565
Re16 Re4 2.543464 1_555
Re16 Re2 2.663412 1_554
Re16 Re22 2.663412 1_455
Re16 Re18 2.764926 1_555
Re16 Re5 2.764926 1_555
Re16 Re3 2.887266 1_565
Re16 Re21 2.887266 1_565
Re17 Re23 2.663412 1_555
Re17 Re8 2.764919 1_555
Re17 Re6 2.764920 1_555
Re17 Re21 2.887265 1_555
Re17 Re3 2.887265 1_555
Re18 Re9 2.543458 1_555
Re18 Re2 2.764926 1_554
Re18 Re8 2.823106 1_554
Re18 Re20 2.920788 1_554
Re18 Re21 2.920789 1_565
Re18 Re4 2.920789 1_555
Re19 Re3 2.543458 1_555
Re19 Re9 2.663412 1_546
Re19 Re4 2.887268 1_545
Re20 Re6 2.823105 1_455
Re20 Re23 2.887266 1_555
Re20 Re21 2.920789 1_455
Re20 Re8 2.920789 1_555
Re21 Re9 2.764926 1_545
Re21 Re4 2.823106 1_545
Re21 Re6 2.920789 1_555
Re22 Re9 2.503486 1_555
Re22 Re5 2.764926 1_655
Re22 Re8 2.887267 1_554
Re23 Re8 2.764919 1_555
Re23 Re4 2.764920 1_555
Re23 Re5 2.887265 1_555
