# generated using pymatgen
data_Ho5Si4
_symmetry_space_group_name_H-M   'P 1'
_cell_length_a   7.38036273
_cell_length_b   7.63316641
_cell_length_c   14.47840057
_cell_angle_alpha   90.00000000
_cell_angle_beta   90.00000000
_cell_angle_gamma   90.00001573
_symmetry_Int_Tables_number   1
_chemical_formula_structural   Ho5Si4
_chemical_formula_sum   'Ho20 Si16'
_cell_volume   815.64846934
_cell_formula_units_Z   4
loop_
 _symmetry_equiv_pos_site_id
 _symmetry_equiv_pos_as_xyz
  1  'x, y, z'
loop_
 _atom_site_type_symbol
 _atom_site_label
 _atom_site_symmetry_multiplicity
 _atom_site_fract_x
 _atom_site_fract_y
 _atom_site_fract_z
 _atom_site_occupancy
  Ho  Ho0  1  0.64763811  0.98887344  0.75000000  1
  Ho  Ho1  1  0.14763811  0.51112656  0.75000000  1
  Ho  Ho2  1  0.85236189  0.48887344  0.25000000  1
  Ho  Ho3  1  0.35236189  0.01112656  0.25000000  1
  Ho  Ho4  1  0.97137335  0.81663941  0.90141825  1
  Ho  Ho5  1  0.47137235  0.68335959  0.59858175  1
  Ho  Ho6  1  0.52862765  0.31664041  0.09858175  1
  Ho  Ho7  1  0.02862665  0.18336059  0.40141825  1
  Ho  Ho8  1  0.02862665  0.18336059  0.09858175  1
  Ho  Ho9  1  0.52862765  0.31664041  0.40141825  1
  Ho  Ho10  1  0.47137235  0.68335959  0.90141825  1
  Ho  Ho11  1  0.97137335  0.81663941  0.59858175  1
  Ho  Ho12  1  0.68306780  0.82080739  0.12301054  1
  Ho  Ho13  1  0.18306780  0.67919161  0.37698946  1
  Ho  Ho14  1  0.81693220  0.32080839  0.87698946  1
  Ho  Ho15  1  0.31693220  0.17919261  0.62301054  1
  Ho  Ho16  1  0.31693220  0.17919261  0.87698946  1
  Ho  Ho17  1  0.81693220  0.32080839  0.62301054  1
  Ho  Ho18  1  0.18306780  0.67919161  0.12301054  1
  Ho  Ho19  1  0.68306780  0.82080739  0.37698946  1
  Si  Si0  1  0.76558387  0.62850407  0.75000000  1
  Si  Si1  1  0.26558387  0.87149593  0.75000000  1
  Si  Si2  1  0.73441613  0.12850407  0.25000000  1
  Si  Si3  1  0.23441613  0.37149593  0.25000000  1
  Si  Si4  1  0.01991085  0.10416085  0.75000000  1
  Si  Si5  1  0.51991085  0.39583915  0.75000000  1
  Si  Si6  1  0.48008915  0.60416085  0.25000000  1
  Si  Si7  1  0.98008915  0.89583915  0.25000000  1
  Si  Si8  1  0.85480973  0.52784650  0.04005803  1
  Si  Si9  1  0.35480973  0.97215350  0.45994197  1
  Si  Si10  1  0.64519027  0.02784650  0.95994197  1
  Si  Si11  1  0.14519027  0.47215350  0.54005803  1
  Si  Si12  1  0.14519027  0.47215350  0.95994197  1
  Si  Si13  1  0.64519027  0.02784650  0.54005803  1
  Si  Si14  1  0.35480973  0.97215350  0.04005803  1
  Si  Si15  1  0.85480973  0.52784650  0.45994197  1
loop_
_geom_bond_atom_site_label_1
_geom_bond_atom_site_label_2
_geom_bond_distance
_geom_bond_site_symmetry_2
Ho0 Si4 2.884998 1_665
Ho0 Si0 2.885207 1_555
Ho0 Si1 2.958623 1_555
Ho0 Si10 3.054200 1_565
Ho0 Si13 3.054200 1_565
Ho0 Si5 3.246319 1_565
Ho1 Si5 2.884998 1_555
Ho1 Si1 2.885206 1_555
Ho1 Si0 2.958623 1_455
Ho1 Si12 3.054200 1_555
Ho1 Si11 3.054200 1_555
Ho1 Si4 3.246318 1_555
Ho2 Si6 2.884998 1_555
Ho2 Si2 2.885206 1_555
Ho2 Si3 2.958623 1_655
Ho2 Si15 3.054200 1_555
Ho2 Si8 3.054200 1_555
Ho2 Si7 3.246318 1_555
Ho3 Si7 2.884998 1_445
Ho3 Si3 2.885207 1_555
Ho3 Si2 2.958623 1_555
Ho3 Si9 3.054200 1_545
Ho3 Si14 3.054200 1_545
Ho3 Si6 3.246319 1_545
Ho4 Si10 3.018679 1_565
Ho4 Si0 3.029059 1_555
Ho4 Si12 3.045980 1_655
Ho4 Si8 3.103009 1_556
Ho4 Si1 3.113901 1_655
Ho4 Si4 3.122688 1_665
Ho4 Si14 3.666965 1_656
Ho5 Si11 3.018668 1_555
Ho5 Si1 3.029060 1_555
Ho5 Si13 3.045989 1_565
Ho5 Si9 3.103013 1_555
Ho5 Si0 3.113905 1_555
Ho5 Si5 3.122684 1_555
Ho5 Si15 3.666969 1_555
Ho6 Si8 3.018668 1_555
Ho6 Si2 3.029060 1_555
Ho6 Si14 3.045989 1_545
Ho6 Si10 3.103013 1_554
Ho6 Si3 3.113905 1_555
Ho6 Si6 3.122684 1_555
Ho6 Si12 3.666969 1_554
Ho7 Si9 3.018679 1_545
Ho7 Si3 3.029059 1_555
Ho7 Si15 3.045980 1_455
Ho7 Si11 3.103009 1_555
Ho7 Si2 3.113901 1_455
Ho7 Si7 3.122688 1_445
Ho7 Si13 3.666965 1_455
Ho8 Si14 3.018679 1_545
Ho8 Si3 3.029059 1_555
Ho8 Si8 3.045980 1_455
Ho8 Si12 3.103009 1_554
Ho8 Si2 3.113901 1_455
Ho8 Si7 3.122688 1_445
Ho8 Si10 3.666965 1_454
Ho9 Si15 3.018668 1_555
Ho9 Si2 3.029060 1_555
Ho9 Si9 3.045989 1_545
Ho9 Si13 3.103013 1_555
Ho9 Si3 3.113905 1_555
Ho9 Si6 3.122684 1_555
Ho9 Si11 3.666969 1_555
Ho10 Si12 3.018668 1_555
Ho10 Si1 3.029060 1_555
Ho10 Si10 3.045989 1_565
Ho10 Si14 3.103013 1_556
Ho10 Si0 3.113905 1_555
Ho10 Si5 3.122684 1_555
Ho10 Si8 3.666969 1_556
Ho11 Si13 3.018679 1_565
Ho11 Si0 3.029059 1_555
Ho11 Si11 3.045980 1_655
Ho11 Si15 3.103009 1_555
Ho11 Si1 3.113901 1_655
Ho11 Si4 3.122688 1_665
Ho11 Si9 3.666965 1_655
Ho12 Si8 2.837204 1_555
Ho12 Si10 2.854801 1_564
Ho12 Si6 2.891255 1_555
Ho12 Si7 2.917858 1_555
Ho12 Si14 2.940468 1_555
Ho12 Si2 3.006738 1_565
Ho13 Si9 2.837210 1_555
Ho13 Si11 2.854797 1_555
Ho13 Si7 2.891260 1_455
Ho13 Si6 2.917857 1_555
Ho13 Si15 2.940464 1_455
Ho13 Si3 3.006732 1_555
Ho14 Si10 2.837210 1_555
Ho14 Si8 2.854797 1_556
Ho14 Si4 2.891260 1_655
Ho14 Si5 2.917857 1_555
Ho14 Si12 2.940464 1_655
Ho14 Si0 3.006732 1_555
Ho15 Si11 2.837204 1_555
Ho15 Si9 2.854801 1_545
Ho15 Si5 2.891255 1_555
Ho15 Si4 2.917858 1_555
Ho15 Si13 2.940468 1_555
Ho15 Si1 3.006738 1_545
Ho16 Si12 2.837204 1_555
Ho16 Si14 2.854801 1_546
Ho16 Si5 2.891255 1_555
Ho16 Si4 2.917858 1_555
Ho16 Si10 2.940468 1_555
Ho16 Si1 3.006738 1_545
Ho17 Si13 2.837210 1_555
Ho17 Si15 2.854797 1_555
Ho17 Si4 2.891260 1_655
Ho17 Si5 2.917857 1_555
Ho17 Si11 2.940464 1_655
Ho17 Si0 3.006732 1_555
Ho18 Si14 2.837210 1_555
Ho18 Si12 2.854797 1_554
Ho18 Si7 2.891260 1_455
Ho18 Si6 2.917857 1_555
Ho18 Si8 2.940464 1_455
Ho18 Si3 3.006732 1_555
Ho19 Si15 2.837204 1_555
Ho19 Si13 2.854801 1_565
Ho19 Si6 2.891255 1_555
Ho19 Si7 2.917858 1_555
Ho19 Si9 2.940468 1_555
Ho19 Si2 3.006738 1_565
Si0 Si5 2.538031 1_555
Si1 Si4 2.538032 1_565
Si2 Si7 2.538032 1_545
Si3 Si6 2.538031 1_555
Si10 Si14 2.473691 1_546
Si11 Si15 2.473691 1_455
Si12 Si8 2.473691 1_456
Si13 Si9 2.473691 1_545
