# generated using pymatgen
data_Ni5(Mo3Se4)8
_symmetry_space_group_name_H-M   'P 1'
_cell_length_a   6.83187000
_cell_length_b   6.83865773
_cell_length_c   27.24580267
_cell_angle_alpha   91.61175971
_cell_angle_beta   90.93565021
_cell_angle_gamma   90.78370639
_symmetry_Int_Tables_number   1
_chemical_formula_structural   Ni5(Mo3Se4)8
_chemical_formula_sum   'Ni5 Mo24 Se32'
_cell_volume   1272.14569490
_cell_formula_units_Z   1
loop_
 _symmetry_equiv_pos_site_id
 _symmetry_equiv_pos_as_xyz
  1  'x, y, z'
loop_
 _atom_site_type_symbol
 _atom_site_label
 _atom_site_symmetry_multiplicity
 _atom_site_fract_x
 _atom_site_fract_y
 _atom_site_fract_z
 _atom_site_occupancy
  Ni  Ni0  1  0.06532100  0.50252800  0.29125100  1
  Ni  Ni1  1  0.49853500  0.16087400  0.01534700  1
  Ni  Ni2  1  0.93962300  0.49623000  0.46009200  1
  Ni  Ni3  1  0.84291500  0.92804300  0.87441200  1
  Ni  Ni4  1  0.84537700  0.93136800  0.62518400  1
  Mo  Mo0  1  0.24288400  0.41224700  0.88811500  1
  Mo  Mo1  1  0.24910800  0.41284700  0.63837400  1
  Mo  Mo2  1  0.21786500  0.41689200  0.38493300  1
  Mo  Mo3  1  0.23692200  0.41688100  0.14009000  1
  Mo  Mo4  1  0.42912900  0.53221700  0.80787300  1
  Mo  Mo5  1  0.43205100  0.53648100  0.55845200  1
  Mo  Mo6  1  0.46241100  0.76163800  0.89445900  1
  Mo  Mo7  1  0.43217500  0.55450400  0.30936400  1
  Mo  Mo8  1  0.46773400  0.76567100  0.64585500  1
  Mo  Mo9  1  0.41344100  0.54119800  0.05743000  1
  Mo  Mo10  1  0.44931300  0.75748600  0.39679100  1
  Mo  Mo11  1  0.43900200  0.76714300  0.14560100  1
  Mo  Mo12  1  0.55529300  0.21775400  0.85400300  1
  Mo  Mo13  1  0.55922600  0.21828200  0.60481000  1
  Mo  Mo14  1  0.58597000  0.43424900  0.94006300  1
  Mo  Mo15  1  0.55611800  0.24038100  0.35448100  1
  Mo  Mo16  1  0.59216300  0.43437200  0.69015000  1
  Mo  Mo17  1  0.54818800  0.23026000  0.10767300  1
  Mo  Mo18  1  0.57344700  0.44249300  0.44158700  1
  Mo  Mo19  1  0.57898500  0.45507200  0.19315900  1
  Mo  Mo20  1  0.77699800  0.55930300  0.86123400  1
  Mo  Mo21  1  0.78146400  0.56265700  0.61218800  1
  Mo  Mo22  1  0.78663000  0.58124100  0.36613600  1
  Mo  Mo23  1  0.75882600  0.58036400  0.11431700  1
  Se  Se0  1  0.12907900  0.73646000  0.84694500  1
  Se  Se1  1  0.13393500  0.73946100  0.59879200  1
  Se  Se2  1  0.12599700  0.75825200  0.34849200  1
  Se  Se3  1  0.11954600  0.73317300  0.09436900  1
  Se  Se4  1  0.23167600  0.21504300  0.80639800  1
  Se  Se5  1  0.26693500  0.62198400  0.96748600  1
  Se  Se6  1  0.23718500  0.21654000  0.55704400  1
  Se  Se7  1  0.27534900  0.62069800  0.71870000  1
  Se  Se8  1  0.22956700  0.20754800  0.30651100  1
  Se  Se9  1  0.26241000  0.62011100  0.47210800  1
  Se  Se10  1  0.20595200  0.22956900  0.05617100  1
  Se  Se11  1  0.25149700  0.62227600  0.22103300  1
  Se  Se12  1  0.37258700  0.11141300  0.93440200  1
  Se  Se13  1  0.38466000  0.12005700  0.68513000  1
  Se  Se14  1  0.36780900  0.12857500  0.43282000  1
  Se  Se15  1  0.38062300  0.12743400  0.18710100  1
  Se  Se16  1  0.61625300  0.86280200  0.81095400  1
  Se  Se17  1  0.61850200  0.86710500  0.56167200  1
  Se  Se18  1  0.63579100  0.86970700  0.31843200  1
  Se  Se19  1  0.60085900  0.87519400  0.06375500  1
  Se  Se20  1  0.74626300  0.35656300  0.78093400  1
  Se  Se21  1  0.77454100  0.76597300  0.94712500  1
  Se  Se22  1  0.75676300  0.36959000  0.52993800  1
  Se  Se23  1  0.77970800  0.76734200  0.69828500  1
  Se  Se24  1  0.74389800  0.37658500  0.27983400  1
  Se  Se25  1  0.77578000  0.79104300  0.44453600  1
  Se  Se26  1  0.74997800  0.38890200  0.03094200  1
  Se  Se27  1  0.76240100  0.78176500  0.19439200  1
  Se  Se28  1  0.88876600  0.25021200  0.90635200  1
  Se  Se29  1  0.89514900  0.25275600  0.65656300  1
  Se  Se30  1  0.87939800  0.23964200  0.40271700  1
  Se  Se31  1  0.87122700  0.26314900  0.15649800  1
loop_
_geom_bond_atom_site_label_1
_geom_bond_atom_site_label_2
_geom_bond_distance
_geom_bond_site_symmetry_2
Ni0 Se2 2.338392 1_555
Ni0 Se24 2.360406 1_455
Ni0 Se8 2.365423 1_555
Ni0 Se11 2.467320 1_555
Ni1 Se26 2.329983 1_555
Ni1 Se10 2.349964 1_555
Ni1 Se12 2.367856 1_554
Ni1 Se19 2.489426 1_545
Ni2 Se30 2.344556 1_555
Ni2 Se25 2.364669 1_555
Ni2 Se9 2.365943 1_655
Ni2 Se22 2.464332 1_555
Ni3 Se16 2.331646 1_555
Ni3 Se21 2.347564 1_555
Ni3 Se28 2.360910 1_565
Ni3 Se0 2.482227 1_655
Ni4 Se17 2.332589 1_555
Ni4 Se29 2.354042 1_565
Ni4 Se23 2.359550 1_555
Ni4 Se1 2.487928 1_655
Mo0 Se5 2.562861 1_555
Mo0 Se4 2.569897 1_555
Mo0 Se12 2.601432 1_555
Mo0 Se0 2.633859 1_555
Mo0 Se28 2.706406 1_455
Mo0 Mo14 2.718433 1_555
Mo1 Se6 2.557903 1_555
Mo1 Se13 2.577847 1_555
Mo1 Se7 2.578281 1_555
Mo1 Se1 2.631922 1_555
Mo1 Mo13 2.677208 1_555
Mo1 Se29 2.699840 1_455
Mo2 Se8 2.541251 1_555
Mo2 Se14 2.606838 1_555
Mo2 Se2 2.641863 1_555
Mo2 Se30 2.654066 1_455
Mo2 Se9 2.728460 1_555
Mo2 Ni0 2.820981 1_555
Mo2 Ni2 2.862524 1_455
Mo3 Se11 2.580937 1_555
Mo3 Se15 2.584040 1_555
Mo3 Se10 2.593351 1_555
Mo3 Se3 2.653271 1_555
Mo3 Se31 2.745560 1_455
Mo4 Se4 2.537594 1_555
Mo4 Se16 2.580533 1_555
Mo4 Se20 2.597972 1_555
Mo4 Se0 2.711497 1_555
Mo4 Se7 2.718371 1_555
Mo5 Se6 2.544594 1_555
Mo5 Se17 2.578550 1_555
Mo5 Se22 2.627369 1_555
Mo5 Se9 2.685028 1_555
Mo5 Se1 2.710644 1_555
Mo6 Se21 2.550119 1_555
Mo6 Se0 2.602304 1_555
Mo6 Se5 2.610209 1_555
Mo6 Se16 2.628001 1_555
Mo6 Se12 2.682926 1_565
Mo6 Ni3 2.889885 1_555
Mo7 Se18 2.553310 1_555
Mo7 Ni0 2.564525 1_555
Mo7 Se24 2.595177 1_555
Mo7 Se8 2.729114 1_555
Mo7 Se11 2.740767 1_555
Mo7 Se2 2.742712 1_555
Mo8 Se23 2.546063 1_555
Mo8 Se1 2.599477 1_555
Mo8 Se7 2.609556 1_555
Mo8 Se17 2.636286 1_555
Mo8 Se13 2.692996 1_565
Mo8 Ni4 2.874201 1_555
Mo9 Se10 2.542428 1_555
Mo9 Se19 2.603238 1_555
Mo9 Se3 2.613759 1_555
Mo9 Se26 2.639921 1_555
Mo9 Se5 2.706223 1_554
Mo9 Ni1 2.883177 1_555
Mo10 Se2 2.552752 1_555
Mo10 Se25 2.567863 1_555
Mo10 Se9 2.623978 1_555
Mo10 Se18 2.631407 1_555
Mo10 Se14 2.762285 1_565
Mo11 Se27 2.559153 1_555
Mo11 Se3 2.575657 1_555
Mo11 Se19 2.625332 1_555
Mo11 Se11 2.648044 1_555
Mo11 Se15 2.719059 1_565
Mo12 Se4 2.544531 1_555
Mo12 Se20 2.593056 1_555
Mo12 Se12 2.653196 1_555
Mo12 Se28 2.671368 1_555
Mo12 Se16 2.706446 1_545
Mo12 Mo14 2.741177 1_555
Mo12 Ni3 2.868534 1_545
Mo13 Se6 2.537591 1_555
Mo13 Se13 2.609325 1_555
Mo13 Se29 2.677981 1_555
Mo13 Se17 2.682600 1_545
Mo13 Se22 2.687715 1_555
Mo13 Mo5 2.693681 1_555
Mo13 Mo16 2.724207 1_555
Mo13 Mo21 2.785238 1_555
Mo13 Ni4 2.847908 1_545
Mo14 Se21 2.594307 1_555
Mo14 Se28 2.602924 1_555
Mo14 Se12 2.628434 1_555
Mo14 Se5 2.651978 1_555
Mo14 Mo20 2.685480 1_555
Mo14 Mo6 2.728193 1_555
Mo14 Se26 2.728492 1_556
Mo14 Ni1 2.878265 1_556
Mo15 Se30 2.551676 1_555
Mo15 Se8 2.571057 1_555
Mo15 Se24 2.609389 1_555
Mo15 Se14 2.636282 1_555
Mo15 Se18 2.757153 1_545
Mo16 Se13 2.557828 1_555
Mo16 Se29 2.594802 1_555
Mo16 Se23 2.599687 1_555
Mo16 Se7 2.643512 1_555
Mo16 Se20 2.741158 1_555
Mo17 Se31 2.562148 1_555
Mo17 Ni1 2.562915 1_555
Mo17 Se15 2.575410 1_555
Mo17 Se10 2.707023 1_555
Mo17 Se19 2.707738 1_545
Mo17 Se26 2.762055 1_555
Mo18 Se14 2.552866 1_555
Mo18 Ni2 2.563361 1_555
Mo18 Se9 2.598826 1_555
Mo18 Se30 2.735682 1_555
Mo18 Se25 2.737577 1_555
Mo18 Se22 2.756404 1_555
Mo19 Se27 2.545689 1_555
Mo19 Se31 2.601861 1_555
Mo19 Se15 2.602480 1_555
Mo19 Se11 2.639437 1_555
Mo19 Se24 2.671188 1_555
Mo20 Se20 2.561136 1_555
Mo20 Ni3 2.569697 1_555
Mo20 Se28 2.592655 1_555
Mo20 Se21 2.700017 1_555
Mo20 Se0 2.717084 1_655
Mo20 Se16 2.750213 1_555
Mo21 Ni4 2.566817 1_555
Mo21 Se22 2.570752 1_555
Mo21 Se29 2.591323 1_555
Mo21 Se23 2.697936 1_555
Mo21 Se1 2.714343 1_655
Mo21 Se17 2.764635 1_555
Mo22 Se25 2.542148 1_555
Mo22 Se18 2.607488 1_555
Mo22 Se30 2.646348 1_555
Mo22 Se2 2.657876 1_655
Mo22 Se24 2.711870 1_555
Mo22 Ni2 2.827819 1_555
Mo22 Ni0 2.858471 1_655
Mo23 Se27 2.546711 1_555
Mo23 Se26 2.589270 1_555
Mo23 Se31 2.602583 1_555
Mo23 Se19 2.700913 1_555
Mo23 Se3 2.732381 1_655
