# generated using pymatgen
data_KLiYF5
_symmetry_space_group_name_H-M   'P 1'
_cell_length_a   11.91321100
_cell_length_b   6.39222100
_cell_length_c   6.54989478
_cell_angle_alpha   66.27610164
_cell_angle_beta   90.00000000
_cell_angle_gamma   90.00000000
_symmetry_Int_Tables_number   1
_chemical_formula_structural   KLiYF5
_chemical_formula_sum   'K4 Li4 Y4 F20'
_cell_volume   456.63673767
_cell_formula_units_Z   4
loop_
 _symmetry_equiv_pos_site_id
 _symmetry_equiv_pos_as_xyz
  1  'x, y, z'
loop_
 _atom_site_type_symbol
 _atom_site_label
 _atom_site_symmetry_multiplicity
 _atom_site_fract_x
 _atom_site_fract_y
 _atom_site_fract_z
 _atom_site_occupancy
  K  K0  1  0.84928800  0.03741900  0.94660400  1
  K  K1  1  0.65071200  0.53741900  0.94660400  1
  K  K2  1  0.34928800  0.46258100  0.05339600  1
  K  K3  1  0.15071200  0.96258100  0.05339600  1
  Li  Li0  1  0.74523100  0.46189700  0.44097500  1
  Li  Li1  1  0.75476900  0.96189700  0.44097500  1
  Li  Li2  1  0.25476900  0.53810300  0.55902500  1
  Li  Li3  1  0.24523100  0.03810300  0.55902500  1
  Y  Y0  1  0.99779800  0.31996400  0.31789800  1
  Y  Y1  1  0.00220200  0.68003600  0.68210200  1
  Y  Y2  1  0.50220200  0.81996400  0.31789800  1
  Y  Y3  1  0.49779800  0.18003600  0.68210200  1
  F  F0  1  0.67447900  0.27944400  0.71269600  1
  F  F1  1  0.60474700  0.96543900  0.53550400  1
  F  F2  1  0.32552100  0.72055600  0.28730400  1
  F  F3  1  0.00731300  0.32737600  0.95505300  1
  F  F4  1  0.17447900  0.22055600  0.28730400  1
  F  F5  1  0.39525300  0.03456100  0.46449600  1
  F  F6  1  0.89525300  0.46543900  0.53550400  1
  F  F7  1  0.53235000  0.45282400  0.33530000  1
  F  F8  1  0.80483800  0.27750300  0.27857000  1
  F  F9  1  0.30483800  0.22249700  0.72143000  1
  F  F10  1  0.46765000  0.54717600  0.66470000  1
  F  F11  1  0.99268700  0.67262400  0.04494700  1
  F  F12  1  0.19516200  0.72249700  0.72143000  1
  F  F13  1  0.50731300  0.17262400  0.04494700  1
  F  F14  1  0.96765000  0.95282400  0.33530000  1
  F  F15  1  0.69516200  0.77750300  0.27857000  1
  F  F16  1  0.03235000  0.04717600  0.66470000  1
  F  F17  1  0.82552100  0.77944400  0.71269600  1
  F  F18  1  0.10474700  0.53456100  0.46449600  1
  F  F19  1  0.49268700  0.82737600  0.95505300  1
loop_
_geom_bond_atom_site_label_1
_geom_bond_atom_site_label_2
_geom_bond_distance
_geom_bond_site_symmetry_2
F0 Li0 1.888898 1_555
F0 Y3 2.230861 1_555
F0 K0 2.677764 1_555
F0 K1 2.679487 1_555
F1 Li1 1.894567 1_555
F1 Y2 2.335615 1_555
F1 Y3 2.342413 1_565
F1 K1 3.017938 1_555
F2 Li2 1.888898 1_555
F2 Y2 2.230861 1_555
F2 K3 2.677764 1_555
F2 K2 2.679487 1_555
F3 Y1 2.244722 1_555
F3 Y0 2.360657 1_456
F3 K0 2.658020 1_455
F3 K3 2.749954 1_546
F4 Li3 1.888898 1_555
F4 Y0 2.230861 1_455
F4 K2 2.677764 1_555
F4 K3 2.679487 1_545
F5 Li3 1.894567 1_555
F5 Y3 2.335615 1_555
F5 Y2 2.342413 1_545
F5 K2 3.017938 1_555
F6 Li0 1.894567 1_555
F6 Y0 2.335615 1_555
F6 Y1 2.342413 1_655
F6 K0 3.017938 1_555
F7 Y3 2.276536 1_555
F7 Y2 2.331180 1_555
F7 K1 2.766700 1_554
F7 K2 2.841954 1_555
F8 Li1 1.957171 1_545
F8 Li0 2.008478 1_555
F8 Y0 2.341077 1_555
F8 K1 2.820049 1_554
F8 K0 3.169930 1_554
F9 Li2 1.957171 1_555
F9 Li3 2.008478 1_555
F9 Y3 2.341077 1_555
F9 K3 2.820049 1_546
F9 K2 3.169930 1_556
F10 Y2 2.276536 1_555
F10 Y3 2.331180 1_555
F10 K2 2.766700 1_556
F10 K1 2.841954 1_555
F11 Y0 2.244722 1_555
F11 Y1 2.360657 1_654
F11 K3 2.658020 1_655
F11 K0 2.749954 1_564
F12 Li3 1.957171 1_565
F12 Li2 2.008478 1_555
F12 Y1 2.341077 1_555
F12 K2 2.820049 1_556
F12 K3 3.169930 1_556
F13 Y2 2.244722 1_545
F13 Y3 2.360657 1_554
F13 K2 2.658020 1_555
F13 K1 2.749954 1_554
F14 Y1 2.276536 1_655
F14 Y0 2.331180 1_565
F14 K0 2.766700 1_564
F14 K3 2.841954 1_655
F15 Li0 1.957171 1_555
F15 Li1 2.008478 1_555
F15 Y2 2.341077 1_555
F15 K0 2.820049 1_564
F15 K1 3.169930 1_554
F16 Y0 2.276536 1_455
F16 Y1 2.331180 1_545
F16 K3 2.766700 1_546
F16 K0 2.841954 1_455
F17 Li1 1.888898 1_555
F17 Y1 2.230861 1_655
F17 K1 2.677764 1_555
F17 K0 2.679487 1_565
F18 Li2 1.894567 1_555
F18 Y1 2.335615 1_555
F18 Y0 2.342413 1_455
F18 K3 3.017938 1_555
F19 Y3 2.244722 1_565
F19 Y2 2.360657 1_556
F19 K1 2.658020 1_555
F19 K2 2.749954 1_556
