# generated using pymatgen
data_La3C2I3
_symmetry_space_group_name_H-M   'P 1'
_cell_length_a   10.80441272
_cell_length_b   10.80441272
_cell_length_c   17.87371868
_cell_angle_alpha   90.00000000
_cell_angle_beta   90.00000000
_cell_angle_gamma   111.64163503
_symmetry_Int_Tables_number   1
_chemical_formula_structural   La3C2I3
_chemical_formula_sum   'La24 C16 I24'
_cell_volume   1939.41488819
_cell_formula_units_Z   8
loop_
 _symmetry_equiv_pos_site_id
 _symmetry_equiv_pos_as_xyz
  1  'x, y, z'
loop_
 _atom_site_type_symbol
 _atom_site_label
 _atom_site_symmetry_multiplicity
 _atom_site_fract_x
 _atom_site_fract_y
 _atom_site_fract_z
 _atom_site_occupancy
  La  La0  1  0.15706225  0.89380987  0.00049630  1
  La  La1  1  0.74092006  0.76885885  0.40084827  1
  La  La2  1  0.61504938  0.32319231  0.97884983  1
  La  La3  1  0.63057005  0.36942995  0.75000000  1
  La  La4  1  0.55239188  0.00982713  0.60313673  1
  La  La5  1  0.38495062  0.67680769  0.47884983  1
  La  La6  1  0.76885885  0.74092006  0.59915173  1
  La  La7  1  0.47055248  0.97444646  0.38134100  1
  La  La8  1  0.97444646  0.47055248  0.61865900  1
  La  La9  1  0.52944752  0.02555354  0.88134100  1
  La  La10  1  0.44760812  0.99017287  0.10313673  1
  La  La11  1  0.10619013  0.84293775  0.49950370  1
  La  La12  1  0.32319231  0.61504938  0.02115017  1
  La  La13  1  0.00982713  0.55239188  0.39686327  1
  La  La14  1  0.83033532  0.16966468  0.75000000  1
  La  La15  1  0.23114115  0.25907994  0.09915173  1
  La  La16  1  0.25907994  0.23114115  0.90084827  1
  La  La17  1  0.99017287  0.44760812  0.89686327  1
  La  La18  1  0.67680769  0.38495062  0.52115017  1
  La  La19  1  0.16966468  0.83033532  0.25000000  1
  La  La20  1  0.84293775  0.10619013  0.50049630  1
  La  La21  1  0.02555354  0.52944752  0.11865900  1
  La  La22  1  0.36942995  0.63057005  0.25000000  1
  La  La23  1  0.89380987  0.15706225  -0.00049630  1
  C  C0  1  0.28085911  0.72461637  0.34974788  1
  C  C1  1  0.90323887  0.59077496  0.52890268  1
  C  C2  1  0.65649997  0.85311100  0.52334824  1
  C  C3  1  0.59077496  0.90323887  0.47109732  1
  C  C4  1  0.71914089  0.27538363  0.84974788  1
  C  C5  1  0.78091779  0.22530529  0.90433720  1
  C  C6  1  0.21908221  0.77469471  0.40433720  1
  C  C7  1  0.27538363  0.71914089  0.15025212  1
  C  C8  1  0.72461637  0.28085911  0.65025212  1
  C  C9  1  0.34350003  0.14688900  0.02334824  1
  C  C10  1  0.85311100  0.65649997  0.47665176  1
  C  C11  1  0.14688900  0.34350003  0.97665176  1
  C  C12  1  0.22530529  0.78091779  0.09566280  1
  C  C13  1  0.09676113  0.40922504  0.02890268  1
  C  C14  1  0.40922504  0.09676113  0.97109732  1
  C  C15  1  0.77469471  0.21908221  0.59566280  1
  I  I0  1  0.36218789  0.09860862  0.74320369  1
  I  I1  1  0.86333918  0.63103613  0.99343674  1
  I  I2  1  0.90139138  0.63781211  0.75679631  1
  I  I3  1  0.50121125  0.51886889  0.88039779  1
  I  I4  1  0.14189890  0.36980822  0.75411340  1
  I  I5  1  0.36896387  0.13666082  0.50656326  1
  I  I6  1  0.48113111  0.49878875  0.61960221  1
  I  I7  1  0.98693135  0.98023034  0.13284280  1
  I  I8  1  0.49878875  0.48113111  0.38039779  1
  I  I9  1  0.13666082  0.36896387  0.49343674  1
  I  I10  1  0.74567378  0.26010345  0.36716943  1
  I  I11  1  0.98023034  0.98693135  0.86715720  1
  I  I12  1  0.01976966  0.01306865  0.36715720  1
  I  I13  1  0.26010345  0.74567378  0.63283057  1
  I  I14  1  0.73989655  0.25432622  0.13283057  1
  I  I15  1  0.25432622  0.73989655  0.86716943  1
  I  I16  1  0.63103613  0.86333918  0.00656326  1
  I  I17  1  0.09860862  0.36218789  0.25679631  1
  I  I18  1  0.01306865  0.01976966  0.63284280  1
  I  I19  1  0.36980822  0.14189890  0.24588660  1
  I  I20  1  0.63781211  0.90139138  0.24320369  1
  I  I21  1  0.63019178  0.85810110  0.74588660  1
  I  I22  1  0.51886889  0.50121125  0.11960221  1
  I  I23  1  0.85810110  0.63019178  0.25411340  1
loop_
_geom_bond_atom_site_label_1
_geom_bond_atom_site_label_2
_geom_bond_distance
_geom_bond_site_symmetry_2
C0 C6 1.398806 1_555
C0 La22 2.417455 1_555
C0 La19 2.634165 1_555
C0 La5 2.699046 1_555
C0 La7 2.779371 1_555
C0 La13 2.954266 1_555
C1 C10 1.397673 1_555
C1 La8 2.364310 1_555
C1 La18 2.633781 1_555
C1 La13 2.724014 1_655
C1 La6 2.837864 1_555
C1 La11 2.846150 1_655
C2 C3 1.397673 1_555
C2 La6 2.421606 1_555
C2 La1 2.658391 1_555
C2 La4 2.751523 1_565
C2 La20 2.763790 1_565
C2 La5 2.957494 1_555
C3 La7 2.364310 1_555
C3 La5 2.633781 1_555
C3 La4 2.724014 1_565
C3 La1 2.837864 1_555
C3 La20 2.846150 1_565
C4 C5 1.398806 1_555
C4 La3 2.417455 1_555
C4 La14 2.634165 1_555
C4 La2 2.699046 1_555
C4 La9 2.779371 1_555
C4 La17 2.954266 1_555
C5 La23 2.363912 1_556
C5 La17 2.625437 1_555
C5 La2 2.738970 1_555
C5 La9 2.807785 1_555
C5 La14 2.914274 1_555
C6 La11 2.363912 1_555
C6 La13 2.625437 1_555
C6 La5 2.738970 1_555
C6 La7 2.807785 1_555
C6 La19 2.914274 1_555
C7 La22 2.417455 1_555
C7 La19 2.634165 1_555
C7 La12 2.699046 1_555
C7 La21 2.779371 1_555
C7 La10 2.954266 1_555
C8 La3 2.417455 1_555
C8 La14 2.634165 1_555
C8 La18 2.699046 1_555
C8 La8 2.779371 1_555
C8 La4 2.954266 1_555
C9 La15 2.421606 1_555
C9 La16 2.658391 1_554
C9 La10 2.751523 1_545
C9 La0 2.763790 1_545
C9 La2 2.957494 1_554
C10 La1 2.421606 1_555
C10 La6 2.658391 1_555
C10 La13 2.751523 1_655
C10 La11 2.763790 1_655
C10 La18 2.957494 1_555
C11 C13 1.397673 1_556
C11 La16 2.421606 1_555
C11 La15 2.658391 1_556
C11 La17 2.751523 1_455
C11 La23 2.763790 1_456
C11 La12 2.957494 1_556
C12 C7 1.398806 1_555
C12 La0 2.363912 1_555
C12 La10 2.625437 1_555
C12 La12 2.738970 1_555
C12 La21 2.807785 1_555
C12 La19 2.914274 1_555
C13 La21 2.364310 1_555
C13 La12 2.633781 1_555
C13 La17 2.724014 1_454
C13 La15 2.837864 1_555
C13 La23 2.846150 1_455
C14 C9 1.397673 1_556
C14 La9 2.364310 1_555
C14 La2 2.633781 1_555
C14 La10 2.724014 1_546
C14 La16 2.837864 1_555
C14 La0 2.846150 1_546
C15 C8 1.398806 1_555
C15 La20 2.363912 1_555
C15 La4 2.625437 1_555
C15 La18 2.738970 1_555
C15 La8 2.807785 1_555
C15 La14 2.914274 1_555
I0 La3 3.275148 1_555
I0 La9 3.322198 1_555
I0 La16 3.522430 1_555
I0 La4 3.586771 1_555
I1 La21 3.271827 1_656
I1 La17 3.284549 1_555
I1 La0 3.391445 1_656
I1 La2 3.427228 1_555
I2 La3 3.275148 1_555
I2 La8 3.322198 1_555
I2 La6 3.522430 1_555
I2 La17 3.586771 1_555
I3 La16 3.262366 1_555
I3 La2 3.316183 1_555
I3 La3 3.414231 1_555
I3 La12 3.547206 1_556
I4 La14 3.262517 1_455
I4 La17 3.304590 1_455
I4 La8 3.431072 1_455
I4 La16 3.482133 1_555
I5 La7 3.271827 1_545
I5 La4 3.284549 1_555
I5 La11 3.391445 1_545
I5 La18 3.427228 1_555
I6 La6 3.262366 1_555
I6 La18 3.316183 1_555
I6 La3 3.414231 1_555
I6 La5 3.547206 1_555
I7 La15 3.246236 1_665
I7 La0 3.333521 1_655
I7 La23 3.429338 1_565
I7 La19 3.642015 1_655
I8 La1 3.262366 1_555
I8 La5 3.316183 1_555
I8 La22 3.414231 1_555
I8 La18 3.547206 1_555
I9 La8 3.271827 1_455
I9 La13 3.284549 1_555
I9 La20 3.391445 1_455
I9 La5 3.427228 1_555
I10 La18 3.269267 1_555
I10 La20 3.292057 1_555
I10 La7 3.414486 1_545
I10 La13 3.428136 1_655
I11 La16 3.246236 1_665
I11 La23 3.333521 1_566
I11 La0 3.429338 1_656
I11 La14 3.642015 1_565
I12 La1 3.246236 1_445
I12 La11 3.333521 1_545
I12 La20 3.429338 1_455
I12 La19 3.642015 1_545
I13 La5 3.269267 1_555
I13 La11 3.292057 1_555
I13 La8 3.414486 1_455
I13 La4 3.428136 1_565
I14 La2 3.269267 1_554
I14 La23 3.292057 1_555
I14 La21 3.414486 1_655
I14 La10 3.428136 1_545
I15 La12 3.269267 1_556
I15 La0 3.292057 1_556
I15 La9 3.414486 1_565
I15 La17 3.428136 1_455
I16 La9 3.271827 1_564
I16 La10 3.284549 1_555
I16 La23 3.391445 1_565
I16 La12 3.427228 1_555
I17 La22 3.275148 1_555
I17 La21 3.322198 1_555
I17 La15 3.522430 1_555
I17 La13 3.586771 1_555
I18 La6 3.246236 1_445
I18 La20 3.333521 1_455
I18 La11 3.429338 1_545
I18 La14 3.642015 1_455
I19 La19 3.262517 1_545
I19 La10 3.304590 1_545
I19 La7 3.431072 1_545
I19 La15 3.482133 1_555
I20 La22 3.275148 1_555
I20 La7 3.322198 1_555
I20 La1 3.522430 1_555
I20 La10 3.586771 1_555
I21 La14 3.262517 1_565
I21 La4 3.304590 1_565
I21 La9 3.431072 1_565
I21 La6 3.482133 1_555
I22 La15 3.262366 1_555
I22 La12 3.316183 1_555
I22 La22 3.414231 1_555
I22 La2 3.547206 1_554
I23 La19 3.262517 1_655
I23 La13 3.304590 1_655
I23 La21 3.431072 1_655
I23 La1 3.482133 1_555
