# generated using pymatgen
data_NaClO4
_symmetry_space_group_name_H-M   'P 1'
_cell_length_a   5.41844292
_cell_length_b   6.91647644
_cell_length_c   7.72643313
_cell_angle_alpha   90.00000000
_cell_angle_beta   90.00000000
_cell_angle_gamma   90.00000000
_symmetry_Int_Tables_number   1
_chemical_formula_structural   NaClO4
_chemical_formula_sum   'Na4 Cl4 O16'
_cell_volume   289.55992461
_cell_formula_units_Z   4
loop_
 _symmetry_equiv_pos_site_id
 _symmetry_equiv_pos_as_xyz
  1  'x, y, z'
loop_
 _atom_site_type_symbol
 _atom_site_label
 _atom_site_symmetry_multiplicity
 _atom_site_fract_x
 _atom_site_fract_y
 _atom_site_fract_z
 _atom_site_occupancy
  Na  Na0  1  0.75000000  0.17986963  0.81077637  1
  Na  Na1  1  0.75000000  0.32013037  0.31077637  1
  Na  Na2  1  0.25000000  0.82013037  0.18922363  1
  Na  Na3  1  0.25000000  0.67986963  0.68922363  1
  Cl  Cl0  1  0.75000000  0.82204405  0.44341422  1
  Cl  Cl1  1  0.75000000  0.67795595  0.94341422  1
  Cl  Cl2  1  0.25000000  0.17795595  0.55658578  1
  Cl  Cl3  1  0.25000000  0.32204405  0.05658578  1
  O  O0  1  0.75000000  0.57070697  0.10160327  1
  O  O1  1  0.03252272  0.20105451  0.06355521  1
  O  O2  1  0.53252272  0.79894549  0.93644479  1
  O  O3  1  0.25000000  0.42929303  0.89839673  1
  O  O4  1  0.46747728  0.20105451  0.06355521  1
  O  O5  1  0.03252272  0.29894549  0.56355521  1
  O  O6  1  0.75000000  0.54888223  0.79743557  1
  O  O7  1  0.25000000  0.04888223  0.70256443  1
  O  O8  1  0.96747728  0.70105451  0.43644479  1
  O  O9  1  0.25000000  0.07070697  0.39839673  1
  O  O10  1  0.75000000  0.92929303  0.60160327  1
  O  O11  1  0.46747728  0.29894549  0.56355521  1
  O  O12  1  0.75000000  0.95111777  0.29743557  1
  O  O13  1  0.25000000  0.45111777  0.20256443  1
  O  O14  1  0.96747728  0.79894549  0.93644479  1
  O  O15  1  0.53252272  0.70105451  0.43644479  1
loop_
_geom_bond_atom_site_label_1
_geom_bond_atom_site_label_2
_geom_bond_distance
_geom_bond_site_symmetry_2
Na0 O10 2.369734 1_545
Na0 O1 2.485847 1_656
Na0 O4 2.485847 1_556
Na0 O6 2.554348 1_555
Na0 O11 2.582706 1_555
Na0 O5 2.582706 1_655
Na1 O0 2.369734 1_555
Na1 O11 2.485847 1_555
Na1 O5 2.485847 1_655
Na1 O12 2.554348 1_545
Na1 O4 2.582706 1_555
Na1 O1 2.582706 1_655
Na2 O9 2.369734 1_565
Na2 O2 2.485847 1_554
Na2 O14 2.485847 1_454
Na2 O13 2.554348 1_555
Na2 O15 2.582706 1_555
Na2 O8 2.582706 1_455
Na3 O3 2.369734 1_555
Na3 O15 2.485847 1_555
Na3 O8 2.485847 1_455
Na3 O7 2.554348 1_565
Na3 O2 2.582706 1_555
Na3 O14 2.582706 1_455
Cl0 O10 1.429723 1_555
Cl0 O12 1.438444 1_555
Cl0 O8 1.446295 1_555
Cl0 O15 1.446295 1_555
Cl1 O0 1.429723 1_556
Cl1 O6 1.438444 1_555
Cl1 O2 1.446295 1_555
Cl1 O14 1.446295 1_555
Cl2 O9 1.429723 1_555
Cl2 O7 1.438444 1_555
Cl2 O11 1.446295 1_555
Cl2 O5 1.446295 1_555
Cl3 O3 1.429723 1_554
Cl3 O13 1.438444 1_555
Cl3 O4 1.446295 1_555
Cl3 O1 1.446295 1_555
