# generated using pymatgen
data_RbGeI3
_symmetry_space_group_name_H-M   'P 1'
_cell_length_a   5.91458197
_cell_length_b   5.91458197
_cell_length_c   5.91458197
_cell_angle_alpha   90.00000000
_cell_angle_beta   90.00000000
_cell_angle_gamma   90.00000000
_symmetry_Int_Tables_number   1
_chemical_formula_structural   RbGeI3
_chemical_formula_sum   'Rb1 Ge1 I3'
_cell_volume   206.90556185
_cell_formula_units_Z   1
loop_
 _symmetry_equiv_pos_site_id
 _symmetry_equiv_pos_as_xyz
  1  'x, y, z'
loop_
 _atom_site_type_symbol
 _atom_site_label
 _atom_site_symmetry_multiplicity
 _atom_site_fract_x
 _atom_site_fract_y
 _atom_site_fract_z
 _atom_site_occupancy
  Rb  Rb0  1  0.50000000  0.50000000  0.50000000  1
  Ge  Ge0  1  0.00000000  -0.00000000  0.00000000  1
  I  I0  1  0.50000000  -0.00000000  -0.00000000  1
  I  I1  1  -0.00000000  0.00000000  0.50000000  1
  I  I2  1  -0.00000000  0.50000000  -0.00000000  1
loop_
_geom_bond_atom_site_label_1
_geom_bond_atom_site_label_2
_geom_bond_distance
_geom_bond_site_symmetry_2
Ge0 I1 2.957291 1_554
Ge0 I2 2.957291 1_545
Ge0 I2 2.957291 1_555
Ge0 I0 2.957291 1_455
Ge0 I0 2.957291 1_555
Ge0 I1 2.957291 1_555
I0 Rb0 4.182241 1_554
I0 Rb0 4.182241 1_544
I0 Rb0 4.182241 1_555
I0 Rb0 4.182241 1_545
I1 Rb0 4.182241 1_445
I1 Rb0 4.182241 1_455
I1 Rb0 4.182241 1_555
I1 Rb0 4.182241 1_545
I2 Rb0 4.182241 1_455
I2 Rb0 4.182241 1_554
I2 Rb0 4.182241 1_555
I2 Rb0 4.182241 1_454
