# generated using pymatgen
data_P6Pb3Xe11F58
_symmetry_space_group_name_H-M   'P 1'
_cell_length_a   8.87895892
_cell_length_b   8.87895892
_cell_length_c   19.06818646
_cell_angle_alpha   79.23419464
_cell_angle_beta   79.23419464
_cell_angle_gamma   83.11708913
_symmetry_Int_Tables_number   1
_chemical_formula_structural   P6Pb3Xe11F58
_chemical_formula_sum   'P6 Pb3 Xe11 F58'
_cell_volume   1445.17465947
_cell_formula_units_Z   1
loop_
 _symmetry_equiv_pos_site_id
 _symmetry_equiv_pos_as_xyz
  1  'x, y, z'
loop_
 _atom_site_type_symbol
 _atom_site_label
 _atom_site_symmetry_multiplicity
 _atom_site_fract_x
 _atom_site_fract_y
 _atom_site_fract_z
 _atom_site_occupancy
  P  P0  1  0.67102000  0.67102000  0.06135000  1
  P  P1  1  0.14466700  0.14466700  0.69405900  1
  P  P2  1  0.85533300  0.85533300  0.30594100  1
  P  P3  1  0.29775900  0.29775900  0.30296800  1
  P  P4  1  0.70224100  0.70224100  0.69703200  1
  P  P5  1  0.32898000  0.32898000  0.93865000  1
  Pb  Pb0  1  0.12671800  0.12671800  0.14024900  1
  Pb  Pb1  1  0.87328200  0.87328200  0.85975100  1
  Pb  Pb2  1  0.50000000  0.50000000  0.50000000  1
  Xe  Xe0  1  0.34716000  0.86061400  0.89883700  1
  Xe  Xe1  1  0.50000000  0.00000000  0.50000000  1
  Xe  Xe2  1  0.36019700  0.79102400  0.29948000  1
  Xe  Xe3  1  0.20897600  0.63980300  0.70052000  1
  Xe  Xe4  1  0.13938600  0.65284000  0.10116300  1
  Xe  Xe5  1  0.86061400  0.34716000  0.89883700  1
  Xe  Xe6  1  0.00000000  0.00000000  0.50000000  1
  Xe  Xe7  1  0.63980300  0.20897600  0.70052000  1
  Xe  Xe8  1  0.79102400  0.36019700  0.29948000  1
  Xe  Xe9  1  0.65284000  0.13938600  0.10116300  1
  Xe  Xe10  1  0.00000000  0.50000000  0.50000000  1
  F  F0  1  0.74557400  0.74557400  0.28275800  1
  F  F1  1  0.73721400  0.13078200  0.79307000  1
  F  F2  1  0.87862000  0.58309800  0.87619000  1
  F  F3  1  0.10830800  0.84592600  0.92397900  1
  F  F4  1  0.89169200  0.15407400  0.07602100  1
  F  F5  1  0.73760200  0.73760200  0.12252800  1
  F  F6  1  0.26278600  0.86921800  0.20693000  1
  F  F7  1  0.78688500  0.78688500  0.99674000  1
  F  F8  1  0.71537500  0.45823100  0.39299800  1
  F  F9  1  0.25442600  0.25442600  0.71724200  1
  F  F10  1  0.60470600  0.60470600  0.65926800  1
  F  F11  1  0.76247600  0.50300100  0.53151900  1
  F  F12  1  0.03155700  0.03155700  0.67364300  1
  F  F13  1  0.45221300  0.25506300  0.24690100  1
  F  F14  1  0.54176900  0.28462500  0.60700200  1
  F  F15  1  0.13997000  0.33513700  0.35949200  1
  F  F16  1  0.58309800  0.87862000  0.87619000  1
  F  F17  1  0.96844300  0.96844300  0.32635700  1
  F  F18  1  0.56202900  0.56202900  0.12298400  1
  F  F19  1  0.74493700  0.54778700  0.75309900  1
  F  F20  1  0.46486100  0.18747300  0.94030700  1
  F  F21  1  0.19736200  0.19736200  0.26390600  1
  F  F22  1  0.54778700  0.74493700  0.75309900  1
  F  F23  1  0.23752500  0.49699900  0.46848100  1
  F  F24  1  0.71712300  0.99433700  0.30545400  1
  F  F25  1  0.79574300  0.79574300  0.39236600  1
  F  F26  1  0.43797100  0.43797100  0.87701600  1
  F  F27  1  0.20425700  0.20425700  0.60763400  1
  F  F28  1  0.99433700  0.71712300  0.30545400  1
  F  F29  1  0.12138000  0.41690200  0.12381000  1
  F  F30  1  0.66486300  0.86003000  0.64050800  1
  F  F31  1  0.45823100  0.71537500  0.39299800  1
  F  F32  1  0.33513700  0.13997000  0.35949200  1
  F  F33  1  0.13078200  0.73721400  0.79307000  1
  F  F34  1  0.21311500  0.21311500  0.00326000  1
  F  F35  1  0.53513900  0.81252700  0.05969300  1
  F  F36  1  0.82411600  0.17588400  0.50000000  1
  F  F37  1  0.84592600  0.10830800  0.92397900  1
  F  F38  1  0.25506300  0.45221300  0.24690100  1
  F  F39  1  0.39529400  0.39529400  0.34073200  1
  F  F40  1  0.50300100  0.76247600  0.53151900  1
  F  F41  1  0.38907200  0.38907200  0.00331700  1
  F  F42  1  0.91877200  0.91877200  0.21797700  1
  F  F43  1  0.28287700  0.00566300  0.69454600  1
  F  F44  1  0.41690200  0.12138000  0.12381000  1
  F  F45  1  0.86003000  0.66486300  0.64050800  1
  F  F46  1  0.18747300  0.46486100  0.94030700  1
  F  F47  1  0.26239800  0.26239800  0.87747200  1
  F  F48  1  0.86921800  0.26278600  0.20693000  1
  F  F49  1  0.49699900  0.23752400  0.46848100  1
  F  F50  1  0.28462500  0.54176900  0.60700200  1
  F  F51  1  0.08122800  0.08122800  0.78202300  1
  F  F52  1  0.61092800  0.61092800  0.99668300  1
  F  F53  1  0.15407400  0.89169200  0.07602100  1
  F  F54  1  0.00566300  0.28287700  0.69454600  1
  F  F55  1  0.17588400  0.82411600  0.50000000  1
  F  F56  1  0.80263800  0.80263800  0.73609400  1
  F  F57  1  0.81252700  0.53513900  0.05969300  1
loop_
_geom_bond_atom_site_label_1
_geom_bond_atom_site_label_2
_geom_bond_distance
_geom_bond_site_symmetry_2
F0 P2 1.626167 1_555
F1 Xe7 2.076786 1_555
F1 Pb1 2.670092 1_545
F2 Xe5 2.077762 1_555
F2 Pb1 2.532504 1_555
F3 Xe0 2.099417 1_555
F3 Pb1 2.575997 1_455
F4 Xe9 2.099417 1_555
F4 Pb0 2.575997 1_655
F5 P0 1.630609 1_555
F6 Xe2 2.076786 1_555
F6 Pb0 2.670092 1_565
F7 P0 1.714987 1_556
F7 Pb1 2.577597 1_555
F8 Xe8 2.093077 1_555
F8 Pb2 2.571473 1_555
F9 P1 1.626167 1_555
F10 P4 1.632230 1_555
F11 Xe10 2.080540 1_655
F11 Pb2 2.517411 1_555
F12 P1 1.643976 1_555
F13 P3 1.626794 1_555
F14 Xe7 2.093077 1_555
F14 Pb2 2.571473 1_555
F15 P3 1.640941 1_555
F16 Xe0 2.077762 1_555
F16 Pb1 2.532504 1_555
F17 P2 1.643976 1_555
F18 P0 1.621381 1_555
F19 P4 1.626794 1_555
F20 P5 1.634414 1_555
F21 P3 1.682442 1_555
F21 Pb0 2.747000 1_555
F22 P4 1.626794 1_555
F23 Xe10 2.080548 1_555
F23 Pb2 2.517402 1_555
F24 P2 1.632864 1_555
F25 P2 1.640515 1_555
F26 P5 1.621381 1_555
F27 P1 1.640515 1_555
F28 P2 1.632864 1_555
F29 Xe4 2.077762 1_555
F29 Pb0 2.532504 1_555
F30 P4 1.640941 1_555
F31 Xe2 2.093077 1_555
F31 Pb2 2.571473 1_555
F32 P3 1.640941 1_555
F33 Xe3 2.076786 1_555
F33 Pb1 2.670092 1_455
F34 P5 1.714987 1_554
F34 Pb0 2.577597 1_555
F35 P0 1.634414 1_555
F36 Xe6 2.071973 1_655
F37 Xe5 2.099417 1_555
F37 Pb1 2.575997 1_545
F38 P3 1.626794 1_555
F39 P3 1.632230 1_555
F40 Xe1 2.080540 1_565
F40 Pb2 2.517411 1_555
F41 P5 1.627780 1_554
F42 P2 1.678706 1_555
F42 Pb0 2.790534 1_665
F43 P1 1.632864 1_555
F44 Xe9 2.077762 1_555
F44 Pb0 2.532504 1_555
F45 P4 1.640941 1_555
F46 P5 1.634414 1_555
F47 P5 1.630609 1_555
F48 Xe8 2.076786 1_555
F48 Pb0 2.670092 1_655
F49 Xe1 2.080540 1_555
F49 Pb2 2.517411 1_555
F50 Xe3 2.093077 1_555
F50 Pb2 2.571473 1_555
F51 P1 1.678706 1_555
F51 Pb1 2.790534 1_445
F52 P0 1.627780 1_556
F53 Xe4 2.099417 1_555
F53 Pb0 2.575997 1_565
F54 P1 1.632864 1_555
F55 Xe6 2.071973 1_565
F56 P4 1.682442 1_555
F56 Pb1 2.747000 1_555
F57 P0 1.634414 1_555
