# generated using pymatgen
data_BaTa2O6
_symmetry_space_group_name_H-M   'P 1'
_cell_length_a   21.43814373
_cell_length_b   21.43814373
_cell_length_c   3.97948100
_cell_angle_alpha   90.00000000
_cell_angle_beta   90.00000000
_cell_angle_gamma   119.99999916
_symmetry_Int_Tables_number   1
_chemical_formula_structural   BaTa2O6
_chemical_formula_sum   'Ba12 Ta24 O72'
_cell_volume   1583.91337951
_cell_formula_units_Z   12
loop_
 _symmetry_equiv_pos_site_id
 _symmetry_equiv_pos_as_xyz
  1  'x, y, z'
loop_
 _atom_site_type_symbol
 _atom_site_label
 _atom_site_symmetry_multiplicity
 _atom_site_fract_x
 _atom_site_fract_y
 _atom_site_fract_z
 _atom_site_occupancy
  Ba  Ba0  1  0.81780600  0.63561200  0.00000000  1
  Ba  Ba1  1  0.33333300  0.66666700  0.00000000  1
  Ba  Ba2  1  0.50000000  0.50000000  0.00000000  1
  Ba  Ba3  1  0.66666700  0.33333300  0.00000000  1
  Ba  Ba4  1  0.81780600  0.18219400  0.00000000  1
  Ba  Ba5  1  0.18219400  0.36438800  0.00000000  1
  Ba  Ba6  1  0.50000000  0.00000000  0.00000000  1
  Ba  Ba7  1  0.63561200  0.81780600  0.00000000  1
  Ba  Ba8  1  0.00000000  0.00000000  0.50000000  1
  Ba  Ba9  1  0.18219400  0.81780600  0.00000000  1
  Ba  Ba10  1  0.00000000  0.50000000  0.00000000  1
  Ba  Ba11  1  0.36438800  0.18219400  0.00000000  1
  Ta  Ta0  1  0.16376000  0.50725400  0.50000000  1
  Ta  Ta1  1  0.30822500  0.00000000  0.50000000  1
  Ta  Ta2  1  0.00000000  0.30822500  0.50000000  1
  Ta  Ta3  1  0.69177500  0.69177500  0.50000000  1
  Ta  Ta4  1  0.20349100  0.10174500  0.50000000  1
  Ta  Ta5  1  0.83624000  0.49274600  0.50000000  1
  Ta  Ta6  1  0.69177500  0.00000000  0.50000000  1
  Ta  Ta7  1  0.16376000  0.65650700  0.50000000  1
  Ta  Ta8  1  0.79650900  0.89825500  0.50000000  1
  Ta  Ta9  1  0.89825500  0.10174500  0.50000000  1
  Ta  Ta10  1  0.00000000  0.69177500  0.50000000  1
  Ta  Ta11  1  0.50725400  0.34349300  0.50000000  1
  Ta  Ta12  1  0.65650700  0.49274600  0.50000000  1
  Ta  Ta13  1  0.65650700  0.16376000  0.50000000  1
  Ta  Ta14  1  0.34349300  0.83624000  0.50000000  1
  Ta  Ta15  1  0.34349300  0.50725400  0.50000000  1
  Ta  Ta16  1  0.49274600  0.65650700  0.50000000  1
  Ta  Ta17  1  0.49274600  0.83624000  0.50000000  1
  Ta  Ta18  1  0.10174500  0.20349100  0.50000000  1
  Ta  Ta19  1  0.83624000  0.34349300  0.50000000  1
  Ta  Ta20  1  0.89825500  0.79650900  0.50000000  1
  Ta  Ta21  1  0.30822500  0.30822500  0.50000000  1
  Ta  Ta22  1  0.10174500  0.89825500  0.50000000  1
  Ta  Ta23  1  0.50725400  0.16376000  0.50000000  1
  O  O0  1  0.49317000  0.66175300  0.00000000  1
  O  O1  1  0.83141700  0.49317000  0.00000000  1
  O  O2  1  0.10522300  0.89477700  0.00000000  1
  O  O3  1  0.20580500  0.28387500  0.50000000  1
  O  O4  1  0.89477700  0.78955300  0.00000000  1
  O  O5  1  0.07807000  0.79419500  0.50000000  1
  O  O6  1  0.23747700  0.76252300  0.50000000  1
  O  O7  1  0.92084600  0.58726500  0.50000000  1
  O  O8  1  0.00000000  0.87373100  0.50000000  1
  O  O9  1  0.10522300  0.21044700  0.00000000  1
  O  O10  1  0.00000000  0.31085100  0.00000000  1
  O  O11  1  0.23747700  0.47495400  0.50000000  1
  O  O12  1  0.38369700  0.61630300  0.50000000  1
  O  O13  1  0.07807000  0.28387500  0.50000000  1
  O  O14  1  0.41273500  0.07915400  0.50000000  1
  O  O15  1  0.33358100  0.41273500  0.50000000  1
  O  O16  1  0.66641900  0.58726500  0.50000000  1
  O  O17  1  0.83141700  0.33824700  0.00000000  1
  O  O18  1  0.58726500  0.66641900  0.50000000  1
  O  O19  1  0.76252300  0.23747700  0.50000000  1
  O  O20  1  0.79419500  0.71612500  0.50000000  1
  O  O21  1  0.09505900  0.54753000  0.50000000  1
  O  O22  1  0.71612500  0.79419500  0.50000000  1
  O  O23  1  0.33358100  0.92084600  0.50000000  1
  O  O24  1  0.31085100  0.31085100  0.00000000  1
  O  O25  1  0.49317000  0.83141700  0.00000000  1
  O  O26  1  0.45247000  0.54753000  0.50000000  1
  O  O27  1  0.89477700  0.10522300  0.00000000  1
  O  O28  1  0.92084600  0.33358100  0.50000000  1
  O  O29  1  0.79419500  0.07807000  0.50000000  1
  O  O30  1  0.71612500  0.92193000  0.50000000  1
  O  O31  1  0.07915400  0.41273500  0.50000000  1
  O  O32  1  0.33824700  0.50683000  0.00000000  1
  O  O33  1  0.41273500  0.33358100  0.50000000  1
  O  O34  1  0.00000000  0.12626900  0.50000000  1
  O  O35  1  0.16858300  0.66175300  0.00000000  1
  O  O36  1  0.54753000  0.45247000  0.50000000  1
  O  O37  1  0.38369700  0.76739500  0.50000000  1
  O  O38  1  0.87373100  0.00000000  0.50000000  1
  O  O39  1  0.16858300  0.50683000  0.00000000  1
  O  O40  1  0.68914900  0.68914900  0.00000000  1
  O  O41  1  0.28387500  0.20580500  0.50000000  1
  O  O42  1  0.23260500  0.61630300  0.50000000  1
  O  O43  1  0.28387500  0.07807000  0.50000000  1
  O  O44  1  0.68914900  0.00000000  0.00000000  1
  O  O45  1  0.76739500  0.38369700  0.50000000  1
  O  O46  1  0.47495400  0.23747700  0.50000000  1
  O  O47  1  0.45247000  0.90494100  0.50000000  1
  O  O48  1  0.66641900  0.07915400  0.50000000  1
  O  O49  1  0.58726500  0.92084600  0.50000000  1
  O  O50  1  0.90494100  0.45247000  0.50000000  1
  O  O51  1  0.87373100  0.87373100  0.50000000  1
  O  O52  1  0.50683000  0.33824700  0.00000000  1
  O  O53  1  0.76252300  0.52504600  0.50000000  1
  O  O54  1  0.66175300  0.16858300  0.00000000  1
  O  O55  1  0.12626900  0.12626900  0.50000000  1
  O  O56  1  0.92193000  0.71612500  0.50000000  1
  O  O57  1  0.61630300  0.38369700  0.50000000  1
  O  O58  1  0.92193000  0.20580500  0.50000000  1
  O  O59  1  0.00000000  0.68914900  0.00000000  1
  O  O60  1  0.61630300  0.23260500  0.50000000  1
  O  O61  1  0.78955300  0.89477700  0.00000000  1
  O  O62  1  0.31085100  0.00000000  0.00000000  1
  O  O63  1  0.52504600  0.76252300  0.50000000  1
  O  O64  1  0.54753000  0.09505900  0.50000000  1
  O  O65  1  0.20580500  0.92193000  0.50000000  1
  O  O66  1  0.12626900  0.00000000  0.50000000  1
  O  O67  1  0.66175300  0.49317000  0.00000000  1
  O  O68  1  0.07915400  0.66641900  0.50000000  1
  O  O69  1  0.21044700  0.10522300  0.00000000  1
  O  O70  1  0.50683000  0.16858300  0.00000000  1
  O  O71  1  0.33824700  0.83141700  0.00000000  1
loop_
_geom_bond_atom_site_label_1
_geom_bond_atom_site_label_2
_geom_bond_distance
_geom_bond_site_symmetry_2
Ba0 O20 2.840460 1_555
Ba0 O20 2.840460 1_554
Ba0 O56 2.840460 1_555
Ba0 O56 2.840460 1_554
Ba0 O4 2.858065 1_555
Ba0 O53 2.858831 1_554
Ba0 O53 2.858831 1_555
Ba0 O1 3.209553 1_555
Ba0 O67 3.209553 1_555
Ba1 O12 2.730640 1_554
Ba1 O12 2.730640 1_555
Ba1 O42 2.730640 1_555
Ba1 O42 2.730640 1_554
Ba1 O37 2.730640 1_554
Ba1 O37 2.730640 1_555
Ba2 O36 2.659676 1_555
Ba2 O26 2.659676 1_555
Ba2 O26 2.659676 1_554
Ba2 O36 2.659676 1_554
Ba3 O57 2.730640 1_555
Ba3 O57 2.730640 1_554
Ba3 O60 2.730640 1_555
Ba3 O60 2.730640 1_554
Ba3 O45 2.730640 1_555
Ba3 O45 2.730640 1_554
Ba4 O29 2.840460 1_555
Ba4 O29 2.840460 1_554
Ba4 O58 2.840460 1_555
Ba4 O58 2.840460 1_554
Ba4 O27 2.858084 1_555
Ba4 O19 2.858831 1_555
Ba4 O19 2.858831 1_554
Ba4 O54 3.209553 1_555
Ba4 O17 3.209553 1_555
Ba5 O3 2.840460 1_554
Ba5 O3 2.840460 1_555
Ba5 O13 2.840460 1_555
Ba5 O13 2.840460 1_554
Ba5 O9 2.858065 1_555
Ba5 O11 2.858831 1_554
Ba5 O11 2.858831 1_555
Ba5 O39 3.209553 1_555
Ba5 O32 3.209553 1_555
Ba6 O64 2.659663 1_555
Ba6 O64 2.659663 1_554
Ba6 O47 2.659663 1_545
Ba6 O47 2.659663 1_544
Ba7 O22 2.840460 1_554
Ba7 O22 2.840460 1_555
Ba7 O30 2.840460 1_555
Ba7 O30 2.840460 1_554
Ba7 O61 2.858065 1_555
Ba7 O63 2.858831 1_555
Ba7 O63 2.858831 1_554
Ba7 O25 3.209553 1_555
Ba7 O0 3.209553 1_555
Ba8 O8 2.706973 1_545
Ba8 O38 2.706973 1_455
Ba8 O34 2.706973 1_555
Ba8 O66 2.706973 1_555
Ba8 O51 2.706973 1_445
Ba8 O55 2.706973 1_555
Ba9 O5 2.840460 1_554
Ba9 O5 2.840460 1_555
Ba9 O65 2.840460 1_555
Ba9 O65 2.840460 1_554
Ba9 O2 2.858084 1_555
Ba9 O6 2.858831 1_555
Ba9 O6 2.858831 1_554
Ba9 O35 3.209553 1_555
Ba9 O71 3.209553 1_555
Ba10 O50 2.659663 1_455
Ba10 O50 2.659663 1_454
Ba10 O21 2.659663 1_555
Ba10 O21 2.659663 1_554
Ba11 O41 2.840460 1_555
Ba11 O41 2.840460 1_554
Ba11 O43 2.840460 1_555
Ba11 O43 2.840460 1_554
Ba11 O69 2.858065 1_555
Ba11 O46 2.858831 1_554
Ba11 O46 2.858831 1_555
Ba11 O70 3.209553 1_555
Ba11 O52 3.209553 1_555
O0 Ta16 1.992681 1_555
O0 Ta16 1.992681 1_554
O1 Ta5 1.992682 1_554
O1 Ta5 1.992682 1_555
O2 Ta22 1.993927 1_554
O2 Ta22 1.993927 1_555
O3 Ta21 1.986803 1_555
O3 Ta18 2.025344 1_555
O4 Ta20 1.993927 1_555
O4 Ta20 1.993927 1_554
O5 Ta10 1.986803 1_555
O5 Ta22 2.025351 1_555
O6 Ta14 2.017739 1_555
O6 Ta7 2.017739 1_555
O7 Ta5 1.928854 1_555
O7 Ta10 2.024209 1_655
O8 Ta22 1.971642 1_555
O8 Ta20 1.971649 1_455
O9 Ta18 1.993927 1_554
O9 Ta18 1.993927 1_555
O10 Ta2 1.990537 1_555
O10 Ta2 1.990537 1_554
O11 Ta15 2.017734 1_555
O11 Ta0 2.017755 1_555
O12 Ta16 2.047746 1_555
O12 Ta15 2.047746 1_555
O13 Ta2 1.986803 1_555
O13 Ta18 2.025330 1_555
O14 Ta23 1.928854 1_555
O14 Ta1 2.024209 1_555
O15 Ta15 1.928863 1_555
O15 Ta21 2.024209 1_555
O16 Ta12 1.928863 1_555
O16 Ta3 2.024209 1_555
O17 Ta19 1.992681 1_555
O17 Ta19 1.992681 1_554
O18 Ta16 1.928863 1_555
O18 Ta3 2.024209 1_555
O19 Ta19 2.017739 1_555
O19 Ta13 2.017739 1_555
O20 Ta3 1.986803 1_555
O20 Ta20 2.025344 1_555
O21 Ta0 2.046078 1_555
O21 Ta7 2.046078 1_555
O22 Ta3 1.986803 1_555
O22 Ta8 2.025344 1_555
O23 Ta14 1.928842 1_555
O23 Ta1 2.024209 1_565
O24 Ta21 1.990537 1_555
O24 Ta21 1.990537 1_554
O25 Ta17 1.992682 1_555
O25 Ta17 1.992682 1_554
O26 Ta15 2.046078 1_555
O26 Ta16 2.046078 1_555
O27 Ta9 1.993927 1_555
O27 Ta9 1.993927 1_554
O28 Ta19 1.928842 1_555
O28 Ta2 2.024209 1_655
O29 Ta6 1.986803 1_555
O29 Ta9 2.025351 1_555
O30 Ta6 1.986803 1_565
O30 Ta8 2.025330 1_555
O31 Ta0 1.928854 1_555
O31 Ta2 2.024209 1_555
O32 Ta15 1.992681 1_554
O32 Ta15 1.992681 1_555
O33 Ta11 1.928863 1_555
O33 Ta21 2.024209 1_555
O34 Ta9 1.971642 1_455
O34 Ta18 1.971649 1_555
O35 Ta7 1.992681 1_554
O35 Ta7 1.992681 1_555
O36 Ta11 2.046078 1_555
O36 Ta12 2.046078 1_555
O37 Ta14 2.047746 1_555
O37 Ta17 2.047746 1_555
O38 Ta9 1.971642 1_555
O38 Ta8 1.971649 1_545
O39 Ta0 1.992682 1_555
O39 Ta0 1.992682 1_554
O40 Ta3 1.990537 1_554
O40 Ta3 1.990537 1_555
O41 Ta21 1.986803 1_555
O41 Ta4 2.025344 1_555
O42 Ta7 2.047746 1_555
O42 Ta0 2.047746 1_555
O43 Ta1 1.986803 1_555
O43 Ta4 2.025330 1_555
O44 Ta6 1.990537 1_554
O44 Ta6 1.990537 1_555
O45 Ta19 2.047746 1_555
O45 Ta5 2.047746 1_555
O46 Ta11 2.017734 1_555
O46 Ta23 2.017755 1_555
O47 Ta17 2.046078 1_555
O47 Ta14 2.046078 1_555
O48 Ta13 1.928842 1_555
O48 Ta6 2.024209 1_555
O49 Ta17 1.928854 1_555
O49 Ta6 2.024209 1_565
O50 Ta5 2.046078 1_555
O50 Ta19 2.046078 1_555
O51 Ta20 1.971663 1_555
O51 Ta8 1.971663 1_555
O52 Ta11 1.992681 1_555
O52 Ta11 1.992681 1_554
O53 Ta12 2.017734 1_555
O53 Ta5 2.017755 1_555
O54 Ta13 1.992681 1_555
O54 Ta13 1.992681 1_554
O55 Ta18 1.971663 1_555
O55 Ta4 1.971663 1_555
O56 Ta10 1.986803 1_655
O56 Ta20 2.025330 1_555
O57 Ta12 2.047746 1_555
O57 Ta11 2.047746 1_555
O58 Ta2 1.986803 1_655
O58 Ta9 2.025351 1_555
O59 Ta10 1.990537 1_555
O59 Ta10 1.990537 1_554
O60 Ta13 2.047746 1_555
O60 Ta23 2.047746 1_555
O61 Ta8 1.993927 1_554
O61 Ta8 1.993927 1_555
O62 Ta1 1.990537 1_555
O62 Ta1 1.990537 1_554
O63 Ta16 2.017734 1_555
O63 Ta17 2.017755 1_555
O64 Ta23 2.046078 1_555
O64 Ta13 2.046078 1_555
O65 Ta1 1.986803 1_565
O65 Ta22 2.025351 1_555
O66 Ta22 1.971642 1_545
O66 Ta4 1.971649 1_555
O67 Ta12 1.992681 1_555
O67 Ta12 1.992681 1_554
O68 Ta7 1.928842 1_555
O68 Ta10 2.024209 1_555
O69 Ta4 1.993927 1_555
O69 Ta4 1.993927 1_554
O70 Ta23 1.992682 1_555
O70 Ta23 1.992682 1_554
O71 Ta14 1.992681 1_554
O71 Ta14 1.992681 1_555
