# generated using pymatgen
data_CdI2
_symmetry_space_group_name_H-M   'P 1'
_cell_length_a   4.28636008
_cell_length_b   4.28635996
_cell_length_c   64.37281574
_cell_angle_alpha   90.00000000
_cell_angle_beta   90.00000000
_cell_angle_gamma   120.00000093
_symmetry_Int_Tables_number   1
_chemical_formula_structural   CdI2
_chemical_formula_sum   'Cd9 I18'
_cell_volume   1024.26049987
_cell_formula_units_Z   9
loop_
 _symmetry_equiv_pos_site_id
 _symmetry_equiv_pos_as_xyz
  1  'x, y, z'
loop_
 _atom_site_type_symbol
 _atom_site_label
 _atom_site_symmetry_multiplicity
 _atom_site_fract_x
 _atom_site_fract_y
 _atom_site_fract_z
 _atom_site_occupancy
  Cd  Cd0  1  0.66666700  0.33333300  0.58314558  1
  Cd  Cd1  1  0.66666700  0.33333300  0.36161072  1
  Cd  Cd2  1  0.00000000  -0.00000000  0.47211347  1
  Cd  Cd3  1  0.00000000  0.00000000  0.91603571  1
  Cd  Cd4  1  0.66666700  0.33333300  0.02829749  1
  Cd  Cd5  1  0.00000000  -0.00000000  0.13938888  1
  Cd  Cd6  1  0.66666700  0.33333300  0.69386453  1
  Cd  Cd7  1  0.00000000  -0.00000000  0.80491935  1
  Cd  Cd8  1  0.66666700  0.33333300  0.25070037  1
  I  I0  1  0.00000000  0.00000000  0.55638661  1
  I  I1  1  0.33333300  0.66666700  0.72059003  1
  I  I2  1  0.00000000  -0.00000000  0.22386741  1
  I  I3  1  0.33333300  0.66666700  0.27751813  1
  I  I4  1  0.00000000  0.00000000  0.66700463  1
  I  I5  1  0.33333300  0.66666700  0.05501449  1
  I  I6  1  0.33333300  0.66666700  0.60992768  1
  I  I7  1  0.66666700  0.33333300  0.88919347  1
  I  I8  1  0.33333300  0.66666700  0.94281029  1
  I  I9  1  0.66666700  0.33333300  0.11271708  1
  I  I10  1  0.00000000  0.00000000  0.00160441  1
  I  I11  1  0.66666700  0.33333300  0.44528281  1
  I  I12  1  0.33333300  0.66666700  0.16609868  1
  I  I13  1  0.66666700  0.33333300  0.77808349  1
  I  I14  1  0.33333300  0.66666700  0.38827009  1
  I  I15  1  0.00000000  0.00000000  0.33493750  1
  I  I16  1  0.33333300  0.66666700  0.83169703  1
  I  I17  1  0.33333300  0.66666700  0.49891909  1
loop_
_geom_bond_atom_site_label_1
_geom_bond_atom_site_label_2
_geom_bond_distance
_geom_bond_site_symmetry_2
Cd0 I0 3.015205 1_655
Cd0 I0 3.015208 1_665
Cd0 I0 3.015208 1_555
Cd0 I6 3.016056 1_545
Cd0 I6 3.016056 1_655
Cd0 I6 3.016062 1_555
Cd1 I14 3.011547 1_545
Cd1 I14 3.011547 1_655
Cd1 I14 3.011553 1_555
Cd1 I15 3.012055 1_655
Cd1 I15 3.012058 1_665
Cd1 I15 3.012058 1_555
Cd2 I17 3.016922 1_545
Cd2 I17 3.016925 1_555
Cd2 I17 3.016925 1_445
Cd2 I11 3.017844 1_455
Cd2 I11 3.017847 1_445
Cd2 I11 3.017847 1_555
Cd3 I8 3.015779 1_545
Cd3 I8 3.015782 1_555
Cd3 I8 3.015782 1_445
Cd3 I7 3.018271 1_455
Cd3 I7 3.018273 1_445
Cd3 I7 3.018274 1_555
Cd4 I10 3.012784 1_655
Cd4 I10 3.012787 1_665
Cd4 I10 3.012787 1_555
Cd4 I5 3.013662 1_545
Cd4 I5 3.013662 1_655
Cd4 I5 3.013668 1_555
Cd5 I9 3.012003 1_455
Cd5 I9 3.012006 1_445
Cd5 I9 3.012006 1_555
Cd5 I12 3.013398 1_545
Cd5 I12 3.013401 1_555
Cd5 I12 3.013401 1_445
Cd6 I1 3.013975 1_545
Cd6 I1 3.013975 1_655
Cd6 I1 3.013981 1_555
Cd6 I4 3.018921 1_655
Cd6 I4 3.018924 1_665
Cd6 I4 3.018925 1_555
Cd7 I16 3.015893 1_545
Cd7 I16 3.015896 1_555
Cd7 I16 3.015896 1_445
Cd7 I13 3.018035 1_455
Cd7 I13 3.018038 1_445
Cd7 I13 3.018038 1_555
Cd8 I3 3.017369 1_545
Cd8 I3 3.017369 1_655
Cd8 I3 3.017375 1_555
Cd8 I2 3.017929 1_655
Cd8 I2 3.017932 1_665
Cd8 I2 3.017932 1_555
