# generated using pymatgen
data_NaCo3P3(HO6)2
_symmetry_space_group_name_H-M   'P 1'
_cell_length_a   8.55053556
_cell_length_b   8.55053556
_cell_length_c   6.61969551
_cell_angle_alpha   73.25460288
_cell_angle_beta   73.25460288
_cell_angle_gamma   91.05281667
_symmetry_Int_Tables_number   1
_chemical_formula_structural   NaCo3P3(HO6)2
_chemical_formula_sum   'Na2 Co6 P6 H4 O24'
_cell_volume   441.07966377
_cell_formula_units_Z   2
loop_
 _symmetry_equiv_pos_site_id
 _symmetry_equiv_pos_as_xyz
  1  'x, y, z'
loop_
 _atom_site_type_symbol
 _atom_site_label
 _atom_site_symmetry_multiplicity
 _atom_site_fract_x
 _atom_site_fract_y
 _atom_site_fract_z
 _atom_site_occupancy
  Na  Na0  1  0.95658100  0.04341900  0.25000000  1
  Na  Na1  1  0.04341900  0.95658100  0.75000000  1
  Co  Co0  1  0.72384900  0.27615100  0.75000000  1
  Co  Co1  1  0.27615100  0.72384900  0.25000000  1
  Co  Co2  1  0.62598700  0.95040000  0.62565800  1
  Co  Co3  1  0.04960000  0.37401300  0.87434200  1
  Co  Co4  1  0.37401300  0.04960000  0.37434200  1
  Co  Co5  1  0.95040000  0.62598700  0.12565800  1
  P  P0  1  0.31742600  0.68257400  0.75000000  1
  P  P1  1  0.68257400  0.31742600  0.25000000  1
  P  P2  1  0.32814000  0.10610200  0.88953800  1
  P  P3  1  0.89389800  0.67186000  0.61046200  1
  P  P4  1  0.67186000  0.89389800  0.11046200  1
  P  P5  1  0.10610200  0.32814000  0.38953800  1
  H  H0  1  0.38782100  0.37591300  0.81088700  1
  H  H1  1  0.62408700  0.61217900  0.68911300  1
  H  H2  1  0.61217900  0.62408700  0.18911300  1
  H  H3  1  0.37591300  0.38782100  0.31088700  1
  O  O0  1  0.72088400  0.20748700  0.46073300  1
  O  O1  1  0.79251300  0.27911600  0.03926700  1
  O  O2  1  0.27911600  0.79251300  0.53926700  1
  O  O3  1  0.20748700  0.72088400  0.96073300  1
  O  O4  1  0.50097600  0.71545400  0.73187300  1
  O  O5  1  0.28454600  0.49902400  0.76812700  1
  O  O6  1  0.49902400  0.28454600  0.26812700  1
  O  O7  1  0.71545400  0.50097600  0.23187300  1
  O  O8  1  0.67169800  0.01808400  0.88752500  1
  O  O9  1  0.98191600  0.32830200  0.61247500  1
  O  O10  1  0.32830200  0.98191600  0.11247500  1
  O  O11  1  0.01808400  0.67169800  0.38752500  1
  O  O12  1  0.73312900  0.55103000  0.65557900  1
  O  O13  1  0.44897000  0.26687100  0.84442100  1
  O  O14  1  0.26687100  0.44897000  0.34442100  1
  O  O15  1  0.55103000  0.73312900  0.15557900  1
  O  O16  1  0.39303100  0.03506400  0.69651900  1
  O  O17  1  0.96493600  0.60696900  0.80348100  1
  O  O18  1  0.60696900  0.96493600  0.30348100  1
  O  O19  1  0.03506400  0.39303100  0.19651900  1
  O  O20  1  0.84566800  0.84638800  0.59565100  1
  O  O21  1  0.15361200  0.15433200  0.90434900  1
  O  O22  1  0.15433200  0.15361200  0.40434900  1
  O  O23  1  0.84638800  0.84566800  0.09565100  1
loop_
_geom_bond_atom_site_label_1
_geom_bond_atom_site_label_2
_geom_bond_distance
_geom_bond_site_symmetry_2
Na0 O20 2.332955 1_545
Na0 O21 2.332955 1_654
Na0 O22 2.506494 1_655
Na0 O23 2.506494 1_545
Na0 O0 2.754484 1_555
Na0 O1 2.754484 1_555
Na1 O23 2.332955 1_456
Na1 O22 2.332955 1_565
Na1 O20 2.506494 1_455
Na1 O21 2.506494 1_565
Na1 O3 2.754484 1_555
Na1 O2 2.754484 1_555
Co0 O8 2.114025 1_555
Co0 O9 2.114025 1_555
Co0 O1 2.165015 1_556
Co0 O0 2.165015 1_555
Co0 O13 2.244818 1_555
Co0 O12 2.244818 1_555
Co1 O11 2.114025 1_555
Co1 O10 2.114025 1_555
Co1 O2 2.165015 1_555
Co1 O3 2.165015 1_554
Co1 O14 2.244818 1_555
Co1 O15 2.244818 1_555
Co2 O20 2.075319 1_555
Co2 O4 2.084886 1_555
Co2 O16 2.102858 1_565
Co2 O8 2.110180 1_565
Co2 O18 2.153648 1_555
Co2 O0 2.173384 1_565
Co3 O21 2.075319 1_555
Co3 O5 2.084886 1_555
Co3 O17 2.102858 1_455
Co3 O9 2.110180 1_455
Co3 O19 2.153648 1_556
Co3 O1 2.173384 1_456
Co4 O22 2.075319 1_555
Co4 O6 2.084886 1_555
Co4 O18 2.102858 1_545
Co4 O10 2.110180 1_545
Co4 O16 2.153648 1_555
Co4 O2 2.173384 1_545
Co5 O23 2.075319 1_555
Co5 O7 2.084886 1_555
Co5 O19 2.102858 1_655
Co5 O11 2.110180 1_655
Co5 O17 2.153648 1_554
Co5 O3 2.173384 1_654
H0 O13 1.075870 1_555
H0 O5 1.405172 1_555
H1 O12 1.075870 1_555
H1 O4 1.405172 1_555
H2 O15 1.075870 1_555
H2 O7 1.405172 1_555
H3 O14 1.075870 1_555
H3 O6 1.405172 1_555
O0 P1 1.567148 1_555
O1 P1 1.567148 1_555
O2 P0 1.567148 1_555
O3 P0 1.567148 1_555
O4 P0 1.553203 1_555
O5 P0 1.553203 1_555
O6 P1 1.553203 1_555
O7 P1 1.553203 1_555
O8 P4 1.550382 1_546
O9 P5 1.550382 1_655
O10 P2 1.550382 1_564
O11 P3 1.550382 1_455
O12 P3 1.606156 1_555
O13 P2 1.606156 1_555
O14 P5 1.606156 1_555
O15 P4 1.606156 1_555
O16 P2 1.536386 1_555
O17 P3 1.536386 1_555
O18 P4 1.536386 1_555
O19 P5 1.536386 1_555
O20 P3 1.538917 1_555
O21 P2 1.538917 1_555
O22 P5 1.538917 1_555
O23 P4 1.538917 1_555
