# generated using pymatgen
data_Ga6SnTe10
_symmetry_space_group_name_H-M   'P 1'
_cell_length_a   14.79711209
_cell_length_b   14.79711209
_cell_length_c   18.13149100
_cell_angle_alpha   90.00000000
_cell_angle_beta   90.00000000
_cell_angle_gamma   120.00000041
_symmetry_Int_Tables_number   1
_chemical_formula_structural   Ga6SnTe10
_chemical_formula_sum   'Ga36 Sn6 Te60'
_cell_volume   3438.09660918
_cell_formula_units_Z   6
loop_
 _symmetry_equiv_pos_site_id
 _symmetry_equiv_pos_as_xyz
  1  'x, y, z'
loop_
 _atom_site_type_symbol
 _atom_site_label
 _atom_site_symmetry_multiplicity
 _atom_site_fract_x
 _atom_site_fract_y
 _atom_site_fract_z
 _atom_site_occupancy
  Ga  Ga0  1  0.00800500  0.92501700  0.41413200  1
  Ga  Ga1  1  0.14170700  0.92196800  0.59733800  1
  Ga  Ga2  1  0.25718100  0.81163300  0.07357400  1
  Ga  Ga3  1  0.11539200  0.52300400  0.93430200  1
  Ga  Ga4  1  0.25313100  0.67611900  0.25072800  1
  Ga  Ga5  1  0.25280500  0.65972900  0.74859600  1
  Ga  Ga6  1  0.40761200  0.88460800  0.60096800  1
  Ga  Ga7  1  0.18836700  0.44554900  0.40690800  1
  Ga  Ga8  1  0.07803200  0.21973900  0.93067200  1
  Ga  Ga9  1  0.07498300  0.08298800  0.74746500  1
  Ga  Ga10  1  0.40692400  0.74719500  0.41526300  1
  Ga  Ga11  1  0.32388100  0.57701200  0.58406200  1
  Ga  Ga12  1  0.34027100  0.59307600  0.08193000  1
  Ga  Ga13  1  0.08298800  0.07498300  0.25253500  1
  Ga  Ga14  1  0.42298800  0.74686900  0.91739500  1
  Ga  Ga15  1  0.21973900  0.07803200  0.06932800  1
  Ga  Ga16  1  0.47699600  0.59238800  0.26763500  1
  Ga  Ga17  1  0.55445100  0.74281900  0.74024100  1
  Ga  Ga18  1  0.44554900  0.18836700  0.59309200  1
  Ga  Ga19  1  0.78026100  0.85829300  0.26400500  1
  Ga  Ga20  1  0.59238800  0.47699600  0.73236500  1
  Ga  Ga21  1  0.57701200  0.32388100  0.41593800  1
  Ga  Ga22  1  0.91701200  0.99199500  0.08079900  1
  Ga  Ga23  1  0.59307600  0.34027100  0.91807000  1
  Ga  Ga24  1  0.52300400  0.11539200  0.06569800  1
  Ga  Ga25  1  0.74281900  0.55445100  0.25975900  1
  Ga  Ga26  1  0.85829300  0.78026100  0.73599500  1
  Ga  Ga27  1  0.99199500  0.91701200  0.91920100  1
  Ga  Ga28  1  0.65972900  0.25280500  0.25140400  1
  Ga  Ga29  1  0.74686900  0.42298800  0.08260500  1
  Ga  Ga30  1  0.74719500  0.40692400  0.58473700  1
  Ga  Ga31  1  0.67611900  0.25313100  0.74927200  1
  Ga  Ga32  1  0.88460800  0.40761200  0.39903200  1
  Ga  Ga33  1  0.81163300  0.25718100  0.92642600  1
  Ga  Ga34  1  0.92196800  0.14170700  0.40266200  1
  Ga  Ga35  1  0.92501700  0.00800500  0.58586800  1
  Sn  Sn0  1  0.08603200  0.73998400  0.84454200  1
  Sn  Sn1  1  0.26001600  0.34604800  0.17787500  1
  Sn  Sn2  1  0.65395200  0.91396800  0.51120800  1
  Sn  Sn3  1  0.34604800  0.26001600  0.82212500  1
  Sn  Sn4  1  0.91396800  0.65395200  0.48879200  1
  Sn  Sn5  1  0.73998400  0.08603200  0.15545800  1
  Te  Te0  1  0.03429800  0.90074300  0.06245200  1
  Te  Te1  1  0.25048000  0.25048000  0.00000000  1
  Te  Te2  1  0.00000000  0.74952000  0.66666700  1
  Te  Te3  1  0.14109300  0.86579900  0.45763500  1
  Te  Te4  1  0.08344700  0.66181200  0.00666700  1
  Te  Te5  1  0.06016000  0.52614800  0.79431700  1
  Te  Te6  1  0.21719300  0.82445000  0.21210200  1
  Te  Te7  1  0.33071100  0.99901500  0.00358500  1
  Te  Te8  1  0.00098500  0.33169600  0.33691800  1
  Te  Te9  1  0.19894500  0.63193600  0.39456800  1
  Te  Te10  1  0.23471800  0.69902200  0.60544100  1
  Te  Te11  1  0.17105600  0.51021600  0.16397400  1
  Te  Te12  1  0.00000000  0.15870100  0.16666700  1
  Te  Te13  1  0.33916000  0.82894400  0.83064100  1
  Te  Te14  1  0.17555000  0.39274300  0.54543600  1
  Te  Te15  1  0.13420100  0.27529400  0.79096900  1
  Te  Te16  1  0.46598800  0.93984000  0.46098300  1
  Te  Te17  1  0.43299100  0.80105500  0.06123500  1
  Te  Te18  1  0.09925700  0.13355500  0.39578600  1
  Te  Te19  1  0.30097800  0.53569600  0.93877500  1
  Te  Te20  1  0.46430400  0.76528200  0.27210800  1
  Te  Te21  1  0.13355500  0.09925700  0.60421400  1
  Te  Te22  1  0.36806400  0.56700900  0.72790200  1
  Te  Te23  1  0.57836500  0.91655300  0.67333400  1
  Te  Te24  1  0.33818800  0.42163500  0.34000000  1
  Te  Te25  1  0.15870100  0.00000000  0.83333300  1
  Te  Te26  1  0.48978400  0.66084000  0.49730700  1
  Te  Te27  1  0.47385200  0.53401200  0.12765000  1
  Te  Te28  1  0.27529400  0.13420100  0.20903100  1
  Te  Te29  1  0.60725700  0.78280700  0.87876900  1
  Te  Te30  1  0.42163500  0.33818800  0.66000000  1
  Te  Te31  1  0.72470600  0.85890700  0.12430200  1
  Te  Te32  1  0.53401200  0.47385200  0.87235000  1
  Te  Te33  1  0.39274300  0.17555000  0.45456400  1
  Te  Te34  1  0.33169600  0.00098500  0.66308200  1
  Te  Te35  1  0.66830400  0.66928900  0.67025200  1
  Te  Te36  1  0.66928900  0.66830400  0.32974800  1
  Te  Te37  1  0.86644500  0.96570200  0.72911900  1
  Te  Te38  1  0.56700900  0.36806400  0.27209800  1
  Te  Te39  1  0.53569600  0.30097800  0.06122500  1
  Te  Te40  1  0.66084000  0.48978400  0.50269300  1
  Te  Te41  1  0.84129900  0.84129900  0.50000000  1
  Te  Te42  1  0.51021600  0.17105600  0.83602600  1
  Te  Te43  1  0.78280700  0.60725700  0.12123100  1
  Te  Te44  1  0.85890700  0.72470600  0.87569800  1
  Te  Te45  1  0.52614800  0.06016000  0.20568300  1
  Te  Te46  1  0.63193600  0.19894500  0.60543200  1
  Te  Te47  1  0.96570200  0.86644500  0.27088100  1
  Te  Te48  1  0.76528200  0.46430400  0.72789200  1
  Te  Te49  1  0.69902200  0.23471800  0.39455900  1
  Te  Te50  1  0.80105500  0.43299100  0.93876500  1
  Te  Te51  1  0.66181200  0.08344700  0.99333300  1
  Te  Te52  1  0.91655300  0.57836500  0.32666600  1
  Te  Te53  1  0.82894400  0.33916000  0.16935900  1
  Te  Te54  1  0.93984000  0.46598800  0.53901700  1
  Te  Te55  1  0.82445000  0.21719300  0.78789800  1
  Te  Te56  1  0.74952000  0.00000000  0.33333300  1
  Te  Te57  1  0.86579900  0.14109300  0.54236500  1
  Te  Te58  1  0.99901500  0.33071100  0.99641500  1
  Te  Te59  1  0.90074300  0.03429800  0.93754800  1
loop_
_geom_bond_atom_site_label_1
_geom_bond_atom_site_label_2
_geom_bond_distance
_geom_bond_site_symmetry_2
Ga0 Te41 2.643429 1_455
Ga0 Te3 2.644585 1_555
Ga0 Te18 2.699849 1_565
Ga0 Te47 2.710484 1_455
Ga1 Te3 2.664495 1_555
Ga1 Te2 2.671642 1_555
Ga1 Te21 2.688603 1_565
Ga1 Te34 2.721094 1_565
Ga2 Te6 2.609030 1_555
Ga2 Te17 2.692479 1_555
Ga2 Te4 2.701119 1_555
Ga2 Te7 2.732274 1_555
Ga3 Te19 2.658454 1_555
Ga3 Te4 2.671075 1_556
Ga3 Te5 2.673997 1_555
Ga3 Te58 2.725819 1_455
Ga4 Te6 2.599599 1_555
Ga4 Te11 2.644670 1_555
Ga4 Te9 2.710710 1_555
Ga4 Te20 2.744519 1_555
Ga5 Te13 2.629777 1_555
Ga5 Te5 2.661874 1_555
Ga5 Te22 2.696626 1_555
Ga5 Te10 2.702314 1_555
Ga6 Te10 2.658454 1_555
Ga6 Te23 2.671084 1_555
Ga6 Te16 2.673997 1_555
Ga6 Te34 2.725826 1_565
Ga7 Te14 2.609034 1_555
Ga7 Te9 2.692466 1_555
Ga7 Te24 2.701135 1_555
Ga7 Te8 2.732284 1_555
Ga8 Te15 2.664495 1_555
Ga8 Te1 2.671633 1_556
Ga8 Te59 2.688603 1_455
Ga8 Te58 2.721086 1_455
Ga9 Te25 2.643429 1_555
Ga9 Te15 2.644590 1_555
Ga9 Te37 2.699849 1_445
Ga9 Te21 2.710484 1_555
Ga10 Te26 2.629767 1_555
Ga10 Te16 2.661868 1_555
Ga10 Te9 2.696629 1_555
Ga10 Te20 2.702314 1_555
Ga11 Te14 2.599599 1_555
Ga11 Te26 2.644681 1_555
Ga11 Te22 2.710710 1_555
Ga11 Te10 2.744516 1_555
Ga12 Te11 2.629767 1_555
Ga12 Te27 2.661868 1_555
Ga12 Te17 2.696629 1_555
Ga12 Te19 2.702314 1_554
Ga13 Te12 2.643429 1_555
Ga13 Te28 2.644590 1_555
Ga13 Te47 2.699849 1_445
Ga13 Te18 2.710484 1_555
Ga14 Te29 2.599599 1_555
Ga14 Te13 2.644670 1_555
Ga14 Te17 2.710710 1_556
Ga14 Te19 2.744519 1_555
Ga15 Te28 2.664495 1_555
Ga15 Te1 2.671633 1_555
Ga15 Te0 2.688603 1_545
Ga15 Te7 2.721086 1_545
Ga16 Te20 2.658454 1_555
Ga16 Te24 2.671075 1_555
Ga16 Te27 2.673997 1_555
Ga16 Te36 2.725819 1_555
Ga17 Te29 2.609033 1_555
Ga17 Te22 2.692471 1_555
Ga17 Te23 2.701114 1_555
Ga17 Te35 2.732286 1_555
Ga18 Te33 2.609034 1_555
Ga18 Te46 2.692466 1_555
Ga18 Te30 2.701135 1_555
Ga18 Te34 2.732284 1_555
Ga19 Te31 2.664495 1_555
Ga19 Te56 2.671633 1_565
Ga19 Te47 2.688603 1_555
Ga19 Te36 2.721086 1_555
Ga20 Te48 2.658454 1_555
Ga20 Te30 2.671075 1_555
Ga20 Te32 2.673997 1_555
Ga20 Te35 2.725819 1_555
Ga21 Te33 2.599599 1_555
Ga21 Te40 2.644681 1_555
Ga21 Te38 2.710710 1_555
Ga21 Te49 2.744516 1_555
Ga22 Te12 2.643429 1_665
Ga22 Te31 2.644585 1_555
Ga22 Te0 2.699852 1_655
Ga22 Te59 2.710484 1_564
Ga23 Te42 2.629767 1_555
Ga23 Te32 2.661868 1_555
Ga23 Te50 2.696629 1_555
Ga23 Te39 2.702314 1_556
Ga24 Te39 2.658454 1_555
Ga24 Te51 2.671075 1_554
Ga24 Te45 2.673997 1_555
Ga24 Te7 2.725819 1_545
Ga25 Te43 2.609033 1_555
Ga25 Te38 2.692471 1_555
Ga25 Te52 2.701114 1_555
Ga25 Te36 2.732286 1_555
Ga26 Te44 2.664495 1_555
Ga26 Te2 2.671633 1_655
Ga26 Te37 2.688603 1_555
Ga26 Te35 2.721086 1_555
Ga27 Te25 2.643429 1_665
Ga27 Te44 2.644585 1_555
Ga27 Te59 2.699852 1_565
Ga27 Te0 2.710484 1_656
Ga28 Te53 2.629777 1_555
Ga28 Te45 2.661874 1_555
Ga28 Te38 2.696626 1_555
Ga28 Te49 2.702314 1_555
Ga29 Te43 2.599599 1_555
Ga29 Te53 2.644670 1_555
Ga29 Te50 2.710710 1_554
Ga29 Te39 2.744519 1_555
Ga30 Te40 2.629767 1_555
Ga30 Te54 2.661868 1_555
Ga30 Te46 2.696629 1_555
Ga30 Te48 2.702314 1_555
Ga31 Te55 2.599599 1_555
Ga31 Te42 2.644670 1_555
Ga31 Te46 2.710710 1_555
Ga31 Te48 2.744519 1_555
Ga32 Te49 2.658454 1_555
Ga32 Te52 2.671084 1_555
Ga32 Te54 2.673997 1_555
Ga32 Te8 2.725826 1_655
Ga33 Te55 2.609030 1_555
Ga33 Te50 2.692479 1_555
Ga33 Te51 2.701119 1_555
Ga33 Te58 2.732274 1_555
Ga34 Te57 2.664495 1_555
Ga34 Te56 2.671642 1_555
Ga34 Te18 2.688603 1_655
Ga34 Te8 2.721094 1_655
Ga35 Te41 2.643429 1_545
Ga35 Te57 2.644585 1_555
Ga35 Te21 2.699849 1_655
Ga35 Te37 2.710484 1_545
Sn0 Te5 3.126722 1_555
Sn0 Te4 3.152186 1_556
Sn0 Te13 3.300769 1_555
Sn0 Te44 3.302330 1_455
Sn0 Te25 3.444348 1_565
Sn0 Te2 3.495948 1_555
Sn1 Te27 3.126722 1_555
Sn1 Te24 3.152186 1_555
Sn1 Te11 3.300769 1_555
Sn1 Te28 3.302330 1_555
Sn1 Te12 3.444347 1_555
Sn1 Te1 3.495948 1_555
Sn2 Te16 3.126722 1_555
Sn2 Te23 3.152203 1_555
Sn2 Te26 3.300769 1_555
Sn2 Te57 3.302334 1_565
Sn2 Te41 3.444347 1_555
Sn2 Te56 3.495948 1_565
Sn3 Te32 3.126722 1_555
Sn3 Te30 3.152186 1_555
Sn3 Te42 3.300769 1_555
Sn3 Te15 3.302330 1_555
Sn3 Te25 3.444347 1_555
Sn3 Te1 3.495948 1_556
Sn4 Te54 3.126722 1_555
Sn4 Te52 3.152203 1_555
Sn4 Te40 3.300769 1_555
Sn4 Te3 3.302334 1_655
Sn4 Te41 3.444347 1_555
Sn4 Te2 3.495948 1_655
Sn5 Te45 3.126722 1_555
Sn5 Te51 3.152186 1_554
Sn5 Te53 3.300769 1_555
Sn5 Te31 3.302330 1_545
Sn5 Te12 3.444348 1_655
Sn5 Te56 3.495948 1_555
