# generated using pymatgen
data_La2CO5
_symmetry_space_group_name_H-M   'P 1'
_cell_length_a   7.04905708
_cell_length_b   7.04905708
_cell_length_c   16.47944280
_cell_angle_alpha   77.66573556
_cell_angle_beta   77.66573556
_cell_angle_gamma   60.03080975
_symmetry_Int_Tables_number   1
_chemical_formula_structural   La2CO5
_chemical_formula_sum   'La12 C6 O30'
_cell_volume   687.44032798
_cell_formula_units_Z   6
loop_
 _symmetry_equiv_pos_site_id
 _symmetry_equiv_pos_as_xyz
  1  'x, y, z'
loop_
 _atom_site_type_symbol
 _atom_site_label
 _atom_site_symmetry_multiplicity
 _atom_site_fract_x
 _atom_site_fract_y
 _atom_site_fract_z
 _atom_site_occupancy
  La  La0  1  0.13922474  0.96456195  0.59474534  1
  La  La1  1  0.63538321  0.79730064  0.09446671  1
  La  La2  1  0.03543805  0.86077526  0.90525466  1
  La  La3  1  0.86077526  0.03543805  0.40525466  1
  La  La4  1  0.36461679  0.20269936  0.90553329  1
  La  La5  1  0.46789478  0.30497838  0.59686528  1
  La  La6  1  0.30497838  0.46789478  0.09686528  1
  La  La7  1  0.20269936  0.36461679  0.40553329  1
  La  La8  1  0.53210522  0.69502162  0.40313472  1
  La  La9  1  0.69502162  0.53210522  0.90313472  1
  La  La10  1  0.79730064  0.63538321  0.59446671  1
  La  La11  1  0.96456195  0.13922474  0.09474534  1
  C  C0  1  0.80422916  0.19577084  0.75000000  1
  C  C1  1  0.41571150  0.96952523  0.75027095  1
  C  C2  1  0.19577084  0.80422916  0.25000000  1
  C  C3  1  0.96952523  0.41571150  0.25027095  1
  C  C4  1  0.03047477  0.58428850  0.74972905  1
  C  C5  1  0.58428850  0.03047477  0.24972905  1
  O  O0  1  0.18456019  0.02162379  0.44078632  1
  O  O1  1  0.84811126  0.58560869  0.74855701  1
  O  O2  1  0.39272941  0.85553945  0.82048722  1
  O  O3  1  0.81543981  0.97837621  0.55921368  1
  O  O4  1  0.02162379  0.18456019  0.94078632  1
  O  O5  1  0.73967501  0.30756008  0.67913934  1
  O  O6  1  0.14507993  0.31404608  0.55944006  1
  O  O7  1  0.01371976  0.98628024  0.25000000  1
  O  O8  1  0.97837621  0.81543981  0.05921368  1
  O  O9  1  0.90750069  0.44013331  0.17879943  1
  O  O10  1  0.60727059  0.14446055  0.17951278  1
  O  O11  1  0.44013331  0.90750069  0.67879943  1
  O  O12  1  0.65126872  0.48258080  0.05228086  1
  O  O13  1  0.51741920  0.34873128  0.44771914  1
  O  O14  1  0.26032499  0.69243992  0.32086066  1
  O  O15  1  0.31404608  0.14507993  0.05944006  1
  O  O16  1  0.48258080  0.65126872  0.55228086  1
  O  O17  1  0.85492007  0.68595392  0.44055994  1
  O  O18  1  0.68595392  0.85492007  0.94055994  1
  O  O19  1  0.41439131  0.15188874  0.75144299  1
  O  O20  1  0.98628024  0.01371976  0.75000000  1
  O  O21  1  0.69243992  0.26032499  0.82086066  1
  O  O22  1  0.58560869  0.84811126  0.24855701  1
  O  O23  1  0.34873128  0.51741920  0.94771914  1
  O  O24  1  0.15188874  0.41439131  0.25144299  1
  O  O25  1  0.55986669  0.09249931  0.32120057  1
  O  O26  1  0.85553945  0.39272941  0.32048722  1
  O  O27  1  0.30756008  0.73967501  0.17913934  1
  O  O28  1  0.14446055  0.60727059  0.67951278  1
  O  O29  1  0.09249931  0.55986669  0.82120057  1
loop_
_geom_bond_atom_site_label_1
_geom_bond_atom_site_label_2
_geom_bond_distance
_geom_bond_site_symmetry_2
La0 O16 2.412750 1_555
La0 O3 2.426139 1_455
La0 O6 2.426557 1_565
La0 O0 2.459088 1_565
La0 O20 2.579817 1_465
La0 O28 2.592681 1_555
La0 O11 2.597009 1_555
La0 O5 2.944872 1_465
La1 O12 2.407270 1_555
La1 O8 2.424156 1_555
La1 O15 2.424896 1_565
La1 O18 2.458276 1_554
La1 O22 2.565525 1_555
La1 O9 2.601682 1_555
La1 O27 2.601941 1_555
La1 O10 2.975596 1_565
La2 O23 2.412750 1_555
La2 O4 2.426139 1_565
La2 O18 2.426557 1_455
La2 O8 2.459088 1_456
La2 O20 2.579817 1_465
La2 O2 2.592681 1_555
La2 O29 2.597009 1_555
La2 O21 2.944872 1_465
La3 O13 2.412750 1_555
La3 O0 2.426139 1_655
La3 O17 2.426557 1_545
La3 O3 2.459088 1_545
La3 O7 2.579817 1_645
La3 O26 2.592681 1_555
La3 O25 2.597009 1_555
La3 O14 2.944872 1_645
La4 O23 2.407270 1_555
La4 O4 2.424156 1_555
La4 O18 2.424896 1_545
La4 O15 2.458276 1_556
La4 O19 2.565525 1_555
La4 O29 2.601682 1_555
La4 O21 2.601941 1_555
La4 O2 2.975596 1_545
La5 O13 2.382253 1_555
La5 O16 2.441897 1_555
La5 O6 2.449485 1_555
La5 O3 2.452157 1_545
La5 O19 2.572456 1_555
La5 O28 2.579383 1_555
La5 O5 2.581468 1_555
La5 O11 2.920681 1_545
La6 O23 2.382253 1_554
La6 O12 2.441897 1_555
La6 O15 2.449485 1_555
La6 O8 2.452157 1_455
La6 O24 2.572456 1_555
La6 O10 2.579383 1_555
La6 O27 2.581468 1_555
La6 O9 2.920681 1_455
La7 O13 2.407270 1_555
La7 O0 2.424156 1_555
La7 O17 2.424896 1_455
La7 O6 2.458276 1_555
La7 O24 2.565525 1_555
La7 O25 2.601682 1_555
La7 O14 2.601941 1_555
La7 O26 2.975596 1_455
La8 O16 2.382253 1_555
La8 O13 2.441897 1_555
La8 O17 2.449485 1_555
La8 O0 2.452157 1_565
La8 O22 2.572456 1_555
La8 O26 2.579383 1_555
La8 O14 2.581468 1_555
La8 O25 2.920681 1_565
La9 O12 2.382253 1_556
La9 O23 2.441897 1_555
La9 O18 2.449485 1_555
La9 O4 2.452157 1_655
La9 O1 2.572456 1_555
La9 O2 2.579383 1_555
La9 O21 2.581468 1_555
La9 O29 2.920681 1_655
La10 O16 2.407270 1_555
La10 O3 2.424156 1_555
La10 O6 2.424896 1_655
La10 O17 2.458276 1_555
La10 O1 2.565525 1_555
La10 O11 2.601682 1_555
La10 O5 2.601941 1_555
La10 O28 2.975596 1_655
La11 O12 2.412750 1_555
La11 O8 2.426139 1_545
La11 O15 2.426557 1_655
La11 O4 2.459088 1_654
La11 O7 2.579817 1_645
La11 O10 2.592681 1_555
La11 O9 2.597009 1_555
La11 O27 2.944872 1_645
C0 O20 1.283886 1_555
C0 O5 1.291236 1_555
C0 O21 1.291236 1_555
C1 O19 1.285117 1_565
C1 O2 1.289779 1_555
C1 O11 1.290819 1_555
C2 O7 1.283886 1_555
C2 O27 1.291236 1_555
C2 O14 1.291236 1_555
C3 O24 1.285117 1_655
C3 O26 1.289779 1_555
C3 O9 1.290819 1_555
C4 O1 1.285117 1_455
C4 O28 1.289779 1_555
C4 O29 1.290819 1_555
C5 O22 1.285117 1_545
C5 O10 1.289779 1_555
C5 O25 1.290819 1_555
