# generated using pymatgen
data_Pu2Co17
_symmetry_space_group_name_H-M   'P 1'
_cell_length_a   8.28945062
_cell_length_b   8.28945062
_cell_length_c   8.08132600
_cell_angle_alpha   90.00000000
_cell_angle_beta   90.00000000
_cell_angle_gamma   120.00000495
_symmetry_Int_Tables_number   1
_chemical_formula_structural   Pu2Co17
_chemical_formula_sum   'Pu4 Co34'
_cell_volume   480.91102581
_cell_formula_units_Z   2
loop_
 _symmetry_equiv_pos_site_id
 _symmetry_equiv_pos_as_xyz
  1  'x, y, z'
loop_
 _atom_site_type_symbol
 _atom_site_label
 _atom_site_symmetry_multiplicity
 _atom_site_fract_x
 _atom_site_fract_y
 _atom_site_fract_z
 _atom_site_occupancy
  Pu  Pu0  1  0.00000000  0.00000000  0.25000000  1
  Pu  Pu1  1  0.00000000  0.00000000  0.75000000  1
  Pu  Pu2  1  0.66666700  0.33333300  0.25000000  1
  Pu  Pu3  1  0.33333300  0.66666700  0.75000000  1
  Co  Co0  1  0.32961300  0.37404500  0.25000000  1
  Co  Co1  1  0.50000000  0.00000000  0.00000000  1
  Co  Co2  1  0.62595500  0.95556800  0.25000000  1
  Co  Co3  1  0.67038700  0.62595500  0.75000000  1
  Co  Co4  1  0.83234100  0.16765900  0.47697800  1
  Co  Co5  1  0.33531900  0.16765900  0.47697800  1
  Co  Co6  1  0.16765900  0.33531900  0.52302200  1
  Co  Co7  1  0.37404500  0.32961300  0.75000000  1
  Co  Co8  1  0.33333300  0.66666700  0.39529700  1
  Co  Co9  1  0.66666700  0.33333300  0.89529700  1
  Co  Co10  1  0.95556800  0.62595500  0.75000000  1
  Co  Co11  1  0.66468100  0.83234100  0.97697800  1
  Co  Co12  1  0.37404500  0.04443200  0.75000000  1
  Co  Co13  1  0.83234100  0.16765900  0.02302200  1
  Co  Co14  1  0.16765900  0.33531900  0.97697800  1
  Co  Co15  1  0.83234100  0.66468100  0.47697800  1
  Co  Co16  1  0.04443200  0.37404500  0.25000000  1
  Co  Co17  1  0.83234100  0.66468100  0.02302200  1
  Co  Co18  1  0.66666700  0.33333300  0.60470300  1
  Co  Co19  1  0.66468100  0.83234100  0.52302200  1
  Co  Co20  1  0.50000000  0.50000000  0.00000000  1
  Co  Co21  1  0.33333300  0.66666700  0.10470300  1
  Co  Co22  1  0.16765900  0.83234100  0.52302200  1
  Co  Co23  1  0.00000000  0.50000000  0.00000000  1
  Co  Co24  1  0.67038700  0.04443200  0.75000000  1
  Co  Co25  1  0.33531900  0.16765900  0.02302200  1
  Co  Co26  1  0.62595500  0.67038700  0.25000000  1
  Co  Co27  1  0.16765900  0.83234100  0.97697800  1
  Co  Co28  1  0.04443200  0.67038700  0.25000000  1
  Co  Co29  1  0.00000000  0.50000000  0.50000000  1
  Co  Co30  1  0.95556800  0.32961300  0.75000000  1
  Co  Co31  1  0.32961300  0.95556800  0.25000000  1
  Co  Co32  1  0.50000000  0.50000000  0.50000000  1
  Co  Co33  1  0.50000000  0.00000000  0.50000000  1
loop_
_geom_bond_atom_site_label_1
_geom_bond_atom_site_label_2
_geom_bond_distance
_geom_bond_site_symmetry_2
Co0 Co16 2.363994 1_555
Co0 Co32 2.385811 1_555
Co0 Co20 2.385811 1_555
Co0 Co26 2.456512 1_555
Co0 Co6 2.518437 1_555
Co0 Co14 2.518437 1_554
Co0 Co25 2.524813 1_555
Co0 Co5 2.524813 1_555
Co0 Co8 2.681190 1_555
Co0 Co21 2.681190 1_555
Co0 Pu0 2.933860 1_555
Co0 Pu2 2.977113 1_555
Co1 Co24 2.385811 1_554
Co1 Co31 2.385811 1_545
Co1 Co12 2.385811 1_554
Co1 Co2 2.385811 1_545
Co1 Co11 2.393102 1_544
Co1 Co25 2.393102 1_555
Co1 Co13 2.393109 1_555
Co1 Co27 2.393109 1_544
Co1 Co9 2.538147 1_554
Co1 Co21 2.538147 1_545
Co1 Pu2 3.131769 1_555
Co1 Pu3 3.131769 1_544
Co2 Co26 2.363994 1_555
Co2 Co33 2.385811 1_565
Co2 Co31 2.456512 1_555
Co2 Co4 2.524810 1_565
Co2 Co8 2.681186 1_555
Co2 Co21 2.681186 1_555
Co2 Pu0 2.933860 1_665
Co2 Pu2 2.977105 1_565
Co3 Co32 2.385811 1_555
Co3 Co7 2.456512 1_555
Co3 Co9 2.681190 1_555
Co3 Pu1 2.933860 1_665
Co3 Pu3 2.977113 1_555
Co4 Co6 2.435795 1_655
Co4 Pu2 3.003804 1_555
Co4 Pu0 3.026423 1_655
Co4 Pu1 3.265387 1_655
Co5 Co6 2.435809 1_555
Co5 Co7 2.518437 1_555
Co5 Pu2 3.003804 1_555
Co5 Pu0 3.026428 1_555
Co5 Pu1 3.265392 1_555
Co6 Co7 2.524813 1_555
Co6 Co8 2.593000 1_555
Co6 Pu3 3.003804 1_555
Co6 Pu1 3.026428 1_555
Co6 Pu0 3.265392 1_555
Co7 Co9 2.681190 1_555
Co7 Pu1 2.933860 1_555
Co7 Pu3 2.977113 1_555
Co8 Pu3 2.866471 1_555
Co9 Pu2 2.866471 1_556
Co10 Co3 2.363994 1_555
Co10 Co29 2.385811 1_655
Co10 Co23 2.385811 1_656
Co10 Co30 2.456512 1_555
Co10 Co15 2.518434 1_555
Co10 Co17 2.518434 1_556
Co10 Co27 2.524810 1_655
Co10 Co22 2.524810 1_655
Co10 Co18 2.681186 1_555
Co10 Co9 2.681186 1_555
Co10 Pu1 2.933860 1_665
Co10 Pu3 2.977105 1_655
Co11 Co20 2.393109 1_556
Co11 Co13 2.435795 1_566
Co11 Co17 2.435809 1_556
Co11 Co2 2.518434 1_556
Co11 Co26 2.518437 1_556
Co11 Co24 2.524807 1_565
Co11 Co3 2.524813 1_555
Co11 Co21 2.593000 1_556
Co11 Pu3 3.003804 1_555
Co11 Pu1 3.026428 1_665
Co11 Pu0 3.265392 1_666
Co12 Co7 2.363994 1_555
Co12 Co33 2.385811 1_555
Co12 Co24 2.456512 1_555
Co12 Co5 2.518434 1_555
Co12 Co25 2.518434 1_556
Co12 Co27 2.524810 1_545
Co12 Co22 2.524810 1_545
Co12 Co18 2.681186 1_555
Co12 Co9 2.681186 1_555
Co12 Pu1 2.933860 1_555
Co12 Pu3 2.977105 1_545
Co13 Co23 2.393109 1_655
Co13 Co14 2.435795 1_654
Co13 Co30 2.518436 1_554
Co13 Co24 2.518436 1_554
Co13 Co2 2.524810 1_545
Co13 Co16 2.524810 1_655
Co13 Co9 2.593001 1_554
Co13 Pu2 3.003804 1_555
Co13 Pu0 3.026423 1_655
Co13 Pu1 3.265387 1_654
Co14 Co23 2.393102 1_556
Co14 Co20 2.393109 1_556
Co14 Co25 2.435809 1_556
Co14 Co16 2.518434 1_556
Co14 Co30 2.524807 1_455
Co14 Co7 2.524813 1_555
Co14 Co21 2.593000 1_556
Co14 Pu3 3.003804 1_555
Co14 Pu1 3.026428 1_555
Co14 Pu0 3.265392 1_556
Co15 Co29 2.393102 1_655
Co15 Co32 2.393109 1_555
Co15 Co22 2.435795 1_655
Co15 Co19 2.435809 1_555
Co15 Co3 2.518437 1_555
Co15 Co28 2.524807 1_655
Co15 Co26 2.524813 1_555
Co15 Co18 2.593000 1_555
Co15 Pu2 3.003804 1_555
Co15 Pu0 3.026428 1_665
Co15 Pu1 3.265392 1_665
Co16 Co29 2.385811 1_555
Co16 Co23 2.385811 1_555
Co16 Co28 2.456512 1_555
Co16 Co6 2.518434 1_555
Co16 Co4 2.524810 1_455
Co16 Co8 2.681186 1_555
Co16 Co21 2.681186 1_555
Co16 Pu0 2.933860 1_555
Co16 Pu2 2.977105 1_455
Co17 Co23 2.393102 1_655
Co17 Co20 2.393109 1_555
Co17 Co27 2.435795 1_654
Co17 Co3 2.518437 1_554
Co17 Co28 2.524807 1_655
Co17 Co26 2.524813 1_555
Co17 Co9 2.593000 1_554
Co17 Pu2 3.003804 1_555
Co17 Pu0 3.026428 1_665
Co17 Pu1 3.265392 1_664
Co18 Co9 2.348385 1_555
Co18 Co33 2.538147 1_555
Co18 Co29 2.538147 1_655
Co18 Co32 2.538154 1_555
Co18 Co5 2.593000 1_555
Co18 Co4 2.593001 1_555
Co18 Co24 2.681183 1_555
Co18 Co30 2.681183 1_555
Co18 Co3 2.681190 1_555
Co18 Co7 2.681190 1_555
Co18 Pu2 2.866471 1_555
Co19 Co33 2.393102 1_565
Co19 Co32 2.393109 1_555
Co19 Co4 2.435795 1_565
Co19 Co2 2.518434 1_555
Co19 Co26 2.518437 1_555
Co19 Co24 2.524807 1_565
Co19 Co3 2.524813 1_555
Co19 Co8 2.593000 1_555
Co19 Pu3 3.003804 1_555
Co19 Pu1 3.026428 1_665
Co19 Pu0 3.265392 1_665
Co20 Co26 2.385811 1_555
Co20 Co3 2.385811 1_554
Co20 Co7 2.385811 1_554
Co20 Co25 2.393109 1_555
Co20 Co9 2.538154 1_554
Co20 Co21 2.538154 1_555
Co20 Pu2 3.131775 1_555
Co20 Pu3 3.131775 1_554
Co21 Co8 2.348385 1_555
Co21 Co23 2.538147 1_555
Co21 Co27 2.593001 1_554
Co21 Co28 2.681183 1_555
Co21 Co31 2.681183 1_555
Co21 Co26 2.681190 1_555
Co21 Pu3 2.866471 1_554
Co22 Co29 2.393109 1_555
Co22 Co33 2.393109 1_565
Co22 Co5 2.435795 1_565
Co22 Co28 2.518436 1_555
Co22 Co31 2.518436 1_555
Co22 Co8 2.593001 1_555
Co22 Pu3 3.003804 1_555
Co22 Pu1 3.026423 1_565
Co22 Pu0 3.265387 1_565
Co23 Co28 2.385811 1_555
Co23 Co30 2.385811 1_454
Co23 Co27 2.393109 1_554
Co23 Co9 2.538147 1_454
Co23 Pu3 3.131769 1_554
Co23 Pu2 3.131769 1_455
Co24 Co30 2.363994 1_555
Co24 Co33 2.385811 1_555
Co24 Co4 2.518436 1_555
Co24 Co9 2.681183 1_555
Co24 Pu1 2.933860 1_655
Co24 Pu3 2.977108 1_545
Co25 Co27 2.435795 1_544
Co25 Co7 2.518437 1_554
Co25 Co31 2.524807 1_545
Co25 Co9 2.593000 1_554
Co25 Pu2 3.003804 1_555
Co25 Pu0 3.026428 1_555
Co25 Pu1 3.265392 1_554
Co26 Co32 2.385811 1_555
Co26 Co8 2.681190 1_555
Co26 Pu0 2.933860 1_665
Co26 Pu2 2.977113 1_555
Co27 Co31 2.518436 1_556
Co27 Co28 2.518436 1_556
Co27 Pu3 3.003804 1_555
Co27 Pu1 3.026423 1_565
Co27 Pu0 3.265387 1_566
Co28 Co31 2.363994 1_555
Co28 Co29 2.385811 1_555
Co28 Co8 2.681183 1_555
Co28 Pu0 2.933860 1_565
Co28 Pu2 2.977108 1_455
Co29 Co30 2.385811 1_455
Co29 Co6 2.393102 1_555
Co29 Co4 2.393109 1_455
Co29 Co8 2.538147 1_555
Co29 Pu3 3.131769 1_555
Co29 Pu2 3.131769 1_455
Co30 Co4 2.518436 1_555
Co30 Co6 2.524807 1_655
Co30 Co9 2.681183 1_555
Co30 Pu1 2.933860 1_655
Co30 Pu3 2.977108 1_655
Co31 Co33 2.385811 1_565
Co31 Co5 2.524807 1_565
Co31 Co8 2.681183 1_555
Co31 Pu0 2.933860 1_565
Co31 Pu2 2.977108 1_565
Co32 Co7 2.385811 1_555
Co32 Co6 2.393109 1_555
Co32 Co5 2.393109 1_555
Co32 Co8 2.538154 1_555
Co32 Pu2 3.131775 1_555
Co32 Pu3 3.131775 1_555
Co33 Co5 2.393102 1_555
Co33 Co4 2.393109 1_555
Co33 Co8 2.538147 1_545
Co33 Pu2 3.131769 1_555
Co33 Pu3 3.131769 1_545
