# generated using pymatgen
data_Li3U7(PO7)5
_symmetry_space_group_name_H-M   'P 1'
_cell_length_a   10.05756600
_cell_length_b   10.05756600
_cell_length_c   14.77228800
_cell_angle_alpha   90.00000000
_cell_angle_beta   90.00000000
_cell_angle_gamma   90.00000000
_symmetry_Int_Tables_number   1
_chemical_formula_structural   Li3U7(PO7)5
_chemical_formula_sum   'Li6 U14 P10 O70'
_cell_volume   1494.28538368
_cell_formula_units_Z   2
loop_
 _symmetry_equiv_pos_site_id
 _symmetry_equiv_pos_as_xyz
  1  'x, y, z'
loop_
 _atom_site_type_symbol
 _atom_site_label
 _atom_site_symmetry_multiplicity
 _atom_site_fract_x
 _atom_site_fract_y
 _atom_site_fract_z
 _atom_site_occupancy
  Li  Li0  1  0.50000000  0.00000000  0.70002000  1
  Li  Li1  1  0.79572500  0.29572500  0.86747600  1
  Li  Li2  1  0.70427500  0.79572500  0.13252400  1
  Li  Li3  1  0.29572500  0.20427500  0.13252400  1
  Li  Li4  1  0.20427500  0.70427500  0.86747600  1
  Li  Li5  1  0.00000000  0.50000000  0.29998000  1
  U  U0  1  0.73817100  0.23817100  0.28110800  1
  U  U1  1  0.75183800  0.25183800  0.56881500  1
  U  U2  1  0.00000000  0.00000000  0.14323500  1
  U  U3  1  0.50000000  0.50000000  0.85676500  1
  U  U4  1  0.00000000  0.00000000  0.85676500  1
  U  U5  1  0.50000000  0.50000000  0.14323500  1
  U  U6  1  0.76182900  0.73817100  0.71889200  1
  U  U7  1  0.23817100  0.26182900  0.71889200  1
  U  U8  1  0.50000000  0.00000000  0.98801500  1
  U  U9  1  0.26182900  0.76182900  0.28110800  1
  U  U10  1  0.24816200  0.74816200  0.56881500  1
  U  U11  1  0.25183800  0.24816200  0.43118500  1
  U  U12  1  0.00000000  0.50000000  0.01198500  1
  U  U13  1  0.74816200  0.75183800  0.43118500  1
  P  P0  1  0.50000000  0.50000000  0.36347300  1
  P  P1  1  0.24532000  0.25468000  0.93749200  1
  P  P2  1  0.00000000  0.00000000  0.36347300  1
  P  P3  1  0.00000000  0.50000000  0.48684400  1
  P  P4  1  0.75468000  0.74532000  0.93749200  1
  P  P5  1  0.25468000  0.75468000  0.06250800  1
  P  P6  1  0.74532000  0.24532000  0.06250800  1
  P  P7  1  0.50000000  0.50000000  0.63652700  1
  P  P8  1  0.00000000  0.00000000  0.63652700  1
  P  P9  1  0.50000000  0.00000000  0.51315600  1
  O  O0  1  0.73752800  0.23752800  0.44099500  1
  O  O1  1  0.61268700  0.11268700  0.27939000  1
  O  O2  1  0.83538800  0.33538800  0.00370400  1
  O  O3  1  0.41542300  0.59522700  0.57903200  1
  O  O4  1  0.16069400  0.33930600  0.00172600  1
  O  O5  1  0.86559500  0.36559500  0.28265400  1
  O  O6  1  0.26247200  0.76247200  0.44099500  1
  O  O7  1  0.91190600  0.58809400  0.42278600  1
  O  O8  1  0.37645600  0.63301000  0.85162500  1
  O  O9  1  0.38731300  0.88731300  0.27939000  1
  O  O10  1  0.59522700  0.58457700  0.42096800  1
  O  O11  1  0.08457700  0.09522700  0.42096800  1
  O  O12  1  0.90887500  0.07945600  0.29640900  1
  O  O13  1  0.40477300  0.41542300  0.42096800  1
  O  O14  1  0.13301000  0.87645600  0.85162500  1
  O  O15  1  0.16461200  0.66461200  0.00370400  1
  O  O16  1  0.63301000  0.62354400  0.14837500  1
  O  O17  1  0.73546800  0.76453200  0.30936500  1
  O  O18  1  0.33930600  0.83930600  0.99827400  1
  O  O19  1  0.88731300  0.61268700  0.72061000  1
  O  O20  1  0.62354400  0.36699000  0.85162500  1
  O  O21  1  0.09112500  0.92054400  0.29640900  1
  O  O22  1  0.11268700  0.38731300  0.72061000  1
  O  O23  1  0.13440500  0.63440500  0.28265400  1
  O  O24  1  0.23546800  0.73546800  0.69063500  1
  O  O25  1  0.63440500  0.86559500  0.71734600  1
  O  O26  1  0.00000000  0.50000000  0.13475800  1
  O  O27  1  0.84077700  0.82736700  0.86959500  1
  O  O28  1  0.66069400  0.16069400  0.99827400  1
  O  O29  1  0.50000000  0.50000000  0.00000000  1
  O  O30  1  0.23752800  0.26247200  0.55900500  1
  O  O31  1  0.58809400  0.08809400  0.57721400  1
  O  O32  1  0.76453200  0.26453200  0.69063500  1
  O  O33  1  0.65922300  0.32736700  0.13040500  1
  O  O34  1  0.09034500  0.59034500  0.54558400  1
  O  O35  1  0.07945600  0.09112500  0.70359100  1
  O  O36  1  0.40965500  0.09034500  0.45441600  1
  O  O37  1  0.34077700  0.67263300  0.13040500  1
  O  O38  1  0.83930600  0.66069400  0.00172600  1
  O  O39  1  0.90477300  0.08457700  0.57903200  1
  O  O40  1  0.90965500  0.40965500  0.54558400  1
  O  O41  1  0.32736700  0.34077700  0.86959500  1
  O  O42  1  0.67263300  0.65922300  0.86959500  1
  O  O43  1  0.92054400  0.90887500  0.70359100  1
  O  O44  1  0.91542300  0.90477300  0.42096800  1
  O  O45  1  0.50000000  0.00000000  0.86524200  1
  O  O46  1  0.87645600  0.86699000  0.14837500  1
  O  O47  1  0.59112500  0.57945600  0.70359100  1
  O  O48  1  0.76247200  0.73752800  0.55900500  1
  O  O49  1  0.66461200  0.83538800  0.99629600  1
  O  O50  1  0.15922300  0.17263300  0.86959500  1
  O  O51  1  0.36559500  0.13440500  0.71734600  1
  O  O52  1  0.82736700  0.15922300  0.13040500  1
  O  O53  1  0.26453200  0.23546800  0.30936500  1
  O  O54  1  0.17263300  0.84077700  0.13040500  1
  O  O55  1  0.57945600  0.40887500  0.29640900  1
  O  O56  1  0.00000000  0.50000000  0.88952600  1
  O  O57  1  0.58457700  0.40477300  0.57903200  1
  O  O58  1  0.59034500  0.90965500  0.45441600  1
  O  O59  1  0.42054400  0.59112500  0.29640900  1
  O  O60  1  0.00000000  0.00000000  0.00000000  1
  O  O61  1  0.36699000  0.37645600  0.14837500  1
  O  O62  1  0.09522700  0.91542300  0.57903200  1
  O  O63  1  0.08809400  0.41190600  0.42278600  1
  O  O64  1  0.40887500  0.42054400  0.70359100  1
  O  O65  1  0.41190600  0.91190600  0.57721400  1
  O  O66  1  0.86699000  0.12354400  0.85162500  1
  O  O67  1  0.12354400  0.13301000  0.14837500  1
  O  O68  1  0.50000000  0.00000000  0.11047400  1
  O  O69  1  0.33538800  0.16461200  0.99629600  1
loop_
_geom_bond_atom_site_label_1
_geom_bond_atom_site_label_2
_geom_bond_distance
_geom_bond_site_symmetry_2
Li0 O51 1.928773 1_555
Li0 O25 1.928773 1_545
Li0 O65 2.204786 1_545
Li0 O31 2.204786 1_555
Li0 O45 2.440707 1_555
Li1 O20 1.888762 1_555
Li1 O66 1.888762 1_555
Li1 O2 2.089979 1_556
Li2 O46 1.888762 1_555
Li2 O16 1.888762 1_555
Li2 O49 2.089979 1_554
Li3 O61 1.888762 1_555
Li3 O67 1.888762 1_555
Li3 O69 2.089979 1_554
Li4 O8 1.888762 1_555
Li4 O14 1.888762 1_555
Li4 O15 2.089979 1_556
Li5 O23 1.928773 1_555
Li5 O5 1.928773 1_455
Li5 O63 2.204786 1_555
Li5 O7 2.204786 1_455
Li5 O26 2.440707 1_555
O0 U1 1.899132 1_555
O0 U0 2.361915 1_555
O1 U0 1.785008 1_555
O2 P6 1.547827 1_555
O2 U12 2.344560 1_655
O3 P7 1.536958 1_555
O3 U10 2.284431 1_555
O4 P1 1.532720 1_554
O4 U12 2.290657 1_555
O5 U0 1.812565 1_555
O6 U10 1.899132 1_555
O6 U9 2.361915 1_555
O7 P3 1.570186 1_655
O7 U13 2.332323 1_555
O8 U3 1.827374 1_555
O9 U9 1.785008 1_555
O10 P0 1.536958 1_555
O10 U13 2.284431 1_555
O11 P2 1.536958 1_555
O11 U11 2.284431 1_555
O12 P2 1.568453 1_655
O12 U0 2.355176 1_555
O12 U2 2.568760 1_655
O13 P0 1.536958 1_555
O13 U11 2.284431 1_555
O14 U4 1.827374 1_565
O15 P5 1.547827 1_555
O15 U12 2.344560 1_555
O16 U5 1.827374 1_555
O17 U13 1.808595 1_555
O18 P5 1.532720 1_556
O18 U8 2.290657 1_565
O19 U6 1.785008 1_555
O20 U3 1.827374 1_555
O21 P2 1.568453 1_565
O21 U9 2.355176 1_555
O21 U2 2.568760 1_565
O22 U7 1.785008 1_555
O23 U9 1.812565 1_555
O24 U10 1.808595 1_555
O25 U6 1.812565 1_555
O26 U12 1.813638 1_555
O27 P4 1.561015 1_555
O27 U4 2.369602 1_665
O27 U6 2.528111 1_555
O28 P6 1.532720 1_556
O28 U8 2.290657 1_555
O29 U5 2.115909 1_555
O29 U3 2.115909 1_554
O30 U11 1.899132 1_555
O30 U7 2.361915 1_555
O31 P9 1.570186 1_555
O31 U1 2.332323 1_555
O32 U1 1.808595 1_555
O33 P6 1.561015 1_555
O33 U5 2.369602 1_555
O33 U0 2.528111 1_555
O34 P3 1.550560 1_555
O34 U10 2.270798 1_555
O35 P8 1.568453 1_555
O35 U7 2.355176 1_555
O35 U4 2.568760 1_555
O36 P9 1.550560 1_555
O36 U11 2.270798 1_555
O37 P5 1.561015 1_555
O37 U5 2.369602 1_555
O37 U9 2.528111 1_555
O38 P4 1.532720 1_554
O38 U12 2.290657 1_655
O39 P8 1.536958 1_655
O39 U1 2.284431 1_555
O40 P3 1.550560 1_655
O40 U1 2.270798 1_555
O41 P1 1.561015 1_555
O41 U3 2.369602 1_555
O41 U7 2.528111 1_555
O42 P4 1.561015 1_555
O42 U3 2.369602 1_555
O42 U6 2.528111 1_555
O43 P8 1.568453 1_665
O43 U6 2.355176 1_555
O43 U4 2.568760 1_665
O44 P2 1.536958 1_665
O44 U13 2.284431 1_555
O45 U8 1.813638 1_555
O46 U2 1.827374 1_665
O47 P7 1.568453 1_555
O47 U6 2.355176 1_555
O47 U3 2.568760 1_555
O48 U13 1.899132 1_555
O48 U6 2.361915 1_555
O49 P4 1.547827 1_555
O49 U8 2.344560 1_565
O50 P1 1.561015 1_555
O50 U4 2.369602 1_555
O50 U7 2.528111 1_555
O51 U7 1.812565 1_555
O52 P6 1.561015 1_555
O52 U2 2.369602 1_655
O52 U0 2.528111 1_555
O53 U11 1.808595 1_555
O54 P5 1.561015 1_555
O54 U2 2.369602 1_565
O54 U9 2.528111 1_555
O55 P0 1.568453 1_555
O55 U0 2.355176 1_555
O55 U5 2.568760 1_555
O56 U12 1.809000 1_556
O57 P7 1.536958 1_555
O57 U1 2.284431 1_555
O58 P9 1.550560 1_565
O58 U13 2.270798 1_555
O59 P0 1.568453 1_555
O59 U9 2.355176 1_555
O59 U5 2.568760 1_555
O60 U4 2.115909 1_554
O60 U2 2.115909 1_555
O61 U5 1.827374 1_555
O62 P8 1.536958 1_565
O62 U10 2.284431 1_555
O63 P3 1.570186 1_555
O63 U11 2.332323 1_555
O64 P7 1.568453 1_555
O64 U7 2.355176 1_555
O64 U3 2.568760 1_555
O65 P9 1.570186 1_565
O65 U10 2.332323 1_555
O66 U4 1.827374 1_655
O67 U2 1.827374 1_555
O68 U8 1.809000 1_554
O69 P1 1.547827 1_555
O69 U8 2.344560 1_555
