# generated using pymatgen
data_Nd4Cu2O7
_symmetry_space_group_name_H-M   'P 1'
_cell_length_a   6.68362899
_cell_length_b   6.68362899
_cell_length_c   8.52856418
_cell_angle_alpha   71.39476577
_cell_angle_beta   71.39476577
_cell_angle_gamma   33.01233502
_symmetry_Int_Tables_number   1
_chemical_formula_structural   Nd4Cu2O7
_chemical_formula_sum   'Nd4 Cu2 O7'
_cell_volume   195.73587867
_cell_formula_units_Z   1
loop_
 _symmetry_equiv_pos_site_id
 _symmetry_equiv_pos_as_xyz
  1  'x, y, z'
loop_
 _atom_site_type_symbol
 _atom_site_label
 _atom_site_symmetry_multiplicity
 _atom_site_fract_x
 _atom_site_fract_y
 _atom_site_fract_z
 _atom_site_occupancy
  Nd  Nd0  1  0.34069700  0.34069700  0.31923400  1
  Nd  Nd1  1  0.65930300  0.65930300  0.68076600  1
  Nd  Nd2  1  0.64263500  0.64263500  0.16605100  1
  Nd  Nd3  1  0.35736500  0.35736500  0.83394900  1
  Cu  Cu0  1  0.00000000  0.00000000  0.00000000  1
  Cu  Cu1  1  0.00000000  0.00000000  0.50000000  1
  O  O0  1  0.01026600  0.01026600  0.70892300  1
  O  O1  1  0.27514800  0.27514800  0.61527300  1
  O  O2  1  0.50000000  0.50000000  0.00000000  1
  O  O3  1  0.74793900  0.74793900  0.88009500  1
  O  O4  1  0.72485200  0.72485200  0.38472700  1
  O  O5  1  0.25206100  0.25206100  0.11990500  1
  O  O6  1  0.98973400  0.98973400  0.29107700  1
loop_
_geom_bond_atom_site_label_1
_geom_bond_atom_site_label_2
_geom_bond_distance
_geom_bond_site_symmetry_2
Nd0 O5 2.337879 1_555
Nd0 O4 2.360177 1_545
Nd0 O4 2.360177 1_455
Nd0 O1 2.380905 1_555
Nd0 O6 2.647059 1_455
Nd0 O6 2.647059 1_545
Nd0 O2 2.807429 1_555
Nd1 O3 2.337879 1_555
Nd1 O1 2.360177 1_565
Nd1 O1 2.360177 1_655
Nd1 O4 2.380905 1_555
Nd1 O0 2.647059 1_655
Nd1 O0 2.647059 1_565
Nd1 O2 2.807429 1_556
Nd2 O5 2.315253 1_655
Nd2 O5 2.315253 1_565
Nd2 O3 2.361921 1_554
Nd2 O4 2.428250 1_555
Nd2 O2 2.659006 1_555
Nd2 O6 2.681886 1_545
Nd2 O6 2.681886 1_455
Nd3 O3 2.315253 1_455
Nd3 O3 2.315253 1_545
Nd3 O5 2.361921 1_556
Nd3 O1 2.428250 1_555
Nd3 O2 2.659006 1_556
Nd3 O0 2.681886 1_565
Nd3 O0 2.681886 1_655
Cu0 O2 1.898943 1_545
Cu0 O2 1.898943 1_455
Cu0 O6 2.441841 1_445
Cu0 O0 2.441841 1_554
Cu1 O0 1.829807 1_555
Cu1 O6 1.829807 1_445
