# generated using pymatgen
data_CaAl2O4
_symmetry_space_group_name_H-M   'P 1'
_cell_length_a   3.75689449
_cell_length_b   5.56036099
_cell_length_c   7.05945310
_cell_angle_alpha   78.76788928
_cell_angle_beta   90.00000000
_cell_angle_gamma   90.00000000
_symmetry_Int_Tables_number   1
_chemical_formula_structural   CaAl2O4
_chemical_formula_sum   'Ca2 Al4 O8'
_cell_volume   144.64516886
_cell_formula_units_Z   2
loop_
 _symmetry_equiv_pos_site_id
 _symmetry_equiv_pos_as_xyz
  1  'x, y, z'
loop_
 _atom_site_type_symbol
 _atom_site_label
 _atom_site_symmetry_multiplicity
 _atom_site_fract_x
 _atom_site_fract_y
 _atom_site_fract_z
 _atom_site_occupancy
  Ca  Ca0  1  0.75000000  0.73151434  0.57185204  1
  Ca  Ca1  1  0.25000000  0.26848566  0.42814796  1
  Al  Al0  1  0.75000000  0.84707318  0.12858068  1
  Al  Al1  1  0.25000000  0.15292682  0.87141932  1
  Al  Al2  1  0.75000000  0.34483313  0.11215345  1
  Al  Al3  1  0.25000000  0.65516687  0.88784655  1
  O  O0  1  0.25000000  0.94191337  0.69409417  1
  O  O1  1  0.25000000  0.85822419  0.07140264  1
  O  O2  1  0.25000000  0.45641944  0.69772176  1
  O  O3  1  0.75000000  0.64313796  0.92583912  1
  O  O4  1  0.75000000  0.54358056  0.30227824  1
  O  O5  1  0.75000000  0.14177581  0.92859736  1
  O  O6  1  0.25000000  0.35686204  0.07416088  1
  O  O7  1  0.75000000  0.05808663  0.30590583  1
loop_
_geom_bond_atom_site_label_1
_geom_bond_atom_site_label_2
_geom_bond_distance
_geom_bond_site_symmetry_2
Ca0 O4 2.342705 1_555
Ca0 O7 2.343930 1_565
Ca0 O3 2.451095 1_555
Ca0 O0 2.456669 1_655
Ca0 O0 2.456669 1_555
Ca0 O2 2.475558 1_555
Ca0 O2 2.475558 1_655
Ca1 O2 2.342705 1_555
Ca1 O0 2.343930 1_545
Ca1 O6 2.451095 1_555
Ca1 O7 2.456669 1_455
Ca1 O7 2.456669 1_555
Ca1 O4 2.475558 1_555
Ca1 O4 2.475558 1_455
Al0 O7 1.875072 1_565
Al0 O4 1.882876 1_555
Al0 O1 1.919789 1_655
Al0 O1 1.919789 1_555
Al0 O5 1.943465 1_564
Al0 O3 1.991624 1_554
Al1 O0 1.875072 1_545
Al1 O2 1.882876 1_555
Al1 O5 1.919789 1_455
Al1 O5 1.919789 1_555
Al1 O1 1.943465 1_546
Al1 O6 1.991624 1_556
Al2 O5 1.877199 1_554
Al2 O7 1.887702 1_555
Al2 O6 1.896835 1_555
Al2 O6 1.896835 1_655
Al2 O4 1.897506 1_555
Al2 O3 1.905594 1_554
Al3 O1 1.877199 1_556
Al3 O0 1.887702 1_555
Al3 O3 1.896835 1_455
Al3 O3 1.896835 1_555
Al3 O2 1.897506 1_555
Al3 O6 1.905594 1_556
