# generated using pymatgen
data_K3GaSe3
_symmetry_space_group_name_H-M   'P 1'
_cell_length_a   12.97019812
_cell_length_b   8.07514617
_cell_length_c   10.56523288
_cell_angle_alpha   52.42089703
_cell_angle_beta   90.00000000
_cell_angle_gamma   90.00000000
_symmetry_Int_Tables_number   1
_chemical_formula_structural   K3GaSe3
_chemical_formula_sum   'K12 Ga4 Se12'
_cell_volume   876.96445573
_cell_formula_units_Z   4
loop_
 _symmetry_equiv_pos_site_id
 _symmetry_equiv_pos_as_xyz
  1  'x, y, z'
loop_
 _atom_site_type_symbol
 _atom_site_label
 _atom_site_symmetry_multiplicity
 _atom_site_fract_x
 _atom_site_fract_y
 _atom_site_fract_z
 _atom_site_occupancy
  K  K0  1  0.90906554  0.33875897  0.39537357  1
  K  K1  1  0.40906554  0.66124103  0.10462643  1
  K  K2  1  0.09093446  0.66124103  0.60462643  1
  K  K3  1  0.59093446  0.33875897  0.89537357  1
  K  K4  1  0.18978308  0.13140146  0.58375119  1
  K  K5  1  0.68978308  0.86859854  0.91624881  1
  K  K6  1  0.81021692  0.86859854  0.41624881  1
  K  K7  1  0.31021692  0.13140146  0.08375119  1
  K  K8  1  0.62175157  0.37412938  0.47392151  1
  K  K9  1  0.12175157  0.62587062  0.02607849  1
  K  K10  1  0.37824843  0.62587062  0.52607849  1
  K  K11  1  0.87824843  0.37412938  0.97392151  1
  Ga  Ga0  1  0.93870767  0.06528187  0.83544016  1
  Ga  Ga1  1  0.43870767  0.93471813  0.66455984  1
  Ga  Ga2  1  0.06129233  0.93471813  0.16455984  1
  Ga  Ga3  1  0.56129233  0.06528187  0.33544016  1
  Se  Se0  1  0.39084107  0.15887973  0.37600219  1
  Se  Se1  1  0.89084107  0.84112027  0.12399781  1
  Se  Se2  1  0.60915893  0.84112027  0.62399781  1
  Se  Se3  1  0.10915893  0.15887973  0.87600219  1
  Se  Se4  1  0.68023547  0.35048104  0.18710487  1
  Se  Se5  1  0.18023547  0.64951896  0.31289513  1
  Se  Se6  1  0.31976453  0.64951896  0.81289513  1
  Se  Se7  1  0.81976453  0.35048104  0.68710487  1
  Se  Se8  1  0.54918201  0.87170418  0.23449345  1
  Se  Se9  1  0.04918201  0.12829582  0.26550655  1
  Se  Se10  1  0.45081799  0.12829582  0.76550655  1
  Se  Se11  1  0.95081799  0.87170418  0.73449345  1
loop_
_geom_bond_atom_site_label_1
_geom_bond_atom_site_label_2
_geom_bond_distance
_geom_bond_site_symmetry_2
K0 Se1 3.247504 1_555
K0 Se11 3.297401 1_545
K0 Se9 3.304223 1_655
K0 Se7 3.347593 1_555
K0 Se4 3.661360 1_555
K1 Se0 3.247504 1_555
K1 Se10 3.297401 1_564
K1 Se8 3.304223 1_555
K1 Se6 3.347593 1_554
K1 Se5 3.661360 1_555
K2 Se3 3.247504 1_555
K2 Se9 3.297401 1_565
K2 Se11 3.304223 1_455
K2 Se5 3.347593 1_555
K2 Se6 3.661360 1_555
K3 Se2 3.247504 1_555
K3 Se8 3.297401 1_546
K3 Se10 3.304223 1_555
K3 Se4 3.347593 1_556
K3 Se7 3.661360 1_555
K4 Se0 3.327653 1_555
K4 Se5 3.332542 1_555
K4 Se3 3.392979 1_555
K4 Se6 3.514941 1_545
K4 Se11 3.530863 1_445
K4 Se9 3.838533 1_555
K4 Se10 3.884866 1_555
K5 Se1 3.327653 1_556
K5 Se4 3.332542 1_556
K5 Se2 3.392979 1_555
K5 Se7 3.514941 1_565
K5 Se10 3.530863 1_565
K5 Se8 3.838533 1_556
K5 Se11 3.884866 1_555
K6 Se2 3.327653 1_555
K6 Se7 3.332542 1_555
K6 Se1 3.392979 1_555
K6 Se4 3.514941 1_565
K6 Se9 3.530863 1_665
K6 Se11 3.838533 1_555
K6 Se8 3.884866 1_555
K7 Se3 3.327653 1_554
K7 Se6 3.332542 1_554
K7 Se0 3.392979 1_555
K7 Se5 3.514941 1_545
K7 Se8 3.530863 1_545
K7 Se10 3.838533 1_554
K7 Se9 3.884866 1_555
K8 Se4 3.240417 1_555
K8 Se10 3.299597 1_555
K8 Se8 3.321447 1_555
K8 Se7 3.343777 1_555
K8 Se2 3.569629 1_545
K9 Se5 3.240417 1_555
K9 Se11 3.299597 1_454
K9 Se9 3.321447 1_555
K9 Se6 3.343777 1_554
K9 Se3 3.569629 1_564
K10 Se6 3.240417 1_555
K10 Se8 3.299597 1_555
K10 Se10 3.321447 1_555
K10 Se5 3.343777 1_555
K10 Se0 3.569629 1_565
K11 Se7 3.240417 1_555
K11 Se9 3.299597 1_656
K11 Se11 3.321447 1_555
K11 Se4 3.343777 1_556
K11 Se1 3.569629 1_546
Ga0 Se11 2.374678 1_545
Ga0 Se7 2.395350 1_555
Ga0 Se3 2.457144 1_655
Ga0 Se1 2.495088 1_546
Ga0 K5 3.467188 1_545
Ga1 Se10 2.374678 1_565
Ga1 Se6 2.395350 1_555
Ga1 Se2 2.457144 1_555
Ga1 Se0 2.495088 1_565
Ga1 K4 3.467188 1_565
Ga2 Se9 2.374678 1_565
Ga2 Se5 2.395350 1_555
Ga2 Se1 2.457144 1_455
Ga2 Se3 2.495088 1_564
Ga2 K7 3.467188 1_565
Ga3 Se8 2.374678 1_545
Ga3 Se4 2.395350 1_555
Ga3 Se0 2.457144 1_555
Ga3 Se2 2.495088 1_545
Ga3 K6 3.467188 1_545
