# generated using pymatgen
data_PSN(Cl2O)2
_symmetry_space_group_name_H-M   'P 1'
_cell_length_a   7.81792100
_cell_length_b   11.41166000
_cell_length_c   20.27572500
_cell_angle_alpha   90.00000000
_cell_angle_beta   90.00000000
_cell_angle_gamma   90.00000000
_symmetry_Int_Tables_number   1
_chemical_formula_structural   PSN(Cl2O)2
_chemical_formula_sum   'P8 S8 N8 Cl32 O16'
_cell_volume   1808.90805888
_cell_formula_units_Z   8
loop_
 _symmetry_equiv_pos_site_id
 _symmetry_equiv_pos_as_xyz
  1  'x, y, z'
loop_
 _atom_site_type_symbol
 _atom_site_label
 _atom_site_symmetry_multiplicity
 _atom_site_fract_x
 _atom_site_fract_y
 _atom_site_fract_z
 _atom_site_occupancy
  P  P0  1  0.89046200  0.18733000  0.89642100  1
  P  P1  1  0.60953800  0.68733000  0.89642100  1
  P  P2  1  0.60953800  0.81267000  0.39642100  1
  P  P3  1  0.89046200  0.31267000  0.39642100  1
  P  P4  1  0.39046200  0.18733000  0.60357900  1
  P  P5  1  0.10953800  0.68733000  0.60357900  1
  P  P6  1  0.10953800  0.81267000  0.10357900  1
  P  P7  1  0.39046200  0.31267000  0.10357900  1
  S  S0  1  0.38462600  0.48741100  0.88628300  1
  S  S1  1  0.88462600  0.48741100  0.61371700  1
  S  S2  1  0.61537400  0.98741100  0.61371700  1
  S  S3  1  0.38462600  0.01258900  0.38628300  1
  S  S4  1  0.11537400  0.51258900  0.38628300  1
  S  S5  1  0.11537400  0.98741100  0.88628300  1
  S  S6  1  0.61537400  0.51258900  0.11371700  1
  S  S7  1  0.88462600  0.01258900  0.11371700  1
  N  N0  1  0.54367300  0.10606500  0.58294900  1
  N  N1  1  0.04367300  0.10606500  0.91705100  1
  N  N2  1  0.95632700  0.89393500  0.08294900  1
  N  N3  1  0.45632700  0.60606500  0.91705100  1
  N  N4  1  0.54367300  0.39393500  0.08294900  1
  N  N5  1  0.04367300  0.39393500  0.41705100  1
  N  N6  1  0.45632700  0.89393500  0.41705100  1
  N  N7  1  0.95632700  0.60606500  0.58294900  1
  Cl  Cl0  1  0.42868500  0.22025300  0.18582100  1
  Cl  Cl1  1  0.24481900  0.04322100  0.80115000  1
  Cl  Cl2  1  0.33527900  0.89065300  0.11701500  1
  Cl  Cl3  1  0.24481900  0.45677900  0.30115000  1
  Cl  Cl4  1  0.64267700  0.80220300  0.96793700  1
  Cl  Cl5  1  0.16472100  0.39065300  0.11701500  1
  Cl  Cl6  1  0.14267700  0.69779700  0.03206300  1
  Cl  Cl7  1  0.33527900  0.60934700  0.61701500  1
  Cl  Cl8  1  0.75518100  0.95677900  0.19885000  1
  Cl  Cl9  1  0.92868500  0.22025300  0.31417900  1
  Cl  Cl10  1  0.07131500  0.77974700  0.68582100  1
  Cl  Cl11  1  0.92868500  0.27974700  0.81417900  1
  Cl  Cl12  1  0.74481900  0.45677900  0.19885000  1
  Cl  Cl13  1  0.64267700  0.69779700  0.46793700  1
  Cl  Cl14  1  0.85732300  0.30220300  0.96793700  1
  Cl  Cl15  1  0.25518100  0.54322100  0.80115000  1
  Cl  Cl16  1  0.57131500  0.72025300  0.31417900  1
  Cl  Cl17  1  0.83527900  0.89065300  0.38298500  1
  Cl  Cl18  1  0.14267700  0.80220300  0.53206300  1
  Cl  Cl19  1  0.25518100  0.95677900  0.30115000  1
  Cl  Cl20  1  0.83527900  0.60934700  0.88298500  1
  Cl  Cl21  1  0.74481900  0.04322100  0.69885000  1
  Cl  Cl22  1  0.35732300  0.19779700  0.03206300  1
  Cl  Cl23  1  0.66472100  0.39065300  0.38298500  1
  Cl  Cl24  1  0.35732300  0.30220300  0.53206300  1
  Cl  Cl25  1  0.75518100  0.54322100  0.69885000  1
  Cl  Cl26  1  0.16472100  0.10934700  0.61701500  1
  Cl  Cl27  1  0.85732300  0.19779700  0.46793700  1
  Cl  Cl28  1  0.07131500  0.72025300  0.18582100  1
  Cl  Cl29  1  0.66472100  0.10934700  0.88298500  1
  Cl  Cl30  1  0.57131500  0.77974700  0.81417900  1
  Cl  Cl31  1  0.42868500  0.27974700  0.68582100  1
  O  O0  1  0.48453800  0.90920500  0.63746000  1
  O  O1  1  0.51546200  0.40920500  0.86254000  1
  O  O2  1  0.24788600  0.55543700  0.42911400  1
  O  O3  1  0.98453800  0.59079500  0.36254000  1
  O  O4  1  0.25211400  0.05543700  0.42911400  1
  O  O5  1  0.51546200  0.09079500  0.36254000  1
  O  O6  1  0.98453800  0.90920500  0.86254000  1
  O  O7  1  0.74788600  0.55543700  0.07088600  1
  O  O8  1  0.75211400  0.44456300  0.57088600  1
  O  O9  1  0.74788600  0.94456300  0.57088600  1
  O  O10  1  0.01546200  0.40920500  0.63746000  1
  O  O11  1  0.01546200  0.09079500  0.13746000  1
  O  O12  1  0.48453800  0.59079500  0.13746000  1
  O  O13  1  0.25211400  0.44456300  0.92911400  1
  O  O14  1  0.75211400  0.05543700  0.07088600  1
  O  O15  1  0.24788600  0.94456300  0.92911400  1
loop_
_geom_bond_atom_site_label_1
_geom_bond_atom_site_label_2
_geom_bond_distance
_geom_bond_site_symmetry_2
N0 P4 1.571522 1_555
N0 S2 1.592740 1_545
N1 P0 1.571522 1_455
N1 S5 1.592740 1_545
N2 P6 1.571522 1_655
N2 S7 1.592740 1_565
N3 P1 1.571522 1_555
N3 S0 1.592740 1_555
N4 P7 1.571522 1_555
N4 S6 1.592740 1_555
N5 P3 1.571522 1_455
N5 S4 1.592740 1_555
N6 P2 1.571522 1_555
N6 S3 1.592740 1_565
N7 P5 1.571522 1_655
N7 S1 1.592740 1_555
Cl0 P7 1.995533 1_555
Cl1 S5 2.099829 1_545
Cl2 P6 1.995187 1_555
Cl3 S4 2.099829 1_555
Cl4 P1 1.971844 1_555
Cl5 P7 1.995187 1_555
Cl6 P6 1.971844 1_555
Cl7 P5 1.995187 1_555
Cl8 S7 2.099829 1_565
Cl9 P3 1.995533 1_555
Cl10 P5 1.995533 1_555
Cl11 P0 1.995533 1_555
Cl12 S6 2.099829 1_555
Cl13 P2 1.971844 1_555
Cl14 P0 1.971844 1_555
Cl15 S0 2.099829 1_555
Cl16 P2 1.995533 1_555
Cl17 P2 1.995187 1_555
Cl18 P5 1.971844 1_555
Cl19 S3 2.099829 1_565
Cl20 P1 1.995187 1_555
Cl21 S2 2.099829 1_545
Cl22 P7 1.971844 1_555
Cl23 P3 1.995187 1_555
Cl24 P4 1.971844 1_555
Cl25 S1 2.099829 1_555
Cl26 P4 1.995187 1_555
Cl27 P3 1.971844 1_555
Cl28 P6 1.995533 1_555
Cl29 P0 1.995187 1_555
Cl30 P1 1.995533 1_555
Cl31 P4 1.995533 1_555
O0 S2 1.440310 1_555
O1 S0 1.440310 1_555
O2 S4 1.437529 1_555
O3 S4 1.440310 1_655
O4 S3 1.437529 1_555
O5 S3 1.440310 1_555
O6 S5 1.440310 1_655
O7 S6 1.437529 1_555
O8 S1 1.437529 1_555
O9 S2 1.437529 1_555
O10 S1 1.440310 1_455
O11 S7 1.440310 1_455
O12 S6 1.440310 1_555
O13 S0 1.437529 1_555
O14 S7 1.437529 1_555
O15 S5 1.437529 1_555
