# generated using pymatgen
data_K2FeF5
_symmetry_space_group_name_H-M   'P 1'
_cell_length_a   5.67345055
_cell_length_b   7.27279571
_cell_length_c   22.93083903
_cell_angle_alpha   90.00000000
_cell_angle_beta   90.00000000
_cell_angle_gamma   90.00000000
_symmetry_Int_Tables_number   1
_chemical_formula_structural   K2FeF5
_chemical_formula_sum   'K16 Fe8 F40'
_cell_volume   946.16876753
_cell_formula_units_Z   8
loop_
 _symmetry_equiv_pos_site_id
 _symmetry_equiv_pos_as_xyz
  1  'x, y, z'
loop_
 _atom_site_type_symbol
 _atom_site_label
 _atom_site_symmetry_multiplicity
 _atom_site_fract_x
 _atom_site_fract_y
 _atom_site_fract_z
 _atom_site_occupancy
  K  K0  1  -0.00000000  0.62844278  0.41679633  1
  K  K1  1  0.50000000  0.45167198  0.16761605  1
  K  K2  1  -0.00000000  0.80245575  0.23628533  1
  K  K3  1  -0.00000000  0.19754425  0.76371467  1
  K  K4  1  0.50000000  0.95167198  0.33238395  1
  K  K5  1  0.50000000  0.23125688  0.48558497  1
  K  K6  1  -0.00000000  0.69754425  0.73628533  1
  K  K7  1  -0.00000000  0.12844278  0.08320367  1
  K  K8  1  0.50000000  0.54832802  0.83238395  1
  K  K9  1  -0.00000000  0.30245575  0.26371467  1
  K  K10  1  0.50000000  0.76874312  0.51441503  1
  K  K11  1  -0.00000000  0.37155722  0.58320367  1
  K  K12  1  -0.00000000  0.87155722  0.91679633  1
  K  K13  1  0.50000000  0.26874312  0.98558497  1
  K  K14  1  0.50000000  0.04832802  0.66761605  1
  K  K15  1  0.50000000  0.73125688  0.01441503  1
  Fe  Fe0  1  0.50000000  0.03941321  0.84396203  1
  Fe  Fe1  1  0.50000000  0.53941321  0.65603797  1
  Fe  Fe2  1  -0.00000000  0.38485355  0.90697045  1
  Fe  Fe3  1  0.50000000  0.46058679  0.34396203  1
  Fe  Fe4  1  -0.00000000  0.11514645  0.40697045  1
  Fe  Fe5  1  -0.00000000  0.61514645  0.09302955  1
  Fe  Fe6  1  0.50000000  0.96058679  0.15603797  1
  Fe  Fe7  1  -0.00000000  0.88485355  0.59302955  1
  F  F0  1  0.74810782  0.78085347  0.12708918  1
  F  F1  1  0.75676221  0.04167477  0.56681880  1
  F  F2  1  0.25462776  0.61689522  0.31894326  1
  F  F3  1  0.24323779  0.45832523  0.06681880  1
  F  F4  1  0.74537224  0.61689522  0.31894326  1
  F  F5  1  0.25462776  0.88310478  0.81894326  1
  F  F6  1  0.50000000  0.81773461  0.22532177  1
  F  F7  1  0.74537224  0.88310478  0.81894326  1
  F  F8  1  -0.00000000  0.99733949  0.66973822  1
  F  F9  1  0.25189218  0.71914653  0.62708918  1
  F  F10  1  -0.00000000  0.00266051  0.33026178  1
  F  F11  1  0.50000000  0.44453789  0.57729145  1
  F  F12  1  0.25462776  0.11689522  0.18105674  1
  F  F13  1  0.24323779  0.95832523  0.43318120  1
  F  F14  1  0.50000000  0.31773461  0.27467823  1
  F  F15  1  -0.00000000  0.21732909  0.97116950  1
  F  F16  1  0.74810782  0.28085347  0.37291082  1
  F  F17  1  -0.00000000  0.71732909  0.52883050  1
  F  F18  1  0.25462776  0.38310478  0.68105674  1
  F  F19  1  0.50000000  0.18226539  0.77467823  1
  F  F20  1  0.74810782  0.21914653  0.87291082  1
  F  F21  1  -0.00000000  0.49733949  0.83026178  1
  F  F22  1  -0.00000000  0.50266051  0.16973822  1
  F  F23  1  0.24323779  0.04167477  0.56681880  1
  F  F24  1  0.25189218  0.21914653  0.87291082  1
  F  F25  1  0.74537224  0.11689522  0.18105674  1
  F  F26  1  0.50000000  0.94453789  0.92270855  1
  F  F27  1  0.74810782  0.71914653  0.62708918  1
  F  F28  1  0.50000000  0.55546211  0.42270855  1
  F  F29  1  -0.00000000  0.28267091  0.47116950  1
  F  F30  1  0.50000000  0.05546211  0.07729145  1
  F  F31  1  0.50000000  0.68226539  0.72532177  1
  F  F32  1  0.75676221  0.95832523  0.43318120  1
  F  F33  1  0.25189218  0.78085347  0.12708918  1
  F  F34  1  -0.00000000  0.78267091  0.02883050  1
  F  F35  1  0.74537224  0.38310478  0.68105674  1
  F  F36  1  0.75676221  0.45832523  0.06681880  1
  F  F37  1  0.75676221  0.54167477  0.93318120  1
  F  F38  1  0.25189218  0.28085347  0.37291082  1
  F  F39  1  0.24323779  0.54167477  0.93318120  1
loop_
_geom_bond_atom_site_label_1
_geom_bond_atom_site_label_2
_geom_bond_distance
_geom_bond_site_symmetry_2
F0 Fe5 2.026006 1_655
F0 Fe6 2.032424 1_555
F0 K2 2.887355 1_655
F0 K1 2.928585 1_555
F0 K15 2.964304 1_555
F0 K7 3.073359 1_665
F1 Fe7 1.888502 1_645
F1 K14 2.732546 1_555
F1 K5 2.737334 1_555
F1 K10 2.739741 1_545
F1 K11 2.793128 1_655
F2 Fe3 1.886639 1_555
F2 K0 2.669991 1_555
F2 K2 2.738757 1_555
F2 K4 2.821529 1_555
F2 K9 2.986719 1_555
F3 Fe5 1.888502 1_555
F3 K1 2.732546 1_555
F3 K13 2.737334 1_554
F3 K15 2.739741 1_555
F3 K7 2.793128 1_555
F4 Fe3 1.886639 1_555
F4 K0 2.669991 1_655
F4 K2 2.738757 1_655
F4 K4 2.821529 1_555
F4 K9 2.986719 1_655
F5 Fe0 1.886639 1_565
F5 K12 2.669991 1_555
F5 K6 2.738757 1_555
F5 K8 2.821529 1_555
F5 K3 2.986719 1_565
F6 Fe6 1.898280 1_555
F6 K4 2.641216 1_555
F6 K2 2.850011 1_555
F6 K2 2.850011 1_655
F6 K1 2.973012 1_555
F7 Fe0 1.886639 1_565
F7 K12 2.669991 1_655
F7 K6 2.738757 1_655
F7 K8 2.821529 1_555
F7 K3 2.986719 1_665
F8 Fe7 1.939930 1_555
F8 K3 2.600755 1_565
F8 K6 2.661305 1_555
F8 K14 2.861275 1_465
F8 K14 2.861275 1_565
F9 Fe7 2.026006 1_555
F9 Fe1 2.032424 1_555
F9 K6 2.887355 1_555
F9 K14 2.928585 1_565
F9 K10 2.964304 1_555
F9 K11 3.073359 1_555
F10 Fe4 1.939930 1_555
F10 K2 2.600755 1_545
F10 K9 2.661305 1_555
F10 K4 2.861275 1_445
F10 K4 2.861275 1_545
F11 Fe1 1.933068 1_555
F11 K5 2.613098 1_555
F11 K10 2.763766 1_555
F11 K11 2.889137 1_655
F11 K11 2.889137 1_555
F12 Fe6 1.886639 1_545
F12 K7 2.669991 1_555
F12 K9 2.738757 1_555
F12 K1 2.821529 1_555
F12 K2 2.986719 1_545
F13 Fe4 1.888502 1_565
F13 K4 2.732546 1_555
F13 K10 2.737334 1_555
F13 K5 2.739741 1_565
F13 K0 2.793128 1_555
F14 Fe3 1.898280 1_555
F14 K1 2.641216 1_555
F14 K9 2.850011 1_555
F14 K9 2.850011 1_655
F14 K4 2.973012 1_545
F15 Fe2 1.910921 1_555
F15 K7 2.649123 1_556
F15 K12 2.806853 1_545
F15 K13 2.880295 1_455
F15 K13 2.880295 1_555
F16 Fe4 2.026006 1_655
F16 Fe3 2.032424 1_555
F16 K9 2.887355 1_655
F16 K4 2.928585 1_545
F16 K5 2.964304 1_555
F16 K0 3.073359 1_655
F17 Fe7 1.910921 1_555
F17 K0 2.649123 1_555
F17 K11 2.806853 1_555
F17 K10 2.880295 1_455
F17 K10 2.880295 1_555
F18 Fe1 1.886639 1_555
F18 K11 2.669991 1_555
F18 K3 2.738757 1_555
F18 K14 2.821529 1_555
F18 K6 2.986719 1_555
F19 Fe0 1.898280 1_555
F19 K14 2.641216 1_555
F19 K3 2.850011 1_555
F19 K3 2.850011 1_655
F19 K8 2.973012 1_555
F20 Fe2 2.026006 1_655
F20 Fe0 2.032424 1_555
F20 K3 2.887355 1_655
F20 K8 2.928585 1_555
F20 K13 2.964304 1_555
F20 K12 3.073359 1_645
F21 Fe2 1.939930 1_555
F21 K6 2.600755 1_555
F21 K3 2.661305 1_555
F21 K8 2.861275 1_455
F21 K8 2.861275 1_555
F22 Fe5 1.939930 1_555
F22 K9 2.600755 1_555
F22 K2 2.661305 1_555
F22 K1 2.861275 1_455
F22 K1 2.861275 1_555
F23 Fe7 1.888502 1_545
F23 K14 2.732546 1_555
F23 K5 2.737334 1_555
F23 K10 2.739741 1_545
F23 K11 2.793128 1_555
F24 Fe2 2.026006 1_555
F24 Fe0 2.032424 1_555
F24 K3 2.887355 1_555
F24 K8 2.928585 1_555
F24 K13 2.964304 1_555
F24 K12 3.073359 1_545
F25 Fe6 1.886639 1_545
F25 K7 2.669991 1_655
F25 K9 2.738757 1_655
F25 K1 2.821529 1_555
F25 K2 2.986719 1_645
F26 Fe0 1.933068 1_565
F26 K15 2.613098 1_556
F26 K13 2.763766 1_565
F26 K12 2.889137 1_555
F26 K12 2.889137 1_655
F27 Fe7 2.026006 1_655
F27 Fe1 2.032424 1_555
F27 K6 2.887355 1_655
F27 K14 2.928585 1_565
F27 K10 2.964304 1_555
F27 K11 3.073359 1_655
F28 Fe3 1.933068 1_555
F28 K10 2.613098 1_555
F28 K5 2.763766 1_555
F28 K0 2.889137 1_555
F28 K0 2.889137 1_655
F29 Fe4 1.910921 1_555
F29 K11 2.649123 1_555
F29 K0 2.806853 1_555
F29 K5 2.880295 1_555
F29 K5 2.880295 1_455
F30 Fe6 1.933068 1_545
F30 K13 2.613098 1_554
F30 K15 2.763766 1_545
F30 K7 2.889137 1_655
F30 K7 2.889137 1_555
F31 Fe1 1.898280 1_555
F31 K8 2.641216 1_555
F31 K6 2.850011 1_555
F31 K6 2.850011 1_655
F31 K14 2.973012 1_565
F32 Fe4 1.888502 1_665
F32 K4 2.732546 1_555
F32 K10 2.737334 1_555
F32 K5 2.739741 1_565
F32 K0 2.793128 1_655
F33 Fe5 2.026006 1_555
F33 Fe6 2.032424 1_555
F33 K2 2.887355 1_555
F33 K1 2.928585 1_555
F33 K15 2.964304 1_555
F33 K7 3.073359 1_565
F34 Fe5 1.910921 1_555
F34 K12 2.649123 1_554
F34 K7 2.806853 1_565
F34 K15 2.880295 1_555
F34 K15 2.880295 1_455
F35 Fe1 1.886639 1_555
F35 K11 2.669991 1_655
F35 K3 2.738757 1_655
F35 K14 2.821529 1_555
F35 K6 2.986719 1_655
F36 Fe5 1.888502 1_655
F36 K1 2.732546 1_555
F36 K13 2.737334 1_554
F36 K15 2.739741 1_555
F36 K7 2.793128 1_655
F37 Fe2 1.888502 1_655
F37 K8 2.732546 1_555
F37 K15 2.737334 1_556
F37 K13 2.739741 1_555
F37 K12 2.793128 1_655
F38 Fe4 2.026006 1_555
F38 Fe3 2.032424 1_555
F38 K9 2.887355 1_555
F38 K4 2.928585 1_545
F38 K5 2.964304 1_555
F38 K0 3.073359 1_555
F39 Fe2 1.888502 1_555
F39 K8 2.732546 1_555
F39 K15 2.737334 1_556
F39 K13 2.739741 1_555
F39 K12 2.793128 1_555
