# generated using pymatgen
data_La3CuGeSe7
_symmetry_space_group_name_H-M   'P 1'
_cell_length_a   10.79110966
_cell_length_b   10.79110966
_cell_length_c   6.20608200
_cell_angle_alpha   90.00000000
_cell_angle_beta   90.00000000
_cell_angle_gamma   119.99999790
_symmetry_Int_Tables_number   1
_chemical_formula_structural   La3CuGeSe7
_chemical_formula_sum   'La6 Cu2 Ge2 Se14'
_cell_volume   625.86456289
_cell_formula_units_Z   2
loop_
 _symmetry_equiv_pos_site_id
 _symmetry_equiv_pos_as_xyz
  1  'x, y, z'
loop_
 _atom_site_type_symbol
 _atom_site_label
 _atom_site_symmetry_multiplicity
 _atom_site_fract_x
 _atom_site_fract_y
 _atom_site_fract_z
 _atom_site_occupancy
  La  La0  1  0.22604300  0.35537900  0.85246000  1
  La  La1  1  0.87066400  0.22604300  0.35246000  1
  La  La2  1  0.35537900  0.12933600  0.35246000  1
  La  La3  1  0.64462100  0.87066400  0.85246000  1
  La  La4  1  0.12933600  0.77395700  0.85246000  1
  La  La5  1  0.77395700  0.64462100  0.35246000  1
  Cu  Cu0  1  0.00000000  0.00000000  0.82274900  1
  Cu  Cu1  1  0.00000000  0.00000000  0.32274900  1
  Ge  Ge0  1  0.33333300  0.66666700  0.43673000  1
  Ge  Ge1  1  0.66666700  0.33333300  0.93673000  1
  Se  Se0  1  0.33333300  0.66666700  0.05638900  1
  Se  Se1  1  0.66666700  0.33333300  0.55638900  1
  Se  Se2  1  0.90788700  0.16096300  0.83673900  1
  Se  Se3  1  0.74692400  0.90788700  0.33673900  1
  Se  Se4  1  0.16096300  0.25307600  0.33673900  1
  Se  Se5  1  0.83903700  0.74692400  0.83673900  1
  Se  Se6  1  0.25307600  0.09211300  0.83673900  1
  Se  Se7  1  0.09211300  0.83903700  0.33673900  1
  Se  Se8  1  0.10009300  0.51970900  0.59047800  1
  Se  Se9  1  0.58038400  0.10009300  0.09047800  1
  Se  Se10  1  0.51970900  0.41961600  0.09047800  1
  Se  Se11  1  0.48029100  0.58038400  0.59047800  1
  Se  Se12  1  0.41961600  0.89990700  0.59047800  1
  Se  Se13  1  0.89990700  0.48029100  0.09047800  1
loop_
_geom_bond_atom_site_label_1
_geom_bond_atom_site_label_2
_geom_bond_distance
_geom_bond_site_symmetry_2
La0 Se6 2.999043 1_555
La0 Se2 2.999229 1_455
La0 Se11 3.066712 1_555
La0 Se4 3.157455 1_556
La0 Se8 3.169468 1_555
La0 Se0 3.215104 1_556
La0 Se10 3.241644 1_556
La0 Se4 3.343729 1_555
La1 Se4 2.999043 1_655
La1 Se3 2.999229 1_545
La1 Se13 3.066712 1_555
La1 Se2 3.157455 1_555
La1 Se9 3.169468 1_555
La1 Se1 3.215095 1_555
La1 Se8 3.241644 1_655
La1 Se2 3.343729 1_554
La2 Se7 2.999043 1_545
La2 Se4 2.999229 1_555
La2 Se9 3.066712 1_555
La2 Se6 3.157455 1_555
La2 Se10 3.169468 1_555
La2 Se1 3.215102 1_555
La2 Se12 3.241644 1_545
La2 Se6 3.343729 1_554
La3 Se2 2.999043 1_565
La3 Se5 2.999229 1_555
La3 Se12 3.066712 1_555
La3 Se3 3.157455 1_556
La3 Se11 3.169468 1_555
La3 Se0 3.215102 1_556
La3 Se9 3.241644 1_566
La3 Se3 3.343729 1_555
La4 Se5 2.999043 1_455
La4 Se6 2.999229 1_565
La4 Se8 3.066712 1_555
La4 Se7 3.157455 1_556
La4 Se12 3.169468 1_555
La4 Se0 3.215095 1_556
La4 Se13 3.241644 1_456
La4 Se7 3.343729 1_555
La5 Se3 2.999043 1_555
La5 Se7 2.999229 1_655
La5 Se10 3.066712 1_555
La5 Se5 3.157455 1_555
La5 Se13 3.169468 1_555
La5 Se1 3.215104 1_555
La5 Se11 3.241644 1_555
La5 Se5 3.343729 1_554
Cu0 Se2 2.395661 1_455
Cu0 Se6 2.395661 1_555
Cu0 Se5 2.395661 1_445
Cu1 Se7 2.395661 1_545
Cu1 Se3 2.395661 1_445
Cu1 Se4 2.395661 1_555
Ge0 Se0 2.360427 1_555
Ge0 Se12 2.401828 1_555
Ge0 Se8 2.401829 1_555
Ge0 Se11 2.401837 1_555
Ge1 Se1 2.360427 1_555
Ge1 Se9 2.401828 1_556
Ge1 Se13 2.401829 1_556
Ge1 Se10 2.401837 1_556
