# generated using pymatgen
data_K3V3(BiO6)2
_symmetry_space_group_name_H-M   'P 1'
_cell_length_a   9.99295090
_cell_length_b   9.99295090
_cell_length_c   7.28800327
_cell_angle_alpha   73.80502627
_cell_angle_beta   73.80502627
_cell_angle_gamma   89.82386573
_symmetry_Int_Tables_number   1
_chemical_formula_structural   K3V3(BiO6)2
_chemical_formula_sum   'K6 V6 Bi4 O24'
_cell_volume   668.95413188
_cell_formula_units_Z   2
loop_
 _symmetry_equiv_pos_site_id
 _symmetry_equiv_pos_as_xyz
  1  'x, y, z'
loop_
 _atom_site_type_symbol
 _atom_site_label
 _atom_site_symmetry_multiplicity
 _atom_site_fract_x
 _atom_site_fract_y
 _atom_site_fract_z
 _atom_site_occupancy
  K  K0  1  0.01163500  0.98836500  0.75000000  1
  K  K1  1  0.98836500  0.01163500  0.25000000  1
  K  K2  1  0.72730200  0.27269800  0.25000000  1
  K  K3  1  0.50000000  0.50000000  0.00000000  1
  K  K4  1  0.27269800  0.72730200  0.75000000  1
  K  K5  1  0.50000000  0.50000000  0.50000000  1
  V  V0  1  0.35124000  0.13376800  0.36253400  1
  V  V1  1  0.64876000  0.86623200  0.63746600  1
  V  V2  1  0.13376800  0.35124000  0.86253400  1
  V  V3  1  0.24670700  0.75329300  0.25000000  1
  V  V4  1  0.75329300  0.24670700  0.75000000  1
  V  V5  1  0.86623200  0.64876000  0.13746600  1
  Bi  Bi0  1  0.38288500  0.08520200  0.84585100  1
  Bi  Bi1  1  0.08520200  0.38288500  0.34585100  1
  Bi  Bi2  1  0.91479800  0.61711500  0.65414900  1
  Bi  Bi3  1  0.61711500  0.91479800  0.15414900  1
  O  O0  1  0.24097900  0.89786400  0.04623800  1
  O  O1  1  0.01349900  0.34166500  0.09666200  1
  O  O2  1  0.70829700  0.57778800  0.14965200  1
  O  O3  1  0.18206400  0.15332200  0.34783500  1
  O  O4  1  0.60424100  0.24167800  0.67619400  1
  O  O5  1  0.65833500  0.98650100  0.40333800  1
  O  O6  1  0.07526100  0.45184200  0.65564200  1
  O  O7  1  0.75902100  0.10213600  0.95376200  1
  O  O8  1  0.81793600  0.84667800  0.65216500  1
  O  O9  1  0.54815800  0.92473900  0.84435800  1
  O  O10  1  0.39575900  0.75832200  0.32380600  1
  O  O11  1  0.10213600  0.75902100  0.45376200  1
  O  O12  1  0.92473900  0.54815800  0.34435800  1
  O  O13  1  0.57778800  0.70829700  0.64965200  1
  O  O14  1  0.45184200  0.07526100  0.15564200  1
  O  O15  1  0.24167800  0.60424100  0.17619400  1
  O  O16  1  0.29170300  0.42221200  0.85034800  1
  O  O17  1  0.42221200  0.29170300  0.35034800  1
  O  O18  1  0.89786400  0.24097900  0.54623800  1
  O  O19  1  0.15332200  0.18206400  0.84783500  1
  O  O20  1  0.34166500  0.01349900  0.59666200  1
  O  O21  1  0.98650100  0.65833500  0.90333800  1
  O  O22  1  0.75832200  0.39575900  0.82380600  1
  O  O23  1  0.84667800  0.81793600  0.15216500  1
loop_
_geom_bond_atom_site_label_1
_geom_bond_atom_site_label_2
_geom_bond_distance
_geom_bond_site_symmetry_2
K0 O8 2.758548 1_455
K0 O19 2.758548 1_565
K0 O7 2.950130 1_465
K0 O18 2.950130 1_465
K0 O3 2.957391 1_565
K0 O23 2.957391 1_456
K0 O21 3.159310 1_455
K0 O20 3.159310 1_565
K1 O23 2.758548 1_545
K1 O3 2.758548 1_655
K1 O11 2.950130 1_645
K1 O0 2.950130 1_645
K1 O8 2.957391 1_545
K1 O19 2.957391 1_654
K1 O5 3.159310 1_545
K1 O1 3.159310 1_655
K2 O1 2.775402 1_655
K2 O5 2.775402 1_545
K2 O4 2.931008 1_555
K2 O22 2.931008 1_554
K2 O2 2.948894 1_555
K2 O17 2.948894 1_555
K2 O18 3.055212 1_555
K2 O7 3.055212 1_554
K3 O13 2.719297 1_554
K3 O17 2.719297 1_555
K3 O2 2.806362 1_555
K3 O16 2.806362 1_554
K3 O22 2.877187 1_554
K3 O15 2.877187 1_555
K4 O20 2.775402 1_565
K4 O21 2.775402 1_455
K4 O15 2.931008 1_556
K4 O10 2.931008 1_555
K4 O13 2.948894 1_555
K4 O16 2.948894 1_555
K4 O0 3.055212 1_556
K4 O11 3.055212 1_555
K5 O16 2.719297 1_555
K5 O2 2.719297 1_555
K5 O13 2.806362 1_555
K5 O17 2.806362 1_555
K5 O10 2.877187 1_555
K5 O4 2.877187 1_555
Bi0 O0 2.232572 1_546
Bi0 O20 2.264117 1_555
Bi0 O9 2.298352 1_545
Bi0 O19 2.485006 1_555
Bi0 O4 2.506779 1_555
Bi0 O14 2.514852 1_556
Bi1 O18 2.232572 1_455
Bi1 O1 2.264117 1_555
Bi1 O12 2.298352 1_455
Bi1 O3 2.485006 1_555
Bi1 O15 2.506779 1_555
Bi1 O6 2.514852 1_555
Bi2 O11 2.232572 1_655
Bi2 O21 2.264117 1_555
Bi2 O6 2.298352 1_655
Bi2 O8 2.485006 1_555
Bi2 O22 2.506779 1_555
Bi2 O12 2.514852 1_555
Bi3 O7 2.232572 1_564
Bi3 O5 2.264117 1_555
Bi3 O14 2.298352 1_565
Bi3 O23 2.485006 1_555
Bi3 O10 2.506779 1_555
Bi3 O9 2.514852 1_554
O0 V3 1.773659 1_555
O1 V2 1.769416 1_554
O2 V5 1.701550 1_555
O3 V0 1.730604 1_555
O4 V4 1.724189 1_555
O5 V1 1.769416 1_555
O6 V2 1.807928 1_555
O7 V4 1.773659 1_555
O8 V1 1.730604 1_555
O9 V1 1.807928 1_555
O10 V3 1.724189 1_555
O11 V3 1.773659 1_555
O12 V5 1.807928 1_555
O13 V1 1.701550 1_555
O14 V0 1.807928 1_555
O15 V3 1.724189 1_555
O16 V2 1.701550 1_555
O17 V0 1.701550 1_555
O18 V4 1.773659 1_555
O19 V2 1.730604 1_555
O20 V0 1.769416 1_555
O21 V5 1.769416 1_556
O22 V4 1.724189 1_555
O23 V5 1.730604 1_555
