# generated using pymatgen
data_Mg2B24C
_symmetry_space_group_name_H-M   'P 1'
_cell_length_a   8.94822219
_cell_length_b   8.94822219
_cell_length_c   5.07730141
_cell_angle_alpha   90.00000000
_cell_angle_beta   90.00000000
_cell_angle_gamma   90.00000000
_symmetry_Int_Tables_number   1
_chemical_formula_structural   Mg2B24C
_chemical_formula_sum   'Mg4 B48 C2'
_cell_volume   406.54297830
_cell_formula_units_Z   2
loop_
 _symmetry_equiv_pos_site_id
 _symmetry_equiv_pos_as_xyz
  1  'x, y, z'
loop_
 _atom_site_type_symbol
 _atom_site_label
 _atom_site_symmetry_multiplicity
 _atom_site_fract_x
 _atom_site_fract_y
 _atom_site_fract_z
 _atom_site_occupancy
  Mg  Mg0  1  -0.00000000  0.00000000  0.00000000  1
  Mg  Mg1  1  0.50000000  0.50000000  0.50000000  1
  Mg  Mg2  1  -0.00000000  0.50000000  0.75000000  1
  Mg  Mg3  1  0.50000000  0.00000000  0.25000000  1
  B  B0  1  0.59864600  0.80610012  0.08339058  1
  B  B1  1  0.75918960  0.07768514  0.91537355  1
  B  B2  1  0.61584983  0.37153977  0.87556302  1
  B  B3  1  0.75153569  0.73523682  0.91492739  1
  B  B4  1  0.25153569  0.76476318  0.41492739  1
  B  B5  1  0.40135400  0.19389988  0.08339058  1
  B  B6  1  0.26476318  0.75153569  0.08507261  1
  B  B7  1  0.73070864  0.40719501  0.58748380  1
  B  B8  1  0.92231486  0.75918960  0.08462645  1
  B  B9  1  0.32540891  0.92044111  0.59867233  1
  B  B10  1  0.24081040  0.92231486  0.91537355  1
  B  B11  1  0.90719501  0.23070864  0.91251620  1
  B  B12  1  0.73523682  0.24846431  0.08507261  1
  B  B13  1  0.38415017  0.62846023  0.87556302  1
  B  B14  1  0.07768514  0.24081040  0.08462645  1
  B  B15  1  0.42231486  0.74081040  0.58462645  1
  B  B16  1  0.90135400  0.30610012  0.58339058  1
  B  B17  1  0.23523682  0.25153569  0.58507261  1
  B  B18  1  0.11584983  0.12846023  0.37556302  1
  B  B19  1  0.80610012  0.40135400  0.91660942  1
  B  B20  1  0.62846023  0.61584983  0.12443698  1
  B  B21  1  0.76929136  0.90719501  0.08748380  1
  B  B22  1  0.74846431  0.23523682  0.41492739  1
  B  B23  1  0.74081040  0.57768514  0.41537355  1
  B  B24  1  0.09280499  0.76929136  0.91251620  1
  B  B25  1  0.25918960  0.42231486  0.41537355  1
  B  B26  1  0.40719501  0.26929136  0.41251620  1
  B  B27  1  0.24846431  0.26476318  0.91492739  1
  B  B28  1  0.88415017  0.87153977  0.37556302  1
  B  B29  1  0.57955889  0.17459109  0.90132767  1
  B  B30  1  0.42044111  0.82540891  0.90132767  1
  B  B31  1  0.69389988  0.90135400  0.41660942  1
  B  B32  1  0.57768514  0.25918960  0.58462645  1
  B  B33  1  0.87153977  0.11584983  0.62443698  1
  B  B34  1  0.30610012  0.09864600  0.41660942  1
  B  B35  1  0.59280499  0.73070864  0.41251620  1
  B  B36  1  0.07955889  0.32540891  0.40132767  1
  B  B37  1  0.37153977  0.38415017  0.12443698  1
  B  B38  1  0.92044111  0.67459109  0.40132767  1
  B  B39  1  0.26929136  0.59280499  0.58748380  1
  B  B40  1  0.09864600  0.69389988  0.58339058  1
  B  B41  1  0.19389988  0.59864600  0.91660942  1
  B  B42  1  0.76476318  0.74846431  0.58507261  1
  B  B43  1  0.23070864  0.09280499  0.08748380  1
  B  B44  1  0.17459109  0.42044111  0.09867233  1
  B  B45  1  0.12846023  0.88415017  0.62443698  1
  B  B46  1  0.82540891  0.57955889  0.09867233  1
  B  B47  1  0.67459109  0.07955889  0.59867233  1
  C  C0  1  -0.00000000  0.00000000  0.50000000  1
  C  C1  1  0.50000000  0.50000000  0.00000000  1
loop_
_geom_bond_atom_site_label_1
_geom_bond_atom_site_label_2
_geom_bond_distance
_geom_bond_site_symmetry_2
B0 B3 1.733597 1_554
B0 B20 1.735736 1_555
B0 B21 1.774940 1_555
B0 B35 1.802864 1_555
B0 B30 1.851256 1_554
B0 B31 2.077348 1_555
B0 Mg3 2.122544 1_565
B1 B21 1.760454 1_546
B1 B12 1.767377 1_556
B1 B47 1.777347 1_555
B1 B33 1.819165 1_555
B1 B29 1.827749 1_555
B1 B11 1.905035 1_555
B1 Mg0 2.304586 1_656
B2 C1 1.671870 1_556
B2 B29 1.796778 1_555
B2 B7 1.815907 1_555
B2 B32 1.819165 1_555
B2 Mg1 2.456020 1_555
B3 B42 1.683116 1_555
B3 B8 1.767377 1_556
B3 B46 1.802189 1_556
B4 B6 1.683116 1_555
B4 B40 1.733597 1_555
B4 B9 1.802189 1_555
B4 B45 1.867001 1_555
B5 Mg3 2.122544 1_555
B7 Mg1 2.269098 1_555
B8 Mg0 2.304586 1_665
B9 Mg3 2.466080 1_565
B10 B43 1.760454 1_566
B10 B6 1.767377 1_556
B10 B9 1.777347 1_555
B10 B45 1.819165 1_555
B10 B30 1.827749 1_555
B10 B24 1.905035 1_555
B10 Mg0 2.304586 1_566
B11 B14 1.760454 1_656
B11 B19 1.774940 1_555
B11 B12 1.777777 1_556
B11 B16 1.802864 1_555
B11 B33 1.815907 1_555
B11 Mg0 2.269098 1_656
B12 B22 1.683116 1_555
B12 B19 1.733597 1_554
B12 B29 1.802189 1_554
B12 B2 1.867001 1_554
B13 C1 1.671870 1_556
B13 B41 1.735736 1_555
B13 B30 1.796778 1_555
B13 B39 1.815907 1_555
B13 B15 1.819165 1_555
B13 B6 1.867001 1_556
B13 Mg1 2.456020 1_555
B14 B27 1.767377 1_554
B14 B36 1.777347 1_555
B14 B18 1.819165 1_555
B14 B44 1.827749 1_555
B14 B43 1.905035 1_555
B14 Mg0 2.304586 1_555
B15 B35 1.760454 1_555
B15 B4 1.767377 1_555
B15 B30 1.777347 1_555
B15 B9 1.827749 1_555
B15 B39 1.905035 1_555
B15 Mg1 2.304586 1_555
B16 B22 1.733597 1_555
B16 B33 1.735736 1_555
B16 B7 1.774940 1_555
B16 B36 1.851256 1_655
B16 B19 2.077348 1_555
B16 Mg2 2.122544 1_655
B17 B27 1.683116 1_555
B17 B34 1.733597 1_555
B17 B25 1.767377 1_555
B17 B26 1.777777 1_555
B17 B36 1.802189 1_555
B17 B18 1.867001 1_555
B18 C0 1.671870 1_555
B18 B34 1.735736 1_555
B18 B36 1.796778 1_555
B18 B43 1.815907 1_555
B18 Mg0 2.456020 1_555
B19 B2 1.735736 1_555
B19 B7 1.802864 1_555
B19 B46 1.851256 1_556
B19 Mg2 2.122544 1_655
B20 C1 1.671870 1_555
B20 B46 1.796778 1_555
B20 B35 1.815907 1_555
B20 B23 1.819165 1_555
B20 B3 1.867001 1_554
B20 Mg1 2.456020 1_555
B21 B3 1.777777 1_554
B21 B31 1.802864 1_555
B21 B28 1.815907 1_555
B21 B8 1.905035 1_555
B21 Mg0 2.269098 1_665
B22 B32 1.767377 1_555
B22 B7 1.777777 1_555
B22 B47 1.802189 1_555
B22 B33 1.867001 1_555
B23 B7 1.760454 1_555
B23 B42 1.767377 1_555
B23 B46 1.777347 1_555
B23 B38 1.827749 1_555
B23 B35 1.905035 1_555
B23 Mg1 2.304586 1_555
B24 B8 1.760454 1_456
B24 B41 1.774940 1_555
B24 B6 1.777777 1_556
B24 B40 1.802864 1_555
B24 B45 1.815907 1_555
B24 Mg0 2.269098 1_566
B25 B39 1.760454 1_555
B25 B44 1.777347 1_555
B25 B37 1.819165 1_555
B25 B36 1.827749 1_555
B25 B26 1.905035 1_555
B25 Mg1 2.304586 1_555
B26 B32 1.760454 1_555
B26 B34 1.774940 1_555
B26 B5 1.802864 1_555
B26 B37 1.815907 1_555
B26 Mg1 2.269098 1_555
B27 B5 1.733597 1_556
B27 B43 1.777777 1_556
B27 B44 1.802189 1_556
B27 B37 1.867001 1_556
B28 C0 1.671870 1_665
B28 B31 1.735736 1_555
B28 B38 1.796778 1_555
B28 B8 1.819165 1_555
B28 B42 1.867001 1_555
B28 Mg0 2.456020 1_665
B29 B32 1.777347 1_555
B29 B5 1.851256 1_556
B29 B47 1.951312 1_555
B29 Mg3 2.466080 1_556
B30 B6 1.802189 1_556
B30 B9 1.951312 1_555
B30 Mg3 2.466080 1_566
B31 B42 1.733597 1_555
B31 B35 1.774940 1_555
B31 B47 1.851256 1_565
B31 Mg3 2.122544 1_565
B32 B47 1.827749 1_555
B32 B7 1.905035 1_555
B32 Mg1 2.304586 1_555
B33 C0 1.671870 1_655
B33 B47 1.796778 1_555
B33 Mg0 2.456020 1_656
B34 B43 1.802864 1_555
B34 B9 1.851256 1_545
B34 B5 2.077348 1_555
B34 Mg3 2.122544 1_555
B35 B42 1.777777 1_555
B35 Mg1 2.269098 1_555
B36 B44 1.951312 1_555
B36 Mg2 2.466080 1_555
B37 C1 1.671870 1_555
B37 B5 1.735736 1_555
B37 B44 1.796778 1_555
B37 Mg1 2.456020 1_555
B38 B8 1.777347 1_555
B38 B42 1.802189 1_555
B38 B40 1.851256 1_655
B38 B46 1.951312 1_555
B38 Mg2 2.466080 1_655
B39 B40 1.774940 1_555
B39 B4 1.777777 1_555
B39 B41 1.802864 1_555
B39 Mg1 2.269098 1_555
B40 B45 1.735736 1_555
B40 B41 2.077348 1_555
B40 Mg2 2.122544 1_555
B41 B6 1.733597 1_556
B41 B44 1.851256 1_556
B41 Mg2 2.122544 1_555
B43 B5 1.774940 1_555
B43 Mg0 2.269098 1_555
B44 Mg2 2.466080 1_554
B45 C0 1.671870 1_565
B45 B9 1.796778 1_555
B45 Mg0 2.456020 1_566
B46 B8 1.827749 1_555
B46 Mg2 2.466080 1_654
B47 Mg3 2.466080 1_555
C0 Mg0 2.538651 1_555
C0 Mg0 2.538651 1_556
C1 Mg1 2.538651 1_554
C1 Mg1 2.538651 1_555
