# generated using pymatgen
data_H13S2N3O8
_symmetry_space_group_name_H-M   'P 1'
_cell_length_a   5.89898100
_cell_length_b   10.32146600
_cell_length_c   17.33305131
_cell_angle_alpha   65.50094541
_cell_angle_beta   90.00000000
_cell_angle_gamma   90.00000000
_symmetry_Int_Tables_number   1
_chemical_formula_structural   H13S2N3O8
_chemical_formula_sum   'H52 S8 N12 O32'
_cell_volume   960.32797550
_cell_formula_units_Z   4
loop_
 _symmetry_equiv_pos_site_id
 _symmetry_equiv_pos_as_xyz
  1  'x, y, z'
loop_
 _atom_site_type_symbol
 _atom_site_label
 _atom_site_symmetry_multiplicity
 _atom_site_fract_x
 _atom_site_fract_y
 _atom_site_fract_z
 _atom_site_occupancy
  H  H0  1  0.28944400  0.73335900  0.25378800  1
  H  H1  1  0.28944400  0.26664100  0.24621200  1
  H  H2  1  0.71055600  0.26664100  0.74621200  1
  H  H3  1  0.71055600  0.73335900  0.75378800  1
  H  H4  1  0.42419200  0.14191100  0.01258200  1
  H  H5  1  0.42419200  0.85808900  0.48741800  1
  H  H6  1  0.57580800  0.85808900  0.98741800  1
  H  H7  1  0.57580800  0.14191100  0.51258200  1
  H  H8  1  0.36319000  0.14977400  0.91601700  1
  H  H9  1  0.36319000  0.85022600  0.58398300  1
  H  H10  1  0.63681000  0.85022600  0.08398300  1
  H  H11  1  0.63681000  0.14977400  0.41601700  1
  H  H12  1  0.63261300  0.19026900  0.93602900  1
  H  H13  1  0.63261300  0.80973100  0.56397100  1
  H  H14  1  0.36738700  0.80973100  0.06397100  1
  H  H15  1  0.36738700  0.19026900  0.43602900  1
  H  H16  1  0.41644200  0.30261800  0.92836700  1
  H  H17  1  0.41644200  0.69738200  0.57163300  1
  H  H18  1  0.58355800  0.69738200  0.07163300  1
  H  H19  1  0.58355800  0.30261800  0.42836700  1
  H  H20  1  0.07783500  0.64170300  0.43411000  1
  H  H21  1  0.07783500  0.35829700  0.06589000  1
  H  H22  1  0.92216500  0.35829700  0.56589000  1
  H  H23  1  0.92216500  0.64170300  0.93411000  1
  H  H24  1  0.96122400  0.67382800  0.51358200  1
  H  H25  1  0.96122400  0.32617200  0.98641800  1
  H  H26  1  0.03877600  0.32617200  0.48641800  1
  H  H27  1  0.03877600  0.67382800  0.01358200  1
  H  H28  1  0.81368600  0.71306900  0.42426500  1
  H  H29  1  0.81368600  0.28693100  0.07573500  1
  H  H30  1  0.18631400  0.28693100  0.57573500  1
  H  H31  1  0.18631400  0.71306900  0.92426500  1
  H  H32  1  0.04743800  0.81288300  0.42445400  1
  H  H33  1  0.04743800  0.18711700  0.07554600  1
  H  H34  1  0.95256200  0.18711700  0.57554600  1
  H  H35  1  0.95256200  0.81288300  0.92445400  1
  H  H36  1  0.55539200  0.08106800  0.70932800  1
  H  H37  1  0.55539200  0.91893200  0.79067200  1
  H  H38  1  0.44460800  0.91893200  0.29067200  1
  H  H39  1  0.44460800  0.08106800  0.20932800  1
  H  H40  1  0.35428000  0.96420000  0.71319900  1
  H  H41  1  0.35428000  0.03580000  0.78680100  1
  H  H42  1  0.64572000  0.03580000  0.28680100  1
  H  H43  1  0.64572000  0.96420000  0.21319900  1
  H  H44  1  0.85718900  0.52273000  0.29167700  1
  H  H45  1  0.85718900  0.47727000  0.20832300  1
  H  H46  1  0.14281100  0.47727000  0.70832300  1
  H  H47  1  0.14281100  0.52273000  0.79167700  1
  H  H48  1  0.05853000  0.58658700  0.21412600  1
  H  H49  1  0.05853000  0.41341300  0.28587400  1
  H  H50  1  0.94147000  0.41341300  0.78587400  1
  H  H51  1  0.94147000  0.58658700  0.71412600  1
  S  S0  1  0.46918700  0.59368400  0.36723400  1
  S  S1  1  0.46918700  0.40631600  0.13276600  1
  S  S2  1  0.53081300  0.40631600  0.63276600  1
  S  S3  1  0.53081300  0.59368400  0.86723400  1
  S  S4  1  0.95832500  0.10440400  0.85715400  1
  S  S5  1  0.95832500  0.89559600  0.64284600  1
  S  S6  1  0.04167500  0.89559600  0.14284600  1
  S  S7  1  0.04167500  0.10440400  0.35715400  1
  N  N0  1  0.46011100  0.19579700  0.94900500  1
  N  N1  1  0.46011100  0.80420300  0.55099500  1
  N  N2  1  0.53988900  0.80420300  0.05099500  1
  N  N3  1  0.53988900  0.19579700  0.44900500  1
  N  N4  1  0.97593600  0.71068000  0.44893700  1
  N  N5  1  0.97593600  0.28932000  0.05106300  1
  N  N6  1  0.02406400  0.28932000  0.55106300  1
  N  N7  1  0.02406400  0.71068000  0.94893700  1
  N  N8  1  0.45559500  0.00000000  0.75000000  1
  N  N9  1  0.54440500  0.00000000  0.25000000  1
  N  N10  1  0.95993600  0.50000000  0.25000000  1
  N  N11  1  0.04006400  0.50000000  0.75000000  1
  O  O0  1  0.43247900  0.66340700  0.26847800  1
  O  O1  1  0.43247900  0.33659300  0.23152200  1
  O  O2  1  0.56752100  0.33659300  0.73152200  1
  O  O3  1  0.56752100  0.66340700  0.76847800  1
  O  O4  1  0.25705800  0.52137300  0.40658000  1
  O  O5  1  0.25705800  0.47862700  0.09342000  1
  O  O6  1  0.74294200  0.47862700  0.59342000  1
  O  O7  1  0.74294200  0.52137300  0.90658000  1
  O  O8  1  0.65988200  0.49419300  0.38013600  1
  O  O9  1  0.65988200  0.50580700  0.11986400  1
  O  O10  1  0.34011800  0.50580700  0.61986400  1
  O  O11  1  0.34011800  0.49419300  0.88013600  1
  O  O12  1  0.52552500  0.70978800  0.39277400  1
  O  O13  1  0.52552500  0.29021200  0.10722600  1
  O  O14  1  0.47447500  0.29021200  0.60722600  1
  O  O15  1  0.47447500  0.70978800  0.89277400  1
  O  O16  1  0.90705900  0.17744900  0.76343200  1
  O  O17  1  0.90705900  0.82255100  0.73656800  1
  O  O18  1  0.09294100  0.82255100  0.23656800  1
  O  O19  1  0.09294100  0.17744900  0.26343200  1
  O  O20  1  0.91263000  0.20770300  0.89537700  1
  O  O21  1  0.91263000  0.79229700  0.60462300  1
  O  O22  1  0.08737000  0.79229700  0.10462300  1
  O  O23  1  0.08737000  0.20770300  0.39537700  1
  O  O24  1  0.80924500  0.97700900  0.89596500  1
  O  O25  1  0.80924500  0.02299100  0.60403500  1
  O  O26  1  0.19075500  0.02299100  0.10403500  1
  O  O27  1  0.19075500  0.97700900  0.39596500  1
  O  O28  1  0.20144400  0.06118000  0.86816100  1
  O  O29  1  0.20144400  0.93882000  0.63183900  1
  O  O30  1  0.79855600  0.93882000  0.13183900  1
  O  O31  1  0.79855600  0.06118000  0.36816100  1
loop_
_geom_bond_atom_site_label_1
_geom_bond_atom_site_label_2
_geom_bond_distance
_geom_bond_site_symmetry_2
H0 O0 1.070323 1_555
H0 O18 1.432606 1_555
H1 O1 1.070323 1_555
H1 O19 1.432606 1_555
H2 O2 1.070323 1_555
H2 O16 1.432606 1_555
H3 O3 1.070323 1_555
H3 O17 1.432606 1_555
H4 N0 1.029702 1_554
H5 N1 1.029702 1_555
H6 N2 1.029702 1_556
H7 N3 1.029702 1_555
H8 N0 1.051060 1_555
H9 N1 1.051060 1_555
H10 N2 1.051060 1_555
H11 N3 1.051060 1_555
H12 N0 1.048793 1_555
H13 N1 1.048793 1_555
H14 N2 1.048793 1_555
H15 N3 1.048793 1_555
H16 N0 1.040594 1_555
H17 N1 1.040594 1_555
H18 N2 1.040594 1_555
H19 N3 1.040594 1_555
H20 N4 1.042103 1_455
H21 N5 1.042103 1_455
H22 N6 1.042103 1_655
H23 N7 1.042103 1_655
H24 N4 1.026766 1_555
H25 N5 1.026766 1_556
H26 N6 1.026766 1_555
H27 N7 1.026766 1_554
H28 N4 1.044413 1_555
H29 N5 1.044413 1_555
H30 N6 1.044413 1_555
H31 N7 1.044413 1_555
H32 N4 1.048574 1_455
H33 N5 1.048574 1_455
H34 N6 1.048574 1_655
H35 N7 1.048574 1_655
H36 N8 1.026873 1_555
H37 N8 1.026873 1_565
H38 N9 1.026873 1_565
H39 N9 1.026873 1_555
H40 N8 1.046943 1_565
H41 N8 1.046943 1_555
H42 N9 1.046943 1_555
H43 N9 1.046943 1_565
H44 N10 1.041540 1_555
H45 N10 1.041540 1_555
H46 N11 1.041540 1_555
H47 N11 1.041540 1_555
H48 N10 1.030889 1_455
H49 N10 1.030889 1_455
H50 N11 1.030889 1_655
H51 N11 1.030889 1_655
O0 S0 1.572642 1_555
O1 S1 1.572642 1_555
O2 S2 1.572642 1_555
O3 S3 1.572642 1_555
O4 S0 1.471690 1_555
O5 S1 1.471690 1_555
O6 S2 1.471690 1_555
O7 S3 1.471690 1_555
O8 S0 1.476305 1_555
O9 S1 1.476305 1_555
O10 S2 1.476305 1_555
O11 S3 1.476305 1_555
O12 S0 1.477317 1_555
O13 S1 1.477317 1_555
O14 S2 1.477317 1_555
O15 S3 1.477317 1_555
O16 S4 1.510985 1_555
O17 S5 1.510985 1_555
O18 S6 1.510985 1_555
O19 S7 1.510985 1_555
O20 S4 1.494727 1_555
O21 S5 1.494727 1_555
O22 S6 1.494727 1_555
O23 S7 1.494727 1_555
O24 S4 1.490397 1_565
O25 S5 1.490397 1_545
O26 S6 1.490397 1_545
O27 S7 1.490397 1_565
O28 S4 1.490518 1_455
O29 S5 1.490518 1_455
O30 S6 1.490518 1_655
O31 S7 1.490518 1_655
