# generated using pymatgen
data_Ce(PRu)2
_symmetry_space_group_name_H-M   'P 1'
_cell_length_a   4.06021318
_cell_length_b   4.06021187
_cell_length_c   5.67627605
_cell_angle_alpha   110.95581070
_cell_angle_beta   110.95579986
_cell_angle_gamma   89.99999691
_symmetry_Int_Tables_number   1
_chemical_formula_structural   Ce(PRu)2
_chemical_formula_sum   'Ce1 P2 Ru2'
_cell_volume   80.72330489
_cell_formula_units_Z   1
loop_
 _symmetry_equiv_pos_site_id
 _symmetry_equiv_pos_as_xyz
  1  'x, y, z'
loop_
 _atom_site_type_symbol
 _atom_site_label
 _atom_site_symmetry_multiplicity
 _atom_site_fract_x
 _atom_site_fract_y
 _atom_site_fract_z
 _atom_site_occupancy
  Ce  Ce0  1  0.00000000  0.00000000  0.00000000  1
  P  P0  1  0.37153515  0.37153515  0.74306930  1
  P  P1  1  0.62846485  0.62846485  0.25693070  1
  Ru  Ru0  1  0.25000000  0.75000000  0.50000000  1
  Ru  Ru1  1  0.75000000  0.25000000  0.50000000  1
loop_
_geom_bond_atom_site_label_1
_geom_bond_atom_site_label_2
_geom_bond_distance
_geom_bond_site_symmetry_2
Ce0 P1 3.134562 1_555
Ce0 P0 3.134562 1_444
Ce0 P1 3.134564 1_455
Ce0 P0 3.134564 1_544
Ce0 P0 3.134565 1_454
Ce0 P1 3.134565 1_545
Ce0 P0 3.134568 1_554
Ce0 P1 3.134568 1_445
Ce0 Ru1 3.180517 1_444
Ce0 Ru0 3.180517 1_555
Ce0 Ru1 3.180518 1_555
Ce0 Ru0 3.180518 1_444
Ce0 Ru0 3.180518 1_544
Ce0 Ru1 3.180518 1_455
Ce0 Ru1 3.180518 1_454
Ce0 Ru0 3.180518 1_545
P0 Ru0 2.353290 1_555
P0 Ru1 2.353290 1_555
P0 Ru0 2.353293 1_545
P0 Ru1 2.353294 1_455
P0 P1 2.516213 1_556
P1 Ru1 2.353290 1_555
P1 Ru0 2.353290 1_555
P1 Ru1 2.353293 1_565
P1 Ru0 2.353294 1_655
