# generated using pymatgen
data_CaMn3O6
_symmetry_space_group_name_H-M   'P 1'
_cell_length_a   11.42269500
_cell_length_b   8.72004200
_cell_length_c   10.88487429
_cell_angle_alpha   57.36425491
_cell_angle_beta   90.00000000
_cell_angle_gamma   90.00000000
_symmetry_Int_Tables_number   1
_chemical_formula_structural   CaMn3O6
_chemical_formula_sum   'Ca8 Mn24 O48'
_cell_volume   913.02475138
_cell_formula_units_Z   8
loop_
 _symmetry_equiv_pos_site_id
 _symmetry_equiv_pos_as_xyz
  1  'x, y, z'
loop_
 _atom_site_type_symbol
 _atom_site_label
 _atom_site_symmetry_multiplicity
 _atom_site_fract_x
 _atom_site_fract_y
 _atom_site_fract_z
 _atom_site_occupancy
  Ca  Ca0  1  0.16651600  0.55413700  0.25129800  1
  Ca  Ca1  1  0.66651600  0.44586300  0.24870200  1
  Ca  Ca2  1  0.83348400  0.44586300  0.74870200  1
  Ca  Ca3  1  0.33348400  0.55413700  0.75129800  1
  Ca  Ca4  1  0.16560300  0.94210900  0.25726700  1
  Ca  Ca5  1  0.66560300  0.05789100  0.24273300  1
  Ca  Ca6  1  0.83439700  0.05789100  0.74273300  1
  Ca  Ca7  1  0.33439700  0.94210900  0.75726700  1
  Mn  Mn0  1  0.38178600  0.45598500  0.44386000  1
  Mn  Mn1  1  0.88178600  0.54401500  0.05614000  1
  Mn  Mn2  1  0.61821400  0.54401500  0.55614000  1
  Mn  Mn3  1  0.11821400  0.45598500  0.94386000  1
  Mn  Mn4  1  0.88198100  0.86981400  0.07250000  1
  Mn  Mn5  1  0.38198100  0.13018600  0.42750000  1
  Mn  Mn6  1  0.11801900  0.13018600  0.92750000  1
  Mn  Mn7  1  0.61801900  0.86981400  0.57250000  1
  Mn  Mn8  1  0.90497100  0.47057700  0.41839800  1
  Mn  Mn9  1  0.40497100  0.52942300  0.08160200  1
  Mn  Mn10  1  0.09502900  0.52942300  0.58160200  1
  Mn  Mn11  1  0.59502900  0.47057700  0.91839800  1
  Mn  Mn12  1  0.40305600  0.85980600  0.09067500  1
  Mn  Mn13  1  0.90305600  0.14019400  0.40932500  1
  Mn  Mn14  1  0.59694400  0.14019400  0.90932500  1
  Mn  Mn15  1  0.09694400  0.85980600  0.59067500  1
  Mn  Mn16  1  0.39589600  0.79559000  0.43107200  1
  Mn  Mn17  1  0.89589600  0.20441000  0.06892800  1
  Mn  Mn18  1  0.60410400  0.20441000  0.56892800  1
  Mn  Mn19  1  0.10410400  0.79559000  0.93107200  1
  Mn  Mn20  1  0.90385100  0.80593300  0.41699400  1
  Mn  Mn21  1  0.40385100  0.19406700  0.08300600  1
  Mn  Mn22  1  0.09614900  0.19406700  0.58300600  1
  Mn  Mn23  1  0.59614900  0.80593300  0.91699400  1
  O  O0  1  0.85088800  0.60523900  0.21010600  1
  O  O1  1  0.35088800  0.39476100  0.28989400  1
  O  O2  1  0.14911200  0.39476100  0.78989400  1
  O  O3  1  0.64911200  0.60523900  0.71010600  1
  O  O4  1  0.33499800  0.71095700  0.30685300  1
  O  O5  1  0.83499800  0.28904300  0.19314700  1
  O  O6  1  0.66500200  0.28904300  0.69314700  1
  O  O7  1  0.16500200  0.71095700  0.80685300  1
  O  O8  1  0.52185400  0.67060900  0.11256400  1
  O  O9  1  0.02185400  0.32939100  0.38743600  1
  O  O10  1  0.47814600  0.32939100  0.88743600  1
  O  O11  1  0.97814600  0.67060900  0.61256400  1
  O  O12  1  0.02338200  0.66240600  0.38213300  1
  O  O13  1  0.52338200  0.33759400  0.11786700  1
  O  O14  1  0.97661800  0.33759400  0.61786700  1
  O  O15  1  0.47661800  0.66240600  0.88213300  1
  O  O16  1  0.30124300  0.72807700  0.03238500  1
  O  O17  1  0.80124300  0.27192300  0.46761500  1
  O  O18  1  0.69875700  0.27192300  0.96761500  1
  O  O19  1  0.19875700  0.72807700  0.53238500  1
  O  O20  1  0.80433800  0.59715600  0.47734800  1
  O  O21  1  0.30433800  0.40284400  0.02265200  1
  O  O22  1  0.19566200  0.40284400  0.52265200  1
  O  O23  1  0.69566200  0.59715600  0.97734800  1
  O  O24  1  0.57818700  0.45945900  0.42864100  1
  O  O25  1  0.07818700  0.54054100  0.07135900  1
  O  O26  1  0.42181300  0.54054100  0.57135900  1
  O  O27  1  0.92181300  0.45945900  0.92864100  1
  O  O28  1  0.08893400  0.86851500  0.07611700  1
  O  O29  1  0.58893400  0.13148500  0.42388300  1
  O  O30  1  0.91106600  0.13148500  0.92388300  1
  O  O31  1  0.41106600  0.86851500  0.57611700  1
  O  O32  1  0.84938400  0.94754700  0.20831400  1
  O  O33  1  0.34938400  0.05245300  0.29168600  1
  O  O34  1  0.15061600  0.05245300  0.79168600  1
  O  O35  1  0.65061600  0.94754700  0.70831400  1
  O  O36  1  0.51152000  0.00258300  0.12650300  1
  O  O37  1  0.01152000  0.99741700  0.37349700  1
  O  O38  1  0.48848000  0.99741700  0.87349700  1
  O  O39  1  0.98848000  0.00258300  0.62650300  1
  O  O40  1  0.29623000  0.06458100  0.03915000  1
  O  O41  1  0.79623000  0.93541900  0.46085000  1
  O  O42  1  0.70377000  0.93541900  0.96085000  1
  O  O43  1  0.20377000  0.06458100  0.53915000  1
  O  O44  1  0.58331300  0.80262900  0.43322000  1
  O  O45  1  0.08331300  0.19737100  0.06678000  1
  O  O46  1  0.41668700  0.19737100  0.56678000  1
  O  O47  1  0.91668700  0.80262900  0.93322000  1
loop_
_geom_bond_atom_site_label_1
_geom_bond_atom_site_label_2
_geom_bond_distance
_geom_bond_site_symmetry_2
Ca0 O25 2.262448 1_555
Ca0 O9 2.373780 1_555
Ca0 O1 2.431777 1_555
Ca0 O28 2.509653 1_555
Ca0 O22 2.524374 1_555
Ca0 O16 2.539409 1_555
Ca0 O4 2.613686 1_555
Ca0 O12 2.653830 1_555
Ca1 O24 2.262448 1_555
Ca1 O8 2.373780 1_555
Ca1 O0 2.431777 1_555
Ca1 O29 2.509653 1_555
Ca1 O23 2.524374 1_554
Ca1 O17 2.539409 1_555
Ca1 O5 2.613686 1_555
Ca1 O13 2.653830 1_555
Ca2 O27 2.262448 1_555
Ca2 O11 2.373780 1_555
Ca2 O3 2.431777 1_555
Ca2 O30 2.509653 1_555
Ca2 O20 2.524374 1_555
Ca2 O18 2.539409 1_555
Ca2 O6 2.613686 1_555
Ca2 O14 2.653830 1_555
Ca3 O26 2.262448 1_555
Ca3 O10 2.373780 1_555
Ca3 O2 2.431777 1_555
Ca3 O31 2.509653 1_555
Ca3 O21 2.524374 1_556
Ca3 O19 2.539409 1_555
Ca3 O7 2.613686 1_555
Ca3 O15 2.653830 1_555
Ca4 O45 2.271411 1_565
Ca4 O37 2.364123 1_555
Ca4 O33 2.421150 1_565
Ca4 O40 2.503767 1_565
Ca4 O28 2.536062 1_555
Ca4 O19 2.562459 1_555
Ca4 O12 2.619110 1_555
Ca4 O4 2.631497 1_555
Ca5 O44 2.271411 1_545
Ca5 O36 2.364123 1_555
Ca5 O32 2.421150 1_545
Ca5 O41 2.503767 1_545
Ca5 O29 2.536062 1_555
Ca5 O18 2.562459 1_554
Ca5 O13 2.619110 1_555
Ca5 O5 2.631497 1_555
Ca6 O47 2.271411 1_545
Ca6 O39 2.364123 1_555
Ca6 O35 2.421150 1_545
Ca6 O42 2.503767 1_545
Ca6 O30 2.536062 1_555
Ca6 O17 2.562459 1_555
Ca6 O14 2.619110 1_555
Ca6 O6 2.631497 1_555
Ca7 O46 2.271411 1_565
Ca7 O38 2.364123 1_555
Ca7 O34 2.421150 1_565
Ca7 O43 2.503767 1_565
Ca7 O31 2.536062 1_555
Ca7 O16 2.562459 1_556
Ca7 O15 2.619110 1_555
Ca7 O7 2.631497 1_555
Mn0 O46 1.944289 1_555
Mn0 O26 1.944845 1_555
Mn0 O4 1.968927 1_555
Mn0 O1 2.045305 1_555
Mn0 O22 2.245364 1_555
Mn0 O24 2.248537 1_555
Mn1 O47 1.944289 1_554
Mn1 O27 1.944845 1_554
Mn1 O5 1.968927 1_555
Mn1 O0 2.045305 1_555
Mn1 O23 2.245364 1_554
Mn1 O25 2.248537 1_655
Mn2 O44 1.944289 1_555
Mn2 O24 1.944845 1_555
Mn2 O6 1.968927 1_555
Mn2 O3 2.045305 1_555
Mn2 O20 2.245364 1_555
Mn2 O26 2.248537 1_555
Mn3 O45 1.944289 1_556
Mn3 O25 1.944845 1_556
Mn3 O7 1.968927 1_555
Mn3 O2 2.045305 1_555
Mn3 O21 2.245364 1_556
Mn3 O27 2.248537 1_455
Mn4 O47 1.938239 1_554
Mn4 O32 1.965792 1_555
Mn4 O30 1.988089 1_564
Mn4 O0 1.991263 1_555
Mn4 O42 2.279957 1_554
Mn4 O28 2.364214 1_655
Mn5 O46 1.938239 1_555
Mn5 O33 1.965792 1_555
Mn5 O31 1.988089 1_545
Mn5 O1 1.991263 1_555
Mn5 O43 2.279957 1_555
Mn5 O29 2.364214 1_555
Mn6 O45 1.938239 1_556
Mn6 O34 1.965792 1_555
Mn6 O28 1.988089 1_546
Mn6 O2 1.991263 1_555
Mn6 O40 2.279957 1_556
Mn6 O30 2.364214 1_455
Mn7 O44 1.938239 1_555
Mn7 O35 1.965792 1_555
Mn7 O29 1.988089 1_565
Mn7 O3 1.991263 1_555
Mn7 O41 2.279957 1_555
Mn7 O31 2.364214 1_555
Mn8 O17 1.921117 1_555
Mn8 O20 1.927515 1_555
Mn8 O9 1.964529 1_655
Mn8 O14 2.003235 1_555
Mn8 O0 2.007315 1_555
Mn8 O12 2.017719 1_655
Mn9 O16 1.921117 1_555
Mn9 O21 1.927515 1_555
Mn9 O8 1.964529 1_555
Mn9 O15 2.003235 1_554
Mn9 O1 2.007315 1_555
Mn9 O13 2.017719 1_555
Mn10 O19 1.921117 1_555
Mn10 O22 1.927515 1_555
Mn10 O11 1.964529 1_455
Mn10 O12 2.003235 1_555
Mn10 O2 2.007315 1_555
Mn10 O14 2.017719 1_455
Mn11 O18 1.921117 1_555
Mn11 O23 1.927515 1_555
Mn11 O10 1.964529 1_555
Mn11 O13 2.003235 1_556
Mn11 O3 2.007315 1_555
Mn11 O15 2.017719 1_555
Mn12 O36 1.939294 1_565
Mn12 O16 1.964854 1_555
Mn12 O40 1.977850 1_565
Mn12 O8 2.048434 1_555
Mn12 O4 2.128796 1_555
Mn12 O38 2.218271 1_554
Mn13 O37 1.939294 1_645
Mn13 O17 1.964854 1_555
Mn13 O41 1.977850 1_545
Mn13 O9 2.048434 1_655
Mn13 O5 2.128796 1_555
Mn13 O39 2.218271 1_555
Mn14 O38 1.939294 1_545
Mn14 O18 1.964854 1_555
Mn14 O42 1.977850 1_545
Mn14 O10 2.048434 1_555
Mn14 O6 2.128796 1_555
Mn14 O36 2.218271 1_556
Mn15 O39 1.939294 1_465
Mn15 O19 1.964854 1_555
Mn15 O43 1.977850 1_565
Mn15 O11 2.048434 1_455
Mn15 O7 2.128796 1_555
Mn15 O37 2.218271 1_555
Mn16 O26 1.924241 1_555
Mn16 O4 1.983183 1_555
Mn16 O33 1.983868 1_565
Mn16 O31 2.002469 1_555
Mn16 O44 2.142176 1_555
Mn16 O19 2.435842 1_555
Mn17 O27 1.924241 1_554
Mn17 O5 1.983183 1_555
Mn17 O32 1.983868 1_545
Mn17 O30 2.002469 1_554
Mn17 O45 2.142176 1_655
Mn17 O18 2.435842 1_554
Mn18 O24 1.924241 1_555
Mn18 O6 1.983183 1_555
Mn18 O35 1.983868 1_545
Mn18 O29 2.002469 1_555
Mn18 O46 2.142176 1_555
Mn18 O17 2.435842 1_555
Mn19 O25 1.924241 1_556
Mn19 O7 1.983183 1_555
Mn19 O34 1.983868 1_565
Mn19 O28 2.002469 1_556
Mn19 O47 2.142176 1_455
Mn19 O16 2.435842 1_556
Mn20 O41 1.896154 1_555
Mn20 O37 1.916276 1_655
Mn20 O20 1.935992 1_555
Mn20 O11 1.983647 1_555
Mn20 O32 2.011491 1_555
Mn20 O12 2.021598 1_655
Mn21 O40 1.896154 1_555
Mn21 O36 1.916276 1_555
Mn21 O21 1.935992 1_555
Mn21 O10 1.983647 1_554
Mn21 O33 2.011491 1_555
Mn21 O13 2.021598 1_555
Mn22 O43 1.896154 1_555
Mn22 O39 1.916276 1_455
Mn22 O22 1.935992 1_555
Mn22 O9 1.983647 1_555
Mn22 O34 2.011491 1_555
Mn22 O14 2.021598 1_455
Mn23 O42 1.896154 1_555
Mn23 O38 1.916276 1_555
Mn23 O23 1.935992 1_555
Mn23 O8 1.983647 1_556
Mn23 O35 2.011491 1_555
Mn23 O15 2.021598 1_555
