# generated using pymatgen
data_Ba2Sb4P2O17
_symmetry_space_group_name_H-M   'P 1'
_cell_length_a   7.31108000
_cell_length_b   9.68854500
_cell_length_c   21.31115900
_cell_angle_alpha   90.00000000
_cell_angle_beta   90.00000000
_cell_angle_gamma   90.00000000
_symmetry_Int_Tables_number   1
_chemical_formula_structural   Ba2Sb4P2O17
_chemical_formula_sum   'Ba8 Sb16 P8 O68'
_cell_volume   1509.54883099
_cell_formula_units_Z   4
loop_
 _symmetry_equiv_pos_site_id
 _symmetry_equiv_pos_as_xyz
  1  'x, y, z'
loop_
 _atom_site_type_symbol
 _atom_site_label
 _atom_site_symmetry_multiplicity
 _atom_site_fract_x
 _atom_site_fract_y
 _atom_site_fract_z
 _atom_site_occupancy
  Ba  Ba0  1  0.25000000  0.31076300  0.67471400  1
  Ba  Ba1  1  0.25000000  0.15153000  0.47029200  1
  Ba  Ba2  1  0.25000000  0.34847000  0.97029200  1
  Ba  Ba3  1  0.75000000  0.68923700  0.32528600  1
  Ba  Ba4  1  0.75000000  0.84847000  0.52970800  1
  Ba  Ba5  1  0.75000000  0.65153000  0.02970800  1
  Ba  Ba6  1  0.25000000  0.18923700  0.17471400  1
  Ba  Ba7  1  0.75000000  0.81076300  0.82528600  1
  Sb  Sb0  1  0.00137600  0.67095600  0.65864100  1
  Sb  Sb1  1  0.25000000  0.86801100  0.77658700  1
  Sb  Sb2  1  0.99862400  0.17095600  0.84135900  1
  Sb  Sb3  1  0.25000000  0.63198900  0.27658700  1
  Sb  Sb4  1  0.00000000  0.50000000  0.50000000  1
  Sb  Sb5  1  0.75000000  0.13198900  0.22341300  1
  Sb  Sb6  1  0.50137600  0.17095600  0.84135900  1
  Sb  Sb7  1  0.49862400  0.67095600  0.65864100  1
  Sb  Sb8  1  0.75000000  0.36801100  0.72341300  1
  Sb  Sb9  1  0.00000000  0.00000000  0.00000000  1
  Sb  Sb10  1  0.50000000  0.00000000  0.00000000  1
  Sb  Sb11  1  0.00137600  0.82904400  0.15864100  1
  Sb  Sb12  1  0.99862400  0.32904400  0.34135900  1
  Sb  Sb13  1  0.49862400  0.82904400  0.15864100  1
  Sb  Sb14  1  0.50137600  0.32904400  0.34135900  1
  Sb  Sb15  1  0.50000000  0.50000000  0.50000000  1
  P  P0  1  0.25000000  0.75322500  0.92642700  1
  P  P1  1  0.25000000  0.54887000  0.13003200  1
  P  P2  1  0.75000000  0.25322500  0.57357300  1
  P  P3  1  0.25000000  0.74677500  0.42642700  1
  P  P4  1  0.75000000  0.04887000  0.36996800  1
  P  P5  1  0.75000000  0.45113000  0.86996800  1
  P  P6  1  0.75000000  0.24677500  0.07357300  1
  P  P7  1  0.25000000  0.95113000  0.63003200  1
  O  O0  1  0.75000000  0.24021700  0.64687600  1
  O  O1  1  0.94837600  0.02024000  0.18664300  1
  O  O2  1  0.75000000  0.40388800  0.34703800  1
  O  O3  1  0.54618200  0.24861900  0.25623500  1
  O  O4  1  0.92757600  0.16507000  0.05472400  1
  O  O5  1  0.75000000  0.09611200  0.84703800  1
  O  O6  1  0.05162400  0.97976000  0.81335700  1
  O  O7  1  0.07457900  0.86224800  0.61795300  1
  O  O8  1  0.75000000  0.54759600  0.46911900  1
  O  O9  1  0.75000000  0.74980100  0.66585900  1
  O  O10  1  0.25000000  0.61207400  0.95565400  1
  O  O11  1  0.95381800  0.25138100  0.75623500  1
  O  O12  1  0.44837600  0.52024000  0.31335700  1
  O  O13  1  0.75000000  0.91832400  0.40900800  1
  O  O14  1  0.92757600  0.33493000  0.55472400  1
  O  O15  1  0.45212700  0.13098600  0.93125800  1
  O  O16  1  0.04618200  0.75138100  0.74376500  1
  O  O17  1  0.94837600  0.47976000  0.68664300  1
  O  O18  1  0.04787300  0.13098600  0.93125800  1
  O  O19  1  0.04618200  0.74861900  0.24376500  1
  O  O20  1  0.95212700  0.63098600  0.56874200  1
  O  O21  1  0.07457900  0.63775200  0.11795300  1
  O  O22  1  0.25000000  0.41832400  0.09099200  1
  O  O23  1  0.57457900  0.13775200  0.38204700  1
  O  O24  1  0.54618200  0.25138100  0.75623500  1
  O  O25  1  0.25000000  0.88792600  0.45565400  1
  O  O26  1  0.25000000  0.59611200  0.65296200  1
  O  O27  1  0.75000000  0.11207400  0.54434600  1
  O  O28  1  0.25000000  0.90388800  0.15296200  1
  O  O29  1  0.42757600  0.83493000  0.94527600  1
  O  O30  1  0.75000000  0.25978300  0.14687600  1
  O  O31  1  0.75000000  0.75019900  0.16585900  1
  O  O32  1  0.42757600  0.66507000  0.44527600  1
  O  O33  1  0.45381800  0.74861900  0.24376500  1
  O  O34  1  0.25000000  0.75978300  0.35312400  1
  O  O35  1  0.25000000  0.04759600  0.03088100  1
  O  O36  1  0.42542100  0.86224800  0.61795300  1
  O  O37  1  0.92542100  0.13775200  0.38204700  1
  O  O38  1  0.07242400  0.83493000  0.94527600  1
  O  O39  1  0.55162400  0.02024000  0.18664300  1
  O  O40  1  0.25000000  0.50170400  0.20077500  1
  O  O41  1  0.45381800  0.75138100  0.74376500  1
  O  O42  1  0.75000000  0.00170400  0.29922500  1
  O  O43  1  0.54787300  0.86901400  0.06874200  1
  O  O44  1  0.75000000  0.49829600  0.79922500  1
  O  O45  1  0.75000000  0.95240400  0.96911900  1
  O  O46  1  0.95212700  0.86901400  0.06874200  1
  O  O47  1  0.04787300  0.36901400  0.43125800  1
  O  O48  1  0.75000000  0.38792600  0.04434600  1
  O  O49  1  0.54787300  0.63098600  0.56874200  1
  O  O50  1  0.25000000  0.99829600  0.70077500  1
  O  O51  1  0.42542100  0.63775200  0.11795300  1
  O  O52  1  0.44837600  0.97976000  0.81335700  1
  O  O53  1  0.25000000  0.24980100  0.83414100  1
  O  O54  1  0.92542100  0.36224800  0.88204700  1
  O  O55  1  0.25000000  0.25019900  0.33414100  1
  O  O56  1  0.57242400  0.33493000  0.55472400  1
  O  O57  1  0.55162400  0.47976000  0.68664300  1
  O  O58  1  0.95381800  0.24861900  0.25623500  1
  O  O59  1  0.05162400  0.52024000  0.31335700  1
  O  O60  1  0.07242400  0.66507000  0.44527600  1
  O  O61  1  0.25000000  0.08167600  0.59099200  1
  O  O62  1  0.25000000  0.45240400  0.53088100  1
  O  O63  1  0.57242400  0.16507000  0.05472400  1
  O  O64  1  0.45212700  0.36901400  0.43125800  1
  O  O65  1  0.57457900  0.36224800  0.88204700  1
  O  O66  1  0.75000000  0.58167600  0.90900800  1
  O  O67  1  0.25000000  0.74021700  0.85312400  1
loop_
_geom_bond_atom_site_label_1
_geom_bond_atom_site_label_2
_geom_bond_distance
_geom_bond_site_symmetry_2
Ba0 O57 2.758331 1_555
Ba0 O17 2.758331 1_455
Ba0 O26 2.803211 1_555
Ba0 O24 2.835178 1_555
Ba0 O11 2.835178 1_455
Ba0 O61 2.847751 1_555
Ba0 O50 3.077874 1_545
Ba0 O62 3.358413 1_555
Ba0 O53 3.448530 1_555
Ba0 O56 3.485746 1_555
Ba0 O14 3.485746 1_455
Ba1 O25 2.572921 1_545
Ba1 O61 2.659801 1_555
Ba1 O47 2.704750 1_555
Ba1 O64 2.704750 1_555
Ba2 O10 2.572921 1_555
Ba2 O22 2.659801 1_556
Ba2 O18 2.704750 1_555
Ba2 O15 2.704750 1_555
Ba3 O59 2.758331 1_655
Ba3 O12 2.758331 1_555
Ba3 O2 2.803211 1_555
Ba3 O19 2.835178 1_655
Ba3 O33 2.835178 1_555
Ba3 O13 2.847751 1_555
Ba3 O42 3.077874 1_565
Ba3 O8 3.358413 1_555
Ba3 O31 3.448530 1_555
Ba3 O32 3.485746 1_555
Ba3 O60 3.485746 1_655
Ba4 O27 2.572921 1_565
Ba4 O13 2.659801 1_555
Ba4 O20 2.704750 1_555
Ba4 O49 2.704750 1_555
Ba5 O48 2.572921 1_555
Ba5 O66 2.659801 1_554
Ba5 O43 2.704750 1_555
Ba5 O46 2.704750 1_555
Ba6 O1 2.758331 1_455
Ba6 O39 2.758331 1_555
Ba6 O28 2.803211 1_545
Ba6 O58 2.835178 1_455
Ba6 O3 2.835178 1_555
Ba6 O22 2.847751 1_555
Ba6 O40 3.077874 1_555
Ba6 O35 3.358413 1_555
Ba6 O55 3.448530 1_555
Ba6 O63 3.485746 1_555
Ba6 O4 3.485746 1_455
Ba7 O6 2.758331 1_655
Ba7 O52 2.758331 1_555
Ba7 O5 2.803211 1_565
Ba7 O16 2.835178 1_655
Ba7 O41 2.835178 1_555
Ba7 O66 2.847751 1_555
Ba7 O44 3.077874 1_555
Ba7 O45 3.358413 1_555
Ba7 O9 3.448530 1_555
Ba7 O29 3.485746 1_555
Ba7 O38 3.485746 1_655
O0 P2 1.567247 1_555
O0 Sb8 2.047791 1_555
O1 Sb5 1.972244 1_555
O1 Sb11 1.984361 1_645
O2 Sb14 1.960747 1_555
O2 Sb12 1.960747 1_555
O3 Sb5 1.996646 1_555
O3 Sb14 2.001347 1_555
O4 P6 1.572738 1_555
O4 Sb9 2.048948 1_655
O5 Sb6 1.960747 1_555
O5 Sb2 1.960747 1_555
O6 Sb1 1.972244 1_555
O6 Sb2 1.984361 1_465
O7 P7 1.566101 1_555
O7 Sb0 2.114990 1_555
O8 Sb4 1.996622 1_655
O8 Sb15 1.996622 1_555
O9 Sb7 1.996200 1_555
O9 Sb0 1.996200 1_655
O10 P0 1.502712 1_555
O11 Sb8 1.996646 1_555
O11 Sb2 2.001347 1_555
O12 Sb3 1.972244 1_555
O12 Sb14 1.984361 1_555
O13 P4 1.513910 1_565
O14 P2 1.572738 1_555
O14 Sb4 2.048948 1_655
O15 Sb10 1.969560 1_556
O15 Sb6 1.987485 1_555
O16 Sb1 1.996646 1_555
O16 Sb0 2.001347 1_555
O17 Sb8 1.972244 1_555
O17 Sb0 1.984361 1_655
O18 Sb9 1.969560 1_556
O18 Sb2 1.987485 1_455
O19 Sb3 1.996646 1_555
O19 Sb11 2.001347 1_555
O20 Sb4 1.969560 1_655
O20 Sb0 1.987485 1_655
O21 P1 1.566101 1_555
O21 Sb11 2.114990 1_555
O22 P1 1.513910 1_555
O23 P4 1.566101 1_555
O23 Sb14 2.114990 1_555
O24 Sb8 1.996646 1_555
O24 Sb6 2.001347 1_555
O25 P3 1.502712 1_555
O26 Sb7 1.960747 1_555
O26 Sb0 1.960747 1_555
O27 P2 1.502712 1_555
O28 Sb11 1.960747 1_555
O28 Sb13 1.960747 1_555
O29 P0 1.572738 1_555
O29 Sb10 2.048948 1_566
O30 P6 1.567247 1_555
O30 Sb5 2.047791 1_555
O31 Sb13 1.996200 1_555
O31 Sb11 1.996200 1_655
O32 P3 1.572738 1_555
O32 Sb15 2.048948 1_555
O33 Sb3 1.996646 1_555
O33 Sb13 2.001347 1_555
O34 P3 1.567247 1_555
O34 Sb3 2.047791 1_555
O35 Sb10 1.996622 1_555
O35 Sb9 1.996622 1_555
O36 P7 1.566101 1_555
O36 Sb7 2.114990 1_555
O37 P4 1.566101 1_555
O37 Sb12 2.114990 1_555
O38 P0 1.572738 1_555
O38 Sb9 2.048948 1_566
O39 Sb5 1.972244 1_555
O39 Sb13 1.984361 1_545
O40 P1 1.575349 1_555
O40 Sb3 2.050275 1_555
O41 Sb1 1.996646 1_555
O41 Sb7 2.001347 1_555
O42 P4 1.575349 1_555
O42 Sb5 2.050275 1_555
O43 Sb10 1.969560 1_565
O43 Sb13 1.987485 1_555
O44 P5 1.575349 1_555
O44 Sb8 2.050275 1_555
O45 Sb9 1.996622 1_666
O45 Sb10 1.996622 1_566
O46 Sb9 1.969560 1_665
O46 Sb11 1.987485 1_655
O47 Sb4 1.969560 1_555
O47 Sb12 1.987485 1_455
O48 P6 1.502712 1_555
O49 Sb15 1.969560 1_555
O49 Sb7 1.987485 1_555
O50 P7 1.575349 1_555
O50 Sb1 2.050275 1_555
O51 P1 1.566101 1_555
O51 Sb13 2.114990 1_555
O52 Sb1 1.972244 1_555
O52 Sb6 1.984361 1_565
O53 Sb6 1.996200 1_555
O53 Sb2 1.996200 1_455
O54 P5 1.566101 1_555
O54 Sb2 2.114990 1_555
O55 Sb14 1.996200 1_555
O55 Sb12 1.996200 1_455
O56 P2 1.572738 1_555
O56 Sb15 2.048948 1_555
O57 Sb8 1.972244 1_555
O57 Sb7 1.984361 1_555
O58 Sb5 1.996646 1_555
O58 Sb12 2.001347 1_555
O59 Sb3 1.972244 1_555
O59 Sb12 1.984361 1_455
O60 P3 1.572738 1_555
O60 Sb4 2.048948 1_555
O61 P7 1.513910 1_545
O62 Sb15 1.996622 1_555
O62 Sb4 1.996622 1_555
O63 P6 1.572738 1_555
O63 Sb10 2.048948 1_555
O64 Sb15 1.969560 1_555
O64 Sb14 1.987485 1_555
O65 P5 1.566101 1_555
O65 Sb6 2.114990 1_555
O66 P5 1.513910 1_555
O67 P0 1.567247 1_555
O67 Sb1 2.047791 1_555
