# generated using pymatgen
data_Ba2SnTe5
_symmetry_space_group_name_H-M   'P 1'
_cell_length_a   6.97145174
_cell_length_b   7.07257850
_cell_length_c   24.61827866
_cell_angle_alpha   90.00000000
_cell_angle_beta   90.00000000
_cell_angle_gamma   90.00000000
_symmetry_Int_Tables_number   1
_chemical_formula_structural   Ba2SnTe5
_chemical_formula_sum   'Ba8 Sn4 Te20'
_cell_volume   1213.83228654
_cell_formula_units_Z   4
loop_
 _symmetry_equiv_pos_site_id
 _symmetry_equiv_pos_as_xyz
  1  'x, y, z'
loop_
 _atom_site_type_symbol
 _atom_site_label
 _atom_site_symmetry_multiplicity
 _atom_site_fract_x
 _atom_site_fract_y
 _atom_site_fract_z
 _atom_site_occupancy
  Ba  Ba0  1  0.99400695  0.99001227  0.90076268  1
  Ba  Ba1  1  0.99400695  0.99001227  0.59923732  1
  Ba  Ba2  1  0.00599305  0.00998773  0.40076268  1
  Ba  Ba3  1  0.49400695  0.50998773  0.90076268  1
  Ba  Ba4  1  0.49400695  0.50998773  0.59923732  1
  Ba  Ba5  1  0.50599305  0.49001227  0.40076268  1
  Ba  Ba6  1  0.50599305  0.49001227  0.09923732  1
  Ba  Ba7  1  0.00599305  0.00998773  0.09923732  1
  Sn  Sn0  1  0.89875916  0.41284079  0.25000000  1
  Sn  Sn1  1  0.60124084  0.91284079  0.75000000  1
  Sn  Sn2  1  0.39875916  0.08715921  0.25000000  1
  Sn  Sn3  1  0.10124084  0.58715921  0.75000000  1
  Te  Te0  1  0.50515360  0.52453939  0.75000000  1
  Te  Te1  1  0.99484640  0.02453939  0.25000000  1
  Te  Te2  1  0.99258179  0.48326662  0.85345463  1
  Te  Te3  1  0.35773228  0.14136539  0.99717164  1
  Te  Te4  1  0.49258179  0.01673338  0.64654537  1
  Te  Te5  1  0.85773228  0.35863461  0.99717164  1
  Te  Te6  1  0.00741821  0.51673338  0.35345463  1
  Te  Te7  1  0.00515360  0.97546061  0.75000000  1
  Te  Te8  1  0.49258179  0.01673338  0.85345463  1
  Te  Te9  1  0.64226772  0.85863461  0.00282836  1
  Te  Te10  1  0.14226772  0.64136539  0.49717164  1
  Te  Te11  1  0.50741821  0.98326662  0.14654537  1
  Te  Te12  1  0.64226772  0.85863461  0.49717164  1
  Te  Te13  1  0.00741821  0.51673338  0.14654537  1
  Te  Te14  1  0.35773228  0.14136539  0.50282836  1
  Te  Te15  1  0.49484640  0.47546061  0.25000000  1
  Te  Te16  1  0.50741821  0.98326662  0.35345463  1
  Te  Te17  1  0.85773228  0.35863461  0.50282836  1
  Te  Te18  1  0.99258179  0.48326662  0.64654537  1
  Te  Te19  1  0.14226772  0.64136539  0.00282836  1
loop_
_geom_bond_atom_site_label_1
_geom_bond_atom_site_label_2
_geom_bond_distance
_geom_bond_site_symmetry_2
Ba0 Te9 3.631790 1_556
Ba0 Te3 3.634385 1_665
Ba0 Te5 3.651400 1_565
Ba0 Te19 3.669089 1_656
Ba0 Te8 3.670590 1_665
Ba0 Te2 3.677864 1_565
Ba0 Te8 3.689411 1_565
Ba0 Te7 3.713757 1_655
Ba0 Te2 3.768493 1_555
Ba1 Te12 3.631790 1_555
Ba1 Te14 3.634385 1_665
Ba1 Te17 3.651400 1_565
Ba1 Te10 3.669089 1_655
Ba1 Te4 3.670590 1_665
Ba1 Te18 3.677864 1_565
Ba1 Te4 3.689411 1_565
Ba1 Te7 3.713757 1_655
Ba1 Te18 3.768493 1_555
Ba2 Te14 3.631790 1_555
Ba2 Te12 3.634385 1_445
Ba2 Te10 3.651400 1_545
Ba2 Te17 3.669089 1_455
Ba2 Te16 3.670590 1_445
Ba2 Te6 3.677864 1_545
Ba2 Te16 3.689411 1_545
Ba2 Te1 3.713757 1_455
Ba2 Te6 3.768493 1_555
Ba3 Te19 3.631790 1_556
Ba3 Te5 3.634385 1_555
Ba3 Te3 3.651400 1_555
Ba3 Te9 3.669089 1_556
Ba3 Te2 3.670590 1_555
Ba3 Te8 3.677864 1_555
Ba3 Te2 3.689411 1_455
Ba3 Te0 3.713757 1_555
Ba3 Te8 3.768493 1_565
Ba4 Te10 3.631790 1_555
Ba4 Te17 3.634385 1_555
Ba4 Te14 3.651400 1_555
Ba4 Te12 3.669089 1_555
Ba4 Te18 3.670590 1_555
Ba4 Te4 3.677864 1_555
Ba4 Te18 3.689411 1_455
Ba4 Te0 3.713757 1_555
Ba4 Te4 3.768493 1_565
Ba5 Te17 3.631790 1_555
Ba5 Te10 3.634385 1_555
Ba5 Te12 3.651400 1_555
Ba5 Te14 3.669089 1_555
Ba5 Te6 3.670590 1_555
Ba5 Te16 3.677864 1_555
Ba5 Te6 3.689411 1_655
Ba5 Te15 3.713757 1_555
Ba5 Te16 3.768493 1_545
Ba6 Te5 3.631790 1_554
Ba6 Te19 3.634385 1_555
Ba6 Te9 3.651400 1_555
Ba6 Te3 3.669089 1_554
Ba6 Te13 3.670590 1_555
Ba6 Te11 3.677864 1_555
Ba6 Te13 3.689411 1_655
Ba6 Te15 3.713757 1_555
Ba6 Te11 3.768493 1_545
Ba7 Te3 3.631790 1_554
Ba7 Te9 3.634385 1_445
Ba7 Te19 3.651400 1_545
Ba7 Te5 3.669089 1_454
Ba7 Te11 3.670590 1_445
Ba7 Te13 3.677864 1_545
Ba7 Te11 3.689411 1_545
Ba7 Te1 3.713757 1_455
Ba7 Te13 3.768493 1_555
Sn0 Te6 2.756866 1_655
Sn0 Te13 2.756866 1_655
Sn0 Te1 2.826808 1_555
Sn0 Te15 2.850474 1_555
Sn1 Te4 2.756866 1_565
Sn1 Te8 2.756866 1_565
Sn1 Te0 2.826808 1_555
Sn1 Te7 2.850474 1_655
Sn2 Te16 2.756866 1_545
Sn2 Te11 2.756866 1_545
Sn2 Te15 2.826808 1_555
Sn2 Te1 2.850474 1_455
Sn3 Te2 2.756866 1_455
Sn3 Te18 2.756866 1_455
Sn3 Te7 2.826808 1_555
Sn3 Te0 2.850474 1_555
Te3 Te9 2.820054 1_546
Te10 Te17 2.820054 1_455
Te12 Te14 2.820054 1_565
Te19 Te5 2.820054 1_454
