# generated using pymatgen
data_Cs2KCoF6
_symmetry_space_group_name_H-M   'P 1'
_cell_length_a   6.39044077
_cell_length_b   6.39044077
_cell_length_c   6.39044077
_cell_angle_alpha   60.00000000
_cell_angle_beta   60.00000000
_cell_angle_gamma   60.00000000
_symmetry_Int_Tables_number   1
_chemical_formula_structural   Cs2KCoF6
_chemical_formula_sum   'Cs2 K1 Co1 F6'
_cell_volume   184.53444501
_cell_formula_units_Z   1
loop_
 _symmetry_equiv_pos_site_id
 _symmetry_equiv_pos_as_xyz
  1  'x, y, z'
loop_
 _atom_site_type_symbol
 _atom_site_label
 _atom_site_symmetry_multiplicity
 _atom_site_fract_x
 _atom_site_fract_y
 _atom_site_fract_z
 _atom_site_occupancy
  Cs  Cs0  1  0.75000000  0.75000000  0.75000000  1
  Cs  Cs1  1  0.25000000  0.25000000  0.25000000  1
  K  K0  1  0.50000000  0.50000000  0.50000000  1
  Co  Co0  1  0.00000000  0.00000000  0.00000000  1
  F  F0  1  0.79100500  0.20899500  0.79100500  1
  F  F1  1  0.79100500  0.20899500  0.20899500  1
  F  F2  1  0.79100500  0.79100500  0.20899500  1
  F  F3  1  0.20899500  0.79100500  0.79100500  1
  F  F4  1  0.20899500  0.20899500  0.79100500  1
  F  F5  1  0.20899500  0.79100500  0.20899500  1
loop_
_geom_bond_atom_site_label_1
_geom_bond_atom_site_label_2
_geom_bond_distance
_geom_bond_site_symmetry_2
Cs0 F2 3.216639 1_555
Cs0 F4 3.216639 1_565
Cs0 F5 3.216639 1_655
Cs0 F2 3.216639 1_556
Cs0 F4 3.216639 1_655
Cs0 F5 3.216639 1_556
Cs0 F3 3.216639 1_555
Cs0 F3 3.216639 1_655
Cs0 F1 3.216639 1_565
Cs0 F0 3.216639 1_555
Cs0 F1 3.216639 1_556
Cs0 F0 3.216639 1_565
Cs1 F1 3.216639 1_555
Cs1 F4 3.216639 1_555
Cs1 F5 3.216639 1_555
Cs1 F0 3.216639 1_455
Cs1 F3 3.216639 1_545
Cs1 F2 3.216639 1_455
Cs1 F3 3.216639 1_554
Cs1 F2 3.216639 1_545
Cs1 F0 3.216639 1_554
Cs1 F4 3.216639 1_554
Cs1 F5 3.216639 1_545
Cs1 F1 3.216639 1_455
Co0 F4 1.888781 1_554
Co0 F5 1.888781 1_545
Co0 F1 1.888781 1_455
Co0 F3 1.888781 1_544
Co0 F2 1.888781 1_445
Co0 F0 1.888781 1_454
F0 K0 2.629943 1_555
F1 K0 2.629943 1_555
F2 K0 2.629943 1_555
F3 K0 2.629943 1_555
F4 K0 2.629943 1_555
F5 K0 2.629943 1_555
