# generated using pymatgen
data_Sr2C(NCl)2
_symmetry_space_group_name_H-M   'P 1'
_cell_length_a   5.31327797
_cell_length_b   5.31327797
_cell_length_c   7.34312223
_cell_angle_alpha   82.85778695
_cell_angle_beta   82.85778695
_cell_angle_gamma   47.77110731
_symmetry_Int_Tables_number   1
_chemical_formula_structural   Sr2C(NCl)2
_chemical_formula_sum   'Sr2 C1 N2 Cl2'
_cell_volume   152.07511882
_cell_formula_units_Z   1
loop_
 _symmetry_equiv_pos_site_id
 _symmetry_equiv_pos_as_xyz
  1  'x, y, z'
loop_
 _atom_site_type_symbol
 _atom_site_label
 _atom_site_symmetry_multiplicity
 _atom_site_fract_x
 _atom_site_fract_y
 _atom_site_fract_z
 _atom_site_occupancy
  Sr  Sr0  1  0.31735000  0.31735000  0.27195500  1
  Sr  Sr1  1  0.68265000  0.68265000  0.72804500  1
  C  C0  1  0.00000000  0.00000000  0.50000000  1
  N  N0  1  0.88462300  0.88462300  0.44589600  1
  N  N1  1  0.11537700  0.11537700  0.55410400  1
  Cl  Cl0  1  0.62997800  0.62997800  0.14754500  1
  Cl  Cl1  1  0.37002200  0.37002200  0.85245500  1
loop_
_geom_bond_atom_site_label_1
_geom_bond_atom_site_label_2
_geom_bond_distance
_geom_bond_site_symmetry_2
C0 N0 1.239247 1_445
C0 N1 1.239247 1_555
N0 Sr0 2.629502 1_655
N0 Sr0 2.629502 1_565
N0 Sr1 2.652938 1_555
N1 Sr1 2.629502 1_455
N1 Sr1 2.629502 1_545
N1 Sr0 2.652938 1_555
Cl0 Sr0 3.038093 1_655
Cl0 Sr0 3.038093 1_565
Cl0 Sr0 3.050758 1_555
Cl0 Sr1 3.053242 1_554
Cl1 Sr1 3.038093 1_455
Cl1 Sr1 3.038093 1_545
Cl1 Sr1 3.050758 1_555
Cl1 Sr0 3.053242 1_556
