# generated using pymatgen
data_La2Ni2O5
_symmetry_space_group_name_H-M   'P 1'
_cell_length_a   7.89763200
_cell_length_b   7.52484400
_cell_length_c   10.43606885
_cell_angle_alpha   49.01667985
_cell_angle_beta   90.00000000
_cell_angle_gamma   90.00000000
_symmetry_Int_Tables_number   1
_chemical_formula_structural   La2Ni2O5
_chemical_formula_sum   'La8 Ni8 O20'
_cell_volume   468.18884852
_cell_formula_units_Z   4
loop_
 _symmetry_equiv_pos_site_id
 _symmetry_equiv_pos_as_xyz
  1  'x, y, z'
loop_
 _atom_site_type_symbol
 _atom_site_label
 _atom_site_symmetry_multiplicity
 _atom_site_fract_x
 _atom_site_fract_y
 _atom_site_fract_z
 _atom_site_occupancy
  La  La0  1  0.23715900  0.99677100  0.24572100  1
  La  La1  1  0.26284100  0.99677100  0.74572100  1
  La  La2  1  0.76284100  0.00322900  0.75427900  1
  La  La3  1  0.73715900  0.00322900  0.25427900  1
  La  La4  1  0.76709800  0.50526000  0.24826600  1
  La  La5  1  0.73290200  0.50526000  0.74826600  1
  La  La6  1  0.23290200  0.49474000  0.75173400  1
  La  La7  1  0.26709800  0.49474000  0.25173400  1
  Ni  Ni0  1  0.50000000  0.00000000  0.50000000  1
  Ni  Ni1  1  0.00000000  0.00000000  0.00000000  1
  Ni  Ni2  1  0.50000000  0.50000000  0.50000000  1
  Ni  Ni3  1  0.00000000  0.50000000  0.00000000  1
  Ni  Ni4  1  0.50000000  0.00000000  0.00000000  1
  Ni  Ni5  1  0.00000000  0.00000000  0.50000000  1
  Ni  Ni6  1  0.50000000  0.50000000  0.00000000  1
  Ni  Ni7  1  0.00000000  0.50000000  0.50000000  1
  O  O0  1  0.54037200  0.26545400  0.26978000  1
  O  O1  1  0.95962800  0.26545400  0.76978000  1
  O  O2  1  0.45962800  0.73454600  0.73022000  1
  O  O3  1  0.04037200  0.73454600  0.23022000  1
  O  O4  1  0.26816000  0.07898700  0.46774400  1
  O  O5  1  0.23184000  0.07898700  0.96774400  1
  O  O6  1  0.73184000  0.92101300  0.53225600  1
  O  O7  1  0.76816000  0.92101300  0.03225600  1
  O  O8  1  0.56573300  0.24482600  0.00629900  1
  O  O9  1  0.93426700  0.24482600  0.50629900  1
  O  O10  1  0.43426700  0.75517400  0.99370100  1
  O  O11  1  0.06573300  0.75517400  0.49370100  1
  O  O12  1  0.23236300  0.41619600  0.03396600  1
  O  O13  1  0.26763700  0.41619600  0.53396600  1
  O  O14  1  0.76763700  0.58380400  0.96603400  1
  O  O15  1  0.73236300  0.58380400  0.46603400  1
  O  O16  1  0.46113600  0.75363400  0.26734200  1
  O  O17  1  0.03886400  0.75363400  0.76734200  1
  O  O18  1  0.53886400  0.24636600  0.73265800  1
  O  O19  1  0.96113600  0.24636600  0.23265800  1
loop_
_geom_bond_atom_site_label_1
_geom_bond_atom_site_label_2
_geom_bond_distance
_geom_bond_site_symmetry_2
La0 O11 2.379957 1_555
La0 O12 2.386957 1_565
La0 O16 2.446571 1_555
La0 O5 2.538922 1_564
La0 O3 2.598803 1_555
La0 O4 2.773382 1_565
La0 O19 2.821759 1_465
La1 O10 2.379957 1_555
La1 O13 2.386957 1_565
La1 O17 2.446571 1_555
La1 O4 2.538922 1_565
La1 O2 2.598803 1_555
La1 O5 2.773382 1_565
La1 O18 2.821759 1_565
La2 O9 2.379957 1_555
La2 O14 2.386957 1_545
La2 O18 2.446571 1_555
La2 O7 2.538922 1_546
La2 O1 2.598803 1_555
La2 O6 2.773382 1_545
La2 O17 2.821759 1_645
La3 O8 2.379957 1_555
La3 O15 2.386957 1_545
La3 O19 2.446571 1_555
La3 O6 2.538922 1_545
La3 O0 2.598803 1_555
La3 O7 2.773382 1_545
La3 O16 2.821759 1_545
La4 O7 2.370371 1_555
La4 O9 2.431655 1_555
La4 O0 2.445702 1_555
La4 O19 2.566393 1_555
La4 O14 2.596397 1_554
La4 O3 2.691462 1_655
La4 O15 2.711332 1_555
La4 O16 3.140002 1_555
La5 O6 2.370371 1_555
La5 O8 2.431655 1_556
La5 O1 2.445702 1_555
La5 O18 2.566393 1_555
La5 O15 2.596397 1_555
La5 O2 2.691462 1_555
La5 O14 2.711332 1_555
La5 O17 3.140002 1_655
La6 O5 2.370371 1_555
La6 O11 2.431655 1_555
La6 O2 2.445702 1_555
La6 O17 2.566393 1_555
La6 O12 2.596397 1_556
La6 O1 2.691462 1_455
La6 O13 2.711332 1_555
La6 O18 3.140002 1_555
La7 O4 2.370371 1_555
La7 O10 2.431655 1_554
La7 O3 2.445702 1_555
La7 O16 2.566393 1_555
La7 O13 2.596397 1_555
La7 O0 2.691462 1_555
La7 O12 2.711332 1_555
La7 O19 3.140002 1_455
Ni0 O4 1.885911 1_555
Ni0 O6 1.885911 1_545
Ni0 O0 1.889216 1_555
Ni0 O2 1.889216 1_545
Ni1 O7 1.885911 1_445
Ni1 O5 1.885911 1_554
Ni1 O1 1.889216 1_454
Ni1 O3 1.889216 1_545
Ni2 O18 1.885146 1_555
Ni2 O16 1.885146 1_555
Ni2 O15 1.896780 1_555
Ni2 O13 1.896780 1_555
Ni3 O19 1.885146 1_455
Ni3 O17 1.885146 1_554
Ni3 O14 1.896780 1_454
Ni3 O12 1.896780 1_555
Ni4 O8 1.956185 1_555
Ni4 O10 1.956185 1_544
Ni4 O16 2.128556 1_545
Ni4 O18 2.128556 1_554
Ni4 O5 2.165490 1_554
Ni4 O7 2.165490 1_545
Ni5 O9 1.956185 1_455
Ni5 O11 1.956185 1_545
Ni5 O17 2.128556 1_545
Ni5 O19 2.128556 1_455
Ni5 O6 2.165490 1_445
Ni5 O4 2.165490 1_555
Ni6 O8 1.948130 1_555
Ni6 O10 1.948130 1_554
Ni6 O2 2.150709 1_554
Ni6 O0 2.150709 1_555
Ni6 O14 2.167450 1_554
Ni6 O12 2.167450 1_555
Ni7 O11 1.948130 1_555
Ni7 O9 1.948130 1_455
Ni7 O3 2.150709 1_555
Ni7 O1 2.150709 1_455
Ni7 O15 2.167450 1_455
Ni7 O13 2.167450 1_555
