# generated using pymatgen
data_NbRh
_symmetry_space_group_name_H-M   'P 1'
_cell_length_a   5.69565398
_cell_length_b   9.77844726
_cell_length_c   14.10252165
_cell_angle_alpha   75.94853778
_cell_angle_beta   90.00000000
_cell_angle_gamma   90.00000000
_symmetry_Int_Tables_number   1
_chemical_formula_structural   NbRh
_chemical_formula_sum   'Nb24 Rh24'
_cell_volume   761.93328408
_cell_formula_units_Z   24
loop_
 _symmetry_equiv_pos_site_id
 _symmetry_equiv_pos_as_xyz
  1  'x, y, z'
loop_
 _atom_site_type_symbol
 _atom_site_label
 _atom_site_symmetry_multiplicity
 _atom_site_fract_x
 _atom_site_fract_y
 _atom_site_fract_z
 _atom_site_occupancy
  Nb  Nb0_0  1  0.00000000  0.12773844  0.16741260  1
  Nb  Nb0_1  1  0.00000000  0.12773844  0.66741260  1
  Nb  Nb0_2  1  0.00000000  0.62773844  0.16741260  1
  Nb  Nb0_3  1  0.00000000  0.62773844  0.66741260  1
  Nb  Nb0_4  1  0.50000000  0.12773844  0.16741260  1
  Nb  Nb0_5  1  0.50000000  0.12773844  0.66741260  1
  Nb  Nb0_6  1  0.50000000  0.62773844  0.16741260  1
  Nb  Nb0_7  1  0.50000000  0.62773844  0.66741260  1
  Nb  Nb1_0  1  0.00000000  0.00000000  0.00000000  1
  Nb  Nb1_1  1  0.00000000  0.00000000  0.50000000  1
  Nb  Nb1_2  1  0.00000000  0.50000000  0.00000000  1
  Nb  Nb1_3  1  0.00000000  0.50000000  0.50000000  1
  Nb  Nb1_4  1  0.50000000  0.00000000  0.00000000  1
  Nb  Nb1_5  1  0.50000000  0.00000000  0.50000000  1
  Nb  Nb1_6  1  0.50000000  0.50000000  0.00000000  1
  Nb  Nb1_7  1  0.50000000  0.50000000  0.50000000  1
  Nb  Nb2_0  1  0.00000000  0.37226156  0.33258740  1
  Nb  Nb2_1  1  0.00000000  0.37226156  0.83258740  1
  Nb  Nb2_2  1  0.00000000  0.87226156  0.33258740  1
  Nb  Nb2_3  1  0.00000000  0.87226155  0.83258740  1
  Nb  Nb2_4  1  0.50000000  0.37226156  0.33258740  1
  Nb  Nb2_5  1  0.50000000  0.37226156  0.83258740  1
  Nb  Nb2_6  1  0.50000000  0.87226156  0.33258740  1
  Nb  Nb2_7  1  0.50000000  0.87226155  0.83258740  1
  Rh  Rh0_0  1  0.25000000  0.25000000  0.00000000  1
  Rh  Rh0_1  1  0.25000000  0.25000000  0.50000000  1
  Rh  Rh0_2  1  0.25000000  0.75000000  0.00000000  1
  Rh  Rh0_3  1  0.25000000  0.75000000  0.50000000  1
  Rh  Rh0_4  1  0.75000000  0.25000000  0.00000000  1
  Rh  Rh0_5  1  0.75000000  0.25000000  0.50000000  1
  Rh  Rh0_6  1  0.75000000  0.75000000  0.00000000  1
  Rh  Rh0_7  1  0.75000000  0.75000000  0.50000000  1
  Rh  Rh1_0  1  0.25000000  0.37186798  0.16624691  1
  Rh  Rh1_1  1  0.25000000  0.37186797  0.66624691  1
  Rh  Rh1_2  1  0.25000000  0.87186798  0.16624691  1
  Rh  Rh1_3  1  0.25000000  0.87186797  0.66624690  1
  Rh  Rh1_4  1  0.75000000  0.37186798  0.16624691  1
  Rh  Rh1_5  1  0.75000000  0.37186797  0.66624691  1
  Rh  Rh1_6  1  0.75000000  0.87186798  0.16624691  1
  Rh  Rh1_7  1  0.75000000  0.87186797  0.66624690  1
  Rh  Rh2_0  1  0.25000000  0.12813203  0.33375309  1
  Rh  Rh2_1  1  0.25000000  0.12813203  0.83375310  1
  Rh  Rh2_2  1  0.25000000  0.62813202  0.33375309  1
  Rh  Rh2_3  1  0.25000000  0.62813202  0.83375309  1
  Rh  Rh2_4  1  0.75000000  0.12813203  0.33375309  1
  Rh  Rh2_5  1  0.75000000  0.12813203  0.83375310  1
  Rh  Rh2_6  1  0.75000000  0.62813202  0.33375309  1
  Rh  Rh2_7  1  0.75000000  0.62813202  0.83375309  1
loop_
_geom_bond_atom_site_label_1
_geom_bond_atom_site_label_2
_geom_bond_distance
_geom_bond_site_symmetry_2
Nb0_0 Rh2_0 2.744959 1_555
Nb0_0 Rh2_4 2.744959 1_455
Nb0_0 Rh0_0 2.767716 1_555
Nb0_0 Rh0_4 2.767716 1_455
Nb0_0 Rh1_4 2.776239 1_455
Nb0_0 Rh1_0 2.776239 1_555
Nb0_0 Nb0_4 2.847827 1_555
Nb0_0 Nb0_4 2.847827 1_455
Nb0_0 Rh1_2 2.882335 1_545
Nb0_0 Rh1_6 2.882335 1_445
Nb0_0 Nb1_0 2.926815 1_555
Nb0_0 Nb2_2 2.973405 1_545
Nb0_1 Rh2_1 2.744959 1_555
Nb0_1 Rh2_5 2.744959 1_455
Nb0_1 Rh0_1 2.767716 1_555
Nb0_1 Rh0_5 2.767716 1_455
Nb0_1 Rh1_1 2.776239 1_555
Nb0_1 Rh1_5 2.776239 1_455
Nb0_1 Nb0_5 2.847827 1_555
Nb0_1 Nb0_5 2.847827 1_455
Nb0_1 Rh1_3 2.882335 1_545
Nb0_1 Rh1_7 2.882335 1_445
Nb0_1 Nb1_1 2.926815 1_555
Nb0_1 Nb2_3 2.973405 1_545
Nb0_2 Rh2_2 2.744959 1_555
Nb0_2 Rh2_6 2.744959 1_455
Nb0_2 Rh0_6 2.767716 1_455
Nb0_2 Rh0_2 2.767716 1_555
Nb0_2 Rh1_2 2.776239 1_555
Nb0_2 Rh1_6 2.776239 1_455
Nb0_2 Nb0_6 2.847827 1_555
Nb0_2 Nb0_6 2.847827 1_455
Nb0_2 Rh1_0 2.882335 1_555
Nb0_2 Rh1_4 2.882335 1_455
Nb0_2 Nb1_2 2.926815 1_555
Nb0_2 Nb2_0 2.973405 1_555
Nb0_3 Rh2_3 2.744959 1_555
Nb0_3 Rh2_7 2.744959 1_455
Nb0_3 Rh0_3 2.767716 1_555
Nb0_3 Rh0_7 2.767716 1_455
Nb0_3 Rh1_3 2.776239 1_555
Nb0_3 Rh1_7 2.776239 1_455
Nb0_3 Nb0_7 2.847827 1_555
Nb0_3 Nb0_7 2.847827 1_455
Nb0_3 Rh1_1 2.882335 1_555
Nb0_3 Rh1_5 2.882335 1_455
Nb0_3 Nb1_3 2.926815 1_555
Nb0_3 Nb2_1 2.973405 1_555
Nb0_4 Rh2_0 2.744959 1_555
Nb0_4 Rh2_4 2.744959 1_555
Nb0_4 Rh0_0 2.767716 1_555
Nb0_4 Rh0_4 2.767716 1_555
Nb0_4 Rh1_4 2.776239 1_555
Nb0_4 Rh1_0 2.776239 1_555
Nb0_4 Rh1_6 2.882335 1_545
Nb0_4 Rh1_2 2.882335 1_545
Nb0_4 Nb1_4 2.926815 1_555
Nb0_4 Nb2_6 2.973405 1_545
Nb0_5 Rh2_1 2.744959 1_555
Nb0_5 Rh2_5 2.744959 1_555
Nb0_5 Rh0_1 2.767716 1_555
Nb0_5 Rh0_5 2.767716 1_555
Nb0_5 Rh1_1 2.776239 1_555
Nb0_5 Rh1_5 2.776239 1_555
Nb0_5 Rh1_3 2.882335 1_545
Nb0_5 Rh1_7 2.882335 1_545
Nb0_5 Nb1_5 2.926815 1_555
Nb0_5 Nb2_7 2.973405 1_545
Nb0_6 Rh2_2 2.744959 1_555
Nb0_6 Rh2_6 2.744959 1_555
Nb0_6 Rh0_2 2.767716 1_555
Nb0_6 Rh0_6 2.767716 1_555
Nb0_6 Rh1_6 2.776239 1_555
Nb0_6 Rh1_2 2.776239 1_555
Nb0_6 Rh1_0 2.882335 1_555
Nb0_6 Rh1_4 2.882335 1_555
Nb0_6 Nb1_6 2.926815 1_555
Nb0_6 Nb2_4 2.973405 1_555
Nb0_7 Rh2_3 2.744959 1_555
Nb0_7 Rh2_7 2.744959 1_555
Nb0_7 Rh0_3 2.767716 1_555
Nb0_7 Rh0_7 2.767716 1_555
Nb0_7 Rh1_3 2.776239 1_555
Nb0_7 Rh1_7 2.776239 1_555
Nb0_7 Rh1_5 2.882335 1_555
Nb0_7 Rh1_1 2.882335 1_555
Nb0_7 Nb1_7 2.926815 1_555
Nb0_7 Nb2_5 2.973405 1_555
Nb1_0 Rh2_1 2.769051 1_554
Nb1_0 Rh1_2 2.769051 1_545
Nb1_0 Rh2_5 2.769051 1_454
Nb1_0 Rh1_6 2.769051 1_445
Nb1_0 Rh0_4 2.829073 1_455
Nb1_0 Rh0_2 2.829073 1_545
Nb1_0 Rh0_0 2.829073 1_555
Nb1_0 Rh0_6 2.829073 1_445
Nb1_0 Nb1_4 2.847827 1_555
Nb1_0 Nb1_4 2.847827 1_455
Nb1_0 Nb2_3 2.926815 1_544
Nb1_1 Rh1_3 2.769051 1_545
Nb1_1 Rh1_7 2.769051 1_445
Nb1_1 Rh2_0 2.769051 1_555
Nb1_1 Rh2_4 2.769051 1_455
Nb1_1 Rh0_1 2.829073 1_555
Nb1_1 Rh0_3 2.829073 1_545
Nb1_1 Rh0_7 2.829073 1_445
Nb1_1 Rh0_5 2.829073 1_455
Nb1_1 Nb1_5 2.847827 1_555
Nb1_1 Nb1_5 2.847827 1_455
Nb1_1 Nb2_2 2.926815 1_545
Nb1_2 Rh1_0 2.769051 1_555
Nb1_2 Rh1_4 2.769051 1_455
Nb1_2 Rh2_3 2.769051 1_554
Nb1_2 Rh2_7 2.769051 1_454
Nb1_2 Rh0_4 2.829073 1_455
Nb1_2 Rh0_0 2.829073 1_555
Nb1_2 Rh0_2 2.829073 1_555
Nb1_2 Rh0_6 2.829073 1_455
Nb1_2 Nb1_6 2.847827 1_555
Nb1_2 Nb1_6 2.847827 1_455
Nb1_2 Nb2_1 2.926815 1_554
Nb1_3 Rh2_6 2.769051 1_455
Nb1_3 Rh1_1 2.769051 1_555
Nb1_3 Rh2_2 2.769051 1_555
Nb1_3 Rh1_5 2.769051 1_455
Nb1_3 Rh0_1 2.829073 1_555
Nb1_3 Rh0_5 2.829073 1_455
Nb1_3 Rh0_3 2.829073 1_555
Nb1_3 Rh0_7 2.829073 1_455
Nb1_3 Nb1_7 2.847827 1_555
Nb1_3 Nb1_7 2.847827 1_455
Nb1_3 Nb2_0 2.926815 1_555
Nb1_4 Rh2_1 2.769051 1_554
Nb1_4 Rh2_5 2.769051 1_554
Nb1_4 Rh1_2 2.769051 1_545
Nb1_4 Rh1_6 2.769051 1_545
Nb1_4 Rh0_4 2.829073 1_555
Nb1_4 Rh0_2 2.829073 1_545
Nb1_4 Rh0_0 2.829073 1_555
Nb1_4 Rh0_6 2.829073 1_545
Nb1_4 Nb2_7 2.926815 1_544
Nb1_5 Rh1_3 2.769051 1_545
Nb1_5 Rh2_0 2.769051 1_555
Nb1_5 Rh1_7 2.769051 1_545
Nb1_5 Rh2_4 2.769051 1_555
Nb1_5 Rh0_1 2.829073 1_555
Nb1_5 Rh0_3 2.829073 1_545
Nb1_5 Rh0_5 2.829073 1_555
Nb1_5 Rh0_7 2.829073 1_545
Nb1_5 Nb2_6 2.926815 1_545
Nb1_6 Rh1_0 2.769051 1_555
Nb1_6 Rh1_4 2.769051 1_555
Nb1_6 Rh2_3 2.769051 1_554
Nb1_6 Rh2_7 2.769051 1_554
Nb1_6 Rh0_4 2.829073 1_555
Nb1_6 Rh0_0 2.829073 1_555
Nb1_6 Rh0_2 2.829073 1_555
Nb1_6 Rh0_6 2.829073 1_555
Nb1_6 Nb2_5 2.926815 1_554
Nb1_7 Rh1_1 2.769051 1_555
Nb1_7 Rh2_2 2.769051 1_555
Nb1_7 Rh2_6 2.769051 1_555
Nb1_7 Rh1_5 2.769051 1_555
Nb1_7 Rh0_1 2.829073 1_555
Nb1_7 Rh0_5 2.829073 1_555
Nb1_7 Rh0_3 2.829073 1_555
Nb1_7 Rh0_7 2.829073 1_555
Nb1_7 Nb2_4 2.926815 1_555
Nb2_0 Rh1_0 2.744959 1_555
Nb2_0 Rh1_4 2.744959 1_455
Nb2_0 Rh0_1 2.767716 1_555
Nb2_0 Rh0_5 2.767716 1_455
Nb2_0 Rh2_0 2.776239 1_555
Nb2_0 Rh2_4 2.776239 1_455
Nb2_0 Nb2_4 2.847827 1_555
Nb2_0 Nb2_4 2.847827 1_455
Nb2_0 Rh2_6 2.882335 1_455
Nb2_0 Rh2_2 2.882335 1_555
Nb2_1 Rh1_1 2.744959 1_555
Nb2_1 Rh1_5 2.744959 1_455
Nb2_1 Rh0_0 2.767716 1_556
Nb2_1 Rh0_4 2.767716 1_456
Nb2_1 Rh2_1 2.776239 1_555
Nb2_1 Rh2_5 2.776239 1_455
Nb2_1 Nb2_5 2.847827 1_555
Nb2_1 Nb2_5 2.847827 1_455
Nb2_1 Rh2_3 2.882335 1_555
Nb2_1 Rh2_7 2.882335 1_455
Nb2_2 Rh1_2 2.744959 1_555
Nb2_2 Rh1_6 2.744959 1_455
Nb2_2 Rh0_3 2.767716 1_555
Nb2_2 Rh0_7 2.767716 1_455
Nb2_2 Rh2_6 2.776239 1_455
Nb2_2 Rh2_2 2.776239 1_555
Nb2_2 Nb2_6 2.847827 1_555
Nb2_2 Nb2_6 2.847827 1_455
Nb2_2 Rh2_4 2.882335 1_465
Nb2_2 Rh2_0 2.882335 1_565
Nb2_3 Rh1_3 2.744959 1_555
Nb2_3 Rh1_7 2.744959 1_455
Nb2_3 Rh0_2 2.767716 1_556
Nb2_3 Rh0_6 2.767716 1_456
Nb2_3 Rh2_3 2.776239 1_555
Nb2_3 Rh2_7 2.776239 1_455
Nb2_3 Nb2_7 2.847827 1_555
Nb2_3 Nb2_7 2.847827 1_455
Nb2_3 Rh2_1 2.882335 1_565
Nb2_3 Rh2_5 2.882335 1_465
Nb2_4 Rh1_0 2.744959 1_555
Nb2_4 Rh1_4 2.744959 1_555
Nb2_4 Rh0_1 2.767716 1_555
Nb2_4 Rh0_5 2.767716 1_555
Nb2_4 Rh2_0 2.776239 1_555
Nb2_4 Rh2_4 2.776239 1_555
Nb2_4 Rh2_2 2.882335 1_555
Nb2_4 Rh2_6 2.882335 1_555
Nb2_5 Rh1_1 2.744959 1_555
Nb2_5 Rh1_5 2.744959 1_555
Nb2_5 Rh0_0 2.767716 1_556
Nb2_5 Rh0_4 2.767716 1_556
Nb2_5 Rh2_1 2.776239 1_555
Nb2_5 Rh2_5 2.776239 1_555
Nb2_5 Rh2_3 2.882335 1_555
Nb2_5 Rh2_7 2.882335 1_555
Nb2_6 Rh1_2 2.744959 1_555
Nb2_6 Rh1_6 2.744959 1_555
Nb2_6 Rh0_3 2.767716 1_555
Nb2_6 Rh0_7 2.767716 1_555
Nb2_6 Rh2_2 2.776239 1_555
Nb2_6 Rh2_6 2.776239 1_555
Nb2_6 Rh2_0 2.882335 1_565
Nb2_6 Rh2_4 2.882335 1_565
Nb2_7 Rh1_3 2.744959 1_555
Nb2_7 Rh1_7 2.744959 1_555
Nb2_7 Rh0_2 2.767716 1_556
Nb2_7 Rh0_6 2.767716 1_556
Nb2_7 Rh2_3 2.776239 1_555
Nb2_7 Rh2_7 2.776239 1_555
Nb2_7 Rh2_1 2.882335 1_565
Nb2_7 Rh2_5 2.882335 1_565
Rh0_0 Rh0_4 2.847827 1_455
Rh0_0 Rh0_4 2.847827 1_555
Rh0_0 Rh2_1 2.876362 1_554
Rh0_0 Rh1_0 2.876362 1_555
Rh0_1 Rh0_5 2.847827 1_455
Rh0_1 Rh0_5 2.847827 1_555
Rh0_1 Rh2_0 2.876362 1_555
Rh0_1 Rh1_1 2.876362 1_555
Rh0_2 Rh0_6 2.847827 1_455
Rh0_2 Rh0_6 2.847827 1_555
Rh0_2 Rh1_2 2.876362 1_555
Rh0_2 Rh2_3 2.876362 1_554
Rh0_3 Rh0_7 2.847827 1_455
Rh0_3 Rh0_7 2.847827 1_555
Rh0_3 Rh1_3 2.876362 1_555
Rh0_3 Rh2_2 2.876362 1_555
Rh0_4 Rh2_5 2.876362 1_554
Rh0_4 Rh1_4 2.876362 1_555
Rh0_5 Rh2_4 2.876362 1_555
Rh0_5 Rh1_5 2.876362 1_555
Rh0_6 Rh1_6 2.876362 1_555
Rh0_6 Rh2_7 2.876362 1_554
Rh0_7 Rh1_7 2.876362 1_555
Rh0_7 Rh2_6 2.876362 1_555
Rh1_0 Rh1_4 2.847827 1_455
Rh1_0 Rh1_4 2.847827 1_555
Rh1_0 Rh2_0 2.920062 1_555
Rh1_1 Rh1_5 2.847827 1_455
Rh1_1 Rh1_5 2.847827 1_555
Rh1_1 Rh2_1 2.920062 1_555
Rh1_2 Rh1_6 2.847827 1_455
Rh1_2 Rh1_6 2.847827 1_555
Rh1_2 Rh2_2 2.920062 1_555
Rh1_3 Rh1_7 2.847827 1_555
Rh1_3 Rh1_7 2.847827 1_455
Rh1_3 Rh2_3 2.920062 1_555
Rh1_4 Rh2_4 2.920062 1_555
Rh1_5 Rh2_5 2.920062 1_555
Rh1_6 Rh2_6 2.920062 1_555
Rh1_7 Rh2_7 2.920062 1_555
Rh2_0 Rh2_4 2.847827 1_555
Rh2_0 Rh2_4 2.847827 1_455
Rh2_1 Rh2_5 2.847827 1_455
Rh2_1 Rh2_5 2.847827 1_555
Rh2_2 Rh2_6 2.847827 1_555
Rh2_2 Rh2_6 2.847827 1_455
Rh2_3 Rh2_7 2.847827 1_555
Rh2_3 Rh2_7 2.847827 1_455
