# generated using pymatgen
data_Na7Cr3Co(PO4)6
_symmetry_space_group_name_H-M   'P 1'
_cell_length_a   8.88553880
_cell_length_b   8.88617129
_cell_length_c   17.76725349
_cell_angle_alpha   59.98406498
_cell_angle_beta   60.05551841
_cell_angle_gamma   60.06157986
_symmetry_Int_Tables_number   1
_chemical_formula_structural   Na7Cr3Co(PO4)6
_chemical_formula_sum   'Na14 Cr6 Co2 P12 O48'
_cell_volume   992.73902940
_cell_formula_units_Z   2
loop_
 _symmetry_equiv_pos_site_id
 _symmetry_equiv_pos_as_xyz
  1  'x, y, z'
loop_
 _atom_site_type_symbol
 _atom_site_label
 _atom_site_symmetry_multiplicity
 _atom_site_fract_x
 _atom_site_fract_y
 _atom_site_fract_z
 _atom_site_occupancy
  Na  Na0  1  0.01407800  0.00281500  0.99695100  1
  Na  Na1  1  0.00323100  0.00236200  0.50107500  1
  Na  Na2  1  0.11481400  0.38469300  0.37809100  1
  Na  Na3  1  0.75123000  0.11263200  0.19144900  1
  Na  Na4  1  0.49944700  0.51292200  0.24403400  1
  Na  Na5  1  0.25823700  0.88190800  0.30748800  1
  Na  Na6  1  0.61491800  0.25810200  0.44011400  1
  Na  Na7  1  0.88180800  0.61910300  0.12728000  1
  Na  Na8  1  0.38107000  0.75505400  0.55760000  1
  Na  Na9  1  0.75652800  0.11510700  0.69280000  1
  Na  Na10  1  0.48701400  0.49530500  0.75601400  1
  Na  Na11  1  0.24970300  0.88668400  0.80674900  1
  Na  Na12  1  0.61411400  0.25045200  0.94372200  1
  Na  Na13  1  0.88660400  0.61010100  0.62589800  1
  Cr  Cr0  1  0.15060600  0.14728000  0.06920500  1
  Cr  Cr1  1  0.35513200  0.35866600  0.17402300  1
  Cr  Cr2  1  0.34937300  0.35130000  0.67924700  1
  Cr  Cr3  1  0.85314500  0.85113000  0.42521100  1
  Cr  Cr4  1  0.64721300  0.64649500  0.82694000  1
  Cr  Cr5  1  0.85061900  0.84977500  0.92667900  1
  Co  Co0  1  0.14564500  0.14766900  0.57648400  1
  Co  Co1  1  0.64988400  0.65008900  0.32297200  1
  P  P0  1  0.04789000  0.75040000  0.22563100  1
  P  P1  1  0.45565100  0.04555700  0.37336500  1
  P  P2  1  0.75046100  0.45690600  0.02165600  1
  P  P3  1  0.24763600  0.54347200  0.47823200  1
  P  P4  1  0.54065100  0.96133500  0.12306400  1
  P  P5  1  0.04305800  0.74335500  0.73089700  1
  P  P6  1  0.96096400  0.24699300  0.26930100  1
  P  P7  1  0.45526800  0.04186100  0.87568300  1
  P  P8  1  0.74597000  0.45532100  0.52242200  1
  P  P9  1  0.24842600  0.54100900  0.97988600  1
  P  P10  1  0.54516800  0.95466000  0.62543700  1
  P  P11  1  0.95427700  0.24879200  0.77308200  1
  O  O0  1  0.13004300  0.27728200  0.25776800  1
  O  O1  1  0.27363600  0.51659500  0.06528600  1
  O  O2  1  0.06798400  0.92309400  0.13832300  1
  O  O3  1  0.52174600  0.12927400  0.13798100  1
  O  O4  1  0.01933100  0.77867900  0.31272900  1
  O  O5  1  0.22484200  0.57756900  0.21941200  1
  O  O6  1  0.27701900  0.07044500  0.45660800  1
  O  O7  1  0.43690400  0.22824100  0.28863600  1
  O  O8  1  0.21193500  0.37936700  0.49130100  1
  O  O9  1  0.58460700  0.42957400  0.11295900  1
  O  O10  1  0.07661700  0.72608300  0.46872600  1
  O  O11  1  0.36863300  0.99655400  0.10829100  1
  O  O12  1  0.62689800  0.01797500  0.38926700  1
  O  O13  1  0.12933200  0.27320700  0.75652000  1
  O  O14  1  0.91524500  0.27420700  0.03563600  1
  O  O15  1  0.41176900  0.57016700  0.38821500  1
  O  O16  1  0.78619500  0.62263200  0.00886600  1
  O  O17  1  0.27764200  0.51772300  0.56386500  1
  O  O18  1  0.56516300  0.78052700  0.20492700  1
  O  O19  1  0.06376900  0.90946700  0.64001000  1
  O  O20  1  0.51850600  0.12621900  0.63957600  1
  O  O21  1  0.72143600  0.93831300  0.03793200  1
  O  O22  1  0.01724800  0.78460900  0.81224100  1
  O  O23  1  0.22463300  0.57819700  0.71723900  1
  O  O24  1  0.78037400  0.41071900  0.28182000  1
  O  O25  1  0.98996300  0.21491600  0.18461600  1
  O  O26  1  0.27779600  0.06688600  0.95822700  1
  O  O27  1  0.47991200  0.88198200  0.35584700  1
  O  O28  1  0.93955200  0.07616300  0.36017900  1
  O  O29  1  0.44257200  0.21849600  0.78804200  1
  O  O30  1  0.71229100  0.48042700  0.43999700  1
  O  O31  1  0.22535700  0.37046700  0.99112400  1
  O  O32  1  0.57559000  0.43785900  0.61361000  1
  O  O33  1  0.08007600  0.72190000  0.96685600  1
  O  O34  1  0.88165200  0.72177900  0.23587800  1
  O  O35  1  0.37922700  0.97231400  0.61246700  1
  O  O36  1  0.62754400  0.01645600  0.88923200  1
  O  O37  1  0.91064100  0.27566700  0.53557900  1
  O  O38  1  0.41710800  0.56846700  0.88931000  1
  O  O39  1  0.77802700  0.62609000  0.50913100  1
  O  O40  1  0.57432200  0.77403100  0.70993500  1
  O  O41  1  0.72620300  0.93372700  0.54021500  1
  O  O42  1  0.77515600  0.41872900  0.78738200  1
  O  O43  1  0.96665000  0.22152300  0.69150400  1
  O  O44  1  0.48200000  0.87685300  0.85647800  1
  O  O45  1  0.93218200  0.07993600  0.86405200  1
  O  O46  1  0.71227700  0.48205900  0.93967500  1
  O  O47  1  0.87256200  0.71225100  0.74534400  1
loop_
_geom_bond_atom_site_label_1
_geom_bond_atom_site_label_2
_geom_bond_distance
_geom_bond_site_symmetry_2
Na0 O26 2.370379 1_555
Na0 O14 2.449793 1_456
Na0 O2 2.474375 1_546
Na0 O45 2.484618 1_455
Na0 O33 2.534232 1_545
Na0 O21 2.607704 1_446
Na1 O19 2.430627 1_545
Na1 O37 2.437757 1_455
Na1 O6 2.445521 1_555
Na1 O10 2.494505 1_545
Na1 O41 2.505999 1_445
Na1 O28 2.533399 1_455
Na2 O6 2.431835 1_555
Na2 O5 2.434793 1_555
Na2 O37 2.456373 1_455
Na2 O7 2.519494 1_555
Na2 O8 2.527786 1_555
Na2 O0 2.668952 1_555
Na2 O4 2.876931 1_555
Na2 O30 2.949169 1_455
Na3 O2 2.419930 1_645
Na3 O14 2.435851 1_555
Na3 O7 2.435954 1_555
Na3 O9 2.457349 1_555
Na3 O3 2.564082 1_555
Na3 O25 2.626332 1_555
Na3 O34 2.860405 1_545
Na3 O12 2.893857 1_555
Na4 O18 2.409649 1_555
Na4 O5 2.426965 1_555
Na4 O9 2.439604 1_555
Na4 O7 2.508832 1_555
Na4 O24 2.511311 1_555
Na4 O15 2.518691 1_555
Na5 O15 2.407975 1_555
Na5 O18 2.408026 1_555
Na5 O28 2.442532 1_465
Na5 O27 2.511844 1_555
Na5 O10 2.524854 1_555
Na5 O4 2.649018 1_555
Na5 O0 2.885558 1_565
Na5 O11 2.906924 1_555
Na6 O15 2.430143 1_555
Na6 O24 2.440642 1_555
Na6 O41 2.496243 1_545
Na6 O30 2.520298 1_555
Na6 O28 2.550302 1_555
Na6 O12 2.643206 1_555
Na6 O20 2.912476 1_555
Na6 O8 2.947536 1_555
Na7 O24 2.426691 1_555
Na7 O18 2.439974 1_555
Na7 O33 2.459804 1_654
Na7 O34 2.512522 1_555
Na7 O21 2.513042 1_555
Na7 O16 2.615516 1_555
Na7 O1 2.859094 1_655
Na7 O25 2.955155 1_555
Na8 O6 2.442888 1_565
Na8 O32 2.443483 1_555
Na8 O19 2.450112 1_555
Na8 O23 2.496338 1_555
Na8 O35 2.552110 1_555
Na8 O17 2.627217 1_555
Na8 O39 2.901081 1_555
Na8 O27 2.948497 1_555
Na9 O29 2.402984 1_555
Na9 O19 2.418876 1_645
Na9 O37 2.420288 1_555
Na9 O43 2.465392 1_555
Na9 O32 2.531523 1_555
Na9 O20 2.659284 1_555
Na9 O36 2.865512 1_555
Na9 O47 2.946712 1_545
Na10 O23 2.415422 1_555
Na10 O29 2.423846 1_555
Na10 O38 2.467007 1_555
Na10 O32 2.486918 1_555
Na10 O42 2.575831 1_555
Na10 O40 2.581037 1_555
Na11 O45 2.447686 1_465
Na11 O40 2.483595 1_555
Na11 O38 2.488051 1_555
Na11 O33 2.502625 1_555
Na11 O44 2.571416 1_555
Na11 O22 2.584333 1_555
Na11 O13 2.820819 1_565
Na11 O35 2.845888 1_555
Na12 O21 2.390199 1_546
Na12 O38 2.450174 1_555
Na12 O42 2.451824 1_555
Na12 O45 2.482885 1_555
Na12 O46 2.565708 1_555
Na12 O36 2.631763 1_555
Na12 O3 2.842787 1_556
Na12 O31 2.845375 1_555
Na13 O10 2.421045 1_655
Na13 O40 2.460950 1_555
Na13 O42 2.463210 1_555
Na13 O41 2.512769 1_555
Na13 O39 2.611798 1_555
Na13 O47 2.625510 1_555
Na13 O43 2.852553 1_555
Na13 O17 2.862950 1_655
Cr0 O11 1.962616 1_545
Cr0 O31 1.985289 1_554
Cr0 O26 2.013521 1_554
Cr0 O25 2.014471 1_455
Cr0 O2 2.031714 1_545
Cr0 O14 2.054082 1_455
Cr1 O1 1.973839 1_555
Cr1 O3 2.025911 1_555
Cr1 O9 2.030179 1_555
Cr1 O0 2.033054 1_555
Cr1 O5 2.040607 1_555
Cr1 O7 2.072019 1_555
Cr2 O13 1.977495 1_555
Cr2 O20 2.026937 1_555
Cr2 O17 2.031330 1_555
Cr2 O23 2.033107 1_555
Cr2 O29 2.038445 1_555
Cr2 O32 2.073059 1_555
Cr3 O4 1.995298 1_655
Cr3 O12 2.001702 1_565
Cr3 O39 2.005810 1_555
Cr3 O10 2.060615 1_655
Cr3 O28 2.063598 1_565
Cr3 O41 2.087897 1_555
Cr4 O46 1.966212 1_555
Cr4 O47 1.968469 1_555
Cr4 O44 1.981650 1_555
Cr4 O42 2.052247 1_555
Cr4 O38 2.067257 1_555
Cr4 O40 2.068796 1_555
Cr5 O16 1.975861 1_556
Cr5 O36 1.991384 1_565
Cr5 O22 1.994597 1_655
Cr5 O21 2.057461 1_556
Cr5 O33 2.070421 1_655
Cr5 O45 2.084220 1_565
Co0 O8 2.019791 1_555
Co0 O43 2.047365 1_455
Co0 O35 2.060201 1_545
Co0 O37 2.121221 1_455
Co0 O6 2.133197 1_555
Co0 O19 2.147255 1_545
Co1 O30 2.020880 1_555
Co1 O27 2.021272 1_555
Co1 O34 2.045299 1_555
Co1 O15 2.133620 1_555
Co1 O18 2.140585 1_555
Co1 O24 2.156710 1_555
O0 P6 1.553259 1_455
O1 P9 1.536550 1_554
O2 P0 1.551929 1_555
O3 P4 1.557745 1_545
O4 P0 1.567051 1_555
O5 P0 1.558572 1_555
O6 P1 1.545630 1_555
O7 P1 1.569946 1_555
O8 P3 1.526601 1_555
O9 P2 1.561658 1_555
O10 P3 1.578493 1_555
O11 P4 1.530991 1_555
O12 P1 1.562974 1_555
O13 P11 1.539198 1_455
O14 P2 1.558280 1_555
O15 P3 1.542176 1_555
O16 P2 1.543078 1_555
O17 P3 1.560152 1_555
O18 P4 1.540568 1_555
O19 P5 1.552433 1_555
O20 P10 1.551319 1_545
O21 P4 1.570362 1_555
O22 P5 1.546293 1_555
O23 P5 1.554944 1_555
O24 P6 1.542167 1_555
O25 P6 1.542807 1_555
O26 P7 1.534432 1_555
O27 P1 1.526124 1_565
O28 P6 1.573858 1_555
O29 P7 1.566663 1_555
O30 P8 1.525775 1_555
O31 P9 1.531335 1_555
O32 P8 1.573286 1_555
O33 P9 1.564753 1_555
O34 P0 1.529665 1_655
O35 P10 1.524451 1_555
O36 P7 1.555871 1_555
O37 P8 1.542964 1_555
O38 P9 1.568442 1_555
O39 P8 1.563785 1_555
O40 P10 1.568338 1_555
O41 P10 1.570479 1_555
O42 P11 1.568204 1_555
O43 P11 1.528832 1_555
O44 P7 1.547538 1_565
O45 P11 1.566284 1_555
O46 P2 1.542284 1_556
O47 P5 1.547936 1_655
