# generated using pymatgen
data_Li17(AgSn2)3
_symmetry_space_group_name_H-M   'P 1'
_cell_length_a   8.07282206
_cell_length_b   8.07282206
_cell_length_c   8.52898800
_cell_angle_alpha   90.00000000
_cell_angle_beta   90.00000000
_cell_angle_gamma   120.00000048
_symmetry_Int_Tables_number   1
_chemical_formula_structural   Li17(AgSn2)3
_chemical_formula_sum   'Li17 Ag3 Sn6'
_cell_volume   481.36985819
_cell_formula_units_Z   1
loop_
 _symmetry_equiv_pos_site_id
 _symmetry_equiv_pos_as_xyz
  1  'x, y, z'
loop_
 _atom_site_type_symbol
 _atom_site_label
 _atom_site_symmetry_multiplicity
 _atom_site_fract_x
 _atom_site_fract_y
 _atom_site_fract_z
 _atom_site_occupancy
  Li  Li0  1  0.00000000  0.29881900  0.33003900  1
  Li  Li1  1  0.29881900  0.00000000  0.33003900  1
  Li  Li2  1  0.64837700  0.00000000  0.83229100  1
  Li  Li3  1  0.00000000  0.65476300  0.15474900  1
  Li  Li4  1  0.34523700  0.34523700  0.15474900  1
  Li  Li5  1  0.70118100  0.70118100  0.33003900  1
  Li  Li6  1  0.33333300  0.66666700  0.66732200  1
  Li  Li7  1  0.00000000  0.30999700  0.64982800  1
  Li  Li8  1  0.33333300  0.66666700  0.33928700  1
  Li  Li9  1  0.30999700  0.00000000  0.64982800  1
  Li  Li10  1  0.00000000  0.64837700  0.83229100  1
  Li  Li11  1  0.66666700  0.33333300  0.33928700  1
  Li  Li12  1  0.35162300  0.35162300  0.83229100  1
  Li  Li13  1  0.65476300  0.00000000  0.15474900  1
  Li  Li14  1  0.69000300  0.69000300  0.64982800  1
  Li  Li15  1  0.66666700  0.33333300  0.66732200  1
  Li  Li16  1  0.00000000  0.00000000  0.85727500  1
  Ag  Ag0  1  0.00000000  0.00000000  0.50518100  1
  Ag  Ag1  1  0.33333300  0.66666700  0.00104900  1
  Ag  Ag2  1  0.66666700  0.33333300  0.00104900  1
  Sn  Sn0  1  0.00000000  0.64550000  0.49585100  1
  Sn  Sn1  1  0.64550000  0.00000000  0.49585100  1
  Sn  Sn2  1  0.31534500  0.00000000  0.99070000  1
  Sn  Sn3  1  0.35450000  0.35450000  0.49585100  1
  Sn  Sn4  1  0.00000000  0.31534500  0.99070000  1
  Sn  Sn5  1  0.68465500  0.68465500  0.99070000  1
loop_
_geom_bond_atom_site_label_1
_geom_bond_atom_site_label_2
_geom_bond_distance
_geom_bond_site_symmetry_2
Li0 Li7 2.728969 1_555
Li0 Li11 2.841613 1_455
Li0 Li8 2.841618 1_555
Li0 Sn4 2.897291 1_554
Li0 Li13 3.016419 1_455
Li0 Li4 3.016419 1_555
Li0 Sn1 3.017554 1_455
Li0 Sn3 3.017554 1_555
Li0 Sn0 3.135710 1_555
Li0 Li3 3.239137 1_555
Li1 Li9 2.728969 1_555
Li1 Li8 2.841613 1_545
Li1 Li11 2.841618 1_555
Li1 Sn2 2.897291 1_554
Li1 Li3 3.016419 1_545
Li1 Li4 3.016419 1_555
Li1 Sn0 3.017554 1_545
Li1 Sn3 3.017554 1_555
Li1 Sn1 3.135710 1_555
Li1 Li13 3.239137 1_555
Li2 Sn1 2.869587 1_555
Li2 Li6 2.974113 1_545
Li2 Sn2 3.008897 1_555
Li2 Sn4 3.022817 1_655
Li2 Sn5 3.022817 1_545
Li2 Li7 3.104589 1_655
Li2 Li9 3.143870 1_555
Li3 Sn0 2.910216 1_555
Li3 Li5 3.016419 1_455
Li3 Sn2 3.018433 1_564
Li3 Sn5 3.018434 1_454
Li3 Sn4 3.076624 1_554
Li3 Li8 3.077177 1_555
Li4 Sn3 2.910216 1_555
Li4 Sn2 3.018434 1_554
Li4 Sn4 3.018434 1_554
Li4 Sn5 3.076624 1_554
Li4 Li8 3.077184 1_555
Li4 Li5 3.239137 1_555
Li5 Li8 2.841621 1_555
Li5 Sn5 2.897291 1_554
Li5 Sn0 3.017554 1_655
Li5 Sn1 3.017554 1_565
Li5 Sn3 3.135709 1_555
Li6 Li9 2.793893 1_565
Li6 Li7 2.793897 1_555
Li6 Li8 2.797807 1_555
Li6 Sn0 2.991547 1_555
Li6 Sn1 2.991551 1_565
Li6 Sn3 2.991555 1_555
Li7 Sn4 2.907614 1_555
Li7 Sn1 3.002596 1_455
Li7 Sn3 3.002596 1_555
Li7 Sn0 3.010051 1_555
Li8 Sn0 2.931491 1_555
Li8 Sn1 2.931494 1_565
Li8 Sn3 2.931498 1_555
Li9 Sn2 2.907614 1_555
Li9 Sn0 3.002596 1_545
Li9 Sn3 3.002596 1_555
Li9 Sn1 3.010051 1_555
Li10 Li3 2.750724 1_556
Li10 Li16 2.846577 1_565
Li10 Sn0 2.869587 1_555
Li10 Li6 2.974110 1_555
Li10 Li15 2.974113 1_455
Li10 Sn4 3.008897 1_555
Li10 Sn2 3.022817 1_565
Li10 Sn5 3.022817 1_455
Li10 Li9 3.104589 1_565
Li10 Li14 3.104589 1_455
Li10 Li7 3.143870 1_555
Li11 Li15 2.797807 1_555
Li11 Li5 2.841621 1_555
Li11 Sn1 2.931491 1_555
Li11 Sn0 2.931494 1_655
Li11 Sn3 2.931498 1_555
Li11 Li13 3.077177 1_555
Li11 Li3 3.077180 1_655
Li11 Li4 3.077184 1_555
Li12 Li4 2.750724 1_556
Li12 Li16 2.846577 1_555
Li12 Sn3 2.869587 1_555
Li12 Li6 2.974117 1_555
Li12 Li15 2.974117 1_555
Li12 Sn5 3.008897 1_555
Li12 Sn4 3.022817 1_555
Li12 Sn2 3.022817 1_555
Li12 Li7 3.104589 1_555
Li12 Li9 3.104589 1_555
Li12 Li14 3.143870 1_555
Li13 Li2 2.750724 1_554
Li13 Sn1 2.910216 1_555
Li13 Li5 3.016419 1_545
Li13 Sn4 3.018433 1_654
Li13 Sn5 3.018434 1_544
Li13 Sn2 3.076624 1_554
Li13 Li8 3.077180 1_545
Li14 Li5 2.728969 1_555
Li14 Li15 2.793901 1_555
Li14 Li6 2.793901 1_555
Li14 Sn5 2.907614 1_555
Li14 Sn0 3.002596 1_655
Li14 Sn1 3.002596 1_565
Li14 Sn3 3.010051 1_555
Li14 Li16 3.064837 1_665
Li14 Li2 3.104589 1_565
Li15 Li7 2.793893 1_655
Li15 Li9 2.793897 1_555
Li15 Li2 2.974110 1_555
Li15 Sn1 2.991547 1_555
Li15 Sn0 2.991551 1_655
Li15 Sn3 2.991555 1_555
Li16 Sn5 2.788496 1_445
Li16 Sn4 2.788496 1_555
Li16 Sn2 2.788496 1_555
Li16 Li2 2.846577 1_455
Li16 Li9 3.064837 1_555
Li16 Li7 3.064837 1_555
Ag0 Li14 2.790118 1_445
Ag0 Li7 2.790118 1_555
Ag0 Li9 2.790118 1_555
Ag0 Li5 2.837365 1_445
Ag0 Li0 2.837365 1_555
Ag0 Li1 2.837365 1_555
Ag0 Sn3 2.862922 1_555
Ag0 Sn0 2.862922 1_545
Ag0 Sn1 2.862922 1_455
Ag0 Li16 3.003006 1_555
Ag1 Sn2 2.767813 1_564
Ag1 Sn4 2.767817 1_554
Ag1 Sn5 2.767821 1_554
Ag1 Li6 2.846354 1_554
Ag1 Li8 2.884828 1_555
Ag1 Li3 2.951315 1_555
Ag1 Li13 2.951318 1_565
Ag1 Li4 2.951322 1_555
Ag1 Li10 2.989534 1_554
Ag1 Li2 2.989537 1_564
Ag1 Li12 2.989541 1_554
Ag2 Sn4 2.767813 1_654
Ag2 Sn2 2.767817 1_554
Ag2 Sn5 2.767821 1_554
Ag2 Li15 2.846354 1_554
Ag2 Li11 2.884828 1_555
Ag2 Li13 2.951315 1_555
Ag2 Li3 2.951318 1_655
Ag2 Li4 2.951322 1_555
Ag2 Li2 2.989534 1_554
Ag2 Li10 2.989537 1_654
Ag2 Li12 2.989541 1_554
