# generated using pymatgen
data_KAlO2
_symmetry_space_group_name_H-M   'P 1'
_cell_length_a   5.41759802
_cell_length_b   10.87920433
_cell_length_c   15.47305134
_cell_angle_alpha   90.00000000
_cell_angle_beta   90.00000000
_cell_angle_gamma   90.00000000
_symmetry_Int_Tables_number   1
_chemical_formula_structural   KAlO2
_chemical_formula_sum   'K16 Al16 O32'
_cell_volume   911.96858421
_cell_formula_units_Z   16
loop_
 _symmetry_equiv_pos_site_id
 _symmetry_equiv_pos_as_xyz
  1  'x, y, z'
loop_
 _atom_site_type_symbol
 _atom_site_label
 _atom_site_symmetry_multiplicity
 _atom_site_fract_x
 _atom_site_fract_y
 _atom_site_fract_z
 _atom_site_occupancy
  K  K0  1  0.75444179  0.00957367  0.06156061  1
  K  K1  1  0.25444179  0.49042633  0.93843939  1
  K  K2  1  0.24555821  0.50957367  0.43843939  1
  K  K3  1  0.74555821  0.99042633  0.56156061  1
  K  K4  1  0.24555821  0.99042633  0.93843939  1
  K  K5  1  0.74555821  0.50957367  0.06156061  1
  K  K6  1  0.75444179  0.49042633  0.56156061  1
  K  K7  1  0.25444179  0.00957367  0.43843939  1
  K  K8  1  0.79648172  0.26109740  0.18483104  1
  K  K9  1  0.29648172  0.23890260  0.81516896  1
  K  K10  1  0.20351828  0.76109740  0.31516896  1
  K  K11  1  0.70351828  0.73890260  0.68483104  1
  K  K12  1  0.20351828  0.73890260  0.81516896  1
  K  K13  1  0.70351828  0.76109740  0.18483104  1
  K  K14  1  0.79648172  0.23890260  0.68483104  1
  K  K15  1  0.29648172  0.26109740  0.31516896  1
  Al  Al0  1  0.25520389  0.00799478  0.18862648  1
  Al  Al1  1  0.75520389  0.49200522  0.81137352  1
  Al  Al2  1  0.74479611  0.50799478  0.31137352  1
  Al  Al3  1  0.24479611  0.99200522  0.68862648  1
  Al  Al4  1  0.74479611  0.99200522  0.81137352  1
  Al  Al5  1  0.24479611  0.50799478  0.18862648  1
  Al  Al6  1  0.25520389  0.49200522  0.68862648  1
  Al  Al7  1  0.75520389  0.00799478  0.31137352  1
  Al  Al8  1  0.28059512  0.26249504  0.06371937  1
  Al  Al9  1  0.78059512  0.23750496  0.93628063  1
  Al  Al10  1  0.71940488  0.76249504  0.43628063  1
  Al  Al11  1  0.21940488  0.73750496  0.56371937  1
  Al  Al12  1  0.71940488  0.73750496  0.93628063  1
  Al  Al13  1  0.21940488  0.76249504  0.06371937  1
  Al  Al14  1  0.28059512  0.23750496  0.56371937  1
  Al  Al15  1  0.78059512  0.26249504  0.43628063  1
  O  O0  1  0.55179004  0.48418146  0.22160631  1
  O  O1  1  0.05179004  0.01581854  0.77839369  1
  O  O2  1  0.44820996  0.98418146  0.27839369  1
  O  O3  1  0.94820996  0.51581854  0.72160631  1
  O  O4  1  0.44820996  0.51581854  0.77839369  1
  O  O5  1  0.94820996  0.98418146  0.22160631  1
  O  O6  1  0.55179004  0.01581854  0.72160631  1
  O  O7  1  0.05179004  0.48418146  0.27839369  1
  O  O8  1  0.80084342  0.15822047  0.35010640  1
  O  O9  1  0.30084342  0.34177953  0.64989360  1
  O  O10  1  0.19915658  0.65822047  0.14989360  1
  O  O11  1  0.69915658  0.84177953  0.85010640  1
  O  O12  1  0.19915658  0.84177953  0.64989360  1
  O  O13  1  0.69915658  0.65822047  0.35010640  1
  O  O14  1  0.80084342  0.34177953  0.85010640  1
  O  O15  1  0.57100140  0.28601533  0.01601719  1
  O  O16  1  0.67563969  0.40403228  0.39494108  1
  O  O17  1  0.17563969  0.09596772  0.60505892  1
  O  O18  1  0.32436031  0.90403228  0.10505892  1
  O  O19  1  0.82436031  0.59596772  0.89494108  1
  O  O20  1  0.32436031  0.59596772  0.60505892  1
  O  O21  1  0.82436031  0.90403228  0.39494108  1
  O  O22  1  0.67563969  0.09596772  0.89494108  1
  O  O23  1  0.17563969  0.40403228  0.10505892  1
  O  O24  1  0.07100140  0.28601533  0.48398281  1
  O  O25  1  0.57100140  0.21398467  0.51601719  1
  O  O26  1  0.92899860  0.78601533  0.01601719  1
  O  O27  1  0.42899860  0.71398467  0.98398281  1
  O  O28  1  0.92899860  0.71398467  0.51601719  1
  O  O29  1  0.42899860  0.78601533  0.48398281  1
  O  O30  1  0.07100140  0.21398467  0.98398281  1
  O  O31  1  0.30084342  0.15822047  0.14989360  1
loop_
_geom_bond_atom_site_label_1
_geom_bond_atom_site_label_2
_geom_bond_distance
_geom_bond_site_symmetry_2
K0 O18 2.683340 1_545
K0 O26 2.702997 1_545
K0 O5 2.703856 1_545
K0 O22 2.777109 1_554
K1 O19 2.683340 1_455
K1 O27 2.702997 1_555
K1 O4 2.703856 1_555
K1 O23 2.777109 1_556
K2 O16 2.683340 1_555
K2 O24 2.702997 1_555
K2 O7 2.703856 1_555
K2 O20 2.777109 1_555
K3 O17 2.683340 1_665
K3 O25 2.702997 1_565
K3 O6 2.703856 1_565
K3 O21 2.777109 1_555
K4 O22 2.683340 1_565
K4 O30 2.702997 1_565
K4 O1 2.703856 1_565
K4 O18 2.777109 1_556
K5 O23 2.683340 1_655
K5 O15 2.702997 1_555
K5 O0 2.703856 1_555
K5 O19 2.777109 1_554
K6 O20 2.683340 1_555
K6 O28 2.702997 1_555
K6 O3 2.703856 1_555
K6 O16 2.777109 1_555
K7 O21 2.683340 1_445
K7 O29 2.702997 1_545
K7 O2 2.703856 1_545
K7 O17 2.777109 1_555
K8 O8 2.791606 1_555
K8 O0 2.823355 1_555
K8 O23 2.856756 1_655
K8 O15 2.896306 1_555
K8 O31 2.958888 1_555
K8 O31 3.001842 1_655
K8 O7 3.146296 1_655
K8 O5 3.174175 1_545
K9 O9 2.791606 1_555
K9 O1 2.823355 1_555
K9 O22 2.856756 1_555
K9 O30 2.896306 1_555
K9 O14 2.958888 1_455
K9 O14 3.001842 1_555
K9 O6 3.146296 1_555
K9 O4 3.174175 1_555
K10 O10 2.791606 1_555
K10 O2 2.823355 1_555
K10 O21 2.856756 1_455
K10 O29 2.896306 1_555
K10 O13 2.958888 1_555
K10 O13 3.001842 1_455
K10 O5 3.146296 1_455
K10 O7 3.174175 1_555
K11 O11 2.791606 1_555
K11 O3 2.823355 1_555
K11 O20 2.856756 1_555
K11 O28 2.896306 1_555
K11 O12 2.958888 1_655
K11 O12 3.001842 1_555
K11 O4 3.146296 1_555
K11 O6 3.174175 1_565
K12 O12 2.791606 1_555
K12 O4 2.823355 1_555
K12 O19 2.856756 1_455
K12 O27 2.896306 1_555
K12 O11 2.958888 1_555
K12 O11 3.001842 1_455
K12 O3 3.146296 1_455
K12 O1 3.174175 1_565
K13 O13 2.791606 1_555
K13 O5 2.823355 1_555
K13 O18 2.856756 1_555
K13 O26 2.896306 1_555
K13 O10 2.958888 1_655
K13 O10 3.001842 1_555
K13 O2 3.146296 1_555
K13 O0 3.174175 1_555
K14 O14 2.791606 1_555
K14 O6 2.823355 1_555
K14 O17 2.856756 1_655
K14 O25 2.896306 1_555
K14 O9 2.958888 1_555
K14 O9 3.001842 1_655
K14 O1 3.146296 1_655
K14 O3 3.174175 1_555
K15 O31 2.791606 1_555
K15 O7 2.823355 1_555
K15 O16 2.856756 1_555
K15 O24 2.896306 1_555
K15 O8 2.958888 1_455
K15 O8 3.001842 1_555
K15 O0 3.146296 1_555
K15 O2 3.174175 1_545
Al0 O2 1.757755 1_545
Al0 O31 1.758229 1_555
Al0 O18 1.758284 1_545
Al0 O5 1.758879 1_445
Al1 O3 1.757755 1_555
Al1 O14 1.758229 1_555
Al1 O19 1.758284 1_555
Al1 O4 1.758879 1_555
Al2 O0 1.757755 1_555
Al2 O13 1.758229 1_555
Al2 O16 1.758284 1_555
Al2 O7 1.758879 1_655
Al3 O1 1.757755 1_565
Al3 O12 1.758229 1_555
Al3 O17 1.758284 1_565
Al3 O6 1.758879 1_565
Al4 O6 1.757755 1_565
Al4 O11 1.758229 1_555
Al4 O22 1.758284 1_565
Al4 O1 1.758879 1_665
Al5 O7 1.757755 1_555
Al5 O10 1.758229 1_555
Al5 O23 1.758284 1_555
Al5 O0 1.758879 1_555
Al6 O4 1.757755 1_555
Al6 O9 1.758229 1_555
Al6 O20 1.758284 1_555
Al6 O3 1.758879 1_455
Al7 O5 1.757755 1_545
Al7 O8 1.758229 1_555
Al7 O21 1.758284 1_545
Al7 O2 1.758879 1_545
Al8 O31 1.754095 1_555
Al8 O15 1.756574 1_555
Al8 O30 1.757855 1_554
Al8 O23 1.761672 1_555
Al9 O14 1.754095 1_555
Al9 O30 1.756574 1_655
Al9 O15 1.757855 1_556
Al9 O22 1.761672 1_555
Al10 O13 1.754095 1_555
Al10 O29 1.756574 1_555
Al10 O28 1.757855 1_555
Al10 O21 1.761672 1_555
Al11 O12 1.754095 1_555
Al11 O28 1.756574 1_455
Al11 O29 1.757855 1_555
Al11 O20 1.761672 1_555
Al12 O11 1.754095 1_555
Al12 O27 1.756574 1_555
Al12 O26 1.757855 1_556
Al12 O19 1.761672 1_555
Al13 O10 1.754095 1_555
Al13 O26 1.756574 1_455
Al13 O27 1.757855 1_554
Al13 O18 1.761672 1_555
Al14 O9 1.754095 1_555
Al14 O25 1.756574 1_555
Al14 O24 1.757855 1_555
Al14 O17 1.761672 1_555
Al15 O8 1.754095 1_555
Al15 O24 1.756574 1_655
Al15 O25 1.757855 1_555
Al15 O16 1.761672 1_555
