# generated using pymatgen
data_Pr12Mn11O36
_symmetry_space_group_name_H-M   'P 1'
_cell_length_a   11.03706980
_cell_length_b   7.88059352
_cell_length_c   23.44034985
_cell_angle_alpha   90.00000000
_cell_angle_beta   90.00000000
_cell_angle_gamma   45.91120507
_symmetry_Int_Tables_number   1
_chemical_formula_structural   Pr12Mn11O36
_chemical_formula_sum   'Pr24 Mn22 O72'
_cell_volume   1464.40069560
_cell_formula_units_Z   2
loop_
 _symmetry_equiv_pos_site_id
 _symmetry_equiv_pos_as_xyz
  1  'x, y, z'
loop_
 _atom_site_type_symbol
 _atom_site_label
 _atom_site_symmetry_multiplicity
 _atom_site_fract_x
 _atom_site_fract_y
 _atom_site_fract_z
 _atom_site_occupancy
  Pr  Pr0  1  0.02973274  0.45157937  0.58601168  1
  Pr  Pr1  1  0.00923783  0.44781438  0.24587958  1
  Pr  Pr2  1  0.01638775  0.45631262  0.91563091  1
  Pr  Pr3  1  0.47491604  0.04018369  0.08502541  1
  Pr  Pr4  1  0.47236461  0.04316353  0.41570658  1
  Pr  Pr5  1  0.45341416  0.07964675  0.74412747  1
  Pr  Pr6  1  0.02508396  0.95981631  0.24830759  1
  Pr  Pr7  1  0.02763539  0.95683647  0.91762742  1
  Pr  Pr8  1  0.04658584  0.92035325  0.58920553  1
  Pr  Pr9  1  0.50923783  0.44781438  0.58745342  1
  Pr  Pr10  1  0.52973274  0.45157937  0.24732132  1
  Pr  Pr11  1  0.51638775  0.45631262  0.91770309  1
  Pr  Pr12  1  0.49076217  0.55218562  0.08745342  1
  Pr  Pr13  1  0.48361225  0.54368738  0.41770309  1
  Pr  Pr14  1  0.47026726  0.54842063  0.74732132  1
  Pr  Pr15  1  0.95341416  0.07964675  0.08920553  1
  Pr  Pr16  1  0.97236461  0.04316353  0.41762742  1
  Pr  Pr17  1  0.97491604  0.04018369  0.74830759  1
  Pr  Pr18  1  0.54658584  0.92035325  0.24412747  1
  Pr  Pr19  1  0.52763539  0.95683647  0.91570658  1
  Pr  Pr20  1  0.52508396  0.95981631  0.58502541  1
  Pr  Pr21  1  0.97026726  0.54842063  0.08601168  1
  Pr  Pr22  1  0.98361225  0.54368738  0.41563091  1
  Pr  Pr23  1  0.99076217  0.55218562  0.74587958  1
  Mn  Mn0  1  0.25000000  -0.00000000  0.16666700  1
  Mn  Mn1  1  0.24772803  0.00453569  0.00043980  1
  Mn  Mn2  1  0.25227197  0.99546431  0.33289320  1
  Mn  Mn3  1  0.25082100  0.00169237  0.83292279  1
  Mn  Mn4  1  0.25000000  -0.00000000  0.66666700  1
  Mn  Mn5  1  0.25000000  0.50000000  0.16666700  1
  Mn  Mn6  1  0.25131607  0.49611716  0.33084282  1
  Mn  Mn7  1  0.24868393  0.50388284  0.00249018  1
  Mn  Mn8  1  0.24826737  0.50434953  0.83505542  1
  Mn  Mn9  1  0.25173263  0.49565047  0.49827758  1
  Mn  Mn10  1  0.75000000  -0.00000000  0.66666700  1
  Mn  Mn11  1  0.74772803  0.00453569  0.83289320  1
  Mn  Mn12  1  0.75082100  0.00169237  0.00041021  1
  Mn  Mn13  1  0.75000000  -0.00000000  0.16666700  1
  Mn  Mn14  1  0.74917900  0.99830763  0.33292279  1
  Mn  Mn15  1  0.24917900  0.99830763  0.50041021  1
  Mn  Mn16  1  0.74826737  0.50434953  0.99827758  1
  Mn  Mn17  1  0.75131607  0.49611716  0.50249018  1
  Mn  Mn18  1  0.75173263  0.49565047  0.33505542  1
  Mn  Mn19  1  0.74868393  0.50388284  0.83084282  1
  Mn  Mn20  1  0.75000000  0.50000000  0.66666700  1
  Mn  Mn21  1  0.75227197  0.99546431  0.50043980  1
  O  O0  1  0.01844218  0.18976576  0.18024693  1
  O  O1  1  0.00784920  0.19949369  0.51609700  1
  O  O2  1  0.00618584  0.20748420  0.84864573  1
  O  O3  1  0.00540419  0.20526930  0.32035745  1
  O  O4  1  0.00480480  0.19775237  0.65304011  1
  O  O5  1  0.00044811  0.21791994  0.98415570  1
  O  O6  1  0.28627156  0.01185316  0.25012686  1
  O  O7  1  0.27910234  0.02501467  0.58403804  1
  O  O8  1  0.28011143  0.02262669  0.91740696  1
  O  O9  1  0.21019890  0.29439008  0.01586629  1
  O  O10  1  0.20406091  0.29947331  0.15276102  1
  O  O11  1  0.21513787  0.28583741  0.34829732  1
  O  O12  1  0.21450918  0.28468243  0.48322444  1
  O  O13  1  0.20878348  0.29446238  0.81963562  1
  O  O14  1  0.20507061  0.27620350  0.68005889  1
  O  O15  1  0.19023608  0.52783012  0.24924868  1
  O  O16  1  0.19709248  0.52282967  0.91742487  1
  O  O17  1  0.21539634  0.50229847  0.57598538  1
  O  O18  1  0.30976392  0.47216988  0.08408432  1
  O  O19  1  0.30290752  0.47717033  0.41590913  1
  O  O20  1  0.28460366  0.49770153  0.75734762  1
  O  O21  1  0.50784920  0.19949369  0.31723700  1
  O  O22  1  0.50480480  0.19775237  0.18029289  1
  O  O23  1  0.50618584  0.20748420  0.98468727  1
  O  O24  1  0.51844218  0.18976576  0.65308607  1
  O  O25  1  0.50540419  0.20526930  0.51297655  1
  O  O26  1  0.50044811  0.21791994  0.84917730  1
  O  O27  1  0.28980110  0.70560992  0.31746771  1
  O  O28  1  0.29593909  0.70052669  0.18057198  1
  O  O29  1  0.29121652  0.70553762  0.51369838  1
  O  O30  1  0.28549082  0.71531757  0.85010856  1
  O  O31  1  0.28486213  0.71416259  0.98503568  1
  O  O32  1  0.29492939  0.72379650  0.65327411  1
  O  O33  1  0.21988857  0.97737331  0.41592704  1
  O  O34  1  0.21372844  0.98814684  0.08320614  1
  O  O35  1  0.22089766  0.97498533  0.74929496  1
  O  O36  1  0.77910234  0.02501467  0.24929496  1
  O  O37  1  0.78627156  0.01185316  0.58320614  1
  O  O38  1  0.78011143  0.02262669  0.91592704  1
  O  O39  1  0.70878348  0.29446238  0.01369838  1
  O  O40  1  0.71450918  0.28468243  0.35010856  1
  O  O41  1  0.70406091  0.29947331  0.68057198  1
  O  O42  1  0.71513787  0.28583741  0.48503568  1
  O  O43  1  0.70507061  0.27620350  0.15327411  1
  O  O44  1  0.71019890  0.29439008  0.81746771  1
  O  O45  1  0.48155782  0.81023424  0.15308607  1
  O  O46  1  0.49955189  0.78208006  0.34917730  1
  O  O47  1  0.49381416  0.79251580  0.48468727  1
  O  O48  1  0.49519520  0.80224763  0.68029289  1
  O  O49  1  0.49215080  0.80050631  0.81723700  1
  O  O50  1  0.49459581  0.79473070  0.01297655  1
  O  O51  1  0.71539634  0.50229847  0.25734762  1
  O  O52  1  0.69023608  0.52783012  0.58408432  1
  O  O53  1  0.69709248  0.52282967  0.91590913  1
  O  O54  1  0.78460366  0.49770153  0.07598538  1
  O  O55  1  0.80290752  0.47717033  0.41742487  1
  O  O56  1  0.80976392  0.47216988  0.74924868  1
  O  O57  1  0.78980110  0.70560992  0.51586629  1
  O  O58  1  0.79121652  0.70553762  0.31963562  1
  O  O59  1  0.79593909  0.70052669  0.65276102  1
  O  O60  1  0.79492939  0.72379650  0.18005889  1
  O  O61  1  0.78486213  0.71416259  0.84829732  1
  O  O62  1  0.78549082  0.71531757  0.98322444  1
  O  O63  1  0.71988857  0.97737331  0.41740696  1
  O  O64  1  0.72089766  0.97498533  0.08403804  1
  O  O65  1  0.71372844  0.98814684  0.75012686  1
  O  O66  1  0.99215080  0.80050631  0.01609700  1
  O  O67  1  0.99519520  0.80224763  0.15304011  1
  O  O68  1  0.99381416  0.79251580  0.34864573  1
  O  O69  1  0.99955189  0.78208006  0.48415570  1
  O  O70  1  0.98155782  0.81023424  0.68024693  1
  O  O71  1  0.99459581  0.79473070  0.82035745  1
loop_
_geom_bond_atom_site_label_1
_geom_bond_atom_site_label_2
_geom_bond_distance
_geom_bond_site_symmetry_2
Mn0 O0 1.884403 1_555
Mn0 O45 1.884407 1_545
Mn0 O6 2.012026 1_555
Mn0 O34 2.012049 1_545
Mn0 O28 2.065892 1_545
Mn0 O10 2.065895 1_555
Mn1 O50 1.993775 1_545
Mn1 O34 1.997203 1_545
Mn1 O8 2.001784 1_554
Mn1 O5 2.008922 1_554
Mn1 O9 2.050219 1_555
Mn1 O31 2.056610 1_544
Mn2 O3 1.993772 1_565
Mn2 O6 1.997203 1_565
Mn2 O33 2.001806 1_555
Mn2 O46 2.008922 1_555
Mn2 O27 2.050214 1_555
Mn2 O11 2.056610 1_565
Mn3 O49 1.966473 1_545
Mn3 O2 1.990698 1_555
Mn3 O35 2.023052 1_545
Mn3 O8 2.031670 1_555
Mn3 O13 2.036133 1_555
Mn3 O30 2.049430 1_545
Mn4 O14 1.892153 1_555
Mn4 O32 1.892156 1_545
Mn4 O35 1.995357 1_545
Mn4 O7 1.995379 1_555
Mn4 O48 1.996406 1_545
Mn4 O4 1.996410 1_555
Mn5 O28 1.993876 1_555
Mn5 O10 1.993880 1_555
Mn5 O15 2.007235 1_555
Mn5 O18 2.007257 1_555
Mn5 O22 2.088793 1_555
Mn5 O67 2.088796 1_455
Mn6 O15 1.985070 1_555
Mn6 O27 1.995019 1_555
Mn6 O11 1.998422 1_555
Mn6 O19 2.050413 1_555
Mn6 O21 2.091085 1_555
Mn6 O68 2.114161 1_455
Mn7 O18 1.985070 1_555
Mn7 O9 1.995022 1_555
Mn7 O31 1.998422 1_554
Mn7 O16 2.050390 1_554
Mn7 O66 2.091089 1_455
Mn7 O23 2.114161 1_554
Mn8 O20 1.858010 1_555
Mn8 O16 1.988375 1_555
Mn8 O30 2.001963 1_555
Mn8 O13 2.014800 1_555
Mn8 O26 2.051601 1_555
Mn8 O71 2.068478 1_455
Mn9 O17 1.858010 1_555
Mn9 O19 1.988352 1_555
Mn9 O12 2.001963 1_555
Mn9 O29 2.014804 1_555
Mn9 O69 2.051601 1_455
Mn9 O25 2.068482 1_555
Mn10 O70 1.884403 1_545
Mn10 O24 1.884407 1_555
Mn10 O65 2.012026 1_545
Mn10 O37 2.012049 1_555
Mn10 O41 2.065892 1_555
Mn10 O59 2.065895 1_545
Mn11 O71 1.993772 1_545
Mn11 O65 1.997203 1_545
Mn11 O38 2.001806 1_555
Mn11 O26 2.008922 1_555
Mn11 O44 2.050214 1_555
Mn11 O61 2.056610 1_545
Mn12 O66 1.966477 1_545
Mn12 O23 1.990698 1_554
Mn12 O64 2.023052 1_545
Mn12 O38 2.031647 1_554
Mn12 O39 2.036137 1_555
Mn12 O62 2.049430 1_544
Mn13 O60 1.892153 1_545
Mn13 O43 1.892156 1_555
Mn13 O36 1.995357 1_555
Mn13 O64 1.995379 1_545
Mn13 O22 1.996406 1_555
Mn13 O67 1.996410 1_545
Mn14 O21 1.966473 1_565
Mn14 O68 1.990698 1_555
Mn14 O36 2.023052 1_565
Mn14 O63 2.031670 1_555
Mn14 O58 2.036133 1_555
Mn14 O40 2.049430 1_565
Mn15 O1 1.966477 1_565
Mn15 O47 1.990698 1_555
Mn15 O7 2.023052 1_565
Mn15 O33 2.031647 1_555
Mn15 O29 2.036137 1_555
Mn15 O12 2.049430 1_565
Mn16 O54 1.858010 1_556
Mn16 O53 1.988352 1_555
Mn16 O62 2.001963 1_555
Mn16 O39 2.014804 1_556
Mn16 O5 2.051601 1_655
Mn16 O50 2.068482 1_556
Mn17 O52 1.985070 1_555
Mn17 O57 1.995022 1_555
Mn17 O42 1.998422 1_555
Mn17 O55 2.050390 1_555
Mn17 O1 2.091089 1_655
Mn17 O47 2.114161 1_555
Mn18 O51 1.858010 1_555
Mn18 O55 1.988375 1_555
Mn18 O40 2.001963 1_555
Mn18 O58 2.014800 1_555
Mn18 O46 2.051601 1_555
Mn18 O3 2.068478 1_655
Mn19 O56 1.985070 1_555
Mn19 O44 1.995019 1_555
Mn19 O61 1.998422 1_555
Mn19 O53 2.050413 1_555
Mn19 O49 2.091085 1_555
Mn19 O2 2.114161 1_655
Mn20 O41 1.993876 1_555
Mn20 O59 1.993880 1_555
Mn20 O56 2.007235 1_555
Mn20 O52 2.007257 1_555
Mn20 O48 2.088793 1_555
Mn20 O4 2.088796 1_655
Mn21 O25 1.993775 1_565
Mn21 O37 1.997203 1_565
Mn21 O63 2.001784 1_555
Mn21 O69 2.008922 1_555
Mn21 O57 2.050219 1_555
Mn21 O42 2.056610 1_565
O0 Pr6 2.376880 1_545
O0 Pr1 2.495017 1_555
O0 Pr15 2.586319 1_455
O1 Pr8 2.578733 1_545
O1 Pr0 2.712617 1_555
O1 Pr16 2.769508 1_455
O2 Pr7 2.433413 1_545
O2 Pr2 2.574977 1_555
O2 Pr17 2.832361 1_455
O3 Pr6 2.460975 1_545
O3 Pr1 2.610661 1_555
O3 Pr16 2.758949 1_455
O4 Pr8 2.414060 1_545
O4 Pr17 2.684678 1_455
O4 Pr0 2.703948 1_555
O5 Pr7 2.428182 1_545
O5 Pr2 2.569108 1_555
O5 Pr15 2.882267 1_456
O6 Pr18 2.431373 1_545
O6 Pr1 2.558236 1_555
O7 Pr20 2.386251 1_545
O7 Pr0 2.450072 1_555
O8 Pr19 2.400600 1_545
O8 Pr2 2.512306 1_555
O9 Pr21 2.519275 1_455
O9 Pr3 2.651940 1_555
O9 Pr2 2.815335 1_554
O10 Pr21 2.431229 1_455
O10 Pr3 2.670726 1_555
O10 Pr1 2.693820 1_555
O11 Pr22 2.434014 1_455
O11 Pr4 2.580478 1_555
O11 Pr1 2.918999 1_555
O12 Pr22 2.435713 1_455
O12 Pr4 2.586352 1_555
O12 Pr0 2.821614 1_555
O13 Pr23 2.470529 1_455
O13 Pr5 2.632129 1_555
O13 Pr2 2.725863 1_555
O14 Pr23 2.355166 1_455
O14 Pr5 2.501916 1_555
O14 Pr0 2.606370 1_555
O15 Pr1 2.479422 1_555
O15 Pr6 2.505464 1_555
O16 Pr2 2.389396 1_555
O16 Pr7 2.508885 1_555
O17 Pr0 2.356668 1_555
O17 Pr8 2.424797 1_555
O17 Pr9 2.972693 1_555
O18 Pr12 2.479422 1_555
O18 Pr3 2.505464 1_555
O19 Pr13 2.389396 1_555
O19 Pr4 2.508885 1_555
O20 Pr14 2.356668 1_555
O20 Pr5 2.424797 1_555
O20 Pr23 2.972693 1_455
O21 Pr18 2.578749 1_545
O21 Pr10 2.712632 1_555
O21 Pr4 2.769508 1_555
O22 Pr18 2.414060 1_545
O22 Pr3 2.684678 1_555
O22 Pr10 2.703948 1_555
O23 Pr19 2.433397 1_545
O23 Pr11 2.574963 1_555
O23 Pr3 2.832361 1_556
O24 Pr20 2.376880 1_545
O24 Pr9 2.495017 1_555
O24 Pr5 2.586319 1_555
O25 Pr20 2.460959 1_545
O25 Pr9 2.610646 1_555
O25 Pr4 2.758949 1_555
O26 Pr19 2.428197 1_545
O26 Pr11 2.569123 1_555
O26 Pr5 2.882267 1_555
O27 Pr10 2.519290 1_555
O27 Pr6 2.651955 1_555
O27 Pr13 2.815335 1_555
O28 Pr10 2.431229 1_555
O28 Pr6 2.670726 1_555
O28 Pr12 2.693820 1_555
O29 Pr9 2.470513 1_555
O29 Pr8 2.632113 1_555
O29 Pr13 2.725863 1_555
O30 Pr11 2.435728 1_555
O30 Pr7 2.586366 1_555
O30 Pr14 2.821614 1_555
O31 Pr11 2.433999 1_555
O31 Pr7 2.580464 1_555
O31 Pr12 2.918999 1_556
O32 Pr9 2.355166 1_555
O32 Pr8 2.501916 1_555
O32 Pr14 2.606370 1_555
O33 Pr16 2.400600 1_465
O33 Pr13 2.512306 1_555
O34 Pr15 2.431373 1_465
O34 Pr12 2.558236 1_555
O35 Pr17 2.386251 1_465
O35 Pr14 2.450072 1_555
O36 Pr6 2.386251 1_645
O36 Pr10 2.450072 1_555
O37 Pr8 2.431373 1_645
O37 Pr9 2.558236 1_555
O38 Pr7 2.400600 1_645
O38 Pr11 2.512306 1_555
O39 Pr12 2.470513 1_555
O39 Pr15 2.632113 1_555
O39 Pr11 2.725863 1_554
O40 Pr13 2.435728 1_555
O40 Pr16 2.586366 1_555
O40 Pr10 2.821614 1_555
O41 Pr14 2.431229 1_555
O41 Pr17 2.670726 1_555
O41 Pr9 2.693820 1_555
O42 Pr13 2.433999 1_555
O42 Pr16 2.580464 1_555
O42 Pr9 2.918999 1_555
O43 Pr12 2.355166 1_555
O43 Pr15 2.501916 1_555
O43 Pr10 2.606370 1_555
O44 Pr14 2.519290 1_555
O44 Pr17 2.651955 1_555
O44 Pr11 2.815335 1_555
O45 Pr3 2.376880 1_565
O45 Pr12 2.495017 1_555
O45 Pr18 2.586319 1_555
O46 Pr4 2.428197 1_565
O46 Pr13 2.569123 1_555
O46 Pr18 2.882267 1_555
O47 Pr4 2.433397 1_565
O47 Pr13 2.574963 1_555
O47 Pr20 2.832361 1_555
O48 Pr5 2.414060 1_565
O48 Pr20 2.684678 1_555
O48 Pr14 2.703948 1_555
O49 Pr5 2.578749 1_565
O49 Pr14 2.712632 1_555
O49 Pr19 2.769508 1_555
O50 Pr3 2.460959 1_565
O50 Pr12 2.610646 1_555
O50 Pr19 2.758949 1_554
O51 Pr10 2.356668 1_555
O51 Pr18 2.424797 1_555
O51 Pr1 2.972693 1_655
O52 Pr9 2.479422 1_555
O52 Pr20 2.505464 1_555
O53 Pr11 2.389396 1_555
O53 Pr19 2.508885 1_555
O54 Pr21 2.356668 1_555
O54 Pr15 2.424797 1_555
O54 Pr12 2.972693 1_555
O55 Pr22 2.389396 1_555
O55 Pr16 2.508885 1_555
O56 Pr23 2.479422 1_555
O56 Pr17 2.505464 1_555
O57 Pr0 2.519275 1_655
O57 Pr20 2.651940 1_555
O57 Pr22 2.815335 1_555
O58 Pr1 2.470529 1_655
O58 Pr18 2.632129 1_555
O58 Pr22 2.725863 1_555
O59 Pr0 2.431229 1_655
O59 Pr20 2.670726 1_555
O59 Pr23 2.693820 1_555
O60 Pr1 2.355166 1_655
O60 Pr18 2.501916 1_555
O60 Pr21 2.606370 1_555
O61 Pr2 2.434014 1_655
O61 Pr19 2.580478 1_555
O61 Pr23 2.918999 1_555
O62 Pr2 2.435713 1_655
O62 Pr19 2.586352 1_555
O62 Pr21 2.821614 1_556
O63 Pr4 2.400600 1_565
O63 Pr22 2.512306 1_555
O64 Pr3 2.386251 1_565
O64 Pr21 2.450072 1_555
O65 Pr5 2.431373 1_565
O65 Pr23 2.558236 1_555
O66 Pr15 2.578733 1_565
O66 Pr21 2.712617 1_555
O66 Pr7 2.769508 1_654
O67 Pr15 2.414060 1_565
O67 Pr6 2.684678 1_655
O67 Pr21 2.703948 1_555
O68 Pr16 2.433413 1_565
O68 Pr22 2.574977 1_555
O68 Pr6 2.832361 1_655
O69 Pr16 2.428182 1_565
O69 Pr22 2.569108 1_555
O69 Pr8 2.882267 1_655
O70 Pr17 2.376880 1_565
O70 Pr23 2.495017 1_555
O70 Pr8 2.586319 1_655
O71 Pr17 2.460975 1_565
O71 Pr23 2.610661 1_555
O71 Pr7 2.758949 1_655
