# generated using pymatgen
data_Cs3AlAs2
_symmetry_space_group_name_H-M   'P 1'
_cell_length_a   8.92164164
_cell_length_b   11.52907092
_cell_length_c   19.59059324
_cell_angle_alpha   80.12736915
_cell_angle_beta   90.00000000
_cell_angle_gamma   90.00000000
_symmetry_Int_Tables_number   1
_chemical_formula_structural   Cs3AlAs2
_chemical_formula_sum   'Cs24 Al8 As16'
_cell_volume   1985.21368047
_cell_formula_units_Z   8
loop_
 _symmetry_equiv_pos_site_id
 _symmetry_equiv_pos_as_xyz
  1  'x, y, z'
loop_
 _atom_site_type_symbol
 _atom_site_label
 _atom_site_symmetry_multiplicity
 _atom_site_fract_x
 _atom_site_fract_y
 _atom_site_fract_z
 _atom_site_occupancy
  Cs  Cs0  1  0.56949088  0.62432543  0.61024206  1
  Cs  Cs1  1  0.97702568  0.84957125  0.46804634  1
  Cs  Cs2  1  0.55694987  0.08283923  0.25630599  1
  Cs  Cs3  1  0.58792069  0.26213395  0.57804719  1
  Cs  Cs4  1  0.05694987  0.91716077  0.24369401  1
  Cs  Cs5  1  0.38300593  0.70663400  0.16138774  1
  Cs  Cs6  1  0.41207931  0.73786605  0.42195281  1
  Cs  Cs7  1  0.25803561  0.36094824  0.71165841  1
  Cs  Cs8  1  0.75803561  0.63905176  0.78834159  1
  Cs  Cs9  1  0.74196439  0.63905176  0.28834159  1
  Cs  Cs10  1  0.52297432  0.84957125  0.96804634  1
  Cs  Cs11  1  0.11699407  0.70663400  0.66138774  1
  Cs  Cs12  1  0.94305013  0.08283923  0.75630599  1
  Cs  Cs13  1  0.61699407  0.29336600  0.83861226  1
  Cs  Cs14  1  0.88300593  0.29336600  0.33861226  1
  Cs  Cs15  1  0.08792069  0.73786605  0.92195281  1
  Cs  Cs16  1  0.43050912  0.37567457  0.38975794  1
  Cs  Cs17  1  0.06949088  0.37567457  0.88975794  1
  Cs  Cs18  1  0.93050912  0.62432543  0.11024206  1
  Cs  Cs19  1  0.91207931  0.26213395  0.07804719  1
  Cs  Cs20  1  0.24196439  0.36094824  0.21165841  1
  Cs  Cs21  1  0.02297432  0.15042875  0.53195366  1
  Cs  Cs22  1  0.44305013  0.91716077  0.74369401  1
  Cs  Cs23  1  0.47702568  0.15042875  0.03195366  1
  Al  Al0  1  0.61272058  0.95615187  0.55416896  1
  Al  Al1  1  0.38727942  0.04384813  0.44583104  1
  Al  Al2  1  0.94626354  0.46318710  0.57244377  1
  Al  Al3  1  0.05373646  0.53681290  0.42755623  1
  Al  Al4  1  0.88727942  0.95615187  0.05416896  1
  Al  Al5  1  0.44626354  0.53681290  0.92755623  1
  Al  Al6  1  0.55373646  0.46318710  0.07244377  1
  Al  Al7  1  0.11272058  0.04384813  0.94583104  1
  As  As0  1  0.84085057  0.05669819  0.93639037  1
  As  As1  1  0.20925828  0.10363548  0.35951276  1
  As  As2  1  0.70925828  0.89636452  0.14048724  1
  As  As3  1  0.29366540  0.49126161  0.03229692  1
  As  As4  1  0.35869669  0.59740367  0.81334809  1
  As  As5  1  0.65914943  0.05669819  0.43639037  1
  As  As6  1  0.79366540  0.50873839  0.46770308  1
  As  As7  1  0.64130331  0.40259633  0.18665191  1
  As  As8  1  0.15914943  0.94330181  0.06360963  1
  As  As9  1  0.29074172  0.10363548  0.85951276  1
  As  As10  1  0.34085057  0.94330181  0.56360963  1
  As  As11  1  0.85869669  0.40259633  0.68665191  1
  As  As12  1  0.14130331  0.59740367  0.31334809  1
  As  As13  1  0.79074172  0.89636452  0.64048724  1
  As  As14  1  0.70633460  0.50873839  0.96770308  1
  As  As15  1  0.20633460  0.49126161  0.53229692  1
loop_
_geom_bond_atom_site_label_1
_geom_bond_atom_site_label_2
_geom_bond_distance
_geom_bond_site_symmetry_2
Al0 As13 2.336128 1_555
Al0 As5 2.433519 1_565
Al0 As10 2.435146 1_555
Al0 Cs3 3.643934 1_565
Al0 Cs0 3.814441 1_555
Al1 As1 2.336128 1_555
Al1 As10 2.433519 1_545
Al1 As5 2.435146 1_555
Al1 Cs6 3.643934 1_545
Al1 Cs16 3.814441 1_555
Al2 As11 2.359732 1_555
Al2 As6 2.443394 1_555
Al2 As15 2.453500 1_655
Al2 Cs21 3.883336 1_655
Al3 As12 2.359732 1_555
Al3 As15 2.443394 1_555
Al3 As6 2.453500 1_455
Al3 Cs1 3.883336 1_455
Al4 As2 2.336128 1_555
Al4 As0 2.433519 1_564
Al4 As8 2.435146 1_655
Al4 Cs19 3.643934 1_565
Al4 Cs18 3.814441 1_555
Al5 As4 2.359732 1_555
Al5 As3 2.443394 1_556
Al5 As14 2.453500 1_555
Al5 Cs10 3.883336 1_555
Al6 As7 2.359732 1_555
Al6 As14 2.443394 1_554
Al6 As3 2.453500 1_555
Al6 Cs23 3.883336 1_555
Al7 As9 2.336128 1_555
Al7 As8 2.433519 1_546
Al7 As0 2.435146 1_455
Al7 Cs15 3.643934 1_545
Al7 Cs17 3.814441 1_555
As0 Cs12 3.606117 1_555
As0 Cs13 3.648379 1_555
As0 Cs10 3.690798 1_545
As0 Cs23 3.987779 1_556
As1 Cs14 3.621812 1_455
As1 Cs4 3.645456 1_545
As1 Cs2 3.732828 1_555
As1 Cs20 3.785382 1_555
As1 Cs16 3.836854 1_555
As1 Cs21 3.884647 1_555
As1 Cs1 3.906113 1_445
As2 Cs5 3.621812 1_555
As2 Cs2 3.645456 1_565
As2 Cs4 3.732828 1_655
As2 Cs9 3.785382 1_555
As2 Cs18 3.836854 1_555
As2 Cs10 3.884647 1_554
As2 Cs23 3.906113 1_565
As3 Cs20 3.606442 1_555
As3 Cs15 3.744075 1_554
As3 Cs17 3.853514 1_554
As3 Cs18 3.998219 1_455
As4 Cs8 3.617062 1_555
As4 Cs11 3.716555 1_555
As4 Cs7 3.750898 1_555
As4 Cs17 3.757759 1_555
As4 Cs15 3.763870 1_555
As4 Cs22 3.780696 1_555
As5 Cs2 3.606117 1_555
As5 Cs14 3.648379 1_555
As5 Cs1 3.690798 1_545
As5 Cs21 3.987779 1_655
As6 Cs9 3.606442 1_555
As6 Cs3 3.744075 1_555
As6 Cs0 3.853514 1_555
As6 Cs16 3.998219 1_555
As7 Cs20 3.617062 1_555
As7 Cs14 3.716555 1_555
As7 Cs9 3.750898 1_555
As7 Cs18 3.757759 1_555
As7 Cs19 3.763870 1_555
As7 Cs2 3.780696 1_555
As8 Cs4 3.606117 1_555
As8 Cs5 3.648379 1_555
As8 Cs23 3.690798 1_565
As8 Cs10 3.987779 1_554
As9 Cs13 3.621812 1_555
As9 Cs22 3.645456 1_545
As9 Cs12 3.732828 1_455
As9 Cs7 3.785382 1_555
As9 Cs17 3.836854 1_555
As9 Cs23 3.884647 1_556
As9 Cs10 3.906113 1_545
As10 Cs22 3.606117 1_555
As10 Cs11 3.648379 1_555
As10 Cs21 3.690798 1_565
As10 Cs1 3.987779 1_455
As11 Cs7 3.617062 1_655
As11 Cs13 3.716555 1_555
As11 Cs8 3.750898 1_555
As11 Cs0 3.757759 1_555
As11 Cs3 3.763870 1_555
As11 Cs12 3.780696 1_555
As12 Cs9 3.617062 1_455
As12 Cs5 3.716555 1_555
As12 Cs20 3.750898 1_555
As12 Cs16 3.757759 1_555
As12 Cs6 3.763870 1_555
As12 Cs4 3.780696 1_555
As13 Cs11 3.621812 1_655
As13 Cs12 3.645456 1_565
As13 Cs22 3.732828 1_555
As13 Cs8 3.785382 1_555
As13 Cs0 3.836854 1_555
As13 Cs1 3.884647 1_555
As13 Cs21 3.906113 1_665
As14 Cs8 3.606442 1_555
As14 Cs19 3.744075 1_556
As14 Cs18 3.853514 1_556
As14 Cs17 3.998219 1_655
As15 Cs7 3.606442 1_555
As15 Cs6 3.744075 1_555
As15 Cs16 3.853514 1_555
As15 Cs0 3.998219 1_555
