# generated using pymatgen
data_UAl4
_symmetry_space_group_name_H-M   'P 1'
_cell_length_a   4.34121629
_cell_length_b   6.28677087
_cell_length_c   7.93405881
_cell_angle_alpha   113.31351450
_cell_angle_beta   105.87746176
_cell_angle_gamma   89.99999965
_symmetry_Int_Tables_number   1
_chemical_formula_structural   UAl4
_chemical_formula_sum   'U2 Al8'
_cell_volume   189.82950196
_cell_formula_units_Z   2
loop_
 _symmetry_equiv_pos_site_id
 _symmetry_equiv_pos_as_xyz
  1  'x, y, z'
loop_
 _atom_site_type_symbol
 _atom_site_label
 _atom_site_symmetry_multiplicity
 _atom_site_fract_x
 _atom_site_fract_y
 _atom_site_fract_z
 _atom_site_occupancy
  U  U0  1  0.11312512  0.36315372  0.22625024  1
  U  U1  1  0.88687488  0.63684628  0.77374976  1
  Al  Al0  1  0.30199051  0.26917274  0.60398103  1
  Al  Al1  1  0.69802788  0.16495569  0.39605575  1
  Al  Al2  1  0.30197212  0.83504431  0.60394425  1
  Al  Al3  1  0.50000000  0.50000000  0.00000000  1
  Al  Al4  1  0.69800949  0.73082726  0.39601897  1
  Al  Al5  1  0.11325150  0.86324911  0.22650201  1
  Al  Al6  1  0.88674850  0.13675089  0.77349799  1
  Al  Al7  1  0.50000000  0.00000000  0.00000000  1
loop_
_geom_bond_atom_site_label_1
_geom_bond_atom_site_label_2
_geom_bond_distance
_geom_bond_site_symmetry_2
Al0 Al1 2.608270 1_555
Al0 Al1 2.608271 1_455
Al0 Al2 2.729150 1_545
Al0 Al3 2.762303 1_556
Al0 Al6 2.822122 1_555
Al0 Al6 2.822125 1_455
Al0 Al5 2.959932 1_545
Al0 U1 3.044436 1_455
Al0 U1 3.044437 1_555
Al0 U0 3.171756 1_555
Al1 Al4 2.729150 1_545
Al1 Al7 2.762477 1_555
Al1 Al5 2.822023 1_545
Al1 Al5 2.822025 1_645
Al1 Al6 2.957777 1_555
Al1 U0 3.045008 1_655
Al1 U0 3.045009 1_555
Al1 U1 3.173673 1_555
Al2 Al4 2.608270 1_555
Al2 Al4 2.608271 1_455
Al2 Al7 2.762477 1_566
Al2 Al6 2.822023 1_565
Al2 Al6 2.822025 1_465
Al2 Al5 2.957777 1_555
Al2 U1 3.045008 1_455
Al2 U1 3.045009 1_555
Al2 U0 3.173673 1_555
Al3 Al4 2.762303 1_555
Al3 U1 3.107285 1_554
Al3 U0 3.107285 1_555
Al3 U1 3.107286 1_454
Al3 U0 3.107286 1_655
Al3 Al6 3.109031 1_554
Al3 Al5 3.109031 1_555
Al3 Al5 3.109034 1_655
Al3 Al6 3.109034 1_454
Al4 Al5 2.822122 1_555
Al4 Al5 2.822125 1_655
Al4 Al6 2.959932 1_565
Al4 U0 3.044436 1_655
Al4 U0 3.044437 1_555
Al4 U1 3.171756 1_555
Al5 Al7 3.108268 1_565
Al5 Al7 3.108271 1_465
Al5 U0 3.143195 1_555
Al5 U0 3.143577 1_565
Al5 U1 3.149092 1_454
Al6 Al7 3.108268 1_556
Al6 Al7 3.108271 1_656
Al6 U1 3.143195 1_555
Al6 U1 3.143577 1_545
Al6 U0 3.149092 1_656
Al7 U1 3.108242 1_544
Al7 U0 3.108242 1_555
Al7 U1 3.108242 1_444
Al7 U0 3.108242 1_655
