# generated using pymatgen
data_YbGa2Ge3
_symmetry_space_group_name_H-M   'P 1'
_cell_length_a   11.87598771
_cell_length_b   11.87598771
_cell_length_c   10.82942500
_cell_angle_alpha   90.00000000
_cell_angle_beta   90.00000000
_cell_angle_gamma   159.52820352
_symmetry_Int_Tables_number   1
_chemical_formula_structural   YbGa2Ge3
_chemical_formula_sum   'Yb4 Ga8 Ge12'
_cell_volume   534.19272011
_cell_formula_units_Z   4
loop_
 _symmetry_equiv_pos_site_id
 _symmetry_equiv_pos_as_xyz
  1  'x, y, z'
loop_
 _atom_site_type_symbol
 _atom_site_label
 _atom_site_symmetry_multiplicity
 _atom_site_fract_x
 _atom_site_fract_y
 _atom_site_fract_z
 _atom_site_occupancy
  Yb  Yb0  1  0.01830400  0.98169600  0.63146600  1
  Yb  Yb1  1  0.29981400  0.70018600  0.81195000  1
  Yb  Yb2  1  0.98169600  0.01830400  0.13146600  1
  Yb  Yb3  1  0.70018600  0.29981400  0.31195000  1
  Ga  Ga0  1  0.15055300  0.84944700  0.75569400  1
  Ga  Ga1  1  0.48523200  0.51476800  0.37797600  1
  Ga  Ga2  1  0.11401100  0.88598900  0.12927300  1
  Ga  Ga3  1  0.84944700  0.15055300  0.25569400  1
  Ga  Ga4  1  0.88598900  0.11401100  0.62927300  1
  Ga  Ga5  1  0.51476800  0.48523200  0.87797600  1
  Ga  Ga6  1  0.74903300  0.25096700  0.99892500  1
  Ga  Ga7  1  0.25096700  0.74903300  0.49892500  1
  Ge  Ge0  1  0.41286500  0.58713500  0.96119600  1
  Ge  Ge1  1  0.58713500  0.41286500  0.46119600  1
  Ge  Ge2  1  0.42841500  0.57158500  0.72478600  1
  Ge  Ge3  1  0.29439700  0.70560300  0.28719900  1
  Ge  Ge4  1  0.07010000  0.92990000  0.90822500  1
  Ge  Ge5  1  0.70560300  0.29439700  0.78719900  1
  Ge  Ge6  1  0.57158500  0.42841500  0.22478600  1
  Ge  Ge7  1  0.22256400  0.77743600  0.10799900  1
  Ge  Ge8  1  0.77743600  0.22256400  0.60799900  1
  Ge  Ge9  1  0.14145800  0.85854200  0.52311900  1
  Ge  Ge10  1  0.85854200  0.14145800  0.02311900  1
  Ge  Ge11  1  0.92990000  0.07010000  0.40822500  1
loop_
_geom_bond_atom_site_label_1
_geom_bond_atom_site_label_2
_geom_bond_distance
_geom_bond_site_symmetry_2
Ga0 Ge5 2.495154 1_455
Ga0 Ge5 2.495154 1_565
Ga0 Ge4 2.502961 1_555
Ga0 Ge9 2.527609 1_555
Ga0 Yb0 3.371244 1_555
Ga0 Yb1 3.541611 1_555
Ga1 Ge11 2.496739 1_565
Ga1 Ge11 2.496739 1_455
Ga1 Ge1 2.546672 1_555
Ga1 Ge6 2.612686 1_555
Ga1 Yb2 3.403981 1_565
Ga1 Yb2 3.403981 1_455
Ga1 Yb0 3.547833 1_545
Ga1 Yb0 3.547833 1_655
Ga2 Ge7 2.547750 1_555
Ga2 Ge6 2.550878 1_455
Ga2 Ge6 2.550878 1_565
Ga2 Ge4 2.604579 1_554
Ga2 Yb2 3.092815 1_465
Ga2 Yb3 3.524844 1_565
Ga2 Yb3 3.524844 1_455
Ga3 Ge3 2.495154 1_545
Ga3 Ge3 2.495154 1_655
Ga3 Ge11 2.502961 1_555
Ga3 Ge10 2.527609 1_555
Ga3 Yb2 3.371244 1_555
Ga3 Yb3 3.541611 1_555
Ga4 Ge8 2.547750 1_555
Ga4 Ge2 2.550878 1_655
Ga4 Ge2 2.550878 1_545
Ga4 Ge11 2.604579 1_555
Ga4 Yb0 3.092815 1_645
Ga4 Yb1 3.524844 1_545
Ga4 Yb1 3.524844 1_655
Ga5 Ge4 2.496739 1_545
Ga5 Ge4 2.496739 1_655
Ga5 Ge0 2.546672 1_555
Ga5 Ge2 2.612686 1_555
Ga5 Yb0 3.403981 1_545
Ga5 Yb0 3.403981 1_655
Ga5 Yb2 3.547833 1_456
Ga5 Yb2 3.547833 1_566
Ga6 Ge7 2.496342 1_546
Ga6 Ge7 2.496342 1_656
Ga6 Ge5 2.507538 1_555
Ga6 Ge10 2.573032 1_556
Ga6 Yb1 3.156343 1_545
Ga6 Yb1 3.156343 1_655
Ga6 Yb3 3.576993 1_556
Ga7 Ge8 2.496342 1_565
Ga7 Ge8 2.496342 1_455
Ga7 Ge3 2.507538 1_555
Ga7 Ge9 2.573032 1_555
Ga7 Yb3 3.156343 1_455
Ga7 Yb3 3.156343 1_565
Ga7 Yb1 3.576993 1_555
Ge0 Ge10 2.552575 1_456
Ge0 Ge10 2.552575 1_566
Ge0 Ge2 2.585856 1_555
Ge0 Yb1 3.097546 1_555
Ge0 Yb2 3.231435 1_566
Ge0 Yb2 3.231435 1_456
Ge1 Ge9 2.552575 1_545
Ge1 Ge9 2.552575 1_655
Ge1 Ge6 2.585856 1_555
Ge1 Yb3 3.097546 1_555
Ge1 Yb0 3.231435 1_545
Ge1 Yb0 3.231435 1_655
Ge2 Yb0 3.144753 1_545
Ge2 Yb0 3.144753 1_655
Ge2 Yb1 3.150640 1_555
Ge3 Ge7 2.566158 1_555
Ge3 Yb3 3.061816 1_565
Ge3 Yb3 3.061816 1_455
Ge4 Yb2 3.180324 1_466
Ge4 Yb0 3.232428 1_555
Ge5 Ge8 2.566158 1_555
Ge5 Yb1 3.061816 1_655
Ge5 Yb1 3.061816 1_545
Ge6 Yb2 3.144753 1_455
Ge6 Yb2 3.144753 1_565
Ge6 Yb3 3.150640 1_555
Ge7 Yb3 3.099278 1_455
Ge7 Yb3 3.099278 1_565
Ge7 Yb1 3.679541 1_554
Ge8 Yb1 3.099278 1_655
Ge8 Yb1 3.099278 1_545
Ge8 Yb3 3.679541 1_555
Ge9 Yb0 3.108541 1_555
Ge9 Yb3 3.401125 1_565
Ge9 Yb3 3.401125 1_455
Ge10 Yb2 3.108541 1_555
Ge10 Yb1 3.401125 1_544
Ge10 Yb1 3.401125 1_654
Ge11 Yb0 3.180324 1_645
Ge11 Yb2 3.232428 1_555
