# generated using pymatgen
data_La4Mn(Cu3S5)2
_symmetry_space_group_name_H-M   'P 1'
_cell_length_a   6.58875881
_cell_length_b   7.29630154
_cell_length_c   8.81708193
_cell_angle_alpha   96.43298256
_cell_angle_beta   105.73933488
_cell_angle_gamma   89.87984219
_symmetry_Int_Tables_number   1
_chemical_formula_structural   La4Mn(Cu3S5)2
_chemical_formula_sum   'La4 Mn1 Cu6 S10'
_cell_volume   405.22974747
_cell_formula_units_Z   1
loop_
 _symmetry_equiv_pos_site_id
 _symmetry_equiv_pos_as_xyz
  1  'x, y, z'
loop_
 _atom_site_type_symbol
 _atom_site_label
 _atom_site_symmetry_multiplicity
 _atom_site_fract_x
 _atom_site_fract_y
 _atom_site_fract_z
 _atom_site_occupancy
  La  La0  1  0.72374838  0.92621901  0.82701741  1
  La  La1  1  0.05805462  0.41047593  0.75278418  1
  La  La2  1  0.94194538  0.58952407  0.24721582  1
  La  La3  1  0.27625162  0.07378099  0.17298259  1
  Mn  Mn0  1  0.50000000  0.50000000  0.50000000  1
  Cu  Cu0  1  0.55550956  0.33731356  0.95051523  1
  Cu  Cu1  1  0.77667546  0.20360901  0.34458800  1
  Cu  Cu2  1  0.22332454  0.79639099  0.65541200  1
  Cu  Cu3  1  0.44449044  0.66268644  0.04948477  1
  Cu  Cu4  1  0.66820773  0.90453714  0.42585289  1
  Cu  Cu5  1  0.33179227  0.09546286  0.57414711  1
  S  S0  1  0.12833695  0.29485134  0.42611370  1
  S  S1  1  0.52862455  0.41435372  0.21653728  1
  S  S2  1  0.87166305  0.70514866  0.57388630  1
  S  S3  1  0.90959415  0.27055877  0.00022569  1
  S  S4  1  0.31844803  0.09232894  0.83174606  1
  S  S5  1  0.68046223  0.19213698  0.58095114  1
  S  S6  1  0.31953777  0.80786302  0.41904886  1
  S  S7  1  0.09040585  0.72944123  0.99977431  1
  S  S8  1  0.47137545  0.58564628  0.78346272  1
  S  S9  1  0.68155197  0.90767106  0.16825394  1
loop_
_geom_bond_atom_site_label_1
_geom_bond_atom_site_label_2
_geom_bond_distance
_geom_bond_site_symmetry_2
La0 S3 2.877927 1_566
La0 S8 2.923073 1_555
La0 S4 2.938934 1_565
La0 S7 2.949044 1_655
La0 S2 2.983219 1_555
La0 S5 3.026242 1_565
La0 S9 3.113384 1_556
La1 S2 2.883882 1_455
La1 S3 2.901714 1_456
La1 S5 2.907511 1_455
La1 S4 2.917887 1_555
La1 S8 2.942854 1_555
La1 S7 2.969627 1_555
La1 S0 3.065883 1_555
La2 S0 2.883882 1_655
La2 S7 2.901714 1_654
La2 S6 2.907511 1_655
La2 S9 2.917887 1_555
La2 S1 2.942854 1_555
La2 S3 2.969627 1_555
La2 S2 3.065883 1_555
La3 S7 2.877927 1_544
La3 S1 2.923073 1_555
La3 S9 2.938934 1_545
La3 S3 2.949044 1_455
La3 S0 2.983219 1_555
La3 S6 3.026242 1_545
La3 S4 3.113384 1_554
Mn0 S1 2.564742 1_555
Mn0 S8 2.564742 1_555
Mn0 S5 2.618501 1_555
Mn0 S6 2.618501 1_555
Mn0 S2 2.755519 1_555
Mn0 S0 2.755519 1_555
Cu0 S3 2.315263 1_556
Cu0 S4 2.331578 1_555
Cu0 S1 2.403840 1_556
Cu0 S8 2.431181 1_555
Cu1 S0 2.307403 1_655
Cu1 S5 2.346937 1_555
Cu1 S1 2.384869 1_555
Cu1 S9 2.489416 1_545
Cu2 S2 2.307403 1_455
Cu2 S6 2.346937 1_555
Cu2 S8 2.384869 1_555
Cu2 S4 2.489416 1_565
Cu3 S7 2.315263 1_554
Cu3 S9 2.331578 1_555
Cu3 S8 2.403840 1_554
Cu3 S1 2.431181 1_555
Cu4 S2 2.255019 1_555
Cu4 S9 2.299328 1_555
Cu4 S5 2.361724 1_565
Cu4 S6 2.387735 1_555
Cu5 S0 2.255019 1_555
Cu5 S4 2.299328 1_555
Cu5 S6 2.361724 1_545
Cu5 S5 2.387735 1_555
