# generated using pymatgen
data_NaPr2RuO6
_symmetry_space_group_name_H-M   'P 1'
_cell_length_a   6.00227200
_cell_length_b   5.58387700
_cell_length_c   9.72230425
_cell_angle_alpha   55.79267209
_cell_angle_beta   90.00000000
_cell_angle_gamma   90.00000000
_symmetry_Int_Tables_number   1
_chemical_formula_structural   NaPr2RuO6
_chemical_formula_sum   'Na2 Pr4 Ru2 O12'
_cell_volume   269.48263835
_cell_formula_units_Z   2
loop_
 _symmetry_equiv_pos_site_id
 _symmetry_equiv_pos_as_xyz
  1  'x, y, z'
loop_
 _atom_site_type_symbol
 _atom_site_label
 _atom_site_symmetry_multiplicity
 _atom_site_fract_x
 _atom_site_fract_y
 _atom_site_fract_z
 _atom_site_occupancy
  Na  Na0  1  0.00000000  0.00000000  0.00000000  1
  Na  Na1  1  0.50000000  0.00000000  0.50000000  1
  Pr  Pr0  1  0.07154700  0.77308000  0.74669200  1
  Pr  Pr1  1  0.57154700  0.22692000  0.75330800  1
  Pr  Pr2  1  0.92845300  0.22692000  0.25330800  1
  Pr  Pr3  1  0.42845300  0.77308000  0.24669200  1
  Ru  Ru0  1  0.50000000  0.50000000  0.00000000  1
  Ru  Ru1  1  0.00000000  0.50000000  0.50000000  1
  O  O0  1  0.32718400  0.84284000  0.94893500  1
  O  O1  1  0.82718400  0.15716000  0.55106500  1
  O  O2  1  0.67281600  0.15716000  0.05106500  1
  O  O3  1  0.17281600  0.84284000  0.44893500  1
  O  O4  1  0.45173300  0.61398700  0.76910300  1
  O  O5  1  0.95173300  0.38601300  0.73089700  1
  O  O6  1  0.54826700  0.38601300  0.23089700  1
  O  O7  1  0.04826700  0.61398700  0.26910300  1
  O  O8  1  0.78096400  0.73194200  0.93274800  1
  O  O9  1  0.28096400  0.26805800  0.56725200  1
  O  O10  1  0.21903600  0.26805800  0.06725200  1
  O  O11  1  0.71903600  0.73194200  0.43274800  1
loop_
_geom_bond_atom_site_label_1
_geom_bond_atom_site_label_2
_geom_bond_distance
_geom_bond_site_symmetry_2
Na0 O7 2.287841 1_545
Na0 O5 2.287841 1_454
Na0 O0 2.315851 1_544
Na0 O2 2.315851 1_455
Na0 O10 2.344527 1_555
Na0 O8 2.344527 1_444
Na1 O4 2.287841 1_545
Na1 O6 2.287841 1_555
Na1 O1 2.315851 1_555
Na1 O3 2.315851 1_545
Na1 O9 2.344527 1_555
Na1 O11 2.344527 1_545
O0 Ru0 1.979557 1_556
O0 Pr1 2.404556 1_565
O0 Pr0 2.689521 1_555
O0 Pr3 2.762908 1_556
O1 Ru1 1.979557 1_655
O1 Pr0 2.404556 1_645
O1 Pr1 2.689521 1_555
O1 Pr2 2.762908 1_555
O2 Ru0 1.979557 1_555
O2 Pr3 2.404556 1_545
O2 Pr2 2.689521 1_555
O2 Pr1 2.762908 1_554
O3 Ru1 1.979557 1_555
O3 Pr2 2.404556 1_465
O3 Pr3 2.689521 1_555
O3 Pr0 2.762908 1_555
O4 Ru0 1.980371 1_556
O4 Pr1 2.363328 1_555
O4 Pr0 2.413803 1_555
O5 Ru1 1.980371 1_655
O5 Pr0 2.363328 1_655
O5 Pr1 2.413803 1_555
O6 Ru0 1.980371 1_555
O6 Pr3 2.363328 1_555
O6 Pr2 2.413803 1_555
O7 Ru1 1.980371 1_555
O7 Pr2 2.363328 1_455
O7 Pr3 2.413803 1_555
O8 Ru0 1.999191 1_556
O8 Pr0 2.428939 1_655
O8 Pr1 2.615550 1_565
O8 Pr2 2.926987 1_556
O9 Ru1 1.999191 1_555
O9 Pr1 2.428939 1_555
O9 Pr0 2.615550 1_545
O9 Pr3 2.926987 1_555
O10 Ru0 1.999191 1_555
O10 Pr2 2.428939 1_455
O10 Pr3 2.615550 1_545
O10 Pr0 2.926987 1_554
O11 Ru1 1.999191 1_655
O11 Pr3 2.428939 1_555
O11 Pr2 2.615550 1_565
O11 Pr1 2.926987 1_555
