# generated using pymatgen
data_Mn17Fe13O40
_symmetry_space_group_name_H-M   'P 1'
_cell_length_a   6.19928100
_cell_length_b   6.20997642
_cell_length_c   21.90088294
_cell_angle_alpha   97.82994869
_cell_angle_beta   98.13167855
_cell_angle_gamma   89.60254158
_symmetry_Int_Tables_number   1
_chemical_formula_structural   Mn17Fe13O40
_chemical_formula_sum   'Mn17 Fe13 O40'
_cell_volume   826.80265405
_cell_formula_units_Z   1
loop_
 _symmetry_equiv_pos_site_id
 _symmetry_equiv_pos_as_xyz
  1  'x, y, z'
loop_
 _atom_site_type_symbol
 _atom_site_label
 _atom_site_symmetry_multiplicity
 _atom_site_fract_x
 _atom_site_fract_y
 _atom_site_fract_z
 _atom_site_occupancy
  Mn  Mn0  1  0.70169200  0.70353300  0.89948300  1
  Mn  Mn1  1  0.47021300  0.22190600  0.94938800  1
  Mn  Mn2  1  0.08046800  0.82052200  0.14992700  1
  Mn  Mn3  1  0.91953200  0.17947800  0.85007300  1
  Mn  Mn4  1  0.67370400  0.42826400  0.35051300  1
  Mn  Mn5  1  0.60597000  0.60131400  0.19953300  1
  Mn  Mn6  1  0.52978700  0.77809400  0.05061200  1
  Mn  Mn7  1  0.29830800  0.29646700  0.10051700  1
  Mn  Mn8  1  0.27108100  0.02343200  0.54943800  1
  Mn  Mn9  1  0.20582800  0.19842600  0.40025700  1
  Mn  Mn10  1  0.12233100  0.37123700  0.24956300  1
  Mn  Mn11  1  0.00000000  0.50000000  0.50000000  1
  Mn  Mn12  1  0.87766900  0.62876300  0.75043700  1
  Mn  Mn13  1  0.79417200  0.80157400  0.59974300  1
  Mn  Mn14  1  0.72891900  0.97656800  0.45056200  1
  Mn  Mn15  1  0.39403000  0.39868600  0.80046700  1
  Mn  Mn16  1  0.32629600  0.57173600  0.64948700  1
  Fe  Fe0  1  0.20071600  0.70230500  0.90074200  1
  Fe  Fe1  1  0.00000000  0.00000000  0.00000000  1
  Fe  Fe2  1  0.00000000  0.50000000  0.00000000  1
  Fe  Fe3  1  0.90233400  0.90343100  0.29952600  1
  Fe  Fe4  1  0.79928400  0.29769500  0.09925800  1
  Fe  Fe5  1  0.60096900  0.10041000  0.20069200  1
  Fe  Fe6  1  0.50000000  0.50000000  0.50000000  1
  Fe  Fe7  1  0.40331500  0.89538300  0.30066900  1
  Fe  Fe8  1  0.19965100  0.70012900  0.39980600  1
  Fe  Fe9  1  0.09766600  0.09656900  0.70047400  1
  Fe  Fe10  1  0.80034900  0.29987100  0.60019400  1
  Fe  Fe11  1  0.59668500  0.10461700  0.69933100  1
  Fe  Fe12  1  0.39903100  0.89959000  0.79930800  1
  O  O0  1  0.63768600  0.67211000  0.80752600  1
  O  O1  1  0.42820700  0.46262700  0.89242900  1
  O  O2  1  0.45255800  0.91369600  0.89616000  1
  O  O3  1  0.18627800  0.64804900  0.80389100  1
  O  O4  1  0.22693900  0.25332700  0.00736000  1
  O  O5  1  0.22037700  0.74226500  0.99642500  1
  O  O6  1  0.02412700  0.06175600  0.09297800  1
  O  O7  1  0.05168000  0.51229800  0.09579200  1
  O  O8  1  0.97587300  0.93824400  0.90702200  1
  O  O9  1  0.94832000  0.48770200  0.90420800  1
  O  O10  1  0.77962300  0.25773500  0.00357500  1
  O  O11  1  0.77306100  0.74667300  0.99264000  1
  O  O12  1  0.84001600  0.87820800  0.20702000  1
  O  O13  1  0.81372200  0.35195100  0.19610900  1
  O  O14  1  0.65313600  0.67278600  0.29286500  1
  O  O15  1  0.64505900  0.11964400  0.29645100  1
  O  O16  1  0.57179300  0.53737300  0.10757100  1
  O  O17  1  0.54744200  0.08630400  0.10384000  1
  O  O18  1  0.38931800  0.84594300  0.20443000  1
  O  O19  1  0.36231400  0.32789000  0.19247400  1
  O  O20  1  0.41800700  0.44688700  0.40387900  1
  O  O21  1  0.43307200  0.92001200  0.39339800  1
  O  O22  1  0.26419400  0.26266300  0.49184600  1
  O  O23  1  0.24560600  0.71399000  0.49641800  1
  O  O24  1  0.15828000  0.12683500  0.30740400  1
  O  O25  1  0.15080700  0.67994200  0.30391200  1
  O  O26  1  0.96936800  0.47518300  0.40811300  1
  O  O27  1  0.98391200  0.95561400  0.39597000  1
  O  O28  1  0.01608800  0.04438600  0.60403000  1
  O  O29  1  0.03063200  0.52481700  0.59188700  1
  O  O30  1  0.84172000  0.87316500  0.69259600  1
  O  O31  1  0.84919300  0.32005800  0.69608800  1
  O  O32  1  0.73580600  0.73733700  0.50815400  1
  O  O33  1  0.75439400  0.28601000  0.50358200  1
  O  O34  1  0.56692800  0.07998800  0.60660200  1
  O  O35  1  0.58199300  0.55311300  0.59612100  1
  O  O36  1  0.61068200  0.15405700  0.79557000  1
  O  O37  1  0.34686400  0.32721400  0.70713500  1
  O  O38  1  0.35494100  0.88035600  0.70354900  1
  O  O39  1  0.15998400  0.12179200  0.79298000  1
loop_
_geom_bond_atom_site_label_1
_geom_bond_atom_site_label_2
_geom_bond_distance
_geom_bond_site_symmetry_2
Mn0 O0 1.979748 1_555
Mn0 O11 2.006833 1_555
Mn0 O2 2.014956 1_555
Mn0 O9 2.027144 1_555
Mn0 O8 2.220402 1_555
Mn0 O1 2.243765 1_555
Mn1 O1 2.066249 1_555
Mn1 O2 2.095977 1_545
Mn1 O4 2.096328 1_556
Mn1 O10 2.104058 1_556
Mn2 O6 2.073728 1_565
Mn2 O12 2.076439 1_455
Mn2 O18 2.102840 1_555
Mn2 O7 2.104213 1_555
Mn3 O8 2.073728 1_545
Mn3 O39 2.076439 1_655
Mn3 O36 2.102840 1_555
Mn3 O9 2.104213 1_555
Mn4 O26 2.070976 1_555
Mn4 O20 2.092075 1_555
Mn4 O14 2.095273 1_555
Mn4 O15 2.105571 1_555
Mn5 O16 1.980278 1_555
Mn5 O13 2.007567 1_555
Mn5 O14 2.011510 1_555
Mn5 O18 2.022677 1_555
Mn5 O12 2.231419 1_555
Mn5 O19 2.255336 1_555
Mn6 O16 2.066249 1_555
Mn6 O17 2.095977 1_565
Mn6 O11 2.096328 1_554
Mn6 O5 2.104058 1_554
Mn7 O19 1.979748 1_555
Mn7 O4 2.006833 1_555
Mn7 O17 2.014956 1_555
Mn7 O7 2.027144 1_555
Mn7 O6 2.220402 1_555
Mn7 O16 2.243765 1_555
Mn8 O34 2.072191 1_555
Mn8 O22 2.072256 1_555
Mn8 O23 2.100072 1_545
Mn8 O28 2.105872 1_555
Mn9 O22 1.972882 1_555
Mn9 O24 2.001456 1_555
Mn9 O20 2.020496 1_555
Mn9 O27 2.031925 1_445
Mn9 O21 2.225241 1_545
Mn9 O26 2.255663 1_455
Mn10 O19 2.068329 1_555
Mn10 O13 2.091981 1_455
Mn10 O24 2.096942 1_555
Mn10 O25 2.108688 1_555
Mn11 O26 1.979239 1_455
Mn11 O29 1.979239 1_555
Mn11 O23 2.044645 1_555
Mn11 O33 2.044645 1_455
Mn11 O22 2.205474 1_555
Mn11 O32 2.205474 1_455
Mn12 O0 2.068329 1_555
Mn12 O3 2.091981 1_655
Mn12 O30 2.096942 1_555
Mn12 O31 2.108688 1_555
Mn13 O32 1.972882 1_555
Mn13 O30 2.001456 1_555
Mn13 O35 2.020496 1_555
Mn13 O28 2.031925 1_665
Mn13 O34 2.225241 1_565
Mn13 O29 2.255663 1_655
Mn14 O21 2.072191 1_555
Mn14 O32 2.072256 1_555
Mn14 O33 2.100072 1_565
Mn14 O27 2.105872 1_555
Mn15 O1 1.980278 1_555
Mn15 O3 2.007567 1_555
Mn15 O37 2.011510 1_555
Mn15 O36 2.022677 1_555
Mn15 O39 2.231419 1_555
Mn15 O0 2.255336 1_555
Mn16 O29 2.070976 1_555
Mn16 O35 2.092075 1_555
Mn16 O37 2.095273 1_555
Mn16 O38 2.105571 1_555
Fe0 O8 2.019779 1_455
Fe0 O1 2.051107 1_555
Fe0 O5 2.062574 1_555
Fe0 O2 2.068684 1_555
Fe0 O9 2.078484 1_455
Fe0 O3 2.091095 1_555
Fe1 O6 2.004451 1_555
Fe1 O8 2.004451 1_444
Fe1 O11 2.092250 1_444
Fe1 O4 2.092250 1_555
Fe1 O5 2.097629 1_544
Fe1 O10 2.097629 1_455
Fe2 O5 2.055929 1_554
Fe2 O10 2.055929 1_455
Fe2 O9 2.067927 1_454
Fe2 O7 2.067927 1_555
Fe2 O4 2.079657 1_555
Fe2 O11 2.079657 1_454
Fe3 O12 1.992804 1_555
Fe3 O25 2.067095 1_655
Fe3 O15 2.077409 1_565
Fe3 O27 2.082254 1_555
Fe3 O24 2.088036 1_665
Fe3 O14 2.090295 1_555
Fe4 O6 2.019779 1_655
Fe4 O16 2.051107 1_555
Fe4 O10 2.062574 1_555
Fe4 O17 2.068684 1_555
Fe4 O7 2.078484 1_655
Fe4 O13 2.091095 1_555
Fe5 O12 2.021130 1_545
Fe5 O19 2.044944 1_555
Fe5 O15 2.063320 1_555
Fe5 O13 2.073260 1_555
Fe5 O18 2.078415 1_545
Fe5 O17 2.089903 1_555
Fe6 O23 2.055117 1_555
Fe6 O33 2.055117 1_555
Fe6 O32 2.055581 1_555
Fe6 O22 2.055581 1_555
Fe6 O35 2.075856 1_555
Fe6 O20 2.075856 1_555
Fe7 O21 1.997884 1_555
Fe7 O15 2.072948 1_565
Fe7 O18 2.077639 1_555
Fe7 O14 2.078302 1_555
Fe7 O25 2.081286 1_555
Fe7 O24 2.090559 1_565
Fe8 O21 2.028597 1_555
Fe8 O26 2.047645 1_455
Fe8 O25 2.065667 1_555
Fe8 O20 2.070751 1_555
Fe8 O27 2.070753 1_455
Fe8 O23 2.084644 1_555
Fe9 O39 1.992804 1_555
Fe9 O31 2.067095 1_455
Fe9 O38 2.077409 1_545
Fe9 O28 2.082254 1_555
Fe9 O30 2.088036 1_445
Fe9 O37 2.090295 1_555
Fe10 O34 2.028597 1_555
Fe10 O29 2.047645 1_655
Fe10 O31 2.065667 1_555
Fe10 O35 2.070751 1_555
Fe10 O28 2.070753 1_655
Fe10 O33 2.084644 1_555
Fe11 O34 1.997884 1_555
Fe11 O38 2.072948 1_545
Fe11 O36 2.077639 1_555
Fe11 O37 2.078302 1_555
Fe11 O31 2.081286 1_555
Fe11 O30 2.090559 1_545
Fe12 O39 2.021130 1_565
Fe12 O0 2.044944 1_555
Fe12 O38 2.063320 1_555
Fe12 O3 2.073260 1_555
Fe12 O36 2.078415 1_565
Fe12 O2 2.089903 1_555
