# generated using pymatgen
data_Cu2Mo3Se4
_symmetry_space_group_name_H-M   'P 1'
_cell_length_a   6.85871300
_cell_length_b   6.91136158
_cell_length_c   8.01230862
_cell_angle_alpha   109.25168716
_cell_angle_beta   106.81051060
_cell_angle_gamma   84.61087153
_symmetry_Int_Tables_number   1
_chemical_formula_structural   Cu2Mo3Se4
_chemical_formula_sum   'Cu4 Mo6 Se8'
_cell_volume   343.24536997
_cell_formula_units_Z   2
loop_
 _symmetry_equiv_pos_site_id
 _symmetry_equiv_pos_as_xyz
  1  'x, y, z'
loop_
 _atom_site_type_symbol
 _atom_site_label
 _atom_site_symmetry_multiplicity
 _atom_site_fract_x
 _atom_site_fract_y
 _atom_site_fract_z
 _atom_site_occupancy
  Cu  Cu0  1  0.77733200  0.96322800  0.06426300  1
  Cu  Cu1  1  0.22266800  0.03677200  0.93573700  1
  Cu  Cu2  1  0.46363800  0.71236300  0.91377400  1
  Cu  Cu3  1  0.53636200  0.28763700  0.08622600  1
  Mo  Mo0  1  0.42048300  0.27949900  0.54628300  1
  Mo  Mo1  1  0.49433500  0.98815800  0.25821400  1
  Mo  Mo2  1  0.50566500  0.01184200  0.74178600  1
  Mo  Mo3  1  0.22053600  0.92036800  0.41309300  1
  Mo  Mo4  1  0.57951700  0.72050100  0.45371700  1
  Mo  Mo5  1  0.77946400  0.07963200  0.58690700  1
  Se  Se0  1  0.16217600  0.21605400  0.70357300  1
  Se  Se1  1  0.30992300  0.63060700  0.13343000  1
  Se  Se2  1  0.70553200  0.33430900  0.40626900  1
  Se  Se3  1  0.69007700  0.36939300  0.86657000  1
  Se  Se4  1  0.13719100  0.17771700  0.22923600  1
  Se  Se5  1  0.83782400  0.78394600  0.29642700  1
  Se  Se6  1  0.86280900  0.82228300  0.77076400  1
  Se  Se7  1  0.29446800  0.66569100  0.59373100  1
loop_
_geom_bond_atom_site_label_1
_geom_bond_atom_site_label_2
_geom_bond_distance
_geom_bond_site_symmetry_2
Cu0 Se6 2.449943 1_554
Cu0 Se5 2.478843 1_555
Cu0 Se4 2.746755 1_665
Cu0 Mo1 2.778009 1_555
Cu0 Mo2 2.816179 1_564
Cu1 Se4 2.449943 1_556
Cu1 Se0 2.478843 1_555
Cu1 Se6 2.746755 1_445
Cu1 Mo2 2.778009 1_555
Cu1 Mo1 2.816179 1_546
Cu2 Se7 2.414488 1_555
Cu2 Se1 2.523718 1_556
Cu2 Se3 2.689034 1_555
Cu2 Mo1 2.750321 1_556
Cu2 Mo2 2.913560 1_565
Cu3 Se2 2.414488 1_555
Cu3 Se3 2.523718 1_554
Cu3 Se1 2.689034 1_555
Cu3 Mo2 2.750321 1_554
Cu3 Mo1 2.913560 1_545
Mo0 Se0 2.592501 1_555
Mo0 Se3 2.609668 1_555
Mo0 Se2 2.629121 1_555
Mo0 Se4 2.635638 1_555
Mo0 Mo1 2.656736 1_545
Mo0 Se7 2.665201 1_555
Mo0 Mo2 2.719479 1_555
Mo1 Se5 2.622812 1_555
Mo1 Se1 2.632955 1_555
Mo1 Se2 2.648490 1_565
Mo1 Se4 2.653187 1_565
Mo1 Mo3 2.680032 1_555
Mo1 Mo5 2.704664 1_565
Mo1 Mo4 2.719479 1_555
Mo2 Se0 2.622812 1_555
Mo2 Se3 2.632955 1_555
Mo2 Se7 2.648490 1_545
Mo2 Se6 2.653187 1_545
Mo2 Mo4 2.656736 1_545
Mo2 Mo5 2.680032 1_555
Mo2 Mo3 2.704664 1_545
Mo3 Se7 2.556921 1_555
Mo3 Se4 2.590393 1_565
Mo3 Se0 2.646145 1_565
Mo3 Se1 2.648056 1_555
Mo3 Se5 2.667843 1_455
Mo4 Se5 2.592501 1_555
Mo4 Se1 2.609668 1_555
Mo4 Se7 2.629121 1_555
Mo4 Se6 2.635638 1_555
Mo4 Se2 2.665201 1_555
Mo5 Se2 2.556921 1_555
Mo5 Se6 2.590393 1_545
Mo5 Se5 2.646145 1_545
Mo5 Se3 2.648056 1_555
Mo5 Se0 2.667843 1_655
