# generated using pymatgen
data_YbHg2
_symmetry_space_group_name_H-M   'P 1'
_cell_length_a   9.71696918
_cell_length_b   9.71696918
_cell_length_c   6.75772157
_cell_angle_alpha   90.00000000
_cell_angle_beta   90.00000000
_cell_angle_gamma   119.99999814
_symmetry_Int_Tables_number   1
_chemical_formula_structural   YbHg2
_chemical_formula_sum   'Yb8 Hg16'
_cell_volume   552.57672084
_cell_formula_units_Z   8
loop_
 _symmetry_equiv_pos_site_id
 _symmetry_equiv_pos_as_xyz
  1  'x, y, z'
loop_
 _atom_site_type_symbol
 _atom_site_label
 _atom_site_symmetry_multiplicity
 _atom_site_fract_x
 _atom_site_fract_y
 _atom_site_fract_z
 _atom_site_occupancy
  Yb  Yb0_0  1  0.00000000  0.00000000  0.00000000  1
  Yb  Yb0_1  1  0.00000000  0.00000000  0.50000000  1
  Yb  Yb0_2  1  0.00000000  0.50000000  0.00000000  1
  Yb  Yb0_3  1  0.00000000  0.50000000  0.50000000  1
  Yb  Yb0_4  1  0.50000000  0.00000000  0.00000000  1
  Yb  Yb0_5  1  0.50000000  0.00000000  0.50000000  1
  Yb  Yb0_6  1  0.50000000  0.50000000  0.00000000  1
  Yb  Yb0_7  1  0.50000000  0.50000000  0.50000000  1
  Hg  Hg0_0  1  0.16666650  0.33333350  0.25000000  1
  Hg  Hg0_1  1  0.16666650  0.33333350  0.75000000  1
  Hg  Hg0_2  1  0.16666650  0.83333350  0.25000000  1
  Hg  Hg0_3  1  0.16666650  0.83333350  0.75000000  1
  Hg  Hg0_4  1  0.66666650  0.33333350  0.25000000  1
  Hg  Hg0_5  1  0.66666650  0.33333350  0.75000000  1
  Hg  Hg0_6  1  0.66666650  0.83333350  0.25000000  1
  Hg  Hg0_7  1  0.66666650  0.83333350  0.75000000  1
  Hg  Hg1_0  1  0.33333350  0.16666650  0.25000000  1
  Hg  Hg1_1  1  0.33333350  0.16666650  0.75000000  1
  Hg  Hg1_2  1  0.33333350  0.66666650  0.25000000  1
  Hg  Hg1_3  1  0.33333350  0.66666650  0.75000000  1
  Hg  Hg1_4  1  0.83333350  0.16666650  0.25000000  1
  Hg  Hg1_5  1  0.83333350  0.16666650  0.75000000  1
  Hg  Hg1_6  1  0.83333350  0.66666650  0.25000000  1
  Hg  Hg1_7  1  0.83333350  0.66666650  0.75000000  1
loop_
_geom_bond_atom_site_label_1
_geom_bond_atom_site_label_2
_geom_bond_distance
_geom_bond_site_symmetry_2
Yb0_0 Yb0_1 3.378861 1_554
Yb0_0 Yb0_1 3.378861 1_555
Yb0_2 Yb0_3 3.378861 1_554
Yb0_2 Yb0_3 3.378861 1_555
Yb0_4 Yb0_5 3.378861 1_555
Yb0_4 Yb0_5 3.378861 1_554
Yb0_6 Yb0_7 3.378861 1_555
Yb0_6 Yb0_7 3.378861 1_554
Hg0_0 Hg1_2 2.805045 1_555
Hg0_0 Hg1_4 2.805045 1_455
Hg0_0 Hg1_0 2.805053 1_555
Hg0_0 Yb0_3 3.274515 1_555
Hg0_0 Yb0_2 3.274515 1_555
Hg0_0 Yb0_1 3.274519 1_555
Hg0_0 Yb0_0 3.274519 1_555
Hg0_0 Yb0_6 3.274519 1_555
Hg0_0 Yb0_7 3.274519 1_555
Hg0_1 Hg1_3 2.805045 1_555
Hg0_1 Hg1_5 2.805045 1_455
Hg0_1 Hg1_1 2.805053 1_555
Hg0_1 Yb0_3 3.274515 1_555
Hg0_1 Yb0_2 3.274515 1_556
Hg0_1 Yb0_1 3.274519 1_555
Hg0_1 Yb0_0 3.274519 1_556
Hg0_1 Yb0_6 3.274519 1_556
Hg0_1 Yb0_7 3.274519 1_555
Hg0_2 Hg1_6 2.805045 1_455
Hg0_2 Hg1_0 2.805045 1_565
Hg0_2 Hg1_2 2.805053 1_555
Hg0_2 Yb0_1 3.274515 1_565
Hg0_2 Yb0_0 3.274515 1_565
Hg0_2 Yb0_2 3.274519 1_555
Hg0_2 Yb0_3 3.274519 1_555
Hg0_2 Yb0_5 3.274519 1_565
Hg0_2 Yb0_4 3.274519 1_565
Hg0_3 Hg1_7 2.805045 1_455
Hg0_3 Hg1_1 2.805045 1_565
Hg0_3 Hg1_3 2.805053 1_555
Hg0_3 Yb0_1 3.274515 1_565
Hg0_3 Yb0_0 3.274515 1_566
Hg0_3 Yb0_2 3.274519 1_556
Hg0_3 Yb0_3 3.274519 1_555
Hg0_3 Yb0_5 3.274519 1_565
Hg0_3 Yb0_4 3.274519 1_566
Hg0_4 Hg1_6 2.805045 1_555
Hg0_4 Hg1_0 2.805045 1_555
Hg0_4 Hg1_4 2.805053 1_555
Hg0_4 Yb0_6 3.274515 1_555
Hg0_4 Yb0_7 3.274515 1_555
Hg0_4 Yb0_4 3.274519 1_555
Hg0_4 Yb0_5 3.274519 1_555
Hg0_4 Yb0_3 3.274519 1_655
Hg0_4 Yb0_2 3.274519 1_655
Hg0_5 Hg1_7 2.805045 1_555
Hg0_5 Hg1_1 2.805045 1_555
Hg0_5 Hg1_5 2.805053 1_555
Hg0_5 Yb0_6 3.274515 1_556
Hg0_5 Yb0_7 3.274515 1_555
Hg0_5 Yb0_4 3.274519 1_556
Hg0_5 Yb0_5 3.274519 1_555
Hg0_5 Yb0_3 3.274519 1_655
Hg0_5 Yb0_2 3.274519 1_656
Hg0_6 Hg1_4 2.805045 1_565
Hg0_6 Hg1_2 2.805045 1_555
Hg0_6 Hg1_6 2.805053 1_555
Hg0_6 Yb0_5 3.274515 1_565
Hg0_6 Yb0_4 3.274515 1_565
Hg0_6 Yb0_6 3.274519 1_555
Hg0_6 Yb0_7 3.274519 1_555
Hg0_6 Yb0_0 3.274519 1_665
Hg0_6 Yb0_1 3.274519 1_665
Hg0_7 Hg1_3 2.805045 1_555
Hg0_7 Hg1_5 2.805045 1_565
Hg0_7 Hg1_7 2.805053 1_555
Hg0_7 Yb0_5 3.274515 1_565
Hg0_7 Yb0_4 3.274515 1_566
Hg0_7 Yb0_6 3.274519 1_556
Hg0_7 Yb0_7 3.274519 1_555
Hg0_7 Yb0_0 3.274519 1_666
Hg0_7 Yb0_1 3.274519 1_665
Hg1_0 Yb0_4 3.274515 1_555
Hg1_0 Yb0_5 3.274515 1_555
Hg1_0 Yb0_1 3.274519 1_555
Hg1_0 Yb0_0 3.274519 1_555
Hg1_0 Yb0_6 3.274519 1_555
Hg1_0 Yb0_7 3.274519 1_555
Hg1_1 Yb0_4 3.274515 1_556
Hg1_1 Yb0_5 3.274515 1_555
Hg1_1 Yb0_1 3.274519 1_555
Hg1_1 Yb0_0 3.274519 1_556
Hg1_1 Yb0_6 3.274519 1_556
Hg1_1 Yb0_7 3.274519 1_555
Hg1_2 Yb0_6 3.274515 1_555
Hg1_2 Yb0_7 3.274515 1_555
Hg1_2 Yb0_2 3.274519 1_555
Hg1_2 Yb0_3 3.274519 1_555
Hg1_2 Yb0_5 3.274519 1_565
Hg1_2 Yb0_4 3.274519 1_565
Hg1_3 Yb0_6 3.274515 1_556
Hg1_3 Yb0_7 3.274515 1_555
Hg1_3 Yb0_2 3.274519 1_556
Hg1_3 Yb0_3 3.274519 1_555
Hg1_3 Yb0_5 3.274519 1_565
Hg1_3 Yb0_4 3.274519 1_566
Hg1_4 Yb0_0 3.274515 1_655
Hg1_4 Yb0_1 3.274515 1_655
Hg1_4 Yb0_5 3.274519 1_555
Hg1_4 Yb0_4 3.274519 1_555
Hg1_4 Yb0_3 3.274519 1_655
Hg1_4 Yb0_2 3.274519 1_655
Hg1_5 Yb0_0 3.274515 1_656
Hg1_5 Yb0_1 3.274515 1_655
Hg1_5 Yb0_4 3.274519 1_556
Hg1_5 Yb0_5 3.274519 1_555
Hg1_5 Yb0_2 3.274519 1_656
Hg1_5 Yb0_3 3.274519 1_655
Hg1_6 Yb0_2 3.274515 1_655
Hg1_6 Yb0_3 3.274515 1_655
Hg1_6 Yb0_7 3.274519 1_555
Hg1_6 Yb0_6 3.274519 1_555
Hg1_6 Yb0_0 3.274519 1_665
Hg1_6 Yb0_1 3.274519 1_665
Hg1_7 Yb0_2 3.274515 1_656
Hg1_7 Yb0_3 3.274515 1_655
Hg1_7 Yb0_7 3.274519 1_555
Hg1_7 Yb0_6 3.274519 1_556
Hg1_7 Yb0_0 3.274519 1_666
Hg1_7 Yb0_1 3.274519 1_665
