# generated using pymatgen
data_KMoIO6
_symmetry_space_group_name_H-M   'P 1'
_cell_length_a   7.49523800
_cell_length_b   8.00926700
_cell_length_c   19.77962700
_cell_angle_alpha   90.00000000
_cell_angle_beta   90.00000000
_cell_angle_gamma   90.00000000
_symmetry_Int_Tables_number   1
_chemical_formula_structural   KMoIO6
_chemical_formula_sum   'K8 Mo8 I8 O48'
_cell_volume   1187.39795599
_cell_formula_units_Z   8
loop_
 _symmetry_equiv_pos_site_id
 _symmetry_equiv_pos_as_xyz
  1  'x, y, z'
loop_
 _atom_site_type_symbol
 _atom_site_label
 _atom_site_symmetry_multiplicity
 _atom_site_fract_x
 _atom_site_fract_y
 _atom_site_fract_z
 _atom_site_occupancy
  K  K0  1  0.16516500  0.19012800  0.42906800  1
  K  K1  1  0.33483500  0.69012800  0.57093200  1
  K  K2  1  0.66516500  0.30987200  0.42906800  1
  K  K3  1  0.83483500  0.30987200  0.92906800  1
  K  K4  1  0.83483500  0.80987200  0.57093200  1
  K  K5  1  0.66516500  0.80987200  0.07093200  1
  K  K6  1  0.16516500  0.69012800  0.07093200  1
  K  K7  1  0.33483500  0.19012800  0.92906800  1
  Mo  Mo0  1  0.42082200  0.22017200  0.60700400  1
  Mo  Mo1  1  0.92082200  0.27982800  0.60700400  1
  Mo  Mo2  1  0.57917800  0.27982800  0.10700400  1
  Mo  Mo3  1  0.07917800  0.22017200  0.10700400  1
  Mo  Mo4  1  0.07917800  0.72017200  0.39299600  1
  Mo  Mo5  1  0.92082200  0.77982800  0.89299600  1
  Mo  Mo6  1  0.57917800  0.77982800  0.39299600  1
  Mo  Mo7  1  0.42082200  0.72017200  0.89299600  1
  I  I0  1  0.07692500  0.99482600  0.72372400  1
  I  I1  1  0.42307500  0.99482600  0.22372400  1
  I  I2  1  0.57692500  0.50517400  0.72372400  1
  I  I3  1  0.42307500  0.49482600  0.27627600  1
  I  I4  1  0.57692500  0.00517400  0.77627600  1
  I  I5  1  0.92307500  0.00517400  0.27627600  1
  I  I6  1  0.92307500  0.50517400  0.22372400  1
  I  I7  1  0.07692500  0.49482600  0.77627600  1
  O  O0  1  0.37273700  0.44178300  0.67512900  1
  O  O1  1  0.62726300  0.55821700  0.32487100  1
  O  O2  1  0.85856000  0.68353400  0.17376600  1
  O  O3  1  0.94319400  0.88114300  0.78743400  1
  O  O4  1  0.01323300  0.52426200  0.42210800  1
  O  O5  1  0.12726300  0.44178300  0.17512900  1
  O  O6  1  0.16974900  0.68611300  0.87409200  1
  O  O7  1  0.51323300  0.47573800  0.07789200  1
  O  O8  1  0.85856000  0.18353400  0.32623400  1
  O  O9  1  0.44319400  0.11885700  0.71256600  1
  O  O10  1  0.98676700  0.97573800  0.92210800  1
  O  O11  1  0.35856000  0.81646600  0.17376600  1
  O  O12  1  0.66974900  0.81388700  0.87409200  1
  O  O13  1  0.89276700  0.16521500  0.53181100  1
  O  O14  1  0.44319400  0.61885700  0.78743400  1
  O  O15  1  0.55680600  0.38114300  0.21256600  1
  O  O16  1  0.14144000  0.31646600  0.82623400  1
  O  O17  1  0.39276700  0.83478500  0.96818900  1
  O  O18  1  0.48676700  0.02426200  0.57789200  1
  O  O19  1  0.89276700  0.66521500  0.96818900  1
  O  O20  1  0.60723300  0.66521500  0.46818900  1
  O  O21  1  0.14144000  0.81646600  0.67376600  1
  O  O22  1  0.33025100  0.18611300  0.12590800  1
  O  O23  1  0.39276700  0.33478500  0.53181100  1
  O  O24  1  0.55680600  0.88114300  0.28743400  1
  O  O25  1  0.05680600  0.61885700  0.28743400  1
  O  O26  1  0.64144000  0.18353400  0.82623400  1
  O  O27  1  0.35856000  0.31646600  0.32623400  1
  O  O28  1  0.48676700  0.52426200  0.92210800  1
  O  O29  1  0.66974900  0.31388700  0.62590800  1
  O  O30  1  0.01323300  0.02426200  0.07789200  1
  O  O31  1  0.37273700  0.94178300  0.82487100  1
  O  O32  1  0.87273700  0.55821700  0.82487100  1
  O  O33  1  0.64144000  0.68353400  0.67376600  1
  O  O34  1  0.51323300  0.97573800  0.42210800  1
  O  O35  1  0.83025100  0.81388700  0.37409200  1
  O  O36  1  0.10723300  0.83478500  0.46818900  1
  O  O37  1  0.60723300  0.16521500  0.03181100  1
  O  O38  1  0.33025100  0.68611300  0.37409200  1
  O  O39  1  0.05680600  0.11885700  0.21256600  1
  O  O40  1  0.10723300  0.33478500  0.03181100  1
  O  O41  1  0.12726300  0.94178300  0.32487100  1
  O  O42  1  0.83025100  0.31388700  0.12590800  1
  O  O43  1  0.62726300  0.05821700  0.17512900  1
  O  O44  1  0.94319400  0.38114300  0.71256600  1
  O  O45  1  0.98676700  0.47573800  0.57789200  1
  O  O46  1  0.16974900  0.18611300  0.62590800  1
  O  O47  1  0.87273700  0.05821700  0.67512900  1
loop_
_geom_bond_atom_site_label_1
_geom_bond_atom_site_label_2
_geom_bond_distance
_geom_bond_site_symmetry_2
K0 O27 2.694864 1_555
K0 O41 2.878315 1_545
K0 O13 2.887597 1_455
K0 O23 2.895247 1_555
K0 O4 2.911635 1_555
K0 O36 2.981146 1_545
K0 O8 3.069394 1_455
K0 O34 3.126263 1_545
K1 O21 2.694864 1_555
K1 O0 2.878315 1_555
K1 O20 2.887597 1_555
K1 O36 2.895247 1_555
K1 O18 2.911635 1_565
K1 O23 2.981146 1_555
K1 O33 3.069394 1_555
K1 O45 3.126263 1_455
K2 O8 2.694864 1_555
K2 O1 2.878315 1_555
K2 O23 2.887597 1_555
K2 O13 2.895247 1_555
K2 O34 2.911635 1_545
K2 O20 2.981146 1_555
K2 O27 3.069394 1_555
K2 O4 3.126263 1_655
K3 O26 2.694864 1_555
K3 O32 2.878315 1_555
K3 O40 2.887597 1_656
K3 O37 2.895247 1_556
K3 O10 2.911635 1_545
K3 O19 2.981146 1_555
K3 O16 3.069394 1_655
K3 O28 3.126263 1_555
K4 O33 2.694864 1_555
K4 O47 2.878315 1_565
K4 O36 2.887597 1_655
K4 O20 2.895247 1_555
K4 O45 2.911635 1_555
K4 O13 2.981146 1_565
K4 O21 3.069394 1_655
K4 O18 3.126263 1_565
K5 O2 2.694864 1_555
K5 O43 2.878315 1_565
K5 O17 2.887597 1_554
K5 O19 2.895247 1_554
K5 O7 2.911635 1_555
K5 O37 2.981146 1_565
K5 O11 3.069394 1_555
K5 O30 3.126263 1_665
K6 O11 2.694864 1_555
K6 O5 2.878315 1_555
K6 O19 2.887597 1_454
K6 O17 2.895247 1_554
K6 O30 2.911635 1_565
K6 O40 2.981146 1_555
K6 O2 3.069394 1_455
K6 O7 3.126263 1_555
K7 O16 2.694864 1_555
K7 O31 2.878315 1_545
K7 O37 2.887597 1_556
K7 O40 2.895247 1_556
K7 O28 2.911635 1_555
K7 O17 2.981146 1_545
K7 O26 3.069394 1_555
K7 O10 3.126263 1_445
Mo0 O18 1.742969 1_555
Mo0 O23 1.760372 1_555
Mo0 O46 1.937935 1_555
Mo0 O29 2.045552 1_555
Mo0 O9 2.246382 1_555
Mo0 O0 2.257440 1_555
Mo1 O45 1.742969 1_555
Mo1 O13 1.760372 1_555
Mo1 O29 1.937935 1_555
Mo1 O46 2.045552 1_655
Mo1 O44 2.246382 1_555
Mo1 O47 2.257440 1_555
Mo2 O7 1.742969 1_555
Mo2 O37 1.760372 1_555
Mo2 O42 1.937935 1_555
Mo2 O22 2.045552 1_555
Mo2 O15 2.246382 1_555
Mo2 O43 2.257440 1_555
Mo3 O30 1.742969 1_555
Mo3 O40 1.760372 1_555
Mo3 O22 1.937935 1_555
Mo3 O42 2.045552 1_455
Mo3 O39 2.246382 1_555
Mo3 O5 2.257440 1_555
Mo4 O4 1.742969 1_555
Mo4 O36 1.760372 1_555
Mo4 O38 1.937935 1_555
Mo4 O35 2.045552 1_455
Mo4 O25 2.246382 1_555
Mo4 O41 2.257440 1_555
Mo5 O10 1.742969 1_555
Mo5 O19 1.760372 1_555
Mo5 O12 1.937935 1_555
Mo5 O6 2.045552 1_655
Mo5 O3 2.246382 1_555
Mo5 O32 2.257440 1_555
Mo6 O34 1.742969 1_555
Mo6 O20 1.760372 1_555
Mo6 O35 1.937935 1_555
Mo6 O38 2.045552 1_555
Mo6 O24 2.246382 1_555
Mo6 O1 2.257440 1_555
Mo7 O28 1.742969 1_555
Mo7 O17 1.760372 1_555
Mo7 O6 1.937935 1_555
Mo7 O12 2.045552 1_555
Mo7 O14 2.246382 1_555
Mo7 O31 2.257440 1_555
I0 O21 1.803046 1_555
I0 O3 1.849795 1_455
I0 O47 1.877206 1_465
I1 O11 1.803046 1_555
I1 O24 1.849795 1_555
I1 O43 1.877206 1_565
I2 O33 1.803046 1_555
I2 O14 1.849795 1_555
I2 O0 1.877206 1_555
I3 O27 1.803046 1_555
I3 O15 1.849795 1_555
I3 O1 1.877206 1_555
I4 O26 1.803046 1_555
I4 O9 1.849795 1_555
I4 O31 1.877206 1_545
I5 O8 1.803046 1_555
I5 O39 1.849795 1_655
I5 O41 1.877206 1_645
I6 O2 1.803046 1_555
I6 O25 1.849795 1_655
I6 O5 1.877206 1_655
I7 O16 1.803046 1_555
I7 O44 1.849795 1_455
I7 O32 1.877206 1_455
