# generated using pymatgen
data_Li2NiP2O7
_symmetry_space_group_name_H-M   'P 1'
_cell_length_a   5.01152913
_cell_length_b   14.21858434
_cell_length_c   8.80203843
_cell_angle_alpha   80.77104390
_cell_angle_beta   90.00171710
_cell_angle_gamma   90.00211600
_symmetry_Int_Tables_number   1
_chemical_formula_structural   Li2NiP2O7
_chemical_formula_sum   'Li8 Ni4 P8 O28'
_cell_volume   619.08656511
_cell_formula_units_Z   4
loop_
 _symmetry_equiv_pos_site_id
 _symmetry_equiv_pos_as_xyz
  1  'x, y, z'
loop_
 _atom_site_type_symbol
 _atom_site_label
 _atom_site_symmetry_multiplicity
 _atom_site_fract_x
 _atom_site_fract_y
 _atom_site_fract_z
 _atom_site_occupancy
  Li  Li0  1  0.60652800  0.06046400  0.88647400  1
  Li  Li1  1  0.10653600  0.56048900  0.38647000  1
  Li  Li2  1  0.10649300  0.93953200  0.61354700  1
  Li  Li3  1  0.60651600  0.43951500  0.11346000  1
  Li  Li4  1  0.89347700  0.43953900  0.61352400  1
  Li  Li5  1  0.39346800  0.93951300  0.11352700  1
  Li  Li6  1  0.39351100  0.56047200  0.88644800  1
  Li  Li7  1  0.89349000  0.06048800  0.38653700  1
  Ni  Ni0  1  0.25002900  0.74995600  0.25011500  1
  Ni  Ni1  1  0.25008200  0.75017400  0.75004700  1
  Ni  Ni2  1  0.74994300  0.24992700  0.74997300  1
  Ni  Ni3  1  0.74983700  0.24988100  0.24993600  1
  P  P0  1  0.38835400  0.35246200  0.46440200  1
  P  P1  1  0.88840800  0.85244900  0.96441900  1
  P  P2  1  0.11157000  0.35253500  0.96437200  1
  P  P3  1  0.61162900  0.85243900  0.46441200  1
  P  P4  1  0.38842800  0.14747200  0.53562200  1
  P  P5  1  0.88838100  0.64756200  0.03558100  1
  P  P6  1  0.11165400  0.14754300  0.03559100  1
  P  P7  1  0.61159800  0.64755100  0.53559100  1
  O  O0  1  0.27110900  0.24998400  0.00002200  1
  O  O1  1  0.77096300  0.75001100  0.49995900  1
  O  O2  1  0.22889700  0.25001600  0.49997600  1
  O  O3  1  0.72904000  0.74999600  0.00003600  1
  O  O4  1  0.40321900  0.84960900  0.59462200  1
  O  O5  1  0.90319300  0.34988400  0.09436200  1
  O  O6  1  0.40326800  0.65035500  0.40535600  1
  O  O7  1  0.90315300  0.15021100  0.90556600  1
  O  O8  1  0.09679200  0.65040100  0.90536900  1
  O  O9  1  0.59680800  0.15011500  0.40564100  1
  O  O10  1  0.09674000  0.84964600  0.09464200  1
  O  O11  1  0.59685400  0.34978900  0.59443300  1
  O  O12  1  0.17925900  0.07142000  0.53625500  1
  O  O13  1  0.67930900  0.57145700  0.03617300  1
  O  O14  1  0.32074800  0.42858200  0.96374300  1
  O  O15  1  0.82069800  0.92854700  0.46382600  1
  O  O16  1  0.17926700  0.42857100  0.46377400  1
  O  O17  1  0.67928800  0.92854300  0.96385600  1
  O  O18  1  0.32073800  0.07143200  0.03622300  1
  O  O19  1  0.82071800  0.57146100  0.53613800  1
  O  O20  1  0.52613900  0.14488000  0.69257200  1
  O  O21  1  0.02648800  0.64482300  0.19242600  1
  O  O22  1  0.97385900  0.35511800  0.80742300  1
  O  O23  1  0.47351600  0.85518000  0.30757400  1
  O  O24  1  0.97383700  0.14488200  0.19258800  1
  O  O25  1  0.47351100  0.64483500  0.69239800  1
  O  O26  1  0.52616900  0.35511700  0.30740700  1
  O  O27  1  0.02648500  0.85517600  0.80759800  1
loop_
_geom_bond_atom_site_label_1
_geom_bond_atom_site_label_2
_geom_bond_distance
_geom_bond_site_symmetry_2
Li0 O17 1.924963 1_545
Li0 O20 1.964385 1_555
Li0 O18 1.969540 1_556
Li0 O7 1.983697 1_555
Li1 O16 1.924761 1_555
Li1 O21 1.964449 1_555
Li1 O19 1.969167 1_455
Li1 O6 1.984871 1_555
Li2 O12 1.924363 1_565
Li2 O27 1.964606 1_555
Li2 O15 1.969369 1_455
Li2 O4 1.985523 1_555
Li3 O13 1.925085 1_555
Li3 O26 1.964529 1_555
Li3 O14 1.969109 1_554
Li3 O5 1.982897 1_555
Li4 O19 1.924982 1_555
Li4 O22 1.964390 1_555
Li4 O16 1.969546 1_655
Li4 O11 1.983716 1_555
Li5 O18 1.924773 1_565
Li5 O23 1.964463 1_555
Li5 O17 1.969187 1_554
Li5 O10 1.984863 1_555
Li6 O14 1.924391 1_555
Li6 O25 1.964638 1_555
Li6 O13 1.969404 1_556
Li6 O8 1.985546 1_555
Li7 O15 1.925074 1_545
Li7 O24 1.964516 1_555
Li7 O12 1.969116 1_655
Li7 O9 1.982889 1_555
Ni0 O6 1.960052 1_555
Ni0 O10 1.962110 1_555
Ni0 O21 1.997685 1_555
Ni0 O23 1.997797 1_555
Ni1 O4 1.959345 1_555
Ni1 O8 1.962051 1_555
Ni1 O27 1.995997 1_555
Ni1 O25 1.999629 1_555
Ni2 O7 1.962795 1_555
Ni2 O11 1.963555 1_555
Ni2 O20 1.996513 1_555
Ni2 O22 1.998604 1_555
Ni3 O9 1.963439 1_555
Ni3 O5 1.965469 1_555
Ni3 O24 1.996431 1_555
Ni3 O26 1.998559 1_555
O0 P6 1.646767 1_555
O0 P2 1.648384 1_554
O1 P3 1.646349 1_555
O1 P7 1.646806 1_555
O2 P0 1.646835 1_555
O2 P4 1.648278 1_555
O3 P5 1.646438 1_555
O3 P1 1.646722 1_554
O4 P3 1.546400 1_555
O5 P2 1.545100 1_654
O6 P7 1.546281 1_555
O7 P6 1.545679 1_656
O8 P5 1.546404 1_456
O9 P4 1.545062 1_555
O10 P1 1.546212 1_454
O11 P0 1.545708 1_555
O12 P4 1.505383 1_555
O13 P5 1.505626 1_555
O14 P2 1.505367 1_555
O15 P3 1.505652 1_555
O16 P0 1.505739 1_555
O17 P1 1.505765 1_555
O18 P6 1.505745 1_555
O19 P7 1.505740 1_555
O20 P4 1.539401 1_555
O21 P5 1.539217 1_455
O22 P2 1.539409 1_655
O23 P3 1.539172 1_555
O24 P6 1.539927 1_655
O25 P7 1.538948 1_555
O26 P0 1.539917 1_555
O27 P1 1.539017 1_455
