# generated using pymatgen
data_NbAgO3
_symmetry_space_group_name_H-M   'P 1'
_cell_length_a   5.67056400
_cell_length_b   5.74775100
_cell_length_c   15.76260200
_cell_angle_alpha   90.00000000
_cell_angle_beta   90.00000000
_cell_angle_gamma   90.00000000
_symmetry_Int_Tables_number   1
_chemical_formula_structural   NbAgO3
_chemical_formula_sum   'Nb8 Ag8 O24'
_cell_volume   513.75032781
_cell_formula_units_Z   8
loop_
 _symmetry_equiv_pos_site_id
 _symmetry_equiv_pos_as_xyz
  1  'x, y, z'
loop_
 _atom_site_type_symbol
 _atom_site_label
 _atom_site_symmetry_multiplicity
 _atom_site_fract_x
 _atom_site_fract_y
 _atom_site_fract_z
 _atom_site_occupancy
  Nb  Nb0  1  0.24240600  0.21453200  0.12499300  1
  Nb  Nb1  1  0.24240600  0.28546800  0.87500700  1
  Nb  Nb2  1  0.75759400  0.71453200  0.37500700  1
  Nb  Nb3  1  0.75759400  0.78546800  0.62499300  1
  Nb  Nb4  1  0.75759400  0.78546800  0.87500700  1
  Nb  Nb5  1  0.75759400  0.71453200  0.12499300  1
  Nb  Nb6  1  0.24240600  0.28546800  0.62499300  1
  Nb  Nb7  1  0.24240600  0.21453200  0.37500700  1
  Ag  Ag0  1  0.74028600  0.25000000  0.00000000  1
  Ag  Ag1  1  0.25971400  0.75000000  0.50000000  1
  Ag  Ag2  1  0.25971400  0.75000000  0.00000000  1
  Ag  Ag3  1  0.74028600  0.25000000  0.50000000  1
  Ag  Ag4  1  0.73517900  0.21578300  0.25000000  1
  Ag  Ag5  1  0.73517900  0.28421700  0.75000000  1
  Ag  Ag6  1  0.26482100  0.71578300  0.25000000  1
  Ag  Ag7  1  0.26482100  0.78421700  0.75000000  1
  O  O0  1  0.80505900  0.72573300  0.75000000  1
  O  O1  1  0.80505900  0.77426700  0.25000000  1
  O  O2  1  0.19494100  0.22573300  0.75000000  1
  O  O3  1  0.19494100  0.27426700  0.25000000  1
  O  O4  1  0.54641800  0.46249100  0.35969900  1
  O  O5  1  0.54641800  0.03750900  0.64030100  1
  O  O6  1  0.45358200  0.96249100  0.14030100  1
  O  O7  1  0.45358200  0.53750900  0.85969900  1
  O  O8  1  0.45358200  0.53750900  0.64030100  1
  O  O9  1  0.45358200  0.96249100  0.35969900  1
  O  O10  1  0.54641800  0.03750900  0.85969900  1
  O  O11  1  0.54641800  0.46249100  0.14030100  1
  O  O12  1  0.95896100  0.04348200  0.39033200  1
  O  O13  1  0.95896100  0.45651800  0.60966800  1
  O  O14  1  0.04103900  0.54348200  0.10966800  1
  O  O15  1  0.04103900  0.95651800  0.89033200  1
  O  O16  1  0.31123200  0.25000000  0.00000000  1
  O  O17  1  0.68876800  0.75000000  0.50000000  1
  O  O18  1  0.68876800  0.75000000  0.00000000  1
  O  O19  1  0.31123200  0.25000000  0.50000000  1
  O  O20  1  0.95896100  0.04348200  0.10966800  1
  O  O21  1  0.95896100  0.45651800  0.89033200  1
  O  O22  1  0.04103900  0.54348200  0.39033200  1
  O  O23  1  0.04103900  0.95651800  0.60966800  1
loop_
_geom_bond_atom_site_label_1
_geom_bond_atom_site_label_2
_geom_bond_distance
_geom_bond_site_symmetry_2
Nb0 O6 1.894951 1_545
Nb0 O20 1.899561 1_455
Nb0 O3 2.018154 1_555
Nb0 O16 2.018818 1_555
Nb0 O14 2.221945 1_555
Nb0 O11 2.249741 1_555
Nb1 O7 1.894951 1_555
Nb1 O21 1.899561 1_455
Nb1 O2 2.018154 1_555
Nb1 O16 2.018818 1_556
Nb1 O15 2.221945 1_545
Nb1 O10 2.249741 1_555
Nb2 O4 1.894951 1_555
Nb2 O22 1.899561 1_655
Nb2 O1 2.018154 1_555
Nb2 O17 2.018818 1_555
Nb2 O12 2.221945 1_565
Nb2 O9 2.249741 1_555
Nb3 O5 1.894951 1_565
Nb3 O23 1.899561 1_655
Nb3 O0 2.018154 1_555
Nb3 O17 2.018818 1_555
Nb3 O13 2.221945 1_555
Nb3 O8 2.249741 1_555
Nb4 O10 1.894951 1_565
Nb4 O15 1.899561 1_655
Nb4 O0 2.018154 1_555
Nb4 O18 2.018818 1_556
Nb4 O21 2.221945 1_555
Nb4 O7 2.249741 1_555
Nb5 O11 1.894951 1_555
Nb5 O14 1.899561 1_655
Nb5 O1 2.018154 1_555
Nb5 O18 2.018818 1_555
Nb5 O20 2.221945 1_565
Nb5 O6 2.249741 1_555
Nb6 O8 1.894951 1_555
Nb6 O13 1.899561 1_455
Nb6 O2 2.018154 1_555
Nb6 O19 2.018818 1_555
Nb6 O23 2.221945 1_545
Nb6 O5 2.249741 1_555
Nb7 O9 1.894951 1_545
Nb7 O12 1.899561 1_455
Nb7 O3 2.018154 1_555
Nb7 O19 2.018818 1_555
Nb7 O22 2.221945 1_555
Nb7 O4 2.249741 1_555
Ag0 O16 2.432978 1_555
Ag0 O21 2.436159 1_554
Ag0 O20 2.436159 1_555
Ag0 O11 2.755178 1_555
Ag0 O10 2.755178 1_554
Ag1 O17 2.432978 1_555
Ag1 O23 2.436159 1_555
Ag1 O22 2.436159 1_555
Ag1 O8 2.755178 1_555
Ag1 O9 2.755178 1_555
Ag2 O18 2.432978 1_555
Ag2 O15 2.436159 1_554
Ag2 O14 2.436159 1_555
Ag2 O6 2.755178 1_555
Ag2 O7 2.755178 1_554
Ag3 O19 2.432978 1_555
Ag3 O13 2.436159 1_555
Ag3 O12 2.436159 1_555
Ag3 O5 2.755178 1_555
Ag3 O4 2.755178 1_555
Ag4 O4 2.479197 1_555
Ag4 O11 2.479197 1_555
Ag4 O1 2.568475 1_545
Ag4 O3 2.628692 1_655
Ag4 O12 2.735690 1_555
Ag4 O20 2.735690 1_555
Ag4 O9 2.767539 1_545
Ag4 O6 2.767539 1_545
Ag5 O5 2.479197 1_555
Ag5 O10 2.479197 1_555
Ag5 O0 2.568475 1_555
Ag5 O2 2.628692 1_655
Ag5 O13 2.735690 1_555
Ag5 O21 2.735690 1_555
Ag5 O8 2.767539 1_555
Ag5 O7 2.767539 1_555
Ag6 O9 2.479197 1_555
Ag6 O6 2.479197 1_555
Ag6 O3 2.568475 1_555
Ag6 O1 2.628692 1_455
Ag6 O22 2.735690 1_555
Ag6 O14 2.735690 1_555
Ag6 O4 2.767539 1_555
Ag6 O11 2.767539 1_555
Ag7 O8 2.479197 1_555
Ag7 O7 2.479197 1_555
Ag7 O2 2.568475 1_565
Ag7 O0 2.628692 1_455
Ag7 O23 2.735690 1_555
Ag7 O15 2.735690 1_555
Ag7 O10 2.767539 1_565
Ag7 O5 2.767539 1_565
