# generated using pymatgen
data_K2Ni(MoO4)2
_symmetry_space_group_name_H-M   'P 1'
_cell_length_a   10.59217818
_cell_length_b   10.59217818
_cell_length_c   11.06808700
_cell_angle_alpha   90.00000000
_cell_angle_beta   90.00000000
_cell_angle_gamma   132.13377171
_symmetry_Int_Tables_number   1
_chemical_formula_structural   K2Ni(MoO4)2
_chemical_formula_sum   'K8 Ni4 Mo8 O32'
_cell_volume   920.87662055
_cell_formula_units_Z   4
loop_
 _symmetry_equiv_pos_site_id
 _symmetry_equiv_pos_as_xyz
  1  'x, y, z'
loop_
 _atom_site_type_symbol
 _atom_site_label
 _atom_site_symmetry_multiplicity
 _atom_site_fract_x
 _atom_site_fract_y
 _atom_site_fract_z
 _atom_site_occupancy
  K  K0  1  0.46376900  0.03623100  0.25000000  1
  K  K1  1  0.36854500  0.63145500  0.06969900  1
  K  K2  1  0.86854500  0.13145500  0.43030100  1
  K  K3  1  0.53623100  0.96376900  0.75000000  1
  K  K4  1  0.03623100  0.46376900  0.75000000  1
  K  K5  1  0.13145500  0.86854500  0.56969900  1
  K  K6  1  0.96376900  0.53623100  0.25000000  1
  K  K7  1  0.63145500  0.36854500  0.93030100  1
  Ni  Ni0  1  0.17841900  0.17841900  0.00000000  1
  Ni  Ni1  1  0.67841900  0.67841900  0.50000000  1
  Ni  Ni2  1  0.82158100  0.82158100  0.00000000  1
  Ni  Ni3  1  0.32158100  0.32158100  0.50000000  1
  Mo  Mo0  1  0.53140000  0.46860000  0.21644800  1
  Mo  Mo1  1  0.46860000  0.53140000  0.78355200  1
  Mo  Mo2  1  0.34316800  0.65683200  0.46505100  1
  Mo  Mo3  1  0.03140000  0.96860000  0.28355200  1
  Mo  Mo4  1  0.65683200  0.34316800  0.53494900  1
  Mo  Mo5  1  0.96860000  0.03140000  0.71644900  1
  Mo  Mo6  1  0.15683200  0.84316800  0.96505100  1
  Mo  Mo7  1  0.84316800  0.15683200  0.03494900  1
  O  O0  1  0.16149000  0.16456300  0.36463400  1
  O  O1  1  0.21497100  0.43262700  0.49936400  1
  O  O2  1  0.99912200  0.00087800  0.12666000  1
  O  O3  1  0.83851000  0.83543700  0.63536600  1
  O  O4  1  0.87696400  0.12303600  0.70631800  1
  O  O5  1  0.37696400  0.62303600  0.79368200  1
  O  O6  1  0.16456300  0.16149000  0.63536600  1
  O  O7  1  0.26745800  0.73254200  0.55743400  1
  O  O8  1  0.66456300  0.66149000  0.86463400  1
  O  O9  1  0.56737300  0.78502900  0.49936400  1
  O  O10  1  0.23254200  0.76745800  0.05743400  1
  O  O11  1  0.68462200  0.31537800  0.68955600  1
  O  O12  1  0.62303600  0.37696400  0.20631800  1
  O  O13  1  0.71497100  0.93262700  0.00063600  1
  O  O14  1  0.83543700  0.83851000  0.36463400  1
  O  O15  1  0.12303600  0.87696400  0.29368200  1
  O  O16  1  0.43262700  0.21497100  0.50063600  1
  O  O17  1  0.06737300  0.28502900  0.00063600  1
  O  O18  1  0.50087800  0.49912200  0.62666000  1
  O  O19  1  0.28502900  0.06737300  0.99936400  1
  O  O20  1  0.00087800  0.99912200  0.87334000  1
  O  O21  1  0.81537800  0.18462200  0.18955600  1
  O  O22  1  0.76745800  0.23254200  0.94256600  1
  O  O23  1  0.33851000  0.33543700  0.86463400  1
  O  O24  1  0.49912200  0.50087800  0.37334000  1
  O  O25  1  0.18462200  0.81537800  0.81044400  1
  O  O26  1  0.66149000  0.66456300  0.13536600  1
  O  O27  1  0.31537800  0.68462200  0.31044400  1
  O  O28  1  0.93262700  0.71497100  0.99936400  1
  O  O29  1  0.73254200  0.26745800  0.44256600  1
  O  O30  1  0.78502900  0.56737300  0.50063600  1
  O  O31  1  0.33543700  0.33851000  0.13536600  1
loop_
_geom_bond_atom_site_label_1
_geom_bond_atom_site_label_2
_geom_bond_distance
_geom_bond_site_symmetry_2
K0 O15 2.817124 1_545
K0 O12 2.817124 1_555
K0 O21 2.989031 1_555
K0 O27 2.989031 1_545
K0 O10 3.048053 1_545
K0 O29 3.048053 1_555
K1 O10 2.636912 1_555
K1 O27 2.856541 1_555
K1 O13 2.918831 1_555
K1 O17 2.918831 1_555
K1 O31 2.969743 1_555
K1 O26 2.969743 1_555
K1 O5 3.059326 1_554
K2 O29 2.636912 1_555
K2 O21 2.856541 1_555
K2 O9 2.918831 1_545
K2 O1 2.918831 1_655
K2 O0 2.969743 1_655
K2 O14 2.969743 1_545
K2 O4 3.059326 1_555
K3 O4 2.817124 1_565
K3 O5 2.817124 1_555
K3 O11 2.989031 1_565
K3 O25 2.989031 1_555
K3 O7 3.048053 1_555
K3 O22 3.048053 1_565
K4 O4 2.817124 1_455
K4 O5 2.817124 1_555
K4 O11 2.989031 1_455
K4 O25 2.989031 1_555
K4 O22 3.048053 1_455
K4 O7 3.048053 1_555
K5 O7 2.636912 1_555
K5 O25 2.856541 1_555
K5 O16 2.918831 1_565
K5 O30 2.918831 1_455
K5 O6 2.969743 1_565
K5 O3 2.969743 1_455
K5 O15 3.059326 1_555
K6 O12 2.817124 1_555
K6 O15 2.817124 1_655
K6 O27 2.989031 1_655
K6 O21 2.989031 1_555
K6 O29 3.048053 1_555
K6 O10 3.048053 1_655
K7 O22 2.636912 1_555
K7 O11 2.856541 1_555
K7 O28 2.918831 1_555
K7 O19 2.918831 1_555
K7 O8 2.969743 1_555
K7 O23 2.969743 1_555
K7 O12 3.059326 1_556
Ni0 O31 2.025409 1_555
Ni0 O23 2.025409 1_554
Ni0 O2 2.077643 1_455
Ni0 O20 2.077643 1_544
Ni0 O17 2.107326 1_555
Ni0 O19 2.107326 1_554
Ni1 O14 2.025409 1_555
Ni1 O3 2.025409 1_555
Ni1 O18 2.077643 1_555
Ni1 O24 2.077643 1_555
Ni1 O30 2.107326 1_555
Ni1 O9 2.107326 1_555
Ni2 O26 2.025409 1_555
Ni2 O8 2.025409 1_554
Ni2 O20 2.077643 1_654
Ni2 O2 2.077643 1_565
Ni2 O28 2.107326 1_554
Ni2 O13 2.107326 1_555
Ni3 O6 2.025409 1_555
Ni3 O0 2.025409 1_555
Ni3 O24 2.077643 1_555
Ni3 O18 2.077643 1_555
Ni3 O1 2.107326 1_555
Ni3 O16 2.107326 1_555
Mo0 O12 1.777879 1_555
Mo0 O31 1.781843 1_555
Mo0 O26 1.781843 1_555
Mo0 O24 1.845544 1_555
Mo1 O5 1.777879 1_555
Mo1 O8 1.781843 1_555
Mo1 O23 1.781843 1_555
Mo1 O18 1.845544 1_555
Mo2 O7 1.787336 1_555
Mo2 O27 1.793813 1_555
Mo2 O1 1.816904 1_555
Mo2 O9 1.816904 1_555
Mo3 O15 1.777879 1_555
Mo3 O14 1.781843 1_455
Mo3 O0 1.781843 1_565
Mo3 O2 1.845544 1_465
Mo4 O29 1.787336 1_555
Mo4 O11 1.793813 1_555
Mo4 O16 1.816904 1_555
Mo4 O30 1.816904 1_555
Mo5 O4 1.777880 1_555
Mo5 O6 1.781848 1_655
Mo5 O3 1.781848 1_545
Mo5 O20 1.845534 1_645
Mo6 O10 1.787336 1_556
Mo6 O25 1.793813 1_555
Mo6 O19 1.816904 1_565
Mo6 O28 1.816904 1_455
Mo7 O22 1.787336 1_554
Mo7 O21 1.793813 1_555
Mo7 O17 1.816904 1_655
Mo7 O13 1.816904 1_545
