# generated using pymatgen
data_NbPO5
_symmetry_space_group_name_H-M   'P 1'
_cell_length_a   5.34595525
_cell_length_b   13.16294460
_cell_length_c   13.21319406
_cell_angle_alpha   118.94609060
_cell_angle_beta   90.00000000
_cell_angle_gamma   90.00000000
_symmetry_Int_Tables_number   1
_chemical_formula_structural   NbPO5
_chemical_formula_sum   'Nb8 P8 O40'
_cell_volume   813.63889006
_cell_formula_units_Z   8
loop_
 _symmetry_equiv_pos_site_id
 _symmetry_equiv_pos_as_xyz
  1  'x, y, z'
loop_
 _atom_site_type_symbol
 _atom_site_label
 _atom_site_symmetry_multiplicity
 _atom_site_fract_x
 _atom_site_fract_y
 _atom_site_fract_z
 _atom_site_occupancy
  Nb  Nb0  1  0.75455325  0.36603697  0.30308903  1
  Nb  Nb1  1  0.25455325  0.13396303  0.19691097  1
  Nb  Nb2  1  0.24544675  0.63396303  0.69691097  1
  Nb  Nb3  1  0.74544675  0.86603697  0.80308903  1
  Nb  Nb4  1  0.74603563  0.19716393  0.63362417  1
  Nb  Nb5  1  0.24603563  0.30283607  0.86637583  1
  Nb  Nb6  1  0.25396437  0.80283607  0.36637583  1
  Nb  Nb7  1  0.75396437  0.69716393  0.13362417  1
  P  P0  1  0.74122022  0.40874524  0.06277304  1
  P  P1  1  0.24122022  0.09125476  0.43722696  1
  P  P2  1  0.25877978  0.59125476  0.93722696  1
  P  P3  1  0.75877978  0.90874524  0.56277304  1
  P  P4  1  0.23737551  0.06291648  0.90913962  1
  P  P5  1  0.73737551  0.43708352  0.59086038  1
  P  P6  1  0.76262449  0.93708352  0.09086038  1
  P  P7  1  0.26262449  0.56291648  0.40913962  1
  O  O0  1  0.75049775  0.37255389  0.15646036  1
  O  O1  1  0.25049775  0.12744611  0.34353964  1
  O  O2  1  0.24950225  0.62744611  0.84353964  1
  O  O3  1  0.74950225  0.87255389  0.65646036  1
  O  O4  1  0.76124481  0.37754879  0.45936413  1
  O  O5  1  0.26124481  0.12245121  0.04063587  1
  O  O6  1  0.23875519  0.62245121  0.54063587  1
  O  O7  1  0.73875519  0.87754879  0.95936413  1
  O  O8  1  0.46712498  0.26665175  0.25911853  1
  O  O9  1  0.96712498  0.23334825  0.24088047  1
  O  O10  1  0.53287502  0.73334825  0.74088147  1
  O  O11  1  0.03287502  0.76665175  0.75911853  1
  O  O12  1  0.51863517  0.50749617  0.37234358  1
  O  O13  1  0.01863517  0.99250383  0.12765642  1
  O  O14  1  0.48136483  0.49250383  0.62765642  1
  O  O15  1  0.98136483  0.00749617  0.87234358  1
  O  O16  1  0.05554392  0.47404981  0.35348089  1
  O  O17  1  0.55554392  0.02595019  0.14651911  1
  O  O18  1  0.94445608  0.52595019  0.64651911  1
  O  O19  1  0.44445608  0.97404981  0.85348089  1
  O  O20  1  0.76764396  0.34425754  0.62788298  1
  O  O21  1  0.26764396  0.15574246  0.87211702  1
  O  O22  1  0.23235604  0.65574246  0.37211702  1
  O  O23  1  0.73235604  0.84425754  0.12788298  1
  O  O24  1  0.71942548  0.03991693  0.62072219  1
  O  O25  1  0.21942548  0.46008307  0.87927781  1
  O  O26  1  0.28057452  0.96008307  0.37927781  1
  O  O27  1  0.78057452  0.53991693  0.12072219  1
  O  O28  1  0.52647255  0.26236408  0.76374565  1
  O  O29  1  0.02647255  0.23763592  0.73625435  1
  O  O30  1  0.47352745  0.73763592  0.23625435  1
  O  O31  1  0.97352745  0.76236408  0.26374565  1
  O  O32  1  0.98715556  0.12307179  0.49553127  1
  O  O33  1  0.48715556  0.37692821  0.00446873  1
  O  O34  1  0.01284444  0.87692821  0.50446873  1
  O  O35  1  0.51284444  0.62307179  0.99553127  1
  O  O36  1  0.44996398  0.15301382  0.52318249  1
  O  O37  1  0.94996398  0.34698618  0.97681751  1
  O  O38  1  0.55003602  0.84698618  0.47681751  1
  O  O39  1  0.05003602  0.65301382  0.02318249  1
loop_
_geom_bond_atom_site_label_1
_geom_bond_atom_site_label_2
_geom_bond_distance
_geom_bond_site_symmetry_2
Nb0 O9 1.904706 1_555
Nb0 O8 1.916848 1_555
Nb0 O0 1.980492 1_555
Nb0 O4 1.996285 1_555
Nb0 O16 2.034100 1_655
Nb0 O12 2.060535 1_555
Nb1 O8 1.904706 1_555
Nb1 O9 1.916848 1_455
Nb1 O1 1.980492 1_555
Nb1 O5 1.996285 1_555
Nb1 O17 2.034100 1_555
Nb1 O13 2.060535 1_545
Nb2 O11 1.904706 1_555
Nb2 O10 1.916848 1_555
Nb2 O2 1.980492 1_555
Nb2 O6 1.996285 1_555
Nb2 O18 2.034100 1_455
Nb2 O14 2.060535 1_555
Nb3 O10 1.904706 1_555
Nb3 O11 1.916848 1_655
Nb3 O3 1.980492 1_555
Nb3 O7 1.996285 1_555
Nb3 O19 2.034100 1_555
Nb3 O15 2.060535 1_565
Nb4 O28 1.908416 1_555
Nb4 O29 1.916001 1_655
Nb4 O20 1.977394 1_555
Nb4 O24 1.997987 1_555
Nb4 O36 2.037538 1_555
Nb4 O32 2.054148 1_555
Nb5 O29 1.908416 1_555
Nb5 O28 1.916001 1_555
Nb5 O21 1.977394 1_555
Nb5 O25 1.997987 1_555
Nb5 O37 2.037538 1_455
Nb5 O33 2.054148 1_556
Nb6 O30 1.908416 1_555
Nb6 O31 1.916001 1_455
Nb6 O22 1.977394 1_555
Nb6 O26 1.997987 1_555
Nb6 O38 2.037538 1_555
Nb6 O34 2.054148 1_555
Nb7 O31 1.908416 1_555
Nb7 O30 1.916001 1_555
Nb7 O23 1.977394 1_555
Nb7 O27 1.997987 1_555
Nb7 O39 2.037538 1_655
Nb7 O35 2.054148 1_554
O0 P0 1.527303 1_555
O1 P1 1.527303 1_555
O2 P2 1.527303 1_555
O3 P3 1.527303 1_555
O4 P5 1.526851 1_555
O5 P4 1.526851 1_554
O6 P7 1.526851 1_555
O7 P6 1.526851 1_556
O12 P7 1.516033 1_555
O13 P6 1.516033 1_455
O14 P5 1.516033 1_555
O15 P4 1.516033 1_655
O16 P7 1.517233 1_555
O17 P6 1.517233 1_545
O18 P5 1.517233 1_555
O19 P4 1.517233 1_565
O20 P5 1.528729 1_555
O21 P4 1.528729 1_555
O22 P7 1.528729 1_555
O23 P6 1.528729 1_555
O24 P3 1.527091 1_545
O25 P2 1.527091 1_555
O26 P1 1.527091 1_565
O27 P0 1.527091 1_555
O32 P1 1.517017 1_655
O33 P0 1.517017 1_555
O34 P3 1.517017 1_455
O35 P2 1.517017 1_555
O36 P1 1.517358 1_555
O37 P0 1.517358 1_556
O38 P3 1.517358 1_555
O39 P2 1.517358 1_554
