# generated using pymatgen
data_Sr4In13Au9
_symmetry_space_group_name_H-M   'P 1'
_cell_length_a   12.73240145
_cell_length_b   12.73252936
_cell_length_c   4.49926759
_cell_angle_alpha   89.99999765
_cell_angle_beta   90.00000300
_cell_angle_gamma   119.99929412
_symmetry_Int_Tables_number   1
_chemical_formula_structural   Sr4In13Au9
_chemical_formula_sum   'Sr4 In13 Au9'
_cell_volume   631.68498430
_cell_formula_units_Z   1
loop_
 _symmetry_equiv_pos_site_id
 _symmetry_equiv_pos_as_xyz
  1  'x, y, z'
loop_
 _atom_site_type_symbol
 _atom_site_label
 _atom_site_symmetry_multiplicity
 _atom_site_fract_x
 _atom_site_fract_y
 _atom_site_fract_z
 _atom_site_occupancy
  Sr  Sr0  1  0.20611746  0.79387846  0.50000030  1
  Sr  Sr1  1  0.58776394  0.79387678  0.50000001  1
  Sr  Sr2  1  0.20611984  0.41223068  0.49999977  1
  Sr  Sr3  1  0.66666773  0.33333579  0.00000007  1
  In  In0  1  0.94968311  0.29291006  -0.00000004  1
  In  In1  1  0.70708312  0.65676325  -0.00000002  1
  In  In2  1  0.94969621  0.65677404  0.00000004  1
  In  In3  1  0.34322917  0.05031144  -0.00000001  1
  In  In4  1  0.16513705  0.08256758  0.49999998  1
  In  In5  1  0.91743699  0.83487339  0.50000007  1
  In  In6  1  0.70708600  0.05032102  0.00000000  1
  In  In7  1  0.53258746  0.06518877  0.49999998  1
  In  In8  1  0.91742638  0.08256817  0.49999998  1
  In  In9  1  0.34322704  0.29291342  0.00000005  1
  In  In10  1  0.53260533  0.46741236  0.49999998  1
  In  In11  1  0.93481491  0.46740738  0.49999996  1
  In  In12  1  0.33333582  0.66666559  -0.00000013  1
  Au  Au0  1  0.45477085  0.54522409  0.00000001  1
  Au  Au1  1  0.82230613  0.91114374  -0.00000000  1
  Au  Au2  1  0.45477346  0.90954629  -0.00000004  1
  Au  Au3  1  0.08883809  0.17767678  0.00000003  1
  Au  Au4  1  0.08883753  0.91116082  0.00000002  1
  Au  Au5  1  0.78603555  0.57206674  0.50000004  1
  Au  Au6  1  0.09045139  0.54522167  0.00000004  1
  Au  Au7  1  0.78601679  0.21398271  0.49999994  1
  Au  Au8  1  0.42795465  0.21397797  0.49999998  1
loop_
_geom_bond_atom_site_label_1
_geom_bond_atom_site_label_2
_geom_bond_distance
_geom_bond_site_symmetry_2
In0 In6 3.088841 1_555
In0 In11 3.233210 1_554
In0 In11 3.233210 1_555
In0 In8 3.361886 1_554
In0 In8 3.361886 1_555
In0 Sr2 3.615138 1_655
In0 Sr2 3.615139 1_654
In0 Sr3 3.886469 1_555
In1 In2 3.088979 1_555
In1 In10 3.233069 1_554
In1 In10 3.233069 1_555
In1 In5 3.362046 1_554
In1 In5 3.362047 1_555
In1 Sr1 3.615094 1_554
In1 Sr1 3.615094 1_555
In1 Sr3 3.886398 1_555
In2 In5 3.362024 1_554
In2 In5 3.362025 1_555
In2 Sr0 3.615006 1_654
In2 Sr0 3.615008 1_655
In2 Sr3 3.886581 1_555
In3 In9 3.088950 1_555
In3 In7 3.233093 1_555
In3 In7 3.233094 1_554
In3 In4 3.361924 1_554
In3 In4 3.361924 1_555
In3 Sr0 3.615129 1_544
In3 Sr0 3.615131 1_545
In3 Sr3 3.886553 1_555
In4 In5 3.153829 1_445
In4 In8 3.153955 1_455
In4 In9 3.361935 1_555
In4 In9 3.361935 1_556
In5 In8 3.153849 1_565
In6 In7 3.233203 1_554
In6 In7 3.233203 1_555
In6 In8 3.361885 1_555
In6 In8 3.361885 1_554
In6 Sr1 3.615228 1_545
In6 Sr1 3.615228 1_544
In6 Sr3 3.886438 1_555
In7 Sr3 3.715305 1_555
In7 Sr3 3.715306 1_556
In9 Sr2 3.615019 1_555
In9 Sr2 3.615021 1_554
In9 Sr3 3.886487 1_555
In10 In9 3.233291 1_555
In10 In9 3.233292 1_556
In10 Sr3 3.715198 1_555
In10 Sr3 3.715198 1_556
In11 In2 3.233172 1_555
In11 In2 3.233172 1_556
In11 Sr3 3.715283 1_555
In11 Sr3 3.715284 1_556
In12 Sr1 3.596059 1_554
In12 Sr1 3.596060 1_555
In12 Sr0 3.596072 1_554
In12 Sr0 3.596075 1_555
In12 Sr2 3.596139 1_555
In12 Sr2 3.596140 1_554
Au0 In12 2.678102 1_555
Au0 In1 2.788377 1_555
Au0 In9 2.788384 1_555
Au0 In10 2.829551 1_555
Au0 In10 2.829552 1_554
Au0 Sr2 3.548303 1_555
Au0 Sr2 3.548304 1_554
Au0 Sr1 3.548338 1_554
Au0 Sr1 3.548338 1_555
Au1 In1 2.809130 1_555
Au1 In6 2.809283 1_565
Au1 In5 2.940622 1_554
Au1 In5 2.940623 1_555
Au1 In8 2.940796 1_565
Au1 In8 2.940796 1_564
Au1 Au4 3.393476 1_655
Au1 Au3 3.393652 1_665
Au1 Sr1 3.427736 1_554
Au1 Sr1 3.427736 1_555
Au2 In12 2.678190 1_555
Au2 In3 2.788330 1_565
Au2 In6 2.788388 1_565
Au2 In7 2.829543 1_564
Au2 In7 2.829543 1_565
Au2 Sr0 3.548339 1_554
Au2 Sr0 3.548341 1_555
Au2 Sr1 3.548363 1_554
Au2 Sr1 3.548363 1_555
Au3 In0 2.809167 1_455
Au3 In9 2.809187 1_555
Au3 In4 2.940660 1_555
Au3 In4 2.940661 1_554
Au3 In8 2.940692 1_455
Au3 In8 2.940692 1_454
Au3 Au4 3.393419 1_545
Au3 Sr2 3.427852 1_555
Au3 Sr2 3.427854 1_554
Au4 In2 2.809188 1_455
Au4 In3 2.809220 1_565
Au4 In5 2.940615 1_454
Au4 In5 2.940615 1_455
Au4 In4 2.940667 1_565
Au4 In4 2.940668 1_564
Au4 Sr0 3.427891 1_554
Au4 Sr0 3.427893 1_555
Au5 In10 2.808566 1_555
Au5 In11 2.808644 1_555
Au5 In1 2.884160 1_556
Au5 In1 2.884160 1_555
Au5 In2 2.884248 1_556
Au5 In2 2.884248 1_555
Au5 In5 2.897909 1_555
Au5 Sr3 3.462737 1_555
Au5 Sr3 3.462737 1_556
Au6 In12 2.678204 1_555
Au6 In2 2.788297 1_455
Au6 In0 2.788398 1_455
Au6 In11 2.829492 1_455
Au6 In11 2.829492 1_454
Au6 Sr2 3.548359 1_555
Au6 Sr2 3.548361 1_554
Au6 Sr0 3.548369 1_554
Au6 Sr0 3.548371 1_555
Au7 In11 2.808571 1_555
Au7 In7 2.808590 1_555
Au7 In6 2.884270 1_555
Au7 In6 2.884270 1_556
Au7 In0 2.884291 1_555
Au7 In0 2.884291 1_556
Au7 In8 2.898056 1_555
Au7 Sr3 3.462464 1_555
Au7 Sr3 3.462465 1_556
Au8 In7 2.808490 1_555
Au8 In10 2.808650 1_555
Au8 In9 2.884261 1_555
Au8 In9 2.884261 1_556
Au8 In3 2.884302 1_555
Au8 In3 2.884302 1_556
Au8 In4 2.898001 1_555
Au8 Sr3 3.462567 1_555
Au8 Sr3 3.462568 1_556
