# generated using pymatgen
data_Rb6U5V2O23
_symmetry_space_group_name_H-M   'P 1'
_cell_length_a   14.55621200
_cell_length_b   7.24106500
_cell_length_c   25.23777714
_cell_angle_alpha   89.70871803
_cell_angle_beta   90.00000000
_cell_angle_gamma   90.00000000
_symmetry_Int_Tables_number   1
_chemical_formula_structural   Rb6U5V2O23
_chemical_formula_sum   'Rb24 U20 V8 O92'
_cell_volume   2660.08985477
_cell_formula_units_Z   4
loop_
 _symmetry_equiv_pos_site_id
 _symmetry_equiv_pos_as_xyz
  1  'x, y, z'
loop_
 _atom_site_type_symbol
 _atom_site_label
 _atom_site_symmetry_multiplicity
 _atom_site_fract_x
 _atom_site_fract_y
 _atom_site_fract_z
 _atom_site_occupancy
  Rb  Rb0  1  0.62523300  0.49860300  0.74545000  1
  Rb  Rb1  1  0.40344100  0.00881200  0.16691100  1
  Rb  Rb2  1  0.90344100  0.49118800  0.33308900  1
  Rb  Rb3  1  0.55700900  0.01551000  0.65382000  1
  Rb  Rb4  1  0.53196700  0.50547600  0.91902500  1
  Rb  Rb5  1  0.44299100  0.98449000  0.34618000  1
  Rb  Rb6  1  0.03196700  0.99452400  0.58097500  1
  Rb  Rb7  1  0.59655900  0.99118800  0.83308900  1
  Rb  Rb8  1  0.94299100  0.51551000  0.15382000  1
  Rb  Rb9  1  0.05610500  0.99686500  0.92360300  1
  Rb  Rb10  1  0.44389500  0.49686500  0.42360300  1
  Rb  Rb11  1  0.94389500  0.00313500  0.07639700  1
  Rb  Rb12  1  0.00000000  0.50000000  0.50000000  1
  Rb  Rb13  1  0.05700900  0.48449000  0.84618000  1
  Rb  Rb14  1  0.96803300  0.00547600  0.41902500  1
  Rb  Rb15  1  0.50000000  0.00000000  0.50000000  1
  Rb  Rb16  1  0.00000000  0.50000000  0.00000000  1
  Rb  Rb17  1  0.87476700  0.99860300  0.24545000  1
  Rb  Rb18  1  0.09655900  0.50881200  0.66691100  1
  Rb  Rb19  1  0.37476700  0.50139700  0.25455000  1
  Rb  Rb20  1  0.46803300  0.49452400  0.08097500  1
  Rb  Rb21  1  0.50000000  0.00000000  0.00000000  1
  Rb  Rb22  1  0.55610500  0.50313500  0.57639700  1
  Rb  Rb23  1  0.12523300  0.00139700  0.75455000  1
  U  U0  1  0.27030300  0.67472200  0.54334900  1
  U  U1  1  0.22640500  0.16675700  0.46297000  1
  U  U2  1  0.27359500  0.66675700  0.96297000  1
  U  U3  1  0.81290600  0.32305200  0.61934000  1
  U  U4  1  0.77030300  0.82527800  0.95665100  1
  U  U5  1  0.83062900  0.81516300  0.68005200  1
  U  U6  1  0.80153700  0.31885900  0.89613400  1
  U  U7  1  0.22969700  0.17472200  0.04334900  1
  U  U8  1  0.69846300  0.81885900  0.39613400  1
  U  U9  1  0.68709400  0.82305200  0.11934000  1
  U  U10  1  0.18709400  0.67694800  0.38066000  1
  U  U11  1  0.72969700  0.32527800  0.45665100  1
  U  U12  1  0.33062900  0.68483700  0.81994800  1
  U  U13  1  0.72640500  0.33324300  0.03703000  1
  U  U14  1  0.31290600  0.17694800  0.88066000  1
  U  U15  1  0.77359500  0.83324300  0.53703000  1
  U  U16  1  0.19846300  0.68114100  0.10386600  1
  U  U17  1  0.66937100  0.31516300  0.18005200  1
  U  U18  1  0.30153700  0.18114100  0.60386600  1
  U  U19  1  0.16937100  0.18483700  0.31994800  1
  V  V0  1  0.13908200  0.17509500  0.16516300  1
  V  V1  1  0.38763000  0.18634400  0.75645600  1
  V  V2  1  0.36091800  0.67509500  0.66516300  1
  V  V3  1  0.61237000  0.81365600  0.24354400  1
  V  V4  1  0.86091800  0.82490500  0.83483700  1
  V  V5  1  0.11237000  0.68634400  0.25645600  1
  V  V6  1  0.63908200  0.32490500  0.33483700  1
  V  V7  1  0.88763000  0.31365600  0.74354400  1
  O  O0  1  0.45884200  0.68654700  0.82376800  1
  O  O1  1  0.60557800  0.32961800  0.47692500  1
  O  O2  1  0.19237500  0.36275000  0.39554000  1
  O  O3  1  0.54115800  0.31345300  0.17623200  1
  O  O4  1  0.84613100  0.49585200  0.70198500  1
  O  O5  1  0.39442200  0.67038200  0.52307500  1
  O  O6  1  0.65386900  0.99585200  0.20198500  1
  O  O7  1  0.18985700  0.18195800  0.85832900  1
  O  O8  1  0.31307900  0.69439300  0.72749000  1
  O  O9  1  0.81307900  0.80560700  0.77251000  1
  O  O10  1  0.84763300  0.12927100  0.70462800  1
  O  O11  1  0.31608300  0.49464100  0.89295700  1
  O  O12  1  0.73740000  0.64058700  0.46971200  1
  O  O13  1  0.22582800  0.68632500  0.46268400  1
  O  O14  1  0.65236700  0.62927100  0.20462800  1
  O  O15  1  0.81014300  0.81804200  0.14167100  1
  O  O16  1  0.06112200  0.66789700  0.39611400  1
  O  O17  1  0.68985700  0.31804200  0.64167100  1
  O  O18  1  0.81608300  0.00535900  0.60704300  1
  O  O19  1  0.65023800  0.84373100  0.55907300  1
  O  O20  1  0.33157600  0.86446100  0.62394300  1
  O  O21  1  0.02404400  0.15056700  0.16978800  1
  O  O22  1  0.64872700  0.82383100  0.93156400  1
  O  O23  1  0.79597200  0.30936300  0.18707500  1
  O  O24  1  0.68692100  0.30560700  0.27251000  1
  O  O25  1  0.69185500  0.50089900  0.37459000  1
  O  O26  1  0.80762500  0.63725000  0.60446000  1
  O  O27  1  0.99599700  0.68422000  0.25263300  1
  O  O28  1  0.68103300  0.32843800  0.87129200  1
  O  O29  1  0.31896700  0.67156200  0.12870800  1
  O  O30  1  0.18103300  0.17156200  0.62870800  1
  O  O31  1  0.42538900  0.19702800  0.58498000  1
  O  O32  1  0.20402800  0.69063700  0.81292500  1
  O  O33  1  0.15236700  0.87072900  0.29537200  1
  O  O34  1  0.73588300  0.00722400  0.46619900  1
  O  O35  1  0.76411700  0.50722400  0.96619900  1
  O  O36  1  0.00400300  0.31578000  0.74736700  1
  O  O37  1  0.26260000  0.35941300  0.53028800  1
  O  O38  1  0.04115800  0.18654700  0.32376800  1
  O  O39  1  0.07461100  0.69702800  0.08498000  1
  O  O40  1  0.35127300  0.17616900  0.06843600  1
  O  O41  1  0.10557800  0.17038200  0.02307500  1
  O  O42  1  0.30814500  0.49910100  0.62541000  1
  O  O43  1  0.34613100  0.00414800  0.79801500  1
  O  O44  1  0.92538900  0.30297200  0.91502000  1
  O  O45  1  0.97595600  0.84943300  0.83021200  1
  O  O46  1  0.72582800  0.81367500  0.03731600  1
  O  O47  1  0.65888400  0.82007400  0.30675700  1
  O  O48  1  0.34111600  0.17992600  0.69324300  1
  O  O49  1  0.84976200  0.34373100  0.05907300  1
  O  O50  1  0.68391700  0.50535900  0.10704300  1
  O  O51  1  0.27417200  0.18632500  0.96268400  1
  O  O52  1  0.70402800  0.80936300  0.68707500  1
  O  O53  1  0.93887800  0.33210300  0.60388600  1
  O  O54  1  0.84111600  0.32007400  0.80675700  1
  O  O55  1  0.18692100  0.19439300  0.22749000  1
  O  O56  1  0.15386900  0.50414800  0.29801500  1
  O  O57  1  0.39693800  0.66899900  0.98550100  1
  O  O58  1  0.95884200  0.81345300  0.67623200  1
  O  O59  1  0.52404400  0.34943300  0.33021200  1
  O  O60  1  0.89442200  0.82961800  0.97692500  1
  O  O61  1  0.69237500  0.13725000  0.10446000  1
  O  O62  1  0.19185500  0.99910100  0.12541000  1
  O  O63  1  0.56112200  0.83210300  0.10388600  1
  O  O64  1  0.50400300  0.18422000  0.75263300  1
  O  O65  1  0.76260000  0.14058700  0.96971200  1
  O  O66  1  0.43887800  0.16789700  0.89611400  1
  O  O67  1  0.80814500  0.00089900  0.87459000  1
  O  O68  1  0.34976200  0.15626900  0.44092700  1
  O  O69  1  0.49599700  0.81578000  0.24736700  1
  O  O70  1  0.29597200  0.19063700  0.31292500  1
  O  O71  1  0.57461100  0.80297200  0.41502000  1
  O  O72  1  0.77417200  0.31367500  0.53731600  1
  O  O73  1  0.31014300  0.68195800  0.35832900  1
  O  O74  1  0.16842400  0.36446100  0.12394300  1
  O  O75  1  0.34763300  0.37072900  0.79537200  1
  O  O76  1  0.15888400  0.67992600  0.19324300  1
  O  O77  1  0.89693800  0.83100100  0.51449900  1
  O  O78  1  0.18391700  0.99464100  0.39295700  1
  O  O79  1  0.30762500  0.86275000  0.89554000  1
  O  O80  1  0.14872700  0.67616900  0.56843600  1
  O  O81  1  0.23740000  0.85941300  0.03028800  1
  O  O82  1  0.85127300  0.32383100  0.43156400  1
  O  O83  1  0.26411700  0.99277600  0.53380100  1
  O  O84  1  0.83157600  0.63553900  0.87605700  1
  O  O85  1  0.47595600  0.65056700  0.66978800  1
  O  O86  1  0.66842400  0.13553900  0.37605700  1
  O  O87  1  0.15023800  0.65626900  0.94092700  1
  O  O88  1  0.23588300  0.49277600  0.03380100  1
  O  O89  1  0.10306200  0.16899900  0.48550100  1
  O  O90  1  0.81896700  0.82843800  0.37129200  1
  O  O91  1  0.60306200  0.33100100  0.01449900  1
loop_
_geom_bond_atom_site_label_1
_geom_bond_atom_site_label_2
_geom_bond_distance
_geom_bond_site_symmetry_2
O0 U12 1.868828 1_555
O0 Rb4 2.932512 1_555
O0 Rb7 2.990868 1_555
O0 Rb0 3.413572 1_555
O1 U11 1.878066 1_555
O1 Rb15 2.895438 1_555
O1 Rb22 2.903740 1_555
O1 Rb10 2.966475 1_555
O2 U1 2.265172 1_555
O2 U10 2.305311 1_555
O2 U19 2.331605 1_555
O3 U17 1.868828 1_555
O3 Rb20 2.932512 1_555
O3 Rb1 2.990868 1_555
O3 Rb19 3.413572 1_555
O4 V7 1.786467 1_555
O4 U5 2.385447 1_555
O4 U3 2.485264 1_555
O4 Rb0 3.397497 1_555
O5 U0 1.878066 1_555
O5 Rb15 2.895438 1_565
O5 Rb10 2.903740 1_555
O5 Rb22 2.966475 1_555
O6 V3 1.786467 1_555
O6 U17 2.385447 1_565
O6 U9 2.485264 1_555
O6 Rb17 3.397497 1_555
O7 U14 1.877997 1_555
O7 Rb9 2.877188 1_545
O7 Rb13 2.936935 1_555
O7 Rb23 3.080436 1_555
O8 V2 1.726553 1_555
O8 U12 2.348047 1_555
O9 V4 1.726553 1_555
O9 U5 2.348047 1_555
O10 V7 1.760548 1_555
O10 U5 2.373510 1_545
O10 U3 2.612833 1_555
O11 U2 2.253964 1_555
O11 U12 2.304536 1_555
O11 U14 2.323299 1_555
O11 Rb4 3.211623 1_555
O12 U15 2.265890 1_555
O12 U11 2.311225 1_555
O12 U8 2.326258 1_555
O13 U0 2.137506 1_555
O13 U10 2.146919 1_555
O14 V3 1.760548 1_555
O14 U17 2.373510 1_555
O14 U9 2.612833 1_555
O15 U9 1.877997 1_555
O15 Rb11 2.877188 1_565
O15 Rb8 2.936935 1_555
O15 Rb17 3.080436 1_555
O16 U10 1.875772 1_555
O16 Rb14 2.856579 1_465
O16 Rb12 3.018497 1_555
O16 Rb2 3.075082 1_455
O17 U3 1.877997 1_555
O17 Rb22 2.877188 1_555
O17 Rb3 2.936935 1_555
O17 Rb0 3.080436 1_555
O18 U15 2.253964 1_545
O18 U5 2.304536 1_545
O18 U3 2.323299 1_555
O18 Rb6 3.211623 1_645
O19 U15 1.881463 1_555
O19 Rb22 2.853108 1_555
O19 Rb15 2.875495 1_565
O19 Rb3 3.022732 1_565
O20 V2 1.769284 1_555
O20 U18 2.386301 1_565
O20 U0 2.617012 1_555
O21 V0 1.687889 1_555
O21 Rb11 2.842842 1_455
O21 Rb8 2.920064 1_455
O21 Rb17 3.091496 1_445
O22 U4 1.879583 1_555
O22 Rb7 2.862036 1_555
O22 Rb4 2.882746 1_555
O22 Rb21 3.052804 1_566
O23 U17 1.851791 1_555
O23 Rb8 2.738549 1_555
O23 Rb17 2.918190 1_545
O24 V6 1.726553 1_555
O24 U17 2.348047 1_555
O25 V6 1.798253 1_555
O25 U8 2.370341 1_555
O25 U11 2.486567 1_555
O25 Rb2 3.253990 1_555
O26 U15 2.265172 1_555
O26 U3 2.305311 1_555
O26 U5 2.331605 1_555
O27 V5 1.696770 1_655
O27 Rb2 2.804112 1_555
O27 Rb17 2.885301 1_555
O27 Rb8 2.887531 1_555
O28 U6 1.863933 1_555
O28 Rb4 2.796160 1_555
O28 Rb7 2.903294 1_545
O28 Rb0 3.496426 1_555
O29 U16 1.863933 1_555
O29 Rb20 2.796160 1_555
O29 Rb1 2.903294 1_565
O29 Rb19 3.496426 1_555
O30 U18 1.863933 1_555
O30 Rb6 2.796160 1_545
O30 Rb18 2.903294 1_555
O30 Rb23 3.496426 1_555
O31 U18 1.868156 1_555
O31 Rb15 2.801043 1_555
O31 Rb3 2.897148 1_555
O31 Rb22 2.928391 1_555
O32 U12 1.851791 1_555
O32 Rb13 2.738549 1_555
O32 Rb23 2.918190 1_565
O33 V5 1.760548 1_555
O33 U19 2.373510 1_565
O33 U10 2.612833 1_555
O34 U15 2.249696 1_545
O34 U8 2.304005 1_545
O34 U11 2.316154 1_555
O35 U13 2.249696 1_556
O35 U6 2.304005 1_555
O35 U4 2.316154 1_555
O36 V7 1.696770 1_455
O36 Rb18 2.804112 1_555
O36 Rb23 2.885301 1_555
O36 Rb13 2.887531 1_555
O37 U1 2.265890 1_555
O37 U0 2.311225 1_555
O37 U18 2.326258 1_555
O38 U19 1.868828 1_555
O38 Rb14 2.932512 1_455
O38 Rb2 2.990868 1_455
O38 Rb17 3.413572 1_445
O39 U16 1.868156 1_555
O39 Rb16 2.801043 1_555
O39 Rb8 2.897148 1_455
O39 Rb11 2.928391 1_465
O40 U7 1.879583 1_555
O40 Rb1 2.862036 1_555
O40 Rb20 2.882746 1_555
O40 Rb21 3.052804 1_555
O41 U7 1.878066 1_555
O41 Rb16 2.895438 1_555
O41 Rb9 2.903740 1_544
O41 Rb11 2.966475 1_455
O42 V2 1.798253 1_555
O42 U18 2.370341 1_555
O42 U0 2.486567 1_555
O42 Rb18 3.253990 1_555
O43 V1 1.786467 1_555
O43 U12 2.385447 1_545
O43 U14 2.485264 1_555
O43 Rb23 3.397497 1_555
O44 U6 1.868156 1_555
O44 Rb16 2.801043 1_656
O44 Rb13 2.897148 1_655
O44 Rb9 2.928391 1_645
O45 V4 1.687889 1_555
O45 Rb9 2.842842 1_655
O45 Rb13 2.920064 1_655
O45 Rb23 3.091496 1_665
O46 U4 2.137506 1_554
O46 U9 2.146919 1_555
O47 V3 1.733924 1_555
O47 U8 2.328061 1_555
O48 V1 1.733924 1_555
O48 U18 2.328061 1_555
O49 U13 1.881463 1_555
O49 Rb11 2.853108 1_555
O49 Rb16 2.875495 1_655
O49 Rb8 3.022732 1_555
O50 U13 2.253964 1_555
O50 U17 2.304536 1_555
O50 U9 2.323299 1_555
O50 Rb20 3.211623 1_555
O51 U7 2.137506 1_556
O51 U14 2.146919 1_555
O52 U5 1.851791 1_555
O52 Rb3 2.738549 1_565
O52 Rb0 2.918190 1_555
O53 U3 1.875772 1_555
O53 Rb6 2.856579 1_645
O53 Rb12 3.018497 1_655
O53 Rb18 3.075082 1_655
O54 V7 1.733924 1_555
O54 U6 2.328061 1_555
O55 V0 1.726553 1_555
O55 U19 2.348047 1_555
O56 V5 1.786467 1_555
O56 U19 2.385447 1_555
O56 U10 2.485264 1_555
O56 Rb19 3.397497 1_555
O57 U2 1.883397 1_555
O57 Rb4 2.846081 1_555
O57 Rb21 2.852726 1_566
O57 Rb20 2.905528 1_556
O58 U5 1.868828 1_555
O58 Rb6 2.932512 1_655
O58 Rb18 2.990868 1_655
O58 Rb23 3.413572 1_665
O59 V6 1.687889 1_555
O59 Rb10 2.842842 1_555
O59 Rb5 2.920064 1_545
O59 Rb19 3.091496 1_555
O60 U4 1.878066 1_555
O60 Rb16 2.895438 1_656
O60 Rb11 2.903740 1_566
O60 Rb9 2.966475 1_655
O61 U13 2.265172 1_555
O61 U9 2.305311 1_545
O61 U17 2.331605 1_555
O62 V0 1.798253 1_565
O62 U16 2.370341 1_555
O62 U7 2.486567 1_565
O62 Rb1 3.253990 1_565
O63 U9 1.875772 1_555
O63 Rb20 2.856579 1_555
O63 Rb21 3.018497 1_565
O63 Rb1 3.075082 1_565
O64 V1 1.696770 1_555
O64 Rb7 2.804112 1_545
O64 Rb0 2.885301 1_555
O64 Rb3 2.887531 1_555
O65 U13 2.265890 1_556
O65 U4 2.311225 1_545
O65 U6 2.326258 1_555
O66 U14 1.875772 1_555
O66 Rb4 2.856579 1_555
O66 Rb21 3.018497 1_556
O66 Rb7 3.075082 1_545
O67 V4 1.798253 1_545
O67 U6 2.370341 1_555
O67 U4 2.486567 1_545
O67 Rb7 3.253990 1_545
O68 U1 1.881463 1_555
O68 Rb10 2.853108 1_555
O68 Rb15 2.875495 1_555
O68 Rb5 3.022732 1_545
O69 V3 1.696770 1_555
O69 Rb1 2.804112 1_565
O69 Rb19 2.885301 1_555
O69 Rb5 2.887531 1_555
O70 U19 1.851791 1_555
O70 Rb5 2.738549 1_545
O70 Rb19 2.918190 1_555
O71 U8 1.868156 1_555
O71 Rb15 2.801043 1_565
O71 Rb5 2.897148 1_555
O71 Rb10 2.928391 1_555
O72 U11 2.137506 1_555
O72 U3 2.146919 1_555
O73 U10 1.877997 1_555
O73 Rb10 2.877188 1_555
O73 Rb5 2.936935 1_555
O73 Rb19 3.080436 1_555
O74 V0 1.769284 1_555
O74 U16 2.386301 1_555
O74 U7 2.617012 1_555
O75 V1 1.760548 1_555
O75 U12 2.373510 1_555
O75 U14 2.612833 1_555
O76 V5 1.733924 1_555
O76 U16 2.328061 1_555
O77 U15 1.883397 1_555
O77 Rb6 2.846081 1_655
O77 Rb12 2.852726 1_655
O77 Rb14 2.905528 1_565
O78 U1 2.253964 1_565
O78 U19 2.304536 1_565
O78 U10 2.323299 1_555
O78 Rb14 3.211623 1_465
O79 U2 2.265172 1_555
O79 U14 2.305311 1_565
O79 U12 2.331605 1_555
O80 U0 1.879583 1_555
O80 Rb18 2.862036 1_555
O80 Rb6 2.882746 1_555
O80 Rb12 3.052804 1_555
O81 U2 2.265890 1_554
O81 U7 2.311225 1_565
O81 U16 2.326258 1_555
O82 U11 1.879583 1_555
O82 Rb2 2.862036 1_555
O82 Rb14 2.882746 1_555
O82 Rb12 3.052804 1_655
O83 U1 2.249696 1_565
O83 U18 2.304005 1_565
O83 U0 2.316154 1_555
O84 V4 1.769284 1_555
O84 U6 2.386301 1_555
O84 U4 2.617012 1_555
O85 V2 1.687889 1_555
O85 Rb22 2.842842 1_555
O85 Rb3 2.920064 1_565
O85 Rb0 3.091496 1_555
O86 V6 1.769284 1_555
O86 U8 2.386301 1_545
O86 U11 2.617012 1_555
O87 U2 1.881463 1_555
O87 Rb9 2.853108 1_555
O87 Rb16 2.875495 1_556
O87 Rb13 3.022732 1_555
O88 U2 2.249696 1_554
O88 U16 2.304005 1_555
O88 U7 2.316154 1_555
O89 U1 1.883397 1_555
O89 Rb14 2.846081 1_455
O89 Rb12 2.852726 1_555
O89 Rb6 2.905528 1_545
O90 U8 1.863933 1_555
O90 Rb14 2.796160 1_565
O90 Rb2 2.903294 1_555
O90 Rb17 3.496426 1_555
O91 U13 1.883397 1_555
O91 Rb20 2.846081 1_555
O91 Rb21 2.852726 1_555
O91 Rb4 2.905528 1_554
