# generated using pymatgen
data_Rb7Au5O2
_symmetry_space_group_name_H-M   'P 1'
_cell_length_a   5.69094012
_cell_length_b   9.34973968
_cell_length_c   9.91814568
_cell_angle_alpha   118.11692338
_cell_angle_beta   106.72623960
_cell_angle_gamma   89.97571762
_symmetry_Int_Tables_number   1
_chemical_formula_structural   Rb7Au5O2
_chemical_formula_sum   'Rb7 Au5 O2'
_cell_volume   440.01287713
_cell_formula_units_Z   1
loop_
 _symmetry_equiv_pos_site_id
 _symmetry_equiv_pos_as_xyz
  1  'x, y, z'
loop_
 _atom_site_type_symbol
 _atom_site_label
 _atom_site_symmetry_multiplicity
 _atom_site_fract_x
 _atom_site_fract_y
 _atom_site_fract_z
 _atom_site_occupancy
  Rb  Rb0  1  -0.00000000  0.50000000  0.00000000  1
  Rb  Rb1  1  0.50000750  0.78930408  -0.00001570  1
  Rb  Rb2  1  0.49999250  0.21069592  0.00001570  1
  Rb  Rb3  1  0.16743443  0.38861433  0.33441155  1
  Rb  Rb4  1  0.83256557  0.61138567  0.66558845  1
  Rb  Rb5  1  0.83262394  0.05429947  0.66572880  1
  Rb  Rb6  1  0.16737606  0.94570053  0.33427120  1
  Au  Au0  1  -0.00000000  -0.00000000  0.00000000  1
  Au  Au1  1  0.34696534  0.34689480  0.69453878  1
  Au  Au2  1  0.65303466  0.65310520  0.30546122  1
  Au  Au3  1  0.69344485  0.19333925  0.38622632  1
  Au  Au4  1  0.30655515  0.80666075  0.61377368  1
  O  O0  1  -0.00001667  0.21529889  0.00008491  1
  O  O1  1  0.00001667  0.78470111  0.99991509  1
loop_
_geom_bond_atom_site_label_1
_geom_bond_atom_site_label_2
_geom_bond_distance
_geom_bond_site_symmetry_2
Au0 O0 2.012592 1_555
Au0 O1 2.012592 1_544
Au1 Rb6 3.626394 1_545
Au1 Rb3 3.628506 1_555
Au1 Rb2 3.698152 1_556
Au1 Rb1 3.703956 1_556
Au1 Rb0 3.804635 1_656
Au1 Rb0 3.805235 1_556
Au1 Rb5 3.862113 1_555
Au1 Rb5 3.862908 1_455
Au1 Rb4 3.866117 1_455
Au1 Rb4 3.868673 1_555
Au2 Rb5 3.626394 1_565
Au2 Rb4 3.628506 1_555
Au2 Rb1 3.698152 1_555
Au2 Rb2 3.703956 1_555
Au2 Rb0 3.804635 1_555
Au2 Rb0 3.805235 1_655
Au2 Rb6 3.862113 1_555
Au2 Rb6 3.862908 1_655
Au2 Rb3 3.866117 1_655
Au2 Rb3 3.868673 1_555
Au3 Rb4 3.480459 1_555
Au3 Rb5 3.483403 1_555
Au3 Rb3 3.542992 1_555
Au3 Rb3 3.544039 1_655
Au3 Rb6 3.545557 1_645
Au3 Rb6 3.547217 1_545
Au3 Rb2 3.750926 1_555
Au3 Rb1 3.754149 1_545
Au4 Rb3 3.480459 1_555
Au4 Rb6 3.483403 1_555
Au4 Rb4 3.542992 1_555
Au4 Rb4 3.544039 1_455
Au4 Rb5 3.545557 1_465
Au4 Rb5 3.547217 1_565
Au4 Rb1 3.750926 1_556
Au4 Rb2 3.754149 1_566
O0 Rb0 2.662278 1_555
O0 Rb3 2.765343 1_555
O0 Rb5 2.765565 1_454
O0 Rb2 2.845559 1_455
O0 Rb2 2.846022 1_555
O1 Rb0 2.662278 1_556
O1 Rb4 2.765343 1_455
O1 Rb6 2.765565 1_556
O1 Rb1 2.845559 1_556
O1 Rb1 2.846022 1_456
