# generated using pymatgen
data_KLi2BO3
_symmetry_space_group_name_H-M   'P 1'
_cell_length_a   6.50745700
_cell_length_b   6.52197200
_cell_length_c   8.08736500
_cell_angle_alpha   90.00000000
_cell_angle_beta   90.00000000
_cell_angle_gamma   90.00000000
_symmetry_Int_Tables_number   1
_chemical_formula_structural   KLi2BO3
_chemical_formula_sum   'K4 Li8 B4 O12'
_cell_volume   343.23951625
_cell_formula_units_Z   4
loop_
 _symmetry_equiv_pos_site_id
 _symmetry_equiv_pos_as_xyz
  1  'x, y, z'
loop_
 _atom_site_type_symbol
 _atom_site_label
 _atom_site_symmetry_multiplicity
 _atom_site_fract_x
 _atom_site_fract_y
 _atom_site_fract_z
 _atom_site_occupancy
  K  K0  1  0.75000000  0.39384800  0.98984100  1
  K  K1  1  0.75000000  0.10615200  0.48984100  1
  K  K2  1  0.25000000  0.89384800  0.51015900  1
  K  K3  1  0.25000000  0.60615200  0.01015900  1
  Li  Li0  1  0.54054200  0.96195100  0.86035200  1
  Li  Li1  1  0.45945800  0.03804900  0.13964800  1
  Li  Li2  1  0.04054200  0.46195100  0.63964800  1
  Li  Li3  1  0.95945800  0.96195100  0.86035200  1
  Li  Li4  1  0.95945800  0.53804900  0.36035200  1
  Li  Li5  1  0.45945800  0.46195100  0.63964800  1
  Li  Li6  1  0.04054200  0.03804900  0.13964800  1
  Li  Li7  1  0.54054200  0.53804900  0.36035200  1
  B  B0  1  0.25000000  0.16775700  0.84485300  1
  B  B1  1  0.75000000  0.83224300  0.15514700  1
  B  B2  1  0.25000000  0.33224300  0.34485300  1
  B  B3  1  0.75000000  0.66775700  0.65514700  1
  O  O0  1  0.43823300  0.23842000  0.78831500  1
  O  O1  1  0.43823300  0.26158000  0.28831500  1
  O  O2  1  0.93823300  0.73842000  0.71168500  1
  O  O3  1  0.75000000  0.50699500  0.53800100  1
  O  O4  1  0.25000000  0.49300500  0.46199900  1
  O  O5  1  0.06176700  0.23842000  0.78831500  1
  O  O6  1  0.93823300  0.76158000  0.21168500  1
  O  O7  1  0.56176700  0.76158000  0.21168500  1
  O  O8  1  0.75000000  0.99300500  0.03800100  1
  O  O9  1  0.06176700  0.26158000  0.28831500  1
  O  O10  1  0.25000000  0.00699500  0.96199900  1
  O  O11  1  0.56176700  0.73842000  0.71168500  1
loop_
_geom_bond_atom_site_label_1
_geom_bond_atom_site_label_2
_geom_bond_distance
_geom_bond_site_symmetry_2
K0 O8 2.643141 1_546
K0 O5 2.792839 1_655
K0 O0 2.792839 1_555
K1 O3 2.643141 1_555
K1 O9 2.792839 1_655
K1 O1 2.792839 1_555
K2 O4 2.643141 1_555
K2 O11 2.792839 1_555
K2 O2 2.792839 1_455
K3 O10 2.643141 1_564
K3 O7 2.792839 1_555
K3 O6 2.792839 1_455
Li0 O11 1.894736 1_555
Li0 O8 1.990738 1_556
Li0 O0 2.008461 1_565
Li0 O10 2.082496 1_565
Li1 O1 1.894736 1_555
Li1 O10 1.990738 1_554
Li1 O7 2.008461 1_545
Li1 O8 2.082496 1_545
Li2 O5 1.894736 1_555
Li2 O4 1.990738 1_555
Li2 O2 2.008461 1_455
Li2 O3 2.082496 1_455
Li3 O2 1.894736 1_555
Li3 O8 1.990738 1_556
Li3 O5 2.008461 1_665
Li3 O10 2.082496 1_665
Li4 O6 1.894736 1_555
Li4 O3 1.990738 1_555
Li4 O9 2.008461 1_655
Li4 O4 2.082496 1_655
Li5 O0 1.894736 1_555
Li5 O4 1.990738 1_555
Li5 O11 2.008461 1_555
Li5 O3 2.082496 1_555
Li6 O9 1.894736 1_555
Li6 O10 1.990738 1_554
Li6 O6 2.008461 1_445
Li6 O8 2.082496 1_445
Li7 O7 1.894736 1_555
Li7 O3 1.990738 1_555
Li7 O1 2.008461 1_555
Li7 O4 2.082496 1_555
B0 O0 1.386322 1_555
B0 O5 1.386322 1_555
B0 O10 1.413115 1_555
B1 O6 1.386322 1_555
B1 O7 1.386322 1_555
B1 O8 1.413115 1_555
B2 O1 1.386322 1_555
B2 O9 1.386322 1_555
B2 O4 1.413115 1_555
B3 O2 1.386322 1_555
B3 O11 1.386322 1_555
B3 O3 1.413115 1_555
