# generated using pymatgen
data_SiO2
_symmetry_space_group_name_H-M   'P 1'
_cell_length_a   8.92710982
_cell_length_b   9.19957247
_cell_length_c   9.19957348
_cell_angle_alpha   111.01266765
_cell_angle_beta   98.72311965
_cell_angle_gamma   98.72310623
_symmetry_Int_Tables_number   1
_chemical_formula_structural   SiO2
_chemical_formula_sum   'Si12 O24'
_cell_volume   679.51842293
_cell_formula_units_Z   12
loop_
 _symmetry_equiv_pos_site_id
 _symmetry_equiv_pos_as_xyz
  1  'x, y, z'
loop_
 _atom_site_type_symbol
 _atom_site_label
 _atom_site_symmetry_multiplicity
 _atom_site_fract_x
 _atom_site_fract_y
 _atom_site_fract_z
 _atom_site_occupancy
  Si  Si0  1  0.10545427  0.40397712  0.89220897  1
  Si  Si1  1  0.31025619  0.99715136  0.20012059  1
  Si  Si2  1  0.68974381  0.00284864  0.79987941  1
  Si  Si3  1  0.89454573  0.59602288  0.10779103  1
  Si  Si4  1  0.68974381  0.79987941  0.00284864  1
  Si  Si5  1  0.32940009  0.90491963  0.70169300  1
  Si  Si6  1  0.10545427  0.89220897  0.40397712  1
  Si  Si7  1  0.32940009  0.70169300  0.90491963  1
  Si  Si8  1  0.89454573  0.10779103  0.59602288  1
  Si  Si9  1  0.67059991  0.09508037  0.29830700  1
  Si  Si10  1  0.31025619  0.20012059  0.99715136  1
  Si  Si11  1  0.67059991  0.29830700  0.09508037  1
  O  O0  1  0.71470712  0.93807876  0.17876876  1
  O  O1  1  -0.00000000  0.50000000  -0.00000000  1
  O  O2  1  0.00000000  0.27463542  0.72536458  1
  O  O3  1  0.73075031  0.87900774  0.87900774  1
  O  O4  1  0.19639720  0.99036556  0.31733169  1
  O  O5  1  0.28529288  0.06192124  0.82123124  1
  O  O6  1  0.22834408  0.52467896  0.85358567  1
  O  O7  1  0.71470712  0.17876876  0.93807876  1
  O  O8  1  0.70704131  0.23973090  0.23973090  1
  O  O9  1  0.51154305  0.94366821  0.70026449  1
  O  O10  1  0.77165592  0.14641433  0.47532104  1
  O  O11  1  0.48845695  0.05633179  0.29973551  1
  O  O12  1  0.22834408  0.85358567  0.52467896  1
  O  O13  1  0.80360280  0.00963444  0.68266831  1
  O  O14  1  0.26924969  0.12099226  0.12099226  1
  O  O15  1  0.77165592  0.47532104  0.14641433  1
  O  O16  1  -0.00000000  0.72536458  0.27463542  1
  O  O17  1  0.28529288  0.82123124  0.06192124  1
  O  O18  1  -0.00000000  0.00000000  0.50000000  1
  O  O19  1  0.48845695  0.29973551  0.05633179  1
  O  O20  1  0.80360280  0.68266831  0.00963444  1
  O  O21  1  0.29295869  0.76026910  0.76026910  1
  O  O22  1  0.51154305  0.70026449  0.94366821  1
  O  O23  1  0.19639720  0.31733169  0.99036556  1
loop_
_geom_bond_atom_site_label_1
_geom_bond_atom_site_label_2
_geom_bond_distance
_geom_bond_site_symmetry_2
O0 Si4 1.616886 1_555
O0 Si9 1.617182 1_565
O1 Si3 1.599095 1_455
O1 Si0 1.599095 1_554
O2 Si8 1.603173 1_455
O2 Si0 1.603173 1_555
O3 Si2 1.613168 1_565
O3 Si4 1.613168 1_556
O4 Si1 1.600379 1_555
O4 Si6 1.612452 1_555
O5 Si10 1.616886 1_555
O5 Si5 1.617182 1_545
O6 Si7 1.600747 1_555
O6 Si0 1.610733 1_555
O7 Si2 1.616885 1_555
O7 Si11 1.617182 1_556
O8 Si9 1.613434 1_555
O8 Si11 1.613434 1_555
O9 Si2 1.613761 1_565
O9 Si5 1.614058 1_555
O10 Si9 1.600747 1_555
O10 Si8 1.610733 1_555
O11 Si1 1.613761 1_545
O11 Si9 1.614058 1_555
O12 Si5 1.600747 1_555
O12 Si6 1.610733 1_555
O13 Si2 1.600379 1_555
O13 Si8 1.612452 1_555
O14 Si1 1.613168 1_545
O14 Si10 1.613168 1_554
O15 Si11 1.600747 1_555
O15 Si3 1.610733 1_555
O16 Si6 1.603173 1_555
O16 Si3 1.603173 1_455
O17 Si1 1.616885 1_555
O17 Si7 1.617182 1_554
O18 Si8 1.599095 1_455
O18 Si6 1.599095 1_545
O19 Si10 1.613761 1_554
O19 Si11 1.614058 1_555
O20 Si4 1.600379 1_555
O20 Si3 1.612452 1_555
O21 Si5 1.613434 1_555
O21 Si7 1.613434 1_555
O22 Si4 1.613761 1_556
O22 Si7 1.614058 1_555
O23 Si10 1.600379 1_555
O23 Si0 1.612452 1_555
