# generated using pymatgen
data_Li2IrO3
_symmetry_space_group_name_H-M   'P 1'
_cell_length_a   5.12861243
_cell_length_b   5.12935419
_cell_length_c   24.19782715
_cell_angle_alpha   87.87781634
_cell_angle_beta   87.89439363
_cell_angle_gamma   121.69728279
_symmetry_Int_Tables_number   1
_chemical_formula_structural   Li2IrO3
_chemical_formula_sum   'Li20 Ir10 O30'
_cell_volume   540.05265573
_cell_formula_units_Z   10
loop_
 _symmetry_equiv_pos_site_id
 _symmetry_equiv_pos_as_xyz
  1  'x, y, z'
loop_
 _atom_site_type_symbol
 _atom_site_label
 _atom_site_symmetry_multiplicity
 _atom_site_fract_x
 _atom_site_fract_y
 _atom_site_fract_z
 _atom_site_occupancy
  Li  Li0  1  0.66573509  0.33396161  0.99997380  1
  Li  Li1  1  0.63101163  0.96799956  0.09980029  1
  Li  Li2  1  0.31329132  0.30811750  0.10029879  1
  Li  Li3  1  0.95092470  0.62356958  0.09963057  1
  Li  Li4  1  0.60088224  0.60108305  0.19987683  1
  Li  Li5  1  0.23959534  0.55773965  0.30007277  1
  Li  Li6  1  0.89883359  0.89677729  0.30016065  1
  Li  Li7  1  0.55806931  0.23919705  0.30005050  1
  Li  Li8  1  0.19978054  0.19950152  0.40011443  1
  Li  Li9  1  0.84100682  0.15892449  0.50003089  1
  Li  Li10  1  0.50001963  0.50003108  0.50001849  1
  Li  Li11  1  0.15902604  0.84101210  0.50003736  1
  Li  Li12  1  0.80066815  0.80032664  0.59992667  1
  Li  Li13  1  0.44217534  0.76034083  0.69992682  1
  Li  Li14  1  0.10325441  0.10121824  0.69985446  1
  Li  Li15  1  0.76093471  0.44188991  0.69997298  1
  Li  Li16  1  0.39884828  0.39908473  0.80010431  1
  Li  Li17  1  0.03206512  0.36912452  0.90019316  1
  Li  Li18  1  0.69213107  0.68676944  0.89968916  1
  Li  Li19  1  0.37620216  0.04912684  0.90029571  1
  Ir  Ir0  1  0.33589509  0.66415859  -0.00000515  1
  Ir  Ir1  1  0.99667783  0.00306434  -0.00001661  1
  Ir  Ir2  1  0.26859260  0.92894348  0.20030145  1
  Ir  Ir3  1  0.93056716  0.26954749  0.20015102  1
  Ir  Ir4  1  0.86983481  0.52992329  0.40006107  1
  Ir  Ir5  1  0.53019741  0.86961405  0.40004141  1
  Ir  Ir6  1  0.13032325  0.46978202  0.59996801  1
  Ir  Ir7  1  0.47019147  0.13022735  0.59995340  1
  Ir  Ir8  1  0.07123045  0.73145355  0.79969977  1
  Ir  Ir9  1  0.73037855  0.06932029  0.79983059  1
  O  O0  1  0.65133740  0.65562844  0.04904403  1
  O  O1  1  0.98849158  0.31808820  0.04874918  1
  O  O2  1  0.30489013  0.97204347  0.04569698  1
  O  O3  1  0.27729670  0.61555069  0.15122426  1
  O  O4  1  0.61434548  0.27661899  0.15119440  1
  O  O5  1  0.96228211  0.96185030  0.15445516  1
  O  O6  1  0.23987589  0.23963317  0.24608212  1
  O  O7  1  0.92052621  0.58342469  0.24900983  1
  O  O8  1  0.58493558  0.92098004  0.24880321  1
  O  O9  1  0.87841585  0.21540319  0.35132525  1
  O  O10  1  0.21559644  0.87816765  0.35127629  1
  O  O11  1  0.56005570  0.55984218  0.35423743  1
  O  O12  1  0.83973489  0.83953608  0.44589692  1
  O  O13  1  0.52169581  0.18428568  0.44880360  1
  O  O14  1  0.18463782  0.52146820  0.44880177  1
  O  O15  1  0.47838900  0.81538581  0.55121936  1
  O  O16  1  0.81568927  0.47830514  0.55118922  1
  O  O17  1  0.16039430  0.16024484  0.55413717  1
  O  O18  1  0.44024530  0.43999083  0.64573897  1
  O  O19  1  0.78474861  0.12156926  0.64873367  1
  O  O20  1  0.12192219  0.78445539  0.64874867  1
  O  O21  1  0.07917318  0.41502437  0.75120325  1
  O  O22  1  0.41644033  0.07954426  0.75096669  1
  O  O23  1  0.76026420  0.76000182  0.75395662  1
  O  O24  1  0.03824416  0.03777572  0.84550499  1
  O  O25  1  0.72356153  0.38557963  0.84876173  1
  O  O26  1  0.38451172  0.72264829  0.84877406  1
  O  O27  1  0.68181515  0.01141297  0.95120701  1
  O  O28  1  0.02798460  0.69509398  0.95427677  1
  O  O29  1  0.34415781  0.34861364  0.95096780  1
loop_
_geom_bond_atom_site_label_1
_geom_bond_atom_site_label_2
_geom_bond_distance
_geom_bond_site_symmetry_2
Li0 O2 2.045084 1_546
Li0 O28 2.046086 1_655
Li0 O29 2.097436 1_555
Li0 O0 2.098654 1_556
Li0 O27 2.101762 1_555
Li0 O1 2.101834 1_556
Li1 O1 2.078828 1_565
Li1 O3 2.080550 1_555
Li1 O4 2.083276 1_565
Li1 O0 2.097241 1_555
Li1 O2 2.169600 1_555
Li1 O5 2.203377 1_555
Li2 O0 2.037654 1_555
Li2 O4 2.076992 1_555
Li2 O5 2.099263 1_445
Li2 O3 2.114815 1_555
Li2 O1 2.137961 1_455
Li2 O2 2.194081 1_545
Li3 O4 2.037817 1_555
Li3 O0 2.067598 1_555
Li3 O2 2.106405 1_655
Li3 O1 2.109731 1_555
Li3 O3 2.141066 1_655
Li3 O5 2.200930 1_555
Li4 O5 2.040375 1_555
Li4 O6 2.049993 1_555
Li4 O8 2.092500 1_555
Li4 O7 2.097713 1_555
Li4 O3 2.100504 1_555
Li4 O4 2.102932 1_555
Li5 O9 2.074731 1_455
Li5 O8 2.084951 1_555
Li5 O6 2.128243 1_555
Li5 O11 2.135374 1_555
Li5 O7 2.141242 1_455
Li5 O10 2.145667 1_555
Li6 O11 2.056176 1_555
Li6 O6 2.072046 1_665
Li6 O7 2.110191 1_555
Li6 O10 2.116613 1_655
Li6 O8 2.120630 1_555
Li6 O9 2.129565 1_565
Li7 O10 2.074314 1_545
Li7 O7 2.078254 1_555
Li7 O6 2.128077 1_555
Li7 O11 2.137171 1_555
Li7 O8 2.143523 1_545
Li7 O9 2.145424 1_555
Li8 O12 2.039976 1_445
Li8 O11 2.042335 1_555
Li8 O13 2.095577 1_555
Li8 O14 2.096082 1_555
Li8 O9 2.096184 1_455
Li8 O10 2.097037 1_545
Li9 O15 2.079244 1_545
Li9 O14 2.079781 1_655
Li9 O17 2.131636 1_655
Li9 O12 2.132642 1_545
Li9 O16 2.143589 1_555
Li9 O13 2.143923 1_555
Li10 O12 2.063560 1_555
Li10 O17 2.063890 1_555
Li10 O14 2.118575 1_555
Li10 O15 2.119132 1_555
Li10 O16 2.119735 1_555
Li10 O13 2.121069 1_555
Li11 O16 2.078609 1_455
Li11 O13 2.079458 1_565
Li11 O17 2.131293 1_565
Li11 O12 2.131476 1_455
Li11 O15 2.144079 1_555
Li11 O14 2.146068 1_555
Li12 O17 2.039286 1_665
Li12 O18 2.041889 1_555
Li12 O20 2.096116 1_655
Li12 O19 2.096434 1_565
Li12 O16 2.096762 1_555
Li12 O15 2.097036 1_555
Li13 O19 2.074511 1_565
Li13 O21 2.084470 1_555
Li13 O23 2.128418 1_555
Li13 O18 2.136099 1_555
Li13 O22 2.142062 1_565
Li13 O20 2.144342 1_555
Li14 O18 2.056811 1_555
Li14 O23 2.072969 1_445
Li14 O22 2.108412 1_555
Li14 O20 2.117070 1_545
Li14 O21 2.120323 1_555
Li14 O19 2.127793 1_455
Li15 O20 2.074365 1_655
Li15 O22 2.077906 1_555
Li15 O23 2.128919 1_555
Li15 O18 2.137773 1_555
Li15 O21 2.142883 1_655
Li15 O19 2.145324 1_555
Li16 O24 2.039601 1_555
Li16 O23 2.049068 1_555
Li16 O21 2.090709 1_555
Li16 O22 2.097667 1_555
Li16 O26 2.100841 1_555
Li16 O25 2.103252 1_555
Li17 O27 2.079149 1_455
Li17 O26 2.080097 1_555
Li17 O25 2.082443 1_455
Li17 O29 2.096292 1_555
Li17 O28 2.169238 1_555
Li17 O24 2.204761 1_555
Li18 O29 2.039135 1_555
Li18 O25 2.078335 1_555
Li18 O24 2.099343 1_665
Li18 O26 2.114697 1_555
Li18 O27 2.138052 1_565
Li18 O28 2.192614 1_655
Li19 O25 2.038031 1_555
Li19 O29 2.068885 1_555
Li19 O28 2.106693 1_545
Li19 O27 2.110597 1_555
Li19 O26 2.141539 1_545
Li19 O24 2.198609 1_555
Ir0 O27 2.020742 1_564
Ir0 O1 2.020929 1_455
Ir0 O28 2.030136 1_554
Ir0 O2 2.030427 1_555
Ir0 O0 2.058995 1_555
Ir0 O29 2.059001 1_554
Ir1 O29 2.023324 1_654
Ir1 O0 2.023384 1_545
Ir1 O2 2.031577 1_645
Ir1 O28 2.031580 1_644
Ir1 O27 2.052190 1_554
Ir1 O1 2.052833 1_555
Ir2 O7 2.020601 1_455
Ir2 O4 2.025288 1_565
Ir2 O5 2.029763 1_455
Ir2 O6 2.038131 1_565
Ir2 O3 2.051647 1_555
Ir2 O8 2.053603 1_555
Ir3 O8 2.021157 1_545
Ir3 O3 2.021587 1_655
Ir3 O5 2.031235 1_545
Ir3 O6 2.036656 1_655
Ir3 O7 2.053318 1_555
Ir3 O4 2.057833 1_555
Ir4 O13 2.021418 1_555
Ir4 O10 2.022415 1_655
Ir4 O11 2.037206 1_555
Ir4 O12 2.037547 1_555
Ir4 O9 2.051116 1_555
Ir4 O14 2.051645 1_655
Ir5 O14 2.021500 1_555
Ir5 O9 2.021555 1_565
Ir5 O12 2.036986 1_555
Ir5 O11 2.037216 1_555
Ir5 O10 2.051361 1_555
Ir5 O13 2.051969 1_565
Ir6 O15 2.021276 1_555
Ir6 O19 2.021734 1_455
Ir6 O18 2.036791 1_555
Ir6 O17 2.037084 1_555
Ir6 O16 2.051635 1_455
Ir6 O20 2.052033 1_555
Ir7 O16 2.021284 1_555
Ir7 O20 2.022617 1_545
Ir7 O18 2.037136 1_555
Ir7 O17 2.037417 1_555
Ir7 O19 2.051620 1_555
Ir7 O15 2.051628 1_545
Ir8 O22 2.020343 1_565
Ir8 O25 2.024948 1_455
Ir8 O24 2.029890 1_565
Ir8 O23 2.037949 1_455
Ir8 O26 2.050888 1_555
Ir8 O21 2.054312 1_555
Ir9 O26 2.021406 1_545
Ir9 O21 2.021459 1_655
Ir9 O24 2.030800 1_655
Ir9 O23 2.036296 1_545
Ir9 O22 2.053575 1_555
Ir9 O25 2.057549 1_555
