# generated using pymatgen
data_Al2CoO4
_symmetry_space_group_name_H-M   'P 1'
_cell_length_a   19.21729334
_cell_length_b   19.21729334
_cell_length_c   19.21729366
_cell_angle_alpha   17.29442570
_cell_angle_beta   17.29442570
_cell_angle_gamma   17.29442593
_symmetry_Int_Tables_number   1
_chemical_formula_structural   Al2CoO4
_chemical_formula_sum   'Al16 Co8 O32'
_cell_volume   547.30436697
_cell_formula_units_Z   8
loop_
 _symmetry_equiv_pos_site_id
 _symmetry_equiv_pos_as_xyz
  1  'x, y, z'
loop_
 _atom_site_type_symbol
 _atom_site_label
 _atom_site_symmetry_multiplicity
 _atom_site_fract_x
 _atom_site_fract_y
 _atom_site_fract_z
 _atom_site_occupancy
  Al  Al0  1  0.31127700  0.31127700  0.31127700  1
  Al  Al1  1  0.27439600  0.78473000  0.78473000  1
  Al  Al2  1  0.78473000  0.78473000  0.27439600  1
  Al  Al3  1  0.56209900  0.56209900  0.56209900  1
  Al  Al4  1  0.78473000  0.27439600  0.78473000  1
  Al  Al5  1  0.52760700  0.03292500  0.03292500  1
  Al  Al6  1  0.03292500  0.03292500  0.52760700  1
  Al  Al7  1  0.03292500  0.52760700  0.03292500  1
  Al  Al8  1  0.78071600  0.28117000  0.28117000  1
  Al  Al9  1  0.28117000  0.28117000  0.78071600  1
  Al  Al10  1  0.15589900  0.15589900  0.15589900  1
  Al  Al11  1  0.28117000  0.78071600  0.28117000  1
  Al  Al12  1  0.02736800  0.53342500  0.53342500  1
  Al  Al13  1  0.53342500  0.53342500  0.02736800  1
  Al  Al14  1  0.40611800  0.40611800  0.40611800  1
  Al  Al15  1  0.53342500  0.02736800  0.53342500  1
  Co  Co0  1  0.00084900  0.00084900  0.00084900  1
  Co  Co1  1  0.65702000  0.65702000  0.65702000  1
  Co  Co2  1  0.25052700  0.25052700  0.25052700  1
  Co  Co3  1  0.90649400  0.90649400  0.90649400  1
  Co  Co4  1  0.81284600  0.81284600  0.81284600  1
  Co  Co5  1  0.49984300  0.49984300  0.49984300  1
  Co  Co6  1  0.06162400  0.06162400  0.06162400  1
  Co  Co7  1  0.75021800  0.75021800  0.75021800  1
  O  O0  1  0.47205800  0.95533900  0.47205800  1
  O  O1  1  0.47205800  0.47205800  0.95533900  1
  O  O2  1  0.59513400  0.59513400  0.59513400  1
  O  O3  1  0.95533900  0.47205800  0.47205800  1
  O  O4  1  0.62366700  0.08320600  0.08320600  1
  O  O5  1  0.71757000  0.21425000  0.71757000  1
  O  O6  1  0.71757000  0.71757000  0.21425000  1
  O  O7  1  0.96593500  0.96593500  0.96593500  1
  O  O8  1  0.84859800  0.84859800  0.84859800  1
  O  O9  1  0.08320600  0.08320600  0.62366700  1
  O  O10  1  0.21425000  0.71757000  0.71757000  1
  O  O11  1  0.08320600  0.62366700  0.08320600  1
  O  O12  1  0.88503500  0.32437200  0.32437200  1
  O  O13  1  0.98627500  0.42989400  0.98627500  1
  O  O14  1  0.98627500  0.98627500  0.42989400  1
  O  O15  1  0.32437200  0.32437200  0.88503500  1
  O  O16  1  0.21524600  0.21524600  0.21524600  1
  O  O17  1  0.09709000  0.09709000  0.09709000  1
  O  O18  1  0.42989400  0.98627500  0.98627500  1
  O  O19  1  0.32437200  0.88503500  0.32437200  1
  O  O20  1  0.13405100  0.57545000  0.57545000  1
  O  O21  1  0.23911700  0.67376300  0.23911700  1
  O  O22  1  0.23911700  0.23911700  0.67376300  1
  O  O23  1  0.34384300  0.34384300  0.34384300  1
  O  O24  1  0.46512800  0.46512800  0.46512800  1
  O  O25  1  0.57545000  0.57545000  0.13405100  1
  O  O26  1  0.67376300  0.23911700  0.23911700  1
  O  O27  1  0.57545000  0.13405100  0.57545000  1
  O  O28  1  0.37273300  0.83445000  0.83445000  1
  O  O29  1  0.83445000  0.83445000  0.37273300  1
  O  O30  1  0.71589600  0.71589600  0.71589600  1
  O  O31  1  0.83445000  0.37273300  0.83445000  1
loop_
_geom_bond_atom_site_label_1
_geom_bond_atom_site_label_2
_geom_bond_distance
_geom_bond_site_symmetry_2
Al0 O3 1.842604 1_455
Al0 O0 1.842604 1_545
Al0 O1 1.842604 1_554
Al0 O23 1.848981 1_555
Al1 O11 1.884306 1_556
Al1 O9 1.884306 1_565
Al1 O7 1.926486 1_455
Al1 O0 1.964845 1_555
Al1 O1 1.964845 1_555
Al1 O2 2.030461 1_555
Al2 O11 1.884306 1_655
Al2 O4 1.884306 1_565
Al2 O7 1.926486 1_554
Al2 O3 1.964845 1_555
Al2 O0 1.964845 1_555
Al2 O2 2.030461 1_555
Al3 O10 1.818703 1_555
Al3 O5 1.818703 1_555
Al3 O6 1.818703 1_555
Al3 O2 1.875609 1_555
Al4 O4 1.884306 1_556
Al4 O9 1.884306 1_655
Al4 O7 1.926486 1_545
Al4 O3 1.964845 1_555
Al4 O1 1.964845 1_555
Al4 O2 2.030461 1_555
Al5 O8 1.912046 1_544
Al5 O16 1.924277 1_555
Al5 O19 1.931015 1_545
Al5 O15 1.931015 1_554
Al5 O5 1.978642 1_554
Al5 O6 1.978642 1_545
Al6 O8 1.912046 1_445
Al6 O16 1.924277 1_555
Al6 O19 1.931015 1_545
Al6 O12 1.931015 1_455
Al6 O10 1.978642 1_545
Al6 O5 1.978642 1_455
Al7 O8 1.912046 1_454
Al7 O16 1.924277 1_555
Al7 O12 1.931015 1_455
Al7 O15 1.931015 1_554
Al7 O10 1.978642 1_554
Al7 O6 1.978642 1_455
Al8 O27 1.923863 1_555
Al8 O25 1.923863 1_555
Al8 O17 1.936060 1_655
Al8 O24 1.938668 1_555
Al8 O13 1.941749 1_554
Al8 O14 1.941749 1_545
Al9 O20 1.923863 1_555
Al9 O27 1.923863 1_555
Al9 O17 1.936060 1_556
Al9 O24 1.938667 1_555
Al9 O13 1.941750 1_455
Al9 O18 1.941750 1_545
Al10 O15 1.926794 1_554
Al10 O12 1.926794 1_455
Al10 O19 1.926794 1_545
Al10 O14 1.927595 1_445
Al10 O13 1.927595 1_454
Al10 O18 1.927595 1_544
Al11 O20 1.923863 1_555
Al11 O25 1.923863 1_555
Al11 O17 1.936060 1_565
Al11 O24 1.938668 1_555
Al11 O18 1.941749 1_554
Al11 O14 1.941749 1_455
Al12 O31 1.881624 1_455
Al12 O29 1.881624 1_455
Al12 O21 1.923746 1_555
Al12 O22 1.923746 1_555
Al12 O30 1.933842 1_455
Al12 O23 2.063527 1_555
Al13 O28 1.881624 1_554
Al13 O31 1.881624 1_554
Al13 O26 1.923746 1_555
Al13 O21 1.923746 1_555
Al13 O30 1.933842 1_554
Al13 O23 2.063527 1_555
Al14 O22 1.918318 1_555
Al14 O26 1.918319 1_555
Al14 O21 1.918319 1_555
Al14 O25 1.938356 1_555
Al14 O27 1.938356 1_555
Al14 O20 1.938356 1_555
Al15 O28 1.881624 1_545
Al15 O29 1.881624 1_545
Al15 O26 1.923746 1_555
Al15 O22 1.923746 1_555
Al15 O30 1.933842 1_545
Al15 O23 2.063527 1_555
Co0 O31 1.942254 1_454
Co0 O28 1.942254 1_544
Co0 O29 1.942254 1_445
Co0 O7 1.982292 1_444
Co1 O29 2.038827 1_555
Co1 O28 2.038827 1_555
Co1 O31 2.038827 1_555
Co1 O1 2.106227 1_555
Co1 O3 2.106227 1_555
Co1 O0 2.106227 1_555
Co2 O4 1.944778 1_555
Co2 O11 1.944778 1_555
Co2 O9 1.944778 1_555
Co2 O16 2.003129 1_555
Co3 O9 2.033640 1_665
Co3 O11 2.033641 1_656
Co3 O4 2.033641 1_566
Co3 O6 2.122630 1_556
Co3 O5 2.122630 1_565
Co3 O10 2.122630 1_655
Co4 O18 1.977953 1_555
Co4 O13 1.977953 1_555
Co4 O14 1.977953 1_555
Co4 O8 2.029870 1_555
Co5 O24 1.970993 1_555
Co5 O19 1.979667 1_555
Co5 O12 1.979667 1_555
Co5 O15 1.979667 1_555
Co6 O26 1.986156 1_455
Co6 O21 1.986156 1_545
Co6 O22 1.986156 1_554
Co6 O17 2.013632 1_555
Co7 O30 1.948680 1_555
Co7 O20 1.973460 1_655
Co7 O27 1.973460 1_565
Co7 O25 1.973460 1_556
