# generated using pymatgen
data_HoSbPd
_symmetry_space_group_name_H-M   'P 1'
_cell_length_a   4.75932220
_cell_length_b   4.75932220
_cell_length_c   4.75932220
_cell_angle_alpha   60.00000000
_cell_angle_beta   60.00000000
_cell_angle_gamma   60.00000000
_symmetry_Int_Tables_number   1
_chemical_formula_structural   HoSbPd
_chemical_formula_sum   'Ho1 Sb1 Pd1'
_cell_volume   76.22901754
_cell_formula_units_Z   1
loop_
 _symmetry_equiv_pos_site_id
 _symmetry_equiv_pos_as_xyz
  1  'x, y, z'
loop_
 _atom_site_type_symbol
 _atom_site_label
 _atom_site_symmetry_multiplicity
 _atom_site_fract_x
 _atom_site_fract_y
 _atom_site_fract_z
 _atom_site_occupancy
  Ho  Ho0  1  0.00000000  0.00000000  0.00000000  1
  Sb  Sb0  1  0.25000000  0.25000000  0.25000000  1
  Pd  Pd0  1  0.50000000  0.50000000  0.50000000  1
loop_
_geom_bond_atom_site_label_1
_geom_bond_atom_site_label_2
_geom_bond_distance
_geom_bond_site_symmetry_2
Ho0 Sb0 2.914478 1_455
Ho0 Sb0 2.914478 1_545
Ho0 Sb0 2.914478 1_555
Ho0 Sb0 2.914478 1_554
Ho0 Pd0 3.365349 1_445
Ho0 Pd0 3.365349 1_544
Ho0 Pd0 3.365349 1_455
Ho0 Pd0 3.365349 1_545
Ho0 Pd0 3.365349 1_454
Ho0 Pd0 3.365349 1_554
Pd0 Sb0 2.914478 1_555
Pd0 Sb0 2.914478 1_565
Pd0 Sb0 2.914478 1_655
Pd0 Sb0 2.914478 1_556
