# generated using pymatgen
data_Sn2PCO6
_symmetry_space_group_name_H-M   'P 1'
_cell_length_a   6.03335800
_cell_length_b   4.82773300
_cell_length_c   22.74564615
_cell_angle_alpha   85.11708828
_cell_angle_beta   90.00000000
_cell_angle_gamma   90.00000000
_symmetry_Int_Tables_number   1
_chemical_formula_structural   Sn2PCO6
_chemical_formula_sum   'Sn8 P4 C4 O24'
_cell_volume   660.11800334
_cell_formula_units_Z   4
loop_
 _symmetry_equiv_pos_site_id
 _symmetry_equiv_pos_as_xyz
  1  'x, y, z'
loop_
 _atom_site_type_symbol
 _atom_site_label
 _atom_site_symmetry_multiplicity
 _atom_site_fract_x
 _atom_site_fract_y
 _atom_site_fract_z
 _atom_site_occupancy
  Sn  Sn0  1  0.15011100  0.75086500  0.68398900  1
  Sn  Sn1  1  0.12926400  0.23823100  0.93007700  1
  Sn  Sn2  1  0.87073600  0.76176900  0.06992300  1
  Sn  Sn3  1  0.65011100  0.24913500  0.81601100  1
  Sn  Sn4  1  0.84988900  0.24913500  0.31601100  1
  Sn  Sn5  1  0.34988900  0.75086500  0.18398900  1
  Sn  Sn6  1  0.62926400  0.76176900  0.56992300  1
  Sn  Sn7  1  0.37073600  0.23823100  0.43007700  1
  P  P0  1  0.73579900  0.22655600  0.17252800  1
  P  P1  1  0.23579900  0.77344400  0.32747200  1
  P  P2  1  0.26420100  0.77344400  0.82747200  1
  P  P3  1  0.76420100  0.22655600  0.67252800  1
  C  C0  1  0.91585900  0.43784200  0.47895700  1
  C  C1  1  0.08414100  0.56215800  0.52104300  1
  C  C2  1  0.41585900  0.56215800  0.02104300  1
  C  C3  1  0.58414100  0.43784200  0.97895700  1
  O  O0  1  0.19240500  0.08913700  0.33682100  1
  O  O1  1  0.59305900  0.25450100  0.72229300  1
  O  O2  1  0.01107200  0.72971500  0.55662600  1
  O  O3  1  0.48892800  0.72971500  0.05662600  1
  O  O4  1  0.99416100  0.34739700  0.68695000  1
  O  O5  1  0.40694100  0.74549900  0.27770700  1
  O  O6  1  0.71586000  0.51083600  0.48317500  1
  O  O7  1  0.09305900  0.74549900  0.77770700  1
  O  O8  1  0.98892800  0.27028500  0.44337400  1
  O  O9  1  0.66527700  0.35711900  0.61347900  1
  O  O10  1  0.83472300  0.35711900  0.11347900  1
  O  O11  1  0.28414000  0.48916400  0.51682500  1
  O  O12  1  0.80759500  0.91086300  0.66317900  1
  O  O13  1  0.30759500  0.08913700  0.83682100  1
  O  O14  1  0.50583900  0.34739700  0.18695000  1
  O  O15  1  0.49416100  0.65260300  0.81305000  1
  O  O16  1  0.00583900  0.65260300  0.31305000  1
  O  O17  1  0.90694100  0.25450100  0.22229300  1
  O  O18  1  0.51107200  0.27028500  0.94337400  1
  O  O19  1  0.69240500  0.91086300  0.16317900  1
  O  O20  1  0.78414000  0.51083600  0.98317500  1
  O  O21  1  0.16527700  0.64288100  0.88652100  1
  O  O22  1  0.33472300  0.64288100  0.38652100  1
  O  O23  1  0.21586000  0.48916400  0.01682500  1
loop_
_geom_bond_atom_site_label_1
_geom_bond_atom_site_label_2
_geom_bond_distance
_geom_bond_site_symmetry_2
C0 O6 1.263006 1_555
C0 O8 1.270913 1_555
C1 O11 1.263006 1_555
C1 O2 1.270913 1_555
C2 O23 1.263006 1_555
C2 O3 1.270913 1_555
C3 O20 1.263006 1_555
C3 O18 1.270913 1_555
O0 P1 1.578532 1_545
O0 Sn4 2.242535 1_455
O0 Sn7 2.536730 1_555
O1 P3 1.546500 1_555
O1 Sn3 2.157266 1_555
O2 Sn6 2.330213 1_455
O3 Sn2 2.330213 1_555
O4 P3 1.550966 1_555
O4 Sn0 2.159066 1_655
O5 P1 1.546500 1_555
O5 Sn5 2.157266 1_555
O6 Sn6 2.457795 1_555
O7 P2 1.546500 1_555
O7 Sn0 2.157266 1_555
O8 Sn7 2.330213 1_655
O9 P3 1.553494 1_555
O9 Sn6 2.124985 1_555
O10 P0 1.553494 1_555
O10 Sn2 2.124985 1_555
O11 Sn7 2.457795 1_555
O12 P3 1.578532 1_565
O12 Sn0 2.242535 1_655
O12 Sn6 2.536730 1_555
O13 P2 1.578532 1_545
O13 Sn3 2.242535 1_555
O13 Sn1 2.536730 1_555
O14 P0 1.550966 1_555
O14 Sn5 2.159066 1_555
O15 P2 1.550966 1_555
O15 Sn3 2.159066 1_555
O16 P1 1.550966 1_555
O16 Sn4 2.159066 1_455
O17 P0 1.546500 1_555
O17 Sn4 2.157266 1_555
O18 Sn1 2.330213 1_555
O19 P0 1.578532 1_565
O19 Sn5 2.242535 1_555
O19 Sn2 2.536730 1_555
O20 Sn2 2.457795 1_556
O21 P2 1.553494 1_555
O21 Sn1 2.124985 1_555
O22 P1 1.553494 1_555
O22 Sn7 2.124985 1_555
O23 Sn1 2.457795 1_554
