# generated using pymatgen
data_CsW3Br3Cl4
_symmetry_space_group_name_H-M   'P 1'
_cell_length_a   10.33226031
_cell_length_b   10.33226031
_cell_length_c   15.91975800
_cell_angle_alpha   90.00000000
_cell_angle_beta   90.00000000
_cell_angle_gamma   120.00000200
_symmetry_Int_Tables_number   1
_chemical_formula_structural   CsW3Br3Cl4
_chemical_formula_sum   'Cs4 W12 Br12 Cl16'
_cell_volume   1471.83038104
_cell_formula_units_Z   4
loop_
 _symmetry_equiv_pos_site_id
 _symmetry_equiv_pos_as_xyz
  1  'x, y, z'
loop_
 _atom_site_type_symbol
 _atom_site_label
 _atom_site_symmetry_multiplicity
 _atom_site_fract_x
 _atom_site_fract_y
 _atom_site_fract_z
 _atom_site_occupancy
  Cs  Cs0  1  0.00000000  0.00000000  0.51592300  1
  Cs  Cs1  1  0.00000000  0.00000000  0.01592300  1
  Cs  Cs2  1  0.33333300  0.66666700  0.24213600  1
  Cs  Cs3  1  0.66666700  0.33333300  0.74213600  1
  W  W0  1  0.18198000  0.52346100  0.67976700  1
  W  W1  1  0.65851900  0.47653900  0.17976700  1
  W  W2  1  0.52346100  0.18198000  0.17976700  1
  W  W3  1  0.32670400  0.51591600  0.81470300  1
  W  W4  1  0.47653900  0.65851900  0.67976700  1
  W  W5  1  0.18921100  0.67329600  0.81470300  1
  W  W6  1  0.81078900  0.48408400  0.31470300  1
  W  W7  1  0.34148100  0.81802000  0.67976700  1
  W  W8  1  0.67329600  0.18921100  0.31470300  1
  W  W9  1  0.81802000  0.34148100  0.17976700  1
  W  W10  1  0.48408400  0.81078900  0.81470300  1
  W  W11  1  0.51591600  0.32670400  0.31470300  1
  Br  Br0  1  0.02392100  0.69669300  0.40283200  1
  Br  Br1  1  0.69669300  0.02392100  0.90283200  1
  Br  Br2  1  0.32113200  0.95965800  0.09130000  1
  Br  Br3  1  0.04034200  0.36147400  0.09130000  1
  Br  Br4  1  0.97607900  0.67277200  0.90283200  1
  Br  Br5  1  0.67886800  0.63852600  0.59130000  1
  Br  Br6  1  0.95965800  0.32113200  0.59130000  1
  Br  Br7  1  0.32722800  0.30330700  0.90283200  1
  Br  Br8  1  0.67277200  0.97607900  0.40283200  1
  Br  Br9  1  0.30330700  0.32722800  0.40283200  1
  Br  Br10  1  0.36147400  0.04034200  0.59130000  1
  Br  Br11  1  0.63852600  0.67886800  0.09130000  1
  Cl  Cl0  1  0.60846100  0.65539100  0.81321000  1
  Cl  Cl1  1  0.66666700  0.33333300  0.43968000  1
  Cl  Cl2  1  0.33333300  0.66666700  0.93968000  1
  Cl  Cl3  1  0.34460900  0.95307000  0.81321000  1
  Cl  Cl4  1  0.68359100  0.06102700  0.18122900  1
  Cl  Cl5  1  0.95307000  0.34460900  0.31321000  1
  Cl  Cl6  1  0.04693000  0.39153900  0.81321000  1
  Cl  Cl7  1  0.06102700  0.68359100  0.68122900  1
  Cl  Cl8  1  0.39153900  0.04693000  0.31321000  1
  Cl  Cl9  1  0.37743600  0.31640900  0.18122900  1
  Cl  Cl10  1  0.93897300  0.62256400  0.18122900  1
  Cl  Cl11  1  0.66666700  0.33333300  0.05434000  1
  Cl  Cl12  1  0.31640900  0.37743600  0.68122900  1
  Cl  Cl13  1  0.65539100  0.60846100  0.31321000  1
  Cl  Cl14  1  0.33333300  0.66666700  0.55434000  1
  Cl  Cl15  1  0.62256400  0.93897300  0.68122900  1
loop_
_geom_bond_atom_site_label_1
_geom_bond_atom_site_label_2
_geom_bond_distance
_geom_bond_site_symmetry_2
Br0 W6 2.608815 1_455
Br0 Cs0 3.728004 1_565
Br0 Cs2 4.225279 1_555
Br1 W10 2.608815 1_545
Br1 Cs1 3.728004 1_656
Br1 Cs3 4.225279 1_555
Br2 W2 2.613099 1_565
Br2 Cs1 3.742457 1_565
Br2 Cs2 3.915090 1_555
Br3 W9 2.613099 1_455
Br3 Cs1 3.742457 1_555
Br3 Cs2 3.915094 1_555
Br4 W5 2.608811 1_655
Br4 Cs1 3.728004 1_666
Br4 Cs3 4.225283 1_555
Br5 W4 2.613099 1_555
Br5 Cs0 3.742457 1_665
Br5 Cs3 3.915098 1_555
Br6 W0 2.613099 1_655
Br6 Cs0 3.742457 1_655
Br6 Cs3 3.915090 1_555
Br7 W3 2.608820 1_555
Br7 Cs1 3.728004 1_556
Br7 Cs3 4.225287 1_555
Br8 W8 2.608811 1_565
Br8 Cs0 3.728004 1_665
Br8 Cs2 4.225283 1_555
Br9 W11 2.608820 1_555
Br9 Cs0 3.728004 1_555
Br9 Cs2 4.225287 1_555
Br10 W7 2.613099 1_545
Br10 Cs0 3.742457 1_555
Br10 Cs3 3.915094 1_555
Br11 W1 2.613099 1_555
Br11 Cs1 3.742457 1_665
Br11 Cs2 3.915098 1_555
Cl0 W10 2.508664 1_555
Cl0 W3 2.521315 1_555
Cl0 W4 2.532983 1_555
Cl0 Cs3 3.836141 1_555
Cl1 W6 2.506520 1_555
Cl1 W11 2.506520 1_555
Cl1 W8 2.506520 1_555
Cl2 W10 2.506520 1_555
Cl2 W3 2.506520 1_555
Cl2 W5 2.506520 1_555
Cl3 W5 2.508655 1_555
Cl3 W10 2.521306 1_555
Cl3 W7 2.532983 1_555
Cl3 Cs3 3.836135 1_565
Cl4 W9 2.510325 1_555
Cl4 W2 2.523368 1_555
Cl4 W8 2.534048 1_555
Cl4 Cs2 3.986693 1_545
Cl5 W8 2.508655 1_555
Cl5 W6 2.521306 1_555
Cl5 W9 2.532983 1_555
Cl5 Cs2 3.836135 1_655
Cl6 W3 2.508654 1_555
Cl6 W5 2.521315 1_555
Cl6 W0 2.532983 1_555
Cl6 Cs3 3.836131 1_455
Cl7 W7 2.510325 1_555
Cl7 W0 2.523368 1_555
Cl7 W5 2.534048 1_555
Cl7 Cs3 3.986693 1_455
Cl8 W11 2.508654 1_555
Cl8 W8 2.521315 1_555
Cl8 W2 2.532983 1_555
Cl8 Cs2 3.836131 1_545
Cl9 W2 2.510325 1_555
Cl9 W1 2.523368 1_555
Cl9 W11 2.534054 1_555
Cl9 Cs2 3.986699 1_555
Cl10 W1 2.510325 1_555
Cl10 W9 2.523368 1_555
Cl10 W6 2.534051 1_555
Cl10 Cs2 3.986689 1_655
Cl11 W9 2.511582 1_555
Cl11 W2 2.511585 1_555
Cl11 W1 2.511588 1_555
Cl12 W0 2.510325 1_555
Cl12 W4 2.523368 1_555
Cl12 W3 2.534054 1_555
Cl12 Cs3 3.986699 1_555
Cl13 W6 2.508664 1_555
Cl13 W11 2.521315 1_555
Cl13 W1 2.532983 1_555
Cl13 Cs2 3.836141 1_555
Cl14 W7 2.511582 1_555
Cl14 W0 2.511585 1_555
Cl14 W4 2.511588 1_555
Cl15 W4 2.510325 1_555
Cl15 W7 2.523368 1_555
Cl15 W10 2.534051 1_555
Cl15 Cs3 3.986689 1_565
