# generated using pymatgen
data_HfI4
_symmetry_space_group_name_H-M   'P 1'
_cell_length_a   12.59537892
_cell_length_b   12.59537892
_cell_length_c   12.59537892
_cell_angle_alpha   90.00000000
_cell_angle_beta   90.00000000
_cell_angle_gamma   90.00000000
_symmetry_Int_Tables_number   1
_chemical_formula_structural   HfI4
_chemical_formula_sum   'Hf8 I32'
_cell_volume   1998.17587911
_cell_formula_units_Z   8
loop_
 _symmetry_equiv_pos_site_id
 _symmetry_equiv_pos_as_xyz
  1  'x, y, z'
loop_
 _atom_site_type_symbol
 _atom_site_label
 _atom_site_symmetry_multiplicity
 _atom_site_fract_x
 _atom_site_fract_y
 _atom_site_fract_z
 _atom_site_occupancy
  Hf  Hf0  1  0.37263424  0.62736576  0.12736576  1
  Hf  Hf1  1  0.12736576  0.12736576  0.12736576  1
  Hf  Hf2  1  0.87263424  0.62736576  0.37263424  1
  Hf  Hf3  1  0.12736576  0.37263424  0.62736576  1
  Hf  Hf4  1  0.62736576  0.12736576  0.37263424  1
  Hf  Hf5  1  0.37263424  0.87263424  0.62736576  1
  Hf  Hf6  1  0.87263424  0.87263424  0.87263424  1
  Hf  Hf7  1  0.62736576  0.37263424  0.87263424  1
  I  I0  1  0.74869597  0.49241928  0.99601770  1
  I  I1  1  0.49241928  0.99601770  0.74869597  1
  I  I2  1  0.24869597  0.00758072  0.00398230  1
  I  I3  1  0.00758072  0.00398230  0.24869597  1
  I  I4  1  0.50758072  0.00398230  0.25130403  1
  I  I5  1  0.50758072  0.49601770  0.75130403  1
  I  I6  1  0.00758072  0.49601770  0.74869597  1
  I  I7  1  0.99601770  0.75130403  0.99241928  1
  I  I8  1  0.00398230  0.25130403  0.50758072  1
  I  I9  1  0.50398230  0.25130403  0.99241928  1
  I  I10  1  0.99241928  0.99601770  0.75130403  1
  I  I11  1  0.00398230  0.24869597  0.00758072  1
  I  I12  1  0.99601770  0.74869597  0.49241928  1
  I  I13  1  0.25115166  0.74884834  0.24884834  1
  I  I14  1  0.75115166  0.74884834  0.25115166  1
  I  I15  1  0.74884834  0.24884834  0.25115166  1
  I  I16  1  0.99241928  0.50398230  0.25130403  1
  I  I17  1  0.74884834  0.25115166  0.75115166  1
  I  I18  1  0.49601770  0.75130403  0.50758072  1
  I  I19  1  0.50398230  0.24869597  0.49241928  1
  I  I20  1  0.75130403  0.99241928  0.99601770  1
  I  I21  1  0.24884834  0.25115166  0.74884834  1
  I  I22  1  0.75115166  0.75115166  0.75115166  1
  I  I23  1  0.24869597  0.49241928  0.50398230  1
  I  I24  1  0.25115166  0.75115166  0.74884834  1
  I  I25  1  0.75130403  0.50758072  0.49601770  1
  I  I26  1  0.24884834  0.24884834  0.24884834  1
  I  I27  1  0.25130403  0.50758072  0.00398230  1
  I  I28  1  0.74869597  0.00758072  0.49601770  1
  I  I29  1  0.25130403  0.99241928  0.50398230  1
  I  I30  1  0.49601770  0.74869597  0.00758072  1
  I  I31  1  0.49241928  0.50398230  0.24869597  1
loop_
_geom_bond_atom_site_label_1
_geom_bond_atom_site_label_2
_geom_bond_distance
_geom_bond_site_symmetry_2
Hf0 I13 2.650244 1_555
Hf0 I31 2.650810 1_555
Hf0 I30 2.650810 1_555
Hf0 I27 2.650810 1_555
Hf1 I26 2.650244 1_555
Hf1 I3 2.650810 1_555
Hf1 I11 2.650810 1_555
Hf1 I2 2.650810 1_555
Hf2 I14 2.650244 1_555
Hf2 I16 2.650810 1_555
Hf2 I25 2.650810 1_555
Hf2 I12 2.650810 1_555
Hf3 I21 2.650244 1_555
Hf3 I6 2.650810 1_555
Hf3 I8 2.650810 1_555
Hf3 I23 2.650810 1_555
Hf4 I15 2.650244 1_555
Hf4 I28 2.650810 1_555
Hf4 I4 2.650810 1_555
Hf4 I19 2.650810 1_555
Hf5 I24 2.650244 1_555
Hf5 I1 2.650810 1_555
Hf5 I29 2.650810 1_555
Hf5 I18 2.650810 1_555
Hf6 I22 2.650244 1_555
Hf6 I10 2.650810 1_555
Hf6 I20 2.650810 1_555
Hf6 I7 2.650810 1_555
Hf7 I17 2.650244 1_555
Hf7 I5 2.650810 1_555
Hf7 I0 2.650810 1_555
Hf7 I9 2.650810 1_555
