# generated using pymatgen
data_Sr2Co2O5
_symmetry_space_group_name_H-M   'P 1'
_cell_length_a   5.43022300
_cell_length_b   5.55978839
_cell_length_c   8.94352183
_cell_angle_alpha   107.49651079
_cell_angle_beta   107.20983573
_cell_angle_gamma   91.47386402
_symmetry_Int_Tables_number   1
_chemical_formula_structural   Sr2Co2O5
_chemical_formula_sum   'Sr4 Co4 O10'
_cell_volume   244.03447781
_cell_formula_units_Z   2
loop_
 _symmetry_equiv_pos_site_id
 _symmetry_equiv_pos_as_xyz
  1  'x, y, z'
loop_
 _atom_site_type_symbol
 _atom_site_label
 _atom_site_symmetry_multiplicity
 _atom_site_fract_x
 _atom_site_fract_y
 _atom_site_fract_z
 _atom_site_occupancy
  Sr  Sr0  1  0.37986700  0.87678500  0.77722100  1
  Sr  Sr1  1  0.10459900  0.60085900  0.22303300  1
  Sr  Sr2  1  0.87913400  0.40000500  0.77734200  1
  Sr  Sr3  1  0.60247500  0.12364000  0.22239800  1
  Co  Co0  1  0.27631300  0.18432800  0.49796900  1
  Co  Co1  1  0.98849000  0.00012500  0.99979600  1
  Co  Co2  1  0.77609700  0.81479700  0.50171100  1
  Co  Co3  1  0.48932700  0.50089400  0.00088500  1
  O  O0  1  0.33059100  0.39288200  0.70838500  1
  O  O1  1  0.61881600  0.60723300  0.29009600  1
  O  O2  1  0.13032700  0.86524100  0.50004900  1
  O  O3  1  0.11926500  0.17345100  0.28155200  1
  O  O4  1  0.75172000  0.76131300  0.00876100  1
  O  O5  1  0.25385900  0.74719300  0.01002900  1
  O  O6  1  0.83751800  0.82905100  0.71966400  1
  O  O7  1  0.72704200  0.25721200  0.98986300  1
  O  O8  1  0.63015800  0.12893600  0.49974100  1
  O  O9  1  0.22840100  0.23605500  0.99150400  1
loop_
_geom_bond_atom_site_label_1
_geom_bond_atom_site_label_2
_geom_bond_distance
_geom_bond_site_symmetry_2
Co0 O0 1.820685 1_555
Co0 O3 1.851331 1_555
Co0 O2 1.931910 1_545
Co0 O8 1.949987 1_555
Co1 O9 1.857707 1_655
Co1 O4 1.859997 1_546
Co1 O5 2.041083 1_646
Co1 O7 2.042706 1_555
Co1 O6 2.272718 1_545
Co1 O3 2.286599 1_656
Co2 O1 1.822797 1_555
Co2 O6 1.854239 1_555
Co2 O8 1.939124 1_565
Co2 O2 1.941800 1_655
Co3 O7 1.896443 1_554
Co3 O5 1.897737 1_555
Co3 O4 1.976023 1_555
Co3 O9 1.982615 1_554
Co3 O1 2.348860 1_555
Co3 O0 2.375166 1_554
O0 Sr0 2.560939 1_555
O0 Sr2 2.697551 1_455
O0 Sr2 2.854264 1_555
O0 Sr0 3.112589 1_545
O1 Sr3 2.565253 1_555
O1 Sr1 2.673779 1_555
O1 Sr1 2.871903 1_655
O1 Sr3 3.105530 1_565
O2 Sr0 2.428452 1_555
O2 Sr1 2.431672 1_555
O3 Sr1 2.580685 1_555
O3 Sr3 2.687975 1_455
O3 Sr3 2.830612 1_555
O3 Sr1 3.061915 1_545
O4 Sr3 2.655451 1_565
O4 Sr1 2.661391 1_655
O4 Sr0 2.677574 1_554
O4 Sr2 2.686364 1_554
O5 Sr1 2.599922 1_555
O5 Sr3 2.617229 1_565
O5 Sr0 2.653735 1_554
O5 Sr2 2.659713 1_454
O6 Sr2 2.589587 1_555
O6 Sr0 2.687033 1_555
O6 Sr0 2.826560 1_655
O6 Sr2 3.050144 1_565
O7 Sr2 2.593738 1_555
O7 Sr0 2.626616 1_545
O7 Sr3 2.658833 1_556
O7 Sr1 2.659947 1_656
O8 Sr3 2.431291 1_555
O8 Sr2 2.433558 1_555
O9 Sr0 2.656051 1_545
O9 Sr2 2.661899 1_455
O9 Sr3 2.672130 1_556
O9 Sr1 2.687371 1_556
