# generated using pymatgen
data_H2O
_symmetry_space_group_name_H-M   'P 1'
_cell_length_a   3.91332667
_cell_length_b   7.88826668
_cell_length_c   8.10720272
_cell_angle_alpha   90.00495625
_cell_angle_beta   90.00860154
_cell_angle_gamma   90.01589524
_symmetry_Int_Tables_number   1
_chemical_formula_structural   H2O
_chemical_formula_sum   'H24 O12'
_cell_volume   250.26418101
_cell_formula_units_Z   12
loop_
 _symmetry_equiv_pos_site_id
 _symmetry_equiv_pos_as_xyz
  1  'x, y, z'
loop_
 _atom_site_type_symbol
 _atom_site_label
 _atom_site_symmetry_multiplicity
 _atom_site_fract_x
 _atom_site_fract_y
 _atom_site_fract_z
 _atom_site_occupancy
  H  H0  1  0.26768675  0.07267643  0.84843988  1
  H  H1  1  0.64218797  0.54576036  0.40417500  1
  H  H2  1  0.50554736  0.66015861  0.91605471  1
  H  H3  1  0.19370019  0.21851092  0.72513883  1
  H  H4  1  0.46061620  0.22171458  0.21424433  1
  H  H5  1  0.89868581  0.09008335  0.46625325  1
  H  H6  1  0.78946987  0.72177799  0.78608190  1
  H  H7  1  0.10803864  0.45426584  0.90406974  1
  H  H8  1  0.35090581  0.59031186  0.53393478  1
  H  H9  1  0.74454208  0.16024286  0.08420195  1
  H  H10  1  0.00530811  0.83991291  0.58413297  1
  H  H11  1  0.60708997  0.04537034  0.59578931  1
  H  H12  1  0.05610105  0.71879435  0.27450023  1
  H  H13  1  0.76791325  0.42718207  0.65137798  1
  H  H14  1  0.39927846  0.40982685  0.03390901  1
  H  H15  1  0.55602275  0.78132951  0.22521303  1
  H  H16  1  0.24459495  0.33989610  0.41618140  1
  H  H17  1  0.85092083  0.91003660  0.96622863  1
  H  H18  1  0.48210904  0.92723474  0.34846943  1
  H  H19  1  0.69386458  0.28107668  0.77438556  1
  H  H20  1  0.96064435  0.27831215  0.28617578  1
  H  H21  1  0.14245044  0.95465941  0.09586149  1
  H  H22  1  0.28939714  0.77848332  0.71415684  1
  H  H23  1  0.98193603  0.57267478  0.15150513  1
  O  O0  1  0.74967863  0.99769219  0.50670490  1
  O  O1  1  0.25026699  0.50209583  0.99323344  1
  O  O2  1  -0.00002698  0.00240785  0.00676578  1
  O  O3  1  0.87958118  0.63436971  0.24540910  1
  O  O4  1  0.13899243  0.23937099  0.36344654  1
  O  O5  1  0.87038852  0.36546031  0.74526044  1
  O  O6  1  0.63901103  0.26069409  0.13702644  1
  O  O7  1  0.49987521  0.49800437  0.49332010  1
  O  O8  1  0.11098665  0.73948274  0.63691598  1
  O  O9  1  0.37009578  0.13413739  0.75437716  1
  O  O10  1  0.61109693  0.76068204  0.86333815  1
  O  O11  1  0.37964800  0.86570790  0.25442579  1
loop_
_geom_bond_atom_site_label_1
_geom_bond_atom_site_label_2
_geom_bond_distance
_geom_bond_site_symmetry_2
H0 O9 0.988557 1_555
H1 O7 0.987137 1_555
H2 O10 0.990947 1_555
H3 O9 0.987876 1_555
H4 O6 0.986843 1_555
H5 O0 0.989239 1_545
H6 O10 0.986882 1_555
H7 O1 0.987114 1_555
H8 O7 0.989301 1_555
H9 O6 0.990963 1_555
H10 O8 0.990931 1_555
H11 O0 0.987223 1_545
H12 O3 0.987916 1_455
H13 O5 0.988563 1_555
H14 O1 0.989323 1_554
H15 O11 0.987817 1_555
H16 O4 0.990995 1_555
H17 O2 0.989357 1_666
H18 O11 0.988617 1_555
H19 O5 0.987852 1_555
H20 O4 0.986879 1_655
H21 O2 0.987181 1_565
H22 O8 0.986890 1_555
H23 O3 0.988430 1_555
