# generated using pymatgen
data_BaAu
_symmetry_space_group_name_H-M   'P 1'
_cell_length_a   4.97417636
_cell_length_b   6.46877759
_cell_length_c   8.44698433
_cell_angle_alpha   90.00000000
_cell_angle_beta   90.00000000
_cell_angle_gamma   90.00000000
_symmetry_Int_Tables_number   1
_chemical_formula_structural   BaAu
_chemical_formula_sum   'Ba4 Au4'
_cell_volume   271.79726805
_cell_formula_units_Z   4
loop_
 _symmetry_equiv_pos_site_id
 _symmetry_equiv_pos_as_xyz
  1  'x, y, z'
loop_
 _atom_site_type_symbol
 _atom_site_label
 _atom_site_symmetry_multiplicity
 _atom_site_fract_x
 _atom_site_fract_y
 _atom_site_fract_z
 _atom_site_occupancy
  Ba  Ba0  1  0.25000000  0.86011081  0.68427588  1
  Ba  Ba1  1  0.25000000  0.63988919  0.18427588  1
  Ba  Ba2  1  0.75000000  0.13988919  0.31572412  1
  Ba  Ba3  1  0.75000000  0.36011081  0.81572412  1
  Au  Au0  1  0.25000000  0.36476436  0.53711719  1
  Au  Au1  1  0.75000000  0.86476436  0.96288281  1
  Au  Au2  1  0.25000000  0.13523564  0.03711719  1
  Au  Au3  1  0.75000000  0.63523564  0.46288381  1
loop_
_geom_bond_atom_site_label_1
_geom_bond_atom_site_label_2
_geom_bond_distance
_geom_bond_site_symmetry_2
Au0 Au3 3.104829 1_455
Au0 Au3 3.104829 1_555
Au0 Ba3 3.424172 1_455
Au0 Ba3 3.424172 1_555
Au0 Ba2 3.434960 1_555
Au0 Ba2 3.434960 1_455
Au0 Ba0 3.436949 1_555
Au0 Ba1 3.471377 1_555
Au0 Ba0 3.493146 1_545
Au1 Au2 3.104831 1_566
Au1 Au2 3.104831 1_666
Au1 Ba0 3.424172 1_655
Au1 Ba0 3.424172 1_555
Au1 Ba1 3.434960 1_556
Au1 Ba1 3.434960 1_656
Au1 Ba3 3.436949 1_565
Au1 Ba2 3.471377 1_566
Au1 Ba3 3.493146 1_555
Au2 Ba2 3.424172 1_555
Au2 Ba2 3.424172 1_455
Au2 Ba3 3.434960 1_554
Au2 Ba3 3.434960 1_454
Au2 Ba1 3.436949 1_545
Au2 Ba0 3.471377 1_544
Au2 Ba1 3.493146 1_555
Au3 Ba1 3.424177 1_555
Au3 Ba1 3.424177 1_655
Au3 Ba0 3.434956 1_555
Au3 Ba0 3.434956 1_655
Au3 Ba2 3.436952 1_555
Au3 Ba3 3.471370 1_555
Au3 Ba2 3.493149 1_565
