# generated using pymatgen
data_K2Ba3Sb4
_symmetry_space_group_name_H-M   'P 1'
_cell_length_a   9.46589500
_cell_length_b   11.32349994
_cell_length_c   29.58191825
_cell_angle_alpha   91.41209056
_cell_angle_beta   90.17754564
_cell_angle_gamma   96.94231316
_symmetry_Int_Tables_number   1
_chemical_formula_structural   K2Ba3Sb4
_chemical_formula_sum   'K16 Ba24 Sb32'
_cell_volume   3146.53682028
_cell_formula_units_Z   8
loop_
 _symmetry_equiv_pos_site_id
 _symmetry_equiv_pos_as_xyz
  1  'x, y, z'
loop_
 _atom_site_type_symbol
 _atom_site_label
 _atom_site_symmetry_multiplicity
 _atom_site_fract_x
 _atom_site_fract_y
 _atom_site_fract_z
 _atom_site_occupancy
  K  K0  1  0.02904600  0.10567400  0.05980200  1
  K  K1  1  0.98459100  0.11436400  0.69632300  1
  K  K2  1  0.87640800  0.50866500  0.37482700  1
  K  K3  1  0.85324400  0.52559000  0.86373500  1
  K  K4  1  0.80863900  0.68453500  0.05463100  1
  K  K5  1  0.80410400  0.67488400  0.20008700  1
  K  K6  1  0.82892000  0.68419800  0.54323700  1
  K  K7  1  0.63461000  0.96666500  0.10977700  1
  K  K8  1  0.65427900  0.96807300  0.64074600  1
  K  K9  1  0.48948000  0.62848200  0.80143500  1
  K  K10  1  0.49019500  0.35296700  0.18858300  1
  K  K11  1  0.49407900  0.35897300  0.55931000  1
  K  K12  1  0.43766900  0.99933800  0.38017200  1
  K  K13  1  0.35133500  0.04038100  0.88528900  1
  K  K14  1  0.11894500  0.49475700  0.13627800  1
  K  K15  1  0.12891200  0.50560500  0.62267100  1
  Ba  Ba0  1  0.96166500  0.09539300  0.20029800  1
  Ba  Ba1  1  0.01122800  0.11133600  0.56130800  1
  Ba  Ba2  1  0.82860000  0.67871300  0.69152100  1
  Ba  Ba3  1  0.66108700  0.19637200  0.29565100  1
  Ba  Ba4  1  0.67109800  0.20001500  0.45678400  1
  Ba  Ba5  1  0.66937400  0.17226700  0.80039700  1
  Ba  Ba6  1  0.70558700  0.21410200  0.94810200  1
  Ba  Ba7  1  0.49472100  0.60517500  0.30714000  1
  Ba  Ba8  1  0.49389800  0.61396300  0.44222100  1
  Ba  Ba9  1  0.47095600  0.67128000  0.92622400  1
  Ba  Ba10  1  0.53805000  0.36564800  0.06177900  1
  Ba  Ba11  1  0.50860000  0.36779300  0.68682400  1
  Ba  Ba12  1  0.29208700  0.78697100  0.05064700  1
  Ba  Ba13  1  0.34592100  0.80795300  0.20733300  1
  Ba  Ba14  1  0.35030100  0.82861500  0.54587900  1
  Ba  Ba15  1  0.33919500  0.81055500  0.70615200  1
  Ba  Ba16  1  0.17091100  0.32358100  0.30314300  1
  Ba  Ba17  1  0.18820700  0.33841200  0.80292600  1
  Ba  Ba18  1  0.19952700  0.32972300  0.95367900  1
  Ba  Ba19  1  0.17215700  0.32411400  0.44711800  1
  Ba  Ba20  1  0.02094800  0.92341600  0.79944500  1
  Ba  Ba21  1  0.02780700  0.90766200  0.30695300  1
  Ba  Ba22  1  0.03707800  0.92218800  0.44068700  1
  Ba  Ba23  1  0.93711800  0.90038600  0.93527100  1
  Sb  Sb0  1  0.93797500  0.16617100  0.37235500  1
  Sb  Sb1  1  0.98791900  0.16846900  0.87650600  1
  Sb  Sb2  1  0.86647400  0.38150100  0.21685300  1
  Sb  Sb3  1  0.88013400  0.38167100  0.53951700  1
  Sb  Sb4  1  0.87253100  0.38791900  0.71519200  1
  Sb  Sb5  1  0.90317500  0.38441600  0.04157300  1
  Sb  Sb6  1  0.73768600  0.79522700  0.37499400  1
  Sb  Sb7  1  0.65829400  0.88958100  0.85575700  1
  Sb  Sb8  1  0.79284000  0.26545400  0.12685200  1
  Sb  Sb9  1  0.77756100  0.26996400  0.62464300  1
  Sb  Sb10  1  0.60992400  0.92858500  0.99254600  1
  Sb  Sb11  1  0.66326200  0.88391300  0.28415600  1
  Sb  Sb12  1  0.67573100  0.88948700  0.46691100  1
  Sb  Sb13  1  0.68684100  0.88358200  0.75645200  1
  Sb  Sb14  1  0.48402600  0.62241800  0.12433500  1
  Sb  Sb15  1  0.50365300  0.63659200  0.62505100  1
  Sb  Sb16  1  0.48841800  0.35647000  0.37538600  1
  Sb  Sb17  1  0.49691300  0.37737000  0.87790900  1
  Sb  Sb18  1  0.30351500  0.09983500  0.24252200  1
  Sb  Sb19  1  0.31723600  0.10547100  0.50108000  1
  Sb  Sb20  1  0.32253400  0.11282000  0.73936500  1
  Sb  Sb21  1  0.38091800  0.08087600  0.00677100  1
  Sb  Sb22  1  0.23493800  0.73012500  0.37408500  1
  Sb  Sb23  1  0.18132100  0.74153100  0.86998600  1
  Sb  Sb24  1  0.28908000  0.05556200  0.14265100  1
  Sb  Sb25  1  0.30170300  0.06407900  0.63730200  1
  Sb  Sb26  1  0.09026400  0.62580700  0.95568200  1
  Sb  Sb27  1  0.12461500  0.62003300  0.28775400  1
  Sb  Sb28  1  0.13231300  0.63258600  0.46106500  1
  Sb  Sb29  1  0.10483200  0.62288200  0.78026100  1
  Sb  Sb30  1  0.04863500  0.86282500  0.13347000  1
  Sb  Sb31  1  0.06416200  0.86800000  0.62663500  1
loop_
_geom_bond_atom_site_label_1
_geom_bond_atom_site_label_2
_geom_bond_distance
_geom_bond_site_symmetry_2
K0 Sb5 3.558355 1_455
K0 Sb24 3.571573 1_555
K0 Sb30 3.572331 1_545
K0 Sb8 3.610455 1_455
K0 Sb21 3.724344 1_555
K1 Sb4 3.427045 1_555
K1 Sb20 3.441519 1_655
K1 Sb9 3.526225 1_555
K1 Sb25 3.574876 1_655
K1 Sb31 3.582415 1_645
K1 Sb13 4.051721 1_545
K2 Sb27 3.636825 1_655
K2 Sb6 3.644571 1_555
K2 Sb28 3.648082 1_655
K2 Sb16 3.864006 1_555
K2 Sb22 3.968978 1_655
K2 Sb0 3.989778 1_555
K3 Sb29 3.538235 1_655
K3 Sb26 3.593654 1_655
K3 Sb17 3.611749 1_555
K3 Sb23 3.714308 1_655
K4 Sb5 3.629285 1_555
K4 Sb30 3.647242 1_655
K4 Sb14 3.711682 1_555
K4 Sb10 4.004195 1_554
K4 Sb26 4.061748 1_654
K5 Sb2 3.490640 1_555
K5 Sb30 3.579738 1_655
K5 Sb14 3.743200 1_555
K5 Sb11 3.749381 1_555
K5 Sb27 4.099040 1_655
K6 Sb3 3.516464 1_555
K6 Sb12 3.695626 1_555
K6 Sb31 3.737545 1_655
K6 Sb28 3.857083 1_655
K6 Sb15 3.916271 1_555
K7 Sb10 3.487680 1_554
K7 Sb8 3.554088 1_565
K7 Sb24 3.663903 1_565
K7 Sb14 4.019408 1_555
K8 Sb9 3.520508 1_565
K8 Sb13 3.598901 1_555
K8 Sb25 3.634723 1_565
K8 Sb15 3.867002 1_555
K9 Sb7 3.533391 1_555
K9 Sb13 3.536289 1_555
K9 Sb17 3.684079 1_555
K9 Sb29 3.685323 1_555
K9 Sb23 3.882168 1_555
K10 Sb18 3.592072 1_555
K10 Sb8 3.626752 1_555
K10 Sb2 3.630472 1_555
K10 Sb14 3.640492 1_555
K10 Sb24 3.875591 1_555
K11 Sb19 3.547697 1_555
K11 Sb9 3.559417 1_555
K11 Sb15 3.647096 1_555
K11 Sb3 3.681960 1_555
K12 Sb22 3.400686 1_555
K12 Sb12 3.742776 1_555
K12 Sb11 3.855546 1_555
K12 Sb6 3.873309 1_555
K12 Sb19 3.959957 1_565
K12 Sb16 4.020403 1_565
K13 Sb23 3.584689 1_545
K13 Sb21 3.617272 1_556
K13 Sb7 3.641899 1_545
K13 Sb1 3.901841 1_455
K13 Sb17 3.908891 1_555
K14 Sb2 3.533068 1_455
K14 Sb5 3.571634 1_455
K14 Sb14 3.603091 1_555
K14 Sb8 3.790757 1_455
K15 Sb3 3.544145 1_455
K15 Sb15 3.675512 1_555
K15 Sb4 3.820419 1_455
K15 Sb9 4.005997 1_455
Ba0 Sb30 3.434924 1_645
Ba0 Sb8 3.451269 1_555
Ba0 Sb18 3.459243 1_655
Ba0 Sb2 3.489689 1_555
Ba0 Sb24 3.612448 1_655
Ba1 Sb19 3.412023 1_555
Ba1 Sb31 3.488284 1_545
Ba1 Sb3 3.512345 1_455
Ba1 Sb9 3.528356 1_455
Ba1 Sb25 3.643771 1_555
Ba2 Sb13 3.379430 1_555
Ba2 Sb4 3.456686 1_555
Ba2 Sb31 3.510611 1_655
Ba2 Sb15 3.621706 1_555
Ba2 Sb29 3.816646 1_655
Ba3 Sb16 3.471447 1_555
Ba3 Sb0 3.514714 1_555
Ba3 Sb11 3.548629 1_545
Ba3 Sb2 3.590480 1_555
Ba3 Sb18 3.756253 1_555
Ba4 Sb12 3.541877 1_545
Ba4 Sb16 3.584957 1_555
Ba4 Sb3 3.588063 1_555
Ba4 Sb0 3.604516 1_555
Ba4 Sb19 3.648641 1_555
Ba5 Sb13 3.510797 1_545
Ba5 Sb7 3.621816 1_545
Ba5 Sb20 3.723029 1_555
Ba5 Sb17 3.740841 1_555
Ba5 Sb1 3.762584 1_555
Ba5 Sb4 3.900316 1_555
Ba6 Sb1 3.494291 1_555
Ba6 Sb10 3.536991 1_545
Ba6 Sb17 3.560602 1_555
Ba6 Sb5 3.700834 1_556
Ba6 Sb21 3.711377 1_556
Ba7 Sb11 3.444550 1_555
Ba7 Sb16 3.500099 1_555
Ba7 Sb6 3.537209 1_555
Ba7 Sb22 3.564256 1_555
Ba7 Sb27 3.572908 1_555
Ba8 Sb12 3.436791 1_555
Ba8 Sb16 3.477321 1_555
Ba8 Sb28 3.500111 1_555
Ba8 Sb6 3.546523 1_555
Ba8 Sb22 3.561053 1_555
Ba9 Sb23 3.388408 1_555
Ba9 Sb7 3.580176 1_555
Ba9 Sb10 3.583906 1_555
Ba9 Sb17 3.625566 1_555
Ba9 Sb26 3.688279 1_555
Ba10 Sb8 3.398523 1_555
Ba10 Sb5 3.491348 1_555
Ba10 Sb14 3.498548 1_555
Ba10 Sb21 3.718244 1_555
Ba11 Sb9 3.420956 1_555
Ba11 Sb4 3.522299 1_555
Ba11 Sb20 3.586439 1_555
Ba11 Sb15 3.593591 1_555
Ba11 Sb25 3.989339 1_555
Ba12 Sb30 3.530018 1_555
Ba12 Sb14 3.538174 1_555
Ba12 Sb21 3.607030 1_565
Ba12 Sb10 3.684948 1_554
Ba12 Sb26 3.707195 1_554
Ba12 Sb24 4.033820 1_565
Ba13 Sb18 3.510316 1_565
Ba13 Sb24 3.526284 1_565
Ba13 Sb14 3.546915 1_555
Ba13 Sb30 3.678431 1_555
Ba13 Sb27 3.711996 1_555
Ba13 Sb11 3.763599 1_555
Ba14 Sb19 3.481625 1_565
Ba14 Sb15 3.648734 1_555
Ba14 Sb31 3.677190 1_555
Ba14 Sb28 3.750483 1_555
Ba14 Sb25 3.818850 1_565
Ba14 Sb12 3.877136 1_555
Ba15 Sb15 3.548403 1_555
Ba15 Sb20 3.559601 1_565
Ba15 Sb13 3.602537 1_555
Ba15 Sb25 3.611858 1_565
Ba15 Sb31 3.630562 1_555
Ba15 Sb29 3.655662 1_555
Ba16 Sb0 3.389479 1_455
Ba16 Sb18 3.430642 1_555
Ba16 Sb27 3.478160 1_555
Ba16 Sb16 3.659123 1_555
Ba16 Sb2 3.967927 1_455
Ba17 Sb1 3.374224 1_455
Ba17 Sb29 3.488012 1_555
Ba17 Sb20 3.498693 1_555
Ba17 Sb17 3.640585 1_555
Ba17 Sb4 4.050645 1_455
Ba18 Sb1 3.382331 1_455
Ba18 Sb17 3.601525 1_555
Ba18 Sb26 3.625289 1_555
Ba18 Sb21 3.837443 1_556
Ba18 Sb5 3.924170 1_456
Ba19 Sb19 3.401009 1_555
Ba19 Sb0 3.438045 1_455
Ba19 Sb28 3.572367 1_555
Ba19 Sb16 3.662203 1_555
Ba19 Sb3 3.991440 1_455
Ba20 Sb13 3.380103 1_455
Ba20 Sb23 3.442221 1_555
Ba20 Sb1 3.591182 1_465
Ba20 Sb29 3.618626 1_555
Ba20 Sb7 3.801988 1_455
Ba20 Sb20 3.827209 1_565
Ba21 Sb11 3.490996 1_455
Ba21 Sb27 3.521887 1_555
Ba21 Sb6 3.539700 1_455
Ba21 Sb22 3.599305 1_555
Ba21 Sb0 3.656181 1_465
Ba21 Sb18 3.747217 1_565
Ba22 Sb12 3.487545 1_455
Ba22 Sb6 3.566260 1_455
Ba22 Sb28 3.569122 1_555
Ba22 Sb22 3.593857 1_555
Ba22 Sb19 3.604059 1_565
Ba22 Sb0 3.672711 1_465
Ba23 Sb1 3.518621 1_565
Ba23 Sb7 3.518947 1_555
Ba23 Sb10 3.579121 1_555
Ba23 Sb23 3.629123 1_655
Ba23 Sb26 3.648271 1_655
Sb2 Sb8 2.982552 1_555
Sb3 Sb9 2.959607 1_555
Sb4 Sb9 3.047229 1_555
Sb5 Sb8 3.018809 1_555
Sb10 Sb21 2.953566 1_566
Sb11 Sb6 3.002987 1_555
Sb12 Sb6 2.982405 1_555
Sb13 Sb7 2.950736 1_555
Sb18 Sb24 2.984338 1_555
Sb20 Sb25 3.057295 1_555
Sb22 Sb27 2.945943 1_555
Sb22 Sb28 2.946230 1_555
Sb23 Sb26 2.964928 1_555
Sb23 Sb29 2.991895 1_555
Sb24 Sb30 2.963669 1_545
Sb25 Sb31 2.973118 1_545
