# generated using pymatgen
data_SrAl2B2O7
_symmetry_space_group_name_H-M   'P 1'
_cell_length_a   16.42923922
_cell_length_b   16.42923922
_cell_length_c   16.42923905
_cell_angle_alpha   17.34501733
_cell_angle_beta   17.34501733
_cell_angle_gamma   17.34501991
_symmetry_Int_Tables_number   1
_chemical_formula_structural   SrAl2B2O7
_chemical_formula_sum   'Sr2 Al4 B4 O14'
_cell_volume   343.94043708
_cell_formula_units_Z   2
loop_
 _symmetry_equiv_pos_site_id
 _symmetry_equiv_pos_as_xyz
  1  'x, y, z'
loop_
 _atom_site_type_symbol
 _atom_site_label
 _atom_site_symmetry_multiplicity
 _atom_site_fract_x
 _atom_site_fract_y
 _atom_site_fract_z
 _atom_site_occupancy
  Sr  Sr0  1  0.00000000  0.00000000  0.00000000  1
  Sr  Sr1  1  0.50000000  0.50000000  0.50000000  1
  Al  Al0  1  0.21516200  0.21516200  0.21516200  1
  Al  Al1  1  0.28483800  0.28483800  0.28483800  1
  Al  Al2  1  0.78483800  0.78483800  0.78483800  1
  Al  Al3  1  0.71516200  0.71516200  0.71516200  1
  B  B0  1  0.13257300  0.13257300  0.13257300  1
  B  B1  1  0.63257300  0.63257300  0.63257300  1
  B  B2  1  0.86742700  0.86742700  0.86742700  1
  B  B3  1  0.36742700  0.36742700  0.36742700  1
  O  O0  1  0.43744700  0.88980100  0.07418000  1
  O  O1  1  0.88980100  0.07418000  0.43744700  1
  O  O2  1  0.57418000  0.38980100  0.93744700  1
  O  O3  1  0.75000000  0.75000000  0.75000000  1
  O  O4  1  0.38980100  0.93744700  0.57418000  1
  O  O5  1  0.42582000  0.61019900  0.06255300  1
  O  O6  1  0.93744700  0.57418000  0.38980100  1
  O  O7  1  0.11019900  0.92582000  0.56255300  1
  O  O8  1  0.56255300  0.11019900  0.92582000  1
  O  O9  1  0.07418000  0.43744700  0.88980100  1
  O  O10  1  0.92582000  0.56255300  0.11019900  1
  O  O11  1  0.06255300  0.42582000  0.61019900  1
  O  O12  1  0.61019900  0.06255300  0.42582000  1
  O  O13  1  0.25000000  0.25000000  0.25000000  1
loop_
_geom_bond_atom_site_label_1
_geom_bond_atom_site_label_2
_geom_bond_distance
_geom_bond_site_symmetry_2
Al0 O13 1.690858 1_555
Al0 O7 1.791955 1_545
Al0 O8 1.791955 1_554
Al0 O10 1.791956 1_455
Al1 O13 1.690858 1_555
Al1 O2 1.791955 1_554
Al1 O4 1.791955 1_545
Al1 O6 1.791956 1_455
Al2 O3 1.690858 1_555
Al2 O1 1.791955 1_565
Al2 O0 1.791955 1_556
Al2 O9 1.791956 1_655
Al3 O3 1.690858 1_555
Al3 O5 1.791955 1_556
Al3 O12 1.791955 1_565
Al3 O11 1.791956 1_655
B0 O1 1.381906 1_455
B0 O9 1.381907 1_554
B0 O0 1.381907 1_545
B1 O2 1.381906 1_555
B1 O6 1.381907 1_555
B1 O4 1.381907 1_555
B2 O7 1.381906 1_655
B2 O10 1.381907 1_556
B2 O8 1.381907 1_565
B3 O5 1.381906 1_555
B3 O11 1.381907 1_555
B3 O12 1.381907 1_555
O0 Sr1 2.577205 1_555
O1 Sr1 2.577206 1_555
O2 Sr0 2.577206 1_656
O4 Sr0 2.577205 1_566
O5 Sr0 2.577206 1_565
O6 Sr0 2.577205 1_665
O7 Sr1 2.577206 1_555
O8 Sr1 2.577205 1_555
O9 Sr1 2.577205 1_555
O10 Sr1 2.577205 1_555
O11 Sr0 2.577205 1_556
O12 Sr0 2.577205 1_655
