# generated using pymatgen
data_TiFe11O16
_symmetry_space_group_name_H-M   'P 1'
_cell_length_a   6.03811717
_cell_length_b   12.06952541
_cell_length_c   18.08606874
_cell_angle_alpha   59.94584154
_cell_angle_beta   59.97921466
_cell_angle_gamma   59.96591849
_symmetry_Int_Tables_number   1
_chemical_formula_structural   TiFe11O16
_chemical_formula_sum   'Ti3 Fe33 O48'
_cell_volume   931.24244902
_cell_formula_units_Z   3
loop_
 _symmetry_equiv_pos_site_id
 _symmetry_equiv_pos_as_xyz
  1  'x, y, z'
loop_
 _atom_site_type_symbol
 _atom_site_label
 _atom_site_symmetry_multiplicity
 _atom_site_fract_x
 _atom_site_fract_y
 _atom_site_fract_z
 _atom_site_occupancy
  Ti  Ti0  1  0.50108600  0.25044000  0.16596500  1
  Ti  Ti1  1  0.49912200  0.50001600  0.50013200  1
  Ti  Ti2  1  0.00033000  0.74973400  0.83320000  1
  Fe  Fe0  1  0.12603600  0.06533900  0.04120600  1
  Fe  Fe1  1  0.49981400  0.24854800  0.99671700  1
  Fe  Fe2  1  0.12999900  0.05987800  0.37451100  1
  Fe  Fe3  1  0.12586400  0.56218300  0.04140400  1
  Fe  Fe4  1  0.50302300  0.99494800  0.16590300  1
  Fe  Fe5  1  0.00876700  0.24573900  0.49957800  1
  Fe  Fe6  1  0.49113000  0.75072100  0.00259200  1
  Fe  Fe7  1  0.11853600  0.06329200  0.71079800  1
  Fe  Fe8  1  0.49887500  0.00025400  0.50042200  1
  Fe  Fe9  1  0.49845200  0.25109300  0.33613000  1
  Fe  Fe10  1  0.49846400  0.50487400  0.16699700  1
  Fe  Fe11  1  0.12154800  0.56406400  0.37607800  1
  Fe  Fe12  1  0.99881700  0.25105800  0.16675800  1
  Fe  Fe13  1  0.50079600  0.74992800  0.16608100  1
  Fe  Fe14  1  0.49987600  0.24557600  0.50005200  1
  Fe  Fe15  1  0.50146800  0.24727300  0.66922700  1
  Fe  Fe16  1  0.12758200  0.56034100  0.70943900  1
  Fe  Fe17  1  0.50113300  0.75344400  0.33038200  1
  Fe  Fe18  1  0.49163000  0.00468400  0.83454900  1
  Fe  Fe19  1  0.87498700  0.43713600  0.29164000  1
  Fe  Fe20  1  0.49937100  0.25029200  0.83377400  1
  Fe  Fe21  1  0.00128500  0.75009600  0.16588400  1
  Fe  Fe22  1  0.49889300  0.75347300  0.50105000  1
  Fe  Fe23  1  0.50862600  0.74902600  0.66441300  1
  Fe  Fe24  1  0.87452100  0.43456600  0.62566500  1
  Fe  Fe25  1  0.50807000  0.49568100  0.83186700  1
  Fe  Fe26  1  0.87304800  0.93877800  0.29103600  1
  Fe  Fe27  1  0.99974500  0.25077000  0.83334100  1
  Fe  Fe28  1  0.99072200  0.75336900  0.50121300  1
  Fe  Fe29  1  0.50112600  0.74931600  0.83312700  1
  Fe  Fe30  1  0.87806800  0.43601100  0.95702700  1
  Fe  Fe31  1  0.87420400  0.93949500  0.62518600  1
  Fe  Fe32  1  0.87555600  0.93844500  0.95617200  1
  O  O0  1  0.25439700  0.12996000  0.08637000  1
  O  O1  1  0.26851700  0.13308600  0.24128600  1
  O  O2  1  0.26687900  0.36364800  0.08720200  1
  O  O3  1  0.72646500  0.13449500  0.08706800  1
  O  O4  1  0.27367200  0.36684800  0.24405600  1
  O  O5  1  0.25894900  0.62643400  0.08466800  1
  O  O6  1  0.25751800  0.12837600  0.41750400  1
  O  O7  1  0.25086600  0.12884900  0.57971500  1
  O  O8  1  0.25608900  0.86882400  0.08388200  1
  O  O9  1  0.73348300  0.13769600  0.24382600  1
  O  O10  1  0.25276100  0.36756500  0.41945800  1
  O  O11  1  0.25287100  0.62846600  0.24522500  1
  O  O12  1  0.73615900  0.36755600  0.08989900  1
  O  O13  1  0.74511300  0.37085300  0.24752100  1
  O  O14  1  0.73695400  0.12690900  0.41783800  1
  O  O15  1  0.73438200  0.62742600  0.08406200  1
  O  O16  1  0.26442000  0.87306900  0.24848600  1
  O  O17  1  0.25720100  0.12812700  0.75197000  1
  O  O18  1  0.27213000  0.37869100  0.58004700  1
  O  O19  1  0.26522800  0.62046300  0.42296700  1
  O  O20  1  0.74171900  0.13640800  0.58234800  1
  O  O21  1  0.26896600  0.13546400  0.90887200  1
  O  O22  1  0.26997300  0.36205000  0.75683400  1
  O  O23  1  0.74363200  0.63373600  0.24841400  1
  O  O24  1  0.26617800  0.61926000  0.57663300  1
  O  O25  1  0.25810500  0.86289400  0.41934800  1
  O  O26  1  0.73252100  0.37916600  0.42493700  1
  O  O27  1  0.74581900  0.87377400  0.08721300  1
  O  O28  1  0.73413100  0.37906700  0.57774800  1
  O  O29  1  0.74361100  0.87293100  0.24743200  1
  O  O30  1  0.72238200  0.13558600  0.75757800  1
  O  O31  1  0.72445700  0.62048800  0.42280300  1
  O  O32  1  0.26700200  0.87141900  0.58253800  1
  O  O33  1  0.27427900  0.36648400  0.90927000  1
  O  O34  1  0.24073400  0.63361200  0.75503800  1
  O  O35  1  0.74489800  0.63114200  0.58212100  1
  O  O36  1  0.73292500  0.13678700  0.90942400  1
  O  O37  1  0.73156900  0.36419300  0.75767700  1
  O  O38  1  0.24266600  0.63079000  0.90887500  1
  O  O39  1  0.23960300  0.86354800  0.75607500  1
  O  O40  1  0.74636800  0.87084600  0.42198200  1
  O  O41  1  0.74321500  0.87246100  0.58280900  1
  O  O42  1  0.73944500  0.37176500  0.91531800  1
  O  O43  1  0.73214200  0.62609500  0.75278100  1
  O  O44  1  0.27110500  0.87305700  0.91317000  1
  O  O45  1  0.76070600  0.63518500  0.91120000  1
  O  O46  1  0.75752800  0.86871300  0.75805700  1
  O  O47  1  0.75970200  0.86585400  0.91093800  1
loop_
_geom_bond_atom_site_label_1
_geom_bond_atom_site_label_2
_geom_bond_distance
_geom_bond_site_symmetry_2
Fe0 O8 1.935555 1_545
Fe0 O0 1.937269 1_555
Fe0 O21 1.955719 1_554
Fe0 O3 1.969960 1_455
Fe1 O0 2.065901 1_556
Fe1 O42 2.074167 1_555
Fe1 O36 2.074174 1_555
Fe1 O33 2.083702 1_555
Fe1 O3 2.130000 1_556
Fe1 O2 2.145777 1_556
Fe2 O14 1.937271 1_455
Fe2 O6 1.939380 1_555
Fe2 O25 1.940114 1_545
Fe2 O1 1.968950 1_555
Fe3 O5 1.928769 1_555
Fe3 O15 1.929582 1_455
Fe3 O2 1.956586 1_555
Fe3 O38 1.957900 1_554
Fe4 O27 2.040701 1_555
Fe4 O16 2.058637 1_555
Fe4 O29 2.068852 1_555
Fe4 O0 2.083825 1_565
Fe4 O1 2.150681 1_565
Fe4 O3 2.152766 1_565
Fe5 O6 2.052145 1_555
Fe5 O7 2.058010 1_555
Fe5 O20 2.078047 1_455
Fe5 O10 2.080973 1_555
Fe5 O26 2.141198 1_455
Fe5 O28 2.144724 1_455
Fe6 O8 2.047875 1_555
Fe6 O5 2.052219 1_555
Fe6 O15 2.079483 1_555
Fe6 O44 2.086920 1_554
Fe6 O47 2.137127 1_554
Fe6 O45 2.161146 1_554
Fe7 O17 1.931644 1_555
Fe7 O7 1.934820 1_555
Fe7 O30 1.955506 1_455
Fe7 O39 1.968352 1_545
Fe8 O32 2.090307 1_545
Fe8 O6 2.090991 1_555
Fe8 O41 2.096598 1_545
Fe8 O14 2.097279 1_555
Fe8 O40 2.108772 1_545
Fe8 O7 2.112352 1_555
Fe9 O10 2.060468 1_555
Fe9 O14 2.062631 1_555
Fe9 O6 2.075408 1_555
Fe9 O13 2.079002 1_555
Fe9 O4 2.144801 1_555
Fe9 O9 2.155867 1_555
Fe10 O15 2.053251 1_555
Fe10 O11 2.055768 1_555
Fe10 O5 2.074567 1_555
Fe10 O13 2.086791 1_555
Fe10 O4 2.145928 1_555
Fe10 O12 2.163841 1_555
Fe11 O11 1.931441 1_555
Fe11 O10 1.935265 1_555
Fe11 O19 1.959782 1_555
Fe11 O31 1.959906 1_455
Fe12 O13 2.056704 1_555
Fe12 O0 2.063281 1_655
Fe12 O9 2.105046 1_555
Fe12 O12 2.107272 1_555
Fe12 O1 2.109299 1_655
Fe12 O2 2.109430 1_655
Fe13 O23 2.090141 1_555
Fe13 O11 2.095204 1_555
Fe13 O8 2.095534 1_555
Fe13 O15 2.095629 1_555
Fe13 O27 2.103392 1_555
Fe13 O16 2.105710 1_555
Fe14 O7 2.059366 1_555
Fe14 O14 2.064555 1_555
Fe14 O10 2.084795 1_555
Fe14 O20 2.090052 1_555
Fe14 O26 2.140630 1_555
Fe14 O18 2.165953 1_555
Fe15 O17 2.059576 1_555
Fe15 O20 2.060556 1_555
Fe15 O30 2.079686 1_555
Fe15 O22 2.104157 1_555
Fe15 O18 2.123358 1_555
Fe15 O28 2.125172 1_555
Fe16 O43 1.949064 1_455
Fe16 O22 1.955651 1_555
Fe16 O34 1.956571 1_555
Fe16 O24 1.961847 1_555
Fe17 O29 2.054939 1_555
Fe17 O16 2.057170 1_555
Fe17 O23 2.069989 1_555
Fe17 O25 2.076862 1_555
Fe17 O31 2.142436 1_555
Fe17 O19 2.149161 1_555
Fe18 O17 2.056585 1_555
Fe18 O44 2.068611 1_545
Fe18 O21 2.073284 1_555
Fe18 O30 2.105978 1_555
Fe18 O47 2.130811 1_545
Fe18 O46 2.144490 1_545
Fe19 O23 1.936273 1_555
Fe19 O13 1.945562 1_555
Fe19 O4 1.967071 1_655
Fe19 O26 1.969614 1_555
Fe20 O30 1.953726 1_555
Fe20 O33 1.957381 1_555
Fe20 O22 1.962840 1_555
Fe20 O37 1.962966 1_555
Fe20 O21 1.963384 1_555
Fe20 O36 1.963880 1_555
Fe21 O11 2.088240 1_555
Fe21 O29 2.092597 1_455
Fe21 O23 2.093916 1_455
Fe21 O5 2.095362 1_555
Fe21 O27 2.096654 1_455
Fe21 O8 2.101223 1_555
Fe22 O32 2.049484 1_555
Fe22 O40 2.058252 1_555
Fe22 O25 2.077124 1_555
Fe22 O35 2.086100 1_555
Fe22 O31 2.142932 1_555
Fe22 O24 2.146084 1_555
Fe23 O41 2.054835 1_555
Fe23 O35 2.058963 1_555
Fe23 O32 2.077691 1_555
Fe23 O43 2.087069 1_555
Fe23 O34 2.135215 1_555
Fe23 O39 2.156507 1_555
Fe24 O35 1.936046 1_555
Fe24 O28 1.950202 1_555
Fe24 O37 1.951279 1_555
Fe24 O18 1.963143 1_655
Fe25 O42 2.055218 1_555
Fe25 O43 2.072269 1_555
Fe25 O37 2.077815 1_555
Fe25 O33 2.103251 1_555
Fe25 O34 2.131956 1_555
Fe25 O38 2.143063 1_555
Fe26 O16 1.929034 1_655
Fe26 O29 1.931494 1_555
Fe26 O40 1.932961 1_555
Fe26 O9 1.960781 1_565
Fe27 O42 2.083385 1_555
Fe27 O17 2.088751 1_655
Fe27 O22 2.110445 1_655
Fe27 O36 2.118003 1_555
Fe27 O37 2.119121 1_555
Fe27 O21 2.120993 1_655
Fe28 O40 2.055981 1_555
Fe28 O41 2.060305 1_555
Fe28 O25 2.080933 1_655
Fe28 O35 2.092146 1_555
Fe28 O19 2.142032 1_655
Fe28 O24 2.147247 1_655
Fe29 O43 2.080613 1_555
Fe29 O44 2.081476 1_555
Fe29 O39 2.105844 1_555
Fe29 O45 2.110223 1_555
Fe29 O46 2.118300 1_555
Fe29 O38 2.119265 1_555
Fe30 O42 1.933479 1_555
Fe30 O33 1.955079 1_655
Fe30 O12 1.962491 1_556
Fe30 O45 1.963352 1_555
Fe31 O41 1.932831 1_555
Fe31 O32 1.936177 1_655
Fe31 O20 1.939402 1_565
Fe31 O46 1.962952 1_555
Fe32 O27 1.934240 1_556
Fe32 O44 1.949689 1_655
Fe32 O36 1.955702 1_565
Fe32 O47 1.957141 1_555
O1 Ti0 1.994536 1_555
O2 Ti0 2.006983 1_555
O3 Ti0 1.999276 1_555
O4 Ti0 1.992497 1_555
O9 Ti0 1.987527 1_555
O12 Ti0 2.003017 1_555
O18 Ti1 2.004688 1_555
O19 Ti1 1.985063 1_555
O24 Ti1 1.996223 1_555
O26 Ti1 1.993631 1_555
O28 Ti1 1.995547 1_555
O31 Ti1 1.990193 1_555
O34 Ti2 1.991093 1_555
O38 Ti2 2.002093 1_555
O39 Ti2 1.992714 1_555
O45 Ti2 2.000368 1_655
O46 Ti2 1.997479 1_655
O47 Ti2 1.985765 1_655
