# generated using pymatgen
data_FeCl3
_symmetry_space_group_name_H-M   'P 1'
_cell_length_a   6.10045980
_cell_length_b   6.10031579
_cell_length_c   17.93827293
_cell_angle_alpha   90.00905080
_cell_angle_beta   89.98595694
_cell_angle_gamma   119.99776616
_symmetry_Int_Tables_number   1
_chemical_formula_structural   FeCl3
_chemical_formula_sum   'Fe6 Cl18'
_cell_volume   578.14384768
_cell_formula_units_Z   6
loop_
 _symmetry_equiv_pos_site_id
 _symmetry_equiv_pos_as_xyz
  1  'x, y, z'
loop_
 _atom_site_type_symbol
 _atom_site_label
 _atom_site_symmetry_multiplicity
 _atom_site_fract_x
 _atom_site_fract_y
 _atom_site_fract_z
 _atom_site_occupancy
  Fe  Fe0  1  0.33328687  0.66672273  0.66669499  1
  Fe  Fe1  1  0.66660692  0.33334004  0.33314229  1
  Fe  Fe2  1  0.33326534  0.66669023  0.33323367  1
  Fe  Fe3  1  0.00014508  0.99994128  0.00004598  1
  Fe  Fe4  1  0.66662268  0.33338972  0.66680328  1
  Fe  Fe5  1  0.33348824  0.66658626  0.00004865  1
  Cl  Cl0  1  0.02651084  0.33312317  0.92392041  1
  Cl  Cl1  1  -0.00024605  0.35994487  0.25703382  1
  Cl  Cl2  1  0.36004444  0.00025799  0.25704494  1
  Cl  Cl3  1  0.64002363  0.00022748  0.74290103  1
  Cl  Cl4  1  0.02666254  0.69325038  0.07622174  1
  Cl  Cl5  1  0.99969147  0.64002567  0.74289504  1
  Cl  Cl6  1  0.30677654  0.33314025  0.07620072  1
  Cl  Cl7  1  0.30714474  0.97363989  0.92394994  1
  Cl  Cl8  1  0.35990097  0.35988184  0.74288654  1
  Cl  Cl9  1  0.35817573  0.35846945  0.40903713  1
  Cl  Cl10  1  0.64007662  0.63990996  0.25704038  1
  Cl  Cl11  1  0.66691075  0.97338700  0.07623162  1
  Cl  Cl12  1  0.64143866  -0.00008391  0.40904816  1
  Cl  Cl13  1  0.00004355  0.35854904  0.59087573  1
  Cl  Cl14  1  0.99995933  0.64176950  0.40902505  1
  Cl  Cl15  1  0.35837899  -0.00003166  0.59089018  1
  Cl  Cl16  1  0.66698935  0.69295807  0.92395497  1
  Cl  Cl17  1  0.64143977  0.64157375  0.59087175  1
loop_
_geom_bond_atom_site_label_1
_geom_bond_atom_site_label_2
_geom_bond_distance
_geom_bond_site_symmetry_2
Cl0 Fe3 2.386550 1_546
Cl0 Fe5 2.387702 1_556
Cl1 Fe1 2.385287 1_455
Cl1 Fe2 2.388110 1_555
Cl2 Fe1 2.385409 1_555
Cl2 Fe2 2.388221 1_545
Cl3 Fe4 2.385656 1_555
Cl3 Fe0 2.388092 1_545
Cl4 Fe3 2.386890 1_555
Cl4 Fe5 2.387512 1_555
Cl5 Fe4 2.385519 1_555
Cl5 Fe0 2.388263 1_655
Cl6 Fe3 2.386477 1_545
Cl6 Fe5 2.387384 1_555
Cl7 Fe3 2.386573 1_556
Cl7 Fe5 2.387422 1_556
Cl8 Fe4 2.385589 1_555
Cl8 Fe0 2.388072 1_555
Cl9 Fe2 2.386219 1_555
Cl9 Fe1 2.388385 1_555
Cl10 Fe1 2.385564 1_555
Cl10 Fe2 2.387974 1_555
Cl11 Fe3 2.386625 1_655
Cl11 Fe5 2.387808 1_555
Cl12 Fe2 2.386453 1_545
Cl12 Fe1 2.388138 1_555
Cl13 Fe0 2.386593 1_555
Cl13 Fe4 2.387973 1_455
Cl14 Fe2 2.386533 1_655
Cl14 Fe1 2.388111 1_555
Cl15 Fe0 2.386381 1_545
Cl15 Fe4 2.388163 1_555
Cl16 Fe3 2.386514 1_656
Cl16 Fe5 2.387412 1_556
Cl17 Fe0 2.386316 1_555
Cl17 Fe4 2.388107 1_555
