# generated using pymatgen
data_Sr2ZnReO6
_symmetry_space_group_name_H-M   'P 1'
_cell_length_a   5.66416200
_cell_length_b   5.67199700
_cell_length_c   9.81747822
_cell_angle_alpha   54.68221842
_cell_angle_beta   90.00000000
_cell_angle_gamma   90.00000000
_symmetry_Int_Tables_number   1
_chemical_formula_structural   Sr2ZnReO6
_chemical_formula_sum   'Sr4 Zn2 Re2 O12'
_cell_volume   257.35909695
_cell_formula_units_Z   2
loop_
 _symmetry_equiv_pos_site_id
 _symmetry_equiv_pos_as_xyz
  1  'x, y, z'
loop_
 _atom_site_type_symbol
 _atom_site_label
 _atom_site_symmetry_multiplicity
 _atom_site_fract_x
 _atom_site_fract_y
 _atom_site_fract_z
 _atom_site_occupancy
  Sr  Sr0  1  0.51743100  0.25430500  0.24919400  1
  Sr  Sr1  1  0.01743100  0.74569500  0.25080600  1
  Sr  Sr2  1  0.48256900  0.74569500  0.75080600  1
  Sr  Sr3  1  0.98256900  0.25430500  0.74919400  1
  Zn  Zn0  1  0.50000000  0.00000000  0.00000000  1
  Zn  Zn1  1  0.00000000  0.00000000  0.50000000  1
  Re  Re0  1  0.50000000  0.50000000  0.50000000  1
  Re  Re1  1  0.00000000  0.50000000  0.00000000  1
  O  O0  1  0.23564300  0.68913600  0.52549600  1
  O  O1  1  0.76435700  0.31086400  0.47450400  1
  O  O2  1  0.73564300  0.31086400  0.97450400  1
  O  O3  1  0.21605900  0.26535200  0.97086100  1
  O  O4  1  0.99805100  0.20633400  0.23997100  1
  O  O5  1  0.50194900  0.20633400  0.73997100  1
  O  O6  1  0.28394100  0.26535200  0.47086100  1
  O  O7  1  0.26435700  0.68913600  0.02549600  1
  O  O8  1  0.00194900  0.79366600  0.76002900  1
  O  O9  1  0.71605900  0.73464800  0.52913900  1
  O  O10  1  0.78394100  0.73464800  0.02913900  1
  O  O11  1  0.49805100  0.79366600  0.26002900  1
loop_
_geom_bond_atom_site_label_1
_geom_bond_atom_site_label_2
_geom_bond_distance
_geom_bond_site_symmetry_2
O0 Re0 1.940636 1_555
O0 Zn1 2.107791 1_565
O0 Sr3 2.588073 1_455
O0 Sr2 2.787899 1_555
O0 Sr1 2.811198 1_555
O0 Sr0 3.182412 1_565
O1 Re0 1.940636 1_555
O1 Zn1 2.107791 1_655
O1 Sr1 2.588073 1_655
O1 Sr0 2.787899 1_555
O1 Sr3 2.811198 1_555
O1 Sr2 3.182412 1_545
O2 Re1 1.940636 1_656
O2 Zn0 2.107791 1_556
O2 Sr2 2.588073 1_555
O2 Sr3 2.787899 1_555
O2 Sr0 2.811198 1_556
O2 Sr1 3.182412 1_646
O3 Re1 1.947070 1_556
O3 Zn0 2.106148 1_556
O3 Sr3 2.578091 1_455
O3 Sr2 2.750173 1_555
O3 Sr1 2.853184 1_546
O3 Sr0 3.191644 1_556
O4 Re1 1.946197 1_655
O4 Zn1 2.105313 1_655
O4 Sr1 2.555083 1_645
O4 Sr0 2.742569 1_555
O4 Sr0 2.960610 1_655
O4 Sr1 3.123885 1_655
O5 Re0 1.946197 1_555
O5 Zn0 2.105313 1_556
O5 Sr2 2.555083 1_545
O5 Sr3 2.742569 1_555
O5 Sr3 2.960610 1_455
O5 Sr2 3.123885 1_555
O6 Re0 1.947070 1_555
O6 Zn1 2.106148 1_555
O6 Sr0 2.578091 1_555
O6 Sr1 2.750173 1_555
O6 Sr2 2.853184 1_545
O6 Sr3 3.191644 1_455
O7 Re1 1.940636 1_555
O7 Zn0 2.107791 1_565
O7 Sr0 2.588073 1_555
O7 Sr1 2.787899 1_555
O7 Sr2 2.811198 1_554
O7 Sr3 3.182412 1_464
O8 Re1 1.946197 1_556
O8 Zn1 2.105313 1_565
O8 Sr3 2.555083 1_465
O8 Sr2 2.742569 1_555
O8 Sr2 2.960610 1_455
O8 Sr3 3.123885 1_455
O9 Re0 1.947070 1_555
O9 Zn1 2.106148 1_665
O9 Sr2 2.578091 1_555
O9 Sr3 2.750173 1_555
O9 Sr0 2.853184 1_565
O9 Sr1 3.191644 1_655
O10 Re1 1.947070 1_655
O10 Zn0 2.106148 1_565
O10 Sr1 2.578091 1_655
O10 Sr0 2.750173 1_555
O10 Sr3 2.853184 1_564
O10 Sr2 3.191644 1_554
O11 Re0 1.946197 1_555
O11 Zn0 2.105313 1_565
O11 Sr0 2.555083 1_565
O11 Sr1 2.742569 1_555
O11 Sr1 2.960610 1_655
O11 Sr0 3.123885 1_555
