# generated using pymatgen
data_Yb2Sn
_symmetry_space_group_name_H-M   'P 1'
_cell_length_a   5.36677569
_cell_length_b   5.36677569
_cell_length_c   7.05477400
_cell_angle_alpha   90.00000000
_cell_angle_beta   90.00000000
_cell_angle_gamma   119.99999624
_symmetry_Int_Tables_number   1
_chemical_formula_structural   Yb2Sn
_chemical_formula_sum   'Yb4 Sn2'
_cell_volume   175.97081375
_cell_formula_units_Z   2
loop_
 _symmetry_equiv_pos_site_id
 _symmetry_equiv_pos_as_xyz
  1  'x, y, z'
loop_
 _atom_site_type_symbol
 _atom_site_label
 _atom_site_symmetry_multiplicity
 _atom_site_fract_x
 _atom_site_fract_y
 _atom_site_fract_z
 _atom_site_occupancy
  Yb  Yb0  1  0.00000000  0.00000000  0.00000000  1
  Yb  Yb1  1  0.66666700  0.33333300  0.75000000  1
  Yb  Yb2  1  0.33333300  0.66666700  0.25000000  1
  Yb  Yb3  1  0.00000000  0.00000000  0.50000000  1
  Sn  Sn0  1  0.33333300  0.66666700  0.75000000  1
  Sn  Sn1  1  0.66666700  0.33333300  0.25000000  1
loop_
_geom_bond_atom_site_label_1
_geom_bond_atom_site_label_2
_geom_bond_distance
_geom_bond_site_symmetry_2
Yb0 Yb3 3.527387 1_555
Yb0 Yb3 3.527387 1_554
Yb0 Yb2 3.565299 1_545
Yb0 Yb1 3.565299 1_454
Yb0 Yb2 3.565303 1_445
Yb0 Yb1 3.565303 1_444
Yb0 Yb1 3.565303 1_554
Yb0 Yb2 3.565303 1_555
Yb1 Yb3 3.565299 1_655
Yb1 Yb3 3.565303 1_555
Yb1 Yb3 3.565303 1_665
Yb2 Yb3 3.565299 1_565
Yb2 Yb3 3.565303 1_555
Yb2 Yb3 3.565303 1_665
Sn0 Yb1 3.098506 1_455
Sn0 Yb1 3.098506 1_565
Sn0 Yb1 3.098516 1_555
Sn0 Yb2 3.527387 1_556
Sn0 Yb2 3.527387 1_555
Sn0 Yb0 3.565299 1_566
Sn0 Yb3 3.565299 1_565
Sn0 Yb3 3.565303 1_555
Sn0 Yb0 3.565303 1_556
Sn0 Yb3 3.565303 1_665
Sn0 Yb0 3.565303 1_666
Sn1 Yb2 3.098506 1_545
Sn1 Yb2 3.098506 1_655
Sn1 Yb2 3.098516 1_555
Sn1 Yb1 3.527387 1_555
Sn1 Yb1 3.527387 1_554
Sn1 Yb0 3.565299 1_655
Sn1 Yb3 3.565299 1_655
Sn1 Yb3 3.565303 1_555
Sn1 Yb0 3.565303 1_555
Sn1 Yb3 3.565303 1_665
Sn1 Yb0 3.565303 1_665
