# generated using pymatgen
data_Ce16Ru9
_symmetry_space_group_name_H-M   'P 1'
_cell_length_a   10.83083739
_cell_length_b   10.83083779
_cell_length_c   10.83083766
_cell_angle_alpha   77.11614315
_cell_angle_beta   77.11614263
_cell_angle_gamma   77.11614310
_symmetry_Int_Tables_number   1
_chemical_formula_structural   Ce16Ru9
_chemical_formula_sum   'Ce32 Ru18'
_cell_volume   1187.12825477
_cell_formula_units_Z   2
loop_
 _symmetry_equiv_pos_site_id
 _symmetry_equiv_pos_as_xyz
  1  'x, y, z'
loop_
 _atom_site_type_symbol
 _atom_site_label
 _atom_site_symmetry_multiplicity
 _atom_site_fract_x
 _atom_site_fract_y
 _atom_site_fract_z
 _atom_site_occupancy
  Ce  Ce0  1  0.79454595  0.50000000  0.20545405  1
  Ce  Ce1  1  0.79667350  0.04975735  0.79667350  1
  Ce  Ce2  1  0.80395230  0.53156756  0.53156756  1
  Ce  Ce3  1  0.79667350  0.79667350  0.04975735  1
  Ce  Ce4  1  0.28067809  0.00000000  0.71932191  1
  Ce  Ce5  1  0.28067809  0.71932191  0.00000000  1
  Ce  Ce6  1  0.50000000  0.79454595  0.20545405  1
  Ce  Ce7  1  1.00000000  0.28067809  0.71932191  1
  Ce  Ce8  1  0.19604770  0.46843244  0.46843244  1
  Ce  Ce9  1  0.53156756  0.53156756  0.80395230  1
  Ce  Ce10  1  0.04975735  0.79667350  0.79667350  1
  Ce  Ce11  1  0.00000000  0.71932191  0.28067809  1
  Ce  Ce12  1  0.20545405  0.79454595  0.50000000  1
  Ce  Ce13  1  0.71932191  1.00000000  0.28067809  1
  Ce  Ce14  1  0.46843244  0.46843244  0.19604770  1
  Ce  Ce15  1  0.79454595  0.20545405  0.50000000  1
  Ce  Ce16  1  0.56785605  0.84250807  0.84250807  1
  Ce  Ce17  1  0.50000000  0.20545405  0.79454595  1
  Ce  Ce18  1  0.71932191  0.28067809  1.00000000  1
  Ce  Ce19  1  0.15749193  0.15749193  0.43214395  1
  Ce  Ce20  1  0.53156756  0.80395230  0.53156756  1
  Ce  Ce21  1  0.95024265  0.20332650  0.20332650  1
  Ce  Ce22  1  0.84250807  0.84250807  0.56785605  1
  Ce  Ce23  1  0.43214395  0.15749193  0.15749193  1
  Ce  Ce24  1  0.20545405  0.50000000  0.79454595  1
  Ce  Ce25  1  0.20332650  0.95024265  0.20332650  1
  Ce  Ce26  1  0.46843244  0.19604770  0.46843244  1
  Ce  Ce27  1  0.50000000  0.50000000  0.50000000  1
  Ce  Ce28  1  0.15749193  0.43214395  0.15749193  1
  Ce  Ce29  1  0.20332650  0.20332650  0.95024265  1
  Ce  Ce30  1  0.00000000  0.00000000  0.00000000  1
  Ce  Ce31  1  0.84250807  0.56785605  0.84250807  1
  Ru  Ru0  1  0.98768118  0.36360469  0.98768118  1
  Ru  Ru1  1  0.35085950  0.72830791  0.72830791  1
  Ru  Ru2  1  0.00419411  0.62390275  0.62390275  1
  Ru  Ru3  1  0.37609725  0.99580589  0.37609725  1
  Ru  Ru4  1  0.27169209  0.64914050  0.27169209  1
  Ru  Ru5  1  0.72830791  0.35085950  0.72830791  1
  Ru  Ru6  1  0.27169209  0.27169209  0.64914050  1
  Ru  Ru7  1  0.99580589  0.37609725  0.37609725  1
  Ru  Ru8  1  0.64914050  0.27169209  0.27169209  1
  Ru  Ru9  1  0.01231882  0.63639531  0.01231882  1
  Ru  Ru10  1  0.62390275  0.62390275  0.00419411  1
  Ru  Ru11  1  0.37609725  0.37609725  0.99580589  1
  Ru  Ru12  1  0.36360469  0.98768118  0.98768118  1
  Ru  Ru13  1  0.72830791  0.72830791  0.35085950  1
  Ru  Ru14  1  0.98768118  0.98768118  0.36360469  1
  Ru  Ru15  1  0.01231882  0.01231882  0.63639531  1
  Ru  Ru16  1  0.63639531  0.01231882  0.01231882  1
  Ru  Ru17  1  0.62390275  0.00419411  0.62390275  1
loop_
_geom_bond_atom_site_label_1
_geom_bond_atom_site_label_2
_geom_bond_distance
_geom_bond_site_symmetry_2
Ce0 Ru7 3.058495 1_555
Ce0 Ru10 3.058495 1_555
Ce0 Ru8 3.090491 1_555
Ce0 Ru13 3.090491 1_555
Ce0 Ru9 3.177554 1_655
Ce0 Ru0 3.177554 1_554
Ce0 Ce27 3.976926 1_555
Ce1 Ru15 2.591621 1_655
Ce1 Ru16 2.591621 1_556
Ce1 Ru17 3.103522 1_555
Ce1 Ru5 3.134114 1_555
Ce1 Ce30 3.330762 1_656
Ce2 Ru5 2.668185 1_555
Ce2 Ru13 2.668185 1_555
Ce2 Ru7 2.851735 1_555
Ce2 Ru2 3.014032 1_655
Ce2 Ce27 3.482451 1_555
Ce3 Ru9 2.591621 1_655
Ce3 Ru16 2.591621 1_565
Ce3 Ru10 3.103522 1_555
Ce3 Ru13 3.134114 1_555
Ce3 Ce30 3.330762 1_665
Ce4 Ru1 2.855564 1_545
Ce4 Ru6 2.855564 1_555
Ce4 Ru15 3.195367 1_555
Ce4 Ru12 3.195367 1_545
Ce5 Ru1 2.855564 1_554
Ce5 Ru4 2.855564 1_555
Ce5 Ru9 3.195367 1_555
Ce5 Ru12 3.195367 1_554
Ce6 Ru10 3.058495 1_555
Ce6 Ru3 3.058495 1_555
Ce6 Ru4 3.090491 1_555
Ce6 Ru13 3.090491 1_555
Ce6 Ru16 3.177554 1_565
Ce6 Ru12 3.177554 1_554
Ce7 Ru6 2.855564 1_655
Ce7 Ru5 2.855564 1_555
Ce7 Ru0 3.195367 1_555
Ce7 Ru15 3.195367 1_655
Ce8 Ru4 2.668185 1_555
Ce8 Ru6 2.668185 1_555
Ce8 Ru2 2.851735 1_555
Ce8 Ru7 3.014032 1_455
Ce9 Ru5 2.668185 1_555
Ce9 Ru1 2.668185 1_555
Ce9 Ru11 2.851735 1_555
Ce9 Ru10 3.014032 1_556
Ce10 Ru9 2.591621 1_556
Ce10 Ru15 2.591621 1_565
Ce10 Ru2 3.103522 1_555
Ce10 Ru1 3.134114 1_555
Ce10 Ce30 3.330762 1_566
Ce11 Ru13 2.855564 1_455
Ce11 Ru4 2.855564 1_555
Ce11 Ru9 3.195367 1_555
Ce11 Ru14 3.195367 1_455
Ce11 Ce30 3.789683 1_565
Ce12 Ru2 3.058495 1_555
Ce12 Ru3 3.058495 1_555
Ce12 Ru1 3.090491 1_555
Ce12 Ru4 3.090491 1_555
Ce12 Ru14 3.177554 1_455
Ce12 Ru15 3.177554 1_565
Ce12 Ce27 3.976926 1_555
Ce13 Ru8 2.855564 1_565
Ce13 Ru13 2.855564 1_555
Ce13 Ru14 3.195367 1_555
Ce13 Ru16 3.195367 1_565
Ce13 Ce30 3.789683 1_665
Ce14 Ru4 2.668185 1_555
Ce14 Ru8 2.668185 1_555
Ce14 Ru10 2.851735 1_555
Ce14 Ru11 3.014032 1_554
Ce14 Ce27 3.482451 1_555
Ce15 Ru7 3.058495 1_555
Ce15 Ru17 3.058495 1_555
Ce15 Ru8 3.090491 1_555
Ce15 Ru5 3.090491 1_555
Ce15 Ru15 3.177554 1_655
Ce15 Ru14 3.177554 1_545
Ce15 Ce27 3.976926 1_555
Ce16 Ru17 2.650501 1_565
Ce16 Ru10 2.650501 1_556
Ce16 Ru12 2.799747 1_555
Ce16 Ru16 3.168995 1_566
Ce16 Ru1 3.443611 1_555
Ce17 Ru11 3.058495 1_555
Ce17 Ru17 3.058495 1_555
Ce17 Ru5 3.090491 1_555
Ce17 Ru6 3.090491 1_555
Ce17 Ru12 3.177554 1_545
Ce17 Ru16 3.177554 1_556
Ce17 Ce27 3.976926 1_555
Ce18 Ru8 2.855564 1_556
Ce18 Ru5 2.855564 1_555
Ce18 Ru0 3.195367 1_555
Ce18 Ru16 3.195367 1_556
Ce18 Ce30 3.789683 1_656
Ce19 Ru3 2.650501 1_545
Ce19 Ru7 2.650501 1_455
Ce19 Ru15 2.799747 1_555
Ce19 Ru14 3.168995 1_445
Ce19 Ru6 3.443611 1_555
Ce20 Ru13 2.668185 1_555
Ce20 Ru1 2.668185 1_555
Ce20 Ru3 2.851735 1_555
Ce20 Ru17 3.014032 1_565
Ce20 Ce27 3.482451 1_555
Ce21 Ru0 2.591621 1_554
Ce21 Ru14 2.591621 1_545
Ce21 Ru7 3.103522 1_555
Ce21 Ru8 3.134114 1_555
Ce21 Ce30 3.330762 1_655
Ce22 Ru17 2.650501 1_565
Ce22 Ru2 2.650501 1_655
Ce22 Ru14 2.799747 1_555
Ce22 Ru15 3.168995 1_665
Ce22 Ru13 3.443611 1_555
Ce23 Ru3 2.650501 1_545
Ce23 Ru11 2.650501 1_554
Ce23 Ru16 2.799747 1_555
Ce23 Ru12 3.168995 1_544
Ce23 Ru8 3.443611 1_555
Ce24 Ru2 3.058495 1_555
Ce24 Ru11 3.058495 1_555
Ce24 Ru1 3.090491 1_555
Ce24 Ru6 3.090491 1_555
Ce24 Ru0 3.177554 1_455
Ce24 Ru9 3.177554 1_556
Ce24 Ce27 3.976926 1_555
Ce25 Ru14 2.591621 1_455
Ce25 Ru12 2.591621 1_554
Ce25 Ru3 3.103522 1_555
Ce25 Ru4 3.134114 1_555
Ce25 Ce30 3.330762 1_565
Ce26 Ru6 2.668185 1_555
Ce26 Ru8 2.668185 1_555
Ce26 Ru17 2.851735 1_555
Ce26 Ru3 3.014032 1_545
Ce26 Ce27 3.482451 1_555
Ce27 Ce8 3.482451 1_555
Ce27 Ce9 3.482451 1_555
Ce27 Ru13 3.742014 1_555
Ce27 Ru6 3.742014 1_555
Ce27 Ru5 3.742014 1_555
Ce27 Ru4 3.742014 1_555
Ce27 Ru1 3.742014 1_555
Ce27 Ru8 3.742014 1_555
Ce27 Ce6 3.976926 1_555
Ce28 Ru11 2.650501 1_554
Ce28 Ru7 2.650501 1_455
Ce28 Ru9 2.799747 1_555
Ce28 Ru0 3.168995 1_454
Ce28 Ru4 3.443611 1_555
Ce29 Ru0 2.591621 1_455
Ce29 Ru12 2.591621 1_545
Ce29 Ru11 3.103522 1_555
Ce29 Ru6 3.134114 1_555
Ce29 Ce30 3.330762 1_556
Ce30 Ce4 3.789683 1_554
Ce30 Ce5 3.789683 1_545
Ce30 Ce7 3.789683 1_454
Ce30 Ru16 3.883796 1_455
Ce30 Ru12 3.883796 1_544
Ce30 Ru15 3.883796 1_554
Ce30 Ru14 3.883796 1_445
Ce30 Ru9 3.883797 1_545
Ce30 Ru0 3.883797 1_454
Ce31 Ru10 2.650501 1_556
Ce31 Ru2 2.650501 1_655
Ce31 Ru0 2.799747 1_555
Ce31 Ru9 3.168995 1_656
Ce31 Ru5 3.443611 1_555
