# generated using pymatgen
data_Bi
_symmetry_space_group_name_H-M   'P 1'
_cell_length_a   12.37720798
_cell_length_b   12.37720798
_cell_length_c   12.37720798
_cell_angle_alpha   93.06308271
_cell_angle_beta   93.06308271
_cell_angle_gamma   153.26912924
_symmetry_Int_Tables_number   1
_chemical_formula_structural   Bi
_chemical_formula_sum   Bi8
_cell_volume   829.77990119
_cell_formula_units_Z   8
loop_
 _symmetry_equiv_pos_site_id
 _symmetry_equiv_pos_as_xyz
  1  'x, y, z'
loop_
 _atom_site_type_symbol
 _atom_site_label
 _atom_site_symmetry_multiplicity
 _atom_site_fract_x
 _atom_site_fract_y
 _atom_site_fract_z
 _atom_site_occupancy
  Bi  Bi0_0  1  0.00000000  0.00000000  0.00000000  1
  Bi  Bi0_1  1  0.00000000  0.00000000  0.50000000  1
  Bi  Bi0_2  1  0.00000000  0.50000000  0.00000000  1
  Bi  Bi0_3  1  0.00000000  0.50000000  0.50000000  1
  Bi  Bi0_4  1  0.50000000  0.00000000  0.00000000  1
  Bi  Bi0_5  1  0.50000000  0.00000000  0.50000000  1
  Bi  Bi0_6  1  0.50000000  0.50000000  0.00000000  1
  Bi  Bi0_7  1  0.50000000  0.50000000  0.50000000  1
loop_
_geom_bond_atom_site_label_1
_geom_bond_atom_site_label_2
_geom_bond_distance
_geom_bond_site_symmetry_2
Bi0_0 Bi0_6 2.861128 1_555
Bi0_0 Bi0_6 2.861128 1_445
Bi0_1 Bi0_7 2.861128 1_445
Bi0_1 Bi0_7 2.861128 1_555
Bi0_2 Bi0_4 2.861128 1_455
Bi0_2 Bi0_4 2.861128 1_565
Bi0_3 Bi0_5 2.861128 1_565
Bi0_3 Bi0_5 2.861128 1_455
