# generated using pymatgen
data_CdHgAsBr
_symmetry_space_group_name_H-M   'P 1'
_cell_length_a   4.80486300
_cell_length_b   10.21266200
_cell_length_c   11.06423700
_cell_angle_alpha   90.00000000
_cell_angle_beta   90.00000000
_cell_angle_gamma   90.00000000
_symmetry_Int_Tables_number   1
_chemical_formula_structural   CdHgAsBr
_chemical_formula_sum   'Cd4 Hg4 As4 Br4'
_cell_volume   542.92699750
_cell_formula_units_Z   4
loop_
 _symmetry_equiv_pos_site_id
 _symmetry_equiv_pos_as_xyz
  1  'x, y, z'
loop_
 _atom_site_type_symbol
 _atom_site_label
 _atom_site_symmetry_multiplicity
 _atom_site_fract_x
 _atom_site_fract_y
 _atom_site_fract_z
 _atom_site_occupancy
  Cd  Cd0  1  0.00000000  0.28055900  0.07732900  1
  Cd  Cd1  1  0.00000000  0.28055900  0.42267100  1
  Cd  Cd2  1  0.00000000  0.71944100  0.92267100  1
  Cd  Cd3  1  0.00000000  0.71944100  0.57732900  1
  Hg  Hg0  1  0.50000000  0.25961100  0.75000000  1
  Hg  Hg1  1  0.50000000  0.74038900  0.25000000  1
  Hg  Hg2  1  0.50000000  0.00000000  0.50000000  1
  Hg  Hg3  1  0.50000000  0.00000000  0.00000000  1
  As  As0  1  0.50000000  0.24973300  0.98003800  1
  As  As1  1  0.50000000  0.75026700  0.01996200  1
  As  As2  1  0.50000000  0.24973300  0.51996200  1
  As  As3  1  0.50000000  0.75026700  0.48003800  1
  Br  Br0  1  0.00000000  0.52517200  0.75000000  1
  Br  Br1  1  0.00000000  0.47482800  0.25000000  1
  Br  Br2  1  0.00000000  0.07516300  0.25000000  1
  Br  Br3  1  0.00000000  0.92483700  0.75000000  1
loop_
_geom_bond_atom_site_label_1
_geom_bond_atom_site_label_2
_geom_bond_distance
_geom_bond_site_symmetry_2
As0 Hg0 2.547193 1_555
As0 Hg3 2.559984 1_556
As0 Cd0 2.651326 1_656
As0 Cd0 2.651326 1_556
As1 Hg1 2.547193 1_555
As1 Hg3 2.559984 1_565
As1 Cd2 2.651326 1_654
As1 Cd2 2.651326 1_554
As2 Hg0 2.547193 1_555
As2 Hg2 2.559984 1_555
As2 Cd1 2.651326 1_555
As2 Cd1 2.651326 1_655
As3 Hg1 2.547193 1_555
As3 Hg2 2.559984 1_565
As3 Cd3 2.651326 1_655
As3 Cd3 2.651326 1_555
Br0 Cd2 2.754302 1_555
Br0 Cd3 2.754302 1_555
Br1 Cd0 2.754302 1_555
Br1 Cd1 2.754302 1_555
Br2 Cd0 2.837252 1_555
Br2 Cd1 2.837252 1_555
Br3 Cd2 2.837252 1_555
Br3 Cd3 2.837252 1_555
