# generated using pymatgen
data_Sm3CuSnS7
_symmetry_space_group_name_H-M   'P 1'
_cell_length_a   10.01613221
_cell_length_b   10.01613221
_cell_length_c   6.16163400
_cell_angle_alpha   90.00000000
_cell_angle_beta   90.00000000
_cell_angle_gamma   120.00000137
_symmetry_Int_Tables_number   1
_chemical_formula_structural   Sm3CuSnS7
_chemical_formula_sum   'Sm6 Cu2 Sn2 S14'
_cell_volume   535.33621029
_cell_formula_units_Z   2
loop_
 _symmetry_equiv_pos_site_id
 _symmetry_equiv_pos_as_xyz
  1  'x, y, z'
loop_
 _atom_site_type_symbol
 _atom_site_label
 _atom_site_symmetry_multiplicity
 _atom_site_fract_x
 _atom_site_fract_y
 _atom_site_fract_z
 _atom_site_occupancy
  Sm  Sm0  1  0.14162300  0.78362700  0.76452600  1
  Sm  Sm1  1  0.21637300  0.35799600  0.76452600  1
  Sm  Sm2  1  0.85837700  0.21637300  0.26452600  1
  Sm  Sm3  1  0.35799600  0.14162300  0.26452600  1
  Sm  Sm4  1  0.64200400  0.85837700  0.76452600  1
  Sm  Sm5  1  0.78362700  0.64200400  0.26452600  1
  Cu  Cu0  1  0.00000000  0.00000000  0.19357100  1
  Cu  Cu1  1  0.00000000  0.00000000  0.69357100  1
  Sn  Sn0  1  0.66666700  0.33333300  0.83409400  1
  Sn  Sn1  1  0.33333300  0.66666700  0.33409400  1
  S  S0  1  0.91444700  0.48336300  0.01022000  1
  S  S1  1  0.10546500  0.84808000  0.20916000  1
  S  S2  1  0.43108400  0.91444700  0.51022000  1
  S  S3  1  0.84808000  0.74261500  0.70916000  1
  S  S4  1  0.15192000  0.25738500  0.20916000  1
  S  S5  1  0.56891600  0.08555300  0.01022000  1
  S  S6  1  0.51663700  0.43108400  0.01022000  1
  S  S7  1  0.48336300  0.56891600  0.51022000  1
  S  S8  1  0.66666700  0.33333300  0.44691600  1
  S  S9  1  0.89453500  0.15192000  0.70916000  1
  S  S10  1  0.33333300  0.66666700  0.94691600  1
  S  S11  1  0.74261500  0.89453500  0.20916000  1
  S  S12  1  0.25738500  0.10546500  0.70916000  1
  S  S13  1  0.08555300  0.51663700  0.51022000  1
loop_
_geom_bond_atom_site_label_1
_geom_bond_atom_site_label_2
_geom_bond_distance
_geom_bond_site_symmetry_2
Cu0 S4 2.246758 1_555
Cu0 S11 2.246758 1_445
Cu0 S1 2.246758 1_545
Cu0 Sm5 3.158228 1_445
Cu0 Sm3 3.158228 1_555
Cu0 Sm2 3.158228 1_455
Cu1 S3 2.246758 1_445
Cu1 S12 2.246758 1_555
Cu1 S9 2.246758 1_455
Cu1 Sm1 3.158228 1_555
Cu1 Sm4 3.158228 1_445
Cu1 Sm0 3.158228 1_545
S0 Sn0 2.421931 1_554
S0 Sm2 2.901765 1_555
S0 Sm5 2.962952 1_555
S0 Sm0 3.109829 1_654
S1 Sm3 2.778836 1_565
S1 Sm5 2.848599 1_455
S1 Sm0 2.878806 1_554
S1 Sm0 3.534338 1_555
S2 Sn1 2.421930 1_555
S2 Sm4 2.901765 1_555
S2 Sm0 2.962952 1_555
S2 Sm3 3.109829 1_565
S3 Sm0 2.778836 1_655
S3 Sm4 2.848599 1_555
S3 Sm5 2.878806 1_555
S3 Sm5 3.534338 1_556
S4 Sm2 2.778836 1_455
S4 Sm3 2.848599 1_555
S4 Sm1 2.878806 1_554
S4 Sm1 3.534338 1_555
S5 Sn0 2.421930 1_554
S5 Sm3 2.901765 1_555
S5 Sm2 2.962952 1_555
S5 Sm4 3.109829 1_544
S6 Sn0 2.421938 1_554
S6 Sm5 2.901765 1_555
S6 Sm3 2.962952 1_555
S6 Sm1 3.109829 1_554
S7 Sn1 2.421938 1_555
S7 Sm1 2.901765 1_555
S7 Sm4 2.962952 1_555
S7 Sm5 3.109829 1_555
S8 Sn0 2.385649 1_555
S8 Sm2 2.927793 1_555
S8 Sm3 2.927801 1_555
S8 Sm5 2.927802 1_555
S9 Sm4 2.778836 1_545
S9 Sm1 2.848599 1_655
S9 Sm2 2.878806 1_555
S9 Sm2 3.534338 1_556
S10 Sn1 2.385649 1_556
S10 Sm0 2.927793 1_555
S10 Sm4 2.927801 1_555
S10 Sm1 2.927802 1_555
S11 Sm5 2.778836 1_555
S11 Sm2 2.848599 1_565
S11 Sm4 2.878806 1_554
S11 Sm4 3.534338 1_555
S12 Sm1 2.778836 1_555
S12 Sm0 2.848599 1_545
S12 Sm3 2.878806 1_555
S12 Sm3 3.534338 1_556
S13 Sn1 2.421931 1_555
S13 Sm0 2.901765 1_555
S13 Sm1 2.962952 1_555
S13 Sm2 3.109829 1_455
