# generated using pymatgen
data_NaYbGeO4
_symmetry_space_group_name_H-M   'P 1'
_cell_length_a   5.42041700
_cell_length_b   6.54027200
_cell_length_c   11.58707300
_cell_angle_alpha   90.00000000
_cell_angle_beta   90.00000000
_cell_angle_gamma   90.00000000
_symmetry_Int_Tables_number   1
_chemical_formula_structural   NaYbGeO4
_chemical_formula_sum   'Na4 Yb4 Ge4 O16'
_cell_volume   410.77334269
_cell_formula_units_Z   4
loop_
 _symmetry_equiv_pos_site_id
 _symmetry_equiv_pos_as_xyz
  1  'x, y, z'
loop_
 _atom_site_type_symbol
 _atom_site_label
 _atom_site_symmetry_multiplicity
 _atom_site_fract_x
 _atom_site_fract_y
 _atom_site_fract_z
 _atom_site_occupancy
  Na  Na0  1  0.00000000  0.50000000  0.50000000  1
  Na  Na1  1  0.00000000  0.00000000  0.50000000  1
  Na  Na2  1  0.50000000  0.50000000  0.00000000  1
  Na  Na3  1  0.50000000  0.00000000  0.00000000  1
  Yb  Yb0  1  0.49545600  0.25000000  0.27418300  1
  Yb  Yb1  1  0.00454400  0.25000000  0.77418300  1
  Yb  Yb2  1  0.50454400  0.75000000  0.72581700  1
  Yb  Yb3  1  0.99545600  0.75000000  0.22581700  1
  Ge  Ge0  1  0.05164600  0.25000000  0.10044300  1
  Ge  Ge1  1  0.44835400  0.25000000  0.60044300  1
  Ge  Ge2  1  0.94835400  0.75000000  0.89955700  1
  Ge  Ge3  1  0.55164600  0.75000000  0.39955700  1
  O  O0  1  0.22962600  0.75000000  0.39238800  1
  O  O1  1  0.79547700  0.95949600  0.83067800  1
  O  O2  1  0.29547700  0.45949600  0.66932200  1
  O  O3  1  0.67792200  0.75000000  0.54213100  1
  O  O4  1  0.29547700  0.04050400  0.66932200  1
  O  O5  1  0.79547700  0.54050400  0.83067800  1
  O  O6  1  0.32207800  0.25000000  0.45786900  1
  O  O7  1  0.27037400  0.75000000  0.89238800  1
  O  O8  1  0.17792200  0.25000000  0.95786900  1
  O  O9  1  0.70452300  0.54050400  0.33067800  1
  O  O10  1  0.70452300  0.95949600  0.33067800  1
  O  O11  1  0.20452300  0.04050400  0.16932200  1
  O  O12  1  0.82207800  0.75000000  0.04213100  1
  O  O13  1  0.20452300  0.45949600  0.16932200  1
  O  O14  1  0.77037400  0.25000000  0.60761200  1
  O  O15  1  0.72962600  0.25000000  0.10761200  1
loop_
_geom_bond_atom_site_label_1
_geom_bond_atom_site_label_2
_geom_bond_distance
_geom_bond_site_symmetry_2
Na0 O0 2.403628 1_555
Na0 O14 2.403628 1_455
Na0 O6 2.441223 1_555
Na0 O3 2.441223 1_455
Na0 O2 2.546480 1_555
Na0 O9 2.546480 1_455
Na1 O0 2.403628 1_545
Na1 O14 2.403628 1_455
Na1 O3 2.441223 1_445
Na1 O6 2.441223 1_555
Na1 O4 2.546480 1_555
Na1 O10 2.546480 1_445
Na2 O7 2.403628 1_554
Na2 O15 2.403628 1_555
Na2 O8 2.441223 1_554
Na2 O12 2.441223 1_555
Na2 O13 2.546480 1_555
Na2 O5 2.546480 1_554
Na3 O7 2.403628 1_544
Na3 O15 2.403628 1_555
Na3 O12 2.441223 1_545
Na3 O8 2.441223 1_554
Na3 O11 2.546480 1_555
Na3 O1 2.546480 1_544
Ge0 O15 1.747458 1_455
Ge0 O8 1.788198 1_554
Ge0 O13 1.789130 1_555
Ge0 O11 1.789130 1_555
Ge1 O14 1.747458 1_555
Ge1 O6 1.788198 1_555
Ge1 O2 1.789130 1_555
Ge1 O4 1.789130 1_555
Ge2 O7 1.747458 1_655
Ge2 O12 1.788198 1_556
Ge2 O5 1.789130 1_555
Ge2 O1 1.789130 1_555
Ge3 O0 1.747458 1_555
Ge3 O3 1.788198 1_555
Ge3 O10 1.789130 1_555
Ge3 O9 1.789130 1_555
O0 Yb3 2.310041 1_455
O1 Yb1 2.307083 1_665
O1 Yb2 2.416713 1_555
O2 Yb2 2.307083 1_555
O2 Yb1 2.416713 1_555
O3 Yb2 2.326629 1_555
O4 Yb2 2.307083 1_545
O4 Yb1 2.416713 1_555
O5 Yb1 2.307083 1_655
O5 Yb2 2.416713 1_555
O6 Yb0 2.326629 1_555
O7 Yb2 2.310041 1_555
O8 Yb1 2.326629 1_555
O9 Yb0 2.307083 1_555
O9 Yb3 2.416713 1_555
O10 Yb0 2.307083 1_565
O10 Yb3 2.416713 1_555
O11 Yb3 2.307083 1_445
O11 Yb0 2.416713 1_555
O12 Yb3 2.326629 1_555
O13 Yb3 2.307083 1_455
O13 Yb0 2.416713 1_555
O14 Yb1 2.310041 1_655
O15 Yb0 2.310041 1_555
