# generated using pymatgen
data_RbZn4(BO3)3
_symmetry_space_group_name_H-M   'P 1'
_cell_length_a   5.06228900
_cell_length_b   6.97993500
_cell_length_c   12.91963327
_cell_angle_alpha   86.91722063
_cell_angle_beta   90.00000000
_cell_angle_gamma   90.00000000
_symmetry_Int_Tables_number   1
_chemical_formula_structural   RbZn4(BO3)3
_chemical_formula_sum   'Rb2 Zn8 B6 O18'
_cell_volume   455.84748979
_cell_formula_units_Z   2
loop_
 _symmetry_equiv_pos_site_id
 _symmetry_equiv_pos_as_xyz
  1  'x, y, z'
loop_
 _atom_site_type_symbol
 _atom_site_label
 _atom_site_symmetry_multiplicity
 _atom_site_fract_x
 _atom_site_fract_y
 _atom_site_fract_z
 _atom_site_occupancy
  Rb  Rb0  1  0.27633100  0.00000000  0.75000000  1
  Rb  Rb1  1  0.72366900  0.00000000  0.25000000  1
  Zn  Zn0  1  0.35006900  0.48845600  0.87537000  1
  Zn  Zn1  1  0.35006900  0.51154400  0.62463000  1
  Zn  Zn2  1  0.64993100  0.51154400  0.12463000  1
  Zn  Zn3  1  0.64993100  0.48845600  0.37537000  1
  Zn  Zn4  1  0.83287500  0.20850400  0.93919800  1
  Zn  Zn5  1  0.83287500  0.79149600  0.56080200  1
  Zn  Zn6  1  0.16712500  0.79149600  0.06080200  1
  Zn  Zn7  1  0.16712500  0.20850400  0.43919800  1
  B  B0  1  0.84510600  0.50000000  0.75000000  1
  B  B1  1  0.15489400  0.50000000  0.25000000  1
  B  B2  1  0.65482300  0.19006800  0.54600300  1
  B  B3  1  0.65482300  0.80993200  0.95399700  1
  B  B4  1  0.34517700  0.80993200  0.45399700  1
  B  B5  1  0.34517700  0.19006800  0.04600300  1
  O  O0  1  0.12057700  0.50000000  0.75000000  1
  O  O1  1  0.87942300  0.50000000  0.25000000  1
  O  O2  1  0.20253500  0.27501000  0.96279800  1
  O  O3  1  0.20253500  0.72499000  0.53720200  1
  O  O4  1  0.79746500  0.72499000  0.03720200  1
  O  O5  1  0.79746500  0.27501000  0.46279800  1
  O  O6  1  0.70782300  0.40633500  0.83036100  1
  O  O7  1  0.70782300  0.59366500  0.66963900  1
  O  O8  1  0.29217700  0.59366500  0.16963900  1
  O  O9  1  0.29217700  0.40633500  0.33036100  1
  O  O10  1  0.39740600  0.26327700  0.56179300  1
  O  O11  1  0.39740600  0.73672300  0.93820700  1
  O  O12  1  0.60259400  0.73672300  0.43820700  1
  O  O13  1  0.60259400  0.26327700  0.06179300  1
  O  O14  1  0.75206600  0.04327000  0.60739700  1
  O  O15  1  0.75206600  0.95673000  0.89260300  1
  O  O16  1  0.24793400  0.95673000  0.39260300  1
  O  O17  1  0.24793400  0.04327000  0.10739700  1
loop_
_geom_bond_atom_site_label_1
_geom_bond_atom_site_label_2
_geom_bond_distance
_geom_bond_site_symmetry_2
B0 O6 1.383953 1_555
B0 O7 1.383953 1_555
B0 O0 1.394514 1_655
B1 O9 1.383953 1_555
B1 O8 1.383953 1_555
B1 O1 1.394514 1_455
B2 O14 1.354235 1_555
B2 O5 1.399988 1_555
B2 O10 1.418472 1_555
B3 O15 1.354235 1_555
B3 O4 1.399988 1_556
B3 O11 1.418472 1_555
B4 O16 1.354235 1_555
B4 O3 1.399988 1_555
B4 O12 1.418472 1_555
B5 O17 1.354235 1_555
B5 O2 1.399988 1_554
B5 O13 1.418472 1_555
O0 Zn1 1.991399 1_555
O0 Zn0 1.991399 1_555
O1 Zn2 1.991399 1_555
O1 Zn3 1.991399 1_555
O2 Zn4 1.955898 1_455
O2 Zn0 1.967810 1_555
O3 Zn5 1.955898 1_455
O3 Zn1 1.967810 1_555
O4 Zn6 1.955898 1_655
O4 Zn2 1.967810 1_555
O5 Zn7 1.955898 1_655
O5 Zn3 1.967810 1_555
O6 Zn0 1.995612 1_555
O6 Zn4 2.018877 1_555
O7 Zn1 1.995612 1_555
O7 Zn5 2.018877 1_555
O8 Zn2 1.995612 1_555
O8 Zn6 2.018877 1_555
O9 Zn3 1.995612 1_555
O9 Zn7 2.018877 1_555
O10 Zn1 1.967411 1_555
O10 Zn7 2.019640 1_555
O10 Rb0 3.030602 1_555
O11 Zn0 1.967411 1_555
O11 Zn6 2.019640 1_556
O11 Rb0 3.030602 1_565
O12 Zn3 1.967411 1_555
O12 Zn5 2.019640 1_555
O12 Rb1 3.030602 1_565
O13 Zn2 1.967411 1_555
O13 Zn4 2.019640 1_554
O13 Rb1 3.030602 1_555
O14 Zn5 1.931802 1_545
O14 Rb0 3.037379 1_555
O14 Rb0 3.235636 1_655
O15 Zn4 1.931802 1_565
O15 Rb0 3.037379 1_565
O15 Rb0 3.235636 1_665
O16 Zn7 1.931802 1_565
O16 Rb1 3.037379 1_565
O16 Rb1 3.235636 1_465
O17 Zn6 1.931802 1_545
O17 Rb1 3.037379 1_555
O17 Rb1 3.235636 1_455
