# generated using pymatgen
data_Mg3Bi2
_symmetry_space_group_name_H-M   'P 1'
_cell_length_a   4.67597049
_cell_length_b   4.67597110
_cell_length_c   7.40701023
_cell_angle_alpha   90.00000000
_cell_angle_beta   90.00000000
_cell_angle_gamma   120.00000286
_symmetry_Int_Tables_number   1
_chemical_formula_structural   Mg3Bi2
_chemical_formula_sum   'Mg3 Bi2'
_cell_volume   140.25460948
_cell_formula_units_Z   1
loop_
 _symmetry_equiv_pos_site_id
 _symmetry_equiv_pos_as_xyz
  1  'x, y, z'
loop_
 _atom_site_type_symbol
 _atom_site_label
 _atom_site_symmetry_multiplicity
 _atom_site_fract_x
 _atom_site_fract_y
 _atom_site_fract_z
 _atom_site_occupancy
  Mg  Mg0  1  0.33333300  0.66666700  0.63003459  1
  Mg  Mg1  1  -0.00000000  -0.00000000  -0.00000000  1
  Mg  Mg2  1  0.66666700  0.33333300  0.36996541  1
  Bi  Bi0  1  0.33333300  0.66666700  0.22304017  1
  Bi  Bi1  1  0.66666700  0.33333300  0.77695983  1
loop_
_geom_bond_atom_site_label_1
_geom_bond_atom_site_label_2
_geom_bond_distance
_geom_bond_site_symmetry_2
Bi0 Mg2 2.910767 1_455
Bi0 Mg2 2.910767 1_565
Bi0 Mg2 2.910775 1_555
Bi0 Mg0 3.014612 1_555
Bi0 Mg1 3.165047 1_565
Bi0 Mg1 3.165051 1_665
Bi0 Mg1 3.165051 1_555
Bi1 Mg0 2.910767 1_655
Bi1 Mg0 2.910767 1_545
Bi1 Mg0 2.910775 1_555
Bi1 Mg2 3.014612 1_555
Bi1 Mg1 3.165047 1_656
Bi1 Mg1 3.165051 1_556
Bi1 Mg1 3.165051 1_666
