# generated using pymatgen
data_Ge3Pb5O11
_symmetry_space_group_name_H-M   'P 1'
_cell_length_a   10.41003186
_cell_length_b   10.41003186
_cell_length_c   10.86378800
_cell_angle_alpha   90.00000000
_cell_angle_beta   90.00000000
_cell_angle_gamma   119.99999909
_symmetry_Int_Tables_number   1
_chemical_formula_structural   Ge3Pb5O11
_chemical_formula_sum   'Ge9 Pb15 O33'
_cell_volume   1019.56762072
_cell_formula_units_Z   3
loop_
 _symmetry_equiv_pos_site_id
 _symmetry_equiv_pos_as_xyz
  1  'x, y, z'
loop_
 _atom_site_type_symbol
 _atom_site_label
 _atom_site_symmetry_multiplicity
 _atom_site_fract_x
 _atom_site_fract_y
 _atom_site_fract_z
 _atom_site_occupancy
  Ge  Ge0  1  0.98482000  0.37621100  0.15212600  1
  Ge  Ge1  1  0.62378900  0.60860900  0.84787400  1
  Ge  Ge2  1  0.38217700  0.38946700  0.50000000  1
  Ge  Ge3  1  0.39139100  0.01518000  0.15212600  1
  Ge  Ge4  1  0.39139100  0.01518000  0.84787400  1
  Ge  Ge5  1  0.62378900  0.60860900  0.15212600  1
  Ge  Ge6  1  0.98482000  0.37621100  0.84787400  1
  Ge  Ge7  1  0.61053300  0.99271000  0.50000000  1
  Ge  Ge8  1  0.00729000  0.61782300  0.50000000  1
  Pb  Pb0  1  0.25616100  0.99604000  0.50000000  1
  Pb  Pb1  1  0.33333300  0.66666700  0.67574300  1
  Pb  Pb2  1  0.73450400  0.00053600  0.18366700  1
  Pb  Pb3  1  0.26603200  0.26549600  0.81633300  1
  Pb  Pb4  1  0.66666700  0.33333300  0.33864900  1
  Pb  Pb5  1  0.66666700  0.33333300  0.66135100  1
  Pb  Pb6  1  0.73987900  0.74383900  0.50000000  1
  Pb  Pb7  1  0.00396000  0.26012100  0.50000000  1
  Pb  Pb8  1  0.33333300  0.66666700  0.32425700  1
  Pb  Pb9  1  0.26603200  0.26549600  0.18366700  1
  Pb  Pb10  1  0.73450400  0.00053600  0.81633300  1
  Pb  Pb11  1  0.33333300  0.66666700  0.00000000  1
  Pb  Pb12  1  0.66666700  0.33333300  0.00000000  1
  Pb  Pb13  1  0.99946400  0.73396800  0.81633300  1
  Pb  Pb14  1  0.99946400  0.73396800  0.18366700  1
  O  O0  1  0.88873000  0.47836500  0.83803800  1
  O  O1  1  0.48107700  0.29135300  0.50000000  1
  O  O2  1  0.31850900  0.08715300  0.73845500  1
  O  O3  1  0.30922300  0.82208800  0.16386300  1
  O  O4  1  0.08454400  0.74393100  0.62540400  1
  O  O5  1  0.91284700  0.23135600  0.26154500  1
  O  O6  1  0.76864400  0.68149100  0.26154500  1
  O  O7  1  0.17791200  0.48713500  0.16386300  1
  O  O8  1  0.58963500  0.11127000  0.16196200  1
  O  O9  1  0.51286500  0.69077700  0.16386300  1
  O  O10  1  0.76864400  0.68149100  0.73845500  1
  O  O11  1  0.31850900  0.08715300  0.26154500  1
  O  O12  1  0.17791200  0.48713500  0.83613700  1
  O  O13  1  0.71351700  0.64463300  0.00000000  1
  O  O14  1  0.51286500  0.69077700  0.83613700  1
  O  O15  1  0.52163500  0.41036500  0.83803800  1
  O  O16  1  0.25606900  0.34061200  0.62540400  1
  O  O17  1  0.65938800  0.91545600  0.37459600  1
  O  O18  1  0.25606900  0.34061200  0.37459600  1
  O  O19  1  0.49677300  0.58547900  0.50000000  1
  O  O20  1  0.91284700  0.23135600  0.73845500  1
  O  O21  1  0.58963500  0.11127000  0.83803800  1
  O  O22  1  0.93111600  0.28648300  0.00000000  1
  O  O23  1  0.41452100  0.91129400  0.50000000  1
  O  O24  1  0.70864700  0.18972400  0.50000000  1
  O  O25  1  0.08870600  0.50322700  0.50000000  1
  O  O26  1  0.08454400  0.74393100  0.37459600  1
  O  O27  1  0.52163500  0.41036500  0.16196200  1
  O  O28  1  0.88873000  0.47836500  0.16196200  1
  O  O29  1  0.65938800  0.91545600  0.62540400  1
  O  O30  1  0.30922300  0.82208800  0.83613700  1
  O  O31  1  0.35536700  0.06888400  0.00000000  1
  O  O32  1  0.81027600  0.51892300  0.50000000  1
loop_
_geom_bond_atom_site_label_1
_geom_bond_atom_site_label_2
_geom_bond_distance
_geom_bond_site_symmetry_2
Ge0 O7 1.751862 1_655
Ge0 O5 1.765918 1_555
Ge0 O28 1.790709 1_555
Ge0 O22 1.842318 1_555
Ge1 O14 1.751862 1_555
Ge1 O10 1.765918 1_555
Ge1 O15 1.790709 1_555
Ge1 O13 1.842318 1_556
Ge2 O19 1.775536 1_555
Ge2 O1 1.776155 1_555
Ge2 O16 1.780573 1_555
Ge2 O18 1.780573 1_555
Ge3 O3 1.751862 1_545
Ge3 O11 1.765918 1_555
Ge3 O8 1.790709 1_555
Ge3 O31 1.842318 1_555
Ge4 O30 1.751862 1_545
Ge4 O2 1.765918 1_555
Ge4 O21 1.790709 1_555
Ge4 O31 1.842318 1_556
Ge5 O9 1.751862 1_555
Ge5 O6 1.765918 1_555
Ge5 O27 1.790709 1_555
Ge5 O13 1.842318 1_555
Ge6 O12 1.751862 1_655
Ge6 O20 1.765918 1_555
Ge6 O0 1.790709 1_555
Ge6 O22 1.842318 1_556
Ge7 O23 1.775536 1_555
Ge7 O24 1.776155 1_565
Ge7 O29 1.780579 1_555
Ge7 O17 1.780579 1_555
Ge8 O25 1.775536 1_555
Ge8 O32 1.776155 1_455
Ge8 O4 1.780574 1_555
Ge8 O26 1.780574 1_555
O0 Pb13 2.323188 1_555
O0 Pb12 2.688699 1_556
O0 Pb5 2.796002 1_555
O1 Pb5 2.480300 1_555
O1 Pb4 2.480300 1_555
O1 Pb0 2.781181 1_545
O2 Pb3 2.339924 1_555
O2 Pb0 2.723251 1_545
O3 Pb8 2.474481 1_555
O3 Pb11 2.501162 1_555
O4 Pb13 2.237341 1_455
O4 Pb0 2.691998 1_555
O5 Pb2 2.339924 1_555
O5 Pb7 2.723251 1_655
O6 Pb14 2.339924 1_555
O6 Pb6 2.723251 1_555
O7 Pb8 2.474485 1_555
O7 Pb11 2.501166 1_555
O8 Pb2 2.323188 1_555
O8 Pb12 2.688697 1_555
O8 Pb4 2.796001 1_555
O9 Pb8 2.474488 1_555
O9 Pb11 2.501169 1_555
O10 Pb13 2.339924 1_555
O10 Pb6 2.723251 1_555
O11 Pb9 2.339924 1_555
O11 Pb0 2.723251 1_545
O12 Pb1 2.474485 1_555
O12 Pb11 2.501166 1_556
O14 Pb1 2.474488 1_555
O14 Pb11 2.501169 1_556
O15 Pb3 2.323188 1_555
O15 Pb12 2.688705 1_556
O15 Pb5 2.796008 1_555
O16 Pb3 2.237337 1_555
O16 Pb7 2.692000 1_555
O17 Pb2 2.237339 1_565
O17 Pb6 2.691991 1_555
O18 Pb9 2.237337 1_555
O18 Pb7 2.692000 1_555
O19 Pb6 2.224927 1_555
O20 Pb10 2.339924 1_555
O20 Pb7 2.723251 1_655
O21 Pb10 2.323188 1_555
O21 Pb12 2.688697 1_556
O21 Pb5 2.796001 1_555
O23 Pb0 2.224927 1_555
O24 Pb5 2.480293 1_555
O24 Pb4 2.480293 1_555
O24 Pb7 2.781181 1_655
O25 Pb7 2.224927 1_555
O26 Pb14 2.237341 1_455
O26 Pb0 2.691998 1_555
O27 Pb9 2.323188 1_555
O27 Pb12 2.688705 1_555
O27 Pb4 2.796008 1_555
O28 Pb14 2.323188 1_555
O28 Pb12 2.688699 1_555
O28 Pb4 2.796002 1_555
O29 Pb10 2.237339 1_565
O29 Pb6 2.691991 1_555
O30 Pb1 2.474481 1_555
O30 Pb11 2.501162 1_556
O32 Pb4 2.480297 1_555
O32 Pb5 2.480297 1_555
O32 Pb6 2.781181 1_555
