# generated using pymatgen
data_Tm4InRh
_symmetry_space_group_name_H-M   'P 1'
_cell_length_a   9.47381890
_cell_length_b   9.47380870
_cell_length_c   9.47361474
_cell_angle_alpha   59.99925889
_cell_angle_beta   59.99945286
_cell_angle_gamma   60.00001481
_symmetry_Int_Tables_number   1
_chemical_formula_structural   Tm4InRh
_chemical_formula_sum   'Tm16 In4 Rh4'
_cell_volume   601.23773670
_cell_formula_units_Z   4
loop_
 _symmetry_equiv_pos_site_id
 _symmetry_equiv_pos_as_xyz
  1  'x, y, z'
loop_
 _atom_site_type_symbol
 _atom_site_label
 _atom_site_symmetry_multiplicity
 _atom_site_fract_x
 _atom_site_fract_y
 _atom_site_fract_z
 _atom_site_occupancy
  Tm  Tm0  1  0.06124977  0.06124453  0.43877253  1
  Tm  Tm1  1  0.43873835  0.06124233  0.43876072  1
  Tm  Tm2  1  0.06124878  0.43876990  0.06123292  1
  Tm  Tm3  1  0.04783944  0.65072154  0.65075507  1
  Tm  Tm4  1  0.43875246  0.43875782  0.06122957  1
  Tm  Tm5  1  0.65071557  0.04783548  0.65076029  1
  Tm  Tm6  1  0.18921400  0.81082774  0.18914328  1
  Tm  Tm7  1  0.18918539  0.18916861  0.81083296  1
  Tm  Tm8  1  0.81082334  0.81082673  0.18911498  1
  Tm  Tm9  1  0.43876736  0.06124506  0.06123430  1
  Tm  Tm10  1  0.81082427  0.18920734  0.18915259  1
  Tm  Tm11  1  0.06124550  0.43874035  0.43875623  1
  Tm  Tm12  1  0.81081940  0.18914901  0.81083167  1
  Tm  Tm13  1  0.18915526  0.81082209  0.81083048  1
  Tm  Tm14  1  0.65073154  0.65074170  0.04782230  1
  Tm  Tm15  1  0.65070059  0.65070956  0.65074551  1
  In  In0  1  0.41667626  0.41667344  0.41667124  1
  In  In1  1  0.74994532  0.41668599  0.41668378  1
  In  In2  1  0.41668483  0.74995268  0.41668050  1
  In  In3  1  0.41667806  0.41667575  0.74997155  1
  Rh  Rh0  1  0.85771306  0.85771086  0.42687103  1
  Rh  Rh1  1  0.85771125  0.85770882  0.85771415  1
  Rh  Rh2  1  0.42687096  0.85771017  0.85771468  1
  Rh  Rh3  1  0.85771022  0.42687153  0.85771466  1
loop_
_geom_bond_atom_site_label_1
_geom_bond_atom_site_label_2
_geom_bond_distance
_geom_bond_site_symmetry_2
In0 In1 3.157450 1_555
In0 In2 3.157508 1_555
In0 In3 3.157578 1_555
In0 Tm4 3.171954 1_555
In0 Tm11 3.171964 1_555
In0 Tm1 3.171964 1_555
In0 Tm14 3.385904 1_555
In0 Tm5 3.385923 1_555
In0 Tm3 3.385946 1_555
In0 Tm10 3.432582 1_555
In0 Tm6 3.432618 1_555
In0 Tm7 3.432622 1_555
In1 In2 3.157278 1_555
In1 In3 3.157351 1_555
In1 Tm11 3.172029 1_655
In1 Tm2 3.172102 1_655
In1 Tm0 3.172123 1_655
In1 Tm14 3.385728 1_555
In1 Tm15 3.385748 1_555
In1 Tm5 3.385758 1_555
In1 Tm10 3.432595 1_555
In1 Tm12 3.432655 1_555
In1 Tm8 3.432669 1_555
In2 In3 3.157401 1_555
In2 Tm1 3.171964 1_565
In2 Tm9 3.172022 1_565
In2 Tm0 3.172039 1_565
In2 Tm14 3.385699 1_555
In2 Tm15 3.385714 1_555
In2 Tm3 3.385731 1_555
In2 Tm6 3.432595 1_555
In2 Tm8 3.432644 1_555
In2 Tm13 3.432662 1_555
In3 Tm4 3.171731 1_556
In3 Tm2 3.171833 1_556
In3 Tm9 3.171834 1_556
In3 Tm15 3.385608 1_555
In3 Tm5 3.385623 1_555
In3 Tm3 3.385631 1_555
In3 Tm7 3.432616 1_555
In3 Tm12 3.432635 1_555
In3 Tm13 3.432671 1_555
Rh0 Tm10 2.768494 1_565
Rh0 Tm6 2.768561 1_655
Rh0 Tm8 2.768818 1_555
Rh0 Tm3 2.778024 1_655
Rh0 Tm15 2.778045 1_555
Rh0 Tm5 2.778056 1_565
Rh0 Tm0 3.406176 1_665
Rh0 Tm11 3.406205 1_655
Rh0 Tm1 3.406232 1_565
Rh1 Tm8 2.767604 1_556
Rh1 Tm12 2.768024 1_565
Rh1 Tm13 2.768077 1_655
Rh1 Tm3 2.777588 1_655
Rh1 Tm5 2.777605 1_565
Rh1 Tm14 2.777605 1_556
Rh1 Tm0 3.405921 1_665
Rh1 Tm2 3.405927 1_656
Rh1 Tm9 3.405967 1_566
Rh2 Tm6 2.767860 1_556
Rh2 Tm7 2.768198 1_565
Rh2 Tm13 2.768474 1_555
Rh2 Tm15 2.777746 1_555
Rh2 Tm14 2.777750 1_556
Rh2 Tm5 2.777753 1_565
Rh2 Tm9 3.405995 1_566
Rh2 Tm1 3.406018 1_565
Rh2 Tm4 3.406041 1_556
Rh3 Tm10 2.767933 1_556
Rh3 Tm7 2.768358 1_655
Rh3 Tm12 2.768545 1_555
Rh3 Tm15 2.777801 1_555
Rh3 Tm3 2.777815 1_655
Rh3 Tm14 2.777823 1_556
Rh3 Tm2 3.406023 1_656
Rh3 Tm11 3.406057 1_655
Rh3 Tm4 3.406083 1_556
