# generated using pymatgen
data_Rb2NiF4
_symmetry_space_group_name_H-M   'P 1'
_cell_length_a   7.41420715
_cell_length_b   7.41420715
_cell_length_c   7.41420715
_cell_angle_alpha   148.02858106
_cell_angle_beta   148.02858106
_cell_angle_gamma   45.84317625
_symmetry_Int_Tables_number   1
_chemical_formula_structural   Rb2NiF4
_chemical_formula_sum   'Rb2 Ni1 F4'
_cell_volume   113.88127175
_cell_formula_units_Z   1
loop_
 _symmetry_equiv_pos_site_id
 _symmetry_equiv_pos_as_xyz
  1  'x, y, z'
loop_
 _atom_site_type_symbol
 _atom_site_label
 _atom_site_symmetry_multiplicity
 _atom_site_fract_x
 _atom_site_fract_y
 _atom_site_fract_z
 _atom_site_occupancy
  Rb  Rb0  1  0.64648318  0.64648318  0.00000000  1
  Rb  Rb1  1  0.35351682  0.35351682  -0.00000000  1
  Ni  Ni0  1  -0.00000000  -0.00000000  -0.00000000  1
  F  F0  1  -0.00000000  0.50000000  0.50000000  1
  F  F1  1  0.50000000  -0.00000000  0.50000000  1
  F  F2  1  0.85382885  0.85382885  0.00000000  1
  F  F3  1  0.14617115  0.14617115  -0.00000000  1
loop_
_geom_bond_atom_site_label_1
_geom_bond_atom_site_label_2
_geom_bond_distance
_geom_bond_site_symmetry_2
F0 Ni0 2.041855 1_566
F0 Ni0 2.041855 1_555
F0 Rb0 2.858596 1_556
F0 Rb1 2.858596 1_455
F0 Rb1 2.858596 1_556
F0 Rb0 2.858596 1_455
F1 Ni0 2.041855 1_656
F1 Ni0 2.041855 1_555
F1 Rb1 2.858596 1_556
F1 Rb1 2.858596 1_545
F1 Rb0 2.858596 1_545
F1 Rb0 2.858596 1_556
F2 Ni0 1.996339 1_665
F2 Rb0 2.831833 1_555
F2 Rb1 2.887622 1_554
F2 Rb1 2.887622 1_565
F2 Rb1 2.887622 1_655
F2 Rb1 2.887622 1_666
F3 Ni0 1.996339 1_555
F3 Rb1 2.831833 1_555
F3 Rb0 2.887622 1_545
F3 Rb0 2.887622 1_444
F3 Rb0 2.887622 1_455
F3 Rb0 2.887622 1_556
