# generated using pymatgen
data_Ba2In2Se5
_symmetry_space_group_name_H-M   'P 1'
_cell_length_a   12.48758400
_cell_length_b   13.43874000
_cell_length_c   13.93091600
_cell_angle_alpha   90.00000000
_cell_angle_beta   90.00000000
_cell_angle_gamma   90.00000000
_symmetry_Int_Tables_number   1
_chemical_formula_structural   Ba2In2Se5
_chemical_formula_sum   'Ba16 In16 Se40'
_cell_volume   2337.85002757
_cell_formula_units_Z   8
loop_
 _symmetry_equiv_pos_site_id
 _symmetry_equiv_pos_as_xyz
  1  'x, y, z'
loop_
 _atom_site_type_symbol
 _atom_site_label
 _atom_site_symmetry_multiplicity
 _atom_site_fract_x
 _atom_site_fract_y
 _atom_site_fract_z
 _atom_site_occupancy
  Ba  Ba0  1  0.25069100  0.74583600  0.81097100  1
  Ba  Ba1  1  0.49630300  0.02868100  0.30720600  1
  Ba  Ba2  1  0.74930900  0.25416400  0.18902900  1
  Ba  Ba3  1  0.49630300  0.52868100  0.19279400  1
  Ba  Ba4  1  0.99630300  0.47131900  0.30720600  1
  Ba  Ba5  1  0.00369700  0.02868100  0.80720600  1
  Ba  Ba6  1  0.24930900  0.24583600  0.18902900  1
  Ba  Ba7  1  0.25069100  0.24583600  0.68902900  1
  Ba  Ba8  1  0.75069100  0.25416400  0.68902900  1
  Ba  Ba9  1  0.75069100  0.75416400  0.81097100  1
  Ba  Ba10  1  0.50369700  0.97131900  0.69279400  1
  Ba  Ba11  1  0.00369700  0.52868100  0.69279400  1
  Ba  Ba12  1  0.99630300  0.97131900  0.19279400  1
  Ba  Ba13  1  0.74930900  0.75416400  0.31097100  1
  Ba  Ba14  1  0.24930900  0.74583600  0.31097100  1
  Ba  Ba15  1  0.50369700  0.47131900  0.80720600  1
  In  In0  1  0.55961800  0.80386100  0.05133200  1
  In  In1  1  0.44038200  0.19613900  0.94866800  1
  In  In2  1  0.22802500  0.96500300  0.52779700  1
  In  In3  1  0.22802500  0.46500300  0.97220300  1
  In  In4  1  0.05961800  0.69613900  0.05133200  1
  In  In5  1  0.27197500  0.46500300  0.47220300  1
  In  In6  1  0.94038200  0.80386100  0.55133200  1
  In  In7  1  0.72802500  0.53499700  0.52779700  1
  In  In8  1  0.55961800  0.30386100  0.44866800  1
  In  In9  1  0.77197500  0.03499700  0.47220300  1
  In  In10  1  0.05961800  0.19613900  0.44866800  1
  In  In11  1  0.44038200  0.69613900  0.55133200  1
  In  In12  1  0.77197500  0.53499700  0.02779700  1
  In  In13  1  0.94038200  0.30386100  0.94866800  1
  In  In14  1  0.72802500  0.03499700  0.97220300  1
  In  In15  1  0.27197500  0.96500300  0.02779700  1
  Se  Se0  1  0.49692700  0.21909500  0.77316000  1
  Se  Se1  1  0.06908300  0.39094800  0.07252300  1
  Se  Se2  1  0.40982100  0.37693800  0.02598800  1
  Se  Se3  1  0.93091700  0.10905200  0.57252300  1
  Se  Se4  1  0.50307300  0.28090500  0.27316000  1
  Se  Se5  1  0.24114600  0.98834000  0.71165700  1
  Se  Se6  1  0.73634700  0.85499800  0.54144800  1
  Se  Se7  1  0.06908300  0.89094800  0.42747700  1
  Se  Se8  1  0.49692700  0.71909500  0.72684000  1
  Se  Se9  1  0.99692700  0.78090500  0.72684000  1
  Se  Se10  1  0.09017900  0.37693800  0.52598800  1
  Se  Se11  1  0.40982100  0.87693800  0.47401200  1
  Se  Se12  1  0.93091700  0.60905200  0.92747700  1
  Se  Se13  1  0.09017900  0.87693800  0.97401200  1
  Se  Se14  1  0.56908300  0.10905200  0.07252300  1
  Se  Se15  1  0.73634700  0.35499800  0.95855200  1
  Se  Se16  1  0.23634700  0.14500200  0.95855200  1
  Se  Se17  1  0.43091700  0.89094800  0.92747700  1
  Se  Se18  1  0.23634700  0.64500200  0.54144800  1
  Se  Se19  1  0.75885400  0.51166000  0.21165700  1
  Se  Se20  1  0.74114600  0.51166000  0.71165700  1
  Se  Se21  1  0.76365300  0.85499800  0.04144800  1
  Se  Se22  1  0.25885400  0.48834000  0.28834300  1
  Se  Se23  1  0.26365300  0.64500200  0.04144800  1
  Se  Se24  1  0.00307300  0.71909500  0.22684000  1
  Se  Se25  1  0.26365300  0.14500200  0.45855200  1
  Se  Se26  1  0.90982100  0.12306200  0.02598800  1
  Se  Se27  1  0.50307300  0.78090500  0.22684000  1
  Se  Se28  1  0.43091700  0.39094800  0.57252300  1
  Se  Se29  1  0.59017900  0.12306200  0.52598800  1
  Se  Se30  1  0.75885400  0.01166000  0.28834300  1
  Se  Se31  1  0.76365300  0.35499800  0.45855200  1
  Se  Se32  1  0.24114600  0.48834000  0.78834300  1
  Se  Se33  1  0.59017900  0.62306200  0.97401200  1
  Se  Se34  1  0.99692700  0.28090500  0.77316000  1
  Se  Se35  1  0.00307300  0.21909500  0.27316000  1
  Se  Se36  1  0.74114600  0.01166000  0.78834300  1
  Se  Se37  1  0.56908300  0.60905200  0.42747700  1
  Se  Se38  1  0.90982100  0.62306200  0.47401200  1
  Se  Se39  1  0.25885400  0.98834000  0.21165700  1
loop_
_geom_bond_atom_site_label_1
_geom_bond_atom_site_label_2
_geom_bond_distance
_geom_bond_site_symmetry_2
Ba0 Se8 3.310248 1_555
Ba0 Se17 3.391514 1_555
Ba0 Se9 3.411402 1_455
Ba0 Se32 3.476794 1_555
Ba0 Se23 3.488753 1_556
Ba0 Se13 3.504369 1_555
Ba0 Se5 3.542474 1_555
Ba0 Se18 3.995763 1_555
Ba1 Se11 3.274849 1_545
Ba1 Se39 3.295132 1_545
Ba1 Se30 3.297086 1_555
Ba1 Se4 3.423639 1_555
Ba1 Se29 3.503182 1_555
Ba1 Se27 3.513992 1_545
Ba1 Se14 3.561071 1_555
Ba1 Se25 3.915267 1_555
Ba2 Se4 3.310248 1_555
Ba2 Se14 3.391514 1_555
Ba2 Se35 3.411402 1_655
Ba2 Se19 3.476794 1_555
Ba2 Se15 3.488753 1_554
Ba2 Se26 3.504369 1_555
Ba2 Se30 3.542474 1_555
Ba2 Se31 3.995763 1_555
Ba3 Se2 3.274849 1_555
Ba3 Se22 3.295132 1_555
Ba3 Se19 3.297086 1_555
Ba3 Se27 3.423639 1_555
Ba3 Se33 3.503182 1_554
Ba3 Se4 3.513992 1_555
Ba3 Se37 3.561071 1_555
Ba3 Se23 3.915267 1_555
Ba4 Se38 3.274849 1_555
Ba4 Se19 3.295132 1_555
Ba4 Se22 3.297086 1_655
Ba4 Se35 3.423639 1_655
Ba4 Se10 3.503182 1_655
Ba4 Se24 3.513992 1_655
Ba4 Se1 3.561071 1_655
Ba4 Se31 3.915267 1_555
Ba5 Se13 3.274849 1_545
Ba5 Se5 3.295132 1_545
Ba5 Se36 3.297086 1_455
Ba5 Se34 3.423639 1_455
Ba5 Se26 3.503182 1_456
Ba5 Se9 3.513992 1_445
Ba5 Se3 3.561071 1_455
Ba5 Se16 3.915267 1_555
Ba6 Se35 3.310248 1_555
Ba6 Se1 3.391514 1_555
Ba6 Se4 3.411402 1_555
Ba6 Se39 3.476794 1_545
Ba6 Se16 3.488753 1_554
Ba6 Se2 3.504369 1_555
Ba6 Se22 3.542474 1_555
Ba6 Se25 3.995763 1_555
Ba7 Se0 3.310248 1_555
Ba7 Se28 3.391514 1_555
Ba7 Se34 3.411402 1_455
Ba7 Se5 3.476794 1_545
Ba7 Se25 3.488753 1_555
Ba7 Se10 3.504369 1_555
Ba7 Se32 3.542474 1_555
Ba7 Se16 3.995763 1_555
Ba8 Se34 3.310248 1_555
Ba8 Se3 3.391514 1_555
Ba8 Se0 3.411402 1_555
Ba8 Se20 3.476794 1_555
Ba8 Se31 3.488753 1_555
Ba8 Se29 3.504369 1_555
Ba8 Se36 3.542474 1_555
Ba8 Se15 3.995763 1_555
Ba9 Se9 3.310248 1_555
Ba9 Se12 3.391514 1_555
Ba9 Se8 3.411402 1_555
Ba9 Se36 3.476794 1_565
Ba9 Se21 3.488753 1_556
Ba9 Se33 3.504369 1_555
Ba9 Se20 3.542474 1_555
Ba9 Se6 3.995763 1_555
Ba10 Se29 3.274849 1_565
Ba10 Se36 3.295132 1_565
Ba10 Se5 3.297086 1_555
Ba10 Se8 3.423639 1_555
Ba10 Se11 3.503182 1_555
Ba10 Se0 3.513992 1_565
Ba10 Se17 3.561071 1_555
Ba10 Se6 3.915267 1_555
Ba11 Se10 3.274849 1_555
Ba11 Se32 3.295132 1_555
Ba11 Se20 3.297086 1_455
Ba11 Se9 3.423639 1_455
Ba11 Se38 3.503182 1_455
Ba11 Se34 3.513992 1_455
Ba11 Se12 3.561071 1_455
Ba11 Se18 3.915267 1_555
Ba12 Se26 3.274849 1_565
Ba12 Se30 3.295132 1_565
Ba12 Se39 3.297086 1_655
Ba12 Se24 3.423639 1_655
Ba12 Se13 3.503182 1_654
Ba12 Se35 3.513992 1_665
Ba12 Se7 3.561071 1_655
Ba12 Se21 3.915267 1_555
Ba13 Se27 3.310248 1_555
Ba13 Se37 3.391514 1_555
Ba13 Se24 3.411402 1_655
Ba13 Se30 3.476794 1_565
Ba13 Se6 3.488753 1_555
Ba13 Se38 3.504369 1_555
Ba13 Se19 3.542474 1_555
Ba13 Se21 3.995763 1_555
Ba14 Se24 3.310248 1_555
Ba14 Se7 3.391514 1_555
Ba14 Se27 3.411402 1_555
Ba14 Se22 3.476794 1_555
Ba14 Se18 3.488753 1_555
Ba14 Se11 3.504369 1_555
Ba14 Se39 3.542474 1_555
Ba14 Se23 3.995763 1_555
Ba15 Se33 3.274849 1_555
Ba15 Se20 3.295132 1_555
Ba15 Se32 3.297086 1_555
Ba15 Se0 3.423639 1_555
Ba15 Se2 3.503182 1_556
Ba15 Se8 3.513992 1_555
Ba15 Se28 3.561071 1_555
Ba15 Se15 3.915267 1_555
In0 Se27 2.563538 1_555
In0 Se17 2.632437 1_554
In0 Se21 2.642545 1_555
In0 Se33 2.685026 1_554
In1 Se0 2.563538 1_555
In1 Se14 2.632437 1_556
In1 Se16 2.642545 1_555
In1 Se2 2.685026 1_556
In2 Se5 2.585664 1_555
In2 Se7 2.623550 1_555
In2 Se25 2.641941 1_565
In2 Se11 2.667549 1_555
In3 Se32 2.585664 1_555
In3 Se1 2.623550 1_556
In3 Se23 2.641941 1_556
In3 Se2 2.667549 1_556
In4 Se24 2.563538 1_555
In4 Se12 2.632437 1_454
In4 Se23 2.642545 1_555
In4 Se13 2.685026 1_554
In5 Se22 2.585664 1_555
In5 Se28 2.623550 1_555
In5 Se18 2.641941 1_555
In5 Se10 2.667549 1_555
In6 Se9 2.563538 1_555
In6 Se7 2.632437 1_655
In6 Se6 2.642545 1_555
In6 Se38 2.685026 1_555
In7 Se20 2.585664 1_555
In7 Se37 2.623550 1_555
In7 Se31 2.641941 1_555
In7 Se38 2.667549 1_555
In8 Se4 2.563538 1_555
In8 Se28 2.632437 1_555
In8 Se31 2.642545 1_555
In8 Se29 2.685026 1_555
In9 Se30 2.585664 1_555
In9 Se3 2.623550 1_555
In9 Se6 2.641941 1_545
In9 Se29 2.667549 1_555
In10 Se35 2.563538 1_555
In10 Se3 2.632437 1_455
In10 Se25 2.642545 1_555
In10 Se10 2.685026 1_555
In11 Se8 2.563538 1_555
In11 Se37 2.632437 1_555
In11 Se18 2.642545 1_555
In11 Se11 2.685026 1_555
In12 Se19 2.585664 1_555
In12 Se12 2.623550 1_554
In12 Se15 2.641941 1_554
In12 Se33 2.667549 1_554
In13 Se34 2.563538 1_555
In13 Se1 2.632437 1_656
In13 Se15 2.642545 1_555
In13 Se26 2.685026 1_556
In14 Se36 2.585664 1_555
In14 Se14 2.623550 1_556
In14 Se21 2.641941 1_546
In14 Se26 2.667549 1_556
In15 Se39 2.585664 1_555
In15 Se17 2.623550 1_554
In15 Se16 2.641941 1_564
In15 Se13 2.667549 1_554
