# generated using pymatgen
data_Pr10(B3C4)3
_symmetry_space_group_name_H-M   'P 1'
_cell_length_a   8.54892000
_cell_length_b   8.54892000
_cell_length_c   25.40062100
_cell_angle_alpha   90.00000000
_cell_angle_beta   90.00000000
_cell_angle_gamma   90.00000000
_symmetry_Int_Tables_number   1
_chemical_formula_structural   Pr10(B3C4)3
_chemical_formula_sum   'Pr40 B36 C48'
_cell_volume   1856.37982761
_cell_formula_units_Z   4
loop_
 _symmetry_equiv_pos_site_id
 _symmetry_equiv_pos_as_xyz
  1  'x, y, z'
loop_
 _atom_site_type_symbol
 _atom_site_label
 _atom_site_symmetry_multiplicity
 _atom_site_fract_x
 _atom_site_fract_y
 _atom_site_fract_z
 _atom_site_occupancy
  Pr  Pr0  1  0.71446100  0.19742700  0.82159400  1
  Pr  Pr1  1  0.41534000  0.69557200  0.94617200  1
  Pr  Pr2  1  0.90147200  0.01481600  0.06066000  1
  Pr  Pr3  1  0.39655400  0.09389000  0.20959400  1
  Pr  Pr4  1  0.40147200  0.48518400  0.68934000  1
  Pr  Pr5  1  0.60344600  0.90611000  0.70959400  1
  Pr  Pr6  1  0.48518400  0.40147200  0.31066000  1
  Pr  Pr7  1  0.91534000  0.80442800  0.80382800  1
  Pr  Pr8  1  0.01481600  0.90147200  0.93934000  1
  Pr  Pr9  1  0.01275000  0.68250000  0.66717600  1
  Pr  Pr10  1  0.59852800  0.51481600  0.18934000  1
  Pr  Pr11  1  0.51275000  0.81750000  0.08282400  1
  Pr  Pr12  1  0.98725000  0.31750000  0.16717600  1
  Pr  Pr13  1  0.59389000  0.10344600  0.95959400  1
  Pr  Pr14  1  0.09852800  0.98518400  0.56066000  1
  Pr  Pr15  1  0.69557200  0.41534000  0.05382800  1
  Pr  Pr16  1  0.80442800  0.91534000  0.19617200  1
  Pr  Pr17  1  0.58466000  0.30442800  0.44617200  1
  Pr  Pr18  1  0.31750000  0.98725000  0.83282400  1
  Pr  Pr19  1  0.90611000  0.60344600  0.29040600  1
  Pr  Pr20  1  0.69742700  0.78553900  0.57159400  1
  Pr  Pr21  1  0.89655400  0.40611000  0.54040600  1
  Pr  Pr22  1  0.80257300  0.28553900  0.67840600  1
  Pr  Pr23  1  0.68250000  0.01275000  0.33282400  1
  Pr  Pr24  1  0.09389000  0.39655400  0.79040600  1
  Pr  Pr25  1  0.19557200  0.08466000  0.69617200  1
  Pr  Pr26  1  0.51481600  0.59852800  0.81066000  1
  Pr  Pr27  1  0.10344600  0.59389000  0.04040600  1
  Pr  Pr28  1  0.98518400  0.09852800  0.43934000  1
  Pr  Pr29  1  0.08466000  0.19557200  0.30382800  1
  Pr  Pr30  1  0.19742700  0.71446100  0.17840600  1
  Pr  Pr31  1  0.40611000  0.89655400  0.45959400  1
  Pr  Pr32  1  0.78553900  0.69742700  0.42840600  1
  Pr  Pr33  1  0.30442800  0.58466000  0.55382800  1
  Pr  Pr34  1  0.21446100  0.30257300  0.92840600  1
  Pr  Pr35  1  0.30257300  0.21446100  0.07159400  1
  Pr  Pr36  1  0.48725000  0.18250000  0.58282400  1
  Pr  Pr37  1  0.28553900  0.80257300  0.32159400  1
  Pr  Pr38  1  0.18250000  0.48725000  0.41717600  1
  Pr  Pr39  1  0.81750000  0.51275000  0.91717600  1
  B  B0  1  0.14250500  0.63652800  0.88329300  1
  B  B1  1  0.62403400  0.48880600  0.60725200  1
  B  B2  1  0.08058000  0.91942000  0.25000000  1
  B  B3  1  0.28142400  0.20366500  0.47516800  1
  B  B4  1  0.70366500  0.21857600  0.22516800  1
  B  B5  1  0.86347200  0.64250500  0.13329300  1
  B  B6  1  0.35749500  0.13652800  0.36670700  1
  B  B7  1  0.29633500  0.78142400  0.72516800  1
  B  B8  1  0.85749500  0.36347200  0.38329300  1
  B  B9  1  0.98880600  0.87596600  0.35725200  1
  B  B10  1  0.12403400  0.01119400  0.14274800  1
  B  B11  1  0.87596600  0.98880600  0.64274800  1
  B  B12  1  0.63652800  0.14250500  0.11670700  1
  B  B13  1  0.41942000  0.41942000  0.00000000  1
  B  B14  1  0.20366500  0.28142400  0.52483200  1
  B  B15  1  0.41274900  0.30144600  0.84261500  1
  B  B16  1  0.58058000  0.58058000  0.50000000  1
  B  B17  1  0.08725100  0.80144600  0.40738500  1
  B  B18  1  0.36347200  0.85749500  0.61670700  1
  B  B19  1  0.91274900  0.19855400  0.90738500  1
  B  B20  1  0.64250500  0.86347200  0.86670700  1
  B  B21  1  0.69855400  0.58725100  0.65738500  1
  B  B22  1  0.78142400  0.29633500  0.27483200  1
  B  B23  1  0.21857600  0.70366500  0.77483200  1
  B  B24  1  0.51119400  0.37596600  0.89274800  1
  B  B25  1  0.30144600  0.41274900  0.15738500  1
  B  B26  1  0.01119400  0.12403400  0.85725200  1
  B  B27  1  0.79633500  0.71857600  0.02483200  1
  B  B28  1  0.80144600  0.08725100  0.59261500  1
  B  B29  1  0.13652800  0.35749500  0.63329300  1
  B  B30  1  0.58725100  0.69855400  0.34261500  1
  B  B31  1  0.48880600  0.62403400  0.39274800  1
  B  B32  1  0.91942000  0.08058000  0.75000000  1
  B  B33  1  0.37596600  0.51119400  0.10725200  1
  B  B34  1  0.71857600  0.79633500  0.97516800  1
  B  B35  1  0.19855400  0.91274900  0.09261500  1
  C  C0  1  0.97258000  0.28786000  0.01150300  1
  C  C1  1  0.61529700  0.89316300  0.81089800  1
  C  C2  1  0.71214000  0.02742000  0.48849700  1
  C  C3  1  0.51058600  0.40267100  0.95068300  1
  C  C4  1  0.17992700  0.29696900  0.58162500  1
  C  C5  1  0.49448500  0.18950500  0.68620200  1
  C  C6  1  0.07395300  0.78320300  0.46593100  1
  C  C7  1  0.60683700  0.11529700  0.06089800  1
  C  C8  1  0.57395300  0.71679700  0.28406900  1
  C  C9  1  0.21679700  0.92604700  0.03406900  1
  C  C10  1  0.10683700  0.38470300  0.68910200  1
  C  C11  1  0.28786000  0.97258000  0.98849700  1
  C  C12  1  0.89316300  0.61529700  0.18910200  1
  C  C13  1  0.67992700  0.20303100  0.16837500  1
  C  C14  1  0.78786000  0.52742000  0.76150300  1
  C  C15  1  0.11529700  0.60683700  0.93910200  1
  C  C16  1  0.20303100  0.67992700  0.83162500  1
  C  C17  1  0.42604700  0.28320300  0.78406900  1
  C  C18  1  0.18950500  0.49448500  0.31379800  1
  C  C19  1  0.99448500  0.31049500  0.06379800  1
  C  C20  1  0.78320300  0.07395300  0.53406900  1
  C  C21  1  0.79696900  0.32007300  0.33162500  1
  C  C22  1  0.82007300  0.70303100  0.08162500  1
  C  C23  1  0.21214000  0.47258000  0.26150300  1
  C  C24  1  0.71679700  0.57395300  0.71593100  1
  C  C25  1  0.47258000  0.21214000  0.73849700  1
  C  C26  1  0.98941400  0.90267100  0.29931700  1
  C  C27  1  0.09732900  0.01058600  0.20068300  1
  C  C28  1  0.70303100  0.82007300  0.91837500  1
  C  C29  1  0.40267100  0.51058600  0.04931700  1
  C  C30  1  0.32007300  0.79696900  0.66837500  1
  C  C31  1  0.50551500  0.81049500  0.18620200  1
  C  C32  1  0.02742000  0.71214000  0.51150300  1
  C  C33  1  0.88470300  0.39316300  0.43910200  1
  C  C34  1  0.52742000  0.78786000  0.23849700  1
  C  C35  1  0.28320300  0.42604700  0.21593100  1
  C  C36  1  0.59732900  0.48941400  0.54931700  1
  C  C37  1  0.01058600  0.09732900  0.79931700  1
  C  C38  1  0.92604700  0.21679700  0.96593100  1
  C  C39  1  0.90267100  0.98941400  0.70068300  1
  C  C40  1  0.29696900  0.17992700  0.41837500  1
  C  C41  1  0.31049500  0.99448500  0.93620200  1
  C  C42  1  0.39316300  0.88470300  0.56089800  1
  C  C43  1  0.68950500  0.00551500  0.43620200  1
  C  C44  1  0.81049500  0.50551500  0.81379800  1
  C  C45  1  0.38470300  0.10683700  0.31089800  1
  C  C46  1  0.48941400  0.59732900  0.45068300  1
  C  C47  1  0.00551500  0.68950500  0.56379800  1
loop_
_geom_bond_atom_site_label_1
_geom_bond_atom_site_label_2
_geom_bond_distance
_geom_bond_site_symmetry_2
B0 C16 1.458691 1_555
B0 C15 1.458791 1_555
B0 Pr1 2.871589 1_555
B0 Pr8 2.889372 1_555
B0 Pr39 3.095186 1_455
B0 Pr7 3.147360 1_455
B1 C36 1.489198 1_555
B1 Pr20 2.765702 1_555
B1 Pr4 2.822884 1_555
B1 Pr36 2.934175 1_555
B1 Pr22 2.935272 1_555
B1 Pr33 3.158851 1_555
B2 C26 1.482273 1_455
B2 C27 1.482273 1_565
B2 Pr30 2.715699 1_555
B2 Pr37 2.715699 1_555
B2 Pr16 2.728372 1_455
B2 Pr29 2.728372 1_565
B3 C40 1.462830 1_555
B3 Pr17 2.829261 1_555
B3 Pr28 2.837212 1_455
B3 Pr38 2.960148 1_555
B3 Pr36 3.256769 1_555
B4 C13 1.462830 1_555
B4 Pr16 2.829261 1_545
B4 Pr10 2.837212 1_555
B4 Pr12 2.960148 1_555
B4 Pr23 3.256769 1_555
B5 C22 1.458691 1_555
B5 C12 1.458791 1_555
B5 Pr16 2.871589 1_555
B5 Pr10 2.889372 1_555
B5 Pr12 3.095186 1_555
B5 Pr15 3.147360 1_555
B6 C40 1.458691 1_555
B6 C45 1.458791 1_555
B6 Pr29 2.871589 1_555
B6 Pr6 2.889372 1_555
B6 Pr23 3.095186 1_555
B6 Pr17 3.147360 1_555
B7 C30 1.462830 1_555
B7 Pr25 2.829261 1_565
B7 Pr4 2.837212 1_555
B7 Pr9 2.960148 1_555
B7 Pr18 3.256769 1_555
B8 C21 1.458691 1_555
B8 C33 1.458791 1_555
B8 Pr17 2.871589 1_555
B8 Pr28 2.889372 1_555
B8 Pr38 3.095186 1_655
B8 Pr29 3.147360 1_655
B9 C26 1.489198 1_555
B9 Pr37 2.765702 1_655
B9 Pr28 2.822884 1_565
B9 Pr23 2.934175 1_565
B9 Pr32 2.935272 1_555
B9 Pr29 3.158851 1_665
B10 C27 1.489198 1_555
B10 Pr30 2.765702 1_545
B10 Pr2 2.822884 1_455
B10 Pr12 2.934175 1_455
B10 Pr35 2.935272 1_555
B10 Pr16 3.158851 1_445
B11 C39 1.489198 1_555
B11 Pr22 2.765702 1_565
B11 Pr14 2.822884 1_655
B11 Pr9 2.934175 1_655
B11 Pr20 2.935272 1_555
B11 Pr25 3.158851 1_665
B12 C13 1.458691 1_555
B12 C7 1.458791 1_555
B12 Pr15 2.871589 1_555
B12 Pr2 2.889372 1_555
B12 Pr11 3.095186 1_545
B12 Pr16 3.147360 1_545
B13 C29 1.482273 1_555
B13 C3 1.482273 1_554
B13 Pr35 2.715699 1_555
B13 Pr34 2.715699 1_554
B13 Pr1 2.728372 1_554
B13 Pr15 2.728372 1_555
B14 C4 1.462830 1_555
B14 Pr33 2.829261 1_555
B14 Pr14 2.837212 1_545
B14 Pr36 2.960148 1_555
B14 Pr38 3.256769 1_555
B15 C17 1.499576 1_555
B15 Pr34 2.760850 1_555
B15 Pr0 2.780056 1_555
B15 Pr26 2.805426 1_555
B15 Pr18 2.817745 1_545
B16 C46 1.482273 1_555
B16 C36 1.482273 1_555
B16 Pr32 2.715699 1_555
B16 Pr20 2.715699 1_555
B16 Pr17 2.728372 1_555
B16 Pr33 2.728372 1_555
B17 C6 1.499576 1_555
B17 Pr37 2.760850 1_555
B17 Pr32 2.780056 1_455
B17 Pr28 2.805426 1_465
B17 Pr38 2.817745 1_555
B18 C30 1.458691 1_555
B18 C42 1.458791 1_555
B18 Pr33 2.871589 1_555
B18 Pr14 2.889372 1_555
B18 Pr36 3.095186 1_565
B18 Pr25 3.147360 1_565
B19 C38 1.499576 1_555
B19 Pr0 2.760850 1_555
B19 Pr34 2.780056 1_655
B19 Pr8 2.805426 1_645
B19 Pr39 2.817745 1_555
B20 C28 1.458691 1_555
B20 C1 1.458791 1_555
B20 Pr7 2.871589 1_555
B20 Pr26 2.889372 1_555
B20 Pr18 3.095186 1_555
B20 Pr1 3.147360 1_555
B21 C24 1.499576 1_555
B21 Pr20 2.760850 1_555
B21 Pr22 2.780056 1_555
B21 Pr4 2.805426 1_555
B21 Pr9 2.817745 1_655
B22 C21 1.462830 1_555
B22 Pr29 2.829261 1_655
B22 Pr6 2.837212 1_555
B22 Pr23 2.960148 1_555
B22 Pr12 3.256769 1_555
B23 C16 1.462830 1_555
B23 Pr7 2.829261 1_455
B23 Pr26 2.837212 1_555
B23 Pr18 2.960148 1_555
B23 Pr9 3.256769 1_555
B24 C3 1.489198 1_555
B24 Pr34 2.765702 1_555
B24 Pr26 2.822884 1_555
B24 Pr39 2.934175 1_555
B24 Pr0 2.935272 1_555
B24 Pr1 3.158851 1_555
B25 C35 1.499576 1_555
B25 Pr35 2.760850 1_555
B25 Pr30 2.780056 1_555
B25 Pr10 2.805426 1_555
B25 Pr12 2.817745 1_455
B26 C37 1.489198 1_555
B26 Pr0 2.765702 1_455
B26 Pr8 2.822884 1_545
B26 Pr18 2.934175 1_545
B26 Pr34 2.935272 1_555
B26 Pr7 3.158851 1_445
B27 C22 1.462830 1_555
B27 Pr15 2.829261 1_555
B27 Pr2 2.837212 1_565
B27 Pr11 2.960148 1_555
B27 Pr39 3.256769 1_554
B28 C20 1.499576 1_555
B28 Pr22 2.760850 1_555
B28 Pr20 2.780056 1_545
B28 Pr14 2.805426 1_645
B28 Pr36 2.817745 1_555
B29 C4 1.458691 1_555
B29 C10 1.458791 1_555
B29 Pr25 2.871589 1_555
B29 Pr4 2.889372 1_555
B29 Pr9 3.095186 1_555
B29 Pr33 3.147360 1_555
B30 C8 1.499576 1_555
B30 Pr32 2.760850 1_555
B30 Pr37 2.780056 1_555
B30 Pr6 2.805426 1_555
B30 Pr23 2.817745 1_565
B31 C46 1.489198 1_555
B31 Pr32 2.765702 1_555
B31 Pr6 2.822884 1_555
B31 Pr38 2.934175 1_555
B31 Pr37 2.935272 1_555
B31 Pr17 3.158851 1_555
B32 C39 1.482273 1_545
B32 C37 1.482273 1_655
B32 Pr22 2.715699 1_555
B32 Pr0 2.715699 1_555
B32 Pr7 2.728372 1_545
B32 Pr25 2.728372 1_655
B33 C29 1.489198 1_555
B33 Pr35 2.765702 1_555
B33 Pr10 2.822884 1_555
B33 Pr11 2.934175 1_555
B33 Pr30 2.935272 1_555
B33 Pr15 3.158851 1_555
B34 C28 1.462830 1_555
B34 Pr1 2.829261 1_555
B34 Pr8 2.837212 1_655
B34 Pr39 2.960148 1_555
B34 Pr11 3.256769 1_556
B35 C9 1.499576 1_555
B35 Pr30 2.760850 1_555
B35 Pr35 2.780056 1_565
B35 Pr2 2.805426 1_465
B35 Pr11 2.817745 1_555
C0 C19 1.355345 1_555
C0 C38 1.366477 1_554
C0 Pr2 2.716104 1_555
C0 Pr15 2.819838 1_555
C0 Pr34 2.957503 1_654
C0 Pr39 3.345828 1_554
C1 Pr5 2.577556 1_555
C1 Pr26 2.661265 1_555
C1 Pr7 2.680887 1_555
C1 Pr18 2.727354 1_555
C1 Pr0 2.749246 1_565
C2 C43 1.355345 1_555
C2 C20 1.366477 1_555
C2 Pr28 2.716104 1_555
C2 Pr17 2.819838 1_555
C2 Pr20 2.957503 1_545
C2 Pr36 3.345828 1_555
C3 Pr1 2.635543 1_555
C3 Pr13 2.664963 1_555
C3 Pr34 2.731520 1_555
C3 Pr39 2.914480 1_555
C3 Pr15 3.062152 1_556
C4 Pr33 2.771325 1_555
C4 Pr36 2.803776 1_555
C4 Pr14 2.805764 1_545
C5 Pr36 2.627276 1_555
C5 Pr4 2.651053 1_555
C5 Pr5 2.662763 1_545
C5 Pr25 2.719833 1_555
C5 Pr22 2.765907 1_555
C6 Pr32 2.743274 1_455
C6 Pr28 2.880770 1_465
C6 Pr38 2.965815 1_555
C6 Pr14 2.969070 1_555
C7 Pr13 2.577556 1_554
C7 Pr2 2.661265 1_555
C7 Pr15 2.680887 1_555
C7 Pr11 2.727354 1_545
C7 Pr35 2.749246 1_555
C8 Pr37 2.743274 1_555
C8 Pr6 2.880770 1_555
C8 Pr23 2.965815 1_565
C8 Pr10 2.969070 1_555
C9 Pr35 2.743274 1_565
C9 Pr2 2.880770 1_465
C9 Pr11 2.965815 1_555
C9 Pr8 2.969070 1_554
C10 Pr24 2.577556 1_555
C10 Pr4 2.661265 1_555
C10 Pr25 2.680887 1_555
C10 Pr9 2.727354 1_555
C10 Pr22 2.749246 1_455
C11 C41 1.355345 1_555
C11 C9 1.366477 1_556
C11 Pr8 2.716104 1_555
C11 Pr1 2.819838 1_555
C11 Pr35 2.957503 1_566
C11 Pr11 3.345828 1_556
C12 Pr19 2.577556 1_555
C12 Pr10 2.661265 1_555
C12 Pr16 2.680887 1_555
C12 Pr12 2.727354 1_555
C12 Pr30 2.749246 1_655
C13 Pr16 2.771325 1_545
C13 Pr12 2.803776 1_555
C13 Pr10 2.805764 1_555
C14 C44 1.355345 1_555
C14 C24 1.366477 1_555
C14 Pr26 2.716104 1_555
C14 Pr7 2.819838 1_555
C14 Pr22 2.957503 1_555
C14 Pr9 3.345828 1_655
C15 Pr27 2.577556 1_556
C15 Pr8 2.661265 1_555
C15 Pr1 2.680887 1_555
C15 Pr39 2.727354 1_455
C15 Pr34 2.749246 1_555
C16 Pr7 2.771325 1_455
C16 Pr18 2.803776 1_555
C16 Pr26 2.805764 1_555
C17 C25 1.366477 1_555
C17 Pr0 2.743274 1_555
C17 Pr26 2.880770 1_555
C17 Pr18 2.965815 1_545
C17 Pr4 2.969070 1_555
C18 C23 1.355345 1_555
C18 Pr38 2.627276 1_555
C18 Pr6 2.651053 1_555
C18 Pr19 2.662763 1_455
C18 Pr29 2.719833 1_555
C18 Pr37 2.765907 1_555
C19 Pr12 2.627276 1_555
C19 Pr2 2.651053 1_555
C19 Pr27 2.662763 1_655
C19 Pr15 2.719833 1_555
C19 Pr35 2.765907 1_655
C20 Pr20 2.743274 1_545
C20 Pr14 2.880770 1_645
C20 Pr36 2.965815 1_555
C20 Pr28 2.969070 1_555
C21 Pr29 2.771325 1_655
C21 Pr23 2.803776 1_555
C21 Pr6 2.805764 1_555
C22 Pr15 2.771325 1_555
C22 Pr11 2.803776 1_555
C22 Pr2 2.805764 1_565
C23 C35 1.366477 1_555
C23 Pr6 2.716104 1_555
C23 Pr29 2.819838 1_555
C23 Pr30 2.957503 1_555
C23 Pr12 3.345828 1_455
C24 Pr22 2.743274 1_555
C24 Pr4 2.880770 1_555
C24 Pr9 2.965815 1_655
C24 Pr26 2.969070 1_555
C25 C5 1.355345 1_555
C25 Pr4 2.716104 1_555
C25 Pr25 2.819838 1_555
C25 Pr0 2.957503 1_555
C25 Pr18 3.345828 1_545
C26 Pr29 2.635543 1_665
C26 Pr19 2.664963 1_555
C26 Pr37 2.731520 1_655
C26 Pr23 2.914480 1_565
C26 Pr16 3.062152 1_555
C27 Pr16 2.635543 1_445
C27 Pr3 2.664963 1_555
C27 Pr30 2.731520 1_545
C27 Pr12 2.914480 1_455
C27 Pr29 3.062152 1_555
C28 Pr1 2.771325 1_555
C28 Pr39 2.803776 1_555
C28 Pr8 2.805764 1_655
C29 Pr15 2.635543 1_555
C29 Pr27 2.664963 1_555
C29 Pr35 2.731520 1_555
C29 Pr11 2.914480 1_555
C29 Pr1 3.062152 1_554
C30 Pr25 2.771325 1_565
C30 Pr9 2.803776 1_555
C30 Pr4 2.805764 1_555
C31 C34 1.355345 1_555
C31 Pr11 2.627276 1_555
C31 Pr10 2.651053 1_555
C31 Pr3 2.662763 1_565
C31 Pr16 2.719833 1_555
C31 Pr30 2.765907 1_555
C32 C47 1.355345 1_555
C32 C6 1.366477 1_555
C32 Pr14 2.716104 1_555
C32 Pr33 2.819838 1_555
C32 Pr32 2.957503 1_455
C32 Pr38 3.345828 1_555
C33 Pr21 2.577556 1_555
C33 Pr28 2.661265 1_555
C33 Pr17 2.680887 1_555
C33 Pr38 2.727354 1_655
C33 Pr32 2.749246 1_555
C34 C8 1.366477 1_555
C34 Pr10 2.716104 1_555
C34 Pr16 2.819838 1_555
C34 Pr37 2.957503 1_555
C34 Pr23 3.345828 1_565
C35 Pr30 2.743274 1_555
C35 Pr10 2.880770 1_555
C35 Pr12 2.965815 1_455
C35 Pr6 2.969070 1_555
C36 Pr33 2.635543 1_555
C36 Pr21 2.664963 1_555
C36 Pr20 2.731520 1_555
C36 Pr36 2.914480 1_555
C36 Pr17 3.062152 1_555
C37 Pr7 2.635543 1_445
C37 Pr24 2.664963 1_555
C37 Pr0 2.731520 1_455
C37 Pr18 2.914480 1_545
C37 Pr25 3.062152 1_555
C38 Pr34 2.743274 1_655
C38 Pr8 2.880770 1_645
C38 Pr39 2.965815 1_555
C38 Pr2 2.969070 1_556
C39 Pr25 2.635543 1_665
C39 Pr5 2.664963 1_555
C39 Pr22 2.731520 1_565
C39 Pr9 2.914480 1_655
C39 Pr7 3.062152 1_555
C40 Pr17 2.771325 1_555
C40 Pr38 2.803776 1_555
C40 Pr28 2.805764 1_455
C41 Pr18 2.627276 1_555
C41 Pr8 2.651053 1_555
C41 Pr13 2.662763 1_565
C41 Pr1 2.719833 1_555
C41 Pr34 2.765907 1_565
C42 Pr31 2.577556 1_555
C42 Pr14 2.661265 1_555
C42 Pr33 2.680887 1_555
C42 Pr36 2.727354 1_565
C42 Pr20 2.749246 1_555
C43 Pr23 2.627276 1_555
C43 Pr28 2.651053 1_555
C43 Pr31 2.662763 1_545
C43 Pr17 2.719833 1_555
C43 Pr32 2.765907 1_545
C44 Pr39 2.627276 1_555
C44 Pr26 2.651053 1_555
C44 Pr24 2.662763 1_655
C44 Pr7 2.719833 1_555
C44 Pr0 2.765907 1_555
C45 Pr3 2.577556 1_555
C45 Pr6 2.661265 1_555
C45 Pr29 2.680887 1_555
C45 Pr23 2.727354 1_555
C45 Pr37 2.749246 1_545
C46 Pr17 2.635543 1_555
C46 Pr31 2.664963 1_555
C46 Pr32 2.731520 1_555
C46 Pr38 2.914480 1_555
C46 Pr33 3.062152 1_555
C47 Pr9 2.627276 1_555
C47 Pr14 2.651053 1_555
C47 Pr21 2.662763 1_455
C47 Pr33 2.719833 1_555
C47 Pr20 2.765907 1_455
