# generated using pymatgen
data_LiBH2
_symmetry_space_group_name_H-M   'P 1'
_cell_length_a   3.03507200
_cell_length_b   5.62219400
_cell_length_c   8.21698800
_cell_angle_alpha   90.00000000
_cell_angle_beta   90.00000000
_cell_angle_gamma   90.00000000
_symmetry_Int_Tables_number   1
_chemical_formula_structural   LiBH2
_chemical_formula_sum   'Li4 B4 H8'
_cell_volume   140.21274064
_cell_formula_units_Z   4
loop_
 _symmetry_equiv_pos_site_id
 _symmetry_equiv_pos_as_xyz
  1  'x, y, z'
loop_
 _atom_site_type_symbol
 _atom_site_label
 _atom_site_symmetry_multiplicity
 _atom_site_fract_x
 _atom_site_fract_y
 _atom_site_fract_z
 _atom_site_occupancy
  Li  Li0  1  0.75000000  0.85017600  0.76180900  1
  Li  Li1  1  0.75000000  0.64982400  0.26180900  1
  Li  Li2  1  0.25000000  0.35017600  0.73819100  1
  Li  Li3  1  0.25000000  0.14982400  0.23819100  1
  B  B0  1  0.25000000  0.42225200  0.45555400  1
  B  B1  1  0.25000000  0.07774800  0.95555400  1
  B  B2  1  0.75000000  0.92225200  0.04444600  1
  B  B3  1  0.75000000  0.57774800  0.54444600  1
  H  H0  1  0.75000000  0.43266900  0.41052900  1
  H  H1  1  0.75000000  0.72027500  0.98678100  1
  H  H2  1  0.25000000  0.27972500  0.01321900  1
  H  H3  1  0.25000000  0.22027500  0.51321900  1
  H  H4  1  0.25000000  0.56733100  0.58947100  1
  H  H5  1  0.75000000  0.77972500  0.48678100  1
  H  H6  1  0.25000000  0.93266900  0.08947100  1
  H  H7  1  0.75000000  0.06733100  0.91052900  1
loop_
_geom_bond_atom_site_label_1
_geom_bond_atom_site_label_2
_geom_bond_distance
_geom_bond_site_symmetry_2
B0 H3 1.230447 1_555
B0 H4 1.369735 1_555
B0 H0 1.563081 1_555
B0 H0 1.563081 1_455
B1 H2 1.230447 1_556
B1 H6 1.369735 1_546
B1 H7 1.563081 1_455
B1 H7 1.563081 1_555
B2 H1 1.230447 1_554
B2 H7 1.369735 1_564
B2 H6 1.563081 1_655
B2 H6 1.563081 1_555
B3 H5 1.230447 1_555
B3 H0 1.369735 1_555
B3 H4 1.563081 1_655
B3 H4 1.563081 1_555
H0 Li1 1.727404 1_555
H1 Li0 1.987630 1_555
H2 Li3 1.987630 1_555
H3 Li2 1.987630 1_555
H4 Li2 1.727404 1_555
H5 Li1 1.987630 1_555
H6 Li3 1.727404 1_565
H7 Li0 1.727404 1_545
