# generated using pymatgen
data_SrTb2Fe2O7
_symmetry_space_group_name_H-M   'P 1'
_cell_length_a   5.59217600
_cell_length_b   5.59217600
_cell_length_c   19.60833800
_cell_angle_alpha   90.00000000
_cell_angle_beta   90.00000000
_cell_angle_gamma   90.00000000
_symmetry_Int_Tables_number   1
_chemical_formula_structural   SrTb2Fe2O7
_chemical_formula_sum   'Sr4 Tb8 Fe8 O28'
_cell_volume   613.20042488
_cell_formula_units_Z   4
loop_
 _symmetry_equiv_pos_site_id
 _symmetry_equiv_pos_as_xyz
  1  'x, y, z'
loop_
 _atom_site_type_symbol
 _atom_site_label
 _atom_site_symmetry_multiplicity
 _atom_site_fract_x
 _atom_site_fract_y
 _atom_site_fract_z
 _atom_site_occupancy
  Sr  Sr0  1  0.25934600  0.25934600  0.00000000  1
  Sr  Sr1  1  0.24065400  0.75934600  0.50000000  1
  Sr  Sr2  1  0.75934600  0.24065400  0.50000000  1
  Sr  Sr3  1  0.74065400  0.74065400  0.00000000  1
  Tb  Tb0  1  0.27715300  0.27715300  0.18343200  1
  Tb  Tb1  1  0.22284700  0.77715300  0.68343200  1
  Tb  Tb2  1  0.77715300  0.22284700  0.68343200  1
  Tb  Tb3  1  0.77715300  0.22284700  0.31656800  1
  Tb  Tb4  1  0.22284700  0.77715300  0.31656800  1
  Tb  Tb5  1  0.72284700  0.72284700  0.18343200  1
  Tb  Tb6  1  0.27715300  0.27715300  0.81656800  1
  Tb  Tb7  1  0.72284700  0.72284700  0.81656800  1
  Fe  Fe0  1  0.25830200  0.25830200  0.39913000  1
  Fe  Fe1  1  0.24169800  0.75830200  0.89913000  1
  Fe  Fe2  1  0.75830200  0.24169800  0.89913000  1
  Fe  Fe3  1  0.75830200  0.24169800  0.10087000  1
  Fe  Fe4  1  0.24169800  0.75830200  0.10087000  1
  Fe  Fe5  1  0.74169800  0.74169800  0.39913000  1
  Fe  Fe6  1  0.25830200  0.25830200  0.60087000  1
  Fe  Fe7  1  0.74169800  0.74169800  0.60087000  1
  O  O0  1  0.70489800  0.70489800  0.50000000  1
  O  O1  1  0.79510200  0.20489800  0.00000000  1
  O  O2  1  0.20489800  0.79510200  0.00000000  1
  O  O3  1  0.29510200  0.29510200  0.50000000  1
  O  O4  1  0.18561000  0.18561000  0.28963000  1
  O  O5  1  0.31439000  0.68561000  0.78963000  1
  O  O6  1  0.68561000  0.31439000  0.78963000  1
  O  O7  1  0.68561000  0.31439000  0.21037000  1
  O  O8  1  0.31439000  0.68561000  0.21037000  1
  O  O9  1  0.81439000  0.81439000  0.28963000  1
  O  O10  1  0.18561000  0.18561000  0.71037000  1
  O  O11  1  0.81439000  0.81439000  0.71037000  1
  O  O12  1  0.00000000  0.50000000  0.11248900  1
  O  O13  1  0.00000000  0.50000000  0.61248900  1
  O  O14  1  0.50000000  0.00000000  0.38751100  1
  O  O15  1  0.50000000  0.00000000  0.88751100  1
  O  O16  1  0.00000000  0.50000000  0.88751100  1
  O  O17  1  0.00000000  0.50000000  0.38751100  1
  O  O18  1  0.50000000  0.00000000  0.61248900  1
  O  O19  1  0.50000000  0.00000000  0.11248900  1
  O  O20  1  0.00000000  0.00000000  0.13108400  1
  O  O21  1  0.50000000  0.50000000  0.63108500  1
  O  O22  1  0.50000000  0.50000000  0.36891600  1
  O  O23  1  0.00000000  0.00000000  0.86891500  1
  O  O24  1  0.00000000  0.00000000  0.40976200  1
  O  O25  1  0.50000000  0.50000000  0.90976200  1
  O  O26  1  0.50000000  0.50000000  0.09023800  1
  O  O27  1  0.00000000  0.00000000  0.59023800  1
loop_
_geom_bond_atom_site_label_1
_geom_bond_atom_site_label_2
_geom_bond_distance
_geom_bond_site_symmetry_2
Fe0 O17 1.991299 1_555
Fe0 O14 1.991299 1_555
Fe0 O3 1.999190 1_555
Fe0 O22 2.001183 1_555
Fe0 O24 2.053400 1_555
Fe0 O4 2.222744 1_555
Fe1 O15 1.991299 1_565
Fe1 O16 1.991299 1_555
Fe1 O2 1.999190 1_556
Fe1 O23 2.001189 1_565
Fe1 O25 2.053400 1_555
Fe1 O5 2.222744 1_555
Fe2 O15 1.991299 1_555
Fe2 O16 1.991299 1_655
Fe2 O1 1.999190 1_556
Fe2 O23 2.001189 1_655
Fe2 O25 2.053400 1_555
Fe2 O6 2.222744 1_555
Fe3 O19 1.991299 1_555
Fe3 O12 1.991299 1_655
Fe3 O1 1.999190 1_555
Fe3 O20 2.001183 1_655
Fe3 O26 2.053400 1_555
Fe3 O7 2.222744 1_555
Fe4 O19 1.991299 1_565
Fe4 O12 1.991299 1_555
Fe4 O2 1.999190 1_555
Fe4 O20 2.001183 1_565
Fe4 O26 2.053400 1_555
Fe4 O8 2.222744 1_555
Fe5 O14 1.991299 1_565
Fe5 O17 1.991299 1_655
Fe5 O0 1.999190 1_555
Fe5 O22 2.001183 1_555
Fe5 O24 2.053400 1_665
Fe5 O9 2.222744 1_555
Fe6 O13 1.991299 1_555
Fe6 O18 1.991299 1_555
Fe6 O3 1.999190 1_555
Fe6 O21 2.001189 1_555
Fe6 O27 2.053400 1_555
Fe6 O10 2.222744 1_555
Fe7 O18 1.991299 1_565
Fe7 O13 1.991299 1_655
Fe7 O0 1.999190 1_555
Fe7 O21 2.001189 1_555
Fe7 O27 2.053400 1_665
Fe7 O11 2.222744 1_555
O0 Sr1 2.613929 1_555
O0 Sr2 2.613929 1_555
O0 Sr1 3.011474 1_655
O0 Sr2 3.011474 1_565
O1 Sr3 2.613929 1_545
O1 Sr0 2.613929 1_655
O1 Sr0 3.011474 1_555
O1 Sr3 3.011474 1_555
O2 Sr3 2.613929 1_455
O2 Sr0 2.613929 1_565
O2 Sr0 3.011474 1_555
O2 Sr3 3.011474 1_555
O3 Sr1 2.613929 1_555
O3 Sr2 2.613929 1_555
O3 Sr2 3.011474 1_455
O3 Sr1 3.011474 1_545
O4 Tb0 2.204628 1_555
O4 Tb3 2.353672 1_455
O4 Tb4 2.353672 1_545
O5 Tb1 2.204628 1_555
O5 Tb7 2.353672 1_555
O5 Tb6 2.353672 1_555
O6 Tb2 2.204628 1_555
O6 Tb7 2.353672 1_555
O6 Tb6 2.353672 1_555
O7 Tb3 2.204628 1_555
O7 Tb5 2.353672 1_555
O7 Tb0 2.353672 1_555
O8 Tb4 2.204628 1_555
O8 Tb5 2.353672 1_555
O8 Tb0 2.353672 1_555
O9 Tb5 2.204628 1_555
O9 Tb4 2.353672 1_655
O9 Tb3 2.353672 1_565
O10 Tb6 2.204628 1_555
O10 Tb2 2.353672 1_455
O10 Tb1 2.353672 1_545
O11 Tb7 2.204628 1_555
O11 Tb2 2.353672 1_565
O11 Tb1 2.353672 1_655
O12 Tb5 2.426985 1_455
O12 Tb0 2.426985 1_555
O12 Sr0 2.963061 1_555
O12 Sr3 2.963061 1_455
O13 Tb1 2.426985 1_555
O13 Tb2 2.426985 1_455
O13 Sr1 2.963061 1_555
O13 Sr2 2.963061 1_455
O14 Tb4 2.426985 1_545
O14 Tb3 2.426985 1_555
O14 Sr1 2.963061 1_545
O14 Sr2 2.963061 1_555
O15 Tb7 2.426985 1_545
O15 Tb6 2.426985 1_555
O15 Sr3 2.963061 1_546
O15 Sr0 2.963061 1_556
O16 Tb7 2.426985 1_455
O16 Tb6 2.426985 1_555
O16 Sr3 2.963061 1_456
O16 Sr0 2.963061 1_556
O17 Tb3 2.426985 1_455
O17 Tb4 2.426985 1_555
O17 Sr2 2.963061 1_455
O17 Sr1 2.963061 1_555
O18 Tb2 2.426985 1_555
O18 Tb1 2.426985 1_545
O18 Sr2 2.963061 1_555
O18 Sr1 2.963061 1_545
O19 Tb5 2.426985 1_545
O19 Tb0 2.426985 1_555
O19 Sr3 2.963061 1_545
O19 Sr0 2.963061 1_555
O20 Tb5 2.420315 1_445
O20 Tb0 2.420315 1_555
O21 Tb1 2.420306 1_555
O21 Tb2 2.420306 1_555
O22 Tb4 2.420315 1_555
O22 Tb3 2.420315 1_555
O23 Tb6 2.420306 1_555
O23 Tb7 2.420306 1_445
O24 Tb4 2.538768 1_545
O24 Tb3 2.538768 1_455
O24 Sr1 2.598669 1_545
O24 Sr2 2.598669 1_455
O25 Tb7 2.538768 1_555
O25 Tb6 2.538768 1_555
O25 Sr0 2.598669 1_556
O25 Sr3 2.598669 1_556
O26 Tb0 2.538768 1_555
O26 Tb5 2.538768 1_555
O26 Sr3 2.598669 1_555
O26 Sr0 2.598669 1_555
O27 Tb2 2.538768 1_455
O27 Tb1 2.538768 1_545
O27 Sr1 2.598669 1_545
O27 Sr2 2.598669 1_455
