# generated using pymatgen
data_Rb3Sb5O14
_symmetry_space_group_name_H-M   'P 1'
_cell_length_a   7.21179496
_cell_length_b   7.38862348
_cell_length_c   24.57768858
_cell_angle_alpha   90.00000000
_cell_angle_beta   90.00000000
_cell_angle_gamma   90.00000000
_symmetry_Int_Tables_number   1
_chemical_formula_structural   Rb3Sb5O14
_chemical_formula_sum   'Rb12 Sb20 O56'
_cell_volume   1309.62797501
_cell_formula_units_Z   4
loop_
 _symmetry_equiv_pos_site_id
 _symmetry_equiv_pos_as_xyz
  1  'x, y, z'
loop_
 _atom_site_type_symbol
 _atom_site_label
 _atom_site_symmetry_multiplicity
 _atom_site_fract_x
 _atom_site_fract_y
 _atom_site_fract_z
 _atom_site_occupancy
  Rb  Rb0  1  0.27125675  0.50000000  0.01355228  1
  Rb  Rb1  1  0.10740268  0.50000000  0.88623602  1
  Rb  Rb2  1  0.89443399  0.00000000  0.20814736  1
  Rb  Rb3  1  0.22874325  0.50000000  0.51355228  1
  Rb  Rb4  1  0.39259732  0.50000000  0.38623602  1
  Rb  Rb5  1  0.72874325  0.50000000  0.98644772  1
  Rb  Rb6  1  0.60740268  0.50000000  0.61376398  1
  Rb  Rb7  1  0.89259732  0.50000000  0.11376398  1
  Rb  Rb8  1  0.77125675  0.50000000  0.48644772  1
  Rb  Rb9  1  0.60556601  0.00000000  0.70814736  1
  Rb  Rb10  1  0.10556601  0.00000000  0.79185264  1
  Rb  Rb11  1  0.39443399  0.00000000  0.29185264  1
  Sb  Sb0  1  0.11165309  0.26340160  0.64566484  1
  Sb  Sb1  1  0.61165309  0.73659840  0.85433516  1
  Sb  Sb2  1  0.09156084  0.00000000  0.43775347  1
  Sb  Sb3  1  0.32998767  0.50000000  0.75561068  1
  Sb  Sb4  1  0.17001233  0.50000000  0.25561068  1
  Sb  Sb5  1  0.67001233  0.50000000  0.24438932  1
  Sb  Sb6  1  0.11165309  0.73659840  0.64566484  1
  Sb  Sb7  1  0.41744089  0.00000000  0.55667076  1
  Sb  Sb8  1  0.61165309  0.26340160  0.85433516  1
  Sb  Sb9  1  0.59156084  0.00000000  0.06224653  1
  Sb  Sb10  1  0.82998767  0.50000000  0.74438932  1
  Sb  Sb11  1  0.38834691  0.26340160  0.14566484  1
  Sb  Sb12  1  0.08255911  0.00000000  0.05667076  1
  Sb  Sb13  1  0.58255911  0.00000000  0.44332924  1
  Sb  Sb14  1  0.90843916  0.00000000  0.56224653  1
  Sb  Sb15  1  0.88834691  0.26340160  0.35433516  1
  Sb  Sb16  1  0.38834691  0.73659840  0.14566484  1
  Sb  Sb17  1  0.88834691  0.73659840  0.35433516  1
  Sb  Sb18  1  0.40843916  0.00000000  0.93775347  1
  Sb  Sb19  1  0.91744089  0.00000000  0.94332924  1
  O  O0  1  0.04488095  0.25410565  0.42503144  1
  O  O1  1  0.53130650  0.00000000  0.85692361  1
  O  O2  1  0.83614731  0.80457256  0.89708017  1
  O  O3  1  0.95511905  0.74589435  0.57496856  1
  O  O4  1  0.32171556  0.50000000  0.12058516  1
  O  O5  1  0.26853675  0.27839132  0.70998275  1
  O  O6  1  0.88505618  0.31504942  0.68672778  1
  O  O7  1  0.17828444  0.50000000  0.62058516  1
  O  O8  1  0.73146325  0.72160868  0.29001725  1
  O  O9  1  0.04488095  0.74589435  0.42503144  1
  O  O10  1  0.92848119  0.50000000  0.22008260  1
  O  O11  1  0.66385269  0.19542744  0.39708017  1
  O  O12  1  0.66033099  0.00000000  0.98277254  1
  O  O13  1  0.46869350  0.00000000  0.14307639  1
  O  O14  1  0.11494382  0.68495058  0.31327222  1
  O  O15  1  0.66385269  0.80457256  0.39708017  1
  O  O16  1  0.33966901  0.00000000  0.01722746  1
  O  O17  1  0.16200272  0.00000000  0.90785267  1
  O  O18  1  0.45511905  0.25410565  0.92503144  1
  O  O19  1  0.42848119  0.50000000  0.27991740  1
  O  O20  1  0.33799728  0.00000000  0.40785267  1
  O  O21  1  0.23146325  0.72160868  0.20998275  1
  O  O22  1  0.76853675  0.27839132  0.79001725  1
  O  O23  1  0.45511905  0.74589435  0.92503144  1
  O  O24  1  0.61494382  0.31504942  0.18672778  1
  O  O25  1  0.38505618  0.31504942  0.81327222  1
  O  O26  1  0.00000000  0.82241218  -0.00000000  1
  O  O27  1  0.00000000  0.17758782  -0.00000000  1
  O  O28  1  0.61494382  0.68495058  0.18672778  1
  O  O29  1  0.83966901  0.00000000  0.48277254  1
  O  O30  1  0.16385269  0.80457256  0.10291983  1
  O  O31  1  0.33614731  0.80457256  0.60291983  1
  O  O32  1  0.33614731  0.19542744  0.60291983  1
  O  O33  1  0.76853675  0.72160868  0.79001725  1
  O  O34  1  0.66200272  0.00000000  0.59214733  1
  O  O35  1  0.54488095  0.25410565  0.07496856  1
  O  O36  1  0.16033099  0.00000000  0.51722746  1
  O  O37  1  0.50000000  0.82241218  0.50000000  1
  O  O38  1  0.83799728  0.00000000  0.09214733  1
  O  O39  1  0.67828444  0.50000000  0.87941484  1
  O  O40  1  0.88505618  0.68495058  0.68672778  1
  O  O41  1  0.16385269  0.19542744  0.10291983  1
  O  O42  1  0.57151881  0.50000000  0.72008260  1
  O  O43  1  0.03130650  0.00000000  0.64307639  1
  O  O44  1  0.96869350  0.00000000  0.35692361  1
  O  O45  1  0.95511905  0.25410565  0.57496856  1
  O  O46  1  0.23146325  0.27839132  0.20998275  1
  O  O47  1  0.07151881  0.50000000  0.77991740  1
  O  O48  1  0.83614731  0.19542744  0.89708017  1
  O  O49  1  0.82171556  0.50000000  0.37941484  1
  O  O50  1  0.73146325  0.27839132  0.29001725  1
  O  O51  1  0.11494382  0.31504942  0.31327222  1
  O  O52  1  0.38505618  0.68495058  0.81327222  1
  O  O53  1  0.50000000  0.17758782  0.50000000  1
  O  O54  1  0.26853675  0.72160868  0.70998275  1
  O  O55  1  0.54488095  0.74589435  0.07496856  1
loop_
_geom_bond_atom_site_label_1
_geom_bond_atom_site_label_2
_geom_bond_distance
_geom_bond_site_symmetry_2
O0 Sb2 1.932892 1_555
O0 Sb15 2.073209 1_455
O0 Rb8 3.077879 1_455
O0 Rb3 3.129289 1_555
O0 Rb4 3.240117 1_555
O1 Sb1 2.031600 1_545
O1 Sb8 2.031600 1_555
O1 Sb18 2.175267 1_555
O2 Sb19 1.928926 1_565
O2 Sb1 1.994273 1_555
O2 Rb1 2.993673 1_655
O2 Rb5 3.238599 1_555
O3 Sb14 1.932892 1_565
O3 Sb6 2.073209 1_655
O3 Rb3 3.077879 1_655
O3 Rb8 3.129289 1_555
O3 Rb6 3.240117 1_555
O4 Sb16 1.914900 1_555
O4 Sb11 1.914900 1_555
O4 Rb0 2.655671 1_555
O4 Rb7 3.099250 1_455
O5 Sb0 1.947112 1_555
O5 Sb3 2.033477 1_555
O5 Rb10 3.108239 1_555
O5 Rb9 3.184453 1_555
O6 Sb0 1.958235 1_655
O6 Sb10 2.008369 1_555
O6 Rb6 3.015425 1_555
O6 Rb9 3.123853 1_555
O7 Sb6 1.914900 1_555
O7 Sb0 1.914900 1_555
O7 Rb3 2.655671 1_555
O7 Rb6 3.099250 1_555
O8 Sb17 1.947112 1_555
O8 Sb5 2.033477 1_555
O8 Rb2 3.108239 1_565
O8 Rb11 3.184453 1_565
O9 Sb2 1.932892 1_565
O9 Sb17 2.073209 1_455
O9 Rb8 3.077879 1_455
O9 Rb3 3.129289 1_555
O9 Rb4 3.240117 1_555
O10 Sb4 1.948486 1_655
O10 Sb5 1.957416 1_555
O10 Rb7 2.625849 1_555
O11 Sb13 1.928926 1_555
O11 Sb15 1.994273 1_555
O11 Rb4 2.993673 1_555
O11 Rb8 3.238599 1_555
O12 Sb9 2.015267 1_556
O12 Sb19 2.092351 1_555
O12 Sb18 2.127033 1_555
O13 Sb11 2.031600 1_555
O13 Sb16 2.031600 1_545
O13 Sb9 2.175267 1_555
O14 Sb17 1.958235 1_455
O14 Sb4 2.008369 1_555
O14 Rb4 3.015425 1_555
O14 Rb11 3.123853 1_565
O15 Sb13 1.928926 1_565
O15 Sb17 1.994273 1_555
O15 Rb4 2.993673 1_555
O15 Rb8 3.238599 1_555
O16 Sb18 2.015267 1_554
O16 Sb12 2.092351 1_555
O16 Sb9 2.127033 1_555
O17 Sb18 1.923196 1_555
O17 Sb19 1.967488 1_455
O17 Rb10 2.879918 1_555
O18 Sb18 1.932892 1_555
O18 Sb8 2.073209 1_555
O18 Rb5 3.077879 1_555
O18 Rb0 3.129289 1_556
O18 Rb1 3.240117 1_555
O19 Sb5 1.948486 1_555
O19 Sb4 1.957416 1_555
O19 Rb4 2.625849 1_555
O20 Sb2 1.923196 1_555
O20 Sb13 1.967488 1_555
O20 Rb11 2.879918 1_555
O21 Sb16 1.947112 1_555
O21 Sb4 2.033477 1_555
O21 Rb11 3.108239 1_565
O21 Rb2 3.184453 1_465
O22 Sb8 1.947112 1_555
O22 Sb10 2.033477 1_555
O22 Rb9 3.108239 1_555
O22 Rb10 3.184453 1_655
O23 Sb18 1.932892 1_565
O23 Sb1 2.073209 1_555
O23 Rb5 3.077879 1_555
O23 Rb0 3.129289 1_556
O23 Rb1 3.240117 1_555
O24 Sb11 1.958235 1_555
O24 Sb5 2.008369 1_555
O24 Rb7 3.015425 1_555
O24 Rb2 3.123853 1_555
O25 Sb8 1.958235 1_555
O25 Sb3 2.008369 1_555
O25 Rb1 3.015425 1_555
O25 Rb10 3.123853 1_555
O26 Sb19 2.004040 1_464
O26 Sb12 2.004040 1_565
O26 Rb5 3.100426 1_454
O26 Rb0 3.100426 1_555
O27 Sb19 2.004040 1_454
O27 Sb12 2.004040 1_555
O27 Rb5 3.100426 1_454
O27 Rb0 3.100426 1_555
O28 Sb16 1.958235 1_555
O28 Sb5 2.008369 1_555
O28 Rb7 3.015425 1_555
O28 Rb2 3.123853 1_565
O29 Sb14 2.015267 1_555
O29 Sb13 2.092351 1_555
O29 Sb2 2.127033 1_655
O30 Sb12 1.928926 1_565
O30 Sb16 1.994273 1_555
O30 Rb7 2.993673 1_455
O30 Rb0 3.238599 1_555
O31 Sb7 1.928926 1_565
O31 Sb6 1.994273 1_555
O31 Rb6 2.993673 1_555
O31 Rb3 3.238599 1_555
O32 Sb7 1.928926 1_555
O32 Sb0 1.994273 1_555
O32 Rb6 2.993673 1_555
O32 Rb3 3.238599 1_555
O33 Sb1 1.947112 1_555
O33 Sb10 2.033477 1_555
O33 Rb9 3.108239 1_565
O33 Rb10 3.184453 1_665
O34 Sb14 1.923196 1_555
O34 Sb7 1.967488 1_555
O34 Rb9 2.879918 1_555
O35 Sb9 1.932892 1_555
O35 Sb11 2.073209 1_555
O35 Rb0 3.077879 1_555
O35 Rb5 3.129289 1_554
O35 Rb7 3.240117 1_555
O36 Sb2 2.015267 1_555
O36 Sb7 2.092351 1_555
O36 Sb14 2.127033 1_455
O37 Sb13 2.004040 1_565
O37 Sb7 2.004040 1_565
O37 Rb3 3.100426 1_555
O37 Rb8 3.100426 1_555
O38 Sb9 1.923196 1_555
O38 Sb12 1.967488 1_655
O38 Rb2 2.879918 1_555
O39 Sb8 1.914900 1_555
O39 Sb1 1.914900 1_555
O39 Rb5 2.655671 1_555
O39 Rb1 3.099250 1_655
O40 Sb6 1.958235 1_655
O40 Sb10 2.008369 1_555
O40 Rb6 3.015425 1_555
O40 Rb9 3.123853 1_565
O41 Sb12 1.928926 1_555
O41 Sb11 1.994273 1_555
O41 Rb7 2.993673 1_455
O41 Rb0 3.238599 1_555
O42 Sb3 1.948486 1_555
O42 Sb10 1.957416 1_555
O42 Rb6 2.625849 1_555
O43 Sb6 2.031600 1_545
O43 Sb0 2.031600 1_555
O43 Sb14 2.175267 1_455
O44 Sb17 2.031600 1_545
O44 Sb15 2.031600 1_555
O44 Sb2 2.175267 1_655
O45 Sb14 1.932892 1_555
O45 Sb0 2.073209 1_655
O45 Rb3 3.077879 1_655
O45 Rb8 3.129289 1_555
O45 Rb6 3.240117 1_555
O46 Sb11 1.947112 1_555
O46 Sb4 2.033477 1_555
O46 Rb11 3.108239 1_555
O46 Rb2 3.184453 1_455
O47 Sb10 1.948486 1_455
O47 Sb3 1.957416 1_555
O47 Rb1 2.625849 1_555
O48 Sb19 1.928926 1_555
O48 Sb8 1.994273 1_555
O48 Rb1 2.993673 1_655
O48 Rb5 3.238599 1_555
O49 Sb17 1.914900 1_555
O49 Sb15 1.914900 1_555
O49 Rb8 2.655671 1_555
O49 Rb4 3.099250 1_555
O50 Sb15 1.947112 1_555
O50 Sb5 2.033477 1_555
O50 Rb2 3.108239 1_555
O50 Rb11 3.184453 1_555
O51 Sb15 1.958235 1_455
O51 Sb4 2.008369 1_555
O51 Rb4 3.015425 1_555
O51 Rb11 3.123853 1_555
O52 Sb1 1.958235 1_555
O52 Sb3 2.008369 1_555
O52 Rb1 3.015425 1_555
O52 Rb10 3.123853 1_565
O53 Sb13 2.004040 1_555
O53 Sb7 2.004040 1_555
O53 Rb3 3.100426 1_555
O53 Rb8 3.100426 1_555
O54 Sb6 1.947112 1_555
O54 Sb3 2.033477 1_555
O54 Rb10 3.108239 1_565
O54 Rb9 3.184453 1_565
O55 Sb9 1.932892 1_565
O55 Sb16 2.073209 1_555
O55 Rb0 3.077879 1_555
O55 Rb5 3.129289 1_554
O55 Rb7 3.240117 1_555
