# generated using pymatgen
data_Nd2SnS5
_symmetry_space_group_name_H-M   'P 1'
_cell_length_a   3.92457811
_cell_length_b   7.89388273
_cell_length_c   11.41258076
_cell_angle_alpha   90.00000000
_cell_angle_beta   90.00000000
_cell_angle_gamma   90.00000000
_symmetry_Int_Tables_number   1
_chemical_formula_structural   Nd2SnS5
_chemical_formula_sum   'Nd4 Sn2 S10'
_cell_volume   353.56357071
_cell_formula_units_Z   2
loop_
 _symmetry_equiv_pos_site_id
 _symmetry_equiv_pos_as_xyz
  1  'x, y, z'
loop_
 _atom_site_type_symbol
 _atom_site_label
 _atom_site_symmetry_multiplicity
 _atom_site_fract_x
 _atom_site_fract_y
 _atom_site_fract_z
 _atom_site_occupancy
  Nd  Nd0  1  0.50000000  0.45169509  0.17187972  1
  Nd  Nd1  1  0.50000000  0.04830491  0.67187972  1
  Nd  Nd2  1  0.50000000  0.95169509  0.32812028  1
  Nd  Nd3  1  0.50000000  0.54830491  0.82812028  1
  Sn  Sn0  1  -0.00000000  -0.00000000  0.00000000  1
  Sn  Sn1  1  0.00000000  0.50000000  0.50000000  1
  S  S0  1  0.50000000  0.17642480  0.91579728  1
  S  S1  1  -0.00000000  0.66199856  0.30390863  1
  S  S2  1  0.50000000  0.82357520  0.08420272  1
  S  S3  1  0.00000000  0.83800144  0.80390863  1
  S  S4  1  0.50000000  0.32357520  0.41579728  1
  S  S5  1  -0.00000000  0.16199856  0.19609137  1
  S  S6  1  -0.00000000  0.33800144  0.69609137  1
  S  S7  1  0.50000000  0.67642480  0.58420272  1
  S  S8  1  -0.00000000  -0.00000000  0.50000000  1
  S  S9  1  -0.00000000  0.50000000  0.00000000  1
loop_
_geom_bond_atom_site_label_1
_geom_bond_atom_site_label_2
_geom_bond_distance
_geom_bond_site_symmetry_2
Nd0 S9 2.800682 1_555
Nd0 S9 2.800682 1_655
Nd0 S4 2.961757 1_555
Nd0 S1 2.979424 1_655
Nd0 S1 2.979424 1_555
Nd0 S5 3.025975 1_555
Nd0 S5 3.025975 1_655
Nd0 S2 3.101429 1_555
Nd1 S8 2.800682 1_555
Nd1 S8 2.800682 1_655
Nd1 S0 2.961757 1_555
Nd1 S3 2.979424 1_545
Nd1 S3 2.979424 1_645
Nd1 S6 3.025975 1_655
Nd1 S6 3.025975 1_555
Nd1 S7 3.101429 1_545
Nd2 S8 2.800682 1_665
Nd2 S8 2.800682 1_565
Nd2 S2 2.961757 1_555
Nd2 S5 2.979424 1_665
Nd2 S5 2.979424 1_565
Nd2 S1 3.025975 1_655
Nd2 S1 3.025975 1_555
Nd2 S4 3.101429 1_565
Nd3 S9 2.800682 1_556
Nd3 S9 2.800682 1_656
Nd3 S7 2.961757 1_555
Nd3 S6 2.979424 1_655
Nd3 S6 2.979424 1_555
Nd3 S3 3.025975 1_655
Nd3 S3 3.025975 1_555
Nd3 S0 3.101429 1_555
S0 Sn0 2.591060 1_656
S0 Sn0 2.591060 1_556
S1 Sn1 2.577510 1_555
S2 Sn0 2.591060 1_565
S2 Sn0 2.591060 1_665
S3 Sn0 2.577510 1_566
S4 Sn1 2.591060 1_555
S4 Sn1 2.591060 1_655
S5 Sn0 2.577510 1_555
S6 Sn1 2.577510 1_555
S7 Sn1 2.591060 1_555
S7 Sn1 2.591060 1_655
