# generated using pymatgen
data_Ba5Re3BrO15
_symmetry_space_group_name_H-M   'P 1'
_cell_length_a   11.17859813
_cell_length_b   11.17859813
_cell_length_c   7.95533500
_cell_angle_alpha   90.00000000
_cell_angle_beta   90.00000000
_cell_angle_gamma   120.00000079
_symmetry_Int_Tables_number   1
_chemical_formula_structural   Ba5Re3BrO15
_chemical_formula_sum   'Ba10 Re6 Br2 O30'
_cell_volume   860.92196481
_cell_formula_units_Z   2
loop_
 _symmetry_equiv_pos_site_id
 _symmetry_equiv_pos_as_xyz
  1  'x, y, z'
loop_
 _atom_site_type_symbol
 _atom_site_label
 _atom_site_symmetry_multiplicity
 _atom_site_fract_x
 _atom_site_fract_y
 _atom_site_fract_z
 _atom_site_occupancy
  Ba  Ba0  1  0.00000000  0.26827300  0.74295400  1
  Ba  Ba1  1  0.33333300  0.66666700  0.00341200  1
  Ba  Ba2  1  0.26827300  0.26827300  0.24295400  1
  Ba  Ba3  1  0.73172700  0.73172700  0.74295400  1
  Ba  Ba4  1  0.66666700  0.33333300  0.00341200  1
  Ba  Ba5  1  0.73172700  0.00000000  0.24295400  1
  Ba  Ba6  1  0.66666700  0.33333300  0.50341200  1
  Ba  Ba7  1  0.33333300  0.66666700  0.50341200  1
  Ba  Ba8  1  0.26827300  0.00000000  0.74295400  1
  Ba  Ba9  1  0.00000000  0.73172700  0.24295400  1
  Re  Re0  1  0.60779000  0.60779000  0.29880100  1
  Re  Re1  1  0.60779000  0.00000000  0.79880100  1
  Re  Re2  1  0.39221000  0.00000000  0.29880100  1
  Re  Re3  1  0.00000000  0.39221000  0.29880100  1
  Re  Re4  1  0.00000000  0.60779000  0.79880100  1
  Re  Re5  1  0.39221000  0.39221000  0.79880100  1
  Br  Br0  1  0.00000000  0.00000000  0.97065200  1
  Br  Br1  1  0.00000000  0.00000000  0.47065200  1
  O  O0  1  0.13031200  0.55268800  0.75972900  1
  O  O1  1  0.60973400  0.86880200  0.93874100  1
  O  O2  1  0.86880200  0.25906800  0.43874100  1
  O  O3  1  0.74093200  0.60973400  0.43874100  1
  O  O4  1  0.39026600  0.25906800  0.93874100  1
  O  O5  1  0.00000000  0.29929900  0.11991400  1
  O  O6  1  0.57762300  0.44731200  0.75972900  1
  O  O7  1  0.42237700  0.86968800  0.75972900  1
  O  O8  1  0.13119800  0.74093200  0.93874100  1
  O  O9  1  0.44731200  0.86968800  0.25972900  1
  O  O10  1  0.86880200  0.60973400  0.93874100  1
  O  O11  1  0.70070100  0.00000000  0.61991400  1
  O  O12  1  0.44731200  0.57762300  0.75972900  1
  O  O13  1  0.13119800  0.39026600  0.43874100  1
  O  O14  1  0.86968800  0.42237700  0.75972900  1
  O  O15  1  0.25906800  0.86880200  0.43874100  1
  O  O16  1  0.29929900  0.00000000  0.11991400  1
  O  O17  1  0.57762300  0.13031200  0.25972900  1
  O  O18  1  0.00000000  0.70070100  0.61991400  1
  O  O19  1  0.39026600  0.13119800  0.43874100  1
  O  O20  1  0.42237700  0.55268800  0.25972900  1
  O  O21  1  0.55268800  0.42237700  0.25972900  1
  O  O22  1  0.13031200  0.57762300  0.25972900  1
  O  O23  1  0.86968800  0.44731200  0.25972900  1
  O  O24  1  0.60973400  0.74093200  0.43874100  1
  O  O25  1  0.70070100  0.70070100  0.11991400  1
  O  O26  1  0.74093200  0.13119800  0.93874100  1
  O  O27  1  0.55268800  0.13031200  0.75972900  1
  O  O28  1  0.29929900  0.29929900  0.61991400  1
  O  O29  1  0.25906800  0.39026600  0.93874100  1
loop_
_geom_bond_atom_site_label_1
_geom_bond_atom_site_label_2
_geom_bond_distance
_geom_bond_site_symmetry_2
Ba0 O0 2.759845 1_555
Ba0 O14 2.759855 1_455
Ba0 O13 2.804921 1_555
Ba0 O2 2.804921 1_455
Ba0 O26 2.953516 1_455
Ba0 O29 2.953516 1_555
Ba0 O5 3.018832 1_556
Ba0 O11 3.333465 1_455
Ba0 O28 3.333465 1_555
Ba0 Br0 3.503529 1_555
Ba0 Br1 3.699480 1_555
Ba1 O7 2.764137 1_554
Ba1 O0 2.764138 1_554
Ba1 O12 2.764151 1_554
Ba1 O8 2.816997 1_554
Ba1 O1 2.817005 1_554
Ba1 O29 2.817008 1_554
Ba1 O22 2.835531 1_555
Ba1 O9 2.835532 1_555
Ba1 O20 2.835545 1_555
Ba2 O20 2.759845 1_555
Ba2 O21 2.759845 1_555
Ba2 O4 2.804921 1_554
Ba2 O29 2.804921 1_554
Ba2 O13 2.953516 1_555
Ba2 O19 2.953516 1_555
Ba2 O28 3.018832 1_555
Ba2 O16 3.333465 1_555
Ba2 O5 3.333465 1_555
Ba2 Br1 3.503529 1_555
Ba2 Br0 3.699480 1_554
Ba3 O6 2.759845 1_555
Ba3 O12 2.759845 1_555
Ba3 O24 2.804921 1_555
Ba3 O3 2.804921 1_555
Ba3 O10 2.953516 1_555
Ba3 O1 2.953516 1_555
Ba3 O25 3.018832 1_556
Ba3 O11 3.333465 1_565
Ba3 O18 3.333465 1_655
Ba3 Br0 3.503529 1_665
Ba3 Br1 3.699480 1_665
Ba4 O14 2.764137 1_554
Ba4 O27 2.764138 1_554
Ba4 O6 2.764151 1_554
Ba4 O26 2.816997 1_554
Ba4 O10 2.817005 1_554
Ba4 O4 2.817008 1_554
Ba4 O17 2.835531 1_555
Ba4 O23 2.835532 1_555
Ba4 O21 2.835545 1_555
Ba5 O9 2.759845 1_545
Ba5 O17 2.759855 1_555
Ba5 O1 2.804921 1_544
Ba5 O26 2.804921 1_554
Ba5 O2 2.953516 1_555
Ba5 O24 2.953516 1_545
Ba5 O11 3.018832 1_555
Ba5 O5 3.333465 1_655
Ba5 O25 3.333465 1_545
Ba5 Br1 3.503529 1_655
Ba5 Br0 3.699480 1_654
Ba6 O17 2.764137 1_555
Ba6 O23 2.764138 1_555
Ba6 O21 2.764151 1_555
Ba6 O2 2.816997 1_555
Ba6 O19 2.817005 1_555
Ba6 O3 2.817008 1_555
Ba6 O14 2.835531 1_555
Ba6 O27 2.835532 1_555
Ba6 O6 2.835545 1_555
Ba7 O22 2.764137 1_555
Ba7 O9 2.764138 1_555
Ba7 O20 2.764151 1_555
Ba7 O15 2.816997 1_555
Ba7 O13 2.817005 1_555
Ba7 O24 2.817008 1_555
Ba7 O7 2.835531 1_555
Ba7 O0 2.835532 1_555
Ba7 O12 2.835545 1_555
Ba8 O27 2.759845 1_555
Ba8 O7 2.759855 1_545
Ba8 O19 2.804921 1_555
Ba8 O15 2.804921 1_545
Ba8 O8 2.953516 1_545
Ba8 O4 2.953516 1_555
Ba8 O16 3.018832 1_556
Ba8 O18 3.333465 1_545
Ba8 O28 3.333465 1_555
Ba8 Br0 3.503529 1_555
Ba8 Br1 3.699480 1_555
Ba9 O23 2.759845 1_455
Ba9 O22 2.759855 1_555
Ba9 O10 2.804921 1_454
Ba9 O8 2.804921 1_554
Ba9 O15 2.953516 1_555
Ba9 O3 2.953516 1_455
Ba9 O18 3.018832 1_555
Ba9 O16 3.333465 1_565
Ba9 O25 3.333465 1_455
Ba9 Br1 3.503529 1_565
Ba9 Br0 3.699480 1_564
O0 Re4 1.869571 1_555
O1 Re1 1.850042 1_565
O2 Re3 1.850042 1_655
O3 Re0 1.850042 1_555
O4 Re5 1.850042 1_555
O5 Re3 1.761803 1_555
O6 Re5 1.869560 1_555
O7 Re1 1.869563 1_565
O8 Re4 1.850042 1_555
O9 Re2 1.869571 1_565
O10 Re4 1.850042 1_655
O11 Re1 1.761803 1_555
O12 Re5 1.869560 1_555
O13 Re3 1.850042 1_555
O14 Re4 1.869563 1_655
O15 Re2 1.850042 1_565
O16 Re2 1.761803 1_555
O17 Re2 1.869563 1_555
O18 Re4 1.761803 1_555
O19 Re2 1.850042 1_555
O20 Re0 1.869560 1_555
O21 Re0 1.869560 1_555
O22 Re3 1.869563 1_555
O23 Re3 1.869571 1_655
O24 Re0 1.850042 1_555
O25 Re0 1.761803 1_555
O26 Re1 1.850042 1_555
O27 Re1 1.869571 1_555
O28 Re5 1.761803 1_555
O29 Re5 1.850042 1_555
