# generated using pymatgen
data_SrAlSiH
_symmetry_space_group_name_H-M   'P 1'
_cell_length_a   4.22939071
_cell_length_b   4.22939071
_cell_length_c   4.96478400
_cell_angle_alpha   90.00000000
_cell_angle_beta   90.00000000
_cell_angle_gamma   120.00001107
_symmetry_Int_Tables_number   1
_chemical_formula_structural   SrAlSiH
_chemical_formula_sum   'Sr1 Al1 Si1 H1'
_cell_volume   76.91066306
_cell_formula_units_Z   1
loop_
 _symmetry_equiv_pos_site_id
 _symmetry_equiv_pos_as_xyz
  1  'x, y, z'
loop_
 _atom_site_type_symbol
 _atom_site_label
 _atom_site_symmetry_multiplicity
 _atom_site_fract_x
 _atom_site_fract_y
 _atom_site_fract_z
 _atom_site_occupancy
  Sr  Sr0  1  0.00000000  0.00000000  0.00018500  1
  Al  Al0  1  0.66666700  0.33333300  0.46042600  1
  Si  Si0  1  0.33333300  0.66666700  0.55473500  1
  H  H0  1  0.66666700  0.33333300  0.10765400  1
loop_
_geom_bond_atom_site_label_1
_geom_bond_atom_site_label_2
_geom_bond_distance
_geom_bond_site_symmetry_2
Al0 H0 1.751437 1_555
Al0 Si0 2.486323 1_545
Al0 Si0 2.486323 1_655
Al0 Si0 2.486331 1_555
Si0 Sr0 3.294477 1_566
Si0 Sr0 3.294480 1_556
Si0 Sr0 3.294480 1_666
H0 Sr0 2.499451 1_655
H0 Sr0 2.499455 1_665
H0 Sr0 2.499455 1_555
