# generated using pymatgen
data_CuPO4
_symmetry_space_group_name_H-M   'P 1'
_cell_length_a   8.52899412
_cell_length_b   4.63472186
_cell_length_c   7.65878589
_cell_angle_alpha   62.03117511
_cell_angle_beta   90.00000000
_cell_angle_gamma   90.00000000
_symmetry_Int_Tables_number   1
_chemical_formula_structural   CuPO4
_chemical_formula_sum   'Cu4 P4 O16'
_cell_volume   267.38799728
_cell_formula_units_Z   4
loop_
 _symmetry_equiv_pos_site_id
 _symmetry_equiv_pos_as_xyz
  1  'x, y, z'
loop_
 _atom_site_type_symbol
 _atom_site_label
 _atom_site_symmetry_multiplicity
 _atom_site_fract_x
 _atom_site_fract_y
 _atom_site_fract_z
 _atom_site_occupancy
  Cu  Cu0  1  0.50000000  0.00000000  0.50000000  1
  Cu  Cu1  1  -0.00000000  0.00000000  0.00000000  1
  Cu  Cu2  1  0.50000000  0.50000000  0.00000000  1
  Cu  Cu3  1  -0.00000000  0.50000000  0.50000000  1
  P  P0  1  0.67762196  0.14137259  0.81156247  1
  P  P1  1  0.82237804  0.14137259  0.31156247  1
  P  P2  1  0.17762196  0.85862741  0.68843753  1
  P  P3  1  0.32237804  0.85862741  0.18843753  1
  O  O0  1  0.62639324  0.82685044  0.99119605  1
  O  O1  1  0.12639324  0.17314956  0.50880395  1
  O  O2  1  0.61172977  0.20709526  0.61076970  1
  O  O3  1  0.63802713  0.44732284  0.83363880  1
  O  O4  1  0.13802713  0.55267716  0.66636120  1
  O  O5  1  0.14117646  0.86637246  0.20789868  1
  O  O6  1  0.88827023  0.20709526  0.11076970  1
  O  O7  1  0.85882354  0.13362754  0.79210132  1
  O  O8  1  0.86197287  0.44732284  0.33363880  1
  O  O9  1  0.37360676  0.17314956  0.00880395  1
  O  O10  1  0.64117646  0.13362754  0.29210132  1
  O  O11  1  0.36197287  0.55267716  0.16636120  1
  O  O12  1  0.87360676  0.82685044  0.49119605  1
  O  O13  1  0.38827023  0.79290474  0.38923030  1
  O  O14  1  0.35882354  0.86637246  0.70789868  1
  O  O15  1  0.11172977  0.79290474  0.88923030  1
loop_
_geom_bond_atom_site_label_1
_geom_bond_atom_site_label_2
_geom_bond_distance
_geom_bond_site_symmetry_2
Cu0 O2 1.820129 1_555
Cu0 O13 1.820129 1_545
Cu0 O10 1.855722 1_555
Cu0 O14 1.855722 1_545
Cu1 O6 1.820129 1_455
Cu1 O15 1.820129 1_544
Cu1 O7 1.855722 1_454
Cu1 O5 1.855722 1_545
Cu2 O11 1.833209 1_555
Cu2 O3 1.833209 1_554
Cu2 O0 1.834568 1_554
Cu2 O9 1.834568 1_555
Cu2 O10 2.403083 1_555
Cu2 O14 2.403083 1_554
Cu3 O4 1.833209 1_555
Cu3 O8 1.833209 1_455
Cu3 O12 1.834568 1_455
Cu3 O1 1.834568 1_555
Cu3 O7 2.403083 1_455
Cu3 O5 2.403083 1_555
O0 P0 1.525614 1_565
O1 P2 1.525614 1_545
O2 P0 1.527795 1_555
O3 P0 1.542148 1_555
O4 P2 1.542148 1_555
O5 P3 1.554668 1_555
O6 P1 1.527795 1_555
O7 P0 1.554668 1_555
O8 P1 1.542148 1_555
O9 P3 1.525614 1_545
O10 P1 1.554668 1_555
O11 P3 1.542148 1_555
O12 P1 1.525614 1_565
O13 P3 1.527795 1_555
O14 P2 1.554668 1_555
O15 P2 1.527795 1_555
