# generated using pymatgen
data_Sr17(Ta5S21)2
_symmetry_space_group_name_H-M   'P 1'
_cell_length_a   12.33476200
_cell_length_b   12.34249367
_cell_length_c   12.37961808
_cell_angle_alpha   96.66362094
_cell_angle_beta   96.32255652
_cell_angle_gamma   96.77326778
_symmetry_Int_Tables_number   1
_chemical_formula_structural   Sr17(Ta5S21)2
_chemical_formula_sum   'Sr17 Ta10 S42'
_cell_volume   1844.19315195
_cell_formula_units_Z   1
loop_
 _symmetry_equiv_pos_site_id
 _symmetry_equiv_pos_as_xyz
  1  'x, y, z'
loop_
 _atom_site_type_symbol
 _atom_site_label
 _atom_site_symmetry_multiplicity
 _atom_site_fract_x
 _atom_site_fract_y
 _atom_site_fract_z
 _atom_site_occupancy
  Sr  Sr0  1  0.94254800  0.70258800  0.07812000  1
  Sr  Sr1  1  0.27638400  0.91149000  0.04224900  1
  Sr  Sr2  1  0.37380400  0.60590700  0.23157200  1
  Sr  Sr3  1  0.91496900  0.04886900  0.27191200  1
  Sr  Sr4  1  0.05245600  0.41799000  0.28713200  1
  Sr  Sr5  1  0.73964700  0.60430500  0.37338800  1
  Sr  Sr6  1  0.61111900  0.23818200  0.36834300  1
  Sr  Sr7  1  0.28423600  0.05515700  0.42017800  1
  Sr  Sr8  1  0.71628500  0.95371400  0.58508500  1
  Sr  Sr9  1  0.37233500  0.73776500  0.60254200  1
  Sr  Sr10  1  0.95257300  0.58418200  0.71720000  1
  Sr  Sr11  1  0.24031600  0.37348200  0.61211800  1
  Sr  Sr12  1  0.07910800  0.94452000  0.70543000  1
  Sr  Sr13  1  0.60269000  0.37247200  0.74448600  1
  Sr  Sr14  1  0.58203200  0.71139900  0.95368900  1
  Sr  Sr15  1  0.04128700  0.27485300  0.90850400  1
  Sr  Sr16  1  0.70228600  0.08114900  0.94605400  1
  Ta  Ta0  1  0.71751900  0.38421600  0.05000200  1
  Ta  Ta1  1  0.54989000  0.88450500  0.22169600  1
  Ta  Ta2  1  0.17706700  0.17140300  0.15910100  1
  Ta  Ta3  1  0.35502100  0.35369900  0.35292200  1
  Ta  Ta4  1  0.04814600  0.72269800  0.38402600  1
  Ta  Ta5  1  0.88549300  0.22153300  0.54826900  1
  Ta  Ta6  1  0.66811000  0.66748500  0.66825300  1
  Ta  Ta7  1  0.85474900  0.85656200  0.85699800  1
  Ta  Ta8  1  0.38659100  0.04743000  0.72090900  1
  Ta  Ta9  1  0.21931200  0.54954600  0.88380700  1
  S  S0  1  0.81646700  0.89476900  0.03929700  1
  S  S1  1  0.52634200  0.94071800  0.05232100  1
  S  S2  1  0.33945600  0.67547400  0.00524600  1
  S  S3  1  0.99184500  0.21195500  0.12609300  1
  S  S4  1  0.84034800  0.50690400  0.17319400  1
  S  S5  1  0.66182000  0.23616000  0.13348800  1
  S  S6  1  0.60633400  0.71401700  0.20059300  1
  S  S7  1  0.13007300  0.99056000  0.20803800  1
  S  S8  1  0.24575000  0.37493900  0.17053000  1
  S  S9  1  0.90039300  0.80020200  0.31551400  1
  S  S10  1  0.38031700  0.86082400  0.27849100  1
  S  S11  1  0.12983300  0.65677800  0.23717300  1
  S  S12  1  0.37525400  0.17070800  0.24474800  1
  S  S13  1  0.52071700  0.44436700  0.30960800  1
  S  S14  1  0.86195600  0.28052400  0.38063400  1
  S  S15  1  0.67560200  0.00583200  0.34032800  1
  S  S16  1  0.97968300  0.57701200  0.46507400  1
  S  S17  1  0.16553800  0.24593500  0.38364000  1
  S  S18  1  0.29196700  0.51780200  0.43636300  1
  S  S19  1  0.58992800  0.72709800  0.50734900  1
  S  S20  1  0.17206800  0.84225700  0.50599400  1
  S  S21  1  0.46447900  0.97810100  0.57241100  1
  S  S22  1  0.94340900  0.05185900  0.52357900  1
  S  S23  1  0.72696800  0.50563300  0.58994100  1
  S  S24  1  0.43719500  0.29050200  0.51617700  1
  S  S25  1  0.85805000  0.78324100  0.64942300  1
  S  S26  1  0.71464300  0.20026500  0.60380900  1
  S  S27  1  0.23886400  0.13038000  0.65863500  1
  S  S28  1  0.50496600  0.58788500  0.72593900  1
  S  S29  1  0.64928300  0.85633200  0.78401500  1
  S  S30  1  0.19834100  0.60571500  0.71307900  1
  S  S31  1  0.00573600  0.34120800  0.67365900  1
  S  S32  1  0.31632900  0.89806900  0.79763900  1
  S  S33  1  0.78218600  0.64949200  0.85700400  1
  S  S34  1  0.89290700  0.03889300  0.81519200  1
  S  S35  1  0.50878600  0.16895200  0.83747200  1
  S  S36  1  0.79563500  0.31620200  0.90012600  1
  S  S37  1  0.27660500  0.38307700  0.86235700  1
  S  S38  1  0.03757700  0.81534200  0.89328400  1
  S  S39  1  0.57330200  0.46487200  0.98328500  1
  S  S40  1  0.04938300  0.52436600  0.94319400  1
  S  S41  1  0.20299200  0.12267800  0.98078200  1
loop_
_geom_bond_atom_site_label_1
_geom_bond_atom_site_label_2
_geom_bond_distance
_geom_bond_site_symmetry_2
S0 Ta7 2.361929 1_554
S0 Sr0 3.040725 1_555
S0 Sr16 3.103263 1_564
S0 Sr3 3.286257 1_565
S0 Sr14 3.439762 1_554
S1 Ta1 2.283269 1_555
S1 Sr1 3.048634 1_555
S1 Sr16 3.116968 1_564
S1 Sr14 3.132897 1_554
S2 Ta9 2.301244 1_554
S2 Sr2 3.024843 1_555
S2 Sr1 3.099062 1_555
S2 Sr14 3.119310 1_554
S3 Ta2 2.397661 1_655
S3 Sr15 2.994311 1_654
S3 Sr3 2.996608 1_555
S3 Sr4 3.007799 1_655
S4 Ta0 2.308303 1_555
S4 Sr0 3.012656 1_555
S4 Sr5 3.077170 1_555
S4 Sr4 3.203530 1_655
S5 Ta0 2.275538 1_555
S5 Sr16 2.956974 1_554
S5 Sr6 3.038438 1_555
S6 Ta1 2.288861 1_555
S6 Sr14 3.034231 1_554
S6 Sr5 3.088088 1_555
S6 Sr2 3.100390 1_555
S7 Ta2 2.402305 1_565
S7 Sr3 2.993895 1_465
S7 Sr1 3.031200 1_555
S7 Sr7 3.033996 1_565
S8 Ta2 2.537262 1_555
S8 Ta3 2.556190 1_555
S8 Sr4 2.988214 1_555
S8 Sr2 3.060648 1_555
S9 Ta4 2.283638 1_655
S9 Sr5 3.142417 1_555
S9 Sr3 3.165310 1_565
S9 Sr0 3.165651 1_555
S10 Ta1 2.276432 1_555
S10 Sr2 3.122351 1_555
S10 Sr1 3.221105 1_555
S10 Sr7 3.222764 1_565
S11 Ta4 2.288192 1_555
S11 Sr0 3.016285 1_455
S11 Sr4 3.141526 1_555
S11 Sr2 3.152240 1_555
S12 Ta3 2.541921 1_555
S12 Ta2 2.556650 1_555
S12 Sr7 2.981463 1_555
S12 Sr6 3.106639 1_555
S13 Ta3 2.357579 1_555
S13 Sr2 3.017625 1_555
S13 Sr6 3.027959 1_555
S13 Sr5 3.118314 1_555
S14 Ta5 2.277923 1_555
S14 Sr6 3.060334 1_555
S14 Sr4 3.139175 1_655
S14 Sr3 3.186833 1_555
S15 Ta1 2.289985 1_545
S15 Sr6 3.056966 1_555
S15 Sr3 3.162628 1_555
S15 Sr8 3.168611 1_545
S16 Ta4 2.280405 1_655
S16 Sr4 3.059133 1_655
S16 Sr5 3.122798 1_555
S16 Sr10 3.167719 1_555
S17 Ta3 2.637463 1_555
S17 Ta2 2.849158 1_555
S17 Sr4 2.966995 1_555
S17 Sr7 2.967701 1_555
S17 Sr11 3.062476 1_555
S18 Ta3 2.416052 1_555
S18 Sr11 3.041368 1_555
S18 Sr2 3.094100 1_555
S18 Sr9 3.194580 1_555
S18 Sr4 3.327130 1_555
S19 Ta6 2.350224 1_555
S19 Sr8 3.032359 1_555
S19 Sr5 3.034653 1_555
S19 Sr9 3.058381 1_555
S20 Ta4 2.288313 1_555
S20 Sr12 3.040599 1_555
S20 Sr9 3.106916 1_555
S20 Sr7 3.172037 1_565
S21 Ta8 2.291850 1_565
S21 Sr7 3.064465 1_565
S21 Sr9 3.128106 1_555
S21 Sr8 3.144264 1_555
S22 Ta5 2.289512 1_555
S22 Sr3 3.092016 1_555
S22 Sr8 3.127147 1_545
S22 Sr12 3.163898 1_645
S23 Ta6 2.346325 1_555
S23 Sr10 3.034683 1_555
S23 Sr13 3.081058 1_555
S23 Sr5 3.082157 1_555
S24 Ta3 2.412785 1_555
S24 Sr6 3.047292 1_555
S24 Sr11 3.049040 1_555
S24 Sr13 3.279864 1_555
S24 Sr7 3.289658 1_555
S25 Ta7 2.629831 1_555
S25 Ta6 2.644354 1_555
S25 Sr10 3.006377 1_555
S25 Sr8 3.011516 1_555
S25 Sr12 3.140229 1_655
S26 Ta5 2.283265 1_555
S26 Sr8 3.027571 1_545
S26 Sr13 3.133751 1_555
S26 Sr6 3.159815 1_555
S27 Ta8 2.297101 1_555
S27 Sr12 2.995757 1_545
S27 Sr11 3.118565 1_555
S27 Sr7 3.120884 1_555
S28 Ta6 2.353239 1_555
S28 Sr14 3.040941 1_555
S28 Sr9 3.041605 1_555
S28 Sr13 3.067777 1_555
S29 Ta7 2.594754 1_555
S29 Ta6 2.639368 1_555
S29 Sr8 3.015522 1_555
S29 Sr14 3.034125 1_555
S29 Sr16 3.184705 1_565
S30 Ta9 2.297075 1_555
S30 Sr10 3.018333 1_455
S30 Sr9 3.078033 1_555
S30 Sr11 3.115645 1_555
S31 Ta5 2.288052 1_455
S31 Sr11 3.065200 1_555
S31 Sr15 3.109965 1_555
S31 Sr10 3.143335 1_455
S32 Ta8 2.294056 1_565
S32 Sr1 3.109908 1_556
S32 Sr9 3.131466 1_555
S32 Sr12 3.163151 1_555
S33 Ta7 2.606433 1_555
S33 Ta6 2.638035 1_555
S33 Sr10 2.989854 1_555
S33 Sr14 2.999209 1_555
S33 Sr0 3.149666 1_556
S34 Ta7 2.372314 1_545
S34 Sr16 3.058930 1_555
S34 Sr12 3.070708 1_645
S34 Sr15 3.265289 1_655
S34 Sr8 3.371065 1_545
S35 Ta8 2.255907 1_555
S35 Sr16 2.986566 1_555
S35 Sr13 3.042208 1_555
S36 Ta0 2.301896 1_556
S36 Sr13 3.090195 1_555
S36 Sr15 3.124148 1_655
S36 Sr16 3.131254 1_555
S37 Ta9 2.246931 1_555
S37 Sr11 3.067260 1_555
S37 Sr15 3.188011 1_555
S38 Ta7 2.376305 1_455
S38 Sr12 3.023731 1_555
S38 Sr0 3.080835 1_456
S38 Sr1 3.310126 1_556
S38 Sr10 3.367318 1_455
S39 Ta0 2.263301 1_556
S39 Sr14 3.097474 1_555
S39 Sr13 3.118088 1_555
S40 Ta9 2.295478 1_555
S40 Sr15 3.047867 1_555
S40 Sr0 3.111448 1_456
S40 Sr10 3.122455 1_455
S41 Ta2 2.286878 1_556
S41 Sr1 3.009658 1_546
S41 Sr15 3.031064 1_555
