# generated using pymatgen
data_LiCo2P3O10
_symmetry_space_group_name_H-M   'P 1'
_cell_length_a   8.11072790
_cell_length_b   8.11072790
_cell_length_c   9.16763142
_cell_angle_alpha   62.05311627
_cell_angle_beta   62.05311627
_cell_angle_gamma   63.49335500
_symmetry_Int_Tables_number   1
_chemical_formula_structural   LiCo2P3O10
_chemical_formula_sum   'Li2 Co4 P6 O20'
_cell_volume   450.33405476
_cell_formula_units_Z   2
loop_
 _symmetry_equiv_pos_site_id
 _symmetry_equiv_pos_as_xyz
  1  'x, y, z'
loop_
 _atom_site_type_symbol
 _atom_site_label
 _atom_site_symmetry_multiplicity
 _atom_site_fract_x
 _atom_site_fract_y
 _atom_site_fract_z
 _atom_site_occupancy
  Li  Li0  1  0.40326000  0.59674000  0.25000000  1
  Li  Li1  1  0.59674000  0.40326000  0.75000000  1
  Co  Co0  1  0.70232300  0.75652900  0.45649300  1
  Co  Co1  1  0.29767700  0.24347100  0.54350700  1
  Co  Co2  1  0.75652900  0.70232300  0.95649300  1
  Co  Co3  1  0.24347100  0.29767700  0.04350700  1
  P  P0  1  0.43931300  0.82901000  0.80862200  1
  P  P1  1  0.82901000  0.43931300  0.30862200  1
  P  P2  1  0.07838800  0.92161200  0.75000000  1
  P  P3  1  0.17099000  0.56068700  0.69137800  1
  P  P4  1  0.56068700  0.17099000  0.19137800  1
  P  P5  1  0.92161200  0.07838800  0.25000000  1
  O  O0  1  0.82790300  0.21451800  0.36988200  1
  O  O1  1  0.09228000  0.12314900  0.62830900  1
  O  O2  1  0.45383300  0.03442800  0.69232200  1
  O  O3  1  0.96557200  0.54616700  0.80767800  1
  O  O4  1  0.24191600  0.52089500  0.52058000  1
  O  O5  1  0.90772000  0.87685100  0.37169100  1
  O  O6  1  0.78548200  0.17209700  0.13011800  1
  O  O7  1  0.67941200  0.56847000  0.21112000  1
  O  O8  1  0.32058800  0.43153000  0.78888000  1
  O  O9  1  0.17209700  0.78548200  0.63011800  1
  O  O10  1  0.21451800  0.82790300  0.86988200  1
  O  O11  1  0.03442800  0.45383300  0.19232200  1
  O  O12  1  0.54616700  0.96557200  0.30767800  1
  O  O13  1  0.87685100  0.90772000  0.87169100  1
  O  O14  1  0.12314900  0.09228000  0.12830900  1
  O  O15  1  0.52089500  0.24191600  0.02058000  1
  O  O16  1  0.47910500  0.75808400  0.97942000  1
  O  O17  1  0.56847000  0.67941200  0.71112000  1
  O  O18  1  0.43153000  0.32058800  0.28888000  1
  O  O19  1  0.75808400  0.47910500  0.47942000  1
loop_
_geom_bond_atom_site_label_1
_geom_bond_atom_site_label_2
_geom_bond_distance
_geom_bond_site_symmetry_2
Li0 O7 2.016482 1_555
Li0 O18 2.016482 1_555
Li0 O16 2.118920 1_554
Li0 O4 2.118920 1_555
Li1 O17 2.016482 1_555
Li1 O8 2.016482 1_555
Li1 O19 2.118920 1_555
Li1 O15 2.118920 1_556
Co0 O5 1.964220 1_555
Co0 O12 1.968444 1_555
Co0 O17 1.970063 1_555
Co0 O19 2.012257 1_555
Co1 O1 1.964220 1_555
Co1 O2 1.968444 1_555
Co1 O18 1.970063 1_555
Co1 O4 2.012257 1_555
Co2 O13 1.964220 1_555
Co2 O3 1.968444 1_555
Co2 O7 1.970063 1_556
Co2 O16 2.012257 1_555
Co3 O14 1.964220 1_555
Co3 O11 1.968444 1_555
Co3 O8 1.970063 1_554
Co3 O15 2.012257 1_555
O0 P5 1.615547 1_555
O0 P1 1.640078 1_555
O1 P2 1.505510 1_545
O2 P0 1.522805 1_545
O3 P3 1.522805 1_655
O4 P3 1.533143 1_555
O5 P5 1.505510 1_565
O6 P5 1.615547 1_555
O6 P4 1.640078 1_555
O7 P1 1.540435 1_555
O8 P3 1.540435 1_555
O9 P2 1.615547 1_555
O9 P3 1.640078 1_555
O10 P2 1.615547 1_555
O10 P0 1.640078 1_555
O11 P1 1.522805 1_455
O12 P4 1.522805 1_565
O13 P2 1.505510 1_655
O14 P5 1.505510 1_455
O15 P4 1.533143 1_555
O16 P0 1.533143 1_555
O17 P0 1.540435 1_555
O18 P4 1.540435 1_555
O19 P1 1.533143 1_555
