# generated using pymatgen
data_Ta3Au
_symmetry_space_group_name_H-M   'P 1'
_cell_length_a   5.21501522
_cell_length_b   5.21499071
_cell_length_c   5.21495395
_cell_angle_alpha   89.99995517
_cell_angle_beta   90.00000000
_cell_angle_gamma   90.00000000
_symmetry_Int_Tables_number   1
_chemical_formula_structural   Ta3Au
_chemical_formula_sum   'Ta6 Au2'
_cell_volume   141.82722226
_cell_formula_units_Z   2
loop_
 _symmetry_equiv_pos_site_id
 _symmetry_equiv_pos_as_xyz
  1  'x, y, z'
loop_
 _atom_site_type_symbol
 _atom_site_label
 _atom_site_symmetry_multiplicity
 _atom_site_fract_x
 _atom_site_fract_y
 _atom_site_fract_z
 _atom_site_occupancy
  Ta  Ta0  1  0.50000000  0.25000000  0.00000000  1
  Ta  Ta1  1  -0.00000000  0.50000000  0.75000000  1
  Ta  Ta2  1  0.75000000  -0.00000000  0.50000000  1
  Ta  Ta3  1  0.50000000  0.75000000  0.00000000  1
  Ta  Ta4  1  -0.00000000  0.50000000  0.25000000  1
  Ta  Ta5  1  0.25000000  -0.00000000  0.50000000  1
  Au  Au0  1  -0.00000000  -0.00000000  0.00000000  1
  Au  Au1  1  0.50000000  0.50000000  0.50000000  1
loop_
_geom_bond_atom_site_label_1
_geom_bond_atom_site_label_2
_geom_bond_distance
_geom_bond_site_symmetry_2
Ta0 Ta3 2.607495 1_545
Ta0 Ta3 2.607495 1_555
Ta0 Ta5 3.193503 1_555
Ta0 Ta2 3.193503 1_555
Ta0 Ta2 3.193505 1_554
Ta0 Ta5 3.193505 1_554
Ta0 Ta1 3.193522 1_654
Ta0 Ta1 3.193522 1_554
Ta0 Ta4 3.193523 1_555
Ta0 Ta4 3.193523 1_655
Ta1 Ta4 2.607477 1_555
Ta1 Ta4 2.607477 1_556
Ta1 Ta2 3.193514 1_465
Ta1 Ta5 3.193514 1_565
Ta1 Ta5 3.193516 1_555
Ta1 Ta2 3.193516 1_455
Ta1 Ta3 3.193523 1_556
Ta1 Ta3 3.193523 1_456
Ta2 Ta5 2.607508 1_655
Ta2 Ta5 2.607508 1_555
Ta2 Ta3 3.193503 1_546
Ta2 Ta3 3.193505 1_545
Ta2 Ta4 3.193514 1_655
Ta2 Ta4 3.193516 1_645
Ta3 Ta5 3.193503 1_564
Ta3 Ta5 3.193505 1_565
Ta3 Ta4 3.193522 1_555
Ta3 Ta4 3.193522 1_655
Ta4 Ta5 3.193514 1_555
Ta4 Ta5 3.193516 1_565
Au0 Ta5 2.915255 1_554
Au0 Ta5 2.915255 1_555
Au0 Ta2 2.915255 1_455
Au0 Ta2 2.915255 1_454
Au0 Ta1 2.915263 1_554
Au0 Ta4 2.915263 1_545
Au0 Ta1 2.915265 1_544
Au0 Ta4 2.915265 1_555
Au0 Ta0 2.915279 1_455
Au0 Ta3 2.915279 1_545
Au0 Ta0 2.915279 1_555
Au0 Ta3 2.915279 1_445
Au1 Ta3 2.915251 1_555
Au1 Ta0 2.915251 1_556
Au1 Ta0 2.915253 1_555
Au1 Ta3 2.915253 1_556
Au1 Ta5 2.915271 1_555
Au1 Ta2 2.915271 1_555
Au1 Ta2 2.915271 1_565
Au1 Ta5 2.915271 1_565
Au1 Ta1 2.915275 1_655
Au1 Ta4 2.915275 1_655
Au1 Ta4 2.915275 1_555
Au1 Ta1 2.915275 1_555
