# generated using pymatgen
data_Dy5BiAu2
_symmetry_space_group_name_H-M   'P 1'
_cell_length_a   10.25998547
_cell_length_b   10.25998547
_cell_length_c   10.25998547
_cell_angle_alpha   137.62209937
_cell_angle_beta   137.62209937
_cell_angle_gamma   61.48226656
_symmetry_Int_Tables_number   1
_chemical_formula_structural   Dy5BiAu2
_chemical_formula_sum   'Dy10 Bi2 Au4'
_cell_volume   485.09038314
_cell_formula_units_Z   2
loop_
 _symmetry_equiv_pos_site_id
 _symmetry_equiv_pos_as_xyz
  1  'x, y, z'
loop_
 _atom_site_type_symbol
 _atom_site_label
 _atom_site_symmetry_multiplicity
 _atom_site_fract_x
 _atom_site_fract_y
 _atom_site_fract_z
 _atom_site_occupancy
  Dy  Dy0  1  0.82910700  0.99552600  0.50000000  1
  Dy  Dy1  1  0.67089300  0.17089300  0.16641900  1
  Dy  Dy2  1  0.00447400  0.50447400  0.83358100  1
  Dy  Dy3  1  0.49552600  0.32910700  0.50000000  1
  Dy  Dy4  1  0.50000000  0.50000000  0.00000000  1
  Dy  Dy5  1  0.50447400  0.67089300  0.50000000  1
  Dy  Dy6  1  0.32910700  0.82910700  0.83358100  1
  Dy  Dy7  1  0.17089300  0.00447400  0.50000000  1
  Dy  Dy8  1  0.99552600  0.49552600  0.16641900  1
  Dy  Dy9  1  0.00000000  0.00000000  0.00000000  1
  Bi  Bi0  1  0.25000000  0.25000000  0.00000000  1
  Bi  Bi1  1  0.75000000  0.75000000  0.00000000  1
  Au  Au0  1  0.87281400  0.37281400  0.24562900  1
  Au  Au1  1  0.12718600  0.62718600  0.75437100  1
  Au  Au2  1  0.62718600  0.87281400  0.50000000  1
  Au  Au3  1  0.37281400  0.12718600  0.50000000  1
loop_
_geom_bond_atom_site_label_1
_geom_bond_atom_site_label_2
_geom_bond_distance
_geom_bond_site_symmetry_2
Bi0 Dy5 3.166925 1_555
Bi0 Dy7 3.166925 1_554
Bi0 Dy2 3.166925 1_554
Bi0 Dy1 3.166925 1_555
Bi0 Dy3 3.166925 1_555
Bi0 Dy8 3.166925 1_455
Bi0 Dy0 3.166925 1_444
Bi0 Dy6 3.166925 1_544
Bi1 Dy5 3.166925 1_554
Bi1 Dy6 3.166925 1_554
Bi1 Dy7 3.166925 1_665
Bi1 Dy2 3.166925 1_654
Bi1 Dy1 3.166925 1_565
Bi1 Dy3 3.166925 1_554
Bi1 Dy8 3.166925 1_555
Bi1 Dy0 3.166925 1_555
Au0 Au1 2.668095 1_655
Au0 Dy1 2.892689 1_555
Au0 Dy8 2.892707 1_555
Au0 Dy4 2.921582 1_555
Au0 Dy9 2.921582 1_655
Au1 Dy6 2.892689 1_555
Au1 Dy2 2.892707 1_555
Au1 Dy4 2.921582 1_556
Au1 Dy9 2.921582 1_566
Au2 Au3 2.668105 1_565
Au2 Dy0 2.892697 1_555
Au2 Dy5 2.892697 1_555
Au2 Dy4 2.921580 1_555
Au2 Dy9 2.921580 1_666
Au3 Dy3 2.892697 1_555
Au3 Dy7 2.892697 1_555
Au3 Dy4 2.921580 1_556
Au3 Dy9 2.921580 1_555
