# generated using pymatgen
data_VCdClO3
_symmetry_space_group_name_H-M   'P 1'
_cell_length_a   3.70145200
_cell_length_b   6.99960100
_cell_length_c   16.09609200
_cell_angle_alpha   90.00000000
_cell_angle_beta   90.00000000
_cell_angle_gamma   90.00000000
_symmetry_Int_Tables_number   1
_chemical_formula_structural   VCdClO3
_chemical_formula_sum   'V4 Cd4 Cl4 O12'
_cell_volume   417.02861149
_cell_formula_units_Z   4
loop_
 _symmetry_equiv_pos_site_id
 _symmetry_equiv_pos_as_xyz
  1  'x, y, z'
loop_
 _atom_site_type_symbol
 _atom_site_label
 _atom_site_symmetry_multiplicity
 _atom_site_fract_x
 _atom_site_fract_y
 _atom_site_fract_z
 _atom_site_occupancy
  V  V0  1  0.75000000  0.31924800  0.00351100  1
  V  V1  1  0.25000000  0.81924800  0.49648900  1
  V  V2  1  0.75000000  0.18075200  0.50351100  1
  V  V3  1  0.25000000  0.68075200  0.99648900  1
  Cd  Cd0  1  0.25000000  0.07631300  0.16807800  1
  Cd  Cd1  1  0.75000000  0.57631300  0.33192200  1
  Cd  Cd2  1  0.25000000  0.42368700  0.66807800  1
  Cd  Cd3  1  0.75000000  0.92368700  0.83192200  1
  Cl  Cl0  1  0.75000000  0.94252000  0.26811900  1
  Cl  Cl1  1  0.75000000  0.55748000  0.76811900  1
  Cl  Cl2  1  0.25000000  0.44252000  0.23188100  1
  Cl  Cl3  1  0.25000000  0.05748000  0.73188100  1
  O  O0  1  0.25000000  0.68336800  0.40696700  1
  O  O1  1  0.75000000  0.31663200  0.59303300  1
  O  O2  1  0.75000000  0.32089600  0.42065700  1
  O  O3  1  0.25000000  0.39580400  0.00818800  1
  O  O4  1  0.75000000  0.60419600  0.99181200  1
  O  O5  1  0.75000000  0.89580400  0.49181200  1
  O  O6  1  0.75000000  0.18336800  0.09303300  1
  O  O7  1  0.25000000  0.81663200  0.90696700  1
  O  O8  1  0.25000000  0.10419600  0.50818800  1
  O  O9  1  0.25000000  0.82089600  0.07934300  1
  O  O10  1  0.75000000  0.17910400  0.92065700  1
  O  O11  1  0.25000000  0.67910400  0.57934300  1
loop_
_geom_bond_atom_site_label_1
_geom_bond_atom_site_label_2
_geom_bond_distance
_geom_bond_site_symmetry_2
Cd0 O9 2.288295 1_545
Cd0 O6 2.333623 1_555
Cd0 O6 2.333623 1_455
Cd0 Cl0 2.625868 1_545
Cd0 Cl0 2.625868 1_445
Cd0 Cl2 2.761378 1_555
Cd1 O2 2.288295 1_555
Cd1 O0 2.333623 1_555
Cd1 O0 2.333623 1_655
Cd1 Cl2 2.625868 1_555
Cd1 Cl2 2.625868 1_655
Cd1 Cl0 2.761378 1_555
Cd2 O11 2.288295 1_555
Cd2 O1 2.333623 1_455
Cd2 O1 2.333623 1_555
Cd2 Cl1 2.625868 1_555
Cd2 Cl1 2.625868 1_455
Cd2 Cl3 2.761378 1_555
Cd3 O10 2.288295 1_565
Cd3 O7 2.333623 1_655
Cd3 O7 2.333623 1_555
Cd3 Cl3 2.625868 1_565
Cd3 Cl3 2.625868 1_665
Cd3 Cl1 2.761378 1_555
O0 V1 1.726543 1_555
O1 V2 1.726543 1_555
O2 V2 1.655543 1_555
O3 V0 1.928212 1_555
O3 V0 1.928212 1_455
O3 V3 2.003392 1_554
O4 V3 1.928212 1_655
O4 V3 1.928212 1_555
O4 V0 2.003392 1_556
O5 V1 1.928212 1_555
O5 V1 1.928212 1_655
O5 V2 2.003392 1_565
O6 V0 1.726543 1_555
O7 V3 1.726543 1_555
O8 V2 1.928212 1_455
O8 V2 1.928212 1_555
O8 V1 2.003392 1_545
O9 V3 1.655543 1_554
O10 V0 1.655543 1_556
O11 V1 1.655543 1_555
