# generated using pymatgen
data_KLi(PO3)2
_symmetry_space_group_name_H-M   'P 1'
_cell_length_a   5.48581070
_cell_length_b   13.62915082
_cell_length_c   15.33051991
_cell_angle_alpha   108.38114758
_cell_angle_beta   90.00000000
_cell_angle_gamma   90.00000000
_symmetry_Int_Tables_number   1
_chemical_formula_structural   KLi(PO3)2
_chemical_formula_sum   'K8 Li8 P16 O48'
_cell_volume   1087.73593274
_cell_formula_units_Z   8
loop_
 _symmetry_equiv_pos_site_id
 _symmetry_equiv_pos_as_xyz
  1  'x, y, z'
loop_
 _atom_site_type_symbol
 _atom_site_label
 _atom_site_symmetry_multiplicity
 _atom_site_fract_x
 _atom_site_fract_y
 _atom_site_fract_z
 _atom_site_occupancy
  K  K0  1  0.67379184  0.37643977  0.63056019  1
  K  K1  1  0.82620816  0.37643977  0.13056019  1
  K  K2  1  0.33908657  0.87474781  0.63960008  1
  K  K3  1  0.32620816  0.62356023  0.36943981  1
  K  K4  1  0.83908657  0.12525219  0.86039992  1
  K  K5  1  0.66091343  0.12525219  0.36039992  1
  K  K6  1  0.17379184  0.62356023  0.86943981  1
  K  K7  1  0.16091343  0.87474781  0.13960008  1
  Li  Li0  1  0.30474088  0.92921400  0.88943437  1
  Li  Li1  1  0.31780219  0.57310859  0.13984060  1
  Li  Li2  1  0.81780219  0.42689141  0.36015940  1
  Li  Li3  1  0.18219781  0.57310859  0.63984060  1
  Li  Li4  1  0.19525912  0.92921400  0.38943437  1
  Li  Li5  1  0.68219781  0.42689141  0.86015940  1
  Li  Li6  1  0.80474088  0.07078600  0.61056563  1
  Li  Li7  1  0.69525912  0.07078600  0.11056563  1
  P  P0  1  0.14998280  0.35970942  0.48525748  1
  P  P1  1  0.31875556  0.35571478  0.30647050  1
  P  P2  1  0.81875556  0.64428522  0.19353050  1
  P  P3  1  0.66877713  0.83987945  0.97980582  1
  P  P4  1  0.68915122  0.85645565  0.30633555  1
  P  P5  1  0.18915122  0.14354435  0.19366445  1
  P  P6  1  0.83122287  0.83987945  0.47980582  1
  P  P7  1  0.33122287  0.16012055  0.02019418  1
  P  P8  1  0.16877713  0.16012055  0.52019418  1
  P  P9  1  0.18124444  0.35571478  0.80646950  1
  P  P10  1  0.68124444  0.64428522  0.69353050  1
  P  P11  1  0.64998280  0.64029058  0.01474252  1
  P  P12  1  0.31084878  0.14354435  0.69366445  1
  P  P13  1  0.81084878  0.85645565  0.80633555  1
  P  P14  1  0.85001720  0.64029058  0.51474252  1
  P  P15  1  0.35001720  0.35970942  0.98525748  1
  O  O0  1  0.21822759  0.06343687  0.96186723  1
  O  O1  1  0.56239069  0.37576192  0.27515141  1
  O  O2  1  0.75580181  0.75316859  0.02292870  1
  O  O3  1  0.33804733  0.38735894  0.41681429  1
  O  O4  1  0.22166110  0.23349453  0.78309809  1
  O  O5  1  0.93533744  0.11517099  0.20787498  1
  O  O6  1  0.90212040  0.16675190  0.53876728  1
  O  O7  1  0.60019793  0.59502121  0.21770111  1
  O  O8  1  0.59787960  0.16675190  0.03876728  1
  O  O9  1  0.06239069  0.62423808  0.22484859  1
  O  O10  1  0.88313514  0.93653538  0.32795742  1
  O  O11  1  0.60124744  0.35045727  0.94743946  1
  O  O12  1  0.66195267  0.61264106  0.58318471  1
  O  O13  1  0.39980207  0.40497879  0.78229889  1
  O  O14  1  0.06466256  0.88482901  0.79212502  1
  O  O15  1  0.25580181  0.24683141  0.47707130  1
  O  O16  1  0.20020166  0.42882519  0.57923671  1
  O  O17  1  0.79979834  0.57117481  0.42076329  1
  O  O18  1  0.24419819  0.24683141  0.97707130  1
  O  O19  1  0.43760931  0.62423808  0.72484859  1
  O  O20  1  0.89980207  0.59502121  0.71770111  1
  O  O21  1  0.11686486  0.06346462  0.67204258  1
  O  O22  1  0.61686486  0.93653538  0.82795742  1
  O  O23  1  0.68683234  0.79840698  0.38295108  1
  O  O24  1  0.16195267  0.38735894  0.91681529  1
  O  O25  1  0.89875256  0.35045727  0.44743946  1
  O  O26  1  0.31316766  0.20159302  0.61704892  1
  O  O27  1  0.18683234  0.20159302  0.11704892  1
  O  O28  1  0.43533744  0.88482901  0.29212502  1
  O  O29  1  0.72166110  0.76650547  0.71690191  1
  O  O30  1  0.71822759  0.93656313  0.53813277  1
  O  O31  1  0.28177241  0.06343687  0.46186723  1
  O  O32  1  0.39875256  0.64954273  0.05256054  1
  O  O33  1  0.38313514  0.06346462  0.17204258  1
  O  O34  1  0.83804733  0.61264106  0.08318571  1
  O  O35  1  0.10019793  0.40497879  0.28229889  1
  O  O36  1  0.29979834  0.42882519  0.07923671  1
  O  O37  1  0.93760931  0.37576192  0.77515141  1
  O  O38  1  0.40212040  0.83324810  0.96123272  1
  O  O39  1  0.74419819  0.75316859  0.52292870  1
  O  O40  1  0.10124744  0.64954273  0.55256054  1
  O  O41  1  0.27833890  0.23349453  0.28309809  1
  O  O42  1  0.09787960  0.83324810  0.46123272  1
  O  O43  1  0.81316766  0.79840698  0.88295108  1
  O  O44  1  0.70020166  0.57117481  0.92076329  1
  O  O45  1  0.56466256  0.11517099  0.70787498  1
  O  O46  1  0.78177241  0.93656313  0.03813277  1
  O  O47  1  0.77833890  0.76650547  0.21690191  1
loop_
_geom_bond_atom_site_label_1
_geom_bond_atom_site_label_2
_geom_bond_distance
_geom_bond_site_symmetry_2
K0 O37 2.649739 1_555
K0 O13 2.692803 1_555
K0 O16 2.869296 1_555
K0 O25 2.983713 1_555
K0 O6 3.029895 1_555
K0 O26 3.053536 1_555
K0 O20 3.112372 1_555
K0 O16 3.134074 1_655
K1 O1 2.649739 1_555
K1 O35 2.692803 1_655
K1 O36 2.869296 1_655
K1 O11 2.983713 1_554
K1 O8 3.029895 1_555
K1 O27 3.053536 1_655
K1 O7 3.112372 1_555
K1 O36 3.134074 1_555
K2 O21 2.746298 1_565
K2 O14 2.747760 1_555
K2 O30 2.877847 1_555
K2 O42 2.927915 1_555
K2 O39 3.002440 1_555
K2 O29 3.014639 1_555
K2 O22 3.136233 1_555
K2 O40 3.212600 1_555
K3 O9 2.649739 1_555
K3 O7 2.692803 1_555
K3 O17 2.869296 1_555
K3 O40 2.983713 1_555
K3 O42 3.029895 1_555
K3 O23 3.053536 1_555
K3 O35 3.112372 1_555
K3 O17 3.134074 1_455
K4 O22 2.746298 1_545
K4 O45 2.747760 1_555
K4 O0 2.877847 1_655
K4 O8 2.927915 1_556
K4 O18 3.002440 1_655
K4 O4 3.014639 1_655
K4 O21 3.136233 1_655
K4 O11 3.212600 1_555
K5 O10 2.746298 1_545
K5 O5 2.747760 1_555
K5 O31 2.877847 1_555
K5 O6 2.927915 1_555
K5 O15 3.002440 1_555
K5 O41 3.014639 1_555
K5 O33 3.136233 1_555
K5 O25 3.212600 1_555
K6 O19 2.649739 1_555
K6 O20 2.692803 1_455
K6 O44 2.869296 1_455
K6 O32 2.983713 1_556
K6 O38 3.029895 1_555
K6 O43 3.053536 1_455
K6 O13 3.112372 1_555
K6 O44 3.134074 1_555
K7 O33 2.746298 1_565
K7 O28 2.747760 1_555
K7 O46 2.877847 1_455
K7 O38 2.927915 1_554
K7 O2 3.002440 1_455
K7 O47 3.014639 1_455
K7 O10 3.136233 1_455
K7 O32 3.212600 1_555
Li0 O0 1.877145 1_565
Li0 O14 1.938253 1_555
Li0 O22 1.972140 1_555
Li0 O38 2.028687 1_555
Li1 O9 1.890614 1_555
Li1 O36 1.894116 1_555
Li1 O7 1.920697 1_555
Li1 O32 1.987932 1_555
Li2 O1 1.890614 1_555
Li2 O17 1.894116 1_555
Li2 O35 1.920697 1_655
Li2 O25 1.987932 1_555
Li3 O19 1.890614 1_555
Li3 O16 1.894116 1_555
Li3 O20 1.920697 1_455
Li3 O40 1.987932 1_555
Li4 O31 1.877145 1_565
Li4 O28 1.938253 1_555
Li4 O10 1.972140 1_455
Li4 O42 2.028687 1_555
Li5 O37 1.890614 1_555
Li5 O44 1.894116 1_555
Li5 O13 1.920697 1_555
Li5 O11 1.987932 1_555
Li6 O30 1.877145 1_545
Li6 O45 1.938253 1_555
Li6 O21 1.972140 1_655
Li6 O6 2.028687 1_555
Li7 O46 1.877145 1_545
Li7 O5 1.938253 1_555
Li7 O33 1.972140 1_555
Li7 O8 2.028687 1_555
O0 P7 1.475489 1_556
O1 P1 1.474534 1_555
O2 P3 1.598228 1_554
O2 P11 1.611751 1_555
O3 P0 1.598976 1_555
O3 P1 1.612045 1_555
O4 P12 1.600647 1_555
O4 P9 1.604954 1_555
O5 P5 1.479473 1_655
O6 P8 1.487575 1_655
O7 P2 1.477345 1_555
O8 P7 1.487575 1_555
O9 P2 1.474528 1_455
O10 P4 1.485039 1_555
O11 P15 1.485047 1_555
O12 P14 1.598965 1_555
O12 P10 1.612074 1_555
O13 P9 1.477345 1_555
O14 P13 1.479473 1_455
O15 P8 1.598228 1_555
O15 P0 1.611751 1_555
O16 P0 1.477521 1_555
O17 P14 1.477521 1_555
O18 P7 1.598228 1_556
O18 P15 1.611751 1_555
O19 P10 1.474528 1_555
O20 P10 1.477345 1_555
O21 P12 1.485039 1_555
O22 P13 1.485039 1_555
O23 P4 1.609883 1_555
O23 P6 1.619361 1_555
O24 P15 1.598965 1_555
O24 P9 1.612074 1_555
O25 P0 1.485047 1_655
O26 P12 1.609883 1_555
O26 P8 1.619361 1_555
O27 P5 1.609883 1_555
O27 P7 1.619361 1_555
O28 P4 1.479473 1_555
O29 P13 1.600647 1_555
O29 P10 1.604954 1_555
O30 P6 1.475489 1_555
O31 P8 1.475489 1_555
O32 P11 1.485047 1_555
O33 P5 1.485039 1_555
O34 P11 1.598976 1_555
O34 P2 1.612060 1_555
O35 P1 1.477351 1_555
O36 P15 1.477521 1_554
O37 P9 1.474528 1_655
O38 P3 1.487575 1_555
O39 P6 1.598228 1_555
O39 P14 1.611751 1_555
O40 P14 1.485047 1_455
O41 P5 1.600647 1_555
O41 P1 1.604953 1_555
O42 P6 1.487575 1_455
O43 P13 1.609883 1_555
O43 P3 1.619361 1_555
O44 P11 1.477521 1_556
O45 P12 1.479473 1_555
O46 P3 1.475489 1_554
O47 P4 1.600647 1_555
O47 P2 1.604954 1_555
