# generated using pymatgen
data_CuP4O11
_symmetry_space_group_name_H-M   'P 1'
_cell_length_a   9.39099300
_cell_length_b   9.44980947
_cell_length_c   10.73783174
_cell_angle_alpha   110.64159494
_cell_angle_beta   109.66407617
_cell_angle_gamma   89.44616951
_symmetry_Int_Tables_number   1
_chemical_formula_structural   CuP4O11
_chemical_formula_sum   'Cu4 P16 O44'
_cell_volume   833.28730263
_cell_formula_units_Z   4
loop_
 _symmetry_equiv_pos_site_id
 _symmetry_equiv_pos_as_xyz
  1  'x, y, z'
loop_
 _atom_site_type_symbol
 _atom_site_label
 _atom_site_symmetry_multiplicity
 _atom_site_fract_x
 _atom_site_fract_y
 _atom_site_fract_z
 _atom_site_occupancy
  Cu  Cu0  1  0.72882400  0.27151800  0.50240800  1
  Cu  Cu1  1  0.27117600  0.72848200  0.49759200  1
  Cu  Cu2  1  0.75465400  0.77348100  0.01485900  1
  Cu  Cu3  1  0.24534600  0.22651900  0.98514100  1
  P  P0  1  0.59488400  0.90009800  0.76007700  1
  P  P1  1  0.40450000  0.55103200  0.24839300  1
  P  P2  1  0.91911500  0.24092000  0.07338000  1
  P  P3  1  0.94538300  0.58368200  0.22443500  1
  P  P4  1  0.40621900  0.76647600  0.09602400  1
  P  P5  1  0.08088500  0.75908000  0.92662000  1
  P  P6  1  0.73504800  0.58493300  0.38625000  1
  P  P7  1  0.24205100  0.08288900  0.43543800  1
  P  P8  1  0.59550000  0.44896800  0.75160700  1
  P  P9  1  0.75794900  0.91711100  0.56456200  1
  P  P10  1  0.40511600  0.09990200  0.23992300  1
  P  P11  1  0.90956400  0.09699300  0.28395400  1
  P  P12  1  0.09043600  0.90300700  0.71604600  1
  P  P13  1  0.05461700  0.41631800  0.77556500  1
  P  P14  1  0.59378100  0.23352400  0.90397600  1
  P  P15  1  0.26495200  0.41506700  0.61375000  1
  O  O0  1  0.68058600  0.03449600  0.51826700  1
  O  O1  1  0.24972600  0.47170700  0.49994500  1
  O  O2  1  0.12369800  0.78183400  0.59883100  1
  O  O3  1  0.41510900  0.64945900  0.39583700  1
  O  O4  1  0.75027400  0.52829300  0.50005500  1
  O  O5  1  0.30279000  0.14323200  0.34085900  1
  O  O6  1  0.31941400  0.96550400  0.48173300  1
  O  O7  1  0.57890800  0.07773800  0.77697000  1
  O  O8  1  0.83300700  0.63538900  0.11905600  1
  O  O9  1  0.01738200  0.58448400  0.85721200  1
  O  O10  1  0.26151800  0.76282200  0.96251800  1
  O  O11  1  0.93401900  0.96755100  0.64904700  1
  O  O12  1  0.87630200  0.21816600  0.40116900  1
  O  O13  1  0.20556100  0.03809400  0.81307800  1
  O  O14  1  0.58489100  0.35054100  0.60416300  1
  O  O15  1  0.14002700  0.46342000  0.68326500  1
  O  O16  1  0.79443900  0.96190600  0.18692200  1
  O  O17  1  0.06598100  0.03244900  0.35095300  1
  O  O18  1  0.03117300  0.84026800  0.04578500  1
  O  O19  1  0.30902800  0.39990300  0.17231200  1
  O  O20  1  0.02973300  0.81613700  0.79895100  1
  O  O21  1  0.44424700  0.80397400  0.68337000  1
  O  O22  1  0.57930600  0.53119200  0.25215700  1
  O  O23  1  0.97026700  0.18386300  0.20104900  1
  O  O24  1  0.09483900  0.67825500  0.31778700  1
  O  O25  1  0.90516100  0.32174500  0.68221300  1
  O  O26  1  0.42069400  0.46880800  0.74784300  1
  O  O27  1  0.69123200  0.90579500  0.90493200  1
  O  O28  1  0.85997300  0.53658000  0.31673500  1
  O  O29  1  0.75018200  0.76654600  0.43177500  1
  O  O30  1  0.69721000  0.85676800  0.65914100  1
  O  O31  1  0.69097200  0.60009700  0.82768800  1
  O  O32  1  0.55575300  0.19602600  0.31663000  1
  O  O33  1  0.30876800  0.09420500  0.09506800  1
  O  O34  1  0.46120200  0.26605700  0.94639900  1
  O  O35  1  0.73848200  0.23717800  0.03748200  1
  O  O36  1  0.16699300  0.36461100  0.88094400  1
  O  O37  1  0.65253900  0.35398400  0.85607800  1
  O  O38  1  0.53879800  0.73394300  0.05360100  1
  O  O39  1  0.98261800  0.41551600  0.14278800  1
  O  O40  1  0.34746100  0.64601600  0.14392200  1
  O  O41  1  0.96882700  0.15973200  0.95421500  1
  O  O42  1  0.42109200  0.92226200  0.22303000  1
  O  O43  1  0.24981800  0.23345400  0.56822500  1
loop_
_geom_bond_atom_site_label_1
_geom_bond_atom_site_label_2
_geom_bond_distance
_geom_bond_site_symmetry_2
Cu0 O25 1.978017 1_555
Cu0 O32 1.991730 1_555
Cu0 O12 1.991840 1_555
Cu0 O14 1.994411 1_555
Cu0 O0 2.364619 1_555
Cu0 O4 2.446445 1_555
Cu1 O24 1.978017 1_555
Cu1 O21 1.991730 1_555
Cu1 O2 1.991840 1_555
Cu1 O3 1.994411 1_555
Cu1 O6 2.364619 1_555
Cu1 O1 2.446445 1_555
Cu2 O27 1.965806 1_554
Cu2 O16 1.988085 1_555
Cu2 O8 1.988185 1_555
Cu2 O31 1.992445 1_554
Cu2 O38 2.261320 1_555
Cu2 O18 2.560363 1_655
Cu3 O33 1.965806 1_556
Cu3 O13 1.988085 1_555
Cu3 O36 1.988185 1_555
Cu3 O19 1.992445 1_556
Cu3 O34 2.261320 1_555
Cu3 O41 2.560363 1_455
O0 P9 1.461351 1_545
O1 P15 1.463668 1_555
O2 P12 1.494812 1_555
O3 P1 1.496347 1_555
O4 P6 1.463668 1_555
O5 P7 1.576818 1_555
O5 P10 1.626718 1_555
O6 P7 1.461351 1_565
O7 P14 1.583314 1_555
O7 P0 1.634652 1_545
O8 P3 1.486277 1_555
O9 P5 1.576770 1_555
O9 P13 1.621590 1_555
O10 P4 1.599319 1_556
O10 P5 1.605874 1_555
O11 P9 1.576388 1_555
O11 P12 1.621147 1_655
O12 P11 1.494812 1_555
O13 P12 1.488234 1_545
O14 P8 1.496347 1_555
O15 P15 1.575058 1_555
O15 P13 1.636055 1_555
O16 P11 1.488234 1_565
O17 P7 1.576388 1_555
O17 P11 1.621147 1_455
O18 P5 1.465207 1_554
O19 P1 1.489986 1_555
O20 P5 1.572809 1_555
O20 P12 1.630082 1_555
O21 P0 1.489253 1_555
O22 P6 1.597422 1_555
O22 P1 1.639018 1_555
O23 P2 1.572809 1_555
O23 P11 1.630082 1_555
O24 P3 1.489699 1_455
O25 P13 1.489699 1_655
O26 P15 1.597422 1_555
O26 P8 1.639018 1_555
O27 P0 1.495214 1_555
O28 P6 1.575058 1_555
O28 P3 1.636055 1_555
O29 P9 1.601384 1_555
O29 P6 1.603433 1_555
O30 P9 1.576818 1_555
O30 P0 1.626718 1_555
O31 P8 1.489986 1_555
O32 P10 1.489253 1_555
O33 P10 1.495214 1_555
O34 P14 1.458675 1_555
O35 P14 1.599319 1_554
O35 P2 1.605874 1_555
O36 P13 1.486277 1_555
O37 P14 1.575026 1_555
O37 P8 1.627021 1_555
O38 P4 1.458675 1_555
O39 P2 1.576770 1_555
O39 P3 1.621590 1_555
O40 P4 1.575026 1_555
O40 P1 1.627021 1_555
O41 P2 1.465207 1_556
O42 P4 1.583314 1_555
O42 P10 1.634652 1_565
O43 P7 1.601384 1_555
O43 P15 1.603433 1_555
