# generated using pymatgen
data_CsGeBiS4
_symmetry_space_group_name_H-M   'P 1'
_cell_length_a   7.03109600
_cell_length_b   6.70322700
_cell_length_c   19.19211282
_cell_angle_alpha   70.79525427
_cell_angle_beta   90.00000000
_cell_angle_gamma   90.00000000
_symmetry_Int_Tables_number   1
_chemical_formula_structural   CsGeBiS4
_chemical_formula_sum   'Cs4 Ge4 Bi4 S16'
_cell_volume   854.20542608
_cell_formula_units_Z   4
loop_
 _symmetry_equiv_pos_site_id
 _symmetry_equiv_pos_as_xyz
  1  'x, y, z'
loop_
 _atom_site_type_symbol
 _atom_site_label
 _atom_site_symmetry_multiplicity
 _atom_site_fract_x
 _atom_site_fract_y
 _atom_site_fract_z
 _atom_site_occupancy
  Cs  Cs0  1  0.74491900  0.70585100  0.03531600  1
  Cs  Cs1  1  0.25508100  0.29414900  0.96468400  1
  Cs  Cs2  1  0.75508100  0.70585100  0.53531600  1
  Cs  Cs3  1  0.24491900  0.29414900  0.46468400  1
  Ge  Ge0  1  0.72171900  0.19869000  0.83799000  1
  Ge  Ge1  1  0.77828100  0.19869000  0.33799000  1
  Ge  Ge2  1  0.22171900  0.80131000  0.66201000  1
  Ge  Ge3  1  0.27828100  0.80131000  0.16201000  1
  Bi  Bi0  1  0.19341500  0.23912100  0.22438000  1
  Bi  Bi1  1  0.69341500  0.76087900  0.27562000  1
  Bi  Bi2  1  0.80658500  0.76087900  0.77562000  1
  Bi  Bi3  1  0.30658500  0.23912100  0.72438000  1
  S  S0  1  0.52411300  0.01970600  0.13856800  1
  S  S1  1  0.74486900  0.40831100  0.40598100  1
  S  S2  1  0.98087900  0.99631600  0.84845500  1
  S  S3  1  0.83937800  0.40966400  0.22121400  1
  S  S4  1  0.97588700  0.01970600  0.63856800  1
  S  S5  1  0.24486900  0.59168900  0.09401900  1
  S  S6  1  0.75513100  0.40831100  0.90598100  1
  S  S7  1  0.33937800  0.59033600  0.27878600  1
  S  S8  1  0.25513100  0.59168900  0.59401900  1
  S  S9  1  0.47588700  0.98029400  0.86143200  1
  S  S10  1  0.66062200  0.40966400  0.72121400  1
  S  S11  1  0.16062200  0.59033600  0.77878600  1
  S  S12  1  0.02411300  0.98029400  0.36143200  1
  S  S13  1  0.01912100  0.00368400  0.15154500  1
  S  S14  1  0.51912100  0.99631600  0.34845500  1
  S  S15  1  0.48087900  0.00368400  0.65154500  1
loop_
_geom_bond_atom_site_label_1
_geom_bond_atom_site_label_2
_geom_bond_distance
_geom_bond_site_symmetry_2
Cs0 S3 3.528712 1_555
Cs0 S6 3.660806 1_554
Cs0 S0 3.675054 1_565
Cs0 S5 3.693822 1_655
Cs0 S5 3.694491 1_555
Cs0 S9 3.749716 1_554
Cs0 S2 3.848497 1_554
Cs0 S13 3.950763 1_665
Cs1 S11 3.528712 1_555
Cs1 S5 3.660806 1_556
Cs1 S9 3.675054 1_545
Cs1 S6 3.693822 1_455
Cs1 S6 3.694491 1_555
Cs1 S0 3.749716 1_556
Cs1 S13 3.848497 1_556
Cs1 S2 3.950763 1_445
Cs2 S10 3.528712 1_555
Cs2 S1 3.660806 1_555
Cs2 S4 3.675054 1_565
Cs2 S8 3.693822 1_555
Cs2 S8 3.694491 1_655
Cs2 S12 3.749716 1_655
Cs2 S14 3.848497 1_555
Cs2 S15 3.950763 1_565
Cs3 S7 3.528712 1_555
Cs3 S8 3.660806 1_555
Cs3 S12 3.675054 1_545
Cs3 S1 3.693822 1_555
Cs3 S1 3.694491 1_455
Cs3 S4 3.749716 1_455
Cs3 S15 3.848497 1_555
Cs3 S14 3.950763 1_545
Ge0 S9 2.213567 1_545
Ge0 S6 2.222299 1_555
Ge0 S2 2.240910 1_545
Ge0 S10 2.263233 1_555
Ge1 S12 2.213567 1_645
Ge1 S1 2.222299 1_555
Ge1 S14 2.240910 1_545
Ge1 S3 2.263233 1_555
Ge2 S4 2.213567 1_465
Ge2 S8 2.222299 1_555
Ge2 S15 2.240910 1_565
Ge2 S11 2.263233 1_555
Ge3 S0 2.213567 1_565
Ge3 S5 2.222299 1_555
Ge3 S13 2.240910 1_565
Ge3 S7 2.263233 1_555
Bi0 S13 2.719896 1_555
Bi0 S3 2.731543 1_455
Bi0 S5 2.843552 1_555
Bi0 S12 2.888496 1_545
Bi0 S7 3.050147 1_555
Bi1 S14 2.719896 1_555
Bi1 S7 2.731543 1_555
Bi1 S1 2.843552 1_555
Bi1 S0 2.888496 1_565
Bi1 S3 3.050147 1_555
Bi2 S2 2.719896 1_555
Bi2 S11 2.731543 1_655
Bi2 S6 2.843552 1_555
Bi2 S4 2.888496 1_565
Bi2 S10 3.050147 1_555
Bi3 S15 2.719896 1_555
Bi3 S10 2.731543 1_555
Bi3 S8 2.843552 1_555
Bi3 S9 2.888496 1_545
Bi3 S11 3.050147 1_555
