# generated using pymatgen
data_La4B4Cl5
_symmetry_space_group_name_H-M   'P 1'
_cell_length_a   4.27157770
_cell_length_b   8.60112894
_cell_length_c   9.07115927
_cell_angle_alpha   63.45399278
_cell_angle_beta   76.38193718
_cell_angle_gamma   75.62217293
_symmetry_Int_Tables_number   1
_chemical_formula_structural   La4B4Cl5
_chemical_formula_sum   'La4 B4 Cl5'
_cell_volume   285.80944133
_cell_formula_units_Z   1
loop_
 _symmetry_equiv_pos_site_id
 _symmetry_equiv_pos_as_xyz
  1  'x, y, z'
loop_
 _atom_site_type_symbol
 _atom_site_label
 _atom_site_symmetry_multiplicity
 _atom_site_fract_x
 _atom_site_fract_y
 _atom_site_fract_z
 _atom_site_occupancy
  La  La0  1  0.83975677  0.08176792  0.23871854  1
  La  La1  1  0.43734605  0.32851262  0.79679427  1
  La  La2  1  0.56265395  0.67148738  0.20320573  1
  La  La3  1  0.16024323  0.91823208  0.76128146  1
  B  B0  1  0.97563497  0.12504672  0.92368234  1
  B  B1  1  0.68449021  1.00000000  1.00000000  1
  B  B2  1  0.02436503  0.87495328  0.07631766  1
  B  B3  1  0.31550979  0.00000000  0.00000000  1
  Cl  Cl0  1  0.75401218  0.64383865  0.84813600  1
  Cl  Cl1  1  0.00000000  0.50000000  0.50000000  1
  Cl  Cl2  1  0.64834465  0.15083065  0.55248105  1
  Cl  Cl3  1  0.35165535  0.84916935  0.44751895  1
  Cl  Cl4  1  0.24598782  0.35616135  0.15186400  1
loop_
_geom_bond_atom_site_label_1
_geom_bond_atom_site_label_2
_geom_bond_distance
_geom_bond_site_symmetry_2
B0 B1 1.666147 1_545
B0 B3 1.666150 1_656
B0 B2 1.959275 1_646
B0 La0 2.649063 1_556
B0 La3 2.656116 1_645
B0 La1 2.668679 1_655
B0 La1 2.668679 1_555
B1 B3 1.576129 1_566
B1 B2 1.666150 1_656
B1 La2 2.697342 1_556
B1 La1 2.697344 1_565
B1 La3 2.809433 1_655
B1 La0 2.809434 1_566
B2 B3 1.666147 1_565
B2 La3 2.649063 1_554
B2 La0 2.656116 1_465
B2 La2 2.668679 1_455
B2 La2 2.668679 1_555
B3 La1 2.697342 1_554
B3 La2 2.697344 1_545
B3 La0 2.809433 1_455
B3 La3 2.809434 1_544
Cl0 La3 2.988293 1_555
Cl0 La3 2.988296 1_655
Cl0 La2 3.232213 1_556
Cl0 La1 3.556691 1_655
Cl0 La1 3.556691 1_555
Cl1 La1 3.219377 1_555
Cl1 La2 3.219377 1_455
Cl1 La2 3.219380 1_555
Cl1 La1 3.219380 1_455
Cl2 La3 2.960056 1_645
Cl2 La3 2.960059 1_545
Cl2 La0 3.048986 1_555
Cl2 La1 3.076068 1_555
Cl3 La0 2.960056 1_465
Cl3 La0 2.960059 1_565
Cl3 La3 3.048986 1_555
Cl3 La2 3.076068 1_555
Cl4 La0 2.988293 1_555
Cl4 La0 2.988296 1_455
Cl4 La1 3.232213 1_554
Cl4 La2 3.556691 1_455
Cl4 La2 3.556691 1_555
