# generated using pymatgen
data_SnP2Cl8O3
_symmetry_space_group_name_H-M   'P 1'
_cell_length_a   8.98035500
_cell_length_b   9.24278107
_cell_length_c   11.04151360
_cell_angle_alpha   69.90646677
_cell_angle_beta   71.26402932
_cell_angle_gamma   65.38708799
_symmetry_Int_Tables_number   1
_chemical_formula_structural   SnP2Cl8O3
_chemical_formula_sum   'Sn2 P4 Cl16 O6'
_cell_volume   765.28114167
_cell_formula_units_Z   2
loop_
 _symmetry_equiv_pos_site_id
 _symmetry_equiv_pos_as_xyz
  1  'x, y, z'
loop_
 _atom_site_type_symbol
 _atom_site_label
 _atom_site_symmetry_multiplicity
 _atom_site_fract_x
 _atom_site_fract_y
 _atom_site_fract_z
 _atom_site_occupancy
  Sn  Sn0  1  0.90988900  0.79507800  0.23159300  1
  Sn  Sn1  1  0.09011100  0.20492200  0.76840700  1
  P  P0  1  0.79244700  0.20467600  0.06404600  1
  P  P1  1  0.22220800  0.80685600  0.36362900  1
  P  P2  1  0.20755300  0.79532400  0.93595400  1
  P  P3  1  0.77779200  0.19314400  0.63637100  1
  Cl  Cl0  1  0.54369200  0.26545500  0.08904500  1
  Cl  Cl1  1  0.78801600  0.20722800  0.45079400  1
  Cl  Cl2  1  0.04110100  0.50615600  0.29280500  1
  Cl  Cl3  1  0.45630800  0.73454500  0.91095500  1
  Cl  Cl4  1  0.24000100  0.18717600  0.91961100  1
  Cl  Cl5  1  0.28551000  0.00140200  0.25687700  1
  Cl  Cl6  1  0.31383400  0.16884200  0.58292100  1
  Cl  Cl7  1  0.81370100  0.39637000  0.09491700  1
  Cl  Cl8  1  0.41303600  0.61266800  0.31709500  1
  Cl  Cl9  1  0.18629900  0.60363000  0.90508300  1
  Cl  Cl10  1  0.71449000  0.99859800  0.74312300  1
  Cl  Cl11  1  0.58696400  0.38733200  0.68290500  1
  Cl  Cl12  1  0.68616600  0.83115800  0.41707900  1
  Cl  Cl13  1  0.75999900  0.81282400  0.08038900  1
  Cl  Cl14  1  0.21198400  0.79277200  0.54920600  1
  Cl  Cl15  1  0.95889900  0.49384400  0.70719500  1
  O  O0  1  0.94099200  0.18234800  0.65234000  1
  O  O1  1  0.85668900  0.05810500  0.17317900  1
  O  O2  1  0.14331100  0.94189500  0.82682100  1
  O  O3  1  0.05900800  0.81765200  0.34766000  1
  O  O4  1  0.13236800  0.80621500  0.07774600  1
  O  O5  1  0.86763200  0.19378500  0.92225400  1
loop_
_geom_bond_atom_site_label_1
_geom_bond_atom_site_label_2
_geom_bond_distance
_geom_bond_site_symmetry_2
Cl0 P0 2.011769 1_555
Cl1 P3 1.982374 1_555
Cl2 Sn0 2.372114 1_455
Cl3 P2 2.011769 1_555
Cl4 Sn1 2.386990 1_555
Cl5 P1 1.977506 1_545
Cl6 Sn1 2.368553 1_555
Cl7 P0 2.007560 1_555
Cl8 P1 1.981954 1_555
Cl9 P2 2.007560 1_555
Cl10 P3 1.977506 1_565
Cl11 P3 1.981954 1_555
Cl12 Sn0 2.368553 1_555
Cl13 Sn0 2.386990 1_555
Cl14 P1 1.982374 1_555
Cl15 Sn1 2.372114 1_655
O0 P3 1.490341 1_555
O0 Sn1 2.235662 1_655
O1 P0 1.514608 1_555
O1 Sn0 2.169699 1_545
O2 P2 1.514608 1_555
O2 Sn1 2.169699 1_565
O3 P1 1.490341 1_555
O3 Sn0 2.235662 1_455
O4 P2 1.513176 1_554
O4 Sn0 2.181472 1_455
O5 P0 1.513176 1_556
O5 Sn1 2.181472 1_655
