# generated using pymatgen
data_NaY(SiO3)2
_symmetry_space_group_name_H-M   'P 1'
_cell_length_a   6.70423733
_cell_length_b   6.70423733
_cell_length_c   17.85495662
_cell_angle_alpha   83.29156876
_cell_angle_beta   83.29156876
_cell_angle_gamma   103.49154983
_symmetry_Int_Tables_number   1
_chemical_formula_structural   NaY(SiO3)2
_chemical_formula_sum   'Na6 Y6 Si12 O36'
_cell_volume   766.36146595
_cell_formula_units_Z   6
loop_
 _symmetry_equiv_pos_site_id
 _symmetry_equiv_pos_as_xyz
  1  'x, y, z'
loop_
 _atom_site_type_symbol
 _atom_site_label
 _atom_site_symmetry_multiplicity
 _atom_site_fract_x
 _atom_site_fract_y
 _atom_site_fract_z
 _atom_site_occupancy
  Na  Na0  1  0.87645500  0.12354500  0.25000000  1
  Na  Na1  1  0.12354500  0.87645500  0.75000000  1
  Na  Na2  1  0.00502900  0.63764900  0.58300300  1
  Na  Na3  1  0.99497100  0.36235100  0.41699700  1
  Na  Na4  1  0.63764900  0.00502900  0.08300300  1
  Na  Na5  1  0.36235100  0.99497100  0.91699700  1
  Y  Y0  1  0.60774900  0.39225100  0.75000000  1
  Y  Y1  1  0.63946700  0.73473500  0.42653200  1
  Y  Y2  1  0.36053300  0.26526500  0.57346800  1
  Y  Y3  1  0.73473500  0.63946700  0.92653200  1
  Y  Y4  1  0.26526500  0.36053300  0.07346800  1
  Y  Y5  1  0.39225100  0.60774900  0.25000000  1
  Si  Si0  1  0.46562800  0.80922500  0.60156100  1
  Si  Si1  1  0.64611700  0.88644900  0.74306200  1
  Si  Si2  1  0.88644900  0.64611700  0.24306200  1
  Si  Si3  1  0.16671200  0.82146100  0.10113100  1
  Si  Si4  1  0.53437200  0.19077500  0.39843900  1
  Si  Si5  1  0.35388300  0.11355100  0.25693800  1
  Si  Si6  1  0.17853900  0.83328800  0.39886900  1
  Si  Si7  1  0.80922500  0.46562800  0.10156100  1
  Si  Si8  1  0.83328800  0.17853900  0.89886900  1
  Si  Si9  1  0.19077500  0.53437200  0.89843900  1
  Si  Si10  1  0.11355100  0.35388300  0.75693800  1
  Si  Si11  1  0.82146100  0.16671200  0.60113100  1
  O  O0  1  0.29099800  0.28157500  0.19781800  1
  O  O1  1  0.70900200  0.71842500  0.80218200  1
  O  O2  1  0.62826100  0.43537700  0.04820000  1
  O  O3  1  0.04142400  0.27626300  0.54915800  1
  O  O4  1  0.28157500  0.29099800  0.69781800  1
  O  O5  1  0.67521100  0.99201200  0.55672800  1
  O  O6  1  0.00798800  0.32478900  0.94327200  1
  O  O7  1  0.32858100  0.68138800  0.12240000  1
  O  O8  1  0.27462900  0.91530400  0.61551000  1
  O  O9  1  0.31861200  0.67141900  0.37760000  1
  O  O10  1  0.48957200  0.96727600  0.22281800  1
  O  O11  1  0.96727600  0.48957200  0.72281800  1
  O  O12  1  0.72537100  0.08469600  0.38449000  1
  O  O13  1  0.95857600  0.72373700  0.45084200  1
  O  O14  1  0.68138800  0.32858100  0.62240000  1
  O  O15  1  0.08469600  0.72537100  0.88449000  1
  O  O16  1  0.56462300  0.37173900  0.45180000  1
  O  O17  1  0.32478900  0.00798800  0.44327200  1
  O  O18  1  0.85177700  0.02893100  0.68122800  1
  O  O19  1  0.27626300  0.04142400  0.04915800  1
  O  O20  1  0.43537700  0.62826100  0.54820000  1
  O  O21  1  0.27538200  0.47015100  0.81489800  1
  O  O22  1  0.67141900  0.31861200  0.87760000  1
  O  O23  1  0.91530400  0.27462900  0.11551000  1
  O  O24  1  0.52984900  0.72461800  0.68510200  1
  O  O25  1  0.47015100  0.27538200  0.31489800  1
  O  O26  1  0.99201200  0.67521100  0.05672800  1
  O  O27  1  0.37173900  0.56462300  0.95180000  1
  O  O28  1  0.72373700  0.95857600  0.95084200  1
  O  O29  1  0.03272400  0.51042800  0.27718200  1
  O  O30  1  0.97106900  0.14822300  0.81877200  1
  O  O31  1  0.72461800  0.52984900  0.18510200  1
  O  O32  1  0.02893100  0.85177700  0.18122800  1
  O  O33  1  0.14822300  0.97106900  0.31877200  1
  O  O34  1  0.71842500  0.70900200  0.30218200  1
  O  O35  1  0.51042800  0.03272400  0.77718200  1
loop_
_geom_bond_atom_site_label_1
_geom_bond_atom_site_label_2
_geom_bond_distance
_geom_bond_site_symmetry_2
Na0 O12 2.454104 1_555
Na0 O23 2.454104 1_555
Na0 O32 2.640250 1_645
Na0 O33 2.640250 1_645
Na0 O29 2.684339 1_655
Na0 O10 2.684339 1_545
Na0 O34 2.739522 1_545
Na0 O0 2.739522 1_655
Na1 O15 2.454104 1_555
Na1 O8 2.454104 1_555
Na1 O30 2.640250 1_465
Na1 O18 2.640250 1_465
Na1 O11 2.684339 1_455
Na1 O35 2.684339 1_565
Na1 O1 2.739522 1_455
Na1 O4 2.739522 1_565
Na2 O13 2.436348 1_455
Na2 O8 2.448769 1_555
Na2 O11 2.537261 1_455
Na2 O14 2.588673 1_455
Na2 O3 2.622636 1_555
Na2 O20 2.896416 1_555
Na3 O3 2.436348 1_655
Na3 O12 2.448769 1_555
Na3 O29 2.537261 1_655
Na3 O9 2.588673 1_655
Na3 O13 2.622636 1_555
Na3 O16 2.896416 1_555
Na4 O28 2.436348 1_544
Na4 O23 2.448769 1_555
Na4 O10 2.537261 1_545
Na4 O7 2.588673 1_545
Na4 O19 2.622636 1_555
Na4 O2 2.896416 1_555
Na5 O19 2.436348 1_566
Na5 O15 2.448769 1_555
Na5 O35 2.537261 1_565
Na5 O22 2.588673 1_565
Na5 O28 2.622636 1_555
Na5 O27 2.896416 1_555
O0 Si5 1.615149 1_555
O0 Y4 2.257667 1_555
O0 Y5 2.458025 1_555
O1 Si1 1.615149 1_555
O1 Y3 2.257667 1_555
O1 Y0 2.458025 1_555
O2 Si7 1.619009 1_555
O2 Y4 2.344909 1_555
O2 Y3 2.363989 1_554
O3 Si11 1.609636 1_455
O3 Y2 2.248083 1_555
O4 Si10 1.615149 1_555
O4 Y2 2.257667 1_555
O4 Y0 2.458025 1_555
O5 Si0 1.679702 1_555
O5 Si11 1.680602 1_565
O6 Si9 1.679702 1_555
O6 Si8 1.680602 1_455
O7 Si3 1.640808 1_555
O7 Y4 2.381250 1_555
O7 Y5 2.383131 1_555
O8 Si0 1.612230 1_555
O8 Y2 2.292805 1_565
O9 Si6 1.640808 1_555
O9 Y1 2.381250 1_555
O9 Y5 2.383131 1_555
O10 Si5 1.608333 1_565
O10 Y5 2.321628 1_555
O11 Si10 1.608333 1_655
O11 Y0 2.321628 1_555
O12 Si4 1.612230 1_555
O12 Y1 2.292805 1_545
O13 Si6 1.609636 1_655
O13 Y1 2.248083 1_555
O14 Si11 1.640808 1_555
O14 Y2 2.381250 1_555
O14 Y0 2.383131 1_555
O15 Si9 1.612230 1_555
O15 Y3 2.292805 1_455
O16 Si4 1.619009 1_555
O16 Y1 2.344909 1_555
O16 Y2 2.363989 1_555
O17 Si4 1.679702 1_555
O17 Si6 1.680602 1_545
O18 Si11 1.669341 1_555
O18 Si1 1.678053 1_545
O19 Si3 1.609636 1_545
O19 Y4 2.248083 1_555
O20 Si0 1.619009 1_555
O20 Y2 2.344909 1_555
O20 Y1 2.363989 1_555
O21 Si9 1.672835 1_555
O21 Si10 1.706419 1_555
O21 Y0 2.581043 1_555
O22 Si8 1.640808 1_555
O22 Y3 2.381250 1_555
O22 Y0 2.383131 1_555
O23 Si7 1.612230 1_555
O23 Y4 2.292805 1_655
O24 Si0 1.672835 1_555
O24 Si1 1.706419 1_555
O24 Y0 2.581043 1_555
O25 Si4 1.672835 1_555
O25 Si5 1.706419 1_555
O25 Y5 2.581043 1_555
O26 Si7 1.679702 1_555
O26 Si3 1.680602 1_655
O27 Si9 1.619009 1_555
O27 Y3 2.344909 1_555
O27 Y4 2.363989 1_556
O28 Si8 1.609636 1_565
O28 Y3 2.248083 1_555
O29 Si2 1.608333 1_455
O29 Y5 2.321628 1_555
O30 Si8 1.669341 1_555
O30 Si10 1.678053 1_655
O31 Si7 1.672835 1_555
O31 Si2 1.706419 1_555
O31 Y5 2.581043 1_555
O32 Si3 1.669341 1_555
O32 Si2 1.678053 1_455
O33 Si6 1.669341 1_555
O33 Si5 1.678053 1_565
O34 Si2 1.615149 1_555
O34 Y1 2.257667 1_555
O34 Y5 2.458025 1_555
O35 Si1 1.608333 1_545
O35 Y0 2.321628 1_555
