# generated using pymatgen
data_MnH12C2(NCl2)2
_symmetry_space_group_name_H-M   'P 1'
_cell_length_a   7.28467100
_cell_length_b   7.28467100
_cell_length_c   19.69359200
_cell_angle_alpha   90.00000000
_cell_angle_beta   90.00000000
_cell_angle_gamma   90.00000000
_symmetry_Int_Tables_number   1
_chemical_formula_structural   MnH12C2(NCl2)2
_chemical_formula_sum   'Mn4 H48 C8 N8 Cl16'
_cell_volume   1045.06865240
_cell_formula_units_Z   4
loop_
 _symmetry_equiv_pos_site_id
 _symmetry_equiv_pos_as_xyz
  1  'x, y, z'
loop_
 _atom_site_type_symbol
 _atom_site_label
 _atom_site_symmetry_multiplicity
 _atom_site_fract_x
 _atom_site_fract_y
 _atom_site_fract_z
 _atom_site_occupancy
  Mn  Mn0  1  0.25000000  0.75000000  0.75000000  1
  Mn  Mn1  1  0.75000000  0.25000000  0.75000000  1
  Mn  Mn2  1  0.25000000  0.25000000  0.25000000  1
  Mn  Mn3  1  0.75000000  0.75000000  0.25000000  1
  H  H0  1  0.80551600  0.30551600  0.02903800  1
  H  H1  1  0.90527400  0.24350300  0.14383200  1
  H  H2  1  0.25649700  0.59472600  0.14383200  1
  H  H3  1  0.74350300  0.40527400  0.14383200  1
  H  H4  1  0.19448400  0.69448400  0.02903800  1
  H  H5  1  0.75027300  0.42452200  0.44584100  1
  H  H6  1  0.07547800  0.74972700  0.44584100  1
  H  H7  1  0.75649700  0.90527400  0.85616800  1
  H  H8  1  0.68864900  0.18864900  0.16795000  1
  H  H9  1  0.59472600  0.74350300  0.85616800  1
  H  H10  1  0.42452200  0.75027300  0.05415900  1
  H  H11  1  0.81135100  0.31135100  0.33205000  1
  H  H12  1  0.18864900  0.31135100  0.83205000  1
  H  H13  1  0.24350300  0.09472600  0.85616800  1
  H  H14  1  0.90527400  0.75649700  0.64383200  1
  H  H15  1  0.57547800  0.24972700  0.05415900  1
  H  H16  1  0.09472600  0.75649700  0.14383200  1
  H  H17  1  0.25027300  0.92452200  0.05415900  1
  H  H18  1  0.40527400  0.74350300  0.35616800  1
  H  H19  1  0.31135100  0.81135100  0.16795000  1
  H  H20  1  0.24972700  0.57547800  0.44584100  1
  H  H21  1  0.30551600  0.19448400  0.97096200  1
  H  H22  1  0.24350300  0.90527400  0.35616800  1
  H  H23  1  0.19448400  0.30551600  0.52903800  1
  H  H24  1  0.75027300  0.57547800  0.94584100  1
  H  H25  1  0.30551600  0.80551600  0.47096200  1
  H  H26  1  0.69448400  0.80551600  0.97096200  1
  H  H27  1  0.09472600  0.24350300  0.64383200  1
  H  H28  1  0.81135100  0.68864900  0.83205000  1
  H  H29  1  0.31135100  0.18864900  0.66795000  1
  H  H30  1  0.68864900  0.81135100  0.66795000  1
  H  H31  1  0.74972700  0.07547800  0.05415900  1
  H  H32  1  0.75649700  0.09472600  0.35616800  1
  H  H33  1  0.69448400  0.19448400  0.47096200  1
  H  H34  1  0.59472600  0.25649700  0.35616800  1
  H  H35  1  0.07547800  0.25027300  0.94584100  1
  H  H36  1  0.25027300  0.07547800  0.55415900  1
  H  H37  1  0.24972700  0.42452200  0.94584100  1
  H  H38  1  0.92452200  0.74972700  0.94584100  1
  H  H39  1  0.25649700  0.40527400  0.64383200  1
  H  H40  1  0.92452200  0.25027300  0.44584100  1
  H  H41  1  0.74350300  0.59472600  0.64383200  1
  H  H42  1  0.40527400  0.25649700  0.85616800  1
  H  H43  1  0.18864900  0.68864900  0.33205000  1
  H  H44  1  0.74972700  0.92452200  0.55415900  1
  H  H45  1  0.80551600  0.69448400  0.52903800  1
  H  H46  1  0.42452200  0.24972700  0.55415900  1
  H  H47  1  0.57547800  0.75027300  0.55415900  1
  C  C0  1  0.77882700  0.27882700  0.43723200  1
  C  C1  1  0.22117300  0.72117300  0.43723200  1
  C  C2  1  0.72117300  0.77882700  0.56276800  1
  C  C3  1  0.27882700  0.77882700  0.06276800  1
  C  C4  1  0.77882700  0.72117300  0.93723200  1
  C  C5  1  0.72117300  0.22117300  0.06276800  1
  C  C6  1  0.22117300  0.27882700  0.93723200  1
  C  C7  1  0.27882700  0.22117300  0.56276800  1
  N  N0  1  0.73338600  0.76661400  0.86564600  1
  N  N1  1  0.76661400  0.26661400  0.13435400  1
  N  N2  1  0.23338600  0.26661400  0.63435400  1
  N  N3  1  0.73338600  0.23338600  0.36564600  1
  N  N4  1  0.26661400  0.23338600  0.86564600  1
  N  N5  1  0.26661400  0.76661400  0.36564600  1
  N  N6  1  0.76661400  0.73338600  0.63435400  1
  N  N7  1  0.23338600  0.73338600  0.13435400  1
  Cl  Cl0  1  0.78606800  0.71393200  0.12487900  1
  Cl  Cl1  1  0.71393200  0.21393200  0.87512100  1
  Cl  Cl2  1  0.50000000  0.00000000  0.72734000  1
  Cl  Cl3  1  0.50000000  0.00000000  0.22734000  1
  Cl  Cl4  1  0.21393200  0.28606800  0.12487900  1
  Cl  Cl5  1  0.21393200  0.71393200  0.62487900  1
  Cl  Cl6  1  0.00000000  0.50000000  0.77266000  1
  Cl  Cl7  1  0.78606800  0.28606800  0.62487900  1
  Cl  Cl8  1  0.28606800  0.21393200  0.37512100  1
  Cl  Cl9  1  0.28606800  0.78606800  0.87512100  1
  Cl  Cl10  1  0.00000000  0.00000000  0.25000000  1
  Cl  Cl11  1  0.50000000  0.50000000  0.25000000  1
  Cl  Cl12  1  0.00000000  0.50000000  0.27266000  1
  Cl  Cl13  1  0.00000000  0.00000000  0.75000000  1
  Cl  Cl14  1  0.71393200  0.78606800  0.37512100  1
  Cl  Cl15  1  0.50000000  0.50000000  0.75000000  1
loop_
_geom_bond_atom_site_label_1
_geom_bond_atom_site_label_2
_geom_bond_distance
_geom_bond_site_symmetry_2
H1 N1 1.040899 1_555
H2 N7 1.040899 1_555
H3 N1 1.040899 1_555
H7 N0 1.040899 1_555
H8 N1 1.040616 1_555
H9 N0 1.040899 1_555
H11 N3 1.040616 1_555
H12 N4 1.040616 1_555
H13 N4 1.040899 1_555
H14 N6 1.040899 1_555
H16 N7 1.040899 1_555
H18 N5 1.040899 1_555
H19 N7 1.040616 1_555
H22 N5 1.040899 1_555
H27 N2 1.040899 1_555
H28 N0 1.040616 1_555
H29 N2 1.040616 1_555
H30 N6 1.040616 1_555
H32 N3 1.040899 1_555
H34 N3 1.040899 1_555
H39 N2 1.040899 1_555
H41 N6 1.040899 1_555
H42 N4 1.040899 1_555
H43 N5 1.040616 1_555
C0 H33 1.093732 1_555
C0 H40 1.094739 1_555
C0 H5 1.094739 1_555
C0 N3 1.485479 1_555
C1 H25 1.093732 1_555
C1 H20 1.094739 1_555
C1 H6 1.094739 1_555
C1 N5 1.485479 1_555
C2 H45 1.093732 1_555
C2 H47 1.094739 1_555
C2 H44 1.094739 1_555
C2 N6 1.485479 1_555
C3 H4 1.093732 1_555
C3 H17 1.094739 1_555
C3 H10 1.094739 1_555
C3 N7 1.485479 1_555
C4 H26 1.093732 1_555
C4 H38 1.094739 1_555
C4 H24 1.094739 1_555
C4 N0 1.485479 1_555
C5 H0 1.093732 1_555
C5 H15 1.094739 1_555
C5 H31 1.094739 1_555
C5 N1 1.485479 1_555
C6 H21 1.093732 1_555
C6 H35 1.094739 1_555
C6 H37 1.094739 1_555
C6 N4 1.485479 1_555
C7 H23 1.093732 1_555
C7 H36 1.094739 1_555
C7 H46 1.094739 1_555
C7 N2 1.485479 1_555
Cl0 Mn3 2.491941 1_555
Cl1 Mn1 2.491941 1_555
Cl2 Mn1 2.613895 1_555
Cl2 Mn0 2.613895 1_545
Cl3 Mn3 2.613895 1_545
Cl3 Mn2 2.613895 1_555
Cl4 Mn2 2.491941 1_555
Cl5 Mn0 2.491941 1_555
Cl6 Mn1 2.613895 1_455
Cl6 Mn0 2.613895 1_555
Cl7 Mn1 2.491941 1_555
Cl8 Mn2 2.491941 1_555
Cl9 Mn0 2.491941 1_555
Cl10 Mn2 2.575520 1_555
Cl10 Mn3 2.575520 1_445
Cl11 Mn3 2.575520 1_555
Cl11 Mn2 2.575520 1_555
Cl12 Mn3 2.613895 1_455
Cl12 Mn2 2.613895 1_555
Cl13 Mn0 2.575520 1_545
Cl13 Mn1 2.575520 1_455
Cl14 Mn3 2.491941 1_555
Cl15 Mn0 2.575520 1_555
Cl15 Mn1 2.575520 1_555
