# generated using pymatgen
data_LiGaO2
_symmetry_space_group_name_H-M   'P 1'
_cell_length_a   5.00599204
_cell_length_b   5.40127230
_cell_length_c   6.35097180
_cell_angle_alpha   90.00000000
_cell_angle_beta   90.00000000
_cell_angle_gamma   90.00000000
_symmetry_Int_Tables_number   1
_chemical_formula_structural   LiGaO2
_chemical_formula_sum   'Li4 Ga4 O8'
_cell_volume   171.72218722
_cell_formula_units_Z   4
loop_
 _symmetry_equiv_pos_site_id
 _symmetry_equiv_pos_as_xyz
  1  'x, y, z'
loop_
 _atom_site_type_symbol
 _atom_site_label
 _atom_site_symmetry_multiplicity
 _atom_site_fract_x
 _atom_site_fract_y
 _atom_site_fract_z
 _atom_site_occupancy
  Li  Li0  1  0.99938833  0.58201966  0.87561413  1
  Li  Li1  1  0.49938833  0.91798034  0.37561413  1
  Li  Li2  1  0.99938833  0.08201966  0.62438587  1
  Li  Li3  1  0.49938833  0.41798034  0.12438587  1
  Ga  Ga0  1  0.00430466  0.58246101  0.37378233  1
  Ga  Ga1  1  0.50430466  0.41753899  0.62621767  1
  Ga  Ga2  1  0.50430466  0.91753899  0.87378233  1
  Ga  Ga3  1  0.00430466  0.08246101  0.12621767  1
  O  O0  1  0.37544181  0.07075260  0.11423634  1
  O  O1  1  0.37544181  0.57075260  0.38576366  1
  O  O2  1  0.87544181  0.92924740  0.88576366  1
  O  O3  1  0.87544181  0.42924740  0.61423634  1
  O  O4  1  0.89406620  0.40900129  0.13654881  1
  O  O5  1  0.39406620  0.59099871  0.86345119  1
  O  O6  1  0.39406620  0.09099871  0.63654881  1
  O  O7  1  0.89406620  0.90900129  0.36345119  1
loop_
_geom_bond_atom_site_label_1
_geom_bond_atom_site_label_2
_geom_bond_distance
_geom_bond_site_symmetry_2
Li0 O3 1.954865 1_555
Li0 O4 1.974230 1_556
Li0 O2 1.976496 1_555
Li0 O5 1.977858 1_655
Li1 O0 1.954865 1_565
Li1 O6 1.974230 1_565
Li1 O1 1.976496 1_555
Li1 O7 1.977858 1_555
Li2 O2 1.954865 1_545
Li2 O7 1.974230 1_545
Li2 O3 1.976496 1_555
Li2 O6 1.977858 1_655
Li3 O1 1.954865 1_555
Li3 O5 1.974230 1_554
Li3 O0 1.976496 1_555
Li3 O4 1.977858 1_555
Ga0 O7 1.849216 1_455
Ga0 O3 1.852851 1_455
Ga0 O4 1.858054 1_455
Ga0 O1 1.860542 1_555
Ga1 O6 1.849216 1_555
Ga1 O1 1.852851 1_555
Ga1 O5 1.858054 1_555
Ga1 O3 1.860542 1_555
Ga2 O5 1.849216 1_555
Ga2 O0 1.852851 1_566
Ga2 O6 1.858054 1_565
Ga2 O2 1.860542 1_555
Ga3 O4 1.849216 1_455
Ga3 O2 1.852851 1_444
Ga3 O7 1.858054 1_445
Ga3 O0 1.860542 1_555
