# generated using pymatgen
data_Ga2NiO4
_symmetry_space_group_name_H-M   'P 1'
_cell_length_a   5.91552830
_cell_length_b   5.91552830
_cell_length_c   19.56325313
_cell_angle_alpha   81.51376866
_cell_angle_beta   81.51376866
_cell_angle_gamma   60.62245012
_symmetry_Int_Tables_number   1
_chemical_formula_structural   Ga2NiO4
_chemical_formula_sum   'Ga16 Ni8 O32'
_cell_volume   587.77222478
_cell_formula_units_Z   8
loop_
 _symmetry_equiv_pos_site_id
 _symmetry_equiv_pos_as_xyz
  1  'x, y, z'
loop_
 _atom_site_type_symbol
 _atom_site_label
 _atom_site_symmetry_multiplicity
 _atom_site_fract_x
 _atom_site_fract_y
 _atom_site_fract_z
 _atom_site_occupancy
  Ga  Ga0  1  0.30691700  0.30691700  0.06144300  1
  Ga  Ga1  1  0.78276000  0.27756400  0.15812700  1
  Ga  Ga2  1  0.65675500  0.65675500  0.02807900  1
  Ga  Ga3  1  0.55628200  0.55628200  0.31511600  1
  Ga  Ga4  1  0.27756400  0.78276000  0.15812700  1
  Ga  Ga5  1  0.25584800  0.25584800  0.25046700  1
  Ga  Ga6  1  0.03114200  0.53134400  0.40698600  1
  Ga  Ga7  1  0.80639600  0.80639600  0.56476800  1
  Ga  Ga8  1  0.75643500  0.75643500  0.74666200  1
  Ga  Ga9  1  0.53134400  0.03114200  0.40698600  1
  Ga  Ga10  1  0.28137800  0.78139400  0.65622000  1
  Ga  Ga11  1  0.50618300  0.50618300  0.49842100  1
  Ga  Ga12  1  0.05601700  0.05601700  0.81466100  1
  Ga  Ga13  1  0.78139400  0.28137800  0.65622000  1
  Ga  Ga14  1  0.53224100  0.02907500  0.90467400  1
  Ga  Ga15  1  0.02907500  0.53224100  0.90467400  1
  Ni  Ni0  1  0.00293600  0.00293600  0.00039600  1
  Ni  Ni1  1  0.78172100  0.78172100  0.15784900  1
  Ni  Ni2  1  0.03109400  0.03109400  0.40674600  1
  Ni  Ni3  1  0.90613600  0.90613600  0.28190600  1
  Ni  Ni4  1  0.28130400  0.28130400  0.65605900  1
  Ni  Ni5  1  0.15620300  0.15620300  0.53137200  1
  Ni  Ni6  1  0.53227900  0.53227900  0.90477200  1
  Ni  Ni7  1  0.40622000  0.40622000  0.78086300  1
  O  O0  1  0.94577100  0.47429300  0.09449400  1
  O  O1  1  0.58996900  0.58996900  0.21459000  1
  O  O2  1  0.47429300  0.94577100  0.09449400  1
  O  O3  1  0.47608900  0.47608900  0.09492200  1
  O  O4  1  0.09207300  0.09207300  0.21703100  1
  O  O5  1  0.20123500  0.71743900  0.34701200  1
  O  O6  1  0.84084800  0.84084800  0.46501600  1
  O  O7  1  0.09553100  0.60782300  0.21699600  1
  O  O8  1  0.71743900  0.20123500  0.34701200  1
  O  O9  1  0.97284700  0.97284700  0.10525800  1
  O  O10  1  0.60782300  0.09553100  0.21699600  1
  O  O11  1  0.72300100  0.72300100  0.34720000  1
  O  O12  1  0.33981800  0.33981800  0.46558000  1
  O  O13  1  0.45123300  0.96758300  0.59670200  1
  O  O14  1  0.09084800  0.09084800  0.71485400  1
  O  O15  1  0.34522300  0.86095200  0.46575500  1
  O  O16  1  0.96758300  0.45123300  0.59670200  1
  O  O17  1  0.22146200  0.22146200  0.34918100  1
  O  O18  1  0.86095200  0.34522300  0.46575500  1
  O  O19  1  0.97315600  0.97315600  0.59696500  1
  O  O20  1  0.58931600  0.58931600  0.71464800  1
  O  O21  1  0.70091500  0.21750200  0.84635700  1
  O  O22  1  0.59474000  0.11222200  0.71499500  1
  O  O23  1  0.34134700  0.34134700  0.96373000  1
  O  O24  1  0.21750200  0.70091500  0.84635700  1
  O  O25  1  0.47174500  0.47174500  0.59738900  1
  O  O26  1  0.11222200  0.59474000  0.71499500  1
  O  O27  1  0.22248200  0.22248200  0.84707300  1
  O  O28  1  0.83230500  0.83230500  0.96394800  1
  O  O29  1  0.83743300  0.37534900  0.96584500  1
  O  O30  1  0.72182800  0.72182800  0.84470500  1
  O  O31  1  0.37534900  0.83743300  0.96584500  1
loop_
_geom_bond_atom_site_label_1
_geom_bond_atom_site_label_2
_geom_bond_distance
_geom_bond_site_symmetry_2
Ga0 O23 1.883613 1_554
Ga0 O2 1.915308 1_545
Ga0 O0 1.915308 1_455
Ga0 O3 1.949723 1_555
Ga1 O9 1.949807 1_545
Ga1 O10 1.983010 1_555
Ga1 O1 2.024572 1_555
Ga1 O0 2.037900 1_555
Ga1 O4 2.039411 1_655
Ga1 O3 2.083828 1_555
Ga2 O29 1.965771 1_554
Ga2 O31 1.965771 1_554
Ga2 O28 2.004966 1_554
Ga2 O2 2.051190 1_555
Ga2 O0 2.051190 1_555
Ga2 O3 2.071246 1_555
Ga3 O8 1.879817 1_555
Ga3 O5 1.879817 1_555
Ga3 O11 1.912842 1_555
Ga3 O1 1.937686 1_555
Ga4 O9 1.949807 1_455
Ga4 O7 1.983010 1_555
Ga4 O1 2.024572 1_555
Ga4 O2 2.037900 1_555
Ga4 O4 2.039411 1_565
Ga4 O3 2.083828 1_555
Ga5 O10 1.872680 1_555
Ga5 O7 1.872680 1_555
Ga5 O4 1.897377 1_555
Ga5 O17 1.902860 1_555
Ga6 O18 1.979879 1_455
Ga6 O5 1.989474 1_555
Ga6 O17 2.029257 1_555
Ga6 O6 2.030341 1_455
Ga6 O12 2.033848 1_555
Ga6 O11 2.046043 1_455
Ga7 O16 1.880561 1_555
Ga7 O13 1.880561 1_555
Ga7 O19 1.914301 1_555
Ga7 O6 1.922838 1_555
Ga8 O22 1.882355 1_565
Ga8 O26 1.882355 1_655
Ga8 O30 1.889983 1_555
Ga8 O20 1.916052 1_555
Ga9 O15 1.979879 1_545
Ga9 O8 1.989474 1_555
Ga9 O17 2.029257 1_555
Ga9 O6 2.030341 1_545
Ga9 O12 2.033848 1_555
Ga9 O11 2.046043 1_545
Ga10 O26 1.977950 1_555
Ga10 O13 1.985047 1_555
Ga10 O20 2.028883 1_555
Ga10 O14 2.037406 1_565
Ga10 O19 2.039963 1_455
Ga10 O25 2.040565 1_555
Ga11 O18 1.882164 1_555
Ga11 O15 1.882164 1_555
Ga11 O25 1.907752 1_555
Ga11 O12 1.916586 1_555
Ga12 O21 1.879157 1_455
Ga12 O24 1.879157 1_545
Ga12 O27 1.913480 1_555
Ga12 O14 1.923937 1_555
Ga13 O22 1.977950 1_555
Ga13 O16 1.985047 1_555
Ga13 O20 2.028883 1_555
Ga13 O14 2.037406 1_655
Ga13 O19 2.039963 1_545
Ga13 O25 2.040565 1_555
Ga14 O31 1.970467 1_545
Ga14 O21 1.979775 1_555
Ga14 O28 2.008056 1_545
Ga14 O27 2.026939 1_555
Ga14 O30 2.044179 1_545
Ga14 O23 2.054392 1_555
Ga15 O29 1.970467 1_455
Ga15 O24 1.979775 1_555
Ga15 O28 2.008056 1_455
Ga15 O27 2.026939 1_555
Ga15 O30 2.044179 1_455
Ga15 O23 2.054392 1_555
Ni0 O31 1.976963 1_544
Ni0 O29 1.976963 1_454
Ni0 O28 1.992621 1_444
Ni0 O9 2.021713 1_445
Ni1 O9 2.045144 1_555
Ni1 O7 2.062095 1_655
Ni1 O10 2.062095 1_565
Ni1 O1 2.079581 1_555
Ni1 O0 2.089014 1_555
Ni1 O2 2.089014 1_555
Ni2 O18 2.062509 1_455
Ni2 O15 2.062509 1_545
Ni2 O8 2.069262 1_455
Ni2 O5 2.069262 1_545
Ni2 O17 2.073688 1_555
Ni2 O6 2.077958 1_445
Ni3 O5 2.059230 1_655
Ni3 O8 2.059230 1_565
Ni3 O10 2.069673 1_565
Ni3 O7 2.069673 1_655
Ni3 O11 2.076904 1_555
Ni3 O4 2.096035 1_665
Ni4 O22 2.058805 1_555
Ni4 O26 2.058805 1_555
Ni4 O13 2.064994 1_545
Ni4 O16 2.064994 1_455
Ni4 O25 2.082685 1_555
Ni4 O14 2.083772 1_555
Ni5 O13 2.061851 1_545
Ni5 O16 2.061851 1_455
Ni5 O18 2.066547 1_455
Ni5 O15 2.066547 1_545
Ni5 O19 2.078894 1_445
Ni5 O12 2.085304 1_555
Ni6 O31 2.052541 1_555
Ni6 O29 2.052541 1_555
Ni6 O24 2.058524 1_555
Ni6 O21 2.058524 1_555
Ni6 O30 2.085950 1_555
Ni6 O23 2.089103 1_555
Ni7 O24 2.062674 1_555
Ni7 O21 2.062674 1_555
Ni7 O22 2.064752 1_555
Ni7 O26 2.064752 1_555
Ni7 O20 2.084958 1_555
Ni7 O27 2.090102 1_555
