# generated using pymatgen
data_Zr3(Bi5Br9)2
_symmetry_space_group_name_H-M   'P 1'
_cell_length_a   14.90928340
_cell_length_b   14.90928340
_cell_length_c   11.65688400
_cell_angle_alpha   90.00000000
_cell_angle_beta   90.00000000
_cell_angle_gamma   119.99999732
_symmetry_Int_Tables_number   1
_chemical_formula_structural   Zr3(Bi5Br9)2
_chemical_formula_sum   'Zr6 Bi20 Br36'
_cell_volume   2244.01966273
_cell_formula_units_Z   2
loop_
 _symmetry_equiv_pos_site_id
 _symmetry_equiv_pos_as_xyz
  1  'x, y, z'
loop_
 _atom_site_type_symbol
 _atom_site_label
 _atom_site_symmetry_multiplicity
 _atom_site_fract_x
 _atom_site_fract_y
 _atom_site_fract_z
 _atom_site_occupancy
  Zr  Zr0  1  0.23047400  0.89491700  0.24283800  1
  Zr  Zr1  1  0.10508300  0.33555600  0.24283800  1
  Zr  Zr2  1  0.33555600  0.23047400  0.74283800  1
  Zr  Zr3  1  0.66444400  0.76952600  0.24283800  1
  Zr  Zr4  1  0.89491700  0.66444400  0.74283800  1
  Zr  Zr5  1  0.76952600  0.10508300  0.74283800  1
  Bi  Bi0  1  0.12471400  0.52497100  0.74528700  1
  Bi  Bi1  1  0.23978400  0.71495700  0.56990900  1
  Bi  Bi2  1  0.23643500  0.71226500  0.91350300  1
  Bi  Bi3  1  0.40025700  0.87528600  0.74528700  1
  Bi  Bi4  1  0.28773500  0.52416900  0.91350300  1
  Bi  Bi5  1  0.28504300  0.52482700  0.56990900  1
  Bi  Bi6  1  0.47517300  0.76021600  0.56990900  1
  Bi  Bi7  1  0.47583100  0.76356500  0.91350300  1
  Bi  Bi8  1  0.47502900  0.59974300  0.74528700  1
  Bi  Bi9  1  0.52497100  0.40025700  0.24528700  1
  Bi  Bi10  1  0.52482700  0.23978400  0.06990900  1
  Bi  Bi11  1  0.52416900  0.23643500  0.41350300  1
  Bi  Bi12  1  0.71226500  0.47583100  0.41350300  1
  Bi  Bi13  1  0.71495700  0.47517300  0.06990900  1
  Bi  Bi14  1  0.00000000  0.00000000  0.38737100  1
  Bi  Bi15  1  0.00000000  0.00000000  0.88737100  1
  Bi  Bi16  1  0.59974300  0.12471400  0.24528700  1
  Bi  Bi17  1  0.76021600  0.28504300  0.06990900  1
  Bi  Bi18  1  0.76356500  0.28773500  0.41350300  1
  Bi  Bi19  1  0.87528600  0.47502900  0.24528700  1
  Br  Br0  1  0.08052100  0.86178200  0.40352300  1
  Br  Br1  1  0.09228400  0.84049900  0.08793800  1
  Br  Br2  1  0.09245300  0.80626500  0.74169200  1
  Br  Br3  1  0.07086500  0.44692800  0.09051400  1
  Br  Br4  1  0.05953200  0.42474100  0.42268400  1
  Br  Br5  1  0.18210800  0.70192600  0.28145400  1
  Br  Br6  1  0.36520900  0.94046800  0.42268400  1
  Br  Br7  1  0.37606300  0.92913500  0.09051400  1
  Br  Br8  1  0.15950100  0.25178500  0.08793800  1
  Br  Br9  1  0.13821800  0.21873800  0.40352300  1
  Br  Br10  1  0.19373500  0.28618800  0.74169200  1
  Br  Br11  1  0.29807400  0.48018200  0.28145400  1
  Br  Br12  1  0.51981800  0.81789200  0.28145400  1
  Br  Br13  1  0.25178500  0.09228400  0.58793800  1
  Br  Br14  1  0.21873800  0.08052100  0.90352300  1
  Br  Br15  1  0.28618800  0.09245300  0.24169200  1
  Br  Br16  1  0.44692800  0.37606300  0.59051400  1
  Br  Br17  1  0.42474100  0.36520900  0.92268400  1
  Br  Br18  1  0.55307200  0.62393700  0.09051400  1
  Br  Br19  1  0.57525900  0.63479100  0.42268400  1
  Br  Br20  1  0.71381200  0.90754700  0.74169200  1
  Br  Br21  1  0.74821500  0.90771600  0.08793800  1
  Br  Br22  1  0.78126200  0.91947900  0.40352300  1
  Br  Br23  1  0.48018200  0.18210800  0.78145400  1
  Br  Br24  1  0.70192600  0.51981800  0.78145400  1
  Br  Br25  1  0.80626500  0.71381200  0.24169200  1
  Br  Br26  1  0.84049900  0.74821500  0.58793800  1
  Br  Br27  1  0.86178200  0.78126200  0.90352300  1
  Br  Br28  1  0.63479100  0.05953200  0.92268400  1
  Br  Br29  1  0.62393700  0.07086500  0.59051400  1
  Br  Br30  1  0.81789200  0.29807400  0.78145400  1
  Br  Br31  1  0.92913500  0.55307200  0.59051400  1
  Br  Br32  1  0.94046800  0.57525900  0.92268400  1
  Br  Br33  1  0.90754700  0.19373500  0.24169200  1
  Br  Br34  1  0.91947900  0.13821800  0.90352300  1
  Br  Br35  1  0.90771600  0.15950100  0.58793800  1
loop_
_geom_bond_atom_site_label_1
_geom_bond_atom_site_label_2
_geom_bond_distance
_geom_bond_site_symmetry_2
Bi0 Bi2 3.125036 1_555
Bi0 Bi4 3.127570 1_555
Bi0 Bi5 3.146191 1_555
Bi0 Bi1 3.207264 1_555
Bi1 Bi3 3.146191 1_555
Bi1 Bi5 3.225471 1_555
Bi1 Bi6 3.225471 1_555
Bi1 Br6 3.385159 1_555
Bi1 Br5 3.452019 1_555
Bi2 Bi3 3.127564 1_555
Bi3 Bi7 3.125045 1_555
Bi3 Bi6 3.207263 1_555
Bi4 Bi8 3.125034 1_555
Bi5 Bi8 3.207264 1_555
Bi5 Bi6 3.225471 1_555
Bi5 Br4 3.385159 1_555
Bi5 Br11 3.452019 1_555
Bi6 Bi8 3.146191 1_555
Bi6 Br19 3.385159 1_555
Bi6 Br12 3.452019 1_555
Bi7 Bi8 3.127558 1_555
Bi10 Bi9 3.146191 1_555
Bi10 Bi16 3.207263 1_555
Bi10 Bi17 3.225471 1_555
Bi10 Bi13 3.225471 1_555
Bi10 Br17 3.385159 1_554
Bi10 Br23 3.452019 1_554
Bi11 Bi16 3.125045 1_555
Bi11 Bi9 3.127558 1_555
Bi12 Bi9 3.125034 1_555
Bi12 Bi19 3.127570 1_555
Bi13 Bi19 3.146191 1_555
Bi13 Bi9 3.207264 1_555
Bi13 Bi17 3.225471 1_555
Bi13 Br32 3.385159 1_554
Bi13 Br24 3.452019 1_554
Bi14 Br22 2.863065 1_445
Bi14 Br9 2.863067 1_555
Bi14 Br0 2.863078 1_545
Bi15 Br14 2.863065 1_555
Bi15 Br27 2.863067 1_445
Bi15 Br34 2.863078 1_455
Bi16 Bi18 3.127564 1_555
Bi16 Bi17 3.146191 1_555
Bi17 Bi19 3.207264 1_555
Bi17 Br28 3.385159 1_554
Bi17 Br30 3.452019 1_554
Bi18 Bi19 3.125036 1_555
Br0 Zr0 2.765204 1_555
Br1 Zr0 2.547927 1_555
Br2 Zr4 2.630114 1_455
Br3 Zr1 2.649039 1_555
Br4 Zr1 2.743609 1_555
Br5 Zr0 2.631907 1_555
Br6 Zr0 2.743600 1_555
Br7 Zr0 2.649028 1_555
Br8 Zr1 2.547917 1_555
Br9 Zr1 2.765204 1_555
Br10 Zr2 2.630103 1_555
Br11 Zr1 2.631911 1_555
Br12 Zr3 2.631921 1_555
Br13 Zr2 2.547925 1_555
Br14 Zr2 2.765204 1_555
Br15 Zr0 2.630118 1_545
Br16 Zr2 2.649032 1_555
Br17 Zr2 2.743602 1_555
Br18 Zr3 2.649032 1_555
Br19 Zr3 2.743602 1_555
Br20 Zr5 2.630118 1_565
Br21 Zr3 2.547925 1_555
Br22 Zr3 2.765204 1_555
Br23 Zr2 2.631921 1_555
Br24 Zr4 2.631911 1_555
Br25 Zr3 2.630103 1_555
Br26 Zr4 2.547917 1_555
Br27 Zr4 2.765204 1_555
Br28 Zr5 2.743600 1_555
Br29 Zr5 2.649028 1_555
Br30 Zr5 2.631907 1_555
Br31 Zr4 2.649039 1_555
Br32 Zr4 2.743609 1_555
Br33 Zr1 2.630114 1_655
Br34 Zr5 2.765204 1_555
Br35 Zr5 2.547927 1_555
