# generated using pymatgen
data_Sm3OsO7
_symmetry_space_group_name_H-M   'P 1'
_cell_length_a   7.41920543
_cell_length_b   10.74468896
_cell_length_c   14.80972598
_cell_angle_alpha   89.99999711
_cell_angle_beta   89.99967742
_cell_angle_gamma   89.99970449
_symmetry_Int_Tables_number   1
_chemical_formula_structural   Sm3OsO7
_chemical_formula_sum   'Sm24 Os8 O56'
_cell_volume   1180.58773571
_cell_formula_units_Z   8
loop_
 _symmetry_equiv_pos_site_id
 _symmetry_equiv_pos_as_xyz
  1  'x, y, z'
loop_
 _atom_site_type_symbol
 _atom_site_label
 _atom_site_symmetry_multiplicity
 _atom_site_fract_x
 _atom_site_fract_y
 _atom_site_fract_z
 _atom_site_occupancy
  Sm  Sm0  1  0.00318025  0.17136732  0.11068201  1
  Sm  Sm1  1  0.49682466  0.17137128  0.61068047  1
  Sm  Sm2  1  0.49696694  0.68801475  0.86127571  1
  Sm  Sm3  1  0.75162590  0.94899980  0.97124580  1
  Sm  Sm4  1  0.00303887  0.68801905  0.36127564  1
  Sm  Sm5  1  0.74296178  0.90956422  0.22141078  1
  Sm  Sm6  1  0.99696601  0.18801505  0.63872551  1
  Sm  Sm7  1  0.23357396  0.89812446  0.52368515  1
  Sm  Sm8  1  0.75702486  0.46038389  0.72653295  1
  Sm  Sm9  1  0.50317976  0.67136763  0.38931751  1
  Sm  Sm10  1  0.24296085  0.40957105  0.27859120  1
  Sm  Sm11  1  0.25702283  0.96039007  0.77346569  1
  Sm  Sm12  1  0.99682404  0.67137128  0.88931944  1
  Sm  Sm13  1  0.75703868  0.90956942  0.72140740  1
  Sm  Sm14  1  0.25703758  0.40956202  0.77859026  1
  Sm  Sm15  1  0.25162582  0.44899918  0.52875359  1
  Sm  Sm16  1  0.24298059  0.96037924  0.27346199  1
  Sm  Sm17  1  0.74837142  0.94899661  0.47124620  1
  Sm  Sm18  1  0.74298267  0.46038540  0.22653921  1
  Sm  Sm19  1  0.26642822  0.89812692  0.02368506  1
  Sm  Sm20  1  0.76642824  0.39812780  0.47631692  1
  Sm  Sm21  1  0.73357337  0.39812351  0.97631254  1
  Sm  Sm22  1  0.50303777  0.18801900  0.13872318  1
  Sm  Sm23  1  0.24837070  0.44899717  0.02875428  1
  Os  Os0  1  0.49775156  0.67774463  0.12626582  1
  Os  Os1  1  0.99819160  0.68038241  0.12487354  1
  Os  Os2  1  0.50178323  0.68037891  0.62487838  1
  Os  Os3  1  0.99775355  0.17774303  0.37373662  1
  Os  Os4  1  0.00224431  0.67775533  0.62626738  1
  Os  Os5  1  0.49819985  0.18038245  0.37512519  1
  Os  Os6  1  0.50224638  0.17775693  0.87372998  1
  Os  Os7  1  0.00179149  0.18037896  0.87512304  1
  O  O0  1  0.24126728  0.04917784  0.63087112  1
  O  O1  1  0.73480860  0.81261609  0.35594631  1
  O  O2  1  0.44929553  0.83182216  0.18927875  1
  O  O3  1  0.46603507  0.30724348  0.46834676  1
  O  O4  1  0.26515615  0.81030699  0.38109825  1
  O  O5  1  0.04267645  0.05291765  0.96762857  1
  O  O6  1  0.76515573  0.31030649  0.11890041  1
  O  O7  1  0.75873758  0.54917839  0.36913176  1
  O  O8  1  0.23484535  0.81030384  0.88109631  1
  O  O9  1  0.45732850  0.05292099  0.46762990  1
  O  O10  1  0.74853691  0.68729380  0.16959715  1
  O  O11  1  0.45855461  0.57516176  0.23617272  1
  O  O12  1  0.95678749  0.52057680  0.56313308  1
  O  O13  1  0.96381722  0.30963055  0.78109975  1
  O  O14  1  0.46465454  0.55600825  0.71979377  1
  O  O15  1  0.26741817  0.54573556  0.89476381  1
  O  O16  1  0.95732626  0.55292003  0.03237050  1
  O  O17  1  0.45828244  0.27914211  0.98433868  1
  O  O18  1  0.24834208  0.67047328  0.08111619  1
  O  O19  1  0.03534185  0.55601609  0.21979090  1
  O  O20  1  0.75165211  0.17046596  0.91888318  1
  O  O21  1  0.03618723  0.80963177  0.21890091  1
  O  O22  1  0.95828563  0.77914124  0.51566291  1
  O  O23  1  0.95855296  0.07515881  0.26382581  1
  O  O24  1  0.25165212  0.67046629  0.58111509  1
  O  O25  1  0.04321225  0.02057941  0.43687724  1
  O  O26  1  0.05071149  0.83182918  0.68928111  1
  O  O27  1  0.03396724  0.30723830  0.96834344  1
  O  O28  1  0.26518966  0.31261569  0.64405467  1
  O  O29  1  0.23480791  0.31261615  0.14405233  1
  O  O30  1  0.53618869  0.30963450  0.28109775  1
  O  O31  1  0.76741769  0.04573482  0.60523694  1
  O  O32  1  0.54171763  0.77913574  0.01566162  1
  O  O33  1  0.45678479  0.02057527  0.93686707  1
  O  O34  1  0.74126758  0.54917800  0.86912971  1
  O  O35  1  0.76519010  0.81261600  0.85594607  1
  O  O36  1  0.25145714  0.18728580  0.83040232  1
  O  O37  1  0.53534339  0.05601287  0.28020803  1
  O  O38  1  0.25873758  0.04917869  0.13086742  1
  O  O39  1  0.23257953  0.54573607  0.39476438  1
  O  O40  1  0.54267445  0.55291799  0.53237053  1
  O  O41  1  0.54145274  0.07517563  0.76382658  1
  O  O42  1  0.54321451  0.52057730  0.06312172  1
  O  O43  1  0.73257886  0.04573717  0.10523513  1
  O  O44  1  0.94929429  0.33182322  0.31071919  1
  O  O45  1  0.04145424  0.57517310  0.73617422  1
  O  O46  1  0.73484504  0.31030413  0.61890459  1
  O  O47  1  0.53396491  0.80723709  0.53165618  1
  O  O48  1  0.46381556  0.80963427  0.71890184  1
  O  O49  1  0.96603273  0.80724415  0.03165394  1
  O  O50  1  0.55071051  0.33182738  0.81072143  1
  O  O51  1  0.75145423  0.68728602  0.66959744  1
  O  O52  1  0.74834174  0.17047353  0.41888514  1
  O  O53  1  0.96465568  0.05601077  0.78020664  1
  O  O54  1  0.04171494  0.27913512  0.48433714  1
  O  O55  1  0.24854033  0.18729363  0.33040318  1
loop_
_geom_bond_atom_site_label_1
_geom_bond_atom_site_label_2
_geom_bond_distance
_geom_bond_site_symmetry_2
O0 Sm7 2.270965 1_545
O0 Sm11 2.320219 1_545
O0 Sm1 2.325545 1_555
O0 Sm6 2.350338 1_455
O1 Sm5 2.249121 1_555
O1 Sm17 2.252374 1_555
O1 Sm9 2.345388 1_555
O1 Sm4 2.399749 1_655
O2 Os0 1.934124 1_555
O2 Sm5 2.381443 1_555
O2 Sm16 2.409423 1_555
O2 Sm19 2.891806 1_555
O3 Os5 1.954725 1_555
O3 Sm15 2.377111 1_555
O3 Sm20 2.436096 1_555
O3 Sm1 2.574266 1_555
O4 Sm16 2.273367 1_555
O4 Sm9 2.315597 1_555
O4 Sm7 2.324733 1_555
O4 Sm4 2.365277 1_555
O5 Os7 1.960734 1_555
O5 Sm3 2.431556 1_445
O5 Sm0 2.488780 1_556
O5 Sm19 2.492218 1_546
O6 Sm18 2.273442 1_555
O6 Sm0 2.315599 1_655
O6 Sm21 2.324747 1_554
O6 Sm22 2.365276 1_555
O7 Sm20 2.270934 1_555
O7 Sm18 2.320216 1_555
O7 Sm9 2.325501 1_555
O7 Sm4 2.350375 1_655
O8 Sm11 2.273416 1_555
O8 Sm12 2.315551 1_455
O8 Sm19 2.324787 1_556
O8 Sm2 2.365292 1_555
O9 Os5 1.960711 1_555
O9 Sm17 2.431528 1_545
O9 Sm1 2.488751 1_555
O9 Sm7 2.492272 1_545
O10 Os1 1.968500 1_555
O10 Os0 1.970860 1_555
O10 Sm5 2.508815 1_555
O10 Sm18 2.580113 1_555
O11 Os0 1.987168 1_555
O11 Sm18 2.448319 1_555
O11 Sm10 2.473620 1_555
O11 Sm9 2.514386 1_555
O12 Os4 1.959627 1_655
O12 Sm20 2.319216 1_555
O12 Sm15 2.373962 1_655
O12 Sm8 2.910459 1_555
O13 Os7 1.986705 1_655
O13 Sm8 2.372903 1_555
O13 Sm14 2.426302 1_655
O13 Sm6 2.492763 1_555
O14 Os2 1.958967 1_555
O14 Sm14 2.367886 1_555
O14 Sm8 2.402257 1_555
O14 Sm2 2.541568 1_555
O15 Sm23 2.244563 1_556
O15 Sm14 2.259831 1_555
O15 Sm2 2.341686 1_555
O15 Sm12 2.420575 1_455
O16 Os1 1.960696 1_555
O16 Sm23 2.431530 1_655
O16 Sm12 2.488761 1_554
O16 Sm21 2.492284 1_554
O17 Os6 1.994089 1_555
O17 Sm21 2.412481 1_555
O17 Sm23 2.487737 1_556
O17 Sm22 2.509276 1_556
O18 Os1 1.968680 1_455
O18 Os0 1.969079 1_555
O18 Sm23 2.502854 1_555
O18 Sm19 2.593197 1_555
O19 Os1 1.958979 1_455
O19 Sm10 2.367904 1_555
O19 Sm18 2.402225 1_455
O19 Sm4 2.541571 1_555
O20 Os7 1.968619 1_655
O20 Os6 1.969078 1_555
O20 Sm3 2.502756 1_545
O20 Sm21 2.593224 1_555
O21 Os1 1.986755 1_455
O21 Sm16 2.372846 1_555
O21 Sm5 2.426331 1_455
O21 Sm4 2.492754 1_555
O22 Os4 1.994039 1_655
O22 Sm7 2.412474 1_655
O22 Sm17 2.487760 1_555
O22 Sm4 2.509304 1_655
O23 Os3 1.987230 1_555
O23 Sm16 2.448338 1_645
O23 Sm5 2.473630 1_545
O23 Sm0 2.514384 1_655
O24 Os2 1.968583 1_555
O24 Os4 1.969080 1_555
O24 Sm15 2.502761 1_555
O24 Sm7 2.593233 1_555
O25 Os3 1.959533 1_455
O25 Sm7 2.319187 1_545
O25 Sm17 2.373971 1_445
O25 Sm16 2.910684 1_545
O26 Os4 1.934116 1_555
O26 Sm13 2.381451 1_455
O26 Sm11 2.409458 1_555
O26 Sm7 2.891783 1_555
O27 Os7 1.954714 1_555
O27 Sm23 2.377143 1_556
O27 Sm21 2.436094 1_455
O27 Sm0 2.574315 1_556
O28 Sm14 2.249112 1_555
O28 Sm15 2.252407 1_555
O28 Sm1 2.345391 1_555
O28 Sm6 2.399741 1_455
O29 Sm10 2.249199 1_555
O29 Sm23 2.252356 1_555
O29 Sm0 2.345385 1_555
O29 Sm22 2.399746 1_555
O30 Os5 1.986767 1_555
O30 Sm18 2.372856 1_555
O30 Sm10 2.426366 1_555
O30 Sm22 2.492772 1_555
O31 Sm17 2.244567 1_545
O31 Sm13 2.259738 1_545
O31 Sm6 2.341696 1_555
O31 Sm1 2.420571 1_555
O32 Os0 1.994074 1_555
O32 Sm19 2.412515 1_555
O32 Sm3 2.487804 1_554
O32 Sm2 2.509283 1_554
O33 Os6 1.959680 1_555
O33 Sm19 2.319206 1_546
O33 Sm3 2.373976 1_545
O33 Sm11 2.910471 1_545
O34 Sm21 2.270941 1_555
O34 Sm8 2.320276 1_555
O34 Sm12 2.325539 1_555
O34 Sm2 2.350332 1_555
O35 Sm13 2.249188 1_555
O35 Sm3 2.252394 1_555
O35 Sm12 2.345389 1_555
O35 Sm2 2.399741 1_555
O36 Os7 1.968561 1_555
O36 Os6 1.970858 1_555
O36 Sm14 2.508869 1_555
O36 Sm11 2.579959 1_545
O37 Os5 1.958992 1_555
O37 Sm5 2.367903 1_545
O37 Sm16 2.402263 1_545
O37 Sm22 2.541595 1_555
O38 Sm19 2.270914 1_545
O38 Sm16 2.320271 1_545
O38 Sm0 2.325497 1_555
O38 Sm22 2.350367 1_555
O39 Sm15 2.244539 1_555
O39 Sm10 2.259766 1_555
O39 Sm4 2.341663 1_555
O39 Sm9 2.420599 1_555
O40 Os2 1.960760 1_555
O40 Sm15 2.431548 1_555
O40 Sm9 2.488776 1_555
O40 Sm20 2.492204 1_555
O41 Os6 1.987125 1_555
O41 Sm11 2.448397 1_545
O41 Sm13 2.473693 1_545
O41 Sm1 2.514360 1_555
O42 Os0 1.959596 1_555
O42 Sm21 2.319169 1_554
O42 Sm23 2.373983 1_555
O42 Sm18 2.910705 1_555
O43 Sm3 2.244542 1_544
O43 Sm5 2.259850 1_545
O43 Sm22 2.341651 1_555
O43 Sm0 2.420599 1_655
O44 Os3 1.934187 1_555
O44 Sm10 2.381450 1_655
O44 Sm18 2.409423 1_555
O44 Sm20 2.891839 1_555
O45 Os4 1.987179 1_555
O45 Sm8 2.448416 1_455
O45 Sm14 2.473711 1_555
O45 Sm12 2.514358 1_455
O46 Sm8 2.273346 1_555
O46 Sm1 2.315549 1_555
O46 Sm20 2.324772 1_555
O46 Sm6 2.365292 1_555
O47 Os2 1.954728 1_555
O47 Sm17 2.377151 1_555
O47 Sm7 2.436086 1_555
O47 Sm9 2.574308 1_555
O48 Os2 1.986726 1_555
O48 Sm11 2.372902 1_555
O48 Sm13 2.426337 1_555
O48 Sm2 2.492785 1_555
O49 Os1 1.954707 1_555
O49 Sm3 2.377112 1_554
O49 Sm19 2.436103 1_655
O49 Sm12 2.574279 1_554
O50 Os6 1.934042 1_555
O50 Sm14 2.381450 1_555
O50 Sm8 2.409466 1_555
O50 Sm21 2.891739 1_555
O51 Os2 1.968597 1_555
O51 Os4 1.970869 1_655
O51 Sm13 2.508933 1_555
O51 Sm8 2.580020 1_555
O52 Os5 1.968639 1_555
O52 Os3 1.969082 1_555
O52 Sm17 2.502859 1_545
O52 Sm20 2.593207 1_555
O53 Os7 1.958970 1_655
O53 Sm13 2.367872 1_545
O53 Sm11 2.402219 1_645
O53 Sm6 2.541541 1_555
O54 Os3 1.994032 1_455
O54 Sm20 2.412505 1_455
O54 Sm15 2.487824 1_555
O54 Sm6 2.509307 1_455
O55 Os5 1.968532 1_555
O55 Os3 1.970875 1_455
O55 Sm10 2.508880 1_555
O55 Sm16 2.580171 1_545
