# generated using pymatgen
data_Pr(CoSi)2
_symmetry_space_group_name_H-M   'P 1'
_cell_length_a   3.93803032
_cell_length_b   3.93803056
_cell_length_c   5.73511782
_cell_angle_alpha   110.07964237
_cell_angle_beta   110.07964491
_cell_angle_gamma   90.00001518
_symmetry_Int_Tables_number   1
_chemical_formula_structural   Pr(CoSi)2
_chemical_formula_sum   'Pr1 Co2 Si2'
_cell_volume   77.75341285
_cell_formula_units_Z   1
loop_
 _symmetry_equiv_pos_site_id
 _symmetry_equiv_pos_as_xyz
  1  'x, y, z'
loop_
 _atom_site_type_symbol
 _atom_site_label
 _atom_site_symmetry_multiplicity
 _atom_site_fract_x
 _atom_site_fract_y
 _atom_site_fract_z
 _atom_site_occupancy
  Pr  Pr0  1  0.00000000  0.00000000  -0.00000000  1
  Co  Co0  1  0.25000000  0.75000000  0.50000000  1
  Co  Co1  1  0.75000000  0.25000000  0.50000000  1
  Si  Si0  1  0.63698246  0.63698246  0.27396492  1
  Si  Si1  1  0.36301754  0.36301754  0.72603508  1
loop_
_geom_bond_atom_site_label_1
_geom_bond_atom_site_label_2
_geom_bond_distance
_geom_bond_site_symmetry_2
Pr0 Si0 3.104961 1_555
Pr0 Si1 3.104961 1_444
Pr0 Si0 3.104961 1_445
Pr0 Si1 3.104961 1_554
Pr0 Si0 3.104961 1_545
Pr0 Si1 3.104961 1_454
Pr0 Si0 3.104962 1_455
Pr0 Si1 3.104962 1_544
Co0 Si0 2.271859 1_455
Co0 Si1 2.271859 1_565
Co0 Si0 2.271859 1_555
Co0 Si1 2.271859 1_555
Co0 Pr0 3.187695 1_666
Co0 Pr0 3.187696 1_555
Co0 Pr0 3.187696 1_565
Co0 Pr0 3.187696 1_566
Co1 Si1 2.271859 1_655
Co1 Si0 2.271859 1_545
Co1 Si1 2.271859 1_555
Co1 Si0 2.271859 1_555
Co1 Pr0 3.187695 1_555
Co1 Pr0 3.187696 1_666
Co1 Pr0 3.187696 1_656
Co1 Pr0 3.187696 1_655
Si0 Si1 2.747175 1_554
