# generated using pymatgen
data_CsZr6BI14
_symmetry_space_group_name_H-M   'P 1'
_cell_length_a   11.02071683
_cell_length_b   11.02071683
_cell_length_c   13.22673800
_cell_angle_alpha   90.00000000
_cell_angle_beta   90.00000000
_cell_angle_gamma   94.67132524
_symmetry_Int_Tables_number   1
_chemical_formula_structural   CsZr6BI14
_chemical_formula_sum   'Cs2 Zr12 B2 I28'
_cell_volume   1601.13307063
_cell_formula_units_Z   2
loop_
 _symmetry_equiv_pos_site_id
 _symmetry_equiv_pos_as_xyz
  1  'x, y, z'
loop_
 _atom_site_type_symbol
 _atom_site_label
 _atom_site_symmetry_multiplicity
 _atom_site_fract_x
 _atom_site_fract_y
 _atom_site_fract_z
 _atom_site_occupancy
  Cs  Cs0  1  0.00000000  0.00000000  0.00000000  1
  Cs  Cs1  1  0.50000000  0.50000000  0.50000000  1
  Zr  Zr0  1  0.86917300  0.86917300  0.59670600  1
  Zr  Zr1  1  0.36917300  0.36917300  0.90329400  1
  Zr  Zr2  1  0.54268300  0.33186000  0.10808700  1
  Zr  Zr3  1  0.13082700  0.13082700  0.40329400  1
  Zr  Zr4  1  0.95731700  0.16814000  0.60808700  1
  Zr  Zr5  1  0.66814000  0.45731700  0.89191300  1
  Zr  Zr6  1  0.45731700  0.66814000  0.89191300  1
  Zr  Zr7  1  0.16814000  0.95731700  0.60808700  1
  Zr  Zr8  1  0.04268300  0.83186000  0.39191300  1
  Zr  Zr9  1  0.63082700  0.63082700  0.09670600  1
  Zr  Zr10  1  0.33186000  0.54268300  0.10808700  1
  Zr  Zr11  1  0.83186000  0.04268300  0.39191300  1
  B  B0  1  0.50000000  0.50000000  0.00000000  1
  B  B1  1  0.00000000  0.00000000  0.50000000  1
  I  I0  1  0.71108300  0.46436700  0.24704100  1
  I  I1  1  0.28891700  0.53563300  0.75295900  1
  I  I2  1  0.39628900  0.89628900  0.75000000  1
  I  I3  1  0.11134900  0.35983600  0.50678500  1
  I  I4  1  0.34556600  0.34556600  0.25743500  1
  I  I5  1  0.38865100  0.14016400  0.00678500  1
  I  I6  1  0.15443400  0.15443400  0.75743500  1
  I  I7  1  0.24857400  0.75142600  0.50000000  1
  I  I8  1  0.65443400  0.65443400  0.74256500  1
  I  I9  1  0.64016400  0.88865100  0.49321500  1
  I  I10  1  0.75142600  0.24857400  0.50000000  1
  I  I11  1  0.78891700  0.03563300  0.74704100  1
  I  I12  1  0.85983600  0.61134900  0.99321500  1
  I  I13  1  0.60371100  0.10371100  0.25000000  1
  I  I14  1  0.46436700  0.71108300  0.24704100  1
  I  I15  1  0.25142600  0.74857400  0.00000000  1
  I  I16  1  0.89628900  0.39628900  0.75000000  1
  I  I17  1  0.61134900  0.85983600  0.99321500  1
  I  I18  1  0.53563300  0.28891700  0.75295900  1
  I  I19  1  0.35983600  0.11134900  0.50678500  1
  I  I20  1  0.74857400  0.25142600  0.00000000  1
  I  I21  1  0.03563300  0.78891700  0.74704100  1
  I  I22  1  0.88865100  0.64016400  0.49321500  1
  I  I23  1  0.96436700  0.21108300  0.25295900  1
  I  I24  1  0.84556600  0.84556600  0.24256500  1
  I  I25  1  0.21108300  0.96436700  0.25295900  1
  I  I26  1  0.14016400  0.38865100  0.00678500  1
  I  I27  1  0.10371100  0.60371100  0.25000000  1
loop_
_geom_bond_atom_site_label_1
_geom_bond_atom_site_label_2
_geom_bond_distance
_geom_bond_site_symmetry_2
Cs0 I6 3.951592 1_554
Cs0 I24 3.951592 1_445
Cs0 I20 4.075080 1_455
Cs0 I15 4.075080 1_545
Cs0 I23 4.112073 1_455
Cs0 I25 4.112073 1_545
Cs0 I21 4.112073 1_544
Cs0 I11 4.112073 1_454
Cs0 I5 4.434233 1_555
Cs0 I26 4.434233 1_555
Cs0 I12 4.434233 1_444
Cs0 I17 4.434233 1_444
Cs1 I8 3.951592 1_555
Cs1 I4 3.951592 1_555
Cs1 I10 4.075080 1_555
Cs1 I7 4.075080 1_555
Cs1 I18 4.112073 1_555
Cs1 I1 4.112073 1_555
Cs1 I0 4.112073 1_555
Cs1 I14 4.112073 1_555
Cs1 I9 4.434233 1_555
Cs1 I22 4.434233 1_555
Cs1 I19 4.434233 1_555
Cs1 I3 4.434233 1_555
B0 Zr9 2.335622 1_555
B0 Zr1 2.335622 1_554
B0 Zr10 2.416777 1_555
B0 Zr2 2.416777 1_555
B0 Zr6 2.416777 1_554
B0 Zr5 2.416777 1_554
B1 Zr3 2.335622 1_555
B1 Zr0 2.335622 1_445
B1 Zr4 2.416777 1_455
B1 Zr7 2.416777 1_545
B1 Zr11 2.416777 1_455
B1 Zr8 2.416777 1_545
I0 Zr9 2.892388 1_555
I0 Zr2 2.917762 1_555
I1 Zr1 2.892388 1_555
I1 Zr6 2.917762 1_555
I2 Zr6 3.251636 1_555
I2 Zr7 3.251636 1_555
I3 Zr3 2.894452 1_555
I3 Zr4 2.925070 1_455
I4 Zr2 2.949171 1_555
I4 Zr10 2.949171 1_555
I4 Zr3 3.743141 1_555
I5 Zr1 2.894452 1_554
I5 Zr2 2.925070 1_555
I6 Zr7 2.949171 1_545
I6 Zr4 2.949171 1_455
I6 Zr1 3.743141 1_555
I7 Zr7 2.881999 1_555
I7 Zr8 2.881999 1_555
I8 Zr6 2.949171 1_555
I8 Zr5 2.949171 1_555
I8 Zr0 3.743141 1_555
I9 Zr0 2.894452 1_555
I9 Zr11 2.925070 1_565
I10 Zr4 2.881999 1_555
I10 Zr11 2.881999 1_555
I11 Zr0 2.892388 1_545
I11 Zr4 2.917762 1_555
I12 Zr9 2.894452 1_556
I12 Zr5 2.925070 1_555
I13 Zr11 3.251636 1_555
I13 Zr2 3.251636 1_555
I14 Zr9 2.892388 1_555
I14 Zr10 2.917762 1_555
I15 Zr10 2.881999 1_555
I15 Zr6 2.881999 1_554
I16 Zr5 3.251636 1_555
I16 Zr4 3.251636 1_555
I17 Zr9 2.894452 1_556
I17 Zr6 2.925070 1_555
I18 Zr1 2.892388 1_555
I18 Zr5 2.917762 1_555
I19 Zr3 2.894452 1_555
I19 Zr7 2.925070 1_545
I20 Zr2 2.881999 1_555
I20 Zr5 2.881999 1_554
I21 Zr0 2.892388 1_455
I21 Zr7 2.917762 1_555
I22 Zr0 2.894452 1_555
I22 Zr8 2.925070 1_655
I23 Zr3 2.892388 1_655
I23 Zr11 2.917762 1_555
I24 Zr8 2.949171 1_655
I24 Zr11 2.949171 1_565
I24 Zr9 3.743141 1_555
I25 Zr3 2.892388 1_565
I25 Zr8 2.917762 1_555
I26 Zr1 2.894452 1_554
I26 Zr10 2.925070 1_555
I27 Zr8 3.251636 1_555
I27 Zr10 3.251636 1_555
