# generated using pymatgen
data_Nb2TlPS10
_symmetry_space_group_name_H-M   'P 1'
_cell_length_a   7.74367000
_cell_length_b   7.25842300
_cell_length_c   13.18584425
_cell_angle_alpha   73.19704173
_cell_angle_beta   90.00000000
_cell_angle_gamma   90.00000000
_symmetry_Int_Tables_number   1
_chemical_formula_structural   Nb2TlPS10
_chemical_formula_sum   'Nb4 Tl2 P2 S20'
_cell_volume   709.49148270
_cell_formula_units_Z   2
loop_
 _symmetry_equiv_pos_site_id
 _symmetry_equiv_pos_as_xyz
  1  'x, y, z'
loop_
 _atom_site_type_symbol
 _atom_site_label
 _atom_site_symmetry_multiplicity
 _atom_site_fract_x
 _atom_site_fract_y
 _atom_site_fract_z
 _atom_site_occupancy
  Nb  Nb0  1  0.44413100  0.31648400  0.84105300  1
  Nb  Nb1  1  0.55586900  0.31648400  0.34105300  1
  Nb  Nb2  1  0.43789800  0.32305100  0.12980100  1
  Nb  Nb3  1  0.56210200  0.32305100  0.62980100  1
  Tl  Tl0  1  0.99278100  0.73804500  0.39224100  1
  Tl  Tl1  1  0.00721900  0.73804500  0.89224100  1
  P  P0  1  0.10692000  0.17215500  0.00872300  1
  P  P1  1  0.89308000  0.17215500  0.50872300  1
  S  S0  1  0.89306700  0.36324200  0.59901600  1
  S  S1  1  0.63884700  0.06750500  0.52704300  1
  S  S2  1  0.34103500  0.38455700  0.47617500  1
  S  S3  1  0.39135600  0.05508500  0.75126100  1
  S  S4  1  0.62367000  0.57554200  0.17468200  1
  S  S5  1  0.63907800  0.06874000  0.80265300  1
  S  S6  1  0.36092200  0.06874000  0.30265300  1
  S  S7  1  0.10603800  0.31576400  0.84873600  1
  S  S8  1  0.07658400  0.97392200  0.55375800  1
  S  S9  1  0.36115300  0.06750500  0.02704300  1
  S  S10  1  0.37633000  0.57554200  0.67468200  1
  S  S11  1  0.45234200  0.57010000  0.94570700  1
  S  S12  1  0.10693300  0.36324200  0.09901600  1
  S  S13  1  0.62726100  0.57605900  0.71847200  1
  S  S14  1  0.37273900  0.57605900  0.21847200  1
  S  S15  1  0.65896500  0.38455700  0.97617500  1
  S  S16  1  0.60864400  0.05508500  0.25126100  1
  S  S17  1  0.89396200  0.31576400  0.34873600  1
  S  S18  1  0.54765800  0.57010000  0.44570700  1
  S  S19  1  0.92341600  0.97392200  0.05375800  1
loop_
_geom_bond_atom_site_label_1
_geom_bond_atom_site_label_2
_geom_bond_distance
_geom_bond_site_symmetry_2
Nb0 S10 2.497791 1_555
Nb0 S5 2.509052 1_555
Nb0 S13 2.532328 1_555
Nb0 S3 2.543137 1_555
Nb0 S15 2.587497 1_555
Nb0 S11 2.601104 1_555
Nb0 S7 2.619987 1_555
Nb0 S9 2.670362 1_556
Nb1 S4 2.497791 1_555
Nb1 S6 2.509052 1_555
Nb1 S14 2.532328 1_555
Nb1 S16 2.543137 1_555
Nb1 S2 2.587497 1_555
Nb1 S18 2.601104 1_555
Nb1 S17 2.619987 1_555
Nb1 S1 2.670362 1_555
Nb2 S14 2.497107 1_555
Nb2 S16 2.509035 1_555
Nb2 S4 2.530902 1_555
Nb2 S6 2.554402 1_555
Nb2 S11 2.569789 1_554
Nb2 S15 2.590437 1_554
Nb2 S12 2.598035 1_555
Nb2 S9 2.661324 1_555
Nb3 S13 2.497107 1_555
Nb3 S3 2.509035 1_555
Nb3 S10 2.530902 1_555
Nb3 S5 2.554402 1_555
Nb3 S18 2.569789 1_555
Nb3 S2 2.590437 1_555
Nb3 S0 2.598035 1_555
Nb3 S1 2.661324 1_555
P0 S19 1.987000 1_445
P0 S7 2.065308 1_554
P0 S12 2.072676 1_555
P0 S9 2.098813 1_555
P1 S8 1.987000 1_645
P1 S17 2.065308 1_555
P1 S0 2.072676 1_555
P1 S1 2.098813 1_555
S3 S5 2.046375 1_555
S8 Tl0 3.161699 1_455
S10 S13 2.027414 1_555
S11 S15 2.054844 1_555
S14 S4 2.027414 1_555
S16 S6 2.046375 1_555
S18 S2 2.054844 1_555
S19 Tl1 3.161699 1_654
