# generated using pymatgen
data_LaMg2Ni9
_symmetry_space_group_name_H-M   'P 1'
_cell_length_a   8.32341789
_cell_length_b   8.32341574
_cell_length_c   8.32341755
_cell_angle_alpha   33.97897522
_cell_angle_beta   33.97895824
_cell_angle_gamma   33.97896097
_symmetry_Int_Tables_number   1
_chemical_formula_structural   LaMg2Ni9
_chemical_formula_sum   'La1 Mg2 Ni9'
_cell_volume   160.54660041
_cell_formula_units_Z   1
loop_
 _symmetry_equiv_pos_site_id
 _symmetry_equiv_pos_as_xyz
  1  'x, y, z'
loop_
 _atom_site_type_symbol
 _atom_site_label
 _atom_site_symmetry_multiplicity
 _atom_site_fract_x
 _atom_site_fract_y
 _atom_site_fract_z
 _atom_site_occupancy
  La  La0  1  0.00000000  0.00000000  -0.00000000  1
  Mg  Mg0  1  0.85504394  0.85504394  0.85504394  1
  Mg  Mg1  1  0.14495606  0.14495606  0.14495606  1
  Ni  Ni0  1  0.58684531  0.08252100  0.58684431  1
  Ni  Ni1  1  0.08252100  0.58684531  0.58684531  1
  Ni  Ni2  1  0.58684531  0.58684431  0.08252100  1
  Ni  Ni3  1  0.41315469  0.91747900  0.41315569  1
  Ni  Ni4  1  0.91747900  0.41315469  0.41315469  1
  Ni  Ni5  1  0.33359308  0.33359308  0.33359308  1
  Ni  Ni6  1  0.41315469  0.41315569  0.91747900  1
  Ni  Ni7  1  0.50000000  0.50000000  0.50000000  1
  Ni  Ni8  1  0.66640692  0.66640692  0.66640692  1
loop_
_geom_bond_atom_site_label_1
_geom_bond_atom_site_label_2
_geom_bond_distance
_geom_bond_site_symmetry_2
La0 Ni8 2.808319 1_544
La0 Ni5 2.808319 1_455
La0 Ni5 2.808320 1_545
La0 Ni8 2.808320 1_454
La0 Ni5 2.808320 1_554
La0 Ni8 2.808320 1_445
La0 Ni6 3.153593 1_544
La0 Ni2 3.153593 1_455
La0 Ni0 3.153593 1_455
La0 Ni3 3.153593 1_544
La0 Ni0 3.153598 1_554
La0 Ni3 3.153598 1_445
La0 Ni6 3.153598 1_454
La0 Ni2 3.153598 1_545
La0 Ni1 3.153601 1_554
La0 Ni4 3.153601 1_445
La0 Ni4 3.153602 1_454
La0 Ni1 3.153602 1_545
Mg0 Ni1 2.792221 1_655
Mg0 Ni2 2.792229 1_556
Mg0 Ni0 2.792230 1_565
Mg0 Ni4 2.806182 1_565
Mg0 Ni4 2.806183 1_556
Mg0 Ni3 2.806183 1_655
Mg0 Ni6 2.806184 1_655
Mg0 Ni6 2.806187 1_565
Mg0 Ni3 2.806187 1_556
Mg0 Ni7 2.854305 1_655
Mg0 Ni7 2.854306 1_556
Mg0 Ni7 2.854306 1_565
Mg1 Ni4 2.792221 1_455
Mg1 Ni6 2.792229 1_554
Mg1 Ni3 2.792230 1_545
Mg1 Ni1 2.806182 1_545
Mg1 Ni1 2.806183 1_554
Mg1 Ni0 2.806183 1_455
Mg1 Ni2 2.806184 1_455
Mg1 Ni2 2.806187 1_545
Mg1 Ni0 2.806187 1_554
Mg1 Ni7 2.854305 1_455
Mg1 Ni7 2.854306 1_554
Mg1 Ni7 2.854306 1_545
Ni0 Ni7 2.377954 1_555
Ni0 Ni1 2.411036 1_645
Ni0 Ni2 2.411042 1_546
Ni0 Ni8 2.447918 1_545
Ni0 Ni5 2.451832 1_555
Ni0 Ni2 2.453100 1_555
Ni0 Ni1 2.453104 1_555
Ni1 Ni7 2.377950 1_555
Ni1 Ni2 2.411036 1_456
Ni1 Ni8 2.447925 1_455
Ni1 Ni5 2.451838 1_555
Ni1 Ni2 2.453104 1_555
Ni2 Ni7 2.377955 1_555
Ni2 Ni8 2.447919 1_554
Ni2 Ni5 2.451832 1_555
Ni3 Ni7 2.377954 1_555
Ni3 Ni4 2.411036 1_465
Ni3 Ni6 2.411042 1_564
Ni3 Ni5 2.447918 1_565
Ni3 Ni8 2.451832 1_555
Ni3 Ni6 2.453100 1_555
Ni3 Ni4 2.453104 1_555
Ni4 Ni7 2.377950 1_555
Ni4 Ni6 2.411036 1_654
Ni4 Ni5 2.447925 1_655
Ni4 Ni8 2.451838 1_555
Ni4 Ni6 2.453104 1_555
Ni5 Ni6 2.447919 1_554
Ni5 Ni8 2.808339 1_455
Ni5 Ni8 2.808340 1_545
Ni5 Ni8 2.808340 1_554
Ni6 Ni7 2.377955 1_555
Ni6 Ni8 2.451832 1_555
