# generated using pymatgen
data_Mg44Ir7
_symmetry_space_group_name_H-M   'P 1'
_cell_length_a   14.10608873
_cell_length_b   14.10608840
_cell_length_c   14.10609593
_cell_angle_alpha   59.99998234
_cell_angle_beta   59.99998312
_cell_angle_gamma   59.99996768
_symmetry_Int_Tables_number   1
_chemical_formula_structural   Mg44Ir7
_chemical_formula_sum   'Mg88 Ir14'
_cell_volume   1984.74551142
_cell_formula_units_Z   2
loop_
 _symmetry_equiv_pos_site_id
 _symmetry_equiv_pos_as_xyz
  1  'x, y, z'
loop_
 _atom_site_type_symbol
 _atom_site_label
 _atom_site_symmetry_multiplicity
 _atom_site_fract_x
 _atom_site_fract_y
 _atom_site_fract_z
 _atom_site_occupancy
  Mg  Mg0  1  0.51907411  0.86894358  0.09290836  1
  Mg  Mg1  1  0.44348093  0.66170540  0.23310924  1
  Mg  Mg2  1  0.85608222  0.64391785  0.64391778  1
  Mg  Mg3  1  0.78462693  0.78462697  -0.00015471  1
  Mg  Mg4  1  0.66170542  0.23310920  0.66170547  1
  Mg  Mg5  1  0.51907405  0.51907406  0.09290837  1
  Mg  Mg6  1  0.66170542  0.44348092  0.23310922  1
  Mg  Mg7  1  0.23310920  0.44348091  0.66170545  1
  Mg  Mg8  1  0.43869573  0.68391317  0.43869555  1
  Mg  Mg9  1  0.28038175  0.91381616  0.28038171  1
  Mg  Mg10  1  0.05187354  0.05187360  0.05187349  1
  Mg  Mg11  1  0.18065516  0.81934488  0.81934485  1
  Mg  Mg12  1  0.08808145  0.30397284  0.30397285  1
  Mg  Mg13  1  0.86894358  0.51907410  0.51907396  1
  Mg  Mg14  1  0.23310918  0.66170543  0.66170549  1
  Mg  Mg15  1  0.66521512  0.02036387  0.29405802  1
  Mg  Mg16  1  0.52542049  0.91381615  0.28038168  1
  Mg  Mg17  1  0.66170542  0.44348092  0.66170544  1
  Mg  Mg18  1  0.09290833  0.51907410  0.51907400  1
  Mg  Mg19  1  0.29405792  0.66521509  0.02036399  1
  Mg  Mg20  1  0.78462692  0.43090177  -0.00015467  1
  Mg  Mg21  1  0.68391317  0.43869565  0.43869559  1
  Mg  Mg22  1  0.84437939  0.05187354  0.05187354  1
  Mg  Mg23  1  0.51907405  0.51907406  0.86894351  1
  Mg  Mg24  1  0.18065516  0.81934488  0.18065512  1
  Mg  Mg25  1  0.23310918  0.66170543  0.44348091  1
  Mg  Mg26  1  0.05187352  0.84437938  0.05187355  1
  Mg  Mg27  1  0.43869565  0.43869563  0.43869554  1
  Mg  Mg28  1  0.09290833  0.51907410  0.86894357  1
  Mg  Mg29  1  0.86894362  0.09290829  0.51907405  1
  Mg  Mg30  1  0.66170545  0.66170546  0.44348086  1
  Mg  Mg31  1  0.02036386  0.66521512  0.02036398  1
  Mg  Mg32  1  0.43869565  0.43869563  0.68391318  1
  Mg  Mg33  1  0.29405796  0.02036390  0.66521520  1
  Mg  Mg34  1  0.66521516  0.29405791  0.02036397  1
  Mg  Mg35  1  0.49718789  0.16760377  0.16760367  1
  Mg  Mg36  1  0.78462692  -0.00015479  0.78462702  1
  Mg  Mg37  1  0.43090180  0.78462694  0.78462696  1
  Mg  Mg38  1  -0.00015472  0.43090178  0.78462697  1
  Mg  Mg39  1  0.30397284  0.08808144  0.30397286  1
  Mg  Mg40  1  0.78462693  0.78462697  0.43090181  1
  Mg  Mg41  1  0.28038175  0.91381616  0.52542038  1
  Mg  Mg42  1  0.81934490  0.18065516  0.18065509  1
  Mg  Mg43  1  0.85608216  0.85608219  0.64391783  1
  Mg  Mg44  1  0.43090180  0.78462694  -0.00015469  1
  Mg  Mg45  1  0.81934487  0.81934486  0.18065514  1
  Mg  Mg46  1  0.16760382  0.16760385  0.16760370  1
  Mg  Mg47  1  0.64391779  0.64391785  0.85608218  1
  Mg  Mg48  1  0.30397282  0.30397280  0.08808152  1
  Mg  Mg49  1  0.28038171  0.52542043  0.28038169  1
  Mg  Mg50  1  0.78462692  -0.00015479  0.43090184  1
  Mg  Mg51  1  0.51907414  0.09290834  0.51907399  1
  Mg  Mg52  1  0.16760378  0.49718787  0.16760368  1
  Mg  Mg53  1  0.29405796  0.02036390  0.02036394  1
  Mg  Mg54  1  0.02036384  0.02036387  0.29405808  1
  Mg  Mg55  1  0.52542044  0.28038173  0.91381616  1
  Mg  Mg56  1  0.81934490  0.18065516  0.81934485  1
  Mg  Mg57  1  0.02036390  0.29405794  0.02036395  1
  Mg  Mg58  1  0.66170542  0.23310920  0.44348091  1
  Mg  Mg59  1  0.66521512  0.02036387  0.02036398  1
  Mg  Mg60  1  0.02036384  0.02036387  0.66521522  1
  Mg  Mg61  1  0.28038171  0.52542043  0.91381617  1
  Mg  Mg62  1  0.86894358  0.51907410  0.09290836  1
  Mg  Mg63  1  0.64391786  0.85608223  0.85608211  1
  Mg  Mg64  1  0.51907414  0.09290834  0.86894353  1
  Mg  Mg65  1  0.28038171  0.28038173  0.91381608  1
  Mg  Mg66  1  0.91381611  0.28038175  0.28038170  1
  Mg  Mg67  1  0.91381611  0.28038175  0.52542043  1
  Mg  Mg68  1  0.52542044  0.28038173  0.28038167  1
  Mg  Mg69  1  0.16760382  0.16760385  0.49718763  1
  Mg  Mg70  1  0.02036390  0.29405794  0.66521521  1
  Mg  Mg71  1  0.44348093  0.66170540  0.66170544  1
  Mg  Mg72  1  0.02036386  0.66521512  0.29405805  1
  Mg  Mg73  1  0.85608222  0.64391785  0.85608214  1
  Mg  Mg74  1  0.78462692  0.43090177  0.78462698  1
  Mg  Mg75  1  -0.00015479  0.78462696  0.78462700  1
  Mg  Mg76  1  0.64391786  0.85608223  0.64391780  1
  Mg  Mg77  1  0.18065513  0.18065516  0.81934486  1
  Mg  Mg78  1  0.05187354  0.05187360  0.84437936  1
  Mg  Mg79  1  0.43090182  -0.00015473  0.78462696  1
  Mg  Mg80  1  0.28038171  0.28038173  0.52542048  1
  Mg  Mg81  1  0.09290831  0.86894361  0.51907404  1
  Mg  Mg82  1  0.66170545  0.66170546  0.23310924  1
  Mg  Mg83  1  0.91381613  0.52542045  0.28038171  1
  Mg  Mg84  1  0.44348094  0.23310917  0.66170544  1
  Mg  Mg85  1  0.51907411  0.86894358  0.51907395  1
  Mg  Mg86  1  -0.00015479  0.78462696  0.43090183  1
  Mg  Mg87  1  0.30397282  0.30397280  0.30397286  1
  Ir  Ir0  1  0.41314537  0.08685470  0.41314519  1
  Ir  Ir1  1  0.24982363  0.91672580  0.91672578  1
  Ir  Ir2  1  0.65154009  0.65154006  0.04538083  1
  Ir  Ir3  1  0.65154015  0.04538067  0.65154009  1
  Ir  Ir4  1  0.91672565  0.91672574  0.24982375  1
  Ir  Ir5  1  0.91672565  0.91672574  0.91672586  1
  Ir  Ir6  1  0.91672567  0.24982371  0.91672581  1
  Ir  Ir7  1  0.08685471  0.08685465  0.41314532  1
  Ir  Ir8  1  0.08685473  0.41314531  0.08685472  1
  Ir  Ir9  1  0.04538072  0.65154017  0.65154005  1
  Ir  Ir10  1  0.65154009  0.65154006  0.65154002  1
  Ir  Ir11  1  0.41314535  0.41314518  0.08685473  1
  Ir  Ir12  1  0.41314537  0.08685470  0.08685474  1
  Ir  Ir13  1  0.08685473  0.41314531  0.41314524  1
loop_
_geom_bond_atom_site_label_1
_geom_bond_atom_site_label_2
_geom_bond_distance
_geom_bond_site_symmetry_2
Mg0 Mg9 3.060958 1_555
Mg0 Mg16 3.060959 1_555
Mg1 Mg8 3.033873 1_555
Mg1 Mg27 3.033878 1_555
Mg1 Mg9 3.322712 1_555
Mg1 Mg49 3.322725 1_555
Mg4 Mg67 3.322712 1_555
Mg4 Mg55 3.322713 1_555
Mg5 Mg68 3.060957 1_555
Mg6 Mg66 3.322711 1_555
Mg6 Mg68 3.322724 1_555
Mg7 Mg80 3.322724 1_555
Mg8 Mg82 3.033877 1_555
Mg8 Mg9 3.315728 1_555
Mg11 Mg61 3.385566 1_555
Mg11 Mg41 3.385568 1_555
Mg12 Mg83 2.830380 1_455
Mg12 Mg66 2.830381 1_455
Mg12 Mg67 2.830381 1_455
Mg13 Mg67 3.060958 1_555
Mg13 Mg83 3.060959 1_555
Mg14 Mg32 3.033877 1_555
Mg14 Mg8 3.033881 1_555
Mg14 Mg41 3.322712 1_555
Mg14 Mg61 3.322713 1_555
Mg15 Mg68 3.133505 1_555
Mg15 Mg16 3.133517 1_545
Mg16 Mg39 2.830380 1_565
Mg16 Mg35 3.003019 1_565
Mg16 Mg85 3.060959 1_555
Mg16 Mg59 3.133508 1_565
Mg16 Mg8 3.315728 1_555
Mg16 Mg82 3.322711 1_555
Mg16 Mg30 3.322717 1_555
Mg16 Mg45 3.385565 1_555
Mg16 Mg41 3.456538 1_555
Mg16 Mg9 3.456538 1_555
Mg17 Mg32 3.033885 1_555
Mg17 Mg21 3.033887 1_555
Mg17 Mg67 3.322717 1_555
Mg17 Mg55 3.322718 1_555
Mg18 Mg80 3.060957 1_555
Mg18 Mg49 3.060958 1_555
Mg19 Mg49 3.133506 1_555
Mg19 Mg61 3.133518 1_554
Mg21 Mg58 3.033872 1_555
Mg21 Mg6 3.033873 1_555
Mg21 Mg82 3.033878 1_555
Mg21 Mg4 3.033879 1_555
Mg21 Mg30 3.033885 1_555
Mg21 Mg67 3.315727 1_555
Mg21 Mg66 3.315728 1_555
Mg21 Mg83 3.315728 1_555
Mg21 Mg8 3.459058 1_555
Mg21 Mg27 3.459061 1_555
Mg21 Mg32 3.459061 1_555
Mg23 Mg55 3.060957 1_555
Mg23 Mg61 3.060958 1_555
Mg24 Mg49 3.385566 1_555
Mg24 Mg9 3.385568 1_555
Mg25 Mg8 3.033873 1_555
Mg25 Mg27 3.033878 1_555
Mg25 Mg9 3.322713 1_555
Mg25 Mg49 3.322725 1_555
Mg27 Mg58 3.033878 1_555
Mg27 Mg6 3.033879 1_555
Mg27 Mg84 3.033881 1_555
Mg27 Mg7 3.033881 1_555
Mg27 Mg80 3.315728 1_555
Mg27 Mg68 3.315729 1_555
Mg27 Mg49 3.315729 1_555
Mg27 Mg8 3.459061 1_555
Mg27 Mg32 3.459064 1_555
Mg28 Mg65 3.060957 1_555
Mg28 Mg61 3.060958 1_555
Mg29 Mg67 3.060959 1_555
Mg29 Mg66 3.060959 1_555
Mg30 Mg8 3.033884 1_555
Mg30 Mg83 3.322717 1_555
Mg31 Mg61 3.133508 1_554
Mg31 Mg83 3.133509 1_455
Mg32 Mg7 3.033873 1_555
Mg32 Mg84 3.033873 1_555
Mg32 Mg4 3.033877 1_555
Mg32 Mg71 3.033884 1_555
Mg32 Mg65 3.315728 1_555
Mg32 Mg55 3.315729 1_555
Mg32 Mg61 3.315729 1_555
Mg32 Mg8 3.459061 1_555
Mg33 Mg80 3.133506 1_555
Mg33 Mg41 3.133519 1_545
Mg34 Mg68 3.133506 1_555
Mg34 Mg55 3.133518 1_554
Mg35 Mg55 3.003020 1_554
Mg35 Mg68 3.003032 1_555
Mg39 Mg41 2.830380 1_545
Mg39 Mg9 2.830380 1_545
Mg41 Mg69 3.003019 1_565
Mg41 Mg85 3.060958 1_555
Mg41 Mg81 3.060959 1_555
Mg41 Mg60 3.133509 1_565
Mg41 Mg8 3.315728 1_555
Mg41 Mg71 3.322718 1_555
Mg41 Mg9 3.456539 1_555
Mg42 Mg68 3.385566 1_555
Mg42 Mg66 3.385568 1_555
Mg45 Mg83 3.385565 1_555
Mg46 Mg9 3.003022 1_545
Mg46 Mg66 3.003022 1_455
Mg46 Mg65 3.003023 1_554
Mg48 Mg61 2.830381 1_554
Mg48 Mg55 2.830381 1_554
Mg48 Mg65 2.830383 1_554
Mg49 Mg87 2.830381 1_555
Mg49 Mg52 3.003032 1_555
Mg49 Mg5 3.060958 1_555
Mg49 Mg72 3.133505 1_555
Mg49 Mg68 3.456536 1_555
Mg49 Mg80 3.456538 1_555
Mg51 Mg80 3.060958 1_555
Mg51 Mg68 3.060959 1_555
Mg52 Mg83 3.003020 1_455
Mg52 Mg61 3.003020 1_554
Mg53 Mg65 3.133505 1_554
Mg53 Mg9 3.133506 1_545
Mg54 Mg66 3.133505 1_455
Mg54 Mg9 3.133505 1_545
Mg55 Mg64 3.060959 1_555
Mg55 Mg59 3.133508 1_556
Mg55 Mg56 3.385566 1_555
Mg55 Mg61 3.456536 1_555
Mg55 Mg65 3.456539 1_555
Mg56 Mg67 3.385568 1_555
Mg57 Mg65 3.133505 1_554
Mg57 Mg66 3.133506 1_455
Mg58 Mg66 3.322712 1_555
Mg58 Mg68 3.322725 1_555
Mg60 Mg67 3.133509 1_455
Mg61 Mg71 3.322719 1_555
Mg61 Mg65 3.456538 1_555
Mg62 Mg66 3.060958 1_555
Mg62 Mg83 3.060959 1_555
Mg64 Mg65 3.060958 1_555
Mg65 Mg7 3.322713 1_555
Mg65 Mg84 3.322713 1_555
Mg65 Mg77 3.385567 1_555
Mg66 Mg83 3.456538 1_555
Mg66 Mg67 3.456540 1_555
Mg67 Mg69 3.003019 1_655
Mg67 Mg70 3.133519 1_655
Mg67 Mg83 3.456538 1_555
Mg68 Mg87 2.830381 1_555
Mg68 Mg80 3.456539 1_555
Mg69 Mg80 3.003032 1_555
Mg70 Mg80 3.133506 1_555
Mg71 Mg8 3.033887 1_555
Mg72 Mg83 3.133518 1_455
Mg77 Mg80 3.385567 1_555
Mg80 Mg87 2.830383 1_555
Mg80 Mg84 3.322725 1_555
Mg81 Mg9 3.060959 1_555
Mg82 Mg83 3.322711 1_555
Ir0 Mg85 2.638322 1_545
Ir0 Mg51 2.638325 1_555
Ir0 Mg87 2.657397 1_555
Ir0 Mg39 2.657399 1_555
Ir0 Mg69 2.828169 1_555
Ir0 Mg35 2.828171 1_555
Ir0 Mg15 2.934661 1_555
Ir0 Mg33 2.934665 1_555
Ir0 Mg16 3.116566 1_545
Ir0 Mg68 3.116566 1_555
Ir0 Mg41 3.116567 1_545
Ir0 Mg80 3.116568 1_555
Ir1 Mg37 2.724308 1_555
Ir1 Mg44 2.724308 1_556
Ir1 Mg79 2.724308 1_565
Ir1 Mg10 2.837882 1_566
Ir1 Mg78 2.837890 1_565
Ir1 Mg26 2.837890 1_556
Ir1 Mg19 2.936914 1_556
Ir1 Mg33 2.936914 1_565
Ir1 Mg53 2.936914 1_566
Ir1 Mg77 3.048496 1_565
Ir1 Mg24 3.048497 1_556
Ir1 Mg11 3.048509 1_555
Ir2 Mg73 2.781935 1_554
Ir2 Mg63 2.781935 1_554
Ir2 Mg47 2.781944 1_554
Ir2 Mg6 2.798863 1_555
Ir2 Mg1 2.798863 1_555
Ir2 Mg82 2.798865 1_555
Ir2 Mg62 2.901491 1_555
Ir2 Mg0 2.901491 1_555
Ir2 Mg5 2.901504 1_555
Ir2 Mg20 2.928142 1_555
Ir2 Mg44 2.928142 1_555
Ir2 Mg3 2.928143 1_555
Ir3 Mg43 2.781931 1_545
Ir3 Mg63 2.781932 1_545
Ir3 Mg76 2.781940 1_545
Ir3 Mg84 2.798863 1_555
Ir3 Mg4 2.798864 1_555
Ir3 Mg58 2.798864 1_555
Ir3 Mg29 2.901492 1_555
Ir3 Mg64 2.901493 1_555
Ir3 Mg51 2.901505 1_555
Ir3 Mg79 2.928143 1_555
Ir3 Mg36 2.928143 1_555
Ir3 Mg50 2.928143 1_555
Ir4 Mg40 2.724306 1_555
Ir4 Mg50 2.724308 1_565
Ir4 Mg86 2.724308 1_655
Ir4 Mg10 2.837886 1_665
Ir4 Mg22 2.837891 1_565
Ir4 Mg26 2.837892 1_655
Ir4 Mg15 2.936911 1_565
Ir4 Mg72 2.936912 1_655
Ir4 Mg54 2.936914 1_665
Ir4 Mg42 3.048496 1_565
Ir4 Mg24 3.048497 1_655
Ir4 Mg45 3.048508 1_555
Ir5 Mg3 2.724306 1_556
Ir5 Mg36 2.724308 1_565
Ir5 Mg75 2.724308 1_655
Ir5 Mg22 2.837880 1_566
Ir5 Mg26 2.837880 1_656
Ir5 Mg78 2.837881 1_665
Ir5 Mg59 2.936911 1_566
Ir5 Mg31 2.936912 1_656
Ir5 Mg60 2.936914 1_665
Ir5 Mg56 3.048497 1_565
Ir5 Mg45 3.048497 1_556
Ir5 Mg11 3.048498 1_655
Ir6 Mg74 2.724307 1_555
Ir6 Mg20 2.724307 1_556
Ir6 Mg38 2.724308 1_655
Ir6 Mg10 2.837883 1_656
Ir6 Mg22 2.837890 1_556
Ir6 Mg78 2.837890 1_655
Ir6 Mg34 2.936912 1_556
Ir6 Mg57 2.936914 1_656
Ir6 Mg70 2.936914 1_655
Ir6 Mg42 3.048497 1_556
Ir6 Mg77 3.048497 1_655
Ir6 Mg56 3.048508 1_555
Ir7 Mg81 2.638322 1_545
Ir7 Mg29 2.638322 1_455
Ir7 Mg39 2.657398 1_555
Ir7 Mg12 2.657398 1_555
Ir7 Mg69 2.828160 1_555
Ir7 Mg46 2.828172 1_555
Ir7 Mg54 2.934653 1_555
Ir7 Mg60 2.934666 1_555
Ir7 Mg9 3.116566 1_545
Ir7 Mg41 3.116566 1_545
Ir7 Mg67 3.116567 1_455
Ir7 Mg66 3.116567 1_455
Ir8 Mg62 2.638323 1_455
Ir8 Mg28 2.638325 1_554
Ir8 Mg48 2.657397 1_555
Ir8 Mg12 2.657399 1_555
Ir8 Mg52 2.828160 1_555
Ir8 Mg46 2.828168 1_555
Ir8 Mg57 2.934654 1_555
Ir8 Mg31 2.934663 1_555
Ir8 Mg61 3.116566 1_554
Ir8 Mg83 3.116567 1_455
Ir8 Mg66 3.116567 1_455
Ir8 Mg65 3.116567 1_554
Ir9 Mg43 2.781932 1_455
Ir9 Mg73 2.781933 1_455
Ir9 Mg2 2.781941 1_455
Ir9 Mg7 2.798863 1_555
Ir9 Mg25 2.798864 1_555
Ir9 Mg14 2.798864 1_555
Ir9 Mg81 2.901491 1_555
Ir9 Mg28 2.901494 1_555
Ir9 Mg18 2.901505 1_555
Ir9 Mg86 2.928143 1_555
Ir9 Mg75 2.928143 1_555
Ir9 Mg38 2.928144 1_555
Ir10 Mg2 2.781928 1_555
Ir10 Mg76 2.781929 1_555
Ir10 Mg47 2.781930 1_555
Ir10 Mg17 2.798863 1_555
Ir10 Mg71 2.798863 1_555
Ir10 Mg30 2.798865 1_555
Ir10 Mg13 2.901497 1_555
Ir10 Mg85 2.901498 1_555
Ir10 Mg23 2.901498 1_555
Ir10 Mg74 2.928142 1_555
Ir10 Mg37 2.928142 1_555
Ir10 Mg40 2.928143 1_555
Ir11 Mg23 2.638325 1_554
Ir11 Mg5 2.638325 1_555
Ir11 Mg48 2.657399 1_555
Ir11 Mg87 2.657399 1_555
Ir11 Mg35 2.828167 1_555
Ir11 Mg52 2.828169 1_555
Ir11 Mg34 2.934661 1_555
Ir11 Mg19 2.934662 1_555
Ir11 Mg55 3.116566 1_554
Ir11 Mg68 3.116566 1_555
Ir11 Mg61 3.116567 1_554
Ir11 Mg49 3.116568 1_555
Ir12 Mg0 2.638322 1_545
Ir12 Mg64 2.638325 1_554
Ir12 Mg48 2.657397 1_555
Ir12 Mg39 2.657399 1_555
Ir12 Mg35 2.828159 1_555
Ir12 Mg46 2.828169 1_555
Ir12 Mg53 2.934655 1_555
Ir12 Mg59 2.934662 1_555
Ir12 Mg16 3.116566 1_545
Ir12 Mg55 3.116566 1_554
Ir12 Mg9 3.116567 1_545
Ir12 Mg65 3.116568 1_554
Ir13 Mg13 2.638323 1_455
Ir13 Mg18 2.638325 1_555
Ir13 Mg87 2.657397 1_555
Ir13 Mg12 2.657399 1_555
Ir13 Mg69 2.828168 1_555
Ir13 Mg52 2.828171 1_555
Ir13 Mg72 2.934661 1_555
Ir13 Mg70 2.934665 1_555
Ir13 Mg49 3.116566 1_555
Ir13 Mg83 3.116567 1_455
Ir13 Mg67 3.116567 1_455
Ir13 Mg80 3.116567 1_555
