# generated using pymatgen
data_NaFe(TeO3)2
_symmetry_space_group_name_H-M   'P 1'
_cell_length_a   7.92177400
_cell_length_b   10.61011800
_cell_length_c   13.68422100
_cell_angle_alpha   90.00000000
_cell_angle_beta   90.00000000
_cell_angle_gamma   90.00000000
_symmetry_Int_Tables_number   1
_chemical_formula_structural   NaFe(TeO3)2
_chemical_formula_sum   'Na8 Fe8 Te16 O48'
_cell_volume   1150.17186961
_cell_formula_units_Z   8
loop_
 _symmetry_equiv_pos_site_id
 _symmetry_equiv_pos_as_xyz
  1  'x, y, z'
loop_
 _atom_site_type_symbol
 _atom_site_label
 _atom_site_symmetry_multiplicity
 _atom_site_fract_x
 _atom_site_fract_y
 _atom_site_fract_z
 _atom_site_occupancy
  Na  Na0  1  0.33240700  0.75889500  0.86029100  1
  Na  Na1  1  0.16759300  0.25889500  0.13970900  1
  Na  Na2  1  0.83240700  0.74110500  0.86029100  1
  Na  Na3  1  0.66759300  0.24110500  0.13970900  1
  Na  Na4  1  0.66759300  0.74110500  0.36029100  1
  Na  Na5  1  0.33240700  0.25889500  0.63970900  1
  Na  Na6  1  0.83240700  0.24110500  0.63970900  1
  Na  Na7  1  0.16759300  0.75889500  0.36029100  1
  Fe  Fe0  1  0.80465000  0.00002500  0.97950500  1
  Fe  Fe1  1  0.19535000  0.49997500  0.47950500  1
  Fe  Fe2  1  0.69535000  0.50002500  0.02049500  1
  Fe  Fe3  1  0.30465000  0.49997500  0.97950500  1
  Fe  Fe4  1  0.80465000  0.50002500  0.52049500  1
  Fe  Fe5  1  0.30465000  0.99997500  0.52049500  1
  Fe  Fe6  1  0.69535000  0.00002500  0.47950500  1
  Fe  Fe7  1  0.19535000  0.99997500  0.02049500  1
  Te  Te0  1  0.45134900  0.71403600  0.57615300  1
  Te  Te1  1  0.41894900  0.50917200  0.23266500  1
  Te  Te2  1  0.58105100  0.49082800  0.76733500  1
  Te  Te3  1  0.41894900  0.00917200  0.26733500  1
  Te  Te4  1  0.95134900  0.28596400  0.92384700  1
  Te  Te5  1  0.04865100  0.21403600  0.42384700  1
  Te  Te6  1  0.08105100  0.50917200  0.73266500  1
  Te  Te7  1  0.54865100  0.78596400  0.07615300  1
  Te  Te8  1  0.91894900  0.99082800  0.23266500  1
  Te  Te9  1  0.08105100  0.00917200  0.76733500  1
  Te  Te10  1  0.58105100  0.99082800  0.73266500  1
  Te  Te11  1  0.91894900  0.49082800  0.26733500  1
  Te  Te12  1  0.54865100  0.28596400  0.42384700  1
  Te  Te13  1  0.95134900  0.78596400  0.57615300  1
  Te  Te14  1  0.45134900  0.21403600  0.92384700  1
  Te  Te15  1  0.04865100  0.71403600  0.07615300  1
  O  O0  1  0.62634800  0.46782900  0.16410500  1
  O  O1  1  0.68033200  0.65829800  0.55262800  1
  O  O2  1  0.81966800  0.65829800  0.05262800  1
  O  O3  1  0.18033200  0.34170200  0.94737200  1
  O  O4  1  0.43593400  0.18615800  0.26760700  1
  O  O5  1  0.06406600  0.18615800  0.76760700  1
  O  O6  1  0.76192400  0.01938000  0.12758900  1
  O  O7  1  0.50133600  0.37148400  0.98943400  1
  O  O8  1  0.87008600  0.37034200  0.03994900  1
  O  O9  1  0.23807600  0.48062000  0.62758900  1
  O  O10  1  0.12634800  0.53217100  0.33589500  1
  O  O11  1  0.93593400  0.31384200  0.26760700  1
  O  O12  1  0.43593400  0.68615800  0.23239300  1
  O  O13  1  0.73807600  0.01938000  0.62758900  1
  O  O14  1  0.37008600  0.12965800  0.03994900  1
  O  O15  1  0.00133600  0.12851600  0.98943400  1
  O  O16  1  0.50133600  0.87148400  0.51056600  1
  O  O17  1  0.49866400  0.12851600  0.48943400  1
  O  O18  1  0.37365200  0.03217100  0.66410500  1
  O  O19  1  0.37365200  0.53217100  0.83589500  1
  O  O20  1  0.99866400  0.87148400  0.01056600  1
  O  O21  1  0.56406600  0.31384200  0.76760700  1
  O  O22  1  0.56406600  0.81384200  0.73239300  1
  O  O23  1  0.76192400  0.51938000  0.37241100  1
  O  O24  1  0.68033200  0.15829800  0.94737200  1
  O  O25  1  0.37008600  0.62965800  0.46005100  1
  O  O26  1  0.18033200  0.84170200  0.55262800  1
  O  O27  1  0.99866400  0.37148400  0.48943400  1
  O  O28  1  0.23807600  0.98062000  0.87241100  1
  O  O29  1  0.12634800  0.03217100  0.16410500  1
  O  O30  1  0.62634800  0.96782900  0.33589500  1
  O  O31  1  0.12991400  0.12965800  0.53994900  1
  O  O32  1  0.62991400  0.37034200  0.53994900  1
  O  O33  1  0.49866400  0.62851600  0.01056600  1
  O  O34  1  0.73807600  0.51938000  0.87241100  1
  O  O35  1  0.00133600  0.62851600  0.51056600  1
  O  O36  1  0.87365200  0.96782900  0.83589500  1
  O  O37  1  0.81966800  0.15829800  0.44737200  1
  O  O38  1  0.26192400  0.48062000  0.12758900  1
  O  O39  1  0.06406600  0.68615800  0.73239300  1
  O  O40  1  0.87008600  0.87034200  0.46005100  1
  O  O41  1  0.26192400  0.98062000  0.37241100  1
  O  O42  1  0.31966800  0.34170200  0.44737200  1
  O  O43  1  0.31966800  0.84170200  0.05262800  1
  O  O44  1  0.93593400  0.81384200  0.23239300  1
  O  O45  1  0.62991400  0.87034200  0.96005100  1
  O  O46  1  0.12991400  0.62965800  0.96005100  1
  O  O47  1  0.87365200  0.46782900  0.66410500  1
loop_
_geom_bond_atom_site_label_1
_geom_bond_atom_site_label_2
_geom_bond_distance
_geom_bond_site_symmetry_2
Na0 O19 2.450503 1_555
Na0 O28 2.473926 1_555
Na0 O46 2.513363 1_555
Na0 O22 2.602077 1_555
Na0 O43 2.776587 1_556
Na0 O33 2.806601 1_556
Na0 O39 2.859632 1_555
Na0 O45 2.969218 1_555
Na1 O29 2.450503 1_555
Na1 O38 2.473926 1_555
Na1 O14 2.513363 1_555
Na1 O11 2.602077 1_455
Na1 O3 2.776587 1_554
Na1 O15 2.806601 1_554
Na1 O4 2.859632 1_555
Na1 O8 2.969218 1_455
Na2 O36 2.450503 1_555
Na2 O34 2.473926 1_555
Na2 O45 2.513363 1_555
Na2 O39 2.602077 1_655
Na2 O2 2.776587 1_556
Na2 O20 2.806601 1_556
Na2 O22 2.859632 1_555
Na2 O46 2.969218 1_655
Na3 O0 2.450503 1_555
Na3 O6 2.473926 1_555
Na3 O8 2.513363 1_555
Na3 O4 2.602077 1_555
Na3 O24 2.776587 1_554
Na3 O7 2.806601 1_554
Na3 O11 2.859632 1_555
Na3 O14 2.969218 1_555
Na4 O30 2.450503 1_555
Na4 O23 2.473926 1_555
Na4 O40 2.513363 1_555
Na4 O12 2.602077 1_555
Na4 O1 2.776587 1_555
Na4 O16 2.806601 1_555
Na4 O44 2.859632 1_555
Na4 O25 2.969218 1_555
Na5 O18 2.450503 1_555
Na5 O9 2.473926 1_555
Na5 O31 2.513363 1_555
Na5 O21 2.602077 1_555
Na5 O42 2.776587 1_555
Na5 O17 2.806601 1_555
Na5 O5 2.859632 1_555
Na5 O32 2.969218 1_555
Na6 O47 2.450503 1_555
Na6 O13 2.473926 1_555
Na6 O32 2.513363 1_555
Na6 O5 2.602077 1_655
Na6 O37 2.776587 1_555
Na6 O27 2.806601 1_555
Na6 O21 2.859632 1_555
Na6 O31 2.969218 1_655
Na7 O10 2.450503 1_555
Na7 O41 2.473926 1_555
Na7 O25 2.513363 1_555
Na7 O44 2.602077 1_455
Na7 O26 2.776587 1_555
Na7 O35 2.806601 1_555
Na7 O12 2.859632 1_555
Na7 O40 2.969218 1_455
Fe0 O45 1.969816 1_545
Fe0 O24 1.995808 1_555
Fe0 O6 2.064724 1_556
Fe0 O36 2.068202 1_545
Fe0 O15 2.074787 1_655
Fe0 O20 2.098304 1_546
Fe1 O25 1.969816 1_555
Fe1 O42 1.995808 1_555
Fe1 O9 2.064724 1_555
Fe1 O10 2.068202 1_555
Fe1 O27 2.074787 1_455
Fe1 O35 2.098304 1_555
Fe2 O8 1.969816 1_555
Fe2 O2 1.995808 1_555
Fe2 O34 2.064724 1_554
Fe2 O0 2.068202 1_555
Fe2 O33 2.074787 1_555
Fe2 O7 2.098304 1_554
Fe3 O46 1.969816 1_555
Fe3 O3 1.995808 1_555
Fe3 O38 2.064724 1_556
Fe3 O19 2.068202 1_555
Fe3 O7 2.074787 1_555
Fe3 O33 2.098304 1_556
Fe4 O32 1.969816 1_555
Fe4 O1 1.995808 1_555
Fe4 O23 2.064724 1_555
Fe4 O47 2.068202 1_555
Fe4 O35 2.074787 1_655
Fe4 O27 2.098304 1_555
Fe5 O31 1.969816 1_565
Fe5 O26 1.995808 1_555
Fe5 O41 2.064724 1_555
Fe5 O18 2.068202 1_565
Fe5 O16 2.074787 1_555
Fe5 O17 2.098304 1_565
Fe6 O40 1.969816 1_545
Fe6 O37 1.995808 1_555
Fe6 O13 2.064724 1_555
Fe6 O30 2.068202 1_545
Fe6 O17 2.074787 1_555
Fe6 O16 2.098304 1_545
Fe7 O14 1.969816 1_565
Fe7 O43 1.995808 1_555
Fe7 O28 2.064724 1_554
Fe7 O29 2.068202 1_565
Fe7 O20 2.074787 1_455
Fe7 O15 2.098304 1_564
O0 Te1 1.942154 1_555
O1 Te0 1.934888 1_555
O1 Te13 2.558862 1_555
O2 Te15 1.934888 1_655
O2 Te7 2.558862 1_555
O3 Te4 1.934888 1_455
O3 Te14 2.558862 1_555
O4 Te3 1.882660 1_555
O4 Te12 2.547514 1_555
O5 Te9 1.882660 1_555
O5 Te4 2.547514 1_455
O6 Te8 1.925256 1_545
O7 Te14 1.937275 1_555
O8 Te4 1.933928 1_554
O9 Te6 1.925256 1_555
O10 Te11 1.942154 1_455
O11 Te11 1.882660 1_555
O11 Te5 2.547514 1_655
O12 Te1 1.882660 1_555
O12 Te7 2.547514 1_555
O13 Te10 1.925256 1_545
O14 Te14 1.933928 1_554
O15 Te4 1.937275 1_455
O16 Te0 1.937275 1_555
O17 Te12 1.937275 1_555
O18 Te10 1.942154 1_545
O19 Te2 1.942154 1_555
O20 Te15 1.937275 1_655
O21 Te2 1.882660 1_555
O21 Te14 2.547514 1_555
O22 Te10 1.882660 1_555
O22 Te0 2.547514 1_555
O23 Te11 1.925256 1_555
O24 Te14 1.934888 1_555
O24 Te4 2.558862 1_555
O25 Te0 1.933928 1_555
O26 Te13 1.934888 1_455
O26 Te0 2.558862 1_555
O27 Te5 1.937275 1_655
O28 Te9 1.925256 1_565
O29 Te8 1.942154 1_445
O30 Te3 1.942154 1_565
O31 Te5 1.933928 1_555
O32 Te12 1.933928 1_555
O33 Te7 1.937275 1_555
O34 Te2 1.925256 1_555
O35 Te13 1.937275 1_455
O36 Te9 1.942154 1_665
O37 Te5 1.934888 1_655
O37 Te12 2.558862 1_555
O38 Te1 1.925256 1_555
O39 Te6 1.882660 1_555
O39 Te13 2.547514 1_455
O40 Te13 1.933928 1_555
O41 Te3 1.925256 1_565
O42 Te12 1.934888 1_555
O42 Te5 2.558862 1_555
O43 Te7 1.934888 1_555
O43 Te15 2.558862 1_555
O44 Te8 1.882660 1_555
O44 Te15 2.547514 1_655
O45 Te7 1.933928 1_556
O46 Te15 1.933928 1_556
O47 Te6 1.942154 1_655
