# generated using pymatgen
data_BaPuO3
_symmetry_space_group_name_H-M   'P 1'
_cell_length_a   6.21830855
_cell_length_b   6.22055537
_cell_length_c   8.74807929
_cell_angle_alpha   90.00000000
_cell_angle_beta   90.00000000
_cell_angle_gamma   90.00000000
_symmetry_Int_Tables_number   1
_chemical_formula_structural   BaPuO3
_chemical_formula_sum   'Ba4 Pu4 O12'
_cell_volume   338.38736500
_cell_formula_units_Z   4
loop_
 _symmetry_equiv_pos_site_id
 _symmetry_equiv_pos_as_xyz
  1  'x, y, z'
loop_
 _atom_site_type_symbol
 _atom_site_label
 _atom_site_symmetry_multiplicity
 _atom_site_fract_x
 _atom_site_fract_y
 _atom_site_fract_z
 _atom_site_occupancy
  Ba  Ba0  1  0.98032318  0.00461925  0.25000000  1
  Ba  Ba1  1  0.48032318  0.49538075  0.25000000  1
  Ba  Ba2  1  0.51967682  0.50461925  0.75000000  1
  Ba  Ba3  1  0.01967682  0.99538075  0.75000000  1
  Pu  Pu0  1  0.50000000  0.00000000  0.00000000  1
  Pu  Pu1  1  0.00000000  0.50000000  0.50000000  1
  Pu  Pu2  1  0.00000000  0.50000000  0.00000000  1
  Pu  Pu3  1  0.50000000  0.00000000  0.50000000  1
  O  O0  1  0.51829907  0.93044967  0.25000000  1
  O  O1  1  0.01829907  0.56955033  0.25000000  1
  O  O2  1  0.98170093  0.43044967  0.75000000  1
  O  O3  1  0.48170093  0.06955033  0.75000000  1
  O  O4  1  0.72747683  0.27014247  0.03605145  1
  O  O5  1  0.22747683  0.22985753  0.46394855  1
  O  O6  1  0.77252317  0.77014247  0.96394855  1
  O  O7  1  0.27252317  0.72985753  0.53605145  1
  O  O8  1  0.27252317  0.72985753  0.96394855  1
  O  O9  1  0.77252317  0.77014247  0.53605145  1
  O  O10  1  0.22747683  0.22985753  0.03605145  1
  O  O11  1  0.72747683  0.27014247  0.46394855  1
loop_
_geom_bond_atom_site_label_1
_geom_bond_atom_site_label_2
_geom_bond_distance
_geom_bond_site_symmetry_2
Ba0 O1 2.716653 1_645
Ba0 O10 2.797879 1_655
Ba0 O5 2.797879 1_655
Ba0 O0 2.909819 1_545
Ba0 O4 2.950119 1_555
Ba0 O11 2.950119 1_555
Ba0 O9 3.171615 1_545
Ba0 O6 3.171615 1_544
Ba0 O0 3.376966 1_645
Ba1 O0 2.716653 1_555
Ba1 O11 2.797879 1_555
Ba1 O4 2.797879 1_555
Ba1 O1 2.909819 1_555
Ba1 O10 2.950119 1_555
Ba1 O5 2.950119 1_555
Ba1 O7 3.171615 1_555
Ba1 O8 3.171615 1_554
Ba1 O1 3.376966 1_655
Ba2 O3 2.716653 1_555
Ba2 O7 2.797879 1_555
Ba2 O8 2.797879 1_555
Ba2 O2 2.909819 1_555
Ba2 O9 2.950119 1_555
Ba2 O6 2.950119 1_555
Ba2 O11 3.171615 1_555
Ba2 O4 3.171615 1_556
Ba2 O2 3.376966 1_455
Ba3 O2 2.716653 1_465
Ba3 O9 2.797879 1_455
Ba3 O6 2.797879 1_455
Ba3 O3 2.909819 1_565
Ba3 O7 2.950119 1_555
Ba3 O8 2.950119 1_555
Ba3 O5 3.171615 1_565
Ba3 O10 3.171615 1_566
Ba3 O3 3.376966 1_465
O0 Pu3 2.232304 1_565
O0 Pu0 2.232304 1_565
O1 Pu1 2.232304 1_555
O1 Pu2 2.232304 1_555
O2 Pu2 2.232304 1_656
O2 Pu1 2.232304 1_655
O3 Pu0 2.232304 1_556
O3 Pu3 2.232304 1_555
O4 Pu0 2.219054 1_555
O4 Pu2 2.239574 1_655
O5 Pu1 2.219054 1_555
O5 Pu3 2.239574 1_555
O6 Pu2 2.219054 1_656
O6 Pu0 2.239574 1_566
O7 Pu3 2.219054 1_565
O7 Pu1 2.239574 1_555
O8 Pu0 2.219054 1_566
O8 Pu2 2.239574 1_556
O9 Pu1 2.219054 1_655
O9 Pu3 2.239574 1_565
O10 Pu2 2.219054 1_555
O10 Pu0 2.239574 1_555
O11 Pu3 2.219054 1_555
O11 Pu1 2.239574 1_655
