# generated using pymatgen
data_Pr15Si10Ni7
_symmetry_space_group_name_H-M   'P 1'
_cell_length_a   19.86797829
_cell_length_b   19.86797829
_cell_length_c   4.38164800
_cell_angle_alpha   90.00000000
_cell_angle_beta   90.00000000
_cell_angle_gamma   120.00000095
_symmetry_Int_Tables_number   1
_chemical_formula_structural   Pr15Si10Ni7
_chemical_formula_sum   'Pr30 Si20 Ni14'
_cell_volume   1497.87463476
_cell_formula_units_Z   2
loop_
 _symmetry_equiv_pos_site_id
 _symmetry_equiv_pos_as_xyz
  1  'x, y, z'
loop_
 _atom_site_type_symbol
 _atom_site_label
 _atom_site_symmetry_multiplicity
 _atom_site_fract_x
 _atom_site_fract_y
 _atom_site_fract_z
 _atom_site_occupancy
  Pr  Pr0  1  0.91800300  0.41957300  0.25000000  1
  Pr  Pr1  1  0.85286600  0.98409500  0.25000000  1
  Pr  Pr2  1  0.64416600  0.67856600  0.75000000  1
  Pr  Pr3  1  0.03440000  0.35583400  0.75000000  1
  Pr  Pr4  1  0.46610600  0.71055500  0.75000000  1
  Pr  Pr5  1  0.19756500  0.32177000  0.75000000  1
  Pr  Pr6  1  0.41957300  0.50157000  0.75000000  1
  Pr  Pr7  1  0.13122900  0.14713400  0.25000000  1
  Pr  Pr8  1  0.86877100  0.85286600  0.75000000  1
  Pr  Pr9  1  0.80243500  0.67823000  0.25000000  1
  Pr  Pr10  1  0.67856600  0.03440000  0.25000000  1
  Pr  Pr11  1  0.71055500  0.24445000  0.25000000  1
  Pr  Pr12  1  0.98409500  0.13122900  0.75000000  1
  Pr  Pr13  1  0.32143400  0.96560000  0.75000000  1
  Pr  Pr14  1  0.08199700  0.58042700  0.75000000  1
  Pr  Pr15  1  0.12420600  0.80243500  0.75000000  1
  Pr  Pr16  1  0.32177000  0.12420600  0.25000000  1
  Pr  Pr17  1  0.53389400  0.28944500  0.25000000  1
  Pr  Pr18  1  0.58042700  0.49843000  0.25000000  1
  Pr  Pr19  1  0.96560000  0.64416600  0.25000000  1
  Pr  Pr20  1  0.49843000  0.91800300  0.75000000  1
  Pr  Pr21  1  0.75555000  0.46610600  0.25000000  1
  Pr  Pr22  1  0.28944500  0.75555000  0.75000000  1
  Pr  Pr23  1  0.35583400  0.32143400  0.25000000  1
  Pr  Pr24  1  0.67823000  0.87579400  0.75000000  1
  Pr  Pr25  1  0.01590500  0.86877100  0.25000000  1
  Pr  Pr26  1  0.87579400  0.19756500  0.25000000  1
  Pr  Pr27  1  0.50157000  0.08199700  0.25000000  1
  Pr  Pr28  1  0.24445000  0.53389400  0.75000000  1
  Pr  Pr29  1  0.14713400  0.01590500  0.75000000  1
  Si  Si0  1  0.88971700  0.51497200  0.75000000  1
  Si  Si1  1  0.71065000  0.55520100  0.75000000  1
  Si  Si2  1  0.15545000  0.71065000  0.25000000  1
  Si  Si3  1  0.62525500  0.11028300  0.75000000  1
  Si  Si4  1  0.25684700  0.19568300  0.75000000  1
  Si  Si5  1  0.51497200  0.62525500  0.25000000  1
  Si  Si6  1  0.66666700  0.33333300  0.75000000  1
  Si  Si7  1  0.19568300  0.93883700  0.25000000  1
  Si  Si8  1  0.48502800  0.37474500  0.75000000  1
  Si  Si9  1  0.11028300  0.48502800  0.25000000  1
  Si  Si10  1  0.80431700  0.06116300  0.75000000  1
  Si  Si11  1  0.84455000  0.28935000  0.75000000  1
  Si  Si12  1  0.37474500  0.88971700  0.25000000  1
  Si  Si13  1  0.93883700  0.74315300  0.75000000  1
  Si  Si14  1  0.06116300  0.25684700  0.25000000  1
  Si  Si15  1  0.33333300  0.66666700  0.25000000  1
  Si  Si16  1  0.74315300  0.80431700  0.25000000  1
  Si  Si17  1  0.44479900  0.15545000  0.75000000  1
  Si  Si18  1  0.28935000  0.44479900  0.25000000  1
  Si  Si19  1  0.55520100  0.84455000  0.25000000  1
  Ni  Ni0  1  0.80051500  0.37940500  0.75000000  1
  Ni  Ni1  1  0.84709900  0.60629100  0.75000000  1
  Ni  Ni2  1  0.60629100  0.75919200  0.25000000  1
  Ni  Ni3  1  0.75919200  0.15290100  0.75000000  1
  Ni  Ni4  1  0.62059500  0.42111000  0.75000000  1
  Ni  Ni5  1  0.42111000  0.80051500  0.25000000  1
  Ni  Ni6  1  0.57889000  0.19948500  0.75000000  1
  Ni  Ni7  1  0.19948500  0.62059500  0.25000000  1
  Ni  Ni8  1  0.37940500  0.57889000  0.25000000  1
  Ni  Ni9  1  0.15290100  0.39370900  0.25000000  1
  Ni  Ni10  1  0.39370900  0.24080800  0.75000000  1
  Ni  Ni11  1  0.00000000  0.00000000  0.50000000  1
  Ni  Ni12  1  0.00000000  0.00000000  0.00000000  1
  Ni  Ni13  1  0.24080800  0.84709900  0.25000000  1
loop_
_geom_bond_atom_site_label_1
_geom_bond_atom_site_label_2
_geom_bond_distance
_geom_bond_site_symmetry_2
Pr0 Si0 3.126212 1_554
Pr0 Si0 3.126212 1_555
Pr0 Si11 3.138095 1_555
Pr0 Si11 3.138095 1_554
Pr0 Si9 3.364105 1_655
Pr1 Si10 3.090562 1_564
Pr1 Si10 3.090562 1_565
Pr1 Si16 3.118266 1_555
Pr2 Si5 3.129125 1_555
Pr2 Si5 3.129125 1_556
Pr2 Si16 3.161650 1_555
Pr2 Si16 3.161650 1_556
Pr2 Si1 3.315087 1_555
Pr3 Si9 3.129125 1_555
Pr3 Si9 3.129125 1_556
Pr3 Si14 3.161641 1_555
Pr3 Si14 3.161641 1_556
Pr3 Si11 3.315105 1_455
Pr4 Si15 3.196643 1_556
Pr4 Si15 3.196643 1_555
Pr4 Si5 3.203093 1_555
Pr4 Si5 3.203093 1_556
Pr4 Si19 3.210604 1_556
Pr4 Si19 3.210604 1_555
Pr5 Si18 3.105237 1_556
Pr5 Si18 3.105237 1_555
Pr5 Si14 3.211255 1_556
Pr5 Si14 3.211255 1_555
Pr5 Si4 3.257802 1_555
Pr6 Si5 3.126212 1_556
Pr6 Si5 3.126212 1_555
Pr6 Si18 3.138094 1_556
Pr6 Si18 3.138094 1_555
Pr6 Si8 3.364105 1_555
Pr7 Si4 3.090574 1_554
Pr7 Si4 3.090574 1_555
Pr7 Si14 3.118281 1_555
Pr8 Si16 3.090574 1_555
Pr8 Si16 3.090574 1_556
Pr8 Si13 3.118281 1_555
Pr9 Si1 3.105237 1_554
Pr9 Si1 3.105237 1_555
Pr9 Si13 3.211255 1_554
Pr9 Si13 3.211255 1_555
Pr9 Si16 3.257802 1_555
Pr10 Si3 3.129126 1_554
Pr10 Si3 3.129126 1_555
Pr10 Si10 3.161655 1_554
Pr10 Si10 3.161655 1_555
Pr10 Si19 3.315102 1_545
Pr11 Si6 3.196616 1_555
Pr11 Si6 3.196616 1_554
Pr11 Si3 3.203104 1_555
Pr11 Si3 3.203104 1_554
Pr11 Si11 3.210604 1_554
Pr11 Si11 3.210604 1_555
Pr12 Si14 3.090573 1_655
Pr12 Si14 3.090573 1_656
Pr12 Si10 3.118263 1_555
Pr13 Si12 3.129126 1_556
Pr13 Si12 3.129126 1_555
Pr13 Si7 3.161655 1_555
Pr13 Si7 3.161655 1_556
Pr13 Si17 3.315102 1_565
Pr14 Si9 3.126212 1_556
Pr14 Si9 3.126212 1_555
Pr14 Si2 3.138095 1_555
Pr14 Si2 3.138095 1_556
Pr14 Si0 3.364105 1_455
Pr15 Si2 3.105237 1_555
Pr15 Si2 3.105237 1_556
Pr15 Si7 3.211254 1_555
Pr15 Si7 3.211254 1_556
Pr15 Si13 3.257802 1_455
Pr16 Si17 3.105237 1_555
Pr16 Si17 3.105237 1_554
Pr16 Si4 3.211229 1_555
Pr16 Si4 3.211229 1_554
Pr16 Si7 3.257802 1_545
Pr17 Si6 3.196643 1_555
Pr17 Si6 3.196643 1_554
Pr17 Si8 3.203093 1_555
Pr17 Si8 3.203093 1_554
Pr17 Si17 3.210604 1_555
Pr17 Si17 3.210604 1_554
Pr18 Si8 3.126212 1_554
Pr18 Si8 3.126212 1_555
Pr18 Si1 3.138094 1_554
Pr18 Si1 3.138094 1_555
Pr18 Si5 3.364105 1_555
Pr19 Si0 3.129125 1_555
Pr19 Si0 3.129125 1_554
Pr19 Si13 3.161641 1_554
Pr19 Si13 3.161641 1_555
Pr19 Si2 3.315105 1_655
Pr20 Si12 3.126212 1_556
Pr20 Si12 3.126212 1_555
Pr20 Si19 3.138107 1_556
Pr20 Si19 3.138107 1_555
Pr20 Si3 3.364105 1_565
Pr21 Si6 3.196638 1_555
Pr21 Si6 3.196638 1_554
Pr21 Si0 3.203106 1_555
Pr21 Si0 3.203106 1_554
Pr21 Si1 3.210604 1_555
Pr21 Si1 3.210604 1_554
Pr22 Si15 3.196616 1_556
Pr22 Si15 3.196616 1_555
Pr22 Si12 3.203104 1_556
Pr22 Si12 3.203104 1_555
Pr22 Si2 3.210604 1_555
Pr22 Si2 3.210604 1_556
Pr23 Si8 3.129125 1_555
Pr23 Si8 3.129125 1_554
Pr23 Si4 3.161650 1_555
Pr23 Si4 3.161650 1_554
Pr23 Si18 3.315087 1_555
Pr24 Si19 3.105237 1_555
Pr24 Si19 3.105237 1_556
Pr24 Si16 3.211229 1_555
Pr24 Si16 3.211229 1_556
Pr24 Si10 3.257802 1_565
Pr25 Si13 3.090573 1_455
Pr25 Si13 3.090573 1_454
Pr25 Si7 3.118263 1_555
Pr26 Si11 3.105237 1_554
Pr26 Si11 3.105237 1_555
Pr26 Si10 3.211254 1_555
Pr26 Si10 3.211254 1_554
Pr26 Si14 3.257802 1_655
Pr27 Si3 3.126212 1_555
Pr27 Si3 3.126212 1_554
Pr27 Si17 3.138107 1_555
Pr27 Si17 3.138107 1_554
Pr27 Si12 3.364105 1_545
Pr28 Si15 3.196638 1_556
Pr28 Si15 3.196638 1_555
Pr28 Si9 3.203106 1_555
Pr28 Si9 3.203106 1_556
Pr28 Si18 3.210604 1_556
Pr28 Si18 3.210604 1_555
Pr29 Si7 3.090562 1_545
Pr29 Si7 3.090562 1_546
Pr29 Si4 3.118266 1_555
Ni0 Si6 2.339978 1_555
Ni0 Si11 2.352033 1_555
Ni0 Si0 2.371088 1_555
Ni0 Pr0 3.003741 1_555
Ni0 Pr0 3.003741 1_556
Ni0 Pr21 3.178672 1_555
Ni0 Pr21 3.178672 1_556
Ni0 Pr11 3.223537 1_555
Ni0 Pr11 3.223537 1_556
Ni1 Si0 2.354778 1_555
Ni1 Si1 2.372318 1_555
Ni1 Si13 2.399968 1_555
Ni1 Pr9 2.983007 1_556
Ni1 Pr9 2.983007 1_555
Ni1 Pr19 3.022810 1_556
Ni1 Pr19 3.022810 1_555
Ni1 Pr21 3.286246 1_555
Ni1 Pr21 3.286246 1_556
Ni2 Si5 2.354778 1_555
Ni2 Si19 2.372300 1_555
Ni2 Si16 2.399964 1_555
Ni2 Pr24 2.982996 1_554
Ni2 Pr24 2.982996 1_555
Ni2 Pr2 3.022810 1_554
Ni2 Pr2 3.022810 1_555
Ni2 Pr4 3.286243 1_554
Ni2 Pr4 3.286243 1_555
Ni3 Si3 2.354778 1_555
Ni3 Si11 2.372315 1_555
Ni3 Si10 2.399983 1_555
Ni3 Pr26 2.982994 1_556
Ni3 Pr26 2.982994 1_555
Ni3 Pr10 3.022810 1_555
Ni3 Pr10 3.022810 1_556
Ni3 Pr11 3.286257 1_555
Ni3 Pr11 3.286257 1_556
Ni4 Si6 2.339997 1_555
Ni4 Si1 2.352048 1_555
Ni4 Si8 2.371088 1_555
Ni4 Pr18 3.003741 1_555
Ni4 Pr18 3.003741 1_556
Ni4 Pr17 3.178661 1_555
Ni4 Pr17 3.178661 1_556
Ni4 Pr21 3.223535 1_555
Ni4 Pr21 3.223535 1_556
Ni5 Si15 2.339982 1_555
Ni5 Si19 2.352051 1_555
Ni5 Si12 2.371088 1_555
Ni5 Pr20 3.003741 1_555
Ni5 Pr20 3.003741 1_554
Ni5 Pr22 3.178658 1_554
Ni5 Pr22 3.178658 1_555
Ni5 Pr4 3.223548 1_554
Ni5 Pr4 3.223548 1_555
Ni6 Si6 2.339982 1_555
Ni6 Si17 2.352051 1_555
Ni6 Si3 2.371088 1_555
Ni6 Pr27 3.003741 1_556
Ni6 Pr27 3.003741 1_555
Ni6 Pr11 3.178658 1_556
Ni6 Pr11 3.178658 1_555
Ni6 Pr17 3.223548 1_555
Ni6 Pr17 3.223548 1_556
Ni7 Si15 2.339978 1_555
Ni7 Si2 2.352033 1_555
Ni7 Si9 2.371088 1_555
Ni7 Pr14 3.003741 1_554
Ni7 Pr14 3.003741 1_555
Ni7 Pr28 3.178672 1_554
Ni7 Pr28 3.178672 1_555
Ni7 Pr22 3.223537 1_554
Ni7 Pr22 3.223537 1_555
Ni8 Si15 2.339997 1_555
Ni8 Si18 2.352048 1_555
Ni8 Si5 2.371088 1_555
Ni8 Pr6 3.003741 1_555
Ni8 Pr6 3.003741 1_554
Ni8 Pr4 3.178661 1_554
Ni8 Pr4 3.178661 1_555
Ni8 Pr28 3.223535 1_555
Ni8 Pr28 3.223535 1_554
Ni9 Si9 2.354778 1_555
Ni9 Si18 2.372318 1_555
Ni9 Si14 2.399968 1_555
Ni9 Pr5 2.983007 1_555
Ni9 Pr5 2.983007 1_554
Ni9 Pr3 3.022810 1_555
Ni9 Pr3 3.022810 1_554
Ni9 Pr28 3.286246 1_554
Ni9 Pr28 3.286246 1_555
Ni10 Si8 2.354778 1_555
Ni10 Si17 2.372300 1_555
Ni10 Si4 2.399964 1_555
Ni10 Pr16 2.982996 1_555
Ni10 Pr16 2.982996 1_556
Ni10 Pr23 3.022810 1_556
Ni10 Pr23 3.022810 1_555
Ni10 Pr17 3.286243 1_555
Ni10 Pr17 3.286243 1_556
Ni11 Ni12 2.190824 1_555
Ni11 Ni12 2.190824 1_556
Ni11 Pr8 2.986880 1_445
Ni11 Pr7 2.986880 1_555
Ni11 Pr29 2.986880 1_555
Ni11 Pr1 2.986880 1_445
Ni11 Pr12 2.986880 1_455
Ni11 Pr25 2.986880 1_545
Ni12 Pr8 2.986880 1_444
Ni12 Pr7 2.986880 1_555
Ni12 Pr29 2.986880 1_554
Ni12 Pr1 2.986880 1_445
Ni12 Pr12 2.986880 1_454
Ni12 Pr25 2.986880 1_545
Ni13 Si12 2.354778 1_555
Ni13 Si2 2.372315 1_555
Ni13 Si7 2.399983 1_555
Ni13 Pr15 2.982994 1_554
Ni13 Pr15 2.982994 1_555
Ni13 Pr13 3.022810 1_555
Ni13 Pr13 3.022810 1_554
Ni13 Pr22 3.286257 1_555
Ni13 Pr22 3.286257 1_554
