# generated using pymatgen
data_Hg2Sb2O7
_symmetry_space_group_name_H-M   'P 1'
_cell_length_a   7.35855054
_cell_length_b   7.35855054
_cell_length_c   7.35855054
_cell_angle_alpha   60.00000000
_cell_angle_beta   60.00000000
_cell_angle_gamma   60.00000000
_symmetry_Int_Tables_number   1
_chemical_formula_structural   Hg2Sb2O7
_chemical_formula_sum   'Hg4 Sb4 O14'
_cell_volume   281.74864375
_cell_formula_units_Z   2
loop_
 _symmetry_equiv_pos_site_id
 _symmetry_equiv_pos_as_xyz
  1  'x, y, z'
loop_
 _atom_site_type_symbol
 _atom_site_label
 _atom_site_symmetry_multiplicity
 _atom_site_fract_x
 _atom_site_fract_y
 _atom_site_fract_z
 _atom_site_occupancy
  Hg  Hg0  1  0.62500000  0.62500000  0.62500000  1
  Hg  Hg1  1  0.62500000  0.12500000  0.62500000  1
  Hg  Hg2  1  0.62500000  0.62500000  0.12500000  1
  Hg  Hg3  1  0.12500000  0.62500000  0.62500000  1
  Sb  Sb0  1  0.12500000  0.62500000  0.12500000  1
  Sb  Sb1  1  0.12500000  0.12500000  0.12500000  1
  Sb  Sb2  1  0.12500000  0.12500000  0.62500000  1
  Sb  Sb3  1  0.62500000  0.12500000  0.12500000  1
  O  O0  1  0.80512472  0.80512472  0.19487528  1
  O  O1  1  0.80512472  0.19487528  0.80512472  1
  O  O2  1  0.05512472  0.05512472  0.44487528  1
  O  O3  1  0.80512472  0.19487528  0.19487528  1
  O  O4  1  0.44487528  0.44487528  0.05512472  1
  O  O5  1  0.05512472  0.44487528  0.05512472  1
  O  O6  1  0.19487528  0.80512472  0.80512472  1
  O  O7  1  0.44487528  0.05512472  0.44487528  1
  O  O8  1  0.50000000  0.50000000  0.50000000  1
  O  O9  1  0.19487528  0.80512472  0.19487528  1
  O  O10  1  0.19487528  0.19487528  0.80512472  1
  O  O11  1  0.75000000  0.75000000  0.75000000  1
  O  O12  1  0.44487528  0.05512472  0.05512472  1
  O  O13  1  0.05512472  0.44487528  0.44487528  1
loop_
_geom_bond_atom_site_label_1
_geom_bond_atom_site_label_2
_geom_bond_distance
_geom_bond_site_symmetry_2
Hg0 O8 2.253087 1_555
Hg0 O11 2.253087 1_555
Hg0 O1 2.626393 1_555
Hg0 O4 2.626393 1_556
Hg0 O13 2.626393 1_655
Hg0 O7 2.626393 1_565
Hg0 O6 2.626393 1_555
Hg0 O0 2.626393 1_555
Hg1 O8 2.253087 1_555
Hg1 O11 2.253087 1_545
Hg1 O1 2.626393 1_555
Hg1 O10 2.626393 1_555
Hg1 O12 2.626393 1_556
Hg1 O2 2.626393 1_655
Hg1 O3 2.626393 1_555
Hg1 O7 2.626393 1_555
Hg2 O11 2.253087 1_554
Hg2 O8 2.253087 1_555
Hg2 O5 2.626393 1_655
Hg2 O3 2.626393 1_555
Hg2 O12 2.626393 1_565
Hg2 O9 2.626393 1_555
Hg2 O0 2.626393 1_555
Hg2 O4 2.626393 1_555
Hg3 O11 2.253087 1_455
Hg3 O8 2.253087 1_555
Hg3 O13 2.626393 1_555
Hg3 O5 2.626393 1_556
Hg3 O10 2.626393 1_555
Hg3 O2 2.626393 1_565
Hg3 O9 2.626393 1_555
Hg3 O6 2.626393 1_555
O0 Sb3 1.978138 1_565
O0 Sb0 1.978138 1_655
O1 Sb3 1.978138 1_556
O1 Sb2 1.978138 1_655
O2 Sb2 1.978138 1_555
O2 Sb1 1.978138 1_555
O3 Sb1 1.978138 1_655
O3 Sb3 1.978138 1_555
O4 Sb0 1.978138 1_555
O4 Sb3 1.978138 1_555
O5 Sb0 1.978138 1_555
O5 Sb1 1.978138 1_555
O6 Sb2 1.978138 1_565
O6 Sb0 1.978138 1_556
O7 Sb2 1.978138 1_555
O7 Sb3 1.978138 1_555
O9 Sb1 1.978138 1_565
O9 Sb0 1.978138 1_555
O10 Sb1 1.978138 1_556
O10 Sb2 1.978138 1_555
O12 Sb1 1.978138 1_555
O12 Sb3 1.978138 1_555
O13 Sb0 1.978138 1_555
O13 Sb2 1.978138 1_555
