# generated using pymatgen
data_Na2VS2O9
_symmetry_space_group_name_H-M   'P 1'
_cell_length_a   6.39860000
_cell_length_b   6.91609800
_cell_length_c   16.90180300
_cell_angle_alpha   90.00000000
_cell_angle_beta   90.00000000
_cell_angle_gamma   90.00000000
_symmetry_Int_Tables_number   1
_chemical_formula_structural   Na2VS2O9
_chemical_formula_sum   'Na8 V4 S8 O36'
_cell_volume   747.96131358
_cell_formula_units_Z   4
loop_
 _symmetry_equiv_pos_site_id
 _symmetry_equiv_pos_as_xyz
  1  'x, y, z'
loop_
 _atom_site_type_symbol
 _atom_site_label
 _atom_site_symmetry_multiplicity
 _atom_site_fract_x
 _atom_site_fract_y
 _atom_site_fract_z
 _atom_site_occupancy
  Na  Na0  1  0.31264000  0.65025500  0.91493600  1
  Na  Na1  1  0.68736000  0.15025500  0.58506400  1
  Na  Na2  1  0.12909100  0.89348400  0.73809300  1
  Na  Na3  1  0.18736000  0.34974500  0.41493600  1
  Na  Na4  1  0.87090900  0.39348400  0.76190700  1
  Na  Na5  1  0.62909100  0.60651600  0.26190700  1
  Na  Na6  1  0.37090900  0.10651600  0.23809300  1
  Na  Na7  1  0.81264000  0.84974500  0.08506400  1
  V  V0  1  0.03437600  0.35120500  0.09010900  1
  V  V1  1  0.46562400  0.64879500  0.59010900  1
  V  V2  1  0.53437600  0.14879500  0.90989100  1
  V  V3  1  0.96562400  0.85120500  0.40989100  1
  S  S0  1  0.85649400  0.10249600  0.24863700  1
  S  S1  1  0.14350600  0.60249600  0.25136300  1
  S  S2  1  0.96439600  0.58693700  0.56804600  1
  S  S3  1  0.03560400  0.08693700  0.93195400  1
  S  S4  1  0.46439600  0.91306300  0.43195400  1
  S  S5  1  0.64350600  0.89750400  0.74863700  1
  S  S6  1  0.35649400  0.39750400  0.75136300  1
  S  S7  1  0.53560400  0.41306300  0.06804600  1
  O  O0  1  0.78067200  0.70083700  0.59530800  1
  O  O1  1  0.01274700  0.55067900  0.17919600  1
  O  O2  1  0.01785600  0.14406400  0.18553400  1
  O  O3  1  0.22513100  0.23064700  0.73318700  1
  O  O4  1  0.02225200  0.09794500  0.02096000  1
  O  O5  1  0.47774800  0.90205500  0.52096000  1
  O  O6  1  0.45264200  0.11490900  0.40782900  1
  O  O7  1  0.98214400  0.64406400  0.31446600  1
  O  O8  1  0.51274700  0.94932100  0.82080400  1
  O  O9  1  0.51785600  0.35593600  0.81446600  1
  O  O10  1  0.35108300  0.31116300  0.10444800  1
  O  O11  1  0.71932800  0.29916300  0.09530800  1
  O  O12  1  0.97774800  0.59794500  0.47904000  1
  O  O13  1  0.77245100  0.06300300  0.72182100  1
  O  O14  1  0.14891700  0.68883700  0.60444800  1
  O  O15  1  0.27486900  0.76935300  0.23318700  1
  O  O16  1  0.85108300  0.18883700  0.89555200  1
  O  O17  1  0.72513100  0.26935300  0.26681300  1
  O  O18  1  0.45750800  0.48712400  0.51898400  1
  O  O19  1  0.72754900  0.93699700  0.22182100  1
  O  O20  1  0.77486900  0.73064700  0.76681300  1
  O  O21  1  0.48725300  0.44932100  0.67919600  1
  O  O22  1  0.04735800  0.88509100  0.90782900  1
  O  O23  1  0.22754900  0.56300300  0.77817900  1
  O  O24  1  0.27245100  0.43699700  0.27817900  1
  O  O25  1  0.98725300  0.05067900  0.32080400  1
  O  O26  1  0.28067200  0.79916300  0.40469200  1
  O  O27  1  0.52225200  0.40205500  0.97904000  1
  O  O28  1  0.64891700  0.81116300  0.39555200  1
  O  O29  1  0.04249200  0.51287600  0.01898400  1
  O  O30  1  0.95264200  0.38509100  0.59217100  1
  O  O31  1  0.48214400  0.85593600  0.68553400  1
  O  O32  1  0.54249200  0.98712400  0.98101600  1
  O  O33  1  0.21932800  0.20083700  0.90469200  1
  O  O34  1  0.95750800  0.01287600  0.48101600  1
  O  O35  1  0.54735800  0.61490900  0.09217100  1
loop_
_geom_bond_atom_site_label_1
_geom_bond_atom_site_label_2
_geom_bond_distance
_geom_bond_site_symmetry_2
Na0 O22 2.352354 1_555
Na0 O27 2.432987 1_555
Na0 O23 2.450171 1_555
Na0 O29 2.642605 1_556
Na0 O8 2.906694 1_555
Na0 O9 2.958253 1_555
Na0 O32 2.972963 1_555
Na1 O30 2.352354 1_555
Na1 O5 2.432987 1_545
Na1 O13 2.450171 1_555
Na1 O34 2.642605 1_555
Na1 O21 2.906694 1_555
Na1 O31 2.958253 1_545
Na1 O18 2.972963 1_555
Na2 O3 2.412892 1_565
Na2 O31 2.441285 1_555
Na2 O23 2.465781 1_555
Na2 O20 2.577031 1_455
Na2 O13 2.580251 1_465
Na2 O14 2.668651 1_555
Na2 O8 2.851277 1_555
Na2 O22 2.916701 1_555
Na3 O6 2.352354 1_555
Na3 O12 2.432987 1_455
Na3 O24 2.450171 1_555
Na3 O18 2.642605 1_555
Na3 O25 2.906694 1_455
Na3 O7 2.958253 1_455
Na3 O34 2.972963 1_455
Na4 O20 2.412892 1_555
Na4 O9 2.441285 1_555
Na4 O13 2.465781 1_555
Na4 O3 2.577031 1_655
Na4 O23 2.580251 1_655
Na4 O16 2.668651 1_555
Na4 O21 2.851277 1_555
Na4 O30 2.916701 1_555
Na5 O17 2.412892 1_555
Na5 O7 2.441285 1_555
Na5 O19 2.465781 1_555
Na5 O15 2.577031 1_555
Na5 O24 2.580251 1_555
Na5 O28 2.668651 1_555
Na5 O1 2.851277 1_655
Na5 O35 2.916701 1_555
Na6 O15 2.412892 1_545
Na6 O2 2.441285 1_555
Na6 O24 2.465781 1_555
Na6 O17 2.577031 1_555
Na6 O19 2.580251 1_545
Na6 O10 2.668651 1_555
Na6 O25 2.851277 1_455
Na6 O6 2.916701 1_555
Na7 O35 2.352354 1_555
Na7 O4 2.432987 1_665
Na7 O19 2.450171 1_555
Na7 O32 2.642605 1_554
Na7 O1 2.906694 1_655
Na7 O2 2.958253 1_665
Na7 O29 2.972963 1_655
O0 S2 1.488232 1_555
O0 V1 2.049631 1_555
O1 S1 1.521923 1_555
O1 V0 2.046857 1_555
O2 S0 1.512027 1_455
O2 V0 2.159823 1_555
O3 S6 1.460341 1_555
O4 S3 1.508708 1_554
O4 V0 2.107126 1_555
O5 S4 1.508708 1_555
O5 V1 2.107126 1_555
O6 S4 1.456262 1_545
O7 S1 1.512027 1_655
O7 V3 2.159823 1_555
O8 S5 1.521923 1_555
O8 V2 2.046857 1_565
O9 S6 1.512027 1_555
O9 V2 2.159823 1_555
O10 S7 1.506391 1_555
O10 V0 2.059625 1_555
O11 S7 1.488232 1_555
O11 V0 2.049631 1_655
O12 S2 1.508708 1_555
O12 V3 2.107126 1_555
O13 S5 1.481988 1_545
O14 S2 1.506391 1_455
O14 V1 2.059625 1_555
O15 S1 1.460341 1_555
O16 S3 1.506391 1_655
O16 V2 2.059625 1_555
O17 S0 1.460341 1_555
O18 V1 1.642577 1_555
O19 S0 1.481988 1_565
O20 S5 1.460341 1_555
O21 S6 1.521923 1_555
O21 V1 2.046857 1_555
O22 S3 1.456262 1_565
O23 S6 1.481988 1_555
O24 S1 1.481988 1_555
O25 S0 1.521923 1_555
O25 V3 2.046857 1_545
O26 S4 1.488232 1_555
O26 V3 2.049631 1_455
O27 S7 1.508708 1_556
O27 V2 2.107126 1_555
O28 S4 1.506391 1_555
O28 V3 2.059625 1_555
O29 V0 1.642577 1_555
O30 S2 1.456262 1_555
O31 S5 1.512027 1_555
O31 V1 2.159823 1_555
O32 V2 1.642577 1_565
O33 S3 1.488232 1_555
O33 V2 2.049631 1_555
O34 V3 1.642577 1_545
O35 S7 1.456262 1_555
