# generated using pymatgen
data_Fe(NiS2)2
_symmetry_space_group_name_H-M   'P 1'
_cell_length_a   6.63407865
_cell_length_b   6.63407865
_cell_length_c   6.63407865
_cell_angle_alpha   60.00000000
_cell_angle_beta   60.00000000
_cell_angle_gamma   60.00000000
_symmetry_Int_Tables_number   1
_chemical_formula_structural   Fe(NiS2)2
_chemical_formula_sum   'Fe2 Ni4 S8'
_cell_volume   206.45568681
_cell_formula_units_Z   2
loop_
 _symmetry_equiv_pos_site_id
 _symmetry_equiv_pos_as_xyz
  1  'x, y, z'
loop_
 _atom_site_type_symbol
 _atom_site_label
 _atom_site_symmetry_multiplicity
 _atom_site_fract_x
 _atom_site_fract_y
 _atom_site_fract_z
 _atom_site_occupancy
  Fe  Fe0  1  0.75000000  0.75000000  0.75000000  1
  Fe  Fe1  1  0.50000000  0.50000000  0.50000000  1
  Ni  Ni0  1  0.12500000  0.12500000  0.12500000  1
  Ni  Ni1  1  0.62500000  0.12500000  0.12500000  1
  Ni  Ni2  1  0.12500000  0.62500000  0.12500000  1
  Ni  Ni3  1  0.12500000  0.12500000  0.62500000  1
  S  S0  1  0.88016000  0.88016000  0.88016000  1
  S  S1  1  0.89047900  0.36984000  0.36984000  1
  S  S2  1  0.36984000  0.89047900  0.36984000  1
  S  S3  1  0.36984000  0.36984000  0.89047900  1
  S  S4  1  0.88016000  0.35952100  0.88016000  1
  S  S5  1  0.88016000  0.88016000  0.35952100  1
  S  S6  1  0.35952100  0.88016000  0.88016000  1
  S  S7  1  0.36984000  0.36984000  0.36984000  1
loop_
_geom_bond_atom_site_label_1
_geom_bond_atom_site_label_2
_geom_bond_distance
_geom_bond_site_symmetry_2
Fe0 S6 2.115109 1_555
Fe0 S5 2.115109 1_555
Fe0 S4 2.115109 1_555
Fe0 S0 2.115114 1_555
Fe1 S1 2.115109 1_555
Fe1 S3 2.115109 1_555
Fe1 S2 2.115109 1_555
Fe1 S7 2.115114 1_555
Ni0 S4 2.298110 1_454
Ni0 S6 2.298110 1_544
Ni0 S5 2.298110 1_445
Ni0 S3 2.298110 1_554
Ni0 S2 2.298110 1_545
Ni0 S1 2.298110 1_455
Ni1 S0 2.298110 1_544
Ni1 S7 2.298110 1_555
Ni1 S3 2.298114 1_554
Ni1 S5 2.298114 1_545
Ni1 S2 2.298114 1_545
Ni1 S4 2.298114 1_554
Ni2 S0 2.298110 1_454
Ni2 S7 2.298110 1_555
Ni2 S3 2.298114 1_554
Ni2 S1 2.298114 1_455
Ni2 S5 2.298114 1_455
Ni2 S6 2.298114 1_554
Ni3 S0 2.298110 1_445
Ni3 S7 2.298110 1_555
Ni3 S2 2.298114 1_545
Ni3 S1 2.298114 1_455
Ni3 S4 2.298114 1_455
Ni3 S6 2.298114 1_545
