# generated using pymatgen
data_Dy10Si17
_symmetry_space_group_name_H-M   'P 1'
_cell_length_a   6.68773516
_cell_length_b   8.24629397
_cell_length_c   10.98704658
_cell_angle_alpha   112.04115628
_cell_angle_beta   107.71791064
_cell_angle_gamma   90.00004575
_symmetry_Int_Tables_number   1
_chemical_formula_structural   Dy10Si17
_chemical_formula_sum   'Dy10 Si17'
_cell_volume   530.50559247
_cell_formula_units_Z   1
loop_
 _symmetry_equiv_pos_site_id
 _symmetry_equiv_pos_as_xyz
  1  'x, y, z'
loop_
 _atom_site_type_symbol
 _atom_site_label
 _atom_site_symmetry_multiplicity
 _atom_site_fract_x
 _atom_site_fract_y
 _atom_site_fract_z
 _atom_site_occupancy
  Dy  Dy0  1  0.76107966  0.75512814  0.99986302  1
  Dy  Dy1  1  0.96288201  0.45111677  0.39955471  1
  Dy  Dy2  1  0.36731583  0.84816775  0.20059163  1
  Dy  Dy3  1  0.96287465  0.94844516  0.39955073  1
  Dy  Dy4  1  0.16675261  0.15188325  0.79945392  1
  Dy  Dy5  1  0.36729727  0.35241659  0.20058998  1
  Dy  Dy6  1  0.76109644  0.24474957  -0.00014151  1
  Dy  Dy7  1  0.56323745  0.54882794  0.60036045  1
  Dy  Dy8  1  0.56319020  0.05150622  0.60033009  1
  Dy  Dy9  1  0.16677140  0.64758951  0.79947691  1
  Si  Si0  1  0.66682855  0.71308046  0.42622529  1
  Si  Si1  1  0.58235754  0.19902644  0.39804171  1
  Si  Si2  1  0.08276328  0.00001545  0.00001181  1
  Si  Si3  1  0.29592184  0.69954111  0.39907036  1
  Si  Si4  1  0.18439894  0.80093911  0.60186336  1
  Si  Si5  1  0.50387199  0.89603242  0.79205959  1
  Si  Si6  1  0.86815543  0.41564543  0.83124528  1
  Si  Si7  1  0.71191549  0.10392405  0.20782944  1
  Si  Si8  1  0.89667699  0.30046959  0.60093966  1
  Si  Si9  1  0.03680962  0.58451726  0.16895298  1
  Si  Si10  1  0.43175307  -0.00003316  -0.00000590  1
  Si  Si11  1  0.84163669  0.88162356  0.76331622  1
  Si  Si12  1  0.50050642  0.39955339  0.79920944  1
  Si  Si13  1  0.07870250  0.11845476  0.23687170  1
  Si  Si14  1  0.24041623  0.28701764  0.57393127  1
  Si  Si15  1  0.39505326  0.49995911  0.00001304  1
  Si  Si16  1  0.70123061  0.60039949  0.20079182  1
loop_
_geom_bond_atom_site_label_1
_geom_bond_atom_site_label_2
_geom_bond_distance
_geom_bond_site_symmetry_2
Dy0 Si6 2.949053 1_555
Dy0 Si2 2.949855 1_666
Dy0 Si9 2.950892 1_656
Dy0 Si10 2.987800 1_566
Dy0 Si5 3.020334 1_555
Dy0 Si7 3.021028 1_566
Dy0 Si12 3.050343 1_555
Dy0 Si16 3.051838 1_556
Dy0 Si15 3.228755 1_556
Dy0 Si11 3.319616 1_555
Dy0 Si13 3.323737 1_666
Dy1 Si13 2.912500 1_655
Dy1 Si0 2.924142 1_555
Dy1 Si4 2.939431 1_655
Dy1 Si14 2.954361 1_655
Dy1 Si7 2.961911 1_555
Dy1 Si16 3.006375 1_555
Dy1 Si3 3.028677 1_655
Dy1 Si8 3.048659 1_555
Dy1 Si9 3.275390 1_655
Dy1 Si1 3.278152 1_555
Dy2 Si1 2.921595 1_565
Dy2 Si15 2.938624 1_555
Dy2 Si13 2.941729 1_565
Dy2 Si9 2.949306 1_555
Dy2 Si3 3.020806 1_555
Dy2 Si16 3.026851 1_555
Dy2 Si10 3.042849 1_565
Dy2 Si7 3.086760 1_565
Dy2 Si2 3.092668 1_565
Dy2 Si0 3.232512 1_555
Dy3 Si13 2.912661 1_665
Dy3 Si0 2.924543 1_555
Dy3 Si4 2.939432 1_655
Dy3 Si14 2.954947 1_665
Dy3 Si7 2.961928 1_565
Dy3 Si16 3.006350 1_555
Dy3 Si3 3.028691 1_655
Dy3 Si8 3.048619 1_565
Dy3 Si9 3.275008 1_655
Dy3 Si1 3.278137 1_565
Dy4 Si4 2.922769 1_545
Dy4 Si15 2.937803 1_556
Dy4 Si11 2.943199 1_445
Dy4 Si6 2.948729 1_455
Dy4 Si8 3.021390 1_455
Dy4 Si12 3.026728 1_555
Dy4 Si10 3.043010 1_556
Dy4 Si5 3.086074 1_545
Dy4 Si2 3.092574 1_556
Dy4 Si14 3.231021 1_555
Dy5 Si1 2.921533 1_555
Dy5 Si15 2.938138 1_555
Dy5 Si13 2.941387 1_555
Dy5 Si9 2.949725 1_555
Dy5 Si3 3.020877 1_555
Dy5 Si16 3.027012 1_555
Dy5 Si10 3.043189 1_555
Dy5 Si7 3.086711 1_555
Dy5 Si2 3.092470 1_555
Dy5 Si0 3.232268 1_555
Dy6 Si6 2.949139 1_554
Dy6 Si2 2.949753 1_655
Dy6 Si9 2.951241 1_655
Dy6 Si10 2.988323 1_555
Dy6 Si5 3.020414 1_544
Dy6 Si7 3.021087 1_555
Dy6 Si12 3.049679 1_554
Dy6 Si16 3.051858 1_555
Dy6 Si15 3.228254 1_555
Dy6 Si11 3.319970 1_544
Dy6 Si13 3.323610 1_655
Dy7 Si11 2.913190 1_555
Dy7 Si14 2.924785 1_555
Dy7 Si1 2.939177 1_555
Dy7 Si0 2.954108 1_555
Dy7 Si5 2.962137 1_555
Dy7 Si12 3.006797 1_555
Dy7 Si8 3.027927 1_555
Dy7 Si3 3.047654 1_555
Dy7 Si4 3.277367 1_555
Dy7 Si6 3.277510 1_555
Dy8 Si11 2.913784 1_545
Dy8 Si14 2.925276 1_555
Dy8 Si1 2.939167 1_555
Dy8 Si0 2.954346 1_545
Dy8 Si5 2.962146 1_545
Dy8 Si12 3.006394 1_555
Dy8 Si8 3.028143 1_555
Dy8 Si3 3.047262 1_545
Dy8 Si4 3.277064 1_545
Dy8 Si6 3.278084 1_555
Dy9 Si4 2.922941 1_555
Dy9 Si15 2.938228 1_556
Dy9 Si11 2.942816 1_455
Dy9 Si6 2.948520 1_455
Dy9 Si8 3.021593 1_455
Dy9 Si12 3.027307 1_555
Dy9 Si10 3.042472 1_566
Dy9 Si5 3.086029 1_555
Dy9 Si2 3.092524 1_566
Dy9 Si14 3.230650 1_555
Si0 Si16 2.381302 1_555
Si0 Si3 2.403962 1_555
Si1 Si7 2.367564 1_555
Si1 Si8 2.415827 1_555
Si3 Si9 2.414182 1_555
Si3 Si4 2.415164 1_555
Si4 Si5 2.366258 1_555
Si6 Si8 2.414802 1_555
Si10 Si7 2.320872 1_555
Si10 Si5 2.321120 1_544
Si10 Si2 2.334011 1_555
Si11 Si5 2.371166 1_555
Si11 Si2 2.420439 1_666
Si12 Si6 2.371727 1_555
Si12 Si15 2.372005 1_556
Si12 Si14 2.380893 1_555
Si13 Si7 2.372373 1_455
Si13 Si2 2.421246 1_555
Si14 Si8 2.403230 1_455
Si15 Si16 2.371590 1_555
Si16 Si9 2.370591 1_655
