# generated using pymatgen
data_MnSeO4
_symmetry_space_group_name_H-M   'P 1'
_cell_length_a   5.02713541
_cell_length_b   5.02714172
_cell_length_c   6.78005036
_cell_angle_alpha   90.00011563
_cell_angle_beta   89.99986240
_cell_angle_gamma   112.85729188
_symmetry_Int_Tables_number   1
_chemical_formula_structural   MnSeO4
_chemical_formula_sum   'Mn2 Se2 O8'
_cell_volume   157.89133042
_cell_formula_units_Z   2
loop_
 _symmetry_equiv_pos_site_id
 _symmetry_equiv_pos_as_xyz
  1  'x, y, z'
loop_
 _atom_site_type_symbol
 _atom_site_label
 _atom_site_symmetry_multiplicity
 _atom_site_fract_x
 _atom_site_fract_y
 _atom_site_fract_z
 _atom_site_occupancy
  Mn  Mn0  1  0.00000000  0.00000000  -0.00000000  1
  Mn  Mn1  1  0.00000000  0.00000000  0.50000000  1
  Se  Se0  1  0.64757284  0.35242516  0.24999900  1
  Se  Se1  1  0.35242716  0.64757484  0.75000100  1
  O  O0  1  0.75402929  0.24597071  0.45263377  1
  O  O1  1  0.24597071  0.75402929  0.54736523  1
  O  O2  1  0.22449147  0.28539332  0.75000000  1
  O  O3  1  0.77550853  0.71460668  0.25000000  1
  O  O4  1  0.75402929  0.24597171  0.04736723  1
  O  O5  1  0.24597071  0.75402829  0.95263377  1
  O  O6  1  0.71460568  0.77550853  0.75000000  1
  O  O7  1  0.28539432  0.22449147  0.25000000  1
loop_
_geom_bond_atom_site_label_1
_geom_bond_atom_site_label_2
_geom_bond_distance
_geom_bond_site_symmetry_2
Mn0 O5 2.085425 1_544
Mn0 O4 2.085426 1_455
Mn0 O2 2.224235 1_554
Mn0 O3 2.224235 1_445
Mn0 O7 2.224237 1_555
Mn0 O6 2.224237 1_444
Mn1 O1 2.085422 1_545
Mn1 O0 2.085423 1_455
Mn1 O3 2.224235 1_445
Mn1 O2 2.224235 1_555
Mn1 O7 2.224236 1_555
Mn1 O6 2.224236 1_445
O0 Se0 1.637938 1_555
O1 Se1 1.637944 1_555
O2 Se1 1.678989 1_555
O3 Se0 1.678989 1_555
O4 Se0 1.637915 1_555
O5 Se1 1.637920 1_555
O6 Se1 1.678973 1_555
O7 Se0 1.678973 1_555
