# generated using pymatgen
data_CuH20S2(NO7)2
_symmetry_space_group_name_H-M   'P 1'
_cell_length_a   12.34139000
_cell_length_b   6.46160400
_cell_length_c   9.19760529
_cell_angle_alpha   74.61196846
_cell_angle_beta   90.00000000
_cell_angle_gamma   90.00000000
_symmetry_Int_Tables_number   1
_chemical_formula_structural   CuH20S2(NO7)2
_chemical_formula_sum   'Cu2 H40 S4 N4 O28'
_cell_volume   707.17056264
_cell_formula_units_Z   2
loop_
 _symmetry_equiv_pos_site_id
 _symmetry_equiv_pos_as_xyz
  1  'x, y, z'
loop_
 _atom_site_type_symbol
 _atom_site_label
 _atom_site_symmetry_multiplicity
 _atom_site_fract_x
 _atom_site_fract_y
 _atom_site_fract_z
 _atom_site_occupancy
  Cu  Cu0  1  0.00000000  0.00000000  0.00000000  1
  Cu  Cu1  1  0.50000000  0.00000000  0.50000000  1
  H  H0  1  0.32867100  0.80322000  0.06210800  1
  H  H1  1  0.82867100  0.19678000  0.43789200  1
  H  H2  1  0.67132900  0.19678000  0.93789200  1
  H  H3  1  0.17132900  0.80322000  0.56210800  1
  H  H4  1  0.29342200  0.61488100  0.22159000  1
  H  H5  1  0.79342200  0.38511900  0.27841000  1
  H  H6  1  0.70657800  0.38511900  0.77841000  1
  H  H7  1  0.20657800  0.61488100  0.72159000  1
  H  H8  1  0.32626900  0.54310600  0.06445600  1
  H  H9  1  0.82626900  0.45689400  0.43554400  1
  H  H10  1  0.67373100  0.45689400  0.93554400  1
  H  H11  1  0.17373100  0.54310600  0.56445600  1
  H  H12  1  0.42481000  0.63710300  0.16146700  1
  H  H13  1  0.92481000  0.36289700  0.33853300  1
  H  H14  1  0.57519000  0.36289700  0.83853300  1
  H  H15  1  0.07519000  0.63710300  0.66146700  1
  H  H16  1  0.09513700  0.66431100  0.22942700  1
  H  H17  1  0.59513700  0.33568900  0.27057300  1
  H  H18  1  0.90486300  0.33568900  0.77057300  1
  H  H19  1  0.40486300  0.66431100  0.72942700  1
  H  H20  1  0.13095200  0.88049400  0.26726900  1
  H  H21  1  0.63095200  0.11950600  0.23273100  1
  H  H22  1  0.86904800  0.11950600  0.73273100  1
  H  H23  1  0.36904800  0.88049400  0.76726900  1
  H  H24  1  0.09379000  0.06857300  0.73467000  1
  H  H25  1  0.59379000  0.93142700  0.76533000  1
  H  H26  1  0.90621000  0.93142700  0.26533000  1
  H  H27  1  0.40621000  0.06857300  0.23467000  1
  H  H28  1  0.18375900  0.00585600  0.86343900  1
  H  H29  1  0.68375900  0.99414400  0.63656100  1
  H  H30  1  0.81624100  0.99414400  0.13656100  1
  H  H31  1  0.31624100  0.00585600  0.36343900  1
  H  H32  1  0.93957600  0.69695000  0.88767400  1
  H  H33  1  0.43957600  0.30305000  0.61232600  1
  H  H34  1  0.06042400  0.30305000  0.11232600  1
  H  H35  1  0.56042400  0.69695000  0.38767400  1
  H  H36  1  0.85823200  0.69407400  0.02218400  1
  H  H37  1  0.35823200  0.30592600  0.47781600  1
  H  H38  1  0.14176800  0.30592600  0.97781600  1
  H  H39  1  0.64176800  0.69407400  0.52218400  1
  S  S0  1  0.13815700  0.25255900  0.41612000  1
  S  S1  1  0.63815700  0.74744100  0.08388000  1
  S  S2  1  0.86184300  0.74744100  0.58388000  1
  S  S3  1  0.36184300  0.25255900  0.91612000  1
  N  N0  1  0.34364700  0.64895900  0.12863100  1
  N  N1  1  0.84364700  0.35104100  0.37136900  1
  N  N2  1  0.65635300  0.35104100  0.87136900  1
  N  N3  1  0.15635300  0.64895900  0.62863100  1
  O  O0  1  0.23183000  0.39932800  0.42061100  1
  O  O1  1  0.73183000  0.60067200  0.07938900  1
  O  O2  1  0.76817000  0.60067200  0.57938900  1
  O  O3  1  0.26817000  0.39932800  0.92061100  1
  O  O4  1  0.07436800  0.21560600  0.55664800  1
  O  O5  1  0.57436800  0.78439400  0.94335200  1
  O  O6  1  0.92563200  0.78439400  0.44335200  1
  O  O7  1  0.42563200  0.21560600  0.05664800  1
  O  O8  1  0.06706500  0.35981400  0.28516200  1
  O  O9  1  0.56706500  0.64018600  0.21483800  1
  O  O10  1  0.93293500  0.64018600  0.71483800  1
  O  O11  1  0.43293500  0.35981400  0.78516200  1
  O  O12  1  0.18102400  0.04496800  0.39504100  1
  O  O13  1  0.68102400  0.95503200  0.10495900  1
  O  O14  1  0.81897600  0.95503200  0.60495900  1
  O  O15  1  0.31897600  0.04496800  0.89504100  1
  O  O16  1  0.12407800  0.80942900  0.18540700  1
  O  O17  1  0.62407800  0.19057100  0.31459300  1
  O  O18  1  0.87592200  0.19057100  0.81459300  1
  O  O19  1  0.37592200  0.80942900  0.68540700  1
  O  O20  1  0.10790800  0.97450600  0.83843600  1
  O  O21  1  0.60790800  0.02549400  0.66156400  1
  O  O22  1  0.89209200  0.02549400  0.16156400  1
  O  O23  1  0.39209200  0.97450600  0.33843600  1
  O  O24  1  0.93526700  0.72264800  0.98971800  1
  O  O25  1  0.43526700  0.27735200  0.51028200  1
  O  O26  1  0.06473300  0.27735200  0.01028200  1
  O  O27  1  0.56473300  0.72264800  0.48971800  1
loop_
_geom_bond_atom_site_label_1
_geom_bond_atom_site_label_2
_geom_bond_distance
_geom_bond_site_symmetry_2
Cu0 O26 1.987180 1_555
Cu0 O24 1.987180 1_444
Cu0 O22 2.034397 1_455
Cu0 O20 2.034397 1_544
Cu0 O18 2.377985 1_454
Cu0 O16 2.377985 1_545
Cu1 O25 1.987180 1_555
Cu1 O27 1.987180 1_545
Cu1 O23 2.034397 1_545
Cu1 O21 2.034397 1_555
Cu1 O17 2.377985 1_555
Cu1 O19 2.377985 1_545
H0 N0 1.038467 1_555
H1 N1 1.038467 1_555
H2 N2 1.038467 1_555
H3 N3 1.038467 1_555
H4 N0 1.031410 1_555
H5 N1 1.031410 1_555
H6 N2 1.031410 1_555
H7 N3 1.031410 1_555
H8 N0 1.037539 1_555
H9 N1 1.037539 1_555
H10 N2 1.037539 1_555
H11 N3 1.037539 1_555
H12 N0 1.043136 1_555
H13 N1 1.043136 1_555
H14 N2 1.043136 1_555
H15 N3 1.043136 1_555
H16 O16 0.984523 1_555
H17 O17 0.984523 1_555
H18 O18 0.984523 1_555
H19 O19 0.984523 1_555
H20 O16 0.984101 1_555
H21 O17 0.984101 1_555
H22 O18 0.984101 1_555
H23 O19 0.984101 1_555
H24 O20 1.001407 1_545
H24 O4 1.677946 1_555
H25 O21 1.001407 1_565
H25 O5 1.677946 1_555
H26 O22 1.001407 1_565
H26 O6 1.677946 1_555
H27 O23 1.001407 1_545
H27 O7 1.677946 1_555
H28 O20 0.997466 1_545
H28 O15 1.723984 1_555
H29 O21 0.997466 1_565
H29 O14 1.723984 1_555
H30 O22 0.997466 1_565
H30 O13 1.723984 1_555
H31 O23 0.997466 1_545
H31 O12 1.723984 1_555
H32 O24 0.996999 1_555
H33 O25 0.996999 1_555
H34 O26 0.996999 1_555
H35 O27 0.996999 1_555
H36 O24 0.998931 1_554
H36 O1 1.704723 1_555
H37 O25 0.998931 1_555
H37 O0 1.704723 1_555
H38 O26 0.998931 1_556
H38 O3 1.704723 1_555
H39 O27 0.998931 1_555
H39 O2 1.704723 1_555
O0 S0 1.502781 1_555
O1 S1 1.502781 1_555
O2 S2 1.502781 1_555
O3 S3 1.502781 1_555
O4 S0 1.477698 1_555
O5 S1 1.477698 1_556
O6 S2 1.477698 1_555
O7 S3 1.477698 1_554
O8 S0 1.502628 1_555
O9 S1 1.502628 1_555
O10 S2 1.502628 1_555
O11 S3 1.502628 1_555
O12 S0 1.501586 1_555
O13 S1 1.501586 1_555
O14 S2 1.501586 1_555
O15 S3 1.501586 1_555
