# generated using pymatgen
data_Ho2(GePt3)3
_symmetry_space_group_name_H-M   'P 1'
_cell_length_a   7.82122997
_cell_length_b   7.82122997
_cell_length_c   10.11898472
_cell_angle_alpha   67.01185239
_cell_angle_beta   67.01185239
_cell_angle_gamma   60.11610806
_symmetry_Int_Tables_number   1
_chemical_formula_structural   Ho2(GePt3)3
_chemical_formula_sum   'Ho4 Ge6 Pt18'
_cell_volume   478.94974533
_cell_formula_units_Z   2
loop_
 _symmetry_equiv_pos_site_id
 _symmetry_equiv_pos_as_xyz
  1  'x, y, z'
loop_
 _atom_site_type_symbol
 _atom_site_label
 _atom_site_symmetry_multiplicity
 _atom_site_fract_x
 _atom_site_fract_y
 _atom_site_fract_z
 _atom_site_occupancy
  Ho  Ho0  1  0.41595100  0.24559800  0.75092500  1
  Ho  Ho1  1  0.58404900  0.75440200  0.24907500  1
  Ho  Ho2  1  0.75440200  0.58404900  0.74907500  1
  Ho  Ho3  1  0.24559800  0.41595100  0.25092500  1
  Ge  Ge0  1  0.64048700  0.18101800  0.99762100  1
  Ge  Ge1  1  0.81898200  0.35951300  0.50237900  1
  Ge  Ge2  1  0.35951300  0.81898200  0.00237900  1
  Ge  Ge3  1  0.00000000  0.50000000  0.00000000  1
  Ge  Ge4  1  0.18101800  0.64048700  0.49762100  1
  Ge  Ge5  1  0.50000000  0.00000000  0.50000000  1
  Pt  Pt0  1  0.47765700  0.64005400  0.57758100  1
  Pt  Pt1  1  0.35994600  0.52234300  0.92241900  1
  Pt  Pt2  1  0.85951200  0.69381100  0.42026600  1
  Pt  Pt3  1  0.86633800  0.13366200  0.75000000  1
  Pt  Pt4  1  0.52234300  0.35994600  0.42241900  1
  Pt  Pt5  1  0.69381100  0.85951200  0.92026600  1
  Pt  Pt6  1  0.91378900  0.29805300  0.25681800  1
  Pt  Pt7  1  0.97596300  0.79764600  0.07764100  1
  Pt  Pt8  1  0.29805300  0.91378900  0.75681800  1
  Pt  Pt9  1  0.14048800  0.30618900  0.57973400  1
  Pt  Pt10  1  0.79764600  0.97596300  0.57764100  1
  Pt  Pt11  1  0.30618900  0.14048800  0.07973400  1
  Pt  Pt12  1  0.13366200  0.86633800  0.25000000  1
  Pt  Pt13  1  0.02403700  0.20235400  0.92235900  1
  Pt  Pt14  1  0.08621100  0.70194700  0.74318200  1
  Pt  Pt15  1  0.64005400  0.47765700  0.07758100  1
  Pt  Pt16  1  0.20235400  0.02403700  0.42235900  1
  Pt  Pt17  1  0.70194700  0.08621100  0.24318200  1
loop_
_geom_bond_atom_site_label_1
_geom_bond_atom_site_label_2
_geom_bond_distance
_geom_bond_site_symmetry_2
Ho0 Pt4 2.966677 1_555
Ho0 Pt11 2.969669 1_556
Ho0 Pt13 2.990142 1_555
Ho0 Pt10 2.993358 1_545
Ho0 Pt5 3.017493 1_545
Ho0 Pt9 3.020521 1_555
Ho0 Pt1 3.046906 1_555
Ho0 Pt0 3.069747 1_555
Ho0 Pt8 3.132004 1_545
Ho0 Pt3 3.175320 1_555
Ho0 Pt14 3.187998 1_555
Ho1 Pt0 2.966677 1_555
Ho1 Pt5 2.969669 1_554
Ho1 Pt7 2.990142 1_555
Ho1 Pt16 2.993358 1_565
Ho1 Pt11 3.017493 1_565
Ho1 Pt2 3.020521 1_555
Ho1 Pt15 3.046906 1_555
Ho1 Pt4 3.069747 1_555
Ho1 Pt17 3.132004 1_565
Ho1 Pt12 3.175320 1_555
Ho1 Pt6 3.187998 1_555
Ho2 Pt15 2.966677 1_556
Ho2 Pt2 2.969669 1_555
Ho2 Pt10 2.990142 1_555
Ho2 Pt13 2.993358 1_655
Ho2 Pt9 3.017493 1_655
Ho2 Pt5 3.020521 1_555
Ho2 Pt0 3.046906 1_555
Ho2 Pt1 3.069747 1_555
Ho2 Pt14 3.132004 1_655
Ho2 Pt3 3.175320 1_555
Ho2 Pt8 3.187998 1_555
Ho3 Pt1 2.966677 1_554
Ho3 Pt9 2.969669 1_555
Ho3 Pt16 2.990142 1_555
Ho3 Pt7 2.993358 1_455
Ho3 Pt2 3.017493 1_455
Ho3 Pt11 3.020521 1_555
Ho3 Pt4 3.046906 1_555
Ho3 Pt15 3.069747 1_555
Ho3 Pt6 3.132004 1_455
Ho3 Pt12 3.175320 1_555
Ho3 Pt17 3.187998 1_555
Ge0 Pt17 2.468579 1_556
Ge0 Pt3 2.480252 1_555
Ge0 Pt1 2.529943 1_555
Ge0 Pt11 2.559378 1_556
Ge0 Pt5 2.710550 1_545
Ge0 Pt15 2.737470 1_556
Ge0 Pt13 2.867395 1_655
Ge0 Pt7 2.907593 1_546
Ge1 Pt6 2.468579 1_555
Ge1 Pt3 2.480252 1_555
Ge1 Pt0 2.529943 1_555
Ge1 Pt2 2.559378 1_555
Ge1 Pt9 2.710550 1_655
Ge1 Pt4 2.737470 1_555
Ge1 Pt10 2.867395 1_545
Ge1 Pt16 2.907593 1_655
Ge2 Pt8 2.468579 1_554
Ge2 Pt12 2.480252 1_555
Ge2 Pt15 2.529943 1_555
Ge2 Pt5 2.559378 1_554
Ge2 Pt11 2.710550 1_565
Ge2 Pt1 2.737470 1_554
Ge2 Pt7 2.867395 1_455
Ge2 Pt13 2.907593 1_564
Ge3 Pt14 2.487843 1_554
Ge3 Pt6 2.487843 1_455
Ge3 Pt7 2.636106 1_455
Ge3 Pt13 2.636106 1_554
Ge3 Pt15 2.688704 1_455
Ge3 Pt1 2.688704 1_554
Ge3 Pt5 2.705442 1_454
Ge3 Pt11 2.705442 1_555
Ge4 Pt14 2.468579 1_555
Ge4 Pt12 2.480252 1_555
Ge4 Pt4 2.529943 1_555
Ge4 Pt9 2.559378 1_555
Ge4 Pt2 2.710550 1_455
Ge4 Pt0 2.737470 1_555
Ge4 Pt16 2.867395 1_565
Ge4 Pt10 2.907593 1_455
Ge5 Pt8 2.487843 1_545
Ge5 Pt17 2.487843 1_555
Ge5 Pt10 2.636106 1_545
Ge5 Pt16 2.636106 1_555
Ge5 Pt4 2.688704 1_555
Ge5 Pt0 2.688704 1_545
Ge5 Pt2 2.705442 1_545
Ge5 Pt9 2.705442 1_555
