# generated using pymatgen
data_KBi(PSe3)2
_symmetry_space_group_name_H-M   'P 1'
_cell_length_a   7.01080505
_cell_length_b   7.82686540
_cell_length_c   10.24256850
_cell_angle_alpha   90.00000000
_cell_angle_beta   91.51413493
_cell_angle_gamma   90.00000000
_symmetry_Int_Tables_number   1
_chemical_formula_structural   KBi(PSe3)2
_chemical_formula_sum   'K2 Bi2 P4 Se12'
_cell_volume   561.84040265
_cell_formula_units_Z   2
loop_
 _symmetry_equiv_pos_site_id
 _symmetry_equiv_pos_as_xyz
  1  'x, y, z'
loop_
 _atom_site_type_symbol
 _atom_site_label
 _atom_site_symmetry_multiplicity
 _atom_site_fract_x
 _atom_site_fract_y
 _atom_site_fract_z
 _atom_site_occupancy
  K  K0  1  0.69846853  0.95993026  0.50021630  1
  K  K1  1  0.30153147  0.45992926  0.49978370  1
  Bi  Bi0  1  0.79752975  0.70413480  0.98472981  1
  Bi  Bi1  1  0.20247025  0.20413480  0.01527019  1
  P  P0  1  0.69253333  0.25475100  0.82411572  1
  P  P1  1  0.30746667  0.75475100  0.17588428  1
  P  P2  1  0.20347994  0.96955107  0.30061590  1
  P  P3  1  0.79652006  0.46955107  0.69938410  1
  Se  Se0  1  0.65089851  0.37160730  0.02021058  1
  Se  Se1  1  0.17119153  0.88046081  0.49480111  1
  Se  Se2  1  0.92051273  0.06024729  0.82381594  1
  Se  Se3  1  0.41531912  0.16973470  0.27202431  1
  Se  Se4  1  0.57346563  0.66010358  0.26040175  1
  Se  Se5  1  0.58468088  0.66973470  0.72797569  1
  Se  Se6  1  0.05703446  0.55598018  0.80832375  1
  Se  Se7  1  0.94296554  0.05598018  0.19167625  1
  Se  Se8  1  0.82880847  0.38046081  0.50519889  1
  Se  Se9  1  0.34910149  0.87160730  0.97978942  1
  Se  Se10  1  0.07948727  0.56024829  0.17618506  1
  Se  Se11  1  0.42653437  0.16010358  0.73959825  1
loop_
_geom_bond_atom_site_label_1
_geom_bond_atom_site_label_2
_geom_bond_distance
_geom_bond_site_symmetry_2
K0 Se5 3.366867 1_555
K0 Se1 3.373927 1_655
K0 Se8 3.415948 1_565
K0 Se3 3.443082 1_565
K0 Se4 3.492102 1_555
K0 Se11 3.513983 1_565
K0 Se2 3.708505 1_565
K0 Se7 3.711708 1_565
K0 Se1 3.747565 1_555
K1 Se3 3.366862 1_555
K1 Se8 3.373926 1_455
K1 Se1 3.415955 1_555
K1 Se5 3.443086 1_555
K1 Se11 3.492096 1_555
K1 Se4 3.513986 1_555
K1 Se10 3.708499 1_555
K1 Se6 3.711710 1_555
K1 Se8 3.747563 1_555
Bi0 Se0 2.825311 1_556
Bi0 Se6 2.844831 1_655
Bi0 Se10 2.969252 1_656
Bi0 Se5 3.001308 1_555
Bi0 Se4 3.285340 1_556
Bi0 Se2 3.362098 1_565
Bi0 Se9 3.405299 1_555
Bi1 Se9 2.825311 1_544
Bi1 Se7 2.844831 1_455
Bi1 Se2 2.969249 1_454
Bi1 Se3 3.001308 1_555
Bi1 Se11 3.285340 1_554
Bi1 Se10 3.362110 1_555
Bi1 Se0 3.405299 1_555
P0 Se11 2.165775 1_555
P0 Se2 2.207364 1_555
P0 Se0 2.233124 1_556
P0 P3 2.244854 1_555
P1 Se4 2.165775 1_555
P1 Se10 2.207359 1_555
P1 Se9 2.233124 1_554
P1 P2 2.244854 1_555
P2 Se1 2.125371 1_555
P2 Se3 2.183884 1_565
P2 Se7 2.220532 1_465
P3 Se8 2.125371 1_555
P3 Se5 2.183884 1_555
P3 Se6 2.220532 1_655
