# generated using pymatgen
data_K13Na2W7N19
_symmetry_space_group_name_H-M   'P 1'
_cell_length_a   6.80307100
_cell_length_b   12.62373190
_cell_length_c   19.45111042
_cell_angle_alpha   90.59144093
_cell_angle_beta   93.97527085
_cell_angle_gamma   99.81106328
_symmetry_Int_Tables_number   1
_chemical_formula_structural   K13Na2W7N19
_chemical_formula_sum   'K26 Na4 W14 N38'
_cell_volume   1641.65702955
_cell_formula_units_Z   2
loop_
 _symmetry_equiv_pos_site_id
 _symmetry_equiv_pos_as_xyz
  1  'x, y, z'
loop_
 _atom_site_type_symbol
 _atom_site_label
 _atom_site_symmetry_multiplicity
 _atom_site_fract_x
 _atom_site_fract_y
 _atom_site_fract_z
 _atom_site_occupancy
  K  K0  1  0.92418800  0.02760000  0.39027300  1
  K  K1  1  0.87517400  0.90959900  0.89690700  1
  K  K2  1  0.09208400  0.33013200  0.20532800  1
  K  K3  1  0.97253900  0.34663100  0.01617600  1
  K  K4  1  0.12482600  0.09040100  0.10309300  1
  K  K5  1  0.60618400  0.89815300  0.52998200  1
  K  K6  1  0.25329000  0.74118600  0.61662500  1
  K  K7  1  0.72041300  0.08284400  0.00066900  1
  K  K8  1  0.74671000  0.25881400  0.38337500  1
  K  K9  1  0.76655900  0.76505200  0.27893600  1
  K  K10  1  0.07581200  0.97240000  0.60972700  1
  K  K11  1  0.72356600  0.01606800  0.19826000  1
  K  K12  1  0.90791600  0.66986800  0.79467200  1
  K  K13  1  0.58377200  0.46758300  0.28122300  1
  K  K14  1  0.15640500  0.82891500  0.17142000  1
  K  K15  1  0.84359500  0.17108500  0.82858000  1
  K  K16  1  0.38120600  0.86511000  0.35033900  1
  K  K17  1  0.02746100  0.65336900  0.98382400  1
  K  K18  1  0.27643400  0.98393200  0.80174000  1
  K  K19  1  0.61879400  0.13489000  0.64966100  1
  K  K20  1  0.39381600  0.10184700  0.47001800  1
  K  K21  1  0.41622800  0.53241700  0.71877700  1
  K  K22  1  0.23344100  0.23494800  0.72106400  1
  K  K23  1  0.49134900  0.37796000  0.55949900  1
  K  K24  1  0.50865100  0.62204000  0.44050100  1
  K  K25  1  0.27958700  0.91715600  0.99933100  1
  Na  Na0  1  0.60645100  0.36548100  0.85024600  1
  Na  Na1  1  0.39354900  0.63451900  0.14975400  1
  Na  Na2  1  0.00000000  0.50000000  0.50000000  1
  Na  Na3  1  0.50000000  0.50000000  0.00000000  1
  W  W0  1  0.75132000  0.65439500  0.60775400  1
  W  W1  1  0.41481900  0.73901100  0.87447500  1
  W  W2  1  0.67916600  0.78654000  0.05517600  1
  W  W3  1  0.86038900  0.54693900  0.13861900  1
  W  W4  1  0.24868000  0.34560500  0.39224600  1
  W  W5  1  0.13879900  0.59401300  0.30491300  1
  W  W6  1  0.13961100  0.45306100  0.86138100  1
  W  W7  1  0.33393500  0.11971800  0.27815300  1
  W  W8  1  0.58518100  0.26098900  0.12552500  1
  W  W9  1  0.32083400  0.21346000  0.94482400  1
  W  W10  1  0.66606500  0.88028200  0.72184700  1
  W  W11  1  0.00886400  0.23524200  0.54894100  1
  W  W12  1  0.86120100  0.40598700  0.69508700  1
  W  W13  1  0.99113600  0.76475800  0.45105900  1
  N  N0  1  0.13775500  0.00534900  0.25333200  1
  N  N1  1  0.91214100  0.88271800  0.05687500  1
  N  N2  1  0.37663800  0.65268600  0.27431900  1
  N  N3  1  0.80813000  0.12453500  0.52016900  1
  N  N4  1  0.50706600  0.39650100  0.41852600  1
  N  N5  1  0.42518100  0.20039200  0.19663400  1
  N  N6  1  0.91554100  0.47038400  0.90134200  1
  N  N7  1  0.54312000  0.07021600  0.32248000  1
  N  N8  1  0.49293400  0.60349900  0.58147400  1
  N  N9  1  0.84929900  0.54968900  0.66694900  1
  N  N10  1  0.49480800  0.16389000  0.88984300  1
  N  N11  1  0.06742100  0.40318100  0.76850600  1
  N  N12  1  0.77664800  0.81855200  0.41428900  1
  N  N13  1  0.08445900  0.52961600  0.09865800  1
  N  N14  1  0.56517800  0.77011000  0.96031600  1
  N  N15  1  0.45688000  0.92978400  0.67752000  1
  N  N16  1  0.80131700  0.19730600  0.12197200  1
  N  N17  1  0.86224500  0.99465100  0.74666800  1
  N  N18  1  0.19868300  0.80269400  0.87802800  1
  N  N19  1  0.22335200  0.18144800  0.58571100  1
  N  N20  1  0.57481900  0.79960800  0.80336500  1
  N  N21  1  0.22537600  0.21461300  0.34231400  1
  N  N22  1  0.19187000  0.87546500  0.47983100  1
  N  N23  1  0.50519200  0.83611000  0.11015700  1
  N  N24  1  0.09768400  0.32751100  0.47222400  1
  N  N25  1  0.43482200  0.22989000  0.03968400  1
  N  N26  1  0.93257900  0.59681900  0.23149400  1
  N  N27  1  0.27579100  0.35600300  0.91239500  1
  N  N28  1  0.08100800  0.67965300  0.37792400  1
  N  N29  1  0.67847500  0.41353700  0.13970900  1
  N  N30  1  0.72420900  0.64399700  0.08760500  1
  N  N31  1  0.62336200  0.34731400  0.72568100  1
  N  N32  1  0.08785900  0.11728200  0.94312500  1
  N  N33  1  0.32152500  0.58646300  0.86029100  1
  N  N34  1  0.77462400  0.78538700  0.65768600  1
  N  N35  1  0.90231600  0.67248900  0.52777600  1
  N  N36  1  0.15070100  0.45031100  0.33305100  1
  N  N37  1  0.91899200  0.32034700  0.62207600  1
loop_
_geom_bond_atom_site_label_1
_geom_bond_atom_site_label_2
_geom_bond_distance
_geom_bond_site_symmetry_2
K0 N12 2.716169 1_545
K0 N7 2.960561 1_555
K0 N3 3.007763 1_555
K0 N21 3.050240 1_655
K0 N0 3.153591 1_655
K0 N22 3.295500 1_645
K1 N20 2.806985 1_555
K1 N18 2.813169 1_655
K1 N14 2.865198 1_555
K1 N32 2.872877 1_665
K1 N17 3.124381 1_555
K1 N1 3.130904 1_556
K2 N16 2.778864 1_455
K2 N36 2.865537 1_555
K2 N5 3.026282 1_555
K2 N21 3.200695 1_555
K2 N13 3.284304 1_555
K2 N29 3.345839 1_455
K3 N13 2.764838 1_655
K3 N6 2.781814 1_554
K3 N16 2.968010 1_555
K3 N27 2.973936 1_654
K4 N5 2.806974 1_555
K4 N16 2.813169 1_455
K4 N25 2.865198 1_555
K4 N1 2.872877 1_445
K4 N0 3.124381 1_555
K4 N32 3.130904 1_554
K5 N12 2.851491 1_555
K5 N22 2.883756 1_555
K5 N3 2.966551 1_565
K5 N34 3.121535 1_555
K5 N15 3.153647 1_555
K6 N8 2.691138 1_555
K6 N15 2.753197 1_555
K6 N35 2.851514 1_455
K6 N22 3.210630 1_555
K7 N16 2.726984 1_555
K7 N32 2.778174 1_654
K7 N10 2.858549 1_554
K7 N25 3.033306 1_555
K7 N1 3.203314 1_545
K8 N4 2.691138 1_555
K8 N7 2.753197 1_555
K8 N24 2.851514 1_655
K8 N3 3.210630 1_555
K9 N12 2.704576 1_555
K9 N26 2.749352 1_555
K9 N2 2.781861 1_555
K9 N28 3.115033 1_655
K10 N19 2.716169 1_565
K10 N15 2.960561 1_555
K10 N22 3.007763 1_555
K10 N34 3.050240 1_455
K10 N17 3.153591 1_455
K10 N3 3.295500 1_465
K11 N16 2.735448 1_555
K11 N7 2.911262 1_555
K11 N23 2.953149 1_545
K11 N0 2.969846 1_655
K11 N5 3.337399 1_555
K12 N18 2.778864 1_655
K12 N9 2.865537 1_555
K12 N20 3.026280 1_555
K12 N34 3.200695 1_555
K12 N6 3.284304 1_555
K12 N33 3.345839 1_655
K13 N26 2.873961 1_555
K13 N4 2.879799 1_555
K13 N2 2.926817 1_555
K13 N29 2.968892 1_555
K13 N36 3.153003 1_555
K14 N23 2.716497 1_555
K14 N0 2.750705 1_565
K14 N1 2.844178 1_455
K14 N26 3.326468 1_455
K15 N10 2.716497 1_555
K15 N17 2.750705 1_545
K15 N32 2.844178 1_655
K15 N11 3.326468 1_655
K16 N7 2.711217 1_565
K16 N28 2.913451 1_555
K16 N22 2.919039 1_555
K16 N12 3.036440 1_555
K16 N2 3.043304 1_555
K16 N0 3.173708 1_565
K17 N6 2.764838 1_455
K17 N13 2.781814 1_556
K17 N18 2.968010 1_555
K17 N30 2.973936 1_456
K18 N18 2.735448 1_555
K18 N15 2.911262 1_555
K18 N10 2.953149 1_565
K18 N17 2.969846 1_455
K18 N20 3.337400 1_555
K19 N15 2.711217 1_545
K19 N37 2.913451 1_555
K19 N3 2.919039 1_555
K19 N19 3.036440 1_555
K19 N31 3.043304 1_555
K19 N17 3.173708 1_545
K20 N19 2.851491 1_555
K20 N3 2.883756 1_555
K20 N22 2.966551 1_545
K20 N21 3.121535 1_555
K20 N7 3.153647 1_555
K21 N11 2.873961 1_555
K21 N8 2.879799 1_555
K21 N31 2.926817 1_555
K21 N33 2.968892 1_555
K21 N9 3.153003 1_555
K22 N19 2.704576 1_555
K22 N11 2.749352 1_555
K22 N31 2.781861 1_555
K22 N37 3.115033 1_455
K23 N4 2.762354 1_555
K23 N8 2.872773 1_555
K23 N19 2.889909 1_555
K23 N24 3.037409 1_555
K23 N37 3.274574 1_555
K23 N31 3.338641 1_555
K24 N8 2.762354 1_555
K24 N4 2.872773 1_555
K24 N12 2.889909 1_555
K24 N35 3.037409 1_555
K24 N28 3.274574 1_555
K24 N2 3.338641 1_555
K25 N18 2.726984 1_555
K25 N1 2.778174 1_456
K25 N23 2.858549 1_556
K25 N14 3.033306 1_555
K25 N32 3.203314 1_565
N0 W7 1.827118 1_555
N1 W2 1.823005 1_555
N2 W5 1.804146 1_555
N2 Na1 2.443886 1_555
N3 W11 1.832668 1_655
N4 W4 1.802156 1_555
N5 W8 1.905230 1_555
N5 W7 1.972585 1_555
N6 W6 1.802792 1_655
N6 Na0 2.428403 1_555
N7 W7 1.817467 1_555
N8 W0 1.802156 1_555
N9 W12 1.913457 1_555
N9 W0 1.934531 1_555
N10 W9 1.830348 1_555
N10 Na0 2.666291 1_555
N11 W6 1.910318 1_555
N11 W12 1.936252 1_455
N12 W13 1.817941 1_555
N13 W3 1.802792 1_455
N13 Na1 2.428403 1_555
N14 W1 1.897673 1_555
N14 W2 1.946222 1_556
N15 W10 1.817467 1_555
N16 W8 1.796912 1_555
N17 W10 1.827118 1_555
N18 W1 1.796912 1_555
N19 W11 1.817941 1_555
N20 W1 1.905245 1_555
N20 W10 1.972568 1_555
N21 W4 1.886530 1_555
N21 W7 1.984041 1_555
N22 W13 1.832668 1_455
N23 W2 1.830348 1_555
N23 Na1 2.666291 1_555
N24 W4 1.917397 1_555
N24 W11 1.967136 1_555
N24 Na2 2.448158 1_555
N25 W8 1.897673 1_555
N25 W9 1.946222 1_554
N26 W3 1.910318 1_555
N26 W5 1.936252 1_655
N27 W6 1.904887 1_555
N27 W9 1.978449 1_555
N27 Na0 2.612325 1_555
N27 Na3 2.676809 1_556
N28 W5 1.879022 1_555
N28 W13 1.965858 1_455
N29 W3 1.913664 1_555
N29 W8 1.932764 1_555
N30 W3 1.904887 1_555
N30 W2 1.978449 1_555
N30 Na1 2.612325 1_555
N30 Na3 2.676809 1_555
N31 W12 1.804146 1_555
N31 Na0 2.443886 1_555
N32 W9 1.823005 1_555
N33 W6 1.913664 1_555
N33 W1 1.932764 1_555
N34 W0 1.886530 1_555
N34 W10 1.984041 1_555
N35 W0 1.917397 1_555
N35 W13 1.967136 1_555
N35 Na2 2.448158 1_655
N36 W5 1.913457 1_555
N36 W4 1.934531 1_555
N37 W12 1.879022 1_555
N37 W11 1.965858 1_655
