# generated using pymatgen
data_SmCo9Si4
_symmetry_space_group_name_H-M   'P 1'
_cell_length_a   7.92549625
_cell_length_b   7.92551537
_cell_length_c   7.92751984
_cell_angle_alpha   122.11036131
_cell_angle_beta   122.11015966
_cell_angle_gamma   86.39273828
_symmetry_Int_Tables_number   1
_chemical_formula_structural   SmCo9Si4
_chemical_formula_sum   'Sm2 Co18 Si8'
_cell_volume   340.10965873
_cell_formula_units_Z   2
loop_
 _symmetry_equiv_pos_site_id
 _symmetry_equiv_pos_as_xyz
  1  'x, y, z'
loop_
 _atom_site_type_symbol
 _atom_site_label
 _atom_site_symmetry_multiplicity
 _atom_site_fract_x
 _atom_site_fract_y
 _atom_site_fract_z
 _atom_site_occupancy
  Sm  Sm0  1  0.25002571  0.24999679  0.99999430  1
  Sm  Sm1  1  0.74996999  0.74999565  -0.00000326  1
  Co  Co0  1  0.05156515  0.55156251  0.24276605  1
  Co  Co1  1  0.69097805  0.19097943  0.24247376  1
  Co  Co2  1  -0.00000560  0.49999291  0.49999881  1
  Co  Co3  1  0.93201649  0.19628861  0.12832174  1
  Co  Co4  1  0.80369747  0.93201729  0.73568382  1
  Co  Co5  1  0.44846624  0.69112549  0.49999288  1
  Co  Co6  1  0.06798807  0.80370860  0.87168567  1
  Co  Co7  1  0.80888178  0.05154617  0.50001445  1
  Co  Co8  1  0.55154475  0.30888194  0.50001515  1
  Co  Co9  1  0.94843270  0.44843519  0.75722870  1
  Co  Co10  1  0.19112394  0.94846644  0.49999172  1
  Co  Co11  1  0.30370387  0.56798528  0.87168131  1
  Co  Co12  1  0.56797891  0.69630344  0.26430738  1
  Co  Co13  1  0.43201422  0.30369969  0.73568276  1
  Co  Co14  1  0.19630406  0.06798040  0.26430894  1
  Co  Co15  1  0.69629379  0.43201236  0.12832146  1
  Co  Co16  1  0.50000360  0.00000605  0.50000271  1
  Co  Co17  1  0.30902098  0.80902189  0.75753889  1
  Si  Si0  1  0.04308195  0.20812511  0.49994850  1
  Si  Si1  1  0.20814280  0.70814727  0.16504199  1
  Si  Si2  1  0.79185881  0.29185648  0.83495606  1
  Si  Si3  1  0.45689102  0.95689489  0.16510469  1
  Si  Si4  1  0.54311226  0.04310873  0.83489819  1
  Si  Si5  1  0.95691336  0.79186957  0.50004711  1
  Si  Si6  1  0.29186542  0.45690788  0.50003740  1
  Si  Si7  1  0.70813024  0.54308493  0.49995879  1
loop_
_geom_bond_atom_site_label_1
_geom_bond_atom_site_label_2
_geom_bond_distance
_geom_bond_site_symmetry_2
Co0 Si1 2.297677 1_555
Co0 Si2 2.304271 1_454
Co0 Si6 2.380543 1_555
Co0 Si5 2.380584 1_455
Co0 Co2 2.507121 1_555
Co0 Co15 2.520936 1_455
Co0 Co3 2.520957 1_455
Co0 Co5 2.549010 1_555
Co0 Co10 2.549028 1_555
Co0 Sm1 3.121686 1_455
Co0 Sm0 3.121763 1_554
Co1 Si3 2.296471 1_545
Co1 Si4 2.303997 1_554
Co1 Si0 2.381091 1_655
Co1 Si7 2.381098 1_555
Co1 Co2 2.507582 1_655
Co1 Co15 2.521598 1_555
Co1 Co3 2.521618 1_555
Co1 Co8 2.550135 1_555
Co1 Co7 2.550136 1_555
Co1 Sm0 3.120208 1_554
Co1 Sm1 3.120318 1_545
Co2 Si0 2.316740 1_555
Co2 Si7 2.316746 1_455
Co2 Si6 2.316800 1_555
Co2 Si5 2.316813 1_455
Co2 Co3 2.387787 1_455
Co2 Co6 2.387819 1_555
Co2 Co9 2.506998 1_455
Co3 Co4 2.254258 1_544
Co3 Si4 2.496320 1_554
Co3 Si2 2.497343 1_554
Co3 Si6 2.533736 1_655
Co3 Si0 2.534301 1_655
Co3 Sm1 3.299110 1_545
Co3 Sm0 3.299943 1_654
Co4 Co6 2.254047 1_655
Co4 Si7 2.496560 1_555
Co4 Si5 2.496742 1_555
Co4 Co5 2.520759 1_555
Co4 Co7 2.521433 1_565
Co4 Si2 2.533838 1_565
Co4 Si4 2.533972 1_565
Co4 Sm0 3.298932 1_665
Co4 Sm1 3.300347 1_556
Co5 Si6 2.297245 1_555
Co5 Si7 2.303968 1_555
Co5 Si4 2.380334 1_565
Co5 Si1 2.380883 1_555
Co5 Sm0 3.120932 1_554
Co5 Sm1 3.121562 1_556
Co6 Si3 2.496315 1_556
Co6 Si1 2.497241 1_556
Co6 Co9 2.520924 1_455
Co6 Si7 2.533796 1_455
Co6 Si5 2.534360 1_455
Co6 Sm0 3.299114 1_565
Co6 Sm1 3.299920 1_456
Co7 Si0 2.297145 1_655
Co7 Si5 2.304022 1_545
Co7 Si3 2.380375 1_545
Co7 Si2 2.380808 1_555
Co7 Co9 2.548932 1_555
Co7 Sm0 3.120924 1_655
Co7 Sm1 3.121522 1_545
Co8 Si7 2.297142 1_555
Co8 Si6 2.304001 1_555
Co8 Si3 2.380353 1_545
Co8 Si2 2.380828 1_555
Co8 Co9 2.548925 1_555
Co8 Sm1 3.120833 1_556
Co8 Sm0 3.121623 1_554
Co9 Si2 2.297643 1_555
Co9 Si1 2.304299 1_656
Co9 Si7 2.380514 1_555
Co9 Si0 2.380573 1_655
Co9 Sm0 3.121698 1_655
Co9 Sm1 3.121745 1_556
Co10 Si5 2.297239 1_455
Co10 Si0 2.303954 1_565
Co10 Si4 2.380369 1_565
Co10 Si1 2.380850 1_555
Co10 Co16 2.507039 1_565
Co10 Co13 2.520767 1_565
Co10 Co14 2.521428 1_565
Co10 Co17 2.550259 1_555
Co10 Sm1 3.120994 1_455
Co10 Sm0 3.121450 1_565
Co11 Co13 2.254021 1_555
Co11 Co12 2.254208 1_556
Co11 Co2 2.387789 1_555
Co11 Si3 2.496357 1_556
Co11 Si1 2.497258 1_556
Co11 Co9 2.520907 1_455
Co11 Co17 2.521568 1_555
Co11 Si0 2.533809 1_555
Co11 Si6 2.534394 1_555
Co11 Co6 2.557565 1_555
Co11 Sm1 3.298846 1_556
Co11 Sm0 3.299626 1_555
Co12 Co15 2.254050 1_555
Co12 Co16 2.387641 1_565
Co12 Si5 2.496565 1_555
Co12 Si7 2.496858 1_555
Co12 Co7 2.520836 1_565
Co12 Co5 2.521430 1_555
Co12 Si1 2.533831 1_555
Co12 Si3 2.533971 1_555
Co12 Co4 2.557374 1_555
Co12 Sm0 3.298689 1_554
Co12 Sm1 3.299998 1_555
Co13 Co15 2.254291 1_556
Co13 Co16 2.387620 1_555
Co13 Si0 2.496552 1_555
Co13 Si6 2.496751 1_555
Co13 Co8 2.521419 1_555
Co13 Si2 2.533878 1_555
Co13 Si4 2.534035 1_555
Co13 Co14 2.557359 1_555
Co13 Sm1 3.298631 1_556
Co13 Sm0 3.300031 1_555
Co14 Co3 2.254003 1_455
Co14 Co6 2.254189 1_544
Co14 Co16 2.387622 1_555
Co14 Si6 2.496526 1_555
Co14 Si0 2.496802 1_555
Co14 Co8 2.520819 1_555
Co14 Si1 2.533803 1_545
Co14 Si3 2.533935 1_545
Co14 Sm1 3.298984 1_445
Co14 Sm0 3.300304 1_554
Co15 Co2 2.387774 1_655
Co15 Si4 2.496317 1_554
Co15 Si2 2.497317 1_554
Co15 Si5 2.533783 1_555
Co15 Si7 2.534364 1_555
Co15 Co3 2.557605 1_555
Co15 Sm0 3.298828 1_554
Co15 Sm1 3.299655 1_555
Co16 Si2 2.316380 1_555
Co16 Si1 2.316435 1_545
Co16 Si3 2.316890 1_545
Co16 Si4 2.316914 1_555
Co16 Co4 2.387626 1_545
Co16 Co8 2.507011 1_555
Co16 Co7 2.507025 1_555
Co16 Co5 2.507053 1_545
Co17 Si4 2.296554 1_565
Co17 Si3 2.303920 1_556
Co17 Si5 2.381123 1_455
Co17 Si6 2.381165 1_555
Co17 Co2 2.507678 1_555
Co17 Co6 2.521553 1_555
Co17 Co5 2.550249 1_555
Co17 Sm1 3.120198 1_556
Co17 Sm0 3.120256 1_565
Si0 Sm1 3.203590 1_445
Si0 Sm0 3.205069 1_555
Si1 Sm0 3.204085 1_554
Si1 Sm1 3.204177 1_455
Si2 Sm1 3.204023 1_556
Si2 Sm0 3.204165 1_655
Si3 Sm1 3.204463 1_555
Si3 Sm0 3.204581 1_564
Si4 Sm0 3.204447 1_555
Si4 Sm1 3.204597 1_546
Si5 Sm0 3.203572 1_665
Si5 Sm1 3.205094 1_555
Si6 Sm1 3.203476 1_556
Si6 Sm0 3.205213 1_554
Si7 Sm0 3.203487 1_554
Si7 Sm1 3.205176 1_556
