# generated using pymatgen
data_Li9Bi3P8O29
_symmetry_space_group_name_H-M   'P 1'
_cell_length_a   10.32719369
_cell_length_b   10.32719369
_cell_length_c   14.16363900
_cell_angle_alpha   90.00000000
_cell_angle_beta   90.00000000
_cell_angle_gamma   119.99999804
_symmetry_Int_Tables_number   1
_chemical_formula_structural   Li9Bi3P8O29
_chemical_formula_sum   'Li18 Bi6 P16 O58'
_cell_volume   1308.18792001
_cell_formula_units_Z   2
loop_
 _symmetry_equiv_pos_site_id
 _symmetry_equiv_pos_as_xyz
  1  'x, y, z'
loop_
 _atom_site_type_symbol
 _atom_site_label
 _atom_site_symmetry_multiplicity
 _atom_site_fract_x
 _atom_site_fract_y
 _atom_site_fract_z
 _atom_site_occupancy
  Li  Li0  1  0.89427700  0.67158400  0.93896700  1
  Li  Li1  1  0.10572300  0.77730800  0.56103300  1
  Li  Li2  1  0.77730800  0.10572300  0.93896700  1
  Li  Li3  1  0.89427700  0.22269200  0.43896700  1
  Li  Li4  1  0.77730800  0.67158400  0.43896700  1
  Li  Li5  1  0.10572300  0.32841600  0.06103300  1
  Li  Li6  1  0.33333300  0.66666700  0.37831800  1
  Li  Li7  1  0.66666700  0.33333300  0.62168200  1
  Li  Li8  1  0.67158400  0.77730800  0.06103300  1
  Li  Li9  1  0.67158400  0.89427700  0.56103300  1
  Li  Li10  1  0.00000000  0.00000000  0.50000000  1
  Li  Li11  1  0.00000000  0.00000000  0.00000000  1
  Li  Li12  1  0.32841600  0.10572300  0.43896700  1
  Li  Li13  1  0.33333300  0.66666700  0.87831800  1
  Li  Li14  1  0.32841600  0.22269200  0.93896700  1
  Li  Li15  1  0.66666700  0.33333300  0.12168200  1
  Li  Li16  1  0.22269200  0.32841600  0.56103300  1
  Li  Li17  1  0.22269200  0.89427700  0.06103300  1
  Bi  Bi0  1  0.00000000  0.43855200  0.25000000  1
  Bi  Bi1  1  0.56144800  0.00000000  0.75000000  1
  Bi  Bi2  1  0.00000000  0.56144800  0.75000000  1
  Bi  Bi3  1  0.43855200  0.00000000  0.25000000  1
  Bi  Bi4  1  0.43855200  0.43855200  0.75000000  1
  Bi  Bi5  1  0.56144800  0.56144800  0.25000000  1
  P  P0  1  0.21545500  0.30469900  0.34635700  1
  P  P1  1  0.66666700  0.33333300  0.38955300  1
  P  P2  1  0.30469900  0.21545500  0.15364300  1
  P  P3  1  0.33333300  0.66666700  0.61044700  1
  P  P4  1  0.66666700  0.33333300  0.88955300  1
  P  P5  1  0.78454500  0.69530100  0.65364400  1
  P  P6  1  0.69530100  0.91075600  0.34635700  1
  P  P7  1  0.08924400  0.30469900  0.84635600  1
  P  P8  1  0.21545500  0.91075600  0.84635600  1
  P  P9  1  0.69530100  0.78454500  0.84635600  1
  P  P10  1  0.33333300  0.66666700  0.11044700  1
  P  P11  1  0.91075600  0.69530100  0.15364300  1
  P  P12  1  0.78454500  0.08924400  0.15364300  1
  P  P13  1  0.30469900  0.08924400  0.65364400  1
  P  P14  1  0.91075600  0.21545500  0.65364400  1
  P  P15  1  0.08924400  0.78454500  0.34635700  1
  O  O0  1  0.76594300  0.70344500  0.15280100  1
  O  O1  1  0.87034800  0.52998500  0.15811700  1
  O  O2  1  0.77794900  0.77794900  0.75000000  1
  O  O3  1  0.06249700  0.29655500  0.34719900  1
  O  O4  1  0.65963600  0.12965200  0.15811700  1
  O  O5  1  0.29655500  0.06249700  0.15280100  1
  O  O6  1  0.79388400  0.48857000  0.85158300  1
  O  O7  1  0.79388400  0.30531400  0.35158300  1
  O  O8  1  0.34036400  0.47001500  0.34188300  1
  O  O9  1  0.21892000  0.99434600  0.56867300  1
  O  O10  1  0.00565400  0.78108000  0.06867300  1
  O  O11  1  0.51143000  0.20611600  0.35158300  1
  O  O12  1  0.87034800  0.34036400  0.65811700  1
  O  O13  1  0.23405700  0.93750300  0.34719900  1
  O  O14  1  0.51143000  0.30531400  0.85158300  1
  O  O15  1  0.65963600  0.52998500  0.65811700  1
  O  O16  1  0.78108000  0.77542700  0.93132700  1
  O  O17  1  0.48857000  0.79388400  0.64841700  1
  O  O18  1  0.12965200  0.47001500  0.84188300  1
  O  O19  1  0.93750300  0.23405700  0.15280100  1
  O  O20  1  0.77794900  0.00000000  0.25000000  1
  O  O21  1  0.47001500  0.12965200  0.65811700  1
  O  O22  1  0.93750300  0.70344500  0.65280100  1
  O  O23  1  0.70344500  0.76594300  0.34719900  1
  O  O24  1  0.00000000  0.77794900  0.25000000  1
  O  O25  1  0.20611600  0.51143000  0.14841700  1
  O  O26  1  0.52998500  0.65963600  0.84188300  1
  O  O27  1  0.47001500  0.34036400  0.15811700  1
  O  O28  1  0.69468600  0.20611600  0.85158300  1
  O  O29  1  0.22205100  0.22205100  0.25000000  1
  O  O30  1  0.70344500  0.93750300  0.84719900  1
  O  O31  1  0.33333300  0.66666700  0.50423400  1
  O  O32  1  0.21892000  0.22457300  0.06867300  1
  O  O33  1  0.00565400  0.22457300  0.56867300  1
  O  O34  1  0.29655500  0.23405700  0.65280100  1
  O  O35  1  0.52998500  0.87034800  0.34188300  1
  O  O36  1  0.23405700  0.29655500  0.84719900  1
  O  O37  1  0.66666700  0.33333300  0.49576600  1
  O  O38  1  0.99434600  0.21892000  0.93132700  1
  O  O39  1  0.30531400  0.79388400  0.14841700  1
  O  O40  1  0.20611600  0.69468600  0.64841700  1
  O  O41  1  0.77542700  0.99434600  0.06867300  1
  O  O42  1  0.66666700  0.33333300  0.99576600  1
  O  O43  1  0.00000000  0.22205100  0.75000000  1
  O  O44  1  0.22205100  0.00000000  0.75000000  1
  O  O45  1  0.22457300  0.00565400  0.93132700  1
  O  O46  1  0.34036400  0.87034800  0.84188300  1
  O  O47  1  0.22457300  0.21892000  0.43132700  1
  O  O48  1  0.33333300  0.66666700  0.00423400  1
  O  O49  1  0.06249700  0.76594300  0.84719900  1
  O  O50  1  0.30531400  0.51143000  0.64841700  1
  O  O51  1  0.12965200  0.65963600  0.34188300  1
  O  O52  1  0.78108000  0.00565400  0.43132700  1
  O  O53  1  0.76594300  0.06249700  0.65280100  1
  O  O54  1  0.77542700  0.78108000  0.56867300  1
  O  O55  1  0.69468600  0.48857000  0.35158300  1
  O  O56  1  0.99434600  0.77542700  0.43132700  1
  O  O57  1  0.48857000  0.69468600  0.14841700  1
loop_
_geom_bond_atom_site_label_1
_geom_bond_atom_site_label_2
_geom_bond_distance
_geom_bond_site_symmetry_2
Li0 O16 1.944735 1_555
Li0 O49 1.991006 1_655
Li0 O6 2.054117 1_555
Li0 O10 2.162404 1_656
Li1 O9 1.944718 1_555
Li1 O22 1.991005 1_455
Li1 O40 2.054124 1_555
Li1 O56 2.162404 1_455
Li2 O38 1.944718 1_555
Li2 O30 1.991005 1_545
Li2 O28 2.054124 1_555
Li2 O41 2.162404 1_546
Li3 O52 1.944718 1_555
Li3 O3 1.991005 1_655
Li3 O7 2.054124 1_555
Li3 O33 2.162404 1_655
Li4 O56 1.944717 1_555
Li4 O23 1.991019 1_555
Li4 O55 2.054116 1_555
Li4 O54 2.162404 1_555
Li5 O32 1.944735 1_555
Li5 O19 1.991006 1_455
Li5 O25 2.054117 1_555
Li5 O38 2.162404 1_454
Li6 O31 1.783429 1_555
Li6 O51 2.131517 1_555
Li6 O35 2.131526 1_555
Li6 O8 2.131537 1_555
Li7 O37 1.783429 1_555
Li7 O12 2.131517 1_555
Li7 O21 2.131526 1_555
Li7 O15 2.131537 1_555
Li8 O41 1.944717 1_555
Li8 O0 1.991019 1_555
Li8 O57 2.054116 1_555
Li8 O16 2.162404 1_554
Li9 O54 1.944735 1_555
Li9 O53 1.991006 1_565
Li9 O17 2.054117 1_555
Li9 O52 2.162404 1_565
Li10 O33 2.488531 1_555
Li10 O56 2.488531 1_445
Li10 O54 2.488536 1_445
Li10 O47 2.488536 1_555
Li10 O9 2.488541 1_545
Li10 O52 2.488541 1_455
Li11 O41 2.488531 1_445
Li11 O45 2.488531 1_554
Li11 O32 2.488536 1_555
Li11 O16 2.488536 1_444
Li11 O10 2.488541 1_545
Li11 O38 2.488541 1_454
Li12 O47 1.944735 1_555
Li12 O13 1.991006 1_545
Li12 O11 2.054117 1_555
Li12 O9 2.162404 1_545
Li13 O48 1.783429 1_556
Li13 O46 2.131517 1_555
Li13 O18 2.131526 1_555
Li13 O26 2.131537 1_555
Li14 O45 1.944717 1_555
Li14 O36 1.991019 1_555
Li14 O14 2.054116 1_555
Li14 O32 2.162404 1_556
Li15 O42 1.783429 1_554
Li15 O4 2.131517 1_555
Li15 O1 2.131526 1_555
Li15 O27 2.131537 1_555
Li16 O33 1.944717 1_555
Li16 O34 1.991019 1_555
Li16 O50 2.054116 1_555
Li16 O47 2.162404 1_555
Li17 O10 1.944718 1_555
Li17 O5 1.991005 1_565
Li17 O39 2.054124 1_555
Li17 O45 2.162404 1_564
Bi0 O3 2.325667 1_555
Bi0 O19 2.325675 1_455
Bi0 O25 2.359120 1_555
Bi0 O7 2.359120 1_455
Bi0 O51 2.375344 1_555
Bi0 O1 2.375351 1_455
Bi1 O30 2.325667 1_545
Bi1 O53 2.325675 1_555
Bi1 O17 2.359120 1_545
Bi1 O28 2.359120 1_555
Bi1 O46 2.375344 1_545
Bi1 O21 2.375351 1_555
Bi2 O22 2.325667 1_455
Bi2 O49 2.325675 1_555
Bi2 O6 2.359120 1_455
Bi2 O40 2.359120 1_555
Bi2 O12 2.375344 1_455
Bi2 O18 2.375351 1_555
Bi3 O5 2.325667 1_555
Bi3 O13 2.325675 1_545
Bi3 O11 2.359120 1_555
Bi3 O39 2.359120 1_545
Bi3 O4 2.375344 1_555
Bi3 O35 2.375351 1_545
Bi4 O36 2.325673 1_555
Bi4 O34 2.325673 1_555
Bi4 O14 2.359120 1_555
Bi4 O50 2.359120 1_555
Bi4 O26 2.375343 1_555
Bi4 O15 2.375343 1_555
Bi5 O0 2.325673 1_555
Bi5 O23 2.325673 1_555
Bi5 O55 2.359120 1_555
Bi5 O57 2.359120 1_555
Bi5 O8 2.375343 1_555
Bi5 O27 2.375343 1_555
O0 P11 1.539335 1_555
O1 P11 1.542862 1_555
O2 P9 1.629057 1_555
O2 P5 1.629057 1_555
O3 P0 1.539345 1_555
O4 P12 1.542872 1_555
O5 P2 1.539345 1_555
O6 P4 1.574542 1_555
O7 P1 1.574536 1_555
O8 P0 1.542865 1_555
O9 P13 1.524940 1_565
O10 P11 1.524929 1_455
O11 P1 1.574542 1_555
O12 P14 1.542871 1_555
O13 P15 1.539340 1_555
O14 P4 1.574545 1_555
O15 P5 1.542864 1_555
O16 P9 1.524937 1_555
O17 P3 1.574542 1_555
O18 P7 1.542861 1_555
O19 P12 1.539340 1_555
O20 P12 1.629069 1_555
O20 P6 1.629069 1_545
O21 P13 1.542861 1_555
O22 P5 1.539345 1_555
O23 P6 1.539335 1_555
O24 P15 1.629069 1_555
O24 P11 1.629069 1_455
O25 P10 1.574542 1_555
O26 P9 1.542864 1_555
O27 P2 1.542865 1_555
O28 P4 1.574536 1_555
O29 P0 1.629069 1_555
O29 P2 1.629069 1_555
O30 P9 1.539345 1_555
O31 P3 1.504363 1_555
O32 P2 1.524926 1_555
O33 P14 1.524943 1_455
O34 P13 1.539335 1_555
O35 P6 1.542862 1_555
O36 P7 1.539335 1_555
O37 P1 1.504363 1_555
O38 P7 1.524940 1_655
O39 P10 1.574536 1_555
O40 P3 1.574536 1_555
O41 P12 1.524932 1_565
O42 P4 1.504363 1_555
O43 P14 1.629057 1_455
O43 P7 1.629057 1_555
O44 P8 1.629057 1_545
O44 P13 1.629057 1_555
O45 P8 1.524943 1_545
O46 P8 1.542871 1_555
O47 P0 1.524926 1_555
O48 P10 1.504363 1_555
O49 P8 1.539340 1_555
O50 P3 1.574545 1_555
O51 P15 1.542872 1_555
O52 P6 1.524929 1_545
O53 P14 1.539340 1_555
O54 P5 1.524937 1_555
O55 P1 1.574545 1_555
O56 P15 1.524932 1_655
O57 P10 1.574545 1_555
