# generated using pymatgen
data_VAgO3
_symmetry_space_group_name_H-M   'P 1'
_cell_length_a   9.16997089
_cell_length_b   9.16997089
_cell_length_c   8.00754944
_cell_angle_alpha   75.75637490
_cell_angle_beta   75.75637490
_cell_angle_gamma   22.45148104
_symmetry_Int_Tables_number   1
_chemical_formula_structural   VAgO3
_chemical_formula_sum   'V4 Ag4 O12'
_cell_volume   248.92808517
_cell_formula_units_Z   4
loop_
 _symmetry_equiv_pos_site_id
 _symmetry_equiv_pos_as_xyz
  1  'x, y, z'
loop_
 _atom_site_type_symbol
 _atom_site_label
 _atom_site_symmetry_multiplicity
 _atom_site_fract_x
 _atom_site_fract_y
 _atom_site_fract_z
 _atom_site_occupancy
  V  V0  1  0.32109956  0.32109956  0.56265765  1
  V  V1  1  0.87326608  0.87326608  0.22739000  1
  V  V2  1  0.67985133  0.67985133  0.43426881  1
  V  V3  1  0.13105038  0.13105038  0.76970603  1
  Ag  Ag0  1  0.25302142  0.25302142  0.04130783  1
  Ag  Ag1  1  0.00029104  0.00029104  0.50187366  1
  Ag  Ag2  1  0.45274636  0.45274636  0.86477319  1
  Ag  Ag3  1  0.55027414  0.55027414  0.13098558  1
  O  O0  1  0.65184388  0.65184388  0.70577320  1
  O  O1  1  0.74050342  0.74050342  0.23280041  1
  O  O2  1  0.40868659  0.40868659  0.59863249  1
  O  O3  1  0.12218255  0.12218255  0.98561912  1
  O  O4  1  0.35070044  0.35070044  0.28670491  1
  O  O5  1  0.88087860  0.88087860  0.01189822  1
  O  O6  1  0.81155992  0.81155992  0.49387125  1
  O  O7  1  0.25982311  0.25982311  0.75904498  1
  O  O8  1  0.19149475  0.19149475  0.49666781  1
  O  O9  1  0.96666448  0.96666448  0.23859739  1
  O  O10  1  0.03713512  0.03713512  0.76040157  1
  O  O11  1  0.59213682  0.59213682  0.39972688  1
loop_
_geom_bond_atom_site_label_1
_geom_bond_atom_site_label_2
_geom_bond_distance
_geom_bond_site_symmetry_2
Ag0 O7 2.232685 1_554
Ag0 O1 2.327136 1_455
Ag0 O1 2.327136 1_545
Ag0 O3 2.503031 1_554
Ag1 O10 2.326646 1_555
Ag1 O9 2.334567 1_445
Ag1 O2 2.421174 1_455
Ag1 O2 2.421174 1_545
Ag1 O11 2.430572 1_545
Ag1 O11 2.430572 1_455
Ag2 O5 2.341378 1_456
Ag2 O5 2.341378 1_546
Ag2 O10 2.356553 1_565
Ag2 O10 2.356553 1_655
Ag2 O2 2.453030 1_555
Ag3 O3 2.336593 1_654
Ag3 O3 2.336593 1_564
Ag3 O9 2.354002 1_455
Ag3 O9 2.354002 1_545
Ag3 O11 2.451748 1_555
O0 V3 1.868889 1_655
O0 V3 1.868889 1_565
O0 V2 2.104983 1_555
O1 V2 1.705874 1_555
O1 V1 2.377777 1_555
O2 V0 1.671298 1_555
O3 V3 1.695964 1_555
O4 V1 1.865599 1_455
O4 V1 1.865599 1_545
O4 V0 2.139166 1_555
O5 V1 1.696397 1_555
O6 V0 1.888670 1_565
O6 V0 1.888670 1_655
O6 V1 2.144111 1_555
O6 V2 2.531550 1_555
O7 V0 1.678818 1_555
O7 V3 2.296573 1_555
O8 V2 1.879588 1_545
O8 V2 1.879588 1_455
O8 V3 2.183994 1_555
O8 V0 2.516554 1_555
O9 V1 1.704876 1_555
O10 V3 1.709658 1_555
O11 V2 1.668903 1_555
