# generated using pymatgen
data_K2Ti(SiO3)3
_symmetry_space_group_name_H-M   'P 1'
_cell_length_a   7.71575136
_cell_length_b   7.71575136
_cell_length_c   7.71575142
_cell_angle_alpha   82.44123789
_cell_angle_beta   82.44123789
_cell_angle_gamma   82.44123854
_symmetry_Int_Tables_number   1
_chemical_formula_structural   K2Ti(SiO3)3
_chemical_formula_sum   'K4 Ti2 Si6 O18'
_cell_volume   448.33171946
_cell_formula_units_Z   2
loop_
 _symmetry_equiv_pos_site_id
 _symmetry_equiv_pos_as_xyz
  1  'x, y, z'
loop_
 _atom_site_type_symbol
 _atom_site_label
 _atom_site_symmetry_multiplicity
 _atom_site_fract_x
 _atom_site_fract_y
 _atom_site_fract_z
 _atom_site_occupancy
  K  K0  1  0.22821200  0.76961700  0.99490500  1
  K  K1  1  0.76961700  0.99490500  0.22821200  1
  K  K2  1  0.99490500  0.22821200  0.76961700  1
  K  K3  1  0.49650000  0.49650000  0.49650000  1
  Ti  Ti0  1  0.22240400  0.22240400  0.22240400  1
  Ti  Ti1  1  0.74077800  0.74077800  0.74077800  1
  Si  Si0  1  0.89055800  0.50998000  0.09800000  1
  Si  Si1  1  0.09800000  0.89055800  0.50998000  1
  Si  Si2  1  0.50998000  0.09800000  0.89055800  1
  Si  Si3  1  0.01521000  0.54904900  0.43633100  1
  Si  Si4  1  0.43633100  0.01521000  0.54904900  1
  Si  Si5  1  0.54904900  0.43633100  0.01521000  1
  O  O0  1  0.32387700  0.09997000  0.01751500  1
  O  O1  1  0.46702700  0.15725000  0.68395500  1
  O  O2  1  0.68395500  0.46702700  0.15725000  1
  O  O3  1  0.24375600  0.94241700  0.62882000  1
  O  O4  1  0.94241700  0.62882000  0.24375600  1
  O  O5  1  0.58757400  0.84785700  0.55645400  1
  O  O6  1  0.63160100  0.91061900  0.90425900  1
  O  O7  1  0.91061900  0.90425900  0.63160100  1
  O  O8  1  0.55645400  0.58757400  0.84785700  1
  O  O9  1  0.62882000  0.24375600  0.94241700  1
  O  O10  1  0.90425900  0.63160100  0.91061900  1
  O  O11  1  0.84785700  0.55645400  0.58757400  1
  O  O12  1  0.15725000  0.68395500  0.46702700  1
  O  O13  1  0.42639800  0.12105200  0.35436700  1
  O  O14  1  0.35436700  0.42639800  0.12105200  1
  O  O15  1  0.09997000  0.01751500  0.32387700  1
  O  O16  1  0.12105200  0.35436700  0.42639800  1
  O  O17  1  0.01751500  0.32387700  0.09997000  1
loop_
_geom_bond_atom_site_label_1
_geom_bond_atom_site_label_2
_geom_bond_distance
_geom_bond_site_symmetry_2
K0 O0 2.778148 1_566
K0 O14 2.792978 1_556
K0 O8 2.898589 1_555
K0 O4 2.949064 1_456
K0 O3 2.955108 1_555
K0 O10 3.019066 1_455
K1 O15 2.778148 1_665
K1 O13 2.792978 1_565
K1 O5 2.898589 1_555
K1 O9 2.949064 1_564
K1 O4 2.955108 1_555
K1 O6 3.019066 1_554
K2 O17 2.778148 1_656
K2 O16 2.792978 1_655
K2 O11 2.898589 1_555
K2 O3 2.949064 1_645
K2 O9 2.955108 1_555
K2 O7 3.019066 1_545
K3 O1 2.840664 1_555
K3 O12 2.840664 1_555
K3 O2 2.840664 1_555
K3 O5 2.995638 1_555
K3 O11 2.995638 1_555
K3 O8 2.995638 1_555
O0 Si2 1.627817 1_554
O0 Ti0 1.969070 1_555
O1 Si2 1.663545 1_555
O1 Si4 1.665513 1_555
O2 Si0 1.663545 1_555
O2 Si5 1.665513 1_555
O3 Si1 1.658872 1_555
O3 Si4 1.670352 1_565
O4 Si0 1.658872 1_555
O4 Si3 1.670352 1_655
O5 Si4 1.622987 1_565
O5 Ti1 1.994690 1_555
O6 Si2 1.615863 1_565
O6 Ti1 1.970501 1_555
O7 Si1 1.615863 1_655
O7 Ti1 1.970501 1_555
O8 Si5 1.622987 1_556
O8 Ti1 1.994690 1_555
O9 Si2 1.658872 1_555
O9 Si5 1.670352 1_556
O10 Si0 1.615863 1_556
O10 Ti1 1.970501 1_555
O11 Si3 1.622987 1_655
O11 Ti1 1.994690 1_555
O12 Si1 1.663545 1_555
O12 Si3 1.665513 1_555
O13 Si4 1.618716 1_555
O13 Ti0 2.003484 1_555
O14 Si5 1.618716 1_555
O14 Ti0 2.003484 1_555
O15 Si1 1.627817 1_545
O15 Ti0 1.969070 1_555
O16 Si3 1.618716 1_555
O16 Ti0 2.003484 1_555
O17 Si0 1.627817 1_455
O17 Ti0 1.969070 1_555
