# generated using pymatgen
data_Na2Ce2TiSi(CO6)2
_symmetry_space_group_name_H-M   'P 1'
_cell_length_a   5.06886265
_cell_length_b   7.62174065
_cell_length_c   14.06938109
_cell_angle_alpha   94.14789393
_cell_angle_beta   100.56623813
_cell_angle_gamma   109.24087425
_symmetry_Int_Tables_number   1
_chemical_formula_structural   Na2Ce2TiSi(CO6)2
_chemical_formula_sum   'Na4 Ce4 Ti2 Si2 C4 O24'
_cell_volume   499.29884521
_cell_formula_units_Z   2
loop_
 _symmetry_equiv_pos_site_id
 _symmetry_equiv_pos_as_xyz
  1  'x, y, z'
loop_
 _atom_site_type_symbol
 _atom_site_label
 _atom_site_symmetry_multiplicity
 _atom_site_fract_x
 _atom_site_fract_y
 _atom_site_fract_z
 _atom_site_occupancy
  Na  Na0  1  0.70093417  0.86235139  0.52650876  1
  Na  Na1  1  0.50000000  0.00000000  0.00000000  1
  Na  Na2  1  0.00000000  0.50000000  0.50000000  1
  Na  Na3  1  0.29906583  0.13764861  0.47349124  1
  Ce  Ce0  1  0.81197185  0.34301552  0.21727078  1
  Ce  Ce1  1  0.47361631  0.21904009  0.78213407  1
  Ce  Ce2  1  0.52638369  0.78095991  0.21786593  1
  Ce  Ce3  1  0.18802815  0.65698448  0.78272922  1
  Ti  Ti0  1  0.80235542  0.60419434  0.00031156  1
  Ti  Ti1  1  0.19764458  0.39580566  0.99968844  1
  Si  Si0  1  0.95082420  0.96129471  0.85838515  1
  Si  Si1  1  0.04917580  0.03870529  0.14161485  1
  C  C0  1  0.11419936  0.79216409  0.35241469  1
  C  C1  1  0.88580064  0.20783591  0.64758531  1
  C  C2  1  0.40725058  0.39882307  0.34634035  1
  C  C3  1  0.59274942  0.60117693  0.65365965  1
  O  O0  1  0.62112464  0.95678569  0.84303705  1
  O  O1  1  0.94046816  0.06670529  0.24372819  1
  O  O2  1  0.94233167  0.80942878  0.40546887  1
  O  O3  1  0.60624654  0.54350439  0.74022284  1
  O  O4  1  0.78537931  0.59931853  0.60698773  1
  O  O5  1  0.80425015  0.83766813  0.08369417  1
  O  O6  1  0.60901048  0.33438389  0.37615023  1
  O  O7  1  0.98997523  0.20870434  0.08385474  1
  O  O8  1  0.05766833  0.19057122  0.59453113  1
  O  O9  1  0.58039660  0.44706630  0.08164938  1
  O  O10  1  0.37887536  0.04321431  0.15696295  1
  O  O11  1  0.00972508  0.69340310  0.26390127  1
  O  O12  1  0.61033803  0.12918823  0.62103378  1
  O  O13  1  0.84485683  0.40169627  0.91755651  1
  O  O14  1  0.38966197  0.87081177  0.37896622  1
  O  O15  1  0.15514317  0.59830373  0.08244349  1
  O  O16  1  0.99027492  0.30659690  0.73609873  1
  O  O17  1  0.39375346  0.45649561  0.25977716  1
  O  O18  1  0.19574985  0.16233187  0.91630583  1
  O  O19  1  0.21462069  0.40068147  0.39301227  1
  O  O20  1  0.05953184  0.93329471  0.75627181  1
  O  O21  1  0.01002477  0.79129566  0.91614526  1
  O  O22  1  0.41960340  0.55293370  0.91835062  1
  O  O23  1  0.39098952  0.66561611  0.62384977  1
loop_
_geom_bond_atom_site_label_1
_geom_bond_atom_site_label_2
_geom_bond_distance
_geom_bond_site_symmetry_2
Na0 O2 2.355868 1_555
Na0 O14 2.384936 1_555
Na0 O23 2.475032 1_555
Na0 O4 2.490100 1_555
Na0 O8 2.545842 1_665
Na0 O12 2.562025 1_565
Na1 O0 2.426448 1_544
Na1 O10 2.426448 1_555
Na1 O5 2.469431 1_545
Na1 O18 2.469431 1_554
Na1 O21 2.478032 1_544
Na1 O7 2.478032 1_555
Na2 O19 2.236240 1_555
Na2 O4 2.236240 1_455
Na2 O23 2.307366 1_555
Na2 O6 2.307366 1_455
Na2 O8 2.860393 1_555
Na2 O2 2.860393 1_455
Na3 O8 2.355868 1_555
Na3 O12 2.384936 1_555
Na3 O6 2.475032 1_555
Na3 O19 2.490100 1_555
Na3 O2 2.545842 1_445
Na3 O14 2.562025 1_545
Ce0 O9 2.378799 1_555
Ce0 O1 2.434423 1_555
Ce0 O11 2.511603 1_655
Ce0 O7 2.517415 1_555
Ce0 O10 2.547709 1_555
Ce0 O6 2.622881 1_555
Ce0 O17 2.682953 1_555
Ce0 O17 2.720199 1_655
Ce0 O19 2.805918 1_655
Ce1 O13 2.384142 1_555
Ce1 O20 2.423540 1_545
Ce1 O3 2.485136 1_555
Ce1 O0 2.507276 1_545
Ce1 O18 2.534946 1_555
Ce1 O12 2.598268 1_555
Ce1 O16 2.693711 1_555
Ce1 O16 2.724965 1_455
Ce2 O15 2.384142 1_555
Ce2 O1 2.423540 1_565
Ce2 O17 2.485136 1_555
Ce2 O10 2.507276 1_565
Ce2 O5 2.534946 1_555
Ce2 O14 2.598268 1_555
Ce2 O11 2.693711 1_555
Ce2 O11 2.724965 1_655
Ce3 O22 2.378799 1_555
Ce3 O20 2.434423 1_555
Ce3 O16 2.511603 1_455
Ce3 O21 2.517415 1_555
Ce3 O0 2.547709 1_555
Ce3 O23 2.622881 1_555
Ce3 O3 2.682953 1_555
Ce3 O3 2.720199 1_455
Ce3 O4 2.805918 1_455
C0 O2 1.277991 1_455
C0 O14 1.293503 1_555
C0 O11 1.325782 1_555
C1 O8 1.277991 1_655
C1 O12 1.293503 1_555
C1 O16 1.325782 1_555
C2 O19 1.275805 1_555
C2 O6 1.290953 1_555
C2 O17 1.322067 1_555
C3 O4 1.275805 1_555
C3 O23 1.290953 1_555
C3 O3 1.322067 1_555
O0 Si0 1.633845 1_555
O1 Si1 1.654290 1_655
O5 Si1 1.657636 1_665
O5 Ti0 2.055602 1_555
O7 Si1 1.657830 1_655
O7 Ti1 2.063004 1_654
O9 Ti0 1.947312 1_555
O9 Ti1 1.964990 1_554
O10 Si1 1.633845 1_555
O13 Ti0 1.958382 1_556
O13 Ti1 1.958995 1_655
O15 Ti1 1.958382 1_554
O15 Ti0 1.958995 1_455
O18 Si0 1.657636 1_445
O18 Ti1 2.055602 1_555
O20 Si0 1.654290 1_455
O21 Si0 1.657830 1_455
O21 Ti0 2.063004 1_456
O22 Ti1 1.947312 1_555
O22 Ti0 1.964990 1_556
