# generated using pymatgen
data_KCd3H8Cl7O4
_symmetry_space_group_name_H-M   'P 1'
_cell_length_a   16.25489100
_cell_length_b   6.79057100
_cell_length_c   7.25466897
_cell_angle_alpha   87.94737021
_cell_angle_beta   90.00000000
_cell_angle_gamma   90.00000000
_symmetry_Int_Tables_number   1
_chemical_formula_structural   KCd3H8Cl7O4
_chemical_formula_sum   'K2 Cd6 H16 Cl14 O8'
_cell_volume   800.25648321
_cell_formula_units_Z   2
loop_
 _symmetry_equiv_pos_site_id
 _symmetry_equiv_pos_as_xyz
  1  'x, y, z'
loop_
 _atom_site_type_symbol
 _atom_site_label
 _atom_site_symmetry_multiplicity
 _atom_site_fract_x
 _atom_site_fract_y
 _atom_site_fract_z
 _atom_site_occupancy
  K  K0  1  0.25000000  0.02830700  0.32298500  1
  K  K1  1  0.75000000  0.97169300  0.67701500  1
  Cd  Cd0  1  0.09636700  0.49226500  0.16213000  1
  Cd  Cd1  1  0.90363300  0.50773500  0.83787000  1
  Cd  Cd2  1  0.59636700  0.50773500  0.83787000  1
  Cd  Cd3  1  0.00000000  0.00000000  0.00000000  1
  Cd  Cd4  1  0.40363300  0.49226500  0.16213000  1
  Cd  Cd5  1  0.50000000  0.00000000  0.00000000  1
  H  H0  1  0.75000000  0.59401100  0.23268400  1
  H  H1  1  0.57598100  0.72830000  0.48907600  1
  H  H2  1  0.16258900  0.38149300  0.52621100  1
  H  H3  1  0.33741100  0.38149300  0.52621100  1
  H  H4  1  0.20256800  0.90994800  0.75793300  1
  H  H5  1  0.29743200  0.90994800  0.75793300  1
  H  H6  1  0.07598100  0.27170000  0.51092400  1
  H  H7  1  0.79743200  0.09005200  0.24206700  1
  H  H8  1  0.66258900  0.61850700  0.47378900  1
  H  H9  1  0.70256800  0.09005200  0.24206700  1
  H  H10  1  0.83741100  0.61850700  0.47378900  1
  H  H11  1  0.75000000  0.38728200  0.33783400  1
  H  H12  1  0.25000000  0.61271800  0.66216600  1
  H  H13  1  0.92401900  0.72830000  0.48907600  1
  H  H14  1  0.42401900  0.27170000  0.51092400  1
  H  H15  1  0.25000000  0.40598900  0.76731600  1
  Cl  Cl0  1  0.85859400  0.82337800  0.02740300  1
  Cl  Cl1  1  0.25000000  0.61540700  0.14670100  1
  Cl  Cl2  1  0.14140600  0.17662200  0.97259700  1
  Cl  Cl3  1  0.75000000  0.38459300  0.85329900  1
  Cl  Cl4  1  0.95298800  0.18861800  0.68241800  1
  Cl  Cl5  1  0.04701200  0.81138200  0.31758200  1
  Cl  Cl6  1  0.55434400  0.32648300  0.16512600  1
  Cl  Cl7  1  0.94565600  0.32648300  0.16512600  1
  Cl  Cl8  1  0.44565600  0.67351700  0.83487400  1
  Cl  Cl9  1  0.05434400  0.67351700  0.83487400  1
  Cl  Cl10  1  0.45298800  0.81138200  0.31758200  1
  Cl  Cl11  1  0.54701200  0.18861800  0.68241800  1
  Cl  Cl12  1  0.35859400  0.17662200  0.97259700  1
  Cl  Cl13  1  0.64140600  0.82337800  0.02740300  1
  O  O0  1  0.75000000  0.12922500  0.31565800  1
  O  O1  1  0.75000000  0.53230800  0.35680700  1
  O  O2  1  0.62563600  0.68955400  0.55934800  1
  O  O3  1  0.37436400  0.31044600  0.44065200  1
  O  O4  1  0.87436400  0.68955400  0.55934800  1
  O  O5  1  0.25000000  0.87077500  0.68434200  1
  O  O6  1  0.12563600  0.31044600  0.44065200  1
  O  O7  1  0.25000000  0.46769200  0.64319300  1
loop_
_geom_bond_atom_site_label_1
_geom_bond_atom_site_label_2
_geom_bond_distance
_geom_bond_site_symmetry_2
K0 O5 2.795681 1_545
K0 O6 2.933091 1_555
K0 O3 2.933091 1_555
K1 O0 2.795681 1_565
K1 O4 2.933091 1_555
K1 O2 2.933091 1_555
Cd0 O6 2.377978 1_555
Cd0 Cl5 2.605061 1_555
Cd0 Cl1 2.634674 1_555
Cd0 Cl2 2.689213 1_554
Cd0 Cl7 2.695833 1_455
Cd0 Cl9 2.721886 1_554
Cd1 O4 2.377978 1_555
Cd1 Cl4 2.605061 1_555
Cd1 Cl3 2.634674 1_555
Cd1 Cl0 2.689213 1_556
Cd1 Cl9 2.695833 1_655
Cd1 Cl7 2.721886 1_556
Cd2 O2 2.377978 1_555
Cd2 Cl11 2.605061 1_555
Cd2 Cl3 2.634674 1_555
Cd2 Cl13 2.689213 1_556
Cd2 Cl8 2.695833 1_555
Cd2 Cl6 2.721886 1_556
Cd3 Cl0 2.596959 1_445
Cd3 Cl2 2.596959 1_554
Cd3 Cl9 2.705685 1_544
Cd3 Cl7 2.705685 1_455
Cd3 Cl5 2.705786 1_545
Cd3 Cl4 2.705786 1_454
Cd4 O3 2.377978 1_555
Cd4 Cl10 2.605061 1_555
Cd4 Cl1 2.634674 1_555
Cd4 Cl12 2.689213 1_554
Cd4 Cl6 2.695833 1_555
Cd4 Cl8 2.721886 1_554
Cd5 Cl12 2.596959 1_554
Cd5 Cl13 2.596959 1_545
Cd5 Cl6 2.705685 1_555
Cd5 Cl8 2.705685 1_544
Cd5 Cl10 2.705786 1_545
Cd5 Cl11 2.705786 1_554
H0 O1 0.979480 1_555
H1 O2 0.985385 1_555
H2 O6 1.000141 1_555
H3 O3 1.000141 1_555
H4 O5 0.980002 1_555
H5 O5 0.980002 1_555
H6 O6 0.985385 1_555
H7 O0 0.980002 1_555
H8 O2 1.000141 1_555
H9 O0 0.980002 1_555
H10 O4 1.000141 1_555
H11 O1 0.999252 1_555
H12 O7 0.999252 1_555
H13 O4 0.985385 1_555
H14 O3 0.985385 1_555
H15 O7 0.979480 1_555
Cl0 K1 3.226193 1_554
Cl1 K0 3.123115 1_565
Cl2 K0 3.226193 1_556
Cl3 K1 3.123115 1_545
Cl4 K1 3.614215 1_545
Cl5 K0 3.614215 1_565
Cl10 K0 3.614215 1_565
Cl11 K1 3.614215 1_545
Cl12 K0 3.226193 1_556
Cl13 K1 3.226193 1_554
