# generated using pymatgen
data_VP2O7
_symmetry_space_group_name_H-M   'P 1'
_cell_length_a   6.27302200
_cell_length_b   6.39305181
_cell_length_c   6.88704026
_cell_angle_alpha   88.77269138
_cell_angle_beta   113.72998125
_cell_angle_gamma   94.97363938
_symmetry_Int_Tables_number   1
_chemical_formula_structural   VP2O7
_chemical_formula_sum   'V2 P4 O14'
_cell_volume   251.86486324
_cell_formula_units_Z   2
loop_
 _symmetry_equiv_pos_site_id
 _symmetry_equiv_pos_as_xyz
  1  'x, y, z'
loop_
 _atom_site_type_symbol
 _atom_site_label
 _atom_site_symmetry_multiplicity
 _atom_site_fract_x
 _atom_site_fract_y
 _atom_site_fract_z
 _atom_site_occupancy
  V  V0  1  0.09285400  0.35281600  0.20381900  1
  V  V1  1  0.90714600  0.64718400  0.79618100  1
  P  P0  1  0.33659100  0.61359200  0.64663200  1
  P  P1  1  0.66340900  0.38640800  0.35336800  1
  P  P2  1  0.23746400  0.86637800  0.24568900  1
  P  P3  1  0.76253600  0.13362200  0.75431100  1
  O  O0  1  0.40233400  0.38558200  0.20824500  1
  O  O1  1  0.56026100  0.10187000  0.81084800  1
  O  O2  1  0.43973900  0.89813000  0.18915200  1
  O  O3  1  0.90622000  0.94374300  0.77590500  1
  O  O4  1  0.30066900  0.80667800  0.49236700  1
  O  O5  1  0.20336300  0.64656200  0.78663200  1
  O  O6  1  0.05951600  0.66946900  0.12034000  1
  O  O7  1  0.59766600  0.61441800  0.79175500  1
  O  O8  1  0.69933100  0.19332200  0.50763300  1
  O  O9  1  0.23780600  0.41291800  0.51165700  1
  O  O10  1  0.09378000  0.05625700  0.22409500  1
  O  O11  1  0.94048400  0.33053100  0.87966000  1
  O  O12  1  0.79663700  0.35343800  0.21336800  1
  O  O13  1  0.76219400  0.58708200  0.48834300  1
loop_
_geom_bond_atom_site_label_1
_geom_bond_atom_site_label_2
_geom_bond_distance
_geom_bond_site_symmetry_2
O0 P1 1.537015 1_555
O0 V0 1.922466 1_555
O1 P3 1.467128 1_555
O2 P2 1.467128 1_555
O3 P3 1.543432 1_565
O3 V1 1.898407 1_555
O4 P0 1.581980 1_555
O4 P2 1.626467 1_555
O5 P0 1.536345 1_555
O5 V1 1.885949 1_455
O6 P2 1.613479 1_555
O6 V1 2.047069 1_454
O6 V0 2.097418 1_555
O7 P0 1.537015 1_555
O7 V1 1.922466 1_555
O8 P1 1.581980 1_555
O8 P3 1.626467 1_555
O9 P0 1.530886 1_555
O9 V0 1.972808 1_555
O10 P2 1.543432 1_545
O10 V0 1.898407 1_555
O11 P3 1.613479 1_555
O11 V0 2.047069 1_656
O11 V1 2.097418 1_555
O12 P1 1.536345 1_555
O12 V0 1.885949 1_655
O13 P1 1.530886 1_555
O13 V1 1.972808 1_555
