# generated using pymatgen
data_KPr3Te8
_symmetry_space_group_name_H-M   'P 1'
_cell_length_a   13.04152199
_cell_length_b   9.05771865
_cell_length_c   14.26416684
_cell_angle_alpha   80.83680501
_cell_angle_beta   90.00000000
_cell_angle_gamma   90.00000000
_symmetry_Int_Tables_number   1
_chemical_formula_structural   KPr3Te8
_chemical_formula_sum   'K4 Pr12 Te32'
_cell_volume   1663.47283913
_cell_formula_units_Z   4
loop_
 _symmetry_equiv_pos_site_id
 _symmetry_equiv_pos_as_xyz
  1  'x, y, z'
loop_
 _atom_site_type_symbol
 _atom_site_label
 _atom_site_symmetry_multiplicity
 _atom_site_fract_x
 _atom_site_fract_y
 _atom_site_fract_z
 _atom_site_occupancy
  K  K0  1  0.90775725  0.75801004  0.96587942  1
  K  K1  1  0.59224275  0.25801004  0.96587942  1
  K  K2  1  0.09224275  0.24198996  0.03412058  1
  K  K3  1  0.40775725  0.74198996  0.03412058  1
  Pr  Pr0  1  0.91513043  0.58025738  0.65036910  1
  Pr  Pr1  1  0.58486957  0.08025738  0.65036910  1
  Pr  Pr2  1  0.41607576  0.40516927  0.35132072  1
  Pr  Pr3  1  0.75081075  0.91321674  0.34548052  1
  Pr  Pr4  1  0.08392424  0.90516927  0.35132072  1
  Pr  Pr5  1  0.74918925  0.41321674  0.34548052  1
  Pr  Pr6  1  0.41513043  0.91974262  0.34963090  1
  Pr  Pr7  1  0.58392424  0.59483073  0.64867928  1
  Pr  Pr8  1  0.25081075  0.58678326  0.65451948  1
  Pr  Pr9  1  0.91607576  0.09483073  0.64867928  1
  Pr  Pr10  1  0.24918925  0.08678326  0.65451948  1
  Pr  Pr11  1  0.08486957  0.41974262  0.34963090  1
  Te  Te0  1  0.24926030  0.95746615  0.17248048  1
  Te  Te1  1  0.08556703  0.35576018  0.58622655  1
  Te  Te2  1  0.41998232  0.35073018  0.58738401  1
  Te  Te3  1  0.92063745  0.96962103  0.16759165  1
  Te  Te4  1  0.57936255  0.46962103  0.16759165  1
  Te  Te5  1  0.75073970  0.04253385  0.82751952  1
  Te  Te6  1  0.91998232  0.14926982  0.41261599  1
  Te  Te7  1  0.08001768  0.85073018  0.58738401  1
  Te  Te8  1  0.25452198  0.64555622  0.41806404  1
  Te  Te9  1  0.42063745  0.53037897  0.83240835  1
  Te  Te10  1  0.22287874  0.78986799  0.83946352  1
  Te  Te11  1  0.41952027  0.05235603  0.83247330  1
  Te  Te12  1  0.24547802  0.14555622  0.41806404  1
  Te  Te13  1  0.58556703  0.14423982  0.41377345  1
  Te  Te14  1  0.72287874  0.71013201  0.16053648  1
  Te  Te15  1  0.58001768  0.64926982  0.41261599  1
  Te  Te16  1  0.08047973  0.55235603  0.83247330  1
  Te  Te17  1  0.27712126  0.28986799  0.83946352  1
  Te  Te18  1  0.90297291  0.29141921  0.82966232  1
  Te  Te19  1  0.75452198  0.85444378  0.58193596  1
  Te  Te20  1  0.41443297  0.85576018  0.58622655  1
  Te  Te21  1  0.09702709  0.70858079  0.17033768  1
  Te  Te22  1  0.40297291  0.20858079  0.17033768  1
  Te  Te23  1  0.77712126  0.21013201  0.16053648  1
  Te  Te24  1  0.07936255  0.03037897  0.83240835  1
  Te  Te25  1  0.74547802  0.35444378  0.58193596  1
  Te  Te26  1  0.91443297  0.64423982  0.41377345  1
  Te  Te27  1  0.74926030  0.54253385  0.82751952  1
  Te  Te28  1  0.59702709  0.79141921  0.82966232  1
  Te  Te29  1  0.25073970  0.45746615  0.17248048  1
  Te  Te30  1  0.58047973  0.94764397  0.16752670  1
  Te  Te31  1  0.91952027  0.44764397  0.16752670  1
loop_
_geom_bond_atom_site_label_1
_geom_bond_atom_site_label_2
_geom_bond_distance
_geom_bond_site_symmetry_2
K0 Te5 3.620777 1_565
K0 Te27 3.633695 1_555
K0 Te24 3.636432 1_665
K0 Te16 3.646094 1_655
K0 Te14 3.650695 1_556
K0 Te31 3.691121 1_556
K0 Te3 3.706355 1_556
K0 Te21 3.792488 1_656
K1 Te27 3.620777 1_555
K1 Te5 3.633695 1_555
K1 Te9 3.636432 1_555
K1 Te11 3.646094 1_555
K1 Te23 3.650695 1_556
K1 Te30 3.691121 1_546
K1 Te4 3.706355 1_556
K1 Te22 3.792488 1_556
K2 Te0 3.620777 1_545
K2 Te29 3.633695 1_555
K2 Te3 3.636432 1_445
K2 Te31 3.646094 1_455
K2 Te17 3.650695 1_554
K2 Te16 3.691121 1_554
K2 Te24 3.706355 1_554
K2 Te18 3.792488 1_454
K3 Te29 3.620777 1_555
K3 Te0 3.633695 1_555
K3 Te4 3.636432 1_555
K3 Te30 3.646094 1_555
K3 Te10 3.650695 1_554
K3 Te11 3.691121 1_564
K3 Te9 3.706355 1_554
K3 Te28 3.792488 1_554
Pr0 Te1 3.241163 1_655
Pr0 Te25 3.266113 1_555
Pr0 Te7 3.275995 1_655
Pr0 Te19 3.276552 1_555
Pr0 Te27 3.302488 1_555
Pr0 Te26 3.332051 1_555
Pr0 Te16 3.354433 1_655
Pr0 Te18 3.358475 1_555
Pr1 Te20 3.241163 1_545
Pr1 Te19 3.266113 1_545
Pr1 Te2 3.275995 1_555
Pr1 Te25 3.276552 1_555
Pr1 Te5 3.302488 1_555
Pr1 Te13 3.332051 1_555
Pr1 Te11 3.354433 1_555
Pr1 Te28 3.358475 1_545
Pr2 Te13 3.254962 1_555
Pr2 Te12 3.266940 1_555
Pr2 Te8 3.278191 1_555
Pr2 Te15 3.292400 1_555
Pr2 Te29 3.316097 1_555
Pr2 Te2 3.324946 1_555
Pr2 Te4 3.355089 1_555
Pr2 Te22 3.365780 1_555
Pr3 Te13 3.258998 1_565
Pr3 Te26 3.268358 1_555
Pr3 Te15 3.296197 1_555
Pr3 Te6 3.317864 1_565
Pr3 Te19 3.330153 1_555
Pr3 Te3 3.345452 1_555
Pr3 Te30 3.350065 1_555
Pr3 Te14 3.467186 1_555
Pr3 Te23 3.471349 1_565
Pr4 Te26 3.254962 1_455
Pr4 Te8 3.266940 1_555
Pr4 Te12 3.278191 1_565
Pr4 Te6 3.292400 1_465
Pr4 Te0 3.316097 1_555
Pr4 Te7 3.324946 1_555
Pr4 Te3 3.355089 1_455
Pr4 Te21 3.365780 1_555
Pr5 Te26 3.258998 1_555
Pr5 Te13 3.268358 1_555
Pr5 Te6 3.296197 1_555
Pr5 Te15 3.317864 1_555
Pr5 Te25 3.330153 1_555
Pr5 Te4 3.345452 1_555
Pr5 Te31 3.350065 1_555
Pr5 Te23 3.467186 1_555
Pr5 Te14 3.471349 1_555
Pr6 Te13 3.241163 1_565
Pr6 Te12 3.266113 1_565
Pr6 Te15 3.275995 1_555
Pr6 Te8 3.276552 1_555
Pr6 Te0 3.302488 1_555
Pr6 Te20 3.332051 1_555
Pr6 Te30 3.354433 1_555
Pr6 Te22 3.358475 1_565
Pr7 Te20 3.254962 1_555
Pr7 Te19 3.266940 1_555
Pr7 Te25 3.278191 1_555
Pr7 Te2 3.292400 1_555
Pr7 Te27 3.316097 1_555
Pr7 Te15 3.324946 1_555
Pr7 Te9 3.355089 1_555
Pr7 Te28 3.365780 1_555
Pr8 Te1 3.258998 1_555
Pr8 Te20 3.268358 1_555
Pr8 Te7 3.296197 1_555
Pr8 Te2 3.317864 1_555
Pr8 Te8 3.330153 1_555
Pr8 Te9 3.345452 1_555
Pr8 Te16 3.350065 1_555
Pr8 Te10 3.467186 1_555
Pr8 Te17 3.471349 1_555
Pr9 Te1 3.254962 1_655
Pr9 Te25 3.266940 1_555
Pr9 Te19 3.278191 1_545
Pr9 Te7 3.292400 1_645
Pr9 Te5 3.316097 1_555
Pr9 Te6 3.324946 1_555
Pr9 Te24 3.355089 1_655
Pr9 Te18 3.365780 1_555
Pr10 Te20 3.258998 1_545
Pr10 Te1 3.268358 1_555
Pr10 Te2 3.296197 1_555
Pr10 Te7 3.317864 1_545
Pr10 Te12 3.330153 1_555
Pr10 Te24 3.345452 1_555
Pr10 Te11 3.350065 1_555
Pr10 Te17 3.467186 1_555
Pr10 Te10 3.471349 1_545
Pr11 Te26 3.241163 1_455
Pr11 Te8 3.266113 1_555
Pr11 Te6 3.275995 1_455
Pr11 Te12 3.276552 1_555
Pr11 Te29 3.302488 1_555
Pr11 Te1 3.332051 1_555
Pr11 Te31 3.354433 1_455
Pr11 Te21 3.358475 1_555
Te0 Te21 3.007744 1_555
Te0 Te22 3.028344 1_565
Te10 Te16 2.855739 1_555
Te10 Te24 2.861683 1_565
Te10 Te11 3.487669 1_565
Te11 Te17 2.855739 1_555
Te11 Te28 3.313144 1_545
Te14 Te30 2.855739 1_555
Te14 Te4 2.861683 1_555
Te14 Te31 3.487669 1_555
Te16 Te18 3.313144 1_455
Te16 Te17 3.487669 1_555
Te17 Te9 2.861683 1_555
Te18 Te5 3.007744 1_555
Te18 Te27 3.028344 1_555
Te18 Te24 3.294595 1_655
Te21 Te29 3.028344 1_555
Te21 Te3 3.294595 1_455
Te21 Te31 3.313144 1_455
Te22 Te29 3.007744 1_555
Te22 Te4 3.294595 1_555
Te22 Te30 3.313144 1_545
Te23 Te31 2.855739 1_555
Te23 Te3 2.861683 1_545
Te23 Te30 3.487669 1_545
Te27 Te28 3.007744 1_555
Te28 Te5 3.028344 1_565
Te28 Te9 3.294595 1_555
