# generated using pymatgen
data_SrCa2WN4
_symmetry_space_group_name_H-M   'P 1'
_cell_length_a   9.35678300
_cell_length_b   10.22367400
_cell_length_c   11.40710600
_cell_angle_alpha   90.00000000
_cell_angle_beta   90.00000000
_cell_angle_gamma   90.00000000
_symmetry_Int_Tables_number   1
_chemical_formula_structural   SrCa2WN4
_chemical_formula_sum   'Sr8 Ca16 W8 N32'
_cell_volume   1091.21173445
_cell_formula_units_Z   8
loop_
 _symmetry_equiv_pos_site_id
 _symmetry_equiv_pos_as_xyz
  1  'x, y, z'
loop_
 _atom_site_type_symbol
 _atom_site_label
 _atom_site_symmetry_multiplicity
 _atom_site_fract_x
 _atom_site_fract_y
 _atom_site_fract_z
 _atom_site_occupancy
  Sr  Sr0  1  0.81163600  0.22075600  0.11801500  1
  Sr  Sr1  1  0.18836400  0.27924400  0.61801500  1
  Sr  Sr2  1  0.31163600  0.77924400  0.38198500  1
  Sr  Sr3  1  0.68836400  0.22075600  0.61801500  1
  Sr  Sr4  1  0.18836400  0.77924400  0.88198500  1
  Sr  Sr5  1  0.81163600  0.72075600  0.38198500  1
  Sr  Sr6  1  0.31163600  0.27924400  0.11801500  1
  Sr  Sr7  1  0.68836400  0.72075600  0.88198500  1
  Ca  Ca0  1  0.36841400  0.96641500  0.63934800  1
  Ca  Ca1  1  0.02812300  0.37837700  0.89816400  1
  Ca  Ca2  1  0.97187700  0.62162300  0.10183600  1
  Ca  Ca3  1  0.52812300  0.62162300  0.60183600  1
  Ca  Ca4  1  0.36841400  0.46641500  0.86065200  1
  Ca  Ca5  1  0.13158600  0.46641500  0.36065200  1
  Ca  Ca6  1  0.13158600  0.96641500  0.13934800  1
  Ca  Ca7  1  0.63158600  0.53358500  0.13934800  1
  Ca  Ca8  1  0.86841400  0.03358500  0.86065200  1
  Ca  Ca9  1  0.63158600  0.03358500  0.36065200  1
  Ca  Ca10  1  0.47187700  0.87837700  0.10183600  1
  Ca  Ca11  1  0.52812300  0.12162300  0.89816400  1
  Ca  Ca12  1  0.97187700  0.12162300  0.39816400  1
  Ca  Ca13  1  0.02812300  0.87837700  0.60183600  1
  Ca  Ca14  1  0.47187700  0.37837700  0.39816400  1
  Ca  Ca15  1  0.86841400  0.53358500  0.63934800  1
  W  W0  1  0.80851700  0.89853700  0.11209400  1
  W  W1  1  0.19148300  0.10146300  0.88790600  1
  W  W2  1  0.69148300  0.39853700  0.88790600  1
  W  W3  1  0.80851700  0.39853700  0.38790600  1
  W  W4  1  0.19148300  0.60146300  0.61209400  1
  W  W5  1  0.30851700  0.60146300  0.11209400  1
  W  W6  1  0.69148300  0.89853700  0.61209400  1
  W  W7  1  0.30851700  0.10146300  0.38790600  1
  N  N0  1  0.60504400  0.00058300  0.73029500  1
  N  N1  1  0.20632700  0.24312000  0.32468500  1
  N  N2  1  0.29367300  0.24312000  0.82468500  1
  N  N3  1  0.81739000  0.50667400  0.97375000  1
  N  N4  1  0.89495600  0.50058300  0.26970500  1
  N  N5  1  0.44713800  0.16215900  0.49513200  1
  N  N6  1  0.89495600  0.00058300  0.23029500  1
  N  N7  1  0.10504400  0.99941700  0.76970500  1
  N  N8  1  0.81739000  0.00667400  0.52625000  1
  N  N9  1  0.55286200  0.83784100  0.50486800  1
  N  N10  1  0.29367300  0.74312000  0.67531500  1
  N  N11  1  0.94713800  0.83784100  0.00486800  1
  N  N12  1  0.31739000  0.49332600  0.52625000  1
  N  N13  1  0.94713800  0.33784100  0.49513200  1
  N  N14  1  0.70632700  0.25688000  0.32468500  1
  N  N15  1  0.31739000  0.99332600  0.97375000  1
  N  N16  1  0.68261000  0.00667400  0.02625000  1
  N  N17  1  0.18261000  0.49332600  0.02625000  1
  N  N18  1  0.39495600  0.99941700  0.26970500  1
  N  N19  1  0.60504400  0.50058300  0.76970500  1
  N  N20  1  0.70632700  0.75688000  0.17531500  1
  N  N21  1  0.05286200  0.66215900  0.50486800  1
  N  N22  1  0.10504400  0.49941700  0.73029500  1
  N  N23  1  0.44713800  0.66215900  0.00486800  1
  N  N24  1  0.79367300  0.25688000  0.82468500  1
  N  N25  1  0.39495600  0.49941700  0.23029500  1
  N  N26  1  0.68261000  0.50667400  0.47375000  1
  N  N27  1  0.55286200  0.33784100  0.99513200  1
  N  N28  1  0.20632700  0.74312000  0.17531500  1
  N  N29  1  0.05286200  0.16215900  0.99513200  1
  N  N30  1  0.18261000  0.99332600  0.47375000  1
  N  N31  1  0.79367300  0.75688000  0.67531500  1
loop_
_geom_bond_atom_site_label_1
_geom_bond_atom_site_label_2
_geom_bond_distance
_geom_bond_site_symmetry_2
Ca0 N10 2.422604 1_555
Ca0 N0 2.469925 1_565
Ca0 N30 2.581951 1_555
Ca0 N9 2.657004 1_555
Ca0 N5 2.693286 1_565
Ca0 N7 2.897887 1_555
Ca1 N17 2.367564 1_556
Ca1 N22 2.390857 1_555
Ca1 N29 2.482658 1_555
Ca1 N3 2.520281 1_455
Ca1 N24 2.656649 1_455
Ca1 N2 2.964533 1_555
Ca2 N3 2.367564 1_554
Ca2 N4 2.390857 1_555
Ca2 N11 2.482658 1_555
Ca2 N17 2.520281 1_655
Ca2 N28 2.656649 1_655
Ca2 N20 2.964533 1_555
Ca3 N26 2.367564 1_555
Ca3 N19 2.390857 1_555
Ca3 N9 2.482658 1_555
Ca3 N12 2.520281 1_555
Ca3 N10 2.656649 1_555
Ca3 N31 2.964533 1_555
Ca4 N2 2.422604 1_555
Ca4 N19 2.469925 1_555
Ca4 N17 2.581951 1_556
Ca4 N27 2.657004 1_555
Ca4 N23 2.693286 1_556
Ca4 N22 2.897887 1_555
Ca5 N1 2.422604 1_555
Ca5 N4 2.469925 1_455
Ca5 N12 2.581951 1_555
Ca5 N13 2.657004 1_455
Ca5 N21 2.693286 1_555
Ca5 N25 2.897887 1_555
Ca6 N28 2.422604 1_555
Ca6 N6 2.469925 1_465
Ca6 N15 2.581951 1_554
Ca6 N11 2.657004 1_455
Ca6 N29 2.693286 1_564
Ca6 N18 2.897887 1_555
Ca7 N20 2.422604 1_555
Ca7 N25 2.469925 1_555
Ca7 N3 2.581951 1_554
Ca7 N23 2.657004 1_555
Ca7 N27 2.693286 1_554
Ca7 N4 2.897887 1_555
Ca8 N24 2.422604 1_555
Ca8 N7 2.469925 1_645
Ca8 N16 2.581951 1_556
Ca8 N29 2.657004 1_655
Ca8 N11 2.693286 1_546
Ca8 N0 2.897887 1_555
Ca9 N14 2.422604 1_555
Ca9 N18 2.469925 1_545
Ca9 N8 2.581951 1_555
Ca9 N5 2.657004 1_555
Ca9 N9 2.693286 1_545
Ca9 N6 2.897887 1_555
Ca10 N15 2.367564 1_554
Ca10 N18 2.390857 1_555
Ca10 N23 2.482658 1_555
Ca10 N16 2.520281 1_565
Ca10 N20 2.656649 1_555
Ca10 N28 2.964533 1_555
Ca11 N16 2.367564 1_556
Ca11 N0 2.390857 1_555
Ca11 N27 2.482658 1_555
Ca11 N15 2.520281 1_545
Ca11 N2 2.656649 1_555
Ca11 N24 2.964533 1_555
Ca12 N8 2.367564 1_555
Ca12 N6 2.390857 1_555
Ca12 N13 2.482658 1_555
Ca12 N30 2.520281 1_645
Ca12 N1 2.656649 1_655
Ca12 N14 2.964533 1_555
Ca13 N30 2.367564 1_555
Ca13 N7 2.390857 1_555
Ca13 N21 2.482658 1_555
Ca13 N8 2.520281 1_465
Ca13 N31 2.656649 1_455
Ca13 N10 2.964533 1_555
Ca14 N12 2.367564 1_555
Ca14 N25 2.390857 1_555
Ca14 N5 2.482658 1_555
Ca14 N26 2.520281 1_555
Ca14 N14 2.656649 1_555
Ca14 N1 2.964533 1_555
Ca15 N31 2.422604 1_555
Ca15 N22 2.469925 1_655
Ca15 N26 2.581951 1_555
Ca15 N21 2.657004 1_655
Ca15 N13 2.693286 1_555
Ca15 N19 2.897887 1_555
N0 W6 1.886951 1_545
N0 Sr3 2.704646 1_555
N1 W7 1.879305 1_555
N1 Sr6 2.581696 1_555
N2 W1 1.879305 1_555
N2 Sr1 2.581696 1_555
N3 W2 1.889189 1_555
N3 Sr7 2.709919 1_555
N4 W3 1.886951 1_555
N4 Sr5 2.704646 1_555
N5 W7 1.887714 1_555
N5 Sr3 2.723649 1_555
N5 Sr1 3.043096 1_555
N6 W0 1.886951 1_545
N6 Sr0 2.704646 1_555
N7 W1 1.886951 1_565
N7 Sr4 2.704646 1_555
N8 W6 1.889189 1_545
N8 Sr3 2.709919 1_555
N9 W6 1.887714 1_555
N9 Sr2 2.723649 1_555
N9 Sr5 3.043096 1_555
N10 W4 1.879305 1_555
N10 Sr4 2.581696 1_555
N11 W0 1.887714 1_555
N11 Sr4 2.723649 1_654
N11 Sr7 3.043096 1_554
N12 W4 1.889189 1_555
N12 Sr1 2.709919 1_555
N13 W3 1.887714 1_555
N13 Sr1 2.723649 1_655
N13 Sr3 3.043096 1_555
N14 W3 1.879305 1_555
N14 Sr0 2.581696 1_555
N15 W1 1.889189 1_565
N15 Sr4 2.709919 1_555
N16 W0 1.889189 1_545
N16 Sr0 2.709919 1_555
N17 W5 1.889189 1_555
N17 Sr6 2.709919 1_555
N18 W7 1.886951 1_565
N18 Sr2 2.704646 1_555
N19 W2 1.886951 1_555
N19 Sr7 2.704646 1_555
N20 W0 1.879305 1_555
N20 Sr5 2.581696 1_555
N21 W4 1.887714 1_555
N21 Sr5 2.723649 1_455
N21 Sr2 3.043096 1_555
N22 W4 1.886951 1_555
N22 Sr1 2.704646 1_555
N23 W5 1.887714 1_555
N23 Sr7 2.723649 1_554
N23 Sr4 3.043096 1_554
N24 W2 1.879305 1_555
N24 Sr3 2.581696 1_555
N25 W5 1.886951 1_555
N25 Sr6 2.704646 1_555
N26 W3 1.889189 1_555
N26 Sr5 2.709919 1_555
N27 W2 1.887714 1_555
N27 Sr6 2.723649 1_556
N27 Sr0 3.043096 1_556
N28 W5 1.879305 1_555
N28 Sr2 2.581696 1_555
N29 W1 1.887714 1_555
N29 Sr0 2.723649 1_456
N29 Sr6 3.043096 1_556
N30 W7 1.889189 1_565
N30 Sr2 2.709919 1_555
N31 W6 1.879305 1_555
N31 Sr7 2.581696 1_555
