# generated using pymatgen
data_RbTaN2
_symmetry_space_group_name_H-M   'P 1'
_cell_length_a   6.04051903
_cell_length_b   12.11815914
_cell_length_c   17.07489533
_cell_angle_alpha   90.00000000
_cell_angle_beta   90.00000000
_cell_angle_gamma   90.00000000
_symmetry_Int_Tables_number   1
_chemical_formula_structural   RbTaN2
_chemical_formula_sum   'Rb16 Ta16 N32'
_cell_volume   1249.88184117
_cell_formula_units_Z   16
loop_
 _symmetry_equiv_pos_site_id
 _symmetry_equiv_pos_as_xyz
  1  'x, y, z'
loop_
 _atom_site_type_symbol
 _atom_site_label
 _atom_site_symmetry_multiplicity
 _atom_site_fract_x
 _atom_site_fract_y
 _atom_site_fract_z
 _atom_site_occupancy
  Rb  Rb0  1  0.21218940  0.74194793  0.81446855  1
  Rb  Rb1  1  0.21218940  0.75805207  0.31446855  1
  Rb  Rb2  1  0.24429705  0.50298425  0.43847073  1
  Rb  Rb3  1  0.28781060  0.24194793  0.81446855  1
  Rb  Rb4  1  0.78781060  0.25805207  0.18553145  1
  Rb  Rb5  1  0.75570295  0.49701575  0.56152927  1
  Rb  Rb6  1  0.25570295  0.49701575  0.93847073  1
  Rb  Rb7  1  0.74429705  0.99701575  0.56152927  1
  Rb  Rb8  1  0.74429705  0.50298425  0.06152927  1
  Rb  Rb9  1  0.25570295  0.00298425  0.43847073  1
  Rb  Rb10  1  0.75570295  0.00298425  0.06152927  1
  Rb  Rb11  1  0.71218940  0.75805207  0.18553145  1
  Rb  Rb12  1  0.28781060  0.25805207  0.31446855  1
  Rb  Rb13  1  0.71218940  0.74194793  0.68553145  1
  Rb  Rb14  1  0.24429705  0.99701575  0.93847073  1
  Rb  Rb15  1  0.78781060  0.24194793  0.68553145  1
  Ta  Ta0  1  0.27324756  0.26199296  0.06342231  1
  Ta  Ta1  1  0.22675244  0.73800704  0.56342231  1
  Ta  Ta2  1  0.75718656  0.00737712  0.31144801  1
  Ta  Ta3  1  0.27324756  0.23800704  0.56342231  1
  Ta  Ta4  1  0.25718656  0.49262288  0.68855199  1
  Ta  Ta5  1  0.72675244  0.73800704  0.93657769  1
  Ta  Ta6  1  0.74281344  0.99262288  0.81144801  1
  Ta  Ta7  1  0.25718656  0.00737712  0.18855199  1
  Ta  Ta8  1  0.22675244  0.76199296  0.06342231  1
  Ta  Ta9  1  0.77324756  0.23800704  0.93657769  1
  Ta  Ta10  1  0.24281344  0.50737712  0.18855199  1
  Ta  Ta11  1  0.24281344  0.99262288  0.68855199  1
  Ta  Ta12  1  0.74281344  0.50737712  0.31144801  1
  Ta  Ta13  1  0.75718656  0.49262288  0.81144801  1
  Ta  Ta14  1  0.77324756  0.26199296  0.43657769  1
  Ta  Ta15  1  0.72675244  0.76199296  0.43657769  1
  N  N0  1  0.45542832  0.51402443  0.77623678  1
  N  N1  1  0.79572070  0.15492789  0.35271189  1
  N  N2  1  0.44114027  0.78415423  0.48550528  1
  N  N3  1  0.54457168  0.48597557  0.22376322  1
  N  N4  1  0.95542832  0.98597557  0.22376322  1
  N  N5  1  0.95542832  0.51402443  0.72376322  1
  N  N6  1  0.05885973  0.28415423  0.48550528  1
  N  N7  1  0.94114027  0.78415423  0.01449472  1
  N  N8  1  0.94114027  0.71584577  0.51449472  1
  N  N9  1  0.70427930  0.84507211  0.85271189  1
  N  N10  1  0.20427930  0.84507211  0.64728811  1
  N  N11  1  0.44114027  0.71584577  0.98550528  1
  N  N12  1  0.32352093  0.90104564  0.10712838  1
  N  N13  1  0.04457168  0.48597557  0.27623678  1
  N  N14  1  0.29572070  0.15492789  0.14728811  1
  N  N15  1  0.32352093  0.59895436  0.60712838  1
  N  N16  1  0.82352093  0.90104564  0.39287162  1
  N  N17  1  0.45542832  0.98597557  0.27623678  1
  N  N18  1  0.67647907  0.40104564  0.39287162  1
  N  N19  1  0.04457168  0.01402443  0.77623678  1
  N  N20  1  0.54457168  0.01402443  0.72376322  1
  N  N21  1  0.79572070  0.34507211  0.85271189  1
  N  N22  1  0.67647907  0.09895436  0.89287162  1
  N  N23  1  0.29572070  0.34507211  0.64728811  1
  N  N24  1  0.17647907  0.09895436  0.60712838  1
  N  N25  1  0.55885973  0.21584577  0.51449472  1
  N  N26  1  0.17647907  0.40104564  0.10712838  1
  N  N27  1  0.05885973  0.21584577  0.98550528  1
  N  N28  1  0.70427930  0.65492789  0.35271189  1
  N  N29  1  0.82352093  0.59895436  0.89287162  1
  N  N30  1  0.20427930  0.65492789  0.14728811  1
  N  N31  1  0.55885973  0.28415423  0.01449472  1
loop_
_geom_bond_atom_site_label_1
_geom_bond_atom_site_label_2
_geom_bond_distance
_geom_bond_site_symmetry_2
N0 Ta4 1.934647 1_555
N0 Ta13 1.936814 1_555
N0 Rb6 3.028465 1_555
N0 Rb0 3.195885 1_555
N0 Rb3 3.510264 1_555
N0 Rb13 3.526040 1_555
N1 Ta2 1.935900 1_555
N1 Ta14 1.937106 1_555
N1 Rb4 3.116512 1_555
N1 Rb12 3.289943 1_655
N1 Rb12 3.376533 1_555
N2 Ta15 1.935599 1_555
N2 Ta1 1.939025 1_555
N2 Rb9 2.988616 1_565
N2 Rb1 3.246787 1_555
N2 Rb7 3.419389 1_555
N3 Ta12 1.934647 1_555
N3 Ta10 1.936814 1_555
N3 Rb8 3.028465 1_555
N3 Rb4 3.195885 1_555
N3 Rb11 3.510264 1_555
N3 Rb12 3.526040 1_555
N4 Ta2 1.934647 1_565
N4 Ta7 1.936814 1_665
N4 Rb10 3.028465 1_565
N4 Rb11 3.195885 1_555
N4 Rb4 3.510264 1_565
N4 Rb1 3.526040 1_655
N5 Ta13 1.934647 1_555
N5 Ta4 1.936814 1_655
N5 Rb5 3.028465 1_555
N5 Rb13 3.195885 1_555
N5 Rb15 3.510264 1_555
N5 Rb0 3.526040 1_655
N6 Ta14 1.935599 1_455
N6 Ta3 1.939025 1_555
N6 Rb2 2.988616 1_555
N6 Rb12 3.246787 1_555
N6 Rb5 3.419389 1_455
N7 Ta8 1.935599 1_655
N7 Ta5 1.939025 1_554
N7 Rb10 2.988616 1_565
N7 Rb11 3.246787 1_555
N7 Rb14 3.419389 1_654
N8 Ta1 1.935599 1_655
N8 Ta15 1.939025 1_555
N8 Rb5 2.988616 1_555
N8 Rb13 3.246787 1_555
N8 Rb2 3.419389 1_655
N9 Ta6 1.935900 1_555
N9 Ta5 1.937106 1_555
N9 Rb13 3.116512 1_555
N9 Rb0 3.289943 1_555
N9 Rb0 3.376533 1_655
N10 Ta11 1.935900 1_555
N10 Ta1 1.937106 1_555
N10 Rb0 3.116512 1_555
N10 Rb13 3.289943 1_455
N10 Rb13 3.376533 1_555
N11 Ta5 1.935599 1_555
N11 Ta8 1.939025 1_556
N11 Rb6 2.988616 1_555
N11 Rb0 3.246787 1_555
N11 Rb8 3.419389 1_556
N12 Ta8 1.933402 1_555
N12 Ta7 1.937480 1_565
N12 Rb10 2.991230 1_565
N12 Rb14 3.142428 1_554
N12 Rb11 3.210423 1_555
N13 Ta10 1.934647 1_555
N13 Ta12 1.936814 1_455
N13 Rb2 3.028465 1_555
N13 Rb12 3.195885 1_555
N13 Rb1 3.510264 1_555
N13 Rb4 3.526040 1_455
N14 Ta7 1.935900 1_555
N14 Ta0 1.937106 1_555
N14 Rb12 3.116512 1_555
N14 Rb4 3.289943 1_555
N14 Rb4 3.376533 1_455
N15 Ta1 1.933402 1_555
N15 Ta4 1.937480 1_555
N15 Rb5 2.991230 1_555
N15 Rb2 3.142428 1_555
N15 Rb13 3.210423 1_555
N16 Ta15 1.933402 1_555
N16 Ta2 1.937480 1_565
N16 Rb9 2.991230 1_665
N16 Rb7 3.142428 1_555
N16 Rb1 3.210423 1_655
N17 Ta7 1.934647 1_565
N17 Ta2 1.936814 1_565
N17 Rb9 3.028465 1_565
N17 Rb1 3.195885 1_555
N17 Rb12 3.510264 1_565
N17 Rb11 3.526040 1_555
N18 Ta14 1.933402 1_555
N18 Ta12 1.937480 1_555
N18 Rb2 2.991230 1_555
N18 Rb5 3.142428 1_555
N18 Rb12 3.210423 1_555
N19 Ta11 1.934647 1_545
N19 Ta6 1.936814 1_445
N19 Rb14 3.028465 1_545
N19 Rb3 3.195885 1_555
N19 Rb0 3.510264 1_545
N19 Rb15 3.526040 1_455
N20 Ta6 1.934647 1_545
N20 Ta11 1.936814 1_545
N20 Rb7 3.028465 1_545
N20 Rb15 3.195885 1_555
N20 Rb13 3.510264 1_545
N20 Rb3 3.526040 1_555
N21 Ta13 1.935900 1_555
N21 Ta9 1.937106 1_555
N21 Rb15 3.116512 1_555
N21 Rb3 3.289943 1_655
N21 Rb3 3.376533 1_555
N22 Ta9 1.933402 1_555
N22 Ta6 1.937480 1_545
N22 Rb14 2.991230 1_545
N22 Rb10 3.142428 1_556
N22 Rb3 3.210423 1_555
N23 Ta4 1.935900 1_555
N23 Ta3 1.937106 1_555
N23 Rb3 3.116512 1_555
N23 Rb15 3.289943 1_555
N23 Rb15 3.376533 1_455
N24 Ta3 1.933402 1_555
N24 Ta11 1.937480 1_545
N24 Rb7 2.991230 1_445
N24 Rb9 3.142428 1_555
N24 Rb15 3.210423 1_455
N25 Ta3 1.935599 1_555
N25 Ta14 1.939025 1_555
N25 Rb7 2.988616 1_545
N25 Rb15 3.246787 1_555
N25 Rb9 3.419389 1_555
N26 Ta0 1.933402 1_555
N26 Ta10 1.937480 1_555
N26 Rb8 2.991230 1_455
N26 Rb6 3.142428 1_554
N26 Rb4 3.210423 1_455
N27 Ta9 1.935599 1_455
N27 Ta0 1.939025 1_556
N27 Rb14 2.988616 1_545
N27 Rb3 3.246787 1_555
N27 Rb10 3.419389 1_456
N28 Ta12 1.935900 1_555
N28 Ta15 1.937106 1_555
N28 Rb11 3.116512 1_555
N28 Rb1 3.289943 1_555
N28 Rb1 3.376533 1_655
N29 Ta5 1.933402 1_555
N29 Ta13 1.937480 1_555
N29 Rb6 2.991230 1_655
N29 Rb8 3.142428 1_556
N29 Rb0 3.210423 1_655
N30 Ta10 1.935900 1_555
N30 Ta8 1.937106 1_555
N30 Rb1 3.116512 1_555
N30 Rb11 3.289943 1_455
N30 Rb11 3.376533 1_555
N31 Ta0 1.935599 1_555
N31 Ta9 1.939025 1_554
N31 Rb8 2.988616 1_555
N31 Rb4 3.246787 1_555
N31 Rb6 3.419389 1_554
