# generated using pymatgen
data_Rb4SnSb6
_symmetry_space_group_name_H-M   'P 1'
_cell_length_a   15.30979577
_cell_length_b   15.30979577
_cell_length_c   14.74155400
_cell_angle_alpha   90.00000000
_cell_angle_beta   90.00000000
_cell_angle_gamma   119.99999902
_symmetry_Int_Tables_number   1
_chemical_formula_structural   Rb4SnSb6
_chemical_formula_sum   'Rb24 Sn6 Sb36'
_cell_volume   2992.35212941
_cell_formula_units_Z   6
loop_
 _symmetry_equiv_pos_site_id
 _symmetry_equiv_pos_as_xyz
  1  'x, y, z'
loop_
 _atom_site_type_symbol
 _atom_site_label
 _atom_site_symmetry_multiplicity
 _atom_site_fract_x
 _atom_site_fract_y
 _atom_site_fract_z
 _atom_site_occupancy
  Rb  Rb0  1  0.33333300  0.66666700  0.50048100  1
  Rb  Rb1  1  0.66666700  0.33333300  0.49951900  1
  Rb  Rb2  1  0.38656800  0.35623500  0.54556400  1
  Rb  Rb3  1  0.64376500  0.03033300  0.54556400  1
  Rb  Rb4  1  0.96966700  0.61343200  0.54556400  1
  Rb  Rb5  1  0.61343200  0.64376500  0.45443600  1
  Rb  Rb6  1  0.35623500  0.96966700  0.45443600  1
  Rb  Rb7  1  0.03033300  0.38656800  0.45443600  1
  Rb  Rb8  1  0.32888400  0.23271600  0.85132500  1
  Rb  Rb9  1  0.76728400  0.09616700  0.85132500  1
  Rb  Rb10  1  0.90383300  0.67111600  0.85132500  1
  Rb  Rb11  1  0.67111600  0.76728400  0.14867500  1
  Rb  Rb12  1  0.23271600  0.90383300  0.14867500  1
  Rb  Rb13  1  0.09616700  0.32888400  0.14867500  1
  Rb  Rb14  1  0.29755000  0.48358100  0.88104000  1
  Rb  Rb15  1  0.51641900  0.81397000  0.88104000  1
  Rb  Rb16  1  0.18603000  0.70245000  0.88104000  1
  Rb  Rb17  1  0.70245000  0.51641900  0.11896000  1
  Rb  Rb18  1  0.48358100  0.18603000  0.11896000  1
  Rb  Rb19  1  0.81397000  0.29755000  0.11896000  1
  Rb  Rb20  1  0.00000000  0.00000000  0.00000000  1
  Rb  Rb21  1  0.00000000  0.00000000  0.50000000  1
  Rb  Rb22  1  0.33333300  0.66666700  0.20424100  1
  Rb  Rb23  1  0.66666700  0.33333300  0.79575900  1
  Sn  Sn0  1  0.45468800  0.48980900  0.22937800  1
  Sn  Sn1  1  0.51019100  0.96487900  0.22937800  1
  Sn  Sn2  1  0.03512100  0.54531200  0.22937800  1
  Sn  Sn3  1  0.54531200  0.51019100  0.77062200  1
  Sn  Sn4  1  0.48980900  0.03512100  0.77062200  1
  Sn  Sn5  1  0.96487900  0.45468800  0.77062200  1
  Sb  Sb0  1  0.52042200  0.36359300  0.31602000  1
  Sb  Sb1  1  0.63640700  0.15682900  0.31602000  1
  Sb  Sb2  1  0.84317100  0.47957800  0.31602000  1
  Sb  Sb3  1  0.47957800  0.63640700  0.68398000  1
  Sb  Sb4  1  0.36359300  0.84317100  0.68398000  1
  Sb  Sb5  1  0.15682900  0.52042200  0.68398000  1
  Sb  Sb6  1  0.28437100  0.44002700  0.34576800  1
  Sb  Sb7  1  0.55997300  0.84434400  0.34576800  1
  Sb  Sb8  1  0.15565600  0.71562900  0.34576800  1
  Sb  Sb9  1  0.71562900  0.55997300  0.65423200  1
  Sb  Sb10  1  0.44002700  0.15565600  0.65423200  1
  Sb  Sb11  1  0.84434400  0.28437100  0.65423200  1
  Sb  Sb12  1  0.35619700  0.35805000  0.07746500  1
  Sb  Sb13  1  0.64195000  0.99814700  0.07746500  1
  Sb  Sb14  1  0.00185300  0.64380300  0.07746500  1
  Sb  Sb15  1  0.64380300  0.64195000  0.92253500  1
  Sb  Sb16  1  0.35805000  0.00185300  0.92253500  1
  Sb  Sb17  1  0.99814700  0.35619700  0.92253500  1
  Sb  Sb18  1  0.22747900  0.17524800  0.16331400  1
  Sb  Sb19  1  0.82475200  0.05223100  0.16331400  1
  Sb  Sb20  1  0.94776900  0.77252100  0.16331400  1
  Sb  Sb21  1  0.77252100  0.82475200  0.83668600  1
  Sb  Sb22  1  0.17524800  0.94776900  0.83668600  1
  Sb  Sb23  1  0.05223100  0.22747900  0.83668600  1
  Sb  Sb24  1  0.34116300  0.17969700  0.32834600  1
  Sb  Sb25  1  0.82030300  0.16146600  0.32834600  1
  Sb  Sb26  1  0.83853400  0.65883700  0.32834600  1
  Sb  Sb27  1  0.65883700  0.82030300  0.67165400  1
  Sb  Sb28  1  0.17969700  0.83853400  0.67165400  1
  Sb  Sb29  1  0.16146600  0.34116300  0.67165400  1
  Sb  Sb30  1  0.18015800  0.22961600  0.34278100  1
  Sb  Sb31  1  0.77038400  0.95054200  0.34278100  1
  Sb  Sb32  1  0.04945800  0.81984200  0.34278100  1
  Sb  Sb33  1  0.81984200  0.77038400  0.65721900  1
  Sb  Sb34  1  0.22961600  0.04945800  0.65721900  1
  Sb  Sb35  1  0.95054200  0.18015800  0.65721900  1
loop_
_geom_bond_atom_site_label_1
_geom_bond_atom_site_label_2
_geom_bond_distance
_geom_bond_site_symmetry_2
Rb0 Sb4 3.685403 1_555
Rb0 Sb5 3.685407 1_555
Rb0 Sb3 3.685414 1_555
Rb0 Sb8 3.898983 1_555
Rb0 Sb7 3.898992 1_555
Rb0 Sb6 3.898996 1_555
Rb1 Sb1 3.685403 1_555
Rb1 Sb2 3.685407 1_555
Rb1 Sb0 3.685414 1_555
Rb1 Sb11 3.898983 1_555
Rb1 Sb10 3.898992 1_555
Rb1 Sb9 3.898996 1_555
Rb2 Sb29 3.819655 1_555
Rb2 Sb6 3.843912 1_555
Rb2 Sb10 3.896064 1_555
Rb2 Sb0 3.928323 1_555
Rb2 Sb24 4.020321 1_555
Rb2 Sb30 4.068695 1_555
Rb2 Sn3 4.091568 1_555
Rb3 Sb27 3.819655 1_545
Rb3 Sb7 3.843912 1_545
Rb3 Sb11 3.896064 1_555
Rb3 Sb1 3.928323 1_555
Rb3 Sb25 4.020321 1_555
Rb3 Sb31 4.068695 1_545
Rb3 Sn4 4.091568 1_555
Rb4 Sb28 3.819655 1_655
Rb4 Sb8 3.843912 1_655
Rb4 Sb9 3.896064 1_555
Rb4 Sb2 3.928323 1_555
Rb4 Sb26 4.020321 1_555
Rb4 Sb32 4.068695 1_655
Rb4 Sn5 4.091568 1_555
Rb5 Sb26 3.819655 1_555
Rb5 Sb9 3.843912 1_555
Rb5 Sb7 3.896064 1_555
Rb5 Sb3 3.928323 1_555
Rb5 Sb27 4.020321 1_555
Rb5 Sb33 4.068695 1_555
Rb5 Sn0 4.091568 1_555
Rb6 Sb24 3.819655 1_565
Rb6 Sb10 3.843912 1_565
Rb6 Sb8 3.896064 1_555
Rb6 Sb4 3.928323 1_555
Rb6 Sb28 4.020321 1_555
Rb6 Sb34 4.068695 1_565
Rb6 Sn1 4.091568 1_555
Rb7 Sb25 3.819655 1_455
Rb7 Sb11 3.843912 1_455
Rb7 Sb6 3.896064 1_555
Rb7 Sb5 3.928323 1_555
Rb7 Sb29 4.020321 1_555
Rb7 Sb35 4.068695 1_455
Rb7 Sn2 4.091568 1_555
Rb8 Sb34 3.755682 1_555
Rb8 Sb12 3.763997 1_556
Rb8 Sb22 3.788034 1_545
Rb8 Sb10 3.838800 1_555
Rb8 Sb16 3.920718 1_555
Rb8 Sn3 4.045339 1_555
Rb8 Sb23 4.201533 1_555
Rb9 Sb35 3.755682 1_555
Rb9 Sb13 3.763995 1_546
Rb9 Sb23 3.788033 1_655
Rb9 Sb11 3.838809 1_555
Rb9 Sb17 3.920726 1_555
Rb9 Sn4 4.045343 1_555
Rb9 Sb21 4.201517 1_545
Rb10 Sb33 3.755690 1_555
Rb10 Sb14 3.763990 1_656
Rb10 Sb21 3.788047 1_555
Rb10 Sb9 3.838808 1_555
Rb10 Sb15 3.920732 1_555
Rb10 Sn5 4.045329 1_555
Rb10 Sb22 4.201525 1_655
Rb11 Sb31 3.755682 1_555
Rb11 Sb15 3.763997 1_554
Rb11 Sb19 3.788034 1_565
Rb11 Sb7 3.838800 1_555
Rb11 Sb13 3.920718 1_555
Rb11 Sn0 4.045339 1_555
Rb11 Sb20 4.201533 1_555
Rb12 Sb32 3.755682 1_555
Rb12 Sb16 3.763995 1_564
Rb12 Sb20 3.788033 1_455
Rb12 Sb8 3.838809 1_555
Rb12 Sb14 3.920726 1_555
Rb12 Sn1 4.045343 1_555
Rb12 Sb18 4.201517 1_565
Rb13 Sb30 3.755690 1_555
Rb13 Sb17 3.763990 1_454
Rb13 Sb18 3.788047 1_555
Rb13 Sb6 3.838808 1_555
Rb13 Sb12 3.920732 1_555
Rb13 Sn2 4.045329 1_555
Rb13 Sb19 4.201525 1_455
Rb14 Sb29 3.752284 1_555
Rb14 Sb12 3.822282 1_556
Rb14 Sb5 3.822775 1_555
Rb14 Sb3 3.893473 1_555
Rb14 Sb23 3.896243 1_555
Rb14 Sn3 3.957072 1_555
Rb14 Sb17 4.031046 1_455
Rb15 Sb27 3.752288 1_555
Rb15 Sb13 3.822274 1_556
Rb15 Sb3 3.822785 1_555
Rb15 Sb4 3.893467 1_555
Rb15 Sb21 3.896250 1_555
Rb15 Sn4 3.957058 1_565
Rb15 Sb15 4.031059 1_555
Rb16 Sb28 3.752279 1_555
Rb16 Sb14 3.822272 1_556
Rb16 Sb4 3.822782 1_555
Rb16 Sb5 3.893477 1_555
Rb16 Sb22 3.896235 1_555
Rb16 Sn5 3.957067 1_455
Rb16 Sb16 4.031047 1_565
Rb17 Sb26 3.752284 1_555
Rb17 Sb15 3.822282 1_554
Rb17 Sb2 3.822775 1_555
Rb17 Sb0 3.893473 1_555
Rb17 Sb20 3.896243 1_555
Rb17 Sn0 3.957072 1_555
Rb17 Sb14 4.031046 1_655
Rb18 Sb24 3.752288 1_555
Rb18 Sb16 3.822274 1_554
Rb18 Sb0 3.822785 1_555
Rb18 Sb1 3.893467 1_555
Rb18 Sb18 3.896250 1_555
Rb18 Sn1 3.957058 1_545
Rb18 Sb12 4.031059 1_555
Rb19 Sb25 3.752279 1_555
Rb19 Sb17 3.822272 1_554
Rb19 Sb1 3.822782 1_555
Rb19 Sb2 3.893477 1_555
Rb19 Sb19 3.896235 1_555
Rb19 Sn2 3.957067 1_655
Rb19 Sb13 4.031047 1_545
Rb20 Sb22 3.972343 1_544
Rb20 Sb19 3.972343 1_455
Rb20 Sb20 3.972343 1_445
Rb20 Sb23 3.972343 1_554
Rb20 Sb18 3.972343 1_555
Rb20 Sb21 3.972343 1_444
Rb21 Sb35 3.954857 1_455
Rb21 Sb32 3.954857 1_545
Rb21 Sb31 3.954857 1_445
Rb21 Sb34 3.954857 1_555
Rb21 Sb30 3.954857 1_555
Rb21 Sb33 3.954857 1_445
Rb22 Sb8 3.788561 1_555
Rb22 Sb7 3.788570 1_555
Rb22 Sb6 3.788574 1_555
Rb22 Sn2 3.993884 1_555
Rb22 Sn1 3.993885 1_555
Rb22 Sn0 3.993898 1_555
Rb23 Sb11 3.788561 1_555
Rb23 Sb10 3.788570 1_555
Rb23 Sb9 3.788574 1_555
Rb23 Sn5 3.993884 1_555
Rb23 Sn4 3.993885 1_555
Rb23 Sn3 3.993898 1_555
Sb0 Sb24 2.786525 1_555
Sb0 Sn0 2.884913 1_555
Sb1 Sb25 2.786525 1_555
Sb1 Sn1 2.884913 1_545
Sb2 Sb26 2.786525 1_555
Sb2 Sn2 2.884913 1_655
Sb3 Sn3 2.884913 1_555
Sb4 Sn4 2.884913 1_565
Sb5 Sn5 2.884913 1_455
Sb6 Sn0 2.887311 1_555
Sb7 Sn1 2.887311 1_555
Sb8 Sn2 2.887311 1_555
Sb9 Sn3 2.887311 1_555
Sb10 Sb34 2.790159 1_555
Sb10 Sn4 2.887311 1_555
Sb11 Sb35 2.790159 1_555
Sb11 Sn5 2.887311 1_555
Sb12 Sb18 2.793276 1_555
Sb12 Sn0 2.883777 1_555
Sb13 Sb19 2.793276 1_565
Sb13 Sn1 2.883777 1_555
Sb14 Sb20 2.793276 1_455
Sb14 Sn2 2.883777 1_555
Sb15 Sb21 2.793276 1_555
Sb15 Sn3 2.883777 1_555
Sb16 Sb22 2.793276 1_545
Sb16 Sn4 2.883777 1_555
Sb17 Sb23 2.793276 1_655
Sb17 Sn5 2.883777 1_555
Sb18 Sb30 2.969855 1_555
Sb18 Sb24 2.972206 1_555
Sb19 Sb31 2.969855 1_545
Sb19 Sb25 2.972206 1_555
Sb20 Sb32 2.969855 1_655
Sb20 Sb26 2.972206 1_555
Sb21 Sb33 2.969855 1_555
Sb21 Sb27 2.972206 1_555
Sb22 Sb34 2.969855 1_565
Sb22 Sb28 2.972206 1_555
Sb23 Sb35 2.969855 1_455
Sb23 Sb29 2.972206 1_555
Sb24 Sb30 2.930733 1_555
Sb25 Sb31 2.930733 1_545
Sb26 Sb32 2.930733 1_655
Sb27 Sb3 2.786525 1_555
Sb27 Sb33 2.930733 1_555
Sb28 Sb4 2.786525 1_555
Sb28 Sb34 2.930733 1_565
Sb29 Sb5 2.786525 1_555
Sb29 Sb35 2.930733 1_455
Sb30 Sb6 2.790159 1_555
Sb31 Sb7 2.790159 1_555
Sb32 Sb8 2.790159 1_555
Sb33 Sb9 2.790159 1_555
