# generated using pymatgen
data_Li2Cr3(P2O7)2
_symmetry_space_group_name_H-M   'P 1'
_cell_length_a   8.11352800
_cell_length_b   7.39826900
_cell_length_c   9.62549139
_cell_angle_alpha   71.49105044
_cell_angle_beta   90.00000000
_cell_angle_gamma   90.00000000
_symmetry_Int_Tables_number   1
_chemical_formula_structural   Li2Cr3(P2O7)2
_chemical_formula_sum   'Li4 Cr6 P8 O28'
_cell_volume   547.89412985
_cell_formula_units_Z   2
loop_
 _symmetry_equiv_pos_site_id
 _symmetry_equiv_pos_as_xyz
  1  'x, y, z'
loop_
 _atom_site_type_symbol
 _atom_site_label
 _atom_site_symmetry_multiplicity
 _atom_site_fract_x
 _atom_site_fract_y
 _atom_site_fract_z
 _atom_site_occupancy
  Li  Li0  1  0.58134200  0.29598300  0.14276200  1
  Li  Li1  1  0.08134200  0.70401700  0.35723800  1
  Li  Li2  1  0.91865800  0.29598300  0.64276200  1
  Li  Li3  1  0.41865800  0.70401700  0.85723800  1
  Cr  Cr0  1  0.37288700  0.80503400  0.51892500  1
  Cr  Cr1  1  0.87288700  0.19496600  0.98107500  1
  Cr  Cr2  1  0.12711300  0.80503400  0.01892500  1
  Cr  Cr3  1  0.00000000  0.00000000  0.50000000  1
  Cr  Cr4  1  0.62711300  0.19496600  0.48107500  1
  Cr  Cr5  1  0.50000000  0.00000000  0.00000000  1
  P  P0  1  0.45735200  0.59735200  0.28266800  1
  P  P1  1  0.71029100  0.89098900  0.30168000  1
  P  P2  1  0.04264800  0.59735200  0.78266800  1
  P  P3  1  0.54264800  0.40264800  0.71733200  1
  P  P4  1  0.78970900  0.89098900  0.80168000  1
  P  P5  1  0.95735200  0.40264800  0.21733200  1
  P  P6  1  0.28970900  0.10901100  0.69832000  1
  P  P7  1  0.21029100  0.10901100  0.19832000  1
  O  O0  1  0.12095800  0.14703400  0.62511200  1
  O  O1  1  0.90320100  0.29782500  0.37405400  1
  O  O2  1  0.36514200  0.31313800  0.68777300  1
  O  O3  1  0.63485800  0.68686200  0.31222700  1
  O  O4  1  0.99708000  0.38854400  0.80617500  1
  O  O5  1  0.49708000  0.61145600  0.69382500  1
  O  O6  1  0.86514200  0.68686200  0.81222700  1
  O  O7  1  0.40689000  0.01247600  0.61902000  1
  O  O8  1  0.09679900  0.70217500  0.62594600  1
  O  O9  1  0.90689000  0.98752400  0.88098000  1
  O  O10  1  0.66471800  0.37561600  0.60338700  1
  O  O11  1  0.00292000  0.61145600  0.19382500  1
  O  O12  1  0.59679900  0.29782500  0.87405400  1
  O  O13  1  0.33528200  0.62438400  0.39661300  1
  O  O14  1  0.78736200  0.00584600  0.63569900  1
  O  O15  1  0.59311000  0.98752400  0.38098000  1
  O  O16  1  0.40320100  0.70217500  0.12594600  1
  O  O17  1  0.71263800  0.00584600  0.13569900  1
  O  O18  1  0.50292000  0.38854400  0.30617500  1
  O  O19  1  0.87904200  0.85296600  0.37488800  1
  O  O20  1  0.21263800  0.99415400  0.36430100  1
  O  O21  1  0.62095800  0.85296600  0.87488800  1
  O  O22  1  0.37904200  0.14703400  0.12511200  1
  O  O23  1  0.83528200  0.37561600  0.10338700  1
  O  O24  1  0.09311000  0.01247600  0.11902000  1
  O  O25  1  0.13485800  0.31313800  0.18777300  1
  O  O26  1  0.16471800  0.62438400  0.89661300  1
  O  O27  1  0.28736200  0.99415400  0.86430100  1
loop_
_geom_bond_atom_site_label_1
_geom_bond_atom_site_label_2
_geom_bond_distance
_geom_bond_site_symmetry_2
Li0 O18 2.007928 1_555
Li0 O22 2.013985 1_555
Li0 O23 2.143364 1_555
Li0 O17 2.416525 1_555
Li0 O12 2.585196 1_554
Li1 O11 2.007928 1_555
Li1 O19 2.013985 1_455
Li1 O13 2.143364 1_555
Li1 O20 2.416525 1_555
Li1 O8 2.585196 1_555
Li2 O4 2.007928 1_555
Li2 O0 2.013985 1_655
Li2 O10 2.143364 1_555
Li2 O14 2.416525 1_555
Li2 O1 2.585196 1_555
Li3 O5 2.007928 1_555
Li3 O21 2.013985 1_555
Li3 O26 2.143364 1_555
Li3 O27 2.416525 1_555
Li3 O16 2.585196 1_556
Cr0 O13 2.065040 1_555
Cr0 O7 2.073285 1_565
Cr0 O5 2.090402 1_555
Cr0 O20 2.130992 1_555
Cr0 O15 2.374921 1_555
Cr0 O8 2.482008 1_555
Cr1 O23 2.065040 1_556
Cr1 O9 2.073285 1_545
Cr1 O4 2.090402 1_555
Cr1 O17 2.130992 1_556
Cr1 O24 2.374921 1_656
Cr1 O12 2.482008 1_555
Cr2 O26 2.065040 1_554
Cr2 O24 2.073285 1_565
Cr2 O11 2.090402 1_555
Cr2 O27 2.130992 1_554
Cr2 O9 2.374921 1_454
Cr2 O16 2.482008 1_555
Cr3 O0 2.104380 1_555
Cr3 O19 2.104380 1_445
Cr3 O20 2.172622 1_545
Cr3 O14 2.172622 1_455
Cr3 O1 2.290300 1_455
Cr3 O8 2.290300 1_545
Cr4 O10 2.065040 1_555
Cr4 O15 2.073285 1_545
Cr4 O18 2.090402 1_555
Cr4 O14 2.130992 1_555
Cr4 O7 2.374921 1_555
Cr4 O1 2.482008 1_555
Cr5 O21 2.104380 1_544
Cr5 O22 2.104380 1_555
Cr5 O17 2.172622 1_555
Cr5 O27 2.172622 1_544
Cr5 O16 2.290300 1_545
Cr5 O12 2.290300 1_554
O0 P6 1.524613 1_555
O1 P5 1.525562 1_555
O2 P6 1.602563 1_555
O2 P3 1.647206 1_555
O3 P1 1.602563 1_555
O3 P0 1.647206 1_555
O4 P2 1.533761 1_655
O5 P3 1.533761 1_555
O6 P4 1.602563 1_555
O6 P2 1.647206 1_655
O7 P6 1.530602 1_555
O8 P2 1.525562 1_555
O9 P4 1.530602 1_555
O10 P3 1.537240 1_555
O11 P5 1.533761 1_455
O12 P3 1.525562 1_555
O13 P0 1.537240 1_555
O14 P4 1.553372 1_545
O15 P1 1.530602 1_555
O16 P0 1.525562 1_555
O17 P1 1.553372 1_545
O18 P0 1.533761 1_555
O19 P1 1.524613 1_555
O20 P7 1.553372 1_565
O21 P4 1.524613 1_555
O22 P7 1.524613 1_555
O23 P5 1.537240 1_555
O24 P7 1.530602 1_555
O25 P7 1.602563 1_555
O25 P5 1.647206 1_455
O26 P2 1.537240 1_555
O27 P6 1.553372 1_565
