# generated using pymatgen
data_Li3Ni3(PO4)4
_symmetry_space_group_name_H-M   'P 1'
_cell_length_a   13.03138204
_cell_length_b   8.02762532
_cell_length_c   8.91297579
_cell_angle_alpha   90.08336468
_cell_angle_beta   86.23829382
_cell_angle_gamma   90.22238649
_symmetry_Int_Tables_number   1
_chemical_formula_structural   Li3Ni3(PO4)4
_chemical_formula_sum   'Li9 Ni9 P12 O48'
_cell_volume   930.37928766
_cell_formula_units_Z   3
loop_
 _symmetry_equiv_pos_site_id
 _symmetry_equiv_pos_as_xyz
  1  'x, y, z'
loop_
 _atom_site_type_symbol
 _atom_site_label
 _atom_site_symmetry_multiplicity
 _atom_site_fract_x
 _atom_site_fract_y
 _atom_site_fract_z
 _atom_site_occupancy
  Li  Li0  1  0.16307729  0.86440409  0.22888965  1
  Li  Li1  1  0.49979292  0.13699940  0.10177570  1
  Li  Li2  1  0.16792224  0.63732048  0.73549800  1
  Li  Li3  1  0.49508247  0.63424230  0.40339682  1
  Li  Li4  1  0.83341958  0.63943435  0.06596350  1
  Li  Li5  1  0.17186537  0.36797290  0.93076770  1
  Li  Li6  1  0.49932214  0.36380196  0.59522288  1
  Li  Li7  1  0.83467168  0.86376568  0.57046017  1
  Li  Li8  1  0.83332797  0.13310810  0.76201866  1
  O  O0  1  0.56285950  0.92009252  0.08255274  1
  O  O1  1  0.90183865  0.62782248  0.84846253  1
  O  O2  1  0.90543213  0.92528911  0.75162768  1
  O  O3  1  0.93463627  0.29787949  0.67773691  1
  O  O4  1  0.74063302  0.36047987  0.80967372  1
  O  O5  1  0.92764018  0.63599598  0.52674757  1
  O  O6  1  0.58607647  0.65630628  0.85866477  1
  O  O7  1  0.40219073  0.70341455  0.99213691  1
  O  O8  1  0.76346891  0.07003931  0.58169787  1
  O  O9  1  0.23551860  0.87846248  0.01439859  1
  O  O10  1  0.10064287  0.38080146  0.15361927  1
  O  O11  1  0.10106495  0.08176244  0.25015175  1
  O  O12  1  0.06305454  0.69929453  0.31989411  1
  O  O13  1  0.26081853  0.65017349  0.19237483  1
  O  O14  1  0.07937570  0.34286796  0.47491496  1
  O  O15  1  0.40474349  0.35231185  0.13995616  1
  O  O16  1  0.26361578  0.29828511  0.34067009  1
  O  O17  1  0.23049592  0.93424652  0.41603091  1
  O  O18  1  0.60306476  0.29910523  0.01340602  1
  O  O19  1  0.76748067  0.12363268  0.98447836  1
  O  O20  1  0.22766401  0.63499537  0.50865458  1
  O  O21  1  0.10448260  0.12793392  0.65225071  1
  O  O22  1  0.56549609  0.62268734  0.18105154  1
  O  O23  1  0.43021094  0.12419118  0.31776525  1
  O  O24  1  0.10140357  0.42799434  0.75049338  1
  O  O25  1  0.06815969  0.80253808  0.83023229  1
  O  O26  1  0.42722362  0.42279921  0.41599256  1
  O  O27  1  0.39501055  0.80394446  0.48571839  1
  O  O28  1  0.77220014  0.42105220  0.08161033  1
  O  O29  1  0.73023733  0.79935581  0.15657659  1
  O  O30  1  0.25697582  0.86011732  0.69119442  1
  O  O31  1  0.59000209  0.86025008  0.35604758  1
  O  O32  1  0.92631836  0.85450585  0.02878436  1
  O  O33  1  0.07565970  0.14644802  0.97715413  1
  O  O34  1  0.40775303  0.14100630  0.63933180  1
  O  O35  1  0.27115153  0.19735634  0.84679029  1
  O  O36  1  0.74744904  0.15634743  0.30474640  1
  O  O37  1  0.23830351  0.58039608  0.91632814  1
  O  O38  1  0.59927961  0.20058587  0.50213521  1
  O  O39  1  0.56840140  0.57198124  0.58116441  1
  O  O40  1  0.93422206  0.20370584  0.17686095  1
  O  O41  1  0.89863325  0.56683685  0.25172831  1
  O  O42  1  0.56333661  0.87130279  0.68108146  1
  O  O43  1  0.43881893  0.36508147  0.82280627  1
  O  O44  1  0.89597534  0.86522275  0.34698424  1
  O  O45  1  0.76971417  0.37066532  0.48365799  1
  O  O46  1  0.43549335  0.06529931  0.91368613  1
  O  O47  1  0.73372162  0.70118332  0.66074121  1
  P  P0  1  0.94948802  0.80405627  0.86249372  1
  P  P1  1  0.72058710  0.29990935  0.97358984  1
  P  P2  1  0.94594592  0.69177612  0.36194701  1
  P  P3  1  0.61674865  0.69229364  0.68526926  1
  P  P4  1  0.71637858  0.19147674  0.47808752  1
  P  P5  1  0.38818622  0.19161134  0.80565873  1
  P  P6  1  0.61236302  0.79956948  0.19253262  1
  P  P7  1  0.27786878  0.80914561  0.52507285  1
  P  P8  1  0.38328997  0.30012402  0.30590190  1
  P  P9  1  0.05338011  0.20488140  0.14098571  1
  P  P10  1  0.05124316  0.30701150  0.64900762  1
  P  P11  1  0.28255770  0.70244787  0.02665514  1
  Ni  Ni0  1  0.16601820  0.50782630  0.32924374  1
  Ni  Ni1  1  0.50038603  0.49281757  0.00377807  1
  Ni  Ni2  1  0.15935285  0.13990642  0.44011500  1
  Ni  Ni3  1  0.16993107  1.00055395  0.84030294  1
  Ni  Ni4  1  0.49578008  0.00261738  0.49240752  1
  Ni  Ni5  1  0.83335159  0.99461032  0.16436417  1
  Ni  Ni6  1  0.82789111  0.36027552  0.27279978  1
  Ni  Ni7  1  0.50662080  0.85963059  0.89138859  1
  Ni  Ni8  1  0.83620075  0.50235392  0.67363452  1
loop_
_geom_bond_atom_site_label_1
_geom_bond_atom_site_label_2
_geom_bond_distance
_geom_bond_site_symmetry_2
Li0 O11 1.929615 1_565
Li0 O12 1.991139 1_555
Li0 O17 2.013487 1_555
Li0 O9 2.078868 1_555
Li0 O13 2.155646 1_555
Li1 O0 1.930930 1_545
Li1 O18 1.993798 1_555
Li1 O46 2.005393 1_554
Li1 O23 2.075962 1_555
Li1 O15 2.144092 1_555
Li2 O24 1.888682 1_555
Li2 O37 1.961393 1_555
Li2 O25 2.007048 1_555
Li2 O20 2.118438 1_555
Li2 O30 2.151121 1_555
Li3 O26 1.910910 1_555
Li3 O39 1.969208 1_555
Li3 O27 1.995039 1_555
Li3 O22 2.130600 1_555
Li3 O31 2.217234 1_555
Li4 O28 1.924701 1_555
Li4 O29 1.994053 1_555
Li4 O41 1.998629 1_555
Li4 O1 2.082079 1_554
Li4 O32 2.118729 1_555
Li5 O37 1.910128 1_555
Li5 O24 1.963746 1_555
Li5 O35 1.998469 1_555
Li5 O10 2.139053 1_556
Li5 O33 2.195887 1_555
Li6 O39 1.895534 1_555
Li6 O26 1.965087 1_555
Li6 O38 1.992513 1_555
Li6 O43 2.127554 1_555
Li6 O34 2.168222 1_555
Li7 O8 1.900576 1_565
Li7 O2 1.972590 1_555
Li7 O47 1.983012 1_555
Li7 O44 2.096890 1_555
Li7 O5 2.217197 1_555
Li8 O2 1.917018 1_545
Li8 O8 1.963212 1_555
Li8 O3 1.978889 1_555
Li8 O19 2.109546 1_555
Li8 O4 2.217799 1_555
O0 P6 1.550387 1_555
O1 P0 1.550982 1_555
O2 P0 1.527989 1_555
O3 P10 1.525813 1_655
O4 P1 1.546006 1_555
O5 P2 1.539507 1_555
O6 P3 1.597199 1_555
O7 P11 1.569115 1_556
O8 P4 1.503775 1_555
O9 P11 1.549243 1_555
O10 P9 1.545400 1_555
O11 P9 1.548095 1_555
O12 P2 1.548344 1_455
O13 P11 1.544027 1_555
O14 P10 1.597127 1_555
O15 P8 1.545302 1_555
O16 P8 1.569960 1_555
O17 P7 1.555825 1_555
O18 P1 1.549201 1_554
O19 P1 1.549258 1_555
O20 P7 1.552014 1_555
O21 P10 1.599771 1_555
O22 P6 1.549439 1_555
O23 P8 1.547683 1_555
O24 P10 1.502930 1_555
O25 P0 1.554395 1_455
O26 P8 1.525429 1_555
O27 P7 1.544420 1_555
O28 P1 1.549913 1_554
O29 P6 1.548428 1_555
O30 P7 1.542741 1_555
O31 P6 1.545813 1_555
O32 P0 1.546744 1_554
O33 P9 1.542734 1_556
O34 P5 1.541820 1_555
O35 P5 1.545853 1_555
O36 P4 1.596239 1_555
O37 P11 1.525365 1_556
O38 P4 1.528970 1_555
O39 P3 1.503362 1_555
O40 P9 1.564688 1_655
O41 P2 1.556581 1_555
O42 P3 1.600689 1_555
O43 P5 1.550290 1_555
O44 P2 1.549026 1_555
O45 P4 1.597268 1_555
O46 P5 1.555912 1_555
O47 P3 1.527060 1_555
Ni0 O13 2.028664 1_555
Ni0 O12 2.049583 1_555
Ni0 O10 2.092716 1_555
Ni0 O20 2.098098 1_555
Ni0 O16 2.119328 1_555
Ni0 O14 2.124892 1_555
Ni1 O15 2.023212 1_555
Ni1 O18 2.060951 1_555
Ni1 O6 2.108629 1_554
Ni1 O43 2.110815 1_554
Ni1 O22 2.113662 1_555
Ni1 O7 2.130968 1_554
Ni2 O17 1.901575 1_545
Ni2 O14 1.950980 1_555
Ni2 O11 1.955818 1_555
Ni2 O21 1.979416 1_555
Ni2 O16 2.019895 1_555
Ni3 O30 2.032644 1_555
Ni3 O33 2.044269 1_565
Ni3 O35 2.057359 1_565
Ni3 O9 2.069750 1_556
Ni3 O25 2.071854 1_555
Ni3 O21 2.186709 1_565
Ni4 O34 2.018285 1_555
Ni4 O31 2.025321 1_545
Ni4 O27 2.065264 1_545
Ni4 O23 2.071457 1_555
Ni4 O38 2.085794 1_555
Ni4 O42 2.218287 1_545
Ni5 O32 2.001866 1_555
Ni5 O29 2.064658 1_555
Ni5 O36 2.080193 1_565
Ni5 O40 2.135253 1_565
Ni5 O19 2.138351 1_564
Ni5 O44 2.140090 1_555
Ni6 O41 1.897644 1_555
Ni6 O36 1.951609 1_555
Ni6 O28 1.958573 1_555
Ni6 O45 1.981625 1_555
Ni6 O40 2.021353 1_555
Ni7 O46 1.900336 1_565
Ni7 O6 1.947660 1_555
Ni7 O0 1.958170 1_556
Ni7 O42 1.971504 1_555
Ni7 O7 2.015097 1_555
Ni8 O5 2.018490 1_555
Ni8 O4 2.028090 1_555
Ni8 O1 2.082750 1_555
Ni8 O3 2.088971 1_555
Ni8 O47 2.093194 1_555
Ni8 O45 2.217098 1_555
