# generated using pymatgen
data_Rb(OsO3)2
_symmetry_space_group_name_H-M   'P 1'
_cell_length_a   7.17854009
_cell_length_b   7.17853965
_cell_length_c   7.17854114
_cell_angle_alpha   59.99999775
_cell_angle_beta   59.99999979
_cell_angle_gamma   59.99999514
_symmetry_Int_Tables_number   1
_chemical_formula_structural   Rb(OsO3)2
_chemical_formula_sum   'Rb2 Os4 O12'
_cell_volume   261.57329657
_cell_formula_units_Z   2
loop_
 _symmetry_equiv_pos_site_id
 _symmetry_equiv_pos_as_xyz
  1  'x, y, z'
loop_
 _atom_site_type_symbol
 _atom_site_label
 _atom_site_symmetry_multiplicity
 _atom_site_fract_x
 _atom_site_fract_y
 _atom_site_fract_z
 _atom_site_occupancy
  Rb  Rb0  1  0.37500000  0.37500000  0.37500000  1
  Rb  Rb1  1  0.62500000  0.62500000  0.62500000  1
  Os  Os0  1  -0.00000000  0.00000000  0.50000000  1
  Os  Os1  1  -0.00000000  0.00000000  -0.00000000  1
  Os  Os2  1  0.50000000  0.00000000  -0.00000000  1
  Os  Os3  1  -0.00000000  0.50000000  -0.00000000  1
  O  O0  1  0.31532357  0.93467643  0.93467643  1
  O  O1  1  0.06532357  0.68467643  0.68467643  1
  O  O2  1  0.93467643  0.31532357  0.93467643  1
  O  O3  1  0.93467643  0.93467643  0.31532357  1
  O  O4  1  0.31532357  0.31532357  0.93467643  1
  O  O5  1  0.31532357  0.93467643  0.31532357  1
  O  O6  1  0.93467643  0.31532357  0.31532357  1
  O  O7  1  0.68467643  0.68467643  0.06532357  1
  O  O8  1  0.06532357  0.06532357  0.68467643  1
  O  O9  1  0.68467643  0.06532357  0.06532357  1
  O  O10  1  0.68467643  0.06532357  0.68467643  1
  O  O11  1  0.06532357  0.68467643  0.06532357  1
loop_
_geom_bond_atom_site_label_1
_geom_bond_atom_site_label_2
_geom_bond_distance
_geom_bond_site_symmetry_2
O0 Os1 1.913244 1_566
O0 Os2 1.913244 1_566
O0 Rb1 3.143832 1_555
O1 Os0 1.913244 1_565
O1 Os3 1.913244 1_556
O1 Rb0 3.143832 1_555
O2 Os1 1.913244 1_656
O2 Os3 1.913244 1_656
O2 Rb1 3.143832 1_555
O3 Os0 1.913244 1_665
O3 Os1 1.913244 1_665
O3 Rb1 3.143832 1_555
O4 Os2 1.913243 1_556
O4 Os3 1.913244 1_556
O4 Rb1 3.143832 1_555
O5 Os0 1.913244 1_565
O5 Os2 1.913244 1_565
O5 Rb1 3.143832 1_555
O6 Os0 1.913244 1_655
O6 Os3 1.913244 1_655
O6 Rb1 3.143832 1_555
O7 Os2 1.913243 1_565
O7 Os3 1.913244 1_655
O7 Rb0 3.143832 1_555
O8 Os0 1.913244 1_555
O8 Os1 1.913244 1_556
O8 Rb0 3.143832 1_555
O9 Os1 1.913244 1_655
O9 Os2 1.913244 1_555
O9 Rb0 3.143832 1_555
O10 Os0 1.913244 1_655
O10 Os2 1.913244 1_556
O10 Rb0 3.143832 1_555
O11 Os1 1.913244 1_565
O11 Os3 1.913244 1_555
O11 Rb0 3.143832 1_555
