# generated using pymatgen
data_KNiF3
_symmetry_space_group_name_H-M   'P 1'
_cell_length_a   4.00809624
_cell_length_b   4.00805847
_cell_length_c   4.00805988
_cell_angle_alpha   90.00000000
_cell_angle_beta   90.00000000
_cell_angle_gamma   90.00000000
_symmetry_Int_Tables_number   1
_chemical_formula_structural   KNiF3
_chemical_formula_sum   'K1 Ni1 F3'
_cell_volume   64.38821576
_cell_formula_units_Z   1
loop_
 _symmetry_equiv_pos_site_id
 _symmetry_equiv_pos_as_xyz
  1  'x, y, z'
loop_
 _atom_site_type_symbol
 _atom_site_label
 _atom_site_symmetry_multiplicity
 _atom_site_fract_x
 _atom_site_fract_y
 _atom_site_fract_z
 _atom_site_occupancy
  K  K0  1  0.00000000  -0.00000000  -0.00000000  1
  Ni  Ni0  1  0.50000000  0.50000000  0.50000000  1
  F  F0  1  0.00000000  0.50000000  0.50000000  1
  F  F1  1  0.50000000  -0.00000000  0.50000000  1
  F  F2  1  0.50000000  0.50000000  -0.00000000  1
loop_
_geom_bond_atom_site_label_1
_geom_bond_atom_site_label_2
_geom_bond_distance
_geom_bond_site_symmetry_2
F0 Ni0 2.004048 1_555
F0 Ni0 2.004048 1_455
F0 K0 2.834126 1_555
F0 K0 2.834126 1_566
F0 K0 2.834126 1_556
F0 K0 2.834126 1_565
F1 Ni0 2.004029 1_545
F1 Ni0 2.004029 1_555
F1 K0 2.834139 1_555
F1 K0 2.834139 1_655
F1 K0 2.834139 1_556
F1 K0 2.834139 1_656
F2 Ni0 2.004030 1_555
F2 Ni0 2.004030 1_554
F2 K0 2.834139 1_665
F2 K0 2.834139 1_555
F2 K0 2.834139 1_565
F2 K0 2.834139 1_655
