# generated using pymatgen
data_Cs3LiF4
_symmetry_space_group_name_H-M   'P 1'
_cell_length_a   7.46352848
_cell_length_b   7.46352848
_cell_length_c   8.86586987
_cell_angle_alpha   77.26522993
_cell_angle_beta   77.26522993
_cell_angle_gamma   47.68731447
_symmetry_Int_Tables_number   1
_chemical_formula_structural   Cs3LiF4
_chemical_formula_sum   'Cs6 Li2 F8'
_cell_volume   354.44047560
_cell_formula_units_Z   2
loop_
 _symmetry_equiv_pos_site_id
 _symmetry_equiv_pos_as_xyz
  1  'x, y, z'
loop_
 _atom_site_type_symbol
 _atom_site_label
 _atom_site_symmetry_multiplicity
 _atom_site_fract_x
 _atom_site_fract_y
 _atom_site_fract_z
 _atom_site_occupancy
  Cs  Cs0  1  0.42793699  0.42793699  0.23302668  1
  Cs  Cs1  1  0.86675198  0.86675198  0.90217881  1
  Cs  Cs2  1  0.68997751  0.68997751  0.35262371  1
  Cs  Cs3  1  0.57206301  0.57206301  0.76697332  1
  Cs  Cs4  1  0.31002249  0.31002249  0.64737629  1
  Cs  Cs5  1  0.13324802  0.13324802  0.09782119  1
  Li  Li0  1  0.08029568  0.08029568  0.54217552  1
  Li  Li1  1  0.91970432  0.91970432  0.45782448  1
  F  F0  1  0.35630672  0.35630672  0.95097601  1
  F  F1  1  0.76853900  0.23146100  0.50000000  1
  F  F2  1  0.91196154  0.91196154  0.24693622  1
  F  F3  1  0.20408335  0.20408335  0.39525973  1
  F  F4  1  0.08803846  0.08803846  0.75306378  1
  F  F5  1  0.64369328  0.64369328  0.04902399  1
  F  F6  1  0.23146100  0.76853900  0.50000000  1
  F  F7  1  0.79591665  0.79591665  0.60474027  1
loop_
_geom_bond_atom_site_label_1
_geom_bond_atom_site_label_2
_geom_bond_distance
_geom_bond_site_symmetry_2
Cs0 F0 2.896263 1_554
Cs0 F5 3.003715 1_555
Cs0 F2 3.025319 1_545
Cs0 F2 3.025319 1_455
Cs0 F3 3.048078 1_555
Cs0 F6 3.212274 1_555
Cs0 F1 3.212274 1_555
Cs1 F4 2.991721 1_665
Cs1 F5 3.009735 1_556
Cs1 F7 3.019713 1_555
Cs1 F0 3.046392 1_565
Cs1 F0 3.046392 1_655
Cs1 F2 3.260835 1_556
Cs2 F5 2.909350 1_555
Cs2 F7 2.940525 1_555
Cs2 F2 2.948669 1_555
Cs2 F3 3.052508 1_565
Cs2 F3 3.052508 1_655
Cs2 F6 3.070349 1_555
Cs2 F1 3.070349 1_555
Cs3 F5 2.896263 1_556
Cs3 F0 3.003715 1_555
Cs3 F4 3.025319 1_565
Cs3 F4 3.025319 1_655
Cs3 F7 3.048078 1_555
Cs3 F6 3.212274 1_555
Cs3 F1 3.212274 1_555
Cs4 F0 2.909350 1_555
Cs4 F3 2.940525 1_555
Cs4 F4 2.948669 1_555
Cs4 F7 3.052508 1_545
Cs4 F7 3.052508 1_455
Cs4 F6 3.070349 1_555
Cs4 F1 3.070349 1_555
Cs5 F2 2.991721 1_445
Cs5 F0 3.009735 1_554
Cs5 F3 3.019713 1_555
Cs5 F5 3.046392 1_545
Cs5 F5 3.046392 1_455
Cs5 F4 3.260835 1_554
F1 Li1 1.868135 1_545
F1 Li0 1.868135 1_655
F2 Li1 1.897960 1_555
F3 Li0 1.868654 1_555
F4 Li0 1.897960 1_555
F6 Li1 1.868135 1_455
F6 Li0 1.868135 1_565
F7 Li1 1.868654 1_555
