# generated using pymatgen
data_Na6ZnSn2
_symmetry_space_group_name_H-M   'P 1'
_cell_length_a   5.44332466
_cell_length_b   5.69492279
_cell_length_c   9.30715298
_cell_angle_alpha   97.29345610
_cell_angle_beta   90.00000017
_cell_angle_gamma   118.54902137
_symmetry_Int_Tables_number   1
_chemical_formula_structural   Na6ZnSn2
_chemical_formula_sum   'Na6 Zn1 Sn2'
_cell_volume   250.77361068
_cell_formula_units_Z   1
loop_
 _symmetry_equiv_pos_site_id
 _symmetry_equiv_pos_as_xyz
  1  'x, y, z'
loop_
 _atom_site_type_symbol
 _atom_site_label
 _atom_site_symmetry_multiplicity
 _atom_site_fract_x
 _atom_site_fract_y
 _atom_site_fract_z
 _atom_site_occupancy
  Na  Na0  1  0.47163596  0.94327191  0.27440705  1
  Na  Na1  1  0.17395193  0.34790387  0.59191183  1
  Na  Na2  1  0.29318814  0.58637628  0.93125220  1
  Na  Na3  1  0.82604807  0.65209613  0.40808817  1
  Na  Na4  1  0.52836404  0.05672809  0.72559295  1
  Na  Na5  1  0.70681186  0.41362372  0.06874780  1
  Zn  Zn0  1  0.00000000  -0.00000000  -0.00000000  1
  Sn  Sn0  1  0.14630587  0.29261173  0.24976086  1
  Sn  Sn1  1  0.85369413  0.70738827  0.75023914  1
loop_
_geom_bond_atom_site_label_1
_geom_bond_atom_site_label_2
_geom_bond_distance
_geom_bond_site_symmetry_2
Na0 Sn0 3.229741 1_555
Na0 Na5 3.240651 1_565
Na0 Sn0 3.260353 1_665
Na0 Sn0 3.260354 1_565
Na0 Na3 3.406020 1_455
Na0 Na3 3.406020 1_555
Na0 Na2 3.426318 1_554
Na0 Na3 3.584132 1_565
Na1 Sn0 3.156365 1_555
Na1 Na2 3.210748 1_555
Na1 Na4 3.406020 1_455
Na1 Na4 3.406020 1_555
Na1 Sn1 3.470854 1_555
Na1 Sn1 3.470854 1_455
Na1 Na4 3.584132 1_565
Na1 Na3 3.649854 1_445
Na1 Na3 3.660966 1_555
Na1 Na3 3.660966 1_455
Na1 Sn1 3.715216 1_445
Na2 Zn0 3.091332 1_556
Na2 Na5 3.179865 1_456
Na2 Na5 3.179865 1_556
Na2 Na4 3.240651 1_565
Na2 Sn1 3.302569 1_555
Na2 Sn1 3.302569 1_455
Na2 Zn0 3.422792 1_666
Na2 Zn0 3.422793 1_566
Na2 Sn0 3.493778 1_556
Na3 Sn1 3.156365 1_555
Na3 Na5 3.210748 1_555
Na3 Sn0 3.470854 1_555
Na3 Sn0 3.470854 1_655
Na3 Sn0 3.715216 1_665
Na4 Sn1 3.229741 1_555
Na4 Sn1 3.260353 1_445
Na4 Sn1 3.260354 1_545
Na4 Na5 3.426318 1_556
Na5 Zn0 3.091332 1_665
Na5 Sn0 3.302569 1_555
Na5 Sn0 3.302569 1_655
Na5 Zn0 3.422792 1_555
Na5 Zn0 3.422793 1_655
Na5 Sn1 3.493778 1_554
Sn0 Zn0 2.561780 1_555
Sn1 Zn0 2.561780 1_666
