# generated using pymatgen
data_Cs3Ta5O14
_symmetry_space_group_name_H-M   'P 1'
_cell_length_a   7.49224000
_cell_length_b   7.53350100
_cell_length_c   26.61273200
_cell_angle_alpha   90.00000000
_cell_angle_beta   90.00000000
_cell_angle_gamma   90.00000000
_symmetry_Int_Tables_number   1
_chemical_formula_structural   Cs3Ta5O14
_chemical_formula_sum   'Cs12 Ta20 O56'
_cell_volume   1502.09704406
_cell_formula_units_Z   4
loop_
 _symmetry_equiv_pos_site_id
 _symmetry_equiv_pos_as_xyz
  1  'x, y, z'
loop_
 _atom_site_type_symbol
 _atom_site_label
 _atom_site_symmetry_multiplicity
 _atom_site_fract_x
 _atom_site_fract_y
 _atom_site_fract_z
 _atom_site_occupancy
  Cs  Cs0  1  0.00000000  0.33951200  0.79113200  1
  Cs  Cs1  1  0.00000000  0.66048800  0.20886800  1
  Cs  Cs2  1  0.50000000  0.84002400  0.62051100  1
  Cs  Cs3  1  0.00000000  0.16048800  0.29113200  1
  Cs  Cs4  1  0.50000000  0.25789100  0.52371200  1
  Cs  Cs5  1  0.00000000  0.83951200  0.70886800  1
  Cs  Cs6  1  0.50000000  0.15997600  0.37948900  1
  Cs  Cs7  1  0.50000000  0.24210900  0.02371200  1
  Cs  Cs8  1  0.50000000  0.74210900  0.47628800  1
  Cs  Cs9  1  0.50000000  0.34002400  0.87948900  1
  Cs  Cs10  1  0.50000000  0.75789100  0.97628800  1
  Cs  Cs11  1  0.50000000  0.65997600  0.12051100  1
  Ta  Ta0  1  0.74546700  0.83797500  0.84817500  1
  Ta  Ta1  1  0.00000000  0.42858700  0.05443000  1
  Ta  Ta2  1  0.50000000  0.59882400  0.74602600  1
  Ta  Ta3  1  0.25453300  0.16202500  0.15182500  1
  Ta  Ta4  1  0.00000000  0.07141300  0.55443000  1
  Ta  Ta5  1  0.00000000  0.41347800  0.44320400  1
  Ta  Ta6  1  0.74546700  0.16202500  0.15182500  1
  Ta  Ta7  1  0.50000000  0.90117600  0.24602600  1
  Ta  Ta8  1  0.50000000  0.40117600  0.25397400  1
  Ta  Ta9  1  0.00000000  0.57141300  0.94557000  1
  Ta  Ta10  1  0.00000000  0.91347800  0.05679600  1
  Ta  Ta11  1  0.25453300  0.66202500  0.34817500  1
  Ta  Ta12  1  0.00000000  0.08652200  0.94320400  1
  Ta  Ta13  1  0.74546700  0.66202500  0.34817500  1
  Ta  Ta14  1  0.00000000  0.58652200  0.55679600  1
  Ta  Ta15  1  0.50000000  0.09882400  0.75397400  1
  Ta  Ta16  1  0.00000000  0.92858700  0.44557000  1
  Ta  Ta17  1  0.25453300  0.83797500  0.84817500  1
  Ta  Ta18  1  0.74546700  0.33797500  0.65182500  1
  Ta  Ta19  1  0.25453300  0.33797500  0.65182500  1
  O  O0  1  0.18916200  0.34025000  0.09771900  1
  O  O1  1  0.00000000  0.16018200  0.01579500  1
  O  O2  1  0.50000000  0.85447400  0.72786500  1
  O  O3  1  0.50000000  0.65791400  0.37416400  1
  O  O4  1  0.00000000  0.33101900  0.91956200  1
  O  O5  1  0.00000000  0.86680100  0.83198800  1
  O  O6  1  0.50000000  0.64552600  0.22786500  1
  O  O7  1  0.81083800  0.65975000  0.90228100  1
  O  O8  1  0.00000000  0.33981800  0.51579500  1
  O  O9  1  0.31475900  0.45805600  0.30367200  1
  O  O10  1  0.50000000  0.14552600  0.27213500  1
  O  O11  1  0.69186900  0.33662700  0.20112600  1
  O  O12  1  0.82540600  0.00000000  0.50000000  1
  O  O13  1  0.69186900  0.83662700  0.29887400  1
  O  O14  1  0.00000000  0.36680100  0.66801200  1
  O  O15  1  0.20935000  0.97497900  0.08954100  1
  O  O16  1  0.82540600  0.50000000  0.00000000  1
  O  O17  1  0.68524100  0.45805600  0.30367200  1
  O  O18  1  0.30813100  0.83662700  0.29887400  1
  O  O19  1  0.30813100  0.16337300  0.70112600  1
  O  O20  1  0.81083800  0.34025000  0.09771900  1
  O  O21  1  0.69186900  0.66337300  0.79887400  1
  O  O22  1  0.30813100  0.33662700  0.20112600  1
  O  O23  1  0.00000000  0.83981800  0.98420500  1
  O  O24  1  0.20935000  0.02502100  0.91045900  1
  O  O25  1  0.31475900  0.95805600  0.19632800  1
  O  O26  1  0.50000000  0.35447400  0.77213500  1
  O  O27  1  0.00000000  0.13319900  0.16801200  1
  O  O28  1  0.18916200  0.65975000  0.90228100  1
  O  O29  1  0.81083800  0.15975000  0.59771900  1
  O  O30  1  0.00000000  0.83101900  0.58043800  1
  O  O31  1  0.30813100  0.66337300  0.79887400  1
  O  O32  1  0.50000000  0.84208600  0.87416400  1
  O  O33  1  0.68524100  0.04194400  0.80367200  1
  O  O34  1  0.31475900  0.54194400  0.69632800  1
  O  O35  1  0.79065000  0.47497900  0.41045900  1
  O  O36  1  0.79065000  0.52502100  0.58954100  1
  O  O37  1  0.00000000  0.66898100  0.08043800  1
  O  O38  1  0.00000000  0.66018200  0.48420500  1
  O  O39  1  0.69186900  0.16337300  0.70112600  1
  O  O40  1  0.68524100  0.95805600  0.19632800  1
  O  O41  1  0.00000000  0.63319900  0.33198800  1
  O  O42  1  0.50000000  0.15791400  0.12583600  1
  O  O43  1  0.68524100  0.54194400  0.69632800  1
  O  O44  1  0.17459400  0.00000000  0.50000000  1
  O  O45  1  0.79065000  0.97497900  0.08954100  1
  O  O46  1  0.81083800  0.84025000  0.40228100  1
  O  O47  1  0.50000000  0.34208600  0.62583600  1
  O  O48  1  0.79065000  0.02502100  0.91045900  1
  O  O49  1  0.18916200  0.84025000  0.40228100  1
  O  O50  1  0.20935000  0.52502100  0.58954100  1
  O  O51  1  0.18916200  0.15975000  0.59771900  1
  O  O52  1  0.00000000  0.16898100  0.41956200  1
  O  O53  1  0.20935000  0.47497900  0.41045900  1
  O  O54  1  0.31475900  0.04194400  0.80367200  1
  O  O55  1  0.17459400  0.50000000  0.00000000  1
loop_
_geom_bond_atom_site_label_1
_geom_bond_atom_site_label_2
_geom_bond_distance
_geom_bond_site_symmetry_2
Cs0 O33 3.270789 1_455
Cs0 O54 3.270789 1_555
Cs0 O14 3.283003 1_555
Cs0 O31 3.365220 1_555
Cs0 O21 3.365220 1_455
Cs0 O4 3.418472 1_555
Cs1 O25 3.270789 1_555
Cs1 O40 3.270789 1_455
Cs1 O41 3.283003 1_555
Cs1 O22 3.365220 1_555
Cs1 O11 3.365220 1_455
Cs1 O37 3.418472 1_555
Cs2 O2 2.859056 1_555
Cs3 O9 3.270789 1_555
Cs3 O17 3.270789 1_455
Cs3 O27 3.283003 1_555
Cs3 O18 3.365220 1_545
Cs3 O13 3.365220 1_445
Cs3 O52 3.418472 1_555
Cs4 O47 2.790832 1_555
Cs4 O29 3.138363 1_555
Cs4 O51 3.138363 1_555
Cs4 O44 3.180678 1_555
Cs4 O12 3.180678 1_555
Cs4 O50 3.443979 1_555
Cs4 O36 3.443979 1_555
Cs5 O34 3.270789 1_555
Cs5 O43 3.270789 1_455
Cs5 O5 3.283003 1_555
Cs5 O19 3.365220 1_565
Cs5 O39 3.365220 1_465
Cs5 O30 3.418472 1_555
Cs6 O10 2.859056 1_555
Cs7 O42 2.790832 1_555
Cs7 O20 3.138363 1_555
Cs7 O0 3.138363 1_555
Cs7 O16 3.180678 1_555
Cs7 O55 3.180678 1_555
Cs7 O15 3.443979 1_545
Cs7 O45 3.443979 1_545
Cs8 O3 2.790832 1_555
Cs8 O49 3.138363 1_555
Cs8 O46 3.138363 1_555
Cs8 O12 3.180678 1_565
Cs8 O44 3.180678 1_565
Cs8 O53 3.443979 1_555
Cs8 O35 3.443979 1_555
Cs9 O26 2.859056 1_555
Cs10 O32 2.790832 1_555
Cs10 O7 3.138363 1_555
Cs10 O28 3.138363 1_555
Cs10 O55 3.180678 1_556
Cs10 O16 3.180678 1_556
Cs10 O24 3.443979 1_565
Cs10 O48 3.443979 1_565
Cs11 O6 2.859056 1_555
O0 Ta1 1.943876 1_555
O0 Ta3 2.028780 1_555
O1 Ta12 2.009965 1_554
O1 Ta10 2.155178 1_545
O1 Ta1 2.268427 1_555
O2 Ta15 1.967581 1_565
O2 Ta2 1.985657 1_555
O3 Ta11 1.965096 1_555
O3 Ta13 1.965096 1_555
O4 Ta9 1.938766 1_555
O4 Ta12 1.946414 1_555
O5 Ta17 1.967095 1_555
O5 Ta0 1.967095 1_455
O6 Ta8 1.967581 1_555
O6 Ta7 1.985657 1_555
O7 Ta9 1.943876 1_655
O7 Ta0 2.028780 1_555
O8 Ta5 2.009965 1_555
O8 Ta14 2.155178 1_555
O8 Ta4 2.268427 1_555
O9 Ta8 1.964452 1_555
O9 Ta11 1.991839 1_555
O10 Ta7 1.967581 1_545
O10 Ta8 1.985657 1_555
O11 Ta6 1.900756 1_555
O11 Ta8 2.069058 1_555
O12 Ta4 2.024550 1_655
O12 Ta16 2.024550 1_645
O13 Ta13 1.900756 1_555
O13 Ta7 2.069058 1_555
O14 Ta19 1.967095 1_555
O14 Ta18 1.967095 1_455
O15 Ta10 1.853174 1_555
O15 Ta3 2.201739 1_565
O16 Ta9 2.024550 1_654
O16 Ta1 2.024550 1_655
O17 Ta8 1.964452 1_555
O17 Ta13 1.991839 1_555
O18 Ta11 1.900756 1_555
O18 Ta7 2.069058 1_555
O19 Ta19 1.900756 1_555
O19 Ta15 2.069058 1_555
O20 Ta1 1.943876 1_655
O20 Ta6 2.028780 1_555
O21 Ta0 1.900756 1_555
O21 Ta2 2.069058 1_555
O22 Ta3 1.900756 1_555
O22 Ta8 2.069058 1_555
O23 Ta10 2.009965 1_556
O23 Ta12 2.155178 1_565
O23 Ta9 2.268427 1_555
O24 Ta12 1.853174 1_555
O24 Ta17 2.201739 1_545
O25 Ta7 1.964452 1_555
O25 Ta3 1.991839 1_565
O26 Ta2 1.967581 1_555
O26 Ta15 1.985657 1_555
O27 Ta3 1.967095 1_555
O27 Ta6 1.967095 1_455
O28 Ta9 1.943876 1_555
O28 Ta17 2.028780 1_555
O29 Ta4 1.943876 1_655
O29 Ta18 2.028780 1_555
O30 Ta4 1.938766 1_565
O30 Ta14 1.946414 1_555
O31 Ta17 1.900756 1_555
O31 Ta2 2.069058 1_555
O32 Ta17 1.965096 1_555
O32 Ta0 1.965096 1_555
O33 Ta15 1.964452 1_555
O33 Ta0 1.991839 1_545
O34 Ta2 1.964452 1_555
O34 Ta19 1.991839 1_555
O35 Ta5 1.853174 1_655
O35 Ta13 2.201739 1_555
O36 Ta14 1.853174 1_655
O36 Ta18 2.201739 1_555
O37 Ta1 1.938766 1_555
O37 Ta10 1.946414 1_555
O38 Ta14 2.009965 1_555
O38 Ta5 2.155178 1_555
O38 Ta16 2.268427 1_555
O39 Ta18 1.900756 1_555
O39 Ta15 2.069058 1_555
O40 Ta7 1.964452 1_555
O40 Ta6 1.991839 1_565
O41 Ta11 1.967095 1_555
O41 Ta13 1.967095 1_455
O42 Ta3 1.965096 1_555
O42 Ta6 1.965096 1_555
O43 Ta2 1.964452 1_555
O43 Ta18 1.991839 1_555
O44 Ta4 2.024550 1_555
O44 Ta16 2.024550 1_545
O45 Ta10 1.853174 1_655
O45 Ta6 2.201739 1_565
O46 Ta16 1.943876 1_655
O46 Ta13 2.028780 1_555
O47 Ta19 1.965096 1_555
O47 Ta18 1.965096 1_555
O48 Ta12 1.853174 1_655
O48 Ta0 2.201739 1_545
O49 Ta16 1.943876 1_555
O49 Ta11 2.028780 1_555
O50 Ta14 1.853174 1_555
O50 Ta19 2.201739 1_555
O51 Ta4 1.943876 1_555
O51 Ta19 2.028780 1_555
O52 Ta16 1.938766 1_545
O52 Ta5 1.946414 1_555
O53 Ta5 1.853174 1_555
O53 Ta11 2.201739 1_555
O54 Ta15 1.964452 1_555
O54 Ta17 1.991839 1_545
O55 Ta9 2.024550 1_554
O55 Ta1 2.024550 1_555
