# generated using pymatgen
data_Na5Fe3F14
_symmetry_space_group_name_H-M   'P 1'
_cell_length_a   7.42880800
_cell_length_b   7.52872700
_cell_length_c   12.87864626
_cell_angle_alpha   55.22259577
_cell_angle_beta   90.00000000
_cell_angle_gamma   90.00000000
_symmetry_Int_Tables_number   1
_chemical_formula_structural   Na5Fe3F14
_chemical_formula_sum   'Na10 Fe6 F28'
_cell_volume   591.63242055
_cell_formula_units_Z   2
loop_
 _symmetry_equiv_pos_site_id
 _symmetry_equiv_pos_as_xyz
  1  'x, y, z'
loop_
 _atom_site_type_symbol
 _atom_site_label
 _atom_site_symmetry_multiplicity
 _atom_site_fract_x
 _atom_site_fract_y
 _atom_site_fract_z
 _atom_site_occupancy
  Na  Na0  1  0.69845200  0.99438900  0.24748000  1
  Na  Na1  1  0.80154800  0.99438900  0.74748000  1
  Na  Na2  1  0.30154800  0.00561100  0.75252000  1
  Na  Na3  1  0.25429200  0.51077500  0.26165200  1
  Na  Na4  1  0.75429200  0.48922500  0.23834800  1
  Na  Na5  1  0.24570800  0.51077500  0.76165200  1
  Na  Na6  1  0.00000000  0.50000000  0.50000000  1
  Na  Na7  1  0.50000000  0.50000000  0.00000000  1
  Na  Na8  1  0.74570800  0.48922500  0.73834800  1
  Na  Na9  1  0.19845200  0.00561100  0.25252000  1
  Fe  Fe0  1  0.00000000  0.00000000  0.50000000  1
  Fe  Fe1  1  0.50000000  0.00000000  0.50000000  1
  Fe  Fe2  1  0.50000000  0.00000000  0.00000000  1
  Fe  Fe3  1  0.00000000  0.50000000  0.00000000  1
  Fe  Fe4  1  0.00000000  0.00000000  0.00000000  1
  Fe  Fe5  1  0.50000000  0.50000000  0.50000000  1
  F  F0  1  0.29130900  0.64412500  0.39095000  1
  F  F1  1  0.57345500  0.74942100  0.50275900  1
  F  F2  1  0.33752400  0.38613500  0.64283200  1
  F  F3  1  0.05958300  0.81249000  0.17592700  1
  F  F4  1  0.20869100  0.64412500  0.89095000  1
  F  F5  1  0.43604800  0.04875700  0.12827400  1
  F  F6  1  0.83752400  0.61386500  0.85716800  1
  F  F7  1  0.06395200  0.04875700  0.62827400  1
  F  F8  1  0.79130900  0.35587500  0.10905000  1
  F  F9  1  0.24728300  0.99335000  0.94624700  1
  F  F10  1  0.93604700  0.95124300  0.37172600  1
  F  F11  1  0.66247600  0.61386500  0.35716800  1
  F  F12  1  0.99417900  0.31534500  0.38161700  1
  F  F13  1  0.00582100  0.68465500  0.61838300  1
  F  F14  1  0.07345500  0.25057900  0.99724100  1
  F  F15  1  0.50582100  0.31534500  0.88161700  1
  F  F16  1  0.55958300  0.18751000  0.32407300  1
  F  F17  1  0.70869100  0.35587500  0.60905000  1
  F  F18  1  0.44041700  0.81249000  0.67592700  1
  F  F19  1  0.42654500  0.25057900  0.49724100  1
  F  F20  1  0.75271700  0.00665000  0.05375300  1
  F  F21  1  0.25271700  0.99335000  0.44624700  1
  F  F22  1  0.49417900  0.68465500  0.11838300  1
  F  F23  1  0.94041700  0.18751000  0.82407300  1
  F  F24  1  0.92654500  0.74942100  0.00275900  1
  F  F25  1  0.16247600  0.38613500  0.14283200  1
  F  F26  1  0.56395200  0.95124300  0.87172600  1
  F  F27  1  0.74728300  0.00665000  0.55375300  1
loop_
_geom_bond_atom_site_label_1
_geom_bond_atom_site_label_2
_geom_bond_distance
_geom_bond_site_symmetry_2
F0 Fe5 1.953165 1_555
F0 Na9 2.350733 1_565
F0 Na3 2.400730 1_555
F0 Na6 2.468720 1_555
F1 Fe1 1.944633 1_565
F1 Fe5 1.975188 1_555
F1 Na8 2.810728 1_555
F2 Fe5 1.943331 1_555
F2 Na5 2.307712 1_555
F2 Na2 2.378583 1_555
F2 Na6 2.933725 1_555
F3 Fe4 1.916625 1_565
F3 Na3 2.368560 1_555
F3 Na9 2.405695 1_565
F4 Fe3 1.953165 1_556
F4 Na2 2.350733 1_565
F4 Na5 2.400730 1_555
F4 Na7 2.468720 1_556
F5 Fe2 1.944563 1_555
F5 Na9 2.277800 1_555
F5 Na0 2.368020 1_545
F5 Na7 2.844987 1_555
F6 Fe3 1.943331 1_656
F6 Na8 2.307712 1_555
F6 Na1 2.378583 1_555
F6 Na7 2.933725 1_556
F7 Fe0 1.944563 1_555
F7 Na2 2.277800 1_555
F7 Na1 2.368020 1_445
F7 Na6 2.844987 1_555
F8 Fe3 1.953165 1_655
F8 Na0 2.350733 1_545
F8 Na4 2.400730 1_555
F8 Na7 2.468720 1_555
F9 Fe4 1.973806 1_566
F9 Fe2 2.011431 1_566
F9 Na2 2.476496 1_565
F10 Fe0 1.944565 1_665
F10 Na0 2.277795 1_555
F10 Na9 2.368026 1_665
F10 Na6 2.844988 1_655
F11 Fe5 1.943331 1_555
F11 Na4 2.307712 1_555
F11 Na0 2.378583 1_555
F11 Na6 2.933725 1_655
F12 Fe0 1.957973 1_655
F12 Na4 2.353399 1_555
F12 Na3 2.385896 1_655
F12 Na6 2.583979 1_655
F13 Fe0 1.957973 1_565
F13 Na5 2.353399 1_555
F13 Na8 2.385896 1_455
F13 Na6 2.583979 1_555
F14 Fe4 1.944633 1_556
F14 Fe3 1.975188 1_556
F14 Na5 2.810728 1_555
F15 Fe2 1.957973 1_556
F15 Na8 2.353399 1_555
F15 Na5 2.385896 1_555
F15 Na7 2.583979 1_556
F16 Fe1 1.916625 1_555
F16 Na4 2.368560 1_555
F16 Na0 2.405695 1_545
F17 Fe5 1.953165 1_555
F17 Na1 2.350733 1_545
F17 Na8 2.400730 1_555
F17 Na6 2.468720 1_655
F18 Fe1 1.916625 1_565
F18 Na5 2.368560 1_555
F18 Na2 2.405695 1_565
F19 Fe1 1.944633 1_555
F19 Fe5 1.975188 1_555
F19 Na3 2.810728 1_555
F20 Fe4 1.973806 1_655
F20 Fe2 2.011431 1_555
F20 Na0 2.476496 1_545
F21 Fe1 1.973806 1_565
F21 Fe0 2.011431 1_565
F21 Na9 2.476496 1_565
F22 Fe2 1.957973 1_565
F22 Na3 2.353399 1_555
F22 Na4 2.385896 1_555
F22 Na7 2.583979 1_555
F23 Fe4 1.916625 1_656
F23 Na8 2.368560 1_555
F23 Na1 2.405695 1_545
F24 Fe4 1.944633 1_665
F24 Fe3 1.975188 1_655
F24 Na4 2.810728 1_555
F25 Fe3 1.943331 1_555
F25 Na3 2.307712 1_555
F25 Na9 2.378583 1_555
F25 Na7 2.933725 1_555
F26 Fe2 1.944563 1_566
F26 Na1 2.277800 1_555
F26 Na2 2.368020 1_565
F26 Na7 2.844987 1_556
F27 Fe1 1.973806 1_555
F27 Fe0 2.011431 1_655
F27 Na1 2.476496 1_545
