# generated using pymatgen
data_LiGa2Pd
_symmetry_space_group_name_H-M   'P 1'
_cell_length_a   4.32413708
_cell_length_b   4.32413693
_cell_length_c   4.32413654
_cell_angle_alpha   59.99999532
_cell_angle_beta   59.99999649
_cell_angle_gamma   59.99999649
_symmetry_Int_Tables_number   1
_chemical_formula_structural   LiGa2Pd
_chemical_formula_sum   'Li1 Ga2 Pd1'
_cell_volume   57.17198273
_cell_formula_units_Z   1
loop_
 _symmetry_equiv_pos_site_id
 _symmetry_equiv_pos_as_xyz
  1  'x, y, z'
loop_
 _atom_site_type_symbol
 _atom_site_label
 _atom_site_symmetry_multiplicity
 _atom_site_fract_x
 _atom_site_fract_y
 _atom_site_fract_z
 _atom_site_occupancy
  Li  Li0  1  0.50000000  0.50000000  0.50000000  1
  Ga  Ga0  1  0.25000000  0.25000000  0.25000000  1
  Ga  Ga1  1  0.75000000  0.75000000  0.75000000  1
  Pd  Pd0  1  0.00000000  -0.00000000  -0.00000000  1
loop_
_geom_bond_atom_site_label_1
_geom_bond_atom_site_label_2
_geom_bond_distance
_geom_bond_site_symmetry_2
Li0 Pd0 3.057626 1_566
Li0 Pd0 3.057626 1_565
Li0 Pd0 3.057626 1_656
Li0 Pd0 3.057626 1_655
Li0 Pd0 3.057626 1_556
Li0 Pd0 3.057626 1_665
Ga0 Li0 2.647982 1_554
Ga0 Pd0 2.647982 1_556
Ga0 Pd0 2.647982 1_565
Ga0 Li0 2.647982 1_545
Ga0 Li0 2.647982 1_455
Ga0 Pd0 2.647982 1_655
Ga0 Pd0 2.647982 1_555
Ga0 Li0 2.647982 1_555
Ga1 Pd0 2.647982 1_665
Ga1 Li0 2.647982 1_556
Ga1 Pd0 2.647982 1_656
Ga1 Li0 2.647982 1_565
Ga1 Li0 2.647982 1_655
Ga1 Pd0 2.647982 1_566
Ga1 Li0 2.647982 1_555
Ga1 Pd0 2.647982 1_666
