# generated using pymatgen
data_K2Cu(CO3)2
_symmetry_space_group_name_H-M   'P 1'
_cell_length_a   10.53962019
_cell_length_b   9.38737875
_cell_length_c   6.43402275
_cell_angle_alpha   81.22127543
_cell_angle_beta   61.67145943
_cell_angle_gamma   37.10726514
_symmetry_Int_Tables_number   1
_chemical_formula_structural   K2Cu(CO3)2
_chemical_formula_sum   'K4 Cu2 C4 O12'
_cell_volume   305.97343471
_cell_formula_units_Z   2
loop_
 _symmetry_equiv_pos_site_id
 _symmetry_equiv_pos_as_xyz
  1  'x, y, z'
loop_
 _atom_site_type_symbol
 _atom_site_label
 _atom_site_symmetry_multiplicity
 _atom_site_fract_x
 _atom_site_fract_y
 _atom_site_fract_z
 _atom_site_occupancy
  K  K0  1  0.57537432  0.02322782  0.58468319  1
  K  K1  1  0.81671467  0.58468319  0.02322782  1
  K  K2  1  0.66531681  0.43328533  0.67462568  1
  K  K3  1  0.22677218  0.67462568  0.43328533  1
  Cu  Cu0  1  0.00028081  0.99971919  0.99971919  1
  Cu  Cu1  1  0.25028081  0.24971919  0.24971919  1
  C  C0  1  0.16009022  0.58661868  0.00305036  1
  C  C1  1  0.25024074  0.00305036  0.58661868  1
  C  C2  1  0.24694964  0.99975926  0.08990978  1
  C  C3  1  0.66338132  0.08990978  0.99975926  1
  O  O0  1  0.99633000  0.81284230  0.16688367  1
  O  O1  1  0.02394304  0.16688367  0.81284230  1
  O  O2  1  0.08311633  0.22605696  0.25367000  1
  O  O3  1  0.43715770  0.25367000  0.22605696  1
  O  O4  1  0.11109941  0.48971777  0.08868870  1
  O  O5  1  0.31049312  0.08868870  0.48971777  1
  O  O6  1  0.16131130  0.93950688  0.13890059  1
  O  O7  1  0.76028223  0.13890059  0.93950688  1
  O  O8  1  0.34981728  0.47220002  0.77324732  1
  O  O9  1  0.40473538  0.77324732  0.47220002  1
  O  O10  1  0.47675268  0.84526462  0.90018272  1
  O  O11  1  0.77779998  0.90018272  0.84526462  1
loop_
_geom_bond_atom_site_label_1
_geom_bond_atom_site_label_2
_geom_bond_distance
_geom_bond_site_symmetry_2
K0 O0 2.671425 1_545
K0 O5 2.704211 1_555
K0 O11 2.751344 1_545
K0 O10 2.779224 1_545
K0 O8 2.780142 1_555
K0 O4 2.955204 1_556
K0 O3 2.960741 1_555
K0 O4 3.133866 1_645
K1 O1 2.671431 1_654
K1 O4 2.704201 1_655
K1 O10 2.751344 1_554
K1 O11 2.779224 1_554
K1 O9 2.780142 1_555
K1 O5 2.955204 1_565
K1 O2 2.960744 1_655
K1 O5 3.133867 1_654
K2 O2 2.671429 1_655
K2 O7 2.704205 1_555
K2 O9 2.751344 1_555
K2 O8 2.779224 1_555
K2 O10 2.780142 1_555
K2 O6 2.955207 1_556
K2 O1 2.960739 1_655
K2 O6 3.133863 1_645
K3 O3 2.671423 1_555
K3 O6 2.704206 1_555
K3 O8 2.751344 1_555
K3 O9 2.779224 1_555
K3 O11 2.780142 1_455
K3 O7 2.955207 1_465
K3 O0 2.960747 1_455
K3 O7 3.133864 1_554
Cu0 O1 1.932382 1_565
Cu0 O0 1.932387 1_456
Cu0 O7 1.938978 1_465
Cu0 O6 1.938987 1_556
Cu1 O2 1.932379 1_555
Cu1 O3 1.932390 1_555
Cu1 O5 1.938982 1_555
Cu1 O4 1.938983 1_555
C0 O8 1.261508 1_554
C0 O0 1.307793 1_455
C0 O4 1.312947 1_555
C1 O9 1.261508 1_545
C1 O1 1.307797 1_555
C1 O5 1.312939 1_555
C2 O10 1.261508 1_554
C2 O2 1.307800 1_565
C2 O6 1.312938 1_555
C3 O11 1.261508 1_545
C3 O3 1.307796 1_556
C3 O7 1.312948 1_555
