# generated using pymatgen
data_Ca3SiO5
_symmetry_space_group_name_H-M   'P 1'
_cell_length_a   9.44645477
_cell_length_b   9.44645477
_cell_length_c   9.44645478
_cell_angle_alpha   44.67091302
_cell_angle_beta   44.67091302
_cell_angle_gamma   44.67090870
_symmetry_Int_Tables_number   1
_chemical_formula_structural   Ca3SiO5
_chemical_formula_sum   'Ca9 Si3 O15'
_cell_volume   378.95207848
_cell_formula_units_Z   3
loop_
 _symmetry_equiv_pos_site_id
 _symmetry_equiv_pos_as_xyz
  1  'x, y, z'
loop_
 _atom_site_type_symbol
 _atom_site_label
 _atom_site_symmetry_multiplicity
 _atom_site_fract_x
 _atom_site_fract_y
 _atom_site_fract_z
 _atom_site_occupancy
  Ca  Ca0  1  0.50197500  0.00162600  0.50197500  1
  Ca  Ca1  1  0.50197500  0.50197500  0.00162600  1
  Ca  Ca2  1  0.29515700  0.29515700  0.74629700  1
  Ca  Ca3  1  0.25685900  0.70787600  0.70787600  1
  Ca  Ca4  1  0.70787600  0.25685900  0.70787600  1
  Ca  Ca5  1  0.70787600  0.70787600  0.25685900  1
  Ca  Ca6  1  0.74629700  0.29515700  0.29515700  1
  Ca  Ca7  1  0.29515700  0.74629700  0.29515700  1
  Ca  Ca8  1  0.00162600  0.50197500  0.50197500  1
  Si  Si0  1  0.22141500  0.22141500  0.22141500  1
  Si  Si1  1  0.00736900  0.00736900  0.00736900  1
  Si  Si2  1  0.78633300  0.78633300  0.78633300  1
  O  O0  1  0.07292300  0.07292300  0.07292300  1
  O  O1  1  0.63933700  0.63933700  0.01173600  1
  O  O2  1  0.32656900  0.94986100  0.32656900  1
  O  O3  1  0.28571300  0.28571300  0.28571300  1
  O  O4  1  0.94986100  0.32656900  0.32656900  1
  O  O5  1  0.63933700  0.01173600  0.63933700  1
  O  O6  1  0.86007600  0.86007600  0.23566200  1
  O  O7  1  0.85210500  0.85210500  0.85210500  1
  O  O8  1  0.32656900  0.32656900  0.94986100  1
  O  O9  1  0.23566200  0.86007600  0.86007600  1
  O  O10  1  0.50030300  0.50030300  0.50030300  1
  O  O11  1  0.86007600  0.23566200  0.86007600  1
  O  O12  1  0.38604500  0.38604500  0.38604500  1
  O  O13  1  0.61577400  0.61577400  0.61577400  1
  O  O14  1  0.01173600  0.63933700  0.63933700  1
loop_
_geom_bond_atom_site_label_1
_geom_bond_atom_site_label_2
_geom_bond_distance
_geom_bond_site_symmetry_2
Ca0 O6 2.409756 1_545
Ca0 O9 2.409756 1_545
Ca0 O3 2.426811 1_555
Ca0 O12 2.445160 1_555
Ca0 O13 2.468674 1_545
Ca0 O5 2.474645 1_555
Ca1 O9 2.409756 1_554
Ca1 O11 2.409756 1_554
Ca1 O3 2.426811 1_555
Ca1 O12 2.445160 1_555
Ca1 O13 2.468674 1_554
Ca1 O1 2.474645 1_555
Ca2 O10 2.332864 1_555
Ca2 O14 2.356714 1_555
Ca2 O5 2.356714 1_555
Ca2 O8 2.371130 1_555
Ca2 O12 2.406744 1_555
Ca2 O0 2.485362 1_556
Ca3 O10 2.370568 1_555
Ca3 O8 2.385298 1_555
Ca3 O2 2.385299 1_555
Ca3 O13 2.386357 1_555
Ca3 O7 2.480577 1_455
Ca3 O9 2.509085 1_555
Ca4 O10 2.370568 1_555
Ca4 O8 2.385298 1_555
Ca4 O4 2.385299 1_555
Ca4 O13 2.386357 1_555
Ca4 O7 2.480577 1_545
Ca4 O11 2.509085 1_555
Ca5 O10 2.370568 1_555
Ca5 O4 2.385298 1_555
Ca5 O2 2.385298 1_555
Ca5 O13 2.386357 1_555
Ca5 O7 2.480577 1_554
Ca5 O6 2.509085 1_555
Ca6 O10 2.332864 1_555
Ca6 O1 2.356714 1_555
Ca6 O5 2.356714 1_555
Ca6 O4 2.371130 1_555
Ca6 O12 2.406744 1_555
Ca6 O0 2.485361 1_655
Ca7 O10 2.332864 1_555
Ca7 O1 2.356714 1_555
Ca7 O14 2.356714 1_555
Ca7 O2 2.371130 1_555
Ca7 O12 2.406744 1_555
Ca7 O0 2.485361 1_565
Ca8 O6 2.409756 1_455
Ca8 O11 2.409756 1_455
Ca8 O3 2.426811 1_555
Ca8 O12 2.445160 1_555
Ca8 O13 2.468674 1_455
Ca8 O14 2.474645 1_555
O0 Si1 1.669336 1_555
O1 Si2 1.649842 1_554
O2 Si0 1.645828 1_565
O3 Si0 1.637352 1_555
O4 Si0 1.645828 1_655
O5 Si2 1.649841 1_545
O6 Si1 1.655483 1_665
O7 Si2 1.674888 1_555
O8 Si0 1.645828 1_556
O9 Si1 1.655483 1_566
O11 Si1 1.655483 1_656
O14 Si2 1.649841 1_455
