# generated using pymatgen
data_Sm4MgRh
_symmetry_space_group_name_H-M   'P 1'
_cell_length_a   9.86510308
_cell_length_b   9.86510308
_cell_length_c   9.86509470
_cell_angle_alpha   60.00010558
_cell_angle_beta   60.00010558
_cell_angle_gamma   60.00013292
_symmetry_Int_Tables_number   1
_chemical_formula_structural   Sm4MgRh
_chemical_formula_sum   'Sm16 Mg4 Rh4'
_cell_volume   678.87629659
_cell_formula_units_Z   4
loop_
 _symmetry_equiv_pos_site_id
 _symmetry_equiv_pos_as_xyz
  1  'x, y, z'
loop_
 _atom_site_type_symbol
 _atom_site_label
 _atom_site_symmetry_multiplicity
 _atom_site_fract_x
 _atom_site_fract_y
 _atom_site_fract_z
 _atom_site_occupancy
  Sm  Sm0  1  0.18652260  0.81347956  0.81347859  1
  Sm  Sm1  1  0.81347956  0.18652260  0.81347859  1
  Sm  Sm2  1  0.06226828  0.43773794  0.43773799  1
  Sm  Sm3  1  0.43773813  0.43773813  0.06226713  1
  Sm  Sm4  1  0.81348029  0.81348029  0.18652084  1
  Sm  Sm5  1  0.59648569  0.59648569  0.21053751  1
  Sm  Sm6  1  0.18652428  0.81347653  0.18652292  1
  Sm  Sm7  1  0.18652405  0.18652405  0.81347558  1
  Sm  Sm8  1  0.43773765  0.06226374  0.06226169  1
  Sm  Sm9  1  0.43773794  0.06226828  0.43773799  1
  Sm  Sm10  1  0.81347653  0.18652428  0.18652292  1
  Sm  Sm11  1  0.06226374  0.43773765  0.06226169  1
  Sm  Sm12  1  0.59648524  0.21053684  0.59648647  1
  Sm  Sm13  1  0.21053684  0.59648524  0.59648647  1
  Sm  Sm14  1  0.59648712  0.59648712  0.59648803  1
  Sm  Sm15  1  0.06226298  0.06226298  0.43773721  1
  Mg  Mg0  1  0.82900208  0.51299255  0.82900201  1
  Mg  Mg1  1  0.51299255  0.82900208  0.82900201  1
  Mg  Mg2  1  0.82900337  0.82900337  0.82900315  1
  Mg  Mg3  1  0.82900210  0.82900210  0.51299292  1
  Rh  Rh0  1  0.39187319  0.82436706  0.39187494  1
  Rh  Rh1  1  0.39187236  0.39187236  0.82436640  1
  Rh  Rh2  1  0.39187638  0.39187638  0.39188204  1
  Rh  Rh3  1  0.82436706  0.39187319  0.39187494  1
loop_
_geom_bond_atom_site_label_1
_geom_bond_atom_site_label_2
_geom_bond_distance
_geom_bond_site_symmetry_2
Sm0 Sm14 3.576146 1_555
Sm0 Sm13 3.576189 1_555
Sm0 Sm4 3.680105 1_456
Sm0 Sm6 3.680111 1_556
Sm0 Sm7 3.680115 1_565
Sm0 Sm1 3.680115 1_465
Sm0 Sm15 3.701883 1_565
Sm0 Sm11 3.701886 1_556
Sm0 Sm9 3.701898 1_565
Sm0 Sm3 3.701903 1_556
Sm1 Sm14 3.576146 1_555
Sm1 Sm12 3.576189 1_555
Sm1 Sm4 3.680105 1_546
Sm1 Sm10 3.680111 1_556
Sm1 Sm7 3.680115 1_655
Sm1 Sm15 3.701883 1_655
Sm1 Sm8 3.701886 1_556
Sm1 Sm2 3.701898 1_655
Sm1 Sm3 3.701903 1_556
Sm2 Sm7 3.701833 1_555
Sm2 Sm6 3.701844 1_555
Sm2 Sm4 3.701911 1_455
Sm3 Sm6 3.701843 1_555
Sm4 Sm5 3.576201 1_555
Sm4 Sm6 3.680109 1_655
Sm4 Sm8 3.701894 1_565
Sm4 Sm9 3.701911 1_565
Sm5 Sm6 3.576105 1_555
Sm6 Sm7 3.680156 1_564
Sm6 Sm8 3.701873 1_565
Sm7 Sm9 3.701833 1_555
Sm7 Sm8 3.701868 1_556
Sm10 Sm5 3.576105 1_555
Sm10 Sm12 3.576113 1_555
Sm10 Sm4 3.680109 1_545
Sm10 Sm7 3.680156 1_654
Sm10 Sm6 3.680162 1_645
Sm10 Sm3 3.701843 1_555
Sm10 Sm9 3.701844 1_555
Sm10 Sm11 3.701873 1_655
Sm10 Sm15 3.701873 1_655
Sm11 Sm7 3.701868 1_554
Sm11 Sm4 3.701894 1_455
Sm12 Sm7 3.576097 1_555
Sm13 Sm7 3.576097 1_555
Sm13 Sm6 3.576113 1_555
Sm14 Sm4 3.576168 1_555
Sm15 Sm6 3.701873 1_545
Mg0 Mg3 3.117468 1_555
Mg0 Mg1 3.117473 1_555
Mg0 Mg2 3.117491 1_555
Mg0 Sm1 3.380738 1_555
Mg0 Sm10 3.380762 1_556
Mg0 Sm7 3.380772 1_655
Mg0 Sm14 3.561463 1_555
Mg0 Sm13 3.561463 1_655
Mg0 Sm5 3.561469 1_556
Mg0 Sm2 3.608327 1_655
Mg0 Sm3 3.608328 1_556
Mg0 Sm11 3.608346 1_656
Mg1 Mg3 3.117468 1_555
Mg1 Mg2 3.117491 1_555
Mg1 Sm0 3.380738 1_555
Mg1 Sm6 3.380762 1_556
Mg1 Sm7 3.380772 1_565
Mg1 Sm14 3.561463 1_555
Mg1 Sm12 3.561463 1_565
Mg1 Sm5 3.561469 1_556
Mg1 Sm9 3.608327 1_565
Mg1 Sm3 3.608328 1_556
Mg1 Sm8 3.608346 1_566
Mg2 Mg3 3.117483 1_555
Mg2 Sm4 3.380753 1_556
Mg2 Sm0 3.380762 1_655
Mg2 Sm1 3.380762 1_565
Mg2 Sm12 3.561492 1_565
Mg2 Sm13 3.561492 1_655
Mg2 Sm5 3.561496 1_556
Mg2 Sm8 3.608341 1_566
Mg2 Sm11 3.608341 1_656
Mg2 Sm15 3.608341 1_665
Mg3 Sm4 3.380744 1_555
Mg3 Sm10 3.380777 1_565
Mg3 Sm6 3.380777 1_655
Mg3 Sm12 3.561467 1_565
Mg3 Sm13 3.561467 1_655
Mg3 Sm14 3.561470 1_555
Mg3 Sm9 3.608333 1_565
Mg3 Sm2 3.608333 1_655
Mg3 Sm15 3.608347 1_665
Rh0 Sm13 2.863795 1_555
Rh0 Sm5 2.863799 1_555
Rh0 Sm14 2.863852 1_555
Rh0 Sm15 2.871438 1_565
Rh0 Sm8 2.871457 1_565
Rh0 Sm9 2.871568 1_565
Rh0 Sm6 3.571897 1_555
Rh0 Sm0 3.572013 1_555
Rh0 Sm4 3.572048 1_555
Rh1 Sm13 2.863775 1_555
Rh1 Sm12 2.863775 1_555
Rh1 Sm14 2.863867 1_555
Rh1 Sm8 2.871424 1_556
Rh1 Sm11 2.871424 1_556
Rh1 Sm3 2.871585 1_556
Rh1 Sm7 3.571863 1_555
Rh1 Sm0 3.572047 1_555
Rh1 Sm1 3.572047 1_555
Rh2 Sm13 2.863756 1_555
Rh2 Sm12 2.863756 1_555
Rh2 Sm5 2.863791 1_555
Rh2 Sm2 2.871403 1_555
Rh2 Sm9 2.871403 1_555
Rh2 Sm3 2.871446 1_555
Rh2 Sm7 3.571925 1_555
Rh2 Sm6 3.571985 1_555
Rh2 Sm10 3.571985 1_555
Rh3 Sm12 2.863795 1_555
Rh3 Sm5 2.863799 1_555
Rh3 Sm14 2.863852 1_555
Rh3 Sm15 2.871438 1_655
Rh3 Sm11 2.871457 1_655
Rh3 Sm2 2.871568 1_655
Rh3 Sm10 3.571897 1_555
Rh3 Sm1 3.572013 1_555
Rh3 Sm4 3.572048 1_555
