# generated using pymatgen
data_BaZnSiO4
_symmetry_space_group_name_H-M   'P 1'
_cell_length_a   9.22598355
_cell_length_b   9.22598355
_cell_length_c   8.86855500
_cell_angle_alpha   90.00000000
_cell_angle_beta   90.00000000
_cell_angle_gamma   119.99999678
_symmetry_Int_Tables_number   1
_chemical_formula_structural   BaZnSiO4
_chemical_formula_sum   'Ba6 Zn6 Si6 O24'
_cell_volume   653.74572425
_cell_formula_units_Z   6
loop_
 _symmetry_equiv_pos_site_id
 _symmetry_equiv_pos_as_xyz
  1  'x, y, z'
loop_
 _atom_site_type_symbol
 _atom_site_label
 _atom_site_symmetry_multiplicity
 _atom_site_fract_x
 _atom_site_fract_y
 _atom_site_fract_z
 _atom_site_occupancy
  Ba  Ba0  1  0.66666700  0.33333300  0.22755700  1
  Ba  Ba1  1  0.66666700  0.33333300  0.73060100  1
  Ba  Ba2  1  0.33333300  0.66666700  0.23060100  1
  Ba  Ba3  1  0.00000000  0.00000000  0.24743300  1
  Ba  Ba4  1  0.33333300  0.66666700  0.72755700  1
  Ba  Ba5  1  0.00000000  0.00000000  0.74743300  1
  Zn  Zn0  1  0.67689000  0.66719800  0.53569900  1
  Zn  Zn1  1  0.32311000  0.33280200  0.03569900  1
  Zn  Zn2  1  0.66719800  0.99030900  0.03569900  1
  Zn  Zn3  1  0.33280200  0.00969100  0.53569900  1
  Zn  Zn4  1  0.99030900  0.32311000  0.53569900  1
  Zn  Zn5  1  0.00969100  0.67689000  0.03569900  1
  Si  Si0  1  0.66129600  0.98835800  0.43502700  1
  Si  Si1  1  0.01164200  0.67293800  0.43502700  1
  Si  Si2  1  0.98835800  0.32706200  0.93502700  1
  Si  Si3  1  0.33870400  0.01164200  0.93502700  1
  Si  Si4  1  0.32706200  0.33870400  0.43502700  1
  Si  Si5  1  0.67293800  0.66129600  0.93502700  1
  O  O0  1  0.28864300  0.34940900  0.25535700  1
  O  O1  1  0.53284400  0.09815700  0.99813900  1
  O  O2  1  0.23937800  0.80636600  0.95651900  1
  O  O3  1  0.09012600  0.85692900  0.51839600  1
  O  O4  1  0.76680300  0.90987400  0.51839600  1
  O  O5  1  0.85692900  0.76680300  0.01839600  1
  O  O6  1  0.80636600  0.56698900  0.45651900  1
  O  O7  1  0.56531300  0.46715600  0.99813900  1
  O  O8  1  0.14307100  0.23319700  0.51839600  1
  O  O9  1  0.09815700  0.56531300  0.49813900  1
  O  O10  1  0.90987400  0.14307100  0.01839600  1
  O  O11  1  0.06076600  0.71135700  0.25535700  1
  O  O12  1  0.19363400  0.43301100  0.95651900  1
  O  O13  1  0.71135700  0.65059100  0.75535700  1
  O  O14  1  0.76062200  0.19363400  0.45651900  1
  O  O15  1  0.43468700  0.53284400  0.49813900  1
  O  O16  1  0.34940900  0.06076600  0.75535700  1
  O  O17  1  0.43301100  0.23937800  0.45651900  1
  O  O18  1  0.23319700  0.09012600  0.01839600  1
  O  O19  1  0.46715600  0.90184300  0.49813900  1
  O  O20  1  0.93923400  0.28864300  0.75535700  1
  O  O21  1  0.56698900  0.76062200  0.95651900  1
  O  O22  1  0.65059100  0.93923400  0.25535700  1
  O  O23  1  0.90184300  0.43468700  0.99813900  1
loop_
_geom_bond_atom_site_label_1
_geom_bond_atom_site_label_2
_geom_bond_distance
_geom_bond_site_symmetry_2
Ba0 O14 2.766397 1_555
Ba0 O6 2.766407 1_555
Ba0 O17 2.766409 1_555
Ba0 O23 2.773599 1_554
Ba0 O1 2.773599 1_554
Ba0 O7 2.773604 1_554
Ba1 O20 2.752952 1_555
Ba1 O16 2.752958 1_555
Ba1 O13 2.752961 1_555
Ba1 O23 3.030316 1_555
Ba1 O1 3.030317 1_555
Ba1 O7 3.030322 1_555
Ba1 O14 3.072154 1_555
Ba1 O6 3.072163 1_555
Ba1 O17 3.072164 1_555
Ba2 O11 2.752952 1_555
Ba2 O22 2.752958 1_555
Ba2 O0 2.752961 1_555
Ba2 O9 3.030316 1_555
Ba2 O19 3.030317 1_555
Ba2 O15 3.030322 1_555
Ba2 O2 3.072154 1_554
Ba2 O12 3.072163 1_554
Ba2 O21 3.072164 1_554
Ba3 O10 2.767157 1_455
Ba3 O18 2.767157 1_555
Ba3 O5 2.767157 1_445
Ba3 O11 2.983932 1_545
Ba3 O22 2.983932 1_445
Ba3 O0 2.983932 1_555
Ba3 O3 3.050561 1_545
Ba3 O4 3.050561 1_445
Ba3 O8 3.050561 1_555
Ba4 O2 2.766397 1_555
Ba4 O12 2.766407 1_555
Ba4 O21 2.766409 1_555
Ba4 O9 2.773599 1_555
Ba4 O19 2.773599 1_555
Ba4 O15 2.773604 1_555
Ba5 O3 2.767157 1_545
Ba5 O4 2.767157 1_445
Ba5 O8 2.767157 1_555
Ba5 O20 2.983932 1_455
Ba5 O16 2.983932 1_555
Ba5 O13 2.983932 1_445
Ba5 O10 3.050561 1_456
Ba5 O18 3.050561 1_556
Ba5 O5 3.050561 1_446
O0 Si4 1.646015 1_555
O0 Zn1 1.992037 1_555
O1 Si3 1.651931 1_555
O1 Zn2 1.967441 1_546
O2 Si3 1.651463 1_565
O2 Zn5 1.969576 1_556
O3 Si1 1.650249 1_555
O3 Zn3 1.966517 1_565
O4 Si0 1.650249 1_555
O4 Zn0 1.966518 1_555
O5 Si5 1.650249 1_554
O5 Zn5 1.966509 1_655
O6 Si1 1.651463 1_655
O6 Zn0 1.969561 1_555
O7 Si5 1.651931 1_555
O7 Zn1 1.967449 1_556
O8 Si4 1.650249 1_555
O8 Zn4 1.966509 1_455
O9 Si1 1.651931 1_555
O9 Zn4 1.967449 1_455
O10 Si2 1.650249 1_554
O10 Zn2 1.966517 1_545
O11 Si1 1.646015 1_555
O11 Zn5 1.992038 1_555
O12 Si2 1.651463 1_455
O12 Zn1 1.969561 1_556
O13 Si5 1.646015 1_555
O13 Zn0 1.992037 1_555
O14 Si0 1.651463 1_545
O14 Zn4 1.969576 1_555
O15 Si4 1.651931 1_555
O15 Zn0 1.967449 1_555
O16 Si3 1.646015 1_555
O16 Zn3 1.992039 1_555
O17 Si4 1.651455 1_555
O17 Zn3 1.969577 1_555
O18 Si3 1.650249 1_554
O18 Zn1 1.966518 1_555
O19 Si0 1.651931 1_555
O19 Zn3 1.967441 1_565
O20 Si2 1.646015 1_555
O20 Zn4 1.992038 1_555
O21 Si5 1.651455 1_555
O21 Zn2 1.969577 1_556
O22 Si0 1.646015 1_555
O22 Zn2 1.992039 1_555
O23 Si2 1.651931 1_555
O23 Zn5 1.967449 1_656
