# generated using pymatgen
data_YbIn4Pd
_symmetry_space_group_name_H-M   'P 1'
_cell_length_a   8.72488941
_cell_length_b   8.72488941
_cell_length_c   7.63680400
_cell_angle_alpha   90.00000000
_cell_angle_beta   90.00000000
_cell_angle_gamma   150.17986039
_symmetry_Int_Tables_number   1
_chemical_formula_structural   YbIn4Pd
_chemical_formula_sum   'Yb2 In8 Pd2'
_cell_volume   289.08901127
_cell_formula_units_Z   2
loop_
 _symmetry_equiv_pos_site_id
 _symmetry_equiv_pos_as_xyz
  1  'x, y, z'
loop_
 _atom_site_type_symbol
 _atom_site_label
 _atom_site_symmetry_multiplicity
 _atom_site_fract_x
 _atom_site_fract_y
 _atom_site_fract_z
 _atom_site_occupancy
  Yb  Yb0  1  0.12822700  0.87177300  0.75000000  1
  Yb  Yb1  1  0.87177300  0.12822700  0.25000000  1
  In  In0  1  0.68208600  0.31791400  0.45144600  1
  In  In1  1  0.31791400  0.68208600  0.95144600  1
  In  In2  1  0.06532100  0.93467900  0.25000000  1
  In  In3  1  0.31791400  0.68208600  0.54855400  1
  In  In4  1  0.68208600  0.31791400  0.04855400  1
  In  In5  1  0.93467900  0.06532100  0.75000000  1
  In  In6  1  0.50000000  0.50000000  0.50000000  1
  In  In7  1  0.50000000  0.50000000  0.00000000  1
  Pd  Pd0  1  0.22746000  0.77254000  0.25000000  1
  Pd  Pd1  1  0.77254000  0.22746000  0.75000000  1
loop_
_geom_bond_atom_site_label_1
_geom_bond_atom_site_label_2
_geom_bond_distance
_geom_bond_site_symmetry_2
In0 Pd1 2.743138 1_555
In0 Pd0 2.826980 1_655
In0 Pd0 2.826980 1_545
In0 In6 3.092690 1_555
In0 Yb0 3.326099 1_545
In0 Yb0 3.326099 1_655
In0 Yb1 3.549284 1_555
In1 Pd0 2.743138 1_556
In1 Pd1 2.826980 1_565
In1 Pd1 2.826980 1_455
In1 In7 3.092690 1_556
In1 Yb1 3.326099 1_456
In1 Yb1 3.326099 1_566
In1 Yb0 3.549284 1_555
In2 Pd0 2.734030 1_555
In2 In6 3.146109 1_455
In2 In6 3.146109 1_565
In2 In7 3.146109 1_455
In2 In7 3.146109 1_565
In2 Yb1 3.263657 1_465
In3 Pd0 2.743138 1_555
In3 Pd1 2.826980 1_565
In3 Pd1 2.826980 1_455
In3 In6 3.092690 1_555
In3 Yb1 3.326099 1_455
In3 Yb1 3.326099 1_565
In3 Yb0 3.549284 1_555
In4 Pd1 2.743138 1_554
In4 Pd0 2.826980 1_655
In4 Pd0 2.826980 1_545
In4 In7 3.092690 1_555
In4 Yb0 3.326099 1_544
In4 Yb0 3.326099 1_654
In4 Yb1 3.549284 1_555
In5 Pd1 2.734030 1_555
In5 In7 3.146109 1_656
In5 In6 3.146109 1_545
In5 In6 3.146109 1_655
In5 In7 3.146109 1_546
In5 Yb0 3.263657 1_645
In6 Yb0 3.655118 1_545
In6 Yb1 3.655118 1_455
In6 Yb1 3.655118 1_565
In6 Yb0 3.655118 1_655
In7 Yb0 3.655118 1_544
In7 Yb1 3.655118 1_455
In7 Yb1 3.655118 1_565
In7 Yb0 3.655118 1_654
Pd0 Yb1 3.310799 1_455
Pd0 Yb1 3.310799 1_565
Pd1 Yb0 3.310799 1_655
Pd1 Yb0 3.310799 1_545
