# generated using pymatgen
data_TiMnO3
_symmetry_space_group_name_H-M   'P 1'
_cell_length_a   5.20589800
_cell_length_b   5.39842700
_cell_length_c   7.56134700
_cell_angle_alpha   90.00000000
_cell_angle_beta   90.00000000
_cell_angle_gamma   90.00006486
_symmetry_Int_Tables_number   1
_chemical_formula_structural   TiMnO3
_chemical_formula_sum   'Ti4 Mn4 O12'
_cell_volume   212.50152767
_cell_formula_units_Z   4
loop_
 _symmetry_equiv_pos_site_id
 _symmetry_equiv_pos_as_xyz
  1  'x, y, z'
loop_
 _atom_site_type_symbol
 _atom_site_label
 _atom_site_symmetry_multiplicity
 _atom_site_fract_x
 _atom_site_fract_y
 _atom_site_fract_z
 _atom_site_occupancy
  Ti  Ti0  1  0.50000000  0.00000100  0.50000000  1
  Ti  Ti1  1  0.00000000  0.50000000  0.00000000  1
  Ti  Ti2  1  0.50000000  0.00000100  0.00000000  1
  Ti  Ti3  1  0.00000000  0.50000000  0.50000000  1
  Mn  Mn0  1  0.51235500  0.55237300  0.24999900  1
  Mn  Mn1  1  0.48764700  0.44761800  0.75000200  1
  Mn  Mn2  1  0.01237700  0.94759900  0.75000000  1
  Mn  Mn3  1  0.98762200  0.05240300  0.25000000  1
  O  O0  1  0.88829500  0.54358500  0.75000000  1
  O  O1  1  0.61171500  0.04357600  0.75000000  1
  O  O2  1  0.11170500  0.45641600  0.25000000  1
  O  O3  1  0.38828500  0.95642500  0.25000000  1
  O  O4  1  0.80954400  0.80540700  0.05864800  1
  O  O5  1  0.30953500  0.69460400  0.94135100  1
  O  O6  1  0.19045600  0.19459400  0.94135100  1
  O  O7  1  0.80954400  0.80540700  0.44135100  1
  O  O8  1  0.19045600  0.19459400  0.55864800  1
  O  O9  1  0.69046500  0.30539700  0.05864800  1
  O  O10  1  0.69046500  0.30539700  0.44135100  1
  O  O11  1  0.30953500  0.69460400  0.55864800  1
loop_
_geom_bond_atom_site_label_1
_geom_bond_atom_site_label_2
_geom_bond_distance
_geom_bond_site_symmetry_2
Mn0 O2 2.149107 1_555
Mn0 O9 2.175045 1_555
Mn0 O10 2.175050 1_555
Mn0 O3 2.274866 1_555
Mn0 O4 2.520511 1_555
Mn0 O7 2.520516 1_555
Mn0 O5 2.674134 1_554
Mn0 O11 2.674141 1_555
Mn1 O0 2.149110 1_555
Mn1 O5 2.175073 1_555
Mn1 O11 2.175098 1_555
Mn1 O1 2.274811 1_555
Mn1 O6 2.520480 1_555
Mn1 O8 2.520501 1_555
Mn1 O9 2.674101 1_556
Mn1 O10 2.674134 1_555
Mn2 O1 2.149195 1_465
Mn2 O6 2.175038 1_565
Mn2 O8 2.175043 1_565
Mn2 O0 2.274686 1_455
Mn2 O5 2.520300 1_555
Mn2 O11 2.520304 1_555
Mn2 O4 2.674100 1_456
Mn2 O7 2.674106 1_455
Mn3 O3 2.149202 1_645
Mn3 O7 2.175039 1_545
Mn3 O4 2.175044 1_545
Mn3 O2 2.274682 1_655
Mn3 O10 2.520294 1_555
Mn3 O9 2.520298 1_555
Mn3 O8 2.674100 1_655
Mn3 O6 2.674107 1_654
O0 Ti3 1.991709 1_655
O0 Ti1 1.991709 1_656
O1 Ti0 1.991718 1_555
O1 Ti2 1.991718 1_556
O2 Ti1 1.991709 1_555
O2 Ti3 1.991709 1_555
O3 Ti0 1.991719 1_565
O3 Ti2 1.991719 1_565
O4 Ti2 1.974081 1_565
O4 Ti1 1.974333 1_655
O5 Ti1 1.974072 1_556
O5 Ti2 1.974311 1_566
O6 Ti2 1.974080 1_556
O6 Ti1 1.974330 1_556
O7 Ti0 1.974083 1_565
O7 Ti3 1.974334 1_655
O8 Ti0 1.974079 1_555
O8 Ti3 1.974328 1_555
O9 Ti1 1.974067 1_655
O9 Ti2 1.974305 1_555
O10 Ti3 1.974069 1_655
O10 Ti0 1.974306 1_555
O11 Ti3 1.974070 1_555
O11 Ti0 1.974309 1_565
