# generated using pymatgen
data_BaNd2PtO5
_symmetry_space_group_name_H-M   'P 1'
_cell_length_a   6.83145500
_cell_length_b   6.83145500
_cell_length_c   6.00082300
_cell_angle_alpha   90.00000000
_cell_angle_beta   90.00000000
_cell_angle_gamma   90.00000000
_symmetry_Int_Tables_number   1
_chemical_formula_structural   BaNd2PtO5
_chemical_formula_sum   'Ba2 Nd4 Pt2 O10'
_cell_volume   280.05107291
_cell_formula_units_Z   2
loop_
 _symmetry_equiv_pos_site_id
 _symmetry_equiv_pos_as_xyz
  1  'x, y, z'
loop_
 _atom_site_type_symbol
 _atom_site_label
 _atom_site_symmetry_multiplicity
 _atom_site_fract_x
 _atom_site_fract_y
 _atom_site_fract_z
 _atom_site_occupancy
  Ba  Ba0  1  0.00000000  0.00000000  0.00000000  1
  Ba  Ba1  1  0.50000000  0.50000000  0.00000000  1
  Nd  Nd0  1  0.67449800  0.17449800  0.50000000  1
  Nd  Nd1  1  0.82550200  0.67449800  0.50000000  1
  Nd  Nd2  1  0.17449800  0.32550200  0.50000000  1
  Nd  Nd3  1  0.32550200  0.82550200  0.50000000  1
  Pt  Pt0  1  0.00000000  0.50000000  0.00000000  1
  Pt  Pt1  1  0.50000000  0.00000000  0.00000000  1
  O  O0  1  0.00000000  0.00000000  0.50000000  1
  O  O1  1  0.36110900  0.13889100  0.25430600  1
  O  O2  1  0.63889100  0.86110900  0.25430600  1
  O  O3  1  0.13889100  0.63889100  0.74569400  1
  O  O4  1  0.86110900  0.36110900  0.25430600  1
  O  O5  1  0.50000000  0.50000000  0.50000000  1
  O  O6  1  0.63889100  0.86110900  0.74569400  1
  O  O7  1  0.36110900  0.13889100  0.74569400  1
  O  O8  1  0.86110900  0.36110900  0.74569400  1
  O  O9  1  0.13889100  0.63889100  0.25430600  1
loop_
_geom_bond_atom_site_label_1
_geom_bond_atom_site_label_2
_geom_bond_distance
_geom_bond_site_symmetry_2
Ba0 O0 3.000411 1_554
Ba0 O0 3.000411 1_555
Ba0 O8 3.051997 1_454
Ba0 O4 3.051997 1_455
Ba0 O7 3.051997 1_554
Ba0 O1 3.051997 1_555
Ba0 O2 3.051997 1_445
Ba0 O6 3.051997 1_444
Ba0 O3 3.051997 1_544
Ba0 O9 3.051997 1_545
Ba1 O5 3.000411 1_555
Ba1 O5 3.000411 1_554
Ba1 O2 3.051997 1_555
Ba1 O9 3.051997 1_555
Ba1 O6 3.051997 1_554
Ba1 O3 3.051997 1_554
Ba1 O8 3.051997 1_554
Ba1 O7 3.051997 1_554
Ba1 O4 3.051997 1_555
Ba1 O1 3.051997 1_555
Nd0 O4 2.328972 1_555
Nd0 O8 2.328972 1_555
Nd0 O5 2.523028 1_555
Nd0 O0 2.523028 1_655
Nd0 O6 2.610822 1_545
Nd0 O2 2.610822 1_545
Nd0 O7 2.610822 1_555
Nd0 O1 2.610822 1_555
Nd1 O2 2.328972 1_555
Nd1 O6 2.328972 1_555
Nd1 O5 2.523028 1_555
Nd1 O0 2.523028 1_665
Nd1 O9 2.610822 1_655
Nd1 O3 2.610822 1_655
Nd1 O4 2.610822 1_555
Nd1 O8 2.610822 1_555
Nd2 O7 2.328972 1_555
Nd2 O1 2.328972 1_555
Nd2 O0 2.523028 1_555
Nd2 O5 2.523028 1_555
Nd2 O4 2.610822 1_455
Nd2 O8 2.610822 1_455
Nd2 O3 2.610822 1_555
Nd2 O9 2.610822 1_555
Nd3 O3 2.328972 1_555
Nd3 O9 2.328972 1_555
Nd3 O0 2.523028 1_565
Nd3 O5 2.523028 1_555
Nd3 O7 2.610822 1_565
Nd3 O1 2.610822 1_565
Nd3 O2 2.610822 1_555
Nd3 O6 2.610822 1_555
O1 Pt1 2.032083 1_555
O2 Pt1 2.032083 1_565
O3 Pt0 2.032083 1_556
O4 Pt0 2.032083 1_655
O6 Pt1 2.032083 1_566
O7 Pt1 2.032083 1_556
O8 Pt0 2.032083 1_656
O9 Pt0 2.032083 1_555
