# generated using pymatgen
data_CsOsNO3
_symmetry_space_group_name_H-M   'P 1'
_cell_length_a   7.46518400
_cell_length_b   8.30617300
_cell_length_c   8.61371300
_cell_angle_alpha   90.00000000
_cell_angle_beta   90.00000000
_cell_angle_gamma   90.00000000
_symmetry_Int_Tables_number   1
_chemical_formula_structural   CsOsNO3
_chemical_formula_sum   'Cs4 Os4 N4 O12'
_cell_volume   534.11144761
_cell_formula_units_Z   4
loop_
 _symmetry_equiv_pos_site_id
 _symmetry_equiv_pos_as_xyz
  1  'x, y, z'
loop_
 _atom_site_type_symbol
 _atom_site_label
 _atom_site_symmetry_multiplicity
 _atom_site_fract_x
 _atom_site_fract_y
 _atom_site_fract_z
 _atom_site_occupancy
  Cs  Cs0  1  0.25000000  0.15315500  0.63113000  1
  Cs  Cs1  1  0.75000000  0.84684500  0.36887000  1
  Cs  Cs2  1  0.25000000  0.34684500  0.13113000  1
  Cs  Cs3  1  0.75000000  0.65315500  0.86887000  1
  Os  Os0  1  0.75000000  0.15645300  0.88007100  1
  Os  Os1  1  0.25000000  0.65645300  0.61992900  1
  Os  Os2  1  0.75000000  0.34354700  0.38007100  1
  Os  Os3  1  0.25000000  0.84354700  0.11992900  1
  N  N0  1  0.75000000  0.04488100  0.71408600  1
  N  N1  1  0.75000000  0.45511900  0.21408600  1
  N  N2  1  0.25000000  0.95511900  0.28591400  1
  N  N3  1  0.25000000  0.54488100  0.78591400  1
  O  O0  1  0.75000000  0.02170500  0.03819200  1
  O  O1  1  0.55559000  0.27792500  0.87904300  1
  O  O2  1  0.25000000  0.52170500  0.46180800  1
  O  O3  1  0.94441000  0.22207500  0.37904300  1
  O  O4  1  0.05559000  0.72207500  0.12095700  1
  O  O5  1  0.44441000  0.72207500  0.12095700  1
  O  O6  1  0.25000000  0.97829500  0.96180800  1
  O  O7  1  0.94441000  0.27792500  0.87904300  1
  O  O8  1  0.05559000  0.77792500  0.62095700  1
  O  O9  1  0.55559000  0.22207500  0.37904300  1
  O  O10  1  0.75000000  0.47829500  0.53819200  1
  O  O11  1  0.44441000  0.77792500  0.62095700  1
loop_
_geom_bond_atom_site_label_1
_geom_bond_atom_site_label_2
_geom_bond_distance
_geom_bond_site_symmetry_2
Cs0 O6 3.197296 1_545
Cs0 O3 3.201090 1_455
Cs0 O9 3.201090 1_555
Cs0 O7 3.292182 1_455
Cs0 O1 3.292182 1_555
Cs0 O2 3.390927 1_555
Cs0 N2 3.398237 1_545
Cs0 O8 3.439178 1_545
Cs0 O11 3.439178 1_545
Cs0 N3 3.516311 1_555
Cs1 O0 3.197296 1_565
Cs1 O11 3.201090 1_555
Cs1 O8 3.201090 1_655
Cs1 O4 3.292182 1_655
Cs1 O5 3.292182 1_555
Cs1 O10 3.390927 1_555
Cs1 N0 3.398237 1_565
Cs1 O9 3.439178 1_565
Cs1 O3 3.439178 1_565
Cs1 N1 3.516311 1_555
Cs2 O2 3.197296 1_555
Cs2 O7 3.201090 1_454
Cs2 O1 3.201090 1_554
Cs2 O9 3.292182 1_555
Cs2 O3 3.292182 1_455
Cs2 O6 3.390927 1_544
Cs2 N3 3.398237 1_554
Cs2 O4 3.439178 1_555
Cs2 O5 3.439178 1_555
Cs2 N2 3.516311 1_545
Cs3 O10 3.197296 1_555
Cs3 O5 3.201090 1_556
Cs3 O4 3.201090 1_656
Cs3 O11 3.292182 1_555
Cs3 O8 3.292182 1_655
Cs3 O0 3.390927 1_566
Cs3 N1 3.398237 1_556
Cs3 O7 3.439178 1_555
Cs3 O1 3.439178 1_555
Cs3 N0 3.516311 1_565
N0 Os0 1.703824 1_555
N1 Os2 1.703824 1_555
N2 Os3 1.703824 1_555
N3 Os1 1.703824 1_555
O0 Os0 1.762886 1_554
O1 Os0 1.767593 1_555
O2 Os1 1.762886 1_555
O3 Os2 1.767593 1_555
O4 Os3 1.767593 1_555
O5 Os3 1.767593 1_555
O6 Os3 1.762886 1_556
O7 Os0 1.767593 1_555
O8 Os1 1.767593 1_555
O9 Os2 1.767593 1_555
O10 Os2 1.762886 1_555
O11 Os1 1.767593 1_555
