# generated using pymatgen
data_LiFe2(PO4)3
_symmetry_space_group_name_H-M   'P 1'
_cell_length_a   8.80223500
_cell_length_b   8.68573200
_cell_length_c   14.97578251
_cell_angle_alpha   54.54627706
_cell_angle_beta   90.00000000
_cell_angle_gamma   90.00000000
_symmetry_Int_Tables_number   1
_chemical_formula_structural   LiFe2(PO4)3
_chemical_formula_sum   'Li4 Fe8 P12 O48'
_cell_volume   932.66339631
_cell_formula_units_Z   4
loop_
 _symmetry_equiv_pos_site_id
 _symmetry_equiv_pos_as_xyz
  1  'x, y, z'
loop_
 _atom_site_type_symbol
 _atom_site_label
 _atom_site_symmetry_multiplicity
 _atom_site_fract_x
 _atom_site_fract_y
 _atom_site_fract_z
 _atom_site_occupancy
  Li  Li0  1  0.52973400  0.40248300  0.82143300  1
  Li  Li1  1  0.97256100  0.97717400  0.31787500  1
  Li  Li2  1  0.47026600  0.40248300  0.32143300  1
  Li  Li3  1  0.02743900  0.97717400  0.81787500  1
  Fe  Fe0  1  0.71703300  0.63576100  0.61557600  1
  Fe  Fe1  1  0.20511300  0.36624800  0.88312600  1
  Fe  Fe2  1  0.78491200  0.13429400  0.11478800  1
  Fe  Fe3  1  0.29459900  0.86864800  0.38273500  1
  Fe  Fe4  1  0.21508800  0.13429400  0.61478800  1
  Fe  Fe5  1  0.70540100  0.86864800  0.88273500  1
  Fe  Fe6  1  0.28296700  0.63576100  0.11557600  1
  Fe  Fe7  1  0.79488700  0.36624800  0.38312600  1
  P  P0  1  0.00215200  0.54076500  0.49719600  1
  P  P1  1  0.85682600  0.25161000  0.85396800  1
  P  P2  1  0.14217600  0.96322400  0.14797300  1
  P  P3  1  0.64379000  0.04230500  0.35320000  1
  P  P4  1  0.35981800  0.74402600  0.64677100  1
  P  P5  1  0.49908700  0.45885700  0.00247500  1
  P  P6  1  0.99784800  0.54076500  0.99719600  1
  P  P7  1  0.14317400  0.25161000  0.35396800  1
  P  P8  1  0.85782400  0.96322400  0.64797300  1
  P  P9  1  0.35621000  0.04230500  0.85320000  1
  P  P10  1  0.64018200  0.74402600  0.14677100  1
  P  P11  1  0.50091300  0.45885700  0.50247500  1
  O  O0  1  0.39245400  0.62663200  0.43285900  1
  O  O1  1  0.59438100  0.47718100  0.58239000  1
  O  O2  1  0.35763200  0.21846700  0.85633200  1
  O  O3  1  0.66048400  0.90104100  0.16430500  1
  O  O4  1  0.89218900  0.53707900  0.57870100  1
  O  O5  1  0.81652500  0.17747600  0.97228300  1
  O  O6  1  0.02364300  0.31820100  0.82808300  1
  O  O7  1  0.25616800  0.92211000  0.23663200  1
  O  O8  1  0.08265200  0.73460300  0.42996000  1
  O  O9  1  0.98170000  0.98709700  0.18062500  1
  O  O10  1  0.18978100  0.14111700  0.03634400  1
  O  O11  1  0.74297000  0.41168300  0.77680000  1
  O  O12  1  0.24590500  0.58714300  0.72552900  1
  O  O13  1  0.69331700  0.86488800  0.46551700  1
  O  O14  1  0.48315800  0.01768700  0.32400500  1
  O  O15  1  0.58689800  0.27071700  0.06969200  1
  O  O16  1  0.76318700  0.07193300  0.26858400  1
  O  O17  1  0.52401300  0.66432500  0.67914500  1
  O  O18  1  0.32601000  0.81812600  0.52835100  1
  O  O19  1  0.40122300  0.44941700  0.91959400  1
  O  O20  1  0.85526800  0.79650500  0.63663500  1
  O  O21  1  0.15602900  0.09056400  0.33836500  1
  O  O22  1  0.09034800  0.52591900  0.91492300  1
  O  O23  1  0.88759900  0.37579400  0.06513100  1
  O  O24  1  0.60754600  0.62663200  0.93285900  1
  O  O25  1  0.40561900  0.47718100  0.08239000  1
  O  O26  1  0.33951600  0.90104100  0.66430500  1
  O  O27  1  0.64236800  0.21846700  0.35633200  1
  O  O28  1  0.10781100  0.53707900  0.07870100  1
  O  O29  1  0.18347500  0.17747600  0.47228300  1
  O  O30  1  0.97635700  0.31820100  0.32808300  1
  O  O31  1  0.74383200  0.92211000  0.73663200  1
  O  O32  1  0.91734800  0.73460300  0.92996000  1
  O  O33  1  0.01830000  0.98709700  0.68062500  1
  O  O34  1  0.81021900  0.14111700  0.53634400  1
  O  O35  1  0.25703000  0.41168300  0.27680000  1
  O  O36  1  0.75409500  0.58714300  0.22552900  1
  O  O37  1  0.30668300  0.86488800  0.96551700  1
  O  O38  1  0.51684200  0.01768700  0.82400500  1
  O  O39  1  0.41310200  0.27071700  0.56969200  1
  O  O40  1  0.23681300  0.07193300  0.76858400  1
  O  O41  1  0.47598700  0.66432500  0.17914500  1
  O  O42  1  0.67399000  0.81812600  0.02835100  1
  O  O43  1  0.59877700  0.44941700  0.41959400  1
  O  O44  1  0.84397100  0.09056400  0.83836500  1
  O  O45  1  0.14473200  0.79650500  0.13663500  1
  O  O46  1  0.90965200  0.52591900  0.41492300  1
  O  O47  1  0.11240100  0.37579400  0.56513100  1
loop_
_geom_bond_atom_site_label_1
_geom_bond_atom_site_label_2
_geom_bond_distance
_geom_bond_site_symmetry_2
Li0 O11 1.978422 1_555
Li0 O17 2.023239 1_555
Li0 O2 2.038027 1_555
Li0 O19 2.074121 1_555
Li1 O16 1.978381 1_565
Li1 O21 2.005674 1_665
Li1 O9 2.008273 1_555
Li1 O8 2.023100 1_655
Li2 O35 1.978422 1_555
Li2 O41 2.023239 1_555
Li2 O27 2.038027 1_555
Li2 O43 2.074121 1_555
Li3 O40 1.978381 1_565
Li3 O44 2.005674 1_465
Li3 O33 2.008273 1_555
Li3 O32 2.023100 1_455
Fe0 O13 1.966226 1_555
Fe0 O4 1.991424 1_555
Fe0 O20 2.010009 1_555
Fe0 O1 2.025801 1_555
Fe0 O17 2.031865 1_555
Fe0 O11 2.053831 1_555
Fe1 O6 1.950442 1_555
Fe1 O10 1.975289 1_556
Fe1 O22 1.984121 1_555
Fe1 O12 2.031543 1_555
Fe1 O2 2.051448 1_555
Fe1 O19 2.063388 1_555
Fe2 O5 1.960614 1_554
Fe2 O23 1.990061 1_555
Fe2 O15 1.992420 1_555
Fe2 O3 2.027596 1_545
Fe2 O9 2.035872 1_545
Fe2 O16 2.046338 1_555
Fe3 O14 1.970594 1_565
Fe3 O0 1.973224 1_555
Fe3 O18 1.978479 1_555
Fe3 O7 1.984632 1_555
Fe3 O21 2.039291 1_565
Fe3 O8 2.093078 1_555
Fe4 O29 1.960614 1_555
Fe4 O47 1.990061 1_555
Fe4 O39 1.992420 1_555
Fe4 O26 2.027596 1_545
Fe4 O33 2.035872 1_545
Fe4 O40 2.046338 1_555
Fe5 O38 1.970594 1_565
Fe5 O24 1.973224 1_555
Fe5 O42 1.978479 1_556
Fe5 O31 1.984632 1_555
Fe5 O44 2.039291 1_565
Fe5 O32 2.093078 1_555
Fe6 O37 1.966226 1_554
Fe6 O28 1.991424 1_555
Fe6 O45 2.010009 1_555
Fe6 O25 2.025801 1_555
Fe6 O41 2.031865 1_555
Fe6 O35 2.053831 1_555
Fe7 O30 1.950442 1_555
Fe7 O34 1.975289 1_555
Fe7 O46 1.984121 1_555
Fe7 O36 2.031543 1_555
Fe7 O27 2.051448 1_555
Fe7 O43 2.063388 1_555
O0 P11 1.536044 1_555
O1 P11 1.534760 1_555
O2 P9 1.557821 1_555
O3 P10 1.541509 1_555
O4 P0 1.543511 1_655
O5 P1 1.535050 1_555
O6 P1 1.542981 1_455
O7 P2 1.532039 1_555
O8 P0 1.543986 1_555
O9 P2 1.547586 1_655
O10 P2 1.536599 1_545
O11 P1 1.552094 1_555
O12 P4 1.545585 1_555
O13 P3 1.544991 1_565
O14 P3 1.531178 1_555
O15 P5 1.540393 1_555
O16 P3 1.548615 1_555
O17 P4 1.553631 1_555
O18 P4 1.524377 1_555
O19 P5 1.551590 1_556
O20 P8 1.552901 1_555
O21 P7 1.550236 1_555
O22 P6 1.543357 1_455
O23 P6 1.529320 1_554
O24 P5 1.536044 1_556
O25 P5 1.534760 1_555
O26 P4 1.541509 1_555
O27 P3 1.557821 1_555
O28 P6 1.543511 1_454
O29 P7 1.535050 1_555
O30 P7 1.542981 1_655
O31 P8 1.532039 1_555
O32 P6 1.543986 1_555
O33 P8 1.547586 1_455
O34 P8 1.536599 1_545
O35 P7 1.552094 1_555
O36 P10 1.545585 1_555
O37 P9 1.544991 1_565
O38 P9 1.531178 1_555
O39 P11 1.540393 1_555
O40 P9 1.548615 1_555
O41 P10 1.553631 1_555
O42 P10 1.524377 1_555
O43 P11 1.551590 1_555
O44 P1 1.550236 1_555
O45 P2 1.552901 1_555
O46 P0 1.543357 1_655
O47 P0 1.529320 1_555
