# generated using pymatgen
data_Pr2Nb11O30
_symmetry_space_group_name_H-M   'P 1'
_cell_length_a   6.32548054
_cell_length_b   6.32548054
_cell_length_c   32.95791000
_cell_angle_alpha   90.00000000
_cell_angle_beta   90.00000000
_cell_angle_gamma   120.00000570
_symmetry_Int_Tables_number   1
_chemical_formula_structural   Pr2Nb11O30
_chemical_formula_sum   'Pr4 Nb22 O60'
_cell_volume   1142.02949061
_cell_formula_units_Z   2
loop_
 _symmetry_equiv_pos_site_id
 _symmetry_equiv_pos_as_xyz
  1  'x, y, z'
loop_
 _atom_site_type_symbol
 _atom_site_label
 _atom_site_symmetry_multiplicity
 _atom_site_fract_x
 _atom_site_fract_y
 _atom_site_fract_z
 _atom_site_occupancy
  Pr  Pr0  1  0.33333300  0.66666700  0.90525500  1
  Pr  Pr1  1  0.33333300  0.66666700  0.59474500  1
  Pr  Pr2  1  0.66666700  0.33333300  0.40525500  1
  Pr  Pr3  1  0.66666700  0.33333300  0.09474500  1
  Nb  Nb0  1  0.63965400  0.63948900  0.19203200  1
  Nb  Nb1  1  0.63948900  0.63965400  0.69203200  1
  Nb  Nb2  1  0.36034600  0.99983500  0.69203200  1
  Nb  Nb3  1  0.99983500  0.36034600  0.30796800  1
  Nb  Nb4  1  0.35578400  0.35578400  0.00000000  1
  Nb  Nb5  1  0.00000000  0.64421600  0.00000000  1
  Nb  Nb6  1  0.36034600  0.99983500  0.80796800  1
  Nb  Nb7  1  0.00000000  0.64421600  0.50000000  1
  Nb  Nb8  1  0.63948900  0.63965400  0.80796800  1
  Nb  Nb9  1  0.64421600  0.00000000  0.50000000  1
  Nb  Nb10  1  0.99983500  0.36034600  0.19203200  1
  Nb  Nb11  1  0.00016500  0.36051100  0.80796800  1
  Nb  Nb12  1  0.66666700  0.33333300  0.90252500  1
  Nb  Nb13  1  0.63965400  0.63948900  0.30796800  1
  Nb  Nb14  1  0.36051100  0.00016500  0.19203200  1
  Nb  Nb15  1  0.33333300  0.66666700  0.09747500  1
  Nb  Nb16  1  0.35578400  0.35578400  0.50000000  1
  Nb  Nb17  1  0.36051100  0.00016500  0.30796800  1
  Nb  Nb18  1  0.33333300  0.66666700  0.40252500  1
  Nb  Nb19  1  0.66666700  0.33333300  0.59747500  1
  Nb  Nb20  1  0.00016500  0.36051100  0.69203200  1
  Nb  Nb21  1  0.64421600  0.00000000  0.00000000  1
  O  O0  1  0.36641400  0.95911400  0.75000000  1
  O  O1  1  0.56501900  0.94665300  0.44139700  1
  O  O2  1  0.24348300  0.00000000  0.00000000  1
  O  O3  1  0.05334700  0.61836500  0.44139700  1
  O  O4  1  0.99965700  0.75238300  0.68973600  1
  O  O5  1  0.00034300  0.75272600  0.18973600  1
  O  O6  1  0.37544500  0.94901300  0.37110600  1
  O  O7  1  0.05098700  0.42643200  0.12889400  1
  O  O8  1  0.00000000  0.24348300  0.00000000  1
  O  O9  1  0.66666700  0.33333300  0.01433400  1
  O  O10  1  0.33333300  0.66666700  0.67544100  1
  O  O11  1  0.66666700  0.33333300  0.80218800  1
  O  O12  1  0.24761700  0.24727400  0.68973600  1
  O  O13  1  0.61836500  0.05334700  0.55860300  1
  O  O14  1  0.42643200  0.05098700  0.87110600  1
  O  O15  1  0.04088600  0.40730000  0.75000000  1
  O  O16  1  0.33333300  0.66666700  0.98566600  1
  O  O17  1  0.40730000  0.04088600  0.25000000  1
  O  O18  1  0.66666700  0.33333300  0.48566600  1
  O  O19  1  0.24348300  0.00000000  0.50000000  1
  O  O20  1  0.33333300  0.66666700  0.51433400  1
  O  O21  1  0.42643200  0.05098700  0.62889400  1
  O  O22  1  0.59270000  0.63358600  0.75000000  1
  O  O23  1  0.38163500  0.43498100  0.05860300  1
  O  O24  1  0.61836500  0.05334700  0.94139700  1
  O  O25  1  0.24761700  0.24727400  0.81026400  1
  O  O26  1  0.66666700  0.33333300  0.69781200  1
  O  O27  1  0.38163500  0.43498100  0.44139700  1
  O  O28  1  0.33333300  0.66666700  0.82455900  1
  O  O29  1  0.00000000  0.24348300  0.50000000  1
  O  O30  1  0.00034300  0.75272600  0.31026400  1
  O  O31  1  0.66666700  0.33333300  0.17544100  1
  O  O32  1  0.99965700  0.75238300  0.81026400  1
  O  O33  1  0.24727400  0.24761700  0.31026400  1
  O  O34  1  0.37544500  0.94901300  0.12889400  1
  O  O35  1  0.33333300  0.66666700  0.19781200  1
  O  O36  1  0.66666700  0.33333300  0.32455900  1
  O  O37  1  0.56501900  0.94665300  0.05860300  1
  O  O38  1  0.62455500  0.57356800  0.87110600  1
  O  O39  1  0.75238300  0.99965700  0.31026400  1
  O  O40  1  0.43498100  0.38163500  0.55860300  1
  O  O41  1  0.05334700  0.61836500  0.05860300  1
  O  O42  1  0.75272600  0.00034300  0.81026400  1
  O  O43  1  0.33333300  0.66666700  0.30218800  1
  O  O44  1  0.75238300  0.99965700  0.18973600  1
  O  O45  1  0.57356800  0.62455500  0.37110600  1
  O  O46  1  0.94665300  0.56501900  0.94139700  1
  O  O47  1  0.94901300  0.37544500  0.87110600  1
  O  O48  1  0.94901300  0.37544500  0.62889400  1
  O  O49  1  0.63358600  0.59270000  0.25000000  1
  O  O50  1  0.94665300  0.56501900  0.55860300  1
  O  O51  1  0.75651700  0.75651700  0.50000000  1
  O  O52  1  0.57356800  0.62455500  0.12889400  1
  O  O53  1  0.24727400  0.24761700  0.18973600  1
  O  O54  1  0.05098700  0.42643200  0.37110600  1
  O  O55  1  0.75272600  0.00034300  0.68973600  1
  O  O56  1  0.43498100  0.38163500  0.94139700  1
  O  O57  1  0.62455500  0.57356800  0.62889400  1
  O  O58  1  0.95911400  0.36641400  0.25000000  1
  O  O59  1  0.75651700  0.75651700  0.00000000  1
loop_
_geom_bond_atom_site_label_1
_geom_bond_atom_site_label_2
_geom_bond_distance
_geom_bond_site_symmetry_2
Nb0 O49 1.930734 1_555
Nb0 O44 2.019905 1_555
Nb0 O5 2.022363 1_655
Nb0 O35 2.037977 1_555
Nb0 O31 2.099870 1_555
Nb0 O52 2.115257 1_555
Nb0 O53 2.481541 1_555
Nb1 O22 1.930734 1_555
Nb1 O4 2.019905 1_555
Nb1 O55 2.022363 1_565
Nb1 O26 2.037977 1_555
Nb1 O10 2.099870 1_555
Nb1 O57 2.115257 1_555
Nb1 O12 2.481541 1_555
Nb2 O0 1.930734 1_555
Nb2 O12 2.019905 1_565
Nb2 O4 2.022363 1_455
Nb2 O26 2.037973 1_565
Nb2 O10 2.099864 1_555
Nb2 O21 2.115257 1_565
Nb2 O55 2.481541 1_565
Nb3 O58 1.930734 1_555
Nb3 O33 2.019905 1_655
Nb3 O39 2.022363 1_545
Nb3 O43 2.037973 1_655
Nb3 O36 2.099864 1_555
Nb3 O54 2.115257 1_655
Nb3 O30 2.481541 1_655
Nb4 O56 1.981467 1_554
Nb4 O23 1.981467 1_555
Nb4 O8 1.992666 1_555
Nb4 O2 1.992666 1_555
Nb4 O16 2.095155 1_554
Nb4 O9 2.095155 1_555
Nb4 O59 2.534829 1_555
Nb5 O46 1.981468 1_454
Nb5 O41 1.981469 1_555
Nb5 O2 1.992665 1_565
Nb5 O59 1.992666 1_455
Nb5 O16 2.095149 1_554
Nb5 O9 2.095152 1_455
Nb5 O8 2.534829 1_555
Nb6 O0 1.930734 1_555
Nb6 O25 2.019905 1_565
Nb6 O32 2.022363 1_455
Nb6 O11 2.037973 1_565
Nb6 O28 2.099864 1_555
Nb6 O14 2.115257 1_565
Nb6 O42 2.481541 1_565
Nb7 O50 1.981468 1_455
Nb7 O3 1.981469 1_555
Nb7 O19 1.992665 1_565
Nb7 O51 1.992666 1_455
Nb7 O20 2.095149 1_555
Nb7 O18 2.095152 1_455
Nb7 O29 2.534829 1_555
Nb8 O22 1.930734 1_555
Nb8 O32 2.019905 1_555
Nb8 O42 2.022363 1_565
Nb8 O11 2.037977 1_555
Nb8 O28 2.099870 1_555
Nb8 O38 2.115257 1_555
Nb8 O25 2.481541 1_555
Nb9 O1 1.981468 1_545
Nb9 O13 1.981469 1_555
Nb9 O29 1.992665 1_655
Nb9 O51 1.992666 1_545
Nb9 O18 2.095149 1_555
Nb9 O20 2.095152 1_545
Nb9 O19 2.534829 1_555
Nb10 O58 1.930734 1_555
Nb10 O53 2.019905 1_655
Nb10 O44 2.022363 1_545
Nb10 O35 2.037973 1_655
Nb10 O31 2.099864 1_555
Nb10 O7 2.115257 1_655
Nb10 O5 2.481541 1_655
Nb11 O15 1.930734 1_555
Nb11 O42 2.019905 1_455
Nb11 O25 2.022364 1_555
Nb11 O11 2.037970 1_455
Nb11 O28 2.099866 1_555
Nb11 O47 2.115257 1_455
Nb11 O32 2.481541 1_455
Nb12 O47 1.963972 1_555
Nb12 O14 1.963974 1_555
Nb12 O38 1.963977 1_555
Nb12 O24 2.080904 1_555
Nb12 O46 2.080907 1_555
Nb12 O56 2.080914 1_555
Nb13 O49 1.930734 1_555
Nb13 O39 2.019905 1_555
Nb13 O30 2.022363 1_655
Nb13 O43 2.037977 1_555
Nb13 O36 2.099870 1_555
Nb13 O45 2.115257 1_555
Nb13 O33 2.481541 1_555
Nb14 O17 1.930734 1_555
Nb14 O5 2.019905 1_545
Nb14 O53 2.022364 1_555
Nb14 O35 2.037970 1_545
Nb14 O31 2.099866 1_555
Nb14 O34 2.115257 1_545
Nb14 O44 2.481541 1_545
Nb15 O34 1.963972 1_555
Nb15 O7 1.963974 1_555
Nb15 O52 1.963977 1_555
Nb15 O41 2.080904 1_555
Nb15 O37 2.080907 1_555
Nb15 O23 2.080914 1_555
Nb16 O40 1.981467 1_555
Nb16 O27 1.981467 1_555
Nb16 O19 1.992666 1_555
Nb16 O29 1.992666 1_555
Nb16 O20 2.095155 1_555
Nb16 O18 2.095155 1_555
Nb16 O51 2.534829 1_555
Nb17 O17 1.930734 1_555
Nb17 O30 2.019905 1_545
Nb17 O33 2.022364 1_555
Nb17 O43 2.037970 1_545
Nb17 O36 2.099866 1_555
Nb17 O6 2.115257 1_545
Nb17 O39 2.481541 1_545
Nb18 O6 1.963972 1_555
Nb18 O54 1.963974 1_555
Nb18 O45 1.963977 1_555
Nb18 O3 2.080904 1_555
Nb18 O1 2.080907 1_555
Nb18 O27 2.080914 1_555
Nb19 O48 1.963972 1_555
Nb19 O21 1.963974 1_555
Nb19 O57 1.963977 1_555
Nb19 O13 2.080904 1_555
Nb19 O50 2.080907 1_555
Nb19 O40 2.080914 1_555
Nb20 O15 1.930734 1_555
Nb20 O55 2.019905 1_455
Nb20 O12 2.022364 1_555
Nb20 O26 2.037970 1_455
Nb20 O10 2.099866 1_555
Nb20 O48 2.115257 1_455
Nb20 O4 2.481541 1_455
Nb21 O37 1.981468 1_545
Nb21 O24 1.981469 1_554
Nb21 O8 1.992665 1_655
Nb21 O59 1.992666 1_545
Nb21 O9 2.095149 1_555
Nb21 O16 2.095152 1_544
Nb21 O2 2.534829 1_555
O1 Pr2 2.498444 1_565
O3 Pr2 2.498444 1_455
O6 Pr2 2.468137 1_565
O7 Pr3 2.468136 1_455
O9 Pr3 2.650179 1_555
O10 Pr1 2.659572 1_555
O13 Pr1 2.498444 1_545
O14 Pr0 2.468136 1_545
O16 Pr0 2.650179 1_555
O18 Pr2 2.650179 1_555
O20 Pr1 2.650179 1_555
O21 Pr1 2.468136 1_545
O23 Pr3 2.498444 1_555
O24 Pr0 2.498444 1_545
O27 Pr2 2.498444 1_555
O28 Pr0 2.659572 1_555
O31 Pr3 2.659572 1_555
O34 Pr3 2.468137 1_565
O36 Pr2 2.659572 1_555
O37 Pr3 2.498444 1_565
O38 Pr0 2.468141 1_555
O40 Pr1 2.498444 1_555
O41 Pr3 2.498444 1_455
O45 Pr2 2.468141 1_555
O46 Pr0 2.498444 1_655
O47 Pr0 2.468137 1_655
O48 Pr1 2.468137 1_655
O50 Pr1 2.498444 1_655
O52 Pr3 2.468141 1_555
O54 Pr2 2.468136 1_455
O56 Pr0 2.498444 1_555
O57 Pr1 2.468141 1_555
