# generated using pymatgen
data_RbMnO2
_symmetry_space_group_name_H-M   'P 1'
_cell_length_a   6.55249090
_cell_length_b   7.73753646
_cell_length_c   8.49580539
_cell_angle_alpha   77.12500134
_cell_angle_beta   88.58464313
_cell_angle_gamma   78.76643031
_symmetry_Int_Tables_number   1
_chemical_formula_structural   RbMnO2
_chemical_formula_sum   'Rb6 Mn6 O12'
_cell_volume   411.78529415
_cell_formula_units_Z   6
loop_
 _symmetry_equiv_pos_site_id
 _symmetry_equiv_pos_as_xyz
  1  'x, y, z'
loop_
 _atom_site_type_symbol
 _atom_site_label
 _atom_site_symmetry_multiplicity
 _atom_site_fract_x
 _atom_site_fract_y
 _atom_site_fract_z
 _atom_site_occupancy
  Rb  Rb0  1  0.15687341  0.11110911  0.11871948  1
  Rb  Rb1  1  0.84322850  0.88916621  0.88144893  1
  Rb  Rb2  1  0.82490711  0.87116819  0.46917178  1
  Rb  Rb3  1  0.17519992  0.12809188  0.53064036  1
  Rb  Rb4  1  0.01921002  0.45757619  0.76613368  1
  Rb  Rb5  1  0.98095459  0.54198561  0.23361315  1
  Mn  Mn0  1  0.41466716  0.67803106  0.21469111  1
  Mn  Mn1  1  0.58558887  0.32230199  0.78528103  1
  Mn  Mn2  1  0.59960933  0.32609894  0.45099324  1
  Mn  Mn3  1  0.40012765  0.67382364  0.54906548  1
  Mn  Mn4  1  0.59748052  0.32286050  0.11811672  1
  Mn  Mn5  1  0.40242342  0.67721640  0.88194698  1
  O  O0  1  0.22641850  0.77572345  0.36266039  1
  O  O1  1  0.77373070  0.22476841  0.63728853  1
  O  O2  1  0.78873157  0.23682029  0.29939145  1
  O  O3  1  0.21091909  0.76260605  0.70075896  1
  O  O4  1  0.22633107  0.76936171  0.03616344  1
  O  O5  1  0.77386089  0.23117764  0.96382070  1
  O  O6  1  0.60882266  0.61615417  0.39321741  1
  O  O7  1  0.39110058  0.38371827  0.60685553  1
  O  O8  1  0.39014124  0.38241525  0.94586743  1
  O  O9  1  0.60985185  0.61776896  0.05415727  1
  O  O10  1  0.60185432  0.62561173  0.72124103  1
  O  O11  1  0.39796805  0.37444238  0.27875994  1
loop_
_geom_bond_atom_site_label_1
_geom_bond_atom_site_label_2
_geom_bond_distance
_geom_bond_site_symmetry_2
Mn0 O4 1.896794 1_555
Mn0 O0 1.912287 1_555
Mn0 O9 1.917847 1_555
Mn0 O6 1.919001 1_555
Mn0 O11 2.313780 1_555
Mn1 O5 1.896511 1_555
Mn1 O1 1.911534 1_555
Mn1 O8 1.918906 1_555
Mn1 O7 1.919944 1_555
Mn1 O10 2.311001 1_555
Mn2 O1 1.899772 1_555
Mn2 O2 1.912038 1_555
Mn2 O11 1.919839 1_555
Mn2 O7 1.937846 1_555
Mn2 O6 2.200433 1_555
Mn3 O0 1.899509 1_555
Mn3 O3 1.911456 1_555
Mn3 O10 1.919964 1_555
Mn3 O6 1.938640 1_555
Mn3 O7 2.200542 1_555
Mn4 O5 1.891423 1_554
Mn4 O11 1.918937 1_555
Mn4 O2 1.923238 1_555
Mn4 O8 1.937372 1_554
Mn4 O9 2.241889 1_555
Mn5 O4 1.891399 1_556
Mn5 O10 1.919040 1_555
Mn5 O3 1.923498 1_555
Mn5 O9 1.937583 1_556
Mn5 O8 2.240944 1_555
O0 Rb2 2.776522 1_455
O0 Rb0 2.902802 1_565
O0 Rb5 3.027200 1_455
O0 Rb3 3.307080 1_565
O1 Rb3 2.778182 1_655
O1 Rb1 2.904949 1_545
O1 Rb4 3.020771 1_655
O1 Rb2 3.316398 1_545
O2 Rb5 2.830205 1_555
O2 Rb2 2.842238 1_545
O2 Rb0 2.947782 1_655
O2 Rb3 3.107963 1_655
O3 Rb4 2.827256 1_555
O3 Rb3 2.842247 1_565
O3 Rb1 2.947571 1_455
O3 Rb2 3.107379 1_455
O4 Rb1 2.757147 1_454
O4 Rb0 2.834283 1_565
O4 Rb5 2.854467 1_455
O5 Rb0 2.757415 1_656
O5 Rb1 2.835548 1_545
O5 Rb4 2.850736 1_655
O6 Rb5 2.784238 1_555
O6 Rb2 2.831198 1_555
O7 Rb4 2.781174 1_555
O7 Rb3 2.835309 1_555
O8 Rb4 2.795389 1_555
O8 Rb0 2.943647 1_556
O9 Rb5 2.794711 1_555
O9 Rb1 2.944204 1_554
O10 Rb4 2.785646 1_655
O10 Rb2 3.073486 1_555
O10 Rb1 3.333553 1_555
O11 Rb5 2.782834 1_455
O11 Rb3 3.074949 1_555
O11 Rb0 3.330295 1_555
