# generated using pymatgen
data_Ca2GeO4
_symmetry_space_group_name_H-M   'P 1'
_cell_length_a   5.25043721
_cell_length_b   6.79145620
_cell_length_c   11.41128526
_cell_angle_alpha   90.00000000
_cell_angle_beta   90.00000000
_cell_angle_gamma   90.00000000
_symmetry_Int_Tables_number   1
_chemical_formula_structural   Ca2GeO4
_chemical_formula_sum   'Ca8 Ge4 O16'
_cell_volume   406.90491460
_cell_formula_units_Z   4
loop_
 _symmetry_equiv_pos_site_id
 _symmetry_equiv_pos_as_xyz
  1  'x, y, z'
loop_
 _atom_site_type_symbol
 _atom_site_label
 _atom_site_symmetry_multiplicity
 _atom_site_fract_x
 _atom_site_fract_y
 _atom_site_fract_z
 _atom_site_occupancy
  Ca  Ca0  1  0.00739857  0.75000000  0.72053293  1
  Ca  Ca1  1  0.99260143  0.25000000  0.27946707  1
  Ca  Ca2  1  0.50739857  0.25000000  0.77946707  1
  Ca  Ca3  1  0.49260143  0.75000000  0.22053293  1
  Ca  Ca4  1  0.50000000  0.50000000  0.50000000  1
  Ca  Ca5  1  -0.00000000  -0.00000000  -0.00000000  1
  Ca  Ca6  1  -0.00000000  0.50000000  -0.00000000  1
  Ca  Ca7  1  0.50000000  -0.00000000  0.50000000  1
  Ge  Ge0  1  0.43043645  0.25000000  0.09602160  1
  Ge  Ge1  1  0.93043645  0.75000000  0.40397840  1
  Ge  Ge2  1  0.56956355  0.75000000  0.90397840  1
  Ge  Ge3  1  0.06956355  0.25000000  0.59602160  1
  O  O0  1  0.78757732  0.75000000  0.54620515  1
  O  O1  1  0.78388992  0.54367778  0.33635379  1
  O  O2  1  0.71611008  0.54367778  0.83635379  1
  O  O3  1  0.73654171  0.25000000  0.59283777  1
  O  O4  1  0.71242268  0.75000000  0.04620515  1
  O  O5  1  0.28388992  0.45632222  0.16364621  1
  O  O6  1  0.21611008  0.45632222  0.66364621  1
  O  O7  1  0.26345829  0.75000000  0.40716223  1
  O  O8  1  0.78388992  0.95632222  0.33635379  1
  O  O9  1  0.23654171  0.75000000  0.90716223  1
  O  O10  1  0.21242268  0.25000000  0.45379485  1
  O  O11  1  0.71611008  0.95632222  0.83635379  1
  O  O12  1  0.21611008  0.04367778  0.66364621  1
  O  O13  1  0.28757732  0.25000000  0.95379485  1
  O  O14  1  0.28388992  0.04367778  0.16364621  1
  O  O15  1  0.76345829  0.25000000  0.09283777  1
loop_
_geom_bond_atom_site_label_1
_geom_bond_atom_site_label_2
_geom_bond_distance
_geom_bond_site_symmetry_2
Ca0 O0 2.299872 1_455
Ca0 O12 2.366487 1_565
Ca0 O6 2.366487 1_555
Ca0 O9 2.446015 1_555
Ca0 O11 2.459528 1_455
Ca0 O2 2.459528 1_455
Ca1 O10 2.299872 1_655
Ca1 O8 2.366487 1_545
Ca1 O1 2.366487 1_555
Ca1 O15 2.446015 1_555
Ca1 O5 2.459528 1_655
Ca1 O14 2.459528 1_655
Ca2 O13 2.299872 1_555
Ca2 O11 2.366487 1_545
Ca2 O2 2.366487 1_555
Ca2 O3 2.446015 1_555
Ca2 O6 2.459528 1_555
Ca2 O12 2.459528 1_555
Ca3 O4 2.299872 1_555
Ca3 O14 2.366487 1_565
Ca3 O5 2.366487 1_555
Ca3 O7 2.446015 1_555
Ca3 O8 2.459528 1_555
Ca3 O1 2.459528 1_555
Ca4 O10 2.332502 1_555
Ca4 O0 2.332502 1_555
Ca4 O7 2.355313 1_555
Ca4 O3 2.355313 1_555
Ca4 O1 2.407686 1_555
Ca4 O6 2.407686 1_555
Ca5 O4 2.332502 1_445
Ca5 O13 2.332502 1_554
Ca5 O9 2.355313 1_544
Ca5 O15 2.355313 1_455
Ca5 O14 2.407686 1_555
Ca5 O11 2.407686 1_444
Ca6 O13 2.332502 1_554
Ca6 O4 2.332502 1_455
Ca6 O9 2.355313 1_554
Ca6 O15 2.355313 1_455
Ca6 O2 2.407686 1_454
Ca6 O5 2.407686 1_555
Ca7 O10 2.332502 1_555
Ca7 O0 2.332502 1_545
Ca7 O7 2.355313 1_545
Ca7 O3 2.355313 1_555
Ca7 O12 2.407686 1_555
Ca7 O8 2.407686 1_545
Ge0 O15 1.748888 1_555
Ge0 O5 1.775096 1_555
Ge0 O14 1.775096 1_555
Ge0 O13 1.787933 1_554
Ge1 O7 1.748888 1_655
Ge1 O1 1.775096 1_555
Ge1 O8 1.775096 1_555
Ge1 O0 1.787933 1_555
Ge2 O9 1.748888 1_555
Ge2 O2 1.775096 1_555
Ge2 O11 1.775096 1_555
Ge2 O4 1.787933 1_556
Ge3 O3 1.748888 1_455
Ge3 O6 1.775096 1_555
Ge3 O12 1.775096 1_555
Ge3 O10 1.787933 1_555
