# generated using pymatgen
data_Cs2CdBi2S5
_symmetry_space_group_name_H-M   'P 1'
_cell_length_a   4.23018700
_cell_length_b   16.09265200
_cell_length_c   18.76976400
_cell_angle_alpha   90.00000000
_cell_angle_beta   90.00000000
_cell_angle_gamma   90.00000000
_symmetry_Int_Tables_number   1
_chemical_formula_structural   Cs2CdBi2S5
_chemical_formula_sum   'Cs8 Cd4 Bi8 S20'
_cell_volume   1277.75031947
_cell_formula_units_Z   4
loop_
 _symmetry_equiv_pos_site_id
 _symmetry_equiv_pos_as_xyz
  1  'x, y, z'
loop_
 _atom_site_type_symbol
 _atom_site_label
 _atom_site_symmetry_multiplicity
 _atom_site_fract_x
 _atom_site_fract_y
 _atom_site_fract_z
 _atom_site_occupancy
  Cs  Cs0  1  0.75000000  0.99336600  0.62698100  1
  Cs  Cs1  1  0.75000000  0.53483900  0.38751400  1
  Cs  Cs2  1  0.25000000  0.46516100  0.61248600  1
  Cs  Cs3  1  0.25000000  0.96516100  0.88751400  1
  Cs  Cs4  1  0.25000000  0.00663400  0.37301900  1
  Cs  Cs5  1  0.25000000  0.50663400  0.12698100  1
  Cs  Cs6  1  0.75000000  0.49336600  0.87301900  1
  Cs  Cs7  1  0.75000000  0.03483900  0.11248600  1
  Cd  Cd0  1  0.25000000  0.71148700  0.85445600  1
  Cd  Cd1  1  0.75000000  0.28851300  0.14554400  1
  Cd  Cd2  1  0.75000000  0.78851300  0.35445600  1
  Cd  Cd3  1  0.25000000  0.21148700  0.64554400  1
  Bi  Bi0  1  0.25000000  0.25508000  0.98174200  1
  Bi  Bi1  1  0.75000000  0.20794300  0.80462200  1
  Bi  Bi2  1  0.25000000  0.29205700  0.30462200  1
  Bi  Bi3  1  0.25000000  0.75508000  0.51825800  1
  Bi  Bi4  1  0.75000000  0.24492000  0.48174200  1
  Bi  Bi5  1  0.25000000  0.79205700  0.19537800  1
  Bi  Bi6  1  0.75000000  0.70794300  0.69537800  1
  Bi  Bi7  1  0.75000000  0.74492000  0.01825800  1
  S  S0  1  0.25000000  0.63774100  0.97582600  1
  S  S1  1  0.25000000  0.13774100  0.52417400  1
  S  S2  1  0.75000000  0.63923800  0.56153200  1
  S  S3  1  0.75000000  0.18290600  0.35289400  1
  S  S4  1  0.25000000  0.36076200  0.43846800  1
  S  S5  1  0.75000000  0.36225900  0.02417400  1
  S  S6  1  0.25000000  0.81709400  0.64710600  1
  S  S7  1  0.25000000  0.70036100  0.33828200  1
  S  S8  1  0.75000000  0.89365900  0.24896800  1
  S  S9  1  0.75000000  0.39365900  0.25103200  1
  S  S10  1  0.25000000  0.10634100  0.75103200  1
  S  S11  1  0.75000000  0.79963900  0.83828200  1
  S  S12  1  0.25000000  0.86076200  0.06153200  1
  S  S13  1  0.25000000  0.60634100  0.74896800  1
  S  S14  1  0.75000000  0.29963900  0.66171800  1
  S  S15  1  0.75000000  0.13923800  0.93846800  1
  S  S16  1  0.75000000  0.68290600  0.14710600  1
  S  S17  1  0.25000000  0.20036100  0.16171800  1
  S  S18  1  0.25000000  0.31709400  0.85289400  1
  S  S19  1  0.75000000  0.86225900  0.47582600  1
loop_
_geom_bond_atom_site_label_1
_geom_bond_atom_site_label_2
_geom_bond_distance
_geom_bond_site_symmetry_2
Cs0 S19 3.535660 1_555
Cs0 S6 3.558523 1_555
Cs0 S6 3.558523 1_655
Cs0 S10 3.633246 1_565
Cs0 S10 3.633246 1_665
Cs0 S1 3.687180 1_565
Cs0 S1 3.687180 1_665
Cs1 S9 3.424075 1_555
Cs1 S7 3.524594 1_655
Cs1 S7 3.524594 1_555
Cs1 S4 3.638122 1_655
Cs1 S4 3.638122 1_555
Cs1 S2 3.673031 1_555
Cs2 S13 3.424075 1_555
Cs2 S14 3.524594 1_455
Cs2 S14 3.524594 1_555
Cs2 S2 3.638122 1_555
Cs2 S2 3.638122 1_455
Cs2 S4 3.673031 1_555
Cs3 S10 3.424075 1_565
Cs3 S11 3.524594 1_455
Cs3 S11 3.524594 1_555
Cs3 S15 3.638122 1_565
Cs3 S15 3.638122 1_465
Cs3 S12 3.673031 1_556
Cs4 S1 3.535660 1_555
Cs4 S3 3.558523 1_455
Cs4 S3 3.558523 1_555
Cs4 S8 3.633246 1_545
Cs4 S8 3.633246 1_445
Cs4 S19 3.687180 1_445
Cs4 S19 3.687180 1_545
Cs5 S0 3.535660 1_554
Cs5 S16 3.558523 1_555
Cs5 S16 3.558523 1_455
Cs5 S9 3.633246 1_555
Cs5 S9 3.633246 1_455
Cs5 S5 3.687180 1_455
Cs5 S5 3.687180 1_555
Cs6 S5 3.535660 1_556
Cs6 S18 3.558523 1_555
Cs6 S18 3.558523 1_655
Cs6 S13 3.633246 1_655
Cs6 S13 3.633246 1_555
Cs6 S0 3.687180 1_555
Cs6 S0 3.687180 1_655
Cs7 S8 3.424075 1_545
Cs7 S17 3.524594 1_555
Cs7 S17 3.524594 1_655
Cs7 S12 3.638122 1_645
Cs7 S12 3.638122 1_545
Cs7 S15 3.673031 1_554
Cd0 S11 2.564802 1_555
Cd0 S11 2.564802 1_455
Cd0 S0 2.568676 1_555
Cd0 S13 2.604509 1_555
Cd1 S17 2.564802 1_555
Cd1 S17 2.564802 1_655
Cd1 S5 2.568676 1_555
Cd1 S9 2.604509 1_555
Cd2 S7 2.564802 1_655
Cd2 S7 2.564802 1_555
Cd2 S19 2.568676 1_555
Cd2 S8 2.604509 1_555
Cd3 S14 2.564802 1_555
Cd3 S14 2.564802 1_455
Cd3 S1 2.568676 1_555
Cd3 S10 2.604509 1_555
Bi0 S18 2.616262 1_555
Bi0 S5 2.843035 1_456
Bi0 S5 2.843035 1_556
Bi0 S15 2.934045 1_455
Bi0 S15 2.934045 1_555
Bi1 S15 2.744794 1_555
Bi1 S10 2.856357 1_555
Bi1 S10 2.856357 1_655
Bi1 S18 2.894814 1_555
Bi1 S18 2.894814 1_655
Bi1 S14 3.061386 1_555
Bi2 S4 2.744794 1_555
Bi2 S9 2.856357 1_455
Bi2 S9 2.856357 1_555
Bi2 S3 2.894814 1_555
Bi2 S3 2.894814 1_455
Bi2 S17 3.061386 1_555
Bi3 S6 2.616262 1_555
Bi3 S19 2.843035 1_455
Bi3 S19 2.843035 1_555
Bi3 S2 2.934045 1_455
Bi3 S2 2.934045 1_555
Bi4 S3 2.616262 1_555
Bi4 S1 2.843035 1_555
Bi4 S1 2.843035 1_655
Bi4 S4 2.934045 1_555
Bi4 S4 2.934045 1_655
Bi5 S12 2.744794 1_555
Bi5 S8 2.856357 1_455
Bi5 S8 2.856357 1_555
Bi5 S16 2.894814 1_455
Bi5 S16 2.894814 1_555
Bi5 S7 3.061386 1_555
Bi6 S2 2.744794 1_555
Bi6 S13 2.856357 1_555
Bi6 S13 2.856357 1_655
Bi6 S6 2.894814 1_555
Bi6 S6 2.894814 1_655
Bi6 S11 3.061386 1_555
Bi7 S16 2.616262 1_555
Bi7 S0 2.843035 1_654
Bi7 S0 2.843035 1_554
Bi7 S12 2.934045 1_655
Bi7 S12 2.934045 1_555
