# generated using pymatgen
data_BaFe12O19
_symmetry_space_group_name_H-M   'P 1'
_cell_length_a   6.01681060
_cell_length_b   6.01681060
_cell_length_c   23.49536800
_cell_angle_alpha   90.00000000
_cell_angle_beta   90.00000000
_cell_angle_gamma   120.00000657
_symmetry_Int_Tables_number   1
_chemical_formula_structural   BaFe12O19
_chemical_formula_sum   'Ba2 Fe24 O38'
_cell_volume   736.62344241
_cell_formula_units_Z   2
loop_
 _symmetry_equiv_pos_site_id
 _symmetry_equiv_pos_as_xyz
  1  'x, y, z'
loop_
 _atom_site_type_symbol
 _atom_site_label
 _atom_site_symmetry_multiplicity
 _atom_site_fract_x
 _atom_site_fract_y
 _atom_site_fract_z
 _atom_site_occupancy
  Ba  Ba0  1  0.66666700  0.33333300  0.25000000  1
  Ba  Ba1  1  0.33333300  0.66666700  0.75000000  1
  Fe  Fe0  1  0.83198700  0.66397400  0.10825800  1
  Fe  Fe1  1  0.83198700  0.66397400  0.39174200  1
  Fe  Fe2  1  0.66666700  0.33333300  0.97191400  1
  Fe  Fe3  1  0.16801300  0.83198700  0.60825800  1
  Fe  Fe4  1  0.66666700  0.33333300  0.80971500  1
  Fe  Fe5  1  0.33602600  0.16801300  0.39174200  1
  Fe  Fe6  1  0.16801300  0.33602600  0.60825800  1
  Fe  Fe7  1  0.33333300  0.66666700  0.30971500  1
  Fe  Fe8  1  0.33333300  0.66666700  0.02808600  1
  Fe  Fe9  1  0.66397400  0.83198700  0.89174200  1
  Fe  Fe10  1  0.33602600  0.16801300  0.10825800  1
  Fe  Fe11  1  0.83198700  0.16801300  0.10825800  1
  Fe  Fe12  1  0.33333300  0.66666700  0.19028500  1
  Fe  Fe13  1  0.66397400  0.83198700  0.60825800  1
  Fe  Fe14  1  0.00000000  0.00000000  0.50000000  1
  Fe  Fe15  1  0.33333300  0.66666700  0.47191400  1
  Fe  Fe16  1  0.16801300  0.33602600  0.89174200  1
  Fe  Fe17  1  0.66666700  0.33333300  0.69028500  1
  Fe  Fe18  1  0.16801300  0.83198700  0.89174200  1
  Fe  Fe19  1  0.66666700  0.33333300  0.52808600  1
  Fe  Fe20  1  0.83198700  0.16801300  0.39174200  1
  Fe  Fe21  1  0.00000000  0.00000000  0.75000000  1
  Fe  Fe22  1  0.00000000  0.00000000  0.00000000  1
  Fe  Fe23  1  0.00000000  0.00000000  0.25000000  1
  O  O0  1  0.00723000  0.50361500  0.85095600  1
  O  O1  1  0.63443700  0.81721900  0.25000000  1
  O  O2  1  0.15505900  0.31011900  0.05243000  1
  O  O3  1  0.50361500  0.49638500  0.14904400  1
  O  O4  1  0.49638500  0.50361500  0.85095600  1
  O  O5  1  0.00000000  0.00000000  0.15124500  1
  O  O6  1  0.00000000  0.00000000  0.34875500  1
  O  O7  1  0.84494100  0.68988100  0.55243000  1
  O  O8  1  0.49638500  0.99277000  0.64904400  1
  O  O9  1  0.36556300  0.18278100  0.75000000  1
  O  O10  1  0.31011900  0.15505900  0.94757000  1
  O  O11  1  0.00000000  0.00000000  0.84875500  1
  O  O12  1  0.15505900  0.84494100  0.05243000  1
  O  O13  1  0.84494100  0.15505900  0.55243000  1
  O  O14  1  0.33333300  0.66666700  0.55468000  1
  O  O15  1  0.18278100  0.81721900  0.25000000  1
  O  O16  1  0.33333300  0.66666700  0.94532000  1
  O  O17  1  0.50361500  0.00723000  0.35095600  1
  O  O18  1  0.66666700  0.33333300  0.05468000  1
  O  O19  1  0.00000000  0.00000000  0.65124500  1
  O  O20  1  0.99277000  0.49638500  0.35095600  1
  O  O21  1  0.84494100  0.15505900  0.94757000  1
  O  O22  1  0.81721900  0.63443700  0.75000000  1
  O  O23  1  0.31011900  0.15505900  0.55243000  1
  O  O24  1  0.50361500  0.49638500  0.35095600  1
  O  O25  1  0.84494100  0.68988100  0.94757000  1
  O  O26  1  0.49638500  0.50361500  0.64904400  1
  O  O27  1  0.99277000  0.49638500  0.14904400  1
  O  O28  1  0.68988100  0.84494100  0.44757000  1
  O  O29  1  0.00723000  0.50361500  0.64904400  1
  O  O30  1  0.66666700  0.33333300  0.44532000  1
  O  O31  1  0.15505900  0.31011900  0.44757000  1
  O  O32  1  0.49638500  0.99277000  0.85095600  1
  O  O33  1  0.15505900  0.84494100  0.44757000  1
  O  O34  1  0.18278100  0.36556300  0.25000000  1
  O  O35  1  0.68988100  0.84494100  0.05243000  1
  O  O36  1  0.81721900  0.18278100  0.75000000  1
  O  O37  1  0.50361500  0.00723000  0.14904400  1
loop_
_geom_bond_atom_site_label_1
_geom_bond_atom_site_label_2
_geom_bond_distance
_geom_bond_site_symmetry_2
Ba0 O20 2.917834 1_555
Ba0 O17 2.917834 1_555
Ba0 O27 2.917834 1_555
Ba0 O37 2.917834 1_555
Ba0 O24 2.917837 1_555
Ba0 O3 2.917837 1_555
Ba0 O34 3.013083 1_655
Ba0 O1 3.013083 1_545
Ba0 O15 3.013088 1_655
Ba0 O15 3.013088 1_545
Ba0 O34 3.013095 1_555
Ba0 O1 3.013095 1_555
Ba1 O0 2.917834 1_555
Ba1 O32 2.917834 1_555
Ba1 O29 2.917834 1_555
Ba1 O8 2.917834 1_555
Ba1 O4 2.917837 1_555
Ba1 O26 2.917837 1_555
Ba1 O22 3.013083 1_455
Ba1 O9 3.013083 1_565
Ba1 O36 3.013088 1_565
Ba1 O36 3.013088 1_455
Ba1 O9 3.013095 1_555
Ba1 O22 3.013095 1_555
Fe0 O3 1.961229 1_555
Fe0 O27 1.961230 1_555
Fe0 O5 2.021351 1_665
Fe0 O18 2.133767 1_555
Fe0 O12 2.137329 1_655
Fe0 O35 2.137333 1_555
Fe1 O24 1.961229 1_555
Fe1 O20 1.961230 1_555
Fe1 O6 2.021351 1_665
Fe1 O30 2.133767 1_555
Fe1 O33 2.137329 1_655
Fe1 O28 2.137333 1_555
Fe2 O25 1.943920 1_555
Fe2 O10 1.943920 1_555
Fe2 O21 1.943920 1_555
Fe2 O18 1.944618 1_556
Fe3 O8 1.961229 1_555
Fe3 O29 1.961229 1_555
Fe3 O19 2.021351 1_565
Fe3 O14 2.133763 1_555
Fe3 O23 2.137329 1_565
Fe3 O7 2.137329 1_455
Fe4 O32 2.021886 1_545
Fe4 O0 2.021886 1_655
Fe4 O4 2.021891 1_555
Fe4 O22 2.104789 1_555
Fe4 O9 2.104789 1_555
Fe4 O36 2.104789 1_555
Fe5 O24 1.961229 1_555
Fe5 O17 1.961230 1_555
Fe5 O6 2.021351 1_555
Fe5 O30 2.133767 1_555
Fe5 O33 2.137329 1_545
Fe5 O31 2.137333 1_555
Fe6 O26 1.961229 1_555
Fe6 O29 1.961230 1_555
Fe6 O19 2.021351 1_555
Fe6 O14 2.133767 1_555
Fe6 O13 2.137329 1_455
Fe6 O23 2.137333 1_555
Fe7 O20 2.021886 1_455
Fe7 O17 2.021886 1_565
Fe7 O24 2.021891 1_555
Fe7 O1 2.104789 1_555
Fe7 O34 2.104789 1_555
Fe7 O15 2.104789 1_555
Fe8 O35 1.943920 1_555
Fe8 O2 1.943920 1_555
Fe8 O12 1.943920 1_555
Fe8 O16 1.944618 1_554
Fe9 O4 1.961229 1_555
Fe9 O32 1.961230 1_555
Fe9 O11 2.021351 1_665
Fe9 O16 2.133767 1_555
Fe9 O21 2.137329 1_565
Fe9 O25 2.137333 1_555
Fe10 O3 1.961229 1_555
Fe10 O37 1.961230 1_555
Fe10 O5 2.021351 1_555
Fe10 O18 2.133767 1_555
Fe10 O12 2.137329 1_545
Fe10 O2 2.137333 1_555
Fe11 O27 1.961229 1_555
Fe11 O37 1.961229 1_555
Fe11 O5 2.021351 1_655
Fe11 O18 2.133763 1_555
Fe11 O35 2.137329 1_545
Fe11 O2 2.137329 1_655
Fe12 O27 2.021886 1_455
Fe12 O37 2.021886 1_565
Fe12 O3 2.021891 1_555
Fe12 O1 2.104789 1_555
Fe12 O34 2.104789 1_555
Fe12 O15 2.104789 1_555
Fe13 O26 1.961229 1_555
Fe13 O8 1.961230 1_555
Fe13 O19 2.021351 1_665
Fe13 O14 2.133767 1_555
Fe13 O13 2.137329 1_565
Fe13 O7 2.137333 1_555
Fe14 O33 2.031928 1_545
Fe14 O13 2.031928 1_455
Fe14 O31 2.031932 1_555
Fe14 O28 2.031932 1_445
Fe14 O23 2.031932 1_555
Fe14 O7 2.031932 1_445
Fe15 O28 1.943920 1_555
Fe15 O31 1.943920 1_555
Fe15 O33 1.943920 1_555
Fe15 O14 1.944618 1_555
Fe16 O4 1.961229 1_555
Fe16 O0 1.961230 1_555
Fe16 O11 2.021351 1_555
Fe16 O16 2.133767 1_555
Fe16 O21 2.137329 1_455
Fe16 O10 2.137333 1_555
Fe17 O8 2.021886 1_545
Fe17 O29 2.021886 1_655
Fe17 O26 2.021891 1_555
Fe17 O22 2.104789 1_555
Fe17 O9 2.104789 1_555
Fe17 O36 2.104789 1_555
Fe18 O32 1.961229 1_555
Fe18 O0 1.961229 1_555
Fe18 O11 2.021351 1_565
Fe18 O16 2.133763 1_555
Fe18 O10 2.137329 1_565
Fe18 O25 2.137329 1_455
Fe19 O7 1.943920 1_555
Fe19 O23 1.943920 1_555
Fe19 O13 1.943920 1_555
Fe19 O30 1.944618 1_555
Fe20 O20 1.961229 1_555
Fe20 O17 1.961229 1_555
Fe20 O6 2.021351 1_655
Fe20 O30 2.133763 1_555
Fe20 O28 2.137329 1_545
Fe20 O31 2.137329 1_655
Fe21 O36 1.904838 1_455
Fe21 O9 1.904843 1_555
Fe21 O22 1.904843 1_445
Fe21 O11 2.320285 1_555
Fe21 O19 2.320285 1_555
Fe22 O21 2.031928 1_454
Fe22 O12 2.031928 1_545
Fe22 O10 2.031932 1_554
Fe22 O2 2.031932 1_555
Fe22 O25 2.031932 1_444
Fe22 O35 2.031932 1_445
Fe23 O15 1.904838 1_545
Fe23 O34 1.904843 1_555
Fe23 O1 1.904843 1_445
Fe23 O6 2.320285 1_555
Fe23 O5 2.320285 1_555
