# generated using pymatgen
data_KLi3PbO4
_symmetry_space_group_name_H-M   'P 1'
_cell_length_a   6.02963200
_cell_length_b   6.02973166
_cell_length_c   7.07761623
_cell_angle_alpha   107.19396895
_cell_angle_beta   107.94179043
_cell_angle_gamma   88.16691995
_symmetry_Int_Tables_number   1
_chemical_formula_structural   KLi3PbO4
_chemical_formula_sum   'K2 Li6 Pb2 O8'
_cell_volume   233.37266054
_cell_formula_units_Z   2
loop_
 _symmetry_equiv_pos_site_id
 _symmetry_equiv_pos_as_xyz
  1  'x, y, z'
loop_
 _atom_site_type_symbol
 _atom_site_label
 _atom_site_symmetry_multiplicity
 _atom_site_fract_x
 _atom_site_fract_y
 _atom_site_fract_z
 _atom_site_occupancy
  K  K0  1  0.51241500  0.98659400  0.24989700  1
  K  K1  1  0.48758500  0.01340600  0.75010300  1
  Li  Li0  1  0.04900700  0.13120400  0.90904800  1
  Li  Li1  1  0.95099300  0.86879600  0.09095200  1
  Li  Li2  1  0.68488500  0.46157100  0.15703500  1
  Li  Li3  1  0.06493500  0.16433300  0.44571200  1
  Li  Li4  1  0.93506500  0.83566700  0.55428800  1
  Li  Li5  1  0.31511500  0.53842900  0.84296500  1
  Pb  Pb0  1  0.75496500  0.50768200  0.70213700  1
  Pb  Pb1  1  0.24503500  0.49231800  0.29786300  1
  O  O0  1  0.36362500  0.35911200  0.56349500  1
  O  O1  1  0.88216300  0.17442300  0.63551000  1
  O  O2  1  0.11783700  0.82557700  0.36449000  1
  O  O3  1  0.65410500  0.67174900  0.96845600  1
  O  O4  1  0.34589500  0.32825100  0.03154400  1
  O  O5  1  0.05870700  0.76683100  0.83074100  1
  O  O6  1  0.94129300  0.23316900  0.16925900  1
  O  O7  1  0.63637500  0.64088800  0.43650500  1
loop_
_geom_bond_atom_site_label_1
_geom_bond_atom_site_label_2
_geom_bond_distance
_geom_bond_site_symmetry_2
K0 O3 2.647778 1_554
K0 O7 2.751003 1_555
K0 O1 2.878731 1_565
K0 O4 2.904203 1_565
K0 O0 2.987795 1_565
K0 O2 3.010478 1_555
K1 O4 2.647778 1_556
K1 O0 2.751003 1_555
K1 O2 2.878731 1_545
K1 O3 2.904203 1_545
K1 O7 2.987795 1_545
K1 O1 3.010478 1_555
Li0 O1 1.977276 1_455
Li0 O4 1.984630 1_556
Li0 O6 2.057557 1_456
Li0 O5 2.104650 1_545
Li1 O2 1.977276 1_655
Li1 O3 1.984630 1_554
Li1 O5 2.057557 1_654
Li1 O6 2.104650 1_565
Li2 O6 2.036234 1_555
Li2 O4 2.043888 1_555
Li2 O7 2.058844 1_555
Li2 O3 2.062595 1_554
Li3 O1 1.970325 1_455
Li3 O0 1.987301 1_555
Li3 O2 1.995379 1_545
Li3 O6 2.029311 1_455
Li4 O2 1.970325 1_655
Li4 O7 1.987301 1_555
Li4 O1 1.995379 1_565
Li4 O5 2.029311 1_655
Li5 O5 2.036234 1_555
Li5 O3 2.043888 1_555
Li5 O0 2.058844 1_555
Li5 O4 2.062595 1_556
O0 Pb1 2.172270 1_555
O0 Pb0 2.349952 1_555
O1 Pb0 2.100603 1_555
O2 Pb1 2.100603 1_555
O3 Pb0 2.113455 1_555
O4 Pb1 2.113455 1_555
O5 Pb0 2.222516 1_455
O6 Pb1 2.222516 1_655
O7 Pb0 2.172270 1_555
O7 Pb1 2.349952 1_555
