# generated using pymatgen
data_K4Sn(TeSe)2
_symmetry_space_group_name_H-M   'P 1'
_cell_length_a   8.56550900
_cell_length_b   10.83446200
_cell_length_c   15.24579000
_cell_angle_alpha   90.00000000
_cell_angle_beta   90.00000000
_cell_angle_gamma   90.00000000
_symmetry_Int_Tables_number   1
_chemical_formula_structural   K4Sn(TeSe)2
_chemical_formula_sum   'K16 Sn4 Te8 Se8'
_cell_volume   1414.85019772
_cell_formula_units_Z   4
loop_
 _symmetry_equiv_pos_site_id
 _symmetry_equiv_pos_as_xyz
  1  'x, y, z'
loop_
 _atom_site_type_symbol
 _atom_site_label
 _atom_site_symmetry_multiplicity
 _atom_site_fract_x
 _atom_site_fract_y
 _atom_site_fract_z
 _atom_site_occupancy
  K  K0  1  0.50000000  0.50000000  0.50000000  1
  K  K1  1  0.14491500  0.46315600  0.27134600  1
  K  K2  1  0.14491500  0.03684400  0.27134600  1
  K  K3  1  0.98175800  0.75000000  0.43507000  1
  K  K4  1  0.01824200  0.25000000  0.56493000  1
  K  K5  1  0.64491500  0.96315600  0.22865400  1
  K  K6  1  0.35508500  0.03684400  0.77134600  1
  K  K7  1  0.85508500  0.96315600  0.72865400  1
  K  K8  1  0.35508500  0.46315600  0.77134600  1
  K  K9  1  0.00000000  0.50000000  0.00000000  1
  K  K10  1  0.48175800  0.25000000  0.06493000  1
  K  K11  1  0.64491500  0.53684400  0.22865400  1
  K  K12  1  0.51824200  0.75000000  0.93507000  1
  K  K13  1  0.00000000  0.00000000  0.00000000  1
  K  K14  1  0.85508500  0.53684400  0.72865400  1
  K  K15  1  0.50000000  0.00000000  0.50000000  1
  Sn  Sn0  1  0.73738100  0.25000000  0.83831600  1
  Sn  Sn1  1  0.76261900  0.25000000  0.33831600  1
  Sn  Sn2  1  0.23738100  0.75000000  0.66168400  1
  Sn  Sn3  1  0.26261900  0.75000000  0.16168400  1
  Te  Te0  1  0.56403800  0.75000000  0.66589400  1
  Te  Te1  1  0.43596200  0.25000000  0.33410600  1
  Te  Te2  1  0.37320600  0.75000000  0.33517400  1
  Te  Te3  1  0.12679400  0.75000000  0.83517400  1
  Te  Te4  1  0.06403800  0.25000000  0.83410600  1
  Te  Te5  1  0.93596200  0.75000000  0.16589400  1
  Te  Te6  1  0.62679400  0.25000000  0.66482600  1
  Te  Te7  1  0.87320600  0.25000000  0.16482600  1
  Se  Se0  1  0.85554100  0.44495600  0.41583500  1
  Se  Se1  1  0.64445900  0.05504400  0.91583500  1
  Se  Se2  1  0.35554100  0.94495600  0.08416500  1
  Se  Se3  1  0.35554100  0.55504400  0.08416500  1
  Se  Se4  1  0.14445900  0.55504400  0.58416500  1
  Se  Se5  1  0.85554100  0.05504400  0.41583500  1
  Se  Se6  1  0.14445900  0.94495600  0.58416500  1
  Se  Se7  1  0.64445900  0.44495600  0.91583500  1
loop_
_geom_bond_atom_site_label_1
_geom_bond_atom_site_label_2
_geom_bond_distance
_geom_bond_site_symmetry_2
K0 Se4 3.358059 1_555
K0 Se0 3.358059 1_555
K0 Te0 3.746231 1_555
K0 Te1 3.746231 1_555
K0 Te6 3.851077 1_555
K0 Te2 3.851077 1_555
K1 Se0 3.321906 1_455
K1 Se3 3.519902 1_555
K1 Te1 3.530420 1_555
K1 Te7 3.658857 1_455
K1 Sn3 3.670160 1_555
K1 Te2 3.798561 1_555
K1 Te5 3.930199 1_455
K2 Se5 3.321906 1_455
K2 Se2 3.519902 1_545
K2 Te1 3.530420 1_555
K2 Te7 3.658857 1_455
K2 Sn3 3.670160 1_545
K2 Te2 3.798561 1_545
K2 Te5 3.930199 1_445
K3 Se6 3.401557 1_655
K3 Se4 3.401557 1_655
K3 Se5 3.489663 1_565
K3 Se0 3.489663 1_555
K3 Te2 3.682634 1_655
K3 Te5 4.122506 1_555
K4 Se0 3.401557 1_455
K4 Se5 3.401557 1_455
K4 Se4 3.489663 1_555
K4 Se6 3.489663 1_545
K4 Te6 3.682634 1_455
K4 Te4 4.122506 1_555
K5 Se2 3.321906 1_555
K5 Se5 3.519902 1_565
K5 Te5 3.530420 1_555
K5 Te2 3.658857 1_555
K5 Sn1 3.670160 1_565
K5 Te7 3.798561 1_565
K5 Te1 3.930199 1_565
K6 Se1 3.321906 1_555
K6 Se6 3.519902 1_545
K6 Te4 3.530420 1_555
K6 Te6 3.658857 1_555
K6 Sn2 3.670160 1_545
K6 Te3 3.798561 1_545
K6 Te0 3.930199 1_545
K7 Se6 3.321906 1_655
K7 Se1 3.519902 1_565
K7 Te0 3.530420 1_555
K7 Te3 3.658857 1_655
K7 Sn0 3.670160 1_565
K7 Te6 3.798561 1_565
K7 Te4 3.930199 1_665
K8 Se7 3.321906 1_555
K8 Se4 3.519902 1_555
K8 Te4 3.530420 1_555
K8 Te6 3.658857 1_555
K8 Sn2 3.670160 1_555
K8 Te3 3.798561 1_555
K8 Te0 3.930199 1_555
K9 Se3 3.358059 1_555
K9 Se7 3.358059 1_454
K9 Te5 3.746231 1_455
K9 Te4 3.746231 1_554
K9 Te3 3.851077 1_554
K9 Te7 3.851077 1_455
K10 Se7 3.401557 1_554
K10 Se1 3.401557 1_554
K10 Se3 3.489663 1_555
K10 Se2 3.489663 1_545
K10 Te7 3.682634 1_555
K10 Te1 4.122506 1_555
K11 Se3 3.321906 1_555
K11 Se0 3.519902 1_555
K11 Te5 3.530420 1_555
K11 Te2 3.658857 1_555
K11 Sn1 3.670160 1_555
K11 Te7 3.798561 1_555
K11 Te1 3.930199 1_555
K12 Se2 3.401557 1_556
K12 Se3 3.401557 1_556
K12 Se1 3.489663 1_565
K12 Se7 3.489663 1_555
K12 Te3 3.682634 1_555
K12 Te0 4.122506 1_555
K13 Se2 3.358059 1_545
K13 Se1 3.358059 1_454
K13 Te5 3.746231 1_445
K13 Te4 3.746231 1_554
K13 Te3 3.851077 1_544
K13 Te7 3.851077 1_455
K14 Se4 3.321906 1_655
K14 Se7 3.519902 1_555
K14 Te0 3.530420 1_555
K14 Te3 3.658857 1_655
K14 Sn0 3.670160 1_555
K14 Te6 3.798561 1_555
K14 Te4 3.930199 1_655
K15 Se6 3.358059 1_545
K15 Se5 3.358059 1_555
K15 Te0 3.746231 1_545
K15 Te1 3.746231 1_555
K15 Te6 3.851077 1_555
K15 Te2 3.851077 1_545
Sn0 Te4 2.798720 1_655
Sn0 Te6 2.809490 1_555
Sn1 Te1 2.798720 1_555
Sn1 Te7 2.809490 1_555
Sn2 Te0 2.798720 1_555
Sn2 Te3 2.809490 1_555
Sn3 Te5 2.798720 1_455
Sn3 Te2 2.809490 1_555
Se0 Sn1 2.547903 1_555
Se1 Sn0 2.547903 1_555
Se2 Sn3 2.547903 1_555
Se3 Sn3 2.547903 1_555
Se4 Sn2 2.547903 1_555
Se5 Sn1 2.547903 1_555
Se6 Sn2 2.547903 1_555
Se7 Sn0 2.547903 1_555
