# generated using pymatgen
data_NaCdH3(CO2)3
_symmetry_space_group_name_H-M   'P 1'
_cell_length_a   6.54026200
_cell_length_b   7.37633500
_cell_length_c   14.37064200
_cell_angle_alpha   90.00000000
_cell_angle_beta   90.00000000
_cell_angle_gamma   90.00000000
_symmetry_Int_Tables_number   1
_chemical_formula_structural   NaCdH3(CO2)3
_chemical_formula_sum   'Na4 Cd4 H12 C12 O24'
_cell_volume   693.28523160
_cell_formula_units_Z   4
loop_
 _symmetry_equiv_pos_site_id
 _symmetry_equiv_pos_as_xyz
  1  'x, y, z'
loop_
 _atom_site_type_symbol
 _atom_site_label
 _atom_site_symmetry_multiplicity
 _atom_site_fract_x
 _atom_site_fract_y
 _atom_site_fract_z
 _atom_site_occupancy
  Na  Na0  1  0.75000000  0.50000000  0.27899800  1
  Na  Na1  1  0.25000000  0.50000000  0.22100200  1
  Na  Na2  1  0.75000000  0.50000000  0.77899800  1
  Na  Na3  1  0.25000000  0.50000000  0.72100200  1
  Cd  Cd0  1  0.75000000  0.00000000  0.42842800  1
  Cd  Cd1  1  0.25000000  0.00000000  0.57157200  1
  Cd  Cd2  1  0.75000000  0.00000000  0.92842800  1
  Cd  Cd3  1  0.25000000  0.00000000  0.07157200  1
  H  H0  1  0.00000000  0.95083200  0.75000000  1
  H  H1  1  0.00000000  0.04916800  0.25000000  1
  H  H2  1  0.29199000  0.33190000  0.43023300  1
  H  H3  1  0.50000000  0.95083200  0.25000000  1
  H  H4  1  0.20801000  0.66810000  0.43023300  1
  H  H5  1  0.79199000  0.33190000  0.56976700  1
  H  H6  1  0.70801000  0.66810000  0.56976700  1
  H  H7  1  0.50000000  0.04916800  0.75000000  1
  H  H8  1  0.79199000  0.66810000  0.06976700  1
  H  H9  1  0.29199000  0.66810000  0.93023300  1
  H  H10  1  0.20801000  0.33190000  0.93023300  1
  H  H11  1  0.70801000  0.33190000  0.06976700  1
  C  C0  1  0.63187000  0.70460100  0.08701200  1
  C  C1  1  0.00000000  0.10131400  0.75000000  1
  C  C2  1  0.86813000  0.29539900  0.08701200  1
  C  C3  1  0.50000000  0.89868600  0.75000000  1
  C  C4  1  0.50000000  0.10131400  0.25000000  1
  C  C5  1  0.63187000  0.29539900  0.58701200  1
  C  C6  1  0.00000000  0.89868600  0.25000000  1
  C  C7  1  0.36813000  0.29539900  0.91298800  1
  C  C8  1  0.86813000  0.70460100  0.58701200  1
  C  C9  1  0.36813000  0.70460100  0.41298800  1
  C  C10  1  0.13187000  0.29539900  0.41298800  1
  C  C11  1  0.13187000  0.70460100  0.91298800  1
  O  O0  1  0.46147500  0.38567400  0.85316700  1
  O  O1  1  0.44082000  0.15792700  0.95781300  1
  O  O2  1  0.60615100  0.18216700  0.31145600  1
  O  O3  1  0.05918000  0.15792700  0.45781300  1
  O  O4  1  0.03852500  0.61432600  0.85316700  1
  O  O5  1  0.94082000  0.84207300  0.54218700  1
  O  O6  1  0.44082000  0.84207300  0.45781300  1
  O  O7  1  0.60615100  0.81783300  0.81145600  1
  O  O8  1  0.89384900  0.18216700  0.81145600  1
  O  O9  1  0.55918000  0.84207300  0.04218700  1
  O  O10  1  0.39384900  0.81783300  0.68854400  1
  O  O11  1  0.96147500  0.61432600  0.64683300  1
  O  O12  1  0.96147500  0.38567400  0.14683300  1
  O  O13  1  0.10615100  0.81783300  0.18854400  1
  O  O14  1  0.53852500  0.38567400  0.64683300  1
  O  O15  1  0.10615100  0.18216700  0.68854400  1
  O  O16  1  0.39384900  0.18216700  0.18854400  1
  O  O17  1  0.55918000  0.15792700  0.54218700  1
  O  O18  1  0.05918000  0.84207300  0.95781300  1
  O  O19  1  0.53852500  0.61432600  0.14683300  1
  O  O20  1  0.89384900  0.81783300  0.31145600  1
  O  O21  1  0.94082000  0.15792700  0.04218700  1
  O  O22  1  0.03852500  0.38567400  0.35316700  1
  O  O23  1  0.46147500  0.61432600  0.35316700  1
loop_
_geom_bond_atom_site_label_1
_geom_bond_atom_site_label_2
_geom_bond_distance
_geom_bond_site_symmetry_2
Na0 O22 2.325531 1_655
Na0 O23 2.325531 1_555
Na0 O19 2.496290 1_555
Na0 O12 2.496290 1_555
Na0 O20 2.568872 1_555
Na0 O2 2.568872 1_555
Na1 O19 2.325531 1_555
Na1 O12 2.325531 1_455
Na1 O23 2.496290 1_555
Na1 O22 2.496290 1_555
Na1 O13 2.568872 1_555
Na1 O16 2.568872 1_555
Na2 O4 2.325531 1_655
Na2 O0 2.325531 1_555
Na2 O11 2.496290 1_555
Na2 O14 2.496290 1_555
Na2 O7 2.568872 1_555
Na2 O8 2.568872 1_555
Na3 O14 2.325531 1_555
Na3 O11 2.325531 1_455
Na3 O4 2.496290 1_555
Na3 O0 2.496290 1_555
Na3 O10 2.568872 1_555
Na3 O15 2.568872 1_555
Cd0 O2 2.348692 1_555
Cd0 O20 2.348692 1_545
Cd0 O17 2.363709 1_555
Cd0 O5 2.363709 1_545
Cd0 O3 2.371567 1_655
Cd0 O6 2.371567 1_545
Cd1 O15 2.348692 1_555
Cd1 O10 2.348692 1_545
Cd1 O3 2.363709 1_555
Cd1 O6 2.363709 1_545
Cd1 O17 2.371567 1_555
Cd1 O5 2.371567 1_445
Cd2 O8 2.348692 1_555
Cd2 O7 2.348692 1_545
Cd2 O21 2.363709 1_556
Cd2 O9 2.363709 1_546
Cd2 O1 2.371567 1_555
Cd2 O18 2.371567 1_645
Cd3 O16 2.348692 1_555
Cd3 O13 2.348692 1_545
Cd3 O1 2.363709 1_554
Cd3 O18 2.363709 1_544
Cd3 O21 2.371567 1_455
Cd3 O9 2.371567 1_545
C0 H8 1.109320 1_555
C0 O19 1.247060 1_555
C0 O9 1.291991 1_555
C1 H0 1.110006 1_545
C1 O8 1.271872 1_455
C1 O15 1.271872 1_555
C2 H11 1.109320 1_555
C2 O12 1.247060 1_555
C2 O21 1.291991 1_555
C3 H7 1.110006 1_565
C3 O7 1.271872 1_555
C3 O10 1.271872 1_555
C4 H3 1.110006 1_545
C4 O2 1.271872 1_555
C4 O16 1.271872 1_555
C5 H5 1.109320 1_555
C5 O14 1.247060 1_555
C5 O17 1.291991 1_555
C6 H1 1.110006 1_565
C6 O13 1.271872 1_555
C6 O20 1.271872 1_455
C7 H10 1.109320 1_555
C7 O0 1.247060 1_555
C7 O1 1.291991 1_555
C8 H6 1.109320 1_555
C8 O11 1.247060 1_555
C8 O5 1.291991 1_555
C9 H4 1.109320 1_555
C9 O23 1.247060 1_555
C9 O6 1.291991 1_555
C10 H2 1.109320 1_555
C10 O22 1.247060 1_555
C10 O3 1.291991 1_555
C11 H9 1.109320 1_555
C11 O4 1.247060 1_555
C11 O18 1.291991 1_555
