# generated using pymatgen
data_Bi2Pd
_symmetry_space_group_name_H-M   'P 1'
_cell_length_a   4.28550162
_cell_length_b   5.75321931
_cell_length_c   6.76909401
_cell_angle_alpha   103.09244774
_cell_angle_beta   108.47785211
_cell_angle_gamma   90.15034049
_symmetry_Int_Tables_number   1
_chemical_formula_structural   Bi2Pd
_chemical_formula_sum   'Bi4 Pd2'
_cell_volume   153.67515902
_cell_formula_units_Z   2
loop_
 _symmetry_equiv_pos_site_id
 _symmetry_equiv_pos_as_xyz
  1  'x, y, z'
loop_
 _atom_site_type_symbol
 _atom_site_label
 _atom_site_symmetry_multiplicity
 _atom_site_fract_x
 _atom_site_fract_y
 _atom_site_fract_z
 _atom_site_occupancy
  Bi  Bi0  1  0.83836019  0.68382741  0.67805667  1
  Bi  Bi1  1  0.16163981  0.31617259  0.32194333  1
  Bi  Bi2  1  0.43032220  0.20546736  0.85700059  1
  Bi  Bi3  1  0.56967780  0.79453264  0.14299941  1
  Pd  Pd0  1  0.77906626  0.17012934  0.55573887  1
  Pd  Pd1  1  0.22093374  0.82987066  0.44426113  1
loop_
_geom_bond_atom_site_label_1
_geom_bond_atom_site_label_2
_geom_bond_distance
_geom_bond_site_symmetry_2
Bi0 Pd1 2.852799 1_655
Bi0 Pd1 2.858584 1_555
Bi0 Pd0 2.870313 1_555
Bi0 Pd0 3.081830 1_565
Bi0 Bi3 3.600304 1_656
Bi0 Bi3 3.609623 1_556
Bi1 Pd0 2.852799 1_455
Bi1 Pd0 2.858584 1_555
Bi1 Pd1 2.870313 1_555
Bi1 Pd1 3.081830 1_545
Bi1 Bi2 3.600304 1_454
Bi1 Bi2 3.609623 1_554
Bi2 Pd0 2.859945 1_555
Bi2 Pd0 2.861971 1_455
Bi2 Pd1 2.990970 1_545
Bi2 Bi3 3.322969 1_546
Bi2 Bi3 3.445885 1_556
Bi3 Pd1 2.859945 1_555
Bi3 Pd1 2.861971 1_655
Bi3 Pd0 2.990970 1_565
Pd0 Pd1 2.871123 1_645
Pd0 Pd1 2.878321 1_545
