# generated using pymatgen
data_Y2Fe14B
_symmetry_space_group_name_H-M   'P 1'
_cell_length_a   8.72578912
_cell_length_b   8.72577449
_cell_length_c   11.96796755
_cell_angle_alpha   90.00000000
_cell_angle_beta   90.00000000
_cell_angle_gamma   90.00003881
_symmetry_Int_Tables_number   1
_chemical_formula_structural   Y2Fe14B
_chemical_formula_sum   'Y8 Fe56 B4'
_cell_volume   911.23229000
_cell_formula_units_Z   4
loop_
 _symmetry_equiv_pos_site_id
 _symmetry_equiv_pos_as_xyz
  1  'x, y, z'
loop_
 _atom_site_type_symbol
 _atom_site_label
 _atom_site_symmetry_multiplicity
 _atom_site_fract_x
 _atom_site_fract_y
 _atom_site_fract_z
 _atom_site_occupancy
  Y  Y0  1  0.73330697  0.26671464  -0.00000000  1
  Y  Y1  1  0.23330176  0.23333082  0.50000000  1
  Y  Y2  1  0.76669824  0.76666918  0.50000000  1
  Y  Y3  1  0.26669303  0.73328536  -0.00000000  1
  Y  Y4  1  0.85680826  0.85679343  -0.00000000  1
  Y  Y5  1  0.64319544  0.35682129  0.50000000  1
  Y  Y6  1  0.35680456  0.64317871  0.50000000  1
  Y  Y7  1  0.14319174  0.14320657  -0.00000000  1
  Fe  Fe0  1  0.13982465  0.46416028  0.32498894  1
  Fe  Fe1  1  0.86017535  0.53583972  0.32498894  1
  Fe  Fe2  1  0.46415531  0.13984315  0.67501159  1
  Fe  Fe3  1  0.96415748  0.36018792  0.82494585  1
  Fe  Fe4  1  0.03584252  0.63981208  0.82494585  1
  Fe  Fe5  1  0.36017267  0.96415412  0.17505597  1
  Fe  Fe6  1  0.63982733  0.03584588  0.17505597  1
  Fe  Fe7  1  0.53584469  0.86015685  0.67501159  1
  Fe  Fe8  1  0.86017535  0.53583972  0.67501106  1
  Fe  Fe9  1  0.13982465  0.46416028  0.67501106  1
  Fe  Fe10  1  0.53584469  0.86015685  0.32498841  1
  Fe  Fe11  1  0.03584252  0.63981208  0.17505415  1
  Fe  Fe12  1  0.96415748  0.36018792  0.17505415  1
  Fe  Fe13  1  0.63982733  0.03584588  0.82494403  1
  Fe  Fe14  1  0.36017267  0.96415412  0.82494403  1
  Fe  Fe15  1  0.46415531  0.13984315  0.32498841  1
  Fe  Fe16  1  0.06568279  0.72619246  0.37168495  1
  Fe  Fe17  1  0.93431721  0.27380754  0.37168495  1
  Fe  Fe18  1  0.72621646  0.06569335  0.62831884  1
  Fe  Fe19  1  0.22620360  0.43431797  0.87164755  1
  Fe  Fe20  1  0.77379640  0.56568203  0.87164755  1
  Fe  Fe21  1  0.43430668  0.22622389  0.12835705  1
  Fe  Fe22  1  0.56569332  0.77377611  0.12835705  1
  Fe  Fe23  1  0.27378354  0.93430665  0.62831884  1
  Fe  Fe24  1  0.93431721  0.27380754  0.62831505  1
  Fe  Fe25  1  0.06568279  0.72619246  0.62831505  1
  Fe  Fe26  1  0.27378354  0.93430665  0.37168116  1
  Fe  Fe27  1  0.77379640  0.56568203  0.12835245  1
  Fe  Fe28  1  0.22620360  0.43431797  0.12835245  1
  Fe  Fe29  1  0.56569332  0.77377611  0.87164295  1
  Fe  Fe30  1  0.43430668  0.22622389  0.87164295  1
  Fe  Fe31  1  0.72621646  0.06569335  0.37168116  1
  Fe  Fe32  1  0.59772152  0.59769604  0.70045956  1
  Fe  Fe33  1  0.40227848  0.40230396  0.70045956  1
  Fe  Fe34  1  0.59772152  0.59769604  0.29954044  1
  Fe  Fe35  1  0.09770400  0.90227298  0.20049853  1
  Fe  Fe36  1  0.90229600  0.09772702  0.20049853  1
  Fe  Fe37  1  0.90229600  0.09772702  0.79950147  1
  Fe  Fe38  1  0.09770400  0.90227298  0.79950147  1
  Fe  Fe39  1  0.40227848  0.40230396  0.29954044  1
  Fe  Fe40  1  0.81666933  0.81664056  0.74615837  1
  Fe  Fe41  1  0.18333067  0.18335944  0.74615837  1
  Fe  Fe42  1  0.81666933  0.81664056  0.25384163  1
  Fe  Fe43  1  0.31665493  0.68331791  0.24620116  1
  Fe  Fe44  1  0.68334507  0.31668209  0.24620116  1
  Fe  Fe45  1  0.68334507  0.31668209  0.75379884  1
  Fe  Fe46  1  0.31665493  0.68331791  0.75379884  1
  Fe  Fe47  1  0.18333067  0.18335944  0.25384163  1
  Fe  Fe48  1  -0.00000000  -0.00000000  0.61702542  1
  Fe  Fe49  1  0.50000000  0.50000000  0.11706410  1
  Fe  Fe50  1  0.50000000  0.50000000  0.88293590  1
  Fe  Fe51  1  -0.00000000  -0.00000000  0.38297458  1
  Fe  Fe52  1  0.50000000  -0.00000000  -0.00000000  1
  Fe  Fe53  1  0.50000000  -0.00000000  0.50000000  1
  Fe  Fe54  1  -0.00000000  0.50000000  0.50000000  1
  Fe  Fe55  1  -0.00000000  0.50000000  -0.00000000  1
  B  B0  1  0.62374831  0.62373640  -0.00000000  1
  B  B1  1  0.87625452  0.12375851  0.50000000  1
  B  B2  1  0.12374548  0.87624149  0.50000000  1
  B  B3  1  0.37625169  0.37626360  -0.00000000  1
loop_
_geom_bond_atom_site_label_1
_geom_bond_atom_site_label_2
_geom_bond_distance
_geom_bond_site_symmetry_2
Fe0 Fe39 2.372493 1_555
Fe0 Fe16 2.441033 1_555
Fe0 Fe54 2.444062 1_555
Fe0 Fe28 2.484776 1_555
Fe0 Fe17 2.507344 1_455
Fe0 Fe1 2.519045 1_455
Fe0 Fe11 2.528306 1_555
Fe0 Fe12 2.528357 1_455
Fe0 Fe47 2.621574 1_555
Fe0 Fe43 2.631896 1_555
Fe0 Y1 3.018147 1_555
Fe0 Y6 3.226729 1_555
Fe1 Fe34 2.372493 1_555
Fe1 Fe17 2.441033 1_555
Fe1 Fe54 2.444062 1_655
Fe1 Fe27 2.484776 1_555
Fe1 Fe16 2.507344 1_655
Fe1 Fe12 2.528306 1_555
Fe1 Fe11 2.528357 1_655
Fe1 Fe42 2.621574 1_555
Fe1 Fe44 2.631896 1_555
Fe1 Y2 3.018147 1_555
Fe1 Y5 3.226729 1_555
Fe2 Fe33 2.372588 1_555
Fe2 Fe53 2.444152 1_555
Fe2 Fe30 2.484728 1_555
Fe2 Fe23 2.507626 1_545
Fe2 Fe7 2.519375 1_545
Fe2 Fe41 2.621783 1_555
Fe2 Fe45 2.632143 1_555
Fe2 Y1 3.018319 1_555
Fe2 Y5 3.226815 1_555
Fe3 Fe37 2.372552 1_555
Fe3 Fe55 2.444451 1_656
Fe3 Fe4 2.518840 1_655
Fe3 Fe8 2.528306 1_555
Fe3 Fe9 2.528357 1_655
Fe3 Fe45 2.621671 1_555
Fe3 Fe41 2.631987 1_655
Fe3 Y0 3.018620 1_556
Fe3 Y7 3.227138 1_656
Fe4 Fe55 2.444451 1_556
Fe4 Fe9 2.528306 1_555
Fe4 Fe8 2.528357 1_455
Fe4 Fe46 2.621671 1_555
Fe4 Fe40 2.631987 1_455
Fe4 Y3 3.018620 1_556
Fe4 Y4 3.227138 1_456
Fe5 Fe52 2.444541 1_565
Fe5 Fe6 2.519116 1_565
Fe5 Y3 3.018754 1_555
Fe5 Y7 3.227228 1_565
Fe6 Y0 3.018754 1_555
Fe6 Y4 3.227228 1_545
Fe7 Y2 3.018319 1_555
Fe7 Y6 3.226815 1_555
Fe8 Fe9 2.519045 1_655
Fe8 Y2 3.018147 1_555
Fe8 Y5 3.226729 1_555
Fe9 Y1 3.018147 1_555
Fe9 Y6 3.226729 1_555
Fe10 Fe34 2.372588 1_555
Fe10 Fe26 2.441282 1_555
Fe10 Fe53 2.444152 1_565
Fe10 Fe22 2.484728 1_555
Fe10 Fe31 2.507626 1_565
Fe10 Fe15 2.519375 1_565
Fe10 Fe5 2.528441 1_555
Fe10 Fe6 2.528484 1_565
Fe10 Fe42 2.621783 1_555
Fe10 Fe43 2.632143 1_555
Fe10 Y2 3.018319 1_555
Fe10 Y6 3.226815 1_555
Fe11 Fe35 2.372552 1_555
Fe11 Fe27 2.441137 1_455
Fe11 Fe55 2.444451 1_555
Fe11 Fe16 2.484713 1_555
Fe11 Fe28 2.507325 1_555
Fe11 Fe12 2.518840 1_455
Fe11 Fe43 2.621671 1_555
Fe11 Fe42 2.631987 1_455
Fe11 Y3 3.018620 1_555
Fe11 Y4 3.227138 1_455
Fe12 Fe36 2.372552 1_555
Fe12 Fe28 2.441137 1_655
Fe12 Fe55 2.444451 1_655
Fe12 Fe17 2.484713 1_555
Fe12 Fe27 2.507325 1_555
Fe12 Fe44 2.621671 1_555
Fe12 Fe47 2.631987 1_655
Fe12 Y0 3.018620 1_555
Fe12 Y7 3.227138 1_655
Fe13 Fe37 2.372657 1_555
Fe13 Fe29 2.441329 1_545
Fe13 Fe52 2.444541 1_556
Fe13 Fe18 2.484680 1_555
Fe13 Fe30 2.507582 1_555
Fe13 Fe14 2.519116 1_545
Fe13 Fe2 2.528441 1_555
Fe13 Fe7 2.528484 1_545
Fe13 Fe45 2.621869 1_555
Fe13 Fe40 2.632251 1_545
Fe13 Y0 3.018754 1_556
Fe13 Y4 3.227228 1_546
Fe14 Fe38 2.372657 1_555
Fe14 Fe30 2.441329 1_565
Fe14 Fe52 2.444541 1_566
Fe14 Fe23 2.484680 1_555
Fe14 Fe29 2.507582 1_555
Fe14 Fe7 2.528441 1_555
Fe14 Fe2 2.528484 1_565
Fe14 Fe46 2.621869 1_555
Fe14 Fe41 2.632251 1_565
Fe14 Y3 3.018754 1_556
Fe14 Y7 3.227228 1_566
Fe15 Fe39 2.372588 1_555
Fe15 Fe31 2.441282 1_555
Fe15 Fe53 2.444152 1_555
Fe15 Fe21 2.484728 1_555
Fe15 Fe26 2.507626 1_545
Fe15 Fe6 2.528441 1_555
Fe15 Fe5 2.528484 1_545
Fe15 Fe47 2.621783 1_555
Fe15 Fe44 2.632143 1_555
Fe15 Y1 3.018319 1_555
Fe15 Y5 3.226815 1_555
Fe16 Fe54 2.565594 1_555
Fe16 Fe35 2.576064 1_555
Fe16 Fe43 2.681626 1_555
Fe16 Fe42 2.707986 1_455
Fe16 Y2 3.047829 1_455
Fe16 Y6 3.055477 1_555
Fe17 Fe54 2.565594 1_655
Fe17 Fe36 2.576064 1_555
Fe17 Fe44 2.681626 1_555
Fe17 Fe47 2.707986 1_655
Fe17 Y1 3.047829 1_655
Fe17 Y5 3.055477 1_555
Fe18 Fe2 2.441282 1_555
Fe18 Fe7 2.507626 1_545
Fe18 Fe53 2.565805 1_555
Fe18 Fe37 2.576036 1_555
Fe18 Fe45 2.681712 1_555
Fe18 Fe40 2.708247 1_545
Fe18 Y2 3.048149 1_545
Fe18 Y5 3.055556 1_555
Fe19 Fe3 2.441137 1_455
Fe19 Fe9 2.484776 1_555
Fe19 Fe4 2.507325 1_555
Fe19 Fe55 2.565938 1_556
Fe19 Fe33 2.576044 1_555
Fe19 Fe41 2.681560 1_555
Fe19 Fe46 2.707930 1_555
Fe19 Y3 3.047935 1_556
Fe19 Y7 3.055619 1_556
Fe20 Fe4 2.441137 1_655
Fe20 Fe8 2.484776 1_555
Fe20 Fe3 2.507325 1_555
Fe20 Fe55 2.565938 1_656
Fe20 Fe32 2.576044 1_555
Fe20 Fe40 2.681560 1_555
Fe20 Fe45 2.707930 1_555
Fe20 Y0 3.047935 1_556
Fe20 Y4 3.055619 1_556
Fe21 Fe5 2.441329 1_545
Fe21 Fe6 2.507582 1_555
Fe21 Fe52 2.566127 1_555
Fe21 Fe39 2.576040 1_555
Fe21 Fe47 2.681646 1_555
Fe21 Fe44 2.708190 1_555
Fe21 Y0 3.048214 1_555
Fe21 Y7 3.055687 1_555
Fe22 Fe6 2.441329 1_565
Fe22 Fe5 2.507582 1_555
Fe22 Fe52 2.566127 1_565
Fe22 Fe34 2.576040 1_555
Fe22 Fe42 2.681646 1_555
Fe22 Fe43 2.708190 1_555
Fe22 Y3 3.048214 1_555
Fe22 Y4 3.055687 1_555
Fe23 Fe7 2.441282 1_555
Fe23 Fe53 2.565805 1_565
Fe23 Fe38 2.576036 1_555
Fe23 Fe46 2.681712 1_555
Fe23 Fe41 2.708247 1_565
Fe23 Y1 3.048149 1_565
Fe23 Y6 3.055556 1_555
Fe24 Fe8 2.441033 1_555
Fe24 Fe3 2.484713 1_555
Fe24 Fe9 2.507344 1_655
Fe24 Fe54 2.565594 1_655
Fe24 Fe37 2.576064 1_555
Fe24 Fe45 2.681626 1_555
Fe24 Fe41 2.707986 1_655
Fe24 Y1 3.047829 1_655
Fe24 Y5 3.055477 1_555
Fe25 Fe9 2.441033 1_555
Fe25 Fe4 2.484713 1_555
Fe25 Fe8 2.507344 1_455
Fe25 Fe54 2.565594 1_555
Fe25 Fe38 2.576064 1_555
Fe25 Fe46 2.681626 1_555
Fe25 Fe40 2.707986 1_455
Fe25 Y2 3.047829 1_455
Fe25 Y6 3.055477 1_555
Fe26 Fe5 2.484680 1_555
Fe26 Fe53 2.565805 1_565
Fe26 Fe35 2.576036 1_555
Fe26 Fe43 2.681712 1_555
Fe26 Fe47 2.708247 1_565
Fe26 Y1 3.048149 1_565
Fe26 Y6 3.055556 1_555
Fe27 Fe55 2.565938 1_655
Fe27 Fe34 2.576044 1_555
Fe27 Fe42 2.681560 1_555
Fe27 Fe44 2.707930 1_555
Fe27 Y0 3.047935 1_555
Fe27 Y4 3.055619 1_555
Fe28 Fe55 2.565938 1_555
Fe28 Fe39 2.576044 1_555
Fe28 Fe47 2.681560 1_555
Fe28 Fe43 2.707930 1_555
Fe28 Y3 3.047935 1_555
Fe28 Y7 3.055619 1_555
Fe29 Fe7 2.484728 1_555
Fe29 Fe52 2.566127 1_566
Fe29 Fe32 2.576040 1_555
Fe29 Fe40 2.681646 1_555
Fe29 Fe46 2.708190 1_555
Fe29 Y3 3.048214 1_556
Fe29 Y4 3.055687 1_556
Fe30 Fe52 2.566127 1_556
Fe30 Fe33 2.576040 1_555
Fe30 Fe41 2.681646 1_555
Fe30 Fe45 2.708190 1_555
Fe30 Y0 3.048214 1_556
Fe30 Y7 3.055687 1_556
Fe31 Fe6 2.484680 1_555
Fe31 Fe53 2.565805 1_555
Fe31 Fe36 2.576036 1_555
Fe31 Fe44 2.681712 1_555
Fe31 Fe42 2.708247 1_545
Fe31 Y2 3.048149 1_545
Fe31 Y5 3.055556 1_555
Fe32 Fe8 2.372493 1_555
Fe32 Fe7 2.372588 1_555
Fe32 Fe33 2.411475 1_555
Fe32 Fe50 2.494613 1_555
Fe32 Fe45 2.641654 1_555
Fe32 Fe46 2.642080 1_555
Fe32 Fe40 2.756621 1_555
Fe32 Y2 3.178613 1_555
Fe32 Y5 3.214147 1_555
Fe32 Y6 3.214399 1_555
Fe33 Fe9 2.372493 1_555
Fe33 Fe50 2.494613 1_555
Fe33 Fe46 2.641654 1_555
Fe33 Fe45 2.642080 1_555
Fe33 Fe41 2.756621 1_555
Fe33 Y1 3.178613 1_555
Fe33 Y6 3.214147 1_555
Fe33 Y5 3.214399 1_555
Fe34 Fe39 2.411475 1_555
Fe34 Fe49 2.494613 1_555
Fe34 Fe44 2.641654 1_555
Fe34 Fe43 2.642080 1_555
Fe34 Fe42 2.756621 1_555
Fe34 Y2 3.178613 1_555
Fe34 Y5 3.214147 1_555
Fe34 Y6 3.214399 1_555
Fe35 Fe5 2.372657 1_555
Fe35 Fe36 2.411643 1_465
Fe35 Fe51 2.494651 1_565
Fe35 Fe42 2.641857 1_455
Fe35 Fe47 2.642259 1_565
Fe35 Fe43 2.756715 1_555
Fe35 Y3 3.179075 1_555
Fe35 Y4 3.214623 1_455
Fe35 Y7 3.214845 1_565
Fe36 Fe6 2.372657 1_555
Fe36 Fe51 2.494651 1_655
Fe36 Fe47 2.641857 1_655
Fe36 Fe42 2.642259 1_545
Fe36 Fe44 2.756715 1_555
Fe36 Y0 3.179075 1_555
Fe36 Y7 3.214623 1_655
Fe36 Y4 3.214845 1_545
Fe37 Fe38 2.411643 1_645
Fe37 Fe48 2.494651 1_655
Fe37 Fe41 2.641857 1_655
Fe37 Fe40 2.642259 1_545
Fe37 Fe45 2.756715 1_555
Fe37 Y0 3.179075 1_556
Fe37 Y7 3.214623 1_656
Fe37 Y4 3.214845 1_546
Fe38 Fe4 2.372552 1_555
Fe38 Fe48 2.494651 1_565
Fe38 Fe40 2.641857 1_455
Fe38 Fe41 2.642259 1_565
Fe38 Fe46 2.756715 1_555
Fe38 Y3 3.179075 1_556
Fe38 Y4 3.214623 1_456
Fe38 Y7 3.214845 1_566
Fe39 Fe49 2.494613 1_555
Fe39 Fe43 2.641654 1_555
Fe39 Fe44 2.642080 1_555
Fe39 Fe47 2.756621 1_555
Fe39 Y1 3.178613 1_555
Fe39 Y6 3.214147 1_555
Fe39 Y5 3.214399 1_555
Fe40 Fe8 2.621574 1_555
Fe40 Fe7 2.621783 1_555
Fe40 Fe48 2.739954 1_665
Fe40 Y2 3.009861 1_555
Fe40 Y4 3.078097 1_556
Fe41 Fe9 2.621574 1_555
Fe41 Fe48 2.739954 1_555
Fe41 Y1 3.009861 1_555
Fe41 Y7 3.078097 1_556
Fe42 Fe6 2.632251 1_565
Fe42 Fe51 2.739954 1_665
Fe42 Y2 3.009861 1_555
Fe42 Y4 3.078097 1_555
Fe43 Fe5 2.621869 1_555
Fe43 Fe49 2.739844 1_555
Fe43 Y3 3.010346 1_555
Fe43 Y6 3.077588 1_555
Fe44 Fe6 2.621869 1_555
Fe44 Fe49 2.739844 1_555
Fe44 Y0 3.010346 1_555
Fe44 Y5 3.077588 1_555
Fe45 Fe8 2.631896 1_555
Fe45 Fe50 2.739844 1_555
Fe45 Y0 3.010346 1_556
Fe45 Y5 3.077588 1_555
Fe46 Fe9 2.631896 1_555
Fe46 Fe7 2.632143 1_555
Fe46 Fe50 2.739844 1_555
Fe46 Y3 3.010346 1_556
Fe46 Y6 3.077588 1_555
Fe47 Fe5 2.632251 1_545
Fe47 Fe51 2.739954 1_555
Fe47 Y1 3.009861 1_555
Fe47 Y7 3.078097 1_555
Fe48 Y2 3.201728 1_445
Fe48 Y1 3.201728 1_555
Fe49 Y0 3.201709 1_555
Fe49 Y3 3.201709 1_555
Fe50 Y3 3.201709 1_556
Fe50 Y0 3.201709 1_556
Fe51 Y1 3.201728 1_555
Fe51 Y2 3.201728 1_445
Fe52 Fe6 2.444541 1_555
Fe52 Y0 3.092040 1_555
Fe52 Y3 3.092040 1_545
Fe52 Y7 3.354839 1_555
Fe52 Y4 3.354839 1_545
Fe53 Fe7 2.444152 1_545
Fe53 Y2 3.092072 1_545
Fe53 Y1 3.092072 1_555
Fe53 Y6 3.354903 1_545
Fe53 Y5 3.354903 1_555
Fe54 Fe9 2.444062 1_555
Fe54 Fe8 2.444062 1_455
Fe54 Y1 3.091714 1_555
Fe54 Y2 3.091714 1_455
Fe54 Y6 3.354717 1_555
Fe54 Y5 3.354717 1_455
Fe55 Y0 3.091775 1_455
Fe55 Y3 3.091775 1_555
Fe55 Y4 3.354667 1_455
Fe55 Y7 3.354667 1_555
B0 Fe49 2.072334 1_555
B0 Fe50 2.072334 1_554
B0 Fe22 2.080982 1_555
B0 Fe29 2.080982 1_554
B0 Fe20 2.080987 1_554
B0 Fe27 2.080987 1_555
B0 Y4 2.875969 1_555
B0 Y0 3.258674 1_555
B0 Y3 3.258933 1_555
B1 Fe51 2.072110 1_655
B1 Fe48 2.072110 1_655
B1 Fe18 2.080657 1_555
B1 Fe31 2.080657 1_555
B1 Fe17 2.080678 1_555
B1 Fe24 2.080678 1_555
B1 Y5 2.876001 1_555
B1 Y1 3.258924 1_655
B1 Y2 3.259230 1_545
B2 Fe51 2.072110 1_565
B2 Fe48 2.072110 1_565
B2 Fe23 2.080657 1_555
B2 Fe26 2.080657 1_555
B2 Fe16 2.080678 1_555
B2 Fe25 2.080678 1_555
B2 Y6 2.876001 1_555
B2 Y2 3.258924 1_455
B2 Y1 3.259230 1_565
B3 Fe49 2.072334 1_555
B3 Fe50 2.072334 1_554
B3 Fe30 2.080982 1_554
B3 Fe21 2.080982 1_555
B3 Fe19 2.080987 1_554
B3 Fe28 2.080987 1_555
B3 Y7 2.875969 1_555
B3 Y3 3.258674 1_555
B3 Y0 3.258933 1_555
