# generated using pymatgen
data_Ga2S3
_symmetry_space_group_name_H-M   'P 1'
_cell_length_a   6.45523076
_cell_length_b   6.47659095
_cell_length_c   7.05343939
_cell_angle_alpha   116.53502820
_cell_angle_beta   90.00000000
_cell_angle_gamma   119.89095037
_symmetry_Int_Tables_number   1
_chemical_formula_structural   Ga2S3
_chemical_formula_sum   'Ga4 S6'
_cell_volume   219.10610836
_cell_formula_units_Z   2
loop_
 _symmetry_equiv_pos_site_id
 _symmetry_equiv_pos_as_xyz
  1  'x, y, z'
loop_
 _atom_site_type_symbol
 _atom_site_label
 _atom_site_symmetry_multiplicity
 _atom_site_fract_x
 _atom_site_fract_y
 _atom_site_fract_z
 _atom_site_occupancy
  Ga  Ga0  1  0.13653814  0.40574596  0.61964728  1
  Ga  Ga1  1  0.26920781  0.40574596  0.11964728  1
  Ga  Ga2  1  0.44718999  0.08814768  0.62905923  1
  Ga  Ga3  1  0.64095870  0.08814768  0.12905923  1
  S  S0  1  0.42851516  0.67989794  0.50284171  1
  S  S1  1  0.25138278  0.67989794  0.00284171  1
  S  S2  1  0.76053466  0.34699161  0.51185829  1
  S  S3  1  0.58645796  0.34699161  0.01185829  1
  S  S4  1  0.91099758  0.00121681  0.98559649  1
  S  S5  1  0.09021723  0.00121681  0.48559649  1
loop_
_geom_bond_atom_site_label_1
_geom_bond_atom_site_label_2
_geom_bond_distance
_geom_bond_site_symmetry_2
Ga0 S5 2.203056 1_555
Ga0 S0 2.314163 1_555
Ga0 S1 2.325442 1_556
Ga0 S2 2.331313 1_455
Ga1 S4 2.203062 1_454
Ga1 S1 2.314163 1_555
Ga1 S0 2.325442 1_555
Ga1 S3 2.331319 1_555
Ga2 S5 2.201997 1_555
Ga2 S3 2.315689 1_556
Ga2 S0 2.318900 1_545
Ga2 S2 2.333164 1_555
Ga3 S4 2.201979 1_554
Ga3 S2 2.315689 1_555
Ga3 S1 2.318903 1_545
Ga3 S3 2.333163 1_555
