# generated using pymatgen
data_Na3FeO3
_symmetry_space_group_name_H-M   'P 1'
_cell_length_a   8.44409086
_cell_length_b   8.44409086
_cell_length_c   6.09830739
_cell_angle_alpha   69.47518548
_cell_angle_beta   69.47518548
_cell_angle_gamma   77.68671220
_symmetry_Int_Tables_number   1
_chemical_formula_structural   Na3FeO3
_chemical_formula_sum   'Na12 Fe4 O12'
_cell_volume   379.34481408
_cell_formula_units_Z   4
loop_
 _symmetry_equiv_pos_site_id
 _symmetry_equiv_pos_as_xyz
  1  'x, y, z'
loop_
 _atom_site_type_symbol
 _atom_site_label
 _atom_site_symmetry_multiplicity
 _atom_site_fract_x
 _atom_site_fract_y
 _atom_site_fract_z
 _atom_site_occupancy
  Na  Na0  1  0.74767623  0.79409262  0.61930846  1
  Na  Na1  1  0.64853930  0.17296626  0.48252659  1
  Na  Na2  1  0.79409262  0.74767623  0.11930846  1
  Na  Na3  1  0.27774364  0.22990287  0.03002625  1
  Na  Na4  1  0.98032596  0.03803692  0.77700054  1
  Na  Na5  1  0.94044203  0.36329503  0.00036492  1
  Na  Na6  1  0.22990287  0.27774364  0.53002625  1
  Na  Na7  1  0.03803692  0.98032596  0.27700054  1
  Na  Na8  1  0.36329503  0.94044203  0.50036492  1
  Na  Na9  1  0.56359840  0.47591037  0.05226536  1
  Na  Na10  1  0.47591037  0.56359840  0.55226536  1
  Na  Na11  1  0.17296626  0.64853930  0.98252659  1
  Fe  Fe0  1  0.64616624  0.12210888  0.04369266  1
  Fe  Fe1  1  0.40068698  0.87713168  0.96861062  1
  Fe  Fe2  1  0.87713168  0.40068698  0.46861062  1
  Fe  Fe3  1  0.12210888  0.64616624  0.54369266  1
  O  O0  1  0.31133327  0.77227219  0.31310907  1
  O  O1  1  0.60147249  0.98857652  0.87896775  1
  O  O2  1  0.71756508  0.46591550  0.29745795  1
  O  O3  1  0.98857652  0.60147249  0.37896775  1
  O  O4  1  0.77227219  0.31133327  0.81310907  1
  O  O5  1  0.46591550  0.71756508  0.79745795  1
  O  O6  1  0.21223977  0.45700865  0.74561983  1
  O  O7  1  0.03185862  0.22742251  0.36742692  1
  O  O8  1  0.22742251  0.03185862  0.86742692  1
  O  O9  1  0.78329651  0.98753048  0.23106207  1
  O  O10  1  0.45700865  0.21223977  0.24561983  1
  O  O11  1  0.98753048  0.78329651  0.73106207  1
loop_
_geom_bond_atom_site_label_1
_geom_bond_atom_site_label_2
_geom_bond_distance
_geom_bond_site_symmetry_2
Na0 O9 2.315715 1_555
Na0 O11 2.328173 1_555
Na0 O5 2.368428 1_555
Na0 O1 2.513255 1_555
Na0 O3 2.664852 1_555
Na1 O1 2.318982 1_545
Na1 O9 2.408015 1_545
Na1 O10 2.426237 1_555
Na1 O2 2.434871 1_555
Na2 O11 2.315715 1_554
Na2 O9 2.328173 1_555
Na2 O2 2.368428 1_555
Na2 O3 2.513255 1_555
Na2 O1 2.664852 1_554
Na3 O6 2.208990 1_554
Na3 O10 2.281223 1_555
Na3 O7 2.353209 1_555
Na3 O8 2.392009 1_554
Na4 O11 2.250335 1_545
Na4 O8 2.323909 1_655
Na4 O7 2.391453 1_655
Na4 O4 2.610831 1_555
Na4 O9 2.619420 1_546
Na5 O4 2.295056 1_554
Na5 O2 2.364237 1_555
Na5 O6 2.391529 1_654
Na5 O7 2.440477 1_655
Na6 O10 2.208990 1_555
Na6 O6 2.281223 1_555
Na6 O8 2.353209 1_555
Na6 O7 2.392009 1_555
Na7 O9 2.250335 1_455
Na7 O7 2.323909 1_565
Na7 O8 2.391453 1_564
Na7 O0 2.610831 1_555
Na7 O11 2.619420 1_455
Na8 O0 2.295056 1_555
Na8 O5 2.364237 1_555
Na8 O10 2.391529 1_565
Na8 O8 2.440477 1_565
Na9 O2 2.271805 1_555
Na9 O5 2.283913 1_554
Na9 O10 2.329625 1_555
Na9 O4 2.395407 1_554
Na10 O5 2.271805 1_555
Na10 O2 2.283913 1_555
Na10 O6 2.329625 1_555
Na10 O0 2.395407 1_555
Na11 O3 2.318982 1_456
Na11 O11 2.408015 1_455
Na11 O6 2.426237 1_555
Na11 O5 2.434871 1_555
Fe0 O9 1.842243 1_545
Fe0 O10 1.845624 1_555
Fe0 O1 1.914297 1_544
Fe0 O4 1.940219 1_554
Fe1 O5 1.864066 1_555
Fe1 O8 1.865677 1_565
Fe1 O0 1.906804 1_556
Fe1 O1 1.931012 1_555
Fe2 O2 1.864066 1_555
Fe2 O7 1.865677 1_655
Fe2 O4 1.906804 1_555
Fe2 O3 1.931012 1_555
Fe3 O11 1.842243 1_455
Fe3 O6 1.845624 1_555
Fe3 O3 1.914297 1_455
Fe3 O0 1.940219 1_555
