# generated using pymatgen
data_Sr10P6BrO24F
_symmetry_space_group_name_H-M   'P 1'
_cell_length_a   7.31866800
_cell_length_b   9.97497500
_cell_length_c   17.27021100
_cell_angle_alpha   89.99889192
_cell_angle_beta   90.00000000
_cell_angle_gamma   90.00000000
_symmetry_Int_Tables_number   1
_chemical_formula_structural   Sr10P6BrO24F
_chemical_formula_sum   'Sr20 P12 Br2 O48 F2'
_cell_volume   1260.78637260
_cell_formula_units_Z   2
loop_
 _symmetry_equiv_pos_site_id
 _symmetry_equiv_pos_as_xyz
  1  'x, y, z'
loop_
 _atom_site_type_symbol
 _atom_site_label
 _atom_site_symmetry_multiplicity
 _atom_site_fract_x
 _atom_site_fract_y
 _atom_site_fract_z
 _atom_site_occupancy
  Sr  Sr0  1  0.75000000  0.74151900  0.00412800  1
  Sr  Sr1  1  0.75000000  0.61533300  0.37619500  1
  Sr  Sr2  1  0.99982500  0.49860000  0.16770400  1
  Sr  Sr3  1  0.50017500  0.49860000  0.16770400  1
  Sr  Sr4  1  0.25000000  0.36992800  0.38074100  1
  Sr  Sr5  1  0.75000000  0.25195000  0.50446400  1
  Sr  Sr6  1  0.75000000  0.13541800  0.13026100  1
  Sr  Sr7  1  0.75000000  0.12550500  0.86620900  1
  Sr  Sr8  1  0.49980400  0.99844600  0.33454500  1
  Sr  Sr9  1  0.99980400  0.00155400  0.66545500  1
  Sr  Sr10  1  0.50019600  0.00155400  0.66545500  1
  Sr  Sr11  1  0.00019600  0.99844600  0.33454500  1
  Sr  Sr12  1  0.25000000  0.87449500  0.13379100  1
  Sr  Sr13  1  0.25000000  0.86458200  0.86973900  1
  Sr  Sr14  1  0.25000000  0.74805000  0.49553600  1
  Sr  Sr15  1  0.75000000  0.63007200  0.61925900  1
  Sr  Sr16  1  0.49982500  0.50140000  0.83229600  1
  Sr  Sr17  1  0.00017500  0.50140000  0.83229600  1
  Sr  Sr18  1  0.25000000  0.38466700  0.62380500  1
  Sr  Sr19  1  0.25000000  0.25848100  0.99587200  1
  P  P0  1  0.25000000  0.61086700  0.01820800  1
  P  P1  1  0.25000000  0.66726700  0.30215900  1
  P  P2  1  0.75000000  0.28544500  0.31755500  1
  P  P3  1  0.25000000  0.22131200  0.18790400  1
  P  P4  1  0.25000000  0.11585600  0.51484700  1
  P  P5  1  0.25000000  0.17008500  0.79463600  1
  P  P6  1  0.75000000  0.82991500  0.20536400  1
  P  P7  1  0.75000000  0.88414400  0.48515300  1
  P  P8  1  0.75000000  0.77868800  0.81209600  1
  P  P9  1  0.25000000  0.71455500  0.68244500  1
  P  P10  1  0.75000000  0.33273300  0.69784100  1
  P  P11  1  0.75000000  0.38913300  0.98179200  1
  Br  Br0  1  0.00000000  0.00000000  0.00000000  1
  Br  Br1  1  0.50000000  0.00000000  0.00000000  1
  O  O0  1  0.42258200  0.68794800  0.04588700  1
  O  O1  1  0.07741800  0.68794800  0.04588700  1
  O  O2  1  0.75000000  0.68754700  0.16828900  1
  O  O3  1  0.25000000  0.66689400  0.21156400  1
  O  O4  1  0.42192400  0.58995000  0.33035500  1
  O  O5  1  0.07807600  0.58995000  0.33035500  1
  O  O6  1  0.25000000  0.47317600  0.06146400  1
  O  O7  1  0.75000000  0.40913600  0.07126800  1
  O  O8  1  0.75000000  0.40473400  0.25928800  1
  O  O9  1  0.25000000  0.35313100  0.23664500  1
  O  O10  1  0.92154700  0.28909900  0.37054600  1
  O  O11  1  0.57845300  0.28909900  0.37054600  1
  O  O12  1  0.42287100  0.22502100  0.13539600  1
  O  O13  1  0.07712900  0.22502100  0.13539600  1
  O  O14  1  0.07825400  0.19689900  0.54021900  1
  O  O15  1  0.42174600  0.19689900  0.54021900  1
  O  O16  1  0.75000000  0.18585000  0.66697900  1
  O  O17  1  0.75000000  0.14903000  0.27283700  1
  O  O18  1  0.25000000  0.17712600  0.70439800  1
  O  O19  1  0.25000000  0.09447200  0.24055000  1
  O  O20  1  0.07761800  0.08893700  0.81909000  1
  O  O21  1  0.42238200  0.08893700  0.81909000  1
  O  O22  1  0.25000000  0.09300900  0.42562600  1
  O  O23  1  0.25000000  0.97896300  0.55879500  1
  O  O24  1  0.75000000  0.02103700  0.44120500  1
  O  O25  1  0.75000000  0.90699100  0.57437400  1
  O  O26  1  0.92238200  0.91106300  0.18091000  1
  O  O27  1  0.57761800  0.91106300  0.18091000  1
  O  O28  1  0.75000000  0.90552800  0.75945000  1
  O  O29  1  0.75000000  0.82287400  0.29560200  1
  O  O30  1  0.25000000  0.85097000  0.72716300  1
  O  O31  1  0.25000000  0.81415000  0.33302100  1
  O  O32  1  0.92174600  0.80310100  0.45978100  1
  O  O33  1  0.57825400  0.80310100  0.45978100  1
  O  O34  1  0.92287100  0.77497900  0.86460400  1
  O  O35  1  0.57712900  0.77497900  0.86460400  1
  O  O36  1  0.07845300  0.71090100  0.62945400  1
  O  O37  1  0.42154700  0.71090100  0.62945400  1
  O  O38  1  0.75000000  0.64686900  0.76335500  1
  O  O39  1  0.25000000  0.59526600  0.74071200  1
  O  O40  1  0.25000000  0.59086400  0.92873200  1
  O  O41  1  0.75000000  0.52682400  0.93853600  1
  O  O42  1  0.92192400  0.41005000  0.66964500  1
  O  O43  1  0.57807600  0.41005000  0.66964500  1
  O  O44  1  0.75000000  0.33310600  0.78843600  1
  O  O45  1  0.25000000  0.31245300  0.83171100  1
  O  O46  1  0.57741800  0.31205200  0.95411300  1
  O  O47  1  0.92258200  0.31205200  0.95411300  1
  F  F0  1  0.75000000  0.49755900  0.50017800  1
  F  F1  1  0.25000000  0.50244100  0.49982200  1
loop_
_geom_bond_atom_site_label_1
_geom_bond_atom_site_label_2
_geom_bond_distance
_geom_bond_site_symmetry_2
Br0 Sr19 3.162373 1_554
Br0 Sr0 3.162373 1_445
Br0 Sr6 3.198952 1_455
Br0 Sr13 3.198952 1_544
Br0 Sr7 3.202142 1_454
Br0 Sr12 3.202142 1_545
Br1 Sr19 3.162373 1_554
Br1 Sr0 3.162373 1_545
Br1 Sr6 3.198952 1_555
Br1 Sr13 3.198952 1_544
Br1 Sr7 3.202142 1_554
Br1 Sr12 3.202142 1_545
O0 P0 1.554041 1_555
O0 Sr0 2.558852 1_555
O0 Sr12 2.713435 1_555
O0 Sr3 2.883691 1_555
O1 P0 1.554041 1_555
O1 Sr0 2.558852 1_455
O1 Sr12 2.713435 1_555
O1 Sr2 2.883691 1_455
O2 P6 1.557801 1_555
O2 Sr2 2.625900 1_555
O2 Sr3 2.625900 1_555
O2 Sr0 2.885749 1_555
O3 P1 1.564599 1_555
O3 Sr12 2.468245 1_555
O3 Sr3 2.596981 1_555
O3 Sr2 2.596981 1_455
O4 P1 1.554064 1_555
O4 Sr1 2.540873 1_555
O4 Sr4 2.675277 1_555
O4 Sr3 3.008150 1_555
O5 P1 1.554064 1_555
O5 Sr1 2.540873 1_455
O5 Sr4 2.675277 1_555
O5 Sr2 3.008150 1_455
O6 P0 1.563468 1_555
O6 Sr19 2.422737 1_554
O6 Sr3 2.604447 1_555
O6 Sr2 2.604447 1_455
O7 P11 1.558102 1_554
O7 Sr2 2.629301 1_555
O7 Sr3 2.629301 1_555
O7 Sr6 2.914205 1_555
O8 P2 1.558343 1_555
O8 Sr2 2.592550 1_555
O8 Sr3 2.592550 1_555
O8 Sr1 2.913689 1_555
O9 P3 1.561267 1_555
O9 Sr4 2.494206 1_555
O9 Sr3 2.622106 1_555
O9 Sr2 2.622106 1_455
O10 P2 1.554068 1_555
O10 Sr4 2.541557 1_655
O10 Sr5 2.657547 1_555
O10 Sr11 3.020537 1_645
O11 P2 1.554068 1_555
O11 Sr4 2.541557 1_555
O11 Sr5 2.657547 1_555
O11 Sr8 3.020537 1_545
O12 P3 1.557046 1_555
O12 Sr6 2.557083 1_555
O12 Sr19 2.741947 1_554
O12 Sr3 2.842289 1_555
O13 P3 1.557046 1_555
O13 Sr6 2.557083 1_455
O13 Sr19 2.741947 1_554
O13 Sr2 2.842289 1_455
O14 P4 1.557388 1_555
O14 Sr5 2.540526 1_455
O14 Sr18 2.678044 1_555
O14 Sr9 2.967205 1_455
O15 P4 1.557388 1_555
O15 Sr5 2.540526 1_555
O15 Sr18 2.678044 1_555
O15 Sr10 2.967205 1_555
O16 P10 1.559099 1_555
O16 Sr9 2.592808 1_555
O16 Sr10 2.592808 1_555
O16 Sr5 2.883063 1_555
O17 P2 1.564632 1_555
O17 Sr6 2.466061 1_555
O17 Sr11 2.597081 1_645
O17 Sr8 2.597081 1_545
O18 P5 1.560010 1_555
O18 Sr18 2.494585 1_555
O18 Sr10 2.621536 1_555
O18 Sr9 2.621536 1_455
O19 P3 1.558015 1_555
O19 Sr8 2.625835 1_545
O19 Sr11 2.625835 1_545
O19 Sr12 2.866072 1_545
O20 P5 1.557307 1_555
O20 Sr7 2.558194 1_455
O20 Sr13 2.713865 1_545
O20 Sr9 2.850302 1_455
O21 P5 1.557307 1_555
O21 Sr7 2.558194 1_555
O21 Sr13 2.713865 1_545
O21 Sr10 2.850302 1_555
O22 P4 1.557632 1_555
O22 Sr8 2.589697 1_545
O22 Sr11 2.589697 1_545
O22 Sr4 2.868953 1_555
O23 P4 1.562251 1_565
O23 Sr14 2.549328 1_555
O23 Sr10 2.607076 1_565
O23 Sr9 2.607076 1_465
O24 P7 1.562251 1_545
O24 Sr5 2.549328 1_555
O24 Sr11 2.607076 1_645
O24 Sr8 2.607076 1_545
O25 P7 1.557632 1_555
O25 Sr9 2.589697 1_565
O25 Sr10 2.589697 1_565
O25 Sr15 2.868953 1_555
O26 P6 1.557307 1_555
O26 Sr12 2.558194 1_655
O26 Sr6 2.713865 1_565
O26 Sr11 2.850302 1_655
O27 P6 1.557307 1_555
O27 Sr12 2.558194 1_555
O27 Sr6 2.713865 1_565
O27 Sr8 2.850302 1_555
O28 P8 1.558015 1_555
O28 Sr9 2.625835 1_565
O28 Sr10 2.625835 1_565
O28 Sr7 2.866072 1_565
O29 P6 1.560010 1_555
O29 Sr1 2.494585 1_555
O29 Sr11 2.621536 1_655
O29 Sr8 2.621536 1_555
O30 P9 1.564632 1_555
O30 Sr13 2.466061 1_555
O30 Sr10 2.597081 1_565
O30 Sr9 2.597081 1_465
O31 P1 1.559099 1_555
O31 Sr8 2.592808 1_555
O31 Sr11 2.592808 1_555
O31 Sr14 2.883063 1_555
O32 P7 1.557388 1_555
O32 Sr14 2.540526 1_655
O32 Sr1 2.678044 1_555
O32 Sr11 2.967205 1_655
O33 P7 1.557388 1_555
O33 Sr14 2.540526 1_555
O33 Sr1 2.678044 1_555
O33 Sr8 2.967205 1_555
O34 P8 1.557046 1_555
O34 Sr13 2.557083 1_655
O34 Sr0 2.741947 1_556
O34 Sr17 2.842289 1_655
O35 P8 1.557046 1_555
O35 Sr13 2.557083 1_555
O35 Sr0 2.741947 1_556
O35 Sr16 2.842289 1_555
O36 P9 1.554068 1_555
O36 Sr15 2.541557 1_455
O36 Sr14 2.657547 1_555
O36 Sr9 3.020537 1_465
O37 P9 1.554068 1_555
O37 Sr15 2.541557 1_555
O37 Sr14 2.657547 1_555
O37 Sr10 3.020537 1_565
O38 P8 1.561267 1_555
O38 Sr15 2.494206 1_555
O38 Sr17 2.622106 1_655
O38 Sr16 2.622106 1_555
O39 P9 1.558343 1_555
O39 Sr16 2.592550 1_555
O39 Sr17 2.592550 1_555
O39 Sr18 2.913689 1_555
O40 P0 1.558102 1_556
O40 Sr16 2.629301 1_555
O40 Sr17 2.629301 1_555
O40 Sr13 2.914205 1_555
O41 P11 1.563468 1_555
O41 Sr0 2.422737 1_556
O41 Sr17 2.604447 1_655
O41 Sr16 2.604447 1_555
O42 P10 1.554064 1_555
O42 Sr18 2.540873 1_655
O42 Sr15 2.675277 1_555
O42 Sr17 3.008150 1_655
O43 P10 1.554064 1_555
O43 Sr18 2.540873 1_555
O43 Sr15 2.675277 1_555
O43 Sr16 3.008150 1_555
O44 P10 1.564599 1_555
O44 Sr7 2.468245 1_555
O44 Sr17 2.596981 1_655
O44 Sr16 2.596981 1_555
O45 P5 1.557801 1_555
O45 Sr16 2.625900 1_555
O45 Sr17 2.625900 1_555
O45 Sr19 2.885749 1_555
O46 P11 1.554041 1_555
O46 Sr19 2.558852 1_555
O46 Sr7 2.713435 1_555
O46 Sr16 2.883691 1_555
O47 P11 1.554041 1_555
O47 Sr19 2.558852 1_655
O47 Sr7 2.713435 1_555
O47 Sr17 2.883691 1_655
F0 Sr1 2.442301 1_555
F0 Sr15 2.444731 1_555
F0 Sr5 2.451060 1_555
F1 Sr18 2.442301 1_555
F1 Sr4 2.444731 1_555
F1 Sr14 2.451060 1_555
