# generated using pymatgen
data_HoGa3
_symmetry_space_group_name_H-M   'P 1'
_cell_length_a   6.09755572
_cell_length_b   6.09755567
_cell_length_c   13.97045515
_cell_angle_alpha   90.00000000
_cell_angle_beta   90.00000000
_cell_angle_gamma   119.99999465
_symmetry_Int_Tables_number   1
_chemical_formula_structural   HoGa3
_chemical_formula_sum   'Ho6 Ga18'
_cell_volume   449.83450167
_cell_formula_units_Z   6
loop_
 _symmetry_equiv_pos_site_id
 _symmetry_equiv_pos_as_xyz
  1  'x, y, z'
loop_
 _atom_site_type_symbol
 _atom_site_label
 _atom_site_symmetry_multiplicity
 _atom_site_fract_x
 _atom_site_fract_y
 _atom_site_fract_z
 _atom_site_occupancy
  Ho  Ho0  1  0.66666700  0.33333300  0.90646272  1
  Ho  Ho1  1  0.33333300  0.66666700  0.40646272  1
  Ho  Ho2  1  0.33333300  0.66666700  0.09353728  1
  Ho  Ho3  1  0.66666700  0.33333300  0.59353728  1
  Ho  Ho4  1  -0.00000000  -0.00000000  0.75000000  1
  Ho  Ho5  1  -0.00000000  -0.00000000  0.25000000  1
  Ga  Ga0  1  0.52354598  0.04708996  0.25000000  1
  Ga  Ga1  1  0.83149244  0.16850756  0.41872584  1
  Ga  Ga2  1  0.33701512  0.16850756  0.08127416  1
  Ga  Ga3  1  0.83149244  0.66298488  0.41872584  1
  Ga  Ga4  1  0.16850756  0.33701512  0.58127416  1
  Ga  Ga5  1  0.47645402  0.95291004  0.75000000  1
  Ga  Ga6  1  0.16850756  0.83149244  0.91872584  1
  Ga  Ga7  1  0.33701512  0.16850756  0.41872584  1
  Ga  Ga8  1  0.83149244  0.66298488  0.08127416  1
  Ga  Ga9  1  0.04708996  0.52354598  0.75000000  1
  Ga  Ga10  1  0.66298488  0.83149244  0.58127416  1
  Ga  Ga11  1  0.66298488  0.83149244  0.91872584  1
  Ga  Ga12  1  0.95291004  0.47645402  0.25000000  1
  Ga  Ga13  1  0.52354598  0.47645402  0.25000000  1
  Ga  Ga14  1  0.16850756  0.83149244  0.58127416  1
  Ga  Ga15  1  0.83149244  0.16850756  0.08127416  1
  Ga  Ga16  1  0.16850756  0.33701512  0.91872584  1
  Ga  Ga17  1  0.47645402  0.52354598  0.75000000  1
loop_
_geom_bond_atom_site_label_1
_geom_bond_atom_site_label_2
_geom_bond_distance
_geom_bond_site_symmetry_2
Ga0 Ga13 2.618071 1_555
Ga0 Ga12 2.618071 1_555
Ga0 Ga15 2.870551 1_555
Ga0 Ga1 2.870551 1_555
Ga0 Ga2 2.870558 1_555
Ga0 Ga7 2.870558 1_555
Ga0 Ho1 2.968762 1_545
Ga0 Ho2 2.968762 1_545
Ga0 Ho5 3.058896 1_655
Ga0 Ho5 3.058908 1_555
Ga1 Ga12 2.870551 1_555
Ga1 Ga10 2.885141 1_545
Ga1 Ga4 2.885141 1_655
Ga1 Ho5 2.953549 1_655
Ga1 Ho3 2.999098 1_555
Ga1 Ga3 3.015103 1_555
Ga1 Ga7 3.015103 1_555
Ga1 Ho1 3.053650 1_545
Ga1 Ho1 3.053650 1_655
Ga1 Ga3 3.082453 1_545
Ga1 Ga7 3.082453 1_655
Ga2 Ga6 2.885141 1_544
Ga2 Ho5 2.953549 1_555
Ga2 Ho0 2.999101 1_554
Ga2 Ga8 3.015103 1_555
Ga2 Ho2 3.053646 1_545
Ga2 Ho2 3.053653 1_555
Ga2 Ga8 3.082453 1_445
Ga3 Ho5 2.953549 1_665
Ga3 Ho3 2.999101 1_555
Ga3 Ga7 3.015103 1_555
Ga3 Ho1 3.053646 1_655
Ga3 Ho1 3.053653 1_555
Ga3 Ga7 3.082453 1_665
Ga4 Ga9 2.870558 1_555
Ga4 Ga7 2.885141 1_555
Ga4 Ho4 2.953549 1_555
Ga4 Ho1 2.999101 1_555
Ga4 Ho3 3.053646 1_455
Ga4 Ho3 3.053653 1_555
Ga5 Ga9 2.618071 1_555
Ga5 Ga6 2.870551 1_555
Ga5 Ho0 2.968762 1_565
Ga5 Ho3 2.968762 1_565
Ga5 Ho4 3.058896 1_565
Ga5 Ho4 3.058908 1_665
Ga6 Ga9 2.870551 1_555
Ga6 Ga8 2.885141 1_456
Ga6 Ho4 2.953549 1_565
Ga6 Ho2 2.999098 1_556
Ga6 Ho0 3.053650 1_565
Ga6 Ho0 3.053650 1_455
Ga7 Ho5 2.953549 1_555
Ga7 Ho3 2.999101 1_555
Ga7 Ho1 3.053646 1_545
Ga7 Ho1 3.053653 1_555
Ga8 Ho5 2.953549 1_665
Ga8 Ho0 2.999101 1_554
Ga8 Ho2 3.053646 1_655
Ga8 Ho2 3.053653 1_555
Ga9 Ho3 2.968762 1_455
Ga9 Ho0 2.968762 1_455
Ga9 Ho4 3.058896 1_565
Ga9 Ho4 3.058908 1_555
Ga10 Ga17 2.870552 1_555
Ga10 Ga5 2.870558 1_555
Ga10 Ga3 2.885141 1_555
Ga10 Ho4 2.953549 1_665
Ga10 Ho1 2.999101 1_555
Ga10 Ga14 3.015103 1_555
Ga10 Ga4 3.015103 1_555
Ga10 Ho3 3.053646 1_565
Ga10 Ho3 3.053653 1_555
Ga10 Ga14 3.082453 1_655
Ga10 Ga4 3.082453 1_665
Ga11 Ga17 2.870552 1_555
Ga11 Ga5 2.870558 1_555
Ga11 Ga8 2.885141 1_556
Ga11 Ga15 2.885141 1_566
Ga11 Ho4 2.953549 1_665
Ga11 Ho2 2.999101 1_556
Ga11 Ga6 3.015103 1_555
Ga11 Ga16 3.015103 1_555
Ga11 Ho0 3.053646 1_565
Ga11 Ho0 3.053653 1_555
Ga11 Ga6 3.082453 1_655
Ga11 Ga16 3.082453 1_665
Ga12 Ga13 2.618071 1_555
Ga12 Ga15 2.870551 1_555
Ga12 Ga8 2.870558 1_555
Ga12 Ga3 2.870558 1_555
Ga12 Ho1 2.968762 1_655
Ga12 Ho2 2.968762 1_655
Ga12 Ho5 3.058896 1_655
Ga12 Ho5 3.058908 1_665
Ga13 Ga7 2.870552 1_555
Ga13 Ga2 2.870552 1_555
Ga13 Ga3 2.870552 1_555
Ga13 Ga8 2.870552 1_555
Ga13 Ho2 2.968772 1_555
Ga13 Ho1 2.968772 1_555
Ga13 Ho5 3.058903 1_665
Ga13 Ho5 3.058903 1_555
Ga14 Ga9 2.870551 1_555
Ga14 Ga5 2.870551 1_555
Ga14 Ga7 2.885141 1_565
Ga14 Ga3 2.885141 1_455
Ga14 Ho4 2.953549 1_565
Ga14 Ho1 2.999098 1_555
Ga14 Ga4 3.015103 1_555
Ga14 Ho3 3.053650 1_565
Ga14 Ho3 3.053650 1_455
Ga14 Ga4 3.082453 1_565
Ga15 Ga16 2.885141 1_654
Ga15 Ho5 2.953549 1_655
Ga15 Ho0 2.999098 1_554
Ga15 Ga8 3.015103 1_555
Ga15 Ga2 3.015103 1_555
Ga15 Ho2 3.053650 1_545
Ga15 Ho2 3.053650 1_655
Ga15 Ga8 3.082453 1_545
Ga15 Ga2 3.082453 1_655
Ga16 Ga17 2.870552 1_555
Ga16 Ga9 2.870558 1_555
Ga16 Ga2 2.885141 1_556
Ga16 Ho4 2.953549 1_555
Ga16 Ho2 2.999101 1_556
Ga16 Ga6 3.015103 1_555
Ga16 Ho0 3.053646 1_455
Ga16 Ho0 3.053653 1_555
Ga16 Ga6 3.082453 1_545
Ga17 Ga5 2.618071 1_555
Ga17 Ga9 2.618071 1_555
Ga17 Ga4 2.870552 1_555
Ga17 Ho3 2.968772 1_555
Ga17 Ho0 2.968772 1_555
Ga17 Ho4 3.058903 1_555
Ga17 Ho4 3.058903 1_665
