# generated using pymatgen
data_Er(FeGe)2
_symmetry_space_group_name_H-M   'P 1'
_cell_length_a   3.88526652
_cell_length_b   3.88526484
_cell_length_c   6.07542117
_cell_angle_alpha   108.64799700
_cell_angle_beta   108.64797836
_cell_angle_gamma   89.99997860
_symmetry_Int_Tables_number   1
_chemical_formula_structural   Er(FeGe)2
_chemical_formula_sum   'Er1 Fe2 Ge2'
_cell_volume   81.79793249
_cell_formula_units_Z   1
loop_
 _symmetry_equiv_pos_site_id
 _symmetry_equiv_pos_as_xyz
  1  'x, y, z'
loop_
 _atom_site_type_symbol
 _atom_site_label
 _atom_site_symmetry_multiplicity
 _atom_site_fract_x
 _atom_site_fract_y
 _atom_site_fract_z
 _atom_site_occupancy
  Er  Er0  1  0.00000000  0.00000000  0.00000000  1
  Fe  Fe0  1  0.25000000  0.75000000  0.50000000  1
  Fe  Fe1  1  0.75000000  0.25000000  0.50000000  1
  Ge  Ge0  1  0.61334893  0.61334893  0.22669786  1
  Ge  Ge1  1  0.38665107  0.38665107  0.77330214  1
loop_
_geom_bond_atom_site_label_1
_geom_bond_atom_site_label_2
_geom_bond_distance
_geom_bond_site_symmetry_2
Er0 Ge0 3.009429 1_455
Er0 Ge1 3.009429 1_544
Er0 Ge0 3.009430 1_545
Er0 Ge1 3.009430 1_454
Er0 Ge0 3.009431 1_555
Er0 Ge1 3.009431 1_444
Er0 Ge0 3.009431 1_445
Er0 Ge1 3.009431 1_554
Fe0 Ge1 2.442758 1_565
Fe0 Ge1 2.442759 1_555
Fe0 Ge0 2.442759 1_555
Fe0 Ge0 2.442759 1_455
Fe1 Ge0 2.442758 1_545
Fe1 Ge0 2.442759 1_555
Fe1 Ge1 2.442759 1_555
Fe1 Ge1 2.442759 1_655
Ge0 Ge1 2.456848 1_554
