# generated using pymatgen
data_Cu2P2PbO8
_symmetry_space_group_name_H-M   'P 1'
_cell_length_a   8.14935000
_cell_length_b   10.51179900
_cell_length_c   15.68057400
_cell_angle_alpha   90.00000000
_cell_angle_beta   90.00000000
_cell_angle_gamma   90.00000000
_symmetry_Int_Tables_number   1
_chemical_formula_structural   Cu2P2PbO8
_chemical_formula_sum   'Cu16 P16 Pb8 O64'
_cell_volume   1343.26585288
_cell_formula_units_Z   8
loop_
 _symmetry_equiv_pos_site_id
 _symmetry_equiv_pos_as_xyz
  1  'x, y, z'
loop_
 _atom_site_type_symbol
 _atom_site_label
 _atom_site_symmetry_multiplicity
 _atom_site_fract_x
 _atom_site_fract_y
 _atom_site_fract_z
 _atom_site_occupancy
  Cu  Cu0  1  0.43377300  0.55572100  0.33790100  1
  Cu  Cu1  1  0.59834000  0.29311400  0.42427900  1
  Cu  Cu2  1  0.40166000  0.70688600  0.57572100  1
  Cu  Cu3  1  0.09834000  0.20688600  0.57572100  1
  Cu  Cu4  1  0.59834000  0.79311400  0.07572100  1
  Cu  Cu5  1  0.06622700  0.55572100  0.16209900  1
  Cu  Cu6  1  0.90166000  0.29311400  0.07572100  1
  Cu  Cu7  1  0.93377300  0.94427900  0.66209900  1
  Cu  Cu8  1  0.90166000  0.79311400  0.42427900  1
  Cu  Cu9  1  0.56622700  0.94427900  0.83790100  1
  Cu  Cu10  1  0.56622700  0.44427900  0.66209900  1
  Cu  Cu11  1  0.93377300  0.44427900  0.83790100  1
  Cu  Cu12  1  0.40166000  0.20688600  0.92427900  1
  Cu  Cu13  1  0.43377300  0.05572100  0.16209900  1
  Cu  Cu14  1  0.09834000  0.70688600  0.92427900  1
  Cu  Cu15  1  0.06622700  0.05572100  0.33790100  1
  P  P0  1  0.80266300  0.57236700  0.00951100  1
  P  P1  1  0.75000000  0.67766800  0.25000000  1
  P  P2  1  0.19733700  0.92763300  0.50951100  1
  P  P3  1  0.75000000  0.70595800  0.75000000  1
  P  P4  1  0.25000000  0.32233200  0.75000000  1
  P  P5  1  0.25000000  0.29404200  0.25000000  1
  P  P6  1  0.19733700  0.42763300  0.99048900  1
  P  P7  1  0.30266300  0.92763300  0.99048900  1
  P  P8  1  0.75000000  0.20595800  0.75000000  1
  P  P9  1  0.25000000  0.82233200  0.75000000  1
  P  P10  1  0.75000000  0.17766800  0.25000000  1
  P  P11  1  0.80266300  0.07236700  0.49048900  1
  P  P12  1  0.69733700  0.07236700  0.00951100  1
  P  P13  1  0.25000000  0.79404200  0.25000000  1
  P  P14  1  0.69733700  0.57236700  0.49048900  1
  P  P15  1  0.30266300  0.42763300  0.50951100  1
  Pb  Pb0  1  0.48096100  0.58092800  0.86892300  1
  Pb  Pb1  1  0.01903900  0.08092800  0.86892300  1
  Pb  Pb2  1  0.51903900  0.91907200  0.36892300  1
  Pb  Pb3  1  0.01903900  0.58092800  0.63107700  1
  Pb  Pb4  1  0.48096100  0.08092800  0.63107700  1
  Pb  Pb5  1  0.98096100  0.91907200  0.13107700  1
  Pb  Pb6  1  0.98096100  0.41907200  0.36892300  1
  Pb  Pb7  1  0.51903900  0.41907200  0.13107700  1
  O  O0  1  0.09936200  0.88006500  0.27355900  1
  O  O1  1  0.59224700  0.09394500  0.25459300  1
  O  O2  1  0.19626800  0.71567900  0.17104100  1
  O  O3  1  0.41789000  0.81147000  0.99666000  1
  O  O4  1  0.09224700  0.90605500  0.75459300  1
  O  O5  1  0.86463300  0.98052200  0.41741000  1
  O  O6  1  0.19626800  0.21567900  0.32895900  1
  O  O7  1  0.25703700  0.73592800  0.83067900  1
  O  O8  1  0.80373200  0.78432100  0.67104100  1
  O  O9  1  0.24296300  0.23592800  0.83067900  1
  O  O10  1  0.59936200  0.61993500  0.72644100  1
  O  O11  1  0.87390400  0.61724900  0.46429400  1
  O  O12  1  0.37390400  0.88275100  0.53570600  1
  O  O13  1  0.08211000  0.31147000  0.99666000  1
  O  O14  1  0.62609600  0.61724900  0.03570600  1
  O  O15  1  0.90063800  0.61993500  0.77355900  1
  O  O16  1  0.40775300  0.90605500  0.74540700  1
  O  O17  1  0.27637000  0.50158400  0.42517200  1
  O  O18  1  0.91789000  0.18853000  0.49666000  1
  O  O19  1  0.87390400  0.11724900  0.03570600  1
  O  O20  1  0.86463300  0.48052200  0.08259000  1
  O  O21  1  0.36463300  0.51947800  0.58259000  1
  O  O22  1  0.74296300  0.26407200  0.16932100  1
  O  O23  1  0.09224700  0.40605500  0.74540700  1
  O  O24  1  0.13536700  0.01947800  0.58259000  1
  O  O25  1  0.58211000  0.68853000  0.49666000  1
  O  O26  1  0.13536700  0.51947800  0.91741000  1
  O  O27  1  0.75703700  0.76407200  0.16932100  1
  O  O28  1  0.90775300  0.59394500  0.25459300  1
  O  O29  1  0.37390400  0.38275100  0.96429400  1
  O  O30  1  0.12609600  0.38275100  0.53570600  1
  O  O31  1  0.22363000  0.50158400  0.07482800  1
  O  O32  1  0.63536700  0.98052200  0.08259000  1
  O  O33  1  0.62609600  0.11724900  0.46429400  1
  O  O34  1  0.91789000  0.68853000  0.00334000  1
  O  O35  1  0.27637000  0.00158400  0.07482800  1
  O  O36  1  0.12609600  0.88275100  0.96429400  1
  O  O37  1  0.72363000  0.49841600  0.57482800  1
  O  O38  1  0.69626800  0.78432100  0.82895900  1
  O  O39  1  0.77637000  0.49841600  0.92517200  1
  O  O40  1  0.59224700  0.59394500  0.24540700  1
  O  O41  1  0.69626800  0.28432100  0.67104100  1
  O  O42  1  0.08211000  0.81147000  0.50334000  1
  O  O43  1  0.90063800  0.11993500  0.72644100  1
  O  O44  1  0.90775300  0.09394500  0.24540700  1
  O  O45  1  0.75703700  0.26407200  0.33067900  1
  O  O46  1  0.40063800  0.88006500  0.22644100  1
  O  O47  1  0.30373200  0.71567900  0.32895900  1
  O  O48  1  0.80373200  0.28432100  0.82895900  1
  O  O49  1  0.30373200  0.21567900  0.17104100  1
  O  O50  1  0.63536700  0.48052200  0.41741000  1
  O  O51  1  0.25703700  0.23592800  0.66932100  1
  O  O52  1  0.40775300  0.40605500  0.75459300  1
  O  O53  1  0.09936200  0.38006500  0.22644100  1
  O  O54  1  0.58211000  0.18853000  0.00334000  1
  O  O55  1  0.24296300  0.73592800  0.66932100  1
  O  O56  1  0.36463300  0.01947800  0.91741000  1
  O  O57  1  0.41789000  0.31147000  0.50334000  1
  O  O58  1  0.74296300  0.76407200  0.33067900  1
  O  O59  1  0.72363000  0.99841600  0.92517200  1
  O  O60  1  0.77637000  0.99841600  0.57482800  1
  O  O61  1  0.40063800  0.38006500  0.27355900  1
  O  O62  1  0.22363000  0.00158400  0.42517200  1
  O  O63  1  0.59936200  0.11993500  0.77355900  1
loop_
_geom_bond_atom_site_label_1
_geom_bond_atom_site_label_2
_geom_bond_distance
_geom_bond_site_symmetry_2
Cu0 O17 1.960085 1_555
Cu0 O40 1.983143 1_555
Cu0 O47 1.992484 1_555
Cu0 O61 2.121379 1_555
Cu0 O50 2.208669 1_555
Cu1 O57 1.933044 1_555
Cu1 O33 1.965299 1_555
Cu1 O45 1.979877 1_555
Cu1 O50 1.995879 1_555
Cu2 O25 1.933044 1_555
Cu2 O12 1.965299 1_555
Cu2 O55 1.979877 1_555
Cu2 O21 1.995879 1_555
Cu3 O18 1.933044 1_455
Cu3 O30 1.965299 1_555
Cu3 O51 1.979877 1_555
Cu3 O24 1.995879 1_555
Cu4 O3 1.933044 1_554
Cu4 O14 1.965299 1_555
Cu4 O27 1.979877 1_555
Cu4 O32 1.995879 1_555
Cu5 O31 1.960085 1_555
Cu5 O28 1.983143 1_455
Cu5 O2 1.992484 1_555
Cu5 O53 2.121379 1_555
Cu5 O20 2.208669 1_455
Cu6 O13 1.933044 1_654
Cu6 O19 1.965299 1_555
Cu6 O22 1.979877 1_555
Cu6 O20 1.995879 1_555
Cu7 O60 1.960085 1_555
Cu7 O4 1.983143 1_655
Cu7 O8 1.992484 1_555
Cu7 O43 2.121379 1_565
Cu7 O24 2.208669 1_665
Cu8 O42 1.933044 1_655
Cu8 O11 1.965299 1_555
Cu8 O58 1.979877 1_555
Cu8 O5 1.995879 1_555
Cu9 O59 1.960085 1_555
Cu9 O16 1.983143 1_555
Cu9 O38 1.992484 1_555
Cu9 O63 2.121379 1_565
Cu9 O56 2.208669 1_565
Cu10 O37 1.960085 1_555
Cu10 O52 1.983143 1_555
Cu10 O41 1.992484 1_555
Cu10 O10 2.121379 1_555
Cu10 O21 2.208669 1_555
Cu11 O39 1.960085 1_555
Cu11 O23 1.983143 1_655
Cu11 O48 1.992484 1_555
Cu11 O15 2.121379 1_555
Cu11 O26 2.208669 1_655
Cu12 O54 1.933044 1_556
Cu12 O29 1.965299 1_555
Cu12 O9 1.979877 1_555
Cu12 O56 1.995879 1_555
Cu13 O35 1.960085 1_555
Cu13 O1 1.983143 1_555
Cu13 O49 1.992484 1_555
Cu13 O46 2.121379 1_545
Cu13 O32 2.208669 1_545
Cu14 O34 1.933044 1_456
Cu14 O36 1.965299 1_555
Cu14 O7 1.979877 1_555
Cu14 O26 1.995879 1_555
Cu15 O62 1.960085 1_555
Cu15 O44 1.983143 1_455
Cu15 O6 1.992484 1_555
Cu15 O0 2.121379 1_545
Cu15 O5 2.208669 1_445
O0 P13 1.568807 1_555
O0 Pb5 2.467953 1_455
O1 P10 1.559633 1_555
O1 Pb2 2.636097 1_545
O2 P13 1.550235 1_555
O3 P7 1.543429 1_555
O4 P9 1.559633 1_555
O4 Pb1 2.636097 1_565
O5 P11 1.581227 1_565
O6 P5 1.550235 1_555
O7 P9 1.558425 1_555
O7 Pb0 2.518801 1_555
O8 P3 1.550235 1_555
O9 P4 1.558425 1_555
O9 Pb1 2.518801 1_555
O10 P3 1.568807 1_555
O10 Pb0 2.467953 1_555
O11 P14 1.568998 1_555
O11 Pb6 2.708746 1_555
O12 P2 1.568998 1_555
O12 Pb4 2.708746 1_565
O13 P6 1.543429 1_555
O14 P0 1.568998 1_555
O14 Pb7 2.708746 1_555
O15 P3 1.568807 1_555
O15 Pb3 2.467953 1_655
O16 P9 1.559633 1_555
O16 Pb4 2.636097 1_565
O17 P15 1.548923 1_555
O17 Pb6 2.706618 1_455
O18 P11 1.543429 1_555
O19 P12 1.568998 1_555
O19 Pb5 2.708746 1_545
O20 P0 1.581227 1_555
O21 P15 1.581227 1_555
O22 P10 1.558425 1_555
O22 Pb7 2.518801 1_555
O23 P4 1.559633 1_555
O23 Pb3 2.636097 1_555
O24 P2 1.581227 1_545
O25 P14 1.543429 1_555
O26 P6 1.581227 1_555
O27 P1 1.558425 1_555
O27 Pb5 2.518801 1_555
O28 P1 1.559633 1_555
O28 Pb6 2.636097 1_555
O29 P6 1.568998 1_555
O29 Pb0 2.708746 1_555
O30 P15 1.568998 1_555
O30 Pb3 2.708746 1_555
O31 P6 1.548923 1_554
O31 Pb7 2.706618 1_555
O32 P12 1.581227 1_565
O33 P11 1.568998 1_555
O33 Pb2 2.708746 1_545
O34 P0 1.543429 1_555
O35 P7 1.548923 1_544
O35 Pb5 2.706618 1_445
O36 P7 1.568998 1_555
O36 Pb1 2.708746 1_565
O37 P14 1.548923 1_555
O37 Pb3 2.706618 1_655
O38 P3 1.550235 1_555
O39 P0 1.548923 1_556
O39 Pb0 2.706618 1_555
O40 P1 1.559633 1_555
O40 Pb7 2.636097 1_555
O41 P8 1.550235 1_555
O42 P2 1.543429 1_555
O43 P8 1.568807 1_555
O43 Pb1 2.467953 1_655
O44 P10 1.559633 1_555
O44 Pb5 2.636097 1_545
O45 P10 1.558425 1_555
O45 Pb6 2.518801 1_555
O46 P13 1.568807 1_555
O46 Pb2 2.467953 1_555
O47 P13 1.550235 1_555
O48 P8 1.550235 1_555
O49 P5 1.550235 1_555
O50 P14 1.581227 1_555
O51 P4 1.558425 1_555
O51 Pb4 2.518801 1_555
O52 P4 1.559633 1_555
O52 Pb0 2.636097 1_555
O53 P5 1.568807 1_555
O53 Pb6 2.467953 1_455
O54 P12 1.543429 1_555
O55 P9 1.558425 1_555
O55 Pb3 2.518801 1_555
O56 P7 1.581227 1_545
O57 P15 1.543429 1_555
O58 P1 1.558425 1_555
O58 Pb2 2.518801 1_555
O59 P12 1.548923 1_566
O59 Pb1 2.706618 1_665
O60 P11 1.548923 1_565
O60 Pb4 2.706618 1_565
O61 P5 1.568807 1_555
O61 Pb7 2.467953 1_555
O62 P2 1.548923 1_545
O62 Pb2 2.706618 1_545
O63 P8 1.568807 1_555
O63 Pb4 2.467953 1_555
