# generated using pymatgen
data_TcO3F
_symmetry_space_group_name_H-M   'P 1'
_cell_length_a   5.26265900
_cell_length_b   6.01755400
_cell_length_c   9.51785728
_cell_angle_alpha   86.75122918
_cell_angle_beta   90.00000000
_cell_angle_gamma   90.00000000
_symmetry_Int_Tables_number   1
_chemical_formula_structural   TcO3F
_chemical_formula_sum   'Tc4 O12 F4'
_cell_volume   300.93028241
_cell_formula_units_Z   4
loop_
 _symmetry_equiv_pos_site_id
 _symmetry_equiv_pos_as_xyz
  1  'x, y, z'
loop_
 _atom_site_type_symbol
 _atom_site_label
 _atom_site_symmetry_multiplicity
 _atom_site_fract_x
 _atom_site_fract_y
 _atom_site_fract_z
 _atom_site_occupancy
  Tc  Tc0  1  0.08327000  0.32992600  0.36231700  1
  Tc  Tc1  1  0.91673000  0.67007400  0.63768300  1
  Tc  Tc2  1  0.41673000  0.32992600  0.86231700  1
  Tc  Tc3  1  0.58327000  0.67007400  0.13768300  1
  O  O0  1  0.16527900  0.21261300  0.94983400  1
  O  O1  1  0.71978800  0.54109400  0.28816400  1
  O  O2  1  0.28021200  0.45890600  0.71183600  1
  O  O3  1  0.58499800  0.11117400  0.80577500  1
  O  O4  1  0.33472100  0.21261300  0.44983400  1
  O  O5  1  0.21978800  0.45890600  0.21183600  1
  O  O6  1  0.83472100  0.78738700  0.05016600  1
  O  O7  1  0.41500200  0.88882600  0.19422500  1
  O  O8  1  0.66527900  0.78738700  0.55016600  1
  O  O9  1  0.91500200  0.11117400  0.30577500  1
  O  O10  1  0.78021200  0.54109400  0.78816400  1
  O  O11  1  0.08499800  0.88882600  0.69422500  1
  F  F0  1  0.63342800  0.35056600  0.04209700  1
  F  F1  1  0.36657200  0.64943400  0.95790300  1
  F  F2  1  0.13342800  0.64943400  0.45790300  1
  F  F3  1  0.86657200  0.35056600  0.54209700  1
loop_
_geom_bond_atom_site_label_1
_geom_bond_atom_site_label_2
_geom_bond_distance
_geom_bond_site_symmetry_2
O0 Tc2 1.696075 1_555
O1 Tc3 1.744686 1_555
O1 Tc0 2.381240 1_655
O2 Tc2 1.744686 1_555
O2 Tc1 2.381240 1_455
O3 Tc2 1.699078 1_555
O4 Tc0 1.696075 1_555
O5 Tc0 1.744686 1_555
O5 Tc3 2.381240 1_555
O6 Tc3 1.696075 1_555
O7 Tc3 1.699078 1_555
O8 Tc1 1.696075 1_555
O9 Tc0 1.699078 1_655
O10 Tc1 1.744686 1_555
O10 Tc2 2.381240 1_555
O11 Tc1 1.699078 1_455
F0 Tc2 2.065908 1_554
F0 Tc3 2.189117 1_555
F1 Tc3 2.065908 1_556
F1 Tc2 2.189117 1_555
F2 Tc1 2.065908 1_455
F2 Tc0 2.189117 1_555
F3 Tc0 2.065908 1_655
F3 Tc1 2.189117 1_555
