# generated using pymatgen
data_CsSb
_symmetry_space_group_name_H-M   'P 1'
_cell_length_a   7.46053375
_cell_length_b   7.72571270
_cell_length_c   13.46058341
_cell_angle_alpha   90.00000000
_cell_angle_beta   90.00000000
_cell_angle_gamma   90.00000000
_symmetry_Int_Tables_number   1
_chemical_formula_structural   CsSb
_chemical_formula_sum   'Cs8 Sb8'
_cell_volume   775.84030354
_cell_formula_units_Z   8
loop_
 _symmetry_equiv_pos_site_id
 _symmetry_equiv_pos_as_xyz
  1  'x, y, z'
loop_
 _atom_site_type_symbol
 _atom_site_label
 _atom_site_symmetry_multiplicity
 _atom_site_fract_x
 _atom_site_fract_y
 _atom_site_fract_z
 _atom_site_occupancy
  Cs  Cs0  1  0.84250239  0.14502315  0.83362103  1
  Cs  Cs1  1  0.07517523  0.58663306  0.96707212  1
  Cs  Cs2  1  0.65749761  0.64502315  0.16637897  1
  Cs  Cs3  1  0.57517523  0.41336694  0.53292788  1
  Cs  Cs4  1  0.34250239  0.85497685  0.66637897  1
  Cs  Cs5  1  0.15749761  0.35497685  0.33362103  1
  Cs  Cs6  1  0.42482477  0.08663306  0.03292788  1
  Cs  Cs7  1  0.92482477  0.91336694  0.46707212  1
  Sb  Sb0  1  0.83913372  0.68349837  0.71996875  1
  Sb  Sb1  1  0.33913372  0.31650163  0.78003125  1
  Sb  Sb2  1  0.92581237  0.07375625  0.13661362  1
  Sb  Sb3  1  0.66086628  0.18349837  0.28003125  1
  Sb  Sb4  1  0.57418763  0.57375625  0.86338638  1
  Sb  Sb5  1  0.07418763  0.42624375  0.63661362  1
  Sb  Sb6  1  0.16086628  0.81650163  0.21996875  1
  Sb  Sb7  1  0.42581237  0.92624375  0.36338638  1
loop_
_geom_bond_atom_site_label_1
_geom_bond_atom_site_label_2
_geom_bond_distance
_geom_bond_site_symmetry_2
Cs0 Sb5 3.839302 1_655
Cs0 Sb0 3.880020 1_545
Cs0 Sb4 3.890853 1_555
Cs0 Sb1 4.000431 1_655
Cs0 Sb1 4.047029 1_555
Cs0 Sb2 4.162123 1_556
Cs1 Sb1 3.817346 1_555
Cs1 Sb0 3.837245 1_455
Cs1 Sb6 3.892385 1_556
Cs1 Sb4 3.977156 1_555
Cs1 Sb4 3.990953 1_455
Cs2 Sb7 3.839302 1_555
Cs2 Sb3 3.880020 1_555
Cs2 Sb2 3.890853 1_565
Cs2 Sb6 4.000431 1_555
Cs2 Sb6 4.047029 1_655
Cs2 Sb4 4.162123 1_554
Cs3 Sb0 3.817346 1_555
Cs3 Sb1 3.837245 1_555
Cs3 Sb3 3.892385 1_555
Cs3 Sb5 3.977156 1_655
Cs3 Sb5 3.990953 1_555
Cs4 Sb4 3.839302 1_555
Cs4 Sb1 3.880020 1_565
Cs4 Sb5 3.890853 1_555
Cs4 Sb0 4.000431 1_555
Cs4 Sb0 4.047029 1_455
Cs4 Sb7 4.162123 1_555
Cs5 Sb2 3.839302 1_455
Cs5 Sb6 3.880020 1_555
Cs5 Sb7 3.890853 1_545
Cs5 Sb3 4.000431 1_455
Cs5 Sb3 4.047029 1_555
Cs5 Sb5 4.162123 1_555
Cs6 Sb6 3.817346 1_545
Cs6 Sb3 3.837245 1_555
Cs6 Sb1 3.892385 1_554
Cs6 Sb2 3.977156 1_455
Cs6 Sb2 3.990953 1_555
Cs7 Sb3 3.817346 1_565
Cs7 Sb6 3.837245 1_655
Cs7 Sb0 3.892385 1_555
Cs7 Sb7 3.977156 1_555
Cs7 Sb7 3.990953 1_655
Sb0 Sb5 2.878224 1_655
Sb0 Sb4 2.890104 1_555
Sb1 Sb4 2.878224 1_555
Sb1 Sb5 2.890104 1_555
Sb2 Sb6 2.878224 1_645
Sb2 Sb3 2.890104 1_555
Sb3 Sb7 2.878224 1_545
Sb6 Sb7 2.890104 1_555
