# generated using pymatgen
data_Ba2V3BiO11
_symmetry_space_group_name_H-M   'P 1'
_cell_length_a   7.84541000
_cell_length_b   11.54954100
_cell_length_c   12.56274529
_cell_angle_alpha   76.74099492
_cell_angle_beta   90.00000000
_cell_angle_gamma   90.00000000
_symmetry_Int_Tables_number   1
_chemical_formula_structural   Ba2V3BiO11
_chemical_formula_sum   'Ba8 V12 Bi4 O44'
_cell_volume   1107.97748145
_cell_formula_units_Z   4
loop_
 _symmetry_equiv_pos_site_id
 _symmetry_equiv_pos_as_xyz
  1  'x, y, z'
loop_
 _atom_site_type_symbol
 _atom_site_label
 _atom_site_symmetry_multiplicity
 _atom_site_fract_x
 _atom_site_fract_y
 _atom_site_fract_z
 _atom_site_occupancy
  Ba  Ba0  1  0.72869500  0.55809100  0.26740400  1
  Ba  Ba1  1  0.77130500  0.05809100  0.26740400  1
  Ba  Ba2  1  0.27130500  0.44190900  0.73259600  1
  Ba  Ba3  1  0.75127300  0.88945200  0.94560600  1
  Ba  Ba4  1  0.25127300  0.61054800  0.05439400  1
  Ba  Ba5  1  0.24872700  0.11054800  0.05439400  1
  Ba  Ba6  1  0.74872700  0.38945200  0.94560600  1
  Ba  Ba7  1  0.22869500  0.94190900  0.73259600  1
  V  V0  1  0.75248300  0.97567000  0.59680400  1
  V  V1  1  0.98139000  0.16965300  0.81372700  1
  V  V2  1  0.02042900  0.32590500  0.18269000  1
  V  V3  1  0.47957100  0.82590500  0.18269000  1
  V  V4  1  0.97957100  0.67409500  0.81731000  1
  V  V5  1  0.24751700  0.02433000  0.40319600  1
  V  V6  1  0.48139000  0.33034700  0.18627300  1
  V  V7  1  0.51861000  0.66965300  0.81372700  1
  V  V8  1  0.01861000  0.83034700  0.18627300  1
  V  V9  1  0.52042900  0.17409500  0.81731000  1
  V  V10  1  0.74751700  0.47567000  0.59680400  1
  V  V11  1  0.25248300  0.52433000  0.40319600  1
  Bi  Bi0  1  0.00261200  0.73249800  0.50180900  1
  Bi  Bi1  1  0.49738800  0.23249800  0.50180900  1
  Bi  Bi2  1  0.99738800  0.26750200  0.49819100  1
  Bi  Bi3  1  0.50261200  0.76750200  0.49819100  1
  O  O0  1  0.94227200  0.27788700  0.31487200  1
  O  O1  1  0.86278800  0.94622700  0.71605400  1
  O  O2  1  0.20044300  0.87859400  0.48662500  1
  O  O3  1  0.44366700  0.26735100  0.89367100  1
  O  O4  1  0.63721200  0.44622700  0.71605400  1
  O  O5  1  0.55633300  0.73264900  0.10632900  1
  O  O6  1  0.36278800  0.55377300  0.28394600  1
  O  O7  1  0.96122600  0.47196600  0.62191400  1
  O  O8  1  0.46122600  0.02803400  0.37808600  1
  O  O9  1  0.44227200  0.22211300  0.68512800  1
  O  O10  1  0.25103300  0.33243400  0.16673900  1
  O  O11  1  0.94101100  0.72023300  0.13044100  1
  O  O12  1  0.79955700  0.12140600  0.51337500  1
  O  O13  1  0.55898900  0.22023300  0.13044100  1
  O  O14  1  0.53877400  0.97196600  0.62191400  1
  O  O15  1  0.29422200  0.63324800  0.48273900  1
  O  O16  1  0.55332600  0.31262800  0.31971100  1
  O  O17  1  0.05633300  0.76735100  0.89367100  1
  O  O18  1  0.94366700  0.23264900  0.10632900  1
  O  O19  1  0.55391000  0.96453100  0.12491400  1
  O  O20  1  0.70044300  0.62140600  0.51337500  1
  O  O21  1  0.94609000  0.46453100  0.12491400  1
  O  O22  1  0.75103300  0.16756600  0.83326100  1
  O  O23  1  0.79422200  0.86675200  0.51726100  1
  O  O24  1  0.44667400  0.68737200  0.68028900  1
  O  O25  1  0.93797500  0.96100300  0.11140900  1
  O  O26  1  0.29955700  0.37859400  0.48662500  1
  O  O27  1  0.05332600  0.18737200  0.68028900  1
  O  O28  1  0.13721200  0.05377300  0.28394600  1
  O  O29  1  0.56202500  0.46100300  0.11140900  1
  O  O30  1  0.70577800  0.36675200  0.51726100  1
  O  O31  1  0.74896700  0.66756600  0.83326100  1
  O  O32  1  0.03877400  0.52803400  0.37808600  1
  O  O33  1  0.44609000  0.03546900  0.87508600  1
  O  O34  1  0.05391000  0.53546900  0.87508600  1
  O  O35  1  0.05772800  0.72211300  0.68512800  1
  O  O36  1  0.55772800  0.77788700  0.31487200  1
  O  O37  1  0.44101100  0.77976700  0.86955900  1
  O  O38  1  0.20577800  0.13324800  0.48273900  1
  O  O39  1  0.43797500  0.53899700  0.88859100  1
  O  O40  1  0.05898900  0.27976700  0.86955900  1
  O  O41  1  0.24896700  0.83243400  0.16673900  1
  O  O42  1  0.06202500  0.03899700  0.88859100  1
  O  O43  1  0.94667400  0.81262800  0.31971100  1
loop_
_geom_bond_atom_site_label_1
_geom_bond_atom_site_label_2
_geom_bond_distance
_geom_bond_site_symmetry_2
Ba0 O32 2.783975 1_655
Ba0 O11 2.786395 1_555
Ba0 O29 2.795656 1_555
Ba0 O5 2.848946 1_555
Ba0 O21 2.858000 1_555
Ba0 O6 2.877809 1_555
Ba0 O36 3.048492 1_555
Ba0 O16 3.083399 1_555
Ba0 O20 3.341993 1_555
Ba0 O30 3.403919 1_555
Ba1 O8 2.783975 1_555
Ba1 O13 2.786395 1_555
Ba1 O25 2.795656 1_545
Ba1 O18 2.848946 1_555
Ba1 O19 2.858000 1_545
Ba1 O28 2.877809 1_655
Ba1 O0 3.048492 1_555
Ba1 O43 3.083399 1_545
Ba1 O12 3.341993 1_555
Ba1 O23 3.403919 1_545
Ba2 O7 2.783975 1_455
Ba2 O40 2.786395 1_555
Ba2 O39 2.795656 1_555
Ba2 O3 2.848946 1_555
Ba2 O34 2.858000 1_555
Ba2 O4 2.877809 1_555
Ba2 O9 3.048492 1_555
Ba2 O24 3.083399 1_555
Ba2 O26 3.341993 1_555
Ba2 O15 3.403919 1_555
Ba3 O25 2.820749 1_556
Ba3 O5 2.831656 1_556
Ba3 O17 2.926502 1_655
Ba3 O1 2.940120 1_555
Ba3 O33 2.945536 1_565
Ba3 O42 2.978663 1_665
Ba3 O37 2.999613 1_555
Ba3 O19 3.019873 1_556
Ba3 O11 3.057071 1_556
Ba3 O31 3.196668 1_555
Ba3 O22 3.198429 1_565
Ba4 O39 2.820749 1_554
Ba4 O17 2.831656 1_554
Ba4 O5 2.926502 1_555
Ba4 O6 2.940120 1_555
Ba4 O21 2.945536 1_455
Ba4 O29 2.978663 1_555
Ba4 O11 2.999613 1_455
Ba4 O34 3.019873 1_554
Ba4 O37 3.057071 1_554
Ba4 O41 3.196668 1_555
Ba4 O10 3.198429 1_555
Ba5 O42 2.820749 1_554
Ba5 O3 2.831656 1_554
Ba5 O18 2.926502 1_455
Ba5 O28 2.940120 1_555
Ba5 O19 2.945536 1_545
Ba5 O25 2.978663 1_445
Ba5 O13 2.999613 1_555
Ba5 O33 3.019873 1_554
Ba5 O40 3.057071 1_554
Ba5 O10 3.196668 1_555
Ba5 O41 3.198429 1_545
Ba6 O29 2.820749 1_556
Ba6 O18 2.831656 1_556
Ba6 O3 2.926502 1_555
Ba6 O4 2.940120 1_555
Ba6 O34 2.945536 1_655
Ba6 O39 2.978663 1_555
Ba6 O40 2.999613 1_655
Ba6 O21 3.019873 1_556
Ba6 O13 3.057071 1_556
Ba6 O22 3.196668 1_555
Ba6 O31 3.198429 1_555
Ba7 O14 2.783975 1_555
Ba7 O37 2.786395 1_555
Ba7 O42 2.795656 1_565
Ba7 O17 2.848946 1_555
Ba7 O33 2.858000 1_565
Ba7 O1 2.877809 1_455
Ba7 O35 3.048492 1_555
Ba7 O27 3.083399 1_565
Ba7 O2 3.341993 1_555
Ba7 O38 3.403919 1_565
Bi0 O2 2.268209 1_555
Bi0 O23 2.291929 1_455
Bi0 O43 2.304621 1_455
Bi0 O35 2.319142 1_555
Bi0 O15 2.594490 1_555
Bi0 O20 2.683612 1_455
Bi1 O26 2.268209 1_555
Bi1 O30 2.291929 1_555
Bi1 O16 2.304621 1_555
Bi1 O9 2.319142 1_555
Bi1 O38 2.594490 1_555
Bi1 O12 2.683612 1_555
Bi2 O12 2.268209 1_555
Bi2 O38 2.291929 1_655
Bi2 O27 2.304621 1_655
Bi2 O0 2.319142 1_555
Bi2 O30 2.594490 1_555
Bi2 O26 2.683612 1_655
Bi3 O20 2.268209 1_555
Bi3 O15 2.291929 1_555
Bi3 O24 2.304621 1_555
Bi3 O36 2.319142 1_555
Bi3 O23 2.594490 1_555
Bi3 O2 2.683612 1_555
O0 V2 1.737412 1_655
O1 V0 1.695635 1_555
O2 V5 1.805211 1_565
O3 V9 1.707911 1_555
O4 V10 1.695635 1_555
O5 V3 1.707911 1_555
O6 V11 1.695635 1_555
O7 V10 1.704774 1_555
O8 V5 1.704774 1_555
O9 V9 1.737412 1_555
O10 V2 1.819905 1_555
O10 V6 1.823245 1_555
O11 V8 1.699754 1_655
O12 V0 1.805211 1_545
O13 V6 1.699754 1_555
O14 V0 1.704774 1_555
O15 V11 1.806889 1_555
O16 V6 1.735848 1_555
O17 V4 1.707911 1_455
O18 V2 1.707911 1_655
O19 V3 1.702152 1_555
O20 V10 1.805211 1_555
O21 V2 1.702152 1_655
O22 V9 1.819905 1_555
O22 V1 1.823245 1_555
O23 V0 1.806889 1_555
O24 V7 1.735848 1_555
O25 V8 1.706124 1_655
O26 V11 1.805211 1_555
O27 V1 1.735848 1_455
O28 V5 1.695635 1_555
O29 V6 1.706124 1_555
O30 V10 1.806889 1_555
O31 V4 1.819905 1_555
O31 V7 1.823245 1_555
O32 V11 1.704774 1_555
O33 V9 1.702152 1_555
O34 V4 1.702152 1_455
O35 V4 1.737412 1_455
O36 V3 1.737412 1_555
O37 V7 1.699754 1_555
O38 V5 1.806889 1_555
O39 V7 1.706124 1_555
O40 V1 1.699754 1_455
O41 V3 1.819905 1_555
O41 V8 1.823245 1_555
O42 V1 1.706124 1_455
O43 V8 1.735848 1_655
