# generated using pymatgen
data_Al13Os4
_symmetry_space_group_name_H-M   'P 1'
_cell_length_a   4.20733385
_cell_length_b   7.79656501
_cell_length_c   9.03292407
_cell_angle_alpha   115.25163633
_cell_angle_beta   103.48046957
_cell_angle_gamma   90.00377836
_symmetry_Int_Tables_number   1
_chemical_formula_structural   Al13Os4
_chemical_formula_sum   'Al13 Os4'
_cell_volume   258.93406574
_cell_formula_units_Z   1
loop_
 _symmetry_equiv_pos_site_id
 _symmetry_equiv_pos_as_xyz
  1  'x, y, z'
loop_
 _atom_site_type_symbol
 _atom_site_label
 _atom_site_symmetry_multiplicity
 _atom_site_fract_x
 _atom_site_fract_y
 _atom_site_fract_z
 _atom_site_occupancy
  Al  Al0  1  0.87009744  0.84157089  0.74025410  1
  Al  Al1  1  0.79502157  0.08292041  0.58991019  1
  Al  Al2  1  0.58673090  0.79523183  0.17358602  1
  Al  Al3  1  0.58821335  0.36548683  0.17700669  1
  Al  Al4  1  0.12990256  0.15842911  0.25974590  1
  Al  Al5  1  0.74100696  0.38269548  0.48212246  1
  Al  Al6  1  0.08519265  0.56785490  0.17142164  1
  Al  Al7  1  0.41178665  0.63451317  0.82299331  1
  Al  Al8  1  0.50000000  -0.00000000  0.00000000  1
  Al  Al9  1  0.41326910  0.20476817  0.82641398  1
  Al  Al10  1  0.25899304  0.61730452  0.51787754  1
  Al  Al11  1  0.20497843  0.91707959  0.41008981  1
  Al  Al12  1  0.91480735  0.43214510  0.82857836  1
  Os  Os0  1  0.00949298  0.80499762  0.01891313  1
  Os  Os1  1  0.29458932  0.29220697  0.58903752  1
  Os  Os2  1  0.99050702  0.19500238  0.98108687  1
  Os  Os3  1  0.70541068  0.70779303  0.41096248  1
loop_
_geom_bond_atom_site_label_1
_geom_bond_atom_site_label_2
_geom_bond_distance
_geom_bond_site_symmetry_2
Al0 Os0 2.585579 1_656
Al0 Os3 2.609119 1_555
Al0 Os2 2.636995 1_565
Al0 Al1 2.732250 1_565
Al0 Al10 2.880583 1_555
Al0 Al10 2.881927 1_655
Al0 Al7 2.929804 1_555
Al0 Al7 2.931646 1_655
Al0 Al8 2.946554 1_666
Al0 Al8 2.947247 1_566
Al1 Al11 2.607648 1_645
Al1 Al12 2.607734 1_555
Al1 Al11 2.607823 1_545
Al1 Os3 2.644066 1_545
Al1 Os1 2.664315 1_655
Al1 Os1 2.664455 1_555
Al1 Al9 2.812435 1_655
Al1 Al9 2.813276 1_555
Al1 Al5 2.881080 1_555
Al2 Os3 2.461647 1_555
Al2 Os0 2.522871 1_555
Al2 Os0 2.524078 1_655
Al2 Al8 2.647566 1_565
Al2 Al6 2.744325 1_655
Al2 Al6 2.747079 1_555
Al2 Al7 2.769197 1_554
Al3 Os3 2.556120 1_555
Al3 Al8 2.578771 1_555
Al3 Al5 2.624068 1_555
Al3 Al6 2.642098 1_655
Al3 Al6 2.643774 1_555
Al3 Os2 2.672142 1_454
Al3 Os2 2.674586 1_554
Al3 Al9 2.769197 1_554
Al3 Al4 2.929804 1_555
Al3 Al4 2.931646 1_655
Al4 Os2 2.585579 1_454
Al4 Os1 2.609119 1_555
Al4 Os0 2.636995 1_545
Al4 Al5 2.880583 1_555
Al4 Al5 2.881927 1_455
Al4 Al8 2.946554 1_455
Al4 Al8 2.947247 1_555
Al5 Os1 2.526853 1_555
Al5 Os1 2.527443 1_655
Al5 Os3 2.864477 1_555
Al6 Os2 2.642246 1_454
Al6 Os0 2.717768 1_555
Al6 Os3 2.832559 1_455
Al6 Os3 2.834525 1_555
Al7 Os1 2.556120 1_555
Al7 Al8 2.578771 1_566
Al7 Os0 2.672142 1_656
Al7 Os0 2.674586 1_556
Al8 Os2 2.642950 1_554
Al8 Os0 2.642950 1_545
Al8 Os2 2.643292 1_454
Al8 Os0 2.643292 1_645
Al8 Al9 2.647566 1_554
Al9 Os1 2.461647 1_555
Al9 Os2 2.522871 1_555
Al9 Os2 2.524078 1_455
Al10 Os3 2.526853 1_555
Al10 Os3 2.527443 1_455
Al10 Al7 2.624068 1_555
Al10 Al5 2.713792 1_555
Al10 Al5 2.714200 1_455
Al10 Os1 2.864477 1_555
Al10 Al11 2.881080 1_555
Al10 Al6 2.894963 1_555
Al11 Al6 2.607734 1_555
Al11 Os1 2.644066 1_565
Al11 Os3 2.664315 1_455
Al11 Os3 2.664455 1_555
Al11 Al4 2.732250 1_565
Al11 Al2 2.812435 1_455
Al11 Al2 2.813276 1_555
Al12 Al7 2.642098 1_655
Al12 Os0 2.642246 1_656
Al12 Al7 2.643774 1_555
Al12 Os2 2.717768 1_555
Al12 Al6 2.719054 1_656
Al12 Al9 2.744325 1_655
Al12 Al9 2.747079 1_555
Al12 Os1 2.832559 1_655
Al12 Os1 2.834525 1_555
Al12 Al5 2.894963 1_555
