# generated using pymatgen
data_VTeO4
_symmetry_space_group_name_H-M   'P 1'
_cell_length_a   4.59964529
_cell_length_b   5.48636023
_cell_length_c   13.68443000
_cell_angle_alpha   90.00030962
_cell_angle_beta   89.99910460
_cell_angle_gamma   90.94988158
_symmetry_Int_Tables_number   1
_chemical_formula_structural   VTeO4
_chemical_formula_sum   'V4 Te4 O16'
_cell_volume   345.28339046
_cell_formula_units_Z   4
loop_
 _symmetry_equiv_pos_site_id
 _symmetry_equiv_pos_as_xyz
  1  'x, y, z'
loop_
 _atom_site_type_symbol
 _atom_site_label
 _atom_site_symmetry_multiplicity
 _atom_site_fract_x
 _atom_site_fract_y
 _atom_site_fract_z
 _atom_site_occupancy
  V  V0  1  0.32091900  0.83375900  0.66070800  1
  V  V1  1  0.67906500  0.16622500  0.33929200  1
  V  V2  1  0.67909200  0.66623200  0.16071300  1
  V  V3  1  0.32085700  0.33372400  0.83929000  1
  Te  Te0  1  0.03832800  0.64314200  0.38996800  1
  Te  Te1  1  0.03833700  0.14312800  0.11003400  1
  Te  Te2  1  0.96168400  0.85686900  0.88996600  1
  Te  Te3  1  0.96169600  0.35684200  0.61002900  1
  O  O0  1  0.16806400  0.63266600  0.54797200  1
  O  O1  1  0.75394500  0.87457800  0.41781700  1
  O  O2  1  0.68078700  0.81890900  0.66581800  1
  O  O3  1  0.18672400  0.01695000  0.77683900  1
  O  O4  1  0.81327300  0.98304900  0.22316000  1
  O  O5  1  0.83195100  0.36732600  0.45202300  1
  O  O6  1  0.18671700  0.51695000  0.72315900  1
  O  O7  1  0.81327700  0.48305500  0.27684000  1
  O  O8  1  0.24606900  0.62543900  0.91782000  1
  O  O9  1  0.75395100  0.37457800  0.08218800  1
  O  O10  1  0.31921800  0.18112000  0.33418000  1
  O  O11  1  0.31923000  0.68113700  0.16582100  1
  O  O12  1  0.16806100  0.13268300  0.95202500  1
  O  O13  1  0.68071800  0.31889400  0.83418200  1
  O  O14  1  0.83194500  0.86731800  0.04798000  1
  O  O15  1  0.24609100  0.12542900  0.58217500  1
loop_
_geom_bond_atom_site_label_1
_geom_bond_atom_site_label_2
_geom_bond_distance
_geom_bond_site_symmetry_2
O0 Te3 1.965841 1_455
O0 V0 2.016390 1_555
O0 Te0 2.244029 1_555
O1 Te0 1.877112 1_655
O1 V1 1.962622 1_565
O2 V0 1.660092 1_555
O3 V0 1.984228 1_545
O3 V3 2.023825 1_555
O3 Te2 2.051623 1_445
O4 V1 1.984216 1_565
O4 V2 2.024068 1_555
O4 Te1 2.051663 1_665
O5 Te0 1.965816 1_655
O5 V1 2.016410 1_555
O5 Te3 2.244068 1_555
O6 V3 1.984270 1_555
O6 V0 2.024081 1_555
O6 Te3 2.051689 1_455
O7 V2 1.984154 1_555
O7 V1 2.024199 1_555
O7 Te0 2.051689 1_655
O8 Te2 1.877121 1_455
O8 V3 1.962870 1_555
O9 Te1 1.877177 1_655
O9 V2 1.962620 1_555
O10 V1 1.660013 1_555
O11 V2 1.660081 1_555
O12 Te2 1.965837 1_445
O12 V3 2.016125 1_555
O12 Te1 2.244057 1_556
O13 V3 1.660049 1_555
O14 Te1 1.965823 1_665
O14 V2 2.016327 1_555
O14 Te2 2.244142 1_554
O15 Te3 1.877078 1_455
O15 V0 1.962740 1_545
