# generated using pymatgen
data_Yb(NiGe)2
_symmetry_space_group_name_H-M   'P 1'
_cell_length_a   5.60886548
_cell_length_b   5.60886548
_cell_length_c   5.60886548
_cell_angle_alpha   138.31705405
_cell_angle_beta   138.31705405
_cell_angle_gamma   60.41776105
_symmetry_Int_Tables_number   1
_chemical_formula_structural   Yb(NiGe)2
_chemical_formula_sum   'Yb1 Ni2 Ge2'
_cell_volume   77.20926517
_cell_formula_units_Z   1
loop_
 _symmetry_equiv_pos_site_id
 _symmetry_equiv_pos_as_xyz
  1  'x, y, z'
loop_
 _atom_site_type_symbol
 _atom_site_label
 _atom_site_symmetry_multiplicity
 _atom_site_fract_x
 _atom_site_fract_y
 _atom_site_fract_z
 _atom_site_occupancy
  Yb  Yb0  1  0.00000000  0.00000000  0.00000000  1
  Ni  Ni0  1  0.25000000  0.75000000  0.50000000  1
  Ni  Ni1  1  0.75000000  0.25000000  0.50000000  1
  Ge  Ge0  1  0.37274102  0.37274102  0.00000000  1
  Ge  Ge1  1  0.62725898  0.62725898  0.00000000  1
loop_
_geom_bond_atom_site_label_1
_geom_bond_atom_site_label_2
_geom_bond_distance
_geom_bond_site_symmetry_2
Ni0 Yb0 3.139417 1_666
Ni0 Yb0 3.139417 1_555
Ni0 Yb0 3.139417 1_566
Ni0 Yb0 3.139417 1_565
Ni1 Yb0 3.139417 1_555
Ni1 Yb0 3.139417 1_666
Ni1 Yb0 3.139417 1_655
Ni1 Yb0 3.139417 1_656
Ge0 Ni1 2.323366 1_454
Ge0 Ni0 2.323366 1_555
Ge0 Ni1 2.323366 1_555
Ge0 Ni0 2.323366 1_544
Ge0 Ge1 2.467380 1_555
Ge0 Yb0 3.079995 1_554
Ge0 Yb0 3.079995 1_655
Ge0 Yb0 3.079995 1_565
Ge0 Yb0 3.079995 1_666
Ge1 Ni1 2.323366 1_565
Ge1 Ni0 2.323366 1_655
Ge1 Ni0 2.323366 1_554
Ge1 Ni1 2.323366 1_554
Ge1 Yb0 3.079995 1_554
Ge1 Yb0 3.079995 1_666
Ge1 Yb0 3.079995 1_655
Ge1 Yb0 3.079995 1_565
