# generated using pymatgen
data_Sr3CaIrO6
_symmetry_space_group_name_H-M   'P 1'
_cell_length_a   6.86458367
_cell_length_b   6.86458367
_cell_length_c   6.86458373
_cell_angle_alpha   91.47602588
_cell_angle_beta   91.47602588
_cell_angle_gamma   91.47601696
_symmetry_Int_Tables_number   1
_chemical_formula_structural   Sr3CaIrO6
_chemical_formula_sum   'Sr6 Ca2 Ir2 O12'
_cell_volume   323.14877086
_cell_formula_units_Z   2
loop_
 _symmetry_equiv_pos_site_id
 _symmetry_equiv_pos_as_xyz
  1  'x, y, z'
loop_
 _atom_site_type_symbol
 _atom_site_label
 _atom_site_symmetry_multiplicity
 _atom_site_fract_x
 _atom_site_fract_y
 _atom_site_fract_z
 _atom_site_occupancy
  Sr  Sr0  1  0.88626800  0.25000000  0.61373200  1
  Sr  Sr1  1  0.38626800  0.11373200  0.75000000  1
  Sr  Sr2  1  0.75000000  0.38626800  0.11373200  1
  Sr  Sr3  1  0.25000000  0.61373200  0.88626800  1
  Sr  Sr4  1  0.61373200  0.88626800  0.25000000  1
  Sr  Sr5  1  0.11373200  0.75000000  0.38626800  1
  Ca  Ca0  1  0.75000000  0.75000000  0.75000000  1
  Ca  Ca1  1  0.25000000  0.25000000  0.25000000  1
  Ir  Ir0  1  0.50000000  0.50000000  0.50000000  1
  Ir  Ir1  1  0.00000000  0.00000000  0.00000000  1
  O  O0  1  0.91853500  0.71425400  0.05044400  1
  O  O1  1  0.44955600  0.78574600  0.58146500  1
  O  O2  1  0.05044400  0.91853500  0.71425400  1
  O  O3  1  0.28574600  0.94955600  0.08146500  1
  O  O4  1  0.94955600  0.08146500  0.28574600  1
  O  O5  1  0.71425400  0.05044400  0.91853500  1
  O  O6  1  0.58146500  0.44955600  0.78574600  1
  O  O7  1  0.78574600  0.58146500  0.44955600  1
  O  O8  1  0.41853500  0.55044400  0.21425400  1
  O  O9  1  0.21425400  0.41853500  0.55044400  1
  O  O10  1  0.55044400  0.21425400  0.41853500  1
  O  O11  1  0.08146500  0.28574600  0.94955600  1
loop_
_geom_bond_atom_site_label_1
_geom_bond_atom_site_label_2
_geom_bond_distance
_geom_bond_site_symmetry_2
Ca0 O5 2.360094 1_565
Ca0 O1 2.360094 1_555
Ca0 O0 2.360094 1_556
Ca0 O7 2.360094 1_555
Ca0 O2 2.360094 1_655
Ca0 O6 2.360094 1_555
Ca1 O10 2.360094 1_555
Ca1 O3 2.360094 1_545
Ca1 O9 2.360094 1_555
Ca1 O11 2.360094 1_554
Ca1 O8 2.360094 1_555
Ca1 O4 2.360094 1_455
Ir0 O1 2.066080 1_555
Ir0 O10 2.066080 1_555
Ir0 O6 2.066080 1_555
Ir0 O8 2.066080 1_555
Ir0 O7 2.066080 1_555
Ir0 O9 2.066080 1_555
Ir1 O5 2.066080 1_454
Ir1 O3 2.066080 1_545
Ir1 O2 2.066080 1_544
Ir1 O4 2.066080 1_455
Ir1 O0 2.066080 1_445
Ir1 O11 2.066080 1_554
O0 Sr2 2.557050 1_555
O0 Sr5 2.639095 1_655
O0 Sr3 2.663930 1_654
O0 Sr4 2.800064 1_555
O1 Sr1 2.557049 1_565
O1 Sr5 2.639095 1_555
O1 Sr4 2.663930 1_555
O1 Sr3 2.800065 1_555
O2 Sr5 2.557049 1_555
O2 Sr1 2.639095 1_565
O2 Sr0 2.663930 1_465
O2 Sr3 2.800064 1_555
O3 Sr4 2.557049 1_555
O3 Sr3 2.639095 1_554
O3 Sr1 2.663930 1_564
O3 Sr5 2.800065 1_555
O4 Sr0 2.557049 1_555
O4 Sr4 2.639095 1_545
O4 Sr5 2.663930 1_645
O4 Sr2 2.800064 1_555
O5 Sr1 2.557049 1_555
O5 Sr2 2.639095 1_556
O5 Sr4 2.663930 1_546
O5 Sr0 2.800065 1_555
O6 Sr2 2.557049 1_556
O6 Sr1 2.639095 1_555
O6 Sr3 2.663930 1_555
O6 Sr0 2.800064 1_555
O7 Sr5 2.557050 1_655
O7 Sr2 2.639095 1_555
O7 Sr0 2.663930 1_555
O7 Sr4 2.800064 1_555
O8 Sr3 2.557049 1_554
O8 Sr4 2.639095 1_555
O8 Sr2 2.663930 1_555
O8 Sr5 2.800064 1_555
O9 Sr0 2.557050 1_455
O9 Sr3 2.639095 1_555
O9 Sr5 2.663930 1_555
O9 Sr1 2.800064 1_555
O10 Sr4 2.557049 1_545
O10 Sr0 2.639095 1_555
O10 Sr1 2.663930 1_555
O10 Sr2 2.800065 1_555
O11 Sr3 2.557050 1_555
O11 Sr0 2.639095 1_455
O11 Sr2 2.663930 1_456
O11 Sr1 2.800064 1_555
