# generated using pymatgen
data_U(TeO3)3
_symmetry_space_group_name_H-M   'P 1'
_cell_length_a   11.48703300
_cell_length_b   11.48703300
_cell_length_c   11.48703300
_cell_angle_alpha   90.00000000
_cell_angle_beta   90.00000000
_cell_angle_gamma   90.00000000
_symmetry_Int_Tables_number   1
_chemical_formula_structural   U(TeO3)3
_chemical_formula_sum   'U8 Te24 O72'
_cell_volume   1515.73614151
_cell_formula_units_Z   8
loop_
 _symmetry_equiv_pos_site_id
 _symmetry_equiv_pos_as_xyz
  1  'x, y, z'
loop_
 _atom_site_type_symbol
 _atom_site_label
 _atom_site_symmetry_multiplicity
 _atom_site_fract_x
 _atom_site_fract_y
 _atom_site_fract_z
 _atom_site_occupancy
  U  U0  1  0.50000000  0.50000000  0.50000000  1
  U  U1  1  0.50000000  0.00000000  0.50000000  1
  U  U2  1  0.00000000  0.50000000  0.50000000  1
  U  U3  1  0.50000000  0.00000000  0.00000000  1
  U  U4  1  0.00000000  0.00000000  0.00000000  1
  U  U5  1  0.50000000  0.50000000  0.00000000  1
  U  U6  1  0.00000000  0.00000000  0.50000000  1
  U  U7  1  0.00000000  0.50000000  0.00000000  1
  Te  Te0  1  0.95088300  0.76294300  0.21410800  1
  Te  Te1  1  0.73705700  0.78589200  0.45088300  1
  Te  Te2  1  0.28589200  0.04911700  0.26294300  1
  Te  Te3  1  0.45088300  0.76294300  0.28589200  1
  Te  Te4  1  0.54911700  0.23705700  0.71410800  1
  Te  Te5  1  0.78589200  0.04911700  0.23705700  1
  Te  Te6  1  0.04911700  0.23705700  0.78589200  1
  Te  Te7  1  0.04911700  0.26294300  0.28589200  1
  Te  Te8  1  0.28589200  0.45088300  0.76294300  1
  Te  Te9  1  0.45088300  0.73705700  0.78589200  1
  Te  Te10  1  0.76294300  0.28589200  0.45088300  1
  Te  Te11  1  0.26294300  0.21410800  0.54911700  1
  Te  Te12  1  0.23705700  0.78589200  0.04911700  1
  Te  Te13  1  0.76294300  0.21410800  0.95088300  1
  Te  Te14  1  0.71410800  0.95088300  0.73705700  1
  Te  Te15  1  0.21410800  0.95088300  0.76294300  1
  Te  Te16  1  0.21410800  0.54911700  0.26294300  1
  Te  Te17  1  0.54911700  0.26294300  0.21410800  1
  Te  Te18  1  0.73705700  0.71410800  0.95088300  1
  Te  Te19  1  0.71410800  0.54911700  0.23705700  1
  Te  Te20  1  0.23705700  0.71410800  0.54911700  1
  Te  Te21  1  0.95088300  0.73705700  0.71410800  1
  Te  Te22  1  0.26294300  0.28589200  0.04911700  1
  Te  Te23  1  0.78589200  0.45088300  0.73705700  1
  O  O0  1  0.90835200  0.40835200  0.09164800  1
  O  O1  1  0.65592800  0.61325500  0.08821600  1
  O  O2  1  0.59164800  0.59164800  0.59164800  1
  O  O3  1  0.40786200  0.90786200  0.59213800  1
  O  O4  1  0.91820600  0.09826400  0.32417500  1
  O  O5  1  0.88674500  0.58821600  0.65592800  1
  O  O6  1  0.09164800  0.90835200  0.40835200  1
  O  O7  1  0.08821600  0.65592800  0.61325500  1
  O  O8  1  0.84407200  0.38674500  0.58821600  1
  O  O9  1  0.41178400  0.15592800  0.61325500  1
  O  O10  1  0.09213800  0.09213800  0.09213800  1
  O  O11  1  0.08179400  0.90173600  0.67582500  1
  O  O12  1  0.90786200  0.59213800  0.40786200  1
  O  O13  1  0.58179400  0.59826400  0.32417500  1
  O  O14  1  0.11325500  0.08821600  0.84407200  1
  O  O15  1  0.58821600  0.65592800  0.88674500  1
  O  O16  1  0.09826400  0.32417500  0.91820600  1
  O  O17  1  0.59164800  0.90835200  0.09164800  1
  O  O18  1  0.59213800  0.40786200  0.90786200  1
  O  O19  1  0.77325500  0.77325500  0.77325500  1
  O  O20  1  0.90173600  0.82417500  0.58179400  1
  O  O21  1  0.65592800  0.88674500  0.58821600  1
  O  O22  1  0.09164800  0.59164800  0.90835200  1
  O  O23  1  0.40173600  0.67582500  0.41820600  1
  O  O24  1  0.41820600  0.40173600  0.67582500  1
  O  O25  1  0.72674500  0.27325500  0.77325500  1
  O  O26  1  0.58179400  0.90173600  0.82417500  1
  O  O27  1  0.38674500  0.91178400  0.34407200  1
  O  O28  1  0.59826400  0.17582500  0.08179400  1
  O  O29  1  0.91178400  0.15592800  0.88674500  1
  O  O30  1  0.82417500  0.58179400  0.90173600  1
  O  O31  1  0.82417500  0.91820600  0.40173600  1
  O  O32  1  0.32417500  0.58179400  0.59826400  1
  O  O33  1  0.90835200  0.09164800  0.59164800  1
  O  O34  1  0.34407200  0.38674500  0.91178400  1
  O  O35  1  0.34407200  0.11325500  0.41178400  1
  O  O36  1  0.59213800  0.09213800  0.40786200  1
  O  O37  1  0.15592800  0.88674500  0.91178400  1
  O  O38  1  0.90786200  0.90786200  0.90786200  1
  O  O39  1  0.40835200  0.09164800  0.90835200  1
  O  O40  1  0.91178400  0.34407200  0.38674500  1
  O  O41  1  0.61325500  0.08821600  0.65592800  1
  O  O42  1  0.58821600  0.84407200  0.38674500  1
  O  O43  1  0.72674500  0.22674500  0.27325500  1
  O  O44  1  0.08179400  0.59826400  0.17582500  1
  O  O45  1  0.59826400  0.32417500  0.58179400  1
  O  O46  1  0.67582500  0.08179400  0.90173600  1
  O  O47  1  0.15592800  0.61325500  0.41178400  1
  O  O48  1  0.22674500  0.22674500  0.22674500  1
  O  O49  1  0.77325500  0.72674500  0.27325500  1
  O  O50  1  0.40835200  0.40835200  0.40835200  1
  O  O51  1  0.41820600  0.09826400  0.17582500  1
  O  O52  1  0.61325500  0.41178400  0.15592800  1
  O  O53  1  0.08821600  0.84407200  0.11325500  1
  O  O54  1  0.22674500  0.27325500  0.72674500  1
  O  O55  1  0.17582500  0.41820600  0.09826400  1
  O  O56  1  0.11325500  0.41178400  0.34407200  1
  O  O57  1  0.67582500  0.41820600  0.40173600  1
  O  O58  1  0.91820600  0.40173600  0.82417500  1
  O  O59  1  0.32417500  0.91820600  0.09826400  1
  O  O60  1  0.17582500  0.08179400  0.59826400  1
  O  O61  1  0.90173600  0.67582500  0.08179400  1
  O  O62  1  0.40173600  0.82417500  0.91820600  1
  O  O63  1  0.09826400  0.17582500  0.41820600  1
  O  O64  1  0.88674500  0.91178400  0.15592800  1
  O  O65  1  0.40786200  0.59213800  0.09213800  1
  O  O66  1  0.41178400  0.34407200  0.11325500  1
  O  O67  1  0.84407200  0.11325500  0.08821600  1
  O  O68  1  0.27325500  0.77325500  0.72674500  1
  O  O69  1  0.27325500  0.72674500  0.22674500  1
  O  O70  1  0.38674500  0.58821600  0.84407200  1
  O  O71  1  0.09213800  0.40786200  0.59213800  1
loop_
_geom_bond_atom_site_label_1
_geom_bond_atom_site_label_2
_geom_bond_distance
_geom_bond_site_symmetry_2
O0 U7 1.823440 1_655
O1 Te19 1.978047 1_555
O1 Te18 2.167783 1_554
O1 U5 2.434663 1_555
O2 U0 1.823440 1_555
O3 U1 1.833189 1_565
O4 Te5 1.905323 1_555
O4 Te7 2.456250 1_655
O4 U6 2.497221 1_655
O5 Te21 1.978047 1_555
O5 Te23 2.167783 1_555
O5 U2 2.434663 1_655
O6 U6 1.823440 1_565
O7 Te20 1.978047 1_555
O7 Te21 2.167783 1_455
O7 U2 2.434663 1_555
O8 Te23 1.978047 1_555
O8 Te10 2.167783 1_555
O8 U2 2.434663 1_655
O9 Te11 1.978047 1_555
O9 Te4 2.167783 1_555
O9 U1 2.434663 1_555
O10 U4 1.833189 1_555
O11 Te15 1.905323 1_555
O11 Te21 2.456250 1_455
O11 U6 2.497221 1_565
O12 U2 1.833189 1_655
O13 Te19 1.905323 1_555
O13 Te3 2.456250 1_555
O13 U0 2.497221 1_555
O14 Te6 1.978047 1_555
O14 Te15 2.167783 1_545
O14 U4 2.434663 1_556
O15 Te18 1.978047 1_555
O15 Te9 2.167783 1_555
O15 U5 2.434663 1_556
O16 Te6 1.905323 1_555
O16 Te22 2.456250 1_556
O16 U7 2.497221 1_556
O17 U3 1.823440 1_565
O18 U5 1.833189 1_556
O19 Te14 2.190393 1_555
O19 Te18 2.190393 1_555
O19 Te21 2.190393 1_555
O20 Te21 1.905323 1_555
O20 Te1 2.456250 1_555
O20 U6 2.497221 1_665
O21 Te14 1.978047 1_555
O21 Te1 2.167783 1_555
O21 U1 2.434663 1_565
O22 U7 1.823440 1_556
O23 Te3 1.905323 1_555
O23 Te20 2.456250 1_555
O23 U0 2.497221 1_555
O24 Te8 1.905323 1_555
O24 Te4 2.456250 1_555
O24 U0 2.497221 1_555
O25 Te23 2.190393 1_555
O25 Te13 2.190393 1_555
O25 Te4 2.190393 1_555
O26 Te14 1.905323 1_555
O26 Te9 2.456250 1_555
O26 U3 2.497221 1_566
O27 Te3 1.978047 1_555
O27 Te2 2.167783 1_565
O27 U1 2.434663 1_565
O28 Te17 1.905323 1_555
O28 Te13 2.456250 1_554
O28 U3 2.497221 1_555
O29 Te13 1.978047 1_555
O29 Te6 2.167783 1_655
O29 U4 2.434663 1_656
O30 Te18 1.905323 1_555
O30 Te23 2.456250 1_555
O30 U7 2.497221 1_656
O31 Te1 1.905323 1_555
O31 Te5 2.456250 1_565
O31 U6 2.497221 1_665
O32 Te20 1.905323 1_555
O32 Te8 2.456250 1_555
O32 U0 2.497221 1_555
O33 U6 1.823440 1_655
O34 Te8 1.978047 1_555
O34 Te22 2.167783 1_556
O34 U5 2.434663 1_556
O35 Te2 1.978047 1_555
O35 Te11 2.167783 1_555
O35 U1 2.434663 1_555
O36 U1 1.833189 1_555
O37 Te15 1.978047 1_555
O37 Te12 2.167783 1_556
O37 U4 2.434663 1_566
O38 U4 1.833189 1_666
O39 U3 1.823440 1_556
O40 Te10 1.978047 1_555
O40 Te7 2.167783 1_655
O40 U2 2.434663 1_655
O41 Te4 1.978047 1_555
O41 Te14 2.167783 1_545
O41 U1 2.434663 1_555
O42 Te1 1.978047 1_555
O42 Te3 2.167783 1_555
O42 U1 2.434663 1_565
O43 Te10 2.190393 1_555
O43 Te17 2.190393 1_555
O43 Te5 2.190393 1_555
O44 Te16 1.905323 1_555
O44 Te0 2.456250 1_455
O44 U7 2.497221 1_555
O45 Te4 1.905323 1_555
O45 Te10 2.456250 1_555
O45 U0 2.497221 1_555
O46 Te13 1.905323 1_555
O46 Te14 2.456250 1_545
O46 U3 2.497221 1_556
O47 Te16 1.978047 1_555
O47 Te20 2.167783 1_555
O47 U2 2.434663 1_555
O48 Te22 2.190393 1_555
O48 Te7 2.190393 1_555
O48 Te2 2.190393 1_555
O49 Te1 2.190393 1_555
O49 Te0 2.190393 1_555
O49 Te19 2.190393 1_555
O50 U0 1.823440 1_555
O51 Te2 1.905323 1_555
O51 Te17 2.456250 1_555
O51 U3 2.497221 1_555
O52 Te17 1.978047 1_555
O52 Te19 2.167783 1_555
O52 U5 2.434663 1_555
O53 Te12 1.978047 1_555
O53 Te0 2.167783 1_455
O53 U4 2.434663 1_565
O54 Te8 2.190393 1_555
O54 Te11 2.190393 1_555
O54 Te6 2.190393 1_555
O55 Te22 1.905323 1_555
O55 Te16 2.456250 1_555
O55 U7 2.497221 1_555
O56 Te7 1.978047 1_555
O56 Te16 2.167783 1_555
O56 U2 2.434663 1_555
O57 Te10 1.905323 1_555
O57 Te19 2.456250 1_555
O57 U0 2.497221 1_555
O58 Te23 1.905323 1_555
O58 Te6 2.456250 1_655
O58 U7 2.497221 1_656
O59 Te12 1.905323 1_555
O59 Te2 2.456250 1_565
O59 U3 2.497221 1_565
O60 Te11 1.905323 1_555
O60 Te15 2.456250 1_545
O60 U6 2.497221 1_555
O61 Te0 1.905323 1_555
O61 Te18 2.456250 1_554
O61 U7 2.497221 1_655
O62 Te9 1.905323 1_555
O62 Te12 2.456250 1_556
O62 U3 2.497221 1_566
O63 Te7 1.905323 1_555
O63 Te11 2.456250 1_555
O63 U6 2.497221 1_555
O64 Te0 1.978047 1_555
O64 Te5 2.167783 1_565
O64 U4 2.434663 1_665
O65 U5 1.833189 1_555
O66 Te22 1.978047 1_555
O66 Te17 2.167783 1_555
O66 U5 2.434663 1_555
O67 Te5 1.978047 1_555
O67 Te13 2.167783 1_554
O67 U4 2.434663 1_655
O68 Te9 2.190393 1_555
O68 Te15 2.190393 1_555
O68 Te20 2.190393 1_555
O69 Te3 2.190393 1_555
O69 Te16 2.190393 1_555
O69 Te12 2.190393 1_555
O70 Te9 1.978047 1_555
O70 Te8 2.167783 1_555
O70 U5 2.434663 1_556
O71 U2 1.833189 1_555
