# generated using pymatgen
data_Y2Be2GeO7
_symmetry_space_group_name_H-M   'P 1'
_cell_length_a   7.46130800
_cell_length_b   7.46130800
_cell_length_c   4.83343800
_cell_angle_alpha   90.00000000
_cell_angle_beta   90.00000000
_cell_angle_gamma   90.00000000
_symmetry_Int_Tables_number   1
_chemical_formula_structural   Y2Be2GeO7
_chemical_formula_sum   'Y4 Be4 Ge2 O14'
_cell_volume   269.08289275
_cell_formula_units_Z   2
loop_
 _symmetry_equiv_pos_site_id
 _symmetry_equiv_pos_as_xyz
  1  'x, y, z'
loop_
 _atom_site_type_symbol
 _atom_site_label
 _atom_site_symmetry_multiplicity
 _atom_site_fract_x
 _atom_site_fract_y
 _atom_site_fract_z
 _atom_site_occupancy
  Y  Y0  1  0.34175000  0.15825000  0.50594000  1
  Y  Y1  1  0.84175000  0.34175000  0.49406000  1
  Y  Y2  1  0.15825000  0.65825000  0.49406000  1
  Y  Y3  1  0.65825000  0.84175000  0.50594000  1
  Be  Be0  1  0.13488200  0.36511800  0.95226400  1
  Be  Be1  1  0.63488200  0.13488200  0.04773600  1
  Be  Be2  1  0.36511800  0.86511800  0.04773600  1
  Be  Be3  1  0.86511800  0.63488200  0.95226400  1
  Ge  Ge0  1  0.00000000  0.00000000  0.00000000  1
  Ge  Ge1  1  0.50000000  0.50000000  0.00000000  1
  O  O0  1  0.00000000  0.50000000  0.81305700  1
  O  O1  1  0.50000000  0.00000000  0.18694300  1
  O  O2  1  0.14207600  0.35792400  0.28117000  1
  O  O3  1  0.64207600  0.14207600  0.71883000  1
  O  O4  1  0.35792400  0.85792400  0.71883000  1
  O  O5  1  0.85792400  0.64207600  0.28117000  1
  O  O6  1  0.08205400  0.17151000  0.78433400  1
  O  O7  1  0.82849000  0.08205400  0.21566600  1
  O  O8  1  0.17151000  0.91794600  0.21566600  1
  O  O9  1  0.91794600  0.82849000  0.78433400  1
  O  O10  1  0.58205400  0.32849000  0.21566600  1
  O  O11  1  0.41794600  0.67151000  0.21566600  1
  O  O12  1  0.67151000  0.58205400  0.78433400  1
  O  O13  1  0.32849000  0.41794600  0.78433400  1
loop_
_geom_bond_atom_site_label_1
_geom_bond_atom_site_label_2
_geom_bond_distance
_geom_bond_site_symmetry_2
Be0 O0 1.574291 1_555
Be0 O2 1.591558 1_556
Be0 O6 1.703223 1_555
Be0 O13 1.703223 1_555
Be1 O1 1.574291 1_555
Be1 O3 1.591558 1_554
Be1 O10 1.703223 1_555
Be1 O7 1.703223 1_555
Be2 O1 1.574291 1_565
Be2 O4 1.591558 1_554
Be2 O11 1.703223 1_555
Be2 O8 1.703223 1_555
Be3 O0 1.574291 1_655
Be3 O5 1.591558 1_556
Be3 O12 1.703223 1_555
Be3 O9 1.703223 1_555
Ge0 O7 1.760410 1_455
Ge0 O6 1.760410 1_554
Ge0 O9 1.760410 1_444
Ge0 O8 1.760410 1_545
Ge1 O12 1.760410 1_554
Ge1 O10 1.760410 1_555
Ge1 O13 1.760410 1_554
Ge1 O11 1.760410 1_555
O0 Y1 2.272809 1_455
O0 Y2 2.272809 1_555
O1 Y3 2.272809 1_545
O1 Y0 2.272809 1_555
O2 Y0 2.370543 1_555
O2 Y1 2.468741 1_455
O2 Y2 2.468741 1_555
O3 Y1 2.370543 1_555
O3 Y3 2.468741 1_545
O3 Y0 2.468741 1_555
O4 Y2 2.370543 1_555
O4 Y3 2.468741 1_555
O4 Y0 2.468741 1_565
O5 Y3 2.370543 1_555
O5 Y1 2.468741 1_555
O5 Y2 2.468741 1_655
O6 Y0 2.361144 1_555
O6 Y1 2.607047 1_455
O7 Y1 2.361144 1_555
O7 Y3 2.607047 1_545
O8 Y2 2.361144 1_555
O8 Y0 2.607047 1_565
O9 Y3 2.361144 1_555
O9 Y2 2.607047 1_655
O10 Y1 2.361144 1_555
O10 Y0 2.607047 1_555
O11 Y2 2.361144 1_555
O11 Y3 2.607047 1_555
O12 Y3 2.361144 1_555
O12 Y1 2.607047 1_555
O13 Y0 2.361144 1_555
O13 Y2 2.607047 1_555
