# generated using pymatgen
data_BaTi6O13
_symmetry_space_group_name_H-M   'P 1'
_cell_length_a   7.49163146
_cell_length_b   7.54486832
_cell_length_c   9.90478199
_cell_angle_alpha   72.46169757
_cell_angle_beta   74.52269225
_cell_angle_gamma   61.05194511
_symmetry_Int_Tables_number   1
_chemical_formula_structural   BaTi6O13
_chemical_formula_sum   'Ba2 Ti12 O26'
_cell_volume   462.19227179
_cell_formula_units_Z   2
loop_
 _symmetry_equiv_pos_site_id
 _symmetry_equiv_pos_as_xyz
  1  'x, y, z'
loop_
 _atom_site_type_symbol
 _atom_site_label
 _atom_site_symmetry_multiplicity
 _atom_site_fract_x
 _atom_site_fract_y
 _atom_site_fract_z
 _atom_site_occupancy
  Ba  Ba0  1  0.67597883  0.03063372  0.13000186  1
  Ba  Ba1  1  0.32402117  0.96936628  0.86999814  1
  Ti  Ti0  1  0.21011177  0.45635101  0.01945759  1
  Ti  Ti1  1  0.13098114  0.27564200  0.49803012  1
  Ti  Ti2  1  0.92396586  0.91761589  0.76646590  1
  Ti  Ti3  1  0.31944563  0.62860740  0.24874042  1
  Ti  Ti4  1  0.78988823  0.54364899  0.98054241  1
  Ti  Ti5  1  0.24355861  0.49355223  0.72137508  1
  Ti  Ti6  1  0.40933731  0.84407182  0.49710711  1
  Ti  Ti7  1  0.68055437  0.37139260  0.75125958  1
  Ti  Ti8  1  0.75644139  0.50644777  0.27862492  1
  Ti  Ti9  1  0.07603414  0.08238411  0.23353410  1
  Ti  Ti10  1  0.86901886  0.72435800  0.50196988  1
  Ti  Ti11  1  0.59066269  0.15592818  0.50289289  1
  O  O0  1  0.16741402  0.00955149  0.61303643  1
  O  O1  1  0.56246046  0.67656982  0.14017744  1
  O  O2  1  0.98274457  0.27600295  0.36720615  1
  O  O3  1  0.11790677  0.55407752  0.39068192  1
  O  O4  1  0.37002344  0.45809235  0.12792231  1
  O  O5  1  0.15647812  0.70643489  0.85947813  1
  O  O6  1  0.83258598  0.99044851  0.38696357  1
  O  O7  1  0.12532479  0.86888610  0.14731271  1
  O  O8  1  0.25848284  0.17115514  0.10988767  1
  O  O9  1  0.01725543  0.72399705  0.63279385  1
  O  O10  1  0.72352166  0.15184638  0.63985005  1
  O  O11  1  0.62997656  0.54190765  0.87207769  1
  O  O12  1  0.69109487  0.71088333  0.37743199  1
  O  O13  1  0.94443744  0.58346705  0.11703262  1
  O  O14  1  0.27647834  0.84815362  0.36014995  1
  O  O15  1  0.60104316  0.87427452  0.59959957  1
  O  O16  1  0.74151716  0.82884486  0.89011233  1
  O  O17  1  0.30890513  0.28911667  0.62256801  1
  O  O18  1  0.45338374  0.58484048  0.62583122  1
  O  O19  1  0.39895684  0.12572548  0.40040043  1
  O  O20  1  0.88209323  0.44592248  0.60931808  1
  O  O21  1  0.87467521  0.13111390  0.85268729  1
  O  O22  1  0.84352188  0.29356511  0.14052187  1
  O  O23  1  0.05556256  0.41653295  0.88296738  1
  O  O24  1  0.54661626  0.41515952  0.37416878  1
  O  O25  1  0.43753954  0.32343018  0.85982256  1
loop_
_geom_bond_atom_site_label_1
_geom_bond_atom_site_label_2
_geom_bond_distance
_geom_bond_site_symmetry_2
Ba0 O8 2.818090 1_555
Ba0 O21 2.826723 1_554
Ba0 O22 2.850697 1_555
Ba0 O12 2.856458 1_545
Ba0 O4 2.912855 1_555
Ba0 O6 2.954742 1_545
Ba0 O19 2.957185 1_555
Ba0 O13 2.999808 1_545
Ba0 O16 3.006420 1_544
Ba0 O7 3.009321 1_645
Ba0 O1 3.140189 1_545
Ba0 O25 3.225020 1_554
Ba1 O16 2.818090 1_555
Ba1 O7 2.826723 1_556
Ba1 O5 2.850697 1_555
Ba1 O17 2.856458 1_565
Ba1 O11 2.912855 1_555
Ba1 O0 2.954742 1_565
Ba1 O15 2.957185 1_555
Ba1 O23 2.999808 1_565
Ba1 O8 3.006420 1_566
Ba1 O21 3.009321 1_465
Ba1 O25 3.140189 1_565
Ba1 O1 3.225020 1_556
O0 Ti1 1.913063 1_555
O0 Ti6 1.930005 1_545
O0 Ti2 2.286262 1_445
O1 Ti8 1.958813 1_555
O1 Ti3 1.990005 1_555
O1 Ti4 2.067009 1_554
O2 Ti1 1.917110 1_655
O2 Ti8 1.920448 1_555
O2 Ti9 2.014675 1_655
O3 Ti10 1.944190 1_455
O3 Ti3 1.945487 1_555
O3 Ti1 2.015815 1_555
O4 Ti0 1.816642 1_555
O4 Ti3 1.855989 1_555
O5 Ti2 1.925291 1_455
O5 Ti0 2.009092 1_556
O5 Ti5 2.170256 1_555
O6 Ti10 1.913063 1_555
O6 Ti11 1.930005 1_565
O6 Ti9 2.286262 1_665
O7 Ti3 1.881666 1_555
O7 Ti9 1.882915 1_565
O8 Ti9 1.820750 1_555
O8 Ti0 1.954613 1_555
O9 Ti10 1.917110 1_455
O9 Ti5 1.920448 1_555
O9 Ti2 2.014675 1_455
O10 Ti11 1.870180 1_555
O10 Ti2 2.012782 1_545
O10 Ti7 2.112111 1_555
O11 Ti4 1.816642 1_555
O11 Ti7 1.855989 1_555
O12 Ti8 1.870738 1_555
O12 Ti6 2.049295 1_555
O12 Ti10 2.095934 1_555
O13 Ti0 1.870678 1_655
O13 Ti8 1.977777 1_555
O13 Ti4 2.162259 1_554
O14 Ti6 1.870180 1_555
O14 Ti9 2.012782 1_565
O14 Ti3 2.112111 1_555
O15 Ti10 1.915659 1_555
O15 Ti11 2.022957 1_565
O15 Ti6 2.092725 1_555
O16 Ti2 1.820750 1_555
O16 Ti4 1.954613 1_555
O17 Ti5 1.870738 1_555
O17 Ti11 2.049295 1_555
O17 Ti1 2.095934 1_555
O18 Ti6 1.912262 1_555
O18 Ti5 1.924115 1_555
O18 Ti7 2.074316 1_555
O19 Ti1 1.915659 1_555
O19 Ti6 2.022957 1_545
O19 Ti11 2.092725 1_555
O20 Ti1 1.944190 1_655
O20 Ti7 1.945487 1_555
O20 Ti10 2.015815 1_555
O21 Ti7 1.881666 1_555
O21 Ti2 1.882915 1_545
O22 Ti9 1.925291 1_655
O22 Ti4 2.009092 1_554
O22 Ti8 2.170256 1_555
O23 Ti4 1.870678 1_455
O23 Ti5 1.977777 1_555
O23 Ti0 2.162259 1_556
O24 Ti11 1.912262 1_555
O24 Ti8 1.924115 1_555
O24 Ti3 2.074316 1_555
O25 Ti5 1.958813 1_555
O25 Ti7 1.990005 1_555
O25 Ti0 2.067009 1_556
