# generated using pymatgen
data_B3H5
_symmetry_space_group_name_H-M   'P 1'
_cell_length_a   7.12604600
_cell_length_b   11.46633000
_cell_length_c   13.65018220
_cell_angle_alpha   55.57662930
_cell_angle_beta   90.00000000
_cell_angle_gamma   90.00000000
_symmetry_Int_Tables_number   1
_chemical_formula_structural   B3H5
_chemical_formula_sum   'B36 H60'
_cell_volume   920.03394326
_cell_formula_units_Z   12
loop_
 _symmetry_equiv_pos_site_id
 _symmetry_equiv_pos_as_xyz
  1  'x, y, z'
loop_
 _atom_site_type_symbol
 _atom_site_label
 _atom_site_symmetry_multiplicity
 _atom_site_fract_x
 _atom_site_fract_y
 _atom_site_fract_z
 _atom_site_occupancy
  B  B0  1  0.19847300  0.12723400  0.65862400  1
  B  B1  1  0.87089600  0.71206800  0.46898500  1
  B  B2  1  0.76766000  0.00987400  0.37007000  1
  B  B3  1  0.23234000  0.99012600  0.62993000  1
  B  B4  1  0.50838100  0.31950500  0.45471300  1
  B  B5  1  0.13440400  0.32433100  0.84754200  1
  B  B6  1  0.00838100  0.68049500  0.04528700  1
  B  B7  1  0.79120200  0.59721400  0.08150700  1
  B  B8  1  0.26766000  0.99012600  0.12993000  1
  B  B9  1  0.36559600  0.32433100  0.34754200  1
  B  B10  1  0.87208700  0.70388500  0.60070400  1
  B  B11  1  0.62791300  0.70388500  0.10070400  1
  B  B12  1  0.69847300  0.87276600  0.84137600  1
  B  B13  1  0.30152700  0.12723400  0.15862400  1
  B  B14  1  0.62910400  0.71206800  0.96898500  1
  B  B15  1  0.86007400  0.71033800  0.92706800  1
  B  B16  1  0.37208700  0.29611500  0.89929600  1
  B  B17  1  0.99161900  0.31950500  0.95471300  1
  B  B18  1  0.05581700  0.13093800  0.55032300  1
  B  B19  1  0.63992600  0.71033800  0.42706800  1
  B  B20  1  0.44418300  0.13093800  0.05032300  1
  B  B21  1  0.73234000  0.00987400  0.87007000  1
  B  B22  1  0.86559600  0.67566900  0.15245800  1
  B  B23  1  0.70879800  0.59721400  0.58150700  1
  B  B24  1  0.12791300  0.29611500  0.39929600  1
  B  B25  1  0.63440400  0.67566900  0.65245800  1
  B  B26  1  0.20879800  0.40278600  0.91849300  1
  B  B27  1  0.55581700  0.86906200  0.94967700  1
  B  B28  1  0.36007400  0.28966200  0.57293200  1
  B  B29  1  0.29120200  0.40278600  0.41849300  1
  B  B30  1  0.12910400  0.28793200  0.53101500  1
  B  B31  1  0.94418300  0.86906200  0.44967700  1
  B  B32  1  0.49161900  0.68049500  0.54528700  1
  B  B33  1  0.80152700  0.87276600  0.34137600  1
  B  B34  1  0.37089600  0.28793200  0.03101500  1
  B  B35  1  0.13992600  0.28966200  0.07293200  1
  H  H0  1  0.16660300  0.87758000  0.70410800  1
  H  H1  1  0.36588000  0.09675500  0.25107700  1
  H  H2  1  0.49288600  0.34370000  0.05053300  1
  H  H3  1  0.39307600  0.89878200  0.93202500  1
  H  H4  1  0.72432200  0.47237800  0.63250600  1
  H  H5  1  0.00711400  0.34370000  0.55053300  1
  H  H6  1  0.50970600  0.65339800  0.17547300  1
  H  H7  1  0.75874800  0.77662900  0.62513000  1
  H  H8  1  0.10692400  0.89878200  0.43202500  1
  H  H9  1  0.00031300  0.76790800  0.08166600  1
  H  H10  1  0.50711400  0.65630000  0.94946700  1
  H  H11  1  0.83785900  0.36833500  0.93345900  1
  H  H12  1  0.63717700  0.94434200  0.97876600  1
  H  H13  1  0.36282300  0.05565800  0.02123400  1
  H  H14  1  0.22432200  0.52762200  0.86749400  1
  H  H15  1  0.77567800  0.47237800  0.13250600  1
  H  H16  1  0.27567800  0.52762200  0.36749400  1
  H  H17  1  0.13412000  0.09675500  0.75107700  1
  H  H18  1  0.08333200  0.33587100  0.12656000  1
  H  H19  1  0.86282300  0.94434200  0.47876600  1
  H  H20  1  0.08518800  0.37659400  0.74777900  1
  H  H21  1  0.24125200  0.22337100  0.37487000  1
  H  H22  1  0.86588000  0.90324500  0.24892300  1
  H  H23  1  0.89307600  0.10121800  0.56797500  1
  H  H24  1  0.33339700  0.87758000  0.20410800  1
  H  H25  1  0.33927800  0.04755000  0.67917700  1
  H  H26  1  0.41666800  0.33587100  0.62656000  1
  H  H27  1  0.91481200  0.62340600  0.25222100  1
  H  H28  1  0.49029400  0.34660200  0.82452700  1
  H  H29  1  0.87237700  0.01364400  0.91894600  1
  H  H30  1  0.99968700  0.23209200  0.91833400  1
  H  H31  1  0.16214100  0.63166500  0.06654100  1
  H  H32  1  0.83339700  0.12242000  0.29589200  1
  H  H33  1  0.66660300  0.12242000  0.79589200  1
  H  H34  1  0.49968700  0.76790800  0.58166600  1
  H  H35  1  0.62762300  0.01364400  0.41894600  1
  H  H36  1  0.58518800  0.62340600  0.75222100  1
  H  H37  1  0.16072200  0.04755000  0.17917700  1
  H  H38  1  0.00045200  0.21449600  0.06963400  1
  H  H39  1  0.25874800  0.22337100  0.87487000  1
  H  H40  1  0.99029400  0.65339800  0.67547300  1
  H  H41  1  0.63412000  0.90324500  0.74892300  1
  H  H42  1  0.33785900  0.63166500  0.56654100  1
  H  H43  1  0.37237700  0.98635600  0.58105400  1
  H  H44  1  0.50045200  0.78550400  0.43036600  1
  H  H45  1  0.12762300  0.98635600  0.08105400  1
  H  H46  1  0.99288600  0.65630000  0.44946700  1
  H  H47  1  0.60692400  0.10121800  0.06797500  1
  H  H48  1  0.13717700  0.05565800  0.52123400  1
  H  H49  1  0.66072200  0.95245000  0.32082300  1
  H  H50  1  0.41481200  0.37659400  0.24777900  1
  H  H51  1  0.83927800  0.95245000  0.82082300  1
  H  H52  1  0.99954800  0.78550400  0.93036600  1
  H  H53  1  0.91666800  0.66412900  0.87344000  1
  H  H54  1  0.00970600  0.34660200  0.32452700  1
  H  H55  1  0.58333200  0.66412900  0.37344000  1
  H  H56  1  0.50031300  0.23209200  0.41833400  1
  H  H57  1  0.49954800  0.21449600  0.56963400  1
  H  H58  1  0.74125200  0.77662900  0.12513000  1
  H  H59  1  0.66214100  0.36833500  0.43345900  1
loop_
_geom_bond_atom_site_label_1
_geom_bond_atom_site_label_2
_geom_bond_distance
_geom_bond_site_symmetry_2
B0 H17 1.194332 1_555
B0 H25 1.276906 1_555
B1 H46 1.195071 1_555
B2 H32 1.196959 1_555
B2 H35 1.214665 1_555
B2 H19 1.401933 1_545
B2 H49 1.402351 1_545
B3 H0 1.196959 1_555
B3 H43 1.214665 1_555
B3 H48 1.401933 1_565
B3 H25 1.402351 1_565
B4 H59 1.189355 1_555
B4 H57 1.333804 1_555
B4 H56 1.348053 1_555
B5 H20 1.189084 1_555
B5 H39 1.332736 1_555
B5 H30 1.348510 1_455
B6 H31 1.189355 1_555
B6 H52 1.333804 1_454
B6 H9 1.348053 1_555
B7 H15 1.191292 1_555
B8 H24 1.196959 1_555
B8 H45 1.214665 1_555
B8 H13 1.401933 1_565
B8 H37 1.402351 1_565
B9 H50 1.189084 1_555
B9 H21 1.332736 1_555
B9 H56 1.348510 1_555
B10 H40 1.190934 1_555
B10 H7 1.331783 1_555
B11 H6 1.190934 1_555
B11 H58 1.331783 1_555
B12 H41 1.194332 1_555
B12 H51 1.276906 1_555
B13 H1 1.194332 1_555
B13 H37 1.276906 1_555
B14 H10 1.195071 1_555
B15 H53 1.190704 1_555
B15 H52 1.332877 1_555
B16 H28 1.190934 1_555
B16 H39 1.331783 1_555
B17 H11 1.189355 1_555
B17 H38 1.333804 1_656
B17 H30 1.348053 1_555
B18 H23 1.194260 1_455
B18 H48 1.275305 1_555
B19 H55 1.190704 1_555
B19 H44 1.332877 1_555
B20 H47 1.194260 1_555
B20 H13 1.275305 1_555
B21 H33 1.196959 1_555
B21 H29 1.214665 1_555
B21 H12 1.401933 1_545
B21 H51 1.402351 1_545
B22 H27 1.189084 1_555
B22 H58 1.332736 1_555
B22 H9 1.348510 1_655
B23 H4 1.191292 1_555
B24 H54 1.190934 1_555
B24 H21 1.331783 1_555
B25 H36 1.189084 1_555
B25 H7 1.332736 1_555
B25 H34 1.348510 1_555
B26 H14 1.191292 1_555
B27 H3 1.194260 1_555
B27 H12 1.275305 1_555
B28 H26 1.190704 1_555
B28 H57 1.332877 1_555
B29 H16 1.191292 1_555
B30 H5 1.195071 1_555
B31 H8 1.194260 1_655
B31 H19 1.275305 1_555
B32 H42 1.189355 1_555
B32 H44 1.333804 1_555
B32 H34 1.348053 1_555
B33 H22 1.194332 1_555
B33 H49 1.276906 1_555
B34 H2 1.195071 1_555
B35 H18 1.190704 1_555
B35 H38 1.332877 1_555
