# generated using pymatgen
data_Hg3SO6
_symmetry_space_group_name_H-M   'P 1'
_cell_length_a   7.10967401
_cell_length_b   7.10959758
_cell_length_c   10.13306890
_cell_angle_alpha   89.99888089
_cell_angle_beta   90.00027507
_cell_angle_gamma   119.99955851
_symmetry_Int_Tables_number   1
_chemical_formula_structural   Hg3SO6
_chemical_formula_sum   'Hg9 S3 O18'
_cell_volume   443.57623146
_cell_formula_units_Z   3
loop_
 _symmetry_equiv_pos_site_id
 _symmetry_equiv_pos_as_xyz
  1  'x, y, z'
loop_
 _atom_site_type_symbol
 _atom_site_label
 _atom_site_symmetry_multiplicity
 _atom_site_fract_x
 _atom_site_fract_y
 _atom_site_fract_z
 _atom_site_occupancy
  Hg  Hg0  1  0.50553300  0.19440889  0.68305510  1
  Hg  Hg1  1  0.49447134  0.68888490  0.65027515  1
  Hg  Hg2  1  0.31111613  0.80558016  0.98360899  1
  Hg  Hg3  1  0.70926600  0.00000198  0.33333815  1
  Hg  Hg4  1  0.68888477  0.49446704  0.34972560  1
  Hg  Hg5  1  0.80559255  0.31112045  0.01638523  1
  Hg  Hg6  1  0.29073295  0.29073418  -0.00000614  1
  Hg  Hg7  1  -0.00000011  0.70926837  0.66666528  1
  Hg  Hg8  1  0.19440872  0.50553181  0.31695008  1
  S  S0  1  0.00002321  0.23219169  0.66667938  1
  S  S1  1  0.76780308  0.76780349  -0.00000525  1
  S  S2  1  0.23220492  0.00003265  0.33332624  1
  O  O0  1  0.11389111  0.41183470  0.56988862  1
  O  O1  1  0.14709761  0.47520513  0.04801546  1
  O  O2  1  0.70203014  0.58815927  0.09678396  1
  O  O3  1  0.15851268  0.19430327  0.73835434  1
  O  O4  1  0.29795138  0.88614627  0.23654879  1
  O  O5  1  0.85290382  0.32810539  0.28532006  1
  O  O6  1  0.52478231  0.67188132  0.38136022  1
  O  O7  1  0.67189721  0.52479342  0.61864485  1
  O  O8  1  0.03580292  0.84150239  0.40500124  1
  O  O9  1  0.80567363  0.96419863  0.07167519  1
  O  O10  1  0.58816969  0.70205238  0.90319668  1
  O  O11  1  0.96420235  0.80567480  0.92831777  1
  O  O12  1  0.84148892  0.03579371  0.59499390  1
  O  O13  1  0.32810993  0.85290027  0.71469104  1
  O  O14  1  0.47521071  0.14709941  0.95197205  1
  O  O15  1  0.41179712  0.11386881  0.43011214  1
  O  O16  1  0.19432411  0.15851161  0.26165218  1
  O  O17  1  0.88611879  0.29794362  0.76347068  1
loop_
_geom_bond_atom_site_label_1
_geom_bond_atom_site_label_2
_geom_bond_distance
_geom_bond_site_symmetry_2
Hg0 O13 2.127528 1_545
Hg0 O7 2.136361 1_555
Hg0 O3 2.529671 1_555
Hg0 O17 2.556498 1_555
Hg0 O15 2.638158 1_555
Hg0 O14 2.740883 1_555
Hg1 O7 2.127580 1_555
Hg1 O13 2.136352 1_555
Hg1 O12 2.529593 1_565
Hg1 O0 2.556385 1_555
Hg1 O10 2.637893 1_555
Hg1 O6 2.740873 1_555
Hg2 O14 2.127592 1_565
Hg2 O1 2.136293 1_556
Hg2 O11 2.529604 1_455
Hg2 O10 2.556461 1_555
Hg2 O4 2.638140 1_556
Hg2 O13 2.740900 1_555
Hg3 O5 2.082994 1_555
Hg3 O6 2.083115 1_545
Hg4 O6 2.127580 1_555
Hg4 O5 2.136342 1_555
Hg4 O8 2.529691 1_655
Hg4 O15 2.556499 1_555
Hg4 O2 2.638082 1_555
Hg4 O7 2.740920 1_555
Hg5 O1 2.127527 1_655
Hg5 O14 2.136391 1_554
Hg5 O9 2.529576 1_545
Hg5 O2 2.556479 1_555
Hg5 O17 2.637831 1_554
Hg5 O5 2.741072 1_555
Hg6 O1 2.083035 1_555
Hg6 O14 2.083077 1_554
Hg7 O7 2.083036 1_455
Hg7 O13 2.083090 1_555
Hg8 O5 2.127527 1_455
Hg8 O6 2.136333 1_555
Hg8 O16 2.529722 1_555
Hg8 O4 2.556580 1_555
Hg8 O0 2.638042 1_555
Hg8 O1 2.741071 1_555
O0 S0 1.488139 1_555
O2 S1 1.488131 1_555
O3 S0 1.474199 1_555
O4 S2 1.488044 1_565
O8 S2 1.474384 1_565
O9 S1 1.474378 1_555
O10 S1 1.488182 1_556
O11 S1 1.474386 1_556
O12 S0 1.474442 1_655
O15 S2 1.487896 1_555
O16 S2 1.474085 1_555
O17 S0 1.488249 1_655
