# generated using pymatgen
data_Ba8Sb6S17
_symmetry_space_group_name_H-M   'P 1'
_cell_length_a   14.01549400
_cell_length_b   11.61829700
_cell_length_c   22.88945479
_cell_angle_alpha   88.93154534
_cell_angle_beta   90.00000000
_cell_angle_gamma   90.00000000
_symmetry_Int_Tables_number   1
_chemical_formula_structural   Ba8Sb6S17
_chemical_formula_sum   'Ba32 Sb24 S68'
_cell_volume   3726.58314097
_cell_formula_units_Z   4
loop_
 _symmetry_equiv_pos_site_id
 _symmetry_equiv_pos_as_xyz
  1  'x, y, z'
loop_
 _atom_site_type_symbol
 _atom_site_label
 _atom_site_symmetry_multiplicity
 _atom_site_fract_x
 _atom_site_fract_y
 _atom_site_fract_z
 _atom_site_occupancy
  Ba  Ba0  1  0.84239800  0.75719200  0.92973300  1
  Ba  Ba1  1  0.15760200  0.75719200  0.42973300  1
  Ba  Ba2  1  0.34323200  0.00000000  0.75000000  1
  Ba  Ba3  1  0.49516600  0.24030100  0.10145200  1
  Ba  Ba4  1  0.51602100  0.79917900  0.61815000  1
  Ba  Ba5  1  0.51602100  0.20082100  0.88185000  1
  Ba  Ba6  1  0.50483400  0.75969900  0.89854800  1
  Ba  Ba7  1  0.16169800  0.17956900  0.88426600  1
  Ba  Ba8  1  0.48397900  0.20082100  0.38185000  1
  Ba  Ba9  1  0.49718600  0.50000000  0.75000000  1
  Ba  Ba10  1  0.83830200  0.17956900  0.38426600  1
  Ba  Ba11  1  0.84135100  0.14291100  0.88551600  1
  Ba  Ba12  1  0.16169800  0.82043100  0.61573400  1
  Ba  Ba13  1  0.15864900  0.85708900  0.11448400  1
  Ba  Ba14  1  0.49516600  0.75969900  0.39854800  1
  Ba  Ba15  1  0.16931000  0.50000000  0.75000000  1
  Ba  Ba16  1  0.83069000  0.50000000  0.25000000  1
  Ba  Ba17  1  0.16911900  0.77127800  0.91027700  1
  Ba  Ba18  1  0.15864900  0.14291100  0.38551600  1
  Ba  Ba19  1  0.48397900  0.79917900  0.11815000  1
  Ba  Ba20  1  0.84239800  0.24280800  0.57026700  1
  Ba  Ba21  1  0.15303500  0.50000000  0.25000000  1
  Ba  Ba22  1  0.15760200  0.24280800  0.07026700  1
  Ba  Ba23  1  0.65676800  0.00000000  0.25000000  1
  Ba  Ba24  1  0.84135100  0.85708900  0.61448400  1
  Ba  Ba25  1  0.83830200  0.82043100  0.11573400  1
  Ba  Ba26  1  0.50281400  0.50000000  0.25000000  1
  Ba  Ba27  1  0.50483400  0.24030100  0.60145200  1
  Ba  Ba28  1  0.16911900  0.22872200  0.58972300  1
  Ba  Ba29  1  0.83088100  0.22872200  0.08972300  1
  Ba  Ba30  1  0.83088100  0.77127800  0.41027700  1
  Ba  Ba31  1  0.84696500  0.50000000  0.75000000  1
  Sb  Sb0  1  0.30834500  0.43811300  0.42431600  1
  Sb  Sb1  1  0.01712600  0.43194800  0.42485300  1
  Sb  Sb2  1  0.99842100  0.84162700  0.27975500  1
  Sb  Sb3  1  0.33258800  0.46433500  0.90897600  1
  Sb  Sb4  1  0.34703000  0.01963200  0.99419900  1
  Sb  Sb5  1  0.99842100  0.15837300  0.22024500  1
  Sb  Sb6  1  0.30834500  0.56188700  0.07568400  1
  Sb  Sb7  1  0.32087300  0.15434400  0.22320100  1
  Sb  Sb8  1  0.01712600  0.56805200  0.07514700  1
  Sb  Sb9  1  0.69165500  0.43811300  0.92431600  1
  Sb  Sb10  1  0.66741200  0.46433500  0.40897600  1
  Sb  Sb11  1  0.66741200  0.53566500  0.09102400  1
  Sb  Sb12  1  0.98287400  0.56805200  0.57514700  1
  Sb  Sb13  1  0.32087300  0.84565600  0.27679900  1
  Sb  Sb14  1  0.65297000  0.98036800  0.00580100  1
  Sb  Sb15  1  0.98287400  0.43194800  0.92485300  1
  Sb  Sb16  1  0.67912700  0.15434400  0.72320100  1
  Sb  Sb17  1  0.67912700  0.84565600  0.77679900  1
  Sb  Sb18  1  0.65297000  0.01963200  0.49419900  1
  Sb  Sb19  1  0.00157900  0.84162700  0.77975500  1
  Sb  Sb20  1  0.34703000  0.98036800  0.50580100  1
  Sb  Sb21  1  0.69165500  0.56188700  0.57568400  1
  Sb  Sb22  1  0.33258800  0.53566500  0.59102400  1
  Sb  Sb23  1  0.00157900  0.15837300  0.72024500  1
  S  S0  1  0.84724100  0.53674700  0.04949000  1
  S  S1  1  0.33239000  0.26379700  0.48543500  1
  S  S2  1  0.00285000  0.04510500  0.62962200  1
  S  S3  1  0.99261100  0.65525200  0.83334500  1
  S  S4  1  0.17437300  0.99282000  0.50302500  1
  S  S5  1  0.64280800  0.01744800  0.11352100  1
  S  S6  1  0.71071700  0.33705000  0.83183100  1
  S  S7  1  0.02087000  0.75239900  0.02041700  1
  S  S8  1  0.82562700  0.99282000  0.00302500  1
  S  S9  1  0.17100500  0.17583700  0.74002900  1
  S  S10  1  0.28928300  0.33705000  0.33183100  1
  S  S11  1  0.33443000  0.96366800  0.36692400  1
  S  S12  1  0.64415200  0.23183900  0.48777800  1
  S  S13  1  0.28928300  0.66295000  0.16816900  1
  S  S14  1  0.29532600  0.33587000  0.17033700  1
  S  S15  1  0.32744600  0.66779200  0.67280600  1
  S  S16  1  0.66557000  0.96366800  0.86692400  1
  S  S17  1  0.49030500  0.19411200  0.24215800  1
  S  S18  1  0.32744600  0.33220800  0.82719400  1
  S  S19  1  0.99261100  0.34474800  0.66665500  1
  S  S20  1  0.52556700  0.48654100  0.89732300  1
  S  S21  1  0.33239000  0.73620300  0.01456500  1
  S  S22  1  0.50969500  0.80588800  0.75784200  1
  S  S23  1  0.02087000  0.24760100  0.47958300  1
  S  S24  1  0.32493000  0.37224100  0.66002900  1
  S  S25  1  0.66761000  0.73620300  0.51456500  1
  S  S26  1  0.67255400  0.66779200  0.17280600  1
  S  S27  1  0.82899500  0.17583700  0.24002900  1
  S  S28  1  0.00738900  0.34474800  0.16665500  1
  S  S29  1  0.00212700  0.34066700  0.32945600  1
  S  S30  1  0.52556700  0.51345900  0.60267700  1
  S  S31  1  0.29532600  0.66413000  0.32966300  1
  S  S32  1  0.17437300  0.00718000  0.99697500  1
  S  S33  1  0.66761000  0.26379700  0.98543500  1
  S  S34  1  0.70467400  0.66413000  0.82966300  1
  S  S35  1  0.67507000  0.37224100  0.16002900  1
  S  S36  1  0.15275900  0.46325300  0.95051000  1
  S  S37  1  0.84724100  0.46325300  0.45051000  1
  S  S38  1  0.67255400  0.33220800  0.32719400  1
  S  S39  1  0.47443300  0.51345900  0.10267700  1
  S  S40  1  0.97913000  0.75239900  0.52041700  1
  S  S41  1  0.35584800  0.23183900  0.98777800  1
  S  S42  1  0.35584800  0.76816100  0.51222200  1
  S  S43  1  0.15275900  0.53674700  0.54949000  1
  S  S44  1  0.99787300  0.65933300  0.67054400  1
  S  S45  1  0.32493000  0.62775900  0.83997100  1
  S  S46  1  0.50969500  0.19411200  0.74215800  1
  S  S47  1  0.00738900  0.65525200  0.33334500  1
  S  S48  1  0.82899500  0.82416300  0.25997100  1
  S  S49  1  0.99715000  0.04510500  0.12962200  1
  S  S50  1  0.66557000  0.03633200  0.63307600  1
  S  S51  1  0.17100500  0.82416300  0.75997100  1
  S  S52  1  0.82562700  0.00718000  0.49697500  1
  S  S53  1  0.35719200  0.01744800  0.61352100  1
  S  S54  1  0.64415200  0.76816100  0.01222200  1
  S  S55  1  0.99787300  0.34066700  0.82945600  1
  S  S56  1  0.97913000  0.24760100  0.97958300  1
  S  S57  1  0.49030500  0.80588800  0.25784200  1
  S  S58  1  0.33443000  0.03633200  0.13307600  1
  S  S59  1  0.67507000  0.62775900  0.33997100  1
  S  S60  1  0.47443300  0.48654100  0.39732300  1
  S  S61  1  0.64280800  0.98255200  0.38647900  1
  S  S62  1  0.70467400  0.33587000  0.67033700  1
  S  S63  1  0.00212700  0.65933300  0.17054400  1
  S  S64  1  0.71071700  0.66295000  0.66816900  1
  S  S65  1  0.99715000  0.95489500  0.37037800  1
  S  S66  1  0.35719200  0.98255200  0.88647900  1
  S  S67  1  0.00285000  0.95489500  0.87037800  1
loop_
_geom_bond_atom_site_label_1
_geom_bond_atom_site_label_2
_geom_bond_distance
_geom_bond_site_symmetry_2
Ba0 S34 3.199055 1_555
Ba0 S8 3.245820 1_556
Ba0 S7 3.250264 1_656
Ba0 S3 3.286355 1_555
Ba0 S54 3.363093 1_556
Ba0 S67 3.473135 1_655
Ba0 S0 3.717059 1_556
Ba0 S16 3.719557 1_555
Ba1 S31 3.199055 1_555
Ba1 S4 3.245820 1_555
Ba1 S40 3.250264 1_455
Ba1 S47 3.286355 1_555
Ba1 S42 3.363093 1_555
Ba1 S65 3.473135 1_455
Ba1 S43 3.717059 1_555
Ba1 S11 3.719557 1_555
Ba2 S66 3.132842 1_545
Ba2 S53 3.132842 1_555
Ba2 S9 3.167792 1_555
Ba2 S51 3.167792 1_545
Ba2 S22 3.247530 1_545
Ba2 S46 3.247530 1_555
Ba3 S39 3.187550 1_555
Ba3 S35 3.252983 1_555
Ba3 S17 3.255913 1_555
Ba3 S41 3.256066 1_554
Ba3 S5 3.321951 1_555
Ba3 S58 3.339296 1_555
Ba3 S14 3.410143 1_555
Ba3 S33 3.597341 1_554
Ba4 S22 3.201104 1_555
Ba4 S25 3.276524 1_555
Ba4 S15 3.287762 1_555
Ba4 S42 3.328799 1_555
Ba4 S64 3.345813 1_555
Ba4 S30 3.347655 1_555
Ba4 S53 3.374528 1_565
Ba4 S50 3.483793 1_565
Ba5 S46 3.201104 1_555
Ba5 S33 3.276524 1_555
Ba5 S18 3.287762 1_555
Ba5 S41 3.328799 1_555
Ba5 S6 3.345813 1_555
Ba5 S20 3.347655 1_555
Ba5 S66 3.374528 1_545
Ba5 S16 3.483793 1_545
Ba6 S20 3.187550 1_555
Ba6 S45 3.252983 1_555
Ba6 S22 3.255913 1_555
Ba6 S54 3.256066 1_556
Ba6 S66 3.321951 1_555
Ba6 S16 3.339296 1_555
Ba6 S34 3.410143 1_555
Ba6 S21 3.597341 1_556
Ba7 S18 3.187730 1_555
Ba7 S55 3.203373 1_455
Ba7 S32 3.241288 1_555
Ba7 S9 3.305174 1_555
Ba7 S67 3.449982 1_545
Ba7 S56 3.463594 1_455
Ba7 S66 3.570024 1_545
Ba7 S36 3.655726 1_555
Ba7 S41 3.666146 1_555
Ba8 S17 3.201104 1_555
Ba8 S1 3.276524 1_555
Ba8 S38 3.287762 1_555
Ba8 S12 3.328799 1_555
Ba8 S10 3.345813 1_555
Ba8 S60 3.347655 1_555
Ba8 S61 3.374528 1_545
Ba8 S11 3.483793 1_545
Ba9 S30 3.396227 1_555
Ba9 S20 3.396227 1_555
Ba9 S45 3.519512 1_555
Ba9 S24 3.519512 1_555
Ba9 S18 3.528959 1_555
Ba9 S15 3.528959 1_555
Ba9 S46 3.566081 1_555
Ba9 S22 3.566081 1_555
Ba10 S38 3.187730 1_555
Ba10 S29 3.203373 1_655
Ba10 S52 3.241288 1_555
Ba10 S27 3.305174 1_555
Ba10 S65 3.449982 1_545
Ba10 S23 3.463594 1_655
Ba10 S61 3.570024 1_545
Ba10 S37 3.655726 1_555
Ba10 S12 3.666146 1_555
Ba11 S6 3.137897 1_555
Ba11 S56 3.153101 1_555
Ba11 S67 3.169130 1_645
Ba11 S8 3.185760 1_546
Ba11 S16 3.258920 1_545
Ba11 S55 3.409983 1_555
Ba11 S33 3.640428 1_555
Ba12 S15 3.187730 1_555
Ba12 S44 3.203373 1_455
Ba12 S4 3.241288 1_555
Ba12 S51 3.305174 1_555
Ba12 S2 3.449982 1_565
Ba12 S40 3.463594 1_455
Ba12 S53 3.570024 1_565
Ba12 S43 3.655726 1_555
Ba12 S42 3.666146 1_555
Ba13 S13 3.137897 1_555
Ba13 S7 3.153101 1_555
Ba13 S49 3.169130 1_465
Ba13 S32 3.185760 1_564
Ba13 S58 3.258920 1_565
Ba13 S63 3.409983 1_555
Ba13 S21 3.640428 1_555
Ba14 S60 3.187550 1_555
Ba14 S59 3.252983 1_555
Ba14 S57 3.255913 1_555
Ba14 S42 3.256066 1_555
Ba14 S61 3.321951 1_555
Ba14 S11 3.339296 1_555
Ba14 S31 3.410143 1_555
Ba14 S25 3.597341 1_555
Ba15 S45 3.363853 1_555
Ba15 S24 3.363853 1_555
Ba15 S18 3.421430 1_555
Ba15 S15 3.421430 1_555
Ba15 S55 3.518851 1_455
Ba15 S44 3.518851 1_455
Ba15 S19 3.626909 1_455
Ba15 S3 3.626909 1_455
Ba15 S51 3.777451 1_555
Ba15 S9 3.777451 1_555
Ba16 S59 3.363853 1_555
Ba16 S35 3.363853 1_555
Ba16 S38 3.421430 1_555
Ba16 S26 3.421430 1_555
Ba16 S63 3.518851 1_655
Ba16 S29 3.518851 1_655
Ba16 S47 3.626909 1_655
Ba16 S28 3.626909 1_655
Ba16 S48 3.777451 1_555
Ba16 S27 3.777451 1_555
Ba17 S45 3.199849 1_555
Ba17 S7 3.271137 1_556
Ba17 S67 3.277641 1_555
Ba17 S21 3.326325 1_556
Ba17 S3 3.335640 1_455
Ba17 S32 3.414419 1_565
Ba17 S51 3.483662 1_555
Ba17 S66 3.635972 1_555
Ba17 S36 3.685787 1_555
Ba18 S10 3.137897 1_555
Ba18 S23 3.153101 1_555
Ba18 S65 3.169130 1_445
Ba18 S4 3.185760 1_545
Ba18 S11 3.258920 1_545
Ba18 S29 3.409983 1_555
Ba18 S1 3.640428 1_555
Ba19 S57 3.201104 1_555
Ba19 S21 3.276524 1_555
Ba19 S26 3.287762 1_555
Ba19 S54 3.328799 1_555
Ba19 S13 3.345813 1_555
Ba19 S39 3.347655 1_555
Ba19 S5 3.374528 1_565
Ba19 S58 3.483793 1_565
Ba20 S62 3.199055 1_555
Ba20 S52 3.245820 1_555
Ba20 S23 3.250264 1_655
Ba20 S19 3.286355 1_555
Ba20 S12 3.363093 1_555
Ba20 S2 3.473135 1_655
Ba20 S37 3.717059 1_555
Ba20 S50 3.719557 1_555
Ba21 S10 3.256816 1_555
Ba21 S13 3.256816 1_555
Ba21 S31 3.326872 1_555
Ba21 S14 3.326872 1_555
Ba21 S63 3.329028 1_555
Ba21 S29 3.329028 1_555
Ba21 S47 3.344877 1_555
Ba21 S28 3.344877 1_555
Ba22 S14 3.199055 1_555
Ba22 S32 3.245820 1_554
Ba22 S56 3.250264 1_454
Ba22 S28 3.286355 1_555
Ba22 S41 3.363093 1_554
Ba22 S49 3.473135 1_455
Ba22 S36 3.717059 1_554
Ba22 S58 3.719557 1_555
Ba23 S5 3.132842 1_555
Ba23 S61 3.132842 1_545
Ba23 S27 3.167792 1_555
Ba23 S48 3.167792 1_545
Ba23 S17 3.247530 1_555
Ba23 S57 3.247530 1_545
Ba24 S64 3.137897 1_555
Ba24 S40 3.153101 1_555
Ba24 S2 3.169130 1_665
Ba24 S52 3.185760 1_565
Ba24 S50 3.258920 1_565
Ba24 S44 3.409983 1_555
Ba24 S25 3.640428 1_555
Ba25 S26 3.187730 1_555
Ba25 S63 3.203373 1_655
Ba25 S8 3.241288 1_555
Ba25 S48 3.305174 1_555
Ba25 S49 3.449982 1_565
Ba25 S7 3.463594 1_655
Ba25 S5 3.570024 1_565
Ba25 S0 3.655726 1_555
Ba25 S54 3.666146 1_555
Ba26 S39 3.396227 1_555
Ba26 S60 3.396227 1_555
Ba26 S35 3.519512 1_555
Ba26 S59 3.519512 1_555
Ba26 S38 3.528959 1_555
Ba26 S26 3.528959 1_555
Ba26 S17 3.566081 1_555
Ba26 S57 3.566081 1_555
Ba27 S30 3.187550 1_555
Ba27 S24 3.252983 1_555
Ba27 S46 3.255913 1_555
Ba27 S12 3.256066 1_555
Ba27 S53 3.321951 1_555
Ba27 S50 3.339296 1_555
Ba27 S62 3.410143 1_555
Ba27 S1 3.597341 1_555
Ba28 S24 3.199849 1_555
Ba28 S23 3.271137 1_555
Ba28 S2 3.277641 1_555
Ba28 S1 3.326325 1_555
Ba28 S19 3.335640 1_455
Ba28 S4 3.414419 1_545
Ba28 S9 3.483662 1_555
Ba28 S53 3.635972 1_555
Ba28 S43 3.685787 1_555
Ba29 S35 3.199849 1_555
Ba29 S56 3.271137 1_554
Ba29 S49 3.277641 1_555
Ba29 S33 3.326325 1_554
Ba29 S28 3.335640 1_655
Ba29 S8 3.414419 1_545
Ba29 S27 3.483662 1_555
Ba29 S5 3.635972 1_555
Ba29 S0 3.685787 1_555
Ba30 S59 3.199849 1_555
Ba30 S40 3.271137 1_555
Ba30 S65 3.277641 1_555
Ba30 S25 3.326325 1_555
Ba30 S47 3.335640 1_655
Ba30 S52 3.414419 1_565
Ba30 S48 3.483662 1_555
Ba30 S61 3.635972 1_555
Ba30 S37 3.685787 1_555
Ba31 S6 3.256816 1_555
Ba31 S64 3.256816 1_555
Ba31 S34 3.326872 1_555
Ba31 S62 3.326872 1_555
Ba31 S44 3.329028 1_555
Ba31 S55 3.329028 1_555
Ba31 S3 3.344877 1_555
Ba31 S19 3.344877 1_555
S0 Sb8 2.480808 1_655
S0 Sb11 2.693678 1_555
S1 Sb0 2.463069 1_555
S2 Sb23 2.477235 1_555
S3 Sb19 2.471879 1_655
S4 Sb20 2.424956 1_555
S5 Sb14 2.514942 1_545
S6 Sb9 2.454419 1_555
S7 Sb8 2.461574 1_555
S8 Sb14 2.424956 1_555
S9 Sb23 2.426590 1_555
S10 Sb0 2.454419 1_555
S11 Sb13 2.505415 1_555
S11 Sb20 3.193231 1_555
S12 Sb18 2.470217 1_555
S13 Sb6 2.454419 1_555
S14 Sb7 2.438273 1_555
S15 Sb22 2.443981 1_555
S16 Sb17 2.505415 1_555
S16 Sb14 3.193231 1_556
S17 Sb7 2.459331 1_555
S18 Sb3 2.443981 1_555
S19 Sb23 2.471879 1_655
S20 Sb9 2.470634 1_555
S20 Sb3 2.729564 1_555
S21 Sb6 2.463069 1_555
S22 Sb17 2.459331 1_555
S23 Sb1 2.461574 1_555
S24 Sb22 2.449398 1_555
S25 Sb21 2.463069 1_555
S26 Sb11 2.443981 1_555
S27 Sb5 2.426590 1_555
S28 Sb5 2.471879 1_455
S29 Sb1 2.454246 1_555
S30 Sb21 2.470634 1_555
S30 Sb22 2.729564 1_555
S31 Sb13 2.438273 1_555
S32 Sb4 2.424956 1_555
S33 Sb9 2.463069 1_555
S34 Sb17 2.438273 1_555
S35 Sb11 2.449398 1_555
S36 Sb15 2.480808 1_455
S36 Sb3 2.693678 1_555
S37 Sb1 2.480808 1_655
S37 Sb10 2.693678 1_555
S38 Sb10 2.443981 1_555
S39 Sb6 2.470634 1_555
S39 Sb11 2.729564 1_555
S40 Sb12 2.461574 1_555
S41 Sb4 2.470217 1_555
S42 Sb20 2.470217 1_555
S43 Sb12 2.480808 1_455
S43 Sb22 2.693678 1_555
S44 Sb12 2.454246 1_555
S45 Sb3 2.449398 1_555
S46 Sb16 2.459331 1_555
S47 Sb2 2.471879 1_455
S48 Sb2 2.426590 1_555
S49 Sb5 2.477235 1_555
S50 Sb16 2.505415 1_555
S50 Sb18 3.193231 1_555
S51 Sb19 2.426590 1_555
S52 Sb18 2.424956 1_555
S53 Sb20 2.514942 1_545
S54 Sb14 2.470217 1_555
S55 Sb15 2.454246 1_555
S56 Sb15 2.461574 1_555
S57 Sb13 2.459331 1_555
S58 Sb7 2.505415 1_555
S58 Sb4 3.193231 1_554
S59 Sb10 2.449398 1_555
S60 Sb0 2.470634 1_555
S60 Sb10 2.729564 1_555
S61 Sb18 2.514942 1_565
S62 Sb16 2.438273 1_555
S63 Sb8 2.454246 1_555
S64 Sb21 2.454419 1_555
S65 Sb2 2.477235 1_555
S66 Sb4 2.514942 1_565
S67 Sb19 2.477235 1_555
