# generated using pymatgen
data_VH9C3O4
_symmetry_space_group_name_H-M   'P 1'
_cell_length_a   8.61834200
_cell_length_b   8.80644461
_cell_length_c   9.89998831
_cell_angle_alpha   103.21716174
_cell_angle_beta   96.39926548
_cell_angle_gamma   112.47678072
_symmetry_Int_Tables_number   1
_chemical_formula_structural   VH9C3O4
_chemical_formula_sum   'V4 H36 C12 O16'
_cell_volume   659.18449892
_cell_formula_units_Z   4
loop_
 _symmetry_equiv_pos_site_id
 _symmetry_equiv_pos_as_xyz
  1  'x, y, z'
loop_
 _atom_site_type_symbol
 _atom_site_label
 _atom_site_symmetry_multiplicity
 _atom_site_fract_x
 _atom_site_fract_y
 _atom_site_fract_z
 _atom_site_occupancy
  V  V0  1  0.97220000  0.31573900  0.86843900  1
  V  V1  1  0.02780000  0.68426100  0.13156100  1
  V  V2  1  0.13253900  0.68127300  0.45950600  1
  V  V3  1  0.86746100  0.31872700  0.54049400  1
  H  H0  1  0.68561200  0.82030100  0.09526700  1
  H  H1  1  0.27635700  0.21176100  0.08085900  1
  H  H2  1  0.53449700  0.76187400  0.70876500  1
  H  H3  1  0.78852600  0.68242800  0.64632900  1
  H  H4  1  0.44296300  0.79770600  0.26907400  1
  H  H5  1  0.69402200  0.64199500  0.23706400  1
  H  H6  1  0.41759000  0.61276000  0.32615100  1
  H  H7  1  0.63103000  0.32048200  0.05539600  1
  H  H8  1  0.73176100  0.60658200  0.40613300  1
  H  H9  1  0.96029700  0.71956000  0.78599000  1
  H  H10  1  0.21147400  0.31757200  0.35367100  1
  H  H11  1  0.72364300  0.78823900  0.91914100  1
  H  H12  1  0.41964200  0.16490800  0.44253900  1
  H  H13  1  0.68524200  0.14098500  0.00477800  1
  H  H14  1  0.58035800  0.83509200  0.55746100  1
  H  H15  1  0.26823900  0.39341800  0.59386700  1
  H  H16  1  0.55703700  0.20229400  0.73092600  1
  H  H17  1  0.36897000  0.67951800  0.94460400  1
  H  H18  1  0.77171800  0.28961800  0.18157300  1
  H  H19  1  0.31475800  0.85901500  0.99522200  1
  H  H20  1  0.46741600  0.92014200  0.67088700  1
  H  H21  1  0.16432600  0.18110700  0.61245900  1
  H  H22  1  0.30597800  0.35800500  0.76293600  1
  H  H23  1  0.83567400  0.81889300  0.38754100  1
  H  H24  1  0.00810900  0.13883100  0.32414900  1
  H  H25  1  0.58241000  0.38724000  0.67384900  1
  H  H26  1  0.10495600  0.06291900  0.93265700  1
  H  H27  1  0.31438800  0.17969900  0.90473300  1
  H  H28  1  0.89504400  0.93708100  0.06734300  1
  H  H29  1  0.35203200  0.58725400  0.14110700  1
  H  H30  1  0.46550300  0.23812600  0.29123500  1
  H  H31  1  0.22828200  0.71038200  0.81842700  1
  H  H32  1  0.64796800  0.41274600  0.85889300  1
  H  H33  1  0.53258400  0.07985800  0.32911300  1
  H  H34  1  0.03970300  0.28044000  0.21401000  1
  H  H35  1  0.99189100  0.86116900  0.67585100  1
  C  C0  1  0.63967100  0.33999200  0.75025000  1
  C  C1  1  0.92901300  0.72734000  0.67771600  1
  C  C2  1  0.79052500  0.68006500  0.33521200  1
  C  C3  1  0.73413300  0.27663800  0.06822600  1
  C  C4  1  0.07098700  0.27266000  0.32228400  1
  C  C5  1  0.36032900  0.66000800  0.24975000  1
  C  C6  1  0.78109700  0.81266000  0.03153900  1
  C  C7  1  0.20947500  0.31993500  0.66478800  1
  C  C8  1  0.26586700  0.72336200  0.93177400  1
  C  C9  1  0.51570300  0.19689000  0.37678200  1
  C  C10  1  0.48429700  0.80311000  0.62321800  1
  C  C11  1  0.21890300  0.18734000  0.96846100  1
  O  O0  1  0.14098400  0.89096900  0.17563900  1
  O  O1  1  0.01687000  0.38061200  0.41716300  1
  O  O2  1  0.19864100  0.88865200  0.51805700  1
  O  O3  1  0.85901600  0.10903100  0.82436100  1
  O  O4  1  0.82513300  0.67693300  0.04474000  1
  O  O5  1  0.67410200  0.33181500  0.45850800  1
  O  O6  1  0.80913300  0.36579600  0.73255000  1
  O  O7  1  0.12096300  0.61897900  0.97621200  1
  O  O8  1  0.32589800  0.66818500  0.54149200  1
  O  O9  1  0.17486700  0.32306700  0.95526000  1
  O  O10  1  0.80135900  0.11134800  0.48194300  1
  O  O11  1  0.07038500  0.36025400  0.69983300  1
  O  O12  1  0.19086700  0.63420400  0.26745000  1
  O  O13  1  0.98313000  0.61938800  0.58283700  1
  O  O14  1  0.92961500  0.63974600  0.30016700  1
  O  O15  1  0.87903700  0.38102100  0.02378800  1
loop_
_geom_bond_atom_site_label_1
_geom_bond_atom_site_label_2
_geom_bond_distance
_geom_bond_site_symmetry_2
C0 H32 1.097796 1_555
C0 H25 1.098396 1_555
C0 H16 1.103394 1_555
C0 O6 1.427180 1_555
C1 H35 1.098565 1_555
C1 H9 1.099848 1_555
C1 H3 1.101234 1_555
C1 O13 1.425459 1_555
C2 H8 1.097575 1_555
C2 H5 1.098152 1_555
C2 H23 1.102809 1_555
C2 O14 1.430106 1_555
C3 H18 1.099629 1_555
C3 H13 1.100998 1_555
C3 H7 1.101990 1_555
C3 O15 1.423996 1_555
C4 H24 1.098565 1_555
C4 H34 1.099848 1_555
C4 H10 1.101234 1_555
C4 O1 1.425459 1_555
C5 H29 1.097796 1_555
C5 H6 1.098396 1_555
C5 H4 1.103394 1_555
C5 O12 1.427180 1_555
C6 H28 1.101211 1_555
C6 H11 1.102699 1_554
C6 H0 1.103826 1_555
C6 O4 1.413158 1_555
C7 H15 1.097575 1_555
C7 H22 1.098152 1_555
C7 H21 1.102809 1_555
C7 O11 1.430106 1_555
C8 H31 1.099629 1_555
C8 H19 1.100998 1_555
C8 H17 1.101990 1_555
C8 O7 1.423996 1_555
C9 H33 1.101647 1_555
C9 H12 1.101911 1_555
C9 H30 1.102454 1_555
C9 O5 1.415617 1_555
C10 H20 1.101647 1_555
C10 H14 1.101911 1_555
C10 H2 1.102454 1_555
C10 O8 1.415617 1_555
C11 H26 1.101211 1_555
C11 H1 1.102699 1_556
C11 H27 1.103826 1_555
C11 O9 1.413158 1_555
O0 V1 1.624747 1_555
O1 V3 1.887863 1_455
O1 V2 2.358217 1_555
O2 V2 1.625609 1_555
O3 V0 1.624747 1_555
O4 V1 1.829629 1_655
O5 V3 1.826804 1_555
O6 V3 2.012868 1_555
O6 V0 2.074283 1_555
O7 V1 1.887952 1_556
O7 V0 2.384910 1_455
O8 V2 1.826804 1_555
O9 V0 1.829629 1_455
O10 V3 1.625609 1_555
O11 V0 2.004091 1_455
O11 V3 2.076741 1_455
O12 V2 2.012868 1_555
O12 V1 2.074283 1_555
O13 V2 1.887863 1_655
O13 V3 2.358217 1_555
O14 V1 2.004091 1_655
O14 V2 2.076741 1_655
O15 V0 1.887952 1_554
O15 V1 2.384910 1_655
