# generated using pymatgen
data_NiTePd
_symmetry_space_group_name_H-M   'P 1'
_cell_length_a   3.79668229
_cell_length_b   6.27709337
_cell_length_c   8.37509515
_cell_angle_alpha   90.00000000
_cell_angle_beta   90.00000000
_cell_angle_gamma   90.00000000
_symmetry_Int_Tables_number   1
_chemical_formula_structural   NiTePd
_chemical_formula_sum   'Ni4 Te4 Pd4'
_cell_volume   199.59634993
_cell_formula_units_Z   4
loop_
 _symmetry_equiv_pos_site_id
 _symmetry_equiv_pos_as_xyz
  1  'x, y, z'
loop_
 _atom_site_type_symbol
 _atom_site_label
 _atom_site_symmetry_multiplicity
 _atom_site_fract_x
 _atom_site_fract_y
 _atom_site_fract_z
 _atom_site_occupancy
  Ni  Ni0  1  0.75000000  0.98926920  0.39452617  1
  Ni  Ni1  1  0.25000000  0.48926920  0.10547383  1
  Ni  Ni2  1  0.75000000  0.51073080  0.89452617  1
  Ni  Ni3  1  0.25000000  0.01073080  0.60547383  1
  Te  Te0  1  0.75000000  0.73795849  0.15650338  1
  Te  Te1  1  0.25000000  0.26204151  0.84349662  1
  Te  Te2  1  0.75000000  0.76204151  0.65650338  1
  Te  Te3  1  0.25000000  0.23795849  0.34349662  1
  Pd  Pd0  1  0.75000000  0.34730667  0.58564351  1
  Pd  Pd1  1  0.75000000  0.15269333  0.08564351  1
  Pd  Pd2  1  0.25000000  0.65269333  0.41435649  1
  Pd  Pd3  1  0.25000000  0.84730667  0.91435649  1
loop_
_geom_bond_atom_site_label_1
_geom_bond_atom_site_label_2
_geom_bond_distance
_geom_bond_site_symmetry_2
Ni0 Te3 2.494637 1_565
Ni0 Te3 2.494637 1_665
Ni0 Te0 2.542126 1_555
Ni0 Ni3 2.596748 1_665
Ni0 Ni3 2.596748 1_565
Ni0 Te2 2.616949 1_555
Ni0 Pd0 2.759160 1_565
Ni0 Pd1 2.782892 1_565
Ni0 Pd2 2.845147 1_655
Ni0 Pd2 2.845147 1_555
Ni1 Te0 2.494637 1_555
Ni1 Te0 2.494637 1_455
Ni1 Te3 2.542126 1_555
Ni1 Ni2 2.596748 1_554
Ni1 Ni2 2.596748 1_454
Ni1 Te1 2.616949 1_554
Ni1 Pd3 2.759160 1_554
Ni1 Pd2 2.782892 1_555
Ni1 Pd1 2.845147 1_455
Ni1 Pd1 2.845147 1_555
Ni2 Te1 2.494637 1_655
Ni2 Te1 2.494637 1_555
Ni2 Te2 2.542126 1_555
Ni2 Te0 2.616949 1_556
Ni2 Pd1 2.759160 1_556
Ni2 Pd0 2.782892 1_555
Ni2 Pd3 2.845147 1_555
Ni2 Pd3 2.845147 1_655
Ni3 Te2 2.494637 1_545
Ni3 Te2 2.494637 1_445
Ni3 Te1 2.542126 1_555
Ni3 Te3 2.616949 1_555
Ni3 Pd2 2.759160 1_545
Ni3 Pd3 2.782892 1_545
Ni3 Pd0 2.845147 1_455
Ni3 Pd0 2.845147 1_555
Pd0 Te2 2.670115 1_555
Pd0 Te3 2.861403 1_655
Pd0 Te3 2.861403 1_555
Pd0 Te1 2.924686 1_555
Pd0 Te1 2.924686 1_655
Pd0 Pd2 3.055533 1_655
Pd0 Pd2 3.055533 1_555
Pd1 Te0 2.670115 1_545
Pd1 Te1 2.861403 1_654
Pd1 Te1 2.861403 1_554
Pd1 Te3 2.924686 1_655
Pd1 Te3 2.924686 1_555
Pd1 Pd3 3.055533 1_544
Pd1 Pd3 3.055533 1_644
Pd2 Te3 2.670115 1_555
Pd2 Te2 2.861403 1_455
Pd2 Te2 2.861403 1_555
Pd2 Te0 2.924686 1_455
Pd2 Te0 2.924686 1_555
Pd3 Te1 2.670115 1_565
Pd3 Te0 2.861403 1_456
Pd3 Te0 2.861403 1_556
Pd3 Te2 2.924686 1_455
Pd3 Te2 2.924686 1_555
