# generated using pymatgen
data_Cs2ZnCl4
_symmetry_space_group_name_H-M   'P 1'
_cell_length_a   7.41264355
_cell_length_b   9.79082800
_cell_length_c   13.02700995
_cell_angle_alpha   90.00000000
_cell_angle_beta   90.00000000
_cell_angle_gamma   90.00000000
_symmetry_Int_Tables_number   1
_chemical_formula_structural   Cs2ZnCl4
_chemical_formula_sum   'Cs8 Zn4 Cl16'
_cell_volume   945.44720622
_cell_formula_units_Z   4
loop_
 _symmetry_equiv_pos_site_id
 _symmetry_equiv_pos_as_xyz
  1  'x, y, z'
loop_
 _atom_site_type_symbol
 _atom_site_label
 _atom_site_symmetry_multiplicity
 _atom_site_fract_x
 _atom_site_fract_y
 _atom_site_fract_z
 _atom_site_occupancy
  Cs  Cs0  1  0.75000000  0.13663634  0.09493758  1
  Cs  Cs1  1  0.25000000  0.86336366  0.90506242  1
  Cs  Cs2  1  0.75000000  0.63663634  0.40506242  1
  Cs  Cs3  1  0.25000000  0.36336366  0.59493758  1
  Cs  Cs4  1  0.75000000  0.48153154  0.82503906  1
  Cs  Cs5  1  0.25000000  0.51846846  0.17496094  1
  Cs  Cs6  1  0.75000000  0.98153154  0.67496094  1
  Cs  Cs7  1  0.25000000  0.01846846  0.32503906  1
  Zn  Zn0  1  0.75000000  0.73383685  0.07843241  1
  Zn  Zn1  1  0.25000000  0.26616315  0.92156759  1
  Zn  Zn2  1  0.75000000  0.23383685  0.42156759  1
  Zn  Zn3  1  0.25000000  0.76616315  0.57843241  1
  Cl  Cl0  1  0.75000000  0.50388632  0.09497265  1
  Cl  Cl1  1  0.25000000  0.49611368  0.90502735  1
  Cl  Cl2  1  0.75000000  0.00388632  0.40502735  1
  Cl  Cl3  1  0.25000000  0.99611368  0.59497265  1
  Cl  Cl4  1  0.75000000  0.81562225  0.91489495  1
  Cl  Cl5  1  0.25000000  0.18437775  0.08510505  1
  Cl  Cl6  1  0.75000000  0.31562225  0.58510505  1
  Cl  Cl7  1  0.25000000  0.68437775  0.41489495  1
  Cl  Cl8  1  0.50092963  0.82191402  0.15357382  1
  Cl  Cl9  1  0.00092963  0.17808598  0.84642618  1
  Cl  Cl10  1  -0.00092963  0.32191402  0.34642618  1
  Cl  Cl11  1  0.49907037  0.67808598  0.65357382  1
  Cl  Cl12  1  0.49907037  0.17808598  0.84642618  1
  Cl  Cl13  1  -0.00092963  0.82191402  0.15357382  1
  Cl  Cl14  1  0.00092963  0.67808598  0.65357382  1
  Cl  Cl15  1  0.50092963  0.32191402  0.34642618  1
loop_
_geom_bond_atom_site_label_1
_geom_bond_atom_site_label_2
_geom_bond_distance
_geom_bond_site_symmetry_2
Cl0 Zn0 2.261693 1_555
Cl0 Cs4 3.523233 1_554
Cl0 Cs0 3.595681 1_555
Cl0 Cs5 3.852660 1_655
Cl0 Cs5 3.852660 1_555
Cl1 Zn1 2.261693 1_555
Cl1 Cs5 3.523233 1_556
Cl1 Cs1 3.595681 1_555
Cl1 Cs4 3.852660 1_555
Cl1 Cs4 3.852660 1_455
Cl2 Zn2 2.261693 1_555
Cl2 Cs6 3.523233 1_545
Cl2 Cs2 3.595681 1_545
Cl2 Cs7 3.852660 1_655
Cl2 Cs7 3.852660 1_555
Cl3 Zn3 2.261693 1_555
Cl3 Cs7 3.523233 1_565
Cl3 Cs3 3.595681 1_565
Cl3 Cs6 3.852660 1_555
Cl3 Cs6 3.852660 1_455
Cl4 Zn0 2.275921 1_556
Cl4 Cs4 3.474161 1_555
Cl4 Cs6 3.522522 1_555
Cl4 Cs1 3.737876 1_655
Cl4 Cs1 3.737876 1_555
Cl4 Cs0 3.921657 1_566
Cl5 Zn1 2.275921 1_554
Cl5 Cs5 3.474161 1_555
Cl5 Cs7 3.522522 1_555
Cl5 Cs0 3.737876 1_555
Cl5 Cs0 3.737876 1_455
Cl5 Cs1 3.921657 1_544
Cl6 Zn2 2.275921 1_555
Cl6 Cs6 3.474161 1_545
Cl6 Cs4 3.522522 1_555
Cl6 Cs3 3.737876 1_655
Cl6 Cs3 3.737876 1_555
Cl6 Cs2 3.921657 1_555
Cl7 Zn3 2.275921 1_555
Cl7 Cs7 3.474161 1_565
Cl7 Cs5 3.522522 1_555
Cl7 Cs2 3.737876 1_555
Cl7 Cs2 3.737876 1_455
Cl7 Cs3 3.921657 1_555
Cl8 Zn0 2.260650 1_555
Cl8 Cs7 3.486051 1_565
Cl8 Cs5 3.516271 1_555
Cl8 Cs0 3.672487 1_565
Cl8 Cs1 3.755661 1_554
Cl9 Zn1 2.260650 1_555
Cl9 Cs6 3.486051 1_445
Cl9 Cs4 3.516271 1_455
Cl9 Cs1 3.672487 1_545
Cl9 Cs0 3.755661 1_456
Cl10 Zn2 2.260650 1_455
Cl10 Cs5 3.486051 1_555
Cl10 Cs7 3.516271 1_555
Cl10 Cs2 3.672487 1_455
Cl10 Cs3 3.755661 1_555
Cl11 Zn3 2.260650 1_555
Cl11 Cs4 3.486051 1_555
Cl11 Cs6 3.516271 1_555
Cl11 Cs3 3.672487 1_555
Cl11 Cs2 3.755661 1_555
Cl12 Zn1 2.260650 1_555
Cl12 Cs6 3.486051 1_545
Cl12 Cs4 3.516271 1_555
Cl12 Cs1 3.672487 1_545
Cl12 Cs0 3.755661 1_556
Cl13 Zn0 2.260650 1_455
Cl13 Cs7 3.486051 1_565
Cl13 Cs5 3.516271 1_555
Cl13 Cs0 3.672487 1_465
Cl13 Cs1 3.755661 1_554
Cl14 Zn3 2.260650 1_555
Cl14 Cs4 3.486051 1_455
Cl14 Cs6 3.516271 1_455
Cl14 Cs3 3.672487 1_555
Cl14 Cs2 3.755661 1_455
Cl15 Zn2 2.260650 1_555
Cl15 Cs5 3.486051 1_555
Cl15 Cs7 3.516271 1_555
Cl15 Cs2 3.672487 1_555
Cl15 Cs3 3.755661 1_555
