# generated using pymatgen
data_ErNbO4
_symmetry_space_group_name_H-M   'P 1'
_cell_length_a   5.09006869
_cell_length_b   5.25383668
_cell_length_c   6.49522247
_cell_angle_alpha   112.19962980
_cell_angle_beta   111.37631890
_cell_angle_gamma   93.89424474
_symmetry_Int_Tables_number   1
_chemical_formula_structural   ErNbO4
_chemical_formula_sum   'Er2 Nb2 O8'
_cell_volume   145.43678183
_cell_formula_units_Z   2
loop_
 _symmetry_equiv_pos_site_id
 _symmetry_equiv_pos_as_xyz
  1  'x, y, z'
loop_
 _atom_site_type_symbol
 _atom_site_label
 _atom_site_symmetry_multiplicity
 _atom_site_fract_x
 _atom_site_fract_y
 _atom_site_fract_z
 _atom_site_occupancy
  Er  Er0  1  0.37824518  0.62827715  0.75661301  1
  Er  Er1  1  0.62175416  0.37172446  0.24338749  1
  Nb  Nb0  1  0.85918943  0.10918647  0.71854621  1
  Nb  Nb1  1  0.14080940  0.89081299  0.28145357  1
  O  O0  1  0.99065349  0.78150235  0.56356579  1
  O  O1  1  0.57279295  0.28199569  0.56346907  1
  O  O2  1  0.00934820  0.21849829  0.43643405  1
  O  O3  1  0.42720945  0.71800464  0.43653112  1
  O  O4  1  0.21488385  0.37833052  0.92532904  1
  O  O5  1  0.71033437  0.04706188  0.92541775  1
  O  O6  1  0.78511522  0.62166831  0.07467012  1
  O  O7  1  0.28966429  0.95293724  0.07458278  1
loop_
_geom_bond_atom_site_label_1
_geom_bond_atom_site_label_2
_geom_bond_distance
_geom_bond_site_symmetry_2
Er0 O4 2.284762 1_555
Er0 O5 2.285005 1_565
Er0 O0 2.299493 1_455
Er0 O1 2.299983 1_555
Er0 O7 2.345076 1_556
Er0 O6 2.345865 1_556
Er0 O2 2.388854 1_555
Er0 O3 2.389346 1_555
Er1 O6 2.284758 1_555
Er1 O7 2.285017 1_545
Er1 O2 2.299503 1_655
Er1 O3 2.299967 1_555
Er1 O5 2.345080 1_554
Er1 O4 2.345865 1_554
Er1 O0 2.388855 1_555
Er1 O1 2.389342 1_555
Nb0 O4 1.877710 1_655
Nb0 O5 1.877782 1_555
Nb0 O0 1.939825 1_545
Nb0 O1 1.940211 1_555
Nb0 O3 2.453406 1_545
Nb0 O2 2.455238 1_655
Nb1 O6 1.877710 1_455
Nb1 O7 1.877776 1_555
Nb1 O2 1.939821 1_565
Nb1 O3 1.940220 1_555
Nb1 O1 2.453419 1_565
Nb1 O0 2.455227 1_455
