# generated using pymatgen
data_Ba2Li3NbN4
_symmetry_space_group_name_H-M   'P 1'
_cell_length_a   6.36165016
_cell_length_b   6.36165016
_cell_length_c   11.14004110
_cell_angle_alpha   64.48057532
_cell_angle_beta   64.48057532
_cell_angle_gamma   53.39223178
_symmetry_Int_Tables_number   1
_chemical_formula_structural   Ba2Li3NbN4
_chemical_formula_sum   'Ba4 Li6 Nb2 N8'
_cell_volume   317.05029114
_cell_formula_units_Z   2
loop_
 _symmetry_equiv_pos_site_id
 _symmetry_equiv_pos_as_xyz
  1  'x, y, z'
loop_
 _atom_site_type_symbol
 _atom_site_label
 _atom_site_symmetry_multiplicity
 _atom_site_fract_x
 _atom_site_fract_y
 _atom_site_fract_z
 _atom_site_occupancy
  Ba  Ba0  1  0.63334700  0.06088900  0.61190600  1
  Ba  Ba1  1  0.06088900  0.63334700  0.11190600  1
  Ba  Ba2  1  0.36665300  0.93911100  0.38809400  1
  Ba  Ba3  1  0.93911100  0.36665300  0.88809400  1
  Li  Li0  1  0.12223500  0.52652200  0.54142900  1
  Li  Li1  1  0.47347800  0.87776500  0.95857100  1
  Li  Li2  1  0.61558500  0.38441500  0.75000000  1
  Li  Li3  1  0.52652200  0.12223500  0.04142900  1
  Li  Li4  1  0.38441500  0.61558500  0.25000000  1
  Li  Li5  1  0.87776500  0.47347800  0.45857100  1
  Nb  Nb0  1  0.86221800  0.13778200  0.25000000  1
  Nb  Nb1  1  0.13778200  0.86221800  0.75000000  1
  N  N0  1  0.79196200  0.93167300  0.88788500  1
  N  N1  1  0.93167300  0.79196200  0.38788500  1
  N  N2  1  0.58106400  0.26402400  0.16193100  1
  N  N3  1  0.20803800  0.06832700  0.11211500  1
  N  N4  1  0.26402400  0.58106400  0.66193100  1
  N  N5  1  0.41893600  0.73597600  0.83806900  1
  N  N6  1  0.73597600  0.41893600  0.33806900  1
  N  N7  1  0.06832700  0.20803800  0.61211500  1
loop_
_geom_bond_atom_site_label_1
_geom_bond_atom_site_label_2
_geom_bond_distance
_geom_bond_site_symmetry_2
Ba0 N4 2.822989 1_555
Ba0 N5 2.897418 1_545
Ba0 N1 2.912414 1_545
Ba0 N6 2.998485 1_555
Ba0 N7 3.126982 1_555
Ba1 N2 2.822989 1_555
Ba1 N6 2.897418 1_455
Ba1 N0 2.912414 1_454
Ba1 N5 2.998485 1_554
Ba1 N3 3.126982 1_555
Ba2 N6 2.822989 1_555
Ba2 N2 2.897418 1_565
Ba2 N7 2.912414 1_565
Ba2 N4 2.998485 1_555
Ba2 N1 3.126982 1_555
Ba3 N5 2.822989 1_555
Ba3 N4 2.897418 1_655
Ba3 N3 2.912414 1_656
Ba3 N2 2.998485 1_556
Ba3 N0 3.126982 1_555
Li0 N7 2.015946 1_555
Li0 N1 2.025667 1_455
Li0 N4 2.134005 1_555
Li1 N0 2.015946 1_555
Li1 N3 2.025667 1_566
Li1 N5 2.134005 1_555
Li2 N5 2.241799 1_555
Li2 N4 2.241799 1_555
Li2 N7 2.394292 1_655
Li2 N0 2.394292 1_545
Li3 N3 2.015946 1_555
Li3 N0 2.025667 1_544
Li3 N2 2.134005 1_555
Li4 N6 2.241799 1_555
Li4 N2 2.241799 1_555
Li4 N3 2.394292 1_565
Li4 N1 2.394292 1_455
Li5 N1 2.015946 1_555
Li5 N7 2.025667 1_655
Li5 N6 2.134005 1_555
N0 Nb1 1.976954 1_655
N1 Nb0 1.976954 1_565
N2 Nb0 1.981543 1_555
N3 Nb0 1.976954 1_455
N4 Nb1 1.981543 1_555
N5 Nb1 1.981543 1_555
N6 Nb0 1.981543 1_555
N7 Nb1 1.976954 1_545
