# generated using pymatgen
data_Eu(CoAs)2
_symmetry_space_group_name_H-M   'P 1'
_cell_length_a   5.93496344
_cell_length_b   5.93496344
_cell_length_c   5.93496344
_cell_angle_alpha   140.36825199
_cell_angle_beta   140.36825199
_cell_angle_gamma   57.29458517
_symmetry_Int_Tables_number   1
_chemical_formula_structural   Eu(CoAs)2
_chemical_formula_sum   'Eu1 Co2 As2'
_cell_volume   84.33354498
_cell_formula_units_Z   1
loop_
 _symmetry_equiv_pos_site_id
 _symmetry_equiv_pos_as_xyz
  1  'x, y, z'
loop_
 _atom_site_type_symbol
 _atom_site_label
 _atom_site_symmetry_multiplicity
 _atom_site_fract_x
 _atom_site_fract_y
 _atom_site_fract_z
 _atom_site_occupancy
  Eu  Eu0  1  -0.00000000  -0.00000000  0.00000000  1
  Co  Co0  1  0.75000000  0.25000000  0.50000000  1
  Co  Co1  1  0.25000000  0.75000000  0.50000000  1
  As  As0  1  0.36007149  0.36007149  -0.00000000  1
  As  As1  1  0.63992851  0.63992851  0.00000000  1
loop_
_geom_bond_atom_site_label_1
_geom_bond_atom_site_label_2
_geom_bond_distance
_geom_bond_site_symmetry_2
Co0 Eu0 3.290882 1_655
Co0 Eu0 3.290882 1_666
Co0 Eu0 3.290882 1_656
Co0 Eu0 3.290882 1_555
Co1 Eu0 3.290882 1_555
Co1 Eu0 3.290882 1_566
Co1 Eu0 3.290882 1_565
Co1 Eu0 3.290882 1_666
As0 Co1 2.315733 1_544
As0 Co1 2.315733 1_555
As0 Co0 2.315733 1_555
As0 Co0 2.315733 1_454
As0 Eu0 3.196951 1_565
As0 Eu0 3.196951 1_655
As0 Eu0 3.196951 1_666
As0 Eu0 3.196951 1_554
As1 Co1 2.315733 1_554
As1 Co0 2.315733 1_554
As1 Co0 2.315733 1_565
As1 Co1 2.315733 1_655
As1 Eu0 3.196951 1_565
As1 Eu0 3.196951 1_655
As1 Eu0 3.196951 1_666
As1 Eu0 3.196951 1_554
