# generated using pymatgen
data_K3AgC4(SN)4
_symmetry_space_group_name_H-M   'P 1'
_cell_length_a   12.91951100
_cell_length_b   8.10238700
_cell_length_c   14.73135255
_cell_angle_alpha   75.50930441
_cell_angle_beta   90.00000000
_cell_angle_gamma   90.00000000
_symmetry_Int_Tables_number   1
_chemical_formula_structural   K3AgC4(SN)4
_chemical_formula_sum   'K12 Ag4 C16 S16 N16'
_cell_volume   1493.00584048
_cell_formula_units_Z   4
loop_
 _symmetry_equiv_pos_site_id
 _symmetry_equiv_pos_as_xyz
  1  'x, y, z'
loop_
 _atom_site_type_symbol
 _atom_site_label
 _atom_site_symmetry_multiplicity
 _atom_site_fract_x
 _atom_site_fract_y
 _atom_site_fract_z
 _atom_site_occupancy
  K  K0  1  0.74707000  0.53561200  0.97570800  1
  K  K1  1  0.25293000  0.46438800  0.02429200  1
  K  K2  1  0.99088000  0.34196000  0.30182400  1
  K  K3  1  0.74252100  0.08991100  0.48031900  1
  K  K4  1  0.75293000  0.03561200  0.97570800  1
  K  K5  1  0.24707000  0.96438800  0.02429200  1
  K  K6  1  0.75747900  0.58991100  0.48031900  1
  K  K7  1  0.50912000  0.84196000  0.30182400  1
  K  K8  1  0.00912000  0.65804000  0.69817600  1
  K  K9  1  0.49088000  0.15804000  0.69817600  1
  K  K10  1  0.25747900  0.91008900  0.51968100  1
  K  K11  1  0.24252100  0.41008900  0.51968100  1
  Ag  Ag0  1  0.48715700  0.36533400  0.22325400  1
  Ag  Ag1  1  0.98715700  0.13466600  0.77674600  1
  Ag  Ag2  1  0.01284300  0.86533400  0.22325400  1
  Ag  Ag3  1  0.51284300  0.63466600  0.77674600  1
  C  C0  1  0.27409500  0.78659900  0.77471500  1
  C  C1  1  0.72590500  0.21340100  0.22528500  1
  C  C2  1  0.74588400  0.80134900  0.69000200  1
  C  C3  1  0.25411600  0.19865100  0.30999800  1
  C  C4  1  0.96695000  0.23266900  0.05884800  1
  C  C5  1  0.24588400  0.69865100  0.30999800  1
  C  C6  1  0.03305000  0.76733100  0.94115200  1
  C  C7  1  0.53305000  0.73266900  0.05884800  1
  C  C8  1  0.77409500  0.71340100  0.22528500  1
  C  C9  1  0.22590500  0.28659900  0.77471500  1
  C  C10  1  0.52780200  0.74044300  0.54036500  1
  C  C11  1  0.02780200  0.75955700  0.45963500  1
  C  C12  1  0.46695000  0.26733100  0.94115200  1
  C  C13  1  0.97219800  0.24044300  0.54036500  1
  C  C14  1  0.47219800  0.25955700  0.45963500  1
  C  C15  1  0.75411600  0.30134900  0.69000200  1
  S  S0  1  0.55411700  0.37998700  0.38680300  1
  S  S1  1  0.63226800  0.21721000  0.14858000  1
  S  S2  1  0.93202200  0.82776000  0.87264000  1
  S  S3  1  0.17278300  0.67217300  0.22319800  1
  S  S4  1  0.43202200  0.67224000  0.12736000  1
  S  S5  1  0.94588300  0.87998700  0.38680300  1
  S  S6  1  0.06797800  0.17224000  0.12736000  1
  S  S7  1  0.56797800  0.32776000  0.87264000  1
  S  S8  1  0.67278300  0.82782700  0.77680200  1
  S  S9  1  0.32721700  0.17217300  0.22319800  1
  S  S10  1  0.86773200  0.71721000  0.14858000  1
  S  S11  1  0.44588300  0.62001300  0.61319700  1
  S  S12  1  0.13226800  0.28279000  0.85142000  1
  S  S13  1  0.05411700  0.12001300  0.61319700  1
  S  S14  1  0.36773200  0.78279000  0.85142000  1
  S  S15  1  0.82721700  0.32782700  0.77680200  1
  N  N0  1  0.30016900  0.71646800  0.37187000  1
  N  N1  1  0.10527400  0.72186300  0.99050500  1
  N  N2  1  0.70739300  0.71030100  0.28077500  1
  N  N3  1  0.58603800  0.82656300  0.48616500  1
  N  N4  1  0.69983100  0.28353200  0.62813000  1
  N  N5  1  0.08603800  0.67343700  0.51383500  1
  N  N6  1  0.19983100  0.21646800  0.37187000  1
  N  N7  1  0.89472600  0.27813700  0.00949500  1
  N  N8  1  0.41396200  0.17343700  0.51383500  1
  N  N9  1  0.20739300  0.78969900  0.71922500  1
  N  N10  1  0.39472600  0.22186300  0.99050500  1
  N  N11  1  0.60527400  0.77813700  0.00949500  1
  N  N12  1  0.80016900  0.78353200  0.62813000  1
  N  N13  1  0.79260700  0.21030100  0.28077500  1
  N  N14  1  0.29260700  0.28969900  0.71922500  1
  N  N15  1  0.91396200  0.32656300  0.48616500  1
loop_
_geom_bond_atom_site_label_1
_geom_bond_atom_site_label_2
_geom_bond_distance
_geom_bond_site_symmetry_2
K0 N7 2.778358 1_556
K0 N11 2.820377 1_556
K0 S8 3.411858 1_555
K0 S7 3.431435 1_555
K0 S2 3.437952 1_555
K0 S1 3.471715 1_556
K0 S10 3.599399 1_556
K1 N1 2.778358 1_554
K1 N10 2.820377 1_554
K1 S9 3.411858 1_555
K1 S4 3.431435 1_555
K1 S6 3.437952 1_555
K1 S14 3.471715 1_554
K1 S12 3.599399 1_554
K2 N13 2.821594 1_555
K2 N15 2.864959 1_555
K2 N6 2.976758 1_655
K2 S6 3.355176 1_655
K2 S3 3.531580 1_655
K2 S10 3.665627 1_555
K2 S5 3.683855 1_545
K3 N3 2.924985 1_545
K3 N13 2.928519 1_555
K3 N15 2.944926 1_555
K3 N12 2.958592 1_545
K3 N4 3.035807 1_555
K3 S0 3.424355 1_555
K3 S5 3.586973 1_545
K4 N11 2.778358 1_546
K4 N7 2.820377 1_556
K4 S15 3.411858 1_555
K4 S2 3.431435 1_545
K4 S7 3.437952 1_555
K4 S10 3.471715 1_546
K4 S1 3.599399 1_556
K5 N10 2.778358 1_564
K5 N1 2.820377 1_554
K5 S3 3.411858 1_555
K5 S6 3.431435 1_565
K5 S4 3.437952 1_555
K5 S12 3.471715 1_564
K5 S14 3.599399 1_554
K6 N15 2.924985 1_555
K6 N2 2.928519 1_555
K6 N3 2.944926 1_555
K6 N4 2.958592 1_555
K6 N12 3.035807 1_555
K6 S5 3.424355 1_555
K6 S0 3.586973 1_555
K7 N2 2.821594 1_555
K7 N3 2.864959 1_555
K7 N0 2.976758 1_555
K7 S4 3.355176 1_555
K7 S9 3.531580 1_565
K7 S1 3.665627 1_565
K7 S0 3.683855 1_555
K8 N9 2.821594 1_555
K8 N5 2.864959 1_555
K8 N12 2.976758 1_455
K8 S2 3.355176 1_455
K8 S15 3.531580 1_455
K8 S12 3.665627 1_555
K8 S13 3.683855 1_565
K9 N14 2.821594 1_555
K9 N8 2.864959 1_555
K9 N4 2.976758 1_555
K9 S7 3.355176 1_555
K9 S8 3.531580 1_545
K9 S14 3.665627 1_545
K9 S11 3.683855 1_555
K10 N8 2.924985 1_565
K10 N9 2.928519 1_555
K10 N5 2.944926 1_555
K10 N6 2.958592 1_565
K10 N0 3.035807 1_555
K10 S11 3.424355 1_555
K10 S13 3.586973 1_565
K11 N5 2.924985 1_555
K11 N14 2.928519 1_555
K11 N8 2.944926 1_555
K11 N0 2.958592 1_555
K11 N6 3.035807 1_555
K11 S13 3.424355 1_555
K11 S11 3.586973 1_555
Ag0 S0 2.590433 1_555
Ag0 S9 2.592270 1_555
Ag0 S1 2.612648 1_555
Ag0 S4 2.632213 1_555
Ag1 S13 2.590433 1_655
Ag1 S15 2.592270 1_555
Ag1 S12 2.612648 1_655
Ag1 S2 2.632213 1_545
Ag2 S5 2.590433 1_455
Ag2 S3 2.592270 1_555
Ag2 S10 2.612648 1_455
Ag2 S6 2.632213 1_565
Ag3 S11 2.590433 1_555
Ag3 S8 2.592270 1_555
Ag3 S14 2.612648 1_555
Ag3 S7 2.632213 1_555
C0 N9 1.183720 1_555
C0 S14 1.650397 1_555
C1 N13 1.183720 1_555
C1 S1 1.650397 1_555
C2 N12 1.187146 1_555
C2 S8 1.646293 1_555
C3 N6 1.187146 1_555
C3 S9 1.646293 1_555
C4 N7 1.183611 1_555
C4 S6 1.647633 1_655
C5 N0 1.187146 1_555
C5 S3 1.646293 1_555
C6 N1 1.183611 1_555
C6 S2 1.647633 1_455
C7 N11 1.183611 1_555
C7 S4 1.647633 1_555
C8 N2 1.183720 1_555
C8 S10 1.650397 1_555
C9 N14 1.183720 1_555
C9 S12 1.650397 1_555
C10 N3 1.188133 1_555
C10 S11 1.643003 1_555
C11 N5 1.188133 1_555
C11 S5 1.643003 1_455
C12 N10 1.183611 1_555
C12 S7 1.647633 1_555
C13 N15 1.188133 1_555
C13 S13 1.643003 1_655
C14 N8 1.188133 1_555
C14 S0 1.643003 1_555
C15 N4 1.187146 1_555
C15 S15 1.646293 1_555
