# generated using pymatgen
data_Rb3AgO2
_symmetry_space_group_name_H-M   'P 1'
_cell_length_a   12.99647300
_cell_length_b   13.03424700
_cell_length_c   14.75043500
_cell_angle_alpha   90.00000000
_cell_angle_beta   90.00000000
_cell_angle_gamma   90.00000000
_symmetry_Int_Tables_number   1
_chemical_formula_structural   Rb3AgO2
_chemical_formula_sum   'Rb48 Ag16 O32'
_cell_volume   2498.71246703
_cell_formula_units_Z   16
loop_
 _symmetry_equiv_pos_site_id
 _symmetry_equiv_pos_as_xyz
  1  'x, y, z'
loop_
 _atom_site_type_symbol
 _atom_site_label
 _atom_site_symmetry_multiplicity
 _atom_site_fract_x
 _atom_site_fract_y
 _atom_site_fract_z
 _atom_site_occupancy
  Rb  Rb0  1  0.79334100  0.51166700  0.48960500  1
  Rb  Rb1  1  0.20336700  0.30162000  0.14435800  1
  Rb  Rb2  1  0.71678300  0.02120700  0.50884100  1
  Rb  Rb3  1  0.51493800  0.79954600  0.50596400  1
  Rb  Rb4  1  0.25500000  0.04364800  0.76316000  1
  Rb  Rb5  1  0.56222300  0.57736900  0.36907700  1
  Rb  Rb6  1  0.48506200  0.29954600  0.99403600  1
  Rb  Rb7  1  0.02187100  0.78338500  0.00463000  1
  Rb  Rb8  1  0.51062100  0.99606000  0.92490400  1
  Rb  Rb9  1  0.26409400  0.54397100  0.25419200  1
  Rb  Rb10  1  0.78321700  0.97879300  0.00884100  1
  Rb  Rb11  1  0.69849900  0.29956700  0.63944900  1
  Rb  Rb12  1  0.76409400  0.95602900  0.74580800  1
  Rb  Rb13  1  0.73590600  0.04397100  0.24580800  1
  Rb  Rb14  1  0.99581400  0.71104200  0.77467400  1
  Rb  Rb15  1  0.48937900  0.49606000  0.57509600  1
  Rb  Rb16  1  0.29334100  0.98833300  0.51039500  1
  Rb  Rb17  1  0.24500000  0.95635200  0.26316000  1
  Rb  Rb18  1  0.50418600  0.28895800  0.27467400  1
  Rb  Rb19  1  0.00418600  0.21104200  0.72532600  1
  Rb  Rb20  1  0.93777700  0.42263100  0.86907700  1
  Rb  Rb21  1  0.23590600  0.45602900  0.75419200  1
  Rb  Rb22  1  0.01493800  0.70045400  0.49403600  1
  Rb  Rb23  1  0.05273200  0.74863100  0.25530100  1
  Rb  Rb24  1  0.19849900  0.20043300  0.36055100  1
  Rb  Rb25  1  0.70665900  0.48833300  0.98960500  1
  Rb  Rb26  1  0.28321700  0.52120700  0.99115900  1
  Rb  Rb27  1  0.20665900  0.01166700  0.01039500  1
  Rb  Rb28  1  0.21678300  0.47879300  0.49115900  1
  Rb  Rb29  1  0.44726800  0.25136900  0.75530100  1
  Rb  Rb30  1  0.74500000  0.54364800  0.73684000  1
  Rb  Rb31  1  0.29663300  0.69838000  0.64435800  1
  Rb  Rb32  1  0.79663300  0.80162000  0.35564200  1
  Rb  Rb33  1  0.49581400  0.78895800  0.22532600  1
  Rb  Rb34  1  0.80150100  0.70043300  0.13944900  1
  Rb  Rb35  1  0.47812900  0.21661500  0.50463000  1
  Rb  Rb36  1  0.75500000  0.45635200  0.23684000  1
  Rb  Rb37  1  0.94726800  0.24863100  0.24469900  1
  Rb  Rb38  1  0.06222300  0.92263100  0.63092300  1
  Rb  Rb39  1  0.52187100  0.71661500  0.99537000  1
  Rb  Rb40  1  0.43777700  0.07736900  0.13092300  1
  Rb  Rb41  1  0.55273200  0.75136900  0.74469900  1
  Rb  Rb42  1  0.98937900  0.00394000  0.42490400  1
  Rb  Rb43  1  0.97812900  0.28338500  0.49537000  1
  Rb  Rb44  1  0.70336700  0.19838000  0.85564200  1
  Rb  Rb45  1  0.01062100  0.50394000  0.07509600  1
  Rb  Rb46  1  0.30150100  0.79956700  0.86055100  1
  Rb  Rb47  1  0.98506200  0.20045400  0.00596400  1
  Ag  Ag0  1  0.27182200  0.76640900  0.09219200  1
  Ag  Ag1  1  0.72817800  0.26640900  0.40780800  1
  Ag  Ag2  1  0.49918800  0.50298600  0.82420700  1
  Ag  Ag3  1  0.99932100  0.98980000  0.85015700  1
  Ag  Ag4  1  0.26669800  0.74313300  0.42053400  1
  Ag  Ag5  1  0.00067900  0.48980000  0.64984300  1
  Ag  Ag6  1  0.76669800  0.75686700  0.57946600  1
  Ag  Ag7  1  0.50067900  0.01020000  0.35015700  1
  Ag  Ag8  1  0.99918800  0.99701400  0.17579300  1
  Ag  Ag9  1  0.50081200  0.00298600  0.67579300  1
  Ag  Ag10  1  0.73330200  0.24313300  0.07946600  1
  Ag  Ag11  1  0.49932100  0.51020000  0.14984300  1
  Ag  Ag12  1  0.23330200  0.25686700  0.92053400  1
  Ag  Ag13  1  0.22817800  0.23359100  0.59219200  1
  Ag  Ag14  1  0.00081200  0.49701400  0.32420700  1
  Ag  Ag15  1  0.77182200  0.73359100  0.90780800  1
  O  O0  1  0.11949500  0.12029900  0.56881700  1
  O  O1  1  0.66081800  0.84396600  0.89351500  1
  O  O2  1  0.83918200  0.15603400  0.39351500  1
  O  O3  1  0.61405800  0.90186100  0.35647900  1
  O  O4  1  0.11117500  0.10923800  0.17752200  1
  O  O5  1  0.61949500  0.37970100  0.43118300  1
  O  O6  1  0.16081800  0.65603400  0.10648500  1
  O  O7  1  0.88594200  0.09813900  0.85647900  1
  O  O8  1  0.38050500  0.87970100  0.06881700  1
  O  O9  1  0.38569600  0.11667500  0.33778500  1
  O  O10  1  0.38882500  0.89076200  0.67752200  1
  O  O11  1  0.38594200  0.40186100  0.14352100  1
  O  O12  1  0.87670800  0.86805000  0.55758700  1
  O  O13  1  0.15326300  0.85393500  0.41468600  1
  O  O14  1  0.34673700  0.14606500  0.91468600  1
  O  O15  1  0.65326300  0.64606500  0.58531400  1
  O  O16  1  0.38888600  0.61545000  0.82292900  1
  O  O17  1  0.37670800  0.63195000  0.44241300  1
  O  O18  1  0.84673700  0.35393500  0.08531400  1
  O  O19  1  0.11430400  0.88332500  0.83778500  1
  O  O20  1  0.61430400  0.61667500  0.16221500  1
  O  O21  1  0.88888600  0.88455000  0.17707100  1
  O  O22  1  0.33918200  0.34396600  0.60648500  1
  O  O23  1  0.11405800  0.59813900  0.64352100  1
  O  O24  1  0.88050500  0.62029900  0.93118300  1
  O  O25  1  0.11111400  0.38455000  0.32292900  1
  O  O26  1  0.12329200  0.36805000  0.94241300  1
  O  O27  1  0.61111400  0.11545000  0.67707100  1
  O  O28  1  0.88569600  0.38332500  0.66221500  1
  O  O29  1  0.61117500  0.39076200  0.82247800  1
  O  O30  1  0.62329200  0.13195000  0.05758700  1
  O  O31  1  0.88882500  0.60923800  0.32247800  1
loop_
_geom_bond_atom_site_label_1
_geom_bond_atom_site_label_2
_geom_bond_distance
_geom_bond_site_symmetry_2
Ag0 O6 2.048279 1_555
Ag0 O8 2.072341 1_555
Ag1 O2 2.048279 1_555
Ag1 O5 2.072341 1_555
Ag2 O16 2.050414 1_555
Ag2 O29 2.063637 1_555
Ag3 O7 2.043050 1_565
Ag3 O19 2.047560 1_655
Ag4 O17 2.061178 1_555
Ag4 O13 2.065585 1_555
Ag4 Rb31 3.375135 1_555
Ag5 O23 2.043050 1_555
Ag5 O28 2.047560 1_455
Ag6 O12 2.061178 1_555
Ag6 O15 2.065585 1_555
Ag6 Rb32 3.375135 1_555
Ag7 O3 2.043050 1_545
Ag7 O9 2.047560 1_555
Ag8 O21 2.050414 1_555
Ag8 O4 2.063637 1_665
Ag9 O27 2.050414 1_555
Ag9 O10 2.063637 1_545
Ag10 O30 2.061178 1_555
Ag10 O18 2.065585 1_555
Ag10 Rb44 3.375135 1_554
Ag11 O11 2.043050 1_555
Ag11 O20 2.047560 1_555
Ag12 O26 2.061178 1_555
Ag12 O14 2.065585 1_555
Ag12 Rb1 3.375135 1_556
Ag13 O22 2.048279 1_555
Ag13 O0 2.072341 1_555
Ag14 O25 2.050414 1_555
Ag14 O31 2.063637 1_455
Ag15 O1 2.048279 1_555
Ag15 O24 2.072341 1_555
O0 Rb38 2.833967 1_545
O0 Rb16 2.967507 1_545
O0 Rb19 2.995712 1_555
O0 Rb43 3.011285 1_455
O0 Rb42 3.109031 1_455
O1 Rb8 2.820430 1_555
O1 Rb41 2.872009 1_555
O1 Rb39 2.876380 1_555
O1 Rb10 2.917639 1_556
O1 Rb12 2.946524 1_555
O2 Rb42 2.820430 1_555
O2 Rb37 2.872009 1_555
O2 Rb43 2.876380 1_555
O2 Rb2 2.917639 1_555
O2 Rb13 2.946524 1_555
O3 Rb32 2.708799 1_555
O3 Rb33 2.875722 1_555
O3 Rb3 2.880948 1_555
O3 Rb13 2.933198 1_565
O3 Rb2 3.041886 1_565
O4 Rb1 2.821833 1_555
O4 Rb17 2.931167 1_545
O4 Rb37 2.969972 1_455
O4 Rb27 3.038840 1_555
O4 Rb24 3.160634 1_555
O4 Rb47 3.240936 1_455
O5 Rb5 2.833967 1_555
O5 Rb0 2.967507 1_555
O5 Rb18 2.995712 1_555
O5 Rb35 3.011285 1_555
O5 Rb15 3.109031 1_555
O6 Rb45 2.820430 1_555
O6 Rb23 2.872009 1_555
O6 Rb7 2.876380 1_555
O6 Rb26 2.917639 1_554
O6 Rb9 2.946524 1_555
O7 Rb44 2.708799 1_555
O7 Rb19 2.875722 1_655
O7 Rb47 2.880948 1_556
O7 Rb12 2.933198 1_545
O7 Rb10 3.041886 1_546
O8 Rb40 2.833967 1_565
O8 Rb27 2.967507 1_565
O8 Rb33 2.995712 1_555
O8 Rb39 3.011285 1_554
O8 Rb8 3.109031 1_554
O9 Rb24 2.687681 1_555
O9 Rb18 2.877617 1_555
O9 Rb17 2.986981 1_545
O9 Rb35 3.032607 1_555
O9 Rb40 3.167189 1_555
O9 Rb16 3.274382 1_545
O10 Rb31 2.821833 1_555
O10 Rb4 2.931167 1_565
O10 Rb41 2.969972 1_555
O10 Rb16 3.038840 1_555
O10 Rb46 3.160634 1_555
O10 Rb3 3.240936 1_555
O11 Rb1 2.708799 1_555
O11 Rb18 2.875722 1_555
O11 Rb6 2.880948 1_554
O11 Rb9 2.933198 1_555
O11 Rb26 3.041886 1_554
O12 Rb38 2.736676 1_655
O12 Rb2 2.970211 1_565
O12 Rb22 2.979620 1_655
O12 Rb42 3.018584 1_565
O12 Rb32 3.271983 1_555
O12 Rb12 3.341432 1_555
O13 Rb17 2.863402 1_555
O13 Rb16 2.894141 1_555
O13 Rb42 2.895180 1_465
O13 Rb22 2.933231 1_555
O13 Rb23 3.019632 1_555
O14 Rb4 2.863402 1_555
O14 Rb27 2.894141 1_556
O14 Rb8 2.895180 1_545
O14 Rb6 2.933231 1_555
O14 Rb29 3.019632 1_555
O15 Rb30 2.863402 1_555
O15 Rb0 2.894141 1_555
O15 Rb15 2.895180 1_555
O15 Rb3 2.933231 1_555
O15 Rb41 3.019632 1_555
O16 Rb46 2.712367 1_555
O16 Rb41 3.000758 1_555
O16 Rb21 3.049384 1_555
O16 Rb31 3.089317 1_555
O16 Rb26 3.090732 1_555
O16 Rb39 3.345994 1_555
O17 Rb5 2.736676 1_555
O17 Rb28 2.970211 1_555
O17 Rb3 2.979620 1_555
O17 Rb15 3.018584 1_555
O17 Rb31 3.271983 1_555
O17 Rb9 3.341432 1_555
O18 Rb36 2.863402 1_555
O18 Rb25 2.894141 1_554
O18 Rb45 2.895180 1_655
O18 Rb47 2.933231 1_555
O18 Rb37 3.019632 1_555
O19 Rb46 2.687681 1_555
O19 Rb14 2.877617 1_455
O19 Rb4 2.986981 1_565
O19 Rb7 3.032607 1_556
O19 Rb38 3.167189 1_555
O19 Rb27 3.274382 1_566
O20 Rb34 2.687681 1_555
O20 Rb33 2.877617 1_555
O20 Rb36 2.986981 1_555
O20 Rb39 3.032607 1_554
O20 Rb5 3.167189 1_555
O20 Rb25 3.274382 1_554
O21 Rb34 2.712367 1_555
O21 Rb23 3.000758 1_655
O21 Rb13 3.049384 1_565
O21 Rb32 3.089317 1_555
O21 Rb10 3.090732 1_555
O21 Rb7 3.345994 1_655
O22 Rb15 2.820430 1_555
O22 Rb29 2.872009 1_555
O22 Rb35 2.876380 1_555
O22 Rb28 2.917639 1_555
O22 Rb21 2.946524 1_555
O23 Rb31 2.708799 1_555
O23 Rb14 2.875722 1_455
O23 Rb22 2.880948 1_555
O23 Rb21 2.933198 1_555
O23 Rb28 3.041886 1_555
O24 Rb20 2.833967 1_555
O24 Rb25 2.967507 1_555
O24 Rb14 2.995712 1_555
O24 Rb7 3.011285 1_656
O24 Rb45 3.109031 1_656
O25 Rb24 2.712367 1_555
O25 Rb37 3.000758 1_455
O25 Rb9 3.049384 1_555
O25 Rb1 3.089317 1_555
O25 Rb28 3.090732 1_555
O25 Rb43 3.345994 1_455
O26 Rb20 2.736676 1_455
O26 Rb26 2.970211 1_555
O26 Rb47 2.979620 1_456
O26 Rb45 3.018584 1_556
O26 Rb1 3.271983 1_556
O26 Rb21 3.341432 1_555
O27 Rb11 2.712367 1_555
O27 Rb29 3.000758 1_555
O27 Rb12 3.049384 1_545
O27 Rb44 3.089317 1_555
O27 Rb2 3.090732 1_555
O27 Rb35 3.345994 1_555
O28 Rb11 2.687681 1_555
O28 Rb19 2.877617 1_655
O28 Rb30 2.986981 1_555
O28 Rb43 3.032607 1_555
O28 Rb20 3.167189 1_555
O28 Rb0 3.274382 1_555
O29 Rb44 2.821833 1_555
O29 Rb30 2.931167 1_555
O29 Rb29 2.969972 1_555
O29 Rb25 3.038840 1_555
O29 Rb11 3.160634 1_555
O29 Rb6 3.240936 1_555
O30 Rb40 2.736676 1_555
O30 Rb10 2.970211 1_545
O30 Rb6 2.979620 1_554
O30 Rb8 3.018584 1_544
O30 Rb44 3.271983 1_554
O30 Rb13 3.341432 1_555
O31 Rb32 2.821833 1_555
O31 Rb36 2.931167 1_555
O31 Rb23 2.969972 1_655
O31 Rb0 3.038840 1_555
O31 Rb34 3.160634 1_555
O31 Rb22 3.240936 1_655
