# generated using pymatgen
data_Na6MnS4
_symmetry_space_group_name_H-M   'P 1'
_cell_length_a   8.94110545
_cell_length_b   8.94110649
_cell_length_c   6.92517508
_cell_angle_alpha   89.99999501
_cell_angle_beta   89.99997126
_cell_angle_gamma   120.00497151
_symmetry_Int_Tables_number   1
_chemical_formula_structural   Na6MnS4
_chemical_formula_sum   'Na12 Mn2 S8'
_cell_volume   479.42658759
_cell_formula_units_Z   2
loop_
 _symmetry_equiv_pos_site_id
 _symmetry_equiv_pos_as_xyz
  1  'x, y, z'
loop_
 _atom_site_type_symbol
 _atom_site_label
 _atom_site_symmetry_multiplicity
 _atom_site_fract_x
 _atom_site_fract_y
 _atom_site_fract_z
 _atom_site_occupancy
  Na  Na0  1  0.53239163  0.06478661  0.36759872  1
  Na  Na1  1  0.46760416  0.53239571  0.86760211  1
  Na  Na2  1  0.14666924  0.85333061  0.53644494  1
  Na  Na3  1  0.29334502  0.14667027  0.03643680  1
  Na  Na4  1  0.85333008  0.70665549  0.03643665  1
  Na  Na5  1  0.14667017  0.29334561  0.53643681  1
  Na  Na6  1  0.70665462  0.85332998  0.53643675  1
  Na  Na7  1  0.85333058  0.14666940  0.03644488  1
  Na  Na8  1  0.53239498  0.46760511  0.36760209  1
  Na  Na9  1  0.93521341  0.46760850  0.36759842  1
  Na  Na10  1  0.46760663  0.93521192  0.86759863  1
  Na  Na11  1  0.06478813  0.53239350  0.86759880  1
  Mn  Mn0  1  0.66666856  0.33333178  0.75074660  1
  Mn  Mn1  1  0.33333114  0.66666809  0.25074678  1
  S  S0  1  0.18603066  0.37206767  0.14204906  1
  S  S1  1  0.62793196  0.81396920  0.14204886  1
  S  S2  1  0.33333333  0.66666624  0.59848258  1
  S  S3  1  0.66666650  0.33333348  0.09848128  1
  S  S4  1  0.18603540  0.81396442  0.14205425  1
  S  S5  1  0.81396406  0.18603568  0.64205356  1
  S  S6  1  0.81396899  0.62793253  0.64204881  1
  S  S7  1  0.37206776  0.18603122  0.64204960  1
loop_
_geom_bond_atom_site_label_1
_geom_bond_atom_site_label_2
_geom_bond_distance
_geom_bond_site_symmetry_2
Na0 S3 2.792288 1_555
Na0 S5 2.897617 1_555
Na0 S7 2.897687 1_555
Na0 S4 3.180128 1_545
Na0 S1 3.180354 1_545
Na1 S2 2.792383 1_555
Na1 S0 2.897565 1_556
Na1 S1 2.897566 1_556
Na1 S7 3.180314 1_555
Na1 S6 3.180317 1_555
Na2 S6 2.729347 1_455
Na2 S7 2.729352 1_565
Na2 S4 2.798441 1_555
Na2 S2 2.922588 1_555
Na3 S4 2.729492 1_545
Na3 S0 2.729654 1_555
Na3 S7 2.798390 1_554
Na3 S3 2.922327 1_555
Na4 S4 2.729489 1_655
Na4 S1 2.729656 1_555
Na4 S6 2.798396 1_554
Na4 S3 2.922331 1_555
Na5 S5 2.729492 1_455
Na5 S7 2.729657 1_555
Na5 S0 2.798393 1_555
Na5 S2 2.922322 1_555
Na6 S5 2.729490 1_565
Na6 S6 2.729655 1_555
Na6 S1 2.798396 1_555
Na6 S2 2.922326 1_555
Na7 S0 2.729348 1_655
Na7 S1 2.729348 1_545
Na7 S5 2.798446 1_554
Na7 S3 2.922585 1_555
Na8 S3 2.792398 1_555
Na8 S6 2.897569 1_555
Na8 S7 2.897570 1_555
Na8 S1 3.180311 1_555
Na8 S0 3.180312 1_555
Na9 S3 2.792288 1_555
Na9 S5 2.897620 1_555
Na9 S6 2.897685 1_555
Na9 S4 3.180123 1_655
Na9 S0 3.180353 1_655
Na10 S2 2.792275 1_555
Na10 S4 2.897613 1_556
Na10 S1 2.897684 1_556
Na10 S5 3.180138 1_565
Na10 S7 3.180357 1_565
Na11 S2 2.792272 1_555
Na11 S4 2.897612 1_556
Na11 S0 2.897686 1_556
Na11 S5 3.180143 1_455
Na11 S6 3.180360 1_455
Mn0 S7 2.402040 1_555
Mn0 S6 2.402041 1_555
Mn0 S5 2.402127 1_555
Mn0 S3 2.408124 1_556
Mn1 S0 2.402039 1_555
Mn1 S1 2.402042 1_555
Mn1 S4 2.402129 1_555
Mn1 S2 2.408131 1_555
