# generated using pymatgen
data_Ba4Os6ClO18
_symmetry_space_group_name_H-M   'P 1'
_cell_length_a   8.21654592
_cell_length_b   8.21654592
_cell_length_c   8.21654592
_cell_angle_alpha   109.47122063
_cell_angle_beta   109.47122063
_cell_angle_gamma   109.47122063
_symmetry_Int_Tables_number   1
_chemical_formula_structural   Ba4Os6ClO18
_chemical_formula_sum   'Ba4 Os6 Cl1 O18'
_cell_volume   427.01779125
_cell_formula_units_Z   1
loop_
 _symmetry_equiv_pos_site_id
 _symmetry_equiv_pos_as_xyz
  1  'x, y, z'
loop_
 _atom_site_type_symbol
 _atom_site_label
 _atom_site_symmetry_multiplicity
 _atom_site_fract_x
 _atom_site_fract_y
 _atom_site_fract_z
 _atom_site_occupancy
  Ba  Ba0  1  0.00000000  0.36972900  0.00000000  1
  Ba  Ba1  1  0.00000000  0.00000000  0.36972900  1
  Ba  Ba2  1  0.63027100  0.63027100  0.63027100  1
  Ba  Ba3  1  0.36972900  0.00000000  0.00000000  1
  Os  Os0  1  0.50000000  0.36520500  0.86520500  1
  Os  Os1  1  0.50000000  0.63479500  0.13479500  1
  Os  Os2  1  0.36520500  0.86520500  0.50000000  1
  Os  Os3  1  0.63479500  0.13479500  0.50000000  1
  Os  Os4  1  0.86520500  0.50000000  0.36520500  1
  Os  Os5  1  0.13479500  0.50000000  0.63479500  1
  Cl  Cl0  1  0.00000000  0.00000000  0.00000000  1
  O  O0  1  0.69775500  0.34806900  0.06883800  1
  O  O1  1  0.65193100  0.34968600  0.72076900  1
  O  O2  1  0.27923100  0.62891700  0.93116200  1
  O  O3  1  0.65031400  0.30224500  0.37108300  1
  O  O4  1  0.34968600  0.72076900  0.65193100  1
  O  O5  1  0.93116200  0.27923100  0.62891700  1
  O  O6  1  0.06883800  0.69775500  0.34806900  1
  O  O7  1  0.00000000  0.66100700  0.66100700  1
  O  O8  1  0.66100700  0.66100700  0.00000000  1
  O  O9  1  0.72076900  0.65193100  0.34968600  1
  O  O10  1  0.34806900  0.06883800  0.69775500  1
  O  O11  1  0.66100700  0.00000000  0.66100700  1
  O  O12  1  0.00000000  0.33899300  0.33899300  1
  O  O13  1  0.62891700  0.93116200  0.27923100  1
  O  O14  1  0.37108300  0.65031400  0.30224500  1
  O  O15  1  0.30224500  0.37108300  0.65031400  1
  O  O16  1  0.33899300  0.00000000  0.33899300  1
  O  O17  1  0.33899300  0.33899300  0.00000000  1
loop_
_geom_bond_atom_site_label_1
_geom_bond_atom_site_label_2
_geom_bond_distance
_geom_bond_site_symmetry_2
Ba0 O14 2.688457 1_555
Ba0 O0 2.688457 1_455
Ba0 O5 2.688457 1_454
Ba0 O17 2.879394 1_555
Ba0 O11 2.879394 1_454
Ba0 O12 2.879394 1_555
Ba0 O2 2.920601 1_554
Ba0 O1 2.920601 1_454
Ba0 O6 2.920601 1_555
Ba0 Cl0 3.037895 1_555
Ba1 O6 2.688457 1_545
Ba1 O15 2.688457 1_555
Ba1 O13 2.688457 1_445
Ba1 O16 2.879394 1_555
Ba1 O12 2.879394 1_555
Ba1 O8 2.879394 1_445
Ba1 O5 2.920601 1_455
Ba1 O9 2.920601 1_445
Ba1 O10 2.920601 1_555
Ba1 Cl0 3.037895 1_555
Ba2 O9 2.688457 1_555
Ba2 O4 2.688457 1_555
Ba2 O1 2.688457 1_555
Ba2 O7 2.879394 1_655
Ba2 O8 2.879394 1_556
Ba2 O11 2.879394 1_565
Ba2 O3 2.920601 1_555
Ba2 O14 2.920601 1_555
Ba2 O15 2.920601 1_555
Ba2 Cl0 3.037895 1_666
Ba3 O10 2.688457 1_554
Ba3 O3 2.688457 1_555
Ba3 O2 2.688457 1_544
Ba3 O7 2.879394 1_544
Ba3 O17 2.879394 1_555
Ba3 O16 2.879394 1_555
Ba3 O13 2.920601 1_545
Ba3 O4 2.920601 1_544
Ba3 O0 2.920601 1_555
Ba3 Cl0 3.037895 1_555
O0 Os0 1.989121 1_554
O0 Os4 1.993977 1_555
O1 Os3 1.989121 1_555
O1 Os0 1.993977 1_555
O2 Os1 1.989121 1_556
O2 Os5 1.993977 1_555
O3 Os4 1.989121 1_555
O3 Os3 1.993977 1_555
O4 Os5 1.989121 1_555
O4 Os2 1.993977 1_555
O5 Os5 1.989121 1_655
O5 Os3 1.993977 1_555
O6 Os4 1.989121 1_455
O6 Os2 1.993977 1_555
O7 Os5 1.992247 1_555
O7 Os4 1.992247 1_455
O8 Os0 1.992247 1_554
O8 Os1 1.992247 1_555
O9 Os1 1.989121 1_555
O9 Os4 1.993977 1_555
O10 Os2 1.989121 1_545
O10 Os0 1.993977 1_555
O11 Os2 1.992247 1_545
O11 Os3 1.992247 1_555
O12 Os5 1.992247 1_555
O12 Os4 1.992247 1_455
O13 Os3 1.989121 1_565
O13 Os1 1.993977 1_555
O14 Os2 1.989121 1_555
O14 Os1 1.993977 1_555
O15 Os0 1.989121 1_555
O15 Os5 1.993977 1_555
O16 Os2 1.992247 1_545
O16 Os3 1.992247 1_555
O17 Os1 1.992247 1_555
O17 Os0 1.992247 1_554
