# generated using pymatgen
data_Cs2MoS4
_symmetry_space_group_name_H-M   'P 1'
_cell_length_a   7.30251068
_cell_length_b   10.19212873
_cell_length_c   12.93399050
_cell_angle_alpha   90.00000000
_cell_angle_beta   90.00000000
_cell_angle_gamma   90.00000000
_symmetry_Int_Tables_number   1
_chemical_formula_structural   Cs2MoS4
_chemical_formula_sum   'Cs8 Mo4 S16'
_cell_volume   962.65271216
_cell_formula_units_Z   4
loop_
 _symmetry_equiv_pos_site_id
 _symmetry_equiv_pos_as_xyz
  1  'x, y, z'
loop_
 _atom_site_type_symbol
 _atom_site_label
 _atom_site_symmetry_multiplicity
 _atom_site_fract_x
 _atom_site_fract_y
 _atom_site_fract_z
 _atom_site_occupancy
  Cs  Cs0  1  0.75000000  0.84444545  0.60153037  1
  Cs  Cs1  1  0.25000000  0.65555455  0.10153037  1
  Cs  Cs2  1  0.25000000  0.46545145  0.66945830  1
  Cs  Cs3  1  0.75000000  0.34444545  0.89846963  1
  Cs  Cs4  1  0.75000000  0.03454855  0.16945830  1
  Cs  Cs5  1  0.25000000  0.15555455  0.39846963  1
  Cs  Cs6  1  0.25000000  0.96545145  0.83054170  1
  Cs  Cs7  1  0.75000000  0.53454855  0.33054170  1
  Mo  Mo0  1  0.75000000  0.25284190  0.57871773  1
  Mo  Mo1  1  0.25000000  0.24715810  0.07871773  1
  Mo  Mo2  1  0.25000000  0.74715810  0.42128227  1
  Mo  Mo3  1  0.75000000  0.75284190  0.92128227  1
  S  S0  1  0.50645557  0.66643477  0.85096020  1
  S  S1  1  0.49354443  0.33356523  0.14903980  1
  S  S2  1  0.75000000  0.96545319  0.89517219  1
  S  S3  1  0.49354443  0.83356523  0.35096020  1
  S  S4  1  0.75000000  0.20888782  0.41316180  1
  S  S5  1  0.25000000  0.79111218  0.58683820  1
  S  S6  1  0.25000000  0.29111218  0.91316180  1
  S  S7  1  0.50645557  0.16643477  0.64903980  1
  S  S8  1  0.00645557  0.33356523  0.14903980  1
  S  S9  1  0.25000000  0.03454681  0.10482781  1
  S  S10  1  0.75000000  0.46545319  0.60482781  1
  S  S11  1  0.99354443  0.66643477  0.85096020  1
  S  S12  1  0.75000000  0.70888782  0.08683820  1
  S  S13  1  0.99354443  0.16643477  0.64903980  1
  S  S14  1  0.00645557  0.83356523  0.35096020  1
  S  S15  1  0.25000000  0.53454681  0.39517219  1
loop_
_geom_bond_atom_site_label_1
_geom_bond_atom_site_label_2
_geom_bond_distance
_geom_bond_site_symmetry_2
Cs0 S5 3.696384 1_555
Cs0 S5 3.696384 1_655
Cs0 S14 3.744705 1_655
Cs0 S3 3.744705 1_555
Cs0 S7 3.782926 1_565
Cs0 S13 3.782926 1_565
Cs0 S10 3.862973 1_555
Cs0 S2 3.993194 1_555
Cs0 S0 4.106409 1_555
Cs0 S11 4.106409 1_555
Cs1 S12 3.696384 1_455
Cs1 S12 3.696384 1_555
Cs1 S11 3.744705 1_454
Cs1 S0 3.744705 1_554
Cs1 S1 3.782926 1_555
Cs1 S8 3.782926 1_555
Cs1 S9 3.862973 1_565
Cs1 S15 3.993194 1_555
Cs1 S14 4.106409 1_555
Cs1 S3 4.106409 1_555
Cs2 S5 3.486955 1_555
Cs2 S7 3.586778 1_555
Cs2 S13 3.586778 1_455
Cs2 S15 3.616836 1_555
Cs2 S6 3.618398 1_555
Cs2 S11 3.635157 1_455
Cs2 S0 3.635157 1_555
Cs2 S10 3.745724 1_555
Cs2 S10 3.745724 1_455
Cs3 S6 3.696384 1_555
Cs3 S6 3.696384 1_655
Cs3 S1 3.744705 1_556
Cs3 S8 3.744705 1_656
Cs3 S11 3.782926 1_555
Cs3 S0 3.782926 1_555
Cs3 S2 3.862973 1_545
Cs3 S10 3.993194 1_555
Cs3 S13 4.106409 1_555
Cs3 S7 4.106409 1_555
Cs4 S12 3.486955 1_545
Cs4 S1 3.586778 1_555
Cs4 S8 3.586778 1_655
Cs4 S2 3.616836 1_544
Cs4 S4 3.618398 1_555
Cs4 S3 3.635157 1_545
Cs4 S14 3.635157 1_645
Cs4 S9 3.745724 1_555
Cs4 S9 3.745724 1_655
Cs5 S4 3.696384 1_455
Cs5 S4 3.696384 1_555
Cs5 S13 3.744705 1_455
Cs5 S7 3.744705 1_555
Cs5 S3 3.782926 1_545
Cs5 S14 3.782926 1_545
Cs5 S15 3.862973 1_555
Cs5 S9 3.993194 1_555
Cs5 S1 4.106409 1_555
Cs5 S8 4.106409 1_555
Cs6 S6 3.486955 1_565
Cs6 S0 3.586778 1_555
Cs6 S11 3.586778 1_455
Cs6 S9 3.616836 1_566
Cs6 S5 3.618398 1_555
Cs6 S7 3.635157 1_565
Cs6 S13 3.635157 1_465
Cs6 S2 3.745724 1_455
Cs6 S2 3.745724 1_555
Cs7 S4 3.486955 1_555
Cs7 S3 3.586778 1_555
Cs7 S14 3.586778 1_655
Cs7 S10 3.616836 1_555
Cs7 S12 3.618398 1_555
Cs7 S1 3.635157 1_555
Cs7 S8 3.635157 1_655
Cs7 S15 3.745724 1_555
Cs7 S15 3.745724 1_655
Mo0 S7 2.183087 1_555
Mo0 S13 2.183087 1_555
Mo0 S4 2.187659 1_555
Mo0 S10 2.193119 1_555
Mo1 S8 2.183087 1_555
Mo1 S1 2.183087 1_555
Mo1 S6 2.187659 1_554
Mo1 S9 2.193119 1_555
Mo2 S3 2.183087 1_555
Mo2 S14 2.183087 1_555
Mo2 S5 2.187659 1_555
Mo2 S15 2.193119 1_555
Mo3 S11 2.183087 1_555
Mo3 S0 2.183087 1_555
Mo3 S12 2.187659 1_556
Mo3 S2 2.193119 1_555
