# generated using pymatgen
data_Lu2WO6
_symmetry_space_group_name_H-M   'P 1'
_cell_length_a   5.22658457
_cell_length_b   7.49100569
_cell_length_c   11.14422560
_cell_angle_alpha   75.14039409
_cell_angle_beta   90.00000000
_cell_angle_gamma   90.00000000
_symmetry_Int_Tables_number   1
_chemical_formula_structural   Lu2WO6
_chemical_formula_sum   'Lu8 W4 O24'
_cell_volume   421.73100314
_cell_formula_units_Z   4
loop_
 _symmetry_equiv_pos_site_id
 _symmetry_equiv_pos_as_xyz
  1  'x, y, z'
loop_
 _atom_site_type_symbol
 _atom_site_label
 _atom_site_symmetry_multiplicity
 _atom_site_fract_x
 _atom_site_fract_y
 _atom_site_fract_z
 _atom_site_occupancy
  Lu  Lu0  1  0.26026707  0.00000000  0.75000000  1
  Lu  Lu1  1  0.18301616  0.79608490  0.07899254  1
  Lu  Lu2  1  0.18301616  0.20391510  0.42100746  1
  Lu  Lu3  1  0.73973293  0.00000000  0.25000000  1
  Lu  Lu4  1  0.31625960  0.50000000  0.75000000  1
  Lu  Lu5  1  0.81698384  0.20391510  0.92100746  1
  Lu  Lu6  1  0.81698384  0.79608490  0.57899254  1
  Lu  Lu7  1  0.68374040  0.50000000  0.25000000  1
  W  W0  1  0.74405246  0.72193331  0.88643116  1
  W  W1  1  0.25594754  0.72193331  0.38643116  1
  W  W2  1  0.74405246  0.27806669  0.61356884  1
  W  W3  1  0.25594754  0.27806669  0.11356884  1
  O  O0  1  0.53714867  0.15182211  0.06943835  1
  O  O1  1  0.04006951  0.05915429  0.10399409  1
  O  O2  1  0.02095657  0.71125702  0.76979940  1
  O  O3  1  0.46285133  0.15182211  0.56943835  1
  O  O4  1  0.35890315  0.48620652  0.38521985  1
  O  O5  1  0.95993049  0.05915429  0.60399409  1
  O  O6  1  0.53705608  0.79147634  0.72473648  1
  O  O7  1  0.46294392  0.79147634  0.22473648  1
  O  O8  1  0.15215124  0.63183838  0.55135922  1
  O  O9  1  0.04006951  0.94084571  0.39600591  1
  O  O10  1  0.46285133  0.84817789  0.93056165  1
  O  O11  1  0.46294392  0.20852366  0.27526352  1
  O  O12  1  0.84784876  0.36816162  0.44864078  1
  O  O13  1  0.64109685  0.48620652  0.88521985  1
  O  O14  1  0.35890315  0.51379348  0.11478015  1
  O  O15  1  0.95993049  0.94084571  0.89600591  1
  O  O16  1  0.53714867  0.84817789  0.43056165  1
  O  O17  1  0.97904343  0.28874298  0.23020060  1
  O  O18  1  0.53705608  0.20852366  0.77526352  1
  O  O19  1  0.84784876  0.63183838  0.05135922  1
  O  O20  1  0.02095657  0.28874298  0.73020060  1
  O  O21  1  0.15215124  0.36816162  0.94864078  1
  O  O22  1  0.97904343  0.71125702  0.26979940  1
  O  O23  1  0.64109685  0.51379348  0.61478015  1
loop_
_geom_bond_atom_site_label_1
_geom_bond_atom_site_label_2
_geom_bond_distance
_geom_bond_site_symmetry_2
Lu0 O6 2.199470 1_545
Lu0 O18 2.199470 1_555
Lu0 O5 2.222193 1_455
Lu0 O15 2.222193 1_445
Lu0 O10 2.299959 1_545
Lu0 O3 2.299959 1_555
Lu0 O20 2.459025 1_555
Lu0 O2 2.459025 1_545
Lu1 O10 2.167153 1_554
Lu1 O7 2.179686 1_555
Lu1 O1 2.191100 1_565
Lu1 O19 2.207198 1_455
Lu1 O14 2.245732 1_555
Lu1 O22 2.317075 1_455
Lu1 O15 2.357909 1_454
Lu2 O3 2.167153 1_555
Lu2 O11 2.179686 1_555
Lu2 O9 2.191100 1_545
Lu2 O12 2.207198 1_455
Lu2 O4 2.245732 1_555
Lu2 O17 2.317075 1_455
Lu2 O5 2.357909 1_455
Lu3 O7 2.199470 1_545
Lu3 O11 2.199470 1_555
Lu3 O1 2.222193 1_655
Lu3 O9 2.222193 1_645
Lu3 O0 2.299959 1_555
Lu3 O16 2.299959 1_545
Lu3 O17 2.459025 1_555
Lu3 O22 2.459025 1_545
Lu4 O13 2.254798 1_555
Lu4 O23 2.254798 1_555
Lu4 O20 2.261491 1_555
Lu4 O2 2.261491 1_555
Lu4 O8 2.343112 1_555
Lu4 O21 2.343112 1_555
Lu4 O6 2.421398 1_555
Lu4 O18 2.421398 1_555
Lu5 O0 2.167153 1_556
Lu5 O18 2.179686 1_555
Lu5 O15 2.191100 1_545
Lu5 O21 2.207198 1_655
Lu5 O13 2.245732 1_555
Lu5 O20 2.317075 1_655
Lu5 O1 2.357909 1_656
Lu6 O16 2.167153 1_555
Lu6 O6 2.179686 1_555
Lu6 O5 2.191100 1_565
Lu6 O8 2.207198 1_655
Lu6 O23 2.245732 1_555
Lu6 O2 2.317075 1_655
Lu6 O9 2.357909 1_655
Lu7 O14 2.254798 1_555
Lu7 O4 2.254798 1_555
Lu7 O22 2.261491 1_555
Lu7 O17 2.261491 1_555
Lu7 O12 2.343112 1_555
Lu7 O19 2.343112 1_555
Lu7 O7 2.421398 1_555
Lu7 O11 2.421398 1_555
O0 W3 1.880118 1_555
O1 W3 2.015786 1_555
O2 W0 1.960532 1_455
O3 W2 1.880118 1_555
O4 W1 1.849358 1_555
O5 W2 2.015786 1_555
O6 W0 2.051207 1_555
O7 W1 2.051207 1_555
O8 W1 1.868633 1_555
O9 W1 2.015786 1_555
O10 W0 1.880118 1_555
O11 W3 2.051207 1_555
O12 W2 1.868633 1_555
O13 W0 1.849358 1_555
O14 W3 1.849358 1_555
O15 W0 2.015786 1_555
O16 W1 1.880118 1_555
O17 W3 1.960532 1_655
O18 W2 2.051207 1_555
O19 W0 1.868633 1_554
O20 W2 1.960532 1_455
O21 W3 1.868633 1_556
O22 W1 1.960532 1_655
O23 W2 1.849358 1_555
