# generated using pymatgen
data_Ca9B2(CCl2)4
_symmetry_space_group_name_H-M   'P 1'
_cell_length_a   8.88644773
_cell_length_b   8.88644773
_cell_length_c   12.11361540
_cell_angle_alpha   90.00000000
_cell_angle_beta   90.00000000
_cell_angle_gamma   98.29009671
_symmetry_Int_Tables_number   1
_chemical_formula_structural   Ca9B2(CCl2)4
_chemical_formula_sum   'Ca18 B4 C8 Cl16'
_cell_volume   946.60375808
_cell_formula_units_Z   2
loop_
 _symmetry_equiv_pos_site_id
 _symmetry_equiv_pos_as_xyz
  1  'x, y, z'
loop_
 _atom_site_type_symbol
 _atom_site_label
 _atom_site_symmetry_multiplicity
 _atom_site_fract_x
 _atom_site_fract_y
 _atom_site_fract_z
 _atom_site_occupancy
  Ca  Ca0  1  0.87965185  0.12034815  0.75000000  1
  Ca  Ca1  1  0.19377416  0.43448991  0.75000000  1
  Ca  Ca2  1  0.66833782  0.97077508  0.44933372  1
  Ca  Ca3  1  0.43448991  0.19377416  0.25000000  1
  Ca  Ca4  1  0.34178807  0.65821193  0.40843077  1
  Ca  Ca5  1  0.33166218  0.02922492  0.55066628  1
  Ca  Ca6  1  0.02922492  0.33166218  0.05066628  1
  Ca  Ca7  1  0.34178807  0.65821193  0.09156923  1
  Ca  Ca8  1  0.80622584  0.56551009  0.25000000  1
  Ca  Ca9  1  0.65821193  0.34178807  0.90843077  1
  Ca  Ca10  1  0.65821193  0.34178807  0.59156923  1
  Ca  Ca11  1  0.12034815  0.87965185  0.25000000  1
  Ca  Ca12  1  0.33166218  0.02922492  0.94933372  1
  Ca  Ca13  1  0.97077508  0.66833782  0.94933372  1
  Ca  Ca14  1  0.02922492  0.33166218  0.44933372  1
  Ca  Ca15  1  0.97077508  0.66833782  0.55066628  1
  Ca  Ca16  1  0.56551009  0.80622584  0.75000000  1
  Ca  Ca17  1  0.66833782  0.97077508  0.05066628  1
  B  B0  1  0.91473878  0.41821473  0.75000000  1
  B  B1  1  0.08526122  0.58178527  0.25000000  1
  B  B2  1  0.41821473  0.91473878  0.25000000  1
  B  B3  1  0.58178527  0.08526122  0.75000000  1
  C  C0  1  0.06340406  0.59695701  0.36780951  1
  C  C1  1  0.93659594  0.40304299  0.63219049  1
  C  C2  1  0.06340406  0.59695701  0.13219049  1
  C  C3  1  0.59695701  0.06340406  0.63219049  1
  C  C4  1  0.40304299  0.93659594  0.13219049  1
  C  C5  1  0.93659594  0.40304299  0.86780951  1
  C  C6  1  0.40304299  0.93659594  0.36780951  1
  C  C7  1  0.59695701  0.06340406  0.86780951  1
  Cl  Cl0  1  0.87655190  0.80112630  0.75000000  1
  Cl  Cl1  1  0.48788303  0.51211697  0.25000000  1
  Cl  Cl2  1  0.80112630  0.87655190  0.25000000  1
  Cl  Cl3  1  0.27633590  0.72366410  0.87908128  1
  Cl  Cl4  1  0.72366410  0.27633590  0.37908128  1
  Cl  Cl5  1  0.19887370  0.12344810  0.75000000  1
  Cl  Cl6  1  0.34030622  0.34030622  0.50000000  1
  Cl  Cl7  1  0.65969378  0.65969378  0.00000000  1
  Cl  Cl8  1  0.34030622  0.34030622  0.00000000  1
  Cl  Cl9  1  0.27633590  0.72366410  0.62091872  1
  Cl  Cl10  1  -0.00000000  -0.00000000  0.50000000  1
  Cl  Cl11  1  0.65969378  0.65969378  0.50000000  1
  Cl  Cl12  1  0.72366410  0.27633590  0.12091872  1
  Cl  Cl13  1  0.12344810  0.19887370  0.25000000  1
  Cl  Cl14  1  0.51211697  0.48788303  0.75000000  1
  Cl  Cl15  1  -0.00000000  -0.00000000  0.00000000  1
loop_
_geom_bond_atom_site_label_1
_geom_bond_atom_site_label_2
_geom_bond_distance
_geom_bond_site_symmetry_2
Ca0 Cl0 2.832907 1_545
Ca0 Cl5 2.832907 1_655
Ca0 Cl15 3.433450 1_656
Ca0 Cl10 3.433450 1_655
Ca1 Cl5 2.770954 1_555
Ca1 Cl14 2.800168 1_555
Ca1 Cl3 3.007174 1_555
Ca1 Cl9 3.007174 1_555
Ca1 Cl8 3.446970 1_556
Ca1 Cl6 3.446970 1_555
Ca2 Cl4 2.820300 1_565
Ca2 Cl11 2.821933 1_555
Ca2 Cl2 2.865134 1_555
Ca2 Cl10 2.984959 1_665
Ca3 Cl13 2.770954 1_555
Ca3 Cl1 2.800168 1_555
Ca3 Cl12 3.007174 1_555
Ca3 Cl4 3.007174 1_555
Ca3 Cl8 3.446970 1_555
Ca3 Cl6 3.446970 1_555
Ca4 Cl9 2.720225 1_555
Ca4 Cl1 2.745950 1_555
Ca4 Cl11 3.033277 1_555
Ca4 Cl6 3.033277 1_555
Ca5 Cl9 2.820300 1_545
Ca5 Cl6 2.821933 1_555
Ca5 Cl5 2.865134 1_555
Ca5 Cl10 2.984959 1_555
Ca6 Cl12 2.820300 1_455
Ca6 Cl8 2.821933 1_555
Ca6 Cl13 2.865134 1_555
Ca6 Cl15 2.984959 1_555
Ca7 Cl3 2.720225 1_554
Ca7 Cl1 2.745950 1_555
Ca7 Cl7 3.033277 1_555
Ca7 Cl8 3.033277 1_555
Ca8 Cl2 2.770954 1_555
Ca8 Cl1 2.800168 1_555
Ca8 Cl4 3.007174 1_555
Ca8 Cl12 3.007174 1_555
Ca8 Cl11 3.446970 1_555
Ca8 Cl7 3.446970 1_555
Ca9 Cl12 2.720225 1_556
Ca9 Cl14 2.745950 1_555
Ca9 Cl7 3.033277 1_556
Ca9 Cl8 3.033277 1_556
Ca10 Cl4 2.720225 1_555
Ca10 Cl14 2.745950 1_555
Ca10 Cl11 3.033277 1_555
Ca10 Cl6 3.033277 1_555
Ca11 Cl2 2.832907 1_455
Ca11 Cl13 2.832907 1_565
Ca11 Cl10 3.433450 1_565
Ca11 Cl15 3.433450 1_565
Ca12 Cl3 2.820300 1_545
Ca12 Cl8 2.821933 1_556
Ca12 Cl5 2.865134 1_555
Ca12 Cl15 2.984959 1_556
Ca13 Cl3 2.820300 1_655
Ca13 Cl7 2.821933 1_556
Ca13 Cl0 2.865134 1_555
Ca13 Cl15 2.984959 1_666
Ca14 Cl4 2.820300 1_455
Ca14 Cl6 2.821933 1_555
Ca14 Cl13 2.865134 1_555
Ca14 Cl10 2.984959 1_555
Ca15 Cl9 2.820300 1_655
Ca15 Cl11 2.821933 1_555
Ca15 Cl0 2.865134 1_555
Ca15 Cl10 2.984959 1_665
Ca16 Cl0 2.770954 1_555
Ca16 Cl14 2.800168 1_555
Ca16 Cl3 3.007174 1_555
Ca16 Cl9 3.007174 1_555
Ca16 Cl11 3.446970 1_555
Ca16 Cl7 3.446970 1_556
Ca17 Cl12 2.820300 1_565
Ca17 Cl7 2.821933 1_555
Ca17 Cl2 2.865134 1_555
Ca17 Cl15 2.984959 1_665
B0 C1 1.449161 1_555
B0 C5 1.449161 1_555
B0 Ca1 2.462942 1_655
B0 Ca0 2.620248 1_555
B1 C0 1.449161 1_555
B1 C2 1.449161 1_555
B1 Ca8 2.462942 1_455
B1 Ca11 2.620248 1_555
B2 C4 1.449161 1_555
B2 C6 1.449161 1_555
B2 Ca3 2.462942 1_565
B2 Ca11 2.620248 1_555
B3 C3 1.449161 1_555
B3 C7 1.449161 1_555
B3 Ca16 2.462942 1_545
B3 Ca0 2.620248 1_555
C0 Ca15 2.477291 1_455
C0 Ca4 2.504002 1_555
C0 Ca14 2.533568 1_555
C0 Ca8 2.674620 1_455
C0 Ca11 2.870019 1_555
C1 Ca14 2.477291 1_655
C1 Ca10 2.504002 1_555
C1 Ca15 2.533568 1_555
C1 Ca1 2.674620 1_655
C1 Ca0 2.870019 1_555
C2 Ca13 2.477291 1_454
C2 Ca7 2.504002 1_555
C2 Ca6 2.533568 1_555
C2 Ca8 2.674620 1_455
C2 Ca11 2.870019 1_555
C3 Ca2 2.477291 1_545
C3 Ca10 2.504002 1_555
C3 Ca5 2.533568 1_555
C3 Ca16 2.674620 1_545
C3 Ca0 2.870019 1_555
C4 Ca12 2.477291 1_564
C4 Ca7 2.504002 1_555
C4 Ca17 2.533568 1_555
C4 Ca3 2.674620 1_565
C4 Ca11 2.870019 1_555
C5 Ca6 2.477291 1_656
C5 Ca9 2.504002 1_555
C5 Ca13 2.533568 1_555
C5 Ca1 2.674620 1_655
C5 Ca0 2.870019 1_555
C6 Ca5 2.477291 1_565
C6 Ca4 2.504002 1_555
C6 Ca2 2.533568 1_555
C6 Ca3 2.674620 1_565
C6 Ca11 2.870019 1_555
C7 Ca17 2.477291 1_546
C7 Ca9 2.504002 1_555
C7 Ca12 2.533568 1_555
C7 Ca16 2.674620 1_545
C7 Ca0 2.870019 1_555
