# generated using pymatgen
data_FeMoO4
_symmetry_space_group_name_H-M   'P 1'
_cell_length_a   6.76965770
_cell_length_b   6.76896445
_cell_length_c   7.80593225
_cell_angle_alpha   72.55035638
_cell_angle_beta   72.52258545
_cell_angle_gamma   84.99720173
_symmetry_Int_Tables_number   1
_chemical_formula_structural   FeMoO4
_chemical_formula_sum   'Fe4 Mo4 O16'
_cell_volume   325.48028689
_cell_formula_units_Z   4
loop_
 _symmetry_equiv_pos_site_id
 _symmetry_equiv_pos_as_xyz
  1  'x, y, z'
loop_
 _atom_site_type_symbol
 _atom_site_label
 _atom_site_symmetry_multiplicity
 _atom_site_fract_x
 _atom_site_fract_y
 _atom_site_fract_z
 _atom_site_occupancy
  Fe  Fe0  1  0.69641100  0.30343500  0.50011200  1
  Fe  Fe1  1  0.30592000  0.30602500  0.84530400  1
  Fe  Fe2  1  0.69430700  0.69415300  0.15450700  1
  Fe  Fe3  1  0.30370100  0.69613400  0.50001300  1
  Mo  Mo0  1  0.71252800  0.71230100  0.64186800  1
  Mo  Mo1  1  0.28765000  0.28729300  0.35822000  1
  Mo  Mo2  1  0.28649400  0.71356200  0.99999300  1
  Mo  Mo3  1  0.71335000  0.28677200  0.99994100  1
  O  O0  1  0.65047500  0.65144900  0.91558600  1
  O  O1  1  0.34886400  0.34931600  0.08415600  1
  O  O2  1  0.35037200  0.34951500  0.56148800  1
  O  O3  1  0.65031100  0.64928500  0.43879800  1
  O  O4  1  0.64035900  0.34256700  0.23951100  1
  O  O5  1  0.34256900  0.64081400  0.23924200  1
  O  O6  1  0.35933500  0.65765700  0.76066300  1
  O  O7  1  0.65757600  0.35962500  0.76059600  1
  O  O8  1  0.98418300  0.68314200  0.58264000  1
  O  O9  1  0.68314600  0.98387600  0.58315100  1
  O  O10  1  0.01609600  0.31685800  0.41682200  1
  O  O11  1  0.31684700  0.01597700  0.41731500  1
  O  O12  1  0.31821900  0.98394100  0.92813800  1
  O  O13  1  0.98369200  0.31838400  0.92895700  1
  O  O14  1  0.01600700  0.68174700  0.07215800  1
  O  O15  1  0.68158700  0.01617000  0.07082200  1
loop_
_geom_bond_atom_site_label_1
_geom_bond_atom_site_label_2
_geom_bond_distance
_geom_bond_site_symmetry_2
Fe0 O9 2.065231 1_545
Fe0 O10 2.065975 1_655
Fe0 O7 2.115056 1_555
Fe0 O4 2.115470 1_555
Fe0 O3 2.257716 1_555
Fe0 O2 2.258870 1_555
Fe1 O2 2.075883 1_555
Fe1 O1 2.077187 1_556
Fe1 O12 2.081686 1_545
Fe1 O13 2.082578 1_455
Fe1 O6 2.301310 1_555
Fe1 O7 2.301592 1_555
Fe2 O3 2.078500 1_555
Fe2 O0 2.078585 1_554
Fe2 O14 2.079104 1_655
Fe2 O15 2.081448 1_565
Fe2 O4 2.301396 1_555
Fe2 O5 2.301826 1_555
Fe3 O8 2.064847 1_455
Fe3 O11 2.067075 1_565
Fe3 O5 2.114521 1_555
Fe3 O6 2.115349 1_555
Fe3 O2 2.263081 1_555
Fe3 O3 2.263242 1_555
Mo0 O9 1.764822 1_555
Mo0 O8 1.765047 1_555
Mo0 O3 1.926116 1_555
Mo0 O0 1.968383 1_555
Mo0 O7 2.305903 1_555
Mo0 O6 2.308752 1_555
Mo1 O11 1.762972 1_555
Mo1 O10 1.764760 1_555
Mo1 O2 1.926641 1_555
Mo1 O1 1.970756 1_555
Mo1 O4 2.306239 1_555
Mo1 O5 2.311271 1_555
Mo2 O12 1.758082 1_555
Mo2 O14 1.758719 1_556
Mo2 O6 1.927332 1_555
Mo2 O5 1.927710 1_556
Mo2 O0 2.385918 1_555
Mo2 O1 2.387993 1_556
Mo3 O13 1.757909 1_555
Mo3 O15 1.759800 1_556
Mo3 O7 1.927438 1_555
Mo3 O4 1.928715 1_556
Mo3 O1 2.389579 1_556
Mo3 O0 2.391328 1_555
