# generated using pymatgen
data_Pr3Co11B4
_symmetry_space_group_name_H-M   'P 1'
_cell_length_a   5.15499421
_cell_length_b   5.15499421
_cell_length_c   9.73394300
_cell_angle_alpha   90.00000000
_cell_angle_beta   90.00000000
_cell_angle_gamma   120.00000266
_symmetry_Int_Tables_number   1
_chemical_formula_structural   Pr3Co11B4
_chemical_formula_sum   'Pr3 Co11 B4'
_cell_volume   224.01432040
_cell_formula_units_Z   1
loop_
 _symmetry_equiv_pos_site_id
 _symmetry_equiv_pos_as_xyz
  1  'x, y, z'
loop_
 _atom_site_type_symbol
 _atom_site_label
 _atom_site_symmetry_multiplicity
 _atom_site_fract_x
 _atom_site_fract_y
 _atom_site_fract_z
 _atom_site_occupancy
  Pr  Pr0  1  0.00000000  0.00000000  0.65921900  1
  Pr  Pr1  1  0.00000000  0.00000000  0.34078100  1
  Pr  Pr2  1  0.00000000  0.00000000  0.00000000  1
  Co  Co0  1  0.50000000  0.50000000  0.50000000  1
  Co  Co1  1  0.00000000  0.50000000  0.50000000  1
  Co  Co2  1  0.50000000  0.00000000  0.20465500  1
  Co  Co3  1  0.50000000  0.50000000  0.20465500  1
  Co  Co4  1  0.00000000  0.50000000  0.20465500  1
  Co  Co5  1  0.50000000  0.00000000  0.79534500  1
  Co  Co6  1  0.50000000  0.50000000  0.79534500  1
  Co  Co7  1  0.00000000  0.50000000  0.79534500  1
  Co  Co8  1  0.33333300  0.66666700  0.00000000  1
  Co  Co9  1  0.66666700  0.33333300  0.00000000  1
  Co  Co10  1  0.50000000  0.00000000  0.50000000  1
  B  B0  1  0.33333300  0.66666700  0.64997900  1
  B  B1  1  0.66666700  0.33333300  0.64997900  1
  B  B2  1  0.66666700  0.33333300  0.35002100  1
  B  B3  1  0.33333300  0.66666700  0.35002100  1
loop_
_geom_bond_atom_site_label_1
_geom_bond_atom_site_label_2
_geom_bond_distance
_geom_bond_site_symmetry_2
Pr0 Pr1 3.099657 1_555
Pr0 Pr2 3.317143 1_556
Pr1 Pr2 3.317143 1_555
Co0 Pr0 3.007567 1_665
Co0 Pr1 3.007567 1_555
Co0 Pr1 3.007567 1_665
Co0 Pr0 3.007567 1_555
Co1 Pr0 3.007567 1_555
Co1 Pr0 3.007567 1_565
Co1 Pr1 3.007567 1_565
Co1 Pr1 3.007567 1_555
Co2 Co9 2.486555 1_555
Co2 Co8 2.486555 1_545
Co2 Pr1 2.898142 1_655
Co2 Pr1 2.898142 1_555
Co3 Co9 2.486558 1_555
Co3 Co8 2.486558 1_555
Co3 Pr1 2.898142 1_665
Co3 Pr1 2.898142 1_555
Co4 Co8 2.486555 1_555
Co4 Co9 2.486555 1_455
Co4 Pr1 2.898142 1_565
Co4 Pr1 2.898142 1_555
Co5 Co9 2.486555 1_556
Co5 Co8 2.486555 1_546
Co5 Pr0 2.898142 1_555
Co5 Pr0 2.898142 1_655
Co6 Co8 2.486558 1_556
Co6 Co9 2.486558 1_556
Co6 Pr0 2.898142 1_665
Co6 Pr0 2.898142 1_555
Co7 Co8 2.486555 1_556
Co7 Co9 2.486555 1_456
Co7 Pr0 2.898142 1_555
Co7 Pr0 2.898142 1_565
Co8 Pr2 2.976234 1_565
Co8 Pr2 2.976239 1_665
Co8 Pr2 2.976239 1_555
Co9 Pr2 2.976234 1_655
Co9 Pr2 2.976239 1_555
Co9 Pr2 2.976239 1_665
Co10 Pr0 3.007567 1_555
Co10 Pr0 3.007567 1_655
Co10 Pr1 3.007567 1_655
Co10 Pr1 3.007567 1_555
B0 Co7 2.053454 1_555
B0 Co5 2.053454 1_565
B0 Co6 2.053457 1_555
B0 Co1 2.084649 1_555
B0 Co10 2.084649 1_565
B0 Co0 2.084653 1_555
B0 Pr0 2.977593 1_565
B0 Pr0 2.977597 1_665
B0 Pr0 2.977597 1_555
B1 Co5 2.053454 1_555
B1 Co7 2.053454 1_655
B1 Co6 2.053457 1_555
B1 Co10 2.084649 1_555
B1 Co1 2.084649 1_655
B1 Co0 2.084653 1_555
B1 Pr0 2.977593 1_655
B1 Pr0 2.977597 1_555
B1 Pr0 2.977597 1_665
B2 Co4 2.053454 1_655
B2 Co2 2.053454 1_555
B2 Co3 2.053457 1_555
B2 Co1 2.084649 1_655
B2 Co10 2.084649 1_555
B2 Co0 2.084653 1_555
B2 Pr1 2.977593 1_655
B2 Pr1 2.977597 1_555
B2 Pr1 2.977597 1_665
B3 Co2 2.053454 1_565
B3 Co4 2.053454 1_555
B3 Co3 2.053457 1_555
B3 Co10 2.084649 1_565
B3 Co1 2.084649 1_555
B3 Co0 2.084653 1_555
B3 Pr1 2.977593 1_565
B3 Pr1 2.977597 1_665
B3 Pr1 2.977597 1_555
