# generated using pymatgen
data_Ba4Nd2Cu2O9
_symmetry_space_group_name_H-M   'P 1'
_cell_length_a   12.11348000
_cell_length_b   12.11348000
_cell_length_c   3.91816000
_cell_angle_alpha   90.00000000
_cell_angle_beta   90.00000000
_cell_angle_gamma   90.00000000
_symmetry_Int_Tables_number   1
_chemical_formula_structural   Ba4Nd2Cu2O9
_chemical_formula_sum   'Ba8 Nd4 Cu4 O18'
_cell_volume   574.93668405
_cell_formula_units_Z   2
loop_
 _symmetry_equiv_pos_site_id
 _symmetry_equiv_pos_as_xyz
  1  'x, y, z'
loop_
 _atom_site_type_symbol
 _atom_site_label
 _atom_site_symmetry_multiplicity
 _atom_site_fract_x
 _atom_site_fract_y
 _atom_site_fract_z
 _atom_site_occupancy
  Ba  Ba0  1  0.82835200  0.88649600  0.26124500  1
  Ba  Ba1  1  0.67164800  0.38649600  0.76124500  1
  Ba  Ba2  1  0.17164800  0.11350400  0.26124500  1
  Ba  Ba3  1  0.88649600  0.17164800  0.73875500  1
  Ba  Ba4  1  0.61350400  0.67164800  0.23875500  1
  Ba  Ba5  1  0.38649600  0.32835200  0.23875500  1
  Ba  Ba6  1  0.11350400  0.82835200  0.73875500  1
  Ba  Ba7  1  0.32835200  0.61350400  0.76124500  1
  Nd  Nd0  1  0.88975300  0.61024700  0.75000000  1
  Nd  Nd1  1  0.11024700  0.38975300  0.75000000  1
  Nd  Nd2  1  0.38975300  0.88975300  0.25000000  1
  Nd  Nd3  1  0.61024700  0.11024700  0.25000000  1
  Cu  Cu0  1  0.09836500  0.59836500  0.25000000  1
  Cu  Cu1  1  0.40163500  0.09836500  0.75000000  1
  Cu  Cu2  1  0.59836500  0.90163500  0.75000000  1
  Cu  Cu3  1  0.90163500  0.40163500  0.25000000  1
  O  O0  1  0.25634300  0.75634300  0.25000000  1
  O  O1  1  0.20919400  0.47692100  0.25075200  1
  O  O2  1  0.02307900  0.29080600  0.24924800  1
  O  O3  1  0.24365700  0.25634300  0.75000000  1
  O  O4  1  0.59283300  0.90716700  0.25000000  1
  O  O5  1  0.09283300  0.59283300  0.75000000  1
  O  O6  1  0.70919400  0.02307900  0.75075200  1
  O  O7  1  0.97692100  0.70919400  0.24924800  1
  O  O8  1  0.75634300  0.74365700  0.75000000  1
  O  O9  1  0.90716700  0.40716700  0.75000000  1
  O  O10  1  0.47692100  0.79080600  0.74924800  1
  O  O11  1  0.29080600  0.97692100  0.75075200  1
  O  O12  1  0.79080600  0.52307900  0.25075200  1
  O  O13  1  0.74365700  0.24365700  0.25000000  1
  O  O14  1  0.50000000  0.50000000  0.00000000  1
  O  O15  1  0.52307900  0.20919400  0.74924800  1
  O  O16  1  0.40716700  0.09283300  0.25000000  1
  O  O17  1  0.00000000  0.00000000  0.50000000  1
loop_
_geom_bond_atom_site_label_1
_geom_bond_atom_site_label_2
_geom_bond_distance
_geom_bond_site_symmetry_2
Ba0 O17 2.662490 1_665
Ba0 O8 2.724341 1_555
Ba0 O8 2.786988 1_554
Ba0 O7 2.802479 1_555
Ba0 O4 2.864261 1_555
Ba0 O6 2.915374 1_565
Ba0 O6 2.970115 1_564
Ba1 O14 2.662490 1_556
Ba1 O13 2.724341 1_556
Ba1 O13 2.786988 1_555
Ba1 O15 2.802479 1_555
Ba1 O9 2.864261 1_555
Ba1 O12 2.915374 1_556
Ba1 O12 2.970115 1_555
Ba2 O17 2.662490 1_555
Ba2 O3 2.724341 1_555
Ba2 O3 2.786988 1_554
Ba2 O2 2.802479 1_555
Ba2 O16 2.864261 1_555
Ba2 O11 2.915374 1_545
Ba2 O11 2.970115 1_544
Ba3 O17 2.662490 1_655
Ba3 O13 2.724341 1_555
Ba3 O13 2.786988 1_556
Ba3 O6 2.802479 1_555
Ba3 O9 2.864261 1_555
Ba3 O2 2.915374 1_655
Ba3 O2 2.970115 1_656
Ba4 O14 2.662490 1_555
Ba4 O8 2.724341 1_554
Ba4 O8 2.786988 1_555
Ba4 O12 2.802479 1_555
Ba4 O4 2.864261 1_555
Ba4 O10 2.915374 1_554
Ba4 O10 2.970115 1_555
Ba5 O14 2.662490 1_555
Ba5 O3 2.724341 1_554
Ba5 O3 2.786988 1_555
Ba5 O1 2.802479 1_555
Ba5 O16 2.864261 1_555
Ba5 O15 2.915374 1_554
Ba5 O15 2.970115 1_555
Ba6 O17 2.662490 1_565
Ba6 O0 2.724341 1_555
Ba6 O0 2.786988 1_556
Ba6 O11 2.802479 1_555
Ba6 O5 2.864261 1_555
Ba6 O7 2.915374 1_455
Ba6 O7 2.970115 1_456
Ba7 O14 2.662490 1_556
Ba7 O0 2.724341 1_556
Ba7 O0 2.786988 1_555
Ba7 O10 2.802479 1_555
Ba7 O5 2.864261 1_555
Ba7 O1 2.915374 1_556
Ba7 O1 2.970115 1_555
Nd0 O8 2.285453 1_555
Nd0 O5 2.469033 1_655
Nd0 O9 2.469033 1_555
Nd0 O7 2.525475 1_556
Nd0 O12 2.525475 1_555
Nd0 O12 2.530042 1_556
Nd0 O7 2.530042 1_555
Nd1 O3 2.285453 1_555
Nd1 O9 2.469033 1_455
Nd1 O5 2.469033 1_555
Nd1 O2 2.525475 1_556
Nd1 O1 2.525475 1_555
Nd1 O1 2.530042 1_556
Nd1 O2 2.530042 1_555
Nd2 O0 2.285453 1_555
Nd2 O16 2.469033 1_565
Nd2 O4 2.469033 1_555
Nd2 O11 2.525475 1_554
Nd2 O10 2.525475 1_555
Nd2 O10 2.530042 1_554
Nd2 O11 2.530042 1_555
Nd3 O13 2.285453 1_555
Nd3 O16 2.469033 1_555
Nd3 O4 2.469033 1_545
Nd3 O15 2.525475 1_555
Nd3 O6 2.525475 1_554
Nd3 O15 2.530042 1_554
Nd3 O6 2.530042 1_555
Cu0 O5 1.961371 1_554
Cu0 O5 1.961371 1_555
Cu0 O7 1.991619 1_455
Cu0 O1 1.991619 1_555
Cu0 O0 2.706329 1_555
Cu1 O16 1.961371 1_555
Cu1 O16 1.961371 1_556
Cu1 O15 1.991619 1_555
Cu1 O11 1.991619 1_545
Cu1 O3 2.706329 1_555
Cu2 O4 1.961371 1_556
Cu2 O4 1.961371 1_555
Cu2 O10 1.991619 1_555
Cu2 O6 1.991619 1_565
Cu2 O8 2.706329 1_555
Cu3 O9 1.961371 1_554
Cu3 O9 1.961371 1_555
Cu3 O12 1.991619 1_555
Cu3 O2 1.991619 1_655
Cu3 O13 2.706329 1_555
