# generated using pymatgen
data_Mn4N
_symmetry_space_group_name_H-M   'P 1'
_cell_length_a   3.98501374
_cell_length_b   3.98502637
_cell_length_c   3.98499926
_cell_angle_alpha   90.00000000
_cell_angle_beta   90.00000000
_cell_angle_gamma   90.00000000
_symmetry_Int_Tables_number   1
_chemical_formula_structural   Mn4N
_chemical_formula_sum   'Mn4 N1'
_cell_volume   63.28332183
_cell_formula_units_Z   1
loop_
 _symmetry_equiv_pos_site_id
 _symmetry_equiv_pos_as_xyz
  1  'x, y, z'
loop_
 _atom_site_type_symbol
 _atom_site_label
 _atom_site_symmetry_multiplicity
 _atom_site_fract_x
 _atom_site_fract_y
 _atom_site_fract_z
 _atom_site_occupancy
  Mn  Mn0  1  -0.00000000  0.00000000  0.00000000  1
  Mn  Mn1  1  0.50000000  0.50000000  0.00000000  1
  Mn  Mn2  1  0.50000000  0.00000000  0.50000000  1
  Mn  Mn3  1  -0.00000000  0.50000000  0.50000000  1
  N  N0  1  0.50000000  0.50000000  0.50000000  1
loop_
_geom_bond_atom_site_label_1
_geom_bond_atom_site_label_2
_geom_bond_distance
_geom_bond_site_symmetry_2
Mn0 Mn2 2.817825 1_455
Mn0 Mn2 2.817825 1_555
Mn0 Mn2 2.817825 1_454
Mn0 Mn2 2.817825 1_554
Mn0 Mn3 2.817830 1_555
Mn0 Mn3 2.817830 1_544
Mn0 Mn3 2.817830 1_545
Mn0 Mn3 2.817830 1_554
Mn0 Mn1 2.817835 1_455
Mn0 Mn1 2.817835 1_555
Mn0 Mn1 2.817835 1_445
Mn0 Mn1 2.817835 1_545
Mn1 N0 1.992500 1_554
Mn1 N0 1.992500 1_555
Mn2 N0 1.992513 1_555
Mn2 N0 1.992513 1_545
Mn3 N0 1.992507 1_455
Mn3 N0 1.992507 1_555
