# generated using pymatgen
data_K2CuSbS3
_symmetry_space_group_name_H-M   'P 1'
_cell_length_a   18.15629900
_cell_length_b   6.35531200
_cell_length_c   7.56179049
_cell_angle_alpha   59.64486516
_cell_angle_beta   90.00000000
_cell_angle_gamma   90.00000000
_symmetry_Int_Tables_number   1
_chemical_formula_structural   K2CuSbS3
_chemical_formula_sum   'K8 Cu4 Sb4 S12'
_cell_volume   752.92925077
_cell_formula_units_Z   4
loop_
 _symmetry_equiv_pos_site_id
 _symmetry_equiv_pos_as_xyz
  1  'x, y, z'
loop_
 _atom_site_type_symbol
 _atom_site_label
 _atom_site_symmetry_multiplicity
 _atom_site_fract_x
 _atom_site_fract_y
 _atom_site_fract_z
 _atom_site_occupancy
  K  K0  1  0.88104800  0.08326600  0.35456900  1
  K  K1  1  0.61895200  0.08326600  0.85456900  1
  K  K2  1  0.45779200  0.64433100  0.71039800  1
  K  K3  1  0.04220800  0.64433100  0.21039800  1
  K  K4  1  0.95779200  0.35566900  0.78960200  1
  K  K5  1  0.38104800  0.91673400  0.14543100  1
  K  K6  1  0.11895200  0.91673400  0.64543100  1
  K  K7  1  0.54220800  0.35566900  0.28960200  1
  Cu  Cu0  1  0.22089100  0.61716600  0.43113000  1
  Cu  Cu1  1  0.77910900  0.38283400  0.56887000  1
  Cu  Cu2  1  0.72089100  0.38283400  0.06887000  1
  Cu  Cu3  1  0.27910900  0.61716600  0.93113000  1
  Sb  Sb0  1  0.17657000  0.23666700  0.99548600  1
  Sb  Sb1  1  0.67657000  0.76333300  0.50451400  1
  Sb  Sb2  1  0.82343000  0.76333300  0.00451400  1
  Sb  Sb3  1  0.32343000  0.23666700  0.49548600  1
  S  S0  1  0.56266900  0.84033900  0.31438300  1
  S  S1  1  0.37385600  0.40939100  0.14573500  1
  S  S2  1  0.93733100  0.84033900  0.81438300  1
  S  S3  1  0.43733100  0.15966100  0.68561700  1
  S  S4  1  0.20981000  0.80048900  0.08354600  1
  S  S5  1  0.87385600  0.59060900  0.35426500  1
  S  S6  1  0.12614400  0.40939100  0.64573500  1
  S  S7  1  0.29019000  0.80048900  0.58354600  1
  S  S8  1  0.06266900  0.15966100  0.18561700  1
  S  S9  1  0.79019000  0.19951100  0.91645400  1
  S  S10  1  0.62614400  0.59060900  0.85426500  1
  S  S11  1  0.70981000  0.19951100  0.41645400  1
loop_
_geom_bond_atom_site_label_1
_geom_bond_atom_site_label_2
_geom_bond_distance
_geom_bond_site_symmetry_2
K0 S5 3.134872 1_545
K0 S2 3.176768 1_545
K0 S5 3.225806 1_555
K0 S11 3.283349 1_555
K0 S9 3.430584 1_554
K0 S8 3.480652 1_655
K1 S10 3.134872 1_545
K1 S0 3.176768 1_546
K1 S10 3.225806 1_555
K1 S9 3.283349 1_555
K1 S11 3.430584 1_555
K1 S3 3.480652 1_555
K2 S7 3.194200 1_555
K2 S3 3.200675 1_555
K2 S10 3.204337 1_555
K2 S3 3.206088 1_565
K2 S0 3.221004 1_555
K2 S1 3.228119 1_556
K3 S4 3.194200 1_555
K3 S8 3.200675 1_555
K3 S5 3.204337 1_455
K3 S8 3.206088 1_565
K3 S2 3.221004 1_454
K3 S6 3.228119 1_555
K4 S9 3.194200 1_555
K4 S2 3.200675 1_555
K4 S6 3.204337 1_655
K4 S2 3.206088 1_545
K4 S8 3.221004 1_656
K4 S5 3.228119 1_555
K5 S1 3.134872 1_565
K5 S3 3.176768 1_564
K5 S1 3.225806 1_555
K5 S4 3.283349 1_555
K5 S7 3.430584 1_555
K5 S0 3.480652 1_555
K6 S6 3.134872 1_565
K6 S8 3.176768 1_565
K6 S6 3.225806 1_555
K6 S7 3.283349 1_555
K6 S4 3.430584 1_556
K6 S2 3.480652 1_455
K7 S11 3.194200 1_555
K7 S0 3.200675 1_555
K7 S1 3.204337 1_555
K7 S0 3.206088 1_545
K7 S3 3.221004 1_555
K7 S10 3.228119 1_554
Cu0 S6 2.273890 1_555
Cu0 S4 2.282781 1_555
Cu0 S7 2.371925 1_555
Cu0 Sb3 2.891554 1_555
Cu1 S5 2.273890 1_555
Cu1 S9 2.282781 1_555
Cu1 S11 2.371925 1_555
Cu1 Sb1 2.891554 1_555
Cu2 S10 2.273890 1_554
Cu2 S11 2.282781 1_555
Cu2 S9 2.371925 1_554
Cu2 Sb2 2.891554 1_555
Cu3 S1 2.273890 1_556
Cu3 S7 2.282781 1_555
Cu3 S4 2.371925 1_556
Cu3 Sb0 2.891554 1_555
S0 Sb1 2.423247 1_555
S1 Sb3 2.470545 1_555
S2 Sb2 2.423247 1_556
S3 Sb3 2.423247 1_555
S4 Sb0 2.574145 1_564
S5 Sb2 2.470545 1_555
S6 Sb0 2.470545 1_555
S7 Sb3 2.574145 1_565
S8 Sb0 2.423247 1_554
S9 Sb2 2.574145 1_546
S10 Sb1 2.470545 1_555
S11 Sb1 2.574145 1_545
