# generated using pymatgen
data_Nd4Br9
_symmetry_space_group_name_H-M   'P 1'
_cell_length_a   7.15606100
_cell_length_b   7.65483500
_cell_length_c   29.37923883
_cell_angle_alpha   89.58414654
_cell_angle_beta   90.00000000
_cell_angle_gamma   90.00000000
_symmetry_Int_Tables_number   1
_chemical_formula_structural   Nd4Br9
_chemical_formula_sum   'Nd16 Br36'
_cell_volume   1609.30725216
_cell_formula_units_Z   4
loop_
 _symmetry_equiv_pos_site_id
 _symmetry_equiv_pos_as_xyz
  1  'x, y, z'
loop_
 _atom_site_type_symbol
 _atom_site_label
 _atom_site_symmetry_multiplicity
 _atom_site_fract_x
 _atom_site_fract_y
 _atom_site_fract_z
 _atom_site_occupancy
  Nd  Nd0  1  0.47749200  0.16037900  0.42913500  1
  Nd  Nd1  1  0.04029100  0.65931900  0.43082400  1
  Nd  Nd2  1  0.97060100  0.30529900  0.80626500  1
  Nd  Nd3  1  0.52250800  0.16037900  0.92913500  1
  Nd  Nd4  1  0.45769900  0.84756700  0.07133300  1
  Nd  Nd5  1  0.02456300  0.34934700  0.07018700  1
  Nd  Nd6  1  0.49302500  0.81356400  0.30776200  1
  Nd  Nd7  1  0.54230100  0.84756700  0.57133300  1
  Nd  Nd8  1  0.48269400  0.20484600  0.19379800  1
  Nd  Nd9  1  0.50697500  0.81356400  0.80776200  1
  Nd  Nd10  1  0.02939900  0.30529900  0.30626500  1
  Nd  Nd11  1  0.97543700  0.34934700  0.57018700  1
  Nd  Nd12  1  0.02229300  0.70262900  0.19209200  1
  Nd  Nd13  1  0.95970900  0.65931900  0.93082400  1
  Nd  Nd14  1  0.97770700  0.70262900  0.69209200  1
  Nd  Nd15  1  0.51730600  0.20484600  0.69379800  1
  Br  Br0  1  0.23893600  0.38907800  0.48984000  1
  Br  Br1  1  0.18476000  0.97807500  0.37143500  1
  Br  Br2  1  0.66680600  0.16677300  0.10134400  1
  Br  Br3  1  0.33319400  0.16677300  0.60134400  1
  Br  Br4  1  0.19252600  0.00171600  0.25034600  1
  Br  Br5  1  0.32012200  0.51134600  0.25006100  1
  Br  Br6  1  0.32209500  0.52658200  0.12899600  1
  Br  Br7  1  0.36699100  0.84738500  0.70546400  1
  Br  Br8  1  0.11860500  0.66353100  0.79506800  1
  Br  Br9  1  0.67790500  0.52658200  0.62899600  1
  Br  Br10  1  0.67987800  0.51134600  0.75006100  1
  Br  Br11  1  0.88214400  0.34112400  0.20372400  1
  Br  Br12  1  0.88139500  0.66353100  0.29506800  1
  Br  Br13  1  0.17670500  0.66978100  0.60133400  1
  Br  Br14  1  0.33160100  0.48120300  0.37088900  1
  Br  Br15  1  0.76106400  0.38907800  0.98984000  1
  Br  Br16  1  0.77063300  0.61119300  0.50993100  1
  Br  Br17  1  0.22936700  0.61119300  0.00993100  1
  Br  Br18  1  0.62989700  0.17475200  0.29520000  1
  Br  Br19  1  0.83722500  0.34144700  0.39807900  1
  Br  Br20  1  0.31279400  0.84444600  0.89867400  1
  Br  Br21  1  0.74361600  0.11075000  0.50993700  1
  Br  Br22  1  0.80747400  0.00171600  0.75034600  1
  Br  Br23  1  0.66839900  0.48120300  0.87088900  1
  Br  Br24  1  0.16277500  0.34144700  0.89807900  1
  Br  Br25  1  0.71732200  0.89008600  0.98980300  1
  Br  Br26  1  0.11785600  0.34112400  0.70372400  1
  Br  Br27  1  0.37010300  0.17475200  0.79520000  1
  Br  Br28  1  0.81524000  0.97807500  0.87143500  1
  Br  Br29  1  0.63300900  0.84738500  0.20546400  1
  Br  Br30  1  0.68720600  0.84444600  0.39867400  1
  Br  Br31  1  0.17176700  0.03417000  0.12985200  1
  Br  Br32  1  0.28267800  0.89008600  0.48980300  1
  Br  Br33  1  0.82329500  0.66978100  0.10133400  1
  Br  Br34  1  0.25638400  0.11075000  0.00993700  1
  Br  Br35  1  0.82823300  0.03417000  0.62985200  1
loop_
_geom_bond_atom_site_label_1
_geom_bond_atom_site_label_2
_geom_bond_distance
_geom_bond_site_symmetry_2
Br0 Nd0 3.033995 1_555
Br0 Nd11 3.034755 1_455
Br0 Nd1 3.042068 1_555
Br1 Nd0 3.040336 1_565
Br1 Nd6 3.160016 1_555
Br1 Nd1 3.163078 1_555
Br1 Nd10 3.332648 1_565
Br2 Nd4 3.003060 1_545
Br2 Nd8 3.034827 1_555
Br2 Nd5 3.053983 1_655
Br3 Nd7 3.003060 1_545
Br3 Nd15 3.034827 1_555
Br3 Nd11 3.053983 1_455
Br4 Nd8 3.074415 1_555
Br4 Nd6 3.083621 1_545
Br4 Nd10 3.085046 1_555
Br4 Nd12 3.116345 1_545
Br5 Nd10 3.082968 1_555
Br5 Nd12 3.090415 1_555
Br5 Nd8 3.105916 1_555
Br5 Nd6 3.132658 1_555
Br6 Nd5 3.064825 1_555
Br6 Nd4 3.128653 1_555
Br6 Nd12 3.145046 1_555
Br6 Nd8 3.308001 1_555
Br7 Nd15 2.957748 1_565
Br7 Nd14 3.024707 1_455
Br7 Nd9 3.176768 1_555
Br8 Nd2 2.955768 1_455
Br8 Nd9 3.031213 1_555
Br8 Nd14 3.200911 1_455
Br9 Nd11 3.064825 1_555
Br9 Nd7 3.128653 1_555
Br9 Nd14 3.145046 1_555
Br9 Nd15 3.308001 1_555
Br10 Nd2 3.082968 1_555
Br10 Nd14 3.090415 1_555
Br10 Nd15 3.105916 1_555
Br10 Nd9 3.132658 1_555
Br11 Nd12 2.960850 1_655
Br11 Nd8 3.057556 1_555
Br11 Nd10 3.201445 1_655
Br12 Nd10 2.955768 1_655
Br12 Nd6 3.031213 1_555
Br12 Nd12 3.200911 1_655
Br13 Nd11 2.993482 1_455
Br13 Nd14 3.034888 1_455
Br13 Nd7 3.075097 1_555
Br14 Nd1 3.056159 1_555
Br14 Nd0 3.160451 1_555
Br14 Nd10 3.183025 1_555
Br14 Nd6 3.343400 1_555
Br15 Nd3 3.033995 1_555
Br15 Nd5 3.034755 1_656
Br15 Nd13 3.042068 1_555
Br16 Nd7 3.040618 1_555
Br16 Nd11 3.041035 1_555
Br16 Nd1 3.041126 1_655
Br17 Nd4 3.040618 1_555
Br17 Nd5 3.041035 1_555
Br17 Nd13 3.041126 1_454
Br18 Nd6 2.953820 1_545
Br18 Nd10 3.046656 1_655
Br18 Nd8 3.166680 1_555
Br19 Nd1 2.998644 1_655
Br19 Nd10 3.042155 1_655
Br19 Nd0 3.059757 1_555
Br20 Nd3 2.988848 1_565
Br20 Nd9 3.021556 1_555
Br20 Nd13 3.043871 1_455
Br21 Nd11 3.044343 1_555
Br21 Nd7 3.055311 1_545
Br21 Nd0 3.064862 1_555
Br22 Nd15 3.074415 1_555
Br22 Nd9 3.083621 1_545
Br22 Nd2 3.085046 1_555
Br22 Nd14 3.116345 1_545
Br23 Nd13 3.056159 1_555
Br23 Nd3 3.160451 1_555
Br23 Nd2 3.183025 1_555
Br23 Nd9 3.343400 1_555
Br24 Nd13 2.998644 1_455
Br24 Nd2 3.042155 1_455
Br24 Nd3 3.059757 1_555
Br25 Nd13 3.029185 1_555
Br25 Nd4 3.046923 1_556
Br25 Nd3 3.057421 1_565
Br26 Nd14 2.960850 1_455
Br26 Nd15 3.057556 1_555
Br26 Nd2 3.201445 1_455
Br27 Nd9 2.953820 1_545
Br27 Nd2 3.046656 1_455
Br27 Nd15 3.166680 1_555
Br28 Nd3 3.040336 1_565
Br28 Nd9 3.160016 1_555
Br28 Nd13 3.163078 1_555
Br28 Nd2 3.332648 1_565
Br29 Nd8 2.957748 1_565
Br29 Nd12 3.024707 1_655
Br29 Nd6 3.176768 1_555
Br30 Nd0 2.988848 1_565
Br30 Nd6 3.021556 1_555
Br30 Nd1 3.043871 1_655
Br31 Nd4 3.036204 1_545
Br31 Nd5 3.153052 1_555
Br31 Nd8 3.197296 1_555
Br31 Nd12 3.295651 1_545
Br32 Nd1 3.029185 1_555
Br32 Nd7 3.046923 1_555
Br32 Nd0 3.057421 1_565
Br33 Nd5 2.993482 1_655
Br33 Nd12 3.034888 1_655
Br33 Nd4 3.075097 1_555
Br34 Nd5 3.044343 1_555
Br34 Nd4 3.055311 1_545
Br34 Nd3 3.064862 1_554
Br35 Nd7 3.036204 1_545
Br35 Nd11 3.153052 1_555
Br35 Nd15 3.197296 1_555
Br35 Nd14 3.295651 1_545
