# generated using pymatgen
data_KMnF3
_symmetry_space_group_name_H-M   'P 1'
_cell_length_a   5.89376972
_cell_length_b   5.92009253
_cell_length_c   8.33661285
_cell_angle_alpha   90.00000000
_cell_angle_beta   90.00000000
_cell_angle_gamma   90.00000000
_symmetry_Int_Tables_number   1
_chemical_formula_structural   KMnF3
_chemical_formula_sum   'K4 Mn4 F12'
_cell_volume   290.87827856
_cell_formula_units_Z   4
loop_
 _symmetry_equiv_pos_site_id
 _symmetry_equiv_pos_as_xyz
  1  'x, y, z'
loop_
 _atom_site_type_symbol
 _atom_site_label
 _atom_site_symmetry_multiplicity
 _atom_site_fract_x
 _atom_site_fract_y
 _atom_site_fract_z
 _atom_site_occupancy
  K  K0  1  0.99045116  0.00211675  0.75000000  1
  K  K1  1  0.49045116  0.49788325  0.75000000  1
  K  K2  1  0.50954884  0.50211675  0.25000000  1
  K  K3  1  0.00954884  0.99788325  0.25000000  1
  Mn  Mn0  1  -0.00000000  0.50000000  -0.00000000  1
  Mn  Mn1  1  0.50000000  -0.00000000  0.50000000  1
  Mn  Mn2  1  0.50000000  -0.00000000  -0.00000000  1
  Mn  Mn3  1  -0.00000000  0.50000000  0.50000000  1
  F  F0  1  0.73459221  0.26535903  0.52256032  1
  F  F1  1  0.23459221  0.23464097  0.97743968  1
  F  F2  1  0.76540779  0.76535903  0.47743968  1
  F  F3  1  0.26540779  0.73464097  0.02256032  1
  F  F4  1  0.26540779  0.73464097  0.47743968  1
  F  F5  1  0.76540779  0.76535903  0.02256032  1
  F  F6  1  0.23459221  0.23464097  0.52256032  1
  F  F7  1  0.73459221  0.26535903  0.97743968  1
  F  F8  1  0.50357423  0.95638420  0.75000000  1
  F  F9  1  0.00357423  0.54361580  0.75000000  1
  F  F10  1  0.99642577  0.45638420  0.25000000  1
  F  F11  1  0.49642577  0.04361580  0.25000000  1
loop_
_geom_bond_atom_site_label_1
_geom_bond_atom_site_label_2
_geom_bond_distance
_geom_bond_site_symmetry_2
F0 Mn3 2.100440 1_655
F0 Mn1 2.101173 1_555
F0 K1 2.749637 1_555
F0 K0 2.880583 1_555
F0 K2 2.981074 1_555
F0 K3 3.208826 1_645
F1 Mn2 2.100440 1_556
F1 Mn0 2.101173 1_556
F1 K0 2.749637 1_455
F1 K1 2.880583 1_555
F1 K3 2.981074 1_546
F1 K2 3.208826 1_556
F2 Mn1 2.100440 1_565
F2 Mn3 2.101173 1_655
F2 K3 2.749637 1_655
F2 K2 2.880583 1_555
F2 K0 2.981074 1_565
F2 K1 3.208826 1_555
F3 Mn0 2.100440 1_555
F3 Mn2 2.101173 1_565
F3 K2 2.749637 1_555
F3 K3 2.880583 1_555
F3 K1 2.981074 1_554
F3 K0 3.208826 1_464
F4 Mn3 2.100440 1_555
F4 Mn1 2.101173 1_565
F4 K2 2.749637 1_555
F4 K3 2.880583 1_555
F4 K1 2.981074 1_555
F4 K0 3.208826 1_465
F5 Mn2 2.100440 1_565
F5 Mn0 2.101173 1_655
F5 K3 2.749637 1_655
F5 K2 2.880583 1_555
F5 K0 2.981074 1_564
F5 K1 3.208826 1_554
F6 Mn1 2.100440 1_555
F6 Mn3 2.101173 1_555
F6 K0 2.749637 1_455
F6 K1 2.880583 1_555
F6 K3 2.981074 1_545
F6 K2 3.208826 1_555
F7 Mn0 2.100440 1_656
F7 Mn2 2.101173 1_556
F7 K1 2.749637 1_555
F7 K0 2.880583 1_555
F7 K2 2.981074 1_556
F7 K3 3.208826 1_646
F8 Mn1 2.100193 1_565
F8 Mn2 2.100193 1_566
F8 K1 2.715470 1_555
F8 K0 2.882284 1_565
F8 K0 3.036324 1_465
F8 K1 3.206657 1_565
F9 Mn3 2.100193 1_555
F9 Mn0 2.100193 1_556
F9 K0 2.715470 1_465
F9 K1 2.882284 1_555
F9 K1 3.036324 1_455
F9 K0 3.206657 1_455
F10 Mn3 2.100193 1_655
F10 Mn0 2.100193 1_655
F10 K3 2.715470 1_645
F10 K2 2.882284 1_555
F10 K2 3.036324 1_655
F10 K3 3.206657 1_655
F11 Mn2 2.100193 1_555
F11 Mn1 2.100193 1_555
F11 K2 2.715470 1_555
F11 K3 2.882284 1_545
F11 K3 3.036324 1_645
F11 K2 3.206657 1_545
