# generated using pymatgen
data_Sr6(RhO3)5
_symmetry_space_group_name_H-M   'P 1'
_cell_length_a   12.11729612
_cell_length_b   12.11729612
_cell_length_c   12.11729637
_cell_angle_alpha   107.30858433
_cell_angle_beta   107.30858433
_cell_angle_gamma   107.30858779
_symmetry_Int_Tables_number   1
_chemical_formula_structural   Sr6(RhO3)5
_chemical_formula_sum   'Sr24 Rh20 O60'
_cell_volume   1469.05758223
_cell_formula_units_Z   4
loop_
 _symmetry_equiv_pos_site_id
 _symmetry_equiv_pos_as_xyz
  1  'x, y, z'
loop_
 _atom_site_type_symbol
 _atom_site_label
 _atom_site_symmetry_multiplicity
 _atom_site_fract_x
 _atom_site_fract_y
 _atom_site_fract_z
 _atom_site_occupancy
  Sr  Sr0  1  0.00000000  0.65740800  0.34259200  1
  Sr  Sr1  1  0.67631000  0.00258400  0.82375300  1
  Sr  Sr2  1  0.00000000  0.15818000  0.84182000  1
  Sr  Sr3  1  0.82375300  0.67631000  0.00258400  1
  Sr  Sr4  1  0.17626200  0.50000000  0.82373800  1
  Sr  Sr5  1  0.65850300  0.83511500  0.49855700  1
  Sr  Sr6  1  0.50144300  0.16488500  0.34149700  1
  Sr  Sr7  1  0.84182000  0.00000000  0.15818000  1
  Sr  Sr8  1  0.16488500  0.34149700  0.50144300  1
  Sr  Sr9  1  0.82373800  0.17626200  0.50000000  1
  Sr  Sr10  1  0.50000000  0.32315800  0.67684200  1
  Sr  Sr11  1  0.17624700  0.99741600  0.32369000  1
  Sr  Sr12  1  0.32369000  0.17624700  0.99741600  1
  Sr  Sr13  1  0.65740800  0.34259200  0.00000000  1
  Sr  Sr14  1  0.50000000  0.82373800  0.17626200  1
  Sr  Sr15  1  0.83511500  0.49855700  0.65850300  1
  Sr  Sr16  1  0.99741600  0.32369000  0.17624700  1
  Sr  Sr17  1  0.34149700  0.50144300  0.16488500  1
  Sr  Sr18  1  0.49855700  0.65850300  0.83511500  1
  Sr  Sr19  1  0.15818000  0.84182000  0.00000000  1
  Sr  Sr20  1  0.34259200  0.00000000  0.65740800  1
  Sr  Sr21  1  0.32315800  0.67684200  0.50000000  1
  Sr  Sr22  1  0.00258400  0.82375300  0.67631000  1
  Sr  Sr23  1  0.67684200  0.50000000  0.32315800  1
  Rh  Rh0  1  0.40216400  0.40392600  0.90413900  1
  Rh  Rh1  1  0.09586100  0.59607400  0.59783600  1
  Rh  Rh2  1  0.29253900  0.29253900  0.29253900  1
  Rh  Rh3  1  0.70582900  0.20667600  0.20682200  1
  Rh  Rh4  1  0.00021000  0.99979000  0.50000000  1
  Rh  Rh5  1  0.90413900  0.40216400  0.40392600  1
  Rh  Rh6  1  0.20682200  0.70582900  0.20667600  1
  Rh  Rh7  1  0.79317800  0.79332400  0.29417100  1
  Rh  Rh8  1  0.20667600  0.20682200  0.70582900  1
  Rh  Rh9  1  0.29417100  0.79317800  0.79332400  1
  Rh  Rh10  1  0.40392600  0.90413900  0.40216400  1
  Rh  Rh11  1  0.70746100  0.70746100  0.70746100  1
  Rh  Rh12  1  0.99979000  0.50000000  0.00021000  1
  Rh  Rh13  1  0.50000000  0.00021000  0.99979000  1
  Rh  Rh14  1  0.09638200  0.09638200  0.09638200  1
  Rh  Rh15  1  0.59783600  0.09586100  0.59607400  1
  Rh  Rh16  1  0.90361800  0.90361800  0.90361800  1
  Rh  Rh17  1  0.50000000  0.50000000  0.50000000  1
  Rh  Rh18  1  0.59607400  0.59783600  0.09586100  1
  Rh  Rh19  1  0.79332400  0.29417100  0.79317800  1
  O  O0  1  0.45625800  0.92088900  0.80817000  1
  O  O1  1  0.77977300  0.61573700  0.18301800  1
  O  O2  1  0.31778600  0.38691000  0.72330100  1
  O  O3  1  0.95512300  0.91982500  0.30783400  1
  O  O4  1  0.27191200  0.10722900  0.19694000  1
  O  O5  1  0.08017500  0.04487700  0.69216600  1
  O  O6  1  0.08551400  0.49925600  0.41963000  1
  O  O7  1  0.68397000  0.78141300  0.11805300  1
  O  O8  1  0.80817000  0.45625800  0.92088900  1
  O  O9  1  0.19229800  0.57796900  0.04504500  1
  O  O10  1  0.88194700  0.21858700  0.31603000  1
  O  O11  1  0.78141300  0.11805300  0.68397000  1
  O  O12  1  0.38426300  0.22022700  0.81698200  1
  O  O13  1  0.72330100  0.31778600  0.38691000  1
  O  O14  1  0.52027200  0.66949000  0.63120000  1
  O  O15  1  0.30783400  0.95512300  0.91982500  1
  O  O16  1  0.81698200  0.38426300  0.22022700  1
  O  O17  1  0.07911100  0.54374200  0.19183000  1
  O  O18  1  0.91982500  0.30783400  0.95512300  1
  O  O19  1  0.00000000  0.91745900  0.08254100  1
  O  O20  1  0.50074400  0.91448600  0.58037000  1
  O  O21  1  0.08254100  0.00000000  0.91745900  1
  O  O22  1  0.41963000  0.08551400  0.49925600  1
  O  O23  1  0.33051000  0.47972800  0.36880000  1
  O  O24  1  0.61573700  0.18301800  0.77977300  1
  O  O25  1  0.54374200  0.19183000  0.07911100  1
  O  O26  1  0.91745900  0.08254100  0.00000000  1
  O  O27  1  0.19694000  0.27191200  0.10722900  1
  O  O28  1  0.58037000  0.50074400  0.91448600  1
  O  O29  1  0.21858700  0.31603000  0.88194700  1
  O  O30  1  0.41728200  0.58271800  0.00000000  1
  O  O31  1  0.42203100  0.80770200  0.95495500  1
  O  O32  1  0.10722900  0.19694000  0.27191200  1
  O  O33  1  0.57796900  0.04504500  0.19229800  1
  O  O34  1  0.11805300  0.68397000  0.78141300  1
  O  O35  1  0.19183000  0.07911100  0.54374200  1
  O  O36  1  0.69216600  0.08017500  0.04487700  1
  O  O37  1  0.58271800  0.00000000  0.41728200  1
  O  O38  1  0.04487700  0.69216600  0.08017500  1
  O  O39  1  0.72808800  0.80306000  0.89277100  1
  O  O40  1  0.31603000  0.88194700  0.21858700  1
  O  O41  1  0.36880000  0.33051000  0.47972800  1
  O  O42  1  0.80306000  0.89277100  0.72808800  1
  O  O43  1  0.61309000  0.68221400  0.27669900  1
  O  O44  1  0.63120000  0.52027200  0.66949000  1
  O  O45  1  0.92088900  0.80817000  0.45625800  1
  O  O46  1  0.27669900  0.61309000  0.68221400  1
  O  O47  1  0.49925600  0.41963000  0.08551400  1
  O  O48  1  0.47972800  0.36880000  0.33051000  1
  O  O49  1  0.68221400  0.27669900  0.61309000  1
  O  O50  1  0.89277100  0.72808800  0.80306000  1
  O  O51  1  0.91448600  0.58037000  0.50074400  1
  O  O52  1  0.66949000  0.63120000  0.52027200  1
  O  O53  1  0.00000000  0.41728200  0.58271800  1
  O  O54  1  0.38691000  0.72330100  0.31778600  1
  O  O55  1  0.95495500  0.42203100  0.80770200  1
  O  O56  1  0.04504500  0.19229900  0.57796900  1
  O  O57  1  0.18301800  0.77977300  0.61573700  1
  O  O58  1  0.22022700  0.81698200  0.38426300  1
  O  O59  1  0.80770100  0.95495500  0.42203100  1
loop_
_geom_bond_atom_site_label_1
_geom_bond_atom_site_label_2
_geom_bond_distance
_geom_bond_site_symmetry_2
O0 Rh9 2.024903 1_555
O0 Rh13 2.057341 1_565
O0 Sr1 2.478714 1_565
O0 Sr20 2.546320 1_565
O1 Rh18 2.072380 1_555
O1 Rh7 2.099585 1_555
O1 Sr0 2.581063 1_655
O1 Sr3 2.649227 1_555
O1 Sr23 2.835934 1_555
O1 Sr13 2.971010 1_555
O2 Rh0 2.040127 1_555
O2 Rh8 2.103967 1_555
O2 Sr8 2.551839 1_555
O2 Sr10 2.698971 1_555
O2 Sr4 2.819162 1_555
O2 Sr18 2.959004 1_555
O3 Rh7 2.023272 1_555
O3 Rh4 2.060315 1_655
O3 Sr11 2.487445 1_655
O3 Sr7 2.545129 1_565
O4 Rh14 2.054782 1_555
O4 Rh2 2.095812 1_555
O4 Sr6 2.551201 1_555
O4 Sr11 2.613590 1_545
O4 Sr12 2.954962 1_554
O4 Sr19 2.962441 1_545
O5 Rh8 2.023272 1_555
O5 Rh4 2.060315 1_545
O5 Sr22 2.487445 1_545
O5 Sr2 2.545129 1_555
O6 Rh1 2.073383 1_555
O6 Rh5 2.080848 1_455
O6 Sr8 2.686321 1_555
O6 Sr21 2.695966 1_555
O6 Sr0 2.699648 1_555
O6 Sr16 2.721198 1_455
O7 Rh18 2.053965 1_555
O7 Rh7 2.085406 1_555
O7 Sr7 2.564399 1_565
O7 Sr14 2.670318 1_555
O7 Sr3 2.842891 1_555
O7 Sr18 3.067129 1_554
O8 Rh19 2.024903 1_555
O8 Rh12 2.057341 1_556
O8 Sr3 2.478714 1_556
O8 Sr13 2.546319 1_556
O9 Rh6 2.023434 1_555
O9 Rh12 2.063554 1_455
O9 Sr4 2.488918 1_554
O9 Sr17 2.544339 1_555
O10 Rh5 2.053965 1_555
O10 Rh3 2.085406 1_555
O10 Sr7 2.564399 1_555
O10 Sr9 2.670318 1_555
O10 Sr16 2.842891 1_555
O10 Sr8 3.067129 1_655
O11 Rh15 2.053965 1_555
O11 Rh19 2.085406 1_555
O11 Sr2 2.564399 1_655
O11 Sr9 2.670318 1_555
O11 Sr1 2.842891 1_555
O11 Sr5 3.067129 1_545
O12 Rh0 2.072380 1_555
O12 Rh8 2.099585 1_555
O12 Sr20 2.581063 1_555
O12 Sr12 2.649227 1_555
O12 Sr10 2.835934 1_555
O12 Sr13 2.971010 1_556
O13 Rh5 2.040127 1_555
O13 Rh3 2.103967 1_555
O13 Sr6 2.551839 1_555
O13 Sr23 2.698971 1_555
O13 Sr9 2.819162 1_555
O13 Sr15 2.959004 1_555
O14 Rh11 2.022194 1_555
O14 Rh17 2.080942 1_555
O14 Sr21 2.488306 1_555
O14 Sr18 2.598858 1_555
O15 Rh9 2.023272 1_555
O15 Rh13 2.060315 1_565
O15 Sr12 2.487445 1_565
O15 Sr19 2.545129 1_556
O16 Rh5 2.072380 1_555
O16 Rh3 2.099585 1_555
O16 Sr13 2.581063 1_555
O16 Sr16 2.649227 1_555
O16 Sr23 2.835934 1_555
O16 Sr0 2.971010 1_655
O17 Rh6 2.024903 1_555
O17 Rh12 2.057341 1_455
O17 Sr16 2.478714 1_455
O17 Sr0 2.546320 1_555
O18 Rh19 2.023272 1_555
O18 Rh12 2.060315 1_556
O18 Sr16 2.487445 1_556
O18 Sr2 2.545129 1_655
O19 Rh14 2.062282 1_565
O19 Rh16 2.062282 1_454
O19 Sr19 2.674837 1_555
O19 Sr7 2.674837 1_465
O19 Sr3 2.721953 1_455
O19 Sr11 2.721953 1_555
O20 Rh10 2.073383 1_555
O20 Rh15 2.080848 1_565
O20 Sr5 2.686321 1_555
O20 Sr21 2.695966 1_555
O20 Sr20 2.699648 1_565
O20 Sr1 2.721198 1_565
O21 Rh16 2.062282 1_445
O21 Rh14 2.062282 1_556
O21 Sr19 2.674837 1_546
O21 Sr2 2.674837 1_555
O21 Sr12 2.721953 1_555
O21 Sr22 2.721953 1_545
O22 Rh15 2.073383 1_555
O22 Rh10 2.080848 1_545
O22 Sr6 2.686321 1_555
O22 Sr10 2.695966 1_555
O22 Sr20 2.699648 1_555
O22 Sr11 2.721197 1_545
O23 Rh2 2.022194 1_555
O23 Rh17 2.080942 1_555
O23 Sr21 2.488306 1_555
O23 Sr17 2.598858 1_555
O24 Rh15 2.072380 1_555
O24 Rh19 2.099585 1_555
O24 Sr13 2.581063 1_556
O24 Sr1 2.649227 1_555
O24 Sr10 2.835934 1_555
O24 Sr20 2.971010 1_555
O25 Rh3 2.024903 1_555
O25 Rh13 2.057341 1_554
O25 Sr12 2.478714 1_554
O25 Sr13 2.546319 1_555
O26 Rh16 2.062282 1_544
O26 Rh14 2.062282 1_655
O26 Sr7 2.674837 1_555
O26 Sr2 2.674837 1_654
O26 Sr1 2.721953 1_554
O26 Sr16 2.721953 1_555
O27 Rh14 2.054782 1_555
O27 Rh2 2.095812 1_555
O27 Sr17 2.551201 1_555
O27 Sr12 2.613590 1_554
O27 Sr16 2.954962 1_455
O27 Sr2 2.962441 1_554
O28 Rh0 2.073382 1_555
O28 Rh18 2.080848 1_556
O28 Sr18 2.686321 1_555
O28 Sr10 2.695966 1_555
O28 Sr13 2.699648 1_556
O28 Sr3 2.721197 1_556
O29 Rh0 2.053965 1_555
O29 Rh8 2.085406 1_555
O29 Sr2 2.564399 1_555
O29 Sr4 2.670318 1_555
O29 Sr12 2.842891 1_555
O29 Sr17 3.067129 1_556
O30 Rh0 2.053348 1_554
O30 Rh18 2.053348 1_555
O30 Sr4 2.714485 1_554
O30 Sr14 2.714485 1_555
O30 Sr17 2.743986 1_555
O30 Sr18 2.743986 1_554
O31 Rh9 2.023434 1_555
O31 Rh13 2.063554 1_565
O31 Sr14 2.488918 1_556
O31 Sr18 2.544339 1_555
O32 Rh14 2.054782 1_555
O32 Rh2 2.095812 1_555
O32 Sr8 2.551201 1_555
O32 Sr16 2.613590 1_455
O32 Sr11 2.954962 1_545
O32 Sr7 2.962441 1_455
O33 Rh3 2.023434 1_555
O33 Rh13 2.063554 1_554
O33 Sr14 2.488918 1_545
O33 Sr6 2.544339 1_555
O34 Rh1 2.053965 1_555
O34 Rh9 2.085406 1_555
O34 Sr19 2.564399 1_556
O34 Sr4 2.670318 1_555
O34 Sr22 2.842891 1_555
O34 Sr15 3.067129 1_455
O35 Rh8 2.024903 1_555
O35 Rh4 2.057341 1_545
O35 Sr11 2.478715 1_545
O35 Sr20 2.546320 1_555
O36 Rh3 2.023272 1_555
O36 Rh13 2.060315 1_554
O36 Sr1 2.487445 1_554
O36 Sr7 2.545129 1_555
O37 Rh10 2.053348 1_545
O37 Rh15 2.053348 1_555
O37 Sr9 2.714485 1_555
O37 Sr14 2.714485 1_545
O37 Sr5 2.743986 1_545
O37 Sr6 2.743986 1_555
O38 Rh6 2.023272 1_555
O38 Rh12 2.060315 1_455
O38 Sr3 2.487445 1_455
O38 Sr19 2.545129 1_555
O39 Rh16 2.054782 1_555
O39 Rh11 2.095812 1_555
O39 Sr18 2.551201 1_555
O39 Sr3 2.613590 1_556
O39 Sr1 2.954962 1_565
O39 Sr7 2.962441 1_566
O40 Rh10 2.053965 1_555
O40 Rh6 2.085406 1_555
O40 Sr19 2.564399 1_555
O40 Sr14 2.670318 1_555
O40 Sr11 2.842891 1_555
O40 Sr6 3.067129 1_565
O41 Rh2 2.022194 1_555
O41 Rh17 2.080942 1_555
O41 Sr10 2.488306 1_555
O41 Sr8 2.598858 1_555
O42 Rh16 2.054782 1_555
O42 Rh11 2.095812 1_555
O42 Sr5 2.551201 1_555
O42 Sr1 2.613590 1_565
O42 Sr22 2.954962 1_655
O42 Sr2 2.962441 1_665
O43 Rh18 2.040127 1_555
O43 Rh7 2.103967 1_555
O43 Sr5 2.551839 1_555
O43 Sr23 2.698971 1_555
O43 Sr14 2.819162 1_555
O43 Sr17 2.959004 1_555
O44 Rh11 2.022194 1_555
O44 Rh17 2.080942 1_555
O44 Sr10 2.488306 1_555
O44 Sr15 2.598858 1_555
O45 Rh7 2.024903 1_555
O45 Rh4 2.057341 1_655
O45 Sr22 2.478715 1_655
O45 Sr0 2.546320 1_655
O46 Rh1 2.040127 1_555
O46 Rh9 2.103967 1_555
O46 Sr18 2.551839 1_555
O46 Sr21 2.698971 1_555
O46 Sr4 2.819162 1_555
O46 Sr8 2.959004 1_555
O47 Rh18 2.073382 1_555
O47 Rh0 2.080848 1_554
O47 Sr17 2.686321 1_555
O47 Sr23 2.695966 1_555
O47 Sr13 2.699648 1_555
O47 Sr12 2.721197 1_554
O48 Rh2 2.022194 1_555
O48 Rh17 2.080942 1_555
O48 Sr23 2.488306 1_555
O48 Sr6 2.598858 1_555
O49 Rh15 2.040127 1_555
O49 Rh19 2.103967 1_555
O49 Sr15 2.551839 1_555
O49 Sr10 2.698971 1_555
O49 Sr9 2.819162 1_555
O49 Sr6 2.959004 1_555
O50 Rh16 2.054782 1_555
O50 Rh11 2.095812 1_555
O50 Sr15 2.551201 1_555
O50 Sr22 2.613590 1_655
O50 Sr3 2.954962 1_556
O50 Sr19 2.962441 1_656
O51 Rh5 2.073383 1_555
O51 Rh1 2.080848 1_655
O51 Sr15 2.686321 1_555
O51 Sr23 2.695966 1_555
O51 Sr0 2.699648 1_655
O51 Sr22 2.721197 1_655
O52 Rh11 2.022194 1_555
O52 Rh17 2.080942 1_555
O52 Sr23 2.488306 1_555
O52 Sr5 2.598858 1_555
O53 Rh1 2.053348 1_555
O53 Rh5 2.053348 1_455
O53 Sr9 2.714485 1_455
O53 Sr4 2.714485 1_555
O53 Sr8 2.743986 1_555
O53 Sr15 2.743986 1_455
O54 Rh10 2.040127 1_555
O54 Rh6 2.103967 1_555
O54 Sr17 2.551839 1_555
O54 Sr21 2.698971 1_555
O54 Sr14 2.819162 1_555
O54 Sr5 2.959004 1_555
O55 Rh19 2.023434 1_555
O55 Rh12 2.063554 1_556
O55 Sr4 2.488918 1_655
O55 Sr15 2.544339 1_555
O56 Rh8 2.023439 1_555
O56 Rh4 2.063565 1_545
O56 Sr9 2.488914 1_455
O56 Sr8 2.544331 1_555
O57 Rh1 2.072380 1_555
O57 Rh9 2.099585 1_555
O57 Sr20 2.581063 1_565
O57 Sr22 2.649227 1_555
O57 Sr21 2.835934 1_555
O57 Sr0 2.971010 1_555
O58 Rh10 2.072380 1_555
O58 Rh6 2.099585 1_555
O58 Sr0 2.581063 1_555
O58 Sr11 2.649227 1_555
O58 Sr21 2.835934 1_555
O58 Sr20 2.971010 1_565
O59 Rh7 2.023439 1_555
O59 Rh4 2.063565 1_655
O59 Sr9 2.488914 1_565
O59 Sr5 2.544331 1_555
