# generated using pymatgen
data_Al4Cu9
_symmetry_space_group_name_H-M   'P 1'
_cell_length_a   8.61773054
_cell_length_b   8.61773054
_cell_length_c   8.61773054
_cell_angle_alpha   90.00000000
_cell_angle_beta   90.00000000
_cell_angle_gamma   90.00000000
_symmetry_Int_Tables_number   1
_chemical_formula_structural   Al4Cu9
_chemical_formula_sum   'Al16 Cu36'
_cell_volume   639.99816859
_cell_formula_units_Z   4
loop_
 _symmetry_equiv_pos_site_id
 _symmetry_equiv_pos_as_xyz
  1  'x, y, z'
loop_
 _atom_site_type_symbol
 _atom_site_label
 _atom_site_symmetry_multiplicity
 _atom_site_fract_x
 _atom_site_fract_y
 _atom_site_fract_z
 _atom_site_occupancy
  Al  Al0  1  0.12036725  0.12036725  0.12036725  1
  Al  Al1  1  0.87963275  0.12036725  0.87963275  1
  Al  Al2  1  0.87963275  0.87963275  0.12036725  1
  Al  Al3  1  0.12036725  0.87963275  0.87963275  1
  Al  Al4  1  0.80952822  0.46505948  0.19047178  1
  Al  Al5  1  0.46505948  0.80952822  0.19047178  1
  Al  Al6  1  0.80952822  0.53494052  0.80952822  1
  Al  Al7  1  0.53494052  0.80952822  0.80952822  1
  Al  Al8  1  0.19047178  0.80952822  0.46505948  1
  Al  Al9  1  0.80952822  0.19047178  0.46505948  1
  Al  Al10  1  0.53494052  0.19047178  0.19047178  1
  Al  Al11  1  0.46505948  0.19047178  0.80952822  1
  Al  Al12  1  0.19047178  0.46505948  0.80952822  1
  Al  Al13  1  0.19047178  0.53494052  0.19047178  1
  Al  Al14  1  0.80952822  0.80952822  0.53494052  1
  Al  Al15  1  0.19047178  0.19047178  0.53494052  1
  Cu  Cu0  1  0.32640760  0.67359240  0.67359240  1
  Cu  Cu1  1  0.64475556  0.00000000  0.00000000  1
  Cu  Cu2  1  -0.00000000  0.00000000  0.35524444  1
  Cu  Cu3  1  -0.00000000  0.00000000  0.64475556  1
  Cu  Cu4  1  -0.00000000  0.64475556  0.00000000  1
  Cu  Cu5  1  -0.00000000  0.35524444  0.00000000  1
  Cu  Cu6  1  0.85448207  0.50000000  0.50000000  1
  Cu  Cu7  1  0.14551793  0.50000000  0.50000000  1
  Cu  Cu8  1  0.50000000  0.50000000  0.85448207  1
  Cu  Cu9  1  0.50000000  0.50000000  0.14551793  1
  Cu  Cu10  1  0.35524444  0.00000000  0.00000000  1
  Cu  Cu11  1  0.50000000  0.85448207  0.50000000  1
  Cu  Cu12  1  0.31587422  0.31587422  0.03190828  1
  Cu  Cu13  1  0.68412578  0.03190828  0.68412578  1
  Cu  Cu14  1  0.68412578  0.96809172  0.31587422  1
  Cu  Cu15  1  0.96809172  0.68412578  0.31587422  1
  Cu  Cu16  1  0.03190828  0.68412578  0.68412578  1
  Cu  Cu17  1  0.31587422  0.68412578  0.96809172  1
  Cu  Cu18  1  0.68412578  0.31587422  0.96809172  1
  Cu  Cu19  1  0.03190828  0.31587422  0.31587422  1
  Cu  Cu20  1  0.31587422  0.03190828  0.31587422  1
  Cu  Cu21  1  0.96809172  0.31587422  0.68412578  1
  Cu  Cu22  1  0.31587422  0.96809172  0.68412578  1
  Cu  Cu23  1  0.68412578  0.68412578  0.03190828  1
  Cu  Cu24  1  0.67359240  0.67359240  0.32640760  1
  Cu  Cu25  1  0.67359240  0.32640760  0.67359240  1
  Cu  Cu26  1  0.32640760  0.32640760  0.32640760  1
  Cu  Cu27  1  0.82993162  0.17006838  0.17006838  1
  Cu  Cu28  1  0.17006838  0.17006838  0.82993162  1
  Cu  Cu29  1  0.17006838  0.82993162  0.17006838  1
  Cu  Cu30  1  0.82993162  0.82993162  0.82993162  1
  Cu  Cu31  1  0.60503207  0.39496793  0.39496793  1
  Cu  Cu32  1  0.39496793  0.39496793  0.60503207  1
  Cu  Cu33  1  0.39496793  0.60503207  0.39496793  1
  Cu  Cu34  1  0.60503207  0.60503207  0.60503207  1
  Cu  Cu35  1  0.50000000  0.14551793  0.50000000  1
loop_
_geom_bond_atom_site_label_1
_geom_bond_atom_site_label_2
_geom_bond_distance
_geom_bond_site_symmetry_2
Al0 Cu5 2.499793 1_555
Al0 Cu2 2.499793 1_555
Al0 Cu10 2.499793 1_555
Al0 Cu20 2.501680 1_555
Al0 Cu19 2.501680 1_555
Al0 Cu12 2.501680 1_555
Al0 Cu28 2.575148 1_554
Al0 Cu27 2.575148 1_455
Al0 Cu29 2.575148 1_545
Al1 Cu3 2.499793 1_655
Al1 Cu1 2.499793 1_556
Al1 Cu5 2.499793 1_656
Al1 Cu18 2.501680 1_555
Al1 Cu13 2.501680 1_555
Al1 Cu21 2.501680 1_555
Al1 Cu27 2.575148 1_556
Al1 Cu28 2.575148 1_655
Al1 Cu30 2.575148 1_545
Al2 Cu4 2.499793 1_655
Al2 Cu1 2.499793 1_565
Al2 Cu2 2.499793 1_665
Al2 Cu15 2.501680 1_555
Al2 Cu14 2.501680 1_555
Al2 Cu23 2.501680 1_555
Al2 Cu27 2.575148 1_565
Al2 Cu30 2.575148 1_554
Al2 Cu29 2.575148 1_655
Al3 Cu4 2.499793 1_556
Al3 Cu3 2.499793 1_565
Al3 Cu10 2.499793 1_566
Al3 Cu22 2.501680 1_555
Al3 Cu17 2.501680 1_555
Al3 Cu16 2.501680 1_555
Al3 Cu28 2.575148 1_565
Al3 Cu29 2.575148 1_556
Al3 Cu30 2.575148 1_455
Al4 Cu24 2.444203 1_555
Al4 Cu5 2.506832 1_655
Al4 Cu19 2.548211 1_655
Al4 Cu18 2.548211 1_554
Al4 Cu27 2.554286 1_555
Al4 Cu31 2.564411 1_555
Al4 Cu15 2.568867 1_555
Al4 Cu23 2.568867 1_555
Al4 Cu6 2.712182 1_555
Al4 Cu9 2.712182 1_555
Al4 Cu4 2.790464 1_655
Al5 Cu24 2.444203 1_555
Al5 Cu10 2.506832 1_565
Al5 Cu20 2.548211 1_565
Al5 Cu17 2.548211 1_554
Al5 Cu29 2.554286 1_555
Al5 Cu33 2.564411 1_555
Al5 Cu14 2.568867 1_555
Al5 Cu23 2.568867 1_555
Al5 Cu9 2.712182 1_555
Al5 Cu11 2.712182 1_555
Al5 Cu1 2.790464 1_565
Al6 Cu25 2.444203 1_555
Al6 Cu4 2.506832 1_656
Al6 Cu23 2.548211 1_556
Al6 Cu16 2.548211 1_655
Al6 Cu30 2.554286 1_555
Al6 Cu34 2.564411 1_555
Al6 Cu18 2.568867 1_555
Al6 Cu21 2.568867 1_555
Al6 Cu6 2.712182 1_555
Al6 Cu8 2.712182 1_555
Al6 Cu5 2.790464 1_656
Al7 Cu0 2.444203 1_555
Al7 Cu1 2.506832 1_566
Al7 Cu13 2.548211 1_565
Al7 Cu23 2.548211 1_556
Al7 Cu30 2.554286 1_555
Al7 Cu34 2.564411 1_555
Al7 Cu17 2.568867 1_555
Al7 Cu22 2.568867 1_555
Al7 Cu11 2.712182 1_555
Al7 Cu8 2.712182 1_555
Al7 Cu10 2.790464 1_566
Al8 Cu0 2.444203 1_555
Al8 Cu2 2.506832 1_565
Al8 Cu20 2.548211 1_565
Al8 Cu15 2.548211 1_455
Al8 Cu29 2.554286 1_555
Al8 Cu33 2.564411 1_555
Al8 Cu22 2.568867 1_555
Al8 Cu16 2.568867 1_555
Al8 Cu7 2.712182 1_555
Al8 Cu11 2.712182 1_555
Al8 Cu3 2.790464 1_565
Al9 Cu25 2.444203 1_555
Al9 Cu2 2.506832 1_655
Al9 Cu19 2.548211 1_655
Al9 Cu14 2.548211 1_545
Al9 Cu27 2.554286 1_555
Al9 Cu31 2.564411 1_555
Al9 Cu21 2.568867 1_555
Al9 Cu13 2.568867 1_555
Al9 Cu35 2.712182 1_555
Al9 Cu6 2.712182 1_555
Al9 Cu3 2.790464 1_655
Al10 Cu26 2.444203 1_555
Al10 Cu1 2.506832 1_555
Al10 Cu18 2.548211 1_554
Al10 Cu14 2.548211 1_545
Al10 Cu27 2.554286 1_555
Al10 Cu31 2.564411 1_555
Al10 Cu20 2.568867 1_555
Al10 Cu12 2.568867 1_555
Al10 Cu35 2.712182 1_555
Al10 Cu9 2.712182 1_555
Al10 Cu10 2.790464 1_555
Al11 Cu25 2.444203 1_555
Al11 Cu10 2.506832 1_556
Al11 Cu12 2.548211 1_556
Al11 Cu22 2.548211 1_545
Al11 Cu28 2.554286 1_555
Al11 Cu32 2.564411 1_555
Al11 Cu18 2.568867 1_555
Al11 Cu13 2.568867 1_555
Al11 Cu35 2.712182 1_555
Al11 Cu8 2.712182 1_555
Al11 Cu1 2.790464 1_556
Al12 Cu0 2.444203 1_555
Al12 Cu5 2.506832 1_556
Al12 Cu12 2.548211 1_556
Al12 Cu21 2.548211 1_455
Al12 Cu28 2.554286 1_555
Al12 Cu32 2.564411 1_555
Al12 Cu17 2.568867 1_555
Al12 Cu16 2.568867 1_555
Al12 Cu7 2.712182 1_555
Al12 Cu8 2.712182 1_555
Al12 Cu4 2.790464 1_556
Al13 Cu26 2.444203 1_555
Al13 Cu4 2.506832 1_555
Al13 Cu15 2.548211 1_455
Al13 Cu17 2.548211 1_554
Al13 Cu29 2.554286 1_555
Al13 Cu33 2.564411 1_555
Al13 Cu19 2.568867 1_555
Al13 Cu12 2.568867 1_555
Al13 Cu7 2.712182 1_555
Al13 Cu9 2.712182 1_555
Al13 Cu5 2.790464 1_555
Al14 Cu24 2.444203 1_555
Al14 Cu3 2.506832 1_665
Al14 Cu13 2.548211 1_565
Al14 Cu16 2.548211 1_655
Al14 Cu30 2.554286 1_555
Al14 Cu34 2.564411 1_555
Al14 Cu14 2.568867 1_555
Al14 Cu15 2.568867 1_555
Al14 Cu6 2.712182 1_555
Al14 Cu11 2.712182 1_555
Al14 Cu2 2.790464 1_665
Al15 Cu26 2.444203 1_555
Al15 Cu3 2.506832 1_555
Al15 Cu22 2.548211 1_545
Al15 Cu21 2.548211 1_455
Al15 Cu28 2.554286 1_555
Al15 Cu32 2.564411 1_555
Al15 Cu19 2.568867 1_555
Al15 Cu20 2.568867 1_555
Al15 Cu35 2.712182 1_555
Al15 Cu7 2.712182 1_555
Al15 Cu2 2.790464 1_555
Cu0 Cu16 2.541160 1_555
Cu0 Cu17 2.541160 1_555
Cu0 Cu22 2.541160 1_555
Cu0 Cu32 2.542342 1_555
Cu0 Cu33 2.542342 1_555
Cu0 Cu34 2.542342 1_555
Cu0 Cu7 2.627909 1_555
Cu0 Cu8 2.627909 1_555
Cu0 Cu11 2.627909 1_555
Cu1 Cu10 2.494929 1_555
Cu1 Cu27 2.615828 1_555
Cu1 Cu30 2.615828 1_544
Cu1 Cu14 2.756929 1_545
Cu1 Cu18 2.756929 1_554
Cu1 Cu13 2.756929 1_554
Cu1 Cu23 2.756929 1_545
Cu2 Cu3 2.494929 1_555
Cu2 Cu27 2.615828 1_455
Cu2 Cu29 2.615828 1_545
Cu2 Cu20 2.756929 1_555
Cu3 Cu30 2.615828 1_445
Cu4 Cu5 2.494929 1_555
Cu6 Cu7 2.508069 1_655
Cu8 Cu9 2.508069 1_556
Cu10 Cu29 2.615828 1_545
Cu10 Cu28 2.615828 1_554
Cu10 Cu12 2.756929 1_555
Cu10 Cu22 2.756929 1_544
Cu10 Cu20 2.756929 1_555
Cu10 Cu17 2.756929 1_544
Cu11 Cu14 2.448281 1_555
Cu11 Cu22 2.448281 1_555
Cu11 Cu33 2.501945 1_555
Cu11 Cu34 2.501945 1_555
Cu11 Cu35 2.508069 1_565
Cu11 Cu24 2.627909 1_555
Cu11 Cu20 2.715401 1_565
Cu11 Cu13 2.715401 1_565
Cu12 Cu9 2.448281 1_555
Cu12 Cu28 2.487425 1_554
Cu12 Cu26 2.541160 1_555
Cu12 Cu8 2.715401 1_554
Cu12 Cu5 2.756929 1_555
Cu13 Cu35 2.448281 1_555
Cu13 Cu30 2.487425 1_545
Cu13 Cu25 2.541160 1_555
Cu13 Cu3 2.756929 1_655
Cu14 Cu27 2.487425 1_565
Cu14 Cu24 2.541160 1_555
Cu14 Cu35 2.715401 1_565
Cu14 Cu2 2.756929 1_665
Cu15 Cu6 2.448281 1_555
Cu15 Cu29 2.487425 1_655
Cu15 Cu24 2.541160 1_555
Cu15 Cu7 2.715401 1_655
Cu15 Cu2 2.756929 1_665
Cu15 Cu4 2.756929 1_655
Cu16 Cu7 2.448281 1_555
Cu16 Cu30 2.487425 1_455
Cu16 Cu6 2.715401 1_455
Cu16 Cu4 2.756929 1_556
Cu16 Cu3 2.756929 1_565
Cu17 Cu8 2.448281 1_555
Cu17 Cu29 2.487425 1_556
Cu17 Cu9 2.715401 1_556
Cu17 Cu4 2.756929 1_556
Cu18 Cu8 2.448281 1_555
Cu18 Cu27 2.487425 1_556
Cu18 Cu25 2.541160 1_555
Cu18 Cu9 2.715401 1_556
Cu18 Cu5 2.756929 1_656
Cu19 Cu7 2.448281 1_555
Cu19 Cu27 2.487425 1_455
Cu19 Cu26 2.541160 1_555
Cu19 Cu6 2.715401 1_455
Cu19 Cu5 2.756929 1_555
Cu19 Cu2 2.756929 1_555
Cu20 Cu35 2.448281 1_555
Cu20 Cu29 2.487425 1_545
Cu20 Cu26 2.541160 1_555
Cu21 Cu6 2.448281 1_555
Cu21 Cu28 2.487425 1_655
Cu21 Cu25 2.541160 1_555
Cu21 Cu7 2.715401 1_655
Cu21 Cu5 2.756929 1_656
Cu21 Cu3 2.756929 1_655
Cu22 Cu28 2.487425 1_565
Cu22 Cu35 2.715401 1_565
Cu22 Cu3 2.756929 1_565
Cu23 Cu9 2.448281 1_555
Cu23 Cu30 2.487425 1_554
Cu23 Cu24 2.541160 1_555
Cu23 Cu8 2.715401 1_554
Cu23 Cu4 2.756929 1_655
Cu24 Cu33 2.542342 1_555
Cu24 Cu31 2.542342 1_555
Cu24 Cu34 2.542342 1_555
Cu24 Cu9 2.627909 1_555
Cu24 Cu6 2.627909 1_555
Cu25 Cu31 2.542342 1_555
Cu25 Cu32 2.542342 1_555
Cu25 Cu34 2.542342 1_555
Cu25 Cu35 2.627909 1_555
Cu25 Cu8 2.627909 1_555
Cu25 Cu6 2.627909 1_555
Cu26 Cu31 2.542342 1_555
Cu26 Cu33 2.542342 1_555
Cu26 Cu32 2.542342 1_555
Cu26 Cu9 2.627909 1_555
Cu26 Cu35 2.627909 1_555
Cu26 Cu7 2.627909 1_555
Cu27 Cu5 2.615828 1_655
Cu28 Cu3 2.615828 1_555
Cu28 Cu5 2.615828 1_556
Cu29 Cu4 2.615828 1_555
Cu30 Cu4 2.615828 1_656
Cu31 Cu6 2.501945 1_555
Cu31 Cu9 2.501945 1_555
Cu31 Cu35 2.501945 1_555
Cu31 Cu32 2.560117 1_555
Cu31 Cu34 2.560117 1_555
Cu31 Cu33 2.560117 1_555
Cu32 Cu8 2.501945 1_555
Cu32 Cu35 2.501945 1_555
Cu32 Cu7 2.501945 1_555
Cu32 Cu34 2.560117 1_555
Cu32 Cu33 2.560117 1_555
Cu33 Cu9 2.501945 1_555
Cu33 Cu7 2.501945 1_555
Cu33 Cu34 2.560117 1_555
Cu34 Cu6 2.501945 1_555
Cu34 Cu8 2.501945 1_555
