# generated using pymatgen
data_Rb3AgSn3Se8
_symmetry_space_group_name_H-M   'P 1'
_cell_length_a   8.47842981
_cell_length_b   8.47842981
_cell_length_c   13.60746352
_cell_angle_alpha   90.00000000
_cell_angle_beta   90.00000000
_cell_angle_gamma   90.00000000
_symmetry_Int_Tables_number   1
_chemical_formula_structural   Rb3AgSn3Se8
_chemical_formula_sum   'Rb6 Ag2 Sn6 Se16'
_cell_volume   978.15580576
_cell_formula_units_Z   2
loop_
 _symmetry_equiv_pos_site_id
 _symmetry_equiv_pos_as_xyz
  1  'x, y, z'
loop_
 _atom_site_type_symbol
 _atom_site_label
 _atom_site_symmetry_multiplicity
 _atom_site_fract_x
 _atom_site_fract_y
 _atom_site_fract_z
 _atom_site_occupancy
  Rb  Rb0  1  0.00000000  -0.00000000  0.22442431  1
  Rb  Rb1  1  0.50000000  0.50000000  0.50000000  1
  Rb  Rb2  1  0.00000000  -0.00000000  0.77557569  1
  Rb  Rb3  1  0.50000000  0.50000000  0.22442431  1
  Rb  Rb4  1  0.50000000  0.50000000  0.77557569  1
  Rb  Rb5  1  0.00000000  -0.00000000  0.50000000  1
  Ag  Ag0  1  0.50000000  -0.00000000  0.50000000  1
  Ag  Ag1  1  0.00000000  0.50000000  0.50000000  1
  Sn  Sn0  1  0.00000000  0.50000000  0.74076598  1
  Sn  Sn1  1  0.50000000  -0.00000000  0.25923402  1
  Sn  Sn2  1  0.50000000  -0.00000000  0.74076598  1
  Sn  Sn3  1  0.50000000  -0.00000000  -0.00000000  1
  Sn  Sn4  1  0.00000000  0.50000000  0.25923402  1
  Sn  Sn5  1  0.00000000  0.50000000  -0.00000000  1
  Se  Se0  1  0.82775004  0.32775004  0.36157383  1
  Se  Se1  1  0.84103458  0.65896542  0.12457129  1
  Se  Se2  1  0.15896542  0.65896542  0.87542871  1
  Se  Se3  1  0.15896542  0.34103458  0.12457129  1
  Se  Se4  1  0.65896542  0.15896542  0.12457129  1
  Se  Se5  1  0.67224996  0.17224996  0.63842617  1
  Se  Se6  1  0.32775004  0.82775004  0.63842617  1
  Se  Se7  1  0.82775004  0.67224996  0.63842617  1
  Se  Se8  1  0.17224996  0.67224996  0.36157383  1
  Se  Se9  1  0.84103458  0.34103458  0.87542871  1
  Se  Se10  1  0.34103458  0.84103458  0.12457129  1
  Se  Se11  1  0.65896542  0.84103458  0.87542871  1
  Se  Se12  1  0.32775004  0.17224996  0.36157383  1
  Se  Se13  1  0.67224996  0.82775004  0.36157383  1
  Se  Se14  1  0.34103458  0.15896542  0.87542871  1
  Se  Se15  1  0.17224996  0.32775004  0.63842617  1
loop_
_geom_bond_atom_site_label_1
_geom_bond_atom_site_label_2
_geom_bond_distance
_geom_bond_site_symmetry_2
Rb0 Se1 3.467435 1_445
Rb0 Se4 3.467435 1_455
Rb0 Se3 3.467435 1_555
Rb0 Se10 3.467435 1_545
Rb0 Se13 3.652050 1_445
Rb0 Se8 3.652050 1_545
Rb0 Se0 3.652050 1_455
Rb0 Se12 3.652050 1_555
Rb1 Se13 3.660958 1_555
Rb1 Se7 3.660958 1_555
Rb1 Se8 3.660958 1_555
Rb1 Se12 3.660958 1_555
Rb1 Se5 3.660958 1_555
Rb1 Se6 3.660958 1_555
Rb1 Se15 3.660958 1_555
Rb1 Se0 3.660958 1_555
Rb2 Se2 3.467435 1_545
Rb2 Se11 3.467435 1_445
Rb2 Se14 3.467435 1_555
Rb2 Se9 3.467435 1_455
Rb2 Se5 3.652050 1_455
Rb2 Se7 3.652050 1_445
Rb2 Se15 3.652050 1_555
Rb2 Se6 3.652050 1_545
Rb3 Se10 3.467435 1_555
Rb3 Se3 3.467435 1_555
Rb3 Se4 3.467435 1_555
Rb3 Se1 3.467435 1_555
Rb3 Se12 3.652050 1_555
Rb3 Se0 3.652050 1_555
Rb3 Se13 3.652050 1_555
Rb3 Se8 3.652050 1_555
Rb4 Se11 3.467435 1_555
Rb4 Se14 3.467435 1_555
Rb4 Se9 3.467435 1_555
Rb4 Se2 3.467435 1_555
Rb4 Se15 3.652050 1_555
Rb4 Se6 3.652050 1_555
Rb4 Se5 3.652050 1_555
Rb4 Se7 3.652050 1_555
Rb5 Se7 3.660958 1_445
Rb5 Se8 3.660958 1_545
Rb5 Se13 3.660958 1_445
Rb5 Se5 3.660958 1_455
Rb5 Se15 3.660958 1_555
Rb5 Se12 3.660958 1_555
Rb5 Se6 3.660958 1_545
Rb5 Se0 3.660958 1_455
Ag0 Se5 2.795290 1_555
Ag0 Se12 2.795290 1_555
Ag0 Se6 2.795290 1_545
Ag0 Se13 2.795290 1_545
Ag1 Se0 2.795290 1_455
Ag1 Se15 2.795290 1_555
Ag1 Se8 2.795290 1_555
Ag1 Se7 2.795290 1_455
Se0 Sn4 2.490960 1_655
Se1 Sn5 2.550758 1_655
Se1 Sn4 2.644005 1_655
Se2 Sn5 2.550758 1_556
Se2 Sn0 2.644005 1_555
Se3 Sn5 2.550758 1_555
Se3 Sn4 2.644005 1_555
Se4 Sn3 2.550758 1_555
Se4 Sn1 2.644005 1_555
Se5 Sn2 2.490960 1_555
Se6 Sn2 2.490960 1_565
Se7 Sn0 2.490960 1_655
Se8 Sn4 2.490960 1_555
Se9 Sn5 2.550758 1_656
Se9 Sn0 2.644005 1_655
Se10 Sn3 2.550758 1_565
Se10 Sn1 2.644005 1_565
Se11 Sn3 2.550758 1_566
Se11 Sn2 2.644005 1_565
Se12 Sn1 2.490960 1_555
Se13 Sn1 2.490960 1_565
Se14 Sn3 2.550758 1_556
Se14 Sn2 2.644005 1_555
Se15 Sn0 2.490960 1_555
