# generated using pymatgen
data_Cs2NaTiF6
_symmetry_space_group_name_H-M   'P 1'
_cell_length_a   6.41840407
_cell_length_b   6.41840407
_cell_length_c   15.25034500
_cell_angle_alpha   90.00000000
_cell_angle_beta   90.00000000
_cell_angle_gamma   120.00000075
_symmetry_Int_Tables_number   1
_chemical_formula_structural   Cs2NaTiF6
_chemical_formula_sum   'Cs6 Na3 Ti3 F18'
_cell_volume   544.08206051
_cell_formula_units_Z   3
loop_
 _symmetry_equiv_pos_site_id
 _symmetry_equiv_pos_as_xyz
  1  'x, y, z'
loop_
 _atom_site_type_symbol
 _atom_site_label
 _atom_site_symmetry_multiplicity
 _atom_site_fract_x
 _atom_site_fract_y
 _atom_site_fract_z
 _atom_site_occupancy
  Cs  Cs0  1  0.33333300  0.66666700  0.08838200  1
  Cs  Cs1  1  0.00000000  0.00000000  0.75146300  1
  Cs  Cs2  1  0.33333300  0.66666700  0.39451500  1
  Cs  Cs3  1  0.00000000  0.00000000  0.24853700  1
  Cs  Cs4  1  0.66666700  0.33333300  0.91161800  1
  Cs  Cs5  1  0.66666700  0.33333300  0.60548500  1
  Na  Na0  1  0.66666700  0.33333300  0.35716700  1
  Na  Na1  1  0.33333300  0.66666700  0.64283300  1
  Na  Na2  1  0.00000000  0.00000000  0.00000000  1
  Ti  Ti0  1  0.33333300  0.66666700  0.83990500  1
  Ti  Ti1  1  0.00000000  0.00000000  0.50000000  1
  Ti  Ti2  1  0.66666700  0.33333300  0.16009500  1
  F  F0  1  0.18159400  0.81840600  0.91086900  1
  F  F1  1  0.36318800  0.18159400  0.08913100  1
  F  F2  1  0.47735700  0.95471300  0.76058400  1
  F  F3  1  0.15078400  0.30156800  0.57240900  1
  F  F4  1  0.69843200  0.84921600  0.57240900  1
  F  F5  1  0.18159400  0.36318800  0.91086900  1
  F  F6  1  0.15078400  0.84921600  0.57240900  1
  F  F7  1  0.81840600  0.63681200  0.08913100  1
  F  F8  1  0.52264300  0.04528700  0.23941600  1
  F  F9  1  0.30156800  0.15078400  0.42759100  1
  F  F10  1  0.84921600  0.15078400  0.42759100  1
  F  F11  1  0.95471300  0.47735700  0.23941600  1
  F  F12  1  0.63681200  0.81840600  0.91086900  1
  F  F13  1  0.52264300  0.47735700  0.23941600  1
  F  F14  1  0.84921600  0.69843200  0.42759100  1
  F  F15  1  0.81840600  0.18159400  0.08913100  1
  F  F16  1  0.47735700  0.52264300  0.76058400  1
  F  F17  1  0.04528700  0.52264300  0.76058400  1
loop_
_geom_bond_atom_site_label_1
_geom_bond_atom_site_label_2
_geom_bond_distance
_geom_bond_site_symmetry_2
Cs0 F11 3.120009 1_455
Cs0 F8 3.120009 1_565
Cs0 F13 3.120009 1_555
Cs0 F0 3.189694 1_554
Cs0 F12 3.189697 1_554
Cs0 F5 3.189697 1_554
Cs0 F1 3.213507 1_565
Cs0 F7 3.213507 1_455
Cs0 F15 3.213510 1_455
Cs0 F15 3.213510 1_565
Cs0 F7 3.213513 1_555
Cs0 F1 3.213513 1_555
Cs1 F12 3.159940 1_445
Cs1 F5 3.159940 1_555
Cs1 F0 3.159940 1_545
Cs1 F4 3.204097 1_445
Cs1 F3 3.204097 1_555
Cs1 F6 3.204097 1_545
Cs1 F2 3.222060 1_445
Cs1 F17 3.222060 1_555
Cs1 F16 3.222063 1_555
Cs1 F16 3.222063 1_445
Cs1 F2 3.222067 1_545
Cs1 F17 3.222067 1_545
Cs2 F11 3.166051 1_455
Cs2 F8 3.166051 1_565
Cs2 F13 3.166051 1_555
Cs2 F9 3.253394 1_565
Cs2 F14 3.253394 1_455
Cs2 F10 3.253397 1_455
Cs2 F10 3.253397 1_565
Cs2 F14 3.253400 1_555
Cs2 F9 3.253400 1_555
Cs2 F6 3.387997 1_555
Cs2 F3 3.388000 1_555
Cs2 F4 3.388000 1_555
Cs3 F7 3.159940 1_445
Cs3 F1 3.159940 1_555
Cs3 F15 3.159940 1_455
Cs3 F14 3.204097 1_445
Cs3 F9 3.204097 1_555
Cs3 F10 3.204097 1_455
Cs3 F11 3.222060 1_445
Cs3 F8 3.222060 1_555
Cs3 F13 3.222063 1_445
Cs3 F13 3.222063 1_555
Cs3 F11 3.222067 1_455
Cs3 F8 3.222067 1_455
Cs4 F2 3.120009 1_545
Cs4 F17 3.120009 1_655
Cs4 F16 3.120009 1_555
Cs4 F15 3.189694 1_556
Cs4 F1 3.189697 1_556
Cs4 F7 3.189697 1_556
Cs4 F5 3.213507 1_655
Cs4 F12 3.213507 1_545
Cs4 F0 3.213510 1_655
Cs4 F0 3.213510 1_545
Cs4 F12 3.213513 1_555
Cs4 F5 3.213513 1_555
Cs5 F2 3.166051 1_545
Cs5 F17 3.166051 1_655
Cs5 F16 3.166051 1_555
Cs5 F4 3.253394 1_545
Cs5 F3 3.253394 1_655
Cs5 F6 3.253397 1_545
Cs5 F6 3.253397 1_655
Cs5 F4 3.253400 1_555
Cs5 F3 3.253400 1_555
Cs5 F10 3.387997 1_555
Cs5 F14 3.388000 1_555
Cs5 F9 3.388000 1_555
F0 Ti0 2.004192 1_555
F0 Na2 2.433745 1_566
F1 Ti2 2.004197 1_555
F1 Na2 2.433745 1_555
F2 Ti0 2.006699 1_555
F2 Na1 2.405874 1_555
F3 Ti1 2.007302 1_555
F3 Na1 2.296069 1_555
F4 Ti1 2.007302 1_665
F4 Na1 2.296069 1_555
F5 Ti0 2.004197 1_555
F5 Na2 2.433745 1_556
F6 Ti1 2.007302 1_565
F6 Na1 2.296064 1_555
F7 Ti2 2.004197 1_555
F7 Na2 2.433745 1_665
F8 Ti2 2.006699 1_555
F8 Na0 2.405874 1_555
F9 Ti1 2.007302 1_555
F9 Na0 2.296069 1_555
F10 Ti1 2.007302 1_655
F10 Na0 2.296064 1_555
F11 Ti2 2.006699 1_555
F11 Na0 2.405874 1_555
F12 Ti0 2.004197 1_555
F12 Na2 2.433745 1_666
F13 Ti2 2.006708 1_555
F13 Na0 2.405881 1_555
F14 Ti1 2.007302 1_665
F14 Na0 2.296069 1_555
F15 Ti2 2.004192 1_555
F15 Na2 2.433745 1_655
F16 Ti0 2.006708 1_555
F16 Na1 2.405881 1_555
F17 Ti0 2.006699 1_555
F17 Na1 2.405874 1_555
