# generated using pymatgen
data_K2Nd2IrO7
_symmetry_space_group_name_H-M   'P 1'
_cell_length_a   13.18424181
_cell_length_b   13.18424181
_cell_length_c   13.18424187
_cell_angle_alpha   25.28697474
_cell_angle_beta   25.28697474
_cell_angle_gamma   25.28697271
_symmetry_Int_Tables_number   1
_chemical_formula_structural   K2Nd2IrO7
_chemical_formula_sum   'K4 Nd4 Ir2 O14'
_cell_volume   368.00135640
_cell_formula_units_Z   2
loop_
 _symmetry_equiv_pos_site_id
 _symmetry_equiv_pos_as_xyz
  1  'x, y, z'
loop_
 _atom_site_type_symbol
 _atom_site_label
 _atom_site_symmetry_multiplicity
 _atom_site_fract_x
 _atom_site_fract_y
 _atom_site_fract_z
 _atom_site_occupancy
  K  K0  1  0.08712100  0.08712100  0.08712100  1
  K  K1  1  0.91287900  0.91287900  0.91287900  1
  K  K2  1  0.41287900  0.41287900  0.41287900  1
  K  K3  1  0.58712100  0.58712100  0.58712100  1
  Nd  Nd0  1  0.69078900  0.69078900  0.69078900  1
  Nd  Nd1  1  0.80921100  0.80921100  0.80921100  1
  Nd  Nd2  1  0.19078900  0.19078900  0.19078900  1
  Nd  Nd3  1  0.30921100  0.30921100  0.30921100  1
  Ir  Ir0  1  0.50000000  0.50000000  0.50000000  1
  Ir  Ir1  1  0.00000000  0.00000000  0.00000000  1
  O  O0  1  0.10074800  0.70958700  0.27138100  1
  O  O1  1  0.22861900  0.79041300  0.39925200  1
  O  O2  1  0.29041300  0.72861900  0.89925200  1
  O  O3  1  0.77138100  0.20958700  0.60074800  1
  O  O4  1  0.60074800  0.77138100  0.20958700  1
  O  O5  1  0.72861900  0.89925200  0.29041300  1
  O  O6  1  0.79041300  0.39925200  0.22861900  1
  O  O7  1  0.89925200  0.29041300  0.72861900  1
  O  O8  1  0.70958700  0.27138100  0.10074800  1
  O  O9  1  0.27138100  0.10074800  0.70958700  1
  O  O10  1  0.25000000  0.25000000  0.25000000  1
  O  O11  1  0.20958700  0.60074800  0.77138100  1
  O  O12  1  0.75000000  0.75000000  0.75000000  1
  O  O13  1  0.39925200  0.22861900  0.79041300  1
loop_
_geom_bond_atom_site_label_1
_geom_bond_atom_site_label_2
_geom_bond_distance
_geom_bond_site_symmetry_2
K0 O6 2.700490 1_455
K0 O1 2.700490 1_545
K0 O13 2.700491 1_554
K0 O8 2.831057 1_455
K0 O0 2.831058 1_545
K0 O9 2.831058 1_554
K1 O11 2.700490 1_655
K1 O3 2.700490 1_565
K1 O4 2.700491 1_556
K1 O2 2.831057 1_655
K1 O7 2.831058 1_565
K1 O5 2.831058 1_556
K2 O0 2.700490 1_555
K2 O8 2.700490 1_555
K2 O9 2.700491 1_555
K2 O1 2.831057 1_555
K2 O6 2.831058 1_555
K2 O13 2.831058 1_555
K3 O7 2.700490 1_555
K3 O2 2.700490 1_555
K3 O5 2.700491 1_555
K3 O3 2.831057 1_555
K3 O11 2.831058 1_555
K3 O4 2.831058 1_555
Nd0 O12 2.265920 1_555
Nd0 O9 2.397653 1_565
Nd0 O8 2.397653 1_556
Nd0 O0 2.397653 1_655
Nd0 O7 2.673766 1_555
Nd0 O2 2.673766 1_555
Nd0 O5 2.673767 1_555
Nd1 O12 2.265920 1_555
Nd1 O13 2.397653 1_565
Nd1 O1 2.397653 1_655
Nd1 O6 2.397653 1_556
Nd1 O11 2.673766 1_655
Nd1 O3 2.673766 1_565
Nd1 O4 2.673767 1_556
Nd2 O10 2.265920 1_555
Nd2 O4 2.397653 1_545
Nd2 O3 2.397653 1_455
Nd2 O11 2.397653 1_554
Nd2 O6 2.673766 1_455
Nd2 O1 2.673766 1_545
Nd2 O13 2.673767 1_554
Nd3 O10 2.265920 1_555
Nd3 O5 2.397653 1_545
Nd3 O2 2.397653 1_554
Nd3 O7 2.397653 1_455
Nd3 O0 2.673766 1_555
Nd3 O8 2.673766 1_555
Nd3 O9 2.673767 1_555
Ir0 O3 1.962135 1_555
Ir0 O1 1.962135 1_555
Ir0 O11 1.962135 1_555
Ir0 O6 1.962135 1_555
Ir0 O4 1.962135 1_555
Ir0 O13 1.962135 1_555
Ir1 O8 1.962135 1_455
Ir1 O2 1.962135 1_544
Ir1 O0 1.962135 1_545
Ir1 O7 1.962135 1_454
Ir1 O9 1.962135 1_554
Ir1 O5 1.962135 1_445
