# generated using pymatgen
data_Ce4Si2Se3O7
_symmetry_space_group_name_H-M   'P 1'
_cell_length_a   11.31337148
_cell_length_b   11.31337126
_cell_length_c   11.31337143
_cell_angle_alpha   99.78134801
_cell_angle_beta   114.52282379
_cell_angle_gamma   114.52281860
_symmetry_Int_Tables_number   1
_chemical_formula_structural   Ce4Si2Se3O7
_chemical_formula_sum   'Ce16 Si8 Se12 O28'
_cell_volume   1091.37459933
_cell_formula_units_Z   4
loop_
 _symmetry_equiv_pos_site_id
 _symmetry_equiv_pos_as_xyz
  1  'x, y, z'
loop_
 _atom_site_type_symbol
 _atom_site_label
 _atom_site_symmetry_multiplicity
 _atom_site_fract_x
 _atom_site_fract_y
 _atom_site_fract_z
 _atom_site_occupancy
  Ce  Ce0  1  0.01122605  0.34590223  0.33467618  1
  Ce  Ce1  1  0.98877395  0.33467618  0.82345013  1
  Ce  Ce2  1  0.51122605  0.33467618  0.34590223  1
  Ce  Ce3  1  0.51122605  0.17654987  0.66532382  1
  Ce  Ce4  1  0.98877395  0.65409777  0.66532382  1
  Ce  Ce5  1  0.48877395  0.82345013  0.33467618  1
  Ce  Ce6  1  0.48877395  0.66532382  0.65409777  1
  Ce  Ce7  1  0.01122605  0.66532382  0.17654987  1
  Ce  Ce8  1  0.59499284  0.29749642  0.04749642  1
  Ce  Ce9  1  0.75000000  0.04749642  0.95250358  1
  Ce  Ce10  1  0.75000000  0.70250358  0.29749642  1
  Ce  Ce11  1  0.90500716  0.95250358  0.70250358  1
  Ce  Ce12  1  0.40500716  0.70250358  0.95250358  1
  Ce  Ce13  1  0.25000000  0.95250358  0.04749642  1
  Ce  Ce14  1  0.25000000  0.29749642  0.70250358  1
  Ce  Ce15  1  0.09499284  0.04749642  0.29749642  1
  Si  Si0  1  0.37361068  0.46687517  0.09326449  1
  Si  Si1  1  0.62638932  0.09326449  0.21965381  1
  Si  Si2  1  0.87361068  0.09326449  0.46687517  1
  Si  Si3  1  0.87361068  0.78034619  0.90673551  1
  Si  Si4  1  0.62638932  0.53312483  0.90673551  1
  Si  Si5  1  0.12638932  0.21965381  0.09326449  1
  Si  Si6  1  0.12638932  0.90673551  0.53312483  1
  Si  Si7  1  0.37361068  0.90673551  0.78034619  1
  Se  Se0  1  0.35335459  0.00000000  0.35335459  1
  Se  Se1  1  0.35335459  0.35335459  0.50000000  1
  Se  Se2  1  0.14664541  0.64664541  0.00000000  1
  Se  Se3  1  0.14664541  0.50000000  0.64664541  1
  Se  Se4  1  0.64664541  0.00000000  0.64664541  1
  Se  Se5  1  0.64664541  0.64664541  0.50000000  1
  Se  Se6  1  0.85335459  0.35335459  0.00000000  1
  Se  Se7  1  0.85335459  0.50000000  0.35335459  1
  Se  Se8  1  0.25000000  0.62500000  0.37500000  1
  Se  Se9  1  0.75000000  0.37500000  0.62500000  1
  Se  Se10  1  0.75000000  0.87500000  0.12500000  1
  Se  Se11  1  0.25000000  0.12500000  0.87500000  1
  O  O0  1  0.22729152  0.15020331  0.15791745  1
  O  O1  1  0.00771414  0.15791745  0.43062594  1
  O  O2  1  0.49228586  0.92291180  0.15020331  1
  O  O3  1  0.49228586  0.56937406  0.84208255  1
  O  O4  1  0.00771414  0.84979669  0.07708820  1
  O  O5  1  0.27270848  0.43062594  0.92291180  1
  O  O6  1  0.27270848  0.84208255  0.84979669  1
  O  O7  1  0.22729152  0.07708820  0.56937406  1
  O  O8  1  0.77270848  0.84979669  0.84208255  1
  O  O9  1  0.99228586  0.84208255  0.56937406  1
  O  O10  1  0.50771414  0.07708820  0.84979669  1
  O  O11  1  0.50771414  0.43062594  0.15791745  1
  O  O12  1  0.99228586  0.15020331  0.92291180  1
  O  O13  1  0.72729152  0.56937406  0.07708820  1
  O  O14  1  0.72729152  0.15791745  0.15020331  1
  O  O15  1  0.77270848  0.92291180  0.43062594  1
  O  O16  1  0.02535685  0.19501301  0.16965616  1
  O  O17  1  0.97464315  0.16965616  0.64429932  1
  O  O18  1  0.52535685  0.16965616  0.19501301  1
  O  O19  1  0.52535685  0.35570068  0.83034384  1
  O  O20  1  0.97464315  0.80498699  0.83034384  1
  O  O21  1  0.47464315  0.64429932  0.16965616  1
  O  O22  1  0.47464315  0.83034384  0.80498699  1
  O  O23  1  0.02535685  0.83034384  0.35570068  1
  O  O24  1  0.25000000  0.86039297  0.61039297  1
  O  O25  1  0.75000000  0.61039297  0.86039297  1
  O  O26  1  0.75000000  0.13960703  0.38960703  1
  O  O27  1  0.25000000  0.38960703  0.13960703  1
loop_
_geom_bond_atom_site_label_1
_geom_bond_atom_site_label_2
_geom_bond_distance
_geom_bond_site_symmetry_2
Ce0 O16 2.411743 1_555
Ce0 O14 2.540280 1_455
Ce0 O1 2.540280 1_555
Ce0 Se8 2.980347 1_555
Ce0 Se3 3.007802 1_555
Ce0 Se7 3.007802 1_455
Ce0 Se6 3.486126 1_455
Ce0 Se1 3.486126 1_555
Ce1 O17 2.411742 1_555
Ce1 O5 2.540280 1_655
Ce1 O12 2.540280 1_555
Ce1 Se9 2.980347 1_555
Ce1 Se2 3.007802 1_656
Ce1 Se6 3.007802 1_556
Ce1 Se4 3.486126 1_555
Ce1 Se3 3.486126 1_655
Ce2 O18 2.411743 1_555
Ce2 O0 2.540280 1_555
Ce2 O11 2.540280 1_555
Ce2 Se9 2.980347 1_555
Ce2 Se5 3.007802 1_555
Ce2 Se1 3.007802 1_555
Ce2 Se0 3.486126 1_555
Ce2 Se7 3.486126 1_555
Ce3 O19 2.411742 1_555
Ce3 O7 2.540280 1_555
Ce3 O10 2.540280 1_555
Ce3 Se9 2.980347 1_555
Ce3 Se4 3.007802 1_555
Ce3 Se0 3.007802 1_555
Ce3 Se1 3.486126 1_555
Ce3 Se6 3.486126 1_556
Ce4 O20 2.411743 1_555
Ce4 O6 2.540280 1_655
Ce4 O9 2.540280 1_555
Ce4 Se9 2.980347 1_555
Ce4 Se7 3.007802 1_555
Ce4 Se3 3.007802 1_655
Ce4 Se2 3.486126 1_656
Ce4 Se5 3.486126 1_555
Ce5 O21 2.411742 1_555
Ce5 O15 2.540280 1_555
Ce5 O2 2.540280 1_555
Ce5 Se8 2.980347 1_555
Ce5 Se0 3.007802 1_565
Ce5 Se4 3.007802 1_565
Ce5 Se5 3.486126 1_555
Ce5 Se2 3.486126 1_555
Ce6 O22 2.411743 1_555
Ce6 O8 2.540280 1_555
Ce6 O3 2.540280 1_555
Ce6 Se8 2.980347 1_555
Ce6 Se1 3.007802 1_555
Ce6 Se5 3.007802 1_555
Ce6 Se4 3.486126 1_565
Ce6 Se3 3.486126 1_555
Ce7 O23 2.411742 1_555
Ce7 O13 2.540280 1_455
Ce7 O4 2.540280 1_555
Ce7 Se8 2.980347 1_555
Ce7 Se6 3.007802 1_455
Ce7 Se2 3.007802 1_555
Ce7 Se0 3.486126 1_565
Ce7 Se7 3.486126 1_455
Ce8 O10 2.534410 1_554
Ce8 O11 2.534410 1_555
Ce8 O19 2.542328 1_554
Ce8 O18 2.542328 1_555
Ce8 O14 2.688069 1_555
Ce8 O13 2.688069 1_555
Ce8 Se11 2.985104 1_554
Ce8 Se7 3.019525 1_555
Ce8 Se6 3.019525 1_555
Ce9 O8 2.534410 1_545
Ce9 O14 2.534410 1_556
Ce9 O16 2.542328 1_656
Ce9 O22 2.542328 1_545
Ce9 O10 2.688069 1_555
Ce9 O12 2.688069 1_555
Ce9 Se10 2.985104 1_546
Ce9 Se4 3.019525 1_555
Ce9 Se6 3.019525 1_556
Ce10 O15 2.534410 1_555
Ce10 O13 2.534410 1_555
Ce10 O21 2.542328 1_555
Ce10 O23 2.542328 1_655
Ce10 O9 2.688069 1_555
Ce10 O11 2.688069 1_555
Ce10 Se10 2.985104 1_555
Ce10 Se7 3.019525 1_555
Ce10 Se5 3.019525 1_555
Ce11 O12 2.534410 1_565
Ce11 O9 2.534410 1_555
Ce11 O20 2.542328 1_555
Ce11 O17 2.542328 1_565
Ce11 O15 2.688069 1_555
Ce11 O8 2.688069 1_555
Ce11 Se11 2.985104 1_665
Ce11 Se4 3.019525 1_565
Ce11 Se5 3.019525 1_555
Ce12 O2 2.534410 1_556
Ce12 O3 2.534410 1_555
Ce12 O21 2.542328 1_556
Ce12 O22 2.542328 1_555
Ce12 O6 2.688069 1_555
Ce12 O5 2.688069 1_555
Ce12 Se10 2.985104 1_556
Ce12 Se3 3.019525 1_555
Ce12 Se2 3.019525 1_556
Ce13 O0 2.534410 1_565
Ce13 O6 2.534410 1_554
Ce13 O20 2.542328 1_454
Ce13 O18 2.542328 1_565
Ce13 O2 2.688069 1_555
Ce13 O4 2.688069 1_555
Ce13 Se11 2.985104 1_564
Ce13 Se0 3.019525 1_565
Ce13 Se2 3.019525 1_555
Ce14 O7 2.534410 1_555
Ce14 O5 2.534410 1_555
Ce14 O19 2.542328 1_555
Ce14 O17 2.542328 1_455
Ce14 O1 2.688069 1_555
Ce14 O3 2.688069 1_555
Ce14 Se11 2.985104 1_555
Ce14 Se3 3.019525 1_555
Ce14 Se1 3.019525 1_555
Ce15 O4 2.534410 1_545
Ce15 O1 2.534410 1_555
Ce15 O16 2.542328 1_555
Ce15 O23 2.542328 1_545
Ce15 O7 2.688069 1_555
Ce15 O0 2.688069 1_555
Ce15 Se10 2.985104 1_445
Ce15 Se0 3.019525 1_555
Ce15 Se1 3.019525 1_555
O0 Si5 1.643835 1_555
O1 Si2 1.643835 1_455
O2 Si1 1.643835 1_565
O3 Si4 1.643835 1_555
O4 Si3 1.643835 1_454
O5 Si0 1.643835 1_556
O6 Si7 1.643835 1_555
O7 Si6 1.643835 1_545
O8 Si3 1.643835 1_555
O9 Si6 1.643835 1_655
O10 Si7 1.643835 1_545
O11 Si0 1.643835 1_555
O12 Si5 1.643835 1_656
O13 Si4 1.643835 1_554
O14 Si1 1.643835 1_555
O15 Si2 1.643835 1_565
O16 Si5 1.663883 1_555
O17 Si2 1.663883 1_555
O18 Si1 1.663883 1_555
O19 Si4 1.663883 1_555
O20 Si3 1.663883 1_555
O21 Si0 1.663883 1_555
O22 Si7 1.663883 1_555
O23 Si6 1.663883 1_555
O24 Si7 1.656587 1_555
O24 Si6 1.656587 1_555
O25 Si3 1.656587 1_555
O25 Si4 1.656587 1_555
O26 Si1 1.656587 1_555
O26 Si2 1.656587 1_555
O27 Si5 1.656587 1_555
O27 Si0 1.656587 1_555
