# generated using pymatgen
data_TaFe2
_symmetry_space_group_name_H-M   'P 1'
_cell_length_a   4.86479389
_cell_length_b   4.86479024
_cell_length_c   7.90553190
_cell_angle_alpha   89.99993700
_cell_angle_beta   90.00003309
_cell_angle_gamma   119.99848610
_symmetry_Int_Tables_number   1
_chemical_formula_structural   TaFe2
_chemical_formula_sum   'Ta4 Fe8'
_cell_volume   162.03055387
_cell_formula_units_Z   4
loop_
 _symmetry_equiv_pos_site_id
 _symmetry_equiv_pos_as_xyz
  1  'x, y, z'
loop_
 _atom_site_type_symbol
 _atom_site_label
 _atom_site_symmetry_multiplicity
 _atom_site_fract_x
 _atom_site_fract_y
 _atom_site_fract_z
 _atom_site_occupancy
  Ta  Ta0  1  0.66667037  0.33332850  0.44233399  1
  Ta  Ta1  1  0.33333073  0.66666713  0.94235091  1
  Ta  Ta2  1  0.33333076  0.66666968  0.55767281  1
  Ta  Ta3  1  0.66667038  0.33332862  0.05764412  1
  Fe  Fe0  1  0.33863517  0.16931223  0.75003887  1
  Fe  Fe1  1  0.16932569  0.83067459  0.24996070  1
  Fe  Fe2  1  0.16931658  0.33864316  0.24996079  1
  Fe  Fe3  1  0.83068820  0.66136478  0.75003877  1
  Fe  Fe4  1  -0.00000157  0.00000350  0.00000978  1
  Fe  Fe5  1  0.66135714  0.83068420  0.24996068  1
  Fe  Fe6  1  0.83067914  0.16932010  0.75003884  1
  Fe  Fe7  1  -0.00000159  0.00000352  0.49998975  1
loop_
_geom_bond_atom_site_label_1
_geom_bond_atom_site_label_2
_geom_bond_distance
_geom_bond_site_symmetry_2
Ta0 Ta2 2.952996 1_545
Ta0 Ta2 2.953005 1_655
Ta0 Ta2 2.953025 1_555
Ta0 Ta3 3.041178 1_555
Ta1 Ta3 2.952893 1_456
Ta1 Ta3 2.952897 1_566
Ta1 Ta3 2.952902 1_556
Ta1 Ta2 3.041085 1_555
Fe0 Fe6 2.393673 1_555
Fe0 Fe3 2.393789 1_555
Fe0 Fe4 2.437352 1_556
Fe0 Fe7 2.437853 1_555
Fe0 Fe3 2.471114 1_445
Fe0 Fe6 2.471121 1_455
Fe0 Ta3 2.797073 1_556
Fe0 Ta0 2.797758 1_555
Fe0 Ta1 2.868496 1_545
Fe0 Ta1 2.868557 1_555
Fe0 Ta2 2.868715 1_545
Fe0 Ta2 2.868791 1_555
Fe1 Fe2 2.393608 1_555
Fe1 Fe5 2.393608 1_555
Fe1 Fe4 2.437251 1_565
Fe1 Fe7 2.437754 1_565
Fe1 Fe2 2.471183 1_565
Fe1 Fe5 2.471186 1_455
Fe1 Ta1 2.797042 1_554
Fe1 Ta2 2.797738 1_555
Fe1 Ta3 2.868591 1_565
Fe1 Ta3 2.868597 1_455
Fe1 Ta0 2.868829 1_565
Fe1 Ta0 2.868834 1_455
Fe2 Fe5 2.393731 1_555
Fe2 Fe4 2.437232 1_555
Fe2 Fe7 2.437729 1_555
Fe2 Fe5 2.471172 1_445
Fe2 Ta1 2.797080 1_554
Fe2 Ta2 2.797789 1_555
Fe2 Ta3 2.868502 1_455
Fe2 Ta3 2.868594 1_555
Fe2 Ta0 2.868740 1_455
Fe2 Ta0 2.868830 1_555
Fe3 Fe6 2.393672 1_555
Fe3 Fe4 2.437358 1_666
Fe3 Fe7 2.437855 1_665
Fe3 Fe6 2.471118 1_565
Fe3 Ta3 2.797074 1_556
Fe3 Ta0 2.797760 1_555
Fe3 Ta1 2.868493 1_655
Fe3 Ta1 2.868565 1_555
Fe3 Ta2 2.868715 1_655
Fe3 Ta2 2.868794 1_555
Fe4 Fe5 2.437235 1_445
Fe4 Fe6 2.437329 1_454
Fe4 Ta3 2.845329 1_455
Fe4 Ta1 2.845424 1_544
Fe4 Ta1 2.845465 1_554
Fe4 Ta3 2.845471 1_555
Fe4 Ta3 2.845481 1_445
Fe4 Ta1 2.845484 1_444
Fe5 Fe7 2.437736 1_665
Fe5 Ta1 2.797086 1_554
Fe5 Ta2 2.797789 1_555
Fe5 Ta3 2.868495 1_565
Fe5 Ta3 2.868597 1_555
Fe5 Ta0 2.868735 1_565
Fe5 Ta0 2.868833 1_555
Fe6 Fe7 2.437832 1_655
Fe6 Ta3 2.797021 1_556
Fe6 Ta0 2.797703 1_555
Fe6 Ta1 2.868573 1_655
Fe6 Ta1 2.868577 1_545
Fe6 Ta2 2.868799 1_545
Fe6 Ta2 2.868803 1_655
Fe7 Ta0 2.845354 1_455
Fe7 Ta2 2.845444 1_545
Fe7 Ta0 2.845498 1_555
Fe7 Ta2 2.845507 1_555
Fe7 Ta0 2.845509 1_445
Fe7 Ta2 2.845515 1_445
