# generated using pymatgen
data_Ba5Re3ClO15
_symmetry_space_group_name_H-M   'P 1'
_cell_length_a   11.12461371
_cell_length_b   11.12461371
_cell_length_c   7.93773300
_cell_angle_alpha   90.00000000
_cell_angle_beta   90.00000000
_cell_angle_gamma   119.99999829
_symmetry_Int_Tables_number   1
_chemical_formula_structural   Ba5Re3ClO15
_chemical_formula_sum   'Ba10 Re6 Cl2 O30'
_cell_volume   850.74029790
_cell_formula_units_Z   2
loop_
 _symmetry_equiv_pos_site_id
 _symmetry_equiv_pos_as_xyz
  1  'x, y, z'
loop_
 _atom_site_type_symbol
 _atom_site_label
 _atom_site_symmetry_multiplicity
 _atom_site_fract_x
 _atom_site_fract_y
 _atom_site_fract_z
 _atom_site_occupancy
  Ba  Ba0  1  0.26423000  0.26423000  0.22676400  1
  Ba  Ba1  1  0.00000000  0.26423000  0.72676400  1
  Ba  Ba2  1  0.73577000  0.00000000  0.22676400  1
  Ba  Ba3  1  0.00000000  0.73577000  0.22676400  1
  Ba  Ba4  1  0.33333300  0.66666700  0.48601800  1
  Ba  Ba5  1  0.66666700  0.33333300  0.48601800  1
  Ba  Ba6  1  0.73577000  0.73577000  0.72676400  1
  Ba  Ba7  1  0.26423000  0.00000000  0.72676400  1
  Ba  Ba8  1  0.33333300  0.66666700  0.98601800  1
  Ba  Ba9  1  0.66666700  0.33333300  0.98601800  1
  Re  Re0  1  0.39121400  0.39121400  0.78116600  1
  Re  Re1  1  0.00000000  0.39121400  0.28116600  1
  Re  Re2  1  0.00000000  0.60878600  0.78116600  1
  Re  Re3  1  0.39121400  0.00000000  0.28116600  1
  Re  Re4  1  0.60878600  0.60878600  0.28116600  1
  Re  Re5  1  0.60878600  0.00000000  0.78116600  1
  Cl  Cl0  1  0.00000000  0.00000000  0.94233200  1
  Cl  Cl1  1  0.00000000  0.00000000  0.44233200  1
  O  O0  1  0.13053200  0.55326200  0.74158600  1
  O  O1  1  0.38935300  0.25769100  0.92185600  1
  O  O2  1  0.86833800  0.61064700  0.92185600  1
  O  O3  1  0.13166200  0.38935300  0.42185600  1
  O  O4  1  0.70379000  0.70379000  0.10316200  1
  O  O5  1  0.42273000  0.86946800  0.74158600  1
  O  O6  1  0.13053200  0.57727000  0.24158600  1
  O  O7  1  0.44673800  0.57727000  0.74158600  1
  O  O8  1  0.86946800  0.44673800  0.24158600  1
  O  O9  1  0.38935300  0.13166200  0.42185600  1
  O  O10  1  0.00000000  0.70379000  0.60316200  1
  O  O11  1  0.61064700  0.74230900  0.42185600  1
  O  O12  1  0.74230900  0.61064700  0.42185600  1
  O  O13  1  0.74230900  0.13166200  0.92185600  1
  O  O14  1  0.70379000  0.00000000  0.60316200  1
  O  O15  1  0.29621000  0.00000000  0.10316200  1
  O  O16  1  0.55326200  0.13053200  0.74158600  1
  O  O17  1  0.42273000  0.55326200  0.24158600  1
  O  O18  1  0.86946800  0.42273000  0.74158600  1
  O  O19  1  0.44673800  0.86946800  0.24158600  1
  O  O20  1  0.29621000  0.29621000  0.60316200  1
  O  O21  1  0.57727000  0.44673800  0.74158600  1
  O  O22  1  0.00000000  0.29621000  0.10316200  1
  O  O23  1  0.55326200  0.42273000  0.24158600  1
  O  O24  1  0.57727000  0.13053200  0.24158600  1
  O  O25  1  0.86833800  0.25769100  0.42185600  1
  O  O26  1  0.13166200  0.74230900  0.92185600  1
  O  O27  1  0.61064700  0.86833800  0.92185600  1
  O  O28  1  0.25769100  0.86833800  0.42185600  1
  O  O29  1  0.25769100  0.38935300  0.92185600  1
loop_
_geom_bond_atom_site_label_1
_geom_bond_atom_site_label_2
_geom_bond_distance
_geom_bond_site_symmetry_2
Ba0 O17 2.791414 1_555
Ba0 O23 2.791414 1_555
Ba0 O29 2.811015 1_554
Ba0 O1 2.811015 1_554
Ba0 O9 2.926324 1_555
Ba0 O3 2.926324 1_555
Ba0 O20 3.008854 1_555
Ba0 O15 3.282579 1_555
Ba0 O22 3.282579 1_555
Ba0 Cl1 3.401227 1_555
Ba0 Cl0 3.706456 1_554
Ba1 O18 2.791414 1_455
Ba1 O0 2.791414 1_555
Ba1 O25 2.811015 1_455
Ba1 O3 2.811015 1_555
Ba1 O29 2.926324 1_555
Ba1 O13 2.926324 1_455
Ba1 O22 3.008854 1_556
Ba1 O20 3.282579 1_555
Ba1 O14 3.282579 1_455
Ba1 Cl0 3.401226 1_555
Ba1 Cl1 3.706456 1_555
Ba2 O24 2.791414 1_555
Ba2 O19 2.791414 1_545
Ba2 O13 2.811015 1_554
Ba2 O27 2.811015 1_544
Ba2 O11 2.926324 1_545
Ba2 O25 2.926324 1_555
Ba2 O14 3.008854 1_555
Ba2 O4 3.282579 1_545
Ba2 O22 3.282579 1_655
Ba2 Cl1 3.401226 1_655
Ba2 Cl0 3.706456 1_654
Ba3 O6 2.791414 1_555
Ba3 O8 2.791414 1_455
Ba3 O26 2.811015 1_554
Ba3 O2 2.811015 1_454
Ba3 O12 2.926324 1_455
Ba3 O28 2.926324 1_555
Ba3 O10 3.008854 1_555
Ba3 O4 3.282579 1_455
Ba3 O15 3.282579 1_565
Ba3 Cl1 3.401226 1_565
Ba3 Cl0 3.706456 1_564
Ba4 O6 2.756770 1_555
Ba4 O19 2.756770 1_555
Ba4 O17 2.756777 1_555
Ba4 O28 2.808687 1_555
Ba4 O3 2.808695 1_555
Ba4 O11 2.808698 1_555
Ba4 O5 2.819682 1_555
Ba4 O0 2.819682 1_555
Ba4 O7 2.819689 1_555
Ba5 O24 2.756770 1_555
Ba5 O8 2.756770 1_555
Ba5 O23 2.756777 1_555
Ba5 O25 2.808687 1_555
Ba5 O9 2.808695 1_555
Ba5 O12 2.808698 1_555
Ba5 O18 2.819682 1_555
Ba5 O16 2.819682 1_555
Ba5 O21 2.819689 1_555
Ba6 O7 2.791414 1_555
Ba6 O21 2.791414 1_555
Ba6 O11 2.811015 1_555
Ba6 O12 2.811015 1_555
Ba6 O27 2.926324 1_555
Ba6 O2 2.926324 1_555
Ba6 O4 3.008854 1_556
Ba6 O10 3.282579 1_655
Ba6 O14 3.282579 1_565
Ba6 Cl0 3.401227 1_665
Ba6 Cl1 3.706456 1_665
Ba7 O5 2.791414 1_545
Ba7 O16 2.791414 1_555
Ba7 O28 2.811015 1_545
Ba7 O9 2.811015 1_555
Ba7 O1 2.926324 1_555
Ba7 O26 2.926324 1_545
Ba7 O15 3.008854 1_556
Ba7 O20 3.282579 1_555
Ba7 O10 3.282579 1_545
Ba7 Cl0 3.401226 1_555
Ba7 Cl1 3.706456 1_555
Ba8 O5 2.756770 1_555
Ba8 O0 2.756770 1_555
Ba8 O7 2.756777 1_555
Ba8 O26 2.808687 1_555
Ba8 O27 2.808695 1_555
Ba8 O29 2.808698 1_555
Ba8 O6 2.819682 1_556
Ba8 O19 2.819682 1_556
Ba8 O17 2.819689 1_556
Ba9 O18 2.756770 1_555
Ba9 O16 2.756770 1_555
Ba9 O21 2.756777 1_555
Ba9 O13 2.808687 1_555
Ba9 O2 2.808695 1_555
Ba9 O1 2.808698 1_555
Ba9 O24 2.819682 1_556
Ba9 O8 2.819682 1_556
Ba9 O23 2.819689 1_556
O0 Re2 1.867039 1_555
O1 Re0 1.850194 1_555
O2 Re2 1.850194 1_655
O3 Re1 1.850194 1_555
O4 Re4 1.764490 1_555
O5 Re5 1.867039 1_565
O6 Re1 1.867039 1_555
O7 Re0 1.867039 1_555
O8 Re1 1.867039 1_655
O9 Re3 1.850194 1_555
O10 Re2 1.764490 1_555
O11 Re4 1.850194 1_555
O12 Re4 1.850194 1_555
O13 Re5 1.850194 1_555
O14 Re5 1.764490 1_555
O15 Re3 1.764490 1_555
O16 Re5 1.867039 1_555
O17 Re4 1.867039 1_555
O18 Re2 1.867039 1_655
O19 Re3 1.867039 1_565
O20 Re0 1.764490 1_555
O21 Re0 1.867039 1_555
O22 Re1 1.764490 1_555
O23 Re4 1.867039 1_555
O24 Re3 1.867039 1_555
O25 Re1 1.850194 1_655
O26 Re2 1.850194 1_555
O27 Re5 1.850194 1_565
O28 Re3 1.850194 1_565
O29 Re0 1.850194 1_555
