# generated using pymatgen
data_Cs4U3Mo3O20
_symmetry_space_group_name_H-M   'P 1'
_cell_length_a   7.77317300
_cell_length_b   8.05532869
_cell_length_c   9.89088615
_cell_angle_alpha   79.13392703
_cell_angle_beta   82.30435549
_cell_angle_gamma   87.61673783
_symmetry_Int_Tables_number   1
_chemical_formula_structural   Cs4U3Mo3O20
_chemical_formula_sum   'Cs4 U3 Mo3 O20'
_cell_volume   602.65534097
_cell_formula_units_Z   1
loop_
 _symmetry_equiv_pos_site_id
 _symmetry_equiv_pos_as_xyz
  1  'x, y, z'
loop_
 _atom_site_type_symbol
 _atom_site_label
 _atom_site_symmetry_multiplicity
 _atom_site_fract_x
 _atom_site_fract_y
 _atom_site_fract_z
 _atom_site_occupancy
  Cs  Cs0  1  0.36177000  0.26548100  0.75106600  1
  Cs  Cs1  1  0.48673200  0.78488500  0.03943100  1
  Cs  Cs2  1  0.47614000  0.25255800  0.26866000  1
  Cs  Cs3  1  0.68612500  0.71417800  0.50730500  1
  U  U0  1  0.98466900  0.53472500  0.15669400  1
  U  U1  1  0.97571200  0.02127800  0.14545700  1
  U  U2  1  0.01282200  0.85207200  0.80274600  1
  Mo  Mo0  1  0.85527800  0.34976400  0.88340500  1
  Mo  Mo1  1  0.19961200  0.72541300  0.44311000  1
  Mo  Mo2  1  0.91363900  0.19480900  0.49924100  1
  O  O0  1  0.74238300  0.97155300  0.18817800  1
  O  O1  1  0.96759100  0.54628200  0.90521300  1
  O  O2  1  0.68618100  0.19621200  0.54401700  1
  O  O3  1  0.05575000  0.73650000  0.60396700  1
  O  O4  1  0.04344400  0.09811700  0.63550200  1
  O  O5  1  0.99120500  0.39281100  0.39228900  1
  O  O6  1  0.75220900  0.57749100  0.20968500  1
  O  O7  1  0.99991400  0.80256200  0.03108600  1
  O  O8  1  0.21081200  0.06526500  0.10585900  1
  O  O9  1  0.86778200  0.38799200  0.70042800  1
  O  O10  1  0.95228100  0.12669200  0.90787900  1
  O  O11  1  0.34785900  0.89135600  0.40798000  1
  O  O12  1  0.90551800  0.29274300  0.11397900  1
  O  O13  1  0.63006000  0.35481300  0.93766400  1
  O  O14  1  0.21884800  0.49292500  0.11435900  1
  O  O15  1  0.77758100  0.85522700  0.79348500  1
  O  O16  1  0.25041200  0.85663600  0.79780400  1
  O  O17  1  0.07295000  0.73911700  0.29396100  1
  O  O18  1  0.32897500  0.53928900  0.46956000  1
  O  O19  1  0.95421600  0.04620400  0.38189200  1
loop_
_geom_bond_atom_site_label_1
_geom_bond_atom_site_label_2
_geom_bond_distance
_geom_bond_site_symmetry_2
Cs0 O2 3.129687 1_555
Cs0 O13 3.151139 1_555
Cs0 O18 3.241947 1_555
Cs0 O4 3.295858 1_555
Cs0 O16 3.371238 1_545
Cs0 O10 3.479541 1_455
Cs0 O8 3.635020 1_556
Cs1 O15 3.076351 1_554
Cs1 O6 3.077084 1_555
Cs1 O14 3.123013 1_555
Cs1 O8 3.148335 1_565
Cs1 O16 3.160189 1_554
Cs1 O0 3.200038 1_555
Cs2 O14 3.075614 1_555
Cs2 O11 3.117786 1_545
Cs2 O0 3.144693 1_545
Cs2 O13 3.293055 1_554
Cs2 O2 3.309452 1_555
Cs2 O8 3.344687 1_555
Cs2 O6 3.369352 1_555
Cs2 O18 3.390239 1_555
Cs2 O12 3.481492 1_555
Cs3 O11 3.125209 1_555
Cs3 O3 3.169373 1_655
Cs3 O18 3.260742 1_555
Cs3 O6 3.303290 1_555
Cs3 O9 3.326866 1_555
Cs3 O19 3.399289 1_565
Cs3 O15 3.409858 1_555
Cs3 O0 3.419232 1_555
Cs3 O17 3.424241 1_655
Cs3 O5 3.673769 1_555
Mo0 O13 1.762145 1_555
Mo0 O9 1.767745 1_555
Mo0 O1 1.899674 1_555
Mo0 O10 1.904799 1_555
Mo0 O12 2.322327 1_556
Mo1 O11 1.755344 1_555
Mo1 O18 1.767668 1_555
Mo1 O3 1.832647 1_555
Mo1 O17 1.864504 1_555
Mo2 O2 1.764327 1_555
Mo2 O19 1.809429 1_555
Mo2 O5 1.816461 1_555
Mo2 O4 1.828717 1_655
O0 U1 1.849290 1_565
O1 U0 2.492669 1_556
O1 U2 2.500735 1_655
O3 U2 2.309148 1_555
O4 U2 2.327853 1_545
O5 U0 2.400410 1_555
O6 U0 1.849627 1_555
O7 U2 2.207468 1_654
O7 U1 2.255213 1_565
O7 U0 2.276761 1_555
O8 U1 1.851605 1_455
O10 U1 2.371813 1_556
O10 U2 2.616494 1_645
O12 U0 2.199192 1_555
O12 U1 2.205913 1_555
O14 U0 1.843989 1_455
O15 U2 1.841960 1_655
O16 U2 1.842636 1_555
O17 U0 2.492247 1_455
O17 U1 2.605879 1_465
O19 U1 2.367837 1_555
