# generated using pymatgen
data_SiO2
_symmetry_space_group_name_H-M   'P 1'
_cell_length_a   4.97615435
_cell_length_b   13.85902328
_cell_length_c   17.33698638
_cell_angle_alpha   105.96438048
_cell_angle_beta   90.00000000
_cell_angle_gamma   90.00000000
_symmetry_Int_Tables_number   1
_chemical_formula_structural   SiO2
_chemical_formula_sum   'Si24 O48'
_cell_volume   1149.52663859
_cell_formula_units_Z   24
loop_
 _symmetry_equiv_pos_site_id
 _symmetry_equiv_pos_as_xyz
  1  'x, y, z'
loop_
 _atom_site_type_symbol
 _atom_site_label
 _atom_site_symmetry_multiplicity
 _atom_site_fract_x
 _atom_site_fract_y
 _atom_site_fract_z
 _atom_site_occupancy
  Si  Si0  1  0.56697700  0.01140285  0.30460279  1
  Si  Si1  1  0.81983909  0.80896917  0.83949783  1
  Si  Si2  1  0.70126650  0.69357553  0.16030722  1
  Si  Si3  1  0.94429201  0.49213447  0.69589700  1
  Si  Si4  1  0.31984009  0.19103083  0.66050217  1
  Si  Si5  1  0.06697700  0.98859715  0.19539721  1
  Si  Si6  1  0.29873350  0.30642447  0.83969278  1
  Si  Si7  1  0.05570799  0.50786553  0.30410300  1
  Si  Si8  1  0.66574773  0.27004975  0.09369368  1
  Si  Si9  1  0.16574773  0.72995025  0.40630632  1
  Si  Si10  1  0.55570799  0.49213447  0.19589700  1
  Si  Si11  1  0.83425227  0.27004975  0.59369368  1
  Si  Si12  1  0.79873350  0.69357553  0.66030722  1
  Si  Si13  1  0.31780932  0.76934011  0.59069546  1
  Si  Si14  1  0.33425227  0.72995025  0.90630632  1
  Si  Si15  1  0.68016091  0.80896917  0.33949783  1
  Si  Si16  1  0.68219068  0.23065989  0.40930454  1
  Si  Si17  1  0.18219068  0.76934011  0.09069546  1
  Si  Si18  1  0.81780932  0.23065989  0.90930454  1
  Si  Si19  1  0.93302300  0.01140285  0.80460279  1
  Si  Si20  1  0.20126650  0.30642447  0.33969278  1
  Si  Si21  1  0.43302300  0.98859715  0.69539721  1
  Si  Si22  1  0.18016091  0.19103083  0.16050217  1
  Si  Si23  1  0.44429201  0.50786553  0.80410300  1
  O  O0  1  0.10689015  0.61198481  0.37096760  1
  O  O1  1  0.04118980  0.75477804  0.63431863  1
  O  O2  1  0.20907181  0.24909669  0.74887772  1
  O  O3  1  0.10779750  0.76261823  0.85196425  1
  O  O4  1  0.75086556  0.50392741  0.77287972  1
  O  O5  1  0.65078587  0.92702629  0.34807025  1
  O  O6  1  0.25086556  0.49607259  0.72712028  1
  O  O7  1  0.57407634  0.11830561  0.37074427  1
  O  O8  1  0.73078125  0.24799492  0.50328837  1
  O  O9  1  0.95802075  0.69024896  0.10283696  1
  O  O10  1  0.89310985  0.38801519  0.62903240  1
  O  O11  1  0.89372244  0.58099732  0.65435356  1
  O  O12  1  0.04197925  0.30975104  0.89716304  1
  O  O13  1  0.24913444  0.49607259  0.22712028  1
  O  O14  1  0.60627756  0.58099732  0.15435356  1
  O  O15  1  0.26921875  0.75200508  0.49671163  1
  O  O16  1  0.95881020  0.24522196  0.36568137  1
  O  O17  1  0.73334738  0.01034718  0.73090725  1
  O  O18  1  0.74913444  0.50392741  0.27287972  1
  O  O19  1  0.39220250  0.76261823  0.35196425  1
  O  O20  1  0.15078587  0.07297371  0.15192975  1
  O  O21  1  0.79092819  0.75090331  0.25112228  1
  O  O22  1  0.54197925  0.69024896  0.60283696  1
  O  O23  1  0.84921413  0.92702629  0.84807025  1
  O  O24  1  0.45802075  0.30975104  0.39716304  1
  O  O25  1  0.89220250  0.23738177  0.14803575  1
  O  O26  1  0.76921875  0.24799492  0.00328837  1
  O  O27  1  0.23334738  0.98965282  0.76909275  1
  O  O28  1  0.39310985  0.61198481  0.87096760  1
  O  O29  1  0.60622659  0.79323862  0.90490719  1
  O  O30  1  0.39372244  0.41900268  0.84564644  1
  O  O31  1  0.54118980  0.24522196  0.86568137  1
  O  O32  1  0.07407634  0.88169439  0.12925573  1
  O  O33  1  0.89377341  0.79323862  0.40490719  1
  O  O34  1  0.45881020  0.75477804  0.13431863  1
  O  O35  1  0.42592366  0.88169439  0.62925573  1
  O  O36  1  0.34921413  0.07297371  0.65192975  1
  O  O37  1  0.60779750  0.23738177  0.64803575  1
  O  O38  1  0.92592366  0.11830561  0.87074427  1
  O  O39  1  0.10627756  0.41900268  0.34564644  1
  O  O40  1  0.10622659  0.20676138  0.59509281  1
  O  O41  1  0.70907181  0.75090331  0.75112228  1
  O  O42  1  0.23078125  0.75200508  0.99671163  1
  O  O43  1  0.39377341  0.20676138  0.09509281  1
  O  O44  1  0.60689015  0.38801519  0.12903240  1
  O  O45  1  0.29092819  0.24909669  0.24887772  1
  O  O46  1  0.26665262  0.98965282  0.26909275  1
  O  O47  1  0.76665262  0.01034718  0.23090725  1
loop_
_geom_bond_atom_site_label_1
_geom_bond_atom_site_label_2
_geom_bond_distance
_geom_bond_site_symmetry_2
O0 Si7 1.603358 1_555
O0 Si9 1.607175 1_555
O1 Si12 1.608829 1_455
O1 Si13 1.609791 1_555
O2 Si4 1.618861 1_555
O2 Si6 1.618990 1_555
O3 Si1 1.609040 1_455
O3 Si14 1.611540 1_555
O4 Si23 1.614645 1_555
O4 Si3 1.616927 1_555
O5 Si15 1.608323 1_555
O5 Si0 1.610597 1_565
O6 Si3 1.614645 1_455
O6 Si23 1.616927 1_555
O7 Si0 1.605200 1_555
O7 Si16 1.608840 1_555
O8 Si11 1.597376 1_555
O8 Si16 1.598682 1_555
O9 Si2 1.613065 1_555
O9 Si17 1.617737 1_655
O10 Si3 1.603358 1_555
O10 Si11 1.607175 1_555
O11 Si12 1.606173 1_555
O11 Si3 1.608326 1_555
O12 Si6 1.613065 1_555
O12 Si18 1.617737 1_455
O13 Si10 1.614645 1_555
O13 Si7 1.616927 1_555
O14 Si2 1.606173 1_555
O14 Si10 1.608326 1_555
O15 Si9 1.597376 1_555
O15 Si13 1.598682 1_555
O16 Si20 1.608829 1_655
O16 Si16 1.609791 1_555
O17 Si21 1.612825 1_545
O17 Si19 1.615431 1_555
O18 Si7 1.614645 1_655
O18 Si10 1.616927 1_555
O19 Si15 1.609040 1_555
O19 Si9 1.611540 1_555
O20 Si22 1.608323 1_555
O20 Si5 1.610597 1_545
O21 Si15 1.618859 1_555
O21 Si2 1.618990 1_555
O22 Si12 1.613065 1_555
O22 Si13 1.617737 1_555
O23 Si1 1.608323 1_555
O23 Si19 1.610597 1_565
O24 Si20 1.613065 1_555
O24 Si16 1.617737 1_555
O25 Si22 1.609040 1_655
O25 Si8 1.611540 1_555
O26 Si8 1.597376 1_555
O26 Si18 1.598682 1_554
O27 Si19 1.612825 1_465
O27 Si21 1.615431 1_555
O28 Si23 1.603358 1_555
O28 Si14 1.607175 1_555
O29 Si1 1.612260 1_555
O29 Si14 1.616563 1_555
O30 Si6 1.606173 1_555
O30 Si23 1.608326 1_555
O31 Si6 1.608829 1_555
O31 Si18 1.609791 1_555
O32 Si5 1.605200 1_555
O32 Si17 1.608840 1_555
O33 Si15 1.612260 1_555
O33 Si9 1.616563 1_655
O34 Si2 1.608829 1_555
O34 Si17 1.609791 1_555
O35 Si21 1.605200 1_555
O35 Si13 1.608840 1_555
O36 Si4 1.608322 1_555
O36 Si21 1.610597 1_545
O37 Si4 1.609036 1_555
O37 Si11 1.611540 1_555
O38 Si19 1.605200 1_555
O38 Si18 1.608840 1_555
O39 Si20 1.606173 1_555
O39 Si7 1.608326 1_555
O40 Si4 1.612263 1_555
O40 Si11 1.616563 1_455
O41 Si1 1.618859 1_555
O41 Si12 1.618990 1_555
O42 Si14 1.597376 1_555
O42 Si17 1.598682 1_556
O43 Si22 1.612260 1_555
O43 Si8 1.616563 1_555
O44 Si10 1.603358 1_555
O44 Si8 1.607175 1_555
O45 Si22 1.618859 1_555
O45 Si20 1.618990 1_555
O46 Si0 1.612825 1_565
O46 Si5 1.615431 1_555
O47 Si5 1.612825 1_645
O47 Si0 1.615431 1_555
