# generated using pymatgen
data_Ba17Er16Zn8Pt4O57
_symmetry_space_group_name_H-M   'P 1'
_cell_length_a   16.53423761
_cell_length_b   16.53423761
_cell_length_c   16.53423761
_cell_angle_alpha   91.72715706
_cell_angle_beta   91.72715706
_cell_angle_gamma   160.00458300
_symmetry_Int_Tables_number   1
_chemical_formula_structural   Ba17Er16Zn8Pt4O57
_chemical_formula_sum   'Ba17 Er16 Zn8 Pt4 O57'
_cell_volume   1522.17040611
_cell_formula_units_Z   1
loop_
 _symmetry_equiv_pos_site_id
 _symmetry_equiv_pos_as_xyz
  1  'x, y, z'
loop_
 _atom_site_type_symbol
 _atom_site_label
 _atom_site_symmetry_multiplicity
 _atom_site_fract_x
 _atom_site_fract_y
 _atom_site_fract_z
 _atom_site_occupancy
  Ba  Ba0  1  0.73210400  0.81092000  0.54302400  1
  Ba  Ba1  1  0.26789600  0.18908000  0.45697600  1
  Ba  Ba2  1  0.81092000  0.26789600  0.07881500  1
  Ba  Ba3  1  0.93239500  0.55816800  0.49056300  1
  Ba  Ba4  1  0.06760500  0.44183200  0.50943700  1
  Ba  Ba5  1  0.11166900  0.27589300  0.38756200  1
  Ba  Ba6  1  0.65722900  0.35035100  0.00758100  1
  Ba  Ba7  1  0.35035100  0.34277100  0.69312200  1
  Ba  Ba8  1  0.72410700  0.11166900  0.83577600  1
  Ba  Ba9  1  0.44183200  0.93239500  0.37422700  1
  Ba  Ba10  1  0.27589300  0.88833100  0.16422400  1
  Ba  Ba11  1  0.64964900  0.65722900  0.30687800  1
  Ba  Ba12  1  0.55816800  0.06760500  0.62577300  1
  Ba  Ba13  1  0.34277100  0.64964900  0.99241900  1
  Ba  Ba14  1  0.00000000  0.00000000  0.00000000  1
  Ba  Ba15  1  0.18908000  0.73210400  0.92118500  1
  Ba  Ba16  1  0.88833100  0.72410700  0.61243800  1
  Er  Er0  1  0.74897300  0.49368900  0.24266200  1
  Er  Er1  1  0.40063100  0.51163400  0.91226500  1
  Er  Er2  1  0.50631100  0.74897300  0.25528300  1
  Er  Er3  1  0.67439200  0.95035600  0.62474800  1
  Er  Er4  1  0.04964400  0.67439200  0.72403600  1
  Er  Er5  1  0.48836600  0.40063100  0.88899700  1
  Er  Er6  1  0.49368900  0.25102700  0.74471700  1
  Er  Er7  1  0.94801700  0.17187200  0.11988900  1
  Er  Er8  1  0.95035600  0.32560800  0.27596400  1
  Er  Er9  1  0.25102700  0.50631100  0.75733800  1
  Er  Er10  1  0.05198300  0.82812800  0.88011100  1
  Er  Er11  1  0.32560800  0.04964400  0.37525200  1
  Er  Er12  1  0.17187200  0.05198300  0.22385500  1
  Er  Er13  1  0.59936900  0.48836600  0.08773500  1
  Er  Er14  1  0.51163400  0.59936900  0.11100300  1
  Er  Er15  1  0.82812800  0.94801700  0.77614500  1
  Zn  Zn0  1  0.21206600  0.37965000  0.59171600  1
  Zn  Zn1  1  0.92448500  0.86713800  0.79162300  1
  Zn  Zn2  1  0.13286200  0.92448500  0.05734700  1
  Zn  Zn3  1  0.07551500  0.13286200  0.20837700  1
  Zn  Zn4  1  0.78793400  0.62035000  0.40828400  1
  Zn  Zn5  1  0.86713800  0.07551500  0.94265300  1
  Zn  Zn6  1  0.37965000  0.78793400  0.16758400  1
  Zn  Zn7  1  0.62035000  0.21206600  0.83241600  1
  Pt  Pt0  1  0.14438200  0.58259000  0.72697200  1
  Pt  Pt1  1  0.41741000  0.14438200  0.56179200  1
  Pt  Pt2  1  0.58259000  0.85561800  0.43820800  1
  Pt  Pt3  1  0.85561800  0.41741000  0.27302800  1
  O  O0  1  0.16164800  0.18667300  0.84550000  1
  O  O1  1  0.40102500  0.63381900  0.52144400  1
  O  O2  1  0.17662800  0.49488400  0.17621800  1
  O  O3  1  0.76834700  0.39259000  0.16093700  1
  O  O4  1  0.50511600  0.68133400  0.68174400  1
  O  O5  1  0.59019900  0.23667600  0.31040500  1
  O  O6  1  0.81332700  0.65882800  0.97497600  1
  O  O7  1  0.82337200  0.50511600  0.82378200  1
  O  O8  1  0.15845000  0.84226200  0.00071300  1
  O  O9  1  0.11237500  0.87958000  0.47855600  1
  O  O10  1  0.92547600  0.72264200  0.14801400  1
  O  O11  1  0.18667300  0.34117200  0.02502400  1
  O  O12  1  0.60741000  0.76834700  0.37575700  1
  O  O13  1  0.68133400  0.99959000  0.17621800  1
  O  O14  1  0.31866600  0.00041000  0.82378200  1
  O  O15  1  0.00041000  0.17662800  0.68174400  1
  O  O16  1  0.92627100  0.27979400  0.68959500  1
  O  O17  1  0.34117200  0.31614800  0.15450000  1
  O  O18  1  0.07452400  0.27735800  0.85198600  1
  O  O19  1  0.49488400  0.31866600  0.31825600  1
  O  O20  1  0.27979400  0.59019900  0.35352300  1
  O  O21  1  0.88762500  0.12042000  0.52144400  1
  O  O22  1  0.65882800  0.68385200  0.84550000  1
  O  O23  1  0.31614800  0.16164800  0.97497600  1
  O  O24  1  0.87958000  0.40102500  0.76720600  1
  O  O25  1  0.23941500  0.29907900  0.53849400  1
  O  O26  1  0.36618100  0.88762500  0.76720600  1
  O  O27  1  0.05467000  0.56476800  0.61943800  1
  O  O28  1  0.84226200  0.84155000  0.68381200  1
  O  O29  1  0.43523200  0.05467000  0.48990200  1
  O  O30  1  0.27735800  0.42537200  0.20283400  1
  O  O31  1  0.50000000  0.50000000  0.00000000  1
  O  O32  1  0.83835200  0.81332700  0.15450000  1
  O  O33  1  0.12042000  0.59897500  0.23279400  1
  O  O34  1  0.15773800  0.15845000  0.31618800  1
  O  O35  1  0.63381900  0.11237500  0.23279400  1
  O  O36  1  0.42537200  0.22253800  0.14801400  1
  O  O37  1  0.76058500  0.70092100  0.46150600  1
  O  O38  1  0.39259000  0.23165300  0.62424300  1
  O  O39  1  0.07372900  0.72020600  0.31040500  1
  O  O40  1  0.23667600  0.92627100  0.64647700  1
  O  O41  1  0.84155000  0.15773800  0.99928700  1
  O  O42  1  0.68385200  0.83835200  0.02502400  1
  O  O43  1  0.59897500  0.36618100  0.47855600  1
  O  O44  1  0.76332400  0.07372900  0.35352300  1
  O  O45  1  0.94533000  0.43523200  0.38056200  1
  O  O46  1  0.72020600  0.40980100  0.64647700  1
  O  O47  1  0.77746200  0.92547600  0.20283400  1
  O  O48  1  0.22253800  0.07452400  0.79716600  1
  O  O49  1  0.40980100  0.76332400  0.68959500  1
  O  O50  1  0.23165300  0.60741000  0.83906300  1
  O  O51  1  0.57462800  0.77746200  0.85198600  1
  O  O52  1  0.56476800  0.94533000  0.51009800  1
  O  O53  1  0.70092100  0.23941500  0.94033600  1
  O  O54  1  0.99959000  0.82337200  0.31825600  1
  O  O55  1  0.72264200  0.57462800  0.79716600  1
  O  O56  1  0.29907900  0.76058500  0.05966400  1
loop_
_geom_bond_atom_site_label_1
_geom_bond_atom_site_label_2
_geom_bond_distance
_geom_bond_site_symmetry_2
Ba0 O37 2.616572 1_555
Ba0 O28 2.632940 1_555
Ba0 O25 2.888322 1_665
Ba0 O25 2.888322 1_555
Ba0 O1 2.891499 1_555
Ba0 O21 2.891514 1_565
Ba0 O12 3.034183 1_555
Ba0 O15 3.104665 1_665
Ba0 O4 3.104665 1_555
Ba1 O25 2.616572 1_555
Ba1 O34 2.632940 1_555
Ba1 O37 2.888322 1_555
Ba1 O37 2.888322 1_445
Ba1 O43 2.891499 1_555
Ba1 O9 2.891514 1_545
Ba1 O38 3.034183 1_555
Ba1 O19 3.104665 1_555
Ba1 O54 3.104665 1_445
Ba2 O53 2.616558 1_554
Ba2 O41 2.632940 1_554
Ba2 O56 2.888317 1_655
Ba2 O56 2.888323 1_545
Ba2 O33 2.891511 1_655
Ba2 O35 2.891514 1_555
Ba2 O3 3.034190 1_555
Ba2 O2 3.104672 1_655
Ba2 O13 3.104675 1_545
Ba3 O9 2.741105 1_655
Ba3 O43 2.741121 1_555
Ba3 O27 2.819831 1_655
Ba3 O45 2.846581 1_555
Ba3 O29 2.872362 1_555
Ba3 O29 2.872362 1_665
Ba3 O40 3.118208 1_655
Ba3 O46 3.118208 1_555
Ba3 O5 3.262786 1_555
Ba3 O39 3.262786 1_655
Ba4 O21 2.741105 1_455
Ba4 O1 2.741121 1_555
Ba4 O45 2.819831 1_455
Ba4 O27 2.846581 1_555
Ba4 O52 2.872362 1_555
Ba4 O52 2.872362 1_445
Ba4 O44 3.118208 1_455
Ba4 O20 3.118208 1_555
Ba4 O16 3.262786 1_455
Ba4 O49 3.262786 1_555
Ba5 O44 2.858470 1_455
Ba5 O20 2.858470 1_555
Ba5 O1 2.858490 1_555
Ba5 O21 2.858495 1_455
Ba5 O12 2.877416 1_445
Ba5 O12 2.877416 1_555
Ba5 O34 2.905092 1_555
Ba5 O25 2.989779 1_555
Ba5 O30 3.343133 1_555
Ba5 O47 3.343133 1_445
Ba6 O3 2.737430 1_555
Ba6 O53 2.745618 1_554
Ba6 O8 2.876664 1_655
Ba6 O8 2.876664 1_545
Ba6 O23 2.911176 1_554
Ba6 O6 2.911191 1_554
Ba6 O36 3.187465 1_555
Ba6 O10 3.187468 1_555
Ba6 O14 3.330199 1_554
Ba6 O7 3.330201 1_554
Ba7 O38 2.737445 1_555
Ba7 O25 2.745612 1_555
Ba7 O28 2.876664 1_445
Ba7 O28 2.876664 1_555
Ba7 O22 2.911175 1_555
Ba7 O0 2.911176 1_555
Ba7 O55 3.187478 1_555
Ba7 O48 3.187478 1_555
Ba7 O15 3.330186 1_555
Ba7 O4 3.330186 1_555
Ba8 O49 2.858470 1_545
Ba8 O16 2.858470 1_555
Ba8 O26 2.858490 1_545
Ba8 O24 2.858501 1_555
Ba8 O50 2.877416 1_655
Ba8 O50 2.877416 1_545
Ba8 O41 2.905077 1_555
Ba8 O53 2.989779 1_555
Ba8 O51 3.343133 1_545
Ba8 O18 3.343133 1_655
Ba9 O33 2.741120 1_555
Ba9 O35 2.741121 1_565
Ba9 O29 2.819831 1_565
Ba9 O52 2.846581 1_555
Ba9 O45 2.872362 1_565
Ba9 O45 2.872362 1_455
Ba9 O39 3.118208 1_555
Ba9 O5 3.118208 1_565
Ba9 O20 3.262786 1_555
Ba9 O44 3.262786 1_565
Ba10 O39 2.858470 1_555
Ba10 O5 2.858470 1_565
Ba10 O35 2.858490 1_565
Ba10 O33 2.858501 1_555
Ba10 O3 2.877416 1_455
Ba10 O3 2.877416 1_565
Ba10 O8 2.905077 1_555
Ba10 O56 2.989779 1_555
Ba10 O10 3.343133 1_455
Ba10 O36 3.343133 1_565
Ba11 O12 2.737445 1_555
Ba11 O37 2.745612 1_555
Ba11 O34 2.876664 1_665
Ba11 O34 2.876664 1_555
Ba11 O17 2.911175 1_555
Ba11 O32 2.911176 1_555
Ba11 O30 3.187478 1_555
Ba11 O47 3.187478 1_555
Ba11 O19 3.330186 1_555
Ba11 O54 3.330186 1_555
Ba12 O24 2.741120 1_555
Ba12 O26 2.741121 1_545
Ba12 O52 2.819831 1_545
Ba12 O29 2.846581 1_555
Ba12 O27 2.872362 1_545
Ba12 O27 2.872362 1_655
Ba12 O16 3.118208 1_555
Ba12 O49 3.118208 1_545
Ba12 O40 3.262786 1_545
Ba12 O46 3.262786 1_555
Ba13 O50 2.737430 1_555
Ba13 O56 2.745618 1_556
Ba13 O41 2.876664 1_565
Ba13 O41 2.876664 1_455
Ba13 O42 2.911176 1_556
Ba13 O11 2.911191 1_556
Ba13 O51 3.187465 1_555
Ba13 O18 3.187468 1_555
Ba13 O13 3.330199 1_556
Ba13 O2 3.330201 1_556
Ba14 O31 2.870489 1_555
Ba14 O31 2.870489 1_445
Ba14 O11 2.928852 1_555
Ba14 O6 2.928852 1_444
Ba14 O42 2.928865 1_445
Ba14 O17 2.928865 1_555
Ba14 O22 2.928865 1_444
Ba14 O23 2.928865 1_554
Ba14 O0 2.928869 1_554
Ba14 O32 2.928869 1_445
Ba15 O56 2.616558 1_556
Ba15 O8 2.632940 1_556
Ba15 O53 2.888317 1_455
Ba15 O53 2.888323 1_565
Ba15 O24 2.891511 1_455
Ba15 O26 2.891514 1_555
Ba15 O50 3.034190 1_555
Ba15 O7 3.104672 1_455
Ba15 O14 3.104675 1_565
Ba16 O46 2.858470 1_555
Ba16 O40 2.858470 1_655
Ba16 O43 2.858490 1_555
Ba16 O9 2.858495 1_655
Ba16 O38 2.877416 1_555
Ba16 O38 2.877416 1_665
Ba16 O28 2.905092 1_555
Ba16 O37 2.989779 1_555
Ba16 O55 3.343133 1_555
Ba16 O48 3.343133 1_665
Er0 O10 2.272749 1_555
Er0 O36 2.272749 1_555
Er0 O19 2.295983 1_555
Er0 O54 2.295983 1_555
Er0 O3 2.370457 1_555
Er0 O39 2.387901 1_655
Er0 O5 2.387901 1_555
Er1 O0 2.275657 1_555
Er1 O22 2.275669 1_555
Er1 O51 2.293493 1_555
Er1 O18 2.293493 1_555
Er1 O31 2.303886 1_556
Er1 O11 2.430953 1_556
Er1 O42 2.430960 1_556
Er2 O47 2.272741 1_555
Er2 O30 2.272745 1_555
Er2 O13 2.295972 1_555
Er2 O2 2.295975 1_555
Er2 O12 2.370470 1_555
Er2 O44 2.387910 1_565
Er2 O20 2.387913 1_555
Er3 O16 2.215345 1_565
Er3 O49 2.215345 1_555
Er3 O21 2.296655 1_565
Er3 O1 2.296658 1_555
Er3 O4 2.349599 1_555
Er3 O15 2.349599 1_665
Er3 O52 2.527059 1_555
Er4 O40 2.215345 1_555
Er4 O46 2.215345 1_455
Er4 O24 2.296648 1_455
Er4 O26 2.296658 1_555
Er4 O7 2.349599 1_455
Er4 O14 2.349599 1_565
Er4 O27 2.527059 1_555
Er5 O6 2.275659 1_555
Er5 O23 2.275669 1_555
Er5 O55 2.293493 1_555
Er5 O48 2.293493 1_555
Er5 O31 2.303886 1_556
Er5 O22 2.430960 1_555
Er5 O0 2.430970 1_555
Er6 O48 2.272741 1_555
Er6 O55 2.272745 1_555
Er6 O14 2.295972 1_555
Er6 O7 2.295975 1_555
Er6 O38 2.370470 1_555
Er6 O40 2.387910 1_545
Er6 O46 2.387913 1_555
Er7 O2 2.285921 1_655
Er7 O13 2.285921 1_545
Er7 O47 2.325567 1_545
Er7 O30 2.325567 1_655
Er7 O42 2.396809 1_545
Er7 O11 2.396818 1_655
Er7 O41 2.473231 1_554
Er8 O20 2.215345 1_655
Er8 O44 2.215345 1_555
Er8 O33 2.296648 1_655
Er8 O35 2.296658 1_555
Er8 O2 2.349599 1_655
Er8 O13 2.349599 1_545
Er8 O45 2.527059 1_555
Er9 O51 2.272749 1_555
Er9 O18 2.272749 1_555
Er9 O4 2.295983 1_555
Er9 O15 2.295983 1_555
Er9 O50 2.370457 1_555
Er9 O49 2.387901 1_555
Er9 O16 2.387901 1_455
Er10 O14 2.285921 1_565
Er10 O7 2.285921 1_455
Er10 O48 2.325567 1_565
Er10 O55 2.325567 1_455
Er10 O23 2.396809 1_565
Er10 O6 2.396818 1_455
Er10 O8 2.473231 1_556
Er11 O39 2.215345 1_545
Er11 O5 2.215345 1_555
Er11 O9 2.296655 1_545
Er11 O43 2.296658 1_555
Er11 O19 2.349599 1_555
Er11 O54 2.349599 1_445
Er11 O29 2.527059 1_555
Er12 O19 2.285921 1_555
Er12 O54 2.285921 1_445
Er12 O36 2.325567 1_555
Er12 O10 2.325567 1_445
Er12 O32 2.396800 1_445
Er12 O17 2.396809 1_555
Er12 O34 2.473218 1_555
Er13 O32 2.275657 1_555
Er13 O17 2.275669 1_555
Er13 O10 2.293493 1_555
Er13 O36 2.293493 1_555
Er13 O31 2.303886 1_555
Er13 O6 2.430953 1_554
Er13 O23 2.430960 1_554
Er14 O11 2.275659 1_555
Er14 O42 2.275669 1_555
Er14 O30 2.293493 1_555
Er14 O47 2.293493 1_555
Er14 O31 2.303886 1_555
Er14 O17 2.430960 1_555
Er14 O32 2.430970 1_555
Er15 O15 2.285921 1_665
Er15 O4 2.285921 1_555
Er15 O51 2.325567 1_555
Er15 O18 2.325567 1_665
Er15 O0 2.396800 1_665
Er15 O22 2.396809 1_555
Er15 O28 2.473218 1_555
O0 Zn1 2.156825 1_445
O1 Pt2 2.053572 1_555
O1 Zn0 2.146765 1_555
O2 Zn6 2.065825 1_555
O3 Pt3 2.089360 1_555
O4 Zn0 2.065825 1_555
O5 Pt3 2.048985 1_555
O6 Zn2 2.156821 1_656
O7 Zn7 2.065825 1_555
O8 Zn2 1.982980 1_555
O9 Pt1 2.053569 1_565
O9 Zn4 2.146771 1_455
O10 Zn2 2.060779 1_655
O11 Zn5 2.156821 1_454
O12 Pt2 2.089360 1_555
O13 Zn6 2.065825 1_555
O14 Zn7 2.065825 1_555
O15 Zn0 2.065825 1_555
O16 Pt0 2.048985 1_655
O17 Zn3 2.156813 1_555
O18 Zn5 2.060779 1_455
O19 Zn4 2.065825 1_555
O20 Pt2 2.048985 1_555
O21 Pt2 2.053569 1_545
O21 Zn0 2.146771 1_655
O22 Zn1 2.156813 1_555
O23 Zn2 2.156813 1_546
O24 Pt0 2.053585 1_655
O24 Zn7 2.146754 1_555
O25 Zn0 1.959353 1_555
O26 Pt0 2.053572 1_555
O26 Zn7 2.146765 1_565
O27 Pt0 2.106246 1_555
O28 Zn1 1.982988 1_555
O29 Pt1 2.106246 1_555
O30 Zn3 2.060779 1_555
O32 Zn3 2.156825 1_665
O33 Pt3 2.053585 1_455
O33 Zn6 2.146754 1_555
O34 Zn3 1.982988 1_555
O35 Pt3 2.053572 1_555
O35 Zn6 2.146765 1_545
O36 Zn2 2.060779 1_545
O37 Zn4 1.959353 1_555
O38 Pt1 2.089360 1_555
O39 Pt3 2.048985 1_455
O40 Pt1 2.048985 1_565
O41 Zn5 1.982980 1_555
O42 Zn5 2.156813 1_564
O43 Pt1 2.053572 1_555
O43 Zn4 2.146765 1_555
O44 Pt2 2.048985 1_545
O45 Pt3 2.106246 1_555
O46 Pt1 2.048985 1_555
O47 Zn3 2.060779 1_665
O48 Zn1 2.060779 1_445
O49 Pt0 2.048985 1_555
O50 Pt0 2.089360 1_555
O51 Zn5 2.060779 1_565
O52 Pt2 2.106246 1_555
O53 Zn7 1.959353 1_555
O54 Zn4 2.065825 1_555
O55 Zn1 2.060779 1_555
O56 Zn6 1.959353 1_555
