# generated using pymatgen
data_CsTi2Cl7
_symmetry_space_group_name_H-M   'P 1'
_cell_length_a   11.37020296
_cell_length_b   6.49132674
_cell_length_c   7.37823144
_cell_angle_alpha   87.11342093
_cell_angle_beta   90.00000000
_cell_angle_gamma   90.00000000
_symmetry_Int_Tables_number   1
_chemical_formula_structural   CsTi2Cl7
_chemical_formula_sum   'Cs2 Ti4 Cl14'
_cell_volume   543.87934996
_cell_formula_units_Z   2
loop_
 _symmetry_equiv_pos_site_id
 _symmetry_equiv_pos_as_xyz
  1  'x, y, z'
loop_
 _atom_site_type_symbol
 _atom_site_label
 _atom_site_symmetry_multiplicity
 _atom_site_fract_x
 _atom_site_fract_y
 _atom_site_fract_z
 _atom_site_occupancy
  Cs  Cs0  1  0.75000000  0.06516419  0.62859923  1
  Cs  Cs1  1  0.25000000  0.93483581  0.37140077  1
  Ti  Ti0  1  0.88541584  0.41509441  0.12820550  1
  Ti  Ti1  1  0.38541584  0.58490559  0.87179450  1
  Ti  Ti2  1  0.11458416  0.58490559  0.87179450  1
  Ti  Ti3  1  0.61458416  0.41509441  0.12820550  1
  Cl  Cl0  1  0.75000000  0.55909498  0.89252512  1
  Cl  Cl1  1  0.25000000  0.44090502  0.10747488  1
  Cl  Cl2  1  0.75000000  0.55570098  0.34992012  1
  Cl  Cl3  1  0.25000000  0.44429902  0.65007988  1
  Cl  Cl4  1  0.75000000  0.11744389  0.13045896  1
  Cl  Cl5  1  0.25000000  0.88255611  0.86954104  1
  Cl  Cl6  1  0.00262132  0.26763694  0.89002434  1
  Cl  Cl7  1  0.50262132  0.73236306  0.10997566  1
  Cl  Cl8  1  0.99737868  0.73236306  0.10997566  1
  Cl  Cl9  1  0.49737868  0.26763694  0.89002434  1
  Cl  Cl10  1  -0.00289050  0.25925965  0.35551961  1
  Cl  Cl11  1  0.49710950  0.74074035  0.64448039  1
  Cl  Cl12  1  0.00289050  0.74074035  0.64448039  1
  Cl  Cl13  1  0.50289050  0.25925965  0.35551961  1
loop_
_geom_bond_atom_site_label_1
_geom_bond_atom_site_label_2
_geom_bond_distance
_geom_bond_site_symmetry_2
Cl0 Ti3 2.470736 1_556
Cl0 Ti0 2.470736 1_556
Cl0 Cs0 3.733541 1_565
Cl0 Cs0 3.834186 1_555
Cl1 Ti1 2.470736 1_554
Cl1 Ti2 2.470736 1_554
Cl1 Cs1 3.733541 1_545
Cl1 Cs1 3.834186 1_555
Cl2 Ti3 2.455643 1_555
Cl2 Ti0 2.455643 1_555
Cl2 Cs0 3.702392 1_555
Cl2 Cs0 3.981146 1_565
Cl3 Ti2 2.455643 1_555
Cl3 Ti1 2.455643 1_555
Cl3 Cs1 3.702392 1_555
Cl3 Cs1 3.981146 1_545
Cl4 Ti3 2.470005 1_555
Cl4 Ti0 2.470005 1_555
Cl4 Cs0 3.673971 1_555
Cl4 Cs0 3.735336 1_554
Cl5 Ti2 2.470005 1_555
Cl5 Ti1 2.470005 1_555
Cl5 Cs1 3.673971 1_555
Cl5 Cs1 3.735336 1_556
Cl6 Ti2 2.419161 1_555
Cl6 Ti0 2.439241 1_456
Cl6 Cs0 3.735461 1_455
Cl7 Ti3 2.419161 1_555
Cl7 Ti1 2.439241 1_554
Cl7 Cs1 3.735461 1_555
Cl8 Ti0 2.419161 1_555
Cl8 Ti2 2.439241 1_654
Cl8 Cs1 3.735461 1_655
Cl9 Ti1 2.419161 1_555
Cl9 Ti3 2.439241 1_556
Cl9 Cs0 3.735461 1_555
Cl10 Ti0 2.297428 1_455
Cl10 Cs1 3.562567 1_545
Cl10 Cs0 3.644954 1_455
Cl11 Ti1 2.297428 1_555
Cl11 Cs0 3.562567 1_565
Cl11 Cs1 3.644954 1_555
Cl12 Ti2 2.297428 1_555
Cl12 Cs0 3.562567 1_465
Cl12 Cs1 3.644954 1_555
Cl13 Ti3 2.297428 1_555
Cl13 Cs1 3.562567 1_545
Cl13 Cs0 3.644954 1_555
