# generated using pymatgen
data_SrTi2O5
_symmetry_space_group_name_H-M   'P 1'
_cell_length_a   8.92282611
_cell_length_b   8.92282611
_cell_length_c   12.22987100
_cell_angle_alpha   90.00000000
_cell_angle_beta   90.00000000
_cell_angle_gamma   128.00609425
_symmetry_Int_Tables_number   1
_chemical_formula_structural   SrTi2O5
_chemical_formula_sum   'Sr4 Ti8 O20'
_cell_volume   767.22506961
_cell_formula_units_Z   4
loop_
 _symmetry_equiv_pos_site_id
 _symmetry_equiv_pos_as_xyz
  1  'x, y, z'
loop_
 _atom_site_type_symbol
 _atom_site_label
 _atom_site_symmetry_multiplicity
 _atom_site_fract_x
 _atom_site_fract_y
 _atom_site_fract_z
 _atom_site_occupancy
  Sr  Sr0  1  0.39468200  0.12087100  0.38109600  1
  Sr  Sr1  1  0.87912900  0.60531800  0.38109600  1
  Sr  Sr2  1  0.12087100  0.39468200  0.38109600  1
  Sr  Sr3  1  0.60531800  0.87912900  0.38109600  1
  Ti  Ti0  1  0.23703700  0.23703700  0.05504000  1
  Ti  Ti1  1  0.23868300  0.76131700  0.23154200  1
  Ti  Ti2  1  0.00000000  0.00000000  0.25633200  1
  Ti  Ti3  1  0.76131700  0.23868300  0.23154200  1
  Ti  Ti4  1  0.50000000  0.50000000  0.24724000  1
  Ti  Ti5  1  0.63367000  0.36633000  0.05807900  1
  Ti  Ti6  1  0.76296300  0.76296300  0.05504000  1
  Ti  Ti7  1  0.36633000  0.63367000  0.05807900  1
  O  O0  1  0.74056700  0.25943300  0.39784700  1
  O  O1  1  0.12338200  0.87661800  0.25311900  1
  O  O2  1  0.50000000  0.00000000  0.24604000  1
  O  O3  1  0.24618400  0.24618400  0.22115700  1
  O  O4  1  0.00000000  0.00000000  0.07072400  1
  O  O5  1  0.00000000  0.50000000  0.24604000  1
  O  O6  1  0.75381600  0.75381600  0.22115700  1
  O  O7  1  0.25651600  0.74348400  0.07735400  1
  O  O8  1  0.19281900  0.39350200  0.99431000  1
  O  O9  1  0.37766300  0.62233700  0.22155700  1
  O  O10  1  0.62233700  0.37766300  0.22155700  1
  O  O11  1  0.60649800  0.80718100  0.99431000  1
  O  O12  1  0.80718100  0.60649800  0.99431000  1
  O  O13  1  0.39350200  0.19281900  0.99431000  1
  O  O14  1  0.87661800  0.12338200  0.25311900  1
  O  O15  1  0.74348400  0.25651600  0.07735400  1
  O  O16  1  0.50000000  0.50000000  0.39507500  1
  O  O17  1  0.25943300  0.74056700  0.39784700  1
  O  O18  1  0.50000000  0.50000000  0.08419500  1
  O  O19  1  0.00000000  0.00000000  0.40234400  1
loop_
_geom_bond_atom_site_label_1
_geom_bond_atom_site_label_2
_geom_bond_distance
_geom_bond_site_symmetry_2
O0 Ti3 2.060941 1_555
O1 Ti1 1.868157 1_555
O1 Ti2 1.979435 1_565
O1 Sr1 2.561732 1_455
O1 Sr0 2.561732 1_565
O2 Ti3 1.971936 1_555
O2 Ti1 1.971936 1_545
O2 Sr0 2.454096 1_555
O2 Sr3 2.454096 1_545
O3 Ti2 1.973157 1_555
O3 Ti4 2.010854 1_555
O3 Ti0 2.032849 1_555
O3 Sr2 2.942199 1_555
O3 Sr0 2.942199 1_555
O4 Ti0 1.864038 1_555
O4 Ti6 1.864038 1_445
O4 Ti2 2.269962 1_555
O5 Ti1 1.971936 1_555
O5 Ti3 1.971936 1_455
O5 Sr2 2.454096 1_555
O5 Sr1 2.454096 1_455
O6 Ti2 1.973157 1_665
O6 Ti4 2.010854 1_555
O6 Ti6 2.032849 1_555
O6 Sr1 2.942199 1_555
O6 Sr3 2.942199 1_555
O7 Ti7 1.777119 1_555
O7 Ti1 1.907271 1_555
O8 Ti0 1.826136 1_556
O8 Ti7 1.873957 1_556
O9 Ti4 1.987263 1_555
O9 Ti7 2.007562 1_555
O9 Ti1 2.232579 1_555
O9 Sr2 2.729742 1_555
O9 Sr3 2.729742 1_555
O10 Ti4 1.987263 1_555
O10 Ti5 2.007562 1_555
O10 Ti3 2.232579 1_555
O10 Sr0 2.729742 1_555
O10 Sr1 2.729742 1_555
O11 Ti6 1.826136 1_556
O11 Ti7 1.873957 1_556
O12 Ti6 1.826136 1_556
O12 Ti5 1.873957 1_556
O13 Ti0 1.826136 1_556
O13 Ti5 1.873957 1_556
O14 Ti3 1.868157 1_555
O14 Ti2 1.979435 1_655
O14 Sr3 2.561732 1_545
O14 Sr2 2.561732 1_655
O15 Ti5 1.777119 1_555
O15 Ti3 1.907271 1_555
O16 Ti4 1.808003 1_555
O17 Ti1 2.060941 1_555
O18 Ti4 1.994019 1_555
O18 Ti0 2.087616 1_555
O18 Ti6 2.087616 1_555
O18 Ti7 2.167724 1_555
O18 Ti5 2.167724 1_555
O19 Ti2 1.785708 1_555
