# generated using pymatgen
data_Hg2TeO5
_symmetry_space_group_name_H-M   'P 1'
_cell_length_a   5.92179313
_cell_length_b   7.36529296
_cell_length_c   10.03430183
_cell_angle_alpha   90.00000000
_cell_angle_beta   90.00000000
_cell_angle_gamma   90.00000000
_symmetry_Int_Tables_number   1
_chemical_formula_structural   Hg2TeO5
_chemical_formula_sum   'Hg8 Te4 O20'
_cell_volume   437.65351225
_cell_formula_units_Z   4
loop_
 _symmetry_equiv_pos_site_id
 _symmetry_equiv_pos_as_xyz
  1  'x, y, z'
loop_
 _atom_site_type_symbol
 _atom_site_label
 _atom_site_symmetry_multiplicity
 _atom_site_fract_x
 _atom_site_fract_y
 _atom_site_fract_z
 _atom_site_occupancy
  Hg  Hg0  1  0.22299334  0.73399518  0.17424359  1
  Hg  Hg1  1  0.77700666  0.26600482  0.67424359  1
  Hg  Hg2  1  0.27700666  0.23399518  0.17424359  1
  Hg  Hg3  1  0.72299334  0.76600482  0.67424359  1
  Hg  Hg4  1  0.23029453  0.52001874  0.83549722  1
  Hg  Hg5  1  0.76970547  0.47998126  0.33549722  1
  Hg  Hg6  1  0.26970547  0.02001874  0.83549722  1
  Hg  Hg7  1  0.73029453  0.97998126  0.33549722  1
  Te  Te0  1  0.24092448  0.86511078  0.50219455  1
  Te  Te1  1  0.75907552  0.13488922  0.00219455  1
  Te  Te2  1  0.25907552  0.36511078  0.50219455  1
  Te  Te3  1  0.74092448  0.63488922  0.00219455  1
  O  O0  1  0.15016754  0.83428291  0.68351024  1
  O  O1  1  0.84983246  0.16571709  0.18351024  1
  O  O2  1  0.34983246  0.33428291  0.68351024  1
  O  O3  1  0.65016754  0.66571709  0.18351024  1
  O  O4  1  0.45588504  0.71487560  0.94027763  1
  O  O5  1  0.54411496  0.28512440  0.44027763  1
  O  O6  1  0.04411496  0.21487560  0.94027763  1
  O  O7  1  0.95588504  0.78512440  0.44027763  1
  O  O8  1  0.37066701  0.61733430  0.50154126  1
  O  O9  1  0.62933299  0.38266570  0.00154126  1
  O  O10  1  0.12933299  0.11733430  0.50154126  1
  O  O11  1  0.87066701  0.88266570  0.00154126  1
  O  O12  1  0.54083132  0.94262410  0.55368759  1
  O  O13  1  0.45916868  0.05737590  0.05368759  1
  O  O14  1  0.95916868  0.44262410  0.55368759  1
  O  O15  1  0.04083132  0.55737590  0.05368759  1
  O  O16  1  0.34175470  0.90924551  0.32019791  1
  O  O17  1  0.65824530  0.09075449  0.82019791  1
  O  O18  1  0.15824530  0.40924551  0.32019791  1
  O  O19  1  0.84175470  0.59075449  0.82019791  1
loop_
_geom_bond_atom_site_label_1
_geom_bond_atom_site_label_2
_geom_bond_distance
_geom_bond_site_symmetry_2
Hg0 O16 2.074993 1_555
Hg0 O15 2.078276 1_555
Hg0 O3 2.580815 1_555
Hg1 O17 2.074993 1_555
Hg1 O14 2.078276 1_555
Hg1 O2 2.580815 1_555
Hg2 O18 2.074993 1_555
Hg2 O13 2.078276 1_555
Hg2 O1 2.580815 1_455
Hg3 O19 2.074993 1_555
Hg3 O12 2.078276 1_555
Hg3 O0 2.580815 1_655
Hg4 O2 2.167577 1_555
Hg4 O4 2.224815 1_555
Hg4 O19 2.364090 1_455
Hg4 O15 2.475464 1_556
Hg5 O3 2.167577 1_555
Hg5 O5 2.224815 1_555
Hg5 O18 2.364090 1_655
Hg5 O14 2.475464 1_555
Hg6 O0 2.167577 1_545
Hg6 O6 2.224815 1_555
Hg6 O17 2.364090 1_555
Hg6 O13 2.475464 1_556
Hg7 O1 2.167577 1_565
Hg7 O7 2.224815 1_555
Hg7 O16 2.364090 1_555
Hg7 O12 2.475464 1_555
O0 Te0 1.910636 1_555
O1 Te1 1.910636 1_555
O2 Te2 1.910636 1_555
O3 Te3 1.910636 1_555
O4 Te3 1.892677 1_556
O5 Te2 1.892677 1_555
O6 Te1 1.892677 1_456
O7 Te0 1.892677 1_655
O8 Te2 1.971745 1_555
O8 Te0 1.980093 1_555
O9 Te3 1.971745 1_555
O9 Te1 1.980093 1_555
O10 Te0 1.971745 1_545
O10 Te2 1.980093 1_555
O11 Te1 1.971745 1_565
O11 Te3 1.980093 1_555
O12 Te0 1.935727 1_555
O13 Te1 1.935727 1_555
O14 Te2 1.935727 1_655
O15 Te3 1.935727 1_455
O16 Te0 1.948648 1_555
O17 Te1 1.948648 1_556
O18 Te2 1.948648 1_555
O19 Te3 1.948648 1_556
