# generated using pymatgen
data_Pr4S3N2
_symmetry_space_group_name_H-M   'P 1'
_cell_length_a   10.31812944
_cell_length_b   10.31812342
_cell_length_c   12.81366105
_cell_angle_alpha   52.16617963
_cell_angle_beta   52.16614360
_cell_angle_gamma   57.88738448
_symmetry_Int_Tables_number   1
_chemical_formula_structural   Pr4S3N2
_chemical_formula_sum   'Pr16 S12 N8'
_cell_volume   824.12947068
_cell_formula_units_Z   4
loop_
 _symmetry_equiv_pos_site_id
 _symmetry_equiv_pos_as_xyz
  1  'x, y, z'
loop_
 _atom_site_type_symbol
 _atom_site_label
 _atom_site_symmetry_multiplicity
 _atom_site_fract_x
 _atom_site_fract_y
 _atom_site_fract_z
 _atom_site_occupancy
  Pr  Pr0  1  0.71749247  0.63617702  0.43683067  1
  Pr  Pr1  1  0.18833282  0.08240203  0.97591555  1
  Pr  Pr2  1  0.08240135  0.18833228  0.47591717  1
  Pr  Pr3  1  0.28250706  0.36382371  0.56316930  1
  Pr  Pr4  1  0.63617734  0.71749258  0.93683000  1
  Pr  Pr5  1  0.61318782  0.20280502  0.68467054  1
  Pr  Pr6  1  0.81225939  0.42180238  0.25451735  1
  Pr  Pr7  1  0.38681209  0.79719514  0.31532956  1
  Pr  Pr8  1  0.20280541  0.61318772  0.18467049  1
  Pr  Pr9  1  0.36382276  0.28250740  0.06317003  1
  Pr  Pr10  1  0.91759886  0.81166760  0.52408289  1
  Pr  Pr11  1  0.42180306  0.81225985  0.75451656  1
  Pr  Pr12  1  0.81166754  0.91759827  0.02408405  1
  Pr  Pr13  1  0.18774031  0.57819820  0.74548275  1
  Pr  Pr14  1  0.57819694  0.18773989  0.24548383  1
  Pr  Pr15  1  0.79719477  0.38681212  0.81532929  1
  S  S0  1  0.09728334  0.10268452  0.77529037  1
  S  S1  1  0.52102381  0.47897620  0.75000012  1
  S  S2  1  0.38974800  0.88790163  0.49187319  1
  S  S3  1  0.11209785  0.61025157  0.00812720  1
  S  S4  1  0.47897629  0.52102374  0.24999991  1
  S  S5  1  0.10268557  0.09728264  0.27529241  1
  S  S6  1  0.90271665  0.89731566  0.22470947  1
  S  S7  1  0.61025151  0.11209768  0.50812731  1
  S  S8  1  0.00000002  0.49999993  0.49999992  1
  S  S9  1  0.89731550  0.90271810  0.72470768  1
  S  S10  1  0.88790234  0.38974866  0.99187230  1
  S  S11  1  0.50000025  -0.00000001  0.00000002  1
  N  N0  1  0.30203504  0.31533422  0.25584283  1
  N  N1  1  0.31533458  0.30203576  0.75584183  1
  N  N2  1  0.64539789  0.18588171  0.03696201  1
  N  N3  1  0.68466535  0.69796475  0.24415810  1
  N  N4  1  0.69796501  0.68466556  0.74415724  1
  N  N5  1  0.35460217  0.81411830  0.96303797  1
  N  N6  1  0.81411814  0.35460178  0.46303874  1
  N  N7  1  0.18588167  0.64539839  0.53696134  1
loop_
_geom_bond_atom_site_label_1
_geom_bond_atom_site_label_2
_geom_bond_distance
_geom_bond_site_symmetry_2
Pr0 S8 2.875956 1_655
Pr0 S1 2.893976 1_555
Pr0 S6 2.901468 1_555
Pr0 S2 2.943227 1_555
Pr1 S11 3.024620 1_556
Pr1 S10 3.045369 1_455
Pr1 S6 3.079740 1_446
Pr1 S0 3.103034 1_555
Pr1 S5 3.455410 1_556
Pr2 S8 3.024610 1_555
Pr2 S2 3.045369 1_545
Pr2 S9 3.079721 1_445
Pr2 S5 3.103018 1_555
Pr2 S0 3.455371 1_555
Pr3 S8 2.875954 1_555
Pr3 S4 2.893976 1_555
Pr3 S0 2.901469 1_555
Pr3 S7 2.943233 1_555
Pr4 S11 2.875959 1_566
Pr4 S4 2.893980 1_556
Pr4 S9 2.901472 1_555
Pr4 S10 2.943226 1_555
Pr5 S11 2.916471 1_556
Pr5 S9 2.947994 1_545
Pr5 S7 2.950559 1_555
Pr5 S1 2.965441 1_555
Pr6 S4 3.050522 1_555
Pr6 S5 3.078958 1_655
Pr6 S10 3.148567 1_554
Pr6 S3 3.194122 1_655
Pr6 S7 3.339078 1_555
Pr7 S11 2.916471 1_565
Pr7 S5 2.947990 1_565
Pr7 S2 2.950555 1_555
Pr7 S4 2.965443 1_555
Pr8 S8 2.916470 1_555
Pr8 S6 2.948006 1_455
Pr8 S3 2.950561 1_555
Pr8 S4 2.965439 1_555
Pr9 S11 2.875958 1_555
Pr9 S1 2.893980 1_554
Pr9 S5 2.901460 1_555
Pr9 S3 2.943228 1_555
Pr10 S8 3.024612 1_655
Pr10 S7 3.045370 1_565
Pr10 S5 3.079731 1_665
Pr10 S9 3.103031 1_555
Pr10 S6 3.455374 1_555
Pr11 S1 3.050521 1_555
Pr11 S0 3.078951 1_565
Pr11 S2 3.148561 1_555
Pr11 S7 3.194114 1_565
Pr11 S3 3.339084 1_556
Pr12 S11 3.024616 1_565
Pr12 S3 3.045368 1_655
Pr12 S0 3.079737 1_664
Pr12 S6 3.103033 1_555
Pr12 S9 3.455398 1_554
Pr13 S1 3.050524 1_555
Pr13 S9 3.078953 1_455
Pr13 S3 3.148560 1_556
Pr13 S10 3.194121 1_455
Pr13 S2 3.339068 1_555
Pr14 S4 3.050521 1_555
Pr14 S6 3.078949 1_545
Pr14 S7 3.148557 1_555
Pr14 S2 3.194119 1_545
Pr14 S10 3.339088 1_554
Pr15 S8 2.916470 1_655
Pr15 S0 2.948003 1_655
Pr15 S10 2.950561 1_555
Pr15 S1 2.965437 1_555
N0 Pr9 2.341315 1_555
N0 Pr2 2.364201 1_555
N0 Pr14 2.373259 1_555
N0 Pr8 2.384718 1_555
N1 Pr3 2.341316 1_555
N1 Pr1 2.364199 1_555
N1 Pr13 2.373263 1_555
N1 Pr5 2.384718 1_555
N2 Pr14 2.322991 1_555
N2 Pr15 2.364202 1_554
N2 Pr9 2.383686 1_555
N2 Pr12 2.407763 1_545
N3 Pr0 2.341315 1_555
N3 Pr12 2.364200 1_555
N3 Pr6 2.373261 1_555
N3 Pr7 2.384718 1_555
N4 Pr4 2.341316 1_555
N4 Pr10 2.364202 1_555
N4 Pr11 2.373259 1_555
N4 Pr15 2.384718 1_555
N5 Pr11 2.322988 1_555
N5 Pr8 2.364202 1_556
N5 Pr4 2.383687 1_555
N5 Pr1 2.407763 1_565
N6 Pr6 2.322991 1_555
N6 Pr5 2.364198 1_555
N6 Pr0 2.383686 1_555
N6 Pr2 2.407764 1_655
N7 Pr13 2.322993 1_555
N7 Pr7 2.364198 1_555
N7 Pr3 2.383681 1_555
N7 Pr10 2.407761 1_455
