# generated using pymatgen
data_Ba3Fe3Se7
_symmetry_space_group_name_H-M   'P 1'
_cell_length_a   11.02010845
_cell_length_b   11.02010845
_cell_length_c   7.35335900
_cell_angle_alpha   90.00000000
_cell_angle_beta   90.00000000
_cell_angle_gamma   120.00000270
_symmetry_Int_Tables_number   1
_chemical_formula_structural   Ba3Fe3Se7
_chemical_formula_sum   'Ba6 Fe6 Se14'
_cell_volume   773.37143326
_cell_formula_units_Z   2
loop_
 _symmetry_equiv_pos_site_id
 _symmetry_equiv_pos_as_xyz
  1  'x, y, z'
loop_
 _atom_site_type_symbol
 _atom_site_label
 _atom_site_symmetry_multiplicity
 _atom_site_fract_x
 _atom_site_fract_y
 _atom_site_fract_z
 _atom_site_occupancy
  Ba  Ba0  1  0.37185400  0.18592700  0.50402100  1
  Ba  Ba1  1  0.62814600  0.81407300  0.00402100  1
  Ba  Ba2  1  0.18592700  0.37185400  0.00402100  1
  Ba  Ba3  1  0.18592700  0.81407300  0.00402100  1
  Ba  Ba4  1  0.81407300  0.62814600  0.50402100  1
  Ba  Ba5  1  0.81407300  0.18592700  0.50402100  1
  Fe  Fe0  1  0.25486500  0.74513500  0.48859100  1
  Fe  Fe1  1  0.74513500  0.49026900  0.98859100  1
  Fe  Fe2  1  0.25486500  0.50973100  0.48859100  1
  Fe  Fe3  1  0.49026900  0.74513500  0.48859100  1
  Fe  Fe4  1  0.50973100  0.25486500  0.98859100  1
  Fe  Fe5  1  0.74513500  0.25486500  0.98859100  1
  Se  Se0  1  0.72543400  0.86271700  0.57603400  1
  Se  Se1  1  0.45484300  0.54515700  0.31467500  1
  Se  Se2  1  0.13728300  0.86271700  0.57603400  1
  Se  Se3  1  0.66666700  0.33333300  0.24753600  1
  Se  Se4  1  0.33333300  0.66666700  0.74753600  1
  Se  Se5  1  0.45484300  0.90968500  0.31467500  1
  Se  Se6  1  0.86271700  0.72543400  0.07603400  1
  Se  Se7  1  0.54515700  0.09031500  0.81467500  1
  Se  Se8  1  0.13728300  0.27456600  0.57603400  1
  Se  Se9  1  0.27456600  0.13728300  0.07603400  1
  Se  Se10  1  0.90968500  0.45484300  0.81467500  1
  Se  Se11  1  0.54515700  0.45484300  0.81467500  1
  Se  Se12  1  0.09031500  0.54515700  0.31467500  1
  Se  Se13  1  0.86271700  0.13728300  0.07603400  1
loop_
_geom_bond_atom_site_label_1
_geom_bond_atom_site_label_2
_geom_bond_distance
_geom_bond_site_symmetry_2
Ba0 Se2 3.231383 1_545
Ba0 Se8 3.231384 1_555
Ba0 Se9 3.281248 1_555
Ba0 Se3 3.387251 1_555
Ba0 Se7 3.462389 1_555
Ba0 Se11 3.462395 1_555
Ba0 Se1 3.850485 1_555
Ba0 Se5 3.850496 1_545
Ba1 Se13 3.231383 1_565
Ba1 Se6 3.231384 1_555
Ba1 Se0 3.281248 1_554
Ba1 Se4 3.387251 1_554
Ba1 Se5 3.462389 1_555
Ba1 Se1 3.462395 1_555
Ba1 Se11 3.850485 1_554
Ba1 Se7 3.850496 1_564
Ba2 Se13 3.231383 1_455
Ba2 Se9 3.231384 1_555
Ba2 Se8 3.281248 1_554
Ba2 Se4 3.387251 1_554
Ba2 Se12 3.462389 1_555
Ba2 Se1 3.462395 1_555
Ba2 Se11 3.850485 1_554
Ba2 Se10 3.850496 1_454
Ba3 Se6 3.231384 1_455
Ba3 Se9 3.231384 1_565
Ba3 Se2 3.281248 1_554
Ba3 Se4 3.387243 1_554
Ba3 Se12 3.462397 1_555
Ba3 Se5 3.462397 1_555
Ba3 Se10 3.850488 1_454
Ba3 Se7 3.850488 1_564
Ba4 Se2 3.231383 1_655
Ba4 Se0 3.231384 1_555
Ba4 Se6 3.281248 1_555
Ba4 Se3 3.387251 1_555
Ba4 Se10 3.462389 1_555
Ba4 Se11 3.462395 1_555
Ba4 Se1 3.850485 1_555
Ba4 Se12 3.850496 1_655
Ba5 Se0 3.231384 1_545
Ba5 Se8 3.231384 1_655
Ba5 Se13 3.281248 1_555
Ba5 Se3 3.387243 1_555
Ba5 Se7 3.462397 1_555
Ba5 Se10 3.462397 1_555
Ba5 Se5 3.850488 1_545
Ba5 Se12 3.850488 1_655
Fe0 Se2 2.334626 1_555
Fe0 Se5 2.405030 1_555
Fe0 Se12 2.405030 1_555
Fe0 Se4 2.422583 1_555
Fe1 Se6 2.334635 1_556
Fe1 Se10 2.405018 1_555
Fe1 Se11 2.405037 1_555
Fe1 Se3 2.422583 1_556
Fe2 Se8 2.334635 1_555
Fe2 Se12 2.405018 1_555
Fe2 Se1 2.405037 1_555
Fe2 Se4 2.422583 1_555
Fe3 Se0 2.334635 1_555
Fe3 Se5 2.405018 1_555
Fe3 Se1 2.405037 1_555
Fe3 Se4 2.422583 1_555
Fe4 Se9 2.334635 1_556
Fe4 Se7 2.405018 1_555
Fe4 Se11 2.405037 1_555
Fe4 Se3 2.422583 1_556
Fe5 Se13 2.334626 1_556
Fe5 Se10 2.405030 1_555
Fe5 Se7 2.405030 1_555
Fe5 Se3 2.422583 1_556
