# generated using pymatgen
data_Ba11(OsO6)4
_symmetry_space_group_name_H-M   'P 1'
_cell_length_a   12.21513949
_cell_length_b   12.21513949
_cell_length_c   12.21513949
_cell_angle_alpha   118.88524198
_cell_angle_beta   118.88524198
_cell_angle_gamma   91.94191161
_symmetry_Int_Tables_number   1
_chemical_formula_structural   Ba11(OsO6)4
_chemical_formula_sum   'Ba22 Os8 O48'
_cell_volume   1309.68600961
_cell_formula_units_Z   2
loop_
 _symmetry_equiv_pos_site_id
 _symmetry_equiv_pos_as_xyz
  1  'x, y, z'
loop_
 _atom_site_type_symbol
 _atom_site_label
 _atom_site_symmetry_multiplicity
 _atom_site_fract_x
 _atom_site_fract_y
 _atom_site_fract_z
 _atom_site_occupancy
  Ba  Ba0  1  0.13051500  0.44935700  0.26578700  1
  Ba  Ba1  1  0.22573200  0.78196300  0.02811100  1
  Ba  Ba2  1  0.19935700  0.43357000  0.81884200  1
  Ba  Ba3  1  0.94762100  0.47573200  0.94376900  1
  Ba  Ba4  1  0.52426800  0.46803700  0.47188900  1
  Ba  Ba5  1  0.13527200  0.86948500  0.31884200  1
  Ba  Ba6  1  0.51401400  0.01401400  0.50000000  1
  Ba  Ba7  1  0.98598600  0.48598600  0.50000000  1
  Ba  Ba8  1  0.76401400  0.76401400  0.00000000  1
  Ba  Ba9  1  0.61472800  0.38051500  0.18115800  1
  Ba  Ba10  1  0.80237900  0.77426800  0.55623100  1
  Ba  Ba11  1  0.61948500  0.80064300  0.23421300  1
  Ba  Ba12  1  0.18357000  0.86472800  0.73421300  1
  Ba  Ba13  1  0.99614800  0.05237900  0.52811100  1
  Ba  Ba14  1  0.75000000  0.25000000  0.50000000  1
  Ba  Ba15  1  0.75385200  0.19762100  0.97188900  1
  Ba  Ba16  1  0.55064300  0.81643000  0.68115800  1
  Ba  Ba17  1  0.21803700  0.24614800  0.44376900  1
  Ba  Ba18  1  0.23598600  0.23598600  0.00000000  1
  Ba  Ba19  1  0.00000000  0.00000000  0.00000000  1
  Ba  Ba20  1  0.56643000  0.38527200  0.76578700  1
  Ba  Ba21  1  0.53196300  0.00385200  0.05623100  1
  Os  Os0  1  0.37500000  0.12500000  0.75000000  1
  Os  Os1  1  0.37500000  0.62500000  0.75000000  1
  Os  Os2  1  0.87500000  0.62500000  0.75000000  1
  Os  Os3  1  0.37500000  0.62500000  0.25000000  1
  Os  Os4  1  0.87500000  0.62500000  0.25000000  1
  Os  Os5  1  0.87500000  0.12500000  0.75000000  1
  Os  Os6  1  0.37500000  0.12500000  0.25000000  1
  Os  Os7  1  0.87500000  0.12500000  0.25000000  1
  O  O0  1  0.76150900  0.23242700  0.24556900  1
  O  O1  1  0.97498600  0.24898600  0.74699000  1
  O  O2  1  0.20249200  0.48632600  0.08924900  1
  O  O3  1  0.23632600  0.64707700  0.78383400  1
  O  O4  1  0.26593900  0.01150900  0.02908200  1
  O  O5  1  0.75146500  0.99847400  0.02373500  1
  O  O6  1  0.98849100  0.01757300  0.25443100  1
  O  O7  1  0.97399500  0.70135700  0.46382300  1
  O  O8  1  0.21885100  0.96764800  0.60169800  1
  O  O9  1  0.48406100  0.23849100  0.47091800  1
  O  O10  1  0.97799600  0.22498600  0.22599900  1
  O  O11  1  0.39707700  0.11324300  0.91075100  1
  O  O12  1  0.38405000  0.63284700  0.10169800  1
  O  O13  1  0.03235200  0.63405000  0.25120300  1
  O  O14  1  0.98685700  0.51593900  0.75443100  1
  O  O15  1  0.99853500  0.25152600  0.47626500  1
  O  O16  1  0.77200400  0.02501400  0.27400100  1
  O  O17  1  0.36715300  0.46885100  0.75120300  1
  O  O18  1  0.48982800  0.02600500  0.72736200  1
  O  O19  1  0.24800400  0.02200400  0.24699000  1
  O  O20  1  0.76757300  0.01314300  0.52908200  1
  O  O21  1  0.38284700  0.78114900  0.74879700  1
  O  O22  1  0.76314300  0.73406100  0.74556900  1
  O  O23  1  0.50199600  0.22799600  0.25301000  1
  O  O24  1  0.51367400  0.60292300  0.71616600  1
  O  O25  1  0.36595000  0.61715300  0.39830200  1
  O  O26  1  0.88675700  0.79750800  0.28383400  1
  O  O27  1  0.45135700  0.48753400  0.22736200  1
  O  O28  1  0.77526100  0.52227000  0.52373500  1
  O  O29  1  0.99898600  0.75199600  0.77400100  1
  O  O30  1  0.98242700  0.23685700  0.97091800  1
  O  O31  1  0.75101400  0.49800400  0.72599900  1
  O  O32  1  0.00152600  0.02526100  0.75299100  1
  O  O33  1  0.77501400  0.00101400  0.75301000  1
  O  O34  1  0.27227000  0.24853500  0.24700900  1
  O  O35  1  0.74847400  0.22473900  0.74700900  1
  O  O36  1  0.77600500  0.54864300  0.03617700  1
  O  O37  1  0.97473900  0.72773000  0.97626500  1
  O  O38  1  0.26017200  0.22399500  0.77263800  1
  O  O39  1  0.29864300  0.76246600  0.27263800  1
  O  O40  1  0.35292300  0.13675700  0.58924900  1
  O  O41  1  0.54750800  0.76367400  0.41075100  1
  O  O42  1  0.71764800  0.61595000  0.24879700  1
  O  O43  1  0.53114900  0.28235200  0.89830200  1
  O  O44  1  0.47773000  0.00146500  0.25299100  1
  O  O45  1  0.23753400  0.51017200  0.53617700  1
  O  O46  1  0.86324300  0.45249200  0.21616600  1
  O  O47  1  0.51246600  0.73982800  0.96382300  1
loop_
_geom_bond_atom_site_label_1
_geom_bond_atom_site_label_2
_geom_bond_distance
_geom_bond_site_symmetry_2
Ba0 O45 2.561639 1_555
Ba0 O13 2.631451 1_555
Ba0 O25 2.643796 1_555
Ba0 O30 2.708846 1_454
Ba0 O2 2.893573 1_555
Ba0 O10 2.951434 1_455
Ba0 O46 3.024341 1_455
Ba0 O34 3.032562 1_555
Ba1 O3 2.696801 1_554
Ba1 O19 2.736632 1_565
Ba1 O37 2.796592 1_454
Ba1 O39 2.811271 1_555
Ba1 O29 2.822737 1_454
Ba1 O4 2.823531 1_565
Ba1 O12 2.829617 1_555
Ba1 O44 2.892395 1_565
Ba1 O14 3.112482 1_454
Ba2 O38 2.561639 1_555
Ba2 O12 2.631451 1_556
Ba2 O17 2.643796 1_555
Ba2 O14 2.708846 1_455
Ba2 O3 2.893573 1_555
Ba2 O1 2.951441 1_455
Ba2 O2 3.024341 1_556
Ba2 O15 3.032562 1_455
Ba3 O2 2.696801 1_656
Ba3 O31 2.736640 1_555
Ba3 O35 2.796592 1_555
Ba3 O36 2.811271 1_556
Ba3 O1 2.822744 1_555
Ba3 O14 2.823518 1_555
Ba3 O13 2.829617 1_656
Ba3 O37 2.892395 1_555
Ba3 O30 3.112484 1_555
Ba4 O24 2.696801 1_555
Ba4 O23 2.736632 1_555
Ba4 O28 2.796592 1_555
Ba4 O27 2.811271 1_555
Ba4 O31 2.822737 1_555
Ba4 O9 2.823531 1_555
Ba4 O25 2.829617 1_555
Ba4 O34 2.892395 1_555
Ba4 O22 3.112482 1_555
Ba5 O39 2.561639 1_555
Ba5 O8 2.631451 1_555
Ba5 O13 2.643796 1_555
Ba5 O6 2.708842 1_465
Ba5 O26 2.893573 1_455
Ba5 O19 2.951441 1_565
Ba5 O40 3.024341 1_565
Ba5 O37 3.032562 1_454
Ba6 O35 2.753238 1_555
Ba6 O44 2.753238 1_555
Ba6 O40 2.828751 1_555
Ba6 O41 2.828751 1_545
Ba6 O18 2.867843 1_555
Ba6 O39 2.867843 1_545
Ba6 O20 2.943164 1_555
Ba6 O9 2.943164 1_555
Ba6 O33 3.275703 1_555
Ba6 O19 3.275703 1_555
Ba7 O15 2.753238 1_555
Ba7 O28 2.753238 1_555
Ba7 O3 2.828751 1_655
Ba7 O46 2.828751 1_555
Ba7 O45 2.867843 1_655
Ba7 O7 2.867843 1_555
Ba7 O0 2.943166 1_555
Ba7 O14 2.943176 1_555
Ba7 O29 3.275709 1_555
Ba7 O10 3.275709 1_555
Ba8 O37 2.753238 1_554
Ba8 O5 2.753238 1_555
Ba8 O26 2.828751 1_555
Ba8 O24 2.828751 1_554
Ba8 O47 2.867843 1_554
Ba8 O36 2.867843 1_555
Ba8 O6 2.943166 1_565
Ba8 O22 2.943176 1_554
Ba8 O31 3.275709 1_554
Ba8 O16 3.275709 1_565
Ba9 O27 2.561639 1_555
Ba9 O43 2.631451 1_554
Ba9 O42 2.643796 1_555
Ba9 O0 2.708842 1_555
Ba9 O46 2.893573 1_555
Ba9 O23 2.951441 1_555
Ba9 O11 3.024341 1_554
Ba9 O28 3.032562 1_555
Ba10 O41 2.696801 1_555
Ba10 O29 2.736640 1_555
Ba10 O32 2.796592 1_665
Ba10 O7 2.811271 1_555
Ba10 O33 2.822744 1_565
Ba10 O22 2.823518 1_555
Ba10 O42 2.829617 1_555
Ba10 O28 2.892395 1_555
Ba10 O20 3.112484 1_565
Ba11 O47 2.561639 1_554
Ba11 O42 2.631451 1_555
Ba11 O12 2.643796 1_555
Ba11 O20 2.708846 1_565
Ba11 O41 2.893573 1_555
Ba11 O16 2.951434 1_565
Ba11 O26 3.024341 1_555
Ba11 O44 3.032562 1_565
Ba12 O7 2.561639 1_455
Ba12 O21 2.631451 1_555
Ba12 O8 2.643796 1_555
Ba12 O4 2.708846 1_566
Ba12 O11 2.893573 1_565
Ba12 O29 2.951450 1_455
Ba12 O3 3.024341 1_555
Ba12 O32 3.032562 1_565
Ba13 O26 2.696801 1_545
Ba13 O1 2.736632 1_555
Ba13 O15 2.796592 1_555
Ba13 O38 2.811271 1_655
Ba13 O16 2.822737 1_555
Ba13 O20 2.823531 1_555
Ba13 O8 2.829617 1_645
Ba13 O32 2.892395 1_655
Ba13 O6 3.112472 1_555
Ba14 O16 2.946729 1_555
Ba14 O31 2.946730 1_555
Ba14 O23 2.946735 1_555
Ba14 O1 2.946735 1_555
Ba14 O9 3.082938 1_555
Ba14 O20 3.082938 1_555
Ba14 O14 3.082939 1_555
Ba14 O0 3.082950 1_555
Ba14 O15 3.186342 1_555
Ba14 O44 3.186342 1_555
Ba14 O28 3.186342 1_555
Ba14 O35 3.186342 1_555
Ba15 O46 2.696801 1_556
Ba15 O33 2.736632 1_555
Ba15 O5 2.796592 1_546
Ba15 O18 2.811271 1_555
Ba15 O10 2.822737 1_556
Ba15 O30 2.823531 1_555
Ba15 O43 2.829617 1_555
Ba15 O35 2.892395 1_555
Ba15 O0 3.112472 1_556
Ba16 O18 2.561639 1_565
Ba16 O25 2.631451 1_555
Ba16 O21 2.643796 1_555
Ba16 O22 2.708846 1_555
Ba16 O24 2.893573 1_555
Ba16 O33 2.951441 1_565
Ba16 O41 3.024341 1_555
Ba16 O5 3.032562 1_556
Ba17 O40 2.696801 1_555
Ba17 O10 2.736637 1_455
Ba17 O34 2.796592 1_555
Ba17 O45 2.811271 1_555
Ba17 O19 2.822744 1_555
Ba17 O6 2.823532 1_455
Ba17 O17 2.829617 1_555
Ba17 O15 2.892395 1_455
Ba17 O9 3.112484 1_555
Ba18 O34 2.753238 1_555
Ba18 O32 2.753238 1_554
Ba18 O11 2.828751 1_554
Ba18 O2 2.828751 1_555
Ba18 O38 2.867843 1_554
Ba18 O27 2.867843 1_555
Ba18 O30 2.943164 1_454
Ba18 O4 2.943164 1_555
Ba18 O23 3.275703 1_555
Ba18 O1 3.275703 1_454
Ba19 O10 2.946729 1_455
Ba19 O29 2.946730 1_444
Ba19 O19 2.946735 1_555
Ba19 O33 2.946735 1_454
Ba19 O4 3.082938 1_555
Ba19 O30 3.082938 1_454
Ba19 O22 3.082939 1_444
Ba19 O6 3.082950 1_455
Ba19 O5 3.186342 1_445
Ba19 O34 3.186342 1_555
Ba19 O32 3.186342 1_554
Ba19 O37 3.186342 1_444
Ba20 O36 2.561639 1_556
Ba20 O17 2.631451 1_555
Ba20 O43 2.643796 1_555
Ba20 O9 2.708846 1_555
Ba20 O40 2.893573 1_555
Ba20 O31 2.951450 1_555
Ba20 O24 3.024341 1_555
Ba20 O35 3.032562 1_555
Ba21 O11 2.696801 1_554
Ba21 O16 2.736637 1_555
Ba21 O44 2.796592 1_555
Ba21 O47 2.811271 1_544
Ba21 O23 2.822744 1_555
Ba21 O0 2.823532 1_555
Ba21 O21 2.829617 1_544
Ba21 O5 2.892395 1_545
Ba21 O4 3.112484 1_555
O0 Os7 1.940659 1_555
O1 Os5 1.938706 1_555
O2 Os3 1.926795 1_555
O3 Os1 1.926795 1_555
O4 Os6 1.940659 1_555
O5 Os7 1.997595 1_565
O6 Os7 1.940659 1_555
O7 Os4 1.916440 1_555
O8 Os0 1.914042 1_565
O9 Os6 1.940659 1_555
O10 Os7 1.938715 1_555
O11 Os0 1.926795 1_555
O12 Os3 1.914042 1_555
O13 Os4 1.914042 1_455
O14 Os2 1.940660 1_555
O15 Os7 1.997595 1_555
O16 Os7 1.938715 1_555
O17 Os1 1.914042 1_555
O18 Os0 1.916440 1_555
O19 Os6 1.938706 1_555
O20 Os5 1.940659 1_555
O21 Os1 1.914042 1_555
O22 Os2 1.940660 1_555
O23 Os6 1.938706 1_555
O24 Os1 1.926795 1_555
O25 Os3 1.914042 1_555
O26 Os4 1.926795 1_555
O27 Os3 1.916440 1_555
O28 Os2 1.997595 1_555
O29 Os2 1.938698 1_555
O30 Os5 1.940659 1_555
O31 Os2 1.938698 1_555
O32 Os5 1.997595 1_455
O33 Os5 1.938706 1_555
O34 Os6 1.997595 1_555
O35 Os5 1.997595 1_555
O36 Os4 1.916440 1_555
O37 Os2 1.997595 1_555
O38 Os0 1.916440 1_555
O39 Os3 1.916440 1_555
O40 Os0 1.926795 1_555
O41 Os3 1.926795 1_555
O42 Os4 1.914042 1_555
O43 Os0 1.914042 1_555
O44 Os6 1.997595 1_555
O45 Os1 1.916440 1_555
O46 Os4 1.926795 1_555
O47 Os1 1.916440 1_555
