# generated using pymatgen
data_FePO4
_symmetry_space_group_name_H-M   'P 1'
_cell_length_a   8.92097300
_cell_length_b   9.35021100
_cell_length_c   9.78831400
_cell_angle_alpha   90.00000000
_cell_angle_beta   90.00000000
_cell_angle_gamma   90.00000000
_symmetry_Int_Tables_number   1
_chemical_formula_structural   FePO4
_chemical_formula_sum   'Fe8 P8 O32'
_cell_volume   816.47243870
_cell_formula_units_Z   8
loop_
 _symmetry_equiv_pos_site_id
 _symmetry_equiv_pos_as_xyz
  1  'x, y, z'
loop_
 _atom_site_type_symbol
 _atom_site_label
 _atom_site_symmetry_multiplicity
 _atom_site_fract_x
 _atom_site_fract_y
 _atom_site_fract_z
 _atom_site_occupancy
  Fe  Fe0  1  0.06413100  0.21423300  0.60352000  1
  Fe  Fe1  1  0.43586900  0.78576700  0.10352000  1
  Fe  Fe2  1  0.43586900  0.71423300  0.60352000  1
  Fe  Fe3  1  0.56413100  0.21423300  0.89648000  1
  Fe  Fe4  1  0.06413100  0.28576700  0.10352000  1
  Fe  Fe5  1  0.56413100  0.28576700  0.39648000  1
  Fe  Fe6  1  0.93586900  0.78576700  0.39648000  1
  Fe  Fe7  1  0.93586900  0.71423300  0.89648000  1
  P  P0  1  0.61974300  0.62025900  0.32814400  1
  P  P1  1  0.38025700  0.12025900  0.17185600  1
  P  P2  1  0.11974300  0.87974100  0.67185600  1
  P  P3  1  0.38025700  0.37974100  0.67185600  1
  P  P4  1  0.61974300  0.87974100  0.82814400  1
  P  P5  1  0.88025700  0.37974100  0.82814400  1
  P  P6  1  0.88025700  0.12025900  0.32814400  1
  P  P7  1  0.11974300  0.62025900  0.17185600  1
  O  O0  1  0.60150000  0.69578100  0.18853300  1
  O  O1  1  0.88617700  0.54309700  0.80555500  1
  O  O2  1  0.51017000  0.16801000  0.07707400  1
  O  O3  1  0.48983000  0.66801000  0.42292600  1
  O  O4  1  0.11382300  0.04309700  0.69444500  1
  O  O5  1  0.51017000  0.33199000  0.57707400  1
  O  O6  1  0.98983000  0.83199000  0.57707400  1
  O  O7  1  0.27198100  0.65936600  0.10726000  1
  O  O8  1  0.89850000  0.19578100  0.18853300  1
  O  O9  1  0.01017000  0.33199000  0.92292600  1
  O  O10  1  0.72801900  0.15936600  0.39274000  1
  O  O11  1  0.10150000  0.69578100  0.31146700  1
  O  O12  1  0.39850000  0.19578100  0.31146700  1
  O  O13  1  0.60150000  0.80421900  0.68853300  1
  O  O14  1  0.48983000  0.83199000  0.92292600  1
  O  O15  1  0.22801900  0.15936600  0.10726000  1
  O  O16  1  0.11382300  0.45690300  0.19444500  1
  O  O17  1  0.22801900  0.34063400  0.60726000  1
  O  O18  1  0.01017000  0.16801000  0.42292600  1
  O  O19  1  0.72801900  0.34063400  0.89274000  1
  O  O20  1  0.27198100  0.84063400  0.60726000  1
  O  O21  1  0.38617700  0.95690300  0.19444500  1
  O  O22  1  0.89850000  0.30421900  0.68853300  1
  O  O23  1  0.88617700  0.95690300  0.30555500  1
  O  O24  1  0.77198100  0.84063400  0.89274000  1
  O  O25  1  0.77198100  0.65936600  0.39274000  1
  O  O26  1  0.98983000  0.66801000  0.07707400  1
  O  O27  1  0.61382300  0.04309700  0.80555500  1
  O  O28  1  0.61382300  0.45690300  0.30555500  1
  O  O29  1  0.39850000  0.30421900  0.81146700  1
  O  O30  1  0.38617700  0.54309700  0.69444500  1
  O  O31  1  0.10150000  0.80421900  0.81146700  1
loop_
_geom_bond_atom_site_label_1
_geom_bond_atom_site_label_2
_geom_bond_distance
_geom_bond_site_symmetry_2
Fe0 O17 1.880355 1_555
Fe0 O18 1.882372 1_555
Fe0 O4 1.883912 1_555
Fe0 O22 1.893054 1_455
Fe1 O7 1.880355 1_555
Fe1 O14 1.882372 1_554
Fe1 O21 1.883912 1_555
Fe1 O0 1.893054 1_555
Fe2 O20 1.880355 1_555
Fe2 O3 1.882372 1_555
Fe2 O30 1.883912 1_555
Fe2 O13 1.893054 1_555
Fe3 O19 1.880355 1_555
Fe3 O2 1.882372 1_556
Fe3 O27 1.883912 1_555
Fe3 O29 1.893054 1_555
Fe4 O15 1.880355 1_555
Fe4 O9 1.882372 1_554
Fe4 O16 1.883912 1_555
Fe4 O8 1.893054 1_455
Fe5 O10 1.880355 1_555
Fe5 O5 1.882372 1_555
Fe5 O28 1.883912 1_555
Fe5 O12 1.893054 1_555
Fe6 O25 1.880355 1_555
Fe6 O6 1.882372 1_555
Fe6 O23 1.883912 1_555
Fe6 O11 1.893054 1_655
Fe7 O24 1.880355 1_555
Fe7 O26 1.882372 1_556
Fe7 O1 1.883912 1_555
Fe7 O31 1.893054 1_655
O0 P0 1.546805 1_555
O1 P5 1.544237 1_555
O2 P1 1.550240 1_555
O3 P0 1.550240 1_555
O4 P2 1.544237 1_545
O5 P3 1.550240 1_555
O6 P2 1.550240 1_655
O7 P7 1.542063 1_555
O8 P6 1.546805 1_555
O9 P5 1.550240 1_455
O10 P6 1.542063 1_555
O11 P7 1.546805 1_555
O12 P1 1.546805 1_555
O13 P4 1.546805 1_555
O14 P4 1.550240 1_555
O15 P1 1.542063 1_555
O16 P7 1.544237 1_555
O17 P3 1.542063 1_555
O18 P6 1.550240 1_455
O19 P5 1.542063 1_555
O20 P2 1.542063 1_555
O21 P1 1.544237 1_565
O22 P5 1.546805 1_555
O23 P6 1.544237 1_565
O24 P4 1.542063 1_555
O25 P0 1.542063 1_555
O26 P7 1.550240 1_655
O27 P4 1.544237 1_545
O28 P0 1.544237 1_555
O29 P3 1.546805 1_555
O30 P3 1.544237 1_555
O31 P2 1.546805 1_555
