# generated using pymatgen
data_Cr2HgO7
_symmetry_space_group_name_H-M   'P 1'
_cell_length_a   7.16756312
_cell_length_b   7.16757475
_cell_length_c   9.55680413
_cell_angle_alpha   90.00071866
_cell_angle_beta   89.99924889
_cell_angle_gamma   120.00129096
_symmetry_Int_Tables_number   1
_chemical_formula_structural   Cr2HgO7
_chemical_formula_sum   'Cr6 Hg3 O21'
_cell_volume   425.18841637
_cell_formula_units_Z   3
loop_
 _symmetry_equiv_pos_site_id
 _symmetry_equiv_pos_as_xyz
  1  'x, y, z'
loop_
 _atom_site_type_symbol
 _atom_site_label
 _atom_site_symmetry_multiplicity
 _atom_site_fract_x
 _atom_site_fract_y
 _atom_site_fract_z
 _atom_site_occupancy
  Cr  Cr0  1  0.42250998  0.07197151  0.99130525  1
  Cr  Cr1  1  0.97935065  0.23519198  0.33219247  1
  Cr  Cr2  1  0.25584118  0.02064435  0.66553773  1
  Cr  Cr3  1  0.64947268  0.57749215  0.32464365  1
  Cr  Cr4  1  0.76480929  0.74417682  0.99887172  1
  Cr  Cr5  1  0.92802666  0.35050897  0.65795818  1
  Hg  Hg0  1  0.58733307  0.69563960  0.66395559  1
  Hg  Hg1  1  0.10831058  0.41264913  0.99725488  1
  Hg  Hg2  1  0.30433369  0.89168320  0.33061286  1
  O  O0  1  0.87075371  0.59776925  0.97197282  1
  O  O1  1  0.11784597  0.41986535  0.78230979  1
  O  O2  1  0.00983545  0.96257854  0.65777224  1
  O  O3  1  0.40223917  0.27300147  0.63862504  1
  O  O4  1  0.04977869  0.35500131  0.49770817  1
  O  O5  1  0.39564957  0.27718955  0.01793813  1
  O  O6  1  0.72282113  0.11844807  0.68459750  1
  O  O7  1  0.30522312  0.95023650  0.83105335  1
  O  O8  1  0.30201539  0.88217336  0.11566322  1
  O  O9  1  0.57368829  0.69686347  0.87869792  1
  O  O10  1  0.95273880  0.99017995  0.99110034  1
  O  O11  1  0.64501621  0.69480046  0.16439524  1
  O  O12  1  0.03742148  0.04726121  0.32442993  1
  O  O13  1  0.47777317  0.32637681  0.32101668  1
  O  O14  1  0.30313522  0.87683774  0.54535752  1
  O  O15  1  0.12315283  0.42629285  0.21199959  1
  O  O16  1  0.88154923  0.60435710  0.35126880  1
  O  O17  1  0.58015513  0.69796514  0.44901100  1
  O  O18  1  0.84859173  0.52221300  0.65435313  1
  O  O19  1  0.67363294  0.15139613  0.98769216  1
  O  O20  1  0.72699500  0.12923306  0.30530508  1
loop_
_geom_bond_atom_site_label_1
_geom_bond_atom_site_label_2
_geom_bond_distance
_geom_bond_site_symmetry_2
Cr0 O19 1.593845 1_555
Cr0 O5 1.596442 1_556
Cr0 O8 1.683471 1_546
Cr0 O7 1.754988 1_545
Cr1 O20 1.593968 1_555
Cr1 O12 1.598079 1_655
Cr1 O15 1.687039 1_655
Cr1 O4 1.749524 1_655
Cr2 O3 1.594011 1_555
Cr2 O2 1.598103 1_545
Cr2 O14 1.686969 1_545
Cr2 O7 1.749488 1_545
Cr3 O13 1.593797 1_555
Cr3 O16 1.596401 1_555
Cr3 O17 1.683489 1_555
Cr3 O11 1.755067 1_555
Cr4 O0 1.593993 1_555
Cr4 O10 1.598053 1_555
Cr4 O9 1.687013 1_555
Cr4 O11 1.749546 1_556
Cr5 O18 1.593961 1_555
Cr5 O6 1.596312 1_555
Cr5 O1 1.683495 1_655
Cr5 O4 1.754957 1_655
Hg0 O9 2.054805 1_555
Hg0 O17 2.055105 1_555
Hg1 O15 2.054824 1_556
Hg1 O1 2.055115 1_555
Hg2 O14 2.054826 1_555
Hg2 O8 2.055153 1_555
