# generated using pymatgen
data_PuNi4
_symmetry_space_group_name_H-M   'P 1'
_cell_length_a   4.87742776
_cell_length_b   4.87282848
_cell_length_c   10.12971326
_cell_angle_alpha   85.37127266
_cell_angle_beta   80.72082184
_cell_angle_gamma   59.96877905
_symmetry_Int_Tables_number   1
_chemical_formula_structural   PuNi4
_chemical_formula_sum   'Pu3 Ni12'
_cell_volume   205.70389461
_cell_formula_units_Z   3
loop_
 _symmetry_equiv_pos_site_id
 _symmetry_equiv_pos_as_xyz
  1  'x, y, z'
loop_
 _atom_site_type_symbol
 _atom_site_label
 _atom_site_symmetry_multiplicity
 _atom_site_fract_x
 _atom_site_fract_y
 _atom_site_fract_z
 _atom_site_occupancy
  Pu  Pu0  1  0.12611000  0.00000000  0.64378800  1
  Pu  Pu1  1  0.00000000  0.00000000  0.00000000  1
  Pu  Pu2  1  0.87389000  0.00000000  0.35621200  1
  Ni  Ni0  1  0.56905400  0.49895300  0.80120700  1
  Ni  Ni1  1  0.06800700  0.50104700  0.80120700  1
  Ni  Ni2  1  0.43094600  0.50104700  0.19879300  1
  Ni  Ni3  1  0.43087700  0.00000000  0.20137700  1
  Ni  Ni4  1  0.93199300  0.49895300  0.19879300  1
  Ni  Ni5  1  0.66516700  0.66966600  0.00000000  1
  Ni  Ni6  1  0.56912300  0.00000000  0.79862300  1
  Ni  Ni7  1  0.19406200  0.34132200  0.40563600  1
  Ni  Ni8  1  0.80593800  0.65867800  0.59436400  1
  Ni  Ni9  1  0.46461700  0.34132200  0.59436400  1
  Ni  Ni10  1  0.53538300  0.65867800  0.40563600  1
  Ni  Ni11  1  0.33483300  0.33033400  0.00000000  1
loop_
_geom_bond_atom_site_label_1
_geom_bond_atom_site_label_2
_geom_bond_distance
_geom_bond_site_symmetry_2
Ni0 Ni6 2.433396 1_555
Ni0 Ni5 2.435552 1_556
Ni0 Ni1 2.438730 1_655
Ni0 Ni1 2.438730 1_555
Ni0 Ni6 2.439711 1_565
Ni0 Ni11 2.442509 1_556
Ni0 Ni8 2.487369 1_555
Ni0 Ni9 2.497029 1_555
Ni0 Pu0 2.893814 1_565
Ni0 Pu0 2.907330 1_655
Ni0 Pu1 3.137503 1_656
Ni0 Pu1 3.150837 1_566
Ni1 Ni6 2.433396 1_465
Ni1 Ni11 2.435552 1_556
Ni1 Ni6 2.439712 1_555
Ni1 Ni5 2.442509 1_456
Ni1 Ni9 2.487371 1_555
Ni1 Ni8 2.497031 1_455
Ni1 Pu0 2.893814 1_555
Ni1 Pu0 2.907330 1_565
Ni1 Pu1 3.137502 1_566
Ni1 Pu1 3.150837 1_556
Ni2 Ni3 2.433396 1_565
Ni2 Ni4 2.438730 1_455
Ni2 Ni4 2.438730 1_555
Ni2 Ni3 2.439711 1_555
Ni2 Ni5 2.442509 1_555
Ni2 Ni7 2.487369 1_555
Ni2 Pu2 2.893814 1_555
Ni2 Pu2 2.907330 1_465
Ni2 Pu1 3.137503 1_565
Ni2 Pu1 3.150837 1_655
Ni3 Ni4 2.433396 1_455
Ni3 Ni4 2.439712 1_545
Ni3 Ni5 2.448483 1_545
Ni3 Ni7 2.498660 1_555
Ni3 Pu2 2.867370 1_555
Ni3 Pu2 2.909664 1_455
Ni3 Pu1 3.155989 1_555
Ni3 Pu1 3.168667 1_655
Ni4 Ni5 2.435552 1_555
Ni4 Ni7 2.497031 1_655
Ni4 Pu2 2.893814 1_565
Ni4 Pu2 2.907330 1_555
Ni4 Pu1 3.137502 1_655
Ni4 Pu1 3.150837 1_665
Ni5 Ni6 2.448483 1_564
Ni5 Pu1 2.808800 1_665
Ni5 Pu1 2.808800 1_565
Ni5 Pu1 2.825097 1_655
Ni6 Ni9 2.498660 1_555
Ni6 Ni8 2.498660 1_545
Ni6 Pu0 2.867370 1_555
Ni6 Pu0 2.909664 1_655
Ni6 Pu1 3.155989 1_656
Ni6 Pu1 3.168667 1_556
Ni7 Ni8 2.451470 1_455
Ni7 Ni9 2.491943 1_555
Ni7 Pu2 2.822559 1_465
Ni7 Pu2 2.844375 1_555
Ni7 Pu0 2.888279 1_555
Ni7 Pu2 2.905478 1_455
Ni8 Ni9 2.782038 1_555
Ni8 Ni9 2.782047 1_655
Ni8 Pu0 2.822559 1_655
Ni8 Pu0 2.844375 1_565
Ni8 Ni9 2.879846 1_565
Ni8 Pu2 2.888279 1_565
Ni8 Pu0 2.905478 1_665
Ni9 Pu0 2.822559 1_565
Ni9 Pu0 2.844379 1_555
Ni9 Pu2 2.888277 1_555
Ni9 Pu0 2.905474 1_655
Ni10 Ni9 2.451467 1_555
Ni10 Ni4 2.487371 1_555
Ni10 Ni8 2.491943 1_555
Ni10 Ni2 2.497029 1_555
Ni10 Ni3 2.498660 1_565
Ni10 Ni7 2.782038 1_555
Ni10 Ni7 2.782047 1_655
Ni10 Pu2 2.822559 1_555
Ni10 Pu2 2.844379 1_565
Ni10 Ni7 2.879846 1_565
Ni10 Pu0 2.888277 1_565
Ni10 Pu2 2.905474 1_465
Ni11 Ni2 2.435552 1_555
Ni11 Ni4 2.442509 1_455
Ni11 Ni3 2.448483 1_555
Ni11 Ni6 2.448483 1_554
Ni11 Ni5 2.787137 1_545
Ni11 Pu1 2.808800 1_555
Ni11 Pu1 2.808800 1_655
Ni11 Pu1 2.825097 1_565
Ni11 Ni5 2.827826 1_555
Ni11 Ni5 2.827826 1_455
