# generated using pymatgen
data_Ba2LaSbO6
_symmetry_space_group_name_H-M   'P 1'
_cell_length_a   6.18182300
_cell_length_b   6.17272500
_cell_length_c   10.69845867
_cell_angle_alpha   54.86944410
_cell_angle_beta   90.00000000
_cell_angle_gamma   90.00000000
_symmetry_Int_Tables_number   1
_chemical_formula_structural   Ba2LaSbO6
_chemical_formula_sum   'Ba4 La2 Sb2 O12'
_cell_volume   333.87555494
_cell_formula_units_Z   2
loop_
 _symmetry_equiv_pos_site_id
 _symmetry_equiv_pos_as_xyz
  1  'x, y, z'
loop_
 _atom_site_type_symbol
 _atom_site_label
 _atom_site_symmetry_multiplicity
 _atom_site_fract_x
 _atom_site_fract_y
 _atom_site_fract_z
 _atom_site_occupancy
  Ba  Ba0  1  0.00518800  0.75046300  0.25056200  1
  Ba  Ba1  1  0.50518800  0.24953700  0.24943800  1
  Ba  Ba2  1  0.49481200  0.75046300  0.75056200  1
  Ba  Ba3  1  0.99481200  0.24953700  0.74943800  1
  La  La0  1  0.00000000  0.50000000  0.00000000  1
  La  La1  1  0.50000000  0.50000000  0.50000000  1
  Sb  Sb0  1  0.50000000  0.00000000  0.00000000  1
  Sb  Sb1  1  0.00000000  0.00000000  0.50000000  1
  O  O0  1  0.50793100  0.23279600  0.76918300  1
  O  O1  1  0.78388100  0.75304200  0.50158000  1
  O  O2  1  0.25520500  0.78825300  0.99513800  1
  O  O3  1  0.75520500  0.21174700  0.50486200  1
  O  O4  1  0.21611900  0.24695800  0.49842000  1
  O  O5  1  0.24479500  0.78825300  0.49513800  1
  O  O6  1  0.28388100  0.24695800  0.99842000  1
  O  O7  1  0.74479500  0.21174700  0.00486200  1
  O  O8  1  0.99206900  0.23279600  0.26918300  1
  O  O9  1  0.00793100  0.76720400  0.73081700  1
  O  O10  1  0.71611900  0.75304200  0.00158000  1
  O  O11  1  0.49206900  0.76720400  0.23081700  1
loop_
_geom_bond_atom_site_label_1
_geom_bond_atom_site_label_2
_geom_bond_distance
_geom_bond_site_symmetry_2
Ba0 O4 2.984366 1_555
Ba0 O7 2.999058 1_465
Ba0 O11 3.014821 1_555
Ba0 O1 3.022092 1_455
Ba0 O2 3.029339 1_554
Ba0 O8 3.086150 1_455
Ba0 O8 3.097298 1_465
Ba0 O5 3.130075 1_555
Ba0 O11 3.176764 1_455
Ba0 O6 3.181634 1_564
Ba0 O10 3.200023 1_455
Ba0 O3 3.230443 1_455
Ba1 O10 2.984366 1_555
Ba1 O5 2.999058 1_545
Ba1 O8 3.014821 1_555
Ba1 O6 3.022092 1_554
Ba1 O3 3.029339 1_555
Ba1 O11 3.086150 1_555
Ba1 O11 3.097298 1_545
Ba1 O7 3.130075 1_555
Ba1 O8 3.176764 1_455
Ba1 O1 3.181634 1_545
Ba1 O4 3.200023 1_555
Ba1 O2 3.230443 1_554
Ba2 O6 2.984366 1_555
Ba2 O3 2.999058 1_565
Ba2 O9 3.014821 1_555
Ba2 O10 3.022092 1_556
Ba2 O5 3.029339 1_555
Ba2 O0 3.086150 1_555
Ba2 O0 3.097298 1_565
Ba2 O2 3.130075 1_555
Ba2 O9 3.176764 1_655
Ba2 O4 3.181634 1_565
Ba2 O1 3.200023 1_555
Ba2 O7 3.230443 1_556
Ba3 O1 2.984366 1_555
Ba3 O2 2.999058 1_645
Ba3 O0 3.014821 1_555
Ba3 O4 3.022092 1_655
Ba3 O7 3.029339 1_556
Ba3 O9 3.086150 1_655
Ba3 O9 3.097298 1_645
Ba3 O3 3.130075 1_555
Ba3 O0 3.176764 1_655
Ba3 O10 3.181634 1_546
Ba3 O6 3.200023 1_655
Ba3 O5 3.230443 1_655
La0 O9 2.355783 1_554
La0 O8 2.355783 1_455
La0 O10 2.355858 1_455
La0 O6 2.355858 1_554
La0 O2 2.356065 1_554
La0 O7 2.356065 1_455
La1 O0 2.355783 1_555
La1 O11 2.355783 1_555
La1 O4 2.355858 1_555
La1 O1 2.355858 1_555
La1 O3 2.356065 1_555
La1 O5 2.356065 1_555
O0 Sb0 2.020228 1_556
O1 Sb1 2.019742 1_665
O2 Sb0 2.019743 1_566
O3 Sb1 2.019743 1_655
O4 Sb1 2.019742 1_555
O5 Sb1 2.019743 1_565
O6 Sb0 2.019742 1_556
O7 Sb0 2.019743 1_555
O8 Sb1 2.020228 1_655
O9 Sb1 2.020228 1_565
O10 Sb0 2.019742 1_565
O11 Sb0 2.020228 1_565
