# generated using pymatgen
data_Ba5Al2In2IrClO13
_symmetry_space_group_name_H-M   'P 1'
_cell_length_a   5.94303673
_cell_length_b   5.94303673
_cell_length_c   25.55257600
_cell_angle_alpha   90.00000000
_cell_angle_beta   90.00000000
_cell_angle_gamma   120.00000818
_symmetry_Int_Tables_number   1
_chemical_formula_structural   Ba5Al2In2IrClO13
_chemical_formula_sum   'Ba10 Al4 In4 Ir2 Cl2 O26'
_cell_volume   781.59561461
_cell_formula_units_Z   2
loop_
 _symmetry_equiv_pos_site_id
 _symmetry_equiv_pos_as_xyz
  1  'x, y, z'
loop_
 _atom_site_type_symbol
 _atom_site_label
 _atom_site_symmetry_multiplicity
 _atom_site_fract_x
 _atom_site_fract_y
 _atom_site_fract_z
 _atom_site_occupancy
  Ba  Ba0  1  0.00000000  0.00000000  0.75000000  1
  Ba  Ba1  1  0.66666700  0.33333300  0.03972200  1
  Ba  Ba2  1  0.33333300  0.66666700  0.53972200  1
  Ba  Ba3  1  0.33333300  0.66666700  0.36840800  1
  Ba  Ba4  1  0.66666700  0.33333300  0.63159200  1
  Ba  Ba5  1  0.66666700  0.33333300  0.86840800  1
  Ba  Ba6  1  0.33333300  0.66666700  0.96027800  1
  Ba  Ba7  1  0.33333300  0.66666700  0.13159200  1
  Ba  Ba8  1  0.66666700  0.33333300  0.46027800  1
  Ba  Ba9  1  0.00000000  0.00000000  0.25000000  1
  Al  Al0  1  0.33333300  0.66666700  0.68203900  1
  Al  Al1  1  0.66666700  0.33333300  0.18203900  1
  Al  Al2  1  0.66666700  0.33333300  0.31796100  1
  Al  Al3  1  0.33333300  0.66666700  0.81796100  1
  In  In0  1  0.00000000  0.00000000  0.88743500  1
  In  In1  1  0.00000000  0.00000000  0.11256500  1
  In  In2  1  0.00000000  0.00000000  0.38743500  1
  In  In3  1  0.00000000  0.00000000  0.61256500  1
  Ir  Ir0  1  0.00000000  0.00000000  0.50000000  1
  Ir  Ir1  1  0.00000000  0.00000000  0.00000000  1
  Cl  Cl0  1  0.66666700  0.33333300  0.75000000  1
  Cl  Cl1  1  0.33333300  0.66666700  0.25000000  1
  O  O0  1  0.82671100  0.65342200  0.15592800  1
  O  O1  1  0.33333300  0.66666700  0.75000000  1
  O  O2  1  0.84544800  0.69089600  0.54767800  1
  O  O3  1  0.17328900  0.82671100  0.84407200  1
  O  O4  1  0.82671100  0.17328900  0.34407200  1
  O  O5  1  0.15455200  0.84544800  0.45232200  1
  O  O6  1  0.15455200  0.84544800  0.04767800  1
  O  O7  1  0.34657800  0.17328900  0.34407200  1
  O  O8  1  0.15455200  0.30910400  0.45232200  1
  O  O9  1  0.84544800  0.15455200  0.95232200  1
  O  O10  1  0.30910400  0.15455200  0.54767800  1
  O  O11  1  0.17328900  0.82671100  0.65592800  1
  O  O12  1  0.69089600  0.84544800  0.45232200  1
  O  O13  1  0.66666700  0.33333300  0.25000000  1
  O  O14  1  0.17328900  0.34657800  0.84407200  1
  O  O15  1  0.17328900  0.34657800  0.65592800  1
  O  O16  1  0.82671100  0.65342200  0.34407200  1
  O  O17  1  0.69089600  0.84544800  0.04767800  1
  O  O18  1  0.30910400  0.15455200  0.95232200  1
  O  O19  1  0.84544800  0.15455200  0.54767800  1
  O  O20  1  0.65342200  0.82671100  0.65592800  1
  O  O21  1  0.82671100  0.17328900  0.15592800  1
  O  O22  1  0.34657800  0.17328900  0.15592800  1
  O  O23  1  0.84544800  0.69089600  0.95232200  1
  O  O24  1  0.15455200  0.30910400  0.04767800  1
  O  O25  1  0.65342200  0.82671100  0.84407200  1
loop_
_geom_bond_atom_site_label_1
_geom_bond_atom_site_label_2
_geom_bond_distance
_geom_bond_site_symmetry_2
Ba0 O14 2.993329 1_555
Ba0 O25 2.993329 1_445
Ba0 O15 2.993329 1_555
Ba0 O20 2.993329 1_445
Ba0 O3 2.993329 1_545
Ba0 O11 2.993329 1_545
Ba0 O1 3.431211 1_545
Ba0 Cl0 3.431211 1_455
Ba0 Cl0 3.431215 1_445
Ba0 O1 3.431215 1_555
Ba0 Cl0 3.431215 1_555
Ba0 O1 3.431215 1_445
Ba1 O9 2.893845 1_554
Ba1 O23 2.893848 1_554
Ba1 O18 2.893848 1_554
Ba1 O17 2.981071 1_545
Ba1 O24 2.981071 1_655
Ba1 O6 2.981074 1_655
Ba1 O6 2.981074 1_545
Ba1 O17 2.981077 1_555
Ba1 O24 2.981077 1_555
Ba1 O21 3.395756 1_555
Ba1 O0 3.395758 1_555
Ba1 O22 3.395758 1_555
Ba2 O5 2.893845 1_555
Ba2 O8 2.893848 1_555
Ba2 O12 2.893848 1_555
Ba2 O10 2.981071 1_565
Ba2 O2 2.981071 1_455
Ba2 O19 2.981074 1_565
Ba2 O19 2.981074 1_455
Ba2 O2 2.981077 1_555
Ba2 O10 2.981077 1_555
Ba2 O11 3.395756 1_555
Ba2 O15 3.395758 1_555
Ba2 O20 3.395758 1_555
Ba3 O5 2.825669 1_555
Ba3 O12 2.825672 1_555
Ba3 O8 2.825672 1_555
Ba3 Cl1 3.025629 1_555
Ba3 O7 3.036650 1_565
Ba3 O16 3.036650 1_455
Ba3 O4 3.036653 1_565
Ba3 O4 3.036653 1_455
Ba3 O16 3.036656 1_555
Ba3 O7 3.036656 1_555
Ba4 O19 2.825669 1_555
Ba4 O2 2.825672 1_555
Ba4 O10 2.825672 1_555
Ba4 Cl0 3.025629 1_555
Ba4 O20 3.036650 1_545
Ba4 O15 3.036650 1_655
Ba4 O11 3.036653 1_655
Ba4 O11 3.036653 1_545
Ba4 O20 3.036656 1_555
Ba4 O15 3.036656 1_555
Ba5 O9 2.825669 1_555
Ba5 O23 2.825672 1_555
Ba5 O18 2.825672 1_555
Ba5 Cl0 3.025629 1_555
Ba5 O14 3.036650 1_655
Ba5 O25 3.036650 1_545
Ba5 O3 3.036653 1_545
Ba5 O3 3.036653 1_655
Ba5 O25 3.036656 1_555
Ba5 O14 3.036656 1_555
Ba6 O6 2.893845 1_556
Ba6 O24 2.893848 1_556
Ba6 O17 2.893848 1_556
Ba6 O23 2.981071 1_455
Ba6 O18 2.981071 1_565
Ba6 O9 2.981074 1_565
Ba6 O9 2.981074 1_455
Ba6 O18 2.981077 1_555
Ba6 O23 2.981077 1_555
Ba6 O3 3.395756 1_555
Ba6 O25 3.395758 1_555
Ba6 O14 3.395758 1_555
Ba7 O6 2.825669 1_555
Ba7 O24 2.825672 1_555
Ba7 O17 2.825672 1_555
Ba7 Cl1 3.025629 1_555
Ba7 O0 3.036650 1_455
Ba7 O22 3.036650 1_565
Ba7 O21 3.036653 1_455
Ba7 O21 3.036653 1_565
Ba7 O0 3.036656 1_555
Ba7 O22 3.036656 1_555
Ba8 O19 2.893845 1_555
Ba8 O10 2.893848 1_555
Ba8 O2 2.893848 1_555
Ba8 O8 2.981071 1_655
Ba8 O12 2.981071 1_545
Ba8 O5 2.981074 1_655
Ba8 O5 2.981074 1_545
Ba8 O8 2.981077 1_555
Ba8 O12 2.981077 1_555
Ba8 O4 3.395756 1_555
Ba8 O16 3.395758 1_555
Ba8 O7 3.395758 1_555
Ba9 O16 2.993329 1_445
Ba9 O7 2.993329 1_555
Ba9 O22 2.993329 1_555
Ba9 O0 2.993329 1_445
Ba9 O4 2.993329 1_455
Ba9 O21 2.993329 1_455
Ba9 O13 3.431211 1_455
Ba9 Cl1 3.431211 1_545
Ba9 O13 3.431215 1_445
Ba9 Cl1 3.431215 1_555
Ba9 O13 3.431215 1_555
Ba9 Cl1 3.431215 1_445
Al0 O1 1.736579 1_555
Al0 O11 1.777415 1_555
Al0 O20 1.777420 1_555
Al0 O15 1.777420 1_555
Al1 O13 1.736579 1_555
Al1 O21 1.777415 1_555
Al1 O0 1.777420 1_555
Al1 O22 1.777420 1_555
Al2 O13 1.736579 1_555
Al2 O4 1.777415 1_555
Al2 O16 1.777420 1_555
Al2 O7 1.777420 1_555
Al3 O1 1.736579 1_555
Al3 O3 1.777415 1_555
Al3 O25 1.777420 1_555
Al3 O14 1.777420 1_555
In0 O14 2.099904 1_555
In0 O25 2.099904 1_445
In0 O3 2.099904 1_545
In0 O18 2.297833 1_555
In0 O23 2.297833 1_445
In0 O9 2.297833 1_455
In1 O22 2.099904 1_555
In1 O0 2.099904 1_445
In1 O21 2.099904 1_455
In1 O17 2.297833 1_445
In1 O24 2.297833 1_555
In1 O6 2.297833 1_545
In2 O7 2.099904 1_555
In2 O16 2.099904 1_445
In2 O4 2.099904 1_455
In2 O8 2.297833 1_555
In2 O12 2.297833 1_445
In2 O5 2.297833 1_545
In3 O15 2.099904 1_555
In3 O20 2.099904 1_445
In3 O11 2.099904 1_545
In3 O10 2.297833 1_555
In3 O2 2.297833 1_445
In3 O19 2.297833 1_455
Ir0 O8 2.003800 1_555
Ir0 O10 2.003800 1_555
Ir0 O2 2.003800 1_445
Ir0 O12 2.003800 1_445
Ir0 O19 2.003801 1_455
Ir0 O5 2.003801 1_545
Ir1 O18 2.003800 1_554
Ir1 O24 2.003800 1_555
Ir1 O23 2.003800 1_444
Ir1 O17 2.003800 1_445
Ir1 O6 2.003801 1_545
Ir1 O9 2.003801 1_454
