# generated using pymatgen
data_Pr5Co19B6
_symmetry_space_group_name_H-M   'P 1'
_cell_length_a   5.13873967
_cell_length_b   5.13873967
_cell_length_c   16.57020400
_cell_angle_alpha   90.00000000
_cell_angle_beta   90.00000000
_cell_angle_gamma   119.99999572
_symmetry_Int_Tables_number   1
_chemical_formula_structural   Pr5Co19B6
_chemical_formula_sum   'Pr5 Co19 B6'
_cell_volume   378.94112380
_cell_formula_units_Z   1
loop_
 _symmetry_equiv_pos_site_id
 _symmetry_equiv_pos_as_xyz
  1  'x, y, z'
loop_
 _atom_site_type_symbol
 _atom_site_label
 _atom_site_symmetry_multiplicity
 _atom_site_fract_x
 _atom_site_fract_y
 _atom_site_fract_z
 _atom_site_occupancy
  Pr  Pr0  1  0.00000000  0.00000000  0.50000000  1
  Pr  Pr1  1  0.00000000  0.00000000  0.29533500  1
  Pr  Pr2  1  0.00000000  0.00000000  0.70466500  1
  Pr  Pr3  1  0.00000000  0.00000000  0.09351500  1
  Pr  Pr4  1  0.00000000  0.00000000  0.90648500  1
  Co  Co0  1  0.50000000  0.00000000  0.41348400  1
  Co  Co1  1  0.50000000  0.50000000  0.41348400  1
  Co  Co2  1  0.00000000  0.50000000  0.41348400  1
  Co  Co3  1  0.50000000  0.00000000  0.58651600  1
  Co  Co4  1  0.50000000  0.50000000  0.58651600  1
  Co  Co5  1  0.00000000  0.50000000  0.58651600  1
  Co  Co6  1  0.33333300  0.66666700  0.29419600  1
  Co  Co7  1  0.66666700  0.33333300  0.29419600  1
  Co  Co8  1  0.66666700  0.33333300  0.70580400  1
  Co  Co9  1  0.33333300  0.66666700  0.70580400  1
  Co  Co10  1  0.50000000  0.00000000  0.17409200  1
  Co  Co11  1  0.50000000  0.50000000  0.17409200  1
  Co  Co12  1  0.00000000  0.50000000  0.17409200  1
  Co  Co13  1  0.50000000  0.00000000  0.82590800  1
  Co  Co14  1  0.50000000  0.50000000  0.82590800  1
  Co  Co15  1  0.00000000  0.50000000  0.82590800  1
  Co  Co16  1  0.50000000  0.00000000  0.00000000  1
  Co  Co17  1  0.50000000  0.50000000  0.00000000  1
  Co  Co18  1  0.00000000  0.50000000  0.00000000  1
  B  B0  1  0.33333300  0.66666700  0.50000000  1
  B  B1  1  0.66666700  0.33333300  0.50000000  1
  B  B2  1  0.33333300  0.66666700  0.08835900  1
  B  B3  1  0.66666700  0.33333300  0.08835900  1
  B  B4  1  0.66666700  0.33333300  0.91164100  1
  B  B5  1  0.33333300  0.66666700  0.91164100  1
loop_
_geom_bond_atom_site_label_1
_geom_bond_atom_site_label_2
_geom_bond_distance
_geom_bond_site_symmetry_2
Pr1 Pr3 3.344199 1_555
Pr2 Pr4 3.344199 1_555
Pr3 Pr4 3.099125 1_554
Co0 Co6 2.471356 1_545
Co0 Co7 2.471356 1_555
Co0 Pr0 2.942250 1_555
Co0 Pr0 2.942250 1_655
Co1 Co6 2.471359 1_555
Co1 Co7 2.471359 1_555
Co1 Pr0 2.942250 1_555
Co1 Pr0 2.942250 1_665
Co2 Co6 2.471356 1_555
Co2 Co7 2.471356 1_455
Co2 Pr0 2.942250 1_555
Co2 Pr0 2.942250 1_565
Co3 Co9 2.471356 1_545
Co3 Co8 2.471356 1_555
Co3 Pr0 2.942250 1_555
Co3 Pr0 2.942250 1_655
Co4 Co8 2.471359 1_555
Co4 Co9 2.471359 1_555
Co4 Pr0 2.942250 1_555
Co4 Pr0 2.942250 1_665
Co5 Co8 2.471356 1_455
Co5 Co9 2.471356 1_555
Co5 Pr0 2.942250 1_555
Co5 Pr0 2.942250 1_565
Co6 Pr1 2.966910 1_565
Co6 Pr1 2.966914 1_555
Co6 Pr1 2.966914 1_665
Co7 Pr1 2.966910 1_655
Co7 Pr1 2.966914 1_555
Co7 Pr1 2.966914 1_665
Co8 Pr2 2.966910 1_655
Co8 Pr2 2.966914 1_665
Co8 Pr2 2.966914 1_555
Co9 Pr2 2.966910 1_565
Co9 Pr2 2.966914 1_665
Co9 Pr2 2.966914 1_555
Co10 Co7 2.482184 1_555
Co10 Co6 2.482184 1_545
Co10 Pr3 2.895576 1_655
Co10 Pr3 2.895576 1_555
Co11 Co7 2.482187 1_555
Co11 Co6 2.482187 1_555
Co11 Pr3 2.895576 1_665
Co11 Pr3 2.895576 1_555
Co12 Co7 2.482184 1_455
Co12 Co6 2.482184 1_555
Co12 Pr3 2.895576 1_555
Co12 Pr3 2.895576 1_565
Co13 Co9 2.482184 1_545
Co13 Co8 2.482184 1_555
Co13 Pr4 2.895576 1_555
Co13 Pr4 2.895576 1_655
Co14 Co8 2.482187 1_555
Co14 Co9 2.482187 1_555
Co14 Pr4 2.895576 1_555
Co14 Pr4 2.895576 1_665
Co15 Co8 2.482184 1_455
Co15 Co9 2.482184 1_555
Co15 Pr4 2.895576 1_555
Co15 Pr4 2.895576 1_565
Co16 Pr4 3.000468 1_554
Co16 Pr3 3.000468 1_655
Co16 Pr4 3.000468 1_654
Co16 Pr3 3.000468 1_555
Co17 Pr4 3.000468 1_664
Co17 Pr3 3.000468 1_555
Co17 Pr4 3.000468 1_554
Co17 Pr3 3.000468 1_665
Co18 Pr4 3.000468 1_564
Co18 Pr3 3.000468 1_565
Co18 Pr4 3.000468 1_554
Co18 Pr3 3.000468 1_555
B0 Co3 2.062940 1_565
B0 Co5 2.062940 1_555
B0 Co0 2.062940 1_565
B0 Co2 2.062940 1_555
B0 Co4 2.062944 1_555
B0 Co1 2.062944 1_555
B0 Pr0 2.966850 1_565
B0 Pr0 2.966854 1_665
B0 Pr0 2.966854 1_555
B1 Co3 2.062940 1_555
B1 Co5 2.062940 1_655
B1 Co0 2.062940 1_555
B1 Co2 2.062940 1_655
B1 Co4 2.062944 1_555
B1 Co1 2.062944 1_555
B1 Pr0 2.966850 1_655
B1 Pr0 2.966854 1_665
B1 Pr0 2.966854 1_555
B2 Co12 2.053945 1_555
B2 Co10 2.053945 1_565
B2 Co11 2.053949 1_555
B2 Co16 2.084278 1_565
B2 Co18 2.084278 1_555
B2 Co17 2.084281 1_555
B2 Pr3 2.968080 1_565
B2 Pr3 2.968084 1_555
B2 Pr3 2.968084 1_665
B3 Co10 2.053945 1_555
B3 Co12 2.053945 1_655
B3 Co11 2.053949 1_555
B3 Co18 2.084278 1_655
B3 Co16 2.084278 1_555
B3 Co17 2.084281 1_555
B3 Pr3 2.968080 1_655
B3 Pr3 2.968084 1_555
B3 Pr3 2.968084 1_665
B4 Co15 2.053945 1_655
B4 Co13 2.053945 1_555
B4 Co14 2.053949 1_555
B4 Co18 2.084278 1_656
B4 Co16 2.084278 1_556
B4 Co17 2.084281 1_556
B4 Pr4 2.968080 1_655
B4 Pr4 2.968084 1_555
B4 Pr4 2.968084 1_665
B5 Co13 2.053945 1_565
B5 Co15 2.053945 1_555
B5 Co14 2.053949 1_555
B5 Co18 2.084278 1_556
B5 Co16 2.084278 1_566
B5 Co17 2.084281 1_556
B5 Pr4 2.968080 1_565
B5 Pr4 2.968084 1_555
B5 Pr4 2.968084 1_665
