# generated using pymatgen
data_Rb2NaH5(CO4)2
_symmetry_space_group_name_H-M   'P 1'
_cell_length_a   8.23053700
_cell_length_b   9.50468500
_cell_length_c   12.19345400
_cell_angle_alpha   90.00000000
_cell_angle_beta   90.00000000
_cell_angle_gamma   90.00000000
_symmetry_Int_Tables_number   1
_chemical_formula_structural   Rb2NaH5(CO4)2
_chemical_formula_sum   'Rb8 Na4 H20 C8 O32'
_cell_volume   953.87758628
_cell_formula_units_Z   4
loop_
 _symmetry_equiv_pos_site_id
 _symmetry_equiv_pos_as_xyz
  1  'x, y, z'
loop_
 _atom_site_type_symbol
 _atom_site_label
 _atom_site_symmetry_multiplicity
 _atom_site_fract_x
 _atom_site_fract_y
 _atom_site_fract_z
 _atom_site_occupancy
  Rb  Rb0  1  0.48920600  0.77849000  0.10801900  1
  Rb  Rb1  1  0.98920600  0.22151000  0.89198100  1
  Rb  Rb2  1  0.01079400  0.27849000  0.39198100  1
  Rb  Rb3  1  0.51079400  0.72151000  0.60801900  1
  Rb  Rb4  1  0.51079400  0.22151000  0.89198100  1
  Rb  Rb5  1  0.01079400  0.77849000  0.10801900  1
  Rb  Rb6  1  0.98920600  0.72151000  0.60801900  1
  Rb  Rb7  1  0.48920600  0.27849000  0.39198100  1
  Na  Na0  1  0.75000000  0.93926600  0.31618400  1
  Na  Na1  1  0.25000000  0.06073400  0.68381600  1
  Na  Na2  1  0.75000000  0.43926600  0.18381600  1
  Na  Na3  1  0.25000000  0.56073400  0.81618400  1
  H  H0  1  0.75000000  0.49605100  0.47128400  1
  H  H1  1  0.25000000  0.50394900  0.52871600  1
  H  H2  1  0.75000000  0.99605100  0.02871600  1
  H  H3  1  0.25000000  0.00394900  0.97128400  1
  H  H4  1  0.88991000  0.61710500  0.86636800  1
  H  H5  1  0.38991000  0.38289500  0.13363200  1
  H  H6  1  0.61009000  0.11710500  0.63363200  1
  H  H7  1  0.11009000  0.88289500  0.36636800  1
  H  H8  1  0.11009000  0.38289500  0.13363200  1
  H  H9  1  0.61009000  0.61710500  0.86636800  1
  H  H10  1  0.38991000  0.88289500  0.36636800  1
  H  H11  1  0.88991000  0.11710500  0.63363200  1
  H  H12  1  0.88296500  0.48323300  0.79087900  1
  H  H13  1  0.38296500  0.51676700  0.20912100  1
  H  H14  1  0.61703500  0.98323300  0.70912100  1
  H  H15  1  0.11703500  0.01676700  0.29087900  1
  H  H16  1  0.11703500  0.51676700  0.20912100  1
  H  H17  1  0.61703500  0.48323300  0.79087900  1
  H  H18  1  0.38296500  0.01676700  0.29087900  1
  H  H19  1  0.88296500  0.98323300  0.70912100  1
  C  C0  1  0.75000000  0.65013100  0.35613300  1
  C  C1  1  0.25000000  0.34986900  0.64386700  1
  C  C2  1  0.75000000  0.15013100  0.14386700  1
  C  C3  1  0.25000000  0.84986900  0.85613300  1
  C  C4  1  0.75000000  0.35969600  0.63164800  1
  C  C5  1  0.25000000  0.64030400  0.36835200  1
  C  C6  1  0.75000000  0.85969600  0.86835200  1
  C  C7  1  0.25000000  0.14030400  0.13164800  1
  O  O0  1  0.75000000  0.74029900  0.43323400  1
  O  O1  1  0.25000000  0.25970100  0.56676600  1
  O  O2  1  0.75000000  0.24029900  0.06676600  1
  O  O3  1  0.25000000  0.75970100  0.93323400  1
  O  O4  1  0.75000000  0.67929700  0.25381400  1
  O  O5  1  0.25000000  0.32070300  0.74618600  1
  O  O6  1  0.75000000  0.17929700  0.24618600  1
  O  O7  1  0.25000000  0.82070300  0.75381400  1
  O  O8  1  0.75000000  0.51043400  0.38220500  1
  O  O9  1  0.25000000  0.48956600  0.61779500  1
  O  O10  1  0.75000000  0.01043400  0.11779500  1
  O  O11  1  0.25000000  0.98956600  0.88220500  1
  O  O12  1  0.75000000  0.48341000  0.58435500  1
  O  O13  1  0.25000000  0.51659000  0.41564500  1
  O  O14  1  0.75000000  0.98341000  0.91564500  1
  O  O15  1  0.25000000  0.01659000  0.08435500  1
  O  O16  1  0.75000000  0.24555400  0.57298100  1
  O  O17  1  0.25000000  0.75444600  0.42701900  1
  O  O18  1  0.75000000  0.74555400  0.92701900  1
  O  O19  1  0.25000000  0.25444600  0.07298100  1
  O  O20  1  0.75000000  0.35467800  0.73831600  1
  O  O21  1  0.25000000  0.64532200  0.26168400  1
  O  O22  1  0.75000000  0.85467800  0.76168400  1
  O  O23  1  0.25000000  0.14532200  0.23831600  1
  O  O24  1  0.96053100  0.54562600  0.83075400  1
  O  O25  1  0.46053100  0.45437400  0.16924600  1
  O  O26  1  0.53946900  0.04562600  0.66924600  1
  O  O27  1  0.03946900  0.95437400  0.33075400  1
  O  O28  1  0.03946900  0.45437400  0.16924600  1
  O  O29  1  0.53946900  0.54562600  0.83075400  1
  O  O30  1  0.46053100  0.95437400  0.33075400  1
  O  O31  1  0.96053100  0.04562600  0.66924600  1
loop_
_geom_bond_atom_site_label_1
_geom_bond_atom_site_label_2
_geom_bond_distance
_geom_bond_site_symmetry_2
Na0 O0 2.369252 1_555
Na0 O27 2.393412 1_655
Na0 O30 2.393412 1_555
Na0 O6 2.435850 1_565
Na0 O10 2.511841 1_565
Na0 O4 2.585311 1_555
Na1 O1 2.369252 1_555
Na1 O26 2.393412 1_555
Na1 O31 2.393412 1_455
Na1 O7 2.435850 1_545
Na1 O11 2.511841 1_545
Na1 O5 2.585311 1_555
Na2 O2 2.369252 1_555
Na2 O28 2.393412 1_655
Na2 O25 2.393412 1_555
Na2 O4 2.435850 1_555
Na2 O8 2.511841 1_555
Na2 O6 2.585311 1_555
Na3 O3 2.369252 1_555
Na3 O29 2.393412 1_555
Na3 O24 2.393412 1_455
Na3 O5 2.435850 1_555
Na3 O9 2.511841 1_555
Na3 O7 2.585311 1_555
H0 O8 1.094750 1_555
H0 O12 1.383951 1_555
H0 Rb2 3.133432 1_655
H0 Rb7 3.133432 1_555
H1 O9 1.094750 1_555
H1 O13 1.383951 1_555
H1 Rb3 3.133432 1_555
H1 Rb6 3.133432 1_455
H2 O10 1.094750 1_565
H2 O14 1.383951 1_554
H2 Rb5 3.133432 1_655
H2 Rb0 3.133432 1_555
H3 O11 1.094750 1_545
H3 O15 1.383951 1_556
H3 Rb4 3.133432 1_555
H3 Rb1 3.133432 1_455
H4 O24 0.993979 1_555
H5 O25 0.993979 1_555
H6 O26 0.993979 1_555
H7 O27 0.993979 1_555
H8 O28 0.993979 1_555
H9 O29 0.993979 1_555
H10 O30 0.993979 1_555
H11 O31 0.993979 1_555
H12 O24 0.997823 1_555
H12 Rb1 2.910754 1_555
H13 O25 0.997823 1_555
H13 Rb0 2.910754 1_555
H14 O26 0.997823 1_565
H14 Rb3 2.910754 1_555
H15 O27 0.997823 1_545
H15 Rb2 2.910754 1_555
H16 O28 0.997823 1_555
H16 Rb5 2.910754 1_555
H17 O29 0.997823 1_555
H17 Rb4 2.910754 1_555
H18 O30 0.997823 1_545
H18 Rb7 2.910754 1_555
H19 O31 0.997823 1_565
H19 Rb6 2.910754 1_555
C0 O0 1.272132 1_555
C0 O4 1.278049 1_555
C0 O8 1.365304 1_555
C1 O1 1.272132 1_555
C1 O5 1.278049 1_555
C1 O9 1.365304 1_555
C2 O2 1.272132 1_555
C2 O6 1.278049 1_555
C2 O10 1.365304 1_555
C3 O3 1.272132 1_555
C3 O7 1.278049 1_555
C3 O11 1.365304 1_555
C4 O16 1.299501 1_555
C4 O20 1.301526 1_555
C4 O12 1.309655 1_555
C5 O17 1.299501 1_555
C5 O21 1.301526 1_555
C5 O13 1.309655 1_555
C6 O18 1.299501 1_555
C6 O22 1.301526 1_555
C6 O14 1.309655 1_555
C7 O19 1.299501 1_555
C7 O23 1.301526 1_555
C7 O15 1.309655 1_555
O0 Rb6 2.906922 1_555
O0 Rb3 2.906922 1_555
O1 Rb7 2.906922 1_555
O1 Rb2 2.906922 1_555
O2 Rb1 2.906922 1_554
O2 Rb4 2.906922 1_554
O3 Rb5 2.906922 1_556
O3 Rb0 2.906922 1_556
O4 Rb5 2.942210 1_655
O4 Rb0 2.942210 1_555
O5 Rb4 2.942210 1_555
O5 Rb1 2.942210 1_455
O6 Rb2 2.942210 1_655
O6 Rb7 2.942210 1_555
O7 Rb3 2.942210 1_555
O7 Rb6 2.942210 1_455
O8 Rb2 3.079225 1_655
O8 Rb7 3.079225 1_555
O9 Rb3 3.079225 1_555
O9 Rb6 3.079225 1_455
O10 Rb5 3.079225 1_645
O10 Rb0 3.079225 1_545
O11 Rb4 3.079225 1_565
O11 Rb1 3.079225 1_465
O12 Rb6 3.013449 1_555
O12 Rb3 3.013449 1_555
O13 Rb7 3.013449 1_555
O13 Rb2 3.013449 1_555
O14 Rb1 3.013449 1_565
O14 Rb4 3.013449 1_565
O15 Rb0 3.013449 1_545
O15 Rb5 3.013449 1_545
O16 Rb2 3.094554 1_655
O16 Rb7 3.094554 1_555
O17 Rb3 3.094554 1_555
O17 Rb6 3.094554 1_455
O18 Rb5 3.094554 1_656
O18 Rb0 3.094554 1_556
O19 Rb4 3.094554 1_554
O19 Rb1 3.094554 1_454
O20 Rb1 2.998162 1_555
O20 Rb4 2.998162 1_555
O21 Rb0 2.998162 1_555
O21 Rb5 2.998162 1_555
O22 Rb6 2.998162 1_555
O22 Rb3 2.998162 1_555
O23 Rb7 2.998162 1_555
O23 Rb2 2.998162 1_555
O24 Rb1 3.178567 1_555
O24 Rb6 3.197893 1_555
O25 Rb0 3.178567 1_555
O25 Rb7 3.197893 1_555
O26 Rb3 3.178567 1_545
O26 Rb4 3.197893 1_555
O27 Rb2 3.178567 1_565
O27 Rb5 3.197893 1_555
O28 Rb5 3.178567 1_555
O28 Rb2 3.197893 1_555
O29 Rb4 3.178567 1_555
O29 Rb3 3.197893 1_555
O30 Rb7 3.178567 1_565
O30 Rb0 3.197893 1_555
O31 Rb6 3.178567 1_545
O31 Rb1 3.197893 1_555
