# generated using pymatgen
data_PWO5
_symmetry_space_group_name_H-M   'P 1'
_cell_length_a   5.42113900
_cell_length_b   12.50136200
_cell_length_c   13.29901200
_cell_angle_alpha   90.00000000
_cell_angle_beta   90.00000000
_cell_angle_gamma   90.00000000
_symmetry_Int_Tables_number   1
_chemical_formula_structural   PWO5
_chemical_formula_sum   'P8 W8 O40'
_cell_volume   901.29560215
_cell_formula_units_Z   8
loop_
 _symmetry_equiv_pos_site_id
 _symmetry_equiv_pos_as_xyz
  1  'x, y, z'
loop_
 _atom_site_type_symbol
 _atom_site_label
 _atom_site_symmetry_multiplicity
 _atom_site_fract_x
 _atom_site_fract_y
 _atom_site_fract_z
 _atom_site_occupancy
  P  P0  1  0.23474900  0.36832500  0.51986700  1
  P  P1  1  0.23474900  0.13167500  0.51986700  1
  P  P2  1  0.76525100  0.63167500  0.48013300  1
  P  P3  1  0.26525100  0.86832500  0.01986700  1
  P  P4  1  0.76525100  0.86832500  0.48013300  1
  P  P5  1  0.73474900  0.36832500  0.98013300  1
  P  P6  1  0.26525100  0.63167500  0.01986700  1
  P  P7  1  0.73474900  0.13167500  0.98013300  1
  W  W0  1  0.75657100  0.59843900  0.84844800  1
  W  W1  1  0.75657100  0.90156100  0.84844800  1
  W  W2  1  0.74342900  0.40156100  0.34844800  1
  W  W3  1  0.74342900  0.09843900  0.34844800  1
  W  W4  1  0.25657100  0.59843900  0.65155200  1
  W  W5  1  0.24342900  0.09843900  0.15155200  1
  W  W6  1  0.25657100  0.90156100  0.65155200  1
  W  W7  1  0.24342900  0.40156100  0.15155200  1
  O  O0  1  0.24979600  0.55997700  0.11309900  1
  O  O1  1  0.74979600  0.55997700  0.38690100  1
  O  O2  1  0.48629800  0.92302200  0.75591900  1
  O  O3  1  0.25054300  0.75000000  0.66806000  1
  O  O4  1  0.75054300  0.75000000  0.83194000  1
  O  O5  1  0.51506900  0.87957900  0.96812400  1
  O  O6  1  0.51370200  0.42302200  0.24408100  1
  O  O7  1  0.74714100  0.25000000  0.93236900  1
  O  O8  1  0.75285900  0.75000000  0.43236900  1
  O  O9  1  0.48493100  0.37957900  0.03187600  1
  O  O10  1  0.95376000  0.38280700  0.04938000  1
  O  O11  1  0.25020400  0.05997700  0.61309900  1
  O  O12  1  0.75020400  0.05997700  0.88690100  1
  O  O13  1  0.48629800  0.57697800  0.75591900  1
  O  O14  1  0.25285900  0.75000000  0.06763100  1
  O  O15  1  0.01506900  0.62042100  0.53187600  1
  O  O16  1  0.98629800  0.92302200  0.74408100  1
  O  O17  1  0.54624000  0.61719300  0.54938000  1
  O  O18  1  0.98629800  0.57697800  0.74408100  1
  O  O19  1  0.98493100  0.12042100  0.46812400  1
  O  O20  1  0.24945700  0.25000000  0.16806000  1
  O  O21  1  0.95376000  0.11719300  0.04938000  1
  O  O22  1  0.54624000  0.88280700  0.54938000  1
  O  O23  1  0.98493100  0.37957900  0.46812400  1
  O  O24  1  0.75020400  0.44002300  0.88690100  1
  O  O25  1  0.48493100  0.12042100  0.03187600  1
  O  O26  1  0.01506900  0.87957900  0.53187600  1
  O  O27  1  0.04624000  0.61719300  0.95062000  1
  O  O28  1  0.74979600  0.94002300  0.38690100  1
  O  O29  1  0.45376000  0.38280700  0.45062000  1
  O  O30  1  0.25020400  0.44002300  0.61309900  1
  O  O31  1  0.01370200  0.42302200  0.25591900  1
  O  O32  1  0.45376000  0.11719300  0.45062000  1
  O  O33  1  0.01370200  0.07697800  0.25591900  1
  O  O34  1  0.24979600  0.94002300  0.11309900  1
  O  O35  1  0.24714100  0.25000000  0.56763100  1
  O  O36  1  0.51370200  0.07697800  0.24408100  1
  O  O37  1  0.51506900  0.62042100  0.96812400  1
  O  O38  1  0.04624000  0.88280700  0.95062000  1
  O  O39  1  0.74945700  0.25000000  0.33194000  1
loop_
_geom_bond_atom_site_label_1
_geom_bond_atom_site_label_2
_geom_bond_distance
_geom_bond_site_symmetry_2
O0 P6 1.532237 1_555
O0 W7 2.045667 1_555
O1 P2 1.532237 1_555
O1 W2 2.045667 1_555
O2 W6 1.883996 1_555
O2 W1 1.932096 1_555
O3 W6 1.907675 1_555
O3 W4 1.907675 1_555
O4 W1 1.907675 1_555
O4 W0 1.907675 1_555
O5 P3 1.525595 1_556
O5 W1 2.079103 1_555
O6 W2 1.883996 1_555
O6 W7 1.932096 1_555
O7 P7 1.611246 1_555
O7 P5 1.611246 1_555
O8 P2 1.611246 1_555
O8 P4 1.611246 1_555
O9 P5 1.525595 1_554
O9 W7 2.079103 1_555
O10 P5 1.513446 1_554
O10 W7 2.089790 1_655
O11 P1 1.532237 1_555
O11 W6 2.045667 1_545
O12 P7 1.532237 1_555
O12 W1 2.045667 1_545
O13 W4 1.883996 1_555
O13 W0 1.932096 1_555
O14 P6 1.611246 1_555
O14 P3 1.611246 1_555
O15 P2 1.525595 1_455
O15 W4 2.079103 1_555
O16 W1 1.883996 1_555
O16 W6 1.932096 1_655
O17 P2 1.513446 1_555
O17 W4 2.089790 1_555
O18 W0 1.883996 1_555
O18 W4 1.932096 1_655
O19 P1 1.525595 1_655
O19 W3 2.079103 1_555
O20 W7 1.907675 1_555
O20 W5 1.907675 1_555
O21 P7 1.513446 1_554
O21 W5 2.089790 1_655
O22 P4 1.513446 1_555
O22 W6 2.089790 1_555
O23 P0 1.525595 1_655
O23 W2 2.079103 1_555
O24 P5 1.532237 1_555
O24 W0 2.045667 1_555
O25 P7 1.525595 1_554
O25 W5 2.079103 1_555
O26 P4 1.525595 1_455
O26 W6 2.079103 1_555
O27 P6 1.513446 1_556
O27 W0 2.089790 1_455
O28 P4 1.532237 1_555
O28 W3 2.045667 1_565
O29 P0 1.513446 1_555
O29 W2 2.089790 1_555
O30 P0 1.532237 1_555
O30 W4 2.045667 1_555
O31 W7 1.883996 1_555
O31 W2 1.932096 1_455
O32 P1 1.513446 1_555
O32 W3 2.089790 1_555
O33 W5 1.883996 1_555
O33 W3 1.932096 1_455
O34 P3 1.532237 1_555
O34 W5 2.045667 1_565
O35 P0 1.611246 1_555
O35 P1 1.611246 1_555
O36 W3 1.883996 1_555
O36 W5 1.932096 1_555
O37 P6 1.525595 1_556
O37 W0 2.079103 1_555
O38 P3 1.513446 1_556
O38 W1 2.089790 1_455
O39 W2 1.907675 1_555
O39 W3 1.907675 1_555
