# generated using pymatgen
data_Rb2Bi(ClO4)5
_symmetry_space_group_name_H-M   'P 1'
_cell_length_a   8.29751800
_cell_length_b   10.69245877
_cell_length_c   11.83006769
_cell_angle_alpha   94.93381414
_cell_angle_beta   109.96377397
_cell_angle_gamma   105.18313143
_symmetry_Int_Tables_number   1
_chemical_formula_structural   Rb2Bi(ClO4)5
_chemical_formula_sum   'Rb4 Bi2 Cl10 O40'
_cell_volume   934.09475505
_cell_formula_units_Z   2
loop_
 _symmetry_equiv_pos_site_id
 _symmetry_equiv_pos_as_xyz
  1  'x, y, z'
loop_
 _atom_site_type_symbol
 _atom_site_label
 _atom_site_symmetry_multiplicity
 _atom_site_fract_x
 _atom_site_fract_y
 _atom_site_fract_z
 _atom_site_occupancy
  Rb  Rb0  1  0.09425800  0.46593100  0.23691800  1
  Rb  Rb1  1  0.43054100  0.11215400  0.20932700  1
  Rb  Rb2  1  0.90574200  0.53406900  0.76308200  1
  Rb  Rb3  1  0.56945900  0.88784600  0.79067300  1
  Bi  Bi0  1  0.74386600  0.78090100  0.27921000  1
  Bi  Bi1  1  0.25613400  0.21909900  0.72079000  1
  Cl  Cl0  1  0.70898900  0.47312900  0.37178000  1
  Cl  Cl1  1  0.45156600  0.79623000  0.41525100  1
  Cl  Cl2  1  0.00808900  0.10281400  0.35911200  1
  Cl  Cl3  1  0.99191100  0.89718600  0.64088800  1
  Cl  Cl4  1  0.37372200  0.69964900  0.04541700  1
  Cl  Cl5  1  0.62627800  0.30035100  0.95458300  1
  Cl  Cl6  1  0.29101100  0.52687100  0.62822000  1
  Cl  Cl7  1  0.09510800  0.19579000  0.93626200  1
  Cl  Cl8  1  0.90489200  0.80421000  0.06373800  1
  Cl  Cl9  1  0.54843400  0.20377000  0.58474900  1
  O  O0  1  0.46894500  0.07568500  0.60796500  1
  O  O1  1  0.74240500  0.24342700  0.63227300  1
  O  O2  1  0.91721600  0.11076500  0.91381700  1
  O  O3  1  0.91402600  0.71830400  0.15910100  1
  O  O4  1  0.93457700  0.81355500  0.71838300  1
  O  O5  1  0.20604500  0.62309500  0.05076700  1
  O  O6  1  0.19460100  0.62112300  0.62968000  1
  O  O7  1  0.51579000  0.63319900  0.09856200  1
  O  O8  1  0.52161000  0.41957100  0.29148800  1
  O  O9  1  0.26832100  0.47277100  0.50637300  1
  O  O10  1  0.25759500  0.75657300  0.36772700  1
  O  O11  1  0.82484200  0.72082500  0.94349500  1
  O  O12  1  0.44434300  0.83186200  0.12371700  1
  O  O13  1  0.21328600  0.11854100  0.92197400  1
  O  O14  1  0.08692500  0.17669800  0.48595400  1
  O  O15  1  0.18978100  0.94090600  0.68140600  1
  O  O16  1  0.64757300  0.29173900  0.07951200  1
  O  O17  1  0.19974800  0.41360700  0.68222700  1
  O  O18  1  0.73167900  0.52722900  0.49362700  1
  O  O19  1  0.81021900  0.05909400  0.31859400  1
  O  O20  1  0.93533700  0.01629700  0.64645500  1
  O  O21  1  0.49758400  0.30485700  0.65595500  1
  O  O22  1  0.35242700  0.70826100  0.92048800  1
  O  O23  1  0.80025200  0.58639300  0.31777300  1
  O  O24  1  0.06466300  0.98370300  0.35354500  1
  O  O25  1  0.50241600  0.69514300  0.34404500  1
  O  O26  1  0.08597400  0.28169600  0.84089900  1
  O  O27  1  0.08278400  0.88923500  0.08618300  1
  O  O28  1  0.48421000  0.36680100  0.90143800  1
  O  O29  1  0.06542300  0.18644500  0.28161700  1
  O  O30  1  0.79395500  0.37690500  0.94923300  1
  O  O31  1  0.91307500  0.82330200  0.51404600  1
  O  O32  1  0.52598100  0.79002400  0.54294700  1
  O  O33  1  0.78671400  0.88145900  0.07802600  1
  O  O34  1  0.17515800  0.27917500  0.05650500  1
  O  O35  1  0.80539900  0.37887700  0.37032000  1
  O  O36  1  0.47839000  0.58042900  0.70851200  1
  O  O37  1  0.47401900  0.20997600  0.45705300  1
  O  O38  1  0.55565700  0.16813800  0.87628300  1
  O  O39  1  0.53105500  0.92431500  0.39203500  1
loop_
_geom_bond_atom_site_label_1
_geom_bond_atom_site_label_2
_geom_bond_distance
_geom_bond_site_symmetry_2
Bi0 O23 2.297739 1_555
Bi0 O25 2.377155 1_555
Bi0 O7 2.394770 1_555
Bi0 O3 2.482287 1_555
Bi0 O31 2.584807 1_555
Bi0 O24 2.758792 1_655
Bi0 O12 2.759953 1_555
Bi0 O33 2.786527 1_555
Bi0 O19 2.845498 1_565
Bi1 O17 2.297739 1_555
Bi1 O21 2.377155 1_555
Bi1 O28 2.394770 1_555
Bi1 O26 2.482287 1_555
Bi1 O14 2.584807 1_555
Bi1 O20 2.758792 1_455
Bi1 O38 2.759953 1_555
Bi1 O13 2.786527 1_555
Bi1 O15 2.845498 1_545
Cl0 O18 1.435993 1_555
Cl0 O8 1.441916 1_555
Cl0 O35 1.443816 1_555
Cl0 O23 1.559301 1_555
Cl1 O32 1.438573 1_555
Cl1 O10 1.438723 1_555
Cl1 O39 1.449600 1_555
Cl1 O25 1.543004 1_555
Cl2 O29 1.443058 1_555
Cl2 O14 1.469281 1_555
Cl2 O19 1.471710 1_455
Cl2 O24 1.471928 1_545
Cl3 O4 1.443058 1_555
Cl3 O31 1.469281 1_555
Cl3 O15 1.471710 1_655
Cl3 O20 1.471928 1_565
Cl4 O22 1.441372 1_554
Cl4 O5 1.443002 1_555
Cl4 O12 1.473120 1_555
Cl4 O7 1.516305 1_555
Cl5 O16 1.441372 1_556
Cl5 O30 1.443002 1_555
Cl5 O38 1.473120 1_555
Cl5 O28 1.516305 1_555
Cl6 O9 1.435993 1_555
Cl6 O36 1.441916 1_555
Cl6 O6 1.443816 1_555
Cl6 O17 1.559301 1_555
Cl7 O2 1.436560 1_455
Cl7 O34 1.444310 1_556
Cl7 O13 1.478440 1_555
Cl7 O26 1.509478 1_555
Cl8 O27 1.436560 1_655
Cl8 O11 1.444310 1_554
Cl8 O33 1.478440 1_555
Cl8 O3 1.509478 1_555
Cl9 O37 1.438573 1_555
Cl9 O1 1.438723 1_555
Cl9 O0 1.449600 1_555
Cl9 O21 1.543004 1_555
O0 Rb3 3.129624 1_545
O1 Rb2 3.069794 1_555
O2 Rb3 3.009888 1_545
O3 Rb0 3.459310 1_655
O4 Rb2 3.041553 1_555
O5 Rb0 3.122311 1_555
O5 Rb2 3.332750 1_454
O6 Rb2 3.281567 1_455
O6 Rb3 3.436478 1_555
O8 Rb1 3.157251 1_555
O8 Rb0 3.556533 1_555
O9 Rb0 3.002223 1_555
O10 Rb0 3.069794 1_555
O11 Rb2 3.152891 1_555
O11 Rb3 3.296933 1_555
O12 Rb1 3.123745 1_565
O13 Rb1 3.275690 1_556
O15 Rb3 3.193636 1_555
O16 Rb1 3.142133 1_555
O16 Rb0 3.427586 1_655
O17 Rb2 3.398913 1_455
O18 Rb2 3.002223 1_555
O19 Rb1 3.193636 1_555
O21 Rb2 3.357023 1_555
O22 Rb3 3.142133 1_555
O22 Rb2 3.427586 1_455
O23 Rb0 3.398913 1_655
O25 Rb0 3.357023 1_555
O26 Rb2 3.459310 1_455
O27 Rb1 3.009888 1_565
O29 Rb0 3.041553 1_555
O30 Rb2 3.122311 1_555
O30 Rb0 3.332750 1_656
O32 Rb3 2.892373 1_555
O33 Rb3 3.275690 1_554
O34 Rb0 3.152891 1_555
O34 Rb1 3.296933 1_555
O35 Rb0 3.281567 1_655
O35 Rb1 3.436478 1_555
O36 Rb3 3.157251 1_555
O36 Rb2 3.556533 1_555
O37 Rb1 2.892373 1_555
O38 Rb3 3.123745 1_545
O39 Rb1 3.129624 1_565
