# generated using pymatgen
data_NaLiY2F8
_symmetry_space_group_name_H-M   'P 1'
_cell_length_a   6.76251058
_cell_length_b   6.76251058
_cell_length_c   7.12761500
_cell_angle_alpha   90.00000000
_cell_angle_beta   90.00000000
_cell_angle_gamma   103.20362027
_symmetry_Int_Tables_number   1
_chemical_formula_structural   NaLiY2F8
_chemical_formula_sum   'Na2 Li2 Y4 F16'
_cell_volume   317.34003504
_cell_formula_units_Z   2
loop_
 _symmetry_equiv_pos_site_id
 _symmetry_equiv_pos_as_xyz
  1  'x, y, z'
loop_
 _atom_site_type_symbol
 _atom_site_label
 _atom_site_symmetry_multiplicity
 _atom_site_fract_x
 _atom_site_fract_y
 _atom_site_fract_z
 _atom_site_occupancy
  Na  Na0  1  0.65800100  0.65800100  0.25000000  1
  Na  Na1  1  0.34199900  0.34199900  0.75000000  1
  Li  Li0  1  0.00000000  0.00000000  0.00000000  1
  Li  Li1  1  0.00000000  0.00000000  0.50000000  1
  Y  Y0  1  0.92332800  0.54995400  0.75000000  1
  Y  Y1  1  0.54995400  0.92332800  0.75000000  1
  Y  Y2  1  0.07667200  0.45004600  0.25000000  1
  Y  Y3  1  0.45004600  0.07667200  0.25000000  1
  F  F0  1  0.25419300  0.69132600  0.75000000  1
  F  F1  1  0.30867400  0.74580700  0.25000000  1
  F  F2  1  0.06398500  0.33917800  0.55084000  1
  F  F3  1  0.93601500  0.66082200  0.44916000  1
  F  F4  1  0.74580700  0.30867400  0.25000000  1
  F  F5  1  0.33917800  0.06398500  0.55084000  1
  F  F6  1  0.93601500  0.66082200  0.05084000  1
  F  F7  1  0.69132600  0.25419300  0.75000000  1
  F  F8  1  0.08793200  0.08793200  0.25000000  1
  F  F9  1  0.60878900  0.60878900  0.75000000  1
  F  F10  1  0.33917800  0.06398500  0.94916000  1
  F  F11  1  0.91206800  0.91206800  0.75000000  1
  F  F12  1  0.66082200  0.93601500  0.44916000  1
  F  F13  1  0.39121100  0.39121100  0.25000000  1
  F  F14  1  0.06398500  0.33917800  0.94916000  1
  F  F15  1  0.66082200  0.93601500  0.05084000  1
loop_
_geom_bond_atom_site_label_1
_geom_bond_atom_site_label_2
_geom_bond_distance
_geom_bond_site_symmetry_2
F0 Y0 2.223310 1_455
F0 Y1 2.242397 1_555
F0 Na1 2.563977 1_555
F1 Y3 2.223310 1_565
F1 Y2 2.242397 1_555
F1 Na0 2.563977 1_555
F2 Li1 2.264108 1_555
F2 Y2 2.266715 1_555
F2 Na1 2.352389 1_555
F2 Y0 2.360278 1_455
F3 Li1 2.264108 1_665
F3 Y0 2.266715 1_555
F3 Na0 2.352389 1_555
F3 Y2 2.360278 1_655
F4 Y2 2.223310 1_655
F4 Y3 2.242397 1_555
F4 Na0 2.563977 1_555
F5 Li1 2.264108 1_555
F5 Y3 2.266715 1_555
F5 Na1 2.352389 1_555
F5 Y1 2.360278 1_545
F6 Li0 2.264108 1_665
F6 Y0 2.266715 1_554
F6 Na0 2.352389 1_555
F6 Y2 2.360278 1_655
F7 Y1 2.223310 1_545
F7 Y0 2.242397 1_555
F7 Na1 2.563977 1_555
F8 Li1 1.928949 1_555
F8 Li0 1.928949 1_555
F8 Y2 2.467306 1_555
F8 Y3 2.467306 1_555
F9 Na1 2.241223 1_555
F9 Y1 2.251523 1_555
F9 Y0 2.251523 1_555
F10 Li0 2.264108 1_556
F10 Y3 2.266715 1_556
F10 Na1 2.352389 1_555
F10 Y1 2.360278 1_545
F11 Li1 1.928949 1_665
F11 Li0 1.928949 1_666
F11 Y0 2.467306 1_555
F11 Y1 2.467306 1_555
F12 Li1 2.264108 1_665
F12 Y1 2.266715 1_555
F12 Na0 2.352389 1_555
F12 Y3 2.360278 1_565
F13 Na0 2.241223 1_555
F13 Y2 2.251523 1_555
F13 Y3 2.251523 1_555
F14 Li0 2.264108 1_556
F14 Y2 2.266715 1_556
F14 Na1 2.352389 1_555
F14 Y0 2.360278 1_455
F15 Li0 2.264108 1_665
F15 Y1 2.266715 1_554
F15 Na0 2.352389 1_555
F15 Y3 2.360278 1_565
