# generated using pymatgen
data_CaC2
_symmetry_space_group_name_H-M   'P 1'
_cell_length_a   6.08074500
_cell_length_b   6.08074500
_cell_length_c   6.08074500
_cell_angle_alpha   90.00000000
_cell_angle_beta   90.00000000
_cell_angle_gamma   90.00000000
_symmetry_Int_Tables_number   1
_chemical_formula_structural   CaC2
_chemical_formula_sum   'Ca4 C8'
_cell_volume   224.83834203
_cell_formula_units_Z   4
loop_
 _symmetry_equiv_pos_site_id
 _symmetry_equiv_pos_as_xyz
  1  'x, y, z'
loop_
 _atom_site_type_symbol
 _atom_site_label
 _atom_site_symmetry_multiplicity
 _atom_site_fract_x
 _atom_site_fract_y
 _atom_site_fract_z
 _atom_site_occupancy
  Ca  Ca0  1  0.75000000  0.75000000  0.25000000  1
  Ca  Ca1  1  0.25000000  0.25000000  0.25000000  1
  Ca  Ca2  1  0.75000000  0.25000000  0.75000000  1
  Ca  Ca3  1  0.25000000  0.75000000  0.75000000  1
  C  C0  1  0.09113900  0.90886100  0.09113900  1
  C  C1  1  0.59113900  0.40886100  0.40886100  1
  C  C2  1  0.59113900  0.59113900  0.59113900  1
  C  C3  1  0.90886100  0.09113900  0.09113900  1
  C  C4  1  0.09113900  0.09113900  0.90886100  1
  C  C5  1  0.40886100  0.40886100  0.59113900  1
  C  C6  1  0.90886100  0.90886100  0.90886100  1
  C  C7  1  0.40886100  0.59113900  0.40886100  1
loop_
_geom_bond_atom_site_label_1
_geom_bond_atom_site_label_2
_geom_bond_distance
_geom_bond_site_symmetry_2
C0 C6 1.567495 1_454
C0 C3 1.567495 1_465
C0 C4 1.567495 1_564
C0 Ca3 2.483815 1_554
C0 Ca0 2.483815 1_455
C0 Ca1 2.483815 1_565
C1 C7 1.567495 1_555
C1 C2 1.567495 1_555
C1 C5 1.567495 1_555
C1 Ca1 2.483815 1_555
C1 Ca2 2.483815 1_555
C1 Ca0 2.483815 1_555
C2 C7 1.567495 1_555
C2 C5 1.567495 1_555
C2 Ca2 2.483815 1_555
C2 Ca3 2.483815 1_555
C2 Ca0 2.483815 1_555
C3 C6 1.567495 1_544
C3 C4 1.567495 1_654
C3 Ca2 2.483815 1_554
C3 Ca0 2.483815 1_545
C3 Ca1 2.483815 1_655
C4 C6 1.567495 1_445
C4 Ca3 2.483815 1_545
C4 Ca2 2.483815 1_455
C4 Ca1 2.483815 1_556
C5 C7 1.567495 1_555
C5 Ca1 2.483815 1_555
C5 Ca2 2.483815 1_555
C5 Ca3 2.483815 1_555
C6 Ca3 2.483815 1_655
C6 Ca0 2.483815 1_556
C6 Ca2 2.483815 1_565
C7 Ca1 2.483815 1_555
C7 Ca3 2.483815 1_555
C7 Ca0 2.483815 1_555
