# generated using pymatgen
data_CaBiCO4F
_symmetry_space_group_name_H-M   'P 1'
_cell_length_a   5.40911100
_cell_length_b   5.42051900
_cell_length_c   13.82632900
_cell_angle_alpha   90.00000000
_cell_angle_beta   90.00000000
_cell_angle_gamma   90.00000000
_symmetry_Int_Tables_number   1
_chemical_formula_structural   CaBiCO4F
_chemical_formula_sum   'Ca4 Bi4 C4 O16 F4'
_cell_volume   405.39057875
_cell_formula_units_Z   4
loop_
 _symmetry_equiv_pos_site_id
 _symmetry_equiv_pos_as_xyz
  1  'x, y, z'
loop_
 _atom_site_type_symbol
 _atom_site_label
 _atom_site_symmetry_multiplicity
 _atom_site_fract_x
 _atom_site_fract_y
 _atom_site_fract_z
 _atom_site_occupancy
  Ca  Ca0  1  0.00000000  0.75000000  0.40075300  1
  Ca  Ca1  1  0.00000000  0.25000000  0.59924700  1
  Ca  Ca2  1  0.50000000  0.25000000  0.40075300  1
  Ca  Ca3  1  0.50000000  0.75000000  0.59924700  1
  Bi  Bi0  1  0.50000000  0.25000000  0.09399900  1
  Bi  Bi1  1  0.00000000  0.25000000  0.90600100  1
  Bi  Bi2  1  0.00000000  0.75000000  0.09399900  1
  Bi  Bi3  1  0.50000000  0.75000000  0.90600100  1
  C  C0  1  0.00000000  0.25000000  0.25692500  1
  C  C1  1  0.50000000  0.75000000  0.25692500  1
  C  C2  1  0.00000000  0.75000000  0.74307500  1
  C  C3  1  0.50000000  0.25000000  0.74307500  1
  O  O0  1  0.64918900  0.10405200  0.69875800  1
  O  O1  1  0.14918900  0.89594800  0.69875800  1
  O  O2  1  0.75000000  0.49770600  0.00000000  1
  O  O3  1  0.14918900  0.39594800  0.30124200  1
  O  O4  1  0.35081100  0.89594800  0.30124200  1
  O  O5  1  0.85081100  0.10405200  0.30124200  1
  O  O6  1  0.35081100  0.39594800  0.69875800  1
  O  O7  1  0.25000000  0.00229400  0.00000000  1
  O  O8  1  0.25000000  0.50229400  0.00000000  1
  O  O9  1  0.00000000  0.25000000  0.16076600  1
  O  O10  1  0.64918900  0.60405200  0.30124200  1
  O  O11  1  0.50000000  0.25000000  0.83923400  1
  O  O12  1  0.00000000  0.75000000  0.83923400  1
  O  O13  1  0.85081100  0.60405200  0.69875800  1
  O  O14  1  0.50000000  0.75000000  0.16076600  1
  O  O15  1  0.75000000  0.99770600  0.00000000  1
  F  F0  1  0.25000000  0.51326500  0.50000000  1
  F  F1  1  0.25000000  0.01326500  0.50000000  1
  F  F2  1  0.75000000  0.98673500  0.50000000  1
  F  F3  1  0.75000000  0.48673500  0.50000000  1
loop_
_geom_bond_atom_site_label_1
_geom_bond_atom_site_label_2
_geom_bond_distance
_geom_bond_site_symmetry_2
Ca0 F2 2.314804 1_455
Ca0 F0 2.314804 1_555
Ca0 F1 2.397513 1_565
Ca0 F3 2.397513 1_455
Ca0 O4 2.473798 1_555
Ca0 O10 2.473798 1_455
Ca0 O5 2.495468 1_465
Ca0 O3 2.495468 1_555
Ca1 F1 2.314804 1_555
Ca1 F3 2.314804 1_455
Ca1 F0 2.397513 1_555
Ca1 F2 2.397513 1_445
Ca1 O6 2.473798 1_555
Ca1 O0 2.473798 1_455
Ca1 O13 2.495468 1_455
Ca1 O1 2.495468 1_545
Ca2 F3 2.314804 1_555
Ca2 F1 2.314804 1_555
Ca2 F0 2.397513 1_555
Ca2 F2 2.397513 1_545
Ca2 O5 2.473798 1_555
Ca2 O3 2.473798 1_555
Ca2 O4 2.495468 1_545
Ca2 O10 2.495468 1_555
Ca3 F2 2.314804 1_555
Ca3 F0 2.314804 1_555
Ca3 F3 2.397513 1_555
Ca3 F1 2.397513 1_565
Ca3 O13 2.473798 1_555
Ca3 O1 2.473798 1_555
Ca3 O0 2.495468 1_565
Ca3 O6 2.495468 1_555
Bi0 O2 2.306643 1_555
Bi0 O7 2.306643 1_555
Bi0 O8 2.321208 1_555
Bi0 O15 2.321208 1_545
Bi1 O2 2.306643 1_456
Bi1 O7 2.306643 1_556
Bi1 O15 2.321208 1_446
Bi1 O8 2.321208 1_556
Bi2 O15 2.306643 1_455
Bi2 O8 2.306643 1_555
Bi2 O2 2.321208 1_455
Bi2 O7 2.321208 1_565
Bi3 O8 2.306643 1_556
Bi3 O15 2.306643 1_556
Bi3 O7 2.321208 1_566
Bi3 O2 2.321208 1_556
C0 O5 1.285508 1_455
C0 O3 1.285508 1_555
C0 O9 1.329526 1_555
C1 O4 1.285508 1_555
C1 O10 1.285508 1_555
C1 O14 1.329526 1_555
C2 O1 1.285508 1_555
C2 O13 1.285508 1_455
C2 O12 1.329526 1_555
C3 O0 1.285508 1_555
C3 O6 1.285508 1_555
C3 O11 1.329526 1_555
