# generated using pymatgen
data_SiO2
_symmetry_space_group_name_H-M   'P 1'
_cell_length_a   5.76498251
_cell_length_b   5.76498251
_cell_length_c   11.31430000
_cell_angle_alpha   90.00000000
_cell_angle_beta   90.00000000
_cell_angle_gamma   94.07576734
_symmetry_Int_Tables_number   1
_chemical_formula_structural   SiO2
_chemical_formula_sum   'Si8 O16'
_cell_volume   375.08001654
_cell_formula_units_Z   8
loop_
 _symmetry_equiv_pos_site_id
 _symmetry_equiv_pos_as_xyz
  1  'x, y, z'
loop_
 _atom_site_type_symbol
 _atom_site_label
 _atom_site_symmetry_multiplicity
 _atom_site_fract_x
 _atom_site_fract_y
 _atom_site_fract_z
 _atom_site_occupancy
  Si  Si0  1  0.25974400  0.13154400  0.12123700  1
  Si  Si1  1  0.36845600  0.24025600  0.62123700  1
  Si  Si2  1  0.74025600  0.86845600  0.12123700  1
  Si  Si3  1  0.75974400  0.63154400  0.37876300  1
  Si  Si4  1  0.63154400  0.75974400  0.62123700  1
  Si  Si5  1  0.24025600  0.36845600  0.37876300  1
  Si  Si6  1  0.86845600  0.74025600  0.87876300  1
  Si  Si7  1  0.13154400  0.25974400  0.87876300  1
  O  O0  1  0.28871400  0.28871400  0.00000000  1
  O  O1  1  0.50000000  0.00000000  0.12276900  1
  O  O2  1  0.00000000  0.00000000  0.11376000  1
  O  O3  1  0.25000000  0.25000000  0.75000000  1
  O  O4  1  0.71128600  0.71128600  0.00000000  1
  O  O5  1  0.50000000  0.00000000  0.62276900  1
  O  O6  1  0.00000000  0.50000000  0.37723100  1
  O  O7  1  0.50000000  0.50000000  0.38624000  1
  O  O8  1  0.78871400  0.78871400  0.50000000  1
  O  O9  1  0.25000000  0.25000000  0.25000000  1
  O  O10  1  0.75000000  0.75000000  0.25000000  1
  O  O11  1  0.21128600  0.21128600  0.50000000  1
  O  O12  1  0.50000000  0.50000000  0.61376000  1
  O  O13  1  0.00000000  0.00000000  0.88624000  1
  O  O14  1  0.00000000  0.50000000  0.87723100  1
  O  O15  1  0.75000000  0.75000000  0.75000000  1
loop_
_geom_bond_atom_site_label_1
_geom_bond_atom_site_label_2
_geom_bond_distance
_geom_bond_site_symmetry_2
O0 Si0 1.645892 1_555
O0 Si7 1.645892 1_554
O1 Si0 1.625770 1_555
O1 Si2 1.625770 1_545
O2 Si0 1.631899 1_555
O2 Si2 1.631899 1_445
O3 Si1 1.611647 1_555
O3 Si7 1.611647 1_555
O4 Si2 1.645892 1_555
O4 Si6 1.645892 1_554
O5 Si1 1.625770 1_555
O5 Si4 1.625770 1_545
O6 Si5 1.625770 1_555
O6 Si3 1.625770 1_455
O7 Si3 1.631899 1_555
O7 Si5 1.631899 1_555
O8 Si3 1.645892 1_555
O8 Si4 1.645892 1_555
O9 Si5 1.611647 1_555
O9 Si0 1.611647 1_555
O10 Si2 1.611647 1_555
O10 Si3 1.611647 1_555
O11 Si5 1.645892 1_555
O11 Si1 1.645892 1_555
O12 Si4 1.631899 1_555
O12 Si1 1.631899 1_555
O13 Si6 1.631899 1_445
O13 Si7 1.631899 1_555
O14 Si6 1.625770 1_455
O14 Si7 1.625770 1_555
O15 Si4 1.611647 1_555
O15 Si6 1.611647 1_555
