# generated using pymatgen
data_K3Gd5(PO4)6
_symmetry_space_group_name_H-M   'P 1'
_cell_length_a   9.49727118
_cell_length_b   9.49727118
_cell_length_c   18.27290609
_cell_angle_alpha   67.60379289
_cell_angle_beta   67.60379289
_cell_angle_gamma   43.28593747
_symmetry_Int_Tables_number   1
_chemical_formula_structural   K3Gd5(PO4)6
_chemical_formula_sum   'K6 Gd10 P12 O48'
_cell_volume   1030.75772869
_cell_formula_units_Z   2
loop_
 _symmetry_equiv_pos_site_id
 _symmetry_equiv_pos_as_xyz
  1  'x, y, z'
loop_
 _atom_site_type_symbol
 _atom_site_label
 _atom_site_symmetry_multiplicity
 _atom_site_fract_x
 _atom_site_fract_y
 _atom_site_fract_z
 _atom_site_occupancy
  K  K0  1  0.02140000  0.82446300  0.57474500  1
  K  K1  1  0.17074800  0.82925200  0.75000000  1
  K  K2  1  0.82925200  0.17074800  0.25000000  1
  K  K3  1  0.17553700  0.97860000  0.92525500  1
  K  K4  1  0.82446300  0.02140000  0.07474500  1
  K  K5  1  0.97860000  0.17553700  0.42525500  1
  Gd  Gd0  1  0.34443400  0.09634000  0.20783800  1
  Gd  Gd1  1  0.09634000  0.34443400  0.70783800  1
  Gd  Gd2  1  0.73123200  0.55837900  0.01924500  1
  Gd  Gd3  1  0.90366000  0.65556600  0.29216200  1
  Gd  Gd4  1  0.26876800  0.44162100  0.98075500  1
  Gd  Gd5  1  0.55837900  0.73123200  0.51924500  1
  Gd  Gd6  1  0.36266500  0.63733500  0.25000000  1
  Gd  Gd7  1  0.44162100  0.26876800  0.48075500  1
  Gd  Gd8  1  0.63733500  0.36266500  0.75000000  1
  Gd  Gd9  1  0.65556600  0.90366000  0.79216200  1
  P  P0  1  0.17355300  0.41187500  0.84174600  1
  P  P1  1  0.58812500  0.82644700  0.65825400  1
  P  P2  1  0.94907400  0.77847600  0.41342900  1
  P  P3  1  0.77847600  0.94907400  0.91342900  1
  P  P4  1  0.52188900  0.33010800  0.61793200  1
  P  P5  1  0.66989200  0.47811100  0.88206800  1
  P  P6  1  0.05092600  0.22152400  0.58657100  1
  P  P7  1  0.41187500  0.17355300  0.34174600  1
  P  P8  1  0.33010800  0.52188900  0.11793200  1
  P  P9  1  0.82644700  0.58812500  0.15825400  1
  P  P10  1  0.47811100  0.66989200  0.38206800  1
  P  P11  1  0.22152400  0.05092600  0.08657100  1
  O  O0  1  0.99684200  0.19945400  0.07271200  1
  O  O1  1  0.03608800  0.77889100  0.31972500  1
  O  O2  1  0.15059200  0.64866300  0.18666100  1
  O  O3  1  0.80054600  0.00315800  0.42728800  1
  O  O4  1  0.41331900  0.98758600  0.71625000  1
  O  O5  1  0.74399800  0.35509200  0.96395800  1
  O  O6  1  0.58668100  0.01241400  0.28375000  1
  O  O7  1  0.33109500  0.42941000  0.82997400  1
  O  O8  1  0.62386800  0.12892800  0.96116200  1
  O  O9  1  0.96391200  0.22110900  0.68027500  1
  O  O10  1  0.68650100  0.60696800  0.37516100  1
  O  O11  1  0.16172000  0.29610300  0.57491100  1
  O  O12  1  0.19945400  0.99684200  0.57271200  1
  O  O13  1  0.83828000  0.70389700  0.42508900  1
  O  O14  1  0.48479300  0.52560100  0.86984000  1
  O  O15  1  0.25600200  0.64490800  0.03604200  1
  O  O16  1  0.01241400  0.58668100  0.78375000  1
  O  O17  1  0.87107200  0.37613200  0.53883800  1
  O  O18  1  0.47439900  0.51520700  0.63016000  1
  O  O19  1  0.37613200  0.87107200  0.03883800  1
  O  O20  1  0.64490700  0.25600200  0.53604200  1
  O  O21  1  0.71467200  0.79573100  0.18217400  1
  O  O22  1  0.20426900  0.28532800  0.31782600  1
  O  O23  1  0.42941000  0.33109500  0.32997400  1
  O  O24  1  0.92299600  0.58346300  0.06880600  1
  O  O25  1  0.77889100  0.03608800  0.81972500  1
  O  O26  1  0.60696800  0.68650100  0.87516100  1
  O  O27  1  0.29610300  0.16172000  0.07491100  1
  O  O28  1  0.39303200  0.31349900  0.12483900  1
  O  O29  1  0.31349900  0.39303200  0.62483900  1
  O  O30  1  0.00315800  0.80054600  0.92728800  1
  O  O31  1  0.41653700  0.07700400  0.43119400  1
  O  O32  1  0.98758600  0.41331900  0.21625000  1
  O  O33  1  0.66890500  0.57059000  0.17002600  1
  O  O34  1  0.58346300  0.92299600  0.56880600  1
  O  O35  1  0.52560100  0.48479300  0.36984000  1
  O  O36  1  0.22110900  0.96391200  0.18027500  1
  O  O37  1  0.35133700  0.84940800  0.31333900  1
  O  O38  1  0.28532800  0.20426900  0.81782600  1
  O  O39  1  0.79573100  0.71467200  0.68217400  1
  O  O40  1  0.70389700  0.83828000  0.92508900  1
  O  O41  1  0.12892800  0.62386800  0.46116200  1
  O  O42  1  0.64866300  0.15059200  0.68666100  1
  O  O43  1  0.51520700  0.47439900  0.13016000  1
  O  O44  1  0.84940800  0.35133700  0.81333900  1
  O  O45  1  0.35509300  0.74399800  0.46395800  1
  O  O46  1  0.57059000  0.66890500  0.67002600  1
  O  O47  1  0.07700400  0.41653700  0.93119400  1
loop_
_geom_bond_atom_site_label_1
_geom_bond_atom_site_label_2
_geom_bond_distance
_geom_bond_site_symmetry_2
K0 O45 2.736768 1_555
K0 O41 2.746895 1_555
K0 O29 2.801931 1_555
K0 O39 2.832325 1_455
K0 O20 2.909565 1_465
K0 O12 3.078546 1_555
K0 O42 3.107133 1_465
K0 O3 3.190530 1_465
K0 O18 3.289063 1_555
K1 O25 2.642501 1_465
K1 O9 2.642501 1_465
K1 O7 2.814753 1_555
K1 O46 2.814753 1_555
K1 O12 3.021927 1_555
K1 O30 3.021927 1_555
K1 O14 3.106433 1_555
K1 O18 3.106433 1_555
K2 O1 2.642501 1_645
K2 O36 2.642501 1_645
K2 O23 2.814753 1_555
K2 O33 2.814753 1_555
K2 O3 3.021927 1_555
K2 O0 3.021927 1_555
K2 O43 3.106433 1_555
K2 O35 3.106433 1_555
K3 O15 2.736762 1_556
K3 O19 2.746895 1_556
K3 O26 2.801931 1_555
K3 O38 2.832325 1_565
K3 O5 2.909562 1_465
K3 O30 3.078546 1_555
K3 O44 3.107133 1_465
K3 O0 3.190530 1_466
K3 O14 3.289063 1_555
K4 O5 2.736762 1_554
K4 O8 2.746895 1_554
K4 O28 2.801931 1_555
K4 O21 2.832325 1_545
K4 O15 2.909562 1_645
K4 O0 3.078546 1_555
K4 O2 3.107133 1_645
K4 O30 3.190530 1_644
K4 O43 3.289063 1_555
K5 O20 2.736768 1_555
K5 O17 2.746895 1_555
K5 O10 2.801931 1_555
K5 O22 2.832325 1_655
K5 O45 2.909565 1_645
K5 O3 3.078546 1_555
K5 O37 3.107133 1_645
K5 O12 3.190530 1_645
K5 O35 3.289063 1_555
Gd0 O28 2.288161 1_555
Gd0 O37 2.376543 1_545
Gd0 O32 2.382031 1_455
Gd0 O27 2.404467 1_555
Gd0 O21 2.425527 1_545
Gd0 O22 2.502899 1_555
Gd0 O36 2.506827 1_545
Gd0 O6 2.602338 1_555
Gd1 O29 2.288161 1_555
Gd1 O44 2.376543 1_455
Gd1 O4 2.382031 1_545
Gd1 O11 2.404467 1_555
Gd1 O39 2.425527 1_455
Gd1 O38 2.502899 1_555
Gd1 O9 2.506827 1_455
Gd1 O16 2.602338 1_555
Gd2 O19 2.372772 1_555
Gd2 O0 2.399790 1_555
Gd2 O5 2.411425 1_554
Gd2 O40 2.438140 1_554
Gd2 O24 2.499342 1_555
Gd2 O47 2.524340 1_654
Gd2 O33 2.618351 1_555
Gd2 O43 2.633443 1_555
Gd2 O26 2.764239 1_554
Gd3 O10 2.288161 1_555
Gd3 O2 2.376543 1_655
Gd3 O6 2.382031 1_565
Gd3 O13 2.404467 1_555
Gd3 O22 2.425527 1_655
Gd3 O21 2.502899 1_555
Gd3 O1 2.506827 1_655
Gd3 O32 2.602338 1_555
Gd4 O8 2.372772 1_555
Gd4 O30 2.399790 1_555
Gd4 O15 2.411425 1_556
Gd4 O27 2.438140 1_556
Gd4 O47 2.499342 1_555
Gd4 O24 2.524340 1_456
Gd4 O7 2.618351 1_555
Gd4 O14 2.633443 1_555
Gd4 O28 2.764239 1_556
Gd5 O17 2.372772 1_555
Gd5 O12 2.399790 1_555
Gd5 O45 2.411417 1_555
Gd5 O13 2.438140 1_555
Gd5 O34 2.499342 1_555
Gd5 O31 2.524340 1_565
Gd5 O46 2.618351 1_555
Gd5 O18 2.633443 1_555
Gd5 O10 2.764239 1_555
Gd6 O36 2.296485 1_555
Gd6 O1 2.296485 1_555
Gd6 O33 2.404040 1_555
Gd6 O23 2.404040 1_555
Gd6 O43 2.487896 1_555
Gd6 O35 2.487896 1_555
Gd6 O2 2.602647 1_555
Gd6 O37 2.602647 1_555
Gd7 O41 2.372772 1_555
Gd7 O3 2.399790 1_555
Gd7 O20 2.411417 1_555
Gd7 O11 2.438140 1_555
Gd7 O31 2.499342 1_555
Gd7 O34 2.524340 1_545
Gd7 O23 2.618351 1_555
Gd7 O35 2.633443 1_555
Gd7 O29 2.764239 1_555
Gd8 O25 2.296485 1_555
Gd8 O9 2.296485 1_555
Gd8 O46 2.404040 1_555
Gd8 O7 2.404040 1_555
Gd8 O14 2.487896 1_555
Gd8 O18 2.487896 1_555
Gd8 O42 2.602647 1_555
Gd8 O44 2.602647 1_555
Gd9 O26 2.288161 1_555
Gd9 O42 2.376543 1_565
Gd9 O16 2.382031 1_655
Gd9 O40 2.404467 1_555
Gd9 O38 2.425527 1_565
Gd9 O39 2.502899 1_555
Gd9 O25 2.506827 1_565
Gd9 O4 2.602338 1_555
O0 P11 1.537734 1_655
O1 P2 1.592506 1_455
O2 P8 1.570253 1_555
O3 P2 1.537734 1_545
O4 P1 1.554849 1_555
O5 P5 1.540338 1_555
O6 P7 1.554849 1_555
O7 P0 1.550126 1_555
O8 P3 1.530469 1_545
O9 P6 1.592506 1_655
O10 P10 1.560525 1_555
O11 P6 1.566372 1_555
O12 P6 1.537734 1_565
O13 P2 1.566372 1_555
O14 P5 1.553023 1_555
O15 P8 1.540338 1_555
O16 P0 1.554849 1_555
O17 P6 1.530469 1_655
O18 P4 1.553023 1_555
O19 P11 1.530469 1_565
O20 P4 1.540337 1_555
O21 P9 1.568884 1_555
O22 P7 1.568884 1_555
O23 P7 1.550126 1_555
O24 P9 1.538910 1_555
O25 P3 1.592506 1_545
O26 P5 1.560525 1_555
O27 P11 1.566372 1_555
O28 P8 1.560525 1_555
O29 P4 1.560525 1_555
O30 P3 1.537734 1_455
O31 P7 1.538910 1_555
O32 P9 1.554849 1_555
O33 P9 1.550126 1_555
O34 P1 1.538910 1_555
O35 P10 1.553023 1_555
O36 P11 1.592506 1_565
O37 P10 1.570253 1_555
O38 P0 1.568884 1_555
O39 P1 1.568884 1_555
O40 P3 1.566372 1_555
O41 P2 1.530469 1_455
O42 P4 1.570253 1_555
O43 P8 1.553023 1_555
O44 P5 1.570253 1_555
O45 P10 1.540337 1_555
O46 P1 1.550126 1_555
O47 P0 1.538910 1_555
