# generated using pymatgen
data_CaInCu4
_symmetry_space_group_name_H-M   'P 1'
_cell_length_a   5.08212819
_cell_length_b   5.08213301
_cell_length_c   5.08213813
_cell_angle_alpha   59.99997327
_cell_angle_beta   59.99994187
_cell_angle_gamma   59.99990734
_symmetry_Int_Tables_number   1
_chemical_formula_structural   CaInCu4
_chemical_formula_sum   'Ca1 In1 Cu4'
_cell_volume   92.81593143
_cell_formula_units_Z   1
loop_
 _symmetry_equiv_pos_site_id
 _symmetry_equiv_pos_as_xyz
  1  'x, y, z'
loop_
 _atom_site_type_symbol
 _atom_site_label
 _atom_site_symmetry_multiplicity
 _atom_site_fract_x
 _atom_site_fract_y
 _atom_site_fract_z
 _atom_site_occupancy
  Ca  Ca0  1  0.00000100  -0.00000000  0.99999900  1
  In  In0  1  0.24999900  0.25000000  0.25000000  1
  Cu  Cu0  1  0.62427484  0.12717247  0.62427584  1
  Cu  Cu1  1  0.62427484  0.62427584  0.12717247  1
  Cu  Cu2  1  0.12717347  0.62427584  0.62427584  1
  Cu  Cu3  1  0.62427484  0.62427584  0.62427584  1
loop_
_geom_bond_atom_site_label_1
_geom_bond_atom_site_label_2
_geom_bond_distance
_geom_bond_site_symmetry_2
Ca0 Cu0 2.981235 1_555
Ca0 Cu1 2.981236 1_546
Ca0 Cu3 2.981236 1_545
Ca0 Cu2 2.981244 1_545
Ca0 Cu2 2.981247 1_555
Ca0 Cu1 2.981247 1_456
Ca0 Cu3 2.981247 1_455
Ca0 Cu0 2.981252 1_455
Ca0 Cu0 2.981252 1_456
Ca0 Cu1 2.981253 1_446
Ca0 Cu2 2.981253 1_546
Ca0 Cu3 2.981253 1_446
Ca0 In0 3.112155 1_556
Ca0 In0 3.112156 1_546
Ca0 In0 3.112156 1_555
Ca0 In0 3.112160 1_456
Cu0 Cu2 2.526336 1_555
Cu0 Cu3 2.526345 1_555
Cu0 Cu1 2.526346 1_555
Cu0 Cu3 2.555788 1_545
Cu0 Cu1 2.555788 1_546
Cu0 Cu2 2.555788 1_645
Cu0 In0 2.978105 1_655
Cu0 In0 2.978109 1_555
Cu0 In0 2.978109 1_556
Cu1 Cu2 2.526338 1_555
Cu1 Cu3 2.526348 1_555
Cu1 Cu3 2.555790 1_554
Cu1 Cu2 2.555790 1_654
Cu1 In0 2.978104 1_655
Cu1 In0 2.978106 1_565
Cu1 In0 2.978108 1_555
Cu2 Cu3 2.526333 1_555
Cu2 Cu3 2.555795 1_455
Cu2 In0 2.978104 1_565
Cu2 In0 2.978106 1_556
Cu2 In0 2.978114 1_555
Cu3 In0 2.978104 1_655
Cu3 In0 2.978106 1_565
Cu3 In0 2.978108 1_556
