# generated using pymatgen
data_Mo5As4
_symmetry_space_group_name_H-M   'P 1'
_cell_length_a   6.89612018
_cell_length_b   6.89612018
_cell_length_c   6.89612018
_cell_angle_alpha   93.03678177
_cell_angle_beta   93.03678177
_cell_angle_gamma   153.38614592
_symmetry_Int_Tables_number   1
_chemical_formula_structural   Mo5As4
_chemical_formula_sum   'Mo5 As4'
_cell_volume   142.97126873
_cell_formula_units_Z   1
loop_
 _symmetry_equiv_pos_site_id
 _symmetry_equiv_pos_as_xyz
  1  'x, y, z'
loop_
 _atom_site_type_symbol
 _atom_site_label
 _atom_site_symmetry_multiplicity
 _atom_site_fract_x
 _atom_site_fract_y
 _atom_site_fract_z
 _atom_site_occupancy
  Mo  Mo0  1  0.65784600  0.05032100  0.70816700  1
  Mo  Mo1  1  0.00000000  0.00000000  0.00000000  1
  Mo  Mo2  1  0.94967900  0.65784600  0.60752500  1
  Mo  Mo3  1  0.05032100  0.34215400  0.39247500  1
  Mo  Mo4  1  0.34215400  0.94967900  0.29183300  1
  As  As0  1  0.64146900  0.32508000  0.96654900  1
  As  As1  1  0.35853100  0.67492000  0.03345100  1
  As  As2  1  0.67492000  0.64146900  0.31639000  1
  As  As3  1  0.32508000  0.35853100  0.68361000  1
loop_
_geom_bond_atom_site_label_1
_geom_bond_atom_site_label_2
_geom_bond_distance
_geom_bond_site_symmetry_2
Mo0 Mo2 2.732038 1_555
Mo0 Mo2 2.732038 1_445
Mo0 Mo3 2.732038 1_545
Mo0 Mo3 2.732038 1_655
Mo2 Mo4 2.732038 1_655
Mo2 Mo4 2.732038 1_545
Mo3 Mo4 2.732038 1_555
Mo3 Mo4 2.732038 1_445
As0 Mo0 2.612294 1_555
As0 Mo1 2.660469 1_666
As0 Mo1 2.660469 1_556
As0 Mo4 2.746904 1_656
As0 Mo4 2.746904 1_546
As0 Mo2 2.889941 1_555
As0 Mo2 2.889941 1_445
As1 Mo4 2.612294 1_555
As1 Mo1 2.660469 1_555
As1 Mo1 2.660469 1_665
As1 Mo0 2.746904 1_564
As1 Mo0 2.746904 1_454
As1 Mo3 2.889941 1_665
As1 Mo3 2.889941 1_555
As2 Mo2 2.612289 1_555
As2 Mo1 2.660474 1_555
As2 Mo1 2.660476 1_665
As2 Mo3 2.746902 1_555
As2 Mo3 2.746904 1_665
As2 Mo4 2.889940 1_545
As2 Mo4 2.889942 1_655
As3 Mo3 2.612289 1_555
As3 Mo1 2.660474 1_666
As3 Mo1 2.660476 1_556
As3 Mo2 2.746902 1_555
As3 Mo2 2.746904 1_445
As3 Mo0 2.889940 1_565
As3 Mo0 2.889942 1_455
