# generated using pymatgen
data_Na3MoH6(CO2)6
_symmetry_space_group_name_H-M   'P 1'
_cell_length_a   6.52397100
_cell_length_b   14.18020000
_cell_length_c   14.82947100
_cell_angle_alpha   90.00000000
_cell_angle_beta   90.00000000
_cell_angle_gamma   90.00000000
_symmetry_Int_Tables_number   1
_chemical_formula_structural   Na3MoH6(CO2)6
_chemical_formula_sum   'Na12 Mo4 H24 C24 O48'
_cell_volume   1371.89235887
_cell_formula_units_Z   4
loop_
 _symmetry_equiv_pos_site_id
 _symmetry_equiv_pos_as_xyz
  1  'x, y, z'
loop_
 _atom_site_type_symbol
 _atom_site_label
 _atom_site_symmetry_multiplicity
 _atom_site_fract_x
 _atom_site_fract_y
 _atom_site_fract_z
 _atom_site_occupancy
  Na  Na0  1  0.22704400  0.72064200  0.99956200  1
  Na  Na1  1  0.22704400  0.22064200  0.50043800  1
  Na  Na2  1  0.27295600  0.22064200  0.99956200  1
  Na  Na3  1  0.77295600  0.27935800  0.00043800  1
  Na  Na4  1  0.75000000  0.42337800  0.25000000  1
  Na  Na5  1  0.27295600  0.72064200  0.50043800  1
  Na  Na6  1  0.72704400  0.27935800  0.49956200  1
  Na  Na7  1  0.25000000  0.57662200  0.75000000  1
  Na  Na8  1  0.75000000  0.92337800  0.25000000  1
  Na  Na9  1  0.77295600  0.77935800  0.49956200  1
  Na  Na10  1  0.25000000  0.07662200  0.75000000  1
  Na  Na11  1  0.72704400  0.77935800  0.00043800  1
  Mo  Mo0  1  0.25000000  0.56358400  0.25000000  1
  Mo  Mo1  1  0.25000000  0.06358400  0.25000000  1
  Mo  Mo2  1  0.75000000  0.93641600  0.75000000  1
  Mo  Mo3  1  0.75000000  0.43641600  0.75000000  1
  H  H0  1  0.32415500  0.42596400  0.08687400  1
  H  H1  1  0.27038200  0.42972500  0.59116700  1
  H  H2  1  0.32415500  0.92596400  0.41312600  1
  H  H3  1  0.99863500  0.24525500  0.22599500  1
  H  H4  1  0.17584500  0.42596400  0.41312600  1
  H  H5  1  0.77038200  0.57027500  0.09116700  1
  H  H6  1  0.50136500  0.24525500  0.27400500  1
  H  H7  1  0.49863500  0.75474500  0.72599500  1
  H  H8  1  0.72961800  0.57027500  0.40883300  1
  H  H9  1  0.22961800  0.92972500  0.59116700  1
  H  H10  1  0.00136500  0.75474500  0.77400500  1
  H  H11  1  0.72961800  0.07027500  0.09116700  1
  H  H12  1  0.67584500  0.07403600  0.58687400  1
  H  H13  1  0.82415500  0.57403600  0.58687400  1
  H  H14  1  0.77038200  0.07027500  0.40883300  1
  H  H15  1  0.67584500  0.57403600  0.91312600  1
  H  H16  1  0.49863500  0.25474500  0.77400500  1
  H  H17  1  0.00136500  0.25474500  0.72599500  1
  H  H18  1  0.17584500  0.92596400  0.08687400  1
  H  H19  1  0.27038200  0.92972500  0.90883300  1
  H  H20  1  0.50136500  0.74525500  0.22599500  1
  H  H21  1  0.82415500  0.07403600  0.91312600  1
  H  H22  1  0.22961800  0.42972500  0.90883300  1
  H  H23  1  0.99863500  0.74525500  0.27400500  1
  C  C0  1  0.50150600  0.73849900  0.30064900  1
  C  C1  1  0.60878800  0.08919400  0.39413800  1
  C  C2  1  0.10878800  0.91080600  0.89413800  1
  C  C3  1  0.00150600  0.76150100  0.69935100  1
  C  C4  1  0.99849400  0.23849900  0.30064900  1
  C  C5  1  0.33842300  0.41211200  0.39615700  1
  C  C6  1  0.16157700  0.91211200  0.39615700  1
  C  C7  1  0.33842300  0.91211200  0.10384300  1
  C  C8  1  0.83842300  0.08788800  0.60384300  1
  C  C9  1  0.00150600  0.26150100  0.80064900  1
  C  C10  1  0.66157700  0.08788800  0.89615700  1
  C  C11  1  0.39121200  0.41080600  0.89413800  1
  C  C12  1  0.60878800  0.58919400  0.10586200  1
  C  C13  1  0.83842300  0.58788800  0.89615700  1
  C  C14  1  0.66157700  0.58788800  0.60384300  1
  C  C15  1  0.89121200  0.08919400  0.10586200  1
  C  C16  1  0.49849400  0.76150100  0.80064900  1
  C  C17  1  0.49849400  0.26150100  0.69935100  1
  C  C18  1  0.89121200  0.58919400  0.39413800  1
  C  C19  1  0.39121200  0.91080600  0.60586200  1
  C  C20  1  0.16157700  0.41211200  0.10384300  1
  C  C21  1  0.10878800  0.41080600  0.60586200  1
  C  C22  1  0.50150600  0.23849900  0.19935100  1
  C  C23  1  0.99849400  0.73849900  0.19935100  1
  O  O0  1  0.89507900  0.79519300  0.15346400  1
  O  O1  1  0.06282900  0.85414300  0.44208200  1
  O  O2  1  0.56282900  0.14585700  0.94208200  1
  O  O3  1  0.60923000  0.82874100  0.83410300  1
  O  O4  1  0.39507900  0.70480700  0.84653600  1
  O  O5  1  0.41234500  0.45760800  0.32780400  1
  O  O6  1  0.41234500  0.95760800  0.17219600  1
  O  O7  1  0.06282900  0.35414300  0.05791800  1
  O  O8  1  0.10492100  0.20480700  0.84653600  1
  O  O9  1  0.98359100  0.14484100  0.05522900  1
  O  O10  1  0.03661300  0.45096900  0.67751200  1
  O  O11  1  0.58765500  0.54239200  0.67219600  1
  O  O12  1  0.48359100  0.35515900  0.94477100  1
  O  O13  1  0.96338700  0.54903100  0.32248800  1
  O  O14  1  0.51640900  0.64484100  0.05522900  1
  O  O15  1  0.39077000  0.17125900  0.16589700  1
  O  O16  1  0.91234500  0.54239200  0.82780400  1
  O  O17  1  0.08765500  0.45760800  0.17219600  1
  O  O18  1  0.39077000  0.67125900  0.33410300  1
  O  O19  1  0.96338700  0.04903100  0.17751200  1
  O  O20  1  0.08765500  0.95760800  0.32780400  1
  O  O21  1  0.10923000  0.17125900  0.33410300  1
  O  O22  1  0.10923000  0.67125900  0.16589700  1
  O  O23  1  0.01640900  0.85515900  0.94477100  1
  O  O24  1  0.51640900  0.14484100  0.44477100  1
  O  O25  1  0.58765500  0.04239200  0.82780400  1
  O  O26  1  0.53661300  0.04903100  0.32248800  1
  O  O27  1  0.98359100  0.64484100  0.44477100  1
  O  O28  1  0.93717100  0.14585700  0.55791800  1
  O  O29  1  0.46338700  0.45096900  0.82248800  1
  O  O30  1  0.43717100  0.85414300  0.05791800  1
  O  O31  1  0.93717100  0.64585700  0.94208200  1
  O  O32  1  0.91234500  0.04239200  0.67219600  1
  O  O33  1  0.89507900  0.29519300  0.34653600  1
  O  O34  1  0.60492100  0.29519300  0.15346400  1
  O  O35  1  0.89077000  0.32874100  0.83410300  1
  O  O36  1  0.46338700  0.95096900  0.67751200  1
  O  O37  1  0.89077000  0.82874100  0.66589700  1
  O  O38  1  0.53661300  0.54903100  0.17751200  1
  O  O39  1  0.10492100  0.70480700  0.65346400  1
  O  O40  1  0.01640900  0.35515900  0.55522900  1
  O  O41  1  0.39507900  0.20480700  0.65346400  1
  O  O42  1  0.60492100  0.79519300  0.34653600  1
  O  O43  1  0.43717100  0.35414300  0.44208200  1
  O  O44  1  0.48359100  0.85515900  0.55522900  1
  O  O45  1  0.60923000  0.32874100  0.66589700  1
  O  O46  1  0.56282900  0.64585700  0.55791800  1
  O  O47  1  0.03661300  0.95096900  0.82248800  1
loop_
_geom_bond_atom_site_label_1
_geom_bond_atom_site_label_2
_geom_bond_distance
_geom_bond_site_symmetry_2
Na0 O14 2.323929 1_556
Na0 O31 2.329703 1_455
Na0 O23 2.487373 1_555
Na0 O30 2.492364 1_556
Na0 O4 2.530196 1_555
Na0 O22 2.676854 1_556
Na1 O24 2.323929 1_555
Na1 O28 2.329703 1_455
Na1 O40 2.487373 1_555
Na1 O43 2.492364 1_555
Na1 O41 2.530196 1_555
Na1 O21 2.676854 1_555
Na2 O9 2.323929 1_456
Na2 O2 2.329703 1_555
Na2 O12 2.487373 1_555
Na2 O7 2.492364 1_556
Na2 O8 2.530196 1_555
Na2 O15 2.676854 1_556
Na3 O12 2.323929 1_554
Na3 O7 2.329703 1_655
Na3 O9 2.487373 1_555
Na3 O2 2.492364 1_554
Na3 O34 2.530196 1_555
Na3 O35 2.676854 1_554
Na4 O33 2.499851 1_555
Na4 O34 2.499851 1_555
Na4 O38 2.503661 1_555
Na4 O13 2.503661 1_555
Na4 O17 2.533652 1_655
Na4 O5 2.533652 1_555
Na5 O27 2.323929 1_455
Na5 O46 2.329703 1_555
Na5 O44 2.487373 1_555
Na5 O1 2.492364 1_555
Na5 O39 2.530196 1_555
Na5 O18 2.676854 1_555
Na6 O40 2.323929 1_655
Na6 O43 2.329703 1_555
Na6 O24 2.487373 1_555
Na6 O28 2.492364 1_555
Na6 O33 2.530196 1_555
Na6 O45 2.676854 1_555
Na7 O4 2.499851 1_555
Na7 O39 2.499851 1_555
Na7 O29 2.503661 1_555
Na7 O10 2.503661 1_555
Na7 O11 2.533652 1_555
Na7 O16 2.533652 1_455
Na8 O0 2.499851 1_555
Na8 O42 2.499851 1_555
Na8 O26 2.503661 1_565
Na8 O19 2.503661 1_565
Na8 O20 2.533652 1_655
Na8 O6 2.533652 1_555
Na9 O44 2.323929 1_555
Na9 O1 2.329703 1_655
Na9 O27 2.487373 1_555
Na9 O46 2.492364 1_555
Na9 O42 2.530196 1_555
Na9 O37 2.676854 1_555
Na10 O8 2.499851 1_555
Na10 O41 2.499851 1_555
Na10 O47 2.503661 1_545
Na10 O36 2.503661 1_545
Na10 O25 2.533652 1_555
Na10 O32 2.533652 1_455
Na11 O23 2.323929 1_654
Na11 O30 2.329703 1_555
Na11 O14 2.487373 1_555
Na11 O31 2.492364 1_554
Na11 O0 2.530196 1_555
Na11 O3 2.676854 1_554
Mo0 O38 2.166675 1_555
Mo0 O13 2.166675 1_455
Mo0 O5 2.170551 1_555
Mo0 O17 2.170551 1_555
Mo0 O18 2.174906 1_555
Mo0 O22 2.174906 1_555
Mo1 O26 2.166675 1_555
Mo1 O19 2.166675 1_455
Mo1 O6 2.170551 1_545
Mo1 O20 2.170551 1_545
Mo1 O21 2.174906 1_555
Mo1 O15 2.174906 1_555
Mo2 O47 2.166675 1_655
Mo2 O36 2.166675 1_555
Mo2 O32 2.170551 1_565
Mo2 O25 2.170551 1_565
Mo2 O3 2.174906 1_555
Mo2 O37 2.174906 1_555
Mo3 O29 2.166675 1_555
Mo3 O10 2.166675 1_655
Mo3 O16 2.170551 1_555
Mo3 O11 2.170551 1_555
Mo3 O35 2.174906 1_555
Mo3 O45 2.174906 1_555
C0 H20 1.111217 1_555
C0 O42 1.250819 1_555
C0 O18 1.295050 1_555
C1 H14 1.109446 1_555
C1 O24 1.244857 1_555
C1 O26 1.294234 1_555
C2 H19 1.109446 1_555
C2 O23 1.244857 1_555
C2 O47 1.294234 1_555
C3 H10 1.111217 1_555
C3 O39 1.250819 1_555
C3 O37 1.295050 1_455
C4 H3 1.111217 1_555
C4 O33 1.250819 1_555
C4 O21 1.295050 1_655
C5 H4 1.107652 1_555
C5 O43 1.246818 1_555
C5 O5 1.294701 1_555
C6 H2 1.107652 1_555
C6 O1 1.246818 1_555
C6 O20 1.294701 1_555
C7 H18 1.107652 1_555
C7 O30 1.246818 1_555
C7 O6 1.294701 1_555
C8 H12 1.107652 1_555
C8 O28 1.246818 1_555
C8 O32 1.294701 1_555
C9 H17 1.111217 1_555
C9 O8 1.250819 1_555
C9 O35 1.295050 1_455
C10 H21 1.107652 1_555
C10 O2 1.246818 1_555
C10 O25 1.294701 1_555
C11 H22 1.109446 1_555
C11 O12 1.244857 1_555
C11 O29 1.294234 1_555
C12 H5 1.109446 1_555
C12 O14 1.244857 1_555
C12 O38 1.294234 1_555
C13 H15 1.107652 1_555
C13 O31 1.246818 1_555
C13 O16 1.294701 1_555
C14 H13 1.107652 1_555
C14 O46 1.246818 1_555
C14 O11 1.294701 1_555
C15 H11 1.109446 1_555
C15 O9 1.244857 1_555
C15 O19 1.294234 1_555
C16 H7 1.111217 1_555
C16 O4 1.250819 1_555
C16 O3 1.295050 1_555
C17 H16 1.111217 1_555
C17 O41 1.250819 1_555
C17 O45 1.295050 1_555
C18 H8 1.109446 1_555
C18 O27 1.244857 1_555
C18 O13 1.294234 1_555
C19 H9 1.109446 1_555
C19 O44 1.244857 1_555
C19 O36 1.294234 1_555
C20 H0 1.107652 1_555
C20 O7 1.246818 1_555
C20 O17 1.294701 1_555
C21 H1 1.109446 1_555
C21 O40 1.244857 1_555
C21 O10 1.294234 1_555
C22 H6 1.111217 1_555
C22 O34 1.250819 1_555
C22 O15 1.295050 1_555
C23 H23 1.111217 1_555
C23 O0 1.250819 1_555
C23 O22 1.295050 1_655
