# generated using pymatgen
data_Zr7P4
_symmetry_space_group_name_H-M   'P 1'
_cell_length_a   3.62639016
_cell_length_b   8.12006312
_cell_length_c   14.83130376
_cell_angle_alpha   104.53898113
_cell_angle_beta   89.99397719
_cell_angle_gamma   102.90623210
_symmetry_Int_Tables_number   1
_chemical_formula_structural   Zr7P4
_chemical_formula_sum   'Zr14 P8'
_cell_volume   411.33947451
_cell_formula_units_Z   2
loop_
 _symmetry_equiv_pos_site_id
 _symmetry_equiv_pos_as_xyz
  1  'x, y, z'
loop_
 _atom_site_type_symbol
 _atom_site_label
 _atom_site_symmetry_multiplicity
 _atom_site_fract_x
 _atom_site_fract_y
 _atom_site_fract_z
 _atom_site_occupancy
  Zr  Zr0  1  0.66014529  0.32000661  0.96962928  1
  Zr  Zr1  1  0.00377966  0.00829445  0.66689444  1
  Zr  Zr2  1  0.82295610  0.64629080  0.45771291  1
  Zr  Zr3  1  0.17704390  0.35370920  0.54228709  1
  Zr  Zr4  1  0.43180237  0.86299400  0.83421602  1
  Zr  Zr5  1  -0.00000000  -0.00000000  -0.00000000  1
  Zr  Zr6  1  0.56819763  0.13700600  0.16578398  1
  Zr  Zr7  1  0.20465645  0.40898259  0.79619262  1
  Zr  Zr8  1  0.99622034  0.99170555  0.33310556  1
  Zr  Zr9  1  0.19496171  0.38978144  0.31005483  1
  Zr  Zr10  1  0.79534355  0.59101741  0.20380738  1
  Zr  Zr11  1  0.80503829  0.61021856  0.68994517  1
  Zr  Zr12  1  0.33985471  0.67999339  0.03037072  1
  Zr  Zr13  1  0.50000000  -0.00000000  0.50000000  1
  P  P0  1  0.37404575  0.74804018  0.60034574  1
  P  P1  1  0.06272586  0.12561692  0.85259287  1
  P  P2  1  0.62595425  0.25195982  0.39965426  1
  P  P3  1  0.63101131  0.26127628  0.65941729  1
  P  P4  1  0.93727414  0.87438208  0.14740713  1
  P  P5  1  0.17771015  0.35604316  0.11086941  1
  P  P6  1  0.36898869  0.73872372  0.34058271  1
  P  P7  1  0.82228985  0.64395684  0.88913059  1
loop_
_geom_bond_atom_site_label_1
_geom_bond_atom_site_label_2
_geom_bond_distance
_geom_bond_site_symmetry_2
P0 Zr11 2.643788 1_555
P0 Zr11 2.643988 1_455
P0 Zr1 2.729951 1_665
P0 Zr1 2.731869 1_565
P0 Zr2 2.744156 1_555
P0 Zr2 2.745416 1_455
P0 Zr13 2.778585 1_565
P0 Zr3 3.016379 1_555
P0 Zr4 3.351656 1_555
P1 Zr7 2.587704 1_555
P1 Zr5 2.624444 1_556
P1 Zr1 2.670284 1_555
P1 Zr0 2.699838 1_455
P1 Zr0 2.701054 1_555
P1 Zr4 2.717623 1_445
P1 Zr4 2.719626 1_545
P2 Zr9 2.643788 1_555
P2 Zr9 2.643988 1_655
P2 Zr8 2.729951 1_445
P2 Zr8 2.731869 1_545
P2 Zr3 2.744156 1_555
P2 Zr3 2.745416 1_655
P2 Zr13 2.778585 1_555
P2 Zr2 3.016379 1_555
P2 Zr6 3.351656 1_555
P3 Zr11 2.681190 1_555
P3 Zr13 2.710812 1_555
P3 Zr1 2.722942 1_655
P3 Zr1 2.726343 1_555
P3 Zr3 2.737170 1_655
P3 Zr3 2.738353 1_555
P3 Zr7 2.746964 1_655
P3 Zr7 2.747770 1_555
P4 Zr10 2.587697 1_555
P4 Zr5 2.624448 1_665
P4 Zr8 2.670285 1_555
P4 Zr12 2.699834 1_655
P4 Zr12 2.701052 1_555
P4 Zr6 2.717627 1_665
P4 Zr6 2.719633 1_565
P5 Zr10 2.706313 1_455
P5 Zr10 2.707070 1_555
P5 Zr0 2.728399 1_454
P5 Zr0 2.730313 1_554
P5 Zr6 2.771835 1_455
P5 Zr6 2.772111 1_555
P5 Zr5 2.873789 1_555
P5 Zr9 2.896927 1_555
P5 Zr12 3.094570 1_555
P6 Zr9 2.681190 1_555
P6 Zr13 2.710812 1_565
P6 Zr8 2.722942 1_455
P6 Zr8 2.726343 1_555
P6 Zr2 2.737170 1_455
P6 Zr2 2.738353 1_555
P6 Zr10 2.746964 1_455
P6 Zr10 2.747770 1_555
P7 Zr7 2.706313 1_655
P7 Zr7 2.707070 1_555
P7 Zr12 2.728399 1_656
P7 Zr12 2.730313 1_556
P7 Zr4 2.771835 1_655
P7 Zr4 2.772111 1_555
P7 Zr5 2.873789 1_666
P7 Zr11 2.896927 1_555
P7 Zr0 3.094570 1_555
