# generated using pymatgen
data_Tb4Bi3
_symmetry_space_group_name_H-M   'P 1'
_cell_length_a   8.13160822
_cell_length_b   8.13169164
_cell_length_c   8.13161881
_cell_angle_alpha   109.47135462
_cell_angle_beta   109.47108932
_cell_angle_gamma   109.47145214
_symmetry_Int_Tables_number   1
_chemical_formula_structural   Tb4Bi3
_chemical_formula_sum   'Tb8 Bi6'
_cell_volume   413.91504632
_cell_formula_units_Z   2
loop_
 _symmetry_equiv_pos_site_id
 _symmetry_equiv_pos_as_xyz
  1  'x, y, z'
loop_
 _atom_site_type_symbol
 _atom_site_label
 _atom_site_symmetry_multiplicity
 _atom_site_fract_x
 _atom_site_fract_y
 _atom_site_fract_z
 _atom_site_occupancy
  Tb  Tb0  1  0.49999033  0.99999536  0.35493924  1
  Tb  Tb1  1  0.50000967  0.00000503  0.85494891  1
  Tb  Tb2  1  0.64506085  0.64505036  0.64506168  1
  Tb  Tb3  1  0.00001418  0.35495198  0.50000507  1
  Tb  Tb4  1  0.14505440  0.14506386  0.14505266  1
  Tb  Tb5  1  0.85494560  0.50000947  0.99999827  1
  Tb  Tb6  1  0.99998582  0.85493880  0.49999189  1
  Tb  Tb7  1  0.35493915  0.49998851  0.00000083  1
  Bi  Bi0  1  0.12498825  0.74999525  0.87500514  1
  Bi  Bi1  1  0.87501175  0.12500701  0.75001689  1
  Bi  Bi2  1  0.62499157  0.37500985  0.25000135  1
  Bi  Bi3  1  0.37500843  0.25001828  0.62500878  1
  Bi  Bi4  1  0.75000544  0.87498584  0.12498736  1
  Bi  Bi5  1  0.24999456  0.62498040  0.37498193  1
loop_
_geom_bond_atom_site_label_1
_geom_bond_atom_site_label_2
_geom_bond_distance
_geom_bond_site_symmetry_2
Bi0 Tb5 3.142723 1_455
Bi0 Tb3 3.142908 1_555
Bi0 Tb4 3.142918 1_566
Bi0 Tb1 3.143046 1_565
Bi0 Tb2 3.362416 1_455
Bi0 Tb0 3.362491 1_556
Bi0 Tb7 3.362642 1_556
Bi0 Tb6 3.362650 1_455
Bi1 Tb4 3.142723 1_656
Bi1 Tb6 3.142899 1_545
Bi1 Tb5 3.142918 1_555
Bi1 Tb0 3.143046 1_545
Bi1 Tb7 3.362413 1_656
Bi1 Tb1 3.362491 1_555
Bi1 Tb2 3.362634 1_545
Bi1 Tb3 3.362652 1_655
Bi2 Tb7 3.142752 1_555
Bi2 Tb2 3.142818 1_555
Bi2 Tb1 3.142948 1_554
Bi2 Tb3 3.143052 1_655
Bi2 Tb6 3.362464 1_555
Bi2 Tb4 3.362475 1_555
Bi2 Tb5 3.362619 1_554
Bi2 Tb0 3.362641 1_545
Bi3 Tb2 3.142754 1_555
Bi3 Tb7 3.142821 1_556
Bi3 Tb0 3.142943 1_545
Bi3 Tb6 3.143053 1_445
Bi3 Tb3 3.362458 1_555
Bi3 Tb5 3.362478 1_555
Bi3 Tb4 3.362611 1_555
Bi3 Tb1 3.362646 1_555
Bi4 Tb6 3.142824 1_555
Bi4 Tb4 3.142861 1_665
Bi4 Tb1 3.142919 1_564
Bi4 Tb7 3.142964 1_555
Bi4 Tb5 3.362370 1_554
Bi4 Tb2 3.362403 1_554
Bi4 Tb3 3.362714 1_665
Bi4 Tb0 3.362721 1_555
Bi5 Tb3 3.142823 1_555
Bi5 Tb5 3.142861 1_454
Bi5 Tb0 3.142919 1_555
Bi5 Tb2 3.142959 1_555
Bi5 Tb4 3.362370 1_555
Bi5 Tb7 3.362404 1_555
Bi5 Tb1 3.362721 1_565
Bi5 Tb6 3.362722 1_455
