# generated using pymatgen
data_Ba3TiNb4O15
_symmetry_space_group_name_H-M   'P 1'
_cell_length_a   12.69056100
_cell_length_b   12.69056100
_cell_length_c   4.13440300
_cell_angle_alpha   90.00000000
_cell_angle_beta   90.00000000
_cell_angle_gamma   90.00000000
_symmetry_Int_Tables_number   1
_chemical_formula_structural   Ba3TiNb4O15
_chemical_formula_sum   'Ba6 Ti2 Nb8 O30'
_cell_volume   665.84700262
_cell_formula_units_Z   2
loop_
 _symmetry_equiv_pos_site_id
 _symmetry_equiv_pos_as_xyz
  1  'x, y, z'
loop_
 _atom_site_type_symbol
 _atom_site_label
 _atom_site_symmetry_multiplicity
 _atom_site_fract_x
 _atom_site_fract_y
 _atom_site_fract_z
 _atom_site_occupancy
  Ba  Ba0  1  0.83676600  0.66323400  0.97939900  1
  Ba  Ba1  1  0.16323400  0.33676600  0.97939900  1
  Ba  Ba2  1  0.00000000  0.00000000  0.98683200  1
  Ba  Ba3  1  0.33676600  0.83676600  0.97939900  1
  Ba  Ba4  1  0.66323400  0.16323400  0.97939900  1
  Ba  Ba5  1  0.50000000  0.50000000  0.98683200  1
  Ti  Ti0  1  0.50000000  0.00000000  0.45144000  1
  Ti  Ti1  1  0.00000000  0.50000000  0.45144000  1
  Nb  Nb0  1  0.71666000  0.42659500  0.46809200  1
  Nb  Nb1  1  0.57340500  0.71666000  0.46809200  1
  Nb  Nb2  1  0.78334000  0.92659500  0.46809200  1
  Nb  Nb3  1  0.28334000  0.57340500  0.46809200  1
  Nb  Nb4  1  0.92659500  0.21666000  0.46809200  1
  Nb  Nb5  1  0.21666000  0.07340500  0.46809200  1
  Nb  Nb6  1  0.07340500  0.78334000  0.46809200  1
  Nb  Nb7  1  0.42659500  0.28334000  0.46809200  1
  O  O0  1  0.07514500  0.79141300  0.01413600  1
  O  O1  1  0.56828500  0.35961700  0.51376200  1
  O  O2  1  0.43171500  0.64038300  0.51376200  1
  O  O3  1  0.92485500  0.20858700  0.01413600  1
  O  O4  1  0.42485500  0.29141300  0.01413600  1
  O  O5  1  0.50000000  0.00000000  0.02925500  1
  O  O6  1  0.00000000  0.50000000  0.02925500  1
  O  O7  1  0.50625700  0.15466400  0.51418200  1
  O  O8  1  0.78142400  0.28142400  0.51199300  1
  O  O9  1  0.35961700  0.43171500  0.51376200  1
  O  O10  1  0.20858700  0.07514500  0.01413600  1
  O  O11  1  0.71857600  0.78142400  0.51199300  1
  O  O12  1  0.57514500  0.70858700  0.01413600  1
  O  O13  1  0.65466400  0.00625700  0.51418200  1
  O  O14  1  0.29141300  0.57514500  0.01413600  1
  O  O15  1  0.64038300  0.56828500  0.51376200  1
  O  O16  1  0.14038300  0.93171500  0.51376200  1
  O  O17  1  0.84533600  0.50625700  0.51418200  1
  O  O18  1  0.70858700  0.42485500  0.01413600  1
  O  O19  1  0.85961700  0.06828500  0.51376200  1
  O  O20  1  0.34533600  0.99374300  0.51418200  1
  O  O21  1  0.99374300  0.65466400  0.51418200  1
  O  O22  1  0.06828500  0.14038300  0.51376200  1
  O  O23  1  0.15466400  0.49374300  0.51418200  1
  O  O24  1  0.79141300  0.92485500  0.01413600  1
  O  O25  1  0.93171500  0.85961700  0.51376200  1
  O  O26  1  0.00625700  0.34533600  0.51418200  1
  O  O27  1  0.49374300  0.84533600  0.51418200  1
  O  O28  1  0.21857600  0.71857600  0.51199300  1
  O  O29  1  0.28142400  0.21857600  0.51199300  1
loop_
_geom_bond_atom_site_label_1
_geom_bond_atom_site_label_2
_geom_bond_distance
_geom_bond_site_symmetry_2
Ba0 O21 2.771253 1_555
Ba0 O17 2.771253 1_555
Ba0 O11 2.869447 1_555
Ba0 O6 2.936830 1_656
Ba0 O17 2.978079 1_556
Ba0 O21 2.978079 1_556
Ba0 O11 3.057451 1_556
Ba1 O26 2.771253 1_555
Ba1 O23 2.771253 1_555
Ba1 O29 2.869447 1_555
Ba1 O6 2.936830 1_556
Ba1 O26 2.978079 1_556
Ba1 O23 2.978079 1_556
Ba1 O29 3.057451 1_556
Ba2 O22 2.783923 1_555
Ba2 O16 2.783923 1_545
Ba2 O25 2.783923 1_445
Ba2 O19 2.783923 1_455
Ba2 O10 2.815887 1_556
Ba2 O0 2.815887 1_546
Ba2 O3 2.815887 1_456
Ba2 O24 2.815887 1_446
Ba2 O22 2.944635 1_556
Ba2 O16 2.944635 1_546
Ba2 O19 2.944635 1_456
Ba2 O25 2.944635 1_446
Ba3 O27 2.771253 1_555
Ba3 O20 2.771253 1_555
Ba3 O28 2.869447 1_555
Ba3 O5 2.936830 1_566
Ba3 O27 2.978079 1_556
Ba3 O20 2.978079 1_556
Ba3 O28 3.057451 1_556
Ba4 O13 2.771253 1_555
Ba4 O7 2.771253 1_555
Ba4 O8 2.869447 1_555
Ba4 O5 2.936830 1_556
Ba4 O13 2.978079 1_556
Ba4 O7 2.978079 1_556
Ba4 O8 3.057451 1_556
Ba5 O9 2.783923 1_555
Ba5 O2 2.783923 1_555
Ba5 O1 2.783923 1_555
Ba5 O15 2.783923 1_555
Ba5 O18 2.815887 1_556
Ba5 O12 2.815887 1_556
Ba5 O14 2.815887 1_556
Ba5 O4 2.815887 1_556
Ba5 O1 2.944635 1_556
Ba5 O9 2.944635 1_556
Ba5 O2 2.944635 1_556
Ba5 O15 2.944635 1_556
Nb0 O18 1.879761 1_555
Nb0 O17 1.930009 1_555
Nb0 O8 2.025469 1_555
Nb0 O15 2.050836 1_555
Nb0 O1 2.074531 1_555
Nb0 O18 2.259997 1_556
Nb1 O12 1.879761 1_555
Nb1 O27 1.930009 1_555
Nb1 O11 2.025469 1_555
Nb1 O2 2.050836 1_555
Nb1 O15 2.074531 1_555
Nb1 O12 2.259997 1_556
Nb2 O24 1.879761 1_555
Nb2 O13 1.930009 1_565
Nb2 O11 2.025469 1_555
Nb2 O19 2.050836 1_565
Nb2 O25 2.074531 1_555
Nb2 O24 2.259997 1_556
Nb3 O14 1.879761 1_555
Nb3 O23 1.930009 1_555
Nb3 O28 2.025469 1_555
Nb3 O9 2.050836 1_555
Nb3 O2 2.074531 1_555
Nb3 O14 2.259997 1_556
Nb4 O3 1.879761 1_555
Nb4 O26 1.930009 1_655
Nb4 O8 2.025469 1_555
Nb4 O22 2.050836 1_655
Nb4 O19 2.074531 1_555
Nb4 O3 2.259997 1_556
Nb5 O10 1.879761 1_555
Nb5 O20 1.930009 1_545
Nb5 O29 2.025469 1_555
Nb5 O16 2.050836 1_545
Nb5 O22 2.074531 1_555
Nb5 O10 2.259997 1_556
Nb6 O0 1.879761 1_555
Nb6 O21 1.930009 1_455
Nb6 O28 2.025469 1_555
Nb6 O25 2.050836 1_455
Nb6 O16 2.074531 1_555
Nb6 O0 2.259997 1_556
Nb7 O4 1.879761 1_555
Nb7 O7 1.930009 1_555
Nb7 O29 2.025469 1_555
Nb7 O1 2.050836 1_555
Nb7 O9 2.074531 1_555
Nb7 O4 2.259997 1_556
O5 Ti0 1.745483 1_555
O5 Ti0 2.388920 1_554
O6 Ti1 1.745483 1_555
O6 Ti1 2.388920 1_554
O7 Ti0 1.981432 1_555
O13 Ti0 1.981432 1_555
O17 Ti1 1.981432 1_655
O20 Ti0 1.981432 1_565
O21 Ti1 1.981432 1_655
O23 Ti1 1.981432 1_555
O26 Ti1 1.981432 1_555
O27 Ti0 1.981432 1_565
