# generated using pymatgen
data_Li22Si5
_symmetry_space_group_name_H-M   'P 1'
_cell_length_a   13.18393381
_cell_length_b   13.18393381
_cell_length_c   13.18393381
_cell_angle_alpha   60.00000000
_cell_angle_beta   60.00000000
_cell_angle_gamma   60.00000000
_symmetry_Int_Tables_number   1
_chemical_formula_structural   Li22Si5
_chemical_formula_sum   'Li88 Si20'
_cell_volume   1620.39182752
_cell_formula_units_Z   4
loop_
 _symmetry_equiv_pos_site_id
 _symmetry_equiv_pos_as_xyz
  1  'x, y, z'
loop_
 _atom_site_type_symbol
 _atom_site_label
 _atom_site_symmetry_multiplicity
 _atom_site_fract_x
 _atom_site_fract_y
 _atom_site_fract_z
 _atom_site_occupancy
  Li  Li0  1  0.00000000  0.00000000  0.00000000  1
  Li  Li1  1  0.47979500  0.17340200  0.17340200  1
  Li  Li2  1  0.17340200  0.17340200  0.17340200  1
  Li  Li3  1  0.17340200  0.47979500  0.17340200  1
  Li  Li4  1  0.17340200  0.17340200  0.47979500  1
  Li  Li5  1  0.17239000  0.82761000  0.82761000  1
  Li  Li6  1  0.17239000  0.17239000  0.82761000  1
  Li  Li7  1  0.17239000  0.82761000  0.17239000  1
  Li  Li8  1  0.82761000  0.17239000  0.82761000  1
  Li  Li9  1  0.82761000  0.82761000  0.17239000  1
  Li  Li10  1  0.82761000  0.17239000  0.17239000  1
  Li  Li11  1  0.08314500  0.41685500  0.41685500  1
  Li  Li12  1  0.08314500  0.08314500  0.41685500  1
  Li  Li13  1  0.08314500  0.41685500  0.08314500  1
  Li  Li14  1  0.41685500  0.08314500  0.41685500  1
  Li  Li15  1  0.41685500  0.41685500  0.08314500  1
  Li  Li16  1  0.41685500  0.08314500  0.08314500  1
  Li  Li17  1  0.99422000  0.33136400  0.99422000  1
  Li  Li18  1  0.99422000  0.68019600  0.33136400  1
  Li  Li19  1  0.99422000  0.99422000  0.68019600  1
  Li  Li20  1  0.33136400  0.68019600  0.99422000  1
  Li  Li21  1  0.68019600  0.99422000  0.99422000  1
  Li  Li22  1  0.99422000  0.33136400  0.68019600  1
  Li  Li23  1  0.68019600  0.33136400  0.99422000  1
  Li  Li24  1  0.33136400  0.99422000  0.99422000  1
  Li  Li25  1  0.99422000  0.99422000  0.33136400  1
  Li  Li26  1  0.33136400  0.99422000  0.68019600  1
  Li  Li27  1  0.68019600  0.99422000  0.33136400  1
  Li  Li28  1  0.99422000  0.68019600  0.99422000  1
  Li  Li29  1  0.82899200  0.49363400  0.18374000  1
  Li  Li30  1  0.82899200  0.49363400  0.49363400  1
  Li  Li31  1  0.82899200  0.18374000  0.49363400  1
  Li  Li32  1  0.49363400  0.49363400  0.18374000  1
  Li  Li33  1  0.49363400  0.82899200  0.18374000  1
  Li  Li34  1  0.18374000  0.49363400  0.49363400  1
  Li  Li35  1  0.49363400  0.49363400  0.82899200  1
  Li  Li36  1  0.49363400  0.18374000  0.82899200  1
  Li  Li37  1  0.18374000  0.82899200  0.49363400  1
  Li  Li38  1  0.49363400  0.82899200  0.49363400  1
  Li  Li39  1  0.49363400  0.18374000  0.49363400  1
  Li  Li40  1  0.18374000  0.49363400  0.82899200  1
  Li  Li41  1  0.43935900  0.74171700  0.74171700  1
  Li  Li42  1  0.43935900  0.07720700  0.74171700  1
  Li  Li43  1  0.43935900  0.74171700  0.07720700  1
  Li  Li44  1  0.74171700  0.07720700  0.74171700  1
  Li  Li45  1  0.07720700  0.43935900  0.74171700  1
  Li  Li46  1  0.74171700  0.74171700  0.07720700  1
  Li  Li47  1  0.07720700  0.74171700  0.43935900  1
  Li  Li48  1  0.74171700  0.74171700  0.43935900  1
  Li  Li49  1  0.74171700  0.43935900  0.74171700  1
  Li  Li50  1  0.74171700  0.43935900  0.07720700  1
  Li  Li51  1  0.07720700  0.74171700  0.74171700  1
  Li  Li52  1  0.74171700  0.07720700  0.43935900  1
  Li  Li53  1  0.92093900  0.25029600  0.25029600  1
  Li  Li54  1  0.92093900  0.57846800  0.25029600  1
  Li  Li55  1  0.92093900  0.25029600  0.57846800  1
  Li  Li56  1  0.25029600  0.57846800  0.25029600  1
  Li  Li57  1  0.57846800  0.92093900  0.25029600  1
  Li  Li58  1  0.25029600  0.25029600  0.57846800  1
  Li  Li59  1  0.57846800  0.25029600  0.92093900  1
  Li  Li60  1  0.25029600  0.25029600  0.92093900  1
  Li  Li61  1  0.25029600  0.92093900  0.25029600  1
  Li  Li62  1  0.25029600  0.92093900  0.57846800  1
  Li  Li63  1  0.57846800  0.25029600  0.25029600  1
  Li  Li64  1  0.25029600  0.57846800  0.92093900  1
  Li  Li65  1  0.50000000  0.50000000  0.50000000  1
  Li  Li66  1  0.75000000  0.75000000  0.75000000  1
  Li  Li67  1  0.25000000  0.25000000  0.25000000  1
  Li  Li68  1  0.21445900  0.92851400  0.92851400  1
  Li  Li69  1  0.92851400  0.92851400  0.92851400  1
  Li  Li70  1  0.92851400  0.21445900  0.92851400  1
  Li  Li71  1  0.92851400  0.92851400  0.21445900  1
  Li  Li72  1  0.50408400  0.83197200  0.83197200  1
  Li  Li73  1  0.83197200  0.83197200  0.83197200  1
  Li  Li74  1  0.83197200  0.50408400  0.83197200  1
  Li  Li75  1  0.83197200  0.83197200  0.50408400  1
  Li  Li76  1  0.97490700  0.67503100  0.67503100  1
  Li  Li77  1  0.67503100  0.67503100  0.67503100  1
  Li  Li78  1  0.67503100  0.97490700  0.67503100  1
  Li  Li79  1  0.67503100  0.67503100  0.97490700  1
  Li  Li80  1  0.26957800  0.57680700  0.57680700  1
  Li  Li81  1  0.57680700  0.57680700  0.57680700  1
  Li  Li82  1  0.57680700  0.26957800  0.57680700  1
  Li  Li83  1  0.57680700  0.57680700  0.26957800  1
  Li  Li84  1  0.74852600  0.41715800  0.41715800  1
  Li  Li85  1  0.41715800  0.41715800  0.41715800  1
  Li  Li86  1  0.41715800  0.74852600  0.41715800  1
  Li  Li87  1  0.41715800  0.41715800  0.74852600  1
  Si  Si0  1  0.73573300  0.08808900  0.08808900  1
  Si  Si1  1  0.08808900  0.08808900  0.08808900  1
  Si  Si2  1  0.08808900  0.73573300  0.08808900  1
  Si  Si3  1  0.08808900  0.08808900  0.73573300  1
  Si  Si4  1  0.00003800  0.33332100  0.33332100  1
  Si  Si5  1  0.33332100  0.33332100  0.33332100  1
  Si  Si6  1  0.33332100  0.00003800  0.33332100  1
  Si  Si7  1  0.33332100  0.33332100  0.00003800  1
  Si  Si8  1  0.32415500  0.67584500  0.67584500  1
  Si  Si9  1  0.32415500  0.32415500  0.67584500  1
  Si  Si10  1  0.32415500  0.67584500  0.32415500  1
  Si  Si11  1  0.67584500  0.32415500  0.67584500  1
  Si  Si12  1  0.67584500  0.67584500  0.32415500  1
  Si  Si13  1  0.67584500  0.32415500  0.32415500  1
  Si  Si14  1  0.57451500  0.92548500  0.92548500  1
  Si  Si15  1  0.57451500  0.57451500  0.92548500  1
  Si  Si16  1  0.57451500  0.92548500  0.57451500  1
  Si  Si17  1  0.92548500  0.57451500  0.92548500  1
  Si  Si18  1  0.92548500  0.92548500  0.57451500  1
  Si  Si19  1  0.92548500  0.57451500  0.57451500  1
loop_
_geom_bond_atom_site_label_1
_geom_bond_atom_site_label_2
_geom_bond_distance
_geom_bond_site_symmetry_2
Li0 Li69 2.308562 1_444
Li0 Li68 2.308573 1_544
Li0 Li70 2.308573 1_454
Li0 Li71 2.308573 1_445
Li0 Si3 2.844738 1_554
Li0 Si2 2.844738 1_545
Li0 Si1 2.844738 1_555
Li0 Si0 2.844738 1_455
Li1 Li67 2.473660 1_555
Li1 Li15 2.628919 1_555
Li1 Li14 2.628919 1_555
Li1 Li16 2.628930 1_555
Li1 Li63 2.722702 1_555
Li1 Li57 2.722723 1_545
Li1 Li59 2.722723 1_554
Li1 Si0 2.755080 1_555
Li1 Si7 2.986938 1_555
Li1 Si6 2.986938 1_555
Li1 Si5 2.986938 1_555
Li2 Li67 2.473649 1_555
Li2 Li61 2.722725 1_545
Li2 Li60 2.722725 1_554
Li2 Li53 2.722725 1_455
Li2 Si1 2.755090 1_555
Li2 Si4 2.986938 1_555
Li2 Si6 2.986938 1_555
Li2 Si7 2.986938 1_555
Li3 Li67 2.473660 1_555
Li3 Li56 2.722702 1_555
Li3 Li64 2.722723 1_554
Li3 Li54 2.722723 1_455
Li3 Si2 2.755080 1_555
Li3 Si7 2.986938 1_555
Li3 Si4 2.986938 1_555
Li3 Si5 2.986938 1_555
Li4 Li67 2.473660 1_555
Li4 Li58 2.722702 1_555
Li4 Li62 2.722723 1_545
Li4 Li55 2.722723 1_455
Li4 Si3 2.755080 1_555
Li4 Si4 2.986938 1_555
Li4 Si6 2.986938 1_555
Li4 Si5 2.986938 1_555
Li5 Li69 2.663162 1_455
Li5 Li68 2.663171 1_555
Li5 Si3 2.804555 1_565
Li5 Si2 2.804555 1_556
Li5 Si8 2.829643 1_555
Li6 Li70 2.663160 1_455
Li6 Li68 2.663160 1_545
Li6 Si1 2.804555 1_556
Li6 Si3 2.804555 1_555
Li6 Si9 2.829643 1_555
Li7 Li71 2.663160 1_455
Li7 Si1 2.804555 1_565
Li7 Si2 2.804555 1_555
Li7 Si10 2.829643 1_555
Li8 Si3 2.804555 1_655
Li8 Si0 2.804555 1_556
Li8 Si11 2.829643 1_555
Li9 Si0 2.804555 1_565
Li9 Si2 2.804555 1_655
Li9 Si12 2.829643 1_555
Li10 Li71 2.663160 1_545
Li10 Li70 2.663160 1_554
Li10 Si1 2.804555 1_655
Li10 Si0 2.804555 1_555
Li10 Si13 2.829643 1_555
Li11 Li3 2.628919 1_555
Li11 Li4 2.628919 1_555
Li11 Si4 2.693045 1_555
Li11 Si5 2.693056 1_555
Li11 Li34 2.741864 1_555
Li11 Li30 2.741864 1_455
Li11 Si19 2.939555 1_455
Li12 Li2 2.628920 1_555
Li12 Li4 2.628930 1_555
Li12 Si4 2.693056 1_555
Li12 Si6 2.693056 1_555
Li12 Li31 2.741864 1_455
Li12 Li37 2.741864 1_545
Li12 Si18 2.939555 1_445
Li13 Li2 2.628920 1_555
Li13 Li3 2.628930 1_555
Li13 Si4 2.693056 1_555
Li13 Si7 2.693056 1_555
Li13 Li40 2.741864 1_554
Li13 Li29 2.741864 1_455
Li13 Si17 2.939555 1_454
Li14 Li4 2.628919 1_555
Li14 Si6 2.693045 1_555
Li14 Si5 2.693056 1_555
Li14 Li39 2.741864 1_555
Li14 Li38 2.741864 1_545
Li14 Si16 2.939555 1_545
Li15 Li3 2.628919 1_555
Li15 Si7 2.693045 1_555
Li15 Si5 2.693056 1_555
Li15 Li32 2.741864 1_555
Li15 Li35 2.741864 1_554
Li15 Si15 2.939555 1_554
Li16 Li2 2.628920 1_555
Li16 Si7 2.693056 1_555
Li16 Si6 2.693056 1_555
Li16 Li33 2.741864 1_545
Li16 Li36 2.741864 1_554
Li16 Si14 2.939555 1_544
Li17 Si17 2.632497 1_555
Li17 Si1 2.634971 1_656
Li17 Li70 2.701302 1_555
Li18 Si19 2.632497 1_555
Li18 Si2 2.634971 1_655
Li18 Li71 2.701312 1_555
Li19 Si18 2.632497 1_555
Li19 Si3 2.634971 1_665
Li19 Li69 2.701314 1_555
Li20 Si15 2.632497 1_555
Li20 Si2 2.634971 1_556
Li20 Li68 2.701312 1_555
Li21 Si14 2.632497 1_555
Li21 Si0 2.634971 1_566
Li21 Li69 2.701314 1_555
Li22 Si19 2.632497 1_555
Li22 Si3 2.634971 1_655
Li22 Li70 2.701312 1_555
Li23 Si15 2.632497 1_555
Li23 Si0 2.634971 1_556
Li23 Li70 2.701312 1_555
Li24 Si14 2.632497 1_555
Li24 Si1 2.634971 1_566
Li24 Li68 2.701302 1_555
Li25 Si18 2.632497 1_555
Li25 Si1 2.634971 1_665
Li25 Li71 2.701302 1_555
Li26 Si16 2.632497 1_555
Li26 Si3 2.634971 1_565
Li26 Li68 2.701312 1_555
Li27 Si16 2.632497 1_555
Li27 Si0 2.634971 1_565
Li27 Li71 2.701312 1_555
Li28 Si17 2.632497 1_555
Li28 Si2 2.634971 1_656
Li28 Li69 2.701314 1_555
Li29 Li84 2.512844 1_555
Li29 Li54 2.625120 1_555
Li29 Li53 2.625131 1_555
Li29 Li50 2.693158 1_555
Li29 Li46 2.693158 1_555
Li29 Li83 2.714756 1_555
Li29 Si17 2.782560 1_554
Li29 Si4 2.992376 1_655
Li29 Si12 3.022176 1_555
Li29 Si13 3.022176 1_555
Li30 Li84 2.512844 1_555
Li30 Li54 2.625131 1_555
Li30 Li55 2.625131 1_555
Li30 Li49 2.693158 1_555
Li30 Li48 2.693158 1_555
Li30 Li81 2.714756 1_555
Li30 Si19 2.782560 1_555
Li30 Si4 2.992367 1_655
Li30 Si12 3.022176 1_555
Li30 Si11 3.022176 1_555
Li31 Li84 2.512844 1_555
Li31 Li55 2.625120 1_555
Li31 Li53 2.625131 1_555
Li31 Li52 2.693158 1_555
Li31 Li44 2.693158 1_555
Li31 Li82 2.714756 1_555
Li31 Si18 2.782560 1_545
Li31 Si4 2.992376 1_655
Li31 Si11 3.022176 1_555
Li31 Si13 3.022176 1_555
Li32 Li85 2.512844 1_555
Li32 Li56 2.625132 1_555
Li32 Li63 2.625132 1_555
Li32 Li50 2.693158 1_555
Li32 Li43 2.693158 1_555
Li32 Li83 2.714745 1_555
Li32 Si15 2.782560 1_554
Li32 Si5 2.992366 1_555
Li32 Si10 3.022176 1_555
Li32 Si13 3.022176 1_555
Li33 Li86 2.512844 1_555
Li33 Li57 2.625120 1_555
Li33 Li61 2.625131 1_555
Li33 Li43 2.693158 1_555
Li33 Li46 2.693158 1_555
Li33 Li83 2.714756 1_555
Li33 Si14 2.782560 1_554
Li33 Si6 2.992376 1_565
Li33 Si12 3.022176 1_555
Li33 Si10 3.022176 1_555
Li34 Li85 2.512844 1_555
Li34 Li58 2.625132 1_555
Li34 Li56 2.625132 1_555
Li34 Li45 2.693158 1_555
Li34 Li47 2.693158 1_555
Li34 Li80 2.714745 1_555
Li34 Si19 2.782560 1_455
Li34 Si5 2.992366 1_555
Li34 Si10 3.022176 1_555
Li34 Si9 3.022176 1_555
Li35 Li87 2.512844 1_555
Li35 Li64 2.625131 1_555
Li35 Li59 2.625131 1_555
Li35 Li49 2.693158 1_555
Li35 Li41 2.693158 1_555
Li35 Li81 2.714756 1_555
Li35 Si15 2.782560 1_555
Li35 Si7 2.992367 1_556
Li35 Si8 3.022176 1_555
Li35 Si11 3.022176 1_555
Li36 Li87 2.512844 1_555
Li36 Li59 2.625120 1_555
Li36 Li60 2.625131 1_555
Li36 Li42 2.693158 1_555
Li36 Li44 2.693158 1_555
Li36 Li82 2.714756 1_555
Li36 Si14 2.782560 1_545
Li36 Si7 2.992376 1_556
Li36 Si11 3.022176 1_555
Li36 Si9 3.022176 1_555
Li37 Li86 2.512844 1_555
Li37 Li62 2.625120 1_555
Li37 Li61 2.625131 1_555
Li37 Li47 2.693158 1_555
Li37 Li51 2.693158 1_555
Li37 Li80 2.714756 1_555
Li37 Si18 2.782560 1_455
Li37 Si6 2.992376 1_565
Li37 Si8 3.022176 1_555
Li37 Si10 3.022176 1_555
Li38 Li86 2.512844 1_555
Li38 Li57 2.625131 1_555
Li38 Li62 2.625131 1_555
Li38 Li41 2.693158 1_555
Li38 Li48 2.693158 1_555
Li38 Li81 2.714756 1_555
Li38 Si16 2.782560 1_555
Li38 Si6 2.992367 1_565
Li38 Si12 3.022176 1_555
Li38 Si8 3.022176 1_555
Li39 Li85 2.512844 1_555
Li39 Li58 2.625132 1_555
Li39 Li63 2.625132 1_555
Li39 Li42 2.693158 1_555
Li39 Li52 2.693158 1_555
Li39 Li82 2.714745 1_555
Li39 Si16 2.782560 1_545
Li39 Si5 2.992366 1_555
Li39 Si9 3.022176 1_555
Li39 Si13 3.022176 1_555
Li40 Li87 2.512844 1_555
Li40 Li64 2.625120 1_555
Li40 Li60 2.625131 1_555
Li40 Li45 2.693158 1_555
Li40 Li51 2.693158 1_555
Li40 Li80 2.714756 1_555
Li40 Si17 2.782560 1_455
Li40 Si7 2.992376 1_556
Li40 Si8 3.022176 1_555
Li40 Si9 3.022176 1_555
Li41 Li77 2.551366 1_555
Li41 Si8 2.684696 1_555
Li41 Si15 2.992113 1_555
Li41 Si16 2.992113 1_555
Li42 Li78 2.551366 1_545
Li42 Si9 2.684696 1_555
Li42 Si16 2.992113 1_545
Li42 Si14 2.992113 1_545
Li43 Li79 2.551366 1_554
Li43 Si10 2.684696 1_555
Li43 Si15 2.992113 1_554
Li43 Si14 2.992113 1_554
Li44 Li78 2.551366 1_545
Li44 Si11 2.684696 1_555
Li44 Si14 2.992113 1_545
Li44 Si18 2.992113 1_545
Li45 Li76 2.551366 1_455
Li45 Si9 2.684696 1_555
Li45 Si19 2.992113 1_455
Li45 Si17 2.992113 1_455
Li46 Li79 2.551366 1_554
Li46 Si12 2.684696 1_555
Li46 Si17 2.992113 1_554
Li46 Si14 2.992113 1_554
Li47 Li76 2.551366 1_455
Li47 Si10 2.684696 1_555
Li47 Si19 2.992113 1_455
Li47 Si18 2.992113 1_455
Li48 Li77 2.551366 1_555
Li48 Si12 2.684696 1_555
Li48 Si19 2.992113 1_555
Li48 Si16 2.992113 1_555
Li49 Li77 2.551366 1_555
Li49 Si11 2.684696 1_555
Li49 Si15 2.992113 1_555
Li49 Si19 2.992113 1_555
Li50 Li79 2.551366 1_554
Li50 Si13 2.684696 1_555
Li50 Si15 2.992113 1_554
Li50 Si17 2.992113 1_554
Li51 Li76 2.551366 1_455
Li51 Si8 2.684696 1_555
Li51 Si17 2.992113 1_455
Li51 Si18 2.992113 1_455
Li52 Li78 2.551366 1_545
Li52 Si13 2.684696 1_555
Li52 Si16 2.992113 1_545
Li52 Si18 2.992113 1_545
Li53 Si4 2.639109 1_655
Li53 Si13 2.644413 1_555
Li53 Si1 3.025035 1_655
Li54 Si4 2.639088 1_655
Li54 Si12 2.644414 1_555
Li54 Si2 3.025044 1_655
Li55 Si4 2.639088 1_655
Li55 Si11 2.644414 1_555
Li55 Si3 3.025044 1_655
Li56 Si5 2.639088 1_555
Li56 Si10 2.644425 1_555
Li56 Si2 3.025035 1_555
Li57 Si6 2.639088 1_565
Li57 Si12 2.644414 1_555
Li57 Si0 3.025044 1_565
Li58 Si5 2.639088 1_555
Li58 Si9 2.644425 1_555
Li58 Si3 3.025035 1_555
Li59 Si7 2.639088 1_556
Li59 Si11 2.644414 1_555
Li59 Si0 3.025044 1_556
Li60 Si7 2.639109 1_556
Li60 Si9 2.644413 1_555
Li60 Si1 3.025035 1_556
Li61 Si6 2.639109 1_565
Li61 Si10 2.644413 1_555
Li61 Si1 3.025035 1_565
Li62 Si6 2.639088 1_565
Li62 Si8 2.644414 1_555
Li62 Si3 3.025044 1_565
Li63 Si5 2.639088 1_555
Li63 Si13 2.644425 1_555
Li63 Si0 3.025035 1_555
Li64 Si7 2.639088 1_556
Li64 Si8 2.644414 1_555
Li64 Si2 3.025044 1_556
Li65 Li81 2.480398 1_555
Li65 Li83 2.480409 1_555
Li65 Li80 2.480409 1_555
Li65 Li82 2.480409 1_555
Li65 Li87 2.675292 1_555
Li65 Li86 2.675292 1_555
Li65 Li84 2.675292 1_555
Li65 Li85 2.675292 1_555
Li66 Li79 2.421042 1_555
Li66 Li78 2.421042 1_555
Li66 Li76 2.421042 1_555
Li66 Li77 2.421042 1_555
Li66 Li73 2.647196 1_555
Li66 Li74 2.647196 1_555
Li66 Li75 2.647196 1_555
Li66 Li72 2.647196 1_555
Li67 Si7 2.690750 1_555
Li67 Si4 2.690750 1_555
Li67 Si6 2.690750 1_555
Li67 Si5 2.690761 1_555
Li68 Li7 2.663160 1_556
Li68 Si1 3.007294 1_566
Li68 Si2 3.007304 1_556
Li68 Si3 3.007304 1_565
Li68 Li72 3.117708 1_555
Li69 Li9 2.663162 1_556
Li69 Li8 2.663162 1_565
Li69 Si0 3.007295 1_566
Li69 Si2 3.007295 1_656
Li69 Si3 3.007295 1_665
Li69 Li73 3.117719 1_555
Li70 Li8 2.663171 1_555
Li70 Si1 3.007294 1_656
Li70 Si0 3.007304 1_556
Li70 Si3 3.007304 1_655
Li70 Li74 3.117708 1_555
Li71 Li9 2.663171 1_555
Li71 Si1 3.007294 1_665
Li71 Si0 3.007304 1_565
Li71 Si2 3.007304 1_655
Li71 Li75 3.117708 1_555
Li72 Si16 2.776995 1_555
Li72 Si15 2.776995 1_555
Li72 Si14 2.776995 1_555
Li73 Si17 2.776995 1_555
Li73 Si14 2.776995 1_555
Li73 Si18 2.776995 1_555
Li74 Si19 2.776995 1_555
Li74 Si15 2.776995 1_555
Li74 Si17 2.776995 1_555
Li75 Si16 2.776995 1_555
Li75 Si19 2.776995 1_555
Li75 Si18 2.776995 1_555
Li76 Si19 2.723953 1_555
Li76 Si17 2.723953 1_555
Li76 Si18 2.723953 1_555
Li77 Si16 2.723953 1_555
Li77 Si19 2.723953 1_555
Li77 Si15 2.723953 1_555
Li78 Si16 2.723953 1_555
Li78 Si14 2.723953 1_555
Li78 Si18 2.723953 1_555
Li79 Si15 2.723953 1_555
Li79 Si17 2.723953 1_555
Li79 Si14 2.723953 1_555
Li80 Si10 2.740682 1_555
Li80 Si9 2.740682 1_555
Li80 Si8 2.740693 1_555
Li81 Si11 2.740683 1_555
Li81 Si12 2.740683 1_555
Li81 Si8 2.740683 1_555
Li82 Si13 2.740682 1_555
Li82 Si9 2.740682 1_555
Li82 Si11 2.740693 1_555
Li83 Si10 2.740682 1_555
Li83 Si13 2.740682 1_555
Li83 Si12 2.740693 1_555
Li84 Si4 2.707435 1_655
Li84 Si11 2.788965 1_555
Li84 Si12 2.788965 1_555
Li84 Si13 2.788965 1_555
Li85 Si5 2.707425 1_555
Li85 Si13 2.788965 1_555
Li85 Si10 2.788965 1_555
Li85 Si9 2.788965 1_555
Li86 Si6 2.707435 1_565
Li86 Si12 2.788965 1_555
Li86 Si8 2.788965 1_555
Li86 Si10 2.788965 1_555
Li87 Si7 2.707435 1_556
Li87 Si11 2.788965 1_555
Li87 Si8 2.788965 1_555
Li87 Si9 2.788965 1_555
