# generated using pymatgen
data_K2SnP2O7
_symmetry_space_group_name_H-M   'P 1'
_cell_length_a   6.88209800
_cell_length_b   10.02094600
_cell_length_c   13.37016372
_cell_angle_alpha   62.35424951
_cell_angle_beta   90.00000000
_cell_angle_gamma   90.00000000
_symmetry_Int_Tables_number   1
_chemical_formula_structural   K2SnP2O7
_chemical_formula_sum   'K8 Sn4 P8 O28'
_cell_volume   816.80489061
_cell_formula_units_Z   4
loop_
 _symmetry_equiv_pos_site_id
 _symmetry_equiv_pos_as_xyz
  1  'x, y, z'
loop_
 _atom_site_type_symbol
 _atom_site_label
 _atom_site_symmetry_multiplicity
 _atom_site_fract_x
 _atom_site_fract_y
 _atom_site_fract_z
 _atom_site_occupancy
  K  K0  1  0.12897700  0.51531800  0.85313200  1
  K  K1  1  0.87102300  0.48468200  0.14686800  1
  K  K2  1  0.14681500  0.02107300  0.15986500  1
  K  K3  1  0.62897700  0.48468200  0.64686800  1
  K  K4  1  0.85318500  0.97892700  0.84013500  1
  K  K5  1  0.37102300  0.51531800  0.35313200  1
  K  K6  1  0.35318500  0.02107300  0.65986500  1
  K  K7  1  0.64681500  0.97892700  0.34013500  1
  Sn  Sn0  1  0.15270900  0.74802500  0.50504400  1
  Sn  Sn1  1  0.34729100  0.74802500  0.00504400  1
  Sn  Sn2  1  0.84729100  0.25197500  0.49495600  1
  Sn  Sn3  1  0.65270900  0.25197500  0.99495600  1
  P  P0  1  0.35899000  0.15141000  0.85544300  1
  P  P1  1  0.14101000  0.15141000  0.35544300  1
  P  P2  1  0.63258700  0.63774000  0.85063600  1
  P  P3  1  0.86741300  0.63774000  0.35063600  1
  P  P4  1  0.36741300  0.36226000  0.14936400  1
  P  P5  1  0.85899000  0.84859000  0.64455700  1
  P  P6  1  0.64101000  0.84859000  0.14455700  1
  P  P7  1  0.13258700  0.36226000  0.64936400  1
  O  O0  1  0.12061000  0.16773500  0.46553200  1
  O  O1  1  0.47563500  0.50399000  0.13622300  1
  O  O2  1  0.45166000  0.81988900  0.20883400  1
  O  O3  1  0.52436500  0.49601000  0.86377700  1
  O  O4  1  0.19041900  0.38984100  0.07604500  1
  O  O5  1  0.37939000  0.16773500  0.96553200  1
  O  O6  1  0.97563500  0.49601000  0.36377700  1
  O  O7  1  0.69041900  0.61015900  0.42395500  1
  O  O8  1  0.79923900  0.71429800  0.21698600  1
  O  O9  1  0.87939000  0.83226500  0.53446800  1
  O  O10  1  0.70076100  0.71429800  0.71698600  1
  O  O11  1  0.01217200  0.75452200  0.35608200  1
  O  O12  1  0.02436500  0.50399000  0.63622300  1
  O  O13  1  0.54834000  0.18011100  0.79116600  1
  O  O14  1  0.20076100  0.28570200  0.78301400  1
  O  O15  1  0.80958100  0.61015900  0.92395500  1
  O  O16  1  0.04834000  0.81988900  0.70883400  1
  O  O17  1  0.62061000  0.83226500  0.03446800  1
  O  O18  1  0.95166000  0.18011100  0.29116600  1
  O  O19  1  0.74563600  0.99567400  0.12158000  1
  O  O20  1  0.29923900  0.28570200  0.28301400  1
  O  O21  1  0.30958100  0.38984100  0.57604500  1
  O  O22  1  0.48782800  0.75452200  0.85608200  1
  O  O23  1  0.75436400  0.99567400  0.62158000  1
  O  O24  1  0.51217200  0.24547800  0.14391800  1
  O  O25  1  0.24563600  0.00432600  0.37842000  1
  O  O26  1  0.98782800  0.24547800  0.64391800  1
  O  O27  1  0.25436400  0.00432600  0.87842000  1
loop_
_geom_bond_atom_site_label_1
_geom_bond_atom_site_label_2
_geom_bond_distance
_geom_bond_site_symmetry_2
K0 O4 2.676715 1_556
K0 O3 2.726998 1_555
K0 O15 2.732538 1_455
K0 O16 2.807300 1_555
K0 O14 2.901593 1_555
K0 O12 3.040947 1_555
K1 O15 2.676715 1_554
K1 O1 2.726998 1_555
K1 O4 2.732538 1_655
K1 O18 2.807300 1_555
K1 O8 2.901593 1_555
K1 O6 3.040947 1_555
K2 O2 2.769422 1_545
K2 O5 2.815878 1_554
K2 O19 2.840874 1_445
K2 O11 2.893594 1_545
K2 O25 2.928202 1_555
K2 O18 3.165749 1_455
K2 O24 3.313565 1_555
K2 O4 3.340474 1_555
K3 O7 2.676715 1_555
K3 O12 2.726998 1_655
K3 O21 2.732538 1_555
K3 O13 2.807300 1_555
K3 O10 2.901593 1_555
K3 O3 3.040947 1_555
K4 O13 2.769422 1_565
K4 O17 2.815878 1_556
K4 O27 2.840874 1_665
K4 O26 2.893594 1_565
K4 O23 2.928202 1_555
K4 O16 3.165749 1_655
K4 O22 3.313565 1_555
K4 O15 3.340474 1_555
K5 O21 2.676715 1_555
K5 O6 2.726998 1_455
K5 O7 2.732538 1_555
K5 O2 2.807300 1_555
K5 O20 2.901593 1_555
K5 O1 3.040947 1_555
K6 O16 2.769422 1_545
K6 O0 2.815878 1_555
K6 O23 2.840874 1_545
K6 O22 2.893594 1_545
K6 O27 2.928202 1_555
K6 O13 3.165749 1_555
K6 O26 3.313565 1_455
K6 O21 3.340474 1_555
K7 O18 2.769422 1_565
K7 O9 2.815878 1_555
K7 O25 2.840874 1_565
K7 O24 2.893594 1_565
K7 O19 2.928202 1_555
K7 O2 3.165749 1_555
K7 O11 3.313565 1_655
K7 O7 3.340474 1_555
O0 P1 1.560911 1_555
O0 Sn2 2.171120 1_455
O1 P4 1.539863 1_555
O1 Sn1 2.419978 1_555
O2 P6 1.513287 1_555
O3 P2 1.539863 1_555
O3 Sn3 2.419978 1_555
O4 P4 1.506540 1_555
O5 P0 1.560911 1_555
O5 Sn3 2.171120 1_555
O6 P3 1.539863 1_555
O6 Sn2 2.419978 1_555
O7 P3 1.506540 1_555
O8 P6 1.650820 1_555
O8 P3 1.652147 1_555
O9 P5 1.560911 1_555
O9 Sn0 2.171120 1_655
O10 P5 1.650820 1_555
O10 P2 1.652147 1_555
O11 P3 1.564099 1_455
O11 Sn0 2.187697 1_555
O12 P7 1.539863 1_555
O12 Sn0 2.419978 1_555
O13 P0 1.513287 1_555
O14 P0 1.650820 1_555
O14 P7 1.652147 1_555
O15 P2 1.506540 1_555
O16 P5 1.513287 1_455
O17 P6 1.560911 1_555
O17 Sn1 2.171120 1_555
O18 P1 1.513287 1_655
O19 P6 1.537883 1_555
O19 Sn3 2.415902 1_564
O20 P1 1.650820 1_555
O20 P4 1.652147 1_555
O21 P7 1.506540 1_555
O22 P2 1.564099 1_555
O22 Sn1 2.187697 1_556
O23 P5 1.537883 1_555
O23 Sn2 2.415902 1_565
O24 P4 1.564099 1_555
O24 Sn3 2.187697 1_554
O25 P1 1.537883 1_555
O25 Sn0 2.415902 1_545
O26 P7 1.564099 1_655
O26 Sn2 2.187697 1_555
O27 P0 1.537883 1_555
O27 Sn1 2.415902 1_546
