# generated using pymatgen
data_Na4Sc2Si4O13
_symmetry_space_group_name_H-M   'P 1'
_cell_length_a   5.27715248
_cell_length_b   14.16320765
_cell_length_c   14.41127100
_cell_angle_alpha   90.00000000
_cell_angle_beta   90.00000000
_cell_angle_gamma   90.00000000
_symmetry_Int_Tables_number   1
_chemical_formula_structural   Na4Sc2Si4O13
_chemical_formula_sum   'Na16 Sc8 Si16 O52'
_cell_volume   1077.11866219
_cell_formula_units_Z   4
loop_
 _symmetry_equiv_pos_site_id
 _symmetry_equiv_pos_as_xyz
  1  'x, y, z'
loop_
 _atom_site_type_symbol
 _atom_site_label
 _atom_site_symmetry_multiplicity
 _atom_site_fract_x
 _atom_site_fract_y
 _atom_site_fract_z
 _atom_site_occupancy
  Na  Na0  1  0.80838824  0.94847420  0.21111422  1
  Na  Na1  1  0.17310292  0.42138217  0.91665147  1
  Na  Na2  1  0.78084614  0.30188771  0.83557430  1
  Na  Na3  1  0.21915386  0.69811229  0.33557430  1
  Na  Na4  1  0.82743246  0.67039790  0.62229480  1
  Na  Na5  1  0.69161176  0.44847420  0.21111422  1
  Na  Na6  1  0.17256754  0.32960210  0.12229480  1
  Na  Na7  1  0.30838824  0.55152580  0.71111422  1
  Na  Na8  1  0.67310292  0.07861783  0.41665147  1
  Na  Na9  1  0.32689708  0.92138217  0.91665147  1
  Na  Na10  1  0.82689708  0.57861783  0.41665147  1
  Na  Na11  1  0.28084614  0.19811229  0.33557430  1
  Na  Na12  1  0.71915386  0.80188771  0.83557430  1
  Na  Na13  1  0.19161176  0.05152580  0.71111422  1
  Na  Na14  1  0.67256754  0.17039790  0.62229480  1
  Na  Na15  1  0.32743246  0.82960210  0.12229480  1
  Sc  Sc0  1  0.68974505  0.33006032  0.42114334  1
  Sc  Sc1  1  0.81025495  0.83006032  0.42114334  1
  Sc  Sc2  1  0.34992369  0.07900658  0.12649758  1
  Sc  Sc3  1  0.18974505  0.16993968  0.92114334  1
  Sc  Sc4  1  0.15007631  0.57900658  0.12649758  1
  Sc  Sc5  1  0.65007631  0.92099342  0.62649758  1
  Sc  Sc6  1  0.84992369  0.42099342  0.62649758  1
  Sc  Sc7  1  0.31025495  0.66993968  0.92114334  1
  Si  Si0  1  0.35073958  0.52321627  0.49934955  1
  Si  Si1  1  0.29994308  0.94164748  0.31933094  1
  Si  Si2  1  0.32707861  0.72635437  0.54634737  1
  Si  Si3  1  0.70005692  0.05835252  0.81933094  1
  Si  Si4  1  0.14926042  0.02321627  0.49934955  1
  Si  Si5  1  0.64926042  0.47678373  -0.00065045  1
  Si  Si6  1  0.67292139  0.27364563  0.04634737  1
  Si  Si7  1  0.17292139  0.22635437  0.54634737  1
  Si  Si8  1  0.82698482  0.19350485  0.22840522  1
  Si  Si9  1  0.82707861  0.77364563  0.04634737  1
  Si  Si10  1  0.20005692  0.44164748  0.31933094  1
  Si  Si11  1  0.67301518  0.69350485  0.22840522  1
  Si  Si12  1  0.79994308  0.55835252  0.81933094  1
  Si  Si13  1  0.17301518  0.80649515  0.72840522  1
  Si  Si14  1  0.32698482  0.30649515  0.72840522  1
  Si  Si15  1  0.85073958  0.97678373  -0.00065045  1
  O  O0  1  0.88293956  0.14600063  0.84123053  1
  O  O1  1  0.48524864  0.62672489  0.52415466  1
  O  O2  1  0.56564224  0.77279177  0.98953766  1
  O  O3  1  0.79370925  0.96697283  0.88636104  1
  O  O4  1  0.67983956  0.72324337  0.33714330  1
  O  O5  1  0.32016044  0.27675663  0.83714330  1
  O  O6  1  0.20629075  0.03302717  0.38636104  1
  O  O7  1  0.70629075  0.46697283  0.88636104  1
  O  O8  1  0.11386551  0.17511298  0.19361887  1
  O  O9  1  0.63731587  0.10570364  0.21675112  1
  O  O10  1  0.75305781  0.53237613  0.71101265  1
  O  O11  1  0.96669208  0.30929115  0.53042385  1
  O  O12  1  0.43435776  0.22720823  0.48953766  1
  O  O13  1  0.93435776  0.27279177  0.98953766  1
  O  O14  1  0.59407598  0.92681673  0.34654381  1
  O  O15  1  0.07132480  0.05448766  0.01570999  1
  O  O16  1  0.92867520  0.94551234  0.51570999  1
  O  O17  1  0.09407598  0.57318327  0.84654381  1
  O  O18  1  0.72794840  0.28283582  0.15982196  1
  O  O19  1  0.06564224  0.72720823  0.48953766  1
  O  O20  1  0.38613449  0.67511298  0.19361887  1
  O  O21  1  0.46669208  0.19070885  0.03042385  1
  O  O22  1  0.57132480  0.44551234  0.51570999  1
  O  O23  1  0.24694219  0.46762387  0.21101265  1
  O  O24  1  0.59377822  0.98296837  0.05707977  1
  O  O25  1  0.01475136  0.12672489  0.52415466  1
  O  O26  1  0.88613449  0.82488702  0.69361887  1
  O  O27  1  0.42867520  0.55448766  0.01570999  1
  O  O28  1  0.90622178  0.48296837  0.05707977  1
  O  O29  1  0.11706044  0.85399937  0.34123053  1
  O  O30  1  0.36268413  0.89429636  0.71675112  1
  O  O31  1  0.40592402  0.07318327  0.84654381  1
  O  O32  1  0.27205160  0.71716418  0.65982196  1
  O  O33  1  0.90592402  0.42681673  0.34654381  1
  O  O34  1  0.09377822  0.51703163  0.55707977  1
  O  O35  1  0.61386551  0.32488702  0.69361887  1
  O  O36  1  0.74694219  0.03237613  0.71101265  1
  O  O37  1  0.17983956  0.77675663  0.83714330  1
  O  O38  1  0.77205160  0.78283582  0.15982196  1
  O  O39  1  0.22794840  0.21716418  0.65982196  1
  O  O40  1  0.38293956  0.35399937  0.34123053  1
  O  O41  1  0.25305781  0.96762387  0.21101265  1
  O  O42  1  0.82016044  0.22324337  0.33714330  1
  O  O43  1  0.86268413  0.60570364  0.21675112  1
  O  O44  1  0.98524864  0.87327511  0.02415466  1
  O  O45  1  0.13731587  0.39429636  0.71675112  1
  O  O46  1  0.53330792  0.80929115  0.53042385  1
  O  O47  1  0.03330792  0.69070885  0.03042385  1
  O  O48  1  0.40622178  0.01703163  0.55707977  1
  O  O49  1  0.61706044  0.64600063  0.84123053  1
  O  O50  1  0.51475136  0.37327511  0.02415466  1
  O  O51  1  0.29370925  0.53302717  0.38636104  1
loop_
_geom_bond_atom_site_label_1
_geom_bond_atom_site_label_2
_geom_bond_distance
_geom_bond_site_symmetry_2
Na0 O14 2.276475 1_555
Na0 O41 2.362212 1_655
Na0 O9 2.404281 1_565
Na0 O38 2.467133 1_555
Na0 O24 2.539480 1_555
Na1 O17 2.411880 1_555
Na1 O5 2.472028 1_555
Na1 O50 2.472852 1_556
Na1 O7 2.583801 1_455
Na1 O28 2.615323 1_456
Na1 O13 2.668263 1_455
Na1 O27 2.722294 1_556
Na1 O45 2.912378 1_555
Na1 O7 2.919671 1_555
Na2 O35 2.251159 1_555
Na2 O0 2.274106 1_555
Na2 O13 2.397748 1_555
Na2 O5 2.457131 1_555
Na2 O7 2.481401 1_555
Na3 O20 2.251159 1_555
Na3 O29 2.274106 1_555
Na3 O19 2.397748 1_555
Na3 O4 2.457131 1_555
Na3 O51 2.481401 1_555
Na4 O10 2.368558 1_555
Na4 O1 2.375641 1_555
Na4 O19 2.426512 1_655
Na4 O26 2.437231 1_555
Na4 O32 2.497285 1_655
Na4 O34 2.752657 1_655
Na4 O46 2.834048 1_555
Na5 O33 2.276475 1_555
Na5 O23 2.362212 1_555
Na5 O43 2.404281 1_555
Na5 O18 2.467133 1_555
Na5 O28 2.539480 1_555
Na6 O23 2.368558 1_555
Na6 O50 2.375641 1_555
Na6 O13 2.426512 1_454
Na6 O8 2.437231 1_555
Na6 O18 2.497285 1_455
Na6 O28 2.752657 1_455
Na6 O21 2.834048 1_555
Na7 O17 2.276475 1_555
Na7 O10 2.362212 1_555
Na7 O45 2.404281 1_555
Na7 O32 2.467133 1_555
Na7 O34 2.539480 1_555
Na8 O14 2.411880 1_545
Na8 O42 2.472028 1_555
Na8 O25 2.472852 1_655
Na8 O6 2.583801 1_555
Na8 O48 2.615323 1_555
Na8 O12 2.668263 1_555
Na8 O16 2.722294 1_545
Na8 O9 2.912378 1_555
Na8 O6 2.919671 1_655
Na9 O31 2.411880 1_565
Na9 O37 2.472028 1_555
Na9 O44 2.472852 1_456
Na9 O3 2.583801 1_555
Na9 O24 2.615323 1_556
Na9 O2 2.668263 1_555
Na9 O15 2.722294 1_566
Na9 O30 2.912378 1_555
Na9 O3 2.919671 1_455
Na10 O33 2.411880 1_555
Na10 O4 2.472028 1_555
Na10 O1 2.472852 1_555
Na10 O51 2.583801 1_655
Na10 O34 2.615323 1_655
Na10 O19 2.668263 1_655
Na10 O22 2.722294 1_555
Na10 O43 2.912378 1_555
Na10 O51 2.919671 1_555
Na11 O8 2.251159 1_555
Na11 O40 2.274106 1_555
Na11 O12 2.397748 1_555
Na11 O42 2.457131 1_455
Na11 O6 2.481401 1_555
Na12 O26 2.251159 1_555
Na12 O49 2.274106 1_555
Na12 O2 2.397748 1_555
Na12 O37 2.457131 1_655
Na12 O3 2.481401 1_555
Na13 O31 2.276475 1_555
Na13 O36 2.362212 1_455
Na13 O30 2.404281 1_545
Na13 O39 2.467133 1_555
Na13 O48 2.539480 1_555
Na14 O36 2.368558 1_555
Na14 O25 2.375641 1_655
Na14 O12 2.426512 1_555
Na14 O35 2.437231 1_555
Na14 O39 2.497285 1_555
Na14 O48 2.752657 1_555
Na14 O11 2.834048 1_555
Na15 O41 2.368558 1_555
Na15 O44 2.375641 1_455
Na15 O2 2.426512 1_554
Na15 O20 2.437231 1_555
Na15 O38 2.497285 1_555
Na15 O24 2.752657 1_555
Na15 O47 2.834048 1_555
O0 Si3 1.603759 1_555
O0 Sc3 2.015589 1_655
O1 Si0 1.667584 1_555
O1 Si2 1.670365 1_555
O2 Si9 1.604313 1_556
O2 Sc7 2.215822 1_555
O3 Si15 1.661707 1_556
O3 Si3 1.688910 1_565
O4 Si11 1.623071 1_555
O4 Sc1 2.056174 1_555
O5 Si14 1.623071 1_555
O5 Sc3 2.056174 1_555
O6 Si4 1.661707 1_555
O6 Si1 1.688910 1_545
O7 Si5 1.661707 1_556
O7 Si12 1.688910 1_555
O8 Si8 1.615891 1_455
O8 Sc2 2.083333 1_555
O9 Si8 1.605129 1_555
O9 Sc2 2.033426 1_555
O10 Si12 1.622747 1_555
O10 Sc6 2.057516 1_555
O11 Si7 1.617674 1_655
O11 Sc0 2.168572 1_555
O11 Sc6 2.190797 1_555
O12 Si7 1.604313 1_555
O12 Sc0 2.215822 1_555
O13 Si6 1.604313 1_556
O13 Sc3 2.215822 1_655
O14 Si1 1.614681 1_555
O14 Sc1 2.082108 1_555
O15 Si15 1.619201 1_445
O15 Sc2 2.198001 1_555
O15 Sc3 2.218469 1_554
O16 Si4 1.619201 1_665
O16 Sc5 2.198001 1_555
O16 Sc1 2.218469 1_555
O17 Si12 1.614681 1_455
O17 Sc7 2.082108 1_555
O18 Si6 1.665988 1_555
O18 Si8 1.688427 1_555
O19 Si2 1.604313 1_555
O19 Sc1 2.215822 1_455
O20 Si11 1.615891 1_555
O20 Sc4 2.083333 1_555
O21 Si6 1.617674 1_555
O21 Sc3 2.168572 1_554
O21 Sc2 2.190797 1_555
O22 Si0 1.619201 1_555
O22 Sc6 2.198001 1_555
O22 Sc0 2.218469 1_555
O23 Si10 1.622747 1_555
O23 Sc4 2.057516 1_555
O24 Si15 1.593312 1_555
O24 Sc2 2.122962 1_565
O25 Si4 1.667584 1_555
O25 Si7 1.670365 1_555
O26 Si13 1.615891 1_655
O26 Sc5 2.083333 1_555
O27 Si5 1.619201 1_555
O27 Sc4 2.198001 1_555
O27 Sc7 2.218469 1_554
O28 Si5 1.593312 1_555
O28 Sc4 2.122962 1_655
O29 Si1 1.603759 1_555
O29 Sc1 2.015589 1_455
O30 Si13 1.605129 1_555
O30 Sc5 2.033426 1_555
O31 Si3 1.614681 1_555
O31 Sc3 2.082108 1_555
O32 Si2 1.665988 1_555
O32 Si13 1.688427 1_555
O33 Si10 1.614681 1_655
O33 Sc0 2.082108 1_555
O34 Si0 1.593312 1_555
O34 Sc6 2.122962 1_455
O35 Si14 1.615891 1_555
O35 Sc6 2.083333 1_555
O36 Si3 1.622747 1_555
O36 Sc5 2.057516 1_545
O37 Si13 1.623071 1_555
O37 Sc7 2.056174 1_555
O38 Si9 1.665988 1_555
O38 Si11 1.688427 1_555
O39 Si7 1.665988 1_555
O39 Si14 1.688427 1_555
O40 Si10 1.603759 1_555
O40 Sc0 2.015589 1_555
O41 Si1 1.622747 1_555
O41 Sc2 2.057516 1_565
O42 Si8 1.623071 1_555
O42 Sc0 2.056174 1_555
O43 Si11 1.605129 1_555
O43 Sc4 2.033426 1_655
O44 Si15 1.667584 1_555
O44 Si9 1.670365 1_555
O45 Si14 1.605129 1_555
O45 Sc6 2.033426 1_455
O46 Si2 1.617674 1_555
O46 Sc1 2.168572 1_555
O46 Sc5 2.190797 1_555
O47 Si9 1.617674 1_455
O47 Sc7 2.168572 1_554
O47 Sc4 2.190797 1_555
O48 Si4 1.593312 1_555
O48 Sc5 2.122962 1_545
O49 Si12 1.603759 1_555
O49 Sc7 2.015589 1_555
O50 Si5 1.667584 1_555
O50 Si6 1.670365 1_555
O51 Si0 1.661707 1_555
O51 Si10 1.688910 1_555
