# generated using pymatgen
data_Ba4NaAuO8
_symmetry_space_group_name_H-M   'P 1'
_cell_length_a   8.48252940
_cell_length_b   8.48252940
_cell_length_c   8.48252940
_cell_angle_alpha   139.71884883
_cell_angle_beta   139.71884883
_cell_angle_gamma   58.28043628
_symmetry_Int_Tables_number   1
_chemical_formula_structural   Ba4NaAuO8
_chemical_formula_sum   'Ba4 Na1 Au1 O8'
_cell_volume   252.81379586
_cell_formula_units_Z   1
loop_
 _symmetry_equiv_pos_site_id
 _symmetry_equiv_pos_as_xyz
  1  'x, y, z'
loop_
 _atom_site_type_symbol
 _atom_site_label
 _atom_site_symmetry_multiplicity
 _atom_site_fract_x
 _atom_site_fract_y
 _atom_site_fract_z
 _atom_site_occupancy
  Ba  Ba0  1  0.87385100  0.37385100  0.50000000  1
  Ba  Ba1  1  0.37385100  0.87385100  0.50000000  1
  Ba  Ba2  1  0.62614900  0.12614900  0.50000000  1
  Ba  Ba3  1  0.12614900  0.62614900  0.50000000  1
  Na  Na0  1  0.50000000  0.50000000  0.00000000  1
  Au  Au0  1  0.00000000  0.00000000  0.00000000  1
  O  O0  1  0.22323900  0.22323900  0.00000000  1
  O  O1  1  0.32722800  0.32722800  0.00000000  1
  O  O2  1  0.67277200  0.67277200  0.00000000  1
  O  O3  1  0.75903600  0.75903600  0.51807200  1
  O  O4  1  0.77676100  0.77676100  0.00000000  1
  O  O5  1  0.24096400  0.24096400  0.48192800  1
  O  O6  1  0.75903600  0.24096400  0.00000000  1
  O  O7  1  0.24096400  0.75903600  0.00000000  1
loop_
_geom_bond_atom_site_label_1
_geom_bond_atom_site_label_2
_geom_bond_distance
_geom_bond_site_symmetry_2
Ba0 O5 2.786583 1_655
Ba0 O7 2.786583 1_656
Ba0 O6 2.786583 1_555
Ba0 O3 2.786583 1_555
Ba0 O1 3.001336 1_656
Ba0 O1 3.001336 1_555
Ba0 O4 3.255839 1_545
Ba0 O4 3.255839 1_556
Ba1 O5 2.786583 1_565
Ba1 O6 2.786583 1_566
Ba1 O7 2.786583 1_555
Ba1 O3 2.786583 1_555
Ba1 O1 3.001336 1_566
Ba1 O1 3.001336 1_555
Ba1 O4 3.255839 1_455
Ba1 O4 3.255839 1_556
Ba2 O7 2.786583 1_545
Ba2 O3 2.786583 1_545
Ba2 O5 2.786583 1_555
Ba2 O6 2.786583 1_556
Ba2 O2 3.001336 1_545
Ba2 O2 3.001336 1_556
Ba2 O0 3.255839 1_656
Ba2 O0 3.255839 1_555
Ba3 O6 2.786583 1_455
Ba3 O3 2.786583 1_455
Ba3 O5 2.786583 1_555
Ba3 O7 2.786583 1_556
Ba3 O2 3.001336 1_455
Ba3 O2 3.001336 1_556
Ba3 O0 3.255839 1_566
Ba3 O0 3.255839 1_555
Na0 O5 2.139925 1_554
Na0 O6 2.139925 1_555
Na0 O3 2.139925 1_555
Na0 O7 2.139925 1_555
Na0 O1 2.560101 1_555
Na0 O2 2.560101 1_555
Au0 O7 1.990630 1_545
Au0 O6 1.990630 1_455
Au0 O5 1.990630 1_555
Au0 O3 1.990630 1_444
O0 O1 1.540888 1_555
O2 O4 1.540888 1_555
