# generated using pymatgen
data_CsNb2BiO7
_symmetry_space_group_name_H-M   'P 1'
_cell_length_a   5.49111200
_cell_length_b   5.58750400
_cell_length_c   11.66247700
_cell_angle_alpha   90.00000000
_cell_angle_beta   90.00000000
_cell_angle_gamma   90.00000000
_symmetry_Int_Tables_number   1
_chemical_formula_structural   CsNb2BiO7
_chemical_formula_sum   'Cs2 Nb4 Bi2 O14'
_cell_volume   357.82357403
_cell_formula_units_Z   2
loop_
 _symmetry_equiv_pos_site_id
 _symmetry_equiv_pos_as_xyz
  1  'x, y, z'
loop_
 _atom_site_type_symbol
 _atom_site_label
 _atom_site_symmetry_multiplicity
 _atom_site_fract_x
 _atom_site_fract_y
 _atom_site_fract_z
 _atom_site_occupancy
  Cs  Cs0  1  0.25716700  0.24783400  0.50000000  1
  Cs  Cs1  1  0.74283300  0.74783400  0.50000000  1
  Nb  Nb0  1  0.24612000  0.75336500  0.79457500  1
  Nb  Nb1  1  0.75388000  0.25336500  0.20542500  1
  Nb  Nb2  1  0.75388000  0.25336500  0.79457500  1
  Nb  Nb3  1  0.24612000  0.75336500  0.20542500  1
  Bi  Bi0  1  0.27525200  0.18729900  0.00000000  1
  Bi  Bi1  1  0.72474800  0.68729900  0.00000000  1
  O  O0  1  0.44494400  0.07435600  0.81627700  1
  O  O1  1  0.96743900  0.98664300  0.84347300  1
  O  O2  1  0.77826500  0.24983400  0.35893600  1
  O  O3  1  0.96743900  0.98664300  0.15652700  1
  O  O4  1  0.03256100  0.48664300  0.15652700  1
  O  O5  1  0.67455500  0.29347200  0.00000000  1
  O  O6  1  0.22173500  0.74983400  0.64106400  1
  O  O7  1  0.55505600  0.57435600  0.81627700  1
  O  O8  1  0.32544500  0.79347200  0.00000000  1
  O  O9  1  0.55505600  0.57435600  0.18372300  1
  O  O10  1  0.77826500  0.24983400  0.64106400  1
  O  O11  1  0.22173500  0.74983400  0.35893600  1
  O  O12  1  0.44494400  0.07435600  0.18372300  1
  O  O13  1  0.03256100  0.48664300  0.84347300  1
loop_
_geom_bond_atom_site_label_1
_geom_bond_atom_site_label_2
_geom_bond_distance
_geom_bond_site_symmetry_2
Cs0 O10 3.101936 1_455
Cs0 O2 3.101936 1_455
Cs0 O11 3.238383 1_545
Cs0 O6 3.238383 1_545
Cs0 O11 3.257608 1_555
Cs0 O6 3.257608 1_555
Cs0 O10 3.300654 1_555
Cs0 O2 3.300654 1_555
Cs1 O11 3.101936 1_655
Cs1 O6 3.101936 1_655
Cs1 O2 3.238383 1_555
Cs1 O10 3.238383 1_555
Cs1 O2 3.257608 1_565
Cs1 O10 3.257608 1_565
Cs1 O11 3.300654 1_555
Cs1 O6 3.300654 1_555
Nb0 O6 1.795427 1_555
Nb0 O13 1.980254 1_555
Nb0 O7 1.985514 1_555
Nb0 O1 2.089472 1_455
Nb0 O0 2.114897 1_565
Nb0 O8 2.445330 1_556
Nb1 O2 1.795427 1_555
Nb1 O3 1.980254 1_545
Nb1 O12 1.985514 1_555
Nb1 O4 2.089472 1_655
Nb1 O9 2.114897 1_555
Nb1 O5 2.445330 1_555
Nb2 O10 1.795427 1_555
Nb2 O1 1.980254 1_545
Nb2 O0 1.985514 1_555
Nb2 O13 2.089472 1_655
Nb2 O7 2.114897 1_555
Nb2 O5 2.445330 1_556
Nb3 O11 1.795427 1_555
Nb3 O4 1.980254 1_555
Nb3 O9 1.985514 1_555
Nb3 O3 2.089472 1_455
Nb3 O12 2.114897 1_565
Nb3 O8 2.445330 1_555
Bi0 O8 2.217703 1_545
Bi0 O5 2.271455 1_555
Bi0 O12 2.420229 1_555
Bi0 O0 2.420229 1_554
Bi0 O3 2.728797 1_445
Bi0 O1 2.728797 1_444
Bi0 O4 2.811744 1_555
Bi0 O13 2.811744 1_554
Bi1 O5 2.217703 1_555
Bi1 O8 2.271455 1_555
Bi1 O9 2.420229 1_555
Bi1 O7 2.420229 1_554
Bi1 O4 2.728797 1_655
Bi1 O13 2.728797 1_654
Bi1 O3 2.811744 1_555
Bi1 O1 2.811744 1_554
