# generated using pymatgen
data_LaSiO3F
_symmetry_space_group_name_H-M   'P 1'
_cell_length_a   7.06389951
_cell_length_b   7.06389951
_cell_length_c   10.89756642
_cell_angle_alpha   90.00000000
_cell_angle_beta   90.00000000
_cell_angle_gamma   120.00000381
_symmetry_Int_Tables_number   1
_chemical_formula_structural   LaSiO3F
_chemical_formula_sum   'La6 Si6 O18 F6'
_cell_volume   470.92219988
_cell_formula_units_Z   6
loop_
 _symmetry_equiv_pos_site_id
 _symmetry_equiv_pos_as_xyz
  1  'x, y, z'
loop_
 _atom_site_type_symbol
 _atom_site_label
 _atom_site_symmetry_multiplicity
 _atom_site_fract_x
 _atom_site_fract_y
 _atom_site_fract_z
 _atom_site_occupancy
  La  La0  1  0.64410930  1.00000000  -0.00000000  1
  La  La1  1  0.35589070  0.35589070  0.50000000  1
  La  La2  1  1.00000000  0.64410930  0.50000000  1
  La  La3  1  1.00000000  0.64410930  -0.00000000  1
  La  La4  1  0.35589070  0.35589070  -0.00000000  1
  La  La5  1  0.64410930  1.00000000  0.50000000  1
  Si  Si0  1  0.27260524  0.04690026  0.25000000  1
  Si  Si1  1  0.77429502  0.72739476  0.25000000  1
  Si  Si2  1  0.95309974  0.22570498  0.25000000  1
  Si  Si3  1  0.22570498  0.95309974  0.75000000  1
  Si  Si4  1  0.72739476  0.77429502  0.75000000  1
  Si  Si5  1  0.04690026  0.27260524  0.75000000  1
  O  O0  1  0.19380072  0.23525701  0.25000000  1
  O  O1  1  0.04145629  0.80619928  0.25000000  1
  O  O2  1  0.76474299  0.95854371  0.25000000  1
  O  O3  1  0.95854371  0.76474299  0.75000000  1
  O  O4  1  0.80619928  0.04145629  0.75000000  1
  O  O5  1  0.23525701  0.19380072  0.75000000  1
  O  O6  1  0.39690249  0.07740314  0.12317258  1
  O  O7  1  0.68050065  0.60309751  0.37682742  1
  O  O8  1  0.92259686  0.31949935  0.37682742  1
  O  O9  1  0.92259686  0.31949935  0.12317258  1
  O  O10  1  0.68050065  0.60309751  0.12317258  1
  O  O11  1  0.31949935  0.92259686  0.87682742  1
  O  O12  1  0.60309751  0.68050065  0.87682742  1
  O  O13  1  0.07740314  0.39690249  0.87682742  1
  O  O14  1  0.39690249  0.07740314  0.37682742  1
  O  O15  1  0.07740314  0.39690249  0.62317258  1
  O  O16  1  0.31949935  0.92259686  0.62317258  1
  O  O17  1  0.60309751  0.68050065  0.62317258  1
  F  F0  1  -0.00000000  -0.00000000  -0.00000000  1
  F  F1  1  -0.00000000  -0.00000000  0.50000000  1
  F  F2  1  0.33333300  0.66666700  0.07493456  1
  F  F3  1  0.33333300  0.66666700  0.42506544  1
  F  F4  1  0.66666700  0.33333300  0.92506544  1
  F  F5  1  0.66666700  0.33333300  0.57493456  1
loop_
_geom_bond_atom_site_label_1
_geom_bond_atom_site_label_2
_geom_bond_distance
_geom_bond_site_symmetry_2
La0 O11 2.470796 1_554
La0 O6 2.470796 1_565
La0 O9 2.515047 1_565
La0 O12 2.515047 1_554
La1 O17 2.470796 1_555
La1 O7 2.470796 1_555
La1 O14 2.515047 1_555
La1 O15 2.515047 1_555
La2 O8 2.470796 1_555
La2 O15 2.470796 1_655
La2 O16 2.515047 1_655
La2 O7 2.515047 1_555
La3 O9 2.470796 1_555
La3 O13 2.470796 1_654
La3 O11 2.515047 1_654
La3 O10 2.515047 1_555
La4 O12 2.470796 1_554
La4 O10 2.470796 1_555
La4 O13 2.515047 1_554
La4 O6 2.515047 1_555
La5 O16 2.470796 1_555
La5 O14 2.470796 1_565
La5 O8 2.515047 1_565
La5 O17 2.515047 1_555
O0 Si2 1.667574 1_455
O0 Si0 1.679542 1_555
O1 Si0 1.667574 1_565
O1 Si1 1.679542 1_455
O2 Si1 1.667574 1_555
O2 Si2 1.679542 1_565
O3 Si4 1.667574 1_555
O3 Si3 1.679542 1_655
O4 Si5 1.667574 1_655
O4 Si4 1.679542 1_545
O5 Si3 1.667574 1_545
O5 Si5 1.679542 1_555
O6 Si0 1.593234 1_555
O7 Si1 1.593234 1_555
O8 Si2 1.593234 1_555
O9 Si2 1.593234 1_555
O10 Si1 1.593234 1_555
O11 Si3 1.593234 1_555
O12 Si4 1.593234 1_555
O13 Si5 1.593234 1_555
O14 Si0 1.593234 1_555
O15 Si5 1.593234 1_555
O16 Si3 1.593234 1_555
O17 Si4 1.593234 1_555
F0 La4 2.513976 1_555
F0 La0 2.513976 1_445
F0 La3 2.513976 1_445
F1 La1 2.513976 1_555
F1 La2 2.513976 1_445
F1 La5 2.513976 1_445
F2 La3 2.421016 1_455
F2 La0 2.421019 1_555
F2 La4 2.421023 1_555
F3 La2 2.421016 1_455
F3 La5 2.421019 1_555
F3 La1 2.421023 1_555
F4 La0 2.421016 1_546
F4 La3 2.421019 1_556
F4 La4 2.421023 1_556
F5 La5 2.421016 1_545
F5 La2 2.421019 1_555
F5 La1 2.421023 1_555
