# generated using pymatgen
data_SiO2
_symmetry_space_group_name_H-M   'P 1'
_cell_length_a   14.28400616
_cell_length_b   14.28400616
_cell_length_c   14.28400616
_cell_angle_alpha   90.00000000
_cell_angle_beta   90.00000000
_cell_angle_gamma   90.00000000
_symmetry_Int_Tables_number   1
_chemical_formula_structural   SiO2
_chemical_formula_sum   'Si48 O96'
_cell_volume   2914.40622883
_cell_formula_units_Z   48
loop_
 _symmetry_equiv_pos_site_id
 _symmetry_equiv_pos_as_xyz
  1  'x, y, z'
loop_
 _atom_site_type_symbol
 _atom_site_label
 _atom_site_symmetry_multiplicity
 _atom_site_fract_x
 _atom_site_fract_y
 _atom_site_fract_z
 _atom_site_occupancy
  Si  Si0  1  0.10448441  0.72685614  0.80896867  1
  Si  Si1  1  0.72685614  0.19103133  0.89551559  1
  Si  Si2  1  0.19103133  0.10448441  0.27314386  1
  Si  Si3  1  0.10448441  0.27314386  0.80896867  1
  Si  Si4  1  0.10448441  0.27314386  0.19103133  1
  Si  Si5  1  0.77314386  0.60448441  0.30896867  1
  Si  Si6  1  0.27314386  0.19103133  0.10448441  1
  Si  Si7  1  0.30896867  0.22685614  0.60448441  1
  Si  Si8  1  0.60448441  0.30896867  0.22685614  1
  Si  Si9  1  0.39551559  0.69103133  0.77314386  1
  Si  Si10  1  0.30896867  0.77314386  0.39551559  1
  Si  Si11  1  0.30896867  0.22685614  0.39551559  1
  Si  Si12  1  0.80896867  0.89551559  0.27314386  1
  Si  Si13  1  0.80896867  0.10448441  0.72685614  1
  Si  Si14  1  0.19103133  0.89551559  0.27314386  1
  Si  Si15  1  0.72685614  0.80896867  0.10448441  1
  Si  Si16  1  0.72685614  0.19103133  0.10448441  1
  Si  Si17  1  0.77314386  0.39551559  0.30896867  1
  Si  Si18  1  0.60448441  0.69103133  0.22685614  1
  Si  Si19  1  0.39551559  0.30896867  0.77314386  1
  Si  Si20  1  0.30896867  0.77314386  0.60448441  1
  Si  Si21  1  0.89551559  0.27314386  0.19103133  1
  Si  Si22  1  0.27314386  0.80896867  0.10448441  1
  Si  Si23  1  0.19103133  0.89551559  0.72685614  1
  Si  Si24  1  0.19103133  0.10448441  0.72685614  1
  Si  Si25  1  0.69103133  0.22685614  0.60448441  1
  Si  Si26  1  0.39551559  0.30896867  0.22685614  1
  Si  Si27  1  0.22685614  0.60448441  0.30896867  1
  Si  Si28  1  0.22685614  0.60448441  0.69103133  1
  Si  Si29  1  0.72685614  0.80896867  0.89551559  1
  Si  Si30  1  0.60448441  0.69103133  0.77314386  1
  Si  Si31  1  0.10448441  0.72685614  0.19103133  1
  Si  Si32  1  0.77314386  0.60448441  0.69103133  1
  Si  Si33  1  0.69103133  0.77314386  0.39551559  1
  Si  Si34  1  0.80896867  0.89551559  0.72685614  1
  Si  Si35  1  0.80896867  0.10448441  0.27314386  1
  Si  Si36  1  0.89551559  0.72685614  0.80896867  1
  Si  Si37  1  0.69103133  0.22685614  0.39551559  1
  Si  Si38  1  0.39551559  0.69103133  0.22685614  1
  Si  Si39  1  0.77314386  0.39551559  0.69103133  1
  Si  Si40  1  0.22685614  0.39551559  0.30896867  1
  Si  Si41  1  0.89551559  0.27314386  0.80896867  1
  Si  Si42  1  0.22685614  0.39551559  0.69103133  1
  Si  Si43  1  0.27314386  0.19103133  0.89551559  1
  Si  Si44  1  0.27314386  0.80896867  0.89551559  1
  Si  Si45  1  0.60448441  0.30896867  0.77314386  1
  Si  Si46  1  0.69103133  0.77314386  0.60448441  1
  Si  Si47  1  0.89551559  0.72685614  0.19103133  1
  O  O0  1  0.10771115  0.81994406  0.74286891  1
  O  O1  1  0.81994406  0.74286891  0.89228885  1
  O  O2  1  0.84875294  0.00000000  0.28701431  1
  O  O3  1  0.31994406  0.39228885  0.75713109  1
  O  O4  1  0.71298569  0.15124706  0.00000000  1
  O  O5  1  0.60771115  0.24286891  0.68005594  1
  O  O6  1  0.00000000  0.71298569  0.84875294  1
  O  O7  1  0.50000000  0.65124706  0.78701431  1
  O  O8  1  0.74286891  0.10771115  0.81994406  1
  O  O9  1  0.10771115  0.18005594  0.74286891  1
  O  O10  1  0.13489386  0.63489386  0.75000000  1
  O  O11  1  0.63489386  0.75000000  0.86510614  1
  O  O12  1  0.50000000  0.34875294  0.21298569  1
  O  O13  1  0.89228885  0.18005594  0.74286891  1
  O  O14  1  0.25000000  0.13489386  0.36510614  1
  O  O15  1  0.74286891  0.89228885  0.81994406  1
  O  O16  1  0.21298569  0.50000000  0.65124706  1
  O  O17  1  0.25713109  0.10771115  0.18005594  1
  O  O18  1  0.13489386  0.63489386  0.25000000  1
  O  O19  1  0.24286891  0.68005594  0.60771115  1
  O  O20  1  0.74286891  0.89228885  0.18005594  1
  O  O21  1  0.10771115  0.81994406  0.25713109  1
  O  O22  1  0.25000000  0.86510614  0.63489386  1
  O  O23  1  0.78701431  0.50000000  0.34875294  1
  O  O24  1  0.34875294  0.78701431  0.50000000  1
  O  O25  1  0.75713109  0.68005594  0.39228885  1
  O  O26  1  0.36510614  0.75000000  0.86510614  1
  O  O27  1  0.75000000  0.86510614  0.36510614  1
  O  O28  1  0.71298569  0.84875294  0.00000000  1
  O  O29  1  0.18005594  0.74286891  0.10771115  1
  O  O30  1  0.68005594  0.39228885  0.75713109  1
  O  O31  1  0.50000000  0.34875294  0.78701431  1
  O  O32  1  0.34875294  0.21298569  0.50000000  1
  O  O33  1  0.00000000  0.28701431  0.84875294  1
  O  O34  1  0.39228885  0.24286891  0.68005594  1
  O  O35  1  0.75000000  0.13489386  0.36510614  1
  O  O36  1  0.75000000  0.13489386  0.63489386  1
  O  O37  1  0.75000000  0.86510614  0.63489386  1
  O  O38  1  0.65124706  0.21298569  0.50000000  1
  O  O39  1  0.81994406  0.25713109  0.10771115  1
  O  O40  1  0.25000000  0.13489386  0.63489386  1
  O  O41  1  0.89228885  0.81994406  0.25713109  1
  O  O42  1  0.13489386  0.36510614  0.75000000  1
  O  O43  1  0.60771115  0.75713109  0.68005594  1
  O  O44  1  0.25713109  0.10771115  0.81994406  1
  O  O45  1  0.36510614  0.25000000  0.13489386  1
  O  O46  1  0.13489386  0.36510614  0.25000000  1
  O  O47  1  0.18005594  0.25713109  0.10771115  1
  O  O48  1  0.74286891  0.10771115  0.18005594  1
  O  O49  1  0.24286891  0.68005594  0.39228885  1
  O  O50  1  0.18005594  0.25713109  0.89228885  1
  O  O51  1  0.50000000  0.65124706  0.21298569  1
  O  O52  1  0.25713109  0.89228885  0.18005594  1
  O  O53  1  0.78701431  0.50000000  0.65124706  1
  O  O54  1  0.36510614  0.25000000  0.86510614  1
  O  O55  1  0.00000000  0.28701431  0.15124706  1
  O  O56  1  0.86510614  0.36510614  0.75000000  1
  O  O57  1  0.25713109  0.89228885  0.81994406  1
  O  O58  1  0.31994406  0.39228885  0.24286891  1
  O  O59  1  0.68005594  0.39228885  0.24286891  1
  O  O60  1  0.63489386  0.75000000  0.13489386  1
  O  O61  1  0.63489386  0.25000000  0.86510614  1
  O  O62  1  0.15124706  0.00000000  0.28701431  1
  O  O63  1  0.63489386  0.25000000  0.13489386  1
  O  O64  1  0.39228885  0.75713109  0.31994406  1
  O  O65  1  0.15124706  0.00000000  0.71298569  1
  O  O66  1  0.89228885  0.81994406  0.74286891  1
  O  O67  1  0.89228885  0.18005594  0.25713109  1
  O  O68  1  0.24286891  0.31994406  0.39228885  1
  O  O69  1  0.28701431  0.15124706  0.00000000  1
  O  O70  1  0.28701431  0.84875294  0.00000000  1
  O  O71  1  0.39228885  0.75713109  0.68005594  1
  O  O72  1  0.24286891  0.31994406  0.60771115  1
  O  O73  1  0.10771115  0.18005594  0.25713109  1
  O  O74  1  0.18005594  0.74286891  0.89228885  1
  O  O75  1  0.60771115  0.24286891  0.31994406  1
  O  O76  1  0.36510614  0.75000000  0.13489386  1
  O  O77  1  0.86510614  0.36510614  0.25000000  1
  O  O78  1  0.21298569  0.50000000  0.34875294  1
  O  O79  1  0.39228885  0.24286891  0.31994406  1
  O  O80  1  0.86510614  0.63489386  0.25000000  1
  O  O81  1  0.68005594  0.60771115  0.24286891  1
  O  O82  1  0.81994406  0.25713109  0.89228885  1
  O  O83  1  0.31994406  0.60771115  0.24286891  1
  O  O84  1  0.65124706  0.78701431  0.50000000  1
  O  O85  1  0.00000000  0.71298569  0.15124706  1
  O  O86  1  0.25000000  0.86510614  0.36510614  1
  O  O87  1  0.75713109  0.68005594  0.60771115  1
  O  O88  1  0.75713109  0.31994406  0.39228885  1
  O  O89  1  0.31994406  0.60771115  0.75713109  1
  O  O90  1  0.68005594  0.60771115  0.75713109  1
  O  O91  1  0.60771115  0.75713109  0.31994406  1
  O  O92  1  0.81994406  0.74286891  0.10771115  1
  O  O93  1  0.86510614  0.63489386  0.75000000  1
  O  O94  1  0.75713109  0.31994406  0.60771115  1
  O  O95  1  0.84875294  0.00000000  0.71298569  1
loop_
_geom_bond_atom_site_label_1
_geom_bond_atom_site_label_2
_geom_bond_distance
_geom_bond_site_symmetry_2
O0 Si23 1.622962 1_555
O0 Si0 1.631441 1_555
O1 Si36 1.622962 1_555
O1 Si29 1.631441 1_555
O2 Si12 1.609229 1_545
O2 Si35 1.609229 1_555
O3 Si19 1.622962 1_555
O3 Si42 1.631441 1_555
O4 Si1 1.609229 1_554
O4 Si16 1.609229 1_555
O5 Si25 1.622962 1_555
O5 Si45 1.631441 1_555
O6 Si36 1.609229 1_455
O6 Si0 1.609229 1_555
O7 Si30 1.609229 1_555
O7 Si9 1.609229 1_555
O8 Si1 1.622962 1_555
O8 Si13 1.631441 1_555
O9 Si24 1.622962 1_555
O9 Si3 1.631441 1_555
O10 Si0 1.619777 1_555
O10 Si28 1.619777 1_555
O11 Si29 1.619777 1_555
O11 Si30 1.619777 1_555
O12 Si8 1.609229 1_555
O12 Si26 1.609229 1_555
O13 Si13 1.622962 1_555
O13 Si41 1.631441 1_555
O14 Si11 1.619777 1_555
O14 Si2 1.619777 1_555
O15 Si29 1.622962 1_555
O15 Si34 1.631441 1_555
O16 Si28 1.609229 1_555
O16 Si42 1.609229 1_555
O17 Si6 1.622962 1_555
O17 Si2 1.631441 1_555
O18 Si31 1.619777 1_555
O18 Si27 1.619777 1_555
O19 Si28 1.622962 1_555
O19 Si20 1.631441 1_555
O20 Si15 1.622962 1_555
O20 Si12 1.631441 1_555
O21 Si14 1.622962 1_555
O21 Si31 1.631441 1_555
O22 Si23 1.619777 1_555
O22 Si20 1.619777 1_555
O23 Si5 1.609229 1_555
O23 Si17 1.609229 1_555
O24 Si20 1.609229 1_555
O24 Si10 1.609229 1_555
O25 Si5 1.622962 1_555
O25 Si33 1.631441 1_555
O26 Si9 1.619777 1_555
O26 Si44 1.619777 1_555
O27 Si33 1.619777 1_555
O27 Si12 1.619777 1_555
O28 Si29 1.609229 1_554
O28 Si15 1.609229 1_555
O29 Si31 1.622962 1_555
O29 Si22 1.631441 1_555
O30 Si45 1.622962 1_555
O30 Si39 1.631441 1_555
O31 Si45 1.609229 1_555
O31 Si19 1.609229 1_555
O32 Si7 1.609229 1_555
O32 Si11 1.609229 1_555
O33 Si41 1.609229 1_455
O33 Si3 1.609229 1_555
O34 Si7 1.622962 1_555
O34 Si19 1.631441 1_555
O35 Si37 1.619777 1_555
O35 Si35 1.619777 1_555
O36 Si13 1.619777 1_555
O36 Si25 1.619777 1_555
O37 Si34 1.619777 1_555
O37 Si46 1.619777 1_555
O38 Si25 1.609229 1_555
O38 Si37 1.609229 1_555
O39 Si21 1.622962 1_555
O39 Si16 1.631441 1_555
O40 Si24 1.619777 1_555
O40 Si7 1.619777 1_555
O41 Si12 1.622962 1_555
O41 Si47 1.631441 1_555
O42 Si42 1.619777 1_555
O42 Si3 1.619777 1_555
O43 Si46 1.622962 1_555
O43 Si30 1.631441 1_555
O44 Si43 1.622962 1_555
O44 Si24 1.631441 1_555
O45 Si26 1.619777 1_555
O45 Si6 1.619777 1_555
O46 Si40 1.619777 1_555
O46 Si4 1.619777 1_555
O47 Si4 1.622962 1_555
O47 Si6 1.631441 1_555
O48 Si16 1.622962 1_555
O48 Si35 1.631441 1_555
O49 Si27 1.622962 1_555
O49 Si10 1.631441 1_555
O50 Si3 1.622962 1_555
O50 Si43 1.631441 1_555
O51 Si18 1.609229 1_555
O51 Si38 1.609229 1_555
O52 Si22 1.622962 1_555
O52 Si14 1.631441 1_555
O53 Si32 1.609229 1_555
O53 Si39 1.609229 1_555
O54 Si19 1.619777 1_555
O54 Si43 1.619777 1_555
O55 Si21 1.609229 1_455
O55 Si4 1.609229 1_555
O56 Si39 1.619777 1_555
O56 Si41 1.619777 1_555
O57 Si44 1.622962 1_555
O57 Si23 1.631441 1_555
O58 Si26 1.622962 1_555
O58 Si40 1.631441 1_555
O59 Si8 1.622962 1_555
O59 Si17 1.631441 1_555
O60 Si15 1.619777 1_555
O60 Si18 1.619777 1_555
O61 Si45 1.619777 1_555
O61 Si1 1.619777 1_555
O62 Si14 1.609229 1_545
O62 Si2 1.609229 1_555
O63 Si16 1.619777 1_555
O63 Si8 1.619777 1_555
O64 Si10 1.622962 1_555
O64 Si38 1.631441 1_555
O65 Si23 1.609229 1_545
O65 Si24 1.609229 1_555
O66 Si34 1.622962 1_555
O66 Si36 1.631441 1_555
O67 Si35 1.622962 1_555
O67 Si21 1.631441 1_555
O68 Si40 1.622962 1_555
O68 Si11 1.631441 1_555
O69 Si43 1.609229 1_554
O69 Si6 1.609229 1_555
O70 Si44 1.609229 1_554
O70 Si22 1.609229 1_555
O71 Si20 1.622962 1_555
O71 Si9 1.631441 1_555
O72 Si42 1.622962 1_555
O72 Si7 1.631441 1_555
O73 Si2 1.622962 1_555
O73 Si4 1.631441 1_555
O74 Si0 1.622962 1_555
O74 Si44 1.631441 1_555
O75 Si37 1.622962 1_555
O75 Si8 1.631441 1_555
O76 Si38 1.619777 1_555
O76 Si22 1.619777 1_555
O77 Si17 1.619777 1_555
O77 Si21 1.619777 1_555
O78 Si27 1.609229 1_555
O78 Si40 1.609229 1_555
O79 Si11 1.622962 1_555
O79 Si26 1.631441 1_555
O80 Si47 1.619777 1_555
O80 Si5 1.619777 1_555
O81 Si18 1.622962 1_555
O81 Si5 1.631441 1_555
O82 Si41 1.622962 1_555
O82 Si1 1.631441 1_555
O83 Si38 1.622962 1_555
O83 Si27 1.631441 1_555
O84 Si46 1.609229 1_555
O84 Si33 1.609229 1_555
O85 Si47 1.609229 1_455
O85 Si31 1.609229 1_555
O86 Si10 1.619777 1_555
O86 Si14 1.619777 1_555
O87 Si32 1.622962 1_555
O87 Si46 1.631441 1_555
O88 Si17 1.622962 1_555
O88 Si37 1.631441 1_555
O89 Si9 1.622962 1_555
O89 Si28 1.631441 1_555
O90 Si30 1.622962 1_555
O90 Si32 1.631441 1_555
O91 Si33 1.622962 1_555
O91 Si18 1.631441 1_555
O92 Si47 1.622962 1_555
O92 Si15 1.631441 1_555
O93 Si32 1.619777 1_555
O93 Si36 1.619777 1_555
O94 Si39 1.622962 1_555
O94 Si25 1.631441 1_555
O95 Si34 1.609229 1_545
O95 Si13 1.609229 1_555
