# generated using pymatgen
data_Dy2Fe14C
_symmetry_space_group_name_H-M   'P 1'
_cell_length_a   8.72492300
_cell_length_b   8.72492300
_cell_length_c   11.71535500
_cell_angle_alpha   90.00000000
_cell_angle_beta   90.00000000
_cell_angle_gamma   90.00000000
_symmetry_Int_Tables_number   1
_chemical_formula_structural   Dy2Fe14C
_chemical_formula_sum   'Dy8 Fe56 C4'
_cell_volume   891.82298020
_cell_formula_units_Z   4
loop_
 _symmetry_equiv_pos_site_id
 _symmetry_equiv_pos_as_xyz
  1  'x, y, z'
loop_
 _atom_site_type_symbol
 _atom_site_label
 _atom_site_symmetry_multiplicity
 _atom_site_fract_x
 _atom_site_fract_y
 _atom_site_fract_z
 _atom_site_occupancy
  Dy  Dy0  1  0.35571300  0.35571300  0.50000000  1
  Dy  Dy1  1  0.64428700  0.64428700  0.50000000  1
  Dy  Dy2  1  0.24107500  0.75892500  0.50000000  1
  Dy  Dy3  1  0.75892500  0.24107500  0.50000000  1
  Dy  Dy4  1  0.25892500  0.25892500  0.00000000  1
  Dy  Dy5  1  0.85571300  0.14428700  0.00000000  1
  Dy  Dy6  1  0.74107500  0.74107500  0.00000000  1
  Dy  Dy7  1  0.14428700  0.85571300  0.00000000  1
  Fe  Fe0  1  0.22553800  0.56398000  0.87975200  1
  Fe  Fe1  1  0.46465700  0.85792200  0.67538200  1
  Fe  Fe2  1  0.93602000  0.72553800  0.37975200  1
  Fe  Fe3  1  0.59698900  0.40301100  0.29614500  1
  Fe  Fe4  1  0.68459200  0.68459200  0.75460900  1
  Fe  Fe5  1  0.43602000  0.77446200  0.87975200  1
  Fe  Fe6  1  0.68459200  0.68459200  0.24539100  1
  Fe  Fe7  1  0.96465700  0.64207800  0.17538200  1
  Fe  Fe8  1  0.14207800  0.53534300  0.67538200  1
  Fe  Fe9  1  0.06398000  0.27446200  0.62024800  1
  Fe  Fe10  1  0.50000000  0.50000000  0.10806500  1
  Fe  Fe11  1  0.64207800  0.96465700  0.82461800  1
  Fe  Fe12  1  0.72553800  0.93602000  0.62024800  1
  Fe  Fe13  1  0.03534300  0.35792200  0.82461800  1
  Fe  Fe14  1  0.14207800  0.53534300  0.32461800  1
  Fe  Fe15  1  0.31540800  0.31540800  0.75460900  1
  Fe  Fe16  1  0.85792200  0.46465700  0.32461800  1
  Fe  Fe17  1  0.90301100  0.90301100  0.79614500  1
  Fe  Fe18  1  0.81540800  0.18459200  0.25460900  1
  Fe  Fe19  1  0.77446200  0.43602000  0.12024800  1
  Fe  Fe20  1  0.59698900  0.40301100  0.70385500  1
  Fe  Fe21  1  0.27446200  0.06398000  0.37975200  1
  Fe  Fe22  1  0.50000000  0.50000000  0.89193500  1
  Fe  Fe23  1  0.35792200  0.03534300  0.82461800  1
  Fe  Fe24  1  0.40301100  0.59698900  0.29614500  1
  Fe  Fe25  1  0.96465700  0.64207800  0.82461800  1
  Fe  Fe26  1  0.22553800  0.56398000  0.12024800  1
  Fe  Fe27  1  0.00000000  0.00000000  0.60806500  1
  Fe  Fe28  1  0.35792200  0.03534300  0.17538200  1
  Fe  Fe29  1  0.27446200  0.06398000  0.62024800  1
  Fe  Fe30  1  0.85792200  0.46465700  0.67538200  1
  Fe  Fe31  1  0.56398000  0.22553800  0.12024800  1
  Fe  Fe32  1  0.56398000  0.22553800  0.87975200  1
  Fe  Fe33  1  0.90301100  0.90301100  0.20385500  1
  Fe  Fe34  1  0.09698900  0.09698900  0.79614500  1
  Fe  Fe35  1  0.18459200  0.81540800  0.25460900  1
  Fe  Fe36  1  0.46465700  0.85792200  0.32461800  1
  Fe  Fe37  1  0.00000000  0.50000000  0.50000000  1
  Fe  Fe38  1  0.72553800  0.93602000  0.37975200  1
  Fe  Fe39  1  0.77446200  0.43602000  0.87975200  1
  Fe  Fe40  1  0.00000000  0.00000000  0.39193500  1
  Fe  Fe41  1  0.50000000  0.00000000  0.50000000  1
  Fe  Fe42  1  0.31540800  0.31540800  0.24539100  1
  Fe  Fe43  1  0.06398000  0.27446200  0.37975200  1
  Fe  Fe44  1  0.43602000  0.77446200  0.12024800  1
  Fe  Fe45  1  0.64207800  0.96465700  0.17538200  1
  Fe  Fe46  1  0.53534300  0.14207800  0.67538200  1
  Fe  Fe47  1  0.09698900  0.09698900  0.20385500  1
  Fe  Fe48  1  0.03534300  0.35792200  0.17538200  1
  Fe  Fe49  1  0.00000000  0.50000000  0.00000000  1
  Fe  Fe50  1  0.53534300  0.14207800  0.32461800  1
  Fe  Fe51  1  0.18459200  0.81540800  0.74539100  1
  Fe  Fe52  1  0.93602000  0.72553800  0.62024800  1
  Fe  Fe53  1  0.40301100  0.59698900  0.70385500  1
  Fe  Fe54  1  0.81540800  0.18459200  0.74539100  1
  Fe  Fe55  1  0.50000000  0.00000000  0.00000000  1
  C  C0  1  0.62707600  0.37292400  0.00000000  1
  C  C1  1  0.12707600  0.12707600  0.50000000  1
  C  C2  1  0.37292400  0.62707600  0.00000000  1
  C  C3  1  0.87292400  0.87292400  0.50000000  1
loop_
_geom_bond_atom_site_label_1
_geom_bond_atom_site_label_2
_geom_bond_distance
_geom_bond_site_symmetry_2
Dy0 Fe9 2.994314 1_555
Dy0 Fe29 2.994314 1_555
Dy0 Fe43 2.994314 1_555
Dy0 Fe21 2.994314 1_555
Dy0 Fe42 3.024009 1_555
Dy0 Fe15 3.024009 1_555
Dy0 Fe14 3.186258 1_555
Dy0 Fe50 3.186258 1_555
Dy0 Fe8 3.186258 1_555
Dy0 Fe46 3.186258 1_555
Dy0 Fe3 3.210213 1_555
Dy0 Fe20 3.210213 1_555
Dy0 Fe24 3.210213 1_555
Dy0 Fe53 3.210213 1_555
Dy0 Fe37 3.349171 1_555
Dy0 Fe41 3.349171 1_555
Dy1 Fe2 2.994314 1_555
Dy1 Fe52 2.994314 1_555
Dy1 Fe12 2.994314 1_555
Dy1 Fe38 2.994314 1_555
Dy1 Fe6 3.024009 1_555
Dy1 Fe4 3.024009 1_555
Dy1 Fe16 3.186258 1_555
Dy1 Fe1 3.186258 1_555
Dy1 Fe36 3.186258 1_555
Dy1 Fe30 3.186258 1_555
Dy1 Fe53 3.210213 1_555
Dy1 Fe3 3.210213 1_555
Dy1 Fe20 3.210213 1_555
Dy1 Fe24 3.210213 1_555
Dy1 Fe37 3.349171 1_655
Dy1 Fe41 3.349171 1_565
Dy2 Fe35 2.958115 1_555
Dy2 Fe51 2.958115 1_555
Dy2 Fe14 2.961935 1_555
Dy2 Fe36 2.961935 1_555
Dy2 Fe8 2.961935 1_555
Dy2 Fe1 2.961935 1_555
Dy2 Fe29 3.025466 1_565
Dy2 Fe21 3.025466 1_565
Dy2 Fe52 3.025466 1_455
Dy2 Fe2 3.025466 1_455
Dy2 Fe37 3.086691 1_555
Dy2 Fe41 3.086691 1_565
Dy2 Fe24 3.113859 1_555
Dy2 Fe53 3.113859 1_555
Dy2 Fe27 3.232810 1_565
Dy2 Fe40 3.232810 1_565
Dy3 Fe18 2.958115 1_555
Dy3 Fe54 2.958115 1_555
Dy3 Fe50 2.961935 1_555
Dy3 Fe30 2.961935 1_555
Dy3 Fe46 2.961935 1_555
Dy3 Fe16 2.961935 1_555
Dy3 Fe43 3.025466 1_655
Dy3 Fe9 3.025466 1_655
Dy3 Fe12 3.025466 1_545
Dy3 Fe38 3.025466 1_545
Dy3 Fe41 3.086691 1_555
Dy3 Fe37 3.086691 1_655
Dy3 Fe3 3.113859 1_555
Dy3 Fe20 3.113859 1_555
Dy3 Fe27 3.232810 1_655
Dy3 Fe40 3.232810 1_655
Dy4 Fe15 2.958115 1_554
Dy4 Fe42 2.958115 1_555
Dy4 Fe28 2.961935 1_555
Dy4 Fe48 2.961935 1_555
Dy4 Fe23 2.961935 1_554
Dy4 Fe13 2.961935 1_554
Dy4 Fe0 3.025466 1_554
Dy4 Fe26 3.025466 1_555
Dy4 Fe31 3.025466 1_555
Dy4 Fe32 3.025466 1_554
Dy4 Fe49 3.086691 1_555
Dy4 Fe55 3.086691 1_555
Dy4 Fe34 3.113859 1_554
Dy4 Fe47 3.113859 1_555
Dy4 Fe22 3.232810 1_554
Dy4 Fe10 3.232810 1_555
Dy5 Fe31 2.994314 1_555
Dy5 Fe32 2.994314 1_554
Dy5 Fe19 2.994314 1_555
Dy5 Fe39 2.994314 1_554
Dy5 Fe54 3.024009 1_554
Dy5 Fe18 3.024009 1_555
Dy5 Fe45 3.186258 1_545
Dy5 Fe11 3.186258 1_544
Dy5 Fe13 3.186258 1_654
Dy5 Fe48 3.186258 1_655
Dy5 Fe33 3.210213 1_545
Dy5 Fe47 3.210213 1_655
Dy5 Fe34 3.210213 1_654
Dy5 Fe17 3.210213 1_544
Dy5 Fe55 3.349171 1_555
Dy5 Fe49 3.349171 1_655
Dy6 Fe4 2.958115 1_554
Dy6 Fe6 2.958115 1_555
Dy6 Fe11 2.961935 1_554
Dy6 Fe25 2.961935 1_554
Dy6 Fe7 2.961935 1_555
Dy6 Fe45 2.961935 1_555
Dy6 Fe19 3.025466 1_555
Dy6 Fe39 3.025466 1_554
Dy6 Fe5 3.025466 1_554
Dy6 Fe44 3.025466 1_555
Dy6 Fe49 3.086691 1_655
Dy6 Fe55 3.086691 1_565
Dy6 Fe33 3.113859 1_555
Dy6 Fe17 3.113859 1_554
Dy6 Fe22 3.232810 1_554
Dy6 Fe10 3.232810 1_555
Dy7 Fe26 2.994314 1_555
Dy7 Fe0 2.994314 1_554
Dy7 Fe44 2.994314 1_555
Dy7 Fe5 2.994314 1_554
Dy7 Fe35 3.024009 1_555
Dy7 Fe51 3.024009 1_554
Dy7 Fe25 3.186258 1_454
Dy7 Fe7 3.186258 1_455
Dy7 Fe28 3.186258 1_565
Dy7 Fe23 3.186258 1_564
Dy7 Fe17 3.210213 1_454
Dy7 Fe33 3.210213 1_455
Dy7 Fe34 3.210213 1_564
Dy7 Fe47 3.210213 1_565
Dy7 Fe49 3.349171 1_555
Dy7 Fe55 3.349171 1_565
Fe0 Fe25 2.462203 1_455
Fe0 Fe49 2.483631 1_556
Fe0 Fe8 2.514993 1_555
Fe0 Fe13 2.530448 1_555
Fe0 Fe53 2.593660 1_555
Fe0 Fe51 2.723537 1_555
Fe0 Fe15 2.732733 1_555
Fe1 Fe53 2.362956 1_555
Fe1 Fe41 2.419377 1_565
Fe1 Fe12 2.462203 1_555
Fe1 Fe23 2.514006 1_565
Fe1 Fe11 2.514006 1_555
Fe1 Fe5 2.514993 1_555
Fe1 Fe29 2.530448 1_565
Fe1 Fe46 2.554796 1_565
Fe1 Fe51 2.604074 1_555
Fe1 Fe4 2.613573 1_555
Fe2 Fe37 2.483631 1_655
Fe2 Fe7 2.514993 1_555
Fe2 Fe33 2.593660 1_555
Fe2 Fe6 2.723537 1_555
Fe2 Fe35 2.732733 1_655
Fe3 Fe50 2.362956 1_555
Fe3 Fe31 2.593660 1_555
Fe3 Fe6 2.640735 1_555
Fe3 Fe42 2.640735 1_555
Fe4 Fe53 2.640735 1_555
Fe4 Fe52 2.723537 1_555
Fe4 Fe5 2.732733 1_555
Fe5 Fe55 2.483631 1_566
Fe5 Fe53 2.593660 1_555
Fe5 Fe51 2.723537 1_555
Fe6 Fe7 2.604074 1_555
Fe8 Fe9 2.462203 1_555
Fe10 Fe3 2.507441 1_555
Fe10 Fe24 2.507441 1_555
Fe10 Fe42 2.788559 1_555
Fe10 Fe6 2.788559 1_555
Fe11 Fe17 2.362956 1_555
Fe11 Fe55 2.419377 1_566
Fe11 Fe32 2.462203 1_565
Fe11 Fe46 2.514006 1_565
Fe11 Fe12 2.514993 1_555
Fe11 Fe5 2.530448 1_555
Fe11 Fe23 2.554796 1_565
Fe11 Fe4 2.604074 1_555
Fe11 Fe54 2.613573 1_565
Fe12 Fe41 2.483631 1_565
Fe12 Fe46 2.530448 1_565
Fe12 Fe17 2.593660 1_555
Fe12 Fe4 2.723537 1_555
Fe12 Fe54 2.732733 1_565
Fe13 Fe34 2.362956 1_555
Fe13 Fe49 2.419377 1_556
Fe13 Fe39 2.462203 1_455
Fe13 Fe30 2.514006 1_455
Fe13 Fe8 2.514006 1_555
Fe13 Fe9 2.514993 1_555
Fe13 Fe25 2.554796 1_455
Fe13 Fe15 2.604074 1_555
Fe13 Fe54 2.613573 1_455
Fe14 Fe24 2.362956 1_555
Fe14 Fe37 2.419377 1_555
Fe14 Fe43 2.462203 1_555
Fe14 Fe48 2.514006 1_555
Fe14 Fe7 2.514006 1_455
Fe14 Fe26 2.514993 1_555
Fe14 Fe2 2.530448 1_455
Fe14 Fe16 2.554796 1_455
Fe14 Fe35 2.604074 1_555
Fe14 Fe42 2.613573 1_555
Fe15 Fe23 2.604074 1_555
Fe15 Fe8 2.613573 1_555
Fe15 Fe46 2.613573 1_555
Fe15 Fe53 2.640735 1_555
Fe15 Fe20 2.640735 1_555
Fe15 Fe29 2.723537 1_555
Fe15 Fe9 2.723537 1_555
Fe15 Fe32 2.732733 1_555
Fe15 Fe34 2.738629 1_555
Fe15 Fe22 2.788559 1_555
Fe16 Fe3 2.362956 1_555
Fe16 Fe37 2.419377 1_655
Fe16 Fe2 2.462203 1_555
Fe16 Fe48 2.514006 1_655
Fe16 Fe7 2.514006 1_555
Fe16 Fe19 2.514993 1_555
Fe16 Fe43 2.530448 1_655
Fe16 Fe18 2.604074 1_555
Fe16 Fe6 2.613573 1_555
Fe17 Fe25 2.362956 1_555
Fe17 Fe34 2.393476 1_665
Fe17 Fe27 2.507441 1_665
Fe17 Fe52 2.593660 1_555
Fe17 Fe54 2.640735 1_565
Fe17 Fe51 2.640735 1_655
Fe17 Fe4 2.738629 1_555
Fe18 Fe50 2.604074 1_555
Fe18 Fe48 2.613573 1_655
Fe18 Fe45 2.613573 1_545
Fe18 Fe33 2.640735 1_545
Fe18 Fe47 2.640735 1_655
Fe18 Fe31 2.723537 1_555
Fe18 Fe19 2.723537 1_555
Fe18 Fe43 2.732733 1_655
Fe18 Fe38 2.732733 1_545
Fe18 Fe3 2.738629 1_555
Fe18 Fe40 2.788559 1_655
Fe19 Fe48 2.462203 1_655
Fe19 Fe49 2.483631 1_655
Fe19 Fe7 2.530448 1_555
Fe19 Fe3 2.593660 1_555
Fe19 Fe6 2.732733 1_555
Fe20 Fe30 2.362956 1_555
Fe20 Fe46 2.362956 1_555
Fe20 Fe53 2.393476 1_555
Fe20 Fe22 2.507441 1_555
Fe20 Fe39 2.593660 1_555
Fe20 Fe32 2.593660 1_555
Fe20 Fe4 2.640735 1_555
Fe20 Fe54 2.738629 1_555
Fe21 Fe50 2.462203 1_555
Fe21 Fe41 2.483631 1_555
Fe21 Fe28 2.514993 1_555
Fe21 Fe36 2.530448 1_545
Fe21 Fe47 2.593660 1_555
Fe21 Fe42 2.723537 1_555
Fe21 Fe35 2.732733 1_545
Fe22 Fe53 2.507441 1_555
Fe22 Fe4 2.788559 1_555
Fe23 Fe34 2.362956 1_555
Fe23 Fe55 2.419377 1_556
Fe23 Fe5 2.462203 1_545
Fe23 Fe46 2.514006 1_555
Fe23 Fe29 2.514993 1_555
Fe23 Fe32 2.530448 1_555
Fe23 Fe51 2.613573 1_545
Fe24 Fe36 2.362956 1_555
Fe24 Fe3 2.393476 1_555
Fe24 Fe44 2.593660 1_555
Fe24 Fe26 2.593660 1_555
Fe24 Fe6 2.640735 1_555
Fe24 Fe42 2.640735 1_555
Fe24 Fe35 2.738629 1_555
Fe25 Fe49 2.419377 1_656
Fe25 Fe8 2.514006 1_655
Fe25 Fe30 2.514006 1_555
Fe25 Fe52 2.514993 1_555
Fe25 Fe39 2.530448 1_555
Fe25 Fe4 2.604074 1_555
Fe25 Fe51 2.613573 1_655
Fe26 Fe7 2.462203 1_455
Fe26 Fe49 2.483631 1_555
Fe26 Fe48 2.530448 1_555
Fe26 Fe35 2.723537 1_555
Fe26 Fe42 2.732733 1_555
Fe27 Fe34 2.507441 1_555
Fe27 Fe51 2.788559 1_545
Fe27 Fe54 2.788559 1_455
Fe28 Fe47 2.362956 1_555
Fe28 Fe55 2.419377 1_555
Fe28 Fe44 2.462203 1_545
Fe28 Fe36 2.514006 1_545
Fe28 Fe50 2.514006 1_555
Fe28 Fe31 2.530448 1_555
Fe28 Fe45 2.554796 1_545
Fe28 Fe42 2.604074 1_555
Fe28 Fe35 2.613573 1_545
Fe29 Fe46 2.462203 1_555
Fe29 Fe41 2.483631 1_555
Fe29 Fe34 2.593660 1_555
Fe29 Fe51 2.732733 1_545
Fe30 Fe37 2.419377 1_655
Fe30 Fe52 2.462203 1_555
Fe30 Fe39 2.514993 1_555
Fe30 Fe9 2.530448 1_655
Fe30 Fe8 2.554796 1_655
Fe30 Fe54 2.604074 1_555
Fe30 Fe4 2.613573 1_555
Fe31 Fe45 2.462203 1_545
Fe31 Fe55 2.483631 1_555
Fe31 Fe50 2.514993 1_555
Fe31 Fe42 2.732733 1_555
Fe32 Fe55 2.483631 1_556
Fe32 Fe46 2.514993 1_555
Fe32 Fe54 2.723537 1_555
Fe33 Fe45 2.362956 1_555
Fe33 Fe7 2.362956 1_555
Fe33 Fe47 2.393476 1_665
Fe33 Fe40 2.507441 1_665
Fe33 Fe38 2.593660 1_555
Fe33 Fe35 2.640735 1_655
Fe33 Fe6 2.738629 1_555
Fe34 Fe9 2.593660 1_555
Fe34 Fe54 2.640735 1_455
Fe34 Fe51 2.640735 1_545
Fe35 Fe36 2.604074 1_555
Fe35 Fe7 2.613573 1_455
Fe35 Fe47 2.640735 1_565
Fe35 Fe44 2.723537 1_555
Fe35 Fe40 2.788559 1_565
Fe36 Fe41 2.419377 1_565
Fe36 Fe38 2.462203 1_555
Fe36 Fe45 2.514006 1_555
Fe36 Fe44 2.514993 1_555
Fe36 Fe50 2.554796 1_565
Fe36 Fe6 2.613573 1_555
Fe37 Fe8 2.419377 1_555
Fe37 Fe52 2.483631 1_455
Fe37 Fe43 2.483631 1_555
Fe37 Fe9 2.483631 1_555
Fe38 Fe41 2.483631 1_565
Fe38 Fe45 2.514993 1_555
Fe38 Fe50 2.530448 1_565
Fe38 Fe6 2.723537 1_555
Fe39 Fe49 2.483631 1_656
Fe39 Fe54 2.723537 1_555
Fe39 Fe4 2.732733 1_555
Fe40 Fe47 2.507441 1_555
Fe41 Fe50 2.419377 1_555
Fe41 Fe46 2.419377 1_555
Fe42 Fe48 2.604074 1_555
Fe42 Fe50 2.613573 1_555
Fe42 Fe43 2.723537 1_555
Fe42 Fe47 2.738629 1_555
Fe43 Fe48 2.514993 1_555
Fe43 Fe47 2.593660 1_555
Fe44 Fe55 2.483631 1_565
Fe44 Fe45 2.530448 1_555
Fe44 Fe6 2.732733 1_555
Fe45 Fe55 2.419377 1_565
Fe45 Fe50 2.514006 1_565
Fe45 Fe6 2.604074 1_555
Fe46 Fe54 2.604074 1_555
Fe47 Fe48 2.362956 1_555
Fe48 Fe49 2.419377 1_555
Fe48 Fe7 2.554796 1_455
Fe49 Fe7 2.419377 1_455
Fe51 Fe8 2.604074 1_555
Fe51 Fe52 2.732733 1_455
Fe51 Fe53 2.738629 1_555
Fe52 Fe8 2.530448 1_655
Fe53 Fe8 2.362956 1_555
Fe54 Fe9 2.732733 1_655
C0 Fe31 1.985258 1_555
C0 Fe32 1.985258 1_554
C0 Fe19 1.985258 1_555
C0 Fe39 1.985258 1_554
C0 Fe22 2.015282 1_554
C0 Fe10 2.015282 1_555
C0 Dy5 2.821130 1_555
C1 Fe43 1.985258 1_555
C1 Fe9 1.985258 1_555
C1 Fe29 1.985258 1_555
C1 Fe21 1.985258 1_555
C1 Fe27 2.015282 1_555
C1 Fe40 2.015282 1_555
C1 Dy0 2.821130 1_555
C2 Fe26 1.985258 1_555
C2 Fe0 1.985258 1_554
C2 Fe44 1.985258 1_555
C2 Fe5 1.985258 1_554
C2 Fe22 2.015282 1_554
C2 Fe10 2.015282 1_555
C2 Dy7 2.821130 1_555
C3 Fe2 1.985258 1_555
C3 Fe52 1.985258 1_555
C3 Fe12 1.985258 1_555
C3 Fe38 1.985258 1_555
C3 Fe27 2.015282 1_665
C3 Fe40 2.015282 1_665
C3 Dy1 2.821130 1_555
