# generated using pymatgen
data_Sr4U2O9
_symmetry_space_group_name_H-M   'P 1'
_cell_length_a   8.70160400
_cell_length_b   10.55281201
_cell_length_c   12.25225160
_cell_angle_alpha   107.03355088
_cell_angle_beta   89.01377052
_cell_angle_gamma   113.35718677
_symmetry_Int_Tables_number   1
_chemical_formula_structural   Sr4U2O9
_chemical_formula_sum   'Sr16 U8 O36'
_cell_volume   981.28045811
_cell_formula_units_Z   4
loop_
 _symmetry_equiv_pos_site_id
 _symmetry_equiv_pos_as_xyz
  1  'x, y, z'
loop_
 _atom_site_type_symbol
 _atom_site_label
 _atom_site_symmetry_multiplicity
 _atom_site_fract_x
 _atom_site_fract_y
 _atom_site_fract_z
 _atom_site_occupancy
  Sr  Sr0  1  0.33587200  0.66935700  0.16466100  1
  Sr  Sr1  1  0.44088700  0.35524600  0.10137300  1
  Sr  Sr2  1  0.71584900  0.98456100  0.23977200  1
  Sr  Sr3  1  0.66412800  0.33064300  0.83533900  1
  Sr  Sr4  1  0.96208100  0.34888400  0.09015500  1
  Sr  Sr5  1  0.77933800  0.01898600  0.77051200  1
  Sr  Sr6  1  0.00000000  0.00000000  0.00000000  1
  Sr  Sr7  1  0.22066200  0.98101400  0.22948800  1
  Sr  Sr8  1  0.03791900  0.65111600  0.90984500  1
  Sr  Sr9  1  0.00000000  0.00000000  0.50000000  1
  Sr  Sr10  1  0.28415100  0.01543900  0.76022800  1
  Sr  Sr11  1  0.11148500  0.68811400  0.43516300  1
  Sr  Sr12  1  0.55911300  0.64475400  0.89862700  1
  Sr  Sr13  1  0.37509800  0.31832100  0.57307400  1
  Sr  Sr14  1  0.62490200  0.68167900  0.42692600  1
  Sr  Sr15  1  0.88851500  0.31188600  0.56483700  1
  U  U0  1  0.16971100  0.33782600  0.33535600  1
  U  U1  1  0.66603400  0.33121600  0.33258600  1
  U  U2  1  0.83270300  0.66624400  0.17044800  1
  U  U3  1  0.50000000  0.00000000  0.00000000  1
  U  U4  1  0.16729700  0.33375600  0.82955200  1
  U  U5  1  0.83028900  0.66217400  0.66464400  1
  U  U6  1  0.33396600  0.66878400  0.66741400  1
  U  U7  1  0.50000000  0.00000000  0.50000000  1
  O  O0  1  0.59943500  0.66068400  0.22152800  1
  O  O1  1  0.75301100  0.43866400  0.20428600  1
  O  O2  1  0.38269000  0.88610400  0.33135000  1
  O  O3  1  0.52348900  0.13347300  0.19275300  1
  O  O4  1  0.87863000  0.26697100  0.32907100  1
  O  O5  1  0.17951200  0.50925100  0.28313900  1
  O  O6  1  0.50898400  0.83184400  0.05598100  1
  O  O7  1  0.76425800  0.08236200  0.00103700  1
  O  O8  1  0.94031000  0.34004400  0.88400700  1
  O  O9  1  0.15483300  0.22298200  0.16215300  1
  O  O10  1  0.27547400  0.44417500  0.00377700  1
  O  O11  1  0.91050700  0.87899100  0.15137700  1
  O  O12  1  0.08949300  0.12100900  0.84862300  1
  O  O13  1  0.72452600  0.55582500  0.99622300  1
  O  O14  1  0.84516700  0.77701800  0.83784700  1
  O  O15  1  0.05969000  0.65995600  0.11599300  1
  O  O16  1  0.23574200  0.91763800  0.99896300  1
  O  O17  1  0.49101600  0.16815600  0.94401900  1
  O  O18  1  0.82048800  0.49074900  0.71686100  1
  O  O19  1  0.12137000  0.73302900  0.67092900  1
  O  O20  1  0.27272000  0.00372700  0.55472500  1
  O  O21  1  0.47651100  0.86652700  0.80724700  1
  O  O22  1  0.61731000  0.11389600  0.66865000  1
  O  O23  1  0.24698900  0.56133600  0.79571400  1
  O  O24  1  0.42148700  0.77760200  0.53872900  1
  O  O25  1  0.06565400  0.23082700  0.65470100  1
  O  O26  1  0.19069000  0.46799400  0.52112000  1
  O  O27  1  0.40056500  0.33931600  0.77847200  1
  O  O28  1  0.54094300  0.59653900  0.65544600  1
  O  O29  1  0.84155600  0.83422500  0.61172300  1
  O  O30  1  0.15844400  0.16577500  0.38827700  1
  O  O31  1  0.45905700  0.40346100  0.34455400  1
  O  O32  1  0.80931000  0.53200600  0.47888000  1
  O  O33  1  0.93434600  0.76917300  0.34529900  1
  O  O34  1  0.57851300  0.22239800  0.46127100  1
  O  O35  1  0.72728000  0.99627300  0.44527500  1
loop_
_geom_bond_atom_site_label_1
_geom_bond_atom_site_label_2
_geom_bond_distance
_geom_bond_site_symmetry_2
O0 U2 2.097280 1_555
O0 Sr0 2.452024 1_555
O0 Sr14 2.466783 1_555
O0 Sr1 2.867710 1_555
O0 Sr2 3.093945 1_555
O1 U1 2.156941 1_555
O1 U2 2.381889 1_555
O1 Sr4 2.581788 1_555
O1 Sr1 2.704292 1_555
O2 U7 2.097884 1_565
O2 Sr0 2.474209 1_555
O2 Sr7 2.541882 1_555
O2 Sr2 2.987551 1_555
O2 Sr11 3.016023 1_555
O3 U1 2.180496 1_555
O3 U3 2.332944 1_555
O3 Sr7 2.599327 1_545
O3 Sr2 2.872677 1_545
O3 Sr1 3.184955 1_555
O4 U1 2.204165 1_555
O4 U0 2.334895 1_655
O4 Sr2 2.623158 1_545
O4 Sr15 2.783975 1_555
O5 U0 2.059847 1_555
O5 Sr11 2.484096 1_555
O5 Sr0 2.521740 1_555
O5 Sr4 2.702825 1_455
O6 U3 2.109595 1_565
O6 Sr0 2.490565 1_555
O6 Sr12 2.495815 1_554
O6 Sr2 2.573216 1_555
O7 U3 2.110201 1_555
O7 Sr6 2.523867 1_655
O7 Sr4 2.548026 1_555
O7 Sr5 2.718855 1_554
O8 U4 2.093656 1_655
O8 Sr3 2.442648 1_555
O8 Sr4 2.507700 1_556
O8 Sr8 2.964331 1_655
O8 Sr5 2.986391 1_555
O9 U0 2.089794 1_555
O9 Sr6 2.477660 1_555
O9 Sr1 2.547315 1_555
O9 Sr4 2.803770 1_455
O9 Sr7 3.152626 1_545
O10 U4 2.131375 1_554
O10 Sr0 2.471790 1_555
O10 Sr1 2.483960 1_555
O10 Sr4 2.813832 1_455
O10 Sr12 3.094746 1_554
O11 U2 2.156389 1_555
O11 Sr2 2.451413 1_555
O11 Sr6 2.495278 1_665
O11 Sr7 2.557364 1_655
O12 U4 2.156389 1_555
O12 Sr10 2.451413 1_555
O12 Sr6 2.495278 1_556
O12 Sr5 2.557364 1_455
O13 U2 2.131375 1_556
O13 Sr3 2.471790 1_555
O13 Sr12 2.483960 1_555
O13 Sr8 2.813832 1_655
O13 Sr1 3.094746 1_556
O14 U5 2.089794 1_555
O14 Sr6 2.477660 1_666
O14 Sr12 2.547315 1_555
O14 Sr8 2.803770 1_655
O14 Sr5 3.152626 1_565
O15 U2 2.093656 1_455
O15 Sr0 2.442648 1_555
O15 Sr8 2.507700 1_554
O15 Sr4 2.964331 1_455
O15 Sr7 2.986391 1_555
O16 U3 2.110201 1_566
O16 Sr6 2.523867 1_566
O16 Sr8 2.548026 1_555
O16 Sr7 2.718855 1_556
O17 U3 2.109595 1_556
O17 Sr3 2.490565 1_555
O17 Sr1 2.495815 1_556
O17 Sr10 2.573216 1_555
O18 U5 2.059847 1_555
O18 Sr15 2.484096 1_555
O18 Sr3 2.521740 1_555
O18 Sr8 2.702825 1_655
O19 U6 2.204165 1_555
O19 U5 2.334895 1_455
O19 Sr10 2.623158 1_565
O19 Sr11 2.783975 1_555
O20 U7 2.088780 1_555
O20 Sr9 2.459279 1_555
O20 Sr10 2.486246 1_555
O20 Sr11 2.952014 1_545
O20 Sr13 3.014985 1_555
O21 U6 2.180496 1_555
O21 U3 2.332944 1_566
O21 Sr5 2.599327 1_565
O21 Sr10 2.872677 1_565
O21 Sr12 3.184955 1_555
O22 U7 2.097884 1_555
O22 Sr3 2.474209 1_555
O22 Sr5 2.541882 1_555
O22 Sr10 2.987551 1_555
O22 Sr15 3.016023 1_555
O23 U6 2.156941 1_555
O23 U4 2.381889 1_555
O23 Sr8 2.581788 1_555
O23 Sr12 2.704292 1_555
O24 U6 2.170381 1_555
O24 U7 2.360061 1_565
O24 Sr14 2.561058 1_555
O24 Sr11 2.678512 1_555
O25 U4 2.119385 1_555
O25 Sr15 2.444497 1_455
O25 Sr9 2.466054 1_555
O25 Sr13 2.753198 1_555
O25 Sr5 3.246307 1_455
O26 U6 2.239206 1_555
O26 U0 2.254842 1_555
O26 Sr15 2.635975 1_455
O26 Sr13 2.847573 1_555
O26 Sr11 3.115708 1_555
O27 U4 2.097280 1_555
O27 Sr3 2.452024 1_555
O27 Sr13 2.466783 1_555
O27 Sr12 2.867710 1_555
O27 Sr10 3.093945 1_555
O28 U6 2.204681 1_555
O28 U5 2.326562 1_555
O28 Sr13 2.583740 1_555
O28 Sr12 2.868040 1_555
O28 Sr14 3.172262 1_555
O29 U5 2.067098 1_555
O29 Sr9 2.502104 1_665
O29 Sr5 2.541276 1_565
O29 Sr14 2.622444 1_555
O30 U0 2.067098 1_555
O30 Sr9 2.502104 1_555
O30 Sr7 2.541276 1_545
O30 Sr13 2.622444 1_555
O31 U1 2.204681 1_555
O31 U0 2.326562 1_555
O31 Sr14 2.583740 1_555
O31 Sr1 2.868040 1_555
O31 Sr13 3.172262 1_555
O32 U1 2.239206 1_555
O32 U5 2.254842 1_555
O32 Sr11 2.635975 1_655
O32 Sr14 2.847573 1_555
O32 Sr15 3.115708 1_555
O33 U2 2.119385 1_555
O33 Sr11 2.444497 1_655
O33 Sr9 2.466054 1_665
O33 Sr14 2.753198 1_555
O33 Sr7 3.246307 1_655
O34 U1 2.170381 1_555
O34 U7 2.360061 1_555
O34 Sr13 2.561058 1_555
O34 Sr15 2.678512 1_555
O35 U7 2.088780 1_565
O35 Sr9 2.459279 1_665
O35 Sr2 2.486246 1_555
O35 Sr15 2.952014 1_565
O35 Sr14 3.014985 1_555
