# generated using pymatgen
data_Li5Mn9(P2O7)8
_symmetry_space_group_name_H-M   'P 1'
_cell_length_a   9.68571800
_cell_length_b   11.01132133
_cell_length_c   12.67754248
_cell_angle_alpha   100.89286439
_cell_angle_beta   111.02351509
_cell_angle_gamma   108.28362042
_symmetry_Int_Tables_number   1
_chemical_formula_structural   Li5Mn9(P2O7)8
_chemical_formula_sum   'Li5 Mn9 P16 O56'
_cell_volume   1126.89321445
_cell_formula_units_Z   1
loop_
 _symmetry_equiv_pos_site_id
 _symmetry_equiv_pos_as_xyz
  1  'x, y, z'
loop_
 _atom_site_type_symbol
 _atom_site_label
 _atom_site_symmetry_multiplicity
 _atom_site_fract_x
 _atom_site_fract_y
 _atom_site_fract_z
 _atom_site_occupancy
  Li  Li0  1  0.83948200  0.47823700  0.69831500  1
  Li  Li1  1  0.15505000  0.52006100  0.78391800  1
  Li  Li2  1  0.02379400  0.01727600  0.99040000  1
  Li  Li3  1  0.84242400  0.48101500  0.20427600  1
  Li  Li4  1  0.15960600  0.52047900  0.31105500  1
  Mn  Mn0  1  0.74777400  0.74695800  0.80272500  1
  Mn  Mn1  1  0.60130500  0.20938400  0.41679900  1
  Mn  Mn2  1  0.26541300  0.26824600  0.70345100  1
  Mn  Mn3  1  0.38485800  0.78389100  0.07286300  1
  Mn  Mn4  1  0.00048800  0.00066000  0.49834400  1
  Mn  Mn5  1  0.61128000  0.21319300  0.92311500  1
  Mn  Mn6  1  0.73685900  0.73211800  0.29505300  1
  Mn  Mn7  1  0.39941500  0.79054800  0.57803000  1
  Mn  Mn8  1  0.25360600  0.25855600  0.19859500  1
  P  P0  1  0.10259600  0.78675200  0.83936000  1
  P  P1  1  0.35598400  0.54642900  0.62950300  1
  P  P2  1  0.26173300  0.95503600  0.22071300  1
  P  P3  1  0.34801600  0.29495200  0.48612100  1
  P  P4  1  0.89019500  0.20290500  0.65179700  1
  P  P5  1  0.65246400  0.45516000  0.86663000  1
  P  P6  1  0.74267900  0.05302000  0.27445000  1
  P  P7  1  0.35093500  0.29846900  0.98664000  1
  P  P8  1  0.64335000  0.69769100  0.00929600  1
  P  P9  1  0.25623500  0.94442200  0.71992500  1
  P  P10  1  0.11076400  0.79870400  0.34383800  1
  P  P11  1  0.34861800  0.54307700  0.13557500  1
  P  P12  1  0.65707600  0.70758700  0.51432500  1
  P  P13  1  0.73984000  0.04789300  0.77664300  1
  P  P14  1  0.64724000  0.45471400  0.36797200  1
  P  P15  1  0.89717800  0.21363300  0.15770200  1
  O  O0  1  0.98415600  0.81865600  0.88506000  1
  O  O1  1  0.27332700  0.84525900  0.94074200  1
  O  O2  1  0.04019200  0.63964600  0.76420300  1
  O  O3  1  0.50876900  0.67908200  0.71846300  1
  O  O4  1  0.74746500  0.40966800  0.46464600  1
  O  O5  1  0.75436100  0.78181200  0.96532500  1
  O  O6  1  0.48449200  0.71423000  0.98231000  1
  O  O7  1  0.20515500  0.04091200  0.15010400  1
  O  O8  1  0.26774200  0.46788000  0.68996000  1
  O  O9  1  0.42529200  0.45149700  0.57124800  1
  O  O10  1  0.95985100  0.35265600  0.72095000  1
  O  O11  1  0.72371200  0.17670900  0.33331400  1
  O  O12  1  0.57731900  0.54093800  0.92815100  1
  O  O13  1  0.73363600  0.53380700  0.80342400  1
  O  O14  1  0.24840500  0.28253100  0.35736100  1
  O  O15  1  0.42357900  0.03421600  0.33371600  1
  O  O16  1  0.88449200  0.11373600  0.23789200  1
  O  O17  1  0.72731400  0.14397000  0.54478400  1
  O  O18  1  0.58973400  0.94672600  0.16774000  1
  O  O19  1  0.01886200  0.17026900  0.61178200  1
  O  O20  1  0.23614300  0.21383500  0.53398700  1
  O  O21  1  0.49817700  0.26610300  0.51043300  1
  O  O22  1  0.25553600  0.28634000  0.85531800  1
  O  O23  1  0.26267500  0.82553400  0.14994900  1
  O  O24  1  0.49803200  0.32040400  0.77797100  1
  O  O25  1  0.75649200  0.41292300  0.96329300  1
  O  O26  1  0.88023100  0.11127400  0.73616200  1
  O  O27  1  0.81167400  0.97859900  0.35974000  1
  O  O28  1  0.18873400  0.02156100  0.63711200  1
  O  O29  1  0.12037000  0.89169400  0.26036900  1
  O  O30  1  0.24307700  0.58645800  0.04140800  1
  O  O31  1  0.73541900  0.17692800  0.84517500  1
  O  O32  1  0.50470400  0.67612100  0.22371600  1
  O  O33  1  0.74191300  0.71353600  0.14123100  1
  O  O34  1  0.50549900  0.73524600  0.48682000  1
  O  O35  1  0.98296800  0.83154400  0.38502000  1
  O  O36  1  0.76985000  0.78800000  0.46673300  1
  O  O37  1  0.41101400  0.04786000  0.82695100  1
  O  O38  1  0.27430500  0.85638300  0.45020400  1
  O  O39  1  0.11501000  0.88458800  0.75719600  1
  O  O40  1  0.57796600  0.96516500  0.66461400  1
  O  O41  1  0.75372400  0.72241500  0.64457200  1
  O  O42  1  0.26894400  0.46482800  0.20005600  1
  O  O43  1  0.41865400  0.45420800  0.07079300  1
  O  O44  1  0.27189700  0.82010500  0.65814300  1
  O  O45  1  0.04000700  0.64882200  0.27478000  1
  O  O46  1  0.58323800  0.55058900  0.43165300  1
  O  O47  1  0.80251100  0.96625500  0.84985800  1
  O  O48  1  0.73362600  0.53316100  0.30651200  1
  O  O49  1  0.50743700  0.27809500  0.01310400  1
  O  O50  1  0.23650200  0.21326300  0.02804300  1
  O  O51  1  0.25563800  0.58776400  0.52922500  1
  O  O52  1  0.49130800  0.32375600  0.27920700  1
  O  O53  1  0.95558900  0.35983100  0.23336600  1
  O  O54  1  0.72764100  0.15378300  0.05449100  1
  O  O55  1  0.01963000  0.18680000  0.11418900  1
loop_
_geom_bond_atom_site_label_1
_geom_bond_atom_site_label_2
_geom_bond_distance
_geom_bond_site_symmetry_2
Li0 O2 1.934350 1_655
Li0 O13 2.065594 1_555
Li0 O10 2.067660 1_555
Li1 O10 1.945241 1_455
Li1 O2 1.969276 1_555
Li1 O8 2.002017 1_555
Li2 O47 2.051842 1_445
Li2 O7 2.053002 1_556
Li2 O0 2.171522 1_445
Li2 O55 2.221359 1_556
Li2 O50 2.290243 1_556
Li3 O45 1.950723 1_655
Li3 O53 1.982847 1_555
Li3 O48 2.049000 1_555
Li4 O53 1.938002 1_455
Li4 O45 2.107408 1_555
Li4 O42 2.151221 1_555
Li4 O51 2.451797 1_555
Mn0 O0 1.947940 1_555
Mn0 O3 1.974084 1_555
Mn0 O41 1.996055 1_555
Mn0 O5 1.997967 1_555
Mn0 O47 2.212067 1_555
Mn0 O13 2.309688 1_555
Mn1 O15 1.908134 1_555
Mn1 O11 1.918161 1_555
Mn1 O21 1.938779 1_555
Mn1 O4 2.038415 1_555
Mn1 O17 2.052675 1_555
Mn1 O52 2.470332 1_555
Mn2 O24 1.937659 1_555
Mn2 O22 1.937721 1_555
Mn2 O20 2.006200 1_555
Mn2 O19 2.033610 1_555
Mn2 O8 2.230638 1_555
Mn2 O28 2.461700 1_555
Mn3 O23 1.888580 1_555
Mn3 O6 1.940118 1_554
Mn3 O18 1.959417 1_555
Mn3 O1 2.004160 1_554
Mn3 O30 2.043855 1_555
Mn3 O32 2.557801 1_555
Mn4 O27 1.935295 1_445
Mn4 O28 1.937656 1_555
Mn4 O35 2.043584 1_445
Mn4 O19 2.044642 1_555
Mn4 O36 2.520935 1_445
Mn4 O20 2.534037 1_555
Mn5 O31 1.893686 1_555
Mn5 O49 1.946800 1_556
Mn5 O37 1.952400 1_555
Mn5 O54 1.999929 1_556
Mn5 O25 2.048480 1_555
Mn5 O24 2.483545 1_555
Mn6 O32 1.927292 1_555
Mn6 O33 1.941923 1_555
Mn6 O36 2.022193 1_555
Mn6 O35 2.030164 1_555
Mn6 O48 2.214070 1_555
Mn6 O27 2.462166 1_555
Mn7 O40 1.909610 1_555
Mn7 O44 1.921004 1_555
Mn7 O34 1.934576 1_555
Mn7 O38 2.050909 1_555
Mn7 O51 2.053440 1_555
Mn7 O3 2.467089 1_555
Mn8 O55 1.929279 1_555
Mn8 O52 1.964150 1_555
Mn8 O14 2.000928 1_555
Mn8 O50 2.057862 1_555
Mn8 O7 2.207287 1_555
Mn8 O42 2.225253 1_555
O0 P0 1.558174 1_655
O1 P0 1.514982 1_555
O2 P0 1.512015 1_555
O3 P1 1.555340 1_555
O4 P14 1.539055 1_555
O5 P8 1.524843 1_556
O6 P8 1.529490 1_556
O7 P2 1.512897 1_545
O8 P1 1.524061 1_555
O9 P1 1.610283 1_555
O9 P3 1.613717 1_555
O10 P4 1.507992 1_555
O11 P6 1.522119 1_555
O12 P5 1.609470 1_555
O12 P8 1.615789 1_556
O13 P5 1.515669 1_555
O14 P3 1.522162 1_555
O15 P2 1.526078 1_545
O16 P6 1.595659 1_555
O16 P15 1.638921 1_555
O17 P4 1.496584 1_555
O18 P6 1.506751 1_565
O19 P4 1.614092 1_455
O20 P3 1.552270 1_555
O21 P3 1.522003 1_555
O22 P7 1.542110 1_555
O23 P2 1.539116 1_555
O24 P5 1.572656 1_555
O25 P5 1.535174 1_555
O26 P4 1.609997 1_555
O26 P13 1.624837 1_555
O27 P6 1.564384 1_565
O28 P9 1.563373 1_545
O29 P10 1.611596 1_555
O29 P2 1.625165 1_555
O30 P11 1.531219 1_555
O31 P13 1.540711 1_555
O32 P11 1.568418 1_555
O33 P8 1.542384 1_555
O34 P12 1.524184 1_555
O35 P10 1.615129 1_655
O36 P12 1.552127 1_555
O37 P9 1.506920 1_545
O38 P10 1.497775 1_555
O39 P9 1.595097 1_555
O39 P0 1.640961 1_555
O40 P13 1.523915 1_565
O41 P12 1.524010 1_555
O42 P11 1.519142 1_555
O43 P11 1.613917 1_555
O43 P7 1.615533 1_554
O44 P9 1.523376 1_555
O45 P10 1.507878 1_555
O46 P14 1.611879 1_555
O46 P12 1.612511 1_555
O47 P13 1.513792 1_565
O48 P14 1.523807 1_555
O49 P7 1.528912 1_554
O50 P7 1.528177 1_554
O51 P1 1.541968 1_555
O52 P14 1.558058 1_555
O53 P15 1.512384 1_555
O54 P15 1.515353 1_555
O55 P15 1.557561 1_455
