# generated using pymatgen
data_Mg(FeO2)2
_symmetry_space_group_name_H-M   'P 1'
_cell_length_a   5.88726968
_cell_length_b   5.78388828
_cell_length_c   35.16768936
_cell_angle_alpha   60.43584205
_cell_angle_beta   60.28755287
_cell_angle_gamma   60.57920881
_symmetry_Int_Tables_number   1
_chemical_formula_structural   Mg(FeO2)2
_chemical_formula_sum   'Mg12 Fe24 O48'
_cell_volume   855.06638513
_cell_formula_units_Z   12
loop_
 _symmetry_equiv_pos_site_id
 _symmetry_equiv_pos_as_xyz
  1  'x, y, z'
loop_
 _atom_site_type_symbol
 _atom_site_label
 _atom_site_symmetry_multiplicity
 _atom_site_fract_x
 _atom_site_fract_y
 _atom_site_fract_z
 _atom_site_occupancy
  Mg  Mg0  1  0.13511500  0.12161400  0.02027600  1
  Mg  Mg1  1  0.00463900  0.49785800  0.08327400  1
  Mg  Mg2  1  0.13617100  0.12107300  0.18694700  1
  Mg  Mg3  1  0.00238800  0.50236600  0.24881300  1
  Mg  Mg4  1  0.00115900  0.50066000  0.41625400  1
  Mg  Mg5  1  0.50199700  0.50327700  0.33190800  1
  Mg  Mg6  1  0.00015400  0.49999400  0.58330900  1
  Mg  Mg7  1  0.50042400  0.50060800  0.49972700  1
  Mg  Mg8  1  0.99931500  0.49940300  0.75031300  1
  Mg  Mg9  1  0.49996100  0.49944000  0.66686000  1
  Mg  Mg10  1  0.49930800  0.49709600  0.83441600  1
  Mg  Mg11  1  0.00116200  0.49645500  0.91765500  1
  Fe  Fe0  1  0.49653900  0.49678400  0.00164900  1
  Fe  Fe1  1  0.49744800  0.50177700  0.08359000  1
  Fe  Fe2  1  0.49794800  0.50246600  0.16618700  1
  Fe  Fe3  1  0.13377600  0.11721700  0.35529900  1
  Fe  Fe4  1  0.49744800  0.99923200  0.08359000  1
  Fe  Fe5  1  0.49932300  0.49988900  0.24857000  1
  Fe  Fe6  1  0.13348600  0.11643400  0.52227400  1
  Fe  Fe7  1  0.86011800  0.88156800  0.14612400  1
  Fe  Fe8  1  0.49932300  0.00936800  0.24857000  1
  Fe  Fe9  1  0.50079200  0.50027200  0.41618500  1
  Fe  Fe10  1  0.86696100  0.88404200  0.31082600  1
  Fe  Fe11  1  0.13310400  0.11567500  0.68925700  1
  Fe  Fe12  1  0.50079200  0.00183000  0.41618500  1
  Fe  Fe13  1  0.50013500  0.49999000  0.58330700  1
  Fe  Fe14  1  0.49974200  0.99843800  0.75042700  1
  Fe  Fe15  1  0.86742300  0.88414800  0.47738100  1
  Fe  Fe16  1  0.13157400  0.11661600  0.85586600  1
  Fe  Fe17  1  0.50013500  0.00003300  0.58330700  1
  Fe  Fe18  1  0.49974200  0.49925800  0.75042700  1
  Fe  Fe19  1  0.86674300  0.88354800  0.64436000  1
  Fe  Fe20  1  0.49855700  0.50107200  0.91808700  1
  Fe  Fe21  1  0.86664400  0.88198800  0.81156300  1
  Fe  Fe22  1  0.49855700  0.99185400  0.91808700  1
  Fe  Fe23  1  0.85945900  0.87966200  0.98020300  1
  O  O0  1  0.28051100  0.24931700  0.04313500  1
  O  O1  1  0.27940600  0.25403200  0.11875500  1
  O  O2  1  0.28051100  0.71135900  0.04313500  1
  O  O3  1  0.71134900  0.26137700  0.04431600  1
  O  O4  1  0.27637800  0.74065300  0.12371900  1
  O  O5  1  0.28331700  0.25790300  0.20796900  1
  O  O6  1  0.72705000  0.74599900  0.04682600  1
  O  O7  1  0.72374300  0.28305200  0.12390400  1
  O  O8  1  0.28331700  0.71096700  0.20796900  1
  O  O9  1  0.27211900  0.25382700  0.28670500  1
  O  O10  1  0.71507900  0.26795500  0.20816800  1
  O  O11  1  0.72374300  0.74977700  0.12390400  1
  O  O12  1  0.27132400  0.24205800  0.37734500  1
  O  O13  1  0.27837800  0.75527900  0.28517700  1
  O  O14  1  0.72320400  0.75144400  0.21231800  1
  O  O15  1  0.73406700  0.27948100  0.28652000  1
  O  O16  1  0.27497800  0.25142800  0.45369400  1
  O  O17  1  0.27132400  0.72254800  0.37734500  1
  O  O18  1  0.72516600  0.25305700  0.37812000  1
  O  O19  1  0.73406700  0.76733100  0.28652000  1
  O  O20  1  0.26951600  0.23998000  0.54476800  1
  O  O21  1  0.27695700  0.75016900  0.45378500  1
  O  O22  1  0.73152400  0.27874200  0.45472800  1
  O  O23  1  0.72614300  0.75009300  0.37894500  1
  O  O24  1  0.27469500  0.25045100  0.62073400  1
  O  O25  1  0.26951600  0.72189300  0.54476800  1
  O  O26  1  0.72413400  0.25112800  0.54560100  1
  O  O27  1  0.73152400  0.76136800  0.45472800  1
  O  O28  1  0.26905500  0.23862500  0.71187300  1
  O  O29  1  0.27613600  0.74891200  0.62100600  1
  O  O30  1  0.72555600  0.74954500  0.54589300  1
  O  O31  1  0.27376800  0.24997500  0.78771400  1
  O  O32  1  0.73080100  0.27808600  0.62183600  1
  O  O33  1  0.26905500  0.72108300  0.71187300  1
  O  O34  1  0.72361300  0.24990700  0.71276200  1
  O  O35  1  0.73080100  0.76009600  0.62183600  1
  O  O36  1  0.26750600  0.23300900  0.87955100  1
  O  O37  1  0.27549800  0.74716500  0.78836200  1
  O  O38  1  0.72973000  0.27682300  0.78920200  1
  O  O39  1  0.72519200  0.74858000  0.71294100  1
  O  O40  1  0.26750600  0.72218400  0.87955100  1
  O  O41  1  0.28114100  0.25230700  0.95237400  1
  O  O42  1  0.72171000  0.24609700  0.88101600  1
  O  O43  1  0.72973000  0.75823500  0.78920200  1
  O  O44  1  0.27569200  0.73463000  0.95917500  1
  O  O45  1  0.72851700  0.74398700  0.88058500  1
  O  O46  1  0.71919500  0.28182600  0.95928700  1
  O  O47  1  0.71919500  0.74325700  0.95928700  1
loop_
_geom_bond_atom_site_label_1
_geom_bond_atom_site_label_2
_geom_bond_distance
_geom_bond_site_symmetry_2
Mg0 O0 1.952879 1_555
Mg0 O2 1.952889 1_545
Mg0 O41 1.958306 1_554
Mg0 O3 2.048071 1_455
Mg1 O2 2.032952 1_555
Mg1 O0 2.032960 1_555
Mg1 O1 2.045903 1_555
Mg1 O11 2.060173 1_455
Mg1 O7 2.060184 1_455
Mg1 O6 2.080972 1_455
Mg2 O8 1.951687 1_545
Mg2 O5 1.951696 1_555
Mg2 O1 1.966261 1_555
Mg2 O10 2.036429 1_455
Mg3 O5 2.037052 1_555
Mg3 O8 2.037063 1_555
Mg3 O15 2.037879 1_455
Mg3 O19 2.037883 1_455
Mg3 O9 2.080529 1_555
Mg3 O14 2.089133 1_455
Mg4 O27 2.038854 1_455
Mg4 O22 2.038858 1_455
Mg4 O17 2.040652 1_555
Mg4 O12 2.040664 1_555
Mg4 O16 2.087687 1_555
Mg4 O23 2.089850 1_455
Mg5 O12 2.040240 1_555
Mg5 O17 2.040244 1_555
Mg5 O15 2.056590 1_555
Mg5 O19 2.056590 1_555
Mg5 O18 2.095118 1_555
Mg5 O13 2.110520 1_555
Mg6 O20 2.037485 1_555
Mg6 O25 2.037489 1_555
Mg6 O32 2.037499 1_455
Mg6 O35 2.037511 1_455
Mg6 O24 2.090503 1_555
Mg6 O30 2.090540 1_455
Mg7 O25 2.037596 1_555
Mg7 O20 2.037616 1_555
Mg7 O22 2.038749 1_555
Mg7 O27 2.038749 1_555
Mg7 O26 2.088407 1_555
Mg7 O21 2.089223 1_555
Mg8 O28 2.038417 1_655
Mg8 O33 2.038425 1_655
Mg8 O38 2.040818 1_555
Mg8 O43 2.040822 1_555
Mg8 O39 2.087414 1_555
Mg8 O31 2.089549 1_655
Mg9 O35 2.037420 1_555
Mg9 O32 2.037428 1_555
Mg9 O33 2.038269 1_555
Mg9 O28 2.038269 1_555
Mg9 O29 2.088340 1_555
Mg9 O34 2.088910 1_555
Mg10 O38 2.038284 1_555
Mg10 O43 2.038299 1_555
Mg10 O36 2.055005 1_555
Mg10 O40 2.055041 1_555
Mg10 O37 2.093516 1_555
Mg10 O42 2.102275 1_555
Mg11 O36 2.039818 1_555
Mg11 O40 2.039830 1_555
Mg11 O41 2.051516 1_555
Mg11 O47 2.064463 1_455
Mg11 O46 2.064471 1_455
Mg11 O45 2.073784 1_455
Fe0 O2 1.919132 1_555
Fe0 O0 1.919148 1_555
Fe0 O47 1.942746 1_554
Fe0 O46 1.942750 1_554
Fe0 O3 1.969278 1_555
Fe0 O44 1.988564 1_554
Fe1 O2 1.924337 1_555
Fe1 O1 1.927496 1_555
Fe1 O7 1.957556 1_555
Fe1 O6 1.958396 1_555
Fe1 O3 1.969138 1_555
Fe1 O4 1.982708 1_555
Fe2 O8 1.902902 1_555
Fe2 O5 1.902906 1_555
Fe2 O11 1.958061 1_555
Fe2 O7 1.958085 1_555
Fe2 O10 1.960828 1_555
Fe2 O4 1.991331 1_555
Fe3 O12 1.878156 1_555
Fe3 O17 1.878175 1_545
Fe3 O18 1.974805 1_455
Fe3 O9 1.977515 1_555
Fe4 O0 1.924337 1_565
Fe4 O1 1.927509 1_565
Fe4 O11 1.957556 1_555
Fe4 O6 1.958366 1_555
Fe4 O3 1.969147 1_565
Fe4 O4 1.982704 1_555
Fe5 O8 1.923777 1_555
Fe5 O15 1.932583 1_555
Fe5 O9 1.954940 1_555
Fe5 O10 1.962032 1_555
Fe5 O13 1.964731 1_555
Fe5 O14 1.966568 1_555
Fe6 O20 1.877706 1_555
Fe6 O25 1.877711 1_545
Fe6 O16 1.977244 1_555
Fe6 O26 1.978424 1_455
Fe7 O14 1.908475 1_555
Fe7 O7 1.909770 1_565
Fe7 O11 1.909779 1_555
Fe7 O4 2.011974 1_655
Fe8 O5 1.923777 1_555
Fe8 O19 1.932583 1_545
Fe8 O9 1.954952 1_555
Fe8 O10 1.962020 1_555
Fe8 O13 1.964740 1_545
Fe8 O14 1.966568 1_545
Fe9 O22 1.930202 1_555
Fe9 O17 1.932259 1_555
Fe9 O16 1.961351 1_555
Fe9 O23 1.963858 1_555
Fe9 O21 1.965085 1_555
Fe9 O18 1.965129 1_555
Fe10 O15 1.884050 1_565
Fe10 O19 1.884059 1_555
Fe10 O23 1.963971 1_555
Fe10 O13 1.989949 1_655
Fe11 O33 1.878075 1_545
Fe11 O28 1.878097 1_555
Fe11 O24 1.975615 1_555
Fe11 O34 1.979134 1_455
Fe12 O27 1.930202 1_545
Fe12 O12 1.932258 1_555
Fe12 O16 1.961326 1_555
Fe12 O23 1.963879 1_545
Fe12 O21 1.965081 1_545
Fe12 O18 1.965112 1_555
Fe13 O32 1.929504 1_555
Fe13 O25 1.929558 1_555
Fe13 O24 1.962833 1_555
Fe13 O30 1.962835 1_555
Fe13 O26 1.963273 1_555
Fe13 O29 1.963355 1_555
Fe14 O28 1.930242 1_565
Fe14 O43 1.932791 1_555
Fe14 O39 1.961903 1_555
Fe14 O31 1.964112 1_565
Fe14 O34 1.964355 1_565
Fe14 O37 1.964855 1_555
Fe15 O22 1.878118 1_565
Fe15 O27 1.878132 1_555
Fe15 O30 1.975318 1_555
Fe15 O21 1.979367 1_655
Fe16 O40 1.879038 1_545
Fe16 O36 1.879051 1_555
Fe16 O31 1.965021 1_555
Fe16 O42 1.981985 1_455
Fe17 O35 1.929504 1_545
Fe17 O20 1.929557 1_555
Fe17 O30 1.962818 1_545
Fe17 O24 1.962837 1_555
Fe17 O26 1.963256 1_555
Fe17 O29 1.963372 1_545
Fe18 O33 1.930242 1_555
Fe18 O38 1.932791 1_555
Fe18 O39 1.961895 1_555
Fe18 O31 1.964103 1_555
Fe18 O34 1.964359 1_555
Fe18 O37 1.964855 1_555
Fe19 O35 1.877712 1_555
Fe19 O32 1.877712 1_565
Fe19 O39 1.977277 1_555
Fe19 O29 1.978627 1_655
Fe20 O41 1.931292 1_555
Fe20 O40 1.931458 1_555
Fe20 O45 1.953587 1_555
Fe20 O46 1.956784 1_555
Fe20 O42 1.973941 1_555
Fe20 O44 1.984895 1_555
Fe21 O43 1.879110 1_555
Fe21 O38 1.879119 1_565
Fe21 O37 1.976002 1_655
Fe21 O45 1.989839 1_555
Fe22 O41 1.931265 1_565
Fe22 O36 1.931458 1_565
Fe22 O45 1.953603 1_555
Fe22 O47 1.956785 1_555
Fe22 O42 1.973919 1_565
Fe22 O44 1.984908 1_555
Fe23 O46 1.913172 1_565
Fe23 O47 1.913176 1_555
Fe23 O6 1.920678 1_556
Fe23 O44 2.012874 1_655
