# generated using pymatgen
data_Co3P2(H2O5)2
_symmetry_space_group_name_H-M   'P 1'
_cell_length_a   7.56681700
_cell_length_b   7.47549400
_cell_length_c   7.61066665
_cell_angle_alpha   62.18770356
_cell_angle_beta   90.00000000
_cell_angle_gamma   90.00000000
_symmetry_Int_Tables_number   1
_chemical_formula_structural   Co3P2(H2O5)2
_chemical_formula_sum   'Co6 P4 H8 O20'
_cell_volume   380.77135423
_cell_formula_units_Z   2
loop_
 _symmetry_equiv_pos_site_id
 _symmetry_equiv_pos_as_xyz
  1  'x, y, z'
loop_
 _atom_site_type_symbol
 _atom_site_label
 _atom_site_symmetry_multiplicity
 _atom_site_fract_x
 _atom_site_fract_y
 _atom_site_fract_z
 _atom_site_occupancy
  Co  Co0  1  0.00000000  0.00000000  0.00000000  1
  Co  Co1  1  0.50000000  0.50000000  0.00000000  1
  Co  Co2  1  0.72541200  0.01956600  0.25348600  1
  Co  Co3  1  0.22541200  0.48043400  0.74651400  1
  Co  Co4  1  0.27458800  0.98043400  0.74651400  1
  Co  Co5  1  0.77458800  0.51956600  0.25348600  1
  P  P0  1  0.61825300  0.23739800  0.76376200  1
  P  P1  1  0.11825300  0.26260200  0.23623800  1
  P  P2  1  0.38174700  0.76260200  0.23623800  1
  P  P3  1  0.88174700  0.73739800  0.76376200  1
  H  H0  1  0.82807400  0.47330300  0.63186800  1
  H  H1  1  0.32807400  0.02669700  0.36813200  1
  H  H2  1  0.17192600  0.52669700  0.36813200  1
  H  H3  1  0.67192600  0.97330300  0.63186800  1
  H  H4  1  0.55479700  0.23628900  0.36860300  1
  H  H5  1  0.05479700  0.26371100  0.63139700  1
  H  H6  1  0.44520300  0.76371100  0.63139700  1
  H  H7  1  0.94520300  0.73628900  0.36860300  1
  O  O0  1  0.48489500  0.35917700  0.81604300  1
  O  O1  1  0.98489500  0.14082300  0.18395700  1
  O  O2  1  0.51510500  0.64082300  0.18395700  1
  O  O3  1  0.01510500  0.85917700  0.81604300  1
  O  O4  1  0.52921700  0.11433800  0.67219600  1
  O  O5  1  0.02921700  0.38566200  0.32780400  1
  O  O6  1  0.47078300  0.88566200  0.32780400  1
  O  O7  1  0.97078300  0.61433800  0.67219600  1
  O  O8  1  0.73612500  0.10820700  0.94200500  1
  O  O9  1  0.23612500  0.39179300  0.05799500  1
  O  O10  1  0.26387500  0.89179300  0.05799500  1
  O  O11  1  0.76387500  0.60820700  0.94200500  1
  O  O12  1  0.74589400  0.39358700  0.58799700  1
  O  O13  1  0.24589400  0.10641300  0.41200300  1
  O  O14  1  0.25410600  0.60641300  0.41200300  1
  O  O15  1  0.75410600  0.89358700  0.58799700  1
  O  O16  1  0.63009200  0.27665100  0.25135300  1
  O  O17  1  0.13009200  0.22334900  0.74864700  1
  O  O18  1  0.36990800  0.72334900  0.74864700  1
  O  O19  1  0.86990800  0.77665100  0.25135300  1
loop_
_geom_bond_atom_site_label_1
_geom_bond_atom_site_label_2
_geom_bond_distance
_geom_bond_site_symmetry_2
Co0 O17 2.106108 1_554
Co0 O19 2.106108 1_445
Co0 O1 2.111092 1_455
Co0 O3 2.111092 1_544
Co0 O10 2.121970 1_545
Co0 O8 2.121970 1_454
Co1 O16 2.106108 1_555
Co1 O18 2.106108 1_554
Co1 O2 2.111092 1_555
Co1 O0 2.111092 1_554
Co1 O11 2.121970 1_554
Co1 O9 2.121970 1_555
Co2 O16 2.045688 1_555
Co2 O6 2.122705 1_545
Co2 O1 2.123500 1_555
Co2 O19 2.126210 1_545
Co2 O8 2.144638 1_554
Co2 O15 2.275545 1_545
Co3 O17 2.045688 1_555
Co3 O7 2.122705 1_455
Co3 O0 2.123500 1_555
Co3 O18 2.126210 1_555
Co3 O9 2.144638 1_556
Co3 O14 2.275545 1_555
Co4 O18 2.045688 1_555
Co4 O4 2.122705 1_565
Co4 O3 2.123500 1_555
Co4 O17 2.126210 1_565
Co4 O10 2.144638 1_556
Co4 O13 2.275545 1_565
Co5 O19 2.045688 1_555
Co5 O5 2.122705 1_655
Co5 O2 2.123500 1_555
Co5 O16 2.126210 1_555
Co5 O11 2.144638 1_554
Co5 O12 2.275545 1_555
H0 O12 1.019290 1_555
H0 O7 1.635177 1_555
H1 O13 1.019290 1_555
H1 O6 1.635177 1_545
H2 O14 1.019290 1_555
H2 O5 1.635177 1_555
H3 O15 1.019290 1_555
H3 O4 1.635177 1_565
H4 O16 0.980147 1_555
H5 O17 0.980147 1_555
H6 O18 0.980147 1_555
H7 O19 0.980147 1_555
O0 P0 1.530803 1_555
O1 P1 1.530803 1_655
O2 P2 1.530803 1_555
O3 P3 1.530803 1_455
O4 P0 1.544035 1_555
O5 P1 1.544035 1_555
O6 P2 1.544035 1_555
O7 P3 1.544035 1_555
O8 P0 1.531636 1_555
O9 P1 1.531636 1_555
O10 P2 1.531636 1_555
O11 P3 1.531636 1_555
O12 P0 1.621127 1_555
O13 P1 1.621127 1_555
O14 P2 1.621127 1_555
O15 P3 1.621127 1_555
