# generated using pymatgen
data_LiEu2CBr3N2
_symmetry_space_group_name_H-M   'P 1'
_cell_length_a   10.33667785
_cell_length_b   10.33667785
_cell_length_c   10.33667785
_cell_angle_alpha   60.00000000
_cell_angle_beta   60.00000000
_cell_angle_gamma   60.00000000
_symmetry_Int_Tables_number   1
_chemical_formula_structural   LiEu2CBr3N2
_chemical_formula_sum   'Li4 Eu8 C4 Br12 N8'
_cell_volume   780.95848146
_cell_formula_units_Z   4
loop_
 _symmetry_equiv_pos_site_id
 _symmetry_equiv_pos_as_xyz
  1  'x, y, z'
loop_
 _atom_site_type_symbol
 _atom_site_label
 _atom_site_symmetry_multiplicity
 _atom_site_fract_x
 _atom_site_fract_y
 _atom_site_fract_z
 _atom_site_occupancy
  Li  Li0  1  0.12500000  0.62500000  0.12500000  1
  Li  Li1  1  0.62500000  0.12500000  0.12500000  1
  Li  Li2  1  0.12500000  0.12500000  0.12500000  1
  Li  Li3  1  0.12500000  0.12500000  0.62500000  1
  Eu  Eu0  1  0.46100600  0.84633100  0.84633100  1
  Eu  Eu1  1  0.40366900  0.40366900  0.78899400  1
  Eu  Eu2  1  0.78899400  0.40366900  0.40366900  1
  Eu  Eu3  1  0.84633100  0.84633100  0.84633100  1
  Eu  Eu4  1  0.40366900  0.40366900  0.40366900  1
  Eu  Eu5  1  0.84633100  0.46100600  0.84633100  1
  Eu  Eu6  1  0.84633100  0.84633100  0.46100600  1
  Eu  Eu7  1  0.40366900  0.78899400  0.40366900  1
  C  C0  1  0.12500000  0.62500000  0.62500000  1
  C  C1  1  0.62500000  0.12500000  0.62500000  1
  C  C2  1  0.62500000  0.62500000  0.12500000  1
  C  C3  1  0.62500000  0.62500000  0.62500000  1
  Br  Br0  1  0.44747300  0.05252700  0.44747300  1
  Br  Br1  1  0.05252700  0.05252700  0.44747300  1
  Br  Br2  1  0.80252700  0.19747300  0.80252700  1
  Br  Br3  1  0.19747300  0.80252700  0.80252700  1
  Br  Br4  1  0.05252700  0.44747300  0.05252700  1
  Br  Br5  1  0.19747300  0.19747300  0.80252700  1
  Br  Br6  1  0.80252700  0.80252700  0.19747300  1
  Br  Br7  1  0.44747300  0.05252700  0.05252700  1
  Br  Br8  1  0.80252700  0.19747300  0.19747300  1
  Br  Br9  1  0.05252700  0.44747300  0.44747300  1
  Br  Br10  1  0.19747300  0.80252700  0.19747300  1
  Br  Br11  1  0.44747300  0.44747300  0.05252700  1
  N  N0  1  0.57621000  0.57621000  0.27137000  1
  N  N1  1  0.67379000  0.67379000  0.97863000  1
  N  N2  1  0.57621000  0.57621000  0.57621000  1
  N  N3  1  0.57621000  0.27137000  0.57621000  1
  N  N4  1  0.67379000  0.97863000  0.67379000  1
  N  N5  1  0.67379000  0.67379000  0.67379000  1
  N  N6  1  0.97863000  0.67379000  0.67379000  1
  N  N7  1  0.27137000  0.57621000  0.57621000  1
loop_
_geom_bond_atom_site_label_1
_geom_bond_atom_site_label_2
_geom_bond_distance
_geom_bond_site_symmetry_2
Eu0 N5 2.556323 1_555
Eu0 N1 2.556330 1_555
Eu0 N4 2.556330 1_555
Eu1 N2 2.556323 1_555
Eu1 N3 2.556330 1_555
Eu1 N7 2.556330 1_555
Eu2 N2 2.556323 1_555
Eu2 N3 2.556330 1_555
Eu2 N0 2.556330 1_555
Eu3 N1 2.556321 1_555
Eu3 N4 2.556321 1_555
Eu3 N6 2.556321 1_555
Eu4 N3 2.556321 1_555
Eu4 N7 2.556321 1_555
Eu4 N0 2.556321 1_555
Eu5 N5 2.556323 1_555
Eu5 N1 2.556330 1_555
Eu5 N6 2.556330 1_555
Eu6 N5 2.556323 1_555
Eu6 N4 2.556330 1_555
Eu6 N6 2.556330 1_555
Eu7 N2 2.556323 1_555
Eu7 N7 2.556330 1_555
Eu7 N0 2.556330 1_555
C0 N6 1.235343 1_455
C0 N7 1.235343 1_555
C1 N4 1.235343 1_545
C1 N3 1.235343 1_555
C2 N1 1.235343 1_554
C2 N0 1.235343 1_555
C3 N2 1.235343 1_555
C3 N5 1.235343 1_555
Br0 Li1 2.792906 1_555
Br0 Li3 2.792906 1_555
Br0 Eu7 3.240736 1_545
Br0 Eu4 3.240746 1_555
Br0 Eu6 3.612695 1_545
Br0 Eu0 3.612695 1_545
Br1 Li2 2.792906 1_555
Br1 Li3 2.792906 1_555
Br1 Eu7 3.240742 1_545
Br1 Eu2 3.240742 1_455
Br1 Eu3 3.612698 1_445
Br1 Eu6 3.612704 1_445
Br2 Li1 2.792906 1_556
Br2 Li3 2.792906 1_655
Br2 Eu5 3.240736 1_555
Br2 Eu3 3.240746 1_545
Br2 Eu1 3.612695 1_555
Br2 Eu2 3.612695 1_555
Br3 Li0 2.792906 1_556
Br3 Li3 2.792906 1_565
Br3 Eu0 3.240736 1_555
Br3 Eu3 3.240746 1_455
Br3 Eu1 3.612695 1_555
Br3 Eu7 3.612695 1_555
Br4 Li2 2.792906 1_555
Br4 Li0 2.792906 1_555
Br4 Eu2 3.240742 1_455
Br4 Eu1 3.240742 1_554
Br4 Eu3 3.612698 1_454
Br4 Eu5 3.612704 1_454
Br5 Li3 2.792906 1_555
Br5 Li2 2.792906 1_556
Br5 Eu0 3.240742 1_545
Br5 Eu5 3.240742 1_455
Br5 Eu4 3.612698 1_555
Br5 Eu1 3.612704 1_555
Br6 Li0 2.792906 1_655
Br6 Li1 2.792906 1_565
Br6 Eu6 3.240736 1_555
Br6 Eu3 3.240746 1_554
Br6 Eu7 3.612695 1_555
Br6 Eu2 3.612695 1_555
Br7 Li2 2.792906 1_555
Br7 Li1 2.792906 1_555
Br7 Eu7 3.240742 1_545
Br7 Eu1 3.240742 1_554
Br7 Eu3 3.612698 1_544
Br7 Eu0 3.612704 1_544
Br8 Li1 2.792906 1_555
Br8 Li2 2.792906 1_655
Br8 Eu5 3.240742 1_554
Br8 Eu6 3.240742 1_545
Br8 Eu4 3.612698 1_555
Br8 Eu2 3.612704 1_555
Br9 Li0 2.792906 1_555
Br9 Li3 2.792906 1_555
Br9 Eu2 3.240736 1_455
Br9 Eu4 3.240746 1_555
Br9 Eu6 3.612695 1_455
Br9 Eu5 3.612695 1_455
Br10 Li0 2.792906 1_555
Br10 Li2 2.792906 1_565
Br10 Eu6 3.240742 1_455
Br10 Eu0 3.240742 1_554
Br10 Eu4 3.612698 1_555
Br10 Eu7 3.612704 1_555
Br11 Li0 2.792906 1_555
Br11 Li1 2.792906 1_555
Br11 Eu1 3.240736 1_554
Br11 Eu4 3.240746 1_555
Br11 Eu5 3.612695 1_554
Br11 Eu0 3.612695 1_554
