# generated using pymatgen
data_K2HgCl4
_symmetry_space_group_name_H-M   'P 1'
_cell_length_a   8.11870600
_cell_length_b   9.19180200
_cell_length_c   13.64945700
_cell_angle_alpha   90.00000000
_cell_angle_beta   90.00000000
_cell_angle_gamma   90.00000000
_symmetry_Int_Tables_number   1
_chemical_formula_structural   K2HgCl4
_chemical_formula_sum   'K8 Hg4 Cl16'
_cell_volume   1018.59807269
_cell_formula_units_Z   4
loop_
 _symmetry_equiv_pos_site_id
 _symmetry_equiv_pos_as_xyz
  1  'x, y, z'
loop_
 _atom_site_type_symbol
 _atom_site_label
 _atom_site_symmetry_multiplicity
 _atom_site_fract_x
 _atom_site_fract_y
 _atom_site_fract_z
 _atom_site_occupancy
  K  K0  1  0.00000000  0.50000000  0.50000000  1
  K  K1  1  0.00000000  0.00000000  0.00000000  1
  K  K2  1  0.50000000  0.50000000  0.00000000  1
  K  K3  1  0.00000000  0.50000000  0.00000000  1
  K  K4  1  0.50000000  0.00000000  0.50000000  1
  K  K5  1  0.00000000  0.00000000  0.50000000  1
  K  K6  1  0.50000000  0.50000000  0.50000000  1
  K  K7  1  0.50000000  0.00000000  0.00000000  1
  Hg  Hg0  1  0.27501800  0.25000000  0.76657100  1
  Hg  Hg1  1  0.72498200  0.75000000  0.23342900  1
  Hg  Hg2  1  0.77501800  0.75000000  0.73342900  1
  Hg  Hg3  1  0.22498200  0.25000000  0.26657100  1
  Cl  Cl0  1  0.77368400  0.49920800  0.69587700  1
  Cl  Cl1  1  0.74904800  0.25000000  0.95433400  1
  Cl  Cl2  1  0.72631600  0.00079200  0.19587700  1
  Cl  Cl3  1  0.75525600  0.75000000  0.93174200  1
  Cl  Cl4  1  0.25095200  0.75000000  0.04566600  1
  Cl  Cl5  1  0.22631600  0.50079200  0.30412300  1
  Cl  Cl6  1  0.27368400  0.50079200  0.80412300  1
  Cl  Cl7  1  0.24474400  0.25000000  0.06825800  1
  Cl  Cl8  1  0.77368400  0.00079200  0.69587700  1
  Cl  Cl9  1  0.22631600  0.99920800  0.30412300  1
  Cl  Cl10  1  0.74474400  0.75000000  0.43174200  1
  Cl  Cl11  1  0.75095200  0.25000000  0.45433400  1
  Cl  Cl12  1  0.27368400  0.99920800  0.80412300  1
  Cl  Cl13  1  0.24904800  0.75000000  0.54566600  1
  Cl  Cl14  1  0.72631600  0.49920800  0.19587700  1
  Cl  Cl15  1  0.25525600  0.25000000  0.56825800  1
loop_
_geom_bond_atom_site_label_1
_geom_bond_atom_site_label_2
_geom_bond_distance
_geom_bond_site_symmetry_2
Cl0 Hg2 2.361552 1_555
Cl0 K0 3.244115 1_655
Cl0 K6 3.476403 1_555
Cl1 K2 3.123679 1_556
Cl1 K7 3.123679 1_556
Cl1 K3 3.133707 1_656
Cl1 K1 3.133707 1_656
Cl2 Hg1 2.361552 1_545
Cl2 K7 3.244115 1_555
Cl2 K1 3.476403 1_655
Cl3 Hg2 2.711615 1_555
Cl3 K1 3.177546 1_666
Cl3 K3 3.177546 1_656
Cl3 K2 3.231600 1_556
Cl3 K7 3.231600 1_566
Cl4 K7 3.123679 1_565
Cl4 K2 3.123679 1_555
Cl4 K1 3.133707 1_565
Cl4 K3 3.133707 1_555
Cl5 Hg3 2.361552 1_555
Cl5 K0 3.244115 1_555
Cl5 K6 3.476403 1_555
Cl6 Hg0 2.361552 1_555
Cl6 K2 3.244115 1_556
Cl6 K3 3.476403 1_556
Cl7 Hg3 2.711615 1_555
Cl7 K3 3.177546 1_555
Cl7 K1 3.177546 1_555
Cl7 K2 3.231600 1_555
Cl7 K7 3.231600 1_555
Cl8 Hg2 2.361552 1_545
Cl8 K5 3.244115 1_655
Cl8 K4 3.476403 1_555
Cl9 Hg3 2.361552 1_565
Cl9 K5 3.244115 1_565
Cl9 K4 3.476403 1_565
Cl10 Hg1 2.711615 1_555
Cl10 K6 3.177546 1_555
Cl10 K4 3.177546 1_565
Cl10 K5 3.231600 1_665
Cl10 K0 3.231600 1_655
Cl11 K5 3.123679 1_655
Cl11 K0 3.123679 1_655
Cl11 K4 3.133707 1_555
Cl11 K6 3.133707 1_555
Cl12 Hg0 2.361552 1_565
Cl12 K7 3.244115 1_566
Cl12 K1 3.476403 1_566
Cl13 K0 3.123679 1_555
Cl13 K5 3.123679 1_565
Cl13 K6 3.133707 1_555
Cl13 K4 3.133707 1_565
Cl14 Hg1 2.361552 1_555
Cl14 K2 3.244115 1_555
Cl14 K3 3.476403 1_655
Cl15 Hg0 2.711615 1_555
Cl15 K4 3.177546 1_555
Cl15 K6 3.177546 1_555
Cl15 K5 3.231600 1_555
Cl15 K0 3.231600 1_555
