# generated using pymatgen
data_Er2Ti2O7
_symmetry_space_group_name_H-M   'P 1'
_cell_length_a   7.09657871
_cell_length_b   7.09657871
_cell_length_c   7.09657871
_cell_angle_alpha   60.00000000
_cell_angle_beta   60.00000000
_cell_angle_gamma   60.00000000
_symmetry_Int_Tables_number   1
_chemical_formula_structural   Er2Ti2O7
_chemical_formula_sum   'Er4 Ti4 O14'
_cell_volume   252.71561333
_cell_formula_units_Z   2
loop_
 _symmetry_equiv_pos_site_id
 _symmetry_equiv_pos_as_xyz
  1  'x, y, z'
loop_
 _atom_site_type_symbol
 _atom_site_label
 _atom_site_symmetry_multiplicity
 _atom_site_fract_x
 _atom_site_fract_y
 _atom_site_fract_z
 _atom_site_occupancy
  Er  Er0  1  0.12500000  0.12500000  0.62500000  1
  Er  Er1  1  0.12500000  0.62500000  0.12500000  1
  Er  Er2  1  0.62500000  0.12500000  0.12500000  1
  Er  Er3  1  0.12500000  0.12500000  0.12500000  1
  Ti  Ti0  1  0.62500000  0.62500000  0.12500000  1
  Ti  Ti1  1  0.62500000  0.12500000  0.62500000  1
  Ti  Ti2  1  0.12500000  0.62500000  0.62500000  1
  Ti  Ti3  1  0.62500000  0.62500000  0.62500000  1
  O  O0  1  0.25000000  0.25000000  0.25000000  1
  O  O1  1  -0.00000000  0.00000000  0.00000000  1
  O  O2  1  0.54323082  0.95676918  0.54323082  1
  O  O3  1  0.29323082  0.70676918  0.29323082  1
  O  O4  1  0.54323082  0.54323082  0.95676918  1
  O  O5  1  0.95676918  0.54323082  0.54323082  1
  O  O6  1  0.54323082  0.95676918  0.95676918  1
  O  O7  1  0.95676918  0.95676918  0.54323082  1
  O  O8  1  0.95676918  0.54323082  0.95676918  1
  O  O9  1  0.70676918  0.29323082  0.29323082  1
  O  O10  1  0.29323082  0.70676918  0.70676918  1
  O  O11  1  0.70676918  0.29323082  0.70676918  1
  O  O12  1  0.29323082  0.29323082  0.70676918  1
  O  O13  1  0.70676918  0.70676918  0.29323082  1
loop_
_geom_bond_atom_site_label_1
_geom_bond_atom_site_label_2
_geom_bond_distance
_geom_bond_site_symmetry_2
Er0 O0 2.172875 1_555
Er0 O1 2.172875 1_556
Er0 O12 2.449124 1_555
Er0 O5 2.449124 1_455
Er0 O2 2.449124 1_545
Er0 O11 2.449124 1_455
Er0 O7 2.449124 1_445
Er0 O10 2.449124 1_545
Er1 O1 2.172875 1_565
Er1 O0 2.172875 1_555
Er1 O4 2.449124 1_554
Er1 O13 2.449124 1_455
Er1 O5 2.449124 1_455
Er1 O10 2.449124 1_554
Er1 O8 2.449124 1_454
Er1 O3 2.449124 1_555
Er2 O1 2.172875 1_655
Er2 O0 2.172875 1_555
Er2 O4 2.449124 1_554
Er2 O13 2.449124 1_545
Er2 O2 2.449124 1_545
Er2 O11 2.449124 1_554
Er2 O6 2.449124 1_544
Er2 O9 2.449124 1_555
Er3 O0 2.172875 1_555
Er3 O1 2.172875 1_555
Er3 O9 2.449124 1_455
Er3 O8 2.449124 1_454
Er3 O6 2.449124 1_544
Er3 O3 2.449124 1_545
Er3 O7 2.449124 1_445
Er3 O12 2.449124 1_554
O2 Ti3 1.954749 1_555
O2 Ti1 1.954749 1_565
O3 Ti2 1.954749 1_555
O3 Ti0 1.954749 1_555
O4 Ti0 1.954749 1_556
O4 Ti3 1.954749 1_555
O5 Ti3 1.954749 1_555
O5 Ti2 1.954749 1_655
O6 Ti0 1.954749 1_556
O6 Ti1 1.954749 1_565
O7 Ti2 1.954749 1_655
O7 Ti1 1.954749 1_565
O8 Ti2 1.954749 1_655
O8 Ti0 1.954749 1_556
O9 Ti1 1.954749 1_555
O9 Ti0 1.954749 1_555
O10 Ti2 1.954749 1_555
O10 Ti3 1.954749 1_555
O11 Ti3 1.954749 1_555
O11 Ti1 1.954749 1_555
O12 Ti2 1.954749 1_555
O12 Ti1 1.954749 1_555
O13 Ti3 1.954749 1_555
O13 Ti0 1.954749 1_555
