# generated using pymatgen
data_AsPCl3OF5
_symmetry_space_group_name_H-M   'P 1'
_cell_length_a   20.05813400
_cell_length_b   6.17431900
_cell_length_c   8.46075617
_cell_angle_alpha   63.25153310
_cell_angle_beta   90.00000000
_cell_angle_gamma   90.00000000
_symmetry_Int_Tables_number   1
_chemical_formula_structural   AsPCl3OF5
_chemical_formula_sum   'As4 P4 Cl12 O4 F20'
_cell_volume   935.69831381
_cell_formula_units_Z   4
loop_
 _symmetry_equiv_pos_site_id
 _symmetry_equiv_pos_as_xyz
  1  'x, y, z'
loop_
 _atom_site_type_symbol
 _atom_site_label
 _atom_site_symmetry_multiplicity
 _atom_site_fract_x
 _atom_site_fract_y
 _atom_site_fract_z
 _atom_site_occupancy
  As  As0  1  0.12291100  0.13474900  0.81832000  1
  As  As1  1  0.37708900  0.13474900  0.31832000  1
  As  As2  1  0.87708900  0.86525100  0.18168000  1
  As  As3  1  0.62291100  0.86525100  0.68168000  1
  P  P0  1  0.38981800  0.18231900  0.68226400  1
  P  P1  1  0.61018200  0.81768100  0.31773600  1
  P  P2  1  0.11018200  0.18231900  0.18226500  1
  P  P3  1  0.88981800  0.81768100  0.81773600  1
  Cl  Cl0  1  0.30870300  0.37333500  0.65830200  1
  Cl  Cl1  1  0.87071100  0.15342700  0.64118400  1
  Cl  Cl2  1  0.19129700  0.37333500  0.15830200  1
  Cl  Cl3  1  0.37071100  0.84657300  0.85881600  1
  Cl  Cl4  1  0.12928900  0.84657300  0.35881600  1
  Cl  Cl5  1  0.53984000  0.69147500  0.21975400  1
  Cl  Cl6  1  0.03984000  0.30852500  0.28024600  1
  Cl  Cl7  1  0.46016000  0.30852500  0.78024600  1
  Cl  Cl8  1  0.69129700  0.62666500  0.34169800  1
  Cl  Cl9  1  0.80870300  0.62666500  0.84169800  1
  Cl  Cl10  1  0.96016000  0.69147500  0.71975400  1
  Cl  Cl11  1  0.62928900  0.15342700  0.14118400  1
  O  O0  1  0.91543900  0.79938200  0.99207000  1
  O  O1  1  0.58456100  0.79938200  0.49207000  1
  O  O2  1  0.08456100  0.20061800  0.00793000  1
  O  O3  1  0.41543900  0.20061800  0.50793000  1
  F  F0  1  0.69464400  0.98066100  0.54914100  1
  F  F1  1  0.08559800  0.84714100  0.92395500  1
  F  F2  1  0.65489600  0.91624300  0.85414600  1
  F  F3  1  0.84510400  0.91624300  0.35414600  1
  F  F4  1  0.45213600  0.25750100  0.20574900  1
  F  F5  1  0.65731600  0.57094400  0.76953200  1
  F  F6  1  0.84268400  0.57094400  0.26953200  1
  F  F7  1  0.80535600  0.98066100  0.04914100  1
  F  F8  1  0.15489600  0.08375700  0.64585400  1
  F  F9  1  0.95213600  0.74249900  0.29425100  1
  F  F10  1  0.58559800  0.15285900  0.57604500  1
  F  F11  1  0.41440200  0.84714100  0.42395500  1
  F  F12  1  0.30535600  0.01933900  0.45085900  1
  F  F13  1  0.19464400  0.01933900  0.95085900  1
  F  F14  1  0.91440200  0.15285900  0.07604500  1
  F  F15  1  0.15731600  0.42905600  0.73046800  1
  F  F16  1  0.04786400  0.25750100  0.70574900  1
  F  F17  1  0.54786400  0.74249900  0.79425100  1
  F  F18  1  0.34268400  0.42905600  0.23046800  1
  F  F19  1  0.34510400  0.08375700  0.14585400  1
loop_
_geom_bond_atom_site_label_1
_geom_bond_atom_site_label_2
_geom_bond_distance
_geom_bond_site_symmetry_2
As0 F8 1.747429 1_555
As0 F1 1.756050 1_545
As0 F16 1.760033 1_555
As0 F15 1.764918 1_555
As0 F13 1.765279 1_555
As0 O2 1.979396 1_556
As1 F19 1.747429 1_555
As1 F11 1.756050 1_545
As1 F4 1.760033 1_555
As1 F18 1.764918 1_555
As1 F12 1.765279 1_555
As1 O3 1.979396 1_555
As2 F3 1.747429 1_555
As2 F14 1.756050 1_565
As2 F9 1.760033 1_555
As2 F6 1.764918 1_555
As2 F7 1.765279 1_555
As2 O0 1.979396 1_554
As3 F2 1.747429 1_555
As3 F10 1.756050 1_565
As3 F17 1.760033 1_555
As3 F5 1.764918 1_555
As3 F0 1.765279 1_555
As3 O1 1.979396 1_555
Cl0 P0 1.965711 1_555
Cl1 P3 1.971845 1_545
Cl2 P2 1.965710 1_555
Cl3 P0 1.971845 1_565
Cl4 P2 1.971842 1_565
Cl5 P1 1.966382 1_555
Cl6 P2 1.966377 1_555
Cl7 P0 1.966382 1_555
Cl8 P1 1.965711 1_555
Cl9 P3 1.965711 1_555
Cl10 P3 1.966382 1_555
Cl11 P1 1.971845 1_545
O0 P3 1.517391 1_555
O1 P1 1.517391 1_555
O2 P2 1.517399 1_555
O3 P0 1.517391 1_555
