# generated using pymatgen
data_Sm2(MnBi2)3
_symmetry_space_group_name_H-M   'P 1'
_cell_length_a   4.46192800
_cell_length_b   10.31655600
_cell_length_c   13.33044483
_cell_angle_alpha   73.46586956
_cell_angle_beta   90.00000000
_cell_angle_gamma   90.00000000
_symmetry_Int_Tables_number   1
_chemical_formula_structural   Sm2(MnBi2)3
_chemical_formula_sum   'Sm4 Mn6 Bi12'
_cell_volume   588.25034218
_cell_formula_units_Z   2
loop_
 _symmetry_equiv_pos_site_id
 _symmetry_equiv_pos_as_xyz
  1  'x, y, z'
loop_
 _atom_site_type_symbol
 _atom_site_label
 _atom_site_symmetry_multiplicity
 _atom_site_fract_x
 _atom_site_fract_y
 _atom_site_fract_z
 _atom_site_occupancy
  Sm  Sm0  1  0.25000000  0.93448500  0.32086600  1
  Sm  Sm1  1  0.75000000  0.74705600  0.98241300  1
  Sm  Sm2  1  0.75000000  0.06551500  0.67913400  1
  Sm  Sm3  1  0.25000000  0.25294400  0.01758700  1
  Mn  Mn0  1  0.25000000  0.53604800  0.76236100  1
  Mn  Mn1  1  0.25000000  0.29801500  0.28630500  1
  Mn  Mn2  1  0.25000000  0.53857300  0.33945000  1
  Mn  Mn3  1  0.75000000  0.70198500  0.71369500  1
  Mn  Mn4  1  0.75000000  0.46395200  0.23763900  1
  Mn  Mn5  1  0.75000000  0.46142700  0.66055000  1
  Bi  Bi0  1  0.25000000  0.52387300  0.10721200  1
  Bi  Bi1  1  0.75000000  0.08226100  0.92128200  1
  Bi  Bi2  1  0.75000000  0.37903300  0.46233600  1
  Bi  Bi3  1  0.25000000  0.62096700  0.53766400  1
  Bi  Bi4  1  0.25000000  0.91773900  0.07871800  1
  Bi  Bi5  1  0.75000000  0.72837600  0.25538100  1
  Bi  Bi6  1  0.25000000  0.11774400  0.48892800  1
  Bi  Bi7  1  0.75000000  0.17432100  0.21053100  1
  Bi  Bi8  1  0.25000000  0.82567900  0.78946900  1
  Bi  Bi9  1  0.75000000  0.88225600  0.51107200  1
  Bi  Bi10  1  0.75000000  0.47612700  0.89278800  1
  Bi  Bi11  1  0.25000000  0.27162400  0.74461900  1
loop_
_geom_bond_atom_site_label_1
_geom_bond_atom_site_label_2
_geom_bond_distance
_geom_bond_site_symmetry_2
Mn0 Mn3 2.774266 1_455
Mn0 Mn3 2.774266 1_555
Mn0 Mn5 2.829571 1_455
Mn0 Mn5 2.829571 1_555
Mn1 Mn2 2.767957 1_555
Mn1 Mn4 2.774266 1_555
Mn1 Mn4 2.774266 1_455
Mn1 Sm0 3.646114 1_545
Mn2 Mn4 2.829571 1_455
Mn2 Mn4 2.829571 1_555
Mn3 Mn5 2.767957 1_555
Mn3 Sm2 3.646114 1_565
Bi0 Mn4 2.787562 1_455
Bi0 Mn4 2.787562 1_555
Bi0 Mn1 2.821824 1_555
Bi0 Mn2 3.142359 1_555
Bi0 Sm1 3.296372 1_454
Bi0 Sm1 3.296372 1_554
Bi0 Sm3 3.337725 1_555
Bi1 Bi4 3.199231 1_646
Bi1 Bi4 3.199231 1_546
Bi1 Sm2 3.281288 1_555
Bi1 Sm3 3.318524 1_556
Bi1 Sm3 3.318524 1_656
Bi1 Sm1 3.319485 1_545
Bi1 Bi11 3.423608 1_655
Bi1 Bi11 3.423608 1_555
Bi2 Mn4 2.871553 1_555
Bi2 Mn2 2.972381 1_555
Bi2 Mn2 2.972381 1_655
Bi2 Mn5 2.997090 1_555
Bi2 Bi6 3.438788 1_655
Bi2 Bi6 3.438788 1_555
Bi2 Sm2 3.673326 1_555
Bi3 Mn0 2.871553 1_555
Bi3 Mn5 2.972381 1_555
Bi3 Mn5 2.972381 1_455
Bi3 Mn2 2.997090 1_555
Bi3 Bi9 3.438788 1_455
Bi3 Bi9 3.438788 1_555
Bi3 Sm0 3.673326 1_555
Bi4 Sm0 3.281288 1_555
Bi4 Sm1 3.318524 1_454
Bi4 Sm1 3.318524 1_554
Bi4 Sm3 3.319485 1_565
Bi4 Bi5 3.423608 1_555
Bi4 Bi5 3.423608 1_455
Bi5 Mn4 2.804432 1_555
Bi5 Mn2 2.969566 1_655
Bi5 Mn2 2.969566 1_555
Bi5 Sm0 3.364077 1_655
Bi5 Sm0 3.364077 1_555
Bi5 Sm1 3.588700 1_554
Bi6 Mn1 2.809858 1_555
Bi6 Bi9 3.249349 1_545
Bi6 Bi9 3.249349 1_445
Bi6 Sm2 3.304367 1_555
Bi6 Sm2 3.304367 1_455
Bi6 Sm0 3.317271 1_545
Bi7 Mn1 2.891294 1_555
Bi7 Mn1 2.891294 1_655
Bi7 Mn4 3.110186 1_555
Bi7 Sm3 3.326113 1_555
Bi7 Sm3 3.326113 1_655
Bi7 Sm0 3.345329 1_545
Bi7 Sm0 3.345329 1_645
Bi8 Mn3 2.891294 1_455
Bi8 Mn3 2.891294 1_555
Bi8 Mn0 3.110186 1_555
Bi8 Sm1 3.326113 1_555
Bi8 Sm1 3.326113 1_455
Bi8 Sm2 3.345329 1_565
Bi8 Sm2 3.345329 1_465
Bi9 Mn3 2.809858 1_555
Bi9 Sm0 3.304367 1_555
Bi9 Sm0 3.304367 1_655
Bi9 Sm2 3.317271 1_565
Bi10 Mn0 2.787562 1_555
Bi10 Mn0 2.787562 1_655
Bi10 Mn3 2.821824 1_555
Bi10 Mn5 3.142359 1_555
Bi10 Sm3 3.296372 1_656
Bi10 Sm3 3.296372 1_556
Bi10 Sm1 3.337725 1_555
Bi11 Mn0 2.804432 1_555
Bi11 Mn5 2.969566 1_555
Bi11 Mn5 2.969566 1_455
Bi11 Sm2 3.364077 1_455
Bi11 Sm2 3.364077 1_555
Bi11 Sm3 3.588700 1_556
