# generated using pymatgen
data_B13C2
_symmetry_space_group_name_H-M   'P 1'
_cell_length_a   5.18364104
_cell_length_b   5.18364066
_cell_length_c   5.18363916
_cell_angle_alpha   66.03012781
_cell_angle_beta   66.03012268
_cell_angle_gamma   66.03013530
_symmetry_Int_Tables_number   1
_chemical_formula_structural   B13C2
_chemical_formula_sum   'B13 C2'
_cell_volume   111.33818748
_cell_formula_units_Z   1
loop_
 _symmetry_equiv_pos_site_id
 _symmetry_equiv_pos_as_xyz
  1  'x, y, z'
loop_
 _atom_site_type_symbol
 _atom_site_label
 _atom_site_symmetry_multiplicity
 _atom_site_fract_x
 _atom_site_fract_y
 _atom_site_fract_z
 _atom_site_occupancy
  B  B0  1  0.50000000  0.50000000  0.50000000  1
  B  B1  1  0.80339287  0.31858970  0.80339287  1
  B  B2  1  0.80339287  0.80339287  0.31858970  1
  B  B3  1  0.31858970  0.80339287  0.80339287  1
  B  B4  1  0.68141030  0.19660713  0.19660713  1
  B  B5  1  0.19660713  0.68141030  0.19660713  1
  B  B6  1  0.19660713  0.19660713  0.68141030  1
  B  B7  1  0.00787236  0.32392314  0.00787236  1
  B  B8  1  0.00787236  0.00787236  0.32392314  1
  B  B9  1  0.32392314  0.00787236  0.00787236  1
  B  B10  1  0.67607686  0.99212764  0.99212764  1
  B  B11  1  0.99212764  0.67607686  0.99212764  1
  B  B12  1  0.99212764  0.99212764  0.67607686  1
  C  C0  1  0.61881155  0.61881155  0.61881155  1
  C  C1  1  0.38118845  0.38118845  0.38118845  1
loop_
_geom_bond_atom_site_label_1
_geom_bond_atom_site_label_2
_geom_bond_distance
_geom_bond_site_symmetry_2
B0 C0 1.436133 1_555
B0 C1 1.436133 1_555
B1 C0 1.605297 1_555
B1 B7 1.791149 1_656
B1 B10 1.814957 1_545
B1 B12 1.814957 1_545
B2 C0 1.605296 1_555
B2 B8 1.791149 1_665
B3 C0 1.605296 1_555
B3 B9 1.791149 1_566
B4 C1 1.605296 1_555
B4 B7 1.814957 1_655
B4 B8 1.814957 1_655
B5 C1 1.605297 1_555
B5 B9 1.814957 1_565
B5 B8 1.814957 1_565
B6 C1 1.605296 1_555
B6 B7 1.814957 1_556
B6 B9 1.814957 1_556
B7 B8 1.785280 1_555
B7 B9 1.785280 1_555
B8 B9 1.785279 1_555
B10 B9 1.763196 1_566
B10 B12 1.785279 1_555
B10 B11 1.785280 1_555
B10 B4 1.791149 1_566
B10 B2 1.814957 1_556
B11 B7 1.763195 1_656
B11 B12 1.785280 1_555
B11 B5 1.791149 1_656
B11 B2 1.814957 1_556
B11 B3 1.814957 1_655
B12 B8 1.763195 1_665
B12 B6 1.791149 1_665
B12 B3 1.814957 1_655
