# generated using pymatgen
data_CsC2S2N(O2F3)2
_symmetry_space_group_name_H-M   'P 1'
_cell_length_a   12.05070768
_cell_length_b   12.05070768
_cell_length_c   13.80013688
_cell_angle_alpha   87.71236782
_cell_angle_beta   87.71236782
_cell_angle_gamma   34.46615941
_symmetry_Int_Tables_number   1
_chemical_formula_structural   CsC2S2N(O2F3)2
_chemical_formula_sum   'Cs4 C8 S8 N4 O16 F24'
_cell_volume   1133.13973399
_cell_formula_units_Z   4
loop_
 _symmetry_equiv_pos_site_id
 _symmetry_equiv_pos_as_xyz
  1  'x, y, z'
loop_
 _atom_site_type_symbol
 _atom_site_label
 _atom_site_symmetry_multiplicity
 _atom_site_fract_x
 _atom_site_fract_y
 _atom_site_fract_z
 _atom_site_occupancy
  Cs  Cs0  1  0.14510800  0.38864000  0.34969600  1
  Cs  Cs1  1  0.38864000  0.14510800  0.84969600  1
  Cs  Cs2  1  0.85489200  0.61136000  0.65030400  1
  Cs  Cs3  1  0.61136000  0.85489200  0.15030400  1
  C  C0  1  0.49917800  0.65271700  0.38019100  1
  C  C1  1  0.87273100  0.96316000  0.38809300  1
  C  C2  1  0.03684000  0.12726900  0.11190700  1
  C  C3  1  0.65271700  0.49917800  0.88019100  1
  C  C4  1  0.34728300  0.50082200  0.11980900  1
  C  C5  1  0.12726900  0.03684000  0.61190700  1
  C  C6  1  0.50082200  0.34728300  0.61980900  1
  C  C7  1  0.96316000  0.87273100  0.88809300  1
  S  S0  1  0.29537100  0.01903900  0.58276900  1
  S  S1  1  0.21328200  0.48117600  0.08798400  1
  S  S2  1  0.51882400  0.78671800  0.41201600  1
  S  S3  1  0.78671800  0.51882400  0.91201600  1
  S  S4  1  0.48117600  0.21328200  0.58798400  1
  S  S5  1  0.70462900  0.98096100  0.41723100  1
  S  S6  1  0.01903900  0.29537100  0.08276900  1
  S  S7  1  0.98096100  0.70462900  0.91723100  1
  N  N0  1  0.52315400  0.18065600  0.47420300  1
  N  N1  1  0.47684600  0.81934400  0.52579700  1
  N  N2  1  0.81934400  0.47684600  0.02579700  1
  N  N3  1  0.18065600  0.52315400  0.97420300  1
  O  O0  1  0.96151600  0.37802200  0.85084900  1
  O  O1  1  0.27517200  0.35875200  0.60479600  1
  O  O2  1  0.99318800  0.36575000  0.17629400  1
  O  O3  1  0.63425000  0.00681200  0.32370600  1
  O  O4  1  0.03848400  0.62197800  0.14915100  1
  O  O5  1  0.62197800  0.03848400  0.64915100  1
  O  O6  1  0.35875200  0.27517200  0.10479600  1
  O  O7  1  0.37802200  0.96151600  0.35084900  1
  O  O8  1  0.82715900  0.80182500  0.47151700  1
  O  O9  1  0.64124800  0.72482800  0.89520400  1
  O  O10  1  0.19817500  0.17284100  0.02848300  1
  O  O11  1  0.80182500  0.82715900  0.97151700  1
  O  O12  1  0.00681200  0.63425000  0.82370600  1
  O  O13  1  0.36575100  0.99318800  0.67629400  1
  O  O14  1  0.72482800  0.64124800  0.39520400  1
  O  O15  1  0.17284100  0.19817500  0.52848300  1
  F  F0  1  0.87328200  0.22320200  0.15726100  1
  F  F1  1  0.48568700  0.62554200  0.93288000  1
  F  F2  1  0.51431300  0.37445800  0.06712000  1
  F  F3  1  0.23495900  0.68436000  0.10456900  1
  F  F4  1  0.93306000  0.95225800  0.97021600  1
  F  F5  1  0.45439800  0.39239900  0.71515200  1
  F  F6  1  0.54560200  0.60760100  0.28484800  1
  F  F7  1  0.80773000  0.01883900  0.82918700  1
  F  F8  1  0.68436000  0.23495900  0.60456900  1
  F  F9  1  0.98116100  0.19227000  0.67081300  1
  F  F10  1  0.01883900  0.80773000  0.32918700  1
  F  F11  1  0.95225800  0.93306100  0.47021600  1
  F  F12  1  0.04774200  0.06694000  0.52978400  1
  F  F13  1  0.39239900  0.45439800  0.21515200  1
  F  F14  1  0.37445800  0.51431300  0.56712000  1
  F  F15  1  0.12671800  0.77679800  0.84273900  1
  F  F16  1  0.76504100  0.31564000  0.89543100  1
  F  F17  1  0.31564000  0.76504100  0.39543100  1
  F  F18  1  0.22320200  0.87328200  0.65726100  1
  F  F19  1  0.77679800  0.12671800  0.34273900  1
  F  F20  1  0.19227000  0.98116100  0.17081300  1
  F  F21  1  0.62554200  0.48568700  0.43288000  1
  F  F22  1  0.60760100  0.54560200  0.78484800  1
  F  F23  1  0.06693900  0.04774200  0.02978400  1
loop_
_geom_bond_atom_site_label_1
_geom_bond_atom_site_label_2
_geom_bond_distance
_geom_bond_site_symmetry_2
Cs0 O14 3.128659 1_455
Cs0 O15 3.133081 1_555
Cs0 O2 3.223220 1_455
Cs0 O7 3.247553 1_545
Cs0 O4 3.304860 1_555
Cs0 O8 3.315901 1_455
Cs0 O3 3.359479 1_555
Cs0 N0 3.382600 1_555
Cs1 O9 3.128659 1_545
Cs1 O10 3.133081 1_556
Cs1 O13 3.223213 1_545
Cs1 O0 3.247553 1_455
Cs1 O5 3.304860 1_555
Cs1 O11 3.315901 1_545
Cs1 O12 3.359479 1_555
Cs1 N3 3.382600 1_555
Cs2 O1 3.128659 1_655
Cs2 O8 3.133081 1_555
Cs2 O12 3.223220 1_655
Cs2 O5 3.247553 1_565
Cs2 O0 3.304860 1_555
Cs2 O15 3.315901 1_655
Cs2 O13 3.359471 1_555
Cs2 N1 3.382600 1_555
Cs3 O6 3.128659 1_565
Cs3 O11 3.133081 1_554
Cs3 O3 3.223220 1_565
Cs3 O4 3.247553 1_655
Cs3 O7 3.304860 1_555
Cs3 O10 3.315901 1_565
Cs3 O2 3.359479 1_555
Cs3 N2 3.382600 1_555
C0 F21 1.347773 1_555
C0 F17 1.348094 1_555
C0 F6 1.355199 1_555
C0 S2 1.884633 1_555
C1 F19 1.347254 1_565
C1 F11 1.347259 1_555
C1 F10 1.355930 1_655
C1 S5 1.880606 1_555
C2 F0 1.347254 1_455
C2 F23 1.347259 1_555
C2 F20 1.355930 1_545
C2 S6 1.880606 1_555
C3 F1 1.347773 1_555
C3 F16 1.348094 1_555
C3 F22 1.355199 1_555
C3 S3 1.884633 1_555
C4 F2 1.347773 1_555
C4 F3 1.348094 1_555
C4 F13 1.355199 1_555
C4 S1 1.884633 1_555
C5 F18 1.347254 1_545
C5 F12 1.347255 1_555
C5 F9 1.355930 1_455
C5 S0 1.880606 1_555
C6 F14 1.347773 1_555
C6 F8 1.348094 1_555
C6 F5 1.355199 1_555
C6 S4 1.884633 1_555
C7 F15 1.347254 1_655
C7 F4 1.347255 1_555
C7 F7 1.355930 1_565
C7 S7 1.880606 1_555
N0 S5 1.589892 1_545
N0 S4 1.591825 1_555
N1 S0 1.589892 1_565
N1 S2 1.591825 1_555
N2 S6 1.589892 1_655
N2 S3 1.591825 1_554
N3 S7 1.589892 1_455
N3 S1 1.591825 1_556
O0 S3 1.451742 1_555
O1 S4 1.449240 1_555
O2 S6 1.449751 1_655
O3 S5 1.449751 1_545
O4 S1 1.451742 1_555
O5 S4 1.451742 1_555
O6 S1 1.449240 1_555
O7 S2 1.451742 1_555
O8 S5 1.450799 1_555
O9 S3 1.449240 1_555
O10 S6 1.450799 1_555
O11 S7 1.450799 1_555
O12 S7 1.449751 1_455
O13 S0 1.449756 1_565
O14 S2 1.449240 1_555
O15 S0 1.450799 1_555
