# generated using pymatgen
data_RbNd(WO4)2
_symmetry_space_group_name_H-M   'P 1'
_cell_length_a   7.76133376
_cell_length_b   7.76133376
_cell_length_c   7.59294762
_cell_angle_alpha   62.74418263
_cell_angle_beta   62.74418263
_cell_angle_gamma   89.31264594
_symmetry_Int_Tables_number   1
_chemical_formula_structural   RbNd(WO4)2
_chemical_formula_sum   'Rb2 Nd2 W4 O16'
_cell_volume   349.96049280
_cell_formula_units_Z   2
loop_
 _symmetry_equiv_pos_site_id
 _symmetry_equiv_pos_as_xyz
  1  'x, y, z'
loop_
 _atom_site_type_symbol
 _atom_site_label
 _atom_site_symmetry_multiplicity
 _atom_site_fract_x
 _atom_site_fract_y
 _atom_site_fract_z
 _atom_site_occupancy
  Rb  Rb0  1  0.20175500  0.79824500  0.75000000  1
  Rb  Rb1  1  0.79824500  0.20175500  0.25000000  1
  Nd  Nd0  1  0.77525600  0.22474400  0.75000000  1
  Nd  Nd1  1  0.22474400  0.77525600  0.25000000  1
  W  W0  1  0.69712700  0.68732200  0.78069500  1
  W  W1  1  0.68732200  0.69712700  0.28069500  1
  W  W2  1  0.30287300  0.31267800  0.21930500  1
  W  W3  1  0.31267800  0.30287300  0.71930500  1
  O  O0  1  0.37198700  0.58701600  0.47209200  1
  O  O1  1  0.05203700  0.21760300  0.80836600  1
  O  O2  1  0.37883800  0.06768200  0.86543600  1
  O  O3  1  0.06768200  0.37883800  0.36543600  1
  O  O4  1  0.62337700  0.74833900  0.56058400  1
  O  O5  1  0.25166100  0.37662300  0.93941600  1
  O  O6  1  0.93231800  0.62116200  0.63456400  1
  O  O7  1  0.62801300  0.41298400  0.52790800  1
  O  O8  1  0.21760300  0.05203700  0.30836600  1
  O  O9  1  0.94796300  0.78239700  0.19163400  1
  O  O10  1  0.58701600  0.37198700  0.97209200  1
  O  O11  1  0.62116200  0.93231800  0.13456400  1
  O  O12  1  0.37662300  0.25166100  0.43941600  1
  O  O13  1  0.74833900  0.62337700  0.06058400  1
  O  O14  1  0.78239700  0.94796300  0.69163400  1
  O  O15  1  0.41298400  0.62801300  0.02790800  1
loop_
_geom_bond_atom_site_label_1
_geom_bond_atom_site_label_2
_geom_bond_distance
_geom_bond_site_symmetry_2
Nd0 O1 2.379246 1_655
Nd0 O14 2.379246 1_545
Nd0 O7 2.398477 1_555
Nd0 O10 2.398477 1_555
Nd0 O11 2.429858 1_546
Nd0 O3 2.429858 1_655
Nd0 O2 2.891684 1_555
Nd0 O6 2.891684 1_555
Nd1 O8 2.379246 1_565
Nd1 O9 2.379246 1_455
Nd1 O15 2.398477 1_555
Nd1 O0 2.398477 1_555
Nd1 O6 2.429858 1_455
Nd1 O2 2.429858 1_564
Nd1 O3 2.891684 1_555
Nd1 O11 2.891684 1_555
O0 W3 2.010020 1_555
O0 W1 2.118277 1_555
O0 Rb0 3.073929 1_555
O1 W3 1.832141 1_555
O1 Rb1 2.952604 1_456
O2 W3 1.863094 1_555
O2 Rb0 3.143482 1_545
O3 W2 1.863094 1_555
O3 Rb1 3.143482 1_455
O4 W0 1.868128 1_555
O4 W1 2.173385 1_555
O4 Rb0 3.015944 1_555
O4 Rb1 3.060933 1_565
O5 W3 1.868128 1_555
O5 W2 2.173385 1_556
O5 Rb0 3.015944 1_555
O5 Rb1 3.060933 1_456
O6 W0 1.863094 1_555
O6 Rb0 3.143482 1_655
O7 W1 2.010020 1_555
O7 W3 2.118277 1_555
O7 Rb1 3.073929 1_555
O8 W2 1.832141 1_555
O8 Rb0 2.952604 1_545
O9 W1 1.832141 1_555
O9 Rb0 2.952604 1_654
O10 W2 2.010020 1_556
O10 W0 2.118277 1_555
O10 Rb1 3.073929 1_556
O11 W1 1.863094 1_555
O11 Rb1 3.143482 1_565
O12 W2 1.868128 1_555
O12 W3 2.173385 1_555
O12 Rb1 3.015944 1_555
O12 Rb0 3.060933 1_545
O13 W1 1.868128 1_555
O13 W0 2.173385 1_554
O13 Rb1 3.015944 1_555
O13 Rb0 3.060933 1_654
O14 W0 1.832141 1_555
O14 Rb1 2.952604 1_565
O15 W0 2.010020 1_554
O15 W2 2.118277 1_555
O15 Rb0 3.073929 1_554
