# generated using pymatgen
data_LaPS4
_symmetry_space_group_name_H-M   'P 1'
_cell_length_a   12.54867246
_cell_length_b   12.54863776
_cell_length_c   12.54869530
_cell_angle_alpha   127.48000724
_cell_angle_beta   127.48012571
_cell_angle_gamma   77.46840589
_symmetry_Int_Tables_number   1
_chemical_formula_structural   LaPS4
_chemical_formula_sum   'La8 P8 S32'
_cell_volume   1206.97221882
_cell_formula_units_Z   8
loop_
 _symmetry_equiv_pos_site_id
 _symmetry_equiv_pos_as_xyz
  1  'x, y, z'
loop_
 _atom_site_type_symbol
 _atom_site_label
 _atom_site_symmetry_multiplicity
 _atom_site_fract_x
 _atom_site_fract_y
 _atom_site_fract_z
 _atom_site_occupancy
  La  La0  1  0.24999983  0.24999893  -0.00000149  1
  La  La1  1  0.74999440  0.75000167  -0.00000243  1
  La  La2  1  0.74999786  0.24999864  0.49999999  1
  La  La3  1  0.25000297  0.74999733  0.50000019  1
  La  La4  1  0.00000059  0.00000158  0.00000114  1
  La  La5  1  0.49998436  0.50001186  -0.00000376  1
  La  La6  1  0.00001223  0.49999169  0.50000429  1
  La  La7  1  0.50000192  0.00000021  0.50000047  1
  P  P0  1  0.08855091  0.87499649  0.71355153  1
  P  P1  1  0.16145478  0.37499962  0.28645612  1
  P  P2  1  0.58855055  0.87499813  0.21354777  1
  P  P3  1  0.66144719  0.37500205  0.78644552  1
  P  P4  1  0.12499828  0.83855263  0.21355112  1
  P  P5  1  0.12500098  0.33855619  0.71355010  1
  P  P6  1  0.62500082  0.91145171  0.78645485  1
  P  P7  1  0.62499947  0.41144688  0.28644898  1
  S  S0  1  0.49053908  0.72269435  0.96004072  1
  S  S1  1  0.97269227  0.24053425  0.46003931  1
  S  S2  1  0.47172424  0.29103017  0.68393012  1
  S  S3  1  0.78049496  0.51265054  0.53995183  1
  S  S4  1  0.99053334  0.03049037  0.76783642  1
  S  S5  1  0.27730700  0.23734492  0.76783723  1
  S  S6  1  0.64288533  0.45897020  0.68068613  1
  S  S7  1  0.54103341  0.22172478  0.18393416  1
  S  S8  1  0.96950207  0.73734629  0.96004794  1
  S  S9  1  0.46950698  0.50946044  0.23215509  1
  S  S10  1  0.04102924  0.85711804  0.31931651  1
  S  S11  1  0.27827556  0.95896570  0.81606846  1
  S  S12  1  0.10711840  0.79103257  0.81931978  1
  S  S13  1  0.26265381  0.22269229  0.23215811  1
  S  S14  1  0.48734674  0.02730889  0.26784055  1
  S  S15  1  0.98734628  0.71950541  0.46004743  1
  S  S16  1  0.14290004  0.46220167  0.18392784  1
  S  S17  1  0.20896925  0.02827758  0.31607251  1
  S  S18  1  0.71219988  0.89289841  0.68392322  1
  S  S19  1  0.77730389  0.00946290  0.03996078  1
  S  S20  1  0.28049276  0.74053603  0.26783950  1
  S  S21  1  0.60710159  0.78779852  0.31607378  1
  S  S22  1  0.47269091  0.01265637  0.73215748  1
  S  S23  1  0.03779551  0.35710139  0.81606927  1
  S  S24  1  0.97171837  0.28779764  0.18068512  1
  S  S25  1  0.77828229  0.96220350  0.31931518  1
  S  S26  1  0.76265360  0.53049738  0.03995149  1
  S  S27  1  0.75946245  0.21950644  0.73215727  1
  S  S28  1  0.53780123  0.72172088  0.68069068  1
  S  S29  1  0.21220652  0.52827910  0.81931655  1
  S  S30  1  0.70897034  0.39288132  0.18068193  1
  S  S31  1  0.25946552  0.52730604  0.53996221  1
loop_
_geom_bond_atom_site_label_1
_geom_bond_atom_site_label_2
_geom_bond_distance
_geom_bond_site_symmetry_2
La0 S16 2.994433 1_555
La0 S23 2.994457 1_554
La0 S11 2.994479 1_544
La0 S7 2.994485 1_555
La0 S9 3.042723 1_555
La0 S13 3.042734 1_555
La0 S4 3.042760 1_454
La0 S5 3.042761 1_554
La1 S28 2.994425 1_554
La1 S6 2.994490 1_554
La1 S25 2.994493 1_555
La1 S10 2.994532 1_655
La1 S0 3.042623 1_554
La1 S26 3.042631 1_555
La1 S19 3.042651 1_565
La1 S8 3.042657 1_554
La2 S7 2.960933 1_555
La2 S25 2.960984 1_545
La2 S23 2.960987 1_655
La2 S6 2.961023 1_555
La2 S14 3.092480 1_555
La2 S27 3.092482 1_555
La2 S1 3.092534 1_555
La2 S3 3.092553 1_555
La3 S11 2.960972 1_555
La3 S16 2.960987 1_555
La3 S28 2.960990 1_555
La3 S10 2.961086 1_555
La3 S31 3.092504 1_555
La3 S20 3.092529 1_555
La3 S22 3.092541 1_565
La3 S15 3.092597 1_455
La4 S17 2.960975 1_555
La4 S24 2.960983 1_455
La4 S12 2.961031 1_544
La4 S18 2.961041 1_444
La4 S13 3.092513 1_555
La4 S4 3.092527 1_454
La4 S19 3.092564 1_455
La4 S8 3.092590 1_444
La5 S29 2.960753 1_554
La5 S21 2.960933 1_555
La5 S2 2.961047 1_554
La5 S30 2.961238 1_555
La5 S0 3.092394 1_554
La5 S9 3.092488 1_555
La5 S5 3.092530 1_554
La5 S26 3.092716 1_555
La6 S29 2.994434 1_555
La6 S24 2.994460 1_455
La6 S12 2.994569 1_555
La6 S30 2.994598 1_455
La6 S31 3.042612 1_555
La6 S1 3.042624 1_455
La6 S3 3.042748 1_455
La6 S15 3.042753 1_455
La7 S18 2.994385 1_545
La7 S21 2.994411 1_545
La7 S2 2.994457 1_555
La7 S17 2.994480 1_555
La7 S27 3.042709 1_555
La7 S22 3.042725 1_555
La7 S20 3.042746 1_545
La7 S14 3.042747 1_555
P0 S15 2.035855 1_455
P0 S4 2.035886 1_465
P0 S12 2.035930 1_555
P0 S11 2.035950 1_555
P1 S13 2.035868 1_555
P1 S31 2.035885 1_555
P1 S16 2.035971 1_555
P1 S24 2.035978 1_455
P2 S0 2.035887 1_554
P2 S14 2.035922 1_565
P2 S21 2.035936 1_555
P2 S25 2.035960 1_555
P3 S26 2.035874 1_556
P3 S27 2.035887 1_555
P3 S6 2.035905 1_555
P3 S2 2.035952 1_555
P4 S8 2.035854 1_454
P4 S20 2.035888 1_555
P4 S17 2.035937 1_565
P4 S10 2.035969 1_555
P5 S29 2.035864 1_555
P5 S1 2.035904 1_455
P5 S5 2.035934 1_555
P5 S23 2.035958 1_555
P6 S19 2.035877 1_566
P6 S22 2.035930 1_565
P6 S28 2.035934 1_555
P6 S18 2.035986 1_555
P7 S3 2.035854 1_555
P7 S9 2.035858 1_555
P7 S7 2.035913 1_555
P7 S30 2.036008 1_555
