# generated using pymatgen
data_Ba3Co10O17
_symmetry_space_group_name_H-M   'P 1'
_cell_length_a   12.57595724
_cell_length_b   12.57595724
_cell_length_c   12.57595797
_cell_angle_alpha   26.30368684
_cell_angle_beta   26.30368684
_cell_angle_gamma   26.30368631
_symmetry_Int_Tables_number   1
_chemical_formula_structural   Ba3Co10O17
_chemical_formula_sum   'Ba3 Co10 O17'
_cell_volume   344.16681536
_cell_formula_units_Z   1
loop_
 _symmetry_equiv_pos_site_id
 _symmetry_equiv_pos_as_xyz
  1  'x, y, z'
loop_
 _atom_site_type_symbol
 _atom_site_label
 _atom_site_symmetry_multiplicity
 _atom_site_fract_x
 _atom_site_fract_y
 _atom_site_fract_z
 _atom_site_occupancy
  Ba  Ba0  1  0.60153200  0.60153200  0.60153200  1
  Ba  Ba1  1  0.39846800  0.39846800  0.39846800  1
  Ba  Ba2  1  0.00000000  0.00000000  0.00000000  1
  Co  Co0  1  0.00000000  0.50000000  0.00000000  1
  Co  Co1  1  0.76815500  0.76815500  0.76815500  1
  Co  Co2  1  0.30463000  0.30463000  0.30463000  1
  Co  Co3  1  0.69537000  0.69537000  0.69537000  1
  Co  Co4  1  0.23184500  0.23184500  0.23184500  1
  Co  Co5  1  0.00000000  0.00000000  0.50000000  1
  Co  Co6  1  0.08810800  0.08810800  0.08810800  1
  Co  Co7  1  0.91189200  0.91189200  0.91189200  1
  Co  Co8  1  0.50000000  0.00000000  0.00000000  1
  Co  Co9  1  0.50000000  0.50000000  0.50000000  1
  O  O0  1  0.35257000  0.35257000  0.88327500  1
  O  O1  1  0.14054400  0.14054400  0.14054400  1
  O  O2  1  0.64743000  0.64743000  0.11672500  1
  O  O3  1  0.11672500  0.64743000  0.64743000  1
  O  O4  1  0.35257000  0.88327500  0.35257000  1
  O  O5  1  0.88766900  0.43212400  0.88766900  1
  O  O6  1  0.88766900  0.88766900  0.43212400  1
  O  O7  1  0.50000000  0.50000000  0.00000000  1
  O  O8  1  0.50000000  0.00000000  0.50000000  1
  O  O9  1  0.11233100  0.11233100  0.56787600  1
  O  O10  1  0.11233100  0.56787600  0.11233100  1
  O  O11  1  0.88327500  0.35257000  0.35257000  1
  O  O12  1  0.64743000  0.11672500  0.64743000  1
  O  O13  1  0.43212400  0.88766900  0.88766900  1
  O  O14  1  0.00000000  0.50000000  0.50000000  1
  O  O15  1  0.85945600  0.85945600  0.85945600  1
  O  O16  1  0.56787600  0.11233100  0.11233100  1
loop_
_geom_bond_atom_site_label_1
_geom_bond_atom_site_label_2
_geom_bond_distance
_geom_bond_site_symmetry_2
Ba0 O9 2.868940 1_655
Ba0 O9 2.868940 1_565
Ba0 O16 2.868940 1_556
Ba0 O10 2.868940 1_556
Ba0 O16 2.868940 1_565
Ba0 O10 2.868940 1_655
Ba0 O14 2.889846 1_655
Ba0 O8 2.889846 1_565
Ba0 O7 2.889846 1_556
Ba0 O0 3.155284 1_555
Ba0 O11 3.155284 1_555
Ba0 O4 3.155284 1_555
Ba1 O6 2.868940 1_545
Ba1 O6 2.868940 1_455
Ba1 O5 2.868940 1_554
Ba1 O13 2.868940 1_554
Ba1 O13 2.868940 1_545
Ba1 O5 2.868940 1_455
Ba1 O14 2.889846 1_555
Ba1 O8 2.889846 1_555
Ba1 O7 2.889846 1_555
Ba1 O2 3.155284 1_555
Ba1 O3 3.155284 1_555
Ba1 O12 3.155284 1_555
Ba2 O7 2.861439 1_545
Ba2 O7 2.861439 1_455
Ba2 O14 2.861439 1_545
Ba2 O14 2.861439 1_554
Ba2 O8 2.861439 1_554
Ba2 O8 2.861439 1_455
Ba2 O16 3.094083 1_455
Ba2 O10 3.094083 1_545
Ba2 O13 3.094083 1_544
Ba2 O5 3.094083 1_454
Ba2 O9 3.094083 1_554
Ba2 O6 3.094083 1_445
Co0 O15 1.906186 1_454
Co0 O1 1.906186 1_555
Co0 O0 1.929495 1_554
Co0 O2 1.929495 1_455
Co0 O11 1.929496 1_455
Co0 O3 1.929496 1_554
Co1 O13 1.910753 1_555
Co1 O5 1.910753 1_555
Co1 O6 1.910753 1_555
Co1 O12 2.023331 1_565
Co1 O3 2.023331 1_655
Co1 O2 2.023331 1_556
Co2 O7 1.954747 1_555
Co2 O14 1.954747 1_555
Co2 O8 1.954747 1_555
Co2 O9 2.105659 1_555
Co2 O16 2.105659 1_555
Co2 O10 2.105659 1_555
Co3 O7 1.954747 1_556
Co3 O14 1.954747 1_655
Co3 O8 1.954747 1_565
Co3 O6 2.105659 1_555
Co3 O13 2.105659 1_555
Co3 O5 2.105659 1_555
Co4 O16 1.910753 1_555
Co4 O10 1.910753 1_555
Co4 O9 1.910753 1_555
Co4 O11 2.023331 1_455
Co4 O4 2.023331 1_545
Co4 O0 2.023331 1_554
Co5 O15 1.906186 1_445
Co5 O1 1.906186 1_555
Co5 O4 1.929495 1_545
Co5 O11 1.929495 1_455
Co5 O12 1.929495 1_455
Co5 O3 1.929495 1_545
Co6 O1 1.908799 1_555
Co6 O6 1.926716 1_445
Co6 O13 1.926716 1_544
Co6 O5 1.926716 1_454
Co7 O15 1.908799 1_555
Co7 O9 1.926716 1_665
Co7 O16 1.926716 1_566
Co7 O10 1.926716 1_656
Co8 O15 1.906186 1_544
Co8 O1 1.906186 1_555
Co8 O0 1.929495 1_554
Co8 O2 1.929495 1_545
Co8 O4 1.929496 1_545
Co8 O12 1.929496 1_554
Co9 O11 2.055667 1_555
Co9 O12 2.055667 1_555
Co9 O3 2.055667 1_555
Co9 O4 2.055667 1_555
Co9 O0 2.055667 1_555
Co9 O2 2.055667 1_555
