# generated using pymatgen
data_Rb2SrV4O12
_symmetry_space_group_name_H-M   'P 1'
_cell_length_a   11.29013700
_cell_length_b   11.29013700
_cell_length_c   5.59306800
_cell_angle_alpha   90.00000000
_cell_angle_beta   90.00000000
_cell_angle_gamma   90.00000000
_symmetry_Int_Tables_number   1
_chemical_formula_structural   Rb2SrV4O12
_chemical_formula_sum   'Rb4 Sr2 V8 O24'
_cell_volume   712.93268090
_cell_formula_units_Z   2
loop_
 _symmetry_equiv_pos_site_id
 _symmetry_equiv_pos_as_xyz
  1  'x, y, z'
loop_
 _atom_site_type_symbol
 _atom_site_label
 _atom_site_symmetry_multiplicity
 _atom_site_fract_x
 _atom_site_fract_y
 _atom_site_fract_z
 _atom_site_occupancy
  Rb  Rb0  1  0.75000000  0.75000000  0.50000000  1
  Rb  Rb1  1  0.75000000  0.25000000  0.50000000  1
  Rb  Rb2  1  0.25000000  0.75000000  0.50000000  1
  Rb  Rb3  1  0.25000000  0.25000000  0.50000000  1
  Sr  Sr0  1  0.00000000  0.00000000  0.50000000  1
  Sr  Sr1  1  0.50000000  0.50000000  0.50000000  1
  V  V0  1  0.00000000  0.27821500  0.00000000  1
  V  V1  1  0.27821500  0.00000000  0.00000000  1
  V  V2  1  0.72178500  0.00000000  0.00000000  1
  V  V3  1  0.00000000  0.72178500  0.00000000  1
  V  V4  1  0.50000000  0.22178500  0.00000000  1
  V  V5  1  0.22178500  0.50000000  0.00000000  1
  V  V6  1  0.77821500  0.50000000  0.00000000  1
  V  V7  1  0.50000000  0.77821500  0.00000000  1
  O  O0  1  0.12925800  0.37074200  0.94191400  1
  O  O1  1  0.37074200  0.87074200  0.94191400  1
  O  O2  1  0.62925800  0.12925800  0.94191400  1
  O  O3  1  0.87074200  0.62925800  0.94191400  1
  O  O4  1  0.87074200  0.37074200  0.05808600  1
  O  O5  1  0.12925800  0.62925800  0.05808600  1
  O  O6  1  0.37074200  0.12925800  0.05808600  1
  O  O7  1  0.62925800  0.87074200  0.05808600  1
  O  O8  1  0.80592600  0.02495000  0.24200100  1
  O  O9  1  0.02495000  0.19407400  0.24200100  1
  O  O10  1  0.97505000  0.80592600  0.24200100  1
  O  O11  1  0.19407400  0.97505000  0.24200100  1
  O  O12  1  0.19407400  0.02495000  0.75799900  1
  O  O13  1  0.80592600  0.97505000  0.75799900  1
  O  O14  1  0.02495000  0.80592600  0.75799900  1
  O  O15  1  0.97505000  0.19407400  0.75799900  1
  O  O16  1  0.69407400  0.47505000  0.75799900  1
  O  O17  1  0.47505000  0.30592600  0.75799900  1
  O  O18  1  0.52495000  0.69407400  0.75799900  1
  O  O19  1  0.30592600  0.52495000  0.75799900  1
  O  O20  1  0.30592600  0.47505000  0.24200100  1
  O  O21  1  0.69407400  0.52495000  0.24200100  1
  O  O22  1  0.47505000  0.69407400  0.24200100  1
  O  O23  1  0.52495000  0.30592600  0.24200100  1
loop_
_geom_bond_atom_site_label_1
_geom_bond_atom_site_label_2
_geom_bond_distance
_geom_bond_site_symmetry_2
O0 V0 1.823869 1_556
O0 V5 1.823869 1_556
O0 Rb3 3.134593 1_555
O1 V1 1.823869 1_566
O1 V7 1.823869 1_556
O1 Rb2 3.134593 1_555
O2 V2 1.823869 1_556
O2 V4 1.823869 1_556
O2 Rb1 3.134593 1_555
O3 V3 1.823869 1_656
O3 V6 1.823869 1_556
O3 Rb0 3.134593 1_555
O4 V0 1.823869 1_655
O4 V6 1.823869 1_555
O4 Rb1 3.134593 1_555
O5 V3 1.823869 1_555
O5 V5 1.823869 1_555
O5 Rb2 3.134593 1_555
O6 V1 1.823869 1_555
O6 V4 1.823869 1_555
O6 Rb3 3.134593 1_555
O7 V7 1.823869 1_555
O7 V2 1.823869 1_565
O7 Rb0 3.134593 1_555
O8 V2 1.677444 1_555
O8 Sr0 2.638680 1_655
O8 Rb1 2.989455 1_555
O9 V0 1.677444 1_555
O9 Sr0 2.638680 1_555
O9 Rb3 2.989455 1_555
O10 V3 1.677444 1_655
O10 Sr0 2.638680 1_665
O10 Rb0 2.989455 1_555
O11 V1 1.677444 1_565
O11 Sr0 2.638680 1_565
O11 Rb2 2.989455 1_555
O12 V1 1.677444 1_556
O12 Sr0 2.638680 1_555
O12 Rb3 2.989455 1_555
O13 V2 1.677444 1_566
O13 Sr0 2.638680 1_665
O13 Rb0 2.989455 1_555
O14 V3 1.677444 1_556
O14 Sr0 2.638680 1_565
O14 Rb2 2.989455 1_555
O15 V0 1.677444 1_656
O15 Sr0 2.638680 1_655
O15 Rb1 2.989455 1_555
O16 V6 1.677444 1_556
O16 Sr1 2.638680 1_555
O16 Rb1 2.989455 1_555
O17 V4 1.677444 1_556
O17 Sr1 2.638680 1_555
O17 Rb3 2.989455 1_555
O18 V7 1.677444 1_556
O18 Sr1 2.638680 1_555
O18 Rb0 2.989455 1_555
O19 V5 1.677444 1_556
O19 Sr1 2.638680 1_555
O19 Rb2 2.989455 1_555
O20 V5 1.677444 1_555
O20 Sr1 2.638680 1_555
O20 Rb3 2.989455 1_555
O21 V6 1.677444 1_555
O21 Sr1 2.638680 1_555
O21 Rb0 2.989455 1_555
O22 V7 1.677444 1_555
O22 Sr1 2.638680 1_555
O22 Rb2 2.989455 1_555
O23 V4 1.677444 1_555
O23 Sr1 2.638680 1_555
O23 Rb1 2.989455 1_555
