# generated using pymatgen
data_Hg2Te2O7
_symmetry_space_group_name_H-M   'P 1'
_cell_length_a   13.93557504
_cell_length_b   13.93557504
_cell_length_c   7.57796400
_cell_angle_alpha   90.00000000
_cell_angle_beta   90.00000000
_cell_angle_gamma   119.83218495
_symmetry_Int_Tables_number   1
_chemical_formula_structural   Hg2Te2O7
_chemical_formula_sum   'Hg16 Te16 O56'
_cell_volume   1276.62950016
_cell_formula_units_Z   8
loop_
 _symmetry_equiv_pos_site_id
 _symmetry_equiv_pos_as_xyz
  1  'x, y, z'
loop_
 _atom_site_type_symbol
 _atom_site_label
 _atom_site_symmetry_multiplicity
 _atom_site_fract_x
 _atom_site_fract_y
 _atom_site_fract_z
 _atom_site_occupancy
  Hg  Hg0  1  0.23582700  0.72690000  0.52025500  1
  Hg  Hg1  1  0.49493600  0.75426300  0.95357600  1
  Hg  Hg2  1  0.75426300  0.49493600  0.04642400  1
  Hg  Hg3  1  0.72690000  0.23582700  0.47974500  1
  Hg  Hg4  1  0.25184400  0.01167300  0.95167600  1
  Hg  Hg5  1  0.28361500  0.28361500  0.00000000  1
  Hg  Hg6  1  0.29170400  0.29170400  0.50000000  1
  Hg  Hg7  1  0.79170400  0.79170400  0.00000000  1
  Hg  Hg8  1  0.73582700  0.22690000  0.97974500  1
  Hg  Hg9  1  0.25426300  0.99493600  0.45357600  1
  Hg  Hg10  1  0.99493600  0.25426300  0.54642400  1
  Hg  Hg11  1  0.01167300  0.25184400  0.04832400  1
  Hg  Hg12  1  0.51167300  0.75184400  0.45167600  1
  Hg  Hg13  1  0.78361500  0.78361500  0.50000000  1
  Hg  Hg14  1  0.75184400  0.51167300  0.54832400  1
  Hg  Hg15  1  0.22690000  0.73582700  0.02025500  1
  Te  Te0  1  0.46470100  0.96754600  0.73953000  1
  Te  Te1  1  0.04250500  0.04102800  0.25002800  1
  Te  Te2  1  0.96754600  0.46470100  0.26047000  1
  Te  Te3  1  0.54102800  0.54250500  0.75002800  1
  Te  Te4  1  0.75543300  0.03107300  0.24966000  1
  Te  Te5  1  0.96470100  0.46754600  0.76047000  1
  Te  Te6  1  0.24994100  0.47974000  0.75685700  1
  Te  Te7  1  0.03107300  0.75543300  0.75034000  1
  Te  Te8  1  0.74994100  0.97974000  0.74314300  1
  Te  Te9  1  0.97974000  0.74994100  0.25685700  1
  Te  Te10  1  0.25543300  0.53107300  0.25034000  1
  Te  Te11  1  0.47974000  0.24994100  0.24314300  1
  Te  Te12  1  0.53107300  0.25543300  0.74966000  1
  Te  Te13  1  0.54250500  0.54102800  0.24997200  1
  Te  Te14  1  0.04102800  0.04250500  0.74997200  1
  Te  Te15  1  0.46754600  0.96470100  0.23953000  1
  O  O0  1  0.06485200  0.91793300  0.70960800  1
  O  O1  1  0.56485200  0.41793300  0.79039200  1
  O  O2  1  0.69575900  0.63133300  0.69484900  1
  O  O3  1  0.95070000  0.59065400  0.19014600  1
  O  O4  1  0.37710500  0.20943900  0.44106500  1
  O  O5  1  0.19575900  0.13133300  0.80515100  1
  O  O6  1  0.66291600  0.50741800  0.27329300  1
  O  O7  1  0.09065400  0.45070000  0.69014600  1
  O  O8  1  0.86735600  0.31071700  0.73306900  1
  O  O9  1  0.13603800  0.82028100  0.94512600  1
  O  O10  1  0.20943900  0.37710500  0.55893500  1
  O  O11  1  0.87710500  0.70943900  0.05893500  1
  O  O12  1  0.07168800  0.62809000  0.78244800  1
  O  O13  1  0.38317500  0.19059300  0.04417400  1
  O  O14  1  0.50741800  0.66291600  0.72670700  1
  O  O15  1  0.58712500  0.58712500  0.00000000  1
  O  O16  1  0.44343800  0.38172100  0.19586200  1
  O  O17  1  0.70943900  0.87710500  0.94106500  1
  O  O18  1  0.44031900  0.99317600  0.99227700  1
  O  O19  1  0.50003500  0.84545200  0.19520200  1
  O  O20  1  0.59065400  0.95070000  0.80985400  1
  O  O21  1  0.32028100  0.63603800  0.44512600  1
  O  O22  1  0.57168800  0.12809000  0.71755200  1
  O  O23  1  0.49527500  0.49527500  0.50000000  1
  O  O24  1  0.69059300  0.88317500  0.54417400  1
  O  O25  1  0.94343800  0.88172100  0.30413800  1
  O  O26  1  0.84545200  0.50003500  0.80479800  1
  O  O27  1  0.79307400  0.12475100  0.45493300  1
  O  O28  1  0.34545200  0.00003500  0.69520200  1
  O  O29  1  0.49317600  0.94031900  0.49227700  1
  O  O30  1  0.99317600  0.44031900  0.00772300  1
  O  O31  1  0.82028100  0.13603800  0.05487400  1
  O  O32  1  0.12475100  0.79307400  0.54506700  1
  O  O33  1  0.63133300  0.69575900  0.30515100  1
  O  O34  1  0.29307400  0.62475100  0.04506700  1
  O  O35  1  0.91793300  0.06485200  0.29039200  1
  O  O36  1  0.08712500  0.08712500  0.50000000  1
  O  O37  1  0.45070000  0.09065400  0.30985400  1
  O  O38  1  0.88172100  0.94343800  0.69586200  1
  O  O39  1  0.94031900  0.49317600  0.50772300  1
  O  O40  1  0.00003500  0.34545200  0.30479800  1
  O  O41  1  0.62809000  0.07168800  0.21755200  1
  O  O42  1  0.88317500  0.69059300  0.45582600  1
  O  O43  1  0.00741800  0.16291600  0.77329300  1
  O  O44  1  0.16291600  0.00741800  0.22670700  1
  O  O45  1  0.62475100  0.29307400  0.95493300  1
  O  O46  1  0.31071700  0.86735600  0.26693100  1
  O  O47  1  0.81071700  0.36735600  0.23306900  1
  O  O48  1  0.12809000  0.57168800  0.28244800  1
  O  O49  1  0.36735600  0.81071700  0.76693100  1
  O  O50  1  0.63603800  0.32028100  0.55487400  1
  O  O51  1  0.38172100  0.44343800  0.80413800  1
  O  O52  1  0.99527500  0.99527500  0.00000000  1
  O  O53  1  0.13133300  0.19575900  0.19484900  1
  O  O54  1  0.19059300  0.38317500  0.95582600  1
  O  O55  1  0.41793300  0.56485200  0.20960800  1
loop_
_geom_bond_atom_site_label_1
_geom_bond_atom_site_label_2
_geom_bond_distance
_geom_bond_site_symmetry_2
Hg0 O32 2.168402 1_555
Hg0 O21 2.189799 1_555
Hg0 O49 2.467423 1_555
Hg0 O46 2.563813 1_555
Hg0 O48 2.636126 1_555
Hg1 O14 2.196972 1_555
Hg1 O19 2.209695 1_556
Hg1 O34 2.569065 1_556
Hg1 O17 2.604566 1_555
Hg1 O20 2.612702 1_555
Hg1 O49 2.678052 1_555
Hg2 O6 2.196972 1_555
Hg2 O26 2.209695 1_554
Hg2 O45 2.569065 1_554
Hg2 O11 2.604566 1_555
Hg2 O3 2.612702 1_555
Hg2 O47 2.678052 1_555
Hg3 O27 2.168402 1_555
Hg3 O50 2.189799 1_555
Hg3 O47 2.467423 1_555
Hg3 O8 2.563813 1_555
Hg3 O22 2.636126 1_555
Hg4 O9 2.331985 1_545
Hg4 O13 2.348951 1_556
Hg4 O28 2.390785 1_555
Hg4 O44 2.410387 1_556
Hg4 O5 2.433333 1_555
Hg5 O54 2.346668 1_554
Hg5 O13 2.346668 1_555
Hg5 O5 2.365939 1_554
Hg5 O53 2.365939 1_555
Hg5 O16 2.450123 1_555
Hg5 O51 2.450123 1_554
Hg6 O10 2.070630 1_555
Hg6 O4 2.070630 1_555
Hg7 O11 2.070630 1_555
Hg7 O17 2.070630 1_554
Hg8 O45 2.168402 1_555
Hg8 O31 2.189799 1_556
Hg8 O8 2.467423 1_555
Hg8 O47 2.563813 1_556
Hg8 O41 2.636126 1_556
Hg9 O44 2.196972 1_565
Hg9 O28 2.209695 1_565
Hg9 O32 2.569065 1_555
Hg9 O4 2.604566 1_565
Hg9 O37 2.612702 1_565
Hg9 O46 2.678052 1_555
Hg10 O43 2.196972 1_655
Hg10 O40 2.209695 1_655
Hg10 O27 2.569065 1_555
Hg10 O10 2.604566 1_655
Hg10 O7 2.612702 1_655
Hg10 O8 2.678052 1_555
Hg11 O31 2.331985 1_455
Hg11 O54 2.348951 1_554
Hg11 O40 2.390785 1_555
Hg11 O43 2.410387 1_554
Hg11 O53 2.433333 1_555
Hg12 O21 2.331985 1_555
Hg12 O24 2.348951 1_555
Hg12 O19 2.390785 1_555
Hg12 O14 2.410387 1_555
Hg12 O33 2.433333 1_555
Hg13 O24 2.346668 1_555
Hg13 O42 2.346668 1_555
Hg13 O2 2.365939 1_555
Hg13 O33 2.365939 1_555
Hg13 O25 2.450123 1_555
Hg13 O38 2.450123 1_555
Hg14 O50 2.331985 1_555
Hg14 O42 2.348951 1_555
Hg14 O26 2.390785 1_555
Hg14 O6 2.410387 1_555
Hg14 O2 2.433333 1_555
Hg15 O34 2.168402 1_555
Hg15 O9 2.189799 1_554
Hg15 O46 2.467423 1_555
Hg15 O49 2.563813 1_554
Hg15 O12 2.636126 1_554
O0 Te14 1.947009 1_565
O0 Te7 2.093894 1_555
O1 Te3 1.947009 1_555
O1 Te12 2.093894 1_555
O2 Te3 1.923804 1_555
O3 Te2 1.957011 1_555
O3 Te9 2.110190 1_555
O4 Te11 1.952082 1_555
O5 Te14 1.923804 1_555
O6 Te13 1.961688 1_555
O7 Te5 1.957011 1_455
O7 Te6 2.110190 1_555
O8 Te5 1.926156 1_555
O9 Te7 1.954468 1_555
O10 Te6 1.952082 1_555
O11 Te9 1.952082 1_555
O12 Te5 1.984267 1_455
O12 Te7 2.127924 1_555
O13 Te11 1.913371 1_555
O14 Te3 1.961688 1_555
O15 Te13 1.997545 1_555
O15 Te3 1.997545 1_554
O16 Te13 1.988292 1_555
O16 Te11 2.163582 1_555
O17 Te8 1.952082 1_555
O18 Te15 1.990447 1_556
O18 Te0 2.008025 1_555
O19 Te15 1.956523 1_555
O20 Te0 1.957011 1_555
O20 Te8 2.110190 1_555
O21 Te10 1.954468 1_555
O22 Te0 1.984267 1_545
O22 Te12 2.127924 1_555
O23 Te13 2.003024 1_555
O23 Te3 2.003024 1_555
O24 Te8 1.913371 1_555
O25 Te1 1.988292 1_665
O25 Te9 2.163582 1_555
O26 Te5 1.956523 1_555
O27 Te4 1.928162 1_555
O28 Te0 1.956523 1_545
O29 Te0 1.990447 1_555
O29 Te15 2.008025 1_555
O30 Te5 1.990447 1_554
O30 Te2 2.008025 1_555
O31 Te4 1.954468 1_555
O32 Te7 1.928162 1_555
O33 Te13 1.923804 1_555
O34 Te10 1.928162 1_555
O35 Te1 1.947009 1_655
O35 Te4 2.093894 1_555
O36 Te14 1.997545 1_555
O36 Te1 1.997545 1_555
O37 Te15 1.957011 1_545
O37 Te11 2.110190 1_555
O38 Te14 1.988292 1_665
O38 Te8 2.163582 1_555
O39 Te2 1.990447 1_555
O39 Te5 2.008025 1_555
O40 Te2 1.956523 1_455
O41 Te15 1.984267 1_545
O41 Te4 2.127924 1_555
O42 Te9 1.913371 1_555
O43 Te14 1.961688 1_555
O44 Te1 1.961688 1_555
O45 Te12 1.928162 1_555
O46 Te15 1.926156 1_555
O47 Te2 1.926156 1_555
O48 Te2 1.984267 1_455
O48 Te10 2.127924 1_555
O49 Te0 1.926156 1_555
O50 Te12 1.954468 1_555
O51 Te3 1.988292 1_555
O51 Te6 2.163582 1_555
O52 Te1 2.003024 1_665
O52 Te14 2.003024 1_664
O53 Te1 1.923804 1_555
O54 Te6 1.913371 1_555
O55 Te13 1.947009 1_555
O55 Te10 2.093894 1_555
