# generated using pymatgen
data_HoF3
_symmetry_space_group_name_H-M   'P 1'
_cell_length_a   4.34839388
_cell_length_b   6.31833275
_cell_length_c   6.79778787
_cell_angle_alpha   90.00000000
_cell_angle_beta   90.00000000
_cell_angle_gamma   90.00000000
_symmetry_Int_Tables_number   1
_chemical_formula_structural   HoF3
_chemical_formula_sum   'Ho4 F12'
_cell_volume   186.76649896
_cell_formula_units_Z   4
loop_
 _symmetry_equiv_pos_site_id
 _symmetry_equiv_pos_as_xyz
  1  'x, y, z'
loop_
 _atom_site_type_symbol
 _atom_site_label
 _atom_site_symmetry_multiplicity
 _atom_site_fract_x
 _atom_site_fract_y
 _atom_site_fract_z
 _atom_site_occupancy
  Ho  Ho0  1  0.56268488  0.13042151  0.75000000  1
  Ho  Ho1  1  0.93731512  0.63042151  0.75000000  1
  Ho  Ho2  1  0.06268488  0.36957849  0.25000000  1
  Ho  Ho3  1  0.43731512  0.86957849  0.25000000  1
  F  F0  1  0.87853786  0.33446922  0.93732909  1
  F  F1  1  0.08873853  0.97707194  0.75000000  1
  F  F2  1  0.62146214  0.83446922  0.56267091  1
  F  F3  1  0.91126147  0.02292806  0.25000000  1
  F  F4  1  0.41126147  0.47707194  0.75000000  1
  F  F5  1  0.37853786  0.16553078  0.43732909  1
  F  F6  1  0.12146214  0.66553078  0.43732909  1
  F  F7  1  0.62146214  0.83446922  0.93732909  1
  F  F8  1  0.37853786  0.16553078  0.06267091  1
  F  F9  1  0.58873853  0.52292806  0.25000000  1
  F  F10  1  0.12146214  0.66553078  0.06267091  1
  F  F11  1  0.87853786  0.33446922  0.56267091  1
loop_
_geom_bond_atom_site_label_1
_geom_bond_atom_site_label_2
_geom_bond_distance
_geom_bond_site_symmetry_2
F0 Ho0 2.273791 1_555
F0 Ho1 2.276741 1_555
F0 Ho2 2.282110 1_656
F1 Ho0 2.277306 1_565
F1 Ho1 2.287086 1_455
F1 Ho0 2.484230 1_465
F2 Ho1 2.273791 1_555
F2 Ho0 2.276741 1_565
F2 Ho3 2.282110 1_555
F3 Ho3 2.277306 1_545
F3 Ho2 2.287086 1_655
F3 Ho3 2.484230 1_645
F4 Ho1 2.277306 1_455
F4 Ho0 2.287086 1_555
F4 Ho1 2.484230 1_555
F5 Ho2 2.273791 1_555
F5 Ho3 2.276741 1_545
F5 Ho0 2.282110 1_555
F6 Ho3 2.273791 1_555
F6 Ho2 2.276741 1_555
F6 Ho1 2.282110 1_455
F7 Ho1 2.273791 1_555
F7 Ho0 2.276741 1_565
F7 Ho3 2.282110 1_556
F8 Ho2 2.273791 1_555
F8 Ho3 2.276741 1_545
F8 Ho0 2.282110 1_554
F9 Ho2 2.277306 1_655
F9 Ho3 2.287086 1_555
F9 Ho2 2.484230 1_555
F10 Ho3 2.273791 1_555
F10 Ho2 2.276741 1_555
F10 Ho1 2.282110 1_454
F11 Ho0 2.273791 1_555
F11 Ho1 2.276741 1_555
F11 Ho2 2.282110 1_655
