# generated using pymatgen
data_Li10Si2PbO10
_symmetry_space_group_name_H-M   'P 1'
_cell_length_a   15.34136384
_cell_length_b   15.34136384
_cell_length_c   5.17544201
_cell_angle_alpha   80.51242692
_cell_angle_beta   80.51242692
_cell_angle_gamma   22.98704941
_symmetry_Int_Tables_number   1
_chemical_formula_structural   Li10Si2PbO10
_chemical_formula_sum   'Li20 Si4 Pb2 O20'
_cell_volume   468.91013694
_cell_formula_units_Z   2
loop_
 _symmetry_equiv_pos_site_id
 _symmetry_equiv_pos_as_xyz
  1  'x, y, z'
loop_
 _atom_site_type_symbol
 _atom_site_label
 _atom_site_symmetry_multiplicity
 _atom_site_fract_x
 _atom_site_fract_y
 _atom_site_fract_z
 _atom_site_occupancy
  Li  Li0  1  0.08663500  0.64972800  0.03371300  1
  Li  Li1  1  0.95189000  0.43779100  0.21090700  1
  Li  Li2  1  0.64972800  0.08663500  0.03371300  1
  Li  Li3  1  0.73061800  0.73061800  0.86361500  1
  Li  Li4  1  0.77848300  0.35083000  0.77017300  1
  Li  Li5  1  0.26938200  0.26938200  0.13638500  1
  Li  Li6  1  0.91336500  0.35027200  0.96628700  1
  Li  Li7  1  0.86784400  0.86784400  0.48600100  1
  Li  Li8  1  0.43779100  0.95189000  0.21090700  1
  Li  Li9  1  0.13215600  0.13215600  0.51399900  1
  Li  Li10  1  0.67569700  0.67569700  0.57693800  1
  Li  Li11  1  0.35083000  0.77848300  0.77017300  1
  Li  Li12  1  0.50777000  0.50777000  0.24025600  1
  Li  Li13  1  0.04811000  0.56220900  0.78909300  1
  Li  Li14  1  0.32430300  0.32430300  0.42306200  1
  Li  Li15  1  0.22151700  0.64917000  0.22982700  1
  Li  Li16  1  0.64917000  0.22151700  0.22982700  1
  Li  Li17  1  0.49223000  0.49223000  0.75974400  1
  Li  Li18  1  0.35027200  0.91336500  0.96628700  1
  Li  Li19  1  0.56220900  0.04811000  0.78909300  1
  Si  Si0  1  0.39953400  0.39953400  0.69464200  1
  Si  Si1  1  0.60046600  0.60046600  0.30535800  1
  Si  Si2  1  0.21910500  0.21910500  0.69069800  1
  Si  Si3  1  0.78089500  0.78089500  0.30930200  1
  Pb  Pb0  1  0.96140600  0.96140600  0.78888800  1
  Pb  Pb1  1  0.03859400  0.03859400  0.21111200  1
  O  O0  1  0.44952900  0.44952900  0.50284000  1
  O  O1  1  0.41976100  0.96802900  0.82866500  1
  O  O2  1  0.72772300  0.72772300  0.26380000  1
  O  O3  1  0.40476000  0.40476000  0.00950600  1
  O  O4  1  0.74817100  0.25182900  0.00000000  1
  O  O5  1  0.96802900  0.41976100  0.82866500  1
  O  O6  1  0.25182900  0.74817100  0.00000000  1
  O  O7  1  0.55047100  0.55047100  0.49716000  1
  O  O8  1  0.78649600  0.78649600  0.61989600  1
  O  O9  1  0.58860300  0.15229700  0.64077200  1
  O  O10  1  0.84770300  0.41139700  0.35922800  1
  O  O11  1  0.03197100  0.58023900  0.17133500  1
  O  O12  1  0.15229700  0.58860300  0.64077200  1
  O  O13  1  0.21350400  0.21350400  0.38010400  1
  O  O14  1  0.41139700  0.84770300  0.35922800  1
  O  O15  1  0.27227700  0.27227700  0.73620000  1
  O  O16  1  0.90788700  0.90788700  0.14305000  1
  O  O17  1  0.58023900  0.03197100  0.17133500  1
  O  O18  1  0.59524000  0.59524000  0.99049400  1
  O  O19  1  0.09211300  0.09211300  0.85695000  1
loop_
_geom_bond_atom_site_label_1
_geom_bond_atom_site_label_2
_geom_bond_distance
_geom_bond_site_symmetry_2
Li0 O11 1.883052 1_555
Li0 O16 1.938165 1_455
Li0 O3 2.035152 1_555
Li0 O12 2.060074 1_554
Li1 O13 1.858291 1_655
Li1 O2 1.900850 1_555
Li1 O5 1.986000 1_554
Li1 O10 1.998170 1_555
Li2 O17 1.883052 1_555
Li2 O16 1.938165 1_545
Li2 O3 2.035152 1_555
Li2 O9 2.060074 1_554
Li3 O8 1.923759 1_555
Li3 O1 2.031755 1_555
Li3 O5 2.031755 1_555
Li3 O2 2.058282 1_556
Li4 O19 2.017185 1_655
Li4 O7 2.022403 1_555
Li4 O18 2.051226 1_555
Li4 O4 2.111951 1_556
Li5 O13 1.923759 1_555
Li5 O17 2.031755 1_555
Li5 O11 2.031755 1_555
Li5 O15 2.058282 1_554
Li6 O5 1.883052 1_555
Li6 O19 1.938165 1_655
Li6 O18 2.035152 1_555
Li6 O10 2.060074 1_556
Li7 O12 1.907378 1_655
Li7 O9 1.907378 1_565
Li7 O16 1.970034 1_555
Li7 O8 2.427460 1_555
Li8 O13 1.858291 1_565
Li8 O2 1.900850 1_555
Li8 O1 1.986000 1_554
Li8 O14 1.998170 1_555
Li9 O14 1.907378 1_545
Li9 O10 1.907378 1_455
Li9 O19 1.970034 1_555
Li9 O13 2.427460 1_555
Li10 O2 2.054406 1_555
Li10 O5 2.246202 1_555
Li10 O1 2.246202 1_555
Li10 O14 2.345115 1_555
Li10 O10 2.345115 1_555
Li11 O19 2.017185 1_565
Li11 O7 2.022403 1_555
Li11 O18 2.051226 1_555
Li11 O6 2.111951 1_556
Li12 O7 1.997629 1_555
Li12 O6 2.000124 1_555
Li12 O4 2.000124 1_555
Li12 O0 2.028006 1_555
Li13 O8 1.858291 1_455
Li13 O15 1.900850 1_555
Li13 O11 1.986000 1_556
Li13 O12 1.998170 1_555
Li14 O15 2.054406 1_555
Li14 O11 2.246202 1_555
Li14 O17 2.246202 1_555
Li14 O9 2.345115 1_555
Li14 O12 2.345115 1_555
Li15 O16 2.017185 1_455
Li15 O0 2.022403 1_555
Li15 O3 2.051226 1_555
Li15 O6 2.111951 1_555
Li16 O16 2.017185 1_545
Li16 O0 2.022403 1_555
Li16 O3 2.051226 1_555
Li16 O4 2.111951 1_555
Li17 O0 1.997629 1_555
Li17 O6 2.000124 1_556
Li17 O4 2.000124 1_556
Li17 O7 2.028006 1_555
Li18 O1 1.883052 1_555
Li18 O19 1.938165 1_565
Li18 O18 2.035152 1_555
Li18 O14 2.060074 1_556
Li19 O8 1.858291 1_545
Li19 O15 1.900850 1_555
Li19 O17 1.986000 1_556
Li19 O9 1.998170 1_555
O0 Si0 1.656218 1_555
O1 Si2 1.676064 1_565
O2 Si3 1.654722 1_555
O3 Si0 1.663219 1_554
O4 Pb1 2.310263 1_655
O4 Pb0 2.310263 1_544
O5 Si2 1.676064 1_655
O6 Pb1 2.310263 1_565
O6 Pb0 2.310263 1_454
O7 Si1 1.656218 1_555
O8 Si3 1.644191 1_555
O9 Si0 1.644176 1_555
O10 Si1 1.644176 1_555
O11 Si3 1.676064 1_455
O12 Si0 1.644176 1_555
O13 Si2 1.644191 1_555
O14 Si1 1.644176 1_555
O15 Si2 1.654722 1_555
O16 Pb0 2.226406 1_554
O17 Si3 1.676064 1_545
O18 Si1 1.663219 1_556
O19 Pb1 2.226406 1_556
