# generated using pymatgen
data_NaH9O5
_symmetry_space_group_name_H-M   'P 1'
_cell_length_a   6.35649700
_cell_length_b   6.38295200
_cell_length_c   13.04190300
_cell_angle_alpha   90.00000000
_cell_angle_beta   90.00000000
_cell_angle_gamma   90.00000000
_symmetry_Int_Tables_number   1
_chemical_formula_structural   NaH9O5
_chemical_formula_sum   'Na4 H36 O20'
_cell_volume   529.15193755
_cell_formula_units_Z   4
loop_
 _symmetry_equiv_pos_site_id
 _symmetry_equiv_pos_as_xyz
  1  'x, y, z'
loop_
 _atom_site_type_symbol
 _atom_site_label
 _atom_site_symmetry_multiplicity
 _atom_site_fract_x
 _atom_site_fract_y
 _atom_site_fract_z
 _atom_site_occupancy
  Na  Na0  1  0.50792200  0.25042400  0.75091900  1
  Na  Na1  1  0.49207800  0.75042400  0.74908100  1
  Na  Na2  1  0.00792200  0.24957600  0.24908100  1
  Na  Na3  1  0.99207800  0.74957600  0.25091900  1
  H  H0  1  0.92601800  0.16717600  0.95231000  1
  H  H1  1  0.07398200  0.66717600  0.54769000  1
  H  H2  1  0.42601800  0.33282400  0.04769000  1
  H  H3  1  0.57398200  0.83282400  0.45231000  1
  H  H4  1  0.42540900  0.98658400  0.93419000  1
  H  H5  1  0.57459100  0.48658400  0.56581000  1
  H  H6  1  0.92540900  0.51341600  0.06581000  1
  H  H7  1  0.07459100  0.01341600  0.43419000  1
  H  H8  1  0.19454200  0.01818400  0.89441700  1
  H  H9  1  0.80545800  0.51818400  0.60558300  1
  H  H10  1  0.69454200  0.48181600  0.10558300  1
  H  H11  1  0.30545800  0.98181600  0.39441700  1
  H  H12  1  0.85605900  0.99231400  0.82644500  1
  H  H13  1  0.14394100  0.49231400  0.67355500  1
  H  H14  1  0.35605900  0.50768600  0.17355500  1
  H  H15  1  0.64394100  0.00768600  0.32644500  1
  H  H16  1  0.86988600  0.00637700  0.70160100  1
  H  H17  1  0.13011400  0.50637700  0.79839900  1
  H  H18  1  0.36988600  0.49362300  0.29839900  1
  H  H19  1  0.63011400  0.99362300  0.20160100  1
  H  H20  1  0.43732900  0.99846900  0.56096500  1
  H  H21  1  0.56267100  0.49846900  0.93903500  1
  H  H22  1  0.93732900  0.50153100  0.43903500  1
  H  H23  1  0.06267100  0.00153100  0.06096500  1
  H  H24  1  0.21097700  0.02058500  0.61045400  1
  H  H25  1  0.78902300  0.52058500  0.88954600  1
  H  H26  1  0.71097700  0.47941500  0.38954600  1
  H  H27  1  0.28902300  0.97941500  0.11045400  1
  H  H28  1  0.94321900  0.22571800  0.55043600  1
  H  H29  1  0.05678100  0.72571800  0.94956400  1
  H  H30  1  0.44321900  0.27428200  0.44956400  1
  H  H31  1  0.55678100  0.77428200  0.05043600  1
  H  H32  1  0.78392100  0.04282700  0.51470200  1
  H  H33  1  0.21607900  0.54282700  0.98529800  1
  H  H34  1  0.28392100  0.45717300  0.48529800  1
  H  H35  1  0.71607900  0.95717300  0.01470200  1
  O  O0  1  0.93386000  0.01449900  0.95236800  1
  O  O1  1  0.06614000  0.51449900  0.54763200  1
  O  O2  1  0.43386000  0.48550100  0.04763200  1
  O  O3  1  0.56614000  0.98550100  0.45236800  1
  O  O4  1  0.34324400  0.01053400  0.87074000  1
  O  O5  1  0.65675600  0.51053400  0.62926000  1
  O  O6  1  0.84324400  0.48946600  0.12926000  1
  O  O7  1  0.15675600  0.98946600  0.37074000  1
  O  O8  1  0.77559300  0.98773700  0.76021500  1
  O  O9  1  0.22440700  0.48773700  0.73978500  1
  O  O10  1  0.27559300  0.51226300  0.23978500  1
  O  O11  1  0.72440700  0.01226300  0.26021500  1
  O  O12  1  0.35919400  0.00392500  0.62873900  1
  O  O13  1  0.64080600  0.50392500  0.87126100  1
  O  O14  1  0.85919400  0.49607500  0.37126100  1
  O  O15  1  0.14080600  0.99607500  0.12873900  1
  O  O16  1  0.92600300  0.07262300  0.54964500  1
  O  O17  1  0.07399700  0.57262300  0.95035500  1
  O  O18  1  0.42600300  0.42737700  0.45035500  1
  O  O19  1  0.57399700  0.92737700  0.04964500  1
loop_
_geom_bond_atom_site_label_1
_geom_bond_atom_site_label_2
_geom_bond_distance
_geom_bond_site_symmetry_2
Na0 O9 2.358679 1_555
Na0 O8 2.391864 1_545
Na0 O13 2.407275 1_555
Na0 O4 2.425354 1_555
Na0 O12 2.430727 1_555
Na0 O5 2.483754 1_555
Na1 O8 2.358679 1_555
Na1 O9 2.391864 1_555
Na1 O12 2.407275 1_565
Na1 O5 2.425354 1_555
Na1 O13 2.430727 1_555
Na1 O4 2.483754 1_565
Na2 O11 2.358679 1_455
Na2 O10 2.391864 1_555
Na2 O15 2.407275 1_545
Na2 O6 2.425354 1_455
Na2 O14 2.430727 1_455
Na2 O7 2.483754 1_545
Na3 O10 2.358679 1_655
Na3 O11 2.391864 1_565
Na3 O14 2.407275 1_555
Na3 O7 2.425354 1_655
Na3 O15 2.430727 1_655
Na3 O6 2.483754 1_555
H0 O0 0.975804 1_555
H1 O1 0.975804 1_555
H2 O2 0.975804 1_555
H3 O3 0.975804 1_555
H4 O4 0.990413 1_565
H5 O5 0.990413 1_555
H6 O6 0.990413 1_555
H7 O7 0.990413 1_545
H8 O4 0.995583 1_555
H9 O5 0.995583 1_555
H10 O6 0.995583 1_555
H11 O7 0.995583 1_555
H12 O8 1.004270 1_555
H13 O9 1.004270 1_555
H14 O10 1.004270 1_555
H15 O11 1.004270 1_555
H16 O8 0.978657 1_545
H17 O9 0.978657 1_555
H18 O10 0.978657 1_555
H19 O11 0.978657 1_565
H20 O12 1.014481 1_565
H20 O3 1.638048 1_555
H21 O13 1.014481 1_555
H21 O2 1.638048 1_556
H22 O14 1.014481 1_555
H22 O1 1.638048 1_655
H23 O15 1.014481 1_545
H23 O0 1.638048 1_454
H24 O12 0.977653 1_555
H25 O13 0.977653 1_555
H26 O14 0.977653 1_555
H27 O15 0.977653 1_555
H28 O16 0.983361 1_555
H29 O17 0.983361 1_555
H30 O18 0.983361 1_555
H31 O19 0.983361 1_555
H32 O16 1.029331 1_555
H33 O17 1.029331 1_555
H34 O18 1.029331 1_555
H35 O19 1.029331 1_555
