# generated using pymatgen
data_Mg30Al24Ag19
_symmetry_space_group_name_H-M   'P 1'
_cell_length_a   14.14646000
_cell_length_b   14.14646000
_cell_length_c   14.14646000
_cell_angle_alpha   90.00000000
_cell_angle_beta   90.00000000
_cell_angle_gamma   90.00000000
_symmetry_Int_Tables_number   1
_chemical_formula_structural   Mg30Al24Ag19
_chemical_formula_sum   'Mg60 Al48 Ag38'
_cell_volume   2831.02254397
_cell_formula_units_Z   2
loop_
 _symmetry_equiv_pos_site_id
 _symmetry_equiv_pos_as_xyz
  1  'x, y, z'
loop_
 _atom_site_type_symbol
 _atom_site_label
 _atom_site_symmetry_multiplicity
 _atom_site_fract_x
 _atom_site_fract_y
 _atom_site_fract_z
 _atom_site_occupancy
  Mg  Mg0  1  0.30808300  0.87903600  0.18773500  1
  Mg  Mg1  1  0.87903600  0.81226500  0.30808300  1
  Mg  Mg2  1  0.18773500  0.30808300  0.12096400  1
  Mg  Mg3  1  0.89174700  0.00000000  0.17716200  1
  Mg  Mg4  1  0.12096400  0.81226500  0.69191700  1
  Mg  Mg5  1  0.32474600  0.38648600  0.50000000  1
  Mg  Mg6  1  0.12096400  0.18773500  0.69191700  1
  Mg  Mg7  1  0.81226500  0.30808300  0.12096400  1
  Mg  Mg8  1  0.50000000  0.32474600  0.38648600  1
  Mg  Mg9  1  0.00000000  0.82283800  0.10825300  1
  Mg  Mg10  1  0.50000000  0.32474600  0.61351400  1
  Mg  Mg11  1  0.00000000  0.38242400  0.00000000  1
  Mg  Mg12  1  0.30808300  0.12096400  0.18773500  1
  Mg  Mg13  1  0.87903600  0.81226500  0.69191700  1
  Mg  Mg14  1  0.10825300  0.00000000  0.82283800  1
  Mg  Mg15  1  0.82283800  0.10825300  0.00000000  1
  Mg  Mg16  1  0.81226500  0.30808300  0.87903600  1
  Mg  Mg17  1  0.18773500  0.69191700  0.12096400  1
  Mg  Mg18  1  0.50000000  0.50000000  0.11691300  1
  Mg  Mg19  1  0.00000000  0.00000000  0.38242400  1
  Mg  Mg20  1  0.18773500  0.69191700  0.87903600  1
  Mg  Mg21  1  0.00000000  0.17716200  0.89174700  1
  Mg  Mg22  1  0.69191700  0.87903600  0.81226500  1
  Mg  Mg23  1  0.50000000  0.67525400  0.38648600  1
  Mg  Mg24  1  0.00000000  0.17716200  0.10825300  1
  Mg  Mg25  1  0.89174700  0.00000000  0.82283800  1
  Mg  Mg26  1  0.38242400  0.00000000  0.00000000  1
  Mg  Mg27  1  0.88308700  0.50000000  0.50000000  1
  Mg  Mg28  1  0.17716200  0.89174700  0.00000000  1
  Mg  Mg29  1  0.61757600  0.00000000  0.00000000  1
  Mg  Mg30  1  0.18773500  0.30808300  0.87903600  1
  Mg  Mg31  1  0.00000000  0.82283800  0.89174700  1
  Mg  Mg32  1  0.10825300  0.00000000  0.17716200  1
  Mg  Mg33  1  0.32474600  0.61351400  0.50000000  1
  Mg  Mg34  1  0.50000000  0.50000000  0.88308700  1
  Mg  Mg35  1  0.87903600  0.18773500  0.30808300  1
  Mg  Mg36  1  0.67525400  0.38648600  0.50000000  1
  Mg  Mg37  1  0.61351400  0.50000000  0.67525400  1
  Mg  Mg38  1  0.30808300  0.12096400  0.81226500  1
  Mg  Mg39  1  0.12096400  0.81226500  0.30808300  1
  Mg  Mg40  1  0.30808300  0.87903600  0.81226500  1
  Mg  Mg41  1  0.17716200  0.10825300  0.00000000  1
  Mg  Mg42  1  0.67525400  0.61351400  0.50000000  1
  Mg  Mg43  1  0.81226500  0.69191700  0.87903600  1
  Mg  Mg44  1  0.00000000  0.61757600  0.00000000  1
  Mg  Mg45  1  0.87903600  0.18773500  0.69191700  1
  Mg  Mg46  1  0.69191700  0.87903600  0.18773500  1
  Mg  Mg47  1  0.50000000  0.67525400  0.61351400  1
  Mg  Mg48  1  0.12096400  0.18773500  0.30808300  1
  Mg  Mg49  1  0.00000000  0.00000000  0.61757600  1
  Mg  Mg50  1  0.38648600  0.50000000  0.67525400  1
  Mg  Mg51  1  0.50000000  0.88308700  0.50000000  1
  Mg  Mg52  1  0.50000000  0.11691300  0.50000000  1
  Mg  Mg53  1  0.61351400  0.50000000  0.32474600  1
  Mg  Mg54  1  0.69191700  0.12096400  0.18773500  1
  Mg  Mg55  1  0.11691300  0.50000000  0.50000000  1
  Mg  Mg56  1  0.82283800  0.89174700  0.00000000  1
  Mg  Mg57  1  0.38648600  0.50000000  0.32474600  1
  Mg  Mg58  1  0.81226500  0.69191700  0.12096400  1
  Mg  Mg59  1  0.69191700  0.12096400  0.81226500  1
  Al  Al0  1  0.60343900  0.67681200  0.80896100  1
  Al  Al1  1  0.32318800  0.19103900  0.39656100  1
  Al  Al2  1  0.66571600  0.59487000  0.00000000  1
  Al  Al3  1  0.67681200  0.19103900  0.39656100  1
  Al  Al4  1  0.19103900  0.39656100  0.67681200  1
  Al  Al5  1  0.39656100  0.67681200  0.80896100  1
  Al  Al6  1  0.40513000  0.00000000  0.66571600  1
  Al  Al7  1  0.32318800  0.19103900  0.60343900  1
  Al  Al8  1  0.80896100  0.39656100  0.67681200  1
  Al  Al9  1  0.19103900  0.39656100  0.32318800  1
  Al  Al10  1  0.80896100  0.39656100  0.32318800  1
  Al  Al11  1  0.67681200  0.19103900  0.60343900  1
  Al  Al12  1  0.32318800  0.80896100  0.39656100  1
  Al  Al13  1  0.50000000  0.83014100  0.09670500  1
  Al  Al14  1  0.66571600  0.40513000  0.00000000  1
  Al  Al15  1  0.33428400  0.59487000  0.00000000  1
  Al  Al16  1  0.60343900  0.67681200  0.19103900  1
  Al  Al17  1  0.09670500  0.50000000  0.16985900  1
  Al  Al18  1  0.39656100  0.32318800  0.19103900  1
  Al  Al19  1  0.00000000  0.66571600  0.40513000  1
  Al  Al20  1  0.00000000  0.66571600  0.59487000  1
  Al  Al21  1  0.50000000  0.83014100  0.90329500  1
  Al  Al22  1  0.09670500  0.50000000  0.83014100  1
  Al  Al23  1  0.80896100  0.60343900  0.32318800  1
  Al  Al24  1  0.50000000  0.16985900  0.90329500  1
  Al  Al25  1  0.90329500  0.50000000  0.83014100  1
  Al  Al26  1  0.50000000  0.16985900  0.09670500  1
  Al  Al27  1  0.67681200  0.80896100  0.60343900  1
  Al  Al28  1  0.00000000  0.33428400  0.40513000  1
  Al  Al29  1  0.39656100  0.32318800  0.80896100  1
  Al  Al30  1  0.33428400  0.40513000  0.00000000  1
  Al  Al31  1  0.60343900  0.32318800  0.19103900  1
  Al  Al32  1  0.19103900  0.60343900  0.32318800  1
  Al  Al33  1  0.00000000  0.33428400  0.59487000  1
  Al  Al34  1  0.83014100  0.90329500  0.50000000  1
  Al  Al35  1  0.59487000  0.00000000  0.66571600  1
  Al  Al36  1  0.39656100  0.67681200  0.19103900  1
  Al  Al37  1  0.80896100  0.60343900  0.67681200  1
  Al  Al38  1  0.60343900  0.32318800  0.80896100  1
  Al  Al39  1  0.59487000  0.00000000  0.33428400  1
  Al  Al40  1  0.19103900  0.60343900  0.67681200  1
  Al  Al41  1  0.16985900  0.90329500  0.50000000  1
  Al  Al42  1  0.67681200  0.80896100  0.39656100  1
  Al  Al43  1  0.90329500  0.50000000  0.16985900  1
  Al  Al44  1  0.16985900  0.09670500  0.50000000  1
  Al  Al45  1  0.32318800  0.80896100  0.60343900  1
  Al  Al46  1  0.40513000  0.00000000  0.33428400  1
  Al  Al47  1  0.83014100  0.09670500  0.50000000  1
  Ag  Ag0  1  0.50000000  0.00000000  0.83519800  1
  Ag  Ag1  1  0.00000000  0.33294900  0.78574900  1
  Ag  Ag2  1  0.50000000  0.83599300  0.28795900  1
  Ag  Ag3  1  0.66705100  0.78574900  0.00000000  1
  Ag  Ag4  1  0.28795900  0.50000000  0.16400700  1
  Ag  Ag5  1  0.50000000  0.00000000  0.16480200  1
  Ag  Ag6  1  0.00000000  0.66705100  0.21425100  1
  Ag  Ag7  1  0.78574900  0.00000000  0.33294900  1
  Ag  Ag8  1  0.00000000  0.83519800  0.50000000  1
  Ag  Ag9  1  0.33294900  0.21425100  0.00000000  1
  Ag  Ag10  1  0.50000000  0.33358500  0.00000000  1
  Ag  Ag11  1  0.78574900  0.00000000  0.66705100  1
  Ag  Ag12  1  0.28795900  0.50000000  0.83599300  1
  Ag  Ag13  1  0.83599300  0.28795900  0.50000000  1
  Ag  Ag14  1  0.16400700  0.28795900  0.50000000  1
  Ag  Ag15  1  0.50000000  0.66641500  0.00000000  1
  Ag  Ag16  1  0.66705100  0.21425100  0.00000000  1
  Ag  Ag17  1  0.50000000  0.50000000  0.50000000  1
  Ag  Ag18  1  0.83519800  0.50000000  0.00000000  1
  Ag  Ag19  1  0.50000000  0.83599300  0.71204100  1
  Ag  Ag20  1  0.66641500  0.00000000  0.50000000  1
  Ag  Ag21  1  0.00000000  0.33294900  0.21425100  1
  Ag  Ag22  1  0.21425100  0.00000000  0.66705100  1
  Ag  Ag23  1  0.00000000  0.16480200  0.50000000  1
  Ag  Ag24  1  0.21425100  0.00000000  0.33294900  1
  Ag  Ag25  1  0.16480200  0.50000000  0.00000000  1
  Ag  Ag26  1  0.71204100  0.50000000  0.83599300  1
  Ag  Ag27  1  0.50000000  0.16400700  0.28795900  1
  Ag  Ag28  1  0.71204100  0.50000000  0.16400700  1
  Ag  Ag29  1  0.00000000  0.50000000  0.66641500  1
  Ag  Ag30  1  0.33294900  0.78574900  0.00000000  1
  Ag  Ag31  1  0.50000000  0.16400700  0.71204100  1
  Ag  Ag32  1  0.83599300  0.71204100  0.50000000  1
  Ag  Ag33  1  0.16400700  0.71204100  0.50000000  1
  Ag  Ag34  1  0.00000000  0.00000000  0.00000000  1
  Ag  Ag35  1  0.00000000  0.50000000  0.33358500  1
  Ag  Ag36  1  0.33358500  0.00000000  0.50000000  1
  Ag  Ag37  1  0.00000000  0.66705100  0.78574900  1
loop_
_geom_bond_atom_site_label_1
_geom_bond_atom_site_label_2
_geom_bond_distance
_geom_bond_site_symmetry_2
Al0 Al5 2.926591 1_555
Al0 Al21 2.937165 1_555
Al0 Al2 3.069776 1_556
Al0 Mg34 3.081746 1_555
Al0 Mg22 3.122935 1_555
Al0 Mg43 3.123357 1_555
Al0 Mg47 3.128306 1_555
Al0 Mg37 3.139161 1_555
Al1 Al7 2.926591 1_555
Al1 Al44 2.937165 1_555
Al1 Al46 3.069776 1_555
Al1 Mg52 3.081746 1_555
Al1 Mg48 3.122935 1_555
Al1 Mg12 3.123357 1_555
Al1 Mg5 3.128306 1_555
Al1 Mg8 3.139161 1_555
Al2 Mg58 3.018439 1_555
Al2 Mg43 3.018439 1_554
Al2 Mg18 3.167378 1_555
Al2 Mg34 3.167378 1_554
Al3 Al47 2.937165 1_555
Al3 Al39 3.069776 1_555
Al3 Mg52 3.081746 1_555
Al3 Mg35 3.122935 1_555
Al3 Mg54 3.123357 1_555
Al3 Mg36 3.128306 1_555
Al3 Mg8 3.139161 1_555
Al4 Al40 2.926591 1_555
Al4 Mg55 3.081746 1_555
Al4 Mg30 3.122935 1_555
Al4 Mg6 3.123357 1_555
Al4 Mg50 3.128306 1_555
Al4 Mg5 3.139161 1_555
Al5 Mg34 3.081746 1_555
Al5 Mg40 3.122935 1_555
Al5 Mg20 3.123357 1_555
Al5 Mg47 3.128306 1_555
Al5 Mg50 3.139161 1_555
Al6 Mg38 3.018439 1_555
Al6 Mg40 3.018439 1_545
Al6 Al7 3.069776 1_555
Al6 Mg52 3.167378 1_555
Al6 Mg51 3.167378 1_545
Al7 Mg52 3.081746 1_555
Al7 Mg6 3.122935 1_555
Al7 Mg38 3.123357 1_555
Al7 Mg5 3.128306 1_555
Al7 Mg10 3.139161 1_555
Al8 Mg27 3.081746 1_555
Al8 Mg16 3.122935 1_555
Al8 Mg45 3.123357 1_555
Al8 Mg37 3.128306 1_555
Al8 Mg36 3.139161 1_555
Al9 Mg55 3.081746 1_555
Al9 Mg2 3.122935 1_555
Al9 Mg48 3.123357 1_555
Al9 Mg57 3.128306 1_555
Al9 Mg5 3.139161 1_555
Al10 Al23 2.926591 1_555
Al10 Al43 2.937165 1_555
Al10 Al28 3.069776 1_655
Al10 Mg27 3.081746 1_555
Al10 Mg7 3.122935 1_555
Al10 Mg35 3.123357 1_555
Al10 Mg53 3.128306 1_555
Al10 Mg36 3.139161 1_555
Al11 Al3 2.926591 1_555
Al11 Al47 2.937165 1_555
Al11 Al35 3.069776 1_555
Al11 Mg52 3.081746 1_555
Al11 Mg45 3.122935 1_555
Al11 Mg59 3.123357 1_555
Al11 Mg36 3.128306 1_555
Al11 Mg10 3.139161 1_555
Al12 Al45 2.926591 1_555
Al12 Al41 2.937165 1_555
Al12 Al46 3.069776 1_565
Al12 Mg51 3.081746 1_555
Al12 Mg39 3.122935 1_555
Al12 Mg0 3.123357 1_555
Al12 Mg33 3.128306 1_555
Al12 Mg23 3.139161 1_555
Al13 Al21 2.736067 1_554
Al13 Al16 2.937165 1_555
Al13 Al36 2.937165 1_555
Al13 Mg0 3.083452 1_555
Al13 Mg46 3.083452 1_555
Al13 Mg29 3.226759 1_565
Al13 Mg26 3.226759 1_565
Al14 Al2 2.684149 1_555
Al14 Mg7 3.018439 1_555
Al14 Mg16 3.018439 1_554
Al14 Al31 3.069776 1_555
Al14 Al38 3.069776 1_554
Al14 Mg18 3.167378 1_555
Al14 Mg34 3.167378 1_554
Al15 Al30 2.684149 1_555
Al15 Mg17 3.018439 1_555
Al15 Mg20 3.018439 1_554
Al15 Al36 3.069776 1_555
Al15 Al5 3.069776 1_554
Al15 Mg18 3.167378 1_555
Al15 Mg34 3.167378 1_554
Al16 Al36 2.926591 1_555
Al16 Al2 3.069776 1_555
Al16 Mg18 3.081746 1_555
Al16 Mg46 3.122935 1_555
Al16 Mg58 3.123357 1_555
Al16 Mg23 3.128306 1_555
Al16 Mg53 3.139161 1_555
Al17 Al43 2.736067 1_455
Al17 Al32 2.937165 1_555
Al17 Al9 2.937165 1_555
Al17 Mg17 3.083452 1_555
Al17 Mg2 3.083452 1_555
Al17 Mg11 3.226759 1_555
Al17 Mg44 3.226759 1_555
Al18 Al31 2.926591 1_555
Al18 Al26 2.937165 1_555
Al18 Al30 3.069776 1_555
Al18 Mg18 3.081746 1_555
Al18 Mg12 3.122935 1_555
Al18 Mg2 3.123357 1_555
Al18 Mg8 3.128306 1_555
Al18 Mg57 3.139161 1_555
Al19 Al20 2.684149 1_555
Al19 Mg39 3.018439 1_555
Al19 Mg1 3.018439 1_455
Al19 Al32 3.069776 1_555
Al19 Al23 3.069776 1_455
Al19 Mg55 3.167378 1_555
Al19 Mg27 3.167378 1_455
Al20 Mg4 3.018439 1_555
Al20 Mg13 3.018439 1_455
Al20 Al40 3.069776 1_555
Al20 Al37 3.069776 1_455
Al20 Mg55 3.167378 1_555
Al20 Mg27 3.167378 1_455
Al21 Al5 2.937165 1_555
Al21 Mg40 3.083452 1_555
Al21 Mg22 3.083452 1_555
Al21 Mg26 3.226759 1_566
Al21 Mg29 3.226759 1_566
Al22 Al25 2.736067 1_455
Al22 Al40 2.937165 1_555
Al22 Al4 2.937165 1_555
Al22 Mg30 3.083452 1_555
Al22 Mg20 3.083452 1_555
Al22 Mg44 3.226759 1_556
Al22 Mg11 3.226759 1_556
Al23 Al43 2.937165 1_555
Al23 Mg27 3.081746 1_555
Al23 Mg58 3.122935 1_555
Al23 Mg1 3.123357 1_555
Al23 Mg53 3.128306 1_555
Al23 Mg42 3.139161 1_555
Al24 Al26 2.736067 1_556
Al24 Al38 2.937165 1_555
Al24 Al29 2.937165 1_555
Al24 Mg59 3.083452 1_555
Al24 Mg38 3.083452 1_555
Al24 Mg29 3.226759 1_556
Al24 Mg26 3.226759 1_556
Al25 Al37 2.937165 1_555
Al25 Al8 2.937165 1_555
Al25 Mg16 3.083452 1_555
Al25 Mg43 3.083452 1_555
Al25 Mg11 3.226759 1_656
Al25 Mg44 3.226759 1_656
Al26 Al31 2.937165 1_555
Al26 Mg54 3.083452 1_555
Al26 Mg12 3.083452 1_555
Al26 Mg29 3.226759 1_555
Al26 Mg26 3.226759 1_555
Al27 Al42 2.926591 1_555
Al27 Al34 2.937165 1_555
Al27 Al35 3.069776 1_565
Al27 Mg51 3.081746 1_555
Al27 Mg13 3.122935 1_555
Al27 Mg22 3.123357 1_555
Al27 Mg42 3.128306 1_555
Al27 Mg47 3.139161 1_555
Al28 Al33 2.684149 1_555
Al28 Mg48 3.018439 1_555
Al28 Mg35 3.018439 1_455
Al28 Al9 3.069776 1_555
Al28 Mg55 3.167378 1_555
Al28 Mg27 3.167378 1_455
Al29 Al38 2.926591 1_555
Al29 Al30 3.069776 1_556
Al29 Mg34 3.081746 1_555
Al29 Mg38 3.122935 1_555
Al29 Mg30 3.123357 1_555
Al29 Mg10 3.128306 1_555
Al29 Mg50 3.139161 1_555
Al30 Mg2 3.018439 1_555
Al30 Mg30 3.018439 1_554
Al30 Mg18 3.167378 1_555
Al30 Mg34 3.167378 1_554
Al31 Mg18 3.081746 1_555
Al31 Mg54 3.122935 1_555
Al31 Mg7 3.123357 1_555
Al31 Mg8 3.128306 1_555
Al31 Mg53 3.139161 1_555
Al32 Al9 2.926591 1_555
Al32 Mg55 3.081746 1_555
Al32 Mg17 3.122935 1_555
Al32 Mg39 3.123357 1_555
Al32 Mg57 3.128306 1_555
Al32 Mg33 3.139161 1_555
Al33 Mg6 3.018439 1_555
Al33 Mg45 3.018439 1_455
Al33 Al4 3.069776 1_555
Al33 Al8 3.069776 1_455
Al33 Mg55 3.167378 1_555
Al33 Mg27 3.167378 1_455
Al34 Al47 2.736067 1_565
Al34 Al42 2.937165 1_555
Al34 Mg13 3.083452 1_555
Al34 Mg1 3.083452 1_555
Al34 Mg49 3.226759 1_665
Al34 Mg19 3.226759 1_665
Al35 Al6 2.684149 1_555
Al35 Mg59 3.018439 1_555
Al35 Mg22 3.018439 1_545
Al35 Mg52 3.167378 1_555
Al35 Mg51 3.167378 1_545
Al36 Mg18 3.081746 1_555
Al36 Mg0 3.122935 1_555
Al36 Mg17 3.123357 1_555
Al36 Mg23 3.128306 1_555
Al36 Mg57 3.139161 1_555
Al37 Al8 2.926591 1_555
Al37 Mg27 3.081746 1_555
Al37 Mg43 3.122935 1_555
Al37 Mg13 3.123357 1_555
Al37 Mg37 3.128306 1_555
Al37 Mg42 3.139161 1_555
Al38 Mg34 3.081746 1_555
Al38 Mg59 3.122935 1_555
Al38 Mg16 3.123357 1_555
Al38 Mg10 3.128306 1_555
Al38 Mg37 3.139161 1_555
Al39 Al46 2.684149 1_555
Al39 Mg54 3.018439 1_555
Al39 Mg46 3.018439 1_545
Al39 Al42 3.069776 1_545
Al39 Mg52 3.167378 1_555
Al39 Mg51 3.167378 1_545
Al40 Mg55 3.081746 1_555
Al40 Mg20 3.122935 1_555
Al40 Mg4 3.123357 1_555
Al40 Mg50 3.128306 1_555
Al40 Mg33 3.139161 1_555
Al41 Al44 2.736067 1_565
Al41 Al45 2.937165 1_555
Al41 Mg4 3.083452 1_555
Al41 Mg39 3.083452 1_555
Al41 Mg49 3.226759 1_565
Al41 Mg19 3.226759 1_565
Al42 Mg51 3.081746 1_555
Al42 Mg1 3.122935 1_555
Al42 Mg46 3.123357 1_555
Al42 Mg42 3.128306 1_555
Al42 Mg23 3.139161 1_555
Al43 Mg7 3.083452 1_555
Al43 Mg58 3.083452 1_555
Al43 Mg11 3.226759 1_655
Al43 Mg44 3.226759 1_655
Al44 Al7 2.937165 1_555
Al44 Mg6 3.083452 1_555
Al44 Mg48 3.083452 1_555
Al44 Mg49 3.226759 1_555
Al44 Mg19 3.226759 1_555
Al45 Al6 3.069776 1_565
Al45 Mg51 3.081746 1_555
Al45 Mg4 3.122935 1_555
Al45 Mg40 3.123357 1_555
Al45 Mg33 3.128306 1_555
Al45 Mg47 3.139161 1_555
Al46 Mg12 3.018439 1_555
Al46 Mg0 3.018439 1_545
Al46 Mg52 3.167378 1_555
Al46 Mg51 3.167378 1_545
Al47 Mg35 3.083452 1_555
Al47 Mg45 3.083452 1_555
Al47 Mg49 3.226759 1_655
Al47 Mg19 3.226759 1_655
Ag0 Al24 2.588813 1_555
Ag0 Al21 2.588813 1_545
Ag0 Al6 2.747637 1_555
Ag0 Al35 2.747637 1_555
Ag0 Mg26 2.863874 1_556
Ag0 Mg29 2.863874 1_556
Ag0 Ag31 2.901437 1_555
Ag0 Ag19 2.901437 1_545
Ag0 Mg59 3.225590 1_555
Ag0 Mg38 3.225590 1_555
Ag0 Mg22 3.225590 1_545
Ag0 Mg40 3.225590 1_545
Ag1 Mg21 2.665591 1_555
Ag1 Al33 2.700328 1_555
Ag1 Al22 2.801876 1_555
Ag1 Al25 2.801876 1_455
Ag1 Ag29 2.904218 1_555
Ag1 Mg6 2.984998 1_555
Ag1 Mg45 2.984998 1_455
Ag1 Mg30 2.986385 1_555
Ag1 Mg16 2.986385 1_455
Ag1 Mg11 3.110654 1_556
Ag1 Al4 3.238571 1_555
Ag1 Al8 3.238571 1_455
Ag2 Mg23 2.667071 1_555
Ag2 Al13 2.706833 1_555
Ag2 Al46 2.759271 1_565
Ag2 Al39 2.759271 1_565
Ag2 Ag5 2.901437 1_565
Ag2 Al42 2.960216 1_555
Ag2 Al12 2.960216 1_555
Ag2 Al16 3.015278 1_555
Ag2 Al36 3.015278 1_555
Ag2 Mg51 3.072722 1_555
Ag2 Mg46 3.122803 1_555
Ag2 Mg0 3.122803 1_555
Ag3 Mg56 2.665591 1_555
Ag3 Al2 2.700328 1_555
Ag3 Al21 2.801876 1_554
Ag3 Al13 2.801876 1_555
Ag3 Mg58 2.984998 1_555
Ag3 Mg43 2.984998 1_554
Ag3 Mg46 2.986385 1_555
Ag3 Mg22 2.986385 1_554
Ag3 Mg29 3.110654 1_565
Ag3 Al16 3.238571 1_555
Ag3 Al0 3.238571 1_554
Ag4 Mg57 2.667071 1_555
Ag4 Al17 2.706833 1_555
Ag4 Al30 2.759271 1_555
Ag4 Al15 2.759271 1_555
Ag4 Al36 2.960216 1_555
Ag4 Al18 2.960216 1_555
Ag4 Al32 3.015278 1_555
Ag4 Al9 3.015278 1_555
Ag4 Mg18 3.072722 1_555
Ag4 Mg17 3.122803 1_555
Ag4 Mg2 3.122803 1_555
Ag5 Al26 2.588813 1_555
Ag5 Al13 2.588813 1_545
Ag5 Al46 2.747637 1_555
Ag5 Al39 2.747637 1_555
Ag5 Mg26 2.863874 1_555
Ag5 Mg29 2.863874 1_555
Ag5 Mg12 3.225590 1_555
Ag5 Mg54 3.225590 1_555
Ag5 Mg46 3.225590 1_545
Ag5 Mg0 3.225590 1_545
Ag6 Mg9 2.665591 1_555
Ag6 Al19 2.700328 1_555
Ag6 Al43 2.801876 1_455
Ag6 Al17 2.801876 1_555
Ag6 Mg39 2.984998 1_555
Ag6 Mg1 2.984998 1_455
Ag6 Mg17 2.986385 1_555
Ag6 Mg58 2.986385 1_455
Ag6 Mg44 3.110654 1_555
Ag6 Al32 3.238571 1_555
Ag6 Al23 3.238571 1_455
Ag7 Mg3 2.665591 1_555
Ag7 Al39 2.700328 1_555
Ag7 Al47 2.801876 1_555
Ag7 Al34 2.801876 1_545
Ag7 Mg54 2.984998 1_555
Ag7 Mg46 2.984998 1_545
Ag7 Mg35 2.986385 1_555
Ag7 Mg1 2.986385 1_545
Ag7 Mg19 3.110654 1_655
Ag7 Al3 3.238571 1_555
Ag7 Al42 3.238571 1_545
Ag8 Al41 2.588813 1_555
Ag8 Al34 2.588813 1_455
Ag8 Al19 2.747637 1_555
Ag8 Al20 2.747637 1_555
Ag8 Mg19 2.863874 1_565
Ag8 Mg49 2.863874 1_565
Ag8 Mg4 3.225590 1_555
Ag8 Mg39 3.225590 1_555
Ag8 Mg13 3.225590 1_455
Ag8 Mg1 3.225590 1_455
Ag9 Mg41 2.665591 1_555
Ag9 Al30 2.700328 1_555
Ag9 Al26 2.801876 1_555
Ag9 Al24 2.801876 1_554
Ag9 Mg2 2.984998 1_555
Ag9 Mg30 2.984998 1_554
Ag9 Mg12 2.986385 1_555
Ag9 Mg38 2.986385 1_554
Ag9 Mg26 3.110654 1_555
Ag9 Al18 3.238571 1_555
Ag9 Al29 3.238571 1_554
Ag10 Al14 2.553445 1_555
Ag10 Al30 2.553445 1_555
Ag10 Al26 2.689988 1_555
Ag10 Al24 2.689988 1_554
Ag10 Mg18 2.877078 1_555
Ag10 Mg34 2.877078 1_554
Ag10 Ag16 2.904218 1_555
Ag10 Ag9 2.904218 1_555
Ag10 Al31 3.076770 1_555
Ag10 Al18 3.076770 1_555
Ag10 Al29 3.076770 1_554
Ag10 Al38 3.076770 1_554
Ag11 Mg25 2.665591 1_555
Ag11 Al35 2.700328 1_555
Ag11 Al47 2.801876 1_555
Ag11 Al34 2.801876 1_545
Ag11 Ag20 2.904218 1_555
Ag11 Mg59 2.984998 1_555
Ag11 Mg22 2.984998 1_545
Ag11 Mg45 2.986385 1_555
Ag11 Mg13 2.986385 1_545
Ag11 Mg49 3.110654 1_655
Ag11 Al11 3.238571 1_555
Ag11 Al27 3.238571 1_545
Ag12 Mg50 2.667071 1_555
Ag12 Al22 2.706833 1_555
Ag12 Al15 2.759271 1_556
Ag12 Al30 2.759271 1_556
Ag12 Ag25 2.901437 1_556
Ag12 Al5 2.960216 1_555
Ag12 Al29 2.960216 1_555
Ag12 Al40 3.015278 1_555
Ag12 Al4 3.015278 1_555
Ag12 Mg34 3.072722 1_555
Ag12 Mg30 3.122803 1_555
Ag12 Mg20 3.122803 1_555
Ag13 Mg36 2.667071 1_555
Ag13 Al47 2.706833 1_555
Ag13 Al33 2.759271 1_655
Ag13 Al28 2.759271 1_655
Ag13 Ag23 2.901437 1_655
Ag13 Al8 2.960216 1_555
Ag13 Al10 2.960216 1_555
Ag13 Al11 3.015278 1_555
Ag13 Al3 3.015278 1_555
Ag13 Mg27 3.072722 1_555
Ag13 Mg35 3.122803 1_555
Ag13 Mg45 3.122803 1_555
Ag14 Mg5 2.667071 1_555
Ag14 Al44 2.706833 1_555
Ag14 Al28 2.759271 1_555
Ag14 Al33 2.759271 1_555
Ag14 Ag23 2.901437 1_555
Ag14 Al4 2.960216 1_555
Ag14 Al9 2.960216 1_555
Ag14 Al7 3.015278 1_555
Ag14 Al1 3.015278 1_555
Ag14 Mg55 3.072722 1_555
Ag14 Mg48 3.122803 1_555
Ag14 Mg6 3.122803 1_555
Ag15 Al2 2.553445 1_555
Ag15 Al15 2.553445 1_555
Ag15 Al13 2.689988 1_555
Ag15 Al21 2.689988 1_554
Ag15 Mg18 2.877078 1_555
Ag15 Mg34 2.877078 1_554
Ag15 Ag3 2.904218 1_555
Ag15 Ag30 2.904218 1_555
Ag15 Al36 3.076770 1_555
Ag15 Al16 3.076770 1_555
Ag15 Al0 3.076770 1_554
Ag15 Al5 3.076770 1_554
Ag16 Mg15 2.665591 1_555
Ag16 Al14 2.700328 1_555
Ag16 Al26 2.801876 1_555
Ag16 Al24 2.801876 1_554
Ag16 Mg7 2.984998 1_555
Ag16 Mg16 2.984998 1_554
Ag16 Mg54 2.986385 1_555
Ag16 Mg59 2.986385 1_554
Ag16 Mg29 3.110654 1_555
Ag16 Al31 3.238571 1_555
Ag16 Al38 3.238571 1_554
Ag17 Mg50 2.953847 1_555
Ag17 Mg53 2.953847 1_555
Ag17 Mg57 2.953847 1_555
Ag17 Mg42 2.953847 1_555
Ag17 Mg10 2.953847 1_555
Ag17 Mg36 2.953847 1_555
Ag17 Mg33 2.953847 1_555
Ag17 Mg8 2.953847 1_555
Ag17 Mg37 2.953847 1_555
Ag17 Mg23 2.953847 1_555
Ag17 Mg5 2.953847 1_555
Ag17 Mg47 2.953847 1_555
Ag18 Al43 2.588813 1_555
Ag18 Al25 2.588813 1_554
Ag18 Al14 2.747637 1_555
Ag18 Al2 2.747637 1_555
Ag18 Mg11 2.863874 1_655
Ag18 Mg44 2.863874 1_655
Ag18 Ag28 2.901437 1_555
Ag18 Ag26 2.901437 1_554
Ag18 Mg7 3.225590 1_555
Ag18 Mg58 3.225590 1_555
Ag18 Mg16 3.225590 1_554
Ag18 Mg43 3.225590 1_554
Ag19 Mg47 2.667071 1_555
Ag19 Al21 2.706833 1_555
Ag19 Al6 2.759271 1_565
Ag19 Al35 2.759271 1_565
Ag19 Al27 2.960216 1_555
Ag19 Al45 2.960216 1_555
Ag19 Al0 3.015278 1_555
Ag19 Al5 3.015278 1_555
Ag19 Mg51 3.072722 1_555
Ag19 Mg22 3.122803 1_555
Ag19 Mg40 3.122803 1_555
Ag20 Al35 2.553445 1_555
Ag20 Al39 2.553445 1_555
Ag20 Al47 2.689988 1_555
Ag20 Al34 2.689988 1_545
Ag20 Mg52 2.877078 1_555
Ag20 Mg51 2.877078 1_545
Ag20 Ag7 2.904218 1_555
Ag20 Al3 3.076770 1_555
Ag20 Al11 3.076770 1_555
Ag20 Al27 3.076770 1_545
Ag20 Al42 3.076770 1_545
Ag21 Mg24 2.665591 1_555
Ag21 Al28 2.700328 1_555
Ag21 Al17 2.801876 1_555
Ag21 Al43 2.801876 1_455
Ag21 Ag35 2.904218 1_555
Ag21 Mg48 2.984998 1_555
Ag21 Mg35 2.984998 1_455
Ag21 Mg2 2.986385 1_555
Ag21 Mg7 2.986385 1_455
Ag21 Mg11 3.110654 1_555
Ag21 Al9 3.238571 1_555
Ag21 Al10 3.238571 1_455
Ag22 Mg14 2.665591 1_555
Ag22 Al6 2.700328 1_555
Ag22 Al44 2.801876 1_555
Ag22 Al41 2.801876 1_545
Ag22 Ag36 2.904218 1_555
Ag22 Mg38 2.984998 1_555
Ag22 Mg40 2.984998 1_545
Ag22 Mg6 2.986385 1_555
Ag22 Mg4 2.986385 1_545
Ag22 Mg49 3.110654 1_555
Ag22 Al7 3.238571 1_555
Ag22 Al45 3.238571 1_545
Ag23 Al44 2.588813 1_555
Ag23 Al47 2.588813 1_455
Ag23 Al28 2.747637 1_555
Ag23 Al33 2.747637 1_555
Ag23 Mg49 2.863874 1_555
Ag23 Mg19 2.863874 1_555
Ag23 Mg6 3.225590 1_555
Ag23 Mg48 3.225590 1_555
Ag23 Mg45 3.225590 1_455
Ag23 Mg35 3.225590 1_455
Ag24 Mg32 2.665591 1_555
Ag24 Al46 2.700328 1_555
Ag24 Al44 2.801876 1_555
Ag24 Al41 2.801876 1_545
Ag24 Ag36 2.904218 1_555
Ag24 Mg12 2.984998 1_555
Ag24 Mg0 2.984998 1_545
Ag24 Mg48 2.986385 1_555
Ag24 Mg39 2.986385 1_545
Ag24 Mg19 3.110654 1_555
Ag24 Al1 3.238571 1_555
Ag24 Al12 3.238571 1_545
Ag25 Al17 2.588813 1_555
Ag25 Al22 2.588813 1_554
Ag25 Al30 2.747637 1_555
Ag25 Al15 2.747637 1_555
Ag25 Mg11 2.863874 1_555
Ag25 Mg44 2.863874 1_555
Ag25 Ag4 2.901437 1_555
Ag25 Mg2 3.225590 1_555
Ag25 Mg17 3.225590 1_555
Ag25 Mg20 3.225590 1_554
Ag25 Mg30 3.225590 1_554
Ag26 Mg37 2.667071 1_555
Ag26 Al25 2.706833 1_555
Ag26 Al14 2.759271 1_556
Ag26 Al2 2.759271 1_556
Ag26 Al0 2.960216 1_555
Ag26 Al38 2.960216 1_555
Ag26 Al37 3.015278 1_555
Ag26 Al8 3.015278 1_555
Ag26 Mg34 3.072722 1_555
Ag26 Mg43 3.122803 1_555
Ag26 Mg16 3.122803 1_555
Ag27 Mg8 2.667071 1_555
Ag27 Al26 2.706833 1_555
Ag27 Al46 2.759271 1_555
Ag27 Al39 2.759271 1_555
Ag27 Ag5 2.901437 1_555
Ag27 Al3 2.960216 1_555
Ag27 Al1 2.960216 1_555
Ag27 Al31 3.015278 1_555
Ag27 Al18 3.015278 1_555
Ag27 Mg52 3.072722 1_555
Ag27 Mg54 3.122803 1_555
Ag27 Mg12 3.122803 1_555
Ag28 Mg53 2.667071 1_555
Ag28 Al43 2.706833 1_555
Ag28 Al14 2.759271 1_555
Ag28 Al2 2.759271 1_555
Ag28 Al16 2.960216 1_555
Ag28 Al31 2.960216 1_555
Ag28 Al23 3.015278 1_555
Ag28 Al10 3.015278 1_555
Ag28 Mg18 3.072722 1_555
Ag28 Mg7 3.122803 1_555
Ag28 Mg58 3.122803 1_555
Ag29 Al20 2.553445 1_555
Ag29 Al33 2.553445 1_555
Ag29 Al22 2.689988 1_555
Ag29 Al25 2.689988 1_455
Ag29 Mg55 2.877078 1_555
Ag29 Mg27 2.877078 1_455
Ag29 Ag37 2.904218 1_555
Ag29 Al40 3.076770 1_555
Ag29 Al4 3.076770 1_555
Ag29 Al37 3.076770 1_455
Ag29 Al8 3.076770 1_455
Ag30 Mg28 2.665591 1_555
Ag30 Al15 2.700328 1_555
Ag30 Al13 2.801876 1_555
Ag30 Al21 2.801876 1_554
Ag30 Mg17 2.984998 1_555
Ag30 Mg20 2.984998 1_554
Ag30 Mg0 2.986385 1_555
Ag30 Mg40 2.986385 1_554
Ag30 Mg26 3.110654 1_565
Ag30 Al36 3.238571 1_555
Ag30 Al5 3.238571 1_554
Ag31 Mg10 2.667071 1_555
Ag31 Al24 2.706833 1_555
Ag31 Al6 2.759271 1_555
Ag31 Al35 2.759271 1_555
Ag31 Al11 2.960216 1_555
Ag31 Al7 2.960216 1_555
Ag31 Al38 3.015278 1_555
Ag31 Al29 3.015278 1_555
Ag31 Mg52 3.072722 1_555
Ag31 Mg59 3.122803 1_555
Ag31 Mg38 3.122803 1_555
Ag32 Mg42 2.667071 1_555
Ag32 Al34 2.706833 1_555
Ag32 Al19 2.759271 1_655
Ag32 Al20 2.759271 1_655
Ag32 Ag8 2.901437 1_655
Ag32 Al37 2.960216 1_555
Ag32 Al23 2.960216 1_555
Ag32 Al27 3.015278 1_555
Ag32 Al42 3.015278 1_555
Ag32 Mg27 3.072722 1_555
Ag32 Mg1 3.122803 1_555
Ag32 Mg13 3.122803 1_555
Ag33 Mg33 2.667071 1_555
Ag33 Al41 2.706833 1_555
Ag33 Al19 2.759271 1_555
Ag33 Al20 2.759271 1_555
Ag33 Ag8 2.901437 1_555
Ag33 Al40 2.960216 1_555
Ag33 Al32 2.960216 1_555
Ag33 Al45 3.015278 1_555
Ag33 Al12 3.015278 1_555
Ag33 Mg55 3.072722 1_555
Ag33 Mg4 3.122803 1_555
Ag33 Mg39 3.122803 1_555
Ag34 Mg41 2.937055 1_555
Ag34 Mg32 2.937055 1_555
Ag34 Mg28 2.937055 1_545
Ag34 Mg21 2.937055 1_554
Ag34 Mg3 2.937055 1_455
Ag34 Mg24 2.937055 1_555
Ag34 Mg56 2.937055 1_445
Ag34 Mg15 2.937055 1_455
Ag34 Mg25 2.937055 1_454
Ag34 Mg31 2.937055 1_544
Ag34 Mg14 2.937055 1_554
Ag34 Mg9 2.937055 1_545
Ag35 Al19 2.553445 1_555
Ag35 Al28 2.553445 1_555
Ag35 Al17 2.689988 1_555
Ag35 Al43 2.689988 1_455
Ag35 Mg55 2.877078 1_555
Ag35 Mg27 2.877078 1_455
Ag35 Ag6 2.904218 1_555
Ag35 Al32 3.076770 1_555
Ag35 Al9 3.076770 1_555
Ag35 Al23 3.076770 1_455
Ag35 Al10 3.076770 1_455
Ag36 Al6 2.553445 1_555
Ag36 Al46 2.553445 1_555
Ag36 Al44 2.689988 1_555
Ag36 Al41 2.689988 1_545
Ag36 Mg52 2.877078 1_555
Ag36 Mg51 2.877078 1_545
Ag36 Al7 3.076770 1_555
Ag36 Al1 3.076770 1_555
Ag36 Al45 3.076770 1_545
Ag36 Al12 3.076770 1_545
Ag37 Mg31 2.665591 1_555
Ag37 Al20 2.700328 1_555
Ag37 Al25 2.801876 1_455
Ag37 Al22 2.801876 1_555
Ag37 Mg4 2.984998 1_555
Ag37 Mg13 2.984998 1_455
Ag37 Mg20 2.986385 1_555
Ag37 Mg43 2.986385 1_455
Ag37 Mg44 3.110654 1_556
Ag37 Al40 3.238571 1_555
Ag37 Al37 3.238571 1_455
