# generated using pymatgen
data_Tm(SiNi5)2
_symmetry_space_group_name_H-M   'P 1'
_cell_length_a   8.06071714
_cell_length_b   8.06072850
_cell_length_c   4.62228598
_cell_angle_alpha   90.00314094
_cell_angle_beta   89.99937537
_cell_angle_gamma   89.99991542
_symmetry_Int_Tables_number   1
_chemical_formula_structural   Tm(SiNi5)2
_chemical_formula_sum   'Tm2 Si4 Ni20'
_cell_volume   300.33419789
_cell_formula_units_Z   2
loop_
 _symmetry_equiv_pos_site_id
 _symmetry_equiv_pos_as_xyz
  1  'x, y, z'
loop_
 _atom_site_type_symbol
 _atom_site_label
 _atom_site_symmetry_multiplicity
 _atom_site_fract_x
 _atom_site_fract_y
 _atom_site_fract_z
 _atom_site_occupancy
  Tm  Tm0  1  0.99997931  0.50007298  0.22116877  1
  Tm  Tm1  1  0.50002061  -0.00007299  0.77883843  1
  Si  Si0  1  0.74998591  0.74997772  0.50000054  1
  Si  Si1  1  0.25001363  0.74997765  0.50000074  1
  Si  Si2  1  0.74998591  0.25002280  0.50000048  1
  Si  Si3  1  0.25001379  0.25002299  0.50000058  1
  Ni  Ni0  1  0.74988639  0.25008428  -0.00000224  1
  Ni  Ni1  1  0.74988645  0.74991602  -0.00000182  1
  Ni  Ni2  1  0.25011351  0.25008480  -0.00000219  1
  Ni  Ni3  1  0.25011351  0.74991571  -0.00000204  1
  Ni  Ni4  1  0.35271784  0.50004575  0.23911715  1
  Ni  Ni5  1  0.99997708  0.14744989  0.23902173  1
  Ni  Ni6  1  0.99997493  0.85247423  0.23911273  1
  Ni  Ni7  1  0.64732758  0.50004814  0.23914166  1
  Ni  Ni8  1  0.14748785  -0.00004598  0.76094901  1
  Ni  Ni9  1  0.85246796  -0.00004915  0.76092514  1
  Ni  Ni10  1  0.50002281  0.35270973  0.76091878  1
  Ni  Ni11  1  0.50002475  0.64736557  0.76083109  1
  Ni  Ni12  1  0.77710595  0.50003849  0.72972243  1
  Ni  Ni13  1  0.99997737  0.72263679  0.72973833  1
  Ni  Ni14  1  -0.00002130  0.27737750  0.72986781  1
  Ni  Ni15  1  0.22288712  0.50003766  0.72975178  1
  Ni  Ni16  1  0.72261758  -0.00003897  0.27020713  1
  Ni  Ni17  1  0.27739021  -0.00003730  0.27017723  1
  Ni  Ni18  1  0.50002220  0.77712166  0.27032195  1
  Ni  Ni19  1  0.50002102  0.22286405  0.27019481  1
loop_
_geom_bond_atom_site_label_1
_geom_bond_atom_site_label_2
_geom_bond_distance
_geom_bond_site_symmetry_2
Si0 Tm0 3.127196 1_555
Si0 Tm1 3.127293 1_565
Si1 Tm0 3.127430 1_455
Si1 Tm1 3.127531 1_565
Si2 Tm0 3.128046 1_555
Si2 Tm1 3.128149 1_555
Si3 Tm0 3.128273 1_455
Si3 Tm1 3.128379 1_555
Ni0 Si2 2.311131 1_554
Ni0 Si2 2.311156 1_555
Ni0 Ni19 2.380024 1_555
Ni0 Ni12 2.380884 1_554
Ni0 Ni14 2.381464 1_654
Ni0 Ni16 2.381914 1_555
Ni0 Ni10 2.441763 1_554
Ni0 Ni7 2.442301 1_555
Ni0 Ni5 2.443183 1_555
Ni0 Ni9 2.443342 1_554
Ni0 Tm1 3.027789 1_554
Ni0 Tm0 3.028121 1_555
Ni1 Si0 2.311132 1_554
Ni1 Si0 2.311154 1_555
Ni1 Ni12 2.380245 1_554
Ni1 Ni18 2.380300 1_555
Ni1 Ni16 2.381263 1_565
Ni1 Ni13 2.381746 1_554
Ni1 Ni11 2.441691 1_554
Ni1 Ni7 2.441764 1_555
Ni1 Ni9 2.442789 1_564
Ni1 Ni6 2.443111 1_555
Ni1 Tm1 3.027076 1_564
Ni1 Tm0 3.027410 1_555
Ni2 Si3 2.311130 1_554
Ni2 Si3 2.311156 1_555
Ni2 Ni4 2.442365 1_555
Ni2 Ni8 2.443405 1_554
Ni2 Ni5 2.443470 1_455
Ni2 Tm1 3.027995 1_554
Ni2 Tm0 3.028321 1_455
Ni3 Si1 2.311130 1_554
Ni3 Si1 2.311156 1_555
Ni3 Ni4 2.441857 1_555
Ni3 Ni8 2.442888 1_564
Ni3 Ni6 2.443423 1_455
Ni3 Tm1 3.027288 1_564
Ni3 Tm0 3.027620 1_455
Ni4 Ni7 2.374766 1_555
Ni4 Si1 2.489571 1_555
Ni4 Si3 2.490272 1_555
Ni4 Tm0 2.844537 1_455
Ni5 Ni6 2.377719 1_545
Ni5 Si2 2.489843 1_555
Ni5 Si3 2.490164 1_655
Ni5 Ni8 2.776721 1_654
Ni5 Ni9 2.776836 1_554
Ni5 Tm0 2.843601 1_555
Ni5 Ni9 2.940622 1_555
Ni5 Ni8 2.940728 1_655
Ni6 Si0 2.489466 1_555
Ni6 Si1 2.489810 1_655
Ni6 Ni8 2.777113 1_664
Ni6 Ni9 2.777189 1_564
Ni6 Tm0 2.841817 1_555
Ni6 Ni9 2.940089 1_565
Ni6 Ni8 2.940232 1_665
Ni7 Si0 2.489389 1_555
Ni7 Si2 2.490118 1_555
Ni7 Tm0 2.843839 1_555
Ni8 Ni9 2.378072 1_455
Ni8 Si1 2.489528 1_545
Ni8 Si3 2.490242 1_555
Ni8 Tm1 2.842871 1_555
Ni9 Si0 2.489348 1_545
Ni9 Si2 2.490098 1_555
Ni9 Tm1 2.842184 1_555
Ni10 Ni11 2.375141 1_555
Ni10 Ni2 2.442048 1_556
Ni10 Si2 2.489829 1_555
Ni10 Si3 2.490152 1_555
Ni10 Ni19 2.498049 1_555
Ni10 Ni12 2.533698 1_555
Ni10 Ni15 2.534060 1_555
Ni10 Ni19 2.576268 1_556
Ni10 Ni4 2.775922 1_556
Ni10 Ni7 2.776042 1_556
Ni10 Tm1 2.844896 1_555
Ni10 Ni7 2.938954 1_555
Ni10 Ni4 2.939060 1_555
Ni11 Ni3 2.441997 1_556
Ni11 Si0 2.489466 1_555
Ni11 Si1 2.489811 1_555
Ni11 Ni18 2.496949 1_555
Ni11 Ni12 2.533644 1_555
Ni11 Ni15 2.534046 1_555
Ni11 Ni18 2.576777 1_556
Ni11 Ni4 2.776301 1_556
Ni11 Ni7 2.776388 1_556
Ni11 Tm1 2.843116 1_565
Ni11 Ni7 2.938438 1_555
Ni11 Ni4 2.938575 1_555
Ni12 Si0 2.287907 1_555
Ni12 Si2 2.288348 1_555
Ni12 Ni7 2.497283 1_555
Ni12 Ni13 2.539087 1_555
Ni12 Ni14 2.539448 1_655
Ni12 Ni7 2.576589 1_556
Ni12 Tm0 2.896163 1_556
Ni12 Tm0 2.958562 1_555
Ni13 Si0 2.288443 1_555
Ni13 Si1 2.288741 1_655
Ni13 Ni3 2.382077 1_656
Ni13 Ni6 2.497713 1_555
Ni13 Ni9 2.536008 1_565
Ni13 Ni8 2.536045 1_665
Ni13 Ni15 2.539307 1_655
Ni13 Ni6 2.576551 1_556
Ni13 Tm0 2.894622 1_556
Ni13 Tm0 2.957045 1_555
Ni14 Si2 2.288731 1_455
Ni14 Si3 2.289010 1_555
Ni14 Ni2 2.381776 1_556
Ni14 Ni5 2.498839 1_455
Ni14 Ni8 2.536772 1_555
Ni14 Ni9 2.536796 1_455
Ni14 Ni15 2.539650 1_555
Ni14 Ni5 2.576020 1_456
Ni14 Tm0 2.894656 1_456
Ni14 Tm0 2.958321 1_455
Ni15 Si1 2.287978 1_555
Ni15 Si3 2.288405 1_555
Ni15 Ni3 2.380185 1_556
Ni15 Ni2 2.380811 1_556
Ni15 Ni4 2.497665 1_555
Ni15 Ni4 2.576554 1_556
Ni15 Tm0 2.896198 1_456
Ni15 Tm0 2.958869 1_455
Ni16 Si0 2.288565 1_545
Ni16 Si2 2.289020 1_555
Ni16 Ni9 2.498102 1_555
Ni16 Ni6 2.536206 1_545
Ni16 Ni5 2.536264 1_555
Ni16 Ni18 2.538888 1_545
Ni16 Ni19 2.539254 1_555
Ni16 Ni9 2.576245 1_554
Ni16 Tm1 2.894500 1_554
Ni16 Tm1 2.957495 1_555
Ni17 Si1 2.288647 1_545
Ni17 Si3 2.289077 1_555
Ni17 Ni3 2.381213 1_545
Ni17 Ni2 2.381841 1_555
Ni17 Ni8 2.498483 1_555
Ni17 Ni6 2.536622 1_445
Ni17 Ni5 2.536630 1_455
Ni17 Ni18 2.539102 1_545
Ni17 Ni19 2.539443 1_555
Ni17 Ni8 2.576209 1_554
Ni17 Tm1 2.894528 1_554
Ni17 Tm1 2.957799 1_555
Ni18 Si0 2.287967 1_555
Ni18 Si1 2.288266 1_555
Ni18 Ni3 2.380628 1_555
Ni18 Ni7 2.533526 1_555
Ni18 Ni4 2.533550 1_555
Ni18 Tm1 2.896021 1_564
Ni18 Tm1 2.958031 1_565
Ni19 Si2 2.288249 1_555
Ni19 Si3 2.288529 1_555
Ni19 Ni2 2.380334 1_555
Ni19 Ni4 2.534275 1_555
Ni19 Ni7 2.534300 1_555
Ni19 Tm1 2.896065 1_554
Ni19 Tm1 2.959299 1_555
