# generated using pymatgen
data_C
_symmetry_space_group_name_H-M   'P 1'
_cell_length_a   3.67773085
_cell_length_b   3.67773263
_cell_length_c   4.24542281
_cell_angle_alpha   90.00000000
_cell_angle_beta   90.00000000
_cell_angle_gamma   97.27712524
_symmetry_Int_Tables_number   1
_chemical_formula_structural   C
_chemical_formula_sum   C8
_cell_volume   56.95982915
_cell_formula_units_Z   8
loop_
 _symmetry_equiv_pos_site_id
 _symmetry_equiv_pos_as_xyz
  1  'x, y, z'
loop_
 _atom_site_type_symbol
 _atom_site_label
 _atom_site_symmetry_multiplicity
 _atom_site_fract_x
 _atom_site_fract_y
 _atom_site_fract_z
 _atom_site_occupancy
  C  C0  1  0.15003730  0.84996270  0.31920835  1
  C  C1  1  0.84996270  0.15003730  0.68079165  1
  C  C2  1  0.84996270  0.15003730  0.31920835  1
  C  C3  1  0.15003730  0.84996270  0.68079165  1
  C  C4  1  0.50000000  -0.00000000  0.84307484  1
  C  C5  1  0.50000000  -0.00000000  0.15692516  1
  C  C6  1  0.00000000  0.50000000  0.15692516  1
  C  C7  1  0.00000000  0.50000000  0.84307484  1
loop_
_geom_bond_atom_site_label_1
_geom_bond_atom_site_label_2
_geom_bond_distance
_geom_bond_site_symmetry_2
C0 C5 1.501923 1_565
C0 C6 1.501923 1_555
C0 C3 1.535074 1_555
C0 C2 1.656618 1_465
C1 C4 1.501923 1_555
C1 C7 1.501923 1_655
C1 C2 1.535074 1_555
C1 C3 1.656618 1_645
C2 C5 1.501923 1_555
C2 C6 1.501923 1_655
C3 C4 1.501923 1_565
C3 C7 1.501923 1_555
C4 C5 1.332427 1_556
C6 C7 1.332427 1_554
