# generated using pymatgen
data_K2Nb3Cl7O5
_symmetry_space_group_name_H-M   'P 1'
_cell_length_a   9.65668465
_cell_length_b   9.65668465
_cell_length_c   11.31733892
_cell_angle_alpha   69.91254741
_cell_angle_beta   69.91254741
_cell_angle_gamma   55.54566694
_symmetry_Int_Tables_number   1
_chemical_formula_structural   K2Nb3Cl7O5
_chemical_formula_sum   'K4 Nb6 Cl14 O10'
_cell_volume   801.98906823
_cell_formula_units_Z   2
loop_
 _symmetry_equiv_pos_site_id
 _symmetry_equiv_pos_as_xyz
  1  'x, y, z'
loop_
 _atom_site_type_symbol
 _atom_site_label
 _atom_site_symmetry_multiplicity
 _atom_site_fract_x
 _atom_site_fract_y
 _atom_site_fract_z
 _atom_site_occupancy
  K  K0  1  0.82981800  0.76123100  0.85671800  1
  K  K1  1  0.23876900  0.17018200  0.64328200  1
  K  K2  1  0.76123100  0.82981800  0.35671800  1
  K  K3  1  0.17018200  0.23876900  0.14328200  1
  Nb  Nb0  1  0.78552100  0.20868800  0.97289800  1
  Nb  Nb1  1  0.20868800  0.78552100  0.47289800  1
  Nb  Nb2  1  0.21447900  0.79131200  0.02710200  1
  Nb  Nb3  1  0.53701300  0.46298700  0.25000000  1
  Nb  Nb4  1  0.46298700  0.53701300  0.75000000  1
  Nb  Nb5  1  0.79131200  0.21447900  0.52710200  1
  Cl  Cl0  1  0.06170200  0.63398200  0.13403900  1
  Cl  Cl1  1  0.36601800  0.93829800  0.36596100  1
  Cl  Cl2  1  0.36301400  0.95051200  0.95377300  1
  Cl  Cl3  1  0.63398200  0.06170200  0.63403900  1
  Cl  Cl4  1  0.27296800  0.42307000  0.83867900  1
  Cl  Cl5  1  0.90982400  0.09017600  0.75000000  1
  Cl  Cl6  1  0.04948800  0.63698600  0.54622700  1
  Cl  Cl7  1  0.63698600  0.04948800  0.04622700  1
  Cl  Cl8  1  0.57693000  0.72703200  0.66132100  1
  Cl  Cl9  1  0.95051200  0.36301400  0.45377300  1
  Cl  Cl10  1  0.09017600  0.90982400  0.25000000  1
  Cl  Cl11  1  0.72703200  0.57693000  0.16132100  1
  Cl  Cl12  1  0.42307000  0.27296800  0.33867900  1
  Cl  Cl13  1  0.93829800  0.36601800  0.86596100  1
  O  O0  1  0.39660200  0.59885700  0.37459300  1
  O  O1  1  0.28887500  0.71562600  0.87897400  1
  O  O2  1  0.28437400  0.71112500  0.62102600  1
  O  O3  1  0.71112500  0.28437400  0.12102600  1
  O  O4  1  0.60339800  0.40114300  0.62540700  1
  O  O5  1  0.00000000  0.00000000  0.00000000  1
  O  O6  1  0.71562600  0.28887500  0.37897400  1
  O  O7  1  0.59885700  0.39660200  0.87459300  1
  O  O8  1  0.40114300  0.60339800  0.12540700  1
  O  O9  1  0.00000000  0.00000000  0.50000000  1
loop_
_geom_bond_atom_site_label_1
_geom_bond_atom_site_label_2
_geom_bond_distance
_geom_bond_site_symmetry_2
Nb0 O3 1.811324 1_556
Nb0 O5 1.932355 1_656
Nb0 O7 2.017307 1_555
Nb1 O2 1.811324 1_555
Nb1 O9 1.932355 1_565
Nb1 O0 2.017307 1_555
Nb2 O1 1.811324 1_554
Nb2 O5 1.932355 1_565
Nb2 O8 2.017307 1_555
Nb3 O0 1.868904 1_555
Nb3 O8 1.868904 1_555
Nb3 O6 2.166721 1_555
Nb3 O3 2.166721 1_555
Nb4 O7 1.868904 1_555
Nb4 O4 1.868904 1_555
Nb4 O1 2.166721 1_555
Nb4 O2 2.166721 1_555
Nb5 O6 1.811324 1_555
Nb5 O9 1.932355 1_655
Nb5 O4 2.017307 1_555
Cl0 Nb2 2.448708 1_555
Cl0 K2 3.223125 1_455
Cl0 K3 3.309224 1_555
Cl1 Nb1 2.448708 1_555
Cl1 K3 3.223125 1_565
Cl1 K2 3.309224 1_555
Cl2 Nb2 2.431161 1_556
Cl2 K3 3.362798 1_566
Cl2 K1 3.630846 1_565
Cl2 K0 3.677305 1_555
Cl3 Nb5 2.448708 1_555
Cl3 K0 3.223125 1_545
Cl3 K1 3.309224 1_555
Cl4 Nb4 2.417841 1_555
Cl4 K3 3.386822 1_556
Cl4 K0 3.614429 1_455
Cl5 Nb0 2.731827 1_555
Cl5 Nb5 2.731827 1_555
Cl5 K0 3.412691 1_545
Cl5 K1 3.412691 1_655
Cl6 Nb1 2.431161 1_555
Cl6 K2 3.362798 1_455
Cl6 K0 3.630846 1_455
Cl6 K1 3.677305 1_555
Cl7 Nb0 2.431161 1_554
Cl7 K0 3.362798 1_544
Cl7 K2 3.630846 1_545
Cl7 K3 3.677305 1_555
Cl8 Nb4 2.417841 1_555
Cl8 K2 3.386822 1_555
Cl8 K1 3.614429 1_565
Cl9 Nb5 2.431161 1_555
Cl9 K1 3.362798 1_655
Cl9 K3 3.630846 1_655
Cl9 K2 3.677305 1_555
Cl10 Nb1 2.731827 1_555
Cl10 Nb2 2.731827 1_555
Cl10 K2 3.412691 1_455
Cl10 K3 3.412691 1_565
Cl11 Nb3 2.417841 1_555
Cl11 K0 3.386822 1_554
Cl11 K3 3.614429 1_655
Cl12 Nb3 2.417841 1_555
Cl12 K1 3.386822 1_555
Cl12 K2 3.614429 1_545
Cl13 Nb0 2.448708 1_555
Cl13 K1 3.223125 1_655
Cl13 K0 3.309224 1_555
