# generated using pymatgen
data_Hf(CoSi)2
_symmetry_space_group_name_H-M   'P 1'
_cell_length_a   3.69738570
_cell_length_b   3.69738653
_cell_length_c   5.43976104
_cell_angle_alpha   109.86762132
_cell_angle_beta   109.86762334
_cell_angle_gamma   90.00000941
_symmetry_Int_Tables_number   1
_chemical_formula_structural   Hf(CoSi)2
_chemical_formula_sum   'Hf1 Co2 Si2'
_cell_volume   65.21303648
_cell_formula_units_Z   1
loop_
 _symmetry_equiv_pos_site_id
 _symmetry_equiv_pos_as_xyz
  1  'x, y, z'
loop_
 _atom_site_type_symbol
 _atom_site_label
 _atom_site_symmetry_multiplicity
 _atom_site_fract_x
 _atom_site_fract_y
 _atom_site_fract_z
 _atom_site_occupancy
  Hf  Hf0  1  -0.00000000  -0.00000000  -0.00000000  1
  Co  Co0  1  0.25000000  0.75000000  0.50000000  1
  Co  Co1  1  0.75000000  0.25000000  0.50000000  1
  Si  Si0  1  0.37839091  0.37839091  0.75677983  1
  Si  Si1  1  0.62160909  0.62160909  0.24322017  1
loop_
_geom_bond_atom_site_label_1
_geom_bond_atom_site_label_2
_geom_bond_distance
_geom_bond_site_symmetry_2
Hf0 Si1 2.860322 1_555
Hf0 Si0 2.860322 1_444
Hf0 Si0 2.860327 1_454
Hf0 Si1 2.860327 1_545
Hf0 Si0 2.860327 1_544
Hf0 Si1 2.860327 1_455
Hf0 Si0 2.860331 1_554
Hf0 Si1 2.860331 1_445
Co0 Si1 2.217672 1_555
Co0 Si0 2.217672 1_555
Co0 Si1 2.217678 1_455
Co0 Si0 2.217678 1_565
Co0 Co1 2.614447 1_565
Co0 Co1 2.614447 1_455
Co0 Co1 2.614447 1_465
Co0 Co1 2.614447 1_555
Co0 Hf0 3.017711 1_666
Co0 Hf0 3.017712 1_566
Co0 Hf0 3.017712 1_565
Co0 Hf0 3.017712 1_555
Co1 Si0 2.217672 1_555
Co1 Si1 2.217672 1_555
Co1 Si0 2.217678 1_655
Co1 Si1 2.217678 1_545
Co1 Hf0 3.017711 1_555
Co1 Hf0 3.017712 1_655
Co1 Hf0 3.017712 1_656
Co1 Hf0 3.017712 1_666
Si0 Si1 2.320462 1_556
