# generated using pymatgen
data_Rb2Hg(BSe)9
_symmetry_space_group_name_H-M   'P 1'
_cell_length_a   9.97428800
_cell_length_b   10.75113989
_cell_length_c   11.31842487
_cell_angle_alpha   100.14275037
_cell_angle_beta   90.63083494
_cell_angle_gamma   116.28969038
_symmetry_Int_Tables_number   1
_chemical_formula_structural   Rb2Hg(BSe)9
_chemical_formula_sum   'Rb4 Hg2 B18 Se18'
_cell_volume   1065.72242533
_cell_formula_units_Z   2
loop_
 _symmetry_equiv_pos_site_id
 _symmetry_equiv_pos_as_xyz
  1  'x, y, z'
loop_
 _atom_site_type_symbol
 _atom_site_label
 _atom_site_symmetry_multiplicity
 _atom_site_fract_x
 _atom_site_fract_y
 _atom_site_fract_z
 _atom_site_occupancy
  Rb  Rb0  1  0.79154200  0.17435500  0.00159000  1
  Rb  Rb1  1  0.20845800  0.82564500  0.99841000  1
  Rb  Rb2  1  0.17550500  0.34415500  0.50424200  1
  Rb  Rb3  1  0.82449500  0.65584500  0.49575800  1
  Hg  Hg0  1  0.32526000  0.31849300  0.07470000  1
  Hg  Hg1  1  0.67474000  0.68150700  0.92530000  1
  B  B0  1  0.51570800  0.16328700  0.55178000  1
  B  B1  1  0.48429200  0.83671300  0.44822000  1
  B  B2  1  0.66211100  0.12001300  0.58638900  1
  B  B3  1  0.33788900  0.87998700  0.41361100  1
  B  B4  1  0.48606500  0.04211100  0.64795100  1
  B  B5  1  0.51393500  0.95788900  0.35204900  1
  B  B6  1  0.33907000  0.00827300  0.53858000  1
  B  B7  1  0.66093000  0.99172700  0.46142000  1
  B  B8  1  0.42354100  0.06404400  0.40634100  1
  B  B9  1  0.57645900  0.93595600  0.59365900  1
  B  B10  1  0.62121800  0.13202700  0.43614900  1
  B  B11  1  0.37878200  0.86797300  0.56385100  1
  B  B12  1  0.75115900  0.41486000  0.71399600  1
  B  B13  1  0.24884100  0.58514000  0.28600400  1
  B  B14  1  0.25138200  0.08682100  0.77954900  1
  B  B15  1  0.74861800  0.91317900  0.22045100  1
  B  B16  1  0.56996400  0.28442300  0.26069600  1
  B  B17  1  0.43003600  0.71557700  0.73930400  1
  Se  Se0  1  0.55639200  0.36240500  0.62681900  1
  Se  Se1  1  0.44360800  0.63759500  0.37318100  1
  Se  Se2  1  0.83889300  0.27976700  0.69424900  1
  Se  Se3  1  0.16110700  0.72023300  0.30575100  1
  Se  Se4  1  0.44734900  0.09469600  0.81932800  1
  Se  Se5  1  0.55265100  0.90530400  0.18067200  1
  Se  Se6  1  0.16335000  0.02854700  0.60955400  1
  Se  Se7  1  0.83665000  0.97145300  0.39044600  1
  Se  Se8  1  0.36324900  0.15704400  0.29012900  1
  Se  Se9  1  0.63675100  0.84295600  0.70987100  1
  Se  Se10  1  0.74395600  0.28722700  0.34792700  1
  Se  Se11  1  0.25604400  0.71277300  0.65207300  1
  Se  Se12  1  0.86891400  0.60125000  0.81392400  1
  Se  Se13  1  0.13108600  0.39875000  0.18607600  1
  Se  Se14  1  0.12991000  0.12180100  0.90096000  1
  Se  Se15  1  0.87009000  0.87819900  0.09904000  1
  Se  Se16  1  0.60796500  0.40678200  0.14453200  1
  Se  Se17  1  0.39203500  0.59321800  0.85546800  1
loop_
_geom_bond_atom_site_label_1
_geom_bond_atom_site_label_2
_geom_bond_distance
_geom_bond_site_symmetry_2
Rb0 Se13 3.533073 1_655
Rb0 Se4 3.659573 1_554
Rb0 Se5 3.770821 1_545
Rb0 Se14 3.814992 1_654
Rb0 Se2 3.815591 1_554
Rb0 Se16 3.861214 1_555
Rb0 Se15 3.923763 1_545
Rb0 Se10 3.992488 1_555
Rb0 Se9 4.105070 1_544
Rb1 Se12 3.533073 1_455
Rb1 Se5 3.659573 1_556
Rb1 Se4 3.770821 1_565
Rb1 Se15 3.814992 1_456
Rb1 Se3 3.815591 1_556
Rb1 Se17 3.861214 1_555
Rb1 Se14 3.923763 1_565
Rb1 Se11 3.992488 1_555
Rb1 Se8 4.105070 1_566
Rb2 Se1 3.683317 1_555
Rb2 Se11 3.737067 1_555
Rb2 Se6 3.743285 1_555
Rb2 Se13 3.801143 1_555
Rb2 Se2 3.873149 1_455
Rb2 Se8 3.891819 1_555
Rb2 Se7 3.902295 1_445
Rb2 Se0 3.940059 1_555
Rb3 Se0 3.683317 1_555
Rb3 Se10 3.737067 1_555
Rb3 Se7 3.743285 1_555
Rb3 Se12 3.801143 1_555
Rb3 Se3 3.873149 1_655
Rb3 Se9 3.891819 1_555
Rb3 Se6 3.902295 1_665
Rb3 Se1 3.940059 1_555
Hg0 Se16 2.606264 1_555
Hg0 Se14 2.633716 1_554
Hg0 Se13 2.689909 1_555
Hg1 Se17 2.606264 1_555
Hg1 Se15 2.633716 1_556
Hg1 Se12 2.689909 1_555
B0 B10 1.766929 1_555
B0 B4 1.770544 1_555
B0 B2 1.776422 1_555
B0 B8 1.781158 1_555
B0 B6 1.791481 1_555
B0 Se0 2.012794 1_555
B1 B11 1.766929 1_555
B1 B5 1.770544 1_555
B1 B3 1.776422 1_555
B1 B9 1.781158 1_555
B1 B7 1.791481 1_555
B1 Se1 2.012794 1_555
B2 B4 1.788860 1_555
B2 B7 1.789194 1_545
B2 B9 1.792693 1_545
B2 Se2 2.020112 1_555
B3 B5 1.788860 1_555
B3 B6 1.789194 1_565
B3 B8 1.792693 1_565
B3 Se3 2.020112 1_555
B4 B6 1.772951 1_555
B4 B9 1.780382 1_545
B4 Se4 2.013678 1_555
B5 B7 1.772951 1_555
B5 B8 1.780382 1_565
B5 Se5 2.013678 1_555
B6 B8 1.790520 1_555
B6 Se6 2.018034 1_555
B7 B9 1.790520 1_555
B7 Se7 2.018034 1_555
B8 Se8 2.017394 1_555
B9 Se9 2.017394 1_555
B10 B5 1.769600 1_545
B10 B8 1.776945 1_555
B10 B2 1.784218 1_555
B10 B7 1.786796 1_545
B10 Se10 2.020941 1_555
B11 B4 1.769600 1_565
B11 B9 1.776945 1_555
B11 B3 1.784218 1_555
B11 B6 1.786796 1_565
B11 Se11 2.020941 1_555
B12 Se12 1.939577 1_555
B12 Se0 1.963899 1_555
B12 Se2 1.985204 1_555
B13 Se13 1.939577 1_555
B13 Se1 1.963899 1_555
B13 Se3 1.985204 1_555
B14 Se14 1.938051 1_555
B14 Se4 1.962413 1_555
B14 Se6 1.979015 1_555
B15 Se15 1.938051 1_555
B15 Se5 1.962413 1_555
B15 Se7 1.979015 1_555
B16 Se16 1.944568 1_555
B16 Se10 1.973049 1_555
B16 Se8 1.977922 1_555
B17 Se17 1.944568 1_555
B17 Se11 1.973049 1_555
B17 Se9 1.977922 1_555
