# generated using pymatgen
data_Na17Al5O16
_symmetry_space_group_name_H-M   'P 1'
_cell_length_a   16.64815031
_cell_length_b   16.64815031
_cell_length_c   5.93814288
_cell_angle_alpha   84.94579794
_cell_angle_beta   84.94579794
_cell_angle_gamma   159.49230367
_symmetry_Int_Tables_number   1
_chemical_formula_structural   Na17Al5O16
_chemical_formula_sum   'Na17 Al5 O16'
_cell_volume   501.02205746
_cell_formula_units_Z   1
loop_
 _symmetry_equiv_pos_site_id
 _symmetry_equiv_pos_as_xyz
  1  'x, y, z'
loop_
 _atom_site_type_symbol
 _atom_site_label
 _atom_site_symmetry_multiplicity
 _atom_site_fract_x
 _atom_site_fract_y
 _atom_site_fract_z
 _atom_site_occupancy
  Na  Na0  1  0.32913105  0.78818357  0.05165384  1
  Na  Na1  1  0.08682950  0.90984618  0.19261485  1
  Na  Na2  1  0.78818357  0.32913105  0.05165384  1
  Na  Na3  1  0.39630114  0.67180787  0.05447466  1
  Na  Na4  1  0.50653187  0.41489445  0.61236890  1
  Na  Na5  1  0.90984618  0.08682950  0.19261485  1
  Na  Na6  1  0.82643881  0.17893631  0.46454879  1
  Na  Na7  1  0.32338155  0.59771266  0.58640292  1
  Na  Na8  1  0.59771266  0.32338155  0.58640292  1
  Na  Na9  1  0.57979404  0.48754904  0.07667720  1
  Na  Na10  1  0.17893631  0.82643881  0.46454879  1
  Na  Na11  1  0.67062431  0.22153623  0.62562949  1
  Na  Na12  1  0.67180787  0.39630114  0.05447466  1
  Na  Na13  1  0.48754904  0.57979404  0.07667720  1
  Na  Na14  1  0.41489445  0.50653187  0.61236890  1
  Na  Na15  1  0.22153623  0.67062431  0.62562949  1
  Na  Na16  1  0.99823002  0.99823002  0.48869945  1
  Al  Al0  1  0.81683049  0.17751545  0.99241064  1
  Al  Al1  1  0.17751545  0.81683049  0.99241064  1
  Al  Al2  1  0.90648911  0.08687710  0.67431324  1
  Al  Al3  1  0.08687710  0.90648911  0.67431324  1
  Al  Al4  1  0.99676014  0.99676014  0.00517906  1
  O  O0  1  0.28313884  0.28313884  0.02002895  1
  O  O1  1  0.78834582  0.22132607  0.76911635  1
  O  O2  1  0.12729274  0.86780820  0.87628619  1
  O  O3  1  0.95323246  0.03992525  0.82629821  1
  O  O4  1  0.37497177  0.18889424  0.37508950  1
  O  O5  1  0.03992525  0.95323246  0.82629821  1
  O  O6  1  0.71119060  0.71119060  0.30425732  1
  O  O7  1  0.89544987  0.52378453  0.29071199  1
  O  O8  1  0.09481916  0.46578965  0.01540625  1
  O  O9  1  0.52378453  0.89544987  0.29071199  1
  O  O10  1  0.18889424  0.37497177  0.37508950  1
  O  O11  1  0.61828214  0.80454480  0.65791608  1
  O  O12  1  0.22132607  0.78834582  0.76911635  1
  O  O13  1  0.80454480  0.61828214  0.65791608  1
  O  O14  1  0.86780820  0.12729274  0.87628619  1
  O  O15  1  0.46578965  0.09481916  0.01540625  1
loop_
_geom_bond_atom_site_label_1
_geom_bond_atom_site_label_2
_geom_bond_distance
_geom_bond_site_symmetry_2
Na0 O8 2.280770 1_555
Na0 O1 2.366252 1_564
Na0 O9 2.474352 1_555
Na0 O12 2.564141 1_554
Na1 O2 2.315990 1_554
Na1 O4 2.413393 1_565
Na1 O13 2.428690 1_455
Na1 O5 2.634796 1_554
Na2 O15 2.280770 1_555
Na2 O12 2.366252 1_654
Na2 O7 2.474352 1_555
Na2 O1 2.564141 1_554
Na3 O8 2.259867 1_555
Na3 O10 2.277734 1_555
Na3 O14 2.420380 1_564
Na3 O11 2.517445 1_554
Na3 O9 2.641415 1_555
Na4 O13 2.254315 1_555
Na4 O6 2.261995 1_555
Na4 O5 2.393538 1_545
Na4 O0 2.588352 1_556
Na4 O4 2.641891 1_555
Na5 O14 2.315990 1_554
Na5 O10 2.413393 1_655
Na5 O11 2.428690 1_545
Na5 O3 2.634796 1_554
Na6 O1 2.243275 1_555
Na6 O8 2.359775 1_655
Na6 O9 2.440562 1_545
Na6 O14 2.868257 1_555
Na7 O11 2.257820 1_555
Na7 O9 2.288946 1_555
Na7 O14 2.424310 1_455
Na7 O10 2.469919 1_555
Na7 O8 2.728298 1_556
Na8 O13 2.257820 1_555
Na8 O7 2.288946 1_555
Na8 O2 2.424310 1_545
Na8 O4 2.469919 1_555
Na8 O15 2.728298 1_556
Na9 O0 2.257485 1_555
Na9 O4 2.261023 1_555
Na9 O5 2.389326 1_654
Na9 O6 2.573797 1_555
Na9 O13 2.659442 1_554
Na10 O12 2.243275 1_555
Na10 O15 2.359775 1_565
Na10 O7 2.440562 1_455
Na10 O2 2.868257 1_555
Na11 O1 2.207608 1_555
Na11 O7 2.220139 1_555
Na11 O12 2.330167 1_545
Na11 O15 2.389412 1_556
Na12 O15 2.259867 1_555
Na12 O4 2.277734 1_555
Na12 O2 2.420380 1_654
Na12 O13 2.517445 1_554
Na12 O7 2.641415 1_555
Na13 O0 2.257485 1_555
Na13 O10 2.261023 1_555
Na13 O3 2.389326 1_564
Na13 O6 2.573797 1_555
Na13 O11 2.659442 1_554
Na14 O11 2.254315 1_555
Na14 O6 2.261995 1_555
Na14 O3 2.393538 1_455
Na14 O0 2.588352 1_556
Na14 O10 2.641891 1_555
Na15 O12 2.207608 1_555
Na15 O9 2.220139 1_555
Na15 O1 2.330167 1_455
Na15 O8 2.389412 1_556
Na16 O6 2.436871 1_555
Na16 O0 2.438264 1_665
Na16 O3 2.452870 1_565
Na16 O5 2.452870 1_655
Al0 O9 1.756881 1_546
Al0 O8 1.757840 1_656
Al0 O1 1.761623 1_555
Al0 O14 1.795155 1_555
Al1 O7 1.756881 1_456
Al1 O15 1.757840 1_566
Al1 O12 1.761623 1_555
Al1 O2 1.795155 1_555
Al2 O11 1.743714 1_545
Al2 O10 1.746652 1_655
Al2 O14 1.767372 1_555
Al2 O3 1.780452 1_555
Al3 O13 1.743714 1_455
Al3 O4 1.746652 1_565
Al3 O2 1.767372 1_555
Al3 O5 1.780452 1_555
Al4 O0 1.742711 1_665
Al4 O6 1.744580 1_555
Al4 O5 1.773831 1_654
Al4 O3 1.773831 1_564
