# generated using pymatgen
data_Li6Zr2O7
_symmetry_space_group_name_H-M   'P 1'
_cell_length_a   5.99883608
_cell_length_b   5.99883608
_cell_length_c   10.17952628
_cell_angle_alpha   81.23541756
_cell_angle_beta   81.23541756
_cell_angle_gamma   59.69282908
_symmetry_Int_Tables_number   1
_chemical_formula_structural   Li6Zr2O7
_chemical_formula_sum   'Li12 Zr4 O14'
_cell_volume   311.33817997
_cell_formula_units_Z   2
loop_
 _symmetry_equiv_pos_site_id
 _symmetry_equiv_pos_as_xyz
  1  'x, y, z'
loop_
 _atom_site_type_symbol
 _atom_site_label
 _atom_site_symmetry_multiplicity
 _atom_site_fract_x
 _atom_site_fract_y
 _atom_site_fract_z
 _atom_site_occupancy
  Li  Li0  1  0.29662631  0.58410180  0.58495350  1
  Li  Li1  1  0.41589820  0.70337369  0.91504650  1
  Li  Li2  1  0.70337369  0.41589820  0.41504650  1
  Li  Li3  1  0.96638085  0.16798840  0.89809979  1
  Li  Li4  1  0.57925507  0.83476024  0.10456315  1
  Li  Li5  1  0.16523976  0.42074493  0.39543685  1
  Li  Li6  1  0.42074493  0.16523976  0.89543685  1
  Li  Li7  1  0.83476024  0.57925507  0.60456315  1
  Li  Li8  1  0.16798840  0.96638085  0.39809979  1
  Li  Li9  1  0.03361915  0.83201160  0.10190021  1
  Li  Li10  1  0.83201160  0.03361915  0.60190021  1
  Li  Li11  1  0.58410180  0.29662631  0.08495350  1
  Zr  Zr0  1  0.93706220  0.69632325  0.86483898  1
  Zr  Zr1  1  0.30367675  0.06293780  0.63516102  1
  Zr  Zr2  1  0.06293780  0.30367675  0.13516102  1
  Zr  Zr3  1  0.69632325  0.93706220  0.36483898  1
  O  O0  1  0.35913734  0.13189451  0.25762915  1
  O  O1  1  0.86810549  0.64086266  0.24237085  1
  O  O2  1  0.64086266  0.86810549  0.74237085  1
  O  O3  1  0.13189451  0.35913734  0.75762915  1
  O  O4  1  0.84363148  0.15636852  0.25000000  1
  O  O5  1  0.15636852  0.84363148  0.75000000  1
  O  O6  1  0.49857826  0.23708737  0.50240483  1
  O  O7  1  0.76291263  0.50142174  0.99759517  1
  O  O8  1  0.50142174  0.76291263  0.49759517  1
  O  O9  1  0.23708737  0.49857826  0.00240483  1
  O  O10  1  0.24482455  0.99795468  0.02078755  1
  O  O11  1  0.00204532  0.75517545  0.47921245  1
  O  O12  1  0.75517545  0.00204532  0.97921245  1
  O  O13  1  0.99795468  0.24482455  0.52078755  1
loop_
_geom_bond_atom_site_label_1
_geom_bond_atom_site_label_2
_geom_bond_distance
_geom_bond_site_symmetry_2
Li0 O11 1.935794 1_555
Li0 O8 2.038888 1_555
Li0 O6 2.045665 1_555
Li0 O5 2.235794 1_555
Li0 O3 2.445642 1_555
Li1 O10 1.935794 1_556
Li1 O9 2.038888 1_556
Li1 O7 2.045665 1_555
Li1 O5 2.235794 1_555
Li1 O2 2.445642 1_555
Li2 O13 1.935794 1_555
Li2 O6 2.038888 1_555
Li2 O8 2.045665 1_555
Li2 O4 2.235794 1_555
Li2 O1 2.445642 1_555
Li3 O10 1.979436 1_646
Li3 O12 1.995396 1_555
Li3 O7 2.071966 1_555
Li3 O3 2.135904 1_655
Li3 O5 2.343057 1_645
Li4 O10 1.998801 1_555
Li4 O12 2.004291 1_564
Li4 O7 2.114833 1_554
Li4 O1 2.129004 1_555
Li4 O0 2.278697 1_565
Li5 O11 1.998801 1_555
Li5 O13 2.004291 1_455
Li5 O6 2.114833 1_555
Li5 O0 2.129004 1_555
Li5 O1 2.278697 1_455
Li6 O12 1.998801 1_555
Li6 O10 2.004291 1_546
Li6 O9 2.114833 1_556
Li6 O3 2.129004 1_555
Li6 O2 2.278697 1_545
Li7 O13 1.998801 1_555
Li7 O11 2.004291 1_655
Li7 O8 2.114833 1_555
Li7 O2 2.129004 1_555
Li7 O3 2.278697 1_655
Li8 O13 1.979436 1_465
Li8 O11 1.995396 1_555
Li8 O8 2.071966 1_555
Li8 O0 2.135904 1_565
Li8 O4 2.343057 1_465
Li9 O12 1.979436 1_464
Li9 O10 1.995396 1_555
Li9 O9 2.071966 1_555
Li9 O1 2.135904 1_455
Li9 O4 2.343057 1_465
Li10 O11 1.979436 1_645
Li10 O13 1.995396 1_555
Li10 O6 2.071966 1_555
Li10 O2 2.135904 1_545
Li10 O5 2.343057 1_645
Li11 O12 1.935794 1_554
Li11 O7 2.038888 1_554
Li11 O9 2.045665 1_555
Li11 O4 2.235794 1_555
Li11 O0 2.445642 1_555
O0 Zr2 2.051548 1_555
O0 Zr3 2.132244 1_545
O1 Zr3 2.051548 1_555
O1 Zr2 2.132244 1_655
O2 Zr0 2.051548 1_555
O2 Zr1 2.132244 1_565
O3 Zr1 2.051548 1_555
O3 Zr0 2.132244 1_455
O4 Zr2 2.065927 1_655
O4 Zr3 2.065927 1_545
O5 Zr1 2.065927 1_565
O5 Zr0 2.065927 1_455
O6 Zr1 2.146077 1_555
O6 Zr3 2.171289 1_545
O7 Zr0 2.146077 1_555
O7 Zr2 2.171289 1_656
O8 Zr3 2.146077 1_555
O8 Zr1 2.171289 1_565
O9 Zr2 2.146077 1_555
O9 Zr0 2.171289 1_454
O10 Zr2 2.038005 1_565
O11 Zr3 2.038005 1_455
O12 Zr0 2.038005 1_545
O13 Zr1 2.038005 1_655
