# generated using pymatgen
data_Cs2KMnF6
_symmetry_space_group_name_H-M   'P 1'
_cell_length_a   6.57355184
_cell_length_b   6.57355184
_cell_length_c   6.57355184
_cell_angle_alpha   121.51856156
_cell_angle_beta   121.51856156
_cell_angle_gamma   87.38930157
_symmetry_Int_Tables_number   1
_chemical_formula_structural   Cs2KMnF6
_chemical_formula_sum   'Cs2 K1 Mn1 F6'
_cell_volume   196.02478412
_cell_formula_units_Z   1
loop_
 _symmetry_equiv_pos_site_id
 _symmetry_equiv_pos_as_xyz
  1  'x, y, z'
loop_
 _atom_site_type_symbol
 _atom_site_label
 _atom_site_symmetry_multiplicity
 _atom_site_fract_x
 _atom_site_fract_y
 _atom_site_fract_z
 _atom_site_occupancy
  Cs  Cs0  1  0.75000000  0.25000000  0.50000000  1
  Cs  Cs1  1  0.25000000  0.75000000  0.50000000  1
  K  K0  1  0.50000000  0.50000000  0.00000000  1
  Mn  Mn0  1  0.00000000  0.00000000  0.00000000  1
  F  F0  1  0.77449200  0.77449200  0.00000000  1
  F  F1  1  0.22550800  0.22550800  0.00000000  1
  F  F2  1  0.78962900  0.78962900  0.57925800  1
  F  F3  1  0.78962900  0.21037100  0.00000000  1
  F  F4  1  0.21037100  0.21037100  0.42074200  1
  F  F5  1  0.21037100  0.78962900  0.00000000  1
loop_
_geom_bond_atom_site_label_1
_geom_bond_atom_site_label_2
_geom_bond_distance
_geom_bond_site_symmetry_2
Cs0 F1 3.219477 1_656
Cs0 F0 3.219477 1_556
Cs0 F1 3.219477 1_555
Cs0 F0 3.219477 1_545
Cs0 F2 3.306424 1_545
Cs0 F2 3.306424 1_555
Cs0 F5 3.306424 1_545
Cs0 F3 3.306424 1_555
Cs0 F3 3.306424 1_556
Cs0 F5 3.306424 1_656
Cs0 F4 3.306424 1_655
Cs0 F4 3.306424 1_555
Cs1 F0 3.219477 1_455
Cs1 F0 3.219477 1_556
Cs1 F1 3.219477 1_555
Cs1 F1 3.219477 1_566
Cs1 F4 3.306424 1_555
Cs1 F2 3.306424 1_455
Cs1 F5 3.306424 1_555
Cs1 F2 3.306424 1_555
Cs1 F5 3.306424 1_556
Cs1 F3 3.306424 1_455
Cs1 F3 3.306424 1_566
Cs1 F4 3.306424 1_565
F0 Mn0 2.143628 1_665
F0 K0 2.609258 1_555
F1 Mn0 2.143628 1_555
F1 K0 2.609258 1_555
F2 Mn0 1.910635 1_666
F2 K0 2.630473 1_555
F3 Mn0 1.910635 1_655
F3 K0 2.630473 1_555
F4 Mn0 1.910635 1_555
F4 K0 2.630473 1_556
F5 Mn0 1.910635 1_565
F5 K0 2.630473 1_555
