# generated using pymatgen
data_AlPO4
_symmetry_space_group_name_H-M   'P 1'
_cell_length_a   18.73562100
_cell_length_b   18.73562100
_cell_length_c   8.52825296
_cell_angle_alpha   89.98642542
_cell_angle_beta   89.98642542
_cell_angle_gamma   119.96648243
_symmetry_Int_Tables_number   1
_chemical_formula_structural   AlPO4
_chemical_formula_sum   'Al18 P18 O72'
_cell_volume   2593.42338986
_cell_formula_units_Z   18
loop_
 _symmetry_equiv_pos_site_id
 _symmetry_equiv_pos_as_xyz
  1  'x, y, z'
loop_
 _atom_site_type_symbol
 _atom_site_label
 _atom_site_symmetry_multiplicity
 _atom_site_fract_x
 _atom_site_fract_y
 _atom_site_fract_z
 _atom_site_occupancy
  Al  Al0  1  0.31663000  0.49336800  0.26258700  1
  Al  Al1  1  0.57411600  0.99088000  0.76189800  1
  Al  Al2  1  0.66218200  0.16667600  0.26351400  1
  Al  Al3  1  0.49336800  0.31663000  0.26258700  1
  Al  Al4  1  0.41656200  0.98980500  0.26112200  1
  Al  Al5  1  0.56442200  0.56442200  0.26445900  1
  Al  Al6  1  0.15556400  0.49263000  0.76454000  1
  Al  Al7  1  0.48508300  0.81381300  0.26446900  1
  Al  Al8  1  0.16667600  0.66218200  0.26351400  1
  Al  Al9  1  0.40471300  0.40471300  0.76268600  1
  Al  Al10  1  0.48180400  0.65062700  0.76410500  1
  Al  Al11  1  0.81381300  0.48508300  0.26446900  1
  Al  Al12  1  0.99088000  0.57411600  0.76189800  1
  Al  Al13  1  0.98980500  0.41656200  0.26112200  1
  Al  Al14  1  0.32709500  0.82034000  0.76427500  1
  Al  Al15  1  0.65062700  0.48180400  0.76410500  1
  Al  Al16  1  0.49263000  0.15556400  0.76454000  1
  Al  Al17  1  0.82034000  0.32709500  0.76427500  1
  P  P0  1  0.15851200  0.49449800  0.38937500  1
  P  P1  1  0.31398900  0.49179700  0.89065800  1
  P  P2  1  0.32559500  0.82110100  0.38852900  1
  P  P3  1  0.98804300  0.41301500  0.88654000  1
  P  P4  1  0.66226600  0.16759800  0.89089400  1
  P  P5  1  0.40310000  0.40310000  0.38917200  1
  P  P6  1  0.57699100  0.99094500  0.39000000  1
  P  P7  1  0.99094500  0.57699100  0.39000000  1
  P  P8  1  0.48202600  0.65257200  0.38867600  1
  P  P9  1  0.82110100  0.32559500  0.38852900  1
  P  P10  1  0.56623200  0.56623200  0.88508600  1
  P  P11  1  0.49179700  0.31398900  0.89065800  1
  P  P12  1  0.16759800  0.66226600  0.89089400  1
  P  P13  1  0.49449800  0.15851200  0.38937500  1
  P  P14  1  0.48684800  0.81271500  0.89009500  1
  P  P15  1  0.41301500  0.98804300  0.88654000  1
  P  P16  1  0.81271500  0.48684800  0.89009500  1
  P  P17  1  0.65257200  0.48202600  0.38867600  1
  O  O0  1  0.38857000  0.80498600  0.30189000  1
  O  O1  1  0.48843800  0.29155500  0.06447800  1
  O  O2  1  0.58987600  0.40423800  0.29886500  1
  O  O3  1  0.47141200  0.62943100  0.56325500  1
  O  O4  1  0.62943100  0.47141200  0.56325500  1
  O  O5  1  0.08021100  0.64755300  0.85855400  1
  O  O6  1  0.60014200  0.99589200  0.56402500  1
  O  O7  1  0.49125600  0.79685800  0.06519500  1
  O  O8  1  0.17374400  0.58556900  0.84953700  1
  O  O9  1  0.79685800  0.49125600  0.06519500  1
  O  O10  1  0.49438400  0.73929400  0.37049000  1
  O  O11  1  0.34746500  0.83426500  0.56346300  1
  O  O12  1  0.90919100  0.33104400  0.84829800  1
  O  O13  1  0.49568900  0.13965000  0.56391500  1
  O  O14  1  0.48002300  0.98914700  0.77959800  1
  O  O15  1  0.42024700  0.32965100  0.85291600  1
  O  O16  1  0.68312800  0.18868600  0.06459100  1
  O  O17  1  0.17632900  0.57639800  0.31309200  1
  O  O18  1  0.38294900  0.38294900  0.56375400  1
  O  O19  1  0.55833000  0.89906700  0.84710800  1
  O  O20  1  0.99589200  0.60014200  0.56402500  1
  O  O21  1  0.64755300  0.08021100  0.85855400  1
  O  O22  1  0.08359700  0.42152900  0.30822100  1
  O  O23  1  0.89906700  0.55833000  0.84710800  1
  O  O24  1  0.39048700  0.57595800  0.85505900  1
  O  O25  1  0.06676300  0.40895100  0.85143100  1
  O  O26  1  0.73929400  0.49438400  0.37049000  1
  O  O27  1  0.43560400  0.98716300  0.06032900  1
  O  O28  1  0.48474400  0.48474400  0.37230200  1
  O  O29  1  0.91132600  0.56753300  0.31798700  1
  O  O30  1  0.32764800  0.89851200  0.31884900  1
  O  O31  1  0.23354000  0.48310800  0.37231600  1
  O  O32  1  0.57595800  0.39048700  0.85505900  1
  O  O33  1  0.06684000  0.64489500  0.30362800  1
  O  O34  1  0.57639800  0.17632900  0.31309200  1
  O  O35  1  0.33376200  0.41153600  0.31023900  1
  O  O36  1  0.64489500  0.06684000  0.30362800  1
  O  O37  1  0.40423800  0.58987600  0.29886500  1
  O  O38  1  0.54864400  0.54864400  0.06175100  1
  O  O39  1  0.23848500  0.74760300  0.36930800  1
  O  O40  1  0.83426500  0.34746500  0.56346300  1
  O  O41  1  0.73540500  0.22924000  0.79128600  1
  O  O42  1  0.49733100  0.49733100  0.78654900  1
  O  O43  1  0.98914700  0.48002300  0.77959800  1
  O  O44  1  0.42152900  0.08359700  0.30822100  1
  O  O45  1  0.22924000  0.73540500  0.79128600  1
  O  O46  1  0.41153600  0.33376200  0.31023900  1
  O  O47  1  0.56753300  0.91132600  0.31798700  1
  O  O48  1  0.80460500  0.40260500  0.85361800  1
  O  O49  1  0.24108600  0.48069400  0.79101200  1
  O  O50  1  0.13965000  0.49568900  0.56391500  1
  O  O51  1  0.58556900  0.17374400  0.84953700  1
  O  O52  1  0.32965100  0.42024700  0.85291600  1
  O  O53  1  0.99018200  0.49479600  0.37461200  1
  O  O54  1  0.40895100  0.06676300  0.85143100  1
  O  O55  1  0.18868600  0.68312800  0.06459100  1
  O  O56  1  0.65177400  0.55860700  0.32178200  1
  O  O57  1  0.56820900  0.64724700  0.84231600  1
  O  O58  1  0.49479600  0.99018200  0.37461200  1
  O  O59  1  0.89851200  0.32764800  0.31884900  1
  O  O60  1  0.40260500  0.80460500  0.85361800  1
  O  O61  1  0.74760300  0.23848500  0.36930800  1
  O  O62  1  0.49684400  0.74901800  0.79453200  1
  O  O63  1  0.48310800  0.23354000  0.37231600  1
  O  O64  1  0.80498600  0.38857000  0.30189000  1
  O  O65  1  0.55860700  0.65177400  0.32178200  1
  O  O66  1  0.33104400  0.90919100  0.84829800  1
  O  O67  1  0.29155500  0.48843800  0.06447800  1
  O  O68  1  0.48069400  0.24108600  0.79101200  1
  O  O69  1  0.98716300  0.43560400  0.06032900  1
  O  O70  1  0.64724700  0.56820900  0.84231600  1
  O  O71  1  0.74901800  0.49684400  0.79453200  1
loop_
_geom_bond_atom_site_label_1
_geom_bond_atom_site_label_2
_geom_bond_distance
_geom_bond_site_symmetry_2
Al0 O31 1.742525 1_555
Al0 O67 1.743798 1_555
Al0 O37 1.759232 1_555
Al0 O35 1.763571 1_555
Al1 O6 1.745873 1_555
Al1 O19 1.750890 1_555
Al1 O14 1.753372 1_555
Al1 O21 1.753416 1_565
Al2 O61 1.742324 1_555
Al2 O16 1.743485 1_555
Al2 O34 1.756336 1_555
Al2 O36 1.764966 1_555
Al3 O63 1.742525 1_555
Al3 O1 1.743798 1_555
Al3 O2 1.759232 1_555
Al3 O46 1.763571 1_555
Al4 O58 1.753744 1_555
Al4 O27 1.754846 1_555
Al4 O44 1.759239 1_565
Al4 O30 1.759487 1_555
Al5 O28 1.753662 1_555
Al5 O38 1.754001 1_555
Al5 O56 1.762888 1_555
Al5 O65 1.762888 1_555
Al6 O49 1.739676 1_555
Al6 O50 1.742672 1_555
Al6 O8 1.755477 1_555
Al6 O25 1.779949 1_555
Al7 O7 1.743362 1_555
Al7 O10 1.743469 1_555
Al7 O0 1.760641 1_555
Al7 O47 1.764585 1_555
Al8 O39 1.742324 1_555
Al8 O55 1.743485 1_555
Al8 O17 1.756336 1_555
Al8 O33 1.764966 1_555
Al9 O18 1.745093 1_555
Al9 O42 1.748118 1_555
Al9 O52 1.750169 1_555
Al9 O15 1.750169 1_555
Al10 O62 1.739616 1_555
Al10 O3 1.747248 1_555
Al10 O24 1.758897 1_555
Al10 O57 1.781148 1_555
Al11 O9 1.743362 1_555
Al11 O26 1.743469 1_555
Al11 O64 1.760641 1_555
Al11 O29 1.764585 1_555
Al12 O20 1.745873 1_555
Al12 O23 1.750890 1_555
Al12 O43 1.753372 1_555
Al12 O5 1.753416 1_655
Al13 O53 1.753744 1_555
Al13 O69 1.754846 1_555
Al13 O22 1.759239 1_655
Al13 O59 1.759487 1_555
Al14 O45 1.741180 1_555
Al14 O11 1.745464 1_555
Al14 O60 1.756691 1_555
Al14 O66 1.779790 1_555
Al15 O71 1.739616 1_555
Al15 O4 1.747248 1_555
Al15 O32 1.758897 1_555
Al15 O70 1.781148 1_555
Al16 O68 1.739676 1_555
Al16 O13 1.742672 1_555
Al16 O51 1.755477 1_555
Al16 O54 1.779949 1_555
Al17 O41 1.741180 1_555
Al17 O40 1.745464 1_555
Al17 O48 1.756691 1_555
Al17 O12 1.779790 1_555
O0 P2 1.544271 1_555
O1 P11 1.533400 1_554
O2 P17 1.543124 1_555
O3 P8 1.535457 1_555
O4 P17 1.535457 1_555
O5 P12 1.543382 1_555
O6 P6 1.536091 1_555
O7 P14 1.532768 1_554
O8 P12 1.538846 1_555
O9 P16 1.532768 1_554
O10 P8 1.530247 1_555
O11 P2 1.534256 1_555
O12 P3 1.543183 1_555
O13 P13 1.532554 1_555
O14 P15 1.543325 1_555
O15 P11 1.542680 1_555
O16 P4 1.532808 1_554
O17 P0 1.541724 1_555
O18 P5 1.535875 1_555
O19 P14 1.542864 1_555
O20 P7 1.536091 1_555
O21 P4 1.543382 1_555
O22 P0 1.549854 1_555
O23 P16 1.542864 1_555
O24 P1 1.540968 1_555
O25 P3 1.543590 1_455
O26 P17 1.530247 1_555
O27 P15 1.543798 1_554
O28 P5 1.537106 1_555
O29 P7 1.539545 1_555
O30 P2 1.549825 1_555
O31 P0 1.530449 1_555
O32 P11 1.540968 1_555
O33 P7 1.541076 1_455
O34 P13 1.541724 1_555
O35 P5 1.539884 1_555
O36 P6 1.541076 1_545
O37 P8 1.543124 1_555
O38 P10 1.542141 1_554
O39 P2 1.530300 1_555
O40 P9 1.534256 1_555
O41 P4 1.533353 1_555
O42 P10 1.541212 1_555
O43 P3 1.543325 1_555
O44 P13 1.549854 1_555
O45 P12 1.533353 1_555
O46 P5 1.539884 1_555
O47 P6 1.539545 1_555
O48 P16 1.540035 1_555
O49 P1 1.532276 1_555
O50 P0 1.532554 1_555
O51 P4 1.538846 1_555
O52 P1 1.542680 1_555
O53 P7 1.538523 1_555
O54 P15 1.543590 1_545
O55 P12 1.532808 1_554
O56 P17 1.550921 1_555
O57 P10 1.543341 1_555
O58 P6 1.538523 1_555
O59 P9 1.549825 1_555
O60 P14 1.540035 1_555
O61 P9 1.530300 1_555
O62 P14 1.532041 1_555
O63 P13 1.530449 1_555
O64 P9 1.544271 1_555
O65 P8 1.550921 1_555
O66 P15 1.543183 1_555
O67 P1 1.533400 1_554
O68 P11 1.532276 1_555
O69 P3 1.543798 1_554
O70 P10 1.543341 1_555
O71 P16 1.532041 1_555
