# generated using pymatgen
data_Ho4CdRh
_symmetry_space_group_name_H-M   'P 1'
_cell_length_a   9.52444218
_cell_length_b   9.52433760
_cell_length_c   9.52438948
_cell_angle_alpha   59.99983774
_cell_angle_beta   60.00011086
_cell_angle_gamma   59.99972732
_symmetry_Int_Tables_number   1
_chemical_formula_structural   Ho4CdRh
_chemical_formula_sum   'Ho16 Cd4 Rh4'
_cell_volume   610.93557583
_cell_formula_units_Z   4
loop_
 _symmetry_equiv_pos_site_id
 _symmetry_equiv_pos_as_xyz
  1  'x, y, z'
loop_
 _atom_site_type_symbol
 _atom_site_label
 _atom_site_symmetry_multiplicity
 _atom_site_fract_x
 _atom_site_fract_y
 _atom_site_fract_z
 _atom_site_occupancy
  Ho  Ho0  1  0.93661823  0.93661546  0.56338341  1
  Ho  Ho1  1  0.56338457  0.56338205  0.93661707  1
  Ho  Ho2  1  0.68949995  0.68949797  0.31050184  1
  Ho  Ho3  1  0.15076538  0.54770194  0.15076577  1
  Ho  Ho4  1  0.68949969  0.31050012  0.68949913  1
  Ho  Ho5  1  0.15076550  0.15076493  0.15076534  1
  Ho  Ho6  1  0.54770147  0.15076567  0.15076576  1
  Ho  Ho7  1  0.68949990  0.31050020  0.31050140  1
  Ho  Ho8  1  0.15076579  0.15076556  0.54770193  1
  Ho  Ho9  1  0.31050164  0.68949830  0.31050104  1
  Ho  Ho10  1  0.31050204  0.68949812  0.68949903  1
  Ho  Ho11  1  0.93661823  0.56338198  0.56338366  1
  Ho  Ho12  1  0.93661911  0.56338163  0.93661727  1
  Ho  Ho13  1  0.56338473  0.93661449  0.56338515  1
  Ho  Ho14  1  0.56338517  0.93661441  0.93661737  1
  Ho  Ho15  1  0.31050203  0.31049987  0.68949925  1
  Cd  Cd0  1  0.91935302  0.91937482  0.24189481  1
  Cd  Cd1  1  0.24190325  0.91937986  0.91935884  1
  Cd  Cd2  1  0.91935379  0.91937445  0.91937706  1
  Cd  Cd3  1  0.91937428  0.24189142  0.91936214  1
  Rh  Rh0  1  0.35769853  0.35769692  0.92690567  1
  Rh  Rh1  1  0.35769831  0.92690599  0.35769791  1
  Rh  Rh2  1  0.92690638  0.35769618  0.35769884  1
  Rh  Rh3  1  0.35769803  0.35769667  0.35769831  1
loop_
_geom_bond_atom_site_label_1
_geom_bond_atom_site_label_2
_geom_bond_distance
_geom_bond_site_symmetry_2
Ho0 Rh2 3.447327 1_565
Ho0 Rh1 3.447376 1_655
Ho0 Ho8 3.448686 1_665
Ho0 Ho5 3.448691 1_665
Ho0 Ho11 3.554800 1_555
Ho0 Ho12 3.554806 1_555
Ho0 Ho14 3.554837 1_555
Ho0 Ho13 3.554837 1_555
Ho0 Ho4 3.568205 1_565
Ho0 Ho7 3.568208 1_565
Ho0 Ho9 3.568217 1_655
Ho0 Ho10 3.568222 1_655
Ho1 Rh3 3.447366 1_556
Ho1 Rh0 3.447373 1_555
Ho1 Ho6 3.448664 1_556
Ho1 Ho3 3.448724 1_556
Ho1 Ho13 3.554790 1_555
Ho1 Ho14 3.554795 1_555
Ho1 Ho11 3.554837 1_555
Ho1 Ho12 3.554850 1_555
Ho1 Ho4 3.568213 1_555
Ho1 Ho7 3.568214 1_556
Ho1 Ho9 3.568224 1_556
Ho1 Ho10 3.568232 1_555
Ho2 Rh2 2.784211 1_555
Ho2 Rh1 2.784233 1_555
Ho3 Rh0 2.791935 1_554
Ho3 Rh3 2.791940 1_555
Ho3 Rh2 2.791946 1_455
Ho4 Rh2 2.784231 1_555
Ho4 Rh0 2.784242 1_555
Ho5 Rh2 2.791932 1_455
Ho5 Rh1 2.791937 1_545
Ho5 Rh0 2.791945 1_554
Ho6 Rh3 2.791923 1_555
Ho6 Rh0 2.791923 1_554
Ho6 Rh1 2.791929 1_545
Ho7 Rh2 2.784231 1_555
Ho7 Rh3 2.784254 1_555
Ho8 Rh2 2.791921 1_455
Ho8 Rh1 2.791922 1_545
Ho8 Rh3 2.791935 1_555
Ho9 Rh3 2.784214 1_555
Ho9 Rh1 2.784223 1_555
Ho10 Rh0 2.784208 1_555
Ho10 Rh1 2.784223 1_555
Ho10 Ho13 3.568228 1_555
Ho10 Ho12 3.568237 1_455
Ho11 Rh3 3.447359 1_655
Ho11 Rh2 3.447360 1_555
Ho11 Ho8 3.448656 1_655
Ho11 Ho3 3.448694 1_655
Ho11 Ho13 3.554802 1_555
Ho11 Ho12 3.554825 1_555
Ho11 Ho15 3.568221 1_655
Ho11 Ho2 3.568228 1_555
Ho11 Ho4 3.568233 1_555
Ho11 Ho9 3.568240 1_655
Ho12 Rh2 3.447351 1_556
Ho12 Rh0 3.447352 1_655
Ho12 Ho5 3.448648 1_656
Ho12 Ho3 3.448674 1_656
Ho12 Ho14 3.554805 1_555
Ho12 Ho15 3.568216 1_655
Ho12 Ho2 3.568229 1_556
Ho12 Ho7 3.568230 1_556
Ho13 Rh3 3.447345 1_565
Ho13 Rh1 3.447380 1_555
Ho13 Ho6 3.448706 1_565
Ho13 Ho8 3.448717 1_565
Ho13 Ho14 3.554811 1_555
Ho13 Ho15 3.568203 1_565
Ho13 Ho2 3.568213 1_555
Ho13 Ho7 3.568220 1_565
Ho14 Rh0 3.447338 1_565
Ho14 Rh1 3.447363 1_556
Ho14 Ho6 3.448678 1_566
Ho14 Ho5 3.448707 1_566
Ho14 Ho2 3.568213 1_556
Ho14 Ho15 3.568215 1_565
Ho14 Ho4 3.568217 1_565
Ho14 Ho9 3.568225 1_556
Ho15 Rh0 2.784220 1_555
Ho15 Rh3 2.784231 1_555
Cd0 Cd2 3.071783 1_554
Cd0 Cd3 3.071834 1_564
Cd0 Cd1 3.072040 1_654
Cd0 Ho13 3.234551 1_555
Cd0 Ho11 3.234638 1_555
Cd0 Ho0 3.234665 1_555
Cd0 Ho6 3.390957 1_565
Cd0 Ho3 3.391102 1_655
Cd0 Ho5 3.391134 1_665
Cd0 Ho7 3.456178 1_565
Cd0 Ho2 3.456190 1_555
Cd0 Ho9 3.456397 1_655
Cd1 Cd3 3.071796 1_465
Cd1 Cd2 3.072043 1_455
Cd1 Ho13 3.234539 1_555
Cd1 Ho14 3.234551 1_555
Cd1 Ho1 3.234635 1_555
Cd1 Ho5 3.390998 1_566
Cd1 Ho8 3.391025 1_565
Cd1 Ho3 3.391188 1_556
Cd1 Ho15 3.456111 1_565
Cd1 Ho9 3.456301 1_556
Cd1 Ho10 3.456305 1_555
Cd2 Cd3 3.071787 1_565
Cd2 Ho14 3.234547 1_555
Cd2 Ho12 3.234631 1_555
Cd2 Ho0 3.234659 1_555
Cd2 Ho6 3.390952 1_566
Cd2 Ho3 3.391096 1_656
Cd2 Ho8 3.391142 1_665
Cd2 Ho4 3.456183 1_565
Cd2 Ho2 3.456198 1_556
Cd2 Ho10 3.456389 1_655
Cd3 Ho11 3.234575 1_555
Cd3 Ho12 3.234634 1_555
Cd3 Ho1 3.234639 1_555
Cd3 Ho8 3.391010 1_655
Cd3 Ho5 3.391079 1_656
Cd3 Ho6 3.391130 1_556
Cd3 Ho4 3.456247 1_555
Cd3 Ho15 3.456252 1_655
Cd3 Ho7 3.456327 1_556
