# generated using pymatgen
data_Co2SnO4
_symmetry_space_group_name_H-M   'P 1'
_cell_length_a   6.22065563
_cell_length_b   6.19762913
_cell_length_c   30.43580298
_cell_angle_alpha   60.42314841
_cell_angle_beta   60.64572630
_cell_angle_gamma   60.99352175
_symmetry_Int_Tables_number   1
_chemical_formula_structural   Co2SnO4
_chemical_formula_sum   'Co20 Sn10 O40'
_cell_volume   842.55348501
_cell_formula_units_Z   10
loop_
 _symmetry_equiv_pos_site_id
 _symmetry_equiv_pos_as_xyz
  1  'x, y, z'
loop_
 _atom_site_type_symbol
 _atom_site_label
 _atom_site_symmetry_multiplicity
 _atom_site_fract_x
 _atom_site_fract_y
 _atom_site_fract_z
 _atom_site_occupancy
  Co  Co0  1  0.23896800  0.25124000  0.04877200  1
  Co  Co1  1  0.01235700  0.01502900  0.19740900  1
  Co  Co2  1  0.62001700  0.63819500  0.02482700  1
  Co  Co3  1  0.23296000  0.23578500  0.25430700  1
  Co  Co4  1  0.01243300  0.01100600  0.39844700  1
  Co  Co5  1  0.62147400  0.62741300  0.12503700  1
  Co  Co6  1  0.62270100  0.62613300  0.22533700  1
  Co  Co7  1  0.23429000  0.23566500  0.45392800  1
  Co  Co8  1  0.01276400  0.01009500  0.59841900  1
  Co  Co9  1  0.62383700  0.62423200  0.32551300  1
  Co  Co10  1  0.62386300  0.62390800  0.42566300  1
  Co  Co11  1  0.23458600  0.23273000  0.65402400  1
  Co  Co12  1  0.01288900  0.00232300  0.79980200  1
  Co  Co13  1  0.62390400  0.62343100  0.52570600  1
  Co  Co14  1  0.62479900  0.62109800  0.62584700  1
  Co  Co15  1  0.23587400  0.24871800  0.85137100  1
  Co  Co16  1  0.62558400  0.61960100  0.72580400  1
  Co  Co17  1  0.63343700  0.60722500  0.82657800  1
  Co  Co18  1  0.63083500  0.13672800  0.92131200  1
  Co  Co19  1  0.63160300  0.62744400  0.92100300  1
  Sn  Sn0  1  0.02704500  0.01403400  0.99239000  1
  Sn  Sn1  1  0.12514500  0.62619400  0.12581900  1
  Sn  Sn2  1  0.62002600  0.13200600  0.12537000  1
  Sn  Sn3  1  0.12384300  0.62411700  0.32561300  1
  Sn  Sn4  1  0.62391800  0.12432100  0.32555900  1
  Sn  Sn5  1  0.12421400  0.62326500  0.52578900  1
  Sn  Sn6  1  0.62370500  0.12353700  0.52585100  1
  Sn  Sn7  1  0.12621500  0.61962100  0.72540300  1
  Sn  Sn8  1  0.62548000  0.11812900  0.72605800  1
  Sn  Sn9  1  0.13570700  0.63089700  0.92075200  1
  O  O0  1  0.37433300  0.38389000  0.07784400  1
  O  O1  1  0.37081600  0.84909900  0.07882900  1
  O  O2  1  0.37380000  0.37858700  0.17227300  1
  O  O3  1  0.83765000  0.38286600  0.07812400  1
  O  O4  1  0.37721400  0.37854200  0.27774800  1
  O  O5  1  0.40933000  0.87511300  0.17095200  1
  O  O6  1  0.87480100  0.88049500  0.07622100  1
  O  O7  1  0.87077400  0.41315200  0.17104100  1
  O  O8  1  0.37701900  0.84227900  0.27778400  1
  O  O9  1  0.37680600  0.37667000  0.37148300  1
  O  O10  1  0.84054300  0.37923200  0.27771400  1
  O  O11  1  0.87002600  0.87675900  0.17148400  1
  O  O12  1  0.40779000  0.87189500  0.37168500  1
  O  O13  1  0.37745700  0.37758800  0.47787400  1
  O  O14  1  0.87378600  0.87471900  0.27828400  1
  O  O15  1  0.87242700  0.40741100  0.37170700  1
  O  O16  1  0.37721200  0.84178100  0.47785500  1
  O  O17  1  0.37705400  0.37611500  0.57157800  1
  O  O18  1  0.84142600  0.37775100  0.47788800  1
  O  O19  1  0.87389600  0.87365900  0.37193200  1
  O  O20  1  0.40774800  0.87088900  0.57192300  1
  O  O21  1  0.37954400  0.37254800  0.67794300  1
  O  O22  1  0.87303900  0.40605500  0.57183000  1
  O  O23  1  0.87279900  0.87283100  0.47893500  1
  O  O24  1  0.37800400  0.83918400  0.67789200  1
  O  O25  1  0.38137900  0.37522700  0.77045200  1
  O  O26  1  0.84247800  0.37311400  0.67804400  1
  O  O27  1  0.87381300  0.87235600  0.57220100  1
  O  O28  1  0.41042200  0.86376900  0.77311900  1
  O  O29  1  0.37200200  0.37817800  0.87803800  1
  O  O30  1  0.87754400  0.39880700  0.77191000  1
  O  O31  1  0.87364400  0.86862800  0.67901000  1
  O  O32  1  0.37720100  0.85356100  0.87731000  1
  O  O33  1  0.36513000  0.39079900  0.97070300  1
  O  O34  1  0.84873100  0.37933000  0.87822200  1
  O  O35  1  0.87614000  0.86568400  0.77253800  1
  O  O36  1  0.41132900  0.86481900  0.97303500  1
  O  O37  1  0.87074900  0.86399400  0.88074800  1
  O  O38  1  0.86746500  0.40343700  0.97404800  1
  O  O39  1  0.87220600  0.86506500  0.97408800  1
loop_
_geom_bond_atom_site_label_1
_geom_bond_atom_site_label_2
_geom_bond_distance
_geom_bond_site_symmetry_2
Co0 O33 1.952202 1_554
Co0 O1 2.055146 1_545
Co0 O3 2.062448 1_455
Co0 O0 2.070708 1_555
Co1 O14 2.022830 1_445
Co1 O7 2.034339 1_455
Co1 O5 2.039973 1_545
Co1 O11 2.056489 1_445
Co2 O36 2.048206 1_554
Co2 O39 2.107933 1_554
Co2 O1 2.114411 1_555
Co2 O3 2.123591 1_555
Co2 O38 2.142490 1_554
Co2 O0 2.197998 1_555
Co3 O8 2.012302 1_545
Co3 O10 2.018009 1_455
Co3 O4 2.029243 1_555
Co3 O2 2.051997 1_555
Co4 O23 2.013260 1_445
Co4 O15 2.025491 1_455
Co4 O12 2.031795 1_545
Co4 O19 2.046937 1_445
Co5 O5 2.096691 1_555
Co5 O3 2.102704 1_555
Co5 O7 2.103582 1_555
Co5 O1 2.112269 1_555
Co5 O2 2.182374 1_555
Co5 O6 2.225338 1_555
Co6 O8 2.100454 1_555
Co6 O10 2.101899 1_555
Co6 O5 2.128129 1_555
Co6 O7 2.128917 1_555
Co6 O4 2.167743 1_555
Co6 O11 2.190495 1_555
Co7 O16 2.013693 1_545
Co7 O18 2.019729 1_455
Co7 O13 2.031481 1_555
Co7 O9 2.061975 1_555
Co8 O31 2.016391 1_445
Co8 O22 2.023141 1_455
Co8 O20 2.029815 1_545
Co8 O27 2.043744 1_445
Co9 O12 2.100980 1_555
Co9 O15 2.103566 1_555
Co9 O10 2.124170 1_555
Co9 O8 2.128465 1_555
Co9 O9 2.175443 1_555
Co9 O14 2.200134 1_555
Co10 O18 2.097251 1_555
Co10 O16 2.102248 1_555
Co10 O12 2.129953 1_555
Co10 O15 2.135796 1_555
Co10 O13 2.166031 1_555
Co10 O19 2.198101 1_555
Co11 O24 2.012111 1_545
Co11 O26 2.015560 1_455
Co11 O21 2.029321 1_555
Co11 O17 2.062506 1_555
Co12 O37 2.025043 1_445
Co12 O30 2.025513 1_455
Co12 O28 2.042614 1_545
Co12 O35 2.052739 1_445
Co13 O20 2.100979 1_555
Co13 O22 2.104439 1_555
Co13 O18 2.127491 1_555
Co13 O16 2.130466 1_555
Co13 O17 2.173658 1_555
Co13 O23 2.191058 1_555
Co14 O26 2.097609 1_555
Co14 O24 2.099969 1_555
Co14 O22 2.131145 1_555
Co14 O20 2.133185 1_555
Co14 O21 2.170472 1_555
Co14 O27 2.200005 1_555
Co15 O34 1.988921 1_455
Co15 O29 1.998800 1_555
Co15 O32 2.019326 1_545
Co15 O25 2.023866 1_555
Co16 O28 2.110089 1_555
Co16 O30 2.116364 1_555
Co16 O26 2.130127 1_555
Co16 O24 2.135549 1_555
Co16 O25 2.150312 1_555
Co16 O31 2.185556 1_555
Co17 O34 2.072909 1_555
Co17 O30 2.117803 1_555
Co17 O28 2.149410 1_555
Co17 O29 2.158669 1_555
Co17 O32 2.193113 1_555
Co17 O35 2.204650 1_555
Co18 O34 2.026072 1_555
Co18 O29 2.088833 1_555
Co18 O37 2.101384 1_545
Co18 O36 2.165148 1_545
Co18 O33 2.201779 1_555
Co18 O39 2.216401 1_545
Co19 O34 2.030357 1_555
Co19 O32 2.075948 1_555
Co19 O37 2.102021 1_555
Co19 O36 2.183398 1_555
Co19 O38 2.195654 1_555
Co19 O33 2.212754 1_555
O0 Sn1 2.116135 1_555
O0 Sn2 2.118885 1_555
O1 Sn1 2.060006 1_555
O2 Sn1 2.108732 1_555
O2 Sn2 2.111672 1_555
O3 Sn2 2.059929 1_555
O4 Sn3 2.129351 1_555
O4 Sn4 2.129849 1_555
O5 Sn2 2.058630 1_565
O6 Sn0 2.097225 1_664
O6 Sn2 2.181944 1_565
O6 Sn1 2.182600 1_655
O7 Sn1 2.058769 1_655
O8 Sn3 2.074131 1_555
O9 Sn3 2.115900 1_555
O9 Sn4 2.117199 1_555
O10 Sn4 2.074132 1_555
O11 Sn1 2.107095 1_655
O11 Sn2 2.110246 1_565
O12 Sn4 2.060859 1_565
O13 Sn5 2.130770 1_555
O13 Sn6 2.131213 1_555
O14 Sn4 2.133545 1_565
O14 Sn3 2.133569 1_655
O15 Sn3 2.060076 1_655
O16 Sn5 2.074826 1_555
O17 Sn5 2.113638 1_555
O17 Sn6 2.114077 1_555
O18 Sn6 2.075616 1_555
O19 Sn4 2.113760 1_565
O19 Sn3 2.113774 1_655
O20 Sn6 2.061169 1_565
O21 Sn7 2.127493 1_555
O21 Sn8 2.132809 1_555
O22 Sn5 2.061124 1_655
O23 Sn5 2.129579 1_655
O23 Sn6 2.130788 1_565
O24 Sn7 2.073635 1_555
O25 Sn8 2.106571 1_555
O25 Sn7 2.108446 1_555
O26 Sn8 2.076076 1_555
O27 Sn5 2.113851 1_655
O27 Sn6 2.114025 1_565
O28 Sn8 2.064954 1_565
O29 Sn9 2.051268 1_555
O30 Sn7 2.064798 1_655
O31 Sn7 2.125162 1_655
O31 Sn8 2.127962 1_565
O32 Sn9 2.042364 1_555
O33 Sn9 2.096841 1_555
O35 Sn7 2.115342 1_655
O35 Sn8 2.119475 1_565
O36 Sn0 1.982403 1_565
O37 Sn9 2.051324 1_655
O38 Sn0 2.002836 1_655
O38 Sn9 2.184740 1_655
O39 Sn0 1.996648 1_665
O39 Sn9 2.199567 1_655
