# generated using pymatgen
data_Na3B6NO13
_symmetry_space_group_name_H-M   'P 1'
_cell_length_a   7.58051207
_cell_length_b   9.97824372
_cell_length_c   12.54738044
_cell_angle_alpha   90.00000000
_cell_angle_beta   90.00000000
_cell_angle_gamma   90.00000000
_symmetry_Int_Tables_number   1
_chemical_formula_structural   Na3B6NO13
_chemical_formula_sum   'Na12 B24 N4 O52'
_cell_volume   949.08632777
_cell_formula_units_Z   4
loop_
 _symmetry_equiv_pos_site_id
 _symmetry_equiv_pos_as_xyz
  1  'x, y, z'
loop_
 _atom_site_type_symbol
 _atom_site_label
 _atom_site_symmetry_multiplicity
 _atom_site_fract_x
 _atom_site_fract_y
 _atom_site_fract_z
 _atom_site_occupancy
  Na  Na0  1  0.88170216  0.25000000  0.71588670  1
  Na  Na1  1  0.50000000  0.50000000  -0.00000000  1
  Na  Na2  1  -0.00000000  0.00000000  0.50000000  1
  Na  Na3  1  -0.00000000  0.50000000  0.50000000  1
  Na  Na4  1  0.38170216  0.75000000  0.78411330  1
  Na  Na5  1  0.50000000  0.50000000  0.50000000  1
  Na  Na6  1  0.61829784  0.25000000  0.21588670  1
  Na  Na7  1  0.50000000  0.00000000  -0.00000000  1
  Na  Na8  1  -0.00000000  0.00000000  -0.00000000  1
  Na  Na9  1  -0.00000000  0.50000000  -0.00000000  1
  Na  Na10  1  0.50000000  0.00000000  0.50000000  1
  Na  Na11  1  0.11829784  0.75000000  0.28411330  1
  B  B0  1  0.72477137  0.75000000  0.49632411  1
  B  B1  1  0.47210923  0.98154493  0.25983196  1
  B  B2  1  0.97210923  0.01845507  0.24016804  1
  B  B3  1  0.02789077  0.51845507  0.75983196  1
  B  B4  1  0.55762528  0.75000000  0.31278481  1
  B  B5  1  0.22403319  0.12024900  0.33550487  1
  B  B6  1  0.97210923  0.48154493  0.24016804  1
  B  B7  1  0.05762528  0.25000000  0.18721519  1
  B  B8  1  0.27596681  0.37975100  0.83550487  1
  B  B9  1  0.77596681  0.87975100  0.66449513  1
  B  B10  1  0.44237472  0.25000000  0.68721519  1
  B  B11  1  0.22477137  0.25000000  0.00367589  1
  B  B12  1  0.94237472  0.75000000  0.81278481  1
  B  B13  1  0.77522863  0.75000000  0.99632411  1
  B  B14  1  0.47210923  0.51845507  0.25983196  1
  B  B15  1  0.27522863  0.25000000  0.50367589  1
  B  B16  1  0.72403319  0.62024900  0.16449513  1
  B  B17  1  0.72403319  0.87975100  0.16449513  1
  B  B18  1  0.52789077  0.48154493  0.74016804  1
  B  B19  1  0.52789077  0.01845507  0.74016804  1
  B  B20  1  0.02789077  0.98154493  0.75983196  1
  B  B21  1  0.27596681  0.12024900  0.83550487  1
  B  B22  1  0.22403319  0.37975100  0.33550487  1
  B  B23  1  0.77596681  0.62024900  0.66449513  1
  N  N0  1  0.21060013  0.75000000  0.55080515  1
  N  N1  1  0.71060013  0.25000000  0.94919485  1
  N  N2  1  0.28939987  0.75000000  0.05080515  1
  N  N3  1  0.78939987  0.25000000  0.44919485  1
  O  O0  1  0.38461040  0.09814992  0.27663901  1
  O  O1  1  0.09554532  0.48567764  0.32003241  1
  O  O2  1  0.88461040  0.90185008  0.22336099  1
  O  O3  1  0.23303100  0.85956482  0.08746857  1
  O  O4  1  0.90445468  0.98567764  0.67996759  1
  O  O5  1  0.44598705  0.86987293  0.32181315  1
  O  O6  1  0.40445468  0.48567764  0.82003241  1
  O  O7  1  0.44598705  0.63012707  0.32181315  1
  O  O8  1  0.23303100  0.64043518  0.08746857  1
  O  O9  1  0.26696900  0.85956482  0.58746857  1
  O  O10  1  0.76696900  0.14043518  0.91253143  1
  O  O11  1  0.25891980  0.36957358  0.45003131  1
  O  O12  1  0.90548418  0.25000000  0.52123595  1
  O  O13  1  0.94598705  0.36987293  0.17818685  1
  O  O14  1  0.94598705  0.13012707  0.17818685  1
  O  O15  1  0.74108020  0.63042642  0.54996869  1
  O  O16  1  0.55401295  0.36987293  0.67818685  1
  O  O17  1  0.38461040  0.40185008  0.27663901  1
  O  O18  1  0.75891980  0.86957358  0.04996869  1
  O  O19  1  0.74108020  0.86957358  0.54996869  1
  O  O20  1  0.75891980  0.63042642  0.04996869  1
  O  O21  1  0.73303100  0.35956482  0.41253143  1
  O  O22  1  0.88461040  0.59814992  0.22336099  1
  O  O23  1  0.85751259  0.75000000  0.70245405  1
  O  O24  1  0.80594885  0.75000000  0.89110362  1
  O  O25  1  0.76696900  0.35956482  0.91253143  1
  O  O26  1  0.90445468  0.51432236  0.67996759  1
  O  O27  1  0.35751259  0.25000000  0.79754595  1
  O  O28  1  0.05401295  0.86987293  0.82181315  1
  O  O29  1  0.24108020  0.36957358  0.95003131  1
  O  O30  1  0.59451582  0.25000000  0.02123595  1
  O  O31  1  0.11538960  0.40185008  0.77663901  1
  O  O32  1  0.09554532  0.01432236  0.32003241  1
  O  O33  1  0.14248741  0.25000000  0.29754595  1
  O  O34  1  0.61538960  0.59814992  0.72336099  1
  O  O35  1  0.24108020  0.13042642  0.95003131  1
  O  O36  1  0.40445468  0.01432236  0.82003241  1
  O  O37  1  0.05401295  0.63012707  0.82181315  1
  O  O38  1  0.11538960  0.09814992  0.77663901  1
  O  O39  1  0.40548418  0.75000000  0.97876405  1
  O  O40  1  0.69405115  0.75000000  0.39110362  1
  O  O41  1  0.55401295  0.13012707  0.67818685  1
  O  O42  1  0.25891980  0.13042642  0.45003131  1
  O  O43  1  0.09451582  0.75000000  0.47876405  1
  O  O44  1  0.64248741  0.75000000  0.20245405  1
  O  O45  1  0.59554532  0.98567764  0.17996759  1
  O  O46  1  0.30594885  0.25000000  0.60889638  1
  O  O47  1  0.73303100  0.14043518  0.41253143  1
  O  O48  1  0.26696900  0.64043518  0.58746857  1
  O  O49  1  0.61538960  0.90185008  0.72336099  1
  O  O50  1  0.59554532  0.51432236  0.17996759  1
  O  O51  1  0.19405115  0.25000000  0.10889638  1
loop_
_geom_bond_atom_site_label_1
_geom_bond_atom_site_label_2
_geom_bond_distance
_geom_bond_site_symmetry_2
Na0 O12 2.449002 1_555
Na0 O31 2.452551 1_655
Na0 O38 2.452551 1_655
Na0 O26 2.681256 1_555
Na0 O4 2.681256 1_545
Na0 O41 2.797317 1_555
Na0 O16 2.797317 1_555
Na0 O25 2.835421 1_555
Na0 O10 2.835421 1_555
Na1 O6 2.375736 1_554
Na1 O50 2.375736 1_555
Na1 O29 2.437043 1_554
Na1 O20 2.437043 1_555
Na1 O39 2.609056 1_554
Na1 O30 2.609056 1_555
Na1 O25 2.695135 1_554
Na1 O8 2.695135 1_555
Na2 O4 2.375736 1_445
Na2 O32 2.375736 1_555
Na2 O42 2.437043 1_555
Na2 O19 2.437043 1_445
Na2 O43 2.609056 1_545
Na2 O12 2.609056 1_455
Na2 O9 2.695135 1_545
Na2 O47 2.695135 1_455
Na3 O26 2.375736 1_455
Na3 O1 2.375736 1_555
Na3 O11 2.437043 1_555
Na3 O15 2.437043 1_455
Na3 O43 2.609056 1_555
Na3 O12 2.609056 1_455
Na3 O48 2.695135 1_555
Na3 O21 2.695135 1_455
Na4 O39 2.449002 1_555
Na4 O49 2.452551 1_555
Na4 O34 2.452551 1_555
Na4 O36 2.681256 1_565
Na4 O6 2.681256 1_555
Na4 O37 2.797317 1_555
Na4 O28 2.797317 1_555
Na4 O9 2.835421 1_555
Na4 O48 2.835421 1_555
Na5 O11 2.329508 1_555
Na5 O15 2.329508 1_555
Na5 O48 2.507717 1_555
Na5 O21 2.507717 1_555
Na5 O16 2.617689 1_555
Na5 O7 2.617689 1_555
Na6 O30 2.449002 1_555
Na6 O17 2.452551 1_555
Na6 O0 2.452551 1_555
Na6 O45 2.681256 1_545
Na6 O50 2.681256 1_555
Na6 O13 2.797317 1_555
Na6 O14 2.797317 1_555
Na6 O21 2.835421 1_555
Na6 O47 2.835421 1_555
Na7 O36 2.375736 1_554
Na7 O45 2.375736 1_545
Na7 O35 2.437043 1_554
Na7 O18 2.437043 1_545
Na7 O30 2.609056 1_555
Na7 O39 2.609056 1_544
Na7 O10 2.695135 1_554
Na7 O3 2.695135 1_545
Na8 O18 2.329508 1_445
Na8 O35 2.329508 1_554
Na8 O3 2.507717 1_545
Na8 O10 2.507717 1_454
Na8 O14 2.617689 1_455
Na8 O28 2.617689 1_544
Na9 O29 2.329508 1_554
Na9 O20 2.329508 1_455
Na9 O8 2.507717 1_555
Na9 O25 2.507717 1_454
Na9 O13 2.617689 1_455
Na9 O37 2.617689 1_554
Na10 O19 2.329508 1_545
Na10 O42 2.329508 1_555
Na10 O9 2.507717 1_545
Na10 O47 2.507717 1_555
Na10 O5 2.617689 1_545
Na10 O41 2.617689 1_555
Na11 O43 2.449002 1_555
Na11 O2 2.452551 1_455
Na11 O22 2.452551 1_455
Na11 O1 2.681256 1_555
Na11 O32 2.681256 1_565
Na11 O7 2.797317 1_555
Na11 O5 2.797317 1_555
Na11 O3 2.835421 1_555
Na11 O8 2.835421 1_555
B0 O40 1.340622 1_555
B0 O19 1.375469 1_555
B0 O15 1.375469 1_555
B1 O0 1.355796 1_565
B1 O45 1.371653 1_555
B1 O5 1.373199 1_555
B2 O2 1.355796 1_545
B2 O32 1.371653 1_655
B2 O14 1.373199 1_555
B3 O31 1.355796 1_555
B3 O26 1.371653 1_455
B3 O37 1.373199 1_555
B4 O40 1.426610 1_555
B4 O7 1.469599 1_555
B4 O5 1.469599 1_555
B4 O44 1.526529 1_555
B5 O0 1.440794 1_555
B5 O32 1.450359 1_555
B5 O42 1.464664 1_555
B5 O33 1.511682 1_555
B6 O22 1.355796 1_555
B6 O1 1.371653 1_655
B6 O13 1.373199 1_555
B7 O51 1.426610 1_555
B7 O14 1.469599 1_455
B7 O13 1.469599 1_455
B7 O33 1.526529 1_555
B8 O31 1.440794 1_555
B8 O6 1.450359 1_555
B8 O29 1.464664 1_555
B8 O27 1.511682 1_555
B9 O49 1.440794 1_555
B9 O4 1.450359 1_555
B9 O19 1.464664 1_555
B9 O23 1.511682 1_555
B10 O46 1.426610 1_555
B10 O41 1.469599 1_555
B10 O16 1.469599 1_555
B10 O27 1.526529 1_555
B11 O51 1.340622 1_555
B11 O35 1.375469 1_554
B11 O29 1.375469 1_554
B12 O24 1.426610 1_555
B12 O28 1.469599 1_655
B12 O37 1.469599 1_655
B12 O23 1.526529 1_555
B13 O24 1.340622 1_555
B13 O20 1.375469 1_556
B13 O18 1.375469 1_556
B14 O17 1.355796 1_555
B14 O50 1.371653 1_555
B14 O7 1.373199 1_555
B15 O46 1.340622 1_555
B15 O11 1.375469 1_555
B15 O42 1.375469 1_555
B16 O22 1.440794 1_555
B16 O50 1.450359 1_555
B16 O20 1.464664 1_555
B16 O44 1.511682 1_555
B17 O2 1.440794 1_555
B17 O45 1.450359 1_555
B17 O18 1.464664 1_555
B17 O44 1.511682 1_555
B18 O34 1.355796 1_555
B18 O6 1.371653 1_555
B18 O16 1.373199 1_555
B19 O49 1.355796 1_545
B19 O36 1.371653 1_555
B19 O41 1.373199 1_555
B20 O38 1.355796 1_565
B20 O4 1.371653 1_455
B20 O28 1.373199 1_555
B21 O38 1.440794 1_555
B21 O36 1.450359 1_555
B21 O35 1.464664 1_555
B21 O27 1.511682 1_555
B22 O17 1.440794 1_555
B22 O1 1.450359 1_555
B22 O11 1.464664 1_555
B22 O33 1.511682 1_555
B23 O34 1.440794 1_555
B23 O26 1.450359 1_555
B23 O15 1.464664 1_555
B23 O23 1.511682 1_555
N0 O9 1.260732 1_555
N0 O48 1.260732 1_555
N0 O43 1.261525 1_555
N1 O10 1.260732 1_555
N1 O25 1.260732 1_555
N1 O30 1.261525 1_556
N2 O8 1.260732 1_555
N2 O3 1.260732 1_555
N2 O39 1.261525 1_554
N3 O47 1.260732 1_555
N3 O21 1.260732 1_555
N3 O12 1.261525 1_555
