# generated using pymatgen
data_CrP2O7
_symmetry_space_group_name_H-M   'P 1'
_cell_length_a   6.33587600
_cell_length_b   6.41526298
_cell_length_c   6.90502087
_cell_angle_alpha   89.08847891
_cell_angle_beta   113.74398703
_cell_angle_gamma   94.57539448
_symmetry_Int_Tables_number   1
_chemical_formula_structural   CrP2O7
_chemical_formula_sum   'Cr2 P4 O14'
_cell_volume   256.04737280
_cell_formula_units_Z   2
loop_
 _symmetry_equiv_pos_site_id
 _symmetry_equiv_pos_as_xyz
  1  'x, y, z'
loop_
 _atom_site_type_symbol
 _atom_site_label
 _atom_site_symmetry_multiplicity
 _atom_site_fract_x
 _atom_site_fract_y
 _atom_site_fract_z
 _atom_site_occupancy
  Cr  Cr0  1  0.09813300  0.35680900  0.20699500  1
  Cr  Cr1  1  0.90186700  0.64319100  0.79300500  1
  P  P0  1  0.33698300  0.61189500  0.65033000  1
  P  P1  1  0.66301700  0.38810500  0.34967000  1
  P  P2  1  0.22795200  0.86296300  0.24862500  1
  P  P3  1  0.77204800  0.13703700  0.75137500  1
  O  O0  1  0.40604000  0.38746800  0.20558000  1
  O  O1  1  0.56877900  0.10088200  0.81299100  1
  O  O2  1  0.43122100  0.89911800  0.18700900  1
  O  O3  1  0.90729600  0.94442000  0.77728600  1
  O  O4  1  0.30510900  0.80568400  0.49249200  1
  O  O5  1  0.20794400  0.64784900  0.78888500  1
  O  O6  1  0.06180900  0.66871300  0.12340400  1
  O  O7  1  0.59396000  0.61253200  0.79442000  1
  O  O8  1  0.69489100  0.19431600  0.50750800  1
  O  O9  1  0.24098800  0.41328800  0.51184000  1
  O  O10  1  0.09270400  0.05558000  0.22271400  1
  O  O11  1  0.93819100  0.33128700  0.87659600  1
  O  O12  1  0.79205600  0.35215100  0.21111500  1
  O  O13  1  0.75901200  0.58671200  0.48816000  1
loop_
_geom_bond_atom_site_label_1
_geom_bond_atom_site_label_2
_geom_bond_distance
_geom_bond_site_symmetry_2
Cr0 O10 1.932125 1_555
Cr0 O12 1.948746 1_455
Cr0 O0 1.949028 1_555
Cr0 O9 1.954235 1_555
Cr0 O6 2.078379 1_555
Cr0 O11 2.093369 1_454
Cr1 O3 1.932125 1_555
Cr1 O5 1.948746 1_655
Cr1 O7 1.949028 1_555
Cr1 O13 1.954235 1_555
Cr1 O11 2.078379 1_555
Cr1 O6 2.093369 1_656
O0 P1 1.528204 1_555
O1 P3 1.511268 1_555
O2 P2 1.511268 1_555
O3 P3 1.526983 1_565
O4 P2 1.598626 1_555
O4 P0 1.610551 1_555
O5 P0 1.517881 1_555
O6 P2 1.581351 1_555
O7 P0 1.528204 1_555
O8 P3 1.598626 1_555
O8 P1 1.610551 1_555
O9 P0 1.534442 1_555
O10 P2 1.526983 1_545
O11 P3 1.581351 1_555
O12 P1 1.517881 1_555
O13 P1 1.534442 1_555
