# generated using pymatgen
data_Na2PtO3
_symmetry_space_group_name_H-M   'P 1'
_cell_length_a   5.43674349
_cell_length_b   5.43674349
_cell_length_c   10.61451165
_cell_angle_alpha   85.04653741
_cell_angle_beta   85.04653741
_cell_angle_gamma   120.01811507
_symmetry_Int_Tables_number   1
_chemical_formula_structural   Na2PtO3
_chemical_formula_sum   'Na8 Pt4 O12'
_cell_volume   267.57829293
_cell_formula_units_Z   4
loop_
 _symmetry_equiv_pos_site_id
 _symmetry_equiv_pos_as_xyz
  1  'x, y, z'
loop_
 _atom_site_type_symbol
 _atom_site_label
 _atom_site_symmetry_multiplicity
 _atom_site_fract_x
 _atom_site_fract_y
 _atom_site_fract_z
 _atom_site_occupancy
  Na  Na0  1  0.08464357  0.91535643  0.75000000  1
  Na  Na1  1  0.68144283  0.84152573  0.00004526  1
  Na  Na2  1  0.91535643  0.08464357  0.25000000  1
  Na  Na3  1  0.15847427  0.31855717  0.49995474  1
  Na  Na4  1  0.31855717  0.15847427  -0.00004526  1
  Na  Na5  1  0.00000000  0.50000000  0.00000000  1
  Na  Na6  1  0.84152573  0.68144283  0.50004526  1
  Na  Na7  1  0.50000000  -0.00000000  0.50000000  1
  Pt  Pt0  1  0.24989200  0.75010800  0.25000000  1
  Pt  Pt1  1  0.58291477  0.41708523  0.25000000  1
  Pt  Pt2  1  0.75010800  0.24989200  0.75000000  1
  Pt  Pt3  1  0.41708523  0.58291477  0.75000000  1
  O  O0  1  0.52044967  0.68789349  0.35530450  1
  O  O1  1  0.88075918  0.40842068  0.35544257  1
  O  O2  1  0.68789349  0.52044967  0.85530450  1
  O  O3  1  0.47955033  0.31210651  0.64469550  1
  O  O4  1  0.40842068  0.88075918  0.85544257  1
  O  O5  1  0.59157932  0.11924082  0.14455743  1
  O  O6  1  0.04841408  0.23986300  0.85513072  1
  O  O7  1  0.11924082  0.59157932  0.64455743  1
  O  O8  1  0.23986300  0.04841408  0.35513072  1
  O  O9  1  0.95158592  0.76013700  0.14486928  1
  O  O10  1  0.76013700  0.95158592  0.64486928  1
  O  O11  1  0.31210651  0.47955033  0.14469550  1
loop_
_geom_bond_atom_site_label_1
_geom_bond_atom_site_label_2
_geom_bond_distance
_geom_bond_site_symmetry_2
Na0 O7 2.240944 1_555
Na0 O4 2.240944 1_555
Na0 O6 2.246418 1_565
Na0 O10 2.246418 1_455
Na0 O2 2.246618 1_455
Na0 O3 2.246618 1_565
Na1 O11 2.292223 1_555
Na1 O4 2.293114 1_554
Na1 O6 2.368180 1_664
Na1 O9 2.374581 1_555
Na1 O5 2.424857 1_565
Na1 O2 2.433895 1_554
Na2 O1 2.240944 1_555
Na2 O5 2.240944 1_555
Na2 O8 2.246418 1_655
Na2 O9 2.246418 1_545
Na2 O0 2.246618 1_545
Na2 O11 2.246618 1_655
Na3 O0 2.292223 1_555
Na3 O7 2.293114 1_555
Na3 O10 2.368180 1_445
Na3 O8 2.374581 1_555
Na3 O1 2.424857 1_455
Na3 O3 2.433895 1_555
Na4 O2 2.292223 1_554
Na4 O5 2.293114 1_555
Na4 O9 2.368180 1_445
Na4 O6 2.374581 1_554
Na4 O4 2.424857 1_544
Na4 O11 2.433895 1_555
Na5 O9 2.261025 1_455
Na5 O6 2.261025 1_554
Na5 O4 2.415403 1_554
Na5 O5 2.415403 1_455
Na5 O2 2.420717 1_454
Na5 O11 2.420717 1_555
Na6 O3 2.292223 1_555
Na6 O1 2.293114 1_555
Na6 O8 2.368180 1_665
Na6 O10 2.374581 1_555
Na6 O7 2.424857 1_655
Na6 O0 2.433895 1_555
Na7 O8 2.261025 1_555
Na7 O10 2.261025 1_545
Na7 O1 2.415403 1_555
Na7 O7 2.415403 1_545
Na7 O3 2.420717 1_555
Na7 O0 2.420717 1_545
O0 Pt0 2.060085 1_555
O0 Pt1 2.061880 1_555
O1 Pt0 2.062534 1_655
O1 Pt1 2.063303 1_555
O2 Pt2 2.060085 1_555
O2 Pt3 2.061880 1_555
O3 Pt2 2.060085 1_555
O3 Pt3 2.061880 1_555
O4 Pt2 2.062534 1_565
O4 Pt3 2.063303 1_555
O5 Pt0 2.062534 1_545
O5 Pt1 2.063303 1_555
O6 Pt3 2.062825 1_555
O6 Pt2 2.066161 1_455
O7 Pt2 2.062534 1_455
O7 Pt3 2.063303 1_555
O8 Pt1 2.062825 1_555
O8 Pt0 2.066161 1_545
O9 Pt1 2.062825 1_555
O9 Pt0 2.066161 1_655
O10 Pt3 2.062825 1_555
O10 Pt2 2.066161 1_565
O11 Pt0 2.060085 1_555
O11 Pt1 2.061880 1_555
