# generated using pymatgen
data_CdI2
_symmetry_space_group_name_H-M   'P 1'
_cell_length_a   4.28862346
_cell_length_b   4.28862491
_cell_length_c   57.28181186
_cell_angle_alpha   90.00000000
_cell_angle_beta   90.00000000
_cell_angle_gamma   119.99999684
_symmetry_Int_Tables_number   1
_chemical_formula_structural   CdI2
_chemical_formula_sum   'Cd8 I16'
_cell_volume   912.39599977
_cell_formula_units_Z   8
loop_
 _symmetry_equiv_pos_site_id
 _symmetry_equiv_pos_as_xyz
  1  'x, y, z'
loop_
 _atom_site_type_symbol
 _atom_site_label
 _atom_site_symmetry_multiplicity
 _atom_site_fract_x
 _atom_site_fract_y
 _atom_site_fract_z
 _atom_site_occupancy
  Cd  Cd0  1  0.00000000  0.00000000  0.15740830  1
  Cd  Cd1  1  0.33333300  0.66666700  0.28148843  1
  Cd  Cd2  1  0.33333300  0.66666700  0.03228525  1
  Cd  Cd3  1  0.00000000  0.00000000  0.78053844  1
  Cd  Cd4  1  0.00000000  0.00000000  0.65514012  1
  Cd  Cd5  1  0.00000000  0.00000000  0.40575346  1
  Cd  Cd6  1  0.33333300  0.66666700  0.90749495  1
  Cd  Cd7  1  0.66666700  0.33333300  0.53053547  1
  I  I0  1  0.33333300  0.66666700  0.62514467  1
  I  I1  1  0.66666700  0.33333300  0.18729495  1
  I  I2  1  0.33333300  0.66666700  0.75045851  1
  I  I3  1  0.66666700  0.33333300  0.43564367  1
  I  I4  1  0.66666700  0.33333300  0.81064732  1
  I  I5  1  0.00000000  0.00000000  0.56049917  1
  I  I6  1  0.66666700  0.33333300  0.68516933  1
  I  I7  1  0.66666700  0.33333300  0.31140142  1
  I  I8  1  0.66666700  0.33333300  0.93757028  1
  I  I9  1  0.00000000  0.00000000  0.00221911  1
  I  I10  1  0.33333300  0.66666700  0.37584575  1
  I  I11  1  0.33333300  0.66666700  0.12751948  1
  I  I12  1  0.00000000  0.00000000  0.87746721  1
  I  I13  1  0.33333300  0.66666700  0.50057521  1
  I  I14  1  0.00000000  0.00000000  0.25159824  1
  I  I15  1  0.66666700  0.33333300  0.06230027  1
loop_
_geom_bond_atom_site_label_1
_geom_bond_atom_site_label_2
_geom_bond_distance
_geom_bond_site_symmetry_2
Cd0 I1 3.010243 1_455
Cd0 I1 3.010246 1_555
Cd0 I1 3.010247 1_445
Cd0 I11 3.010314 1_545
Cd0 I11 3.010317 1_445
Cd0 I11 3.010318 1_555
Cd1 I14 3.010359 1_565
Cd1 I14 3.010362 1_665
Cd1 I14 3.010362 1_555
Cd1 I7 3.011101 1_455
Cd1 I7 3.011102 1_565
Cd1 I7 3.011108 1_555
Cd2 I15 3.014431 1_455
Cd2 I15 3.014432 1_565
Cd2 I15 3.014437 1_555
Cd2 I9 3.016102 1_565
Cd2 I9 3.016105 1_665
Cd2 I9 3.016106 1_555
Cd3 I2 3.016554 1_545
Cd3 I2 3.016556 1_445
Cd3 I2 3.016557 1_555
Cd3 I4 3.017501 1_455
Cd3 I4 3.017504 1_555
Cd3 I4 3.017505 1_445
Cd4 I0 3.013792 1_545
Cd4 I0 3.013795 1_445
Cd4 I0 3.013796 1_555
Cd4 I6 3.014895 1_455
Cd4 I6 3.014898 1_555
Cd4 I6 3.014899 1_445
Cd5 I3 3.010359 1_455
Cd5 I3 3.010362 1_555
Cd5 I3 3.010363 1_445
Cd5 I10 3.010930 1_545
Cd5 I10 3.010932 1_445
Cd5 I10 3.010933 1_555
Cd6 I12 3.014847 1_565
Cd6 I12 3.014850 1_665
Cd6 I12 3.014850 1_555
Cd6 I8 3.016403 1_455
Cd6 I8 3.016404 1_565
Cd6 I8 3.016409 1_555
Cd7 I13 3.012643 1_655
Cd7 I13 3.012644 1_545
Cd7 I13 3.012649 1_555
Cd7 I5 3.012756 1_655
Cd7 I5 3.012758 1_555
Cd7 I5 3.012759 1_665
