# generated using pymatgen
data_VS2
_symmetry_space_group_name_H-M   'P 1'
_cell_length_a   3.26303895
_cell_length_b   3.26303729
_cell_length_c   22.39795036
_cell_angle_alpha   90.00000000
_cell_angle_beta   90.00000000
_cell_angle_gamma   119.99732181
_symmetry_Int_Tables_number   1
_chemical_formula_structural   VS2
_chemical_formula_sum   'V2 S4'
_cell_volume   206.53560181
_cell_formula_units_Z   2
loop_
 _symmetry_equiv_pos_site_id
 _symmetry_equiv_pos_as_xyz
  1  'x, y, z'
loop_
 _atom_site_type_symbol
 _atom_site_label
 _atom_site_symmetry_multiplicity
 _atom_site_fract_x
 _atom_site_fract_y
 _atom_site_fract_z
 _atom_site_occupancy
  V  V0  1  -0.00000000  0.00000000  -0.00000000  1
  V  V1  1  -0.00000000  0.00000000  0.50000000  1
  S  S0  1  0.33335673  0.66664327  0.93634299  1
  S  S1  1  0.33335673  0.66664327  0.56365701  1
  S  S2  1  0.66664327  0.33335673  0.06365701  1
  S  S3  1  0.66664327  0.33335673  0.43634299  1
loop_
_geom_bond_atom_site_label_1
_geom_bond_atom_site_label_2
_geom_bond_distance
_geom_bond_site_symmetry_2
S0 V0 2.362614 1_556
S0 V0 2.362615 1_666
S0 V0 2.362712 1_566
S1 V1 2.362614 1_555
S1 V1 2.362615 1_665
S1 V1 2.362712 1_565
S2 V0 2.362614 1_665
S2 V0 2.362615 1_555
S2 V0 2.362712 1_655
S3 V1 2.362614 1_665
S3 V1 2.362615 1_555
S3 V1 2.362712 1_655
