# generated using pymatgen
data_Nd5Sn3
_symmetry_space_group_name_H-M   'P 1'
_cell_length_a   9.28872697
_cell_length_b   9.28872707
_cell_length_c   6.88000155
_cell_angle_alpha   90.00000000
_cell_angle_beta   90.00000000
_cell_angle_gamma   119.99999591
_symmetry_Int_Tables_number   1
_chemical_formula_structural   Nd5Sn3
_chemical_formula_sum   'Nd10 Sn6'
_cell_volume   514.08103852
_cell_formula_units_Z   2
loop_
 _symmetry_equiv_pos_site_id
 _symmetry_equiv_pos_as_xyz
  1  'x, y, z'
loop_
 _atom_site_type_symbol
 _atom_site_label
 _atom_site_symmetry_multiplicity
 _atom_site_fract_x
 _atom_site_fract_y
 _atom_site_fract_z
 _atom_site_occupancy
  Nd  Nd0  1  0.33333300  0.66666700  -0.00000000  1
  Nd  Nd1  1  0.66666700  0.33333300  0.50000000  1
  Nd  Nd2  1  0.66666700  0.33333300  -0.00000000  1
  Nd  Nd3  1  0.33333300  0.66666700  0.50000000  1
  Nd  Nd4  1  0.24113590  -0.00000000  0.25000000  1
  Nd  Nd5  1  0.24113590  0.24113590  0.75000000  1
  Nd  Nd6  1  0.00000000  0.75886410  0.75000000  1
  Nd  Nd7  1  -0.00000000  0.24113590  0.25000000  1
  Nd  Nd8  1  0.75886410  0.75886410  0.25000000  1
  Nd  Nd9  1  0.75886410  0.00000000  0.75000000  1
  Sn  Sn0  1  0.60603237  0.00000000  0.25000000  1
  Sn  Sn1  1  0.60603237  0.60603237  0.75000000  1
  Sn  Sn2  1  -0.00000000  0.39396763  0.75000000  1
  Sn  Sn3  1  0.00000000  0.60603237  0.25000000  1
  Sn  Sn4  1  0.39396763  0.39396763  0.25000000  1
  Sn  Sn5  1  0.39396763  -0.00000000  0.75000000  1
loop_
_geom_bond_atom_site_label_1
_geom_bond_atom_site_label_2
_geom_bond_distance
_geom_bond_site_symmetry_2
Nd0 Sn3 3.334435 1_555
Nd0 Sn5 3.334435 1_564
Nd0 Sn2 3.334438 1_554
Nd0 Sn0 3.334438 1_565
Nd0 Sn1 3.334442 1_554
Nd0 Sn4 3.334442 1_555
Nd1 Sn2 3.334435 1_655
Nd1 Sn0 3.334435 1_555
Nd1 Sn3 3.334438 1_655
Nd1 Sn5 3.334438 1_555
Nd1 Sn4 3.334442 1_555
Nd1 Sn1 3.334442 1_555
Nd2 Sn2 3.334435 1_654
Nd2 Sn0 3.334435 1_555
Nd2 Sn3 3.334438 1_655
Nd2 Sn5 3.334438 1_554
Nd2 Sn4 3.334442 1_555
Nd2 Sn1 3.334442 1_554
Nd3 Sn3 3.334435 1_555
Nd3 Sn5 3.334435 1_565
Nd3 Sn2 3.334438 1_555
Nd3 Sn0 3.334438 1_565
Nd3 Sn1 3.334442 1_555
Nd3 Sn4 3.334442 1_555
Nd4 Sn4 3.195609 1_555
Nd4 Sn3 3.195610 1_545
Nd4 Sn0 3.389424 1_555
Nd4 Sn5 3.721412 1_555
Nd4 Sn5 3.721412 1_554
Nd5 Sn2 3.195609 1_555
Nd5 Sn5 3.195609 1_555
Nd5 Sn1 3.389424 1_555
Nd5 Sn4 3.721412 1_556
Nd5 Sn4 3.721412 1_555
Nd6 Sn1 3.195609 1_455
Nd6 Sn5 3.195609 1_565
Nd6 Sn2 3.389424 1_555
Nd6 Sn3 3.721412 1_555
Nd6 Sn3 3.721412 1_556
Nd7 Sn4 3.195609 1_555
Nd7 Sn0 3.195609 1_455
Nd7 Sn3 3.389424 1_555
Nd7 Sn2 3.721412 1_554
Nd7 Sn2 3.721412 1_555
Nd8 Sn3 3.195609 1_655
Nd8 Sn0 3.195609 1_565
Nd8 Sn4 3.389424 1_555
Nd8 Sn1 3.721412 1_554
Nd8 Sn1 3.721412 1_555
Nd9 Sn1 3.195609 1_545
Nd9 Sn2 3.195610 1_655
Nd9 Sn5 3.389424 1_555
Nd9 Sn0 3.721412 1_556
Nd9 Sn0 3.721412 1_555
