# generated using pymatgen
data_Sm3CuGeSe7
_symmetry_space_group_name_H-M   'P 1'
_cell_length_a   10.53394304
_cell_length_b   10.53394304
_cell_length_c   6.12375700
_cell_angle_alpha   90.00000000
_cell_angle_beta   90.00000000
_cell_angle_gamma   119.99999398
_symmetry_Int_Tables_number   1
_chemical_formula_structural   Sm3CuGeSe7
_chemical_formula_sum   'Sm6 Cu2 Ge2 Se14'
_cell_volume   588.47841583
_cell_formula_units_Z   2
loop_
 _symmetry_equiv_pos_site_id
 _symmetry_equiv_pos_as_xyz
  1  'x, y, z'
loop_
 _atom_site_type_symbol
 _atom_site_label
 _atom_site_symmetry_multiplicity
 _atom_site_fract_x
 _atom_site_fract_y
 _atom_site_fract_z
 _atom_site_occupancy
  Sm  Sm0  1  0.22430100  0.86904200  0.75362100  1
  Sm  Sm1  1  0.86904200  0.64474100  0.25362100  1
  Sm  Sm2  1  0.35525900  0.22430100  0.25362100  1
  Sm  Sm3  1  0.64474100  0.77569900  0.75362100  1
  Sm  Sm4  1  0.77569900  0.13095800  0.25362100  1
  Sm  Sm5  1  0.13095800  0.35525900  0.75362100  1
  Cu  Cu0  1  0.00000000  0.00000000  0.71722600  1
  Cu  Cu1  1  0.00000000  0.00000000  0.21722600  1
  Ge  Ge0  1  0.66666700  0.33333300  0.83543600  1
  Ge  Ge1  1  0.33333300  0.66666700  0.33543600  1
  Se  Se0  1  0.74135200  0.83778200  0.23116200  1
  Se  Se1  1  0.90357000  0.74135200  0.73116200  1
  Se  Se2  1  0.66666700  0.33333300  0.45049400  1
  Se  Se3  1  0.90363400  0.42114300  0.99859800  1
  Se  Se4  1  0.57885700  0.48249100  0.99859800  1
  Se  Se5  1  0.42114300  0.51750900  0.49859800  1
  Se  Se6  1  0.09643000  0.25864800  0.23116200  1
  Se  Se7  1  0.83778200  0.09643000  0.73116200  1
  Se  Se8  1  0.51750900  0.09636600  0.99859800  1
  Se  Se9  1  0.16221800  0.90357000  0.23116200  1
  Se  Se10  1  0.48249100  0.90363400  0.49859800  1
  Se  Se11  1  0.33333300  0.66666700  0.95049400  1
  Se  Se12  1  0.25864800  0.16221800  0.73116200  1
  Se  Se13  1  0.09636600  0.57885700  0.49859800  1
loop_
_geom_bond_atom_site_label_1
_geom_bond_atom_site_label_2
_geom_bond_distance
_geom_bond_site_symmetry_2
Cu0 Se7 2.386391 1_455
Cu0 Se1 2.386391 1_445
Cu0 Se12 2.386391 1_555
Cu1 Se9 2.386391 1_545
Cu1 Se6 2.386391 1_555
Cu1 Se0 2.386391 1_445
Ge0 Se2 2.357291 1_555
Ge0 Se3 2.403327 1_555
Ge0 Se8 2.403329 1_555
Ge0 Se4 2.403336 1_555
Ge1 Se11 2.357291 1_554
Ge1 Se13 2.403327 1_555
Ge1 Se10 2.403329 1_555
Ge1 Se5 2.403336 1_555
Se0 Sm4 2.927463 1_565
Se0 Sm1 2.949305 1_555
Se0 Sm3 3.057717 1_554
Se0 Sm3 3.321758 1_555
Se1 Sm3 2.927463 1_555
Se1 Sm0 2.949305 1_655
Se1 Sm1 3.057717 1_555
Se1 Sm1 3.321758 1_556
Se2 Sm4 3.125008 1_555
Se2 Sm1 3.125015 1_555
Se2 Sm2 3.125017 1_555
Se3 Sm1 2.996284 1_556
Se3 Sm4 3.078888 1_556
Se3 Sm5 3.182500 1_655
Se4 Sm2 2.996284 1_556
Se4 Sm1 3.078888 1_556
Se4 Sm3 3.182500 1_555
Se5 Sm3 2.996284 1_555
Se5 Sm5 3.078888 1_555
Se5 Sm2 3.182500 1_555
Se6 Sm2 2.927463 1_555
Se6 Sm4 2.949305 1_455
Se6 Sm5 3.057717 1_554
Se6 Sm5 3.321758 1_555
Se7 Sm5 2.927463 1_655
Se7 Sm3 2.949306 1_545
Se7 Sm4 3.057717 1_555
Se7 Sm4 3.321758 1_556
Se8 Sm4 2.996284 1_556
Se8 Sm2 3.078888 1_556
Se8 Sm0 3.182500 1_545
Se9 Sm1 2.927463 1_455
Se9 Sm2 2.949306 1_565
Se9 Sm0 3.057717 1_554
Se9 Sm0 3.321758 1_555
Se10 Sm0 2.996284 1_555
Se10 Sm3 3.078888 1_555
Se10 Sm4 3.182500 1_565
Se11 Sm0 3.125008 1_555
Se11 Sm5 3.125015 1_555
Se11 Sm3 3.125017 1_555
Se12 Sm0 2.927463 1_545
Se12 Sm5 2.949305 1_555
Se12 Sm2 3.057717 1_555
Se12 Sm2 3.321758 1_556
Se13 Sm5 2.996284 1_555
Se13 Sm0 3.078888 1_555
Se13 Sm1 3.182500 1_455
