# generated using pymatgen
data_La12Mn11O36
_symmetry_space_group_name_H-M   'P 1'
_cell_length_a   11.28397012
_cell_length_b   7.96556948
_cell_length_c   23.59096318
_cell_angle_alpha   90.00000000
_cell_angle_beta   90.00000000
_cell_angle_gamma   44.43303839
_symmetry_Int_Tables_number   1
_chemical_formula_structural   La12Mn11O36
_chemical_formula_sum   'La24 Mn22 O72'
_cell_volume   1484.46215324
_cell_formula_units_Z   2
loop_
 _symmetry_equiv_pos_site_id
 _symmetry_equiv_pos_as_xyz
  1  'x, y, z'
loop_
 _atom_site_type_symbol
 _atom_site_label
 _atom_site_symmetry_multiplicity
 _atom_site_fract_x
 _atom_site_fract_y
 _atom_site_fract_z
 _atom_site_occupancy
  La  La0  1  0.01083671  0.50729010  0.08491288  1
  La  La1  1  0.01038422  0.50946676  0.41570047  1
  La  La2  1  0.03118099  0.51174044  0.74402734  1
  La  La3  1  0.48525445  0.98979242  0.24772258  1
  La  La4  1  0.46613948  0.02440077  0.58737734  1
  La  La5  1  0.48132212  0.00770729  0.91809983  1
  La  La6  1  0.01867788  0.99229271  0.41523417  1
  La  La7  1  0.01474555  0.01020758  0.08561042  1
  La  La8  1  0.03386052  0.97559923  0.74595566  1
  La  La9  1  0.48916329  0.49270990  0.24842012  1
  La  La10  1  0.46881901  0.48825956  0.58930566  1
  La  La11  1  0.48961578  0.49053324  0.91763353  1
  La  La12  1  0.53118099  0.51174044  0.08930566  1
  La  La13  1  0.51038422  0.50946676  0.41763353  1
  La  La14  1  0.51083671  0.50729010  0.74842012  1
  La  La15  1  0.96613948  0.02440077  0.24595566  1
  La  La16  1  0.98525445  0.98979242  0.58561042  1
  La  La17  1  0.98132212  0.00770729  0.91523417  1
  La  La18  1  0.51867788  0.99229271  0.41809983  1
  La  La19  1  0.53386052  0.97559923  0.08737734  1
  La  La20  1  0.51474555  0.01020758  0.74772258  1
  La  La21  1  0.96881901  0.48825956  0.24402734  1
  La  La22  1  0.98916329  0.49270990  0.58491288  1
  La  La23  1  0.98961578  0.49053324  0.91570047  1
  Mn  Mn0  1  0.25000000  0.00000000  0.16666700  1
  Mn  Mn1  1  0.24641420  0.00031904  0.50039251  1
  Mn  Mn2  1  0.25358580  0.99968096  0.83294049  1
  Mn  Mn3  1  0.25363920  0.99631177  0.00022118  1
  Mn  Mn4  1  0.24636080  0.00368823  0.33311182  1
  Mn  Mn5  1  0.25000000  0.00000000  0.66666700  1
  Mn  Mn6  1  0.24691784  0.50042639  0.33090073  1
  Mn  Mn7  1  0.25000000  0.50000000  0.16666700  1
  Mn  Mn8  1  0.25308216  0.49957361  0.00243227  1
  Mn  Mn9  1  0.24604133  0.50108034  0.49805864  1
  Mn  Mn10  1  0.25395867  0.49891966  0.83527436  1
  Mn  Mn11  1  0.75363920  0.99631177  0.83311182  1
  Mn  Mn12  1  0.75000000  0.00000000  0.16666700  1
  Mn  Mn13  1  0.74636080  0.00368823  0.50022118  1
  Mn  Mn14  1  0.75000000  0.00000000  0.66666700  1
  Mn  Mn15  1  0.75358580  0.99968096  0.00039251  1
  Mn  Mn16  1  0.74641420  0.00031904  0.33294049  1
  Mn  Mn17  1  0.74691784  0.50042639  0.50243227  1
  Mn  Mn18  1  0.75308216  0.49957361  0.83090073  1
  Mn  Mn19  1  0.75395867  0.49891966  0.99805864  1
  Mn  Mn20  1  0.74604133  0.50108034  0.33527436  1
  Mn  Mn21  1  0.75000000  0.50000000  0.66666700  1
  O  O0  1  0.19934383  0.07914417  0.08426273  1
  O  O1  1  0.20143147  0.07743788  0.41719710  1
  O  O2  1  0.20786239  0.07931680  0.74957108  1
  O  O3  1  0.21109159  0.28009911  0.31827592  1
  O  O4  1  0.20449333  0.28833429  0.17972752  1
  O  O5  1  0.21539018  0.28010693  0.51211034  1
  O  O6  1  0.21050498  0.27028285  0.65319358  1
  O  O7  1  0.22492937  0.27720034  0.84874870  1
  O  O8  1  0.21989184  0.27482715  0.98553730  1
  O  O9  1  0.00182901  0.77680263  0.34709879  1
  O  O10  1  0.98159900  0.81272509  0.67991725  1
  O  O11  1  0.00731366  0.77789567  0.01469748  1
  O  O12  1  -0.00081010  0.79528446  0.15418498  1
  O  O13  1  0.00376100  0.78326157  0.82039599  1
  O  O14  1  0.99725313  0.78206299  0.48382655  1
  O  O15  1  0.27891552  0.42091633  0.41669713  1
  O  O16  1  0.27934894  0.41587849  0.08512074  1
  O  O17  1  0.28416055  0.43164600  0.75760245  1
  O  O18  1  0.22065106  0.58412151  0.24821226  1
  O  O19  1  0.21583945  0.56835400  0.57573055  1
  O  O20  1  0.22108448  0.57908367  0.91663687  1
  O  O21  1  0.49268634  0.22210433  0.31863552  1
  O  O22  1  0.50081010  0.20471554  0.17914802  1
  O  O23  1  0.50274687  0.21793701  0.84950745  1
  O  O24  1  0.49623900  0.21673843  0.51293701  1
  O  O25  1  0.51840100  0.18727491  0.65341575  1
  O  O26  1  0.49817099  0.22319737  0.98623521  1
  O  O27  1  0.28010816  0.72517285  0.34779670  1
  O  O28  1  0.28890841  0.71990089  0.01505708  1
  O  O29  1  0.29550667  0.71166571  0.15360548  1
  O  O30  1  0.27507063  0.72279966  0.48458530  1
  O  O31  1  0.28949502  0.72971715  0.68013942  1
  O  O32  1  0.28460982  0.71989307  0.82122266  1
  O  O33  1  0.69934383  0.07914417  0.74907027  1
  O  O34  1  0.70786239  0.07931680  0.08376192  1
  O  O35  1  0.70143147  0.07743788  0.41613690  1
  O  O36  1  0.30065617  0.92085583  0.24907027  1
  O  O37  1  0.29213761  0.92068320  0.58376192  1
  O  O38  1  0.29856853  0.92256212  0.91613690  1
  O  O39  1  0.71539018  0.28010693  0.32122266  1
  O  O40  1  0.71050498  0.27028285  0.18013942  1
  O  O41  1  0.71109159  0.28009911  0.51505708  1
  O  O42  1  0.70449333  0.28833429  0.65360548  1
  O  O43  1  0.71989184  0.27482715  0.84779670  1
  O  O44  1  0.72492937  0.27720034  0.98458530  1
  O  O45  1  0.50376100  0.78326157  0.01293701  1
  O  O46  1  0.48159900  0.81272509  0.15341575  1
  O  O47  1  0.49725313  0.78206299  0.34950745  1
  O  O48  1  0.49918990  0.79528446  0.67914802  1
  O  O49  1  0.50731366  0.77789567  0.81863552  1
  O  O50  1  0.50182901  0.77680263  0.48623521  1
  O  O51  1  0.77891552  0.42091633  0.41663687  1
  O  O52  1  0.77934894  0.41587849  0.74821226  1
  O  O53  1  0.78416055  0.43164600  0.07573055  1
  O  O54  1  0.72065106  0.58412151  0.58512074  1
  O  O55  1  0.71583945  0.56835400  0.25760245  1
  O  O56  1  0.72108448  0.57908367  0.91669713  1
  O  O57  1  0.99817099  0.22319737  0.84709879  1
  O  O58  1  0.99623900  0.21673843  0.32039599  1
  O  O59  1  0.01840100  0.18727491  0.17991725  1
  O  O60  1  0.99268634  0.22210433  0.51469748  1
  O  O61  1  1.00081010  0.20471554  0.65418498  1
  O  O62  1  0.00274687  0.21793701  0.98382655  1
  O  O63  1  0.78010816  0.72517285  0.48553730  1
  O  O64  1  0.77507063  0.72279966  0.34874870  1
  O  O65  1  0.78460982  0.71989307  0.01211034  1
  O  O66  1  0.78949502  0.72971715  0.15319358  1
  O  O67  1  0.79550667  0.71166571  0.67972752  1
  O  O68  1  0.78890841  0.71990089  0.81827592  1
  O  O69  1  0.80065617  0.92085583  0.58426273  1
  O  O70  1  0.79213761  0.92068320  0.24957108  1
  O  O71  1  0.79856853  0.92256212  0.91719710  1
loop_
_geom_bond_atom_site_label_1
_geom_bond_atom_site_label_2
_geom_bond_distance
_geom_bond_site_symmetry_2
La0 O66 2.377425 1_455
La0 O0 2.407410 1_555
La0 O65 2.481980 1_455
La0 O16 2.561184 1_555
La0 O11 2.696168 1_555
La0 O4 2.716104 1_555
La0 O12 2.742247 1_555
La0 O8 2.872513 1_554
La0 O53 3.025461 1_455
La1 O1 2.428269 1_555
La1 O64 2.447214 1_455
La1 O63 2.458100 1_455
La1 O15 2.574340 1_555
La1 O14 2.619226 1_455
La1 O9 2.620988 1_555
La1 O5 2.797546 1_555
La1 O3 2.800044 1_555
La2 O67 2.420939 1_455
La2 O2 2.459492 1_555
La2 O17 2.461187 1_555
La2 O10 2.536306 1_455
La2 O68 2.611015 1_455
La2 O6 2.612943 1_555
La2 O13 2.657748 1_555
La2 O7 2.922350 1_555
La3 O55 2.370542 1_555
La3 O22 2.451111 1_565
La3 O36 2.504988 1_555
La3 O21 2.540001 1_565
La3 O46 2.650249 1_555
La3 O3 2.733424 1_565
La3 O4 2.739629 1_565
La3 O47 2.863937 1_555
La3 O70 3.094173 1_555
La4 O25 2.355995 1_555
La4 O54 2.483154 1_545
La4 O24 2.507932 1_555
La4 O6 2.549327 1_555
La4 O37 2.619450 1_545
La4 O5 2.660220 1_555
La4 O48 2.680461 1_545
La4 O50 2.934426 1_545
La5 O56 2.405365 1_545
La5 O26 2.456065 1_555
La5 O23 2.461574 1_555
La5 O38 2.590791 1_545
La5 O7 2.604897 1_555
La5 O8 2.607014 1_555
La5 O45 2.760344 1_546
La5 O49 2.859399 1_545
La6 O51 2.405365 1_465
La6 O9 2.456065 1_555
La6 O14 2.461574 1_455
La6 O1 2.590791 1_565
La6 O30 2.604897 1_555
La6 O27 2.607014 1_555
La6 O58 2.760363 1_465
La6 O60 2.859380 1_465
La7 O53 2.370542 1_455
La7 O12 2.451111 1_545
La7 O0 2.504988 1_555
La7 O11 2.540001 1_545
La7 O59 2.650249 1_555
La7 O28 2.733424 1_545
La7 O29 2.739629 1_545
La7 O62 2.863917 1_554
La7 O34 3.094173 1_455
La8 O10 2.355995 1_455
La8 O52 2.483154 1_465
La8 O13 2.507932 1_555
La8 O31 2.549327 1_555
La8 O2 2.619450 1_565
La8 O32 2.660220 1_555
La8 O61 2.680461 1_465
La8 O57 2.934445 1_465
La9 O40 2.377425 1_555
La9 O36 2.407410 1_555
La9 O39 2.481980 1_555
La9 O18 2.561184 1_555
La9 O21 2.696168 1_555
La9 O29 2.716104 1_555
La9 O22 2.742247 1_555
La9 O27 2.872532 1_555
La9 O55 3.025461 1_555
La10 O42 2.420939 1_555
La10 O37 2.459492 1_555
La10 O19 2.461187 1_555
La10 O25 2.536306 1_555
La10 O41 2.611015 1_555
La10 O31 2.612943 1_555
La10 O24 2.657748 1_555
La10 O30 2.922330 1_555
La11 O38 2.428269 1_555
La11 O44 2.447214 1_555
La11 O43 2.458100 1_555
La11 O20 2.574340 1_555
La11 O23 2.619226 1_555
La11 O26 2.620988 1_555
La11 O32 2.797565 1_555
La11 O28 2.800025 1_556
La12 O29 2.420939 1_555
La12 O34 2.459492 1_555
La12 O53 2.461187 1_555
La12 O46 2.536306 1_555
La12 O28 2.611015 1_555
La12 O40 2.612943 1_555
La12 O45 2.657748 1_555
La12 O44 2.922330 1_554
La13 O35 2.428269 1_555
La13 O30 2.447214 1_555
La13 O27 2.458100 1_555
La13 O51 2.574340 1_555
La13 O47 2.619226 1_555
La13 O50 2.620988 1_555
La13 O39 2.797565 1_555
La13 O41 2.800025 1_555
La14 O31 2.377425 1_555
La14 O33 2.407410 1_555
La14 O32 2.481980 1_555
La14 O52 2.561184 1_555
La14 O49 2.696168 1_555
La14 O42 2.716104 1_555
La14 O48 2.742247 1_555
La14 O43 2.872532 1_555
La14 O17 3.025461 1_555
La15 O59 2.355995 1_655
La15 O18 2.483154 1_645
La15 O58 2.507932 1_555
La15 O40 2.549327 1_555
La15 O70 2.619450 1_545
La15 O39 2.660220 1_555
La15 O12 2.680461 1_645
La15 O9 2.934445 1_645
La16 O19 2.370542 1_655
La16 O61 2.451111 1_565
La16 O69 2.504988 1_555
La16 O60 2.540001 1_565
La16 O10 2.650249 1_555
La16 O41 2.733424 1_565
La16 O42 2.739629 1_565
La16 O14 2.863917 1_555
La16 O37 3.094173 1_655
La17 O20 2.405365 1_645
La17 O57 2.456065 1_555
La17 O62 2.461574 1_655
La17 O71 2.590791 1_545
La17 O44 2.604897 1_555
La17 O43 2.607014 1_555
La17 O13 2.760363 1_645
La17 O11 2.859380 1_646
La18 O15 2.405365 1_565
La18 O50 2.456065 1_555
La18 O47 2.461574 1_555
La18 O35 2.590791 1_565
La18 O64 2.604897 1_555
La18 O63 2.607014 1_555
La18 O24 2.760344 1_565
La18 O21 2.859399 1_565
La19 O46 2.355995 1_555
La19 O16 2.483154 1_565
La19 O45 2.507932 1_555
La19 O66 2.549327 1_555
La19 O34 2.619450 1_565
La19 O65 2.660220 1_555
La19 O22 2.680461 1_565
La19 O26 2.934426 1_564
La20 O17 2.370542 1_555
La20 O48 2.451111 1_545
La20 O33 2.504988 1_555
La20 O49 2.540001 1_545
La20 O25 2.650249 1_555
La20 O68 2.733424 1_545
La20 O67 2.739629 1_545
La20 O23 2.863937 1_555
La20 O2 3.094173 1_555
La21 O4 2.420939 1_655
La21 O70 2.459492 1_555
La21 O55 2.461187 1_555
La21 O59 2.536306 1_655
La21 O3 2.611015 1_655
La21 O66 2.612943 1_555
La21 O58 2.657748 1_555
La21 O64 2.922350 1_555
La22 O6 2.377425 1_655
La22 O69 2.407410 1_555
La22 O5 2.481980 1_655
La22 O54 2.561184 1_555
La22 O60 2.696168 1_555
La22 O67 2.716104 1_555
La22 O61 2.742247 1_555
La22 O63 2.872513 1_555
La22 O19 3.025461 1_655
La23 O71 2.428269 1_555
La23 O7 2.447214 1_655
La23 O8 2.458100 1_655
La23 O56 2.574340 1_555
La23 O62 2.619226 1_655
La23 O57 2.620988 1_555
La23 O65 2.797546 1_556
La23 O68 2.800044 1_555
Mn0 O59 1.893435 1_555
Mn0 O46 1.893439 1_545
Mn0 O4 1.987298 1_555
Mn0 O29 1.987301 1_545
Mn0 O36 1.997139 1_545
Mn0 O0 1.997162 1_555
Mn1 O1 2.010406 1_555
Mn1 O5 2.012885 1_555
Mn1 O37 2.017262 1_545
Mn1 O30 2.027194 1_545
Mn1 O60 2.051459 1_455
Mn1 O50 2.063888 1_545
Mn2 O38 2.010429 1_555
Mn2 O32 2.012885 1_555
Mn2 O2 2.017262 1_565
Mn2 O7 2.027199 1_565
Mn2 O49 2.051459 1_555
Mn2 O57 2.063892 1_465
Mn3 O28 1.969076 1_555
Mn3 O8 1.995087 1_564
Mn3 O45 2.023700 1_555
Mn3 O38 2.027703 1_554
Mn3 O62 2.035529 1_564
Mn3 O0 2.040632 1_565
Mn4 O3 1.969076 1_555
Mn4 O27 1.995091 1_545
Mn4 O58 2.023700 1_455
Mn4 O1 2.027726 1_555
Mn4 O47 2.035533 1_545
Mn4 O36 2.040632 1_545
Mn5 O31 1.888007 1_545
Mn5 O6 1.888011 1_555
Mn5 O2 2.005326 1_555
Mn5 O37 2.005349 1_545
Mn5 O48 2.025828 1_545
Mn5 O61 2.025832 1_455
Mn6 O21 1.977143 1_555
Mn6 O9 1.986437 1_555
Mn6 O18 2.013789 1_555
Mn6 O15 2.074021 1_555
Mn6 O3 2.084592 1_555
Mn6 O27 2.112252 1_555
Mn7 O18 1.985573 1_555
Mn7 O16 1.985596 1_555
Mn7 O22 2.030261 1_555
Mn7 O12 2.030265 1_555
Mn7 O4 2.106603 1_555
Mn7 O29 2.106607 1_555
Mn8 O11 1.977143 1_555
Mn8 O26 1.986432 1_554
Mn8 O16 2.013789 1_555
Mn8 O20 2.073998 1_554
Mn8 O28 2.084592 1_555
Mn8 O8 2.112247 1_554
Mn9 O19 1.870833 1_555
Mn9 O15 1.972600 1_555
Mn9 O14 2.007441 1_455
Mn9 O24 2.022773 1_555
Mn9 O30 2.038067 1_555
Mn9 O5 2.048701 1_555
Mn10 O17 1.870833 1_555
Mn10 O20 1.972623 1_555
Mn10 O23 2.007445 1_555
Mn10 O13 2.022773 1_555
Mn10 O7 2.038071 1_555
Mn10 O32 2.048701 1_555
Mn11 O68 1.969076 1_555
Mn11 O43 1.995091 1_565
Mn11 O13 2.023700 1_655
Mn11 O71 2.027726 1_555
Mn11 O23 2.035533 1_565
Mn11 O33 2.040632 1_565
Mn12 O40 1.888007 1_555
Mn12 O66 1.888011 1_545
Mn12 O70 2.005326 1_545
Mn12 O34 2.005349 1_555
Mn12 O22 2.025828 1_555
Mn12 O12 2.025832 1_645
Mn13 O41 1.969076 1_555
Mn13 O63 1.995087 1_545
Mn13 O24 2.023700 1_555
Mn13 O35 2.027703 1_555
Mn13 O14 2.035529 1_545
Mn13 O69 2.040632 1_545
Mn14 O10 1.893435 1_545
Mn14 O25 1.893439 1_555
Mn14 O67 1.987298 1_545
Mn14 O42 1.987301 1_555
Mn14 O33 1.997139 1_555
Mn14 O69 1.997162 1_545
Mn15 O71 2.010406 1_554
Mn15 O65 2.012885 1_555
Mn15 O34 2.017262 1_565
Mn15 O44 2.027194 1_564
Mn15 O11 2.051459 1_655
Mn15 O26 2.063888 1_564
Mn16 O35 2.010429 1_555
Mn16 O39 2.012885 1_555
Mn16 O70 2.017262 1_545
Mn16 O64 2.027199 1_545
Mn16 O21 2.051459 1_555
Mn16 O9 2.063892 1_645
Mn17 O60 1.977143 1_555
Mn17 O50 1.986432 1_555
Mn17 O54 2.013789 1_555
Mn17 O51 2.073998 1_555
Mn17 O41 2.084592 1_555
Mn17 O63 2.112247 1_555
Mn18 O49 1.977143 1_555
Mn18 O57 1.986437 1_555
Mn18 O52 2.013789 1_555
Mn18 O56 2.074021 1_555
Mn18 O68 2.084592 1_555
Mn18 O43 2.112252 1_555
Mn19 O53 1.870833 1_556
Mn19 O56 1.972600 1_555
Mn19 O62 2.007441 1_655
Mn19 O45 2.022773 1_556
Mn19 O44 2.038067 1_555
Mn19 O65 2.048701 1_556
Mn20 O55 1.870833 1_555
Mn20 O51 1.972623 1_555
Mn20 O47 2.007445 1_555
Mn20 O58 2.022773 1_555
Mn20 O64 2.038071 1_555
Mn20 O39 2.048701 1_555
Mn21 O52 1.985573 1_555
Mn21 O54 1.985596 1_555
Mn21 O48 2.030261 1_555
Mn21 O61 2.030265 1_555
Mn21 O67 2.106603 1_555
Mn21 O42 2.106607 1_555
