# generated using pymatgen
data_Tl3VS4
_symmetry_space_group_name_H-M   'P 1'
_cell_length_a   6.56966126
_cell_length_b   6.56966123
_cell_length_c   6.56966138
_cell_angle_alpha   109.47121787
_cell_angle_beta   109.47121772
_cell_angle_gamma   109.47122355
_symmetry_Int_Tables_number   1
_chemical_formula_structural   Tl3VS4
_chemical_formula_sum   'Tl3 V1 S4'
_cell_volume   218.27654028
_cell_formula_units_Z   1
loop_
 _symmetry_equiv_pos_site_id
 _symmetry_equiv_pos_as_xyz
  1  'x, y, z'
loop_
 _atom_site_type_symbol
 _atom_site_label
 _atom_site_symmetry_multiplicity
 _atom_site_fract_x
 _atom_site_fract_y
 _atom_site_fract_z
 _atom_site_occupancy
  Tl  Tl0  1  0.50000000  -0.00000000  0.50000000  1
  Tl  Tl1  1  0.50000000  0.50000000  -0.00000000  1
  Tl  Tl2  1  0.00000000  0.50000000  0.50000000  1
  V  V0  1  0.00000000  -0.00000000  -0.00000000  1
  S  S0  1  0.32821314  0.32821314  0.32821314  1
  S  S1  1  0.67178686  0.00000000  -0.00000000  1
  S  S2  1  0.00000000  0.67178686  -0.00000000  1
  S  S3  1  -0.00000000  -0.00000000  0.67178686  1
loop_
_geom_bond_atom_site_label_1
_geom_bond_atom_site_label_2
_geom_bond_distance
_geom_bond_site_symmetry_2
S0 V0 2.156249 1_555
S0 Tl1 3.097151 1_555
S0 Tl0 3.097151 1_555
S0 Tl2 3.097151 1_555
S1 V0 2.156249 1_655
S1 Tl1 3.097151 1_545
S1 Tl0 3.097151 1_554
S1 Tl2 3.097151 1_655
S2 V0 2.156249 1_565
S2 Tl1 3.097151 1_455
S2 Tl2 3.097151 1_554
S2 Tl0 3.097151 1_565
S3 V0 2.156249 1_556
S3 Tl1 3.097151 1_556
S3 Tl2 3.097151 1_545
S3 Tl0 3.097151 1_455
