# generated using pymatgen
data_LaZn2
_symmetry_space_group_name_H-M   'P 1'
_cell_length_a   4.67000209
_cell_length_b   5.82028438
_cell_length_c   5.82028374
_cell_angle_alpha   81.47987420
_cell_angle_beta   66.34781418
_cell_angle_gamma   66.34782703
_symmetry_Int_Tables_number   1
_chemical_formula_structural   LaZn2
_chemical_formula_sum   'La2 Zn4'
_cell_volume   132.72226310
_cell_formula_units_Z   2
loop_
 _symmetry_equiv_pos_site_id
 _symmetry_equiv_pos_as_xyz
  1  'x, y, z'
loop_
 _atom_site_type_symbol
 _atom_site_label
 _atom_site_symmetry_multiplicity
 _atom_site_fract_x
 _atom_site_fract_y
 _atom_site_fract_z
 _atom_site_occupancy
  La  La0  1  0.45794738  0.29205262  0.79205262  1
  La  La1  1  0.54205262  0.70794738  0.20794738  1
  Zn  Zn0  1  0.16381961  0.27346422  0.39889457  1
  Zn  Zn1  1  0.83618039  0.10110543  0.22653578  1
  Zn  Zn2  1  0.83618039  0.72653578  0.60110543  1
  Zn  Zn3  1  0.16381961  0.89889457  0.77346422  1
loop_
_geom_bond_atom_site_label_1
_geom_bond_atom_site_label_2
_geom_bond_distance
_geom_bond_site_symmetry_2
La0 Zn0 3.138344 1_655
La0 Zn3 3.138344 1_645
La0 Zn0 3.138351 1_555
La0 Zn3 3.138351 1_545
La0 Zn1 3.167468 1_555
La0 Zn2 3.167468 1_545
La0 Zn0 3.238324 1_556
La0 Zn3 3.238325 1_555
La0 Zn1 3.453420 1_456
La0 Zn2 3.453420 1_455
La0 Zn2 3.453426 1_555
La0 Zn1 3.453426 1_556
La0 La1 3.850244 1_555
La0 La1 3.850245 1_546
La0 La1 3.890380 1_456
La0 La1 3.890381 1_556
La1 Zn2 3.138344 1_455
La1 Zn1 3.138344 1_465
La1 Zn2 3.138351 1_555
La1 Zn1 3.138351 1_565
La1 Zn3 3.167468 1_555
La1 Zn0 3.167468 1_565
La1 Zn2 3.238324 1_554
La1 Zn1 3.238325 1_555
La1 Zn3 3.453420 1_654
La1 Zn0 3.453420 1_655
La1 Zn0 3.453426 1_555
La1 Zn3 3.453426 1_554
Zn0 Zn2 2.630098 1_455
Zn0 Zn1 2.667438 1_455
Zn0 Zn1 2.667454 1_555
Zn0 Zn3 2.845585 1_545
Zn1 Zn3 2.630097 1_644
Zn1 Zn2 2.845585 1_545
Zn2 Zn3 2.667438 1_655
Zn2 Zn3 2.667454 1_555
