# generated using pymatgen
data_MnP2O7
_symmetry_space_group_name_H-M   'P 1'
_cell_length_a   5.01601800
_cell_length_b   8.49096500
_cell_length_c   13.24753739
_cell_angle_alpha   64.25244311
_cell_angle_beta   90.00000000
_cell_angle_gamma   90.00000000
_symmetry_Int_Tables_number   1
_chemical_formula_structural   MnP2O7
_chemical_formula_sum   'Mn4 P8 O28'
_cell_volume   508.20570551
_cell_formula_units_Z   4
loop_
 _symmetry_equiv_pos_site_id
 _symmetry_equiv_pos_as_xyz
  1  'x, y, z'
loop_
 _atom_site_type_symbol
 _atom_site_label
 _atom_site_symmetry_multiplicity
 _atom_site_fract_x
 _atom_site_fract_y
 _atom_site_fract_z
 _atom_site_occupancy
  Mn  Mn0  1  0.25226700  0.73244900  0.52854000  1
  Mn  Mn1  1  0.75226700  0.26755100  0.97146000  1
  Mn  Mn2  1  0.24773300  0.73244900  0.02854000  1
  Mn  Mn3  1  0.74773300  0.26755100  0.47146000  1
  P  P0  1  0.74258000  0.83546700  0.63509800  1
  P  P1  1  0.26041400  0.31425300  0.11481100  1
  P  P2  1  0.24258000  0.16453300  0.86490200  1
  P  P3  1  0.23958600  0.31425300  0.61481100  1
  P  P4  1  0.76041400  0.68574700  0.38518900  1
  P  P5  1  0.75742000  0.83546700  0.13509800  1
  P  P6  1  0.73958600  0.68574700  0.88518900  1
  P  P7  1  0.25742000  0.16453300  0.36490200  1
  O  O0  1  0.45297300  0.77316500  0.63901000  1
  O  O1  1  0.94361200  0.71050200  0.62036200  1
  O  O2  1  0.81893300  0.51205300  0.88468000  1
  O  O3  1  0.55344900  0.31044600  0.08237300  1
  O  O4  1  0.22010400  0.17099200  0.24255800  1
  O  O5  1  0.19955700  0.97670000  0.44587900  1
  O  O6  1  0.07801500  0.24571400  0.05097600  1
  O  O7  1  0.31893300  0.48794700  0.61532000  1
  O  O8  1  0.44361200  0.28949800  0.87963800  1
  O  O9  1  0.95297300  0.22683500  0.86099000  1
  O  O10  1  0.57801500  0.75428600  0.44902400  1
  O  O11  1  0.69955700  0.02330000  0.05412100  1
  O  O12  1  0.72010400  0.82900800  0.25744200  1
  O  O13  1  0.94655100  0.31044600  0.58237300  1
  O  O14  1  0.05344900  0.68955400  0.41762700  1
  O  O15  1  0.27989600  0.17099200  0.74255800  1
  O  O16  1  0.30044300  0.97670000  0.94587900  1
  O  O17  1  0.42198500  0.24571400  0.55097600  1
  O  O18  1  0.04702700  0.77316500  0.13901000  1
  O  O19  1  0.55638800  0.71050200  0.12036200  1
  O  O20  1  0.68106700  0.51205300  0.38468000  1
  O  O21  1  0.92198500  0.75428600  0.94902400  1
  O  O22  1  0.80044300  0.02330000  0.55412100  1
  O  O23  1  0.77989600  0.82900800  0.75744200  1
  O  O24  1  0.44655100  0.68955400  0.91762700  1
  O  O25  1  0.18106700  0.48794700  0.11532000  1
  O  O26  1  0.05638800  0.28949800  0.37963800  1
  O  O27  1  0.54702700  0.22683500  0.36099000  1
loop_
_geom_bond_atom_site_label_1
_geom_bond_atom_site_label_2
_geom_bond_distance
_geom_bond_site_symmetry_2
Mn0 O5 1.896600 1_555
Mn0 O10 1.908962 1_555
Mn0 O7 1.915695 1_555
Mn0 O0 1.927259 1_555
Mn0 O1 1.927286 1_455
Mn0 O14 1.936770 1_555
Mn1 O11 1.896600 1_556
Mn1 O6 1.908962 1_656
Mn1 O2 1.915695 1_555
Mn1 O9 1.927259 1_555
Mn1 O8 1.927286 1_555
Mn1 O3 1.936770 1_556
Mn2 O16 1.896600 1_554
Mn2 O21 1.908962 1_454
Mn2 O25 1.915695 1_555
Mn2 O18 1.927259 1_555
Mn2 O19 1.927286 1_555
Mn2 O24 1.936770 1_554
Mn3 O22 1.896600 1_555
Mn3 O17 1.908962 1_555
Mn3 O20 1.915695 1_555
Mn3 O27 1.927259 1_555
Mn3 O26 1.927286 1_655
Mn3 O13 1.936770 1_555
O0 P0 1.539147 1_555
O1 P0 1.536483 1_555
O2 P6 1.530430 1_555
O3 P1 1.535673 1_555
O4 P7 1.608623 1_555
O4 P1 1.611219 1_555
O5 P7 1.514008 1_565
O6 P1 1.522651 1_555
O7 P3 1.530430 1_555
O8 P2 1.536483 1_555
O9 P2 1.539147 1_655
O10 P4 1.522651 1_555
O11 P5 1.514008 1_545
O12 P5 1.608623 1_555
O12 P4 1.611219 1_555
O13 P3 1.535673 1_655
O14 P4 1.535673 1_455
O15 P2 1.608623 1_555
O15 P3 1.611219 1_555
O16 P2 1.514008 1_565
O17 P3 1.522651 1_555
O18 P5 1.539147 1_455
O19 P5 1.536483 1_555
O20 P4 1.530430 1_555
O21 P6 1.522651 1_555
O22 P0 1.514008 1_545
O23 P0 1.608623 1_555
O23 P6 1.611219 1_555
O24 P6 1.535673 1_555
O25 P1 1.530430 1_555
O26 P7 1.536483 1_555
O27 P7 1.539147 1_555
