# generated using pymatgen
data_Cs10Si7O9
_symmetry_space_group_name_H-M   'P 1'
_cell_length_a   8.30661000
_cell_length_b   15.22117500
_cell_length_c   23.91131240
_cell_angle_alpha   86.25654755
_cell_angle_beta   90.00000000
_cell_angle_gamma   90.00000000
_symmetry_Int_Tables_number   1
_chemical_formula_structural   Cs10Si7O9
_chemical_formula_sum   'Cs40 Si28 O36'
_cell_volume   3016.80895490
_cell_formula_units_Z   4
loop_
 _symmetry_equiv_pos_site_id
 _symmetry_equiv_pos_as_xyz
  1  'x, y, z'
loop_
 _atom_site_type_symbol
 _atom_site_label
 _atom_site_symmetry_multiplicity
 _atom_site_fract_x
 _atom_site_fract_y
 _atom_site_fract_z
 _atom_site_occupancy
  Cs  Cs0  1  0.61795800  0.15464400  0.29771800  1
  Cs  Cs1  1  0.36293700  0.62291900  0.96166100  1
  Cs  Cs2  1  0.63706300  0.62291900  0.46166100  1
  Cs  Cs3  1  0.62427800  0.87896400  0.54407600  1
  Cs  Cs4  1  0.54153600  0.91043900  0.85043200  1
  Cs  Cs5  1  0.37572200  0.12103600  0.45592400  1
  Cs  Cs6  1  0.47344200  0.59704900  0.65368900  1
  Cs  Cs7  1  0.63255800  0.35131000  0.69008300  1
  Cs  Cs8  1  0.36744200  0.35131000  0.19008300  1
  Cs  Cs9  1  0.99684300  0.48222900  0.90710800  1
  Cs  Cs10  1  0.52655800  0.40295100  0.34631100  1
  Cs  Cs11  1  0.61795800  0.84535600  0.20228200  1
  Cs  Cs12  1  0.38204200  0.84535600  0.70228200  1
  Cs  Cs13  1  0.45846400  0.08956100  0.14956800  1
  Cs  Cs14  1  0.99684300  0.51777100  0.59289200  1
  Cs  Cs15  1  0.03822000  0.72239600  0.17975800  1
  Cs  Cs16  1  0.04124000  0.96843500  0.59395300  1
  Cs  Cs17  1  0.95876000  0.96843500  0.09395300  1
  Cs  Cs18  1  0.03773300  0.78333800  0.84142300  1
  Cs  Cs19  1  0.63255800  0.64869000  0.80991700  1
  Cs  Cs20  1  0.00315700  0.51777100  0.09289200  1
  Cs  Cs21  1  0.52655800  0.59704900  0.15368900  1
  Cs  Cs22  1  0.03773300  0.21666200  0.65857700  1
  Cs  Cs23  1  0.47344200  0.40295100  0.84631100  1
  Cs  Cs24  1  0.37572200  0.87896400  0.04407600  1
  Cs  Cs25  1  0.96178000  0.72239600  0.67975800  1
  Cs  Cs26  1  0.36293700  0.37708100  0.53833900  1
  Cs  Cs27  1  0.54153600  0.08956100  0.64956800  1
  Cs  Cs28  1  0.03822000  0.27760400  0.32024200  1
  Cs  Cs29  1  0.45846400  0.91043900  0.35043200  1
  Cs  Cs30  1  0.62427800  0.12103600  0.95592400  1
  Cs  Cs31  1  0.00315700  0.48222900  0.40710800  1
  Cs  Cs32  1  0.36744200  0.64869000  0.30991700  1
  Cs  Cs33  1  0.96178000  0.27760400  0.82024200  1
  Cs  Cs34  1  0.96226700  0.78333800  0.34142300  1
  Cs  Cs35  1  0.04124000  0.03156500  0.90604700  1
  Cs  Cs36  1  0.38204200  0.15464400  0.79771800  1
  Cs  Cs37  1  0.63706300  0.37708100  0.03833900  1
  Cs  Cs38  1  0.96226700  0.21666200  0.15857700  1
  Cs  Cs39  1  0.95876000  0.03156500  0.40604700  1
  Si  Si0  1  0.01329400  0.75272000  0.00766600  1
  Si  Si1  1  0.22697200  0.41467400  0.71591200  1
  Si  Si2  1  0.78271900  0.83857500  0.97199300  1
  Si  Si3  1  0.98670600  0.75272000  0.50766600  1
  Si  Si4  1  0.24236800  0.74602100  0.55739600  1
  Si  Si5  1  0.98670600  0.24728000  0.99233400  1
  Si  Si6  1  0.21697600  0.90954500  0.22246900  1
  Si  Si7  1  0.78271900  0.16142500  0.52800700  1
  Si  Si8  1  0.77302800  0.58532600  0.28408800  1
  Si  Si9  1  0.90141300  0.50000000  0.75000000  1
  Si  Si10  1  0.09858700  0.50000000  0.25000000  1
  Si  Si11  1  0.78302400  0.90954500  0.72246900  1
  Si  Si12  1  0.21728100  0.83857500  0.47199300  1
  Si  Si13  1  0.21728100  0.16142500  0.02800700  1
  Si  Si14  1  0.78539100  0.32242700  0.53185700  1
  Si  Si15  1  0.78302400  0.09045500  0.77753100  1
  Si  Si16  1  0.78539100  0.67757300  0.96814300  1
  Si  Si17  1  0.21460900  0.67757300  0.46814300  1
  Si  Si18  1  0.24236800  0.25397900  0.94260400  1
  Si  Si19  1  0.21697600  0.09045500  0.27753100  1
  Si  Si20  1  0.01329400  0.24728000  0.49233400  1
  Si  Si21  1  0.21460900  0.32242700  0.03185700  1
  Si  Si22  1  0.77302800  0.41467400  0.21591200  1
  Si  Si23  1  0.10914700  0.00000000  0.75000000  1
  Si  Si24  1  0.75763200  0.74602100  0.05739600  1
  Si  Si25  1  0.22697200  0.58532600  0.78408800  1
  Si  Si26  1  0.89085300  0.00000000  0.25000000  1
  Si  Si27  1  0.75763200  0.25397900  0.44260400  1
  O  O0  1  0.01497500  0.07829900  0.27356700  1
  O  O1  1  0.21254500  0.04215900  0.69727100  1
  O  O2  1  0.69793600  0.50000000  0.25000000  1
  O  O3  1  0.71830500  0.42689800  0.15057300  1
  O  O4  1  0.30206400  0.50000000  0.75000000  1
  O  O5  1  0.29392000  0.00000000  0.25000000  1
  O  O6  1  0.21254500  0.95784100  0.80272900  1
  O  O7  1  0.79775300  0.45052500  0.80013900  1
  O  O8  1  0.71640500  0.67657900  0.25139700  1
  O  O9  1  0.71830500  0.57310200  0.34942700  1
  O  O10  1  0.71640500  0.32342100  0.24860300  1
  O  O11  1  0.28169500  0.57310200  0.84942700  1
  O  O12  1  0.27205500  0.90942500  0.15735600  1
  O  O13  1  0.27108900  0.82349400  0.26163200  1
  O  O14  1  0.98502500  0.07829900  0.77356700  1
  O  O15  1  0.98502500  0.92170100  0.72643300  1
  O  O16  1  0.97507100  0.42608500  0.22134900  1
  O  O17  1  0.28169500  0.42689800  0.65057300  1
  O  O18  1  0.27205500  0.09057500  0.34264400  1
  O  O19  1  0.70608000  0.00000000  0.75000000  1
  O  O20  1  0.02492900  0.42608500  0.72134900  1
  O  O21  1  0.28359500  0.32342100  0.74860300  1
  O  O22  1  0.02492900  0.57391500  0.77865100  1
  O  O23  1  0.20224700  0.45052500  0.30013900  1
  O  O24  1  0.79775300  0.54947500  0.69986100  1
  O  O25  1  0.27108900  0.17650600  0.23836800  1
  O  O26  1  0.72794500  0.90942500  0.65735600  1
  O  O27  1  0.78745500  0.04215900  0.19727100  1
  O  O28  1  0.78745500  0.95784100  0.30272900  1
  O  O29  1  0.28359500  0.67657900  0.75139700  1
  O  O30  1  0.20224700  0.54947500  0.19986100  1
  O  O31  1  0.72891100  0.17650600  0.73836800  1
  O  O32  1  0.01497500  0.92170100  0.22643300  1
  O  O33  1  0.97507100  0.57391500  0.27865100  1
  O  O34  1  0.72794500  0.09057500  0.84264400  1
  O  O35  1  0.72891100  0.82349400  0.76163200  1
loop_
_geom_bond_atom_site_label_1
_geom_bond_atom_site_label_2
_geom_bond_distance
_geom_bond_site_symmetry_2
Cs0 O10 2.872922 1_555
Cs0 Si27 4.039603 1_555
Cs1 O11 2.915160 1_555
Cs1 Si16 3.612080 1_555
Cs1 Si0 3.719221 1_556
Cs2 O9 2.915160 1_555
Cs2 Si17 3.612080 1_555
Cs2 Si3 3.719221 1_555
Cs3 O26 2.908162 1_555
Cs3 Si3 3.705711 1_555
Cs3 Si4 3.765104 1_555
Cs3 Si12 3.862211 1_555
Cs4 O35 3.008218 1_555
Cs4 O19 3.010991 1_565
Cs4 O6 3.030244 1_555
Cs4 O34 3.143811 1_565
Cs4 Si2 3.639205 1_555
Cs5 O18 2.908162 1_555
Cs5 Si20 3.705711 1_555
Cs5 Si27 3.765104 1_555
Cs5 Si7 3.862211 1_555
Cs6 O24 2.982632 1_555
Cs6 O4 3.011297 1_555
Cs6 O17 3.045526 1_555
Cs6 O29 3.127301 1_555
Cs6 Si4 3.666834 1_555
Cs7 O31 2.941412 1_555
Cs7 O21 3.234673 1_555
Cs7 O17 3.250929 1_555
Cs7 O24 3.335836 1_555
Cs7 O7 3.407013 1_555
Cs7 O20 3.548000 1_655
Cs7 Si14 4.041808 1_555
Cs8 O25 2.941412 1_555
Cs8 O10 3.234673 1_555
Cs8 O3 3.250929 1_555
Cs8 O30 3.335836 1_555
Cs8 O23 3.407013 1_555
Cs8 O16 3.548000 1_455
Cs8 Si21 4.041808 1_555
Cs9 O11 3.027387 1_655
Cs9 O7 3.109850 1_555
Cs9 Si16 3.823947 1_555
Cs9 Si5 3.999695 1_555
Cs9 Si18 4.070027 1_655
Cs9 Si21 4.139916 1_656
Cs10 O23 2.982632 1_555
Cs10 O2 3.011297 1_555
Cs10 O9 3.045526 1_555
Cs10 O10 3.127301 1_555
Cs10 Si27 3.666834 1_555
Cs11 O8 2.872922 1_555
Cs11 Si24 4.039603 1_555
Cs12 O29 2.872922 1_555
Cs12 Si4 4.039603 1_555
Cs13 O25 3.008218 1_555
Cs13 O5 3.010991 1_555
Cs13 O27 3.030244 1_555
Cs13 O12 3.143811 1_545
Cs13 Si13 3.639205 1_555
Cs14 O17 3.027387 1_655
Cs14 O24 3.109850 1_555
Cs14 Si14 3.823947 1_555
Cs14 Si3 3.999695 1_555
Cs14 Si4 4.070027 1_655
Cs14 Si17 4.139916 1_655
Cs15 O30 2.974900 1_555
Cs15 O33 3.205743 1_455
Cs15 O13 3.214925 1_555
Cs15 O8 3.226550 1_455
Cs15 O32 3.305760 1_555
Cs15 O12 3.459034 1_555
Cs15 Si24 3.739622 1_455
Cs15 Si0 4.115906 1_555
Cs16 O26 3.114474 1_455
Cs16 O1 3.122387 1_565
Cs16 O15 3.234902 1_455
Cs16 Si7 3.888728 1_465
Cs16 Si12 3.911830 1_555
Cs16 Si4 3.924624 1_555
Cs16 Si3 4.015930 1_455
Cs17 O12 3.114474 1_655
Cs17 O27 3.122387 1_565
Cs17 O32 3.234902 1_655
Cs17 Si13 3.888728 1_665
Cs17 Si2 3.911830 1_554
Cs17 Si24 3.924624 1_555
Cs17 Si0 4.015930 1_655
Cs18 O6 3.114290 1_555
Cs18 O35 3.231410 1_455
Cs18 O15 3.380987 1_455
Cs18 O29 3.449949 1_555
Cs18 O22 3.612500 1_555
Cs18 O11 3.782010 1_555
Cs18 Si2 3.909523 1_455
Cs18 Si16 3.940753 1_455
Cs18 Si0 3.977164 1_556
Cs19 O35 2.941412 1_555
Cs19 O29 3.234673 1_555
Cs19 O11 3.250929 1_555
Cs19 O7 3.335836 1_555
Cs19 O24 3.407013 1_555
Cs19 O22 3.548000 1_655
Cs19 Si16 4.041808 1_555
Cs20 O3 3.027387 1_455
Cs20 O30 3.109850 1_555
Cs20 Si21 3.823947 1_555
Cs20 Si0 3.999695 1_555
Cs20 Si24 4.070027 1_455
Cs20 Si16 4.139916 1_454
Cs21 O30 2.982632 1_555
Cs21 O2 3.011297 1_555
Cs21 O3 3.045526 1_555
Cs21 O8 3.127301 1_555
Cs21 Si24 3.666834 1_555
Cs22 O1 3.114290 1_555
Cs22 O31 3.231410 1_455
Cs22 O14 3.380987 1_455
Cs22 O21 3.449949 1_555
Cs22 O20 3.612500 1_555
Cs22 O17 3.782010 1_555
Cs22 Si7 3.909523 1_455
Cs22 Si14 3.940753 1_455
Cs22 Si20 3.977164 1_555
Cs23 O7 2.982632 1_555
Cs23 O4 3.011297 1_555
Cs23 O11 3.045526 1_555
Cs23 O21 3.127301 1_555
Cs23 Si18 3.666834 1_555
Cs24 O12 2.908162 1_555
Cs24 Si0 3.705711 1_555
Cs24 Si24 3.765104 1_555
Cs24 Si2 3.862211 1_554
Cs25 O24 2.974900 1_555
Cs25 O22 3.205743 1_655
Cs25 O35 3.214925 1_555
Cs25 O29 3.226550 1_655
Cs25 O15 3.305760 1_555
Cs25 O26 3.459034 1_555
Cs25 Si4 3.739622 1_655
Cs25 Si3 4.115906 1_555
Cs26 O17 2.915160 1_555
Cs26 Si14 3.612080 1_555
Cs26 Si20 3.719221 1_555
Cs27 O31 3.008218 1_555
Cs27 O19 3.010991 1_555
Cs27 O1 3.030244 1_555
Cs27 O26 3.143811 1_545
Cs27 Si7 3.639205 1_555
Cs28 O23 2.974900 1_555
Cs28 O16 3.205743 1_455
Cs28 O25 3.214925 1_555
Cs28 O10 3.226550 1_455
Cs28 O0 3.305760 1_555
Cs28 O18 3.459034 1_555
Cs28 Si27 3.739622 1_455
Cs28 Si20 4.115906 1_555
Cs29 O13 3.008218 1_555
Cs29 O5 3.010991 1_565
Cs29 O28 3.030244 1_555
Cs29 O18 3.143811 1_565
Cs29 Si12 3.639205 1_555
Cs30 O34 2.908162 1_555
Cs30 Si5 3.705711 1_555
Cs30 Si18 3.765104 1_555
Cs30 Si13 3.862211 1_556
Cs31 O9 3.027387 1_455
Cs31 O23 3.109850 1_555
Cs31 Si17 3.823947 1_555
Cs31 Si20 3.999695 1_555
Cs31 Si27 4.070027 1_455
Cs31 Si14 4.139916 1_455
Cs32 O13 2.941412 1_555
Cs32 O8 3.234673 1_555
Cs32 O9 3.250929 1_555
Cs32 O23 3.335836 1_555
Cs32 O30 3.407013 1_555
Cs32 O33 3.548000 1_455
Cs32 Si17 4.041808 1_555
Cs33 O7 2.974900 1_555
Cs33 O20 3.205743 1_655
Cs33 O31 3.214925 1_555
Cs33 O21 3.226550 1_655
Cs33 O14 3.305760 1_555
Cs33 O34 3.459034 1_555
Cs33 Si18 3.739622 1_655
Cs33 Si5 4.115906 1_555
Cs34 O28 3.114290 1_555
Cs34 O13 3.231410 1_655
Cs34 O32 3.380987 1_655
Cs34 O8 3.449949 1_555
Cs34 O33 3.612500 1_555
Cs34 O9 3.782010 1_555
Cs34 Si12 3.909523 1_655
Cs34 Si17 3.940753 1_655
Cs34 Si3 3.977164 1_555
Cs35 O34 3.114474 1_455
Cs35 O6 3.122387 1_545
Cs35 O14 3.234902 1_455
Cs35 Si2 3.888728 1_445
Cs35 Si13 3.911830 1_556
Cs35 Si18 3.924624 1_555
Cs35 Si5 4.015930 1_455
Cs36 O21 2.872922 1_555
Cs36 Si18 4.039603 1_555
Cs37 O3 2.915160 1_555
Cs37 Si21 3.612080 1_555
Cs37 Si5 3.719221 1_554
Cs38 O27 3.114290 1_555
Cs38 O25 3.231410 1_655
Cs38 O0 3.380987 1_655
Cs38 O10 3.449949 1_555
Cs38 O16 3.612500 1_555
Cs38 O3 3.782010 1_555
Cs38 Si13 3.909523 1_655
Cs38 Si21 3.940753 1_655
Cs38 Si5 3.977164 1_554
Cs39 O18 3.114474 1_655
Cs39 O28 3.122387 1_545
Cs39 O0 3.234902 1_655
Cs39 Si12 3.888728 1_645
Cs39 Si7 3.911830 1_555
Cs39 Si27 3.924624 1_555
Cs39 Si20 4.015930 1_655
Si0 Si24 2.432814 1_455
Si0 Si16 2.434427 1_454
Si0 Si2 2.440934 1_454
Si2 Si24 2.413006 1_556
Si3 Si4 2.432814 1_655
Si12 Si4 2.413006 1_555
Si12 Si3 2.440934 1_455
Si12 Si17 2.458467 1_555
Si13 Si18 2.413006 1_554
Si13 Si5 2.440934 1_454
Si13 Si21 2.458467 1_555
Si14 Si20 2.434427 1_655
Si14 Si27 2.446140 1_555
Si14 Si7 2.458467 1_555
Si16 Si24 2.446140 1_556
Si16 Si2 2.458467 1_555
Si17 Si3 2.434427 1_455
Si17 Si4 2.446140 1_555
Si18 Si5 2.432814 1_455
Si18 Si21 2.446140 1_556
Si20 Si27 2.432814 1_455
Si20 Si7 2.440934 1_455
Si21 Si5 2.434427 1_454
Si27 Si7 2.413006 1_555
O0 Si19 1.691450 1_555
O0 Si26 1.699609 1_455
O1 Si23 1.622805 1_555
O2 Si22 1.696602 1_555
O2 Si8 1.696602 1_555
O3 Si22 1.626099 1_555
O4 Si25 1.696602 1_555
O4 Si1 1.696602 1_555
O5 Si6 1.689936 1_545
O5 Si19 1.689936 1_555
O6 Si23 1.622805 1_565
O7 Si9 1.621106 1_555
O8 Si8 1.618561 1_555
O9 Si8 1.626099 1_555
O10 Si22 1.618561 1_555
O11 Si25 1.626099 1_555
O12 Si6 1.622884 1_555
O13 Si6 1.623075 1_555
O14 Si15 1.691450 1_555
O14 Si23 1.699609 1_655
O15 Si11 1.691450 1_555
O15 Si23 1.699609 1_665
O16 Si22 1.693128 1_555
O16 Si10 1.699544 1_655
O17 Si1 1.626099 1_555
O18 Si19 1.622884 1_555
O19 Si11 1.689936 1_545
O19 Si15 1.689936 1_555
O20 Si1 1.693128 1_555
O20 Si9 1.699544 1_455
O21 Si1 1.618561 1_555
O22 Si25 1.693128 1_555
O22 Si9 1.699544 1_455
O23 Si10 1.621106 1_555
O24 Si9 1.621106 1_555
O25 Si19 1.623075 1_555
O26 Si11 1.622884 1_555
O27 Si26 1.622805 1_555
O28 Si26 1.622805 1_565
O29 Si25 1.618561 1_555
O30 Si10 1.621106 1_555
O31 Si15 1.623075 1_555
O32 Si6 1.691450 1_555
O32 Si26 1.699609 1_465
O33 Si8 1.693128 1_555
O33 Si10 1.699544 1_655
O34 Si15 1.622884 1_555
O35 Si11 1.623075 1_555
