# generated using pymatgen
data_KNd(WO4)2
_symmetry_space_group_name_H-M   'P 1'
_cell_length_a   7.44020800
_cell_length_b   7.44020800
_cell_length_c   7.51465862
_cell_angle_alpha   66.12152875
_cell_angle_beta   66.12152875
_cell_angle_gamma   93.11897810
_symmetry_Int_Tables_number   1
_chemical_formula_structural   KNd(WO4)2
_chemical_formula_sum   'K2 Nd2 W4 O16'
_cell_volume   335.76217683
_cell_formula_units_Z   2
loop_
 _symmetry_equiv_pos_site_id
 _symmetry_equiv_pos_as_xyz
  1  'x, y, z'
loop_
 _atom_site_type_symbol
 _atom_site_label
 _atom_site_symmetry_multiplicity
 _atom_site_fract_x
 _atom_site_fract_y
 _atom_site_fract_z
 _atom_site_occupancy
  K  K0  1  0.68889152  0.68889152  0.47378747  1
  K  K1  1  0.31110848  0.31110848  0.52621253  1
  Nd  Nd0  1  0.30390905  0.69609095  0.00000000  1
  Nd  Nd1  1  0.69609095  0.30390905  0.00000000  1
  W  W0  1  0.83564886  0.16435114  0.50000000  1
  W  W1  1  0.20168059  0.20168059  0.05556025  1
  W  W2  1  0.79831941  0.79831941  0.94443975  1
  W  W3  1  0.16435114  0.83564886  0.50000000  1
  O  O0  1  0.21852033  0.68981780  0.35482048  1
  O  O1  1  0.42485365  0.42485365  0.89421238  1
  O  O2  1  0.34509574  0.09342989  0.26306009  1
  O  O3  1  0.98432112  0.98432112  0.34211741  1
  O  O4  1  0.31018220  0.78147967  0.64517952  1
  O  O5  1  0.65490426  0.90657011  0.73693991  1
  O  O6  1  0.95802095  0.70292495  0.06623561  1
  O  O7  1  0.01567888  0.01567888  0.65788259  1
  O  O8  1  0.90657011  0.65490426  0.73693991  1
  O  O9  1  0.78147967  0.31018220  0.64517952  1
  O  O10  1  0.09342989  0.34509574  0.26306009  1
  O  O11  1  0.57514635  0.57514635  0.10578762  1
  O  O12  1  0.04197905  0.29707505  0.93376439  1
  O  O13  1  0.70292495  0.95802095  0.06623561  1
  O  O14  1  0.29707505  0.04197905  0.93376439  1
  O  O15  1  0.68981780  0.21852033  0.35482048  1
loop_
_geom_bond_atom_site_label_1
_geom_bond_atom_site_label_2
_geom_bond_distance
_geom_bond_site_symmetry_2
K0 O3 2.568002 1_555
K0 O1 2.688951 1_555
K0 O9 2.839744 1_555
K0 O4 2.839744 1_555
K0 O6 2.855438 1_555
K0 O13 2.855438 1_555
K0 O8 2.971548 1_555
K0 O5 2.971548 1_555
K1 O7 2.568002 1_555
K1 O11 2.688951 1_555
K1 O0 2.839744 1_555
K1 O15 2.839744 1_555
K1 O12 2.855438 1_555
K1 O14 2.855438 1_555
K1 O10 2.971548 1_555
K1 O2 2.971548 1_555
Nd0 O14 2.422979 1_564
Nd0 O6 2.422979 1_455
Nd0 O4 2.457609 1_554
Nd0 O0 2.457609 1_555
Nd0 O5 2.459517 1_554
Nd0 O10 2.459517 1_555
Nd0 O1 2.536050 1_554
Nd0 O11 2.536050 1_555
Nd1 O12 2.422979 1_654
Nd1 O13 2.422979 1_545
Nd1 O9 2.457609 1_554
Nd1 O15 2.457609 1_555
Nd1 O2 2.459517 1_555
Nd1 O8 2.459517 1_554
Nd1 O1 2.536050 1_554
Nd1 O11 2.536050 1_555
O0 W3 1.783216 1_555
O1 W1 1.850522 1_556
O2 W3 1.916587 1_545
O2 W1 2.154632 1_555
O3 W1 1.986043 1_665
O3 W0 2.193327 1_565
O3 W3 2.193327 1_655
O4 W3 1.783216 1_555
O5 W0 1.916587 1_565
O5 W2 2.154632 1_555
O6 W2 1.788741 1_554
O7 W2 1.986043 1_445
O7 W3 2.193327 1_545
O7 W0 2.193327 1_455
O8 W3 1.916587 1_655
O8 W2 2.154632 1_555
O9 W0 1.783216 1_555
O10 W0 1.916587 1_455
O10 W1 2.154632 1_555
O11 W2 1.850522 1_554
O12 W1 1.788741 1_556
O13 W2 1.788741 1_554
O14 W1 1.788741 1_556
O15 W0 1.783216 1_555
