# generated using pymatgen
data_CuI
_symmetry_space_group_name_H-M   'P 1'
_cell_length_a   4.13059717
_cell_length_b   4.13059693
_cell_length_c   22.36689185
_cell_angle_alpha   90.00000000
_cell_angle_beta   90.00000000
_cell_angle_gamma   120.00000183
_symmetry_Int_Tables_number   1
_chemical_formula_structural   CuI
_chemical_formula_sum   'Cu6 I6'
_cell_volume   330.49273932
_cell_formula_units_Z   6
loop_
 _symmetry_equiv_pos_site_id
 _symmetry_equiv_pos_as_xyz
  1  'x, y, z'
loop_
 _atom_site_type_symbol
 _atom_site_label
 _atom_site_symmetry_multiplicity
 _atom_site_fract_x
 _atom_site_fract_y
 _atom_site_fract_z
 _atom_site_occupancy
  Cu  Cu0  1  -0.00000000  0.00000000  0.77981086  1
  Cu  Cu1  1  0.33333300  0.66666700  0.05345725  1
  Cu  Cu2  1  -0.00000000  0.00000000  0.44694154  1
  Cu  Cu3  1  -0.00000000  0.00000000  0.11358403  1
  Cu  Cu4  1  0.66666700  0.33333300  0.71870656  1
  Cu  Cu5  1  0.33333300  0.66666700  0.38682769  1
  I  I0  1  0.00000000  0.00000000  0.33204828  1
  I  I1  1  -0.00000000  0.00000000  0.66451174  1
  I  I2  1  0.33333300  0.66666700  0.16872841  1
  I  I3  1  0.33333300  0.66666700  0.50205739  1
  I  I4  1  0.66666700  0.33333300  0.83455067  1
  I  I5  1  0.00000000  0.00000000  0.99874657  1
loop_
_geom_bond_atom_site_label_1
_geom_bond_atom_site_label_2
_geom_bond_distance
_geom_bond_site_symmetry_2
Cu0 I1 2.578883 1_555
Cu0 I4 2.680732 1_455
Cu0 I4 2.680735 1_445
Cu0 I4 2.680735 1_555
Cu1 I2 2.578258 1_555
Cu1 I5 2.680434 1_564
Cu1 I5 2.680437 1_554
Cu1 I5 2.680437 1_664
Cu2 I0 2.569805 1_555
Cu2 I3 2.684583 1_545
Cu2 I3 2.684587 1_555
Cu2 I3 2.684587 1_445
Cu3 I5 2.568557 1_554
Cu3 I2 2.684877 1_545
Cu3 I2 2.684880 1_555
Cu3 I2 2.684880 1_445
Cu4 I4 2.591073 1_555
Cu4 I1 2.675186 1_655
Cu4 I1 2.675189 1_665
Cu4 I1 2.675189 1_555
Cu5 I3 2.577330 1_555
Cu5 I0 2.681136 1_565
Cu5 I0 2.681139 1_555
Cu5 I0 2.681139 1_665
