# generated using pymatgen
data_CsNdHgSe3
_symmetry_space_group_name_H-M   'P 1'
_cell_length_a   4.40936400
_cell_length_b   8.47573609
_cell_length_c   11.41265500
_cell_angle_alpha   90.00000000
_cell_angle_beta   90.00000000
_cell_angle_gamma   105.07699731
_symmetry_Int_Tables_number   1
_chemical_formula_structural   CsNdHgSe3
_chemical_formula_sum   'Cs2 Nd2 Hg2 Se6'
_cell_volume   411.83859261
_cell_formula_units_Z   2
loop_
 _symmetry_equiv_pos_site_id
 _symmetry_equiv_pos_as_xyz
  1  'x, y, z'
loop_
 _atom_site_type_symbol
 _atom_site_label
 _atom_site_symmetry_multiplicity
 _atom_site_fract_x
 _atom_site_fract_y
 _atom_site_fract_z
 _atom_site_occupancy
  Cs  Cs0  1  0.25635700  0.51271400  0.25000000  1
  Cs  Cs1  1  0.74364300  0.48728600  0.75000000  1
  Nd  Nd0  1  0.00000000  0.00000000  0.00000000  1
  Nd  Nd1  1  0.00000000  0.00000000  0.50000000  1
  Hg  Hg0  1  0.45606900  0.91213800  0.75000000  1
  Hg  Hg1  1  0.54393100  0.08786200  0.25000000  1
  Se  Se0  1  0.62135500  0.24271000  0.45292100  1
  Se  Se1  1  0.93873500  0.87747000  0.25000000  1
  Se  Se2  1  0.06126500  0.12253000  0.75000000  1
  Se  Se3  1  0.37864500  0.75729000  0.54707900  1
  Se  Se4  1  0.62135500  0.24271000  0.04707900  1
  Se  Se5  1  0.37864500  0.75729000  0.95292100  1
loop_
_geom_bond_atom_site_label_1
_geom_bond_atom_site_label_2
_geom_bond_distance
_geom_bond_site_symmetry_2
Cs0 Se1 3.711034 1_555
Cs0 Se1 3.711034 1_455
Cs0 Se0 3.886730 1_455
Cs0 Se0 3.886730 1_555
Cs0 Se4 3.886730 1_455
Cs0 Se4 3.886730 1_555
Cs0 Se5 3.937212 1_554
Cs0 Se3 3.937212 1_555
Cs1 Se2 3.711034 1_655
Cs1 Se2 3.711034 1_555
Cs1 Se3 3.886730 1_555
Cs1 Se5 3.886730 1_555
Cs1 Se5 3.886730 1_655
Cs1 Se3 3.886730 1_655
Cs1 Se0 3.937212 1_555
Cs1 Se4 3.937212 1_556
Nd0 Se5 3.015763 1_544
Nd0 Se5 3.015763 1_444
Nd0 Se4 3.015763 1_455
Nd0 Se4 3.015763 1_555
Nd0 Se2 3.024255 1_554
Nd0 Se1 3.024255 1_445
Nd1 Se3 3.015763 1_545
Nd1 Se3 3.015763 1_445
Nd1 Se0 3.015763 1_555
Nd1 Se0 3.015763 1_455
Nd1 Se2 3.024255 1_555
Nd1 Se1 3.024255 1_445
Hg0 Se5 2.639928 1_555
Hg0 Se3 2.639928 1_555
Hg0 Se2 2.797386 1_665
Hg0 Se2 2.797386 1_565
Hg1 Se4 2.639928 1_555
Hg1 Se0 2.639928 1_555
Hg1 Se1 2.797386 1_545
Hg1 Se1 2.797386 1_445
