# generated using pymatgen
data_DyAl3
_symmetry_space_group_name_H-M   'P 1'
_cell_length_a   6.08151389
_cell_length_b   6.08151335
_cell_length_c   9.51327587
_cell_angle_alpha   90.00000000
_cell_angle_beta   90.00000000
_cell_angle_gamma   119.99998235
_symmetry_Int_Tables_number   1
_chemical_formula_structural   DyAl3
_chemical_formula_sum   'Dy4 Al12'
_cell_volume   304.70821809
_cell_formula_units_Z   4
loop_
 _symmetry_equiv_pos_site_id
 _symmetry_equiv_pos_as_xyz
  1  'x, y, z'
loop_
 _atom_site_type_symbol
 _atom_site_label
 _atom_site_symmetry_multiplicity
 _atom_site_fract_x
 _atom_site_fract_y
 _atom_site_fract_z
 _atom_site_occupancy
  Dy  Dy0  1  0.00000000  0.00000000  0.50000000  1
  Dy  Dy1  1  0.66666700  0.33333300  0.75000000  1
  Dy  Dy2  1  0.33333300  0.66666700  0.25000000  1
  Dy  Dy3  1  0.00000000  0.00000000  0.00000000  1
  Al  Al0  1  0.18341889  0.81658111  0.75000000  1
  Al  Al1  1  0.63316223  0.81658111  0.75000000  1
  Al  Al2  1  0.00000000  0.50000000  0.00000000  1
  Al  Al3  1  0.50000000  0.50000000  0.00000000  1
  Al  Al4  1  0.81658111  0.63316223  0.25000000  1
  Al  Al5  1  0.36683777  0.18341889  0.25000000  1
  Al  Al6  1  0.18341889  0.36683777  0.75000000  1
  Al  Al7  1  0.50000000  0.50000000  0.50000000  1
  Al  Al8  1  0.50000000  0.00000000  0.50000000  1
  Al  Al9  1  0.81658111  0.18341889  0.25000000  1
  Al  Al10  1  0.50000000  0.00000000  0.00000000  1
  Al  Al11  1  0.00000000  0.50000000  0.50000000  1
loop_
_geom_bond_atom_site_label_1
_geom_bond_atom_site_label_2
_geom_bond_distance
_geom_bond_site_symmetry_2
Al0 Al6 2.735120 1_555
Al0 Al1 2.735120 1_555
Al0 Al11 2.908577 1_555
Al0 Al2 2.908577 1_556
Al0 Al8 2.908577 1_565
Al0 Al10 2.908577 1_566
Al0 Dy1 3.045873 1_565
Al0 Dy1 3.045873 1_455
Al0 Dy3 3.064177 1_566
Al0 Dy0 3.064177 1_565
Al1 Al6 2.735121 1_555
Al1 Al8 2.908576 1_565
Al1 Al10 2.908576 1_566
Al1 Al3 2.908577 1_556
Al1 Al7 2.908577 1_555
Al1 Dy1 3.045870 1_565
Al1 Dy1 3.045876 1_555
Al1 Dy3 3.064178 1_666
Al1 Dy0 3.064178 1_665
Al2 Al4 2.908576 1_455
Al2 Al6 2.908576 1_554
Al2 Al9 2.908577 1_455
Al2 Dy1 2.956089 1_454
Al2 Dy2 2.956089 1_555
Al2 Dy3 3.040757 1_555
Al2 Dy3 3.040757 1_565
Al2 Al3 3.040757 1_455
Al2 Al3 3.040757 1_555
Al3 Al5 2.908577 1_555
Al3 Al4 2.908577 1_555
Al3 Al6 2.908577 1_554
Al3 Dy2 2.956092 1_555
Al3 Dy1 2.956092 1_554
Al3 Dy3 3.040758 1_665
Al3 Dy3 3.040758 1_555
Al4 Al9 2.735120 1_555
Al4 Al5 2.735121 1_555
Al4 Al7 2.908577 1_555
Al4 Dy2 3.045870 1_655
Al4 Dy2 3.045876 1_555
Al4 Dy0 3.064178 1_665
Al4 Dy3 3.064178 1_665
Al5 Al9 2.735120 1_555
Al5 Al8 2.908576 1_555
Al5 Al7 2.908577 1_555
Al5 Dy2 3.045870 1_545
Al5 Dy2 3.045876 1_555
Al5 Dy0 3.064178 1_555
Al5 Dy3 3.064178 1_555
Al6 Al7 2.908577 1_555
Al6 Dy1 3.045870 1_455
Al6 Dy1 3.045876 1_555
Al6 Dy0 3.064178 1_555
Al6 Dy3 3.064178 1_556
Al7 Dy1 2.956092 1_555
Al7 Dy2 2.956092 1_555
Al7 Al8 3.040757 1_565
Al7 Al8 3.040757 1_555
Al7 Dy0 3.040758 1_665
Al7 Dy0 3.040758 1_555
Al8 Al9 2.908577 1_555
Al8 Dy1 2.956089 1_555
Al8 Dy2 2.956089 1_545
Al8 Dy0 3.040757 1_555
Al8 Dy0 3.040757 1_655
Al9 Dy2 3.045873 1_545
Al9 Dy2 3.045873 1_655
Al9 Dy3 3.064177 1_655
Al9 Dy0 3.064177 1_655
Al10 Al5 2.908576 1_555
Al10 Al9 2.908577 1_555
Al10 Dy1 2.956089 1_554
Al10 Dy2 2.956089 1_545
Al10 Al3 3.040757 1_555
Al10 Al3 3.040757 1_545
Al10 Dy3 3.040757 1_555
Al10 Dy3 3.040757 1_655
Al10 Al2 3.040758 1_655
Al10 Al2 3.040758 1_545
Al11 Al6 2.908576 1_555
Al11 Al4 2.908576 1_455
Al11 Al9 2.908577 1_455
Al11 Dy1 2.956089 1_455
Al11 Dy2 2.956089 1_555
Al11 Dy0 3.040757 1_565
Al11 Dy0 3.040757 1_555
Al11 Al7 3.040757 1_455
Al11 Al7 3.040757 1_555
Al11 Al8 3.040758 1_565
Al11 Al8 3.040758 1_455
