# generated using pymatgen
data_GdOs2
_symmetry_space_group_name_H-M   'P 1'
_cell_length_a   5.29662796
_cell_length_b   5.29663699
_cell_length_c   8.97232937
_cell_angle_alpha   90.00000000
_cell_angle_beta   90.00000000
_cell_angle_gamma   119.99991345
_symmetry_Int_Tables_number   1
_chemical_formula_structural   GdOs2
_chemical_formula_sum   'Gd4 Os8'
_cell_volume   217.98966125
_cell_formula_units_Z   4
loop_
 _symmetry_equiv_pos_site_id
 _symmetry_equiv_pos_as_xyz
  1  'x, y, z'
loop_
 _atom_site_type_symbol
 _atom_site_label
 _atom_site_symmetry_multiplicity
 _atom_site_fract_x
 _atom_site_fract_y
 _atom_site_fract_z
 _atom_site_occupancy
  Gd  Gd0  1  0.33333300  0.66666700  0.06595523  1
  Gd  Gd1  1  0.66666700  0.33333300  0.56595523  1
  Gd  Gd2  1  0.66666700  0.33333300  0.93404477  1
  Gd  Gd3  1  0.33333300  0.66666700  0.43404477  1
  Os  Os0  1  -0.00000000  0.00000000  -0.00000000  1
  Os  Os1  1  -0.00000000  0.00000000  0.50000000  1
  Os  Os2  1  0.82947418  0.65894837  0.25000000  1
  Os  Os3  1  0.17052482  0.82947518  0.75000000  1
  Os  Os4  1  0.65894837  0.82947418  0.75000000  1
  Os  Os5  1  0.34105163  0.17052582  0.25000000  1
  Os  Os6  1  0.82947518  0.17052482  0.25000000  1
  Os  Os7  1  0.17052582  0.34105163  0.75000000  1
loop_
_geom_bond_atom_site_label_1
_geom_bond_atom_site_label_2
_geom_bond_distance
_geom_bond_site_symmetry_2
Gd0 Os0 3.114740 1_565
Gd0 Os0 3.114746 1_665
Gd0 Os0 3.114751 1_555
Gd0 Os2 3.121159 1_455
Gd0 Os5 3.121163 1_565
Gd0 Os2 3.121163 1_555
Gd0 Os6 3.121166 1_455
Gd0 Os6 3.121166 1_565
Gd0 Os5 3.121167 1_555
Gd0 Os4 3.204255 1_554
Gd0 Os7 3.204256 1_554
Gd0 Os3 3.204257 1_554
Gd1 Os1 3.114740 1_655
Gd1 Os1 3.114746 1_555
Gd1 Os1 3.114751 1_665
Gd1 Os7 3.121159 1_655
Gd1 Os4 3.121163 1_545
Gd1 Os7 3.121163 1_555
Gd1 Os3 3.121166 1_655
Gd1 Os3 3.121166 1_545
Gd1 Os4 3.121167 1_555
Gd1 Os5 3.204255 1_555
Gd1 Os2 3.204256 1_555
Gd1 Os6 3.204257 1_555
Gd2 Os0 3.114740 1_656
Gd2 Os0 3.114746 1_556
Gd2 Os0 3.114751 1_666
Gd2 Os7 3.121159 1_655
Gd2 Os4 3.121163 1_545
Gd2 Os7 3.121163 1_555
Gd2 Os3 3.121166 1_655
Gd2 Os3 3.121166 1_545
Gd2 Os4 3.121167 1_555
Gd2 Os5 3.204255 1_556
Gd2 Os2 3.204256 1_556
Gd2 Os6 3.204257 1_556
Gd3 Os1 3.114740 1_565
Gd3 Os1 3.114746 1_665
Gd3 Os1 3.114751 1_555
Gd3 Os2 3.121159 1_455
Gd3 Os5 3.121163 1_565
Gd3 Os2 3.121163 1_555
Gd3 Os6 3.121166 1_455
Gd3 Os6 3.121166 1_565
Gd3 Os5 3.121167 1_555
Gd3 Os4 3.204255 1_555
Gd3 Os7 3.204256 1_555
Gd3 Os3 3.204257 1_555
Os0 Os6 2.734733 1_455
Os0 Os3 2.734733 1_544
Os0 Os4 2.734739 1_444
Os0 Os5 2.734739 1_555
Os0 Os7 2.734741 1_554
Os0 Os2 2.734741 1_445
Os1 Os6 2.734733 1_455
Os1 Os3 2.734733 1_545
Os1 Os4 2.734739 1_445
Os1 Os5 2.734739 1_555
Os1 Os7 2.734741 1_555
Os1 Os2 2.734741 1_445
Os2 Os5 2.586998 1_555
Os2 Os6 2.587005 1_555
Os2 Os6 2.709632 1_565
Os2 Os5 2.709641 1_665
Os3 Os4 2.587000 1_555
Os3 Os7 2.587005 1_555
Os3 Os4 2.709627 1_455
Os3 Os7 2.709632 1_565
Os4 Os7 2.586998 1_555
Os4 Os7 2.709641 1_665
Os5 Os6 2.587000 1_555
Os5 Os6 2.709627 1_455
