# generated using pymatgen
data_SiC
_symmetry_space_group_name_H-M   'P 1'
_cell_length_a   3.07407789
_cell_length_b   3.07407877
_cell_length_c   90.52691929
_cell_angle_alpha   90.00000000
_cell_angle_beta   90.00000000
_cell_angle_gamma   120.00002235
_symmetry_Int_Tables_number   1
_chemical_formula_structural   SiC
_chemical_formula_sum   'Si36 C36'
_cell_volume   740.86338824
_cell_formula_units_Z   36
loop_
 _symmetry_equiv_pos_site_id
 _symmetry_equiv_pos_as_xyz
  1  'x, y, z'
loop_
 _atom_site_type_symbol
 _atom_site_label
 _atom_site_symmetry_multiplicity
 _atom_site_fract_x
 _atom_site_fract_y
 _atom_site_fract_z
 _atom_site_occupancy
  Si  Si0  1  -0.00000000  0.00000000  0.16666232  1
  Si  Si1  1  0.66666700  0.33333300  0.61110579  1
  Si  Si2  1  0.33333300  0.66666700  0.91664067  1
  Si  Si3  1  -0.00000000  0.00000000  0.41666893  1
  Si  Si4  1  0.33333300  0.66666700  0.36112479  1
  Si  Si5  1  0.66666700  0.33333300  0.27776601  1
  Si  Si6  1  0.33333300  0.66666700  0.80556143  1
  Si  Si7  1  0.33333300  0.66666700  0.30552954  1
  Si  Si8  1  0.66666700  0.33333300  0.77774970  1
  Si  Si9  1  0.33333300  0.66666700  0.13886585  1
  Si  Si10  1  0.00000000  0.00000000  0.66665404  1
  Si  Si11  1  0.33333300  0.66666700  0.02778001  1
  Si  Si12  1  0.66666700  0.33333300  0.52775911  1
  Si  Si13  1  0.33333300  0.66666700  0.63890117  1
  Si  Si14  1  -0.00000000  0.00000000  0.83330992  1
  Si  Si15  1  0.33333300  0.66666700  0.19445532  1
  Si  Si16  1  0.33333300  0.66666700  0.47221595  1
  Si  Si17  1  0.66666700  0.33333300  0.11111946  1
  Si  Si18  1  0.66666700  0.33333300  0.05552727  1
  Si  Si19  1  -0.00000000  0.00000000  0.49997922  1
  Si  Si20  1  0.66666700  0.33333300  0.22219395  1
  Si  Si21  1  -0.00000000  0.00000000  0.55555652  1
  Si  Si22  1  -0.00000000  0.00000000  0.72221892  1
  Si  Si23  1  -0.00000000  0.00000000  0.08330913  1
  Si  Si24  1  0.66666700  0.33333300  0.94443497  1
  Si  Si25  1  0.66666700  0.33333300  0.38886548  1
  Si  Si26  1  0.66666700  0.33333300  0.69444537  1
  Si  Si27  1  0.66666700  0.33333300  0.86111503  1
  Si  Si28  1  -0.00000000  0.00000000  0.33332376  1
  Si  Si29  1  0.33333300  0.66666700  0.58329321  1
  Si  Si30  1  -0.00000000  0.00000000  0.00000864  1
  Si  Si31  1  -0.00000000  0.00000000  0.88889145  1
  Si  Si32  1  0.66666700  0.33333300  0.44447012  1
  Si  Si33  1  0.33333300  0.66666700  0.74996679  1
  Si  Si34  1  -0.00000000  -0.00000000  0.24999158  1
  Si  Si35  1  0.33333300  0.66666700  0.97220980  1
  C  C0  1  -0.00000000  -0.00000000  0.74304691  1
  C  C1  1  -0.00000000  0.00000000  0.27087783  1
  C  C2  1  0.33333300  0.66666700  0.38195278  1
  C  C3  1  -0.00000000  -0.00000000  0.57638129  1
  C  C4  1  0.66666700  0.33333300  0.46530025  1
  C  C5  1  0.66666700  0.33333300  0.13195341  1
  C  C6  1  0.66666700  0.33333300  0.40969988  1
  C  C7  1  0.33333300  0.66666700  0.82639502  1
  C  C8  1  0.00000000  0.00000000  0.43757069  1
  C  C9  1  0.66666700  0.33333300  0.29860077  1
  C  C10  1  -0.00000000  -0.00000000  0.10421445  1
  C  C11  1  0.66666700  0.33333300  0.71533221  1
  C  C12  1  -0.00000000  0.00000000  0.90971952  1
  C  C13  1  0.66666700  0.33333300  0.79865242  1
  C  C14  1  0.00000000  -0.00000000  0.52080405  1
  C  C15  1  0.66666700  0.33333300  0.88199950  1
  C  C16  1  0.66666700  0.33333300  0.07634688  1
  C  C17  1  0.33333300  0.66666700  0.99303131  1
  C  C18  1  0.66666700  0.33333300  0.24302103  1
  C  C19  1  0.00000000  -0.00000000  0.18755701  1
  C  C20  1  0.66666700  0.33333300  0.63200446  1
  C  C21  1  0.33333300  0.66666700  0.04860684  1
  C  C22  1  -0.00000000  0.00000000  0.85414582  1
  C  C23  1  0.33333300  0.66666700  0.60412969  1
  C  C24  1  -0.00000000  0.00000000  0.35422528  1
  C  C25  1  0.33333300  0.66666700  0.15969679  1
  C  C26  1  0.33333300  0.66666700  0.49306081  1
  C  C27  1  0.33333300  0.66666700  0.65973697  1
  C  C28  1  0.33333300  0.66666700  0.93746830  1
  C  C29  1  0.33333300  0.66666700  0.77078970  1
  C  C30  1  0.33333300  0.66666700  0.32635988  1
  C  C31  1  0.66666700  0.33333300  0.54865423  1
  C  C32  1  0.33333300  0.66666700  0.21528274  1
  C  C33  1  -0.00000000  0.00000000  0.02089373  1
  C  C34  1  0.66666700  0.33333300  0.96532235  1
  C  C35  1  -0.00000000  0.00000000  0.68748096  1
loop_
_geom_bond_atom_site_label_1
_geom_bond_atom_site_label_2
_geom_bond_distance
_geom_bond_site_symmetry_2
C0 Si33 1.882127 1_545
C0 Si33 1.882129 1_445
C0 Si33 1.882129 1_555
C0 Si22 1.885494 1_555
C1 Si5 1.881174 1_455
C1 Si5 1.881175 1_555
C1 Si5 1.881176 1_445
C1 Si34 1.890768 1_555
C2 Si25 1.881910 1_455
C2 Si25 1.881910 1_565
C2 Si25 1.881916 1_555
C2 Si4 1.885494 1_555
C3 Si29 1.881887 1_545
C3 Si29 1.881889 1_445
C3 Si29 1.881889 1_555
C3 Si21 1.885202 1_555
C4 Si16 1.882000 1_655
C4 Si16 1.882001 1_545
C4 Si16 1.882006 1_555
C4 Si32 1.885687 1_555
C5 Si9 1.881902 1_655
C5 Si9 1.881902 1_545
C5 Si9 1.881908 1_555
C5 Si17 1.886033 1_555
C6 Si3 1.883613 1_655
C6 Si3 1.883615 1_555
C6 Si3 1.883615 1_665
C6 Si25 1.886074 1_555
C7 Si14 1.881977 1_565
C7 Si14 1.881979 1_665
C7 Si14 1.881979 1_555
C7 Si6 1.886001 1_555
C8 Si32 1.881512 1_455
C8 Si32 1.881513 1_555
C8 Si32 1.881514 1_445
C8 Si3 1.892172 1_555
C9 Si7 1.882394 1_655
C9 Si7 1.882395 1_545
C9 Si7 1.882400 1_555
C9 Si5 1.886107 1_555
C10 Si17 1.881679 1_455
C10 Si17 1.881681 1_555
C10 Si17 1.881681 1_445
C10 Si23 1.892494 1_555
C11 Si22 1.881130 1_655
C11 Si22 1.881131 1_555
C11 Si22 1.881132 1_665
C11 Si26 1.890821 1_555
C12 Si2 1.882165 1_545
C12 Si2 1.882167 1_445
C12 Si2 1.882167 1_555
C12 Si31 1.885501 1_555
C13 Si6 1.881799 1_655
C13 Si6 1.881799 1_545
C13 Si6 1.881805 1_555
C13 Si8 1.892259 1_555
C14 Si12 1.883189 1_455
C14 Si12 1.883191 1_555
C14 Si12 1.883191 1_445
C14 Si19 1.885208 1_555
C15 Si31 1.881287 1_655
C15 Si31 1.881289 1_555
C15 Si31 1.881289 1_665
C15 Si27 1.890607 1_555
C16 Si23 1.883407 1_655
C16 Si23 1.883409 1_555
C16 Si23 1.883409 1_665
C16 Si18 1.884735 1_555
C17 Si30 1.883864 1_566
C17 Si30 1.883866 1_666
C17 Si30 1.883866 1_556
C17 Si35 1.884907 1_555
C18 Si34 1.883659 1_655
C18 Si34 1.883660 1_555
C18 Si34 1.883661 1_665
C18 Si20 1.885411 1_555
C19 Si15 1.881478 1_545
C19 Si15 1.881480 1_445
C19 Si15 1.881480 1_555
C19 Si0 1.891532 1_555
C20 Si13 1.881429 1_655
C20 Si13 1.881429 1_545
C20 Si13 1.881435 1_555
C20 Si1 1.891892 1_555
C21 Si18 1.882143 1_455
C21 Si18 1.882143 1_565
C21 Si18 1.882148 1_555
C21 Si11 1.885389 1_555
C22 Si27 1.883618 1_455
C22 Si27 1.883620 1_555
C22 Si27 1.883620 1_445
C22 Si14 1.886210 1_555
C23 Si1 1.883826 1_455
C23 Si1 1.883827 1_565
C23 Si1 1.883832 1_555
C23 Si29 1.886262 1_555
C24 Si4 1.881514 1_545
C24 Si4 1.881516 1_445
C24 Si4 1.881516 1_555
C24 Si28 1.892150 1_555
C25 Si0 1.883506 1_565
C25 Si0 1.883508 1_665
C25 Si0 1.883509 1_555
C25 Si9 1.885761 1_555
C26 Si19 1.882083 1_565
C26 Si19 1.882084 1_665
C26 Si19 1.882085 1_555
C26 Si16 1.887021 1_555
C27 Si10 1.882042 1_565
C27 Si10 1.882044 1_665
C27 Si10 1.882044 1_555
C27 Si13 1.886201 1_555
C28 Si24 1.883540 1_455
C28 Si24 1.883541 1_565
C28 Si24 1.883546 1_555
C28 Si2 1.885461 1_555
C29 Si8 1.883338 1_455
C29 Si8 1.883339 1_565
C29 Si8 1.883344 1_555
C29 Si33 1.885034 1_555
C30 Si28 1.883456 1_565
C30 Si28 1.883458 1_665
C30 Si28 1.883459 1_555
C30 Si7 1.885707 1_555
C31 Si21 1.881597 1_655
C31 Si21 1.881599 1_555
C31 Si21 1.881600 1_665
C31 Si12 1.891571 1_555
C32 Si20 1.881865 1_455
C32 Si20 1.881865 1_565
C32 Si20 1.881871 1_555
C32 Si15 1.885442 1_555
C33 Si11 1.881117 1_545
C33 Si11 1.881118 1_445
C33 Si11 1.881119 1_555
C33 Si30 1.890663 1_555
C34 Si35 1.881151 1_655
C34 Si35 1.881151 1_545
C34 Si35 1.881157 1_555
C34 Si24 1.890870 1_555
C35 Si26 1.883472 1_455
C35 Si26 1.883474 1_555
C35 Si26 1.883475 1_445
C35 Si10 1.885397 1_555
