# generated using pymatgen
data_LiFe(PO3)3
_symmetry_space_group_name_H-M   'P 1'
_cell_length_a   8.53617400
_cell_length_b   8.63891500
_cell_length_c   8.85460500
_cell_angle_alpha   90.00000000
_cell_angle_beta   90.00000000
_cell_angle_gamma   90.00000000
_symmetry_Int_Tables_number   1
_chemical_formula_structural   LiFe(PO3)3
_chemical_formula_sum   'Li4 Fe4 P12 O36'
_cell_volume   652.96763007
_cell_formula_units_Z   4
loop_
 _symmetry_equiv_pos_site_id
 _symmetry_equiv_pos_as_xyz
  1  'x, y, z'
loop_
 _atom_site_type_symbol
 _atom_site_label
 _atom_site_symmetry_multiplicity
 _atom_site_fract_x
 _atom_site_fract_y
 _atom_site_fract_z
 _atom_site_occupancy
  Li  Li0  1  0.15338600  0.86540300  0.38570200  1
  Li  Li1  1  0.34661400  0.13459700  0.88570200  1
  Li  Li2  1  0.65338600  0.63459700  0.61429800  1
  Li  Li3  1  0.84661400  0.36540300  0.11429800  1
  Fe  Fe0  1  0.12837300  0.14285800  0.15927200  1
  Fe  Fe1  1  0.37162700  0.85714200  0.65927200  1
  Fe  Fe2  1  0.62837300  0.35714200  0.84072800  1
  Fe  Fe3  1  0.87162700  0.64285800  0.34072800  1
  P  P0  1  0.02804200  0.67808500  0.68244300  1
  P  P1  1  0.18876600  0.52195800  0.19066300  1
  P  P2  1  0.20025800  0.19117300  0.56182200  1
  P  P3  1  0.29974200  0.80882700  0.06182200  1
  P  P4  1  0.31123400  0.47804200  0.69066300  1
  P  P5  1  0.47195800  0.32191500  0.18244300  1
  P  P6  1  0.52804200  0.82191500  0.31755700  1
  P  P7  1  0.68876600  0.97804200  0.80933700  1
  P  P8  1  0.70025800  0.30882700  0.43817800  1
  P  P9  1  0.79974200  0.69117300  0.93817800  1
  P  P10  1  0.81123400  0.02195800  0.30933700  1
  P  P11  1  0.97195800  0.17808500  0.81755700  1
  O  O0  1  0.04038600  0.22542300  0.65472600  1
  O  O1  1  0.09180300  0.38746100  0.13625200  1
  O  O2  1  0.10375800  0.12333500  0.91635500  1
  O  O3  1  0.12377500  0.61772800  0.31856400  1
  O  O4  1  0.12920100  0.80616700  0.62163200  1
  O  O5  1  0.13858100  0.53580700  0.73614000  1
  O  O6  1  0.15803600  0.13850300  0.40638200  1
  O  O7  1  0.19174700  0.90801800  0.15599700  1
  O  O8  1  0.22786200  0.63571600  0.04994000  1
  O  O9  1  0.27213800  0.36428400  0.54994000  1
  O  O10  1  0.30825300  0.09198200  0.65599700  1
  O  O11  1  0.34196400  0.86149700  0.90638200  1
  O  O12  1  0.36141900  0.46419300  0.23614000  1
  O  O13  1  0.37079900  0.19383300  0.12163200  1
  O  O14  1  0.37622500  0.38227200  0.81856400  1
  O  O15  1  0.39624200  0.87666500  0.41635500  1
  O  O16  1  0.40819700  0.61253900  0.63625200  1
  O  O17  1  0.45961400  0.77457700  0.15472600  1
  O  O18  1  0.54038600  0.27457700  0.34527400  1
  O  O19  1  0.59180300  0.11253900  0.86374800  1
  O  O20  1  0.60375800  0.37666500  0.08364500  1
  O  O21  1  0.62377500  0.88227200  0.68143600  1
  O  O22  1  0.62920100  0.69383300  0.37836800  1
  O  O23  1  0.63858100  0.96419300  0.26386000  1
  O  O24  1  0.65803600  0.36149700  0.59361800  1
  O  O25  1  0.69174700  0.59198200  0.84400300  1
  O  O26  1  0.72786200  0.86428400  0.95006000  1
  O  O27  1  0.77213800  0.13571600  0.45006000  1
  O  O28  1  0.80825300  0.40801800  0.34400300  1
  O  O29  1  0.84196400  0.63850300  0.09361800  1
  O  O30  1  0.86141900  0.03580700  0.76386000  1
  O  O31  1  0.87079900  0.30616700  0.87836800  1
  O  O32  1  0.87622500  0.11772800  0.18143600  1
  O  O33  1  0.89624200  0.62333500  0.58364500  1
  O  O34  1  0.90819700  0.88746100  0.36374800  1
  O  O35  1  0.95961400  0.72542300  0.84527400  1
loop_
_geom_bond_atom_site_label_1
_geom_bond_atom_site_label_2
_geom_bond_distance
_geom_bond_site_symmetry_2
Li0 O7 2.092773 1_555
Li0 O15 2.093016 1_555
Li0 O34 2.110604 1_455
Li0 O4 2.160716 1_555
Li0 O3 2.235033 1_555
Li0 O6 2.366716 1_565
Li1 O10 2.092773 1_555
Li1 O2 2.093016 1_555
Li1 O19 2.110604 1_555
Li1 O13 2.160716 1_556
Li1 O14 2.235033 1_555
Li1 O11 2.366716 1_545
Li2 O25 2.092773 1_555
Li2 O33 2.093016 1_555
Li2 O16 2.110604 1_555
Li2 O22 2.160716 1_555
Li2 O21 2.235033 1_555
Li2 O24 2.366716 1_555
Li3 O28 2.092773 1_555
Li3 O20 2.093016 1_555
Li3 O1 2.110604 1_655
Li3 O31 2.160716 1_554
Li3 O32 2.235033 1_555
Li3 O29 2.366716 1_555
Fe0 O7 2.099850 1_545
Fe0 O13 2.141817 1_555
Fe0 O1 2.145742 1_555
Fe0 O2 2.167744 1_554
Fe0 O32 2.172184 1_455
Fe0 O6 2.202985 1_555
Fe1 O10 2.099850 1_565
Fe1 O4 2.141817 1_555
Fe1 O16 2.145742 1_555
Fe1 O15 2.167744 1_555
Fe1 O21 2.172184 1_555
Fe1 O11 2.202985 1_555
Fe2 O25 2.099850 1_555
Fe2 O31 2.141817 1_555
Fe2 O19 2.145742 1_555
Fe2 O20 2.167744 1_556
Fe2 O14 2.172184 1_555
Fe2 O24 2.202985 1_555
Fe3 O28 2.099850 1_555
Fe3 O22 2.141817 1_555
Fe3 O34 2.145742 1_555
Fe3 O33 2.167744 1_555
Fe3 O3 2.172184 1_655
Fe3 O29 2.202985 1_555
O0 P11 1.608486 1_455
O0 P2 1.620696 1_555
O1 P1 1.505731 1_555
O2 P11 1.501597 1_455
O3 P1 1.508266 1_555
O4 P0 1.503298 1_555
O5 P4 1.607251 1_555
O5 P0 1.620853 1_555
O6 P2 1.493754 1_555
O7 P3 1.509793 1_555
O8 P3 1.619890 1_555
O8 P1 1.621665 1_555
O9 P2 1.619890 1_555
O9 P4 1.621665 1_555
O10 P2 1.509793 1_555
O11 P3 1.493754 1_556
O12 P1 1.607251 1_555
O12 P5 1.620853 1_555
O13 P5 1.503298 1_555
O14 P4 1.508266 1_555
O15 P6 1.501597 1_555
O16 P4 1.505731 1_555
O17 P6 1.608486 1_555
O17 P3 1.620696 1_555
O18 P5 1.608486 1_555
O18 P8 1.620696 1_555
O19 P7 1.505731 1_545
O20 P5 1.501597 1_555
O21 P7 1.508266 1_555
O22 P6 1.503298 1_555
O23 P10 1.607251 1_565
O23 P6 1.620853 1_555
O24 P8 1.493754 1_555
O25 P9 1.509793 1_555
O26 P9 1.619890 1_555
O26 P7 1.621665 1_555
O27 P8 1.619890 1_555
O27 P10 1.621665 1_555
O28 P8 1.509793 1_555
O29 P9 1.493754 1_554
O30 P7 1.607251 1_545
O30 P11 1.620853 1_555
O31 P11 1.503298 1_555
O32 P10 1.508266 1_555
O33 P0 1.501597 1_655
O34 P10 1.505731 1_565
O35 P0 1.608486 1_655
O35 P9 1.620696 1_555
