# generated using pymatgen
data_CdI2
_symmetry_space_group_name_H-M   'P 1'
_cell_length_a   4.28451385
_cell_length_b   4.28451486
_cell_length_c   57.37095246
_cell_angle_alpha   90.00000000
_cell_angle_beta   90.00000000
_cell_angle_gamma   119.99999210
_symmetry_Int_Tables_number   1
_chemical_formula_structural   CdI2
_chemical_formula_sum   'Cd8 I16'
_cell_volume   912.06529587
_cell_formula_units_Z   8
loop_
 _symmetry_equiv_pos_site_id
 _symmetry_equiv_pos_as_xyz
  1  'x, y, z'
loop_
 _atom_site_type_symbol
 _atom_site_label
 _atom_site_symmetry_multiplicity
 _atom_site_fract_x
 _atom_site_fract_y
 _atom_site_fract_z
 _atom_site_occupancy
  Cd  Cd0  1  0.00000000  0.00000000  0.78124478  1
  Cd  Cd1  1  0.00000000  0.00000000  0.40621226  1
  Cd  Cd2  1  0.00000000  0.00000000  0.90625624  1
  Cd  Cd3  1  0.66666700  0.33333300  0.03170157  1
  Cd  Cd4  1  -0.00000000  0.00000000  0.15624428  1
  Cd  Cd5  1  -0.00000000  0.00000000  0.65624604  1
  Cd  Cd6  1  0.66666700  0.33333300  0.28080438  1
  Cd  Cd7  1  -0.00000000  0.00000000  0.53127413  1
  I  I0  1  0.33333300  0.66666700  0.81130201  1
  I  I1  1  0.33333300  0.66666700  0.56130137  1
  I  I2  1  0.66666700  0.33333300  0.12619828  1
  I  I3  1  -0.00000000  0.00000000  0.25088616  1
  I  I4  1  0.33333300  0.66666700  0.06161387  1
  I  I5  1  0.66666700  0.33333300  0.87619826  1
  I  I6  1  0.33333300  0.66666700  0.43630273  1
  I  I7  1  0.66666700  0.33333300  0.75119679  1
  I  I8  1  0.33333300  0.66666700  0.18630252  1
  I  I9  1  0.66666700  0.33333300  0.50119959  1
  I  I10  1  0.66666700  0.33333300  0.62619776  1
  I  I11  1  0.33333300  0.66666700  0.31071152  1
  I  I12  1  0.33333300  0.66666700  0.93630224  1
  I  I13  1  0.66666700  0.33333300  0.37619785  1
  I  I14  1  -0.00000000  0.00000000  0.00180048  1
  I  I15  1  0.33333300  0.66666700  0.68630189  1
loop_
_geom_bond_atom_site_label_1
_geom_bond_atom_site_label_2
_geom_bond_distance
_geom_bond_site_symmetry_2
Cd0 I7 3.015092 1_455
Cd0 I7 3.015095 1_555
Cd0 I7 3.015095 1_445
Cd0 I0 3.015395 1_545
Cd0 I0 3.015398 1_445
Cd0 I0 3.015398 1_555
Cd1 I13 3.013990 1_455
Cd1 I13 3.013993 1_555
Cd1 I13 3.013994 1_445
Cd1 I6 3.016486 1_545
Cd1 I6 3.016489 1_445
Cd1 I6 3.016489 1_555
Cd2 I12 3.015026 1_545
Cd2 I12 3.015029 1_445
Cd2 I12 3.015030 1_555
Cd2 I5 3.015419 1_455
Cd2 I5 3.015422 1_555
Cd2 I5 3.015423 1_445
Cd3 I14 3.010281 1_655
Cd3 I14 3.010284 1_555
Cd3 I14 3.010284 1_665
Cd3 I4 3.010647 1_655
Cd3 I4 3.010648 1_545
Cd3 I4 3.010653 1_555
Cd4 I2 3.015026 1_455
Cd4 I2 3.015029 1_555
Cd4 I2 3.015030 1_445
Cd4 I8 3.015428 1_545
Cd4 I8 3.015431 1_445
Cd4 I8 3.015431 1_555
Cd5 I10 3.015101 1_455
Cd5 I10 3.015104 1_555
Cd5 I10 3.015105 1_445
Cd5 I15 3.015349 1_545
Cd5 I15 3.015352 1_445
Cd5 I15 3.015353 1_555
Cd6 I11 3.010479 1_655
Cd6 I11 3.010479 1_545
Cd6 I11 3.010485 1_555
Cd6 I3 3.010841 1_655
Cd6 I3 3.010844 1_555
Cd6 I3 3.010845 1_665
Cd7 I1 3.014411 1_545
Cd7 I1 3.014414 1_445
Cd7 I1 3.014415 1_555
Cd7 I9 3.015963 1_455
Cd7 I9 3.015966 1_555
Cd7 I9 3.015966 1_445
