# generated using pymatgen
data_K2CrSO7
_symmetry_space_group_name_H-M   'P 1'
_cell_length_a   7.52305400
_cell_length_b   7.53030000
_cell_length_c   15.02335153
_cell_angle_alpha   61.38321881
_cell_angle_beta   90.00000000
_cell_angle_gamma   90.00000000
_symmetry_Int_Tables_number   1
_chemical_formula_structural   K2CrSO7
_chemical_formula_sum   'K8 Cr4 S4 O28'
_cell_volume   747.11938755
_cell_formula_units_Z   4
loop_
 _symmetry_equiv_pos_site_id
 _symmetry_equiv_pos_as_xyz
  1  'x, y, z'
loop_
 _atom_site_type_symbol
 _atom_site_label
 _atom_site_symmetry_multiplicity
 _atom_site_fract_x
 _atom_site_fract_y
 _atom_site_fract_z
 _atom_site_occupancy
  K  K0  1  0.38057800  0.97618700  0.65592800  1
  K  K1  1  0.20738200  0.45829600  0.86416000  1
  K  K2  1  0.88057800  0.02381300  0.84407200  1
  K  K3  1  0.29261800  0.45829600  0.36416000  1
  K  K4  1  0.79261800  0.54170400  0.13584000  1
  K  K5  1  0.70738200  0.54170400  0.63584000  1
  K  K6  1  0.61942200  0.02381300  0.34407200  1
  K  K7  1  0.11942200  0.97618700  0.15592800  1
  Cr  Cr0  1  0.33133900  0.90738600  0.91950800  1
  Cr  Cr1  1  0.66866100  0.09261400  0.08049200  1
  Cr  Cr2  1  0.83133900  0.09261400  0.58049200  1
  Cr  Cr3  1  0.16866100  0.90738600  0.41950800  1
  S  S0  1  0.70884800  0.50284800  0.88353800  1
  S  S1  1  0.20884800  0.49715200  0.61646200  1
  S  S2  1  0.29115200  0.49715200  0.11646200  1
  S  S3  1  0.79115200  0.50284800  0.38353800  1
  O  O0  1  0.71547300  0.15596600  0.65315800  1
  O  O1  1  0.07439600  0.37294300  0.69073800  1
  O  O2  1  0.09206100  0.67713100  0.53040100  1
  O  O3  1  0.83284600  0.40654500  0.84392600  1
  O  O4  1  0.20304000  0.03838300  0.95448200  1
  O  O5  1  0.21547300  0.84403400  0.84684200  1
  O  O6  1  0.57439600  0.62705700  0.80926200  1
  O  O7  1  0.79696000  0.96161700  0.04551800  1
  O  O8  1  0.99655500  0.03878500  0.35879300  1
  O  O9  1  0.40793900  0.67713100  0.03040100  1
  O  O10  1  0.29929400  0.39630300  0.56663000  1
  O  O11  1  0.92560400  0.62705700  0.30926200  1
  O  O12  1  0.79929400  0.60369700  0.93337000  1
  O  O13  1  0.66715400  0.40654500  0.34392600  1
  O  O14  1  0.29696000  0.03838300  0.45448200  1
  O  O15  1  0.70070600  0.60369700  0.43337000  1
  O  O16  1  0.00344500  0.96121500  0.64120700  1
  O  O17  1  0.90793900  0.32286900  0.46959900  1
  O  O18  1  0.49655500  0.96121500  0.14120700  1
  O  O19  1  0.33284600  0.59345500  0.65607400  1
  O  O20  1  0.28452700  0.84403400  0.34684200  1
  O  O21  1  0.20070600  0.39630300  0.06663000  1
  O  O22  1  0.50344500  0.03878500  0.85879300  1
  O  O23  1  0.42560400  0.37294300  0.19073800  1
  O  O24  1  0.59206100  0.32286900  0.96959900  1
  O  O25  1  0.70304000  0.96161700  0.54551800  1
  O  O26  1  0.16715400  0.59345500  0.15607400  1
  O  O27  1  0.78452700  0.15596600  0.15315800  1
loop_
_geom_bond_atom_site_label_1
_geom_bond_atom_site_label_2
_geom_bond_distance
_geom_bond_site_symmetry_2
K0 O5 2.832917 1_555
K0 O10 2.848967 1_565
K0 O0 2.850975 1_565
K0 O16 2.852221 1_555
K0 O14 2.901101 1_565
K0 O19 2.903329 1_555
K0 O6 2.922881 1_555
K0 O25 2.970308 1_555
K1 O4 2.780459 1_555
K1 O5 2.790142 1_555
K1 O21 2.848274 1_556
K1 O3 2.880438 1_455
K1 O19 2.941394 1_555
K1 O6 2.985750 1_555
K1 O1 3.131468 1_555
K1 O24 3.221306 1_555
K2 O0 2.832917 1_555
K2 O12 2.848967 1_545
K2 O5 2.850975 1_645
K2 O22 2.852221 1_555
K2 O7 2.901101 1_546
K2 O3 2.903329 1_555
K2 O1 2.922881 1_655
K2 O4 2.970308 1_655
K3 O14 2.780459 1_555
K3 O20 2.790142 1_555
K3 O10 2.848274 1_555
K3 O13 2.880438 1_555
K3 O26 2.941394 1_555
K3 O11 2.985750 1_455
K3 O23 3.131468 1_555
K3 O17 3.221306 1_455
K4 O7 2.780459 1_555
K4 O27 2.790142 1_555
K4 O12 2.848274 1_554
K4 O26 2.880438 1_655
K4 O13 2.941394 1_555
K4 O23 2.985750 1_555
K4 O11 3.131468 1_555
K4 O9 3.221306 1_555
K5 O25 2.780459 1_555
K5 O0 2.790142 1_555
K5 O15 2.848274 1_555
K5 O19 2.880438 1_555
K5 O3 2.941394 1_555
K5 O1 2.985750 1_655
K5 O6 3.131468 1_555
K5 O2 3.221306 1_655
K6 O27 2.832917 1_555
K6 O15 2.848967 1_545
K6 O20 2.850975 1_545
K6 O8 2.852221 1_555
K6 O25 2.901101 1_545
K6 O13 2.903329 1_555
K6 O23 2.922881 1_555
K6 O14 2.970308 1_555
K7 O20 2.832917 1_555
K7 O21 2.848967 1_565
K7 O27 2.850975 1_465
K7 O18 2.852221 1_555
K7 O4 2.901101 1_564
K7 O26 2.903329 1_555
K7 O11 2.922881 1_455
K7 O7 2.970308 1_455
Cr0 O22 1.619547 1_565
Cr0 O4 1.636229 1_565
Cr0 O5 1.636472 1_555
Cr0 O9 1.829465 1_556
Cr1 O18 1.619547 1_545
Cr1 O7 1.636229 1_545
Cr1 O27 1.636472 1_555
Cr1 O24 1.829465 1_554
Cr2 O16 1.619547 1_645
Cr2 O25 1.636229 1_545
Cr2 O0 1.636472 1_555
Cr2 O17 1.829465 1_555
Cr3 O8 1.619547 1_465
Cr3 O14 1.636229 1_565
Cr3 O20 1.636472 1_555
Cr3 O2 1.829465 1_555
O1 S1 1.464022 1_555
O2 S1 1.613037 1_555
O3 S0 1.470933 1_555
O6 S0 1.464022 1_555
O9 S2 1.613037 1_555
O10 S1 1.464506 1_555
O11 S3 1.464022 1_555
O12 S0 1.464506 1_555
O13 S3 1.470933 1_555
O15 S3 1.464506 1_555
O17 S3 1.613037 1_555
O19 S1 1.470933 1_555
O21 S2 1.464506 1_555
O23 S2 1.464022 1_555
O24 S0 1.613037 1_555
O26 S2 1.470933 1_555
