# generated using pymatgen
data_Er4InRh
_symmetry_space_group_name_H-M   'P 1'
_cell_length_a   9.51661552
_cell_length_b   9.51651639
_cell_length_c   9.51648767
_cell_angle_alpha   59.99878743
_cell_angle_beta   59.99954226
_cell_angle_gamma   59.99958383
_symmetry_Int_Tables_number   1
_chemical_formula_structural   Er4InRh
_chemical_formula_sum   'Er16 In4 Rh4'
_cell_volume   609.41812518
_cell_formula_units_Z   4
loop_
 _symmetry_equiv_pos_site_id
 _symmetry_equiv_pos_as_xyz
  1  'x, y, z'
loop_
 _atom_site_type_symbol
 _atom_site_label
 _atom_site_symmetry_multiplicity
 _atom_site_fract_x
 _atom_site_fract_y
 _atom_site_fract_z
 _atom_site_occupancy
  Er  Er0  1  0.18910255  0.18908702  0.81091119  1
  Er  Er1  1  0.43859515  0.06140904  0.06140305  1
  Er  Er2  1  0.43857742  0.06141384  0.43859388  1
  Er  Er3  1  0.06141045  0.43859848  0.06140647  1
  Er  Er4  1  0.65062737  0.04810604  0.65065292  1
  Er  Er5  1  0.18908356  0.81090384  0.81091004  1
  Er  Er6  1  0.06141089  0.06141288  0.43859884  1
  Er  Er7  1  0.81090587  0.18910739  0.18908591  1
  Er  Er8  1  0.81090505  0.81090667  0.18906597  1
  Er  Er9  1  0.65063540  0.65064151  0.04810050  1
  Er  Er10  1  0.65061836  0.65062413  0.65064565  1
  Er  Er11  1  0.06141388  0.43858189  0.43858736  1
  Er  Er12  1  0.04811041  0.65063019  0.65064936  1
  Er  Er13  1  0.81090192  0.18907665  0.81091038  1
  Er  Er14  1  0.43858239  0.43859369  0.06140814  1
  Er  Er15  1  0.18911309  0.81090843  0.18907675  1
  In  In0  1  0.41677950  0.74965847  0.41678344  1
  In  In1  1  0.41677886  0.41678326  0.74966040  1
  In  In2  1  0.74965135  0.41678466  0.41678427  1
  In  In3  1  0.41678079  0.41678493  0.41678370  1
  Rh  Rh0  1  0.85772855  0.42683067  0.85771348  1
  Rh  Rh1  1  0.85772509  0.85771468  0.42683240  1
  Rh  Rh2  1  0.42683805  0.85772036  0.85771783  1
  Rh  Rh3  1  0.85772305  0.85771932  0.85771907  1
loop_
_geom_bond_atom_site_label_1
_geom_bond_atom_site_label_2
_geom_bond_distance
_geom_bond_site_symmetry_2
Er0 Rh2 2.780253 1_545
Er0 Rh0 2.780347 1_455
Er0 In3 3.449422 1_555
Er0 In1 3.449450 1_555
Er1 In1 3.187802 1_554
Er1 In0 3.187866 1_545
Er1 Rh3 3.423203 1_544
Er1 Rh2 3.423224 1_544
Er2 In0 3.187866 1_545
Er2 In3 3.187930 1_555
Er2 Rh2 3.423142 1_545
Er2 Rh1 3.423356 1_545
Er3 In1 3.187843 1_554
Er3 In2 3.187934 1_455
Er3 Rh3 3.423107 1_454
Er3 Rh0 3.423298 1_454
Er4 Rh3 2.791488 1_545
Er4 Rh2 2.791583 1_545
Er4 Rh1 2.791849 1_545
Er4 In1 3.398673 1_555
Er4 In2 3.398723 1_555
Er4 In3 3.398780 1_555
Er5 Rh3 2.780259 1_455
Er5 Rh2 2.780430 1_555
Er5 In1 3.449410 1_555
Er5 In0 3.449432 1_555
Er6 In0 3.187884 1_545
Er6 In2 3.187911 1_455
Er6 Rh3 3.423113 1_445
Er6 Rh1 3.423370 1_445
Er7 Rh0 2.780211 1_554
Er7 Rh1 2.780413 1_545
Er7 In2 3.449451 1_555
Er7 In3 3.449464 1_555
Er8 Rh3 2.780063 1_554
Er8 Rh1 2.780542 1_555
Er8 In2 3.449404 1_555
Er8 In0 3.449466 1_555
Er9 Rh3 2.791520 1_554
Er9 Rh2 2.791618 1_554
Er9 Rh0 2.791754 1_554
Er9 In2 3.398721 1_555
Er9 In0 3.398752 1_555
Er9 In3 3.398772 1_555
Er10 Rh2 2.791548 1_555
Er10 Rh0 2.791596 1_555
Er10 Rh1 2.791733 1_555
Er10 In1 3.398628 1_555
Er10 In0 3.398718 1_555
Er10 In2 3.398722 1_555
Er11 In2 3.187918 1_455
Er11 In3 3.187955 1_555
Er11 Rh0 3.423154 1_455
Er11 Rh1 3.423211 1_455
Er12 Rh3 2.791481 1_455
Er12 Rh0 2.791624 1_455
Er12 Rh1 2.791765 1_455
Er12 In1 3.398631 1_555
Er12 In0 3.398711 1_555
Er12 In3 3.398773 1_555
Er13 Rh3 2.780173 1_545
Er13 Rh0 2.780442 1_555
Er13 In2 3.449416 1_555
Er13 In1 3.449453 1_555
Er14 In1 3.187815 1_554
Er14 In3 3.187947 1_555
Er14 Rh2 3.423162 1_554
Er14 Rh0 3.423338 1_554
Er15 Rh2 2.780164 1_554
Er15 Rh1 2.780467 1_455
Er15 In3 3.449403 1_555
Er15 In0 3.449452 1_555
In0 In1 3.167758 1_555
In0 In2 3.167786 1_555
In0 In3 3.167789 1_555
In1 In2 3.167794 1_555
In1 In3 3.167800 1_555
In2 In3 3.167803 1_555
