# generated using pymatgen
data_LiPWO4
_symmetry_space_group_name_H-M   'P 1'
_cell_length_a   4.68951600
_cell_length_b   6.12403400
_cell_length_c   11.21722700
_cell_angle_alpha   90.00000000
_cell_angle_beta   90.00000000
_cell_angle_gamma   90.00000000
_symmetry_Int_Tables_number   1
_chemical_formula_structural   LiPWO4
_chemical_formula_sum   'Li4 P4 W4 O16'
_cell_volume   322.14479879
_cell_formula_units_Z   4
loop_
 _symmetry_equiv_pos_site_id
 _symmetry_equiv_pos_as_xyz
  1  'x, y, z'
loop_
 _atom_site_type_symbol
 _atom_site_label
 _atom_site_symmetry_multiplicity
 _atom_site_fract_x
 _atom_site_fract_y
 _atom_site_fract_z
 _atom_site_occupancy
  Li  Li0  1  0.00000000  0.00000000  0.00000000  1
  Li  Li1  1  0.50000000  0.00000000  0.50000000  1
  Li  Li2  1  0.00000000  0.50000000  0.00000000  1
  Li  Li3  1  0.50000000  0.50000000  0.50000000  1
  P  P0  1  0.57650500  0.75000000  0.08333700  1
  P  P1  1  0.92349500  0.75000000  0.58333700  1
  P  P2  1  0.42349500  0.25000000  0.91666300  1
  P  P3  1  0.07650500  0.25000000  0.41666300  1
  W  W0  1  0.00812200  0.75000000  0.27124500  1
  W  W1  1  0.49187800  0.75000000  0.77124500  1
  W  W2  1  0.99187800  0.25000000  0.72875500  1
  W  W3  1  0.50812200  0.25000000  0.22875500  1
  O  O0  1  0.75146300  0.25000000  0.91234500  1
  O  O1  1  0.21877600  0.45342700  0.35228600  1
  O  O2  1  0.71877600  0.54657300  0.14771400  1
  O  O3  1  0.78122400  0.95342700  0.64771400  1
  O  O4  1  0.28122400  0.04657300  0.85228600  1
  O  O5  1  0.78122400  0.54657300  0.64771400  1
  O  O6  1  0.28122400  0.45342700  0.85228600  1
  O  O7  1  0.21877600  0.04657300  0.35228600  1
  O  O8  1  0.24853700  0.75000000  0.08765500  1
  O  O9  1  0.74853700  0.25000000  0.41234500  1
  O  O10  1  0.71877600  0.95342700  0.14771400  1
  O  O11  1  0.25146300  0.75000000  0.58765500  1
  O  O12  1  0.70087800  0.75000000  0.95533100  1
  O  O13  1  0.29912200  0.25000000  0.04466900  1
  O  O14  1  0.20087800  0.25000000  0.54466900  1
  O  O15  1  0.79912200  0.75000000  0.45533100  1
loop_
_geom_bond_atom_site_label_1
_geom_bond_atom_site_label_2
_geom_bond_distance
_geom_bond_site_symmetry_2
Li0 O12 2.136053 1_444
Li0 O13 2.136053 1_555
Li0 O4 2.136831 1_554
Li0 O10 2.136831 1_445
Li0 O8 2.160831 1_545
Li0 O0 2.160831 1_454
Li1 O14 2.136053 1_555
Li1 O15 2.136053 1_545
Li1 O3 2.136831 1_545
Li1 O7 2.136831 1_555
Li1 O9 2.160831 1_555
Li1 O11 2.160831 1_545
Li2 O12 2.136053 1_454
Li2 O13 2.136053 1_555
Li2 O6 2.136831 1_554
Li2 O2 2.136831 1_455
Li2 O0 2.160831 1_454
Li2 O8 2.160831 1_555
Li3 O15 2.136053 1_555
Li3 O14 2.136053 1_555
Li3 O5 2.136831 1_555
Li3 O1 2.136831 1_555
Li3 O9 2.160831 1_555
Li3 O11 2.160831 1_555
O0 P2 1.538774 1_555
O0 W2 2.347787 1_555
O1 P3 1.587012 1_555
O1 W0 2.258523 1_555
O1 W3 2.305050 1_555
O2 P0 1.587012 1_555
O2 W3 2.258523 1_555
O2 W0 2.305050 1_655
O3 P1 1.587012 1_555
O3 W2 2.258523 1_565
O3 W1 2.305050 1_555
O4 P2 1.587012 1_555
O4 W1 2.258523 1_545
O4 W2 2.305050 1_455
O5 P1 1.587012 1_555
O5 W2 2.258523 1_555
O5 W1 2.305050 1_555
O6 P2 1.587012 1_555
O6 W1 2.258523 1_555
O6 W2 2.305050 1_455
O7 P3 1.587012 1_555
O7 W0 2.258523 1_545
O7 W3 2.305050 1_555
O8 P0 1.538774 1_555
O8 W0 2.347787 1_555
O9 P3 1.538774 1_655
O9 W3 2.347787 1_555
O10 P0 1.587012 1_555
O10 W3 2.258523 1_565
O10 W0 2.305050 1_655
O11 P1 1.538774 1_455
O11 W1 2.347787 1_555
O12 P0 1.549809 1_556
O12 W1 2.285731 1_555
O13 P2 1.549809 1_554
O13 W3 2.285731 1_555
O14 P3 1.549809 1_555
O14 W2 2.285731 1_455
O15 P1 1.549809 1_555
O15 W0 2.285731 1_655
