# generated using pymatgen
data_Hg2Mo2O7
_symmetry_space_group_name_H-M   'P 1'
_cell_length_a   7.31633220
_cell_length_b   7.31633220
_cell_length_c   14.93575713
_cell_angle_alpha   76.56903193
_cell_angle_beta   76.56903193
_cell_angle_gamma   65.27129311
_symmetry_Int_Tables_number   1
_chemical_formula_structural   Hg2Mo2O7
_chemical_formula_sum   'Hg8 Mo8 O28'
_cell_volume   698.00830766
_cell_formula_units_Z   4
loop_
 _symmetry_equiv_pos_site_id
 _symmetry_equiv_pos_as_xyz
  1  'x, y, z'
loop_
 _atom_site_type_symbol
 _atom_site_label
 _atom_site_symmetry_multiplicity
 _atom_site_fract_x
 _atom_site_fract_y
 _atom_site_fract_z
 _atom_site_occupancy
  Hg  Hg0  1  0.92646400  0.23904700  0.43401400  1
  Hg  Hg1  1  0.07353600  0.76095300  0.56598600  1
  Hg  Hg2  1  0.76095300  0.07353600  0.06598600  1
  Hg  Hg3  1  0.23904700  0.92646400  0.93401400  1
  Hg  Hg4  1  0.38614400  0.74228600  0.43749800  1
  Hg  Hg5  1  0.61385600  0.25771400  0.56250200  1
  Hg  Hg6  1  0.74228600  0.38614400  0.93749800  1
  Hg  Hg7  1  0.25771400  0.61385600  0.06250200  1
  Mo  Mo0  1  0.82601100  0.85709500  0.81582500  1
  Mo  Mo1  1  0.63023400  0.67423600  0.69026500  1
  Mo  Mo2  1  0.67423600  0.63023400  0.19026500  1
  Mo  Mo3  1  0.17398900  0.14290500  0.18417500  1
  Mo  Mo4  1  0.85709500  0.82601100  0.31582500  1
  Mo  Mo5  1  0.14290500  0.17398900  0.68417500  1
  Mo  Mo6  1  0.32576400  0.36976600  0.80973500  1
  Mo  Mo7  1  0.36976600  0.32576400  0.30973500  1
  O  O0  1  0.19241600  0.10585700  0.57423700  1
  O  O1  1  0.97697600  0.02302400  0.75000000  1
  O  O2  1  0.64181600  0.72323900  0.32936600  1
  O  O3  1  0.80111200  0.83344100  0.66995800  1
  O  O4  1  0.89414300  0.80758400  0.92576300  1
  O  O5  1  0.83344100  0.80111200  0.16995800  1
  O  O6  1  0.80758400  0.89414300  0.42576300  1
  O  O7  1  0.60617800  0.12584200  0.27680800  1
  O  O8  1  0.38053800  0.32602800  0.42483400  1
  O  O9  1  0.58197400  0.06282400  0.82694100  1
  O  O10  1  0.87415800  0.39382200  0.22319200  1
  O  O11  1  0.39382200  0.87415800  0.72319200  1
  O  O12  1  0.06282400  0.58197400  0.32694100  1
  O  O13  1  0.35818400  0.27676100  0.67063400  1
  O  O14  1  0.10585700  0.19241600  0.07423700  1
  O  O15  1  0.19888800  0.16655900  0.33004200  1
  O  O16  1  0.93717600  0.41802600  0.67305900  1
  O  O17  1  0.02302400  0.97697600  0.25000000  1
  O  O18  1  0.55300400  0.44699600  0.75000000  1
  O  O19  1  0.72323900  0.64181600  0.82936600  1
  O  O20  1  0.67397200  0.61946200  0.07516600  1
  O  O21  1  0.27676100  0.35818400  0.17063400  1
  O  O22  1  0.32602800  0.38053800  0.92483400  1
  O  O23  1  0.44699600  0.55300400  0.25000000  1
  O  O24  1  0.12584200  0.60617800  0.77680800  1
  O  O25  1  0.61946200  0.67397200  0.57516600  1
  O  O26  1  0.16655900  0.19888800  0.83004200  1
  O  O27  1  0.41802600  0.93717600  0.17305900  1
loop_
_geom_bond_atom_site_label_1
_geom_bond_atom_site_label_2
_geom_bond_distance
_geom_bond_site_symmetry_2
Hg0 O15 2.173880 1_655
Hg1 O3 2.173880 1_455
Hg2 O5 2.173880 1_545
Hg3 O26 2.173880 1_565
Hg4 O2 2.147060 1_555
Hg5 O13 2.147060 1_555
Hg6 O19 2.147060 1_555
Hg7 O21 2.147060 1_555
Mo0 O4 1.740326 1_555
Mo0 O9 1.791911 1_565
Mo0 O1 1.929565 1_565
Mo0 O19 1.964507 1_555
Mo0 O24 2.248499 1_655
Mo0 O3 2.279359 1_555
Mo1 O25 1.739568 1_555
Mo1 O11 1.787569 1_555
Mo1 O18 1.934446 1_555
Mo1 O3 1.972263 1_555
Mo1 O16 2.248720 1_555
Mo1 O19 2.264594 1_555
Mo2 O20 1.739568 1_555
Mo2 O10 1.787569 1_555
Mo2 O23 1.934446 1_555
Mo2 O5 1.972263 1_555
Mo2 O27 2.248720 1_555
Mo2 O2 2.264594 1_555
Mo3 O14 1.740326 1_555
Mo3 O27 1.791911 1_545
Mo3 O17 1.929565 1_545
Mo3 O21 1.964507 1_555
Mo3 O10 2.248499 1_455
Mo3 O15 2.279359 1_555
Mo4 O6 1.740326 1_555
Mo4 O12 1.791911 1_655
Mo4 O17 1.929565 1_655
Mo4 O2 1.964507 1_555
Mo4 O7 2.248499 1_565
Mo4 O5 2.279359 1_555
Mo5 O0 1.740326 1_555
Mo5 O16 1.791911 1_455
Mo5 O1 1.929565 1_455
Mo5 O13 1.964507 1_555
Mo5 O11 2.248499 1_545
Mo5 O26 2.279359 1_555
Mo6 O22 1.739568 1_555
Mo6 O24 1.787569 1_555
Mo6 O18 1.934446 1_555
Mo6 O26 1.972263 1_555
Mo6 O9 2.248720 1_555
Mo6 O13 2.264594 1_555
Mo7 O8 1.739568 1_555
Mo7 O7 1.787569 1_555
Mo7 O23 1.934446 1_555
Mo7 O15 1.972263 1_555
Mo7 O12 2.248720 1_555
Mo7 O21 2.264594 1_555
