# generated using pymatgen
data_K2V3P4O17
_symmetry_space_group_name_H-M   'P 1'
_cell_length_a   7.38296900
_cell_length_b   11.65079200
_cell_length_c   17.72623300
_cell_angle_alpha   90.00000000
_cell_angle_beta   90.00000000
_cell_angle_gamma   90.00000000
_symmetry_Int_Tables_number   1
_chemical_formula_structural   K2V3P4O17
_chemical_formula_sum   'K8 V12 P16 O68'
_cell_volume   1524.76511546
_cell_formula_units_Z   4
loop_
 _symmetry_equiv_pos_site_id
 _symmetry_equiv_pos_as_xyz
  1  'x, y, z'
loop_
 _atom_site_type_symbol
 _atom_site_label
 _atom_site_symmetry_multiplicity
 _atom_site_fract_x
 _atom_site_fract_y
 _atom_site_fract_z
 _atom_site_occupancy
  K  K0  1  0.25632000  0.04313100  0.64539600  1
  K  K1  1  0.25632000  0.45686900  0.14539600  1
  K  K2  1  0.73588800  0.36916300  0.32868100  1
  K  K3  1  0.23588800  0.86916300  0.17131900  1
  K  K4  1  0.75632000  0.95686900  0.35460400  1
  K  K5  1  0.75632000  0.54313100  0.85460400  1
  K  K6  1  0.23588800  0.63083700  0.67131900  1
  K  K7  1  0.73588800  0.13083700  0.82868100  1
  V  V0  1  0.24326900  0.16147000  0.31099300  1
  V  V1  1  0.73810500  0.16128500  0.60173500  1
  V  V2  1  0.74326900  0.66147000  0.18900700  1
  V  V3  1  0.23810500  0.83871500  0.39826500  1
  V  V4  1  0.74326900  0.83853000  0.68900700  1
  V  V5  1  0.96545000  0.99811400  0.99924300  1
  V  V6  1  0.23810500  0.66128500  0.89826500  1
  V  V7  1  0.24326900  0.33853000  0.81099300  1
  V  V8  1  0.73810500  0.33871500  0.10173500  1
  V  V9  1  0.46545000  0.00188600  0.00075700  1
  V  V10  1  0.46545000  0.49811400  0.50075700  1
  V  V11  1  0.96545000  0.50188600  0.49924300  1
  P  P0  1  0.43719900  0.20968200  0.47407600  1
  P  P1  1  0.54202600  0.11095400  0.17408300  1
  P  P2  1  0.54202600  0.38904600  0.67408300  1
  P  P3  1  0.53185400  0.71186400  0.03007000  1
  P  P4  1  0.44446500  0.88834000  0.82908500  1
  P  P5  1  0.53185400  0.78813600  0.53007000  1
  P  P6  1  0.94446500  0.38834000  0.67091500  1
  P  P7  1  0.04202600  0.88904600  0.82591700  1
  P  P8  1  0.43719900  0.29031800  0.97407600  1
  P  P9  1  0.94446500  0.11166000  0.17091500  1
  P  P10  1  0.03185400  0.28813600  0.96993000  1
  P  P11  1  0.93719900  0.70968200  0.02592400  1
  P  P12  1  0.93719900  0.79031800  0.52592400  1
  P  P13  1  0.44446500  0.61166000  0.32908500  1
  P  P14  1  0.03185400  0.21186400  0.46993000  1
  P  P15  1  0.04202600  0.61095400  0.32591700  1
  O  O0  1  0.96685600  0.53294400  0.38718900  1
  O  O1  1  0.46685600  0.46705600  0.61281100  1
  O  O2  1  0.73231700  0.70812500  0.99145400  1
  O  O3  1  0.46322200  0.83463400  0.03103100  1
  O  O4  1  0.04304600  0.62916400  0.97370100  1
  O  O5  1  0.74436100  0.06696500  0.19497200  1
  O  O6  1  0.41505400  0.86689300  0.48084200  1
  O  O7  1  0.42730300  0.76244300  0.85328700  1
  O  O8  1  0.91505400  0.13310700  0.51915800  1
  O  O9  1  0.51427600  0.96764800  0.89090100  1
  O  O10  1  0.24436100  0.93303500  0.80502800  1
  O  O11  1  0.51186400  0.33150500  0.47564800  1
  O  O12  1  0.96685600  0.96705600  0.88718900  1
  O  O13  1  0.54304600  0.12916400  0.52629900  1
  O  O14  1  0.23231700  0.20812500  0.50854600  1
  O  O15  1  0.55296500  0.59316800  0.25732600  1
  O  O16  1  0.74002300  0.04606700  0.65536300  1
  O  O17  1  0.44159900  0.40816500  0.74783600  1
  O  O18  1  0.24002300  0.54606700  0.84463700  1
  O  O19  1  0.94159900  0.59183500  0.25216400  1
  O  O20  1  0.74002300  0.45393300  0.15536300  1
  O  O21  1  0.74703500  0.79384400  0.21988400  1
  O  O22  1  0.54543200  0.66266200  0.11013800  1
  O  O23  1  0.23732100  0.00821200  0.99092700  1
  O  O24  1  0.01186400  0.83150500  0.02435200  1
  O  O25  1  0.96322200  0.33463400  0.46896900  1
  O  O26  1  0.55607100  0.26252500  0.65080500  1
  O  O27  1  0.05607100  0.76252500  0.84919500  1
  O  O28  1  0.96322200  0.16536600  0.96896900  1
  O  O29  1  0.73732100  0.50821200  0.50907300  1
  O  O30  1  0.05296500  0.40683200  0.74267400  1
  O  O31  1  0.54543200  0.83733800  0.61013800  1
  O  O32  1  0.04304600  0.87083600  0.47370100  1
  O  O33  1  0.24703500  0.20615600  0.78011600  1
  O  O34  1  0.04543200  0.16266200  0.38986200  1
  O  O35  1  0.01427600  0.46764800  0.60909900  1
  O  O36  1  0.43135000  0.16197900  0.39361500  1
  O  O37  1  0.74703500  0.70615600  0.71988400  1
  O  O38  1  0.24436100  0.56696500  0.30502800  1
  O  O39  1  0.04543200  0.33733800  0.88986200  1
  O  O40  1  0.55607100  0.23747500  0.15080500  1
  O  O41  1  0.46685600  0.03294400  0.11281100  1
  O  O42  1  0.01186400  0.66849500  0.52435200  1
  O  O43  1  0.42730300  0.73755700  0.35328700  1
  O  O44  1  0.93135000  0.83802100  0.60638500  1
  O  O45  1  0.05296500  0.09316800  0.24267400  1
  O  O46  1  0.54304600  0.37083600  0.02629900  1
  O  O47  1  0.46322200  0.66536600  0.53103100  1
  O  O48  1  0.74436100  0.43303500  0.69497200  1
  O  O49  1  0.44159900  0.09183500  0.24783600  1
  O  O50  1  0.43135000  0.33802100  0.89361500  1
  O  O51  1  0.55296500  0.90683200  0.75732600  1
  O  O52  1  0.92730300  0.26244300  0.64671300  1
  O  O53  1  0.91505400  0.36689300  0.01915800  1
  O  O54  1  0.94159900  0.90816500  0.75216400  1
  O  O55  1  0.23231700  0.29187500  0.00854600  1
  O  O56  1  0.23732100  0.49178800  0.49092700  1
  O  O57  1  0.24703500  0.29384400  0.28011600  1
  O  O58  1  0.51427600  0.53235200  0.39090100  1
  O  O59  1  0.73732100  0.99178800  0.00907300  1
  O  O60  1  0.51186400  0.16849500  0.97564800  1
  O  O61  1  0.24002300  0.95393300  0.34463700  1
  O  O62  1  0.73231700  0.79187500  0.49145400  1
  O  O63  1  0.05607100  0.73747500  0.34919500  1
  O  O64  1  0.92730300  0.23755700  0.14671300  1
  O  O65  1  0.93135000  0.66197900  0.10638500  1
  O  O66  1  0.41505400  0.63310700  0.98084200  1
  O  O67  1  0.01427600  0.03235200  0.10909900  1
loop_
_geom_bond_atom_site_label_1
_geom_bond_atom_site_label_2
_geom_bond_distance
_geom_bond_site_symmetry_2
K0 O33 3.052085 1_555
K0 O14 3.100219 1_555
K0 O10 3.108084 1_545
K0 O13 3.153228 1_555
K0 O31 3.270391 1_545
K1 O57 3.052085 1_555
K1 O55 3.100219 1_555
K1 O38 3.108084 1_555
K1 O46 3.153228 1_555
K1 O22 3.270391 1_555
K2 O58 2.740131 1_555
K2 O0 2.761265 1_555
K2 O25 3.027033 1_555
K2 O11 3.116890 1_555
K2 O15 3.199217 1_555
K2 O20 3.227264 1_555
K2 O19 3.297992 1_555
K3 O67 2.740131 1_565
K3 O41 2.761265 1_565
K3 O3 3.027033 1_555
K3 O24 3.116890 1_555
K3 O45 3.199217 1_565
K3 O61 3.227264 1_555
K3 O49 3.297992 1_565
K4 O21 3.052085 1_555
K4 O62 3.100219 1_555
K4 O5 3.108084 1_565
K4 O32 3.153228 1_655
K4 O34 3.270391 1_665
K5 O37 3.052085 1_555
K5 O2 3.100219 1_555
K5 O48 3.108084 1_555
K5 O4 3.153228 1_655
K5 O39 3.270391 1_655
K6 O35 2.740131 1_555
K6 O1 2.761265 1_555
K6 O47 3.027033 1_555
K6 O42 3.116890 1_555
K6 O30 3.199217 1_555
K6 O18 3.227264 1_555
K6 O17 3.297992 1_555
K7 O9 2.740131 1_545
K7 O12 2.761265 1_545
K7 O28 3.027033 1_555
K7 O60 3.116890 1_555
K7 O51 3.199217 1_545
K7 O16 3.227264 1_555
K7 O54 3.297992 1_545
O0 P15 1.521092 1_655
O0 V11 2.019013 1_555
O1 P2 1.521092 1_555
O1 V10 2.019013 1_555
O2 P3 1.631225 1_556
O2 P11 1.631487 1_556
O3 P3 1.517562 1_555
O3 V9 2.021230 1_565
O4 P11 1.532210 1_456
O4 V6 2.000519 1_555
O5 P1 1.622131 1_555
O5 P9 1.623456 1_555
O6 P5 1.532008 1_555
O6 V3 1.989254 1_555
O7 P4 1.533495 1_555
O7 V6 1.993959 1_555
O8 P14 1.532008 1_655
O8 V1 1.989254 1_555
O9 P4 1.523197 1_555
O9 V9 2.020191 1_566
O10 P7 1.622131 1_555
O10 P4 1.623456 1_555
O11 P0 1.522880 1_555
O11 V10 2.020768 1_555
O12 P7 1.521092 1_655
O12 V5 2.019013 1_555
O13 P0 1.532210 1_555
O13 V1 2.000519 1_555
O14 P14 1.631225 1_555
O14 P0 1.631487 1_555
O15 P13 1.518594 1_555
O15 V2 2.018395 1_555
O16 V1 1.644953 1_555
O16 V4 2.490547 1_545
O17 P2 1.519396 1_555
O17 V7 2.013863 1_555
O18 V6 1.644953 1_555
O18 V7 2.490547 1_555
O19 P15 1.519396 1_655
O19 V2 2.013863 1_555
O20 V8 1.644953 1_555
O20 V2 2.490547 1_555
O21 V2 1.636740 1_555
O22 P3 1.533975 1_555
O22 V2 2.021920 1_555
O23 V9 1.694862 1_556
O23 V5 2.016057 1_445
O24 P11 1.522880 1_455
O24 V5 2.020768 1_454
O25 P14 1.517562 1_655
O25 V11 2.021230 1_555
O26 P2 1.534242 1_555
O26 V1 1.988488 1_555
O27 P7 1.534242 1_555
O27 V6 1.988488 1_555
O28 P10 1.517562 1_655
O28 V5 2.021230 1_545
O29 V11 1.694862 1_555
O29 V10 2.016057 1_555
O30 P6 1.518594 1_455
O30 V7 2.018395 1_555
O31 P5 1.533975 1_555
O31 V4 2.021920 1_555
O32 P12 1.532210 1_455
O32 V3 2.000519 1_555
O33 V7 1.636740 1_555
O34 P14 1.533975 1_555
O34 V0 2.021920 1_555
O35 P6 1.523197 1_455
O35 V11 2.020191 1_455
O36 P0 1.531340 1_555
O36 V0 2.018222 1_555
O37 V4 1.636740 1_555
O38 P15 1.622131 1_555
O38 P13 1.623456 1_555
O39 P10 1.533975 1_555
O39 V7 2.021920 1_555
O40 P1 1.534242 1_555
O40 V8 1.988488 1_555
O41 P1 1.521092 1_555
O41 V9 2.019013 1_555
O42 P12 1.522880 1_455
O42 V11 2.020768 1_455
O43 P13 1.533495 1_555
O43 V3 1.993959 1_555
O44 P12 1.531340 1_555
O44 V4 2.018222 1_555
O45 P9 1.518594 1_455
O45 V0 2.018395 1_555
O46 P8 1.532210 1_554
O46 V8 2.000519 1_555
O47 P5 1.517562 1_555
O47 V10 2.021230 1_555
O48 P2 1.622131 1_555
O48 P6 1.623456 1_555
O49 P1 1.519396 1_555
O49 V0 2.013863 1_555
O50 P8 1.531340 1_555
O50 V7 2.018222 1_555
O51 P4 1.518594 1_555
O51 V4 2.018395 1_555
O52 P6 1.533495 1_555
O52 V1 1.993959 1_555
O53 P10 1.532008 1_654
O53 V8 1.989254 1_555
O54 P7 1.519396 1_655
O54 V4 2.013863 1_555
O55 P10 1.631225 1_554
O55 P8 1.631487 1_554
O56 V10 1.694862 1_555
O56 V11 2.016057 1_455
O57 V0 1.636740 1_555
O58 P13 1.523197 1_555
O58 V10 2.020191 1_555
O59 V5 1.694862 1_554
O59 V9 2.016057 1_565
O60 P8 1.522880 1_555
O60 V9 2.020768 1_556
O61 V3 1.644953 1_555
O61 V0 2.490547 1_565
O62 P5 1.631225 1_555
O62 P12 1.631487 1_555
O63 P15 1.534242 1_555
O63 V3 1.988488 1_555
O64 P9 1.533495 1_555
O64 V8 1.993959 1_555
O65 P11 1.531340 1_555
O65 V2 2.018222 1_555
O66 P3 1.532008 1_556
O66 V6 1.989254 1_555
O67 P9 1.523197 1_455
O67 V5 2.020191 1_444
