# generated using pymatgen
data_Ga(BiCl)4
_symmetry_space_group_name_H-M   'P 1'
_cell_length_a   18.29661354
_cell_length_b   18.29661354
_cell_length_c   13.49375600
_cell_angle_alpha   90.00000000
_cell_angle_beta   90.00000000
_cell_angle_gamma   119.99999835
_symmetry_Int_Tables_number   1
_chemical_formula_structural   Ga(BiCl)4
_chemical_formula_sum   'Ga12 Bi48 Cl48'
_cell_volume   3912.05472960
_cell_formula_units_Z   12
loop_
 _symmetry_equiv_pos_site_id
 _symmetry_equiv_pos_as_xyz
  1  'x, y, z'
loop_
 _atom_site_type_symbol
 _atom_site_label
 _atom_site_symmetry_multiplicity
 _atom_site_fract_x
 _atom_site_fract_y
 _atom_site_fract_z
 _atom_site_occupancy
  Ga  Ga0  1  0.66666700  0.33333300  0.73217400  1
  Ga  Ga1  1  0.33333300  0.66666700  0.23217400  1
  Ga  Ga2  1  0.66666700  0.33333300  0.19929900  1
  Ga  Ga3  1  0.63946500  0.69471700  0.00764200  1
  Ga  Ga4  1  0.36053500  0.30528300  0.50764200  1
  Ga  Ga5  1  0.30528300  0.94474800  0.00764200  1
  Ga  Ga6  1  0.00000000  0.00000000  0.29142100  1
  Ga  Ga7  1  0.00000000  0.00000000  0.79142100  1
  Ga  Ga8  1  0.94474800  0.63946500  0.50764200  1
  Ga  Ga9  1  0.33333300  0.66666700  0.69929900  1
  Ga  Ga10  1  0.69471700  0.05525200  0.50764200  1
  Ga  Ga11  1  0.05525200  0.36053500  0.00764200  1
  Bi  Bi0  1  0.62601700  0.76911100  0.64939800  1
  Bi  Bi1  1  0.63217700  0.77737700  0.42078100  1
  Bi  Bi2  1  0.95667800  0.53897600  0.91012400  1
  Bi  Bi3  1  0.85480000  0.63217700  0.92078100  1
  Bi  Bi4  1  0.76911100  0.14309400  0.14939800  1
  Bi  Bi5  1  0.46102400  0.41770200  0.91012400  1
  Bi  Bi6  1  0.36782300  0.22262300  0.92078100  1
  Bi  Bi7  1  0.33606800  0.46103800  0.02603600  1
  Bi  Bi8  1  0.26425500  0.31524300  0.87215400  1
  Bi  Bi9  1  0.23088900  0.85690600  0.64939800  1
  Bi  Bi10  1  0.27275700  0.32705200  0.19218500  1
  Bi  Bi11  1  0.95808700  0.53206500  0.13997900  1
  Bi  Bi12  1  0.22262300  0.85480000  0.42078100  1
  Bi  Bi13  1  0.12497000  0.66393200  0.02603600  1
  Bi  Bi14  1  0.53896200  0.87503000  0.02603600  1
  Bi  Bi15  1  0.01970300  0.20138600  0.53906600  1
  Bi  Bi16  1  0.14309400  0.37398300  0.64939800  1
  Bi  Bi17  1  0.42602100  0.95808700  0.63997900  1
  Bi  Bi18  1  0.53897600  0.58229800  0.41012400  1
  Bi  Bi19  1  0.05429500  0.72724300  0.19218500  1
  Bi  Bi20  1  0.72724300  0.67294800  0.69218500  1
  Bi  Bi21  1  0.68475700  0.94901100  0.87215400  1
  Bi  Bi22  1  0.58229800  0.04332200  0.91012400  1
  Bi  Bi23  1  0.31524300  0.05098900  0.37215400  1
  Bi  Bi24  1  0.94901100  0.26425500  0.37215400  1
  Bi  Bi25  1  0.81831700  0.01970300  0.03906600  1
  Bi  Bi26  1  0.98029700  0.79861400  0.03906600  1
  Bi  Bi27  1  0.67294800  0.94570500  0.19218500  1
  Bi  Bi28  1  0.04191300  0.46793500  0.63997900  1
  Bi  Bi29  1  0.85690600  0.62601700  0.14939800  1
  Bi  Bi30  1  0.14520000  0.36782300  0.42078100  1
  Bi  Bi31  1  0.57397900  0.04191300  0.13997900  1
  Bi  Bi32  1  0.46103800  0.12497000  0.52603600  1
  Bi  Bi33  1  0.05098900  0.73574500  0.87215400  1
  Bi  Bi34  1  0.87503000  0.33606800  0.52603600  1
  Bi  Bi35  1  0.41770200  0.95667800  0.41012400  1
  Bi  Bi36  1  0.77737700  0.14520000  0.92078100  1
  Bi  Bi37  1  0.46793500  0.42602100  0.13997900  1
  Bi  Bi38  1  0.04332200  0.46102400  0.41012400  1
  Bi  Bi39  1  0.20138600  0.18168300  0.03906600  1
  Bi  Bi40  1  0.94570500  0.27275700  0.69218500  1
  Bi  Bi41  1  0.53206500  0.57397900  0.63997900  1
  Bi  Bi42  1  0.37398300  0.23088900  0.14939800  1
  Bi  Bi43  1  0.79861400  0.81831700  0.53906600  1
  Bi  Bi44  1  0.66393200  0.53896200  0.52603600  1
  Bi  Bi45  1  0.73574500  0.68475700  0.37215400  1
  Bi  Bi46  1  0.32705200  0.05429500  0.69218500  1
  Bi  Bi47  1  0.18168300  0.98029700  0.53906600  1
  Cl  Cl0  1  0.86843000  0.54371500  0.39623900  1
  Cl  Cl1  1  0.07261500  0.65330000  0.51643100  1
  Cl  Cl2  1  0.78394400  0.33900100  0.25381100  1
  Cl  Cl3  1  0.54371500  0.67528400  0.89623900  1
  Cl  Cl4  1  0.66099900  0.44494300  0.25381100  1
  Cl  Cl5  1  0.55593800  0.21555300  0.78615300  1
  Cl  Cl6  1  0.76310700  0.80063800  0.96565200  1
  Cl  Cl7  1  0.78444700  0.34038500  0.78615300  1
  Cl  Cl8  1  0.19936200  0.96247000  0.96565200  1
  Cl  Cl9  1  0.45628500  0.32471600  0.39623900  1
  Cl  Cl10  1  0.11684800  0.40531300  0.15262900  1
  Cl  Cl11  1  0.33333300  0.66666700  0.06903800  1
  Cl  Cl12  1  0.92738500  0.34670000  0.01643100  1
  Cl  Cl13  1  0.65961500  0.44406200  0.78615300  1
  Cl  Cl14  1  0.32471600  0.86843000  0.89623900  1
  Cl  Cl15  1  0.67528400  0.13157000  0.39623900  1
  Cl  Cl16  1  0.03753000  0.23689300  0.96565200  1
  Cl  Cl17  1  0.21605600  0.66099900  0.75381100  1
  Cl  Cl18  1  0.23689300  0.19936200  0.46565200  1
  Cl  Cl19  1  0.41931500  0.07261500  0.01643100  1
  Cl  Cl20  1  0.33900100  0.55505700  0.75381100  1
  Cl  Cl21  1  0.44406200  0.78444700  0.28615300  1
  Cl  Cl22  1  0.12319600  0.10143200  0.73734300  1
  Cl  Cl23  1  0.13157000  0.45628500  0.89623900  1
  Cl  Cl24  1  0.58068500  0.92738500  0.51643100  1
  Cl  Cl25  1  0.55505700  0.21605600  0.25381100  1
  Cl  Cl26  1  0.65330000  0.58068500  0.01643100  1
  Cl  Cl27  1  0.87680400  0.89856800  0.23734300  1
  Cl  Cl28  1  0.97823600  0.87680400  0.73734300  1
  Cl  Cl29  1  0.71153500  0.11684800  0.65262900  1
  Cl  Cl30  1  0.33333300  0.66666700  0.53793900  1
  Cl  Cl31  1  0.80063800  0.03753000  0.46565200  1
  Cl  Cl32  1  0.00000000  0.00000000  0.95558100  1
  Cl  Cl33  1  0.44494300  0.78394400  0.75381100  1
  Cl  Cl34  1  0.00000000  0.00000000  0.45558100  1
  Cl  Cl35  1  0.89856800  0.02176400  0.73734300  1
  Cl  Cl36  1  0.40531300  0.28846500  0.65262900  1
  Cl  Cl37  1  0.34670000  0.41931500  0.51643100  1
  Cl  Cl38  1  0.28846500  0.88315200  0.15262900  1
  Cl  Cl39  1  0.66666700  0.33333300  0.03793900  1
  Cl  Cl40  1  0.02176400  0.12319600  0.23734300  1
  Cl  Cl41  1  0.66666700  0.33333300  0.56903800  1
  Cl  Cl42  1  0.59468700  0.71153500  0.15262900  1
  Cl  Cl43  1  0.96247000  0.76310700  0.46565200  1
  Cl  Cl44  1  0.21555300  0.65961500  0.28615300  1
  Cl  Cl45  1  0.88315200  0.59468700  0.65262900  1
  Cl  Cl46  1  0.34038500  0.55593800  0.28615300  1
  Cl  Cl47  1  0.10143200  0.97823600  0.23734300  1
loop_
_geom_bond_atom_site_label_1
_geom_bond_atom_site_label_2
_geom_bond_distance
_geom_bond_site_symmetry_2
Bi0 Bi1 3.087904 1_555
Bi0 Bi41 3.095249 1_555
Bi0 Bi20 3.180874 1_555
Bi0 Bi43 3.186932 1_555
Bi1 Bi18 3.095453 1_555
Bi1 Bi43 3.178212 1_555
Bi1 Bi45 3.178737 1_555
Bi2 Bi3 3.095453 1_555
Bi2 Bi33 3.160566 1_655
Bi3 Bi33 3.178752 1_655
Bi5 Bi6 3.095453 1_555
Bi5 Bi8 3.160567 1_555
Bi5 Bi7 3.180392 1_556
Bi6 Bi8 3.178737 1_555
Bi7 Bi8 3.106269 1_554
Bi10 Bi7 3.088420 1_555
Bi10 Bi39 3.094398 1_555
Bi10 Bi37 3.171978 1_555
Bi10 Bi42 3.180874 1_555
Bi11 Bi29 3.095265 1_555
Bi11 Bi2 3.104816 1_554
Bi11 Bi19 3.171978 1_655
Bi11 Bi13 3.184558 1_655
Bi12 Bi9 3.087904 1_555
Bi12 Bi35 3.095453 1_555
Bi12 Bi47 3.178212 1_555
Bi12 Bi23 3.178753 1_565
Bi13 Bi19 3.088420 1_555
Bi13 Bi33 3.106257 1_554
Bi13 Bi2 3.180392 1_454
Bi14 Bi27 3.088420 1_555
Bi14 Bi21 3.106269 1_554
Bi14 Bi22 3.180392 1_564
Bi14 Bi31 3.184553 1_565
Bi15 Bi24 3.091382 1_455
Bi15 Bi40 3.094398 1_455
Bi15 Bi30 3.178212 1_555
Bi15 Bi16 3.186932 1_555
Bi16 Bi30 3.087904 1_555
Bi16 Bi28 3.095265 1_555
Bi16 Bi40 3.180874 1_455
Bi17 Bi9 3.095249 1_555
Bi17 Bi35 3.104815 1_555
Bi17 Bi46 3.171962 1_565
Bi17 Bi32 3.184553 1_565
Bi18 Bi41 3.104815 1_555
Bi18 Bi45 3.160567 1_555
Bi18 Bi44 3.180392 1_555
Bi19 Bi26 3.094398 1_455
Bi19 Bi29 3.180874 1_455
Bi20 Bi44 3.088420 1_555
Bi20 Bi43 3.094398 1_555
Bi20 Bi41 3.171978 1_555
Bi21 Bi25 3.091372 1_566
Bi21 Bi22 3.160582 1_565
Bi21 Bi36 3.178753 1_565
Bi22 Bi36 3.095453 1_555
Bi22 Bi31 3.104815 1_556
Bi23 Bi47 3.091372 1_545
Bi23 Bi32 3.106269 1_555
Bi23 Bi35 3.160582 1_545
Bi24 Bi34 3.106257 1_555
Bi24 Bi38 3.160566 1_655
Bi24 Bi30 3.178752 1_655
Bi25 Bi27 3.094398 1_545
Bi25 Bi36 3.178212 1_554
Bi25 Bi4 3.186932 1_555
Bi26 Bi33 3.091382 1_654
Bi26 Bi3 3.178212 1_554
Bi26 Bi29 3.186932 1_555
Bi27 Bi31 3.171962 1_565
Bi27 Bi4 3.180874 1_565
Bi28 Bi38 3.104816 1_555
Bi28 Bi40 3.171978 1_455
Bi28 Bi34 3.184558 1_455
Bi29 Bi3 3.087904 1_554
Bi30 Bi38 3.095453 1_555
Bi31 Bi4 3.095249 1_555
Bi32 Bi46 3.088420 1_555
Bi32 Bi35 3.180392 1_545
Bi34 Bi40 3.088420 1_555
Bi34 Bi38 3.180392 1_655
Bi36 Bi4 3.087904 1_556
Bi37 Bi42 3.095249 1_555
Bi37 Bi5 3.104815 1_554
Bi37 Bi7 3.184569 1_555
Bi39 Bi8 3.091371 1_554
Bi39 Bi6 3.178212 1_554
Bi39 Bi42 3.186932 1_555
Bi41 Bi44 3.184569 1_555
Bi42 Bi6 3.087904 1_554
Bi43 Bi45 3.091371 1_555
Bi44 Bi45 3.106269 1_555
Bi46 Bi47 3.094398 1_545
Bi46 Bi9 3.180874 1_545
Bi47 Bi9 3.186932 1_555
Cl0 Ga8 2.198281 1_555
Cl1 Ga8 2.226958 1_455
Cl2 Ga2 2.221178 1_555
Cl3 Ga3 2.198277 1_556
Cl4 Ga2 2.221195 1_555
Cl5 Ga0 2.216548 1_555
Cl6 Ga3 2.193253 1_556
Cl7 Ga0 2.216540 1_555
Cl8 Ga5 2.193264 1_556
Cl9 Ga4 2.198277 1_555
Cl10 Ga11 2.201272 1_555
Cl11 Ga1 2.201317 1_555
Cl12 Ga11 2.226958 1_655
Cl13 Ga0 2.216558 1_555
Cl14 Ga5 2.198290 1_556
Cl15 Ga10 2.198290 1_555
Cl16 Ga11 2.193246 1_556
Cl17 Ga9 2.221178 1_555
Cl18 Ga4 2.193253 1_555
Cl19 Ga5 2.226958 1_545
Cl20 Ga9 2.221195 1_555
Cl21 Ga1 2.216548 1_555
Cl22 Ga7 2.207781 1_555
Cl23 Ga11 2.198281 1_556
Cl24 Ga10 2.226958 1_565
Cl25 Ga2 2.221186 1_555
Cl26 Ga3 2.226958 1_555
Cl27 Ga6 2.207781 1_665
Cl28 Ga7 2.207781 1_665
Cl29 Ga10 2.201272 1_555
Cl30 Ga9 2.177352 1_555
Cl31 Ga10 2.193264 1_555
Cl32 Ga7 2.215135 1_555
Cl33 Ga9 2.221186 1_555
Cl34 Ga6 2.215135 1_555
Cl35 Ga7 2.207781 1_655
Cl36 Ga4 2.201272 1_555
Cl37 Ga4 2.226958 1_555
Cl38 Ga5 2.201272 1_555
Cl39 Ga2 2.177352 1_555
Cl40 Ga6 2.207781 1_555
Cl41 Ga0 2.201317 1_555
Cl42 Ga3 2.201272 1_555
Cl43 Ga8 2.193246 1_555
Cl44 Ga1 2.216540 1_555
Cl45 Ga8 2.201272 1_555
Cl46 Ga1 2.216558 1_555
Cl47 Ga6 2.207781 1_565
