# generated using pymatgen
data_Na4CO4
_symmetry_space_group_name_H-M   'P 1'
_cell_length_a   5.70540875
_cell_length_b   5.70540875
_cell_length_c   5.70540875
_cell_angle_alpha   99.84028249
_cell_angle_beta   99.84028249
_cell_angle_gamma   131.16239462
_symmetry_Int_Tables_number   1
_chemical_formula_structural   Na4CO4
_chemical_formula_sum   'Na4 C1 O4'
_cell_volume   127.31217041
_cell_formula_units_Z   1
loop_
 _symmetry_equiv_pos_site_id
 _symmetry_equiv_pos_as_xyz
  1  'x, y, z'
loop_
 _atom_site_type_symbol
 _atom_site_label
 _atom_site_symmetry_multiplicity
 _atom_site_fract_x
 _atom_site_fract_y
 _atom_site_fract_z
 _atom_site_occupancy
  Na  Na0  1  0.67570024  0.67570024  0.65279785  1
  Na  Na1  1  0.32429976  0.97709862  0.00000000  1
  Na  Na2  1  0.02290138  0.02290138  0.34720215  1
  Na  Na3  1  0.97709862  0.32429976  0.00000000  1
  C  C0  1  0.50000000  0.50000000  0.00000000  1
  O  O0  1  0.78402984  0.55868019  0.00000000  1
  O  O1  1  0.21597016  0.21597016  0.77465035  1
  O  O2  1  0.55868019  0.78402984  -0.00000000  1
  O  O3  1  0.44131981  0.44131981  0.22534965  1
loop_
_geom_bond_atom_site_label_1
_geom_bond_atom_site_label_2
_geom_bond_distance
_geom_bond_site_symmetry_2
Na0 O3 2.222751 1_555
Na0 O0 2.308381 1_556
Na0 O2 2.308381 1_556
Na0 O1 2.348131 1_665
Na0 O1 2.536343 1_555
Na1 O2 2.222756 1_555
Na1 O1 2.308376 1_564
Na1 O3 2.308376 1_565
Na1 O0 2.348132 1_455
Na1 O0 2.536339 1_565
Na2 O1 2.222751 1_555
Na2 O0 2.308379 1_445
Na2 O2 2.308379 1_445
Na2 O3 2.348136 1_555
Na2 O3 2.536338 1_445
Na3 O0 2.222756 1_555
Na3 O1 2.308376 1_654
Na3 O3 2.308376 1_655
Na3 O2 2.348132 1_545
Na3 O2 2.536339 1_655
C0 O2 1.422652 1_555
C0 O1 1.422652 1_554
C0 O3 1.422652 1_555
C0 O0 1.422652 1_555
