# generated using pymatgen
data_KZn4(PO4)3
_symmetry_space_group_name_H-M   'P 1'
_cell_length_a   8.26899200
_cell_length_b   9.78868600
_cell_length_c   14.06553800
_cell_angle_alpha   90.00000000
_cell_angle_beta   90.00000000
_cell_angle_gamma   90.00000000
_symmetry_Int_Tables_number   1
_chemical_formula_structural   KZn4(PO4)3
_chemical_formula_sum   'K4 Zn16 P12 O48'
_cell_volume   1138.50074105
_cell_formula_units_Z   4
loop_
 _symmetry_equiv_pos_site_id
 _symmetry_equiv_pos_as_xyz
  1  'x, y, z'
loop_
 _atom_site_type_symbol
 _atom_site_label
 _atom_site_symmetry_multiplicity
 _atom_site_fract_x
 _atom_site_fract_y
 _atom_site_fract_z
 _atom_site_occupancy
  K  K0  1  0.75000000  0.19399000  0.25000000  1
  K  K1  1  0.25000000  0.80601000  0.75000000  1
  K  K2  1  0.25000000  0.30601000  0.75000000  1
  K  K3  1  0.75000000  0.69399000  0.25000000  1
  Zn  Zn0  1  0.60547800  0.69210600  0.94894200  1
  Zn  Zn1  1  0.89452200  0.19210600  0.94894200  1
  Zn  Zn2  1  0.10547800  0.80789400  0.05105800  1
  Zn  Zn3  1  0.41269300  0.00334100  0.14524900  1
  Zn  Zn4  1  0.58730700  0.99665900  0.85475100  1
  Zn  Zn5  1  0.41269300  0.50334100  0.35475100  1
  Zn  Zn6  1  0.39452200  0.30789400  0.05105800  1
  Zn  Zn7  1  0.58730700  0.49665900  0.64524900  1
  Zn  Zn8  1  0.10547800  0.30789400  0.44894200  1
  Zn  Zn9  1  0.89452200  0.69210600  0.55105800  1
  Zn  Zn10  1  0.08730700  0.50334100  0.14524900  1
  Zn  Zn11  1  0.91269300  0.49665900  0.85475100  1
  Zn  Zn12  1  0.39452200  0.80789400  0.44894200  1
  Zn  Zn13  1  0.60547800  0.19210600  0.55105800  1
  Zn  Zn14  1  0.08730700  0.00334100  0.35475100  1
  Zn  Zn15  1  0.91269300  0.99665900  0.64524900  1
  P  P0  1  0.24584300  0.56560700  0.56479300  1
  P  P1  1  0.75415700  0.43439300  0.43520700  1
  P  P2  1  0.25415700  0.06560700  0.56479300  1
  P  P3  1  0.25000000  0.24602100  0.25000000  1
  P  P4  1  0.75000000  0.25397900  0.75000000  1
  P  P5  1  0.74584300  0.93439300  0.43520700  1
  P  P6  1  0.75000000  0.75397900  0.75000000  1
  P  P7  1  0.25415700  0.56560700  0.93520700  1
  P  P8  1  0.24584300  0.06560700  0.93520700  1
  P  P9  1  0.75415700  0.93439300  0.06479300  1
  P  P10  1  0.74584300  0.43439300  0.06479300  1
  P  P11  1  0.25000000  0.74602100  0.25000000  1
  O  O0  1  0.90255700  0.34220300  0.76284200  1
  O  O1  1  0.61860600  0.32409600  0.08742000  1
  O  O2  1  0.38139400  0.67590400  0.91258000  1
  O  O3  1  0.36747400  0.56369000  0.64863000  1
  O  O4  1  0.36747400  0.06369000  0.85137000  1
  O  O5  1  0.73551800  0.15640000  0.83917200  1
  O  O6  1  0.76448200  0.15640000  0.66082800  1
  O  O7  1  0.17082000  0.42385500  0.55154500  1
  O  O8  1  0.82918000  0.07614500  0.05154500  1
  O  O9  1  0.15896100  0.10872400  0.47074300  1
  O  O10  1  0.26448200  0.84360000  0.16082800  1
  O  O11  1  0.88139400  0.32409600  0.41258000  1
  O  O12  1  0.40255700  0.65779700  0.26284200  1
  O  O13  1  0.11860600  0.17590400  0.91258000  1
  O  O14  1  0.17082000  0.92385500  0.94845500  1
  O  O15  1  0.67082000  0.07614500  0.44845500  1
  O  O16  1  0.32918000  0.92385500  0.55154500  1
  O  O17  1  0.59744300  0.84220300  0.76284200  1
  O  O18  1  0.11860600  0.67590400  0.58742000  1
  O  O19  1  0.34103900  0.10872400  0.02925700  1
  O  O20  1  0.38139400  0.17590400  0.58742000  1
  O  O21  1  0.86747400  0.93631000  0.35137000  1
  O  O22  1  0.09744300  0.65779700  0.23715800  1
  O  O23  1  0.88139400  0.82409600  0.08742000  1
  O  O24  1  0.82918000  0.57614500  0.44845500  1
  O  O25  1  0.86747400  0.43631000  0.14863000  1
  O  O26  1  0.63252600  0.43631000  0.35137000  1
  O  O27  1  0.13252600  0.56369000  0.85137000  1
  O  O28  1  0.65896100  0.39127600  0.52925700  1
  O  O29  1  0.15896100  0.60872400  0.02925700  1
  O  O30  1  0.67082000  0.57614500  0.05154500  1
  O  O31  1  0.34103900  0.60872400  0.47074300  1
  O  O32  1  0.09744300  0.15779700  0.26284200  1
  O  O33  1  0.73551800  0.65640000  0.66082800  1
  O  O34  1  0.65896100  0.89127600  0.97074300  1
  O  O35  1  0.63252600  0.93631000  0.14863000  1
  O  O36  1  0.23551800  0.84360000  0.33917200  1
  O  O37  1  0.59744300  0.34220300  0.73715800  1
  O  O38  1  0.84103900  0.39127600  0.97074300  1
  O  O39  1  0.13252600  0.06369000  0.64863000  1
  O  O40  1  0.40255700  0.15779700  0.23715800  1
  O  O41  1  0.23551800  0.34360000  0.16082800  1
  O  O42  1  0.90255700  0.84220300  0.73715800  1
  O  O43  1  0.32918000  0.42385500  0.94845500  1
  O  O44  1  0.26448200  0.34360000  0.33917200  1
  O  O45  1  0.84103900  0.89127600  0.52925700  1
  O  O46  1  0.61860600  0.82409600  0.41258000  1
  O  O47  1  0.76448200  0.65640000  0.83917200  1
loop_
_geom_bond_atom_site_label_1
_geom_bond_atom_site_label_2
_geom_bond_distance
_geom_bond_site_symmetry_2
K0 O1 2.834041 1_555
K0 O11 2.834041 1_555
K0 O32 2.900395 1_655
K0 O40 2.900395 1_555
K0 O25 2.933075 1_555
K0 O26 2.933075 1_555
K0 O21 3.055948 1_545
K0 O35 3.055948 1_545
K0 O15 3.090491 1_555
K0 O8 3.090491 1_555
K1 O2 2.834041 1_555
K1 O18 2.834041 1_555
K1 O17 2.900395 1_555
K1 O42 2.900395 1_455
K1 O3 2.933075 1_555
K1 O27 2.933075 1_555
K1 O4 3.055948 1_565
K1 O39 3.055948 1_565
K1 O14 3.090491 1_555
K1 O16 3.090491 1_555
K2 O20 2.834041 1_555
K2 O13 2.834041 1_555
K2 O37 2.900395 1_555
K2 O0 2.900395 1_455
K2 O4 2.933075 1_555
K2 O39 2.933075 1_555
K2 O3 3.055948 1_555
K2 O27 3.055948 1_555
K2 O43 3.090491 1_555
K2 O7 3.090491 1_555
K3 O23 2.834041 1_555
K3 O46 2.834041 1_555
K3 O12 2.900395 1_555
K3 O22 2.900395 1_655
K3 O21 2.933075 1_555
K3 O35 2.933075 1_555
K3 O25 3.055948 1_555
K3 O26 3.055948 1_555
K3 O24 3.090491 1_555
K3 O30 3.090491 1_555
O0 P4 1.539412 1_555
O0 Zn11 1.991013 1_555
O1 P10 1.540754 1_555
O1 Zn6 1.928770 1_555
O2 P7 1.540754 1_555
O2 Zn0 1.928770 1_555
O3 P0 1.549987 1_555
O3 Zn7 1.933178 1_555
O4 P8 1.549987 1_555
O4 Zn4 1.933178 1_545
O5 P4 1.581088 1_555
O5 Zn4 1.998754 1_545
O5 Zn1 2.057844 1_555
O6 P4 1.581088 1_555
O6 Zn15 1.998754 1_545
O6 Zn13 2.057844 1_555
O7 P0 1.531311 1_555
O7 Zn8 1.913931 1_555
O8 P9 1.531311 1_545
O8 Zn1 1.913931 1_554
O9 P2 1.596166 1_555
O9 Zn14 2.019144 1_555
O9 Zn8 2.022524 1_555
O10 P11 1.581088 1_555
O10 Zn3 1.998754 1_565
O10 Zn2 2.057844 1_555
O11 P1 1.540754 1_555
O11 Zn8 1.928770 1_655
O12 P11 1.539412 1_555
O12 Zn5 1.991013 1_555
O13 P8 1.540754 1_555
O13 Zn1 1.928770 1_455
O14 P8 1.531311 1_565
O14 Zn2 1.913931 1_556
O15 P5 1.531311 1_545
O15 Zn13 1.913931 1_555
O16 P2 1.531311 1_565
O16 Zn12 1.913931 1_555
O17 P6 1.539412 1_555
O17 Zn4 1.991013 1_555
O18 P0 1.540754 1_555
O18 Zn9 1.928770 1_455
O19 P8 1.596166 1_554
O19 Zn3 2.019144 1_555
O19 Zn6 2.022524 1_555
O20 P2 1.540754 1_555
O20 Zn13 1.928770 1_555
O21 P5 1.549987 1_555
O21 Zn14 1.933178 1_665
O22 P11 1.539412 1_555
O22 Zn10 1.991013 1_555
O23 P9 1.540754 1_555
O23 Zn2 1.928770 1_655
O24 P1 1.531311 1_555
O24 Zn9 1.913931 1_555
O25 P10 1.549987 1_555
O25 Zn10 1.933178 1_655
O26 P1 1.549987 1_555
O26 Zn5 1.933178 1_555
O27 P7 1.549987 1_555
O27 Zn11 1.933178 1_455
O28 P1 1.596166 1_555
O28 Zn7 2.019144 1_555
O28 Zn13 2.022524 1_555
O29 P7 1.596166 1_554
O29 Zn10 2.019144 1_555
O29 Zn2 2.022524 1_555
O30 P10 1.531311 1_555
O30 Zn0 1.913931 1_554
O31 P0 1.596166 1_555
O31 Zn5 2.019144 1_555
O31 Zn12 2.022524 1_555
O32 P3 1.539412 1_555
O32 Zn14 1.991013 1_555
O33 P6 1.581088 1_555
O33 Zn7 1.998754 1_555
O33 Zn9 2.057844 1_555
O34 P9 1.596166 1_556
O34 Zn4 2.019144 1_555
O34 Zn0 2.022524 1_555
O35 P9 1.549987 1_555
O35 Zn3 1.933178 1_565
O36 P11 1.581088 1_555
O36 Zn14 1.998754 1_565
O36 Zn12 2.057844 1_555
O37 P4 1.539412 1_555
O37 Zn7 1.991013 1_555
O38 P10 1.596166 1_556
O38 Zn11 2.019144 1_555
O38 Zn1 2.022524 1_555
O39 P2 1.549987 1_555
O39 Zn15 1.933178 1_445
O40 P3 1.539412 1_555
O40 Zn3 1.991013 1_555
O41 P3 1.581088 1_555
O41 Zn10 1.998754 1_555
O41 Zn6 2.057844 1_555
O42 P6 1.539412 1_555
O42 Zn15 1.991013 1_555
O43 P7 1.531311 1_555
O43 Zn6 1.913931 1_556
O44 P3 1.581088 1_555
O44 Zn5 1.998754 1_555
O44 Zn8 2.057844 1_555
O45 P5 1.596166 1_555
O45 Zn15 2.019144 1_555
O45 Zn9 2.022524 1_555
O46 P5 1.540754 1_555
O46 Zn12 1.928770 1_555
O47 P6 1.581088 1_555
O47 Zn11 1.998754 1_555
O47 Zn0 2.057844 1_555
