# generated using pymatgen
data_Co7Mo6
_symmetry_space_group_name_H-M   'P 1'
_cell_length_a   8.94153852
_cell_length_b   8.94153852
_cell_length_c   8.94153861
_cell_angle_alpha   30.80521680
_cell_angle_beta   30.80521680
_cell_angle_gamma   30.80522079
_symmetry_Int_Tables_number   1
_chemical_formula_structural   Co7Mo6
_chemical_formula_sum   'Co7 Mo6'
_cell_volume   166.27762966
_cell_formula_units_Z   1
loop_
 _symmetry_equiv_pos_site_id
 _symmetry_equiv_pos_as_xyz
  1  'x, y, z'
loop_
 _atom_site_type_symbol
 _atom_site_label
 _atom_site_symmetry_multiplicity
 _atom_site_fract_x
 _atom_site_fract_y
 _atom_site_fract_z
 _atom_site_occupancy
  Co  Co0  1  0.08994600  0.08994600  0.58905800  1
  Co  Co1  1  0.41094200  0.91005400  0.91005400  1
  Co  Co2  1  0.00000000  0.00000000  0.00000000  1
  Co  Co3  1  0.58905800  0.08994600  0.08994600  1
  Co  Co4  1  0.91005400  0.91005400  0.41094200  1
  Co  Co5  1  0.91005400  0.41094200  0.91005400  1
  Co  Co6  1  0.08994600  0.58905800  0.08994600  1
  Mo  Mo0  1  0.83429000  0.83429000  0.83429000  1
  Mo  Mo1  1  0.65268900  0.65268900  0.65268900  1
  Mo  Mo2  1  0.45034100  0.45034100  0.45034100  1
  Mo  Mo3  1  0.54965900  0.54965900  0.54965900  1
  Mo  Mo4  1  0.16571000  0.16571000  0.16571000  1
  Mo  Mo5  1  0.34731100  0.34731100  0.34731100  1
loop_
_geom_bond_atom_site_label_1
_geom_bond_atom_site_label_2
_geom_bond_distance
_geom_bond_site_symmetry_2
Co0 Co6 2.370655 1_555
Co0 Co3 2.370655 1_555
Co0 Co6 2.379090 1_546
Co0 Co3 2.379090 1_456
Co0 Co2 2.398616 1_556
Co0 Mo3 2.585066 1_455
Co0 Mo3 2.585066 1_545
Co0 Mo0 2.648529 1_445
Co0 Mo4 2.687933 1_555
Co0 Mo5 2.696457 1_555
Co0 Mo1 2.868892 1_545
Co0 Mo1 2.868892 1_455
Co1 Co4 2.370655 1_555
Co1 Co5 2.370655 1_555
Co1 Co4 2.379090 1_456
Co1 Co5 2.379091 1_465
Co1 Co2 2.398616 1_566
Co1 Mo2 2.585066 1_565
Co1 Mo2 2.585066 1_556
Co1 Mo4 2.648529 1_566
Co1 Mo0 2.687933 1_555
Co1 Mo1 2.696457 1_555
Co1 Mo5 2.868892 1_556
Co1 Mo5 2.868892 1_565
Co2 Co4 2.398616 1_445
Co2 Co5 2.398616 1_454
Co2 Co3 2.398616 1_455
Co2 Co6 2.398616 1_545
Co2 Mo1 2.765391 1_445
Co2 Mo5 2.765391 1_554
Co2 Mo1 2.765391 1_544
Co2 Mo5 2.765391 1_545
Co2 Mo1 2.765391 1_454
Co2 Mo5 2.765391 1_455
Co3 Co6 2.370655 1_555
Co3 Co6 2.379091 1_645
Co3 Mo3 2.585066 1_545
Co3 Mo3 2.585066 1_554
Co3 Mo0 2.648529 1_544
Co3 Mo4 2.687933 1_555
Co3 Mo5 2.696457 1_555
Co3 Mo1 2.868892 1_554
Co3 Mo1 2.868892 1_545
Co4 Co5 2.370655 1_555
Co4 Co5 2.379090 1_564
Co4 Mo2 2.585066 1_655
Co4 Mo2 2.585066 1_565
Co4 Mo4 2.648529 1_665
Co4 Mo0 2.687933 1_555
Co4 Mo1 2.696457 1_555
Co4 Mo5 2.868892 1_565
Co4 Mo5 2.868892 1_655
Co5 Mo2 2.585066 1_655
Co5 Mo2 2.585066 1_556
Co5 Mo4 2.648529 1_656
Co5 Mo0 2.687933 1_555
Co5 Mo1 2.696457 1_555
Co5 Mo5 2.868892 1_556
Co5 Mo5 2.868892 1_655
Co6 Mo3 2.585066 1_455
Co6 Mo3 2.585066 1_554
Co6 Mo0 2.648529 1_454
Co6 Mo4 2.687933 1_555
Co6 Mo5 2.696457 1_555
Co6 Mo1 2.868892 1_554
Co6 Mo1 2.868892 1_455
Mo0 Mo4 2.742702 1_665
Mo0 Mo4 2.742702 1_656
Mo0 Mo4 2.742702 1_566
Mo0 Mo3 3.011018 1_556
Mo0 Mo3 3.011019 1_655
Mo0 Mo3 3.011019 1_565
Mo0 Mo2 3.031519 1_556
Mo0 Mo2 3.031519 1_565
Mo0 Mo2 3.031519 1_655
Mo1 Mo3 2.630555 1_555
Mo1 Mo5 2.833632 1_556
Mo1 Mo5 2.833632 1_655
Mo1 Mo5 2.833632 1_565
Mo2 Mo3 2.535781 1_555
Mo2 Mo5 2.630555 1_555
Mo2 Mo4 3.011018 1_556
Mo2 Mo4 3.011019 1_565
Mo2 Mo4 3.011019 1_655
Mo3 Mo4 3.031519 1_556
Mo3 Mo4 3.031519 1_565
Mo3 Mo4 3.031519 1_655
