# generated using pymatgen
data_Mg2GeB2Rh5
_symmetry_space_group_name_H-M   'P 1'
_cell_length_a   18.84024200
_cell_length_b   18.84024200
_cell_length_c   5.87460600
_cell_angle_alpha   90.00000000
_cell_angle_beta   90.00000000
_cell_angle_gamma   90.00000000
_symmetry_Int_Tables_number   1
_chemical_formula_structural   Mg2GeB2Rh5
_chemical_formula_sum   'Mg32 Ge16 B32 Rh80'
_cell_volume   2085.21911972
_cell_formula_units_Z   16
loop_
 _symmetry_equiv_pos_site_id
 _symmetry_equiv_pos_as_xyz
  1  'x, y, z'
loop_
 _atom_site_type_symbol
 _atom_site_label
 _atom_site_symmetry_multiplicity
 _atom_site_fract_x
 _atom_site_fract_y
 _atom_site_fract_z
 _atom_site_occupancy
  Mg  Mg0_0  1  0.41266750  0.16266750  0.00000000  1
  Mg  Mg0_1  1  0.41266750  0.16266750  0.50000000  1
  Mg  Mg0_2  1  0.41266750  0.66266750  0.00000000  1
  Mg  Mg0_3  1  0.41266750  0.66266750  0.50000000  1
  Mg  Mg0_4  1  0.91266750  0.16266750  0.00000000  1
  Mg  Mg0_5  1  0.91266750  0.16266750  0.50000000  1
  Mg  Mg0_6  1  0.91266750  0.66266750  0.00000000  1
  Mg  Mg0_7  1  0.91266750  0.66266750  0.50000000  1
  Mg  Mg1_0  1  0.16266750  0.08733250  0.00000000  1
  Mg  Mg1_1  1  0.16266750  0.08733250  0.50000000  1
  Mg  Mg1_2  1  0.16266750  0.58733250  0.00000000  1
  Mg  Mg1_3  1  0.16266750  0.58733250  0.50000000  1
  Mg  Mg1_4  1  0.66266750  0.08733250  0.00000000  1
  Mg  Mg1_5  1  0.66266750  0.08733250  0.50000000  1
  Mg  Mg1_6  1  0.66266750  0.58733250  0.00000000  1
  Mg  Mg1_7  1  0.66266750  0.58733250  0.50000000  1
  Mg  Mg2_0  1  0.33733250  0.41266750  0.00000000  1
  Mg  Mg2_1  1  0.33733250  0.41266750  0.50000000  1
  Mg  Mg2_2  1  0.33733250  0.91266750  0.00000000  1
  Mg  Mg2_3  1  0.33733250  0.91266750  0.50000000  1
  Mg  Mg2_4  1  0.83733250  0.41266750  0.00000000  1
  Mg  Mg2_5  1  0.83733250  0.41266750  0.50000000  1
  Mg  Mg2_6  1  0.83733250  0.91266750  0.00000000  1
  Mg  Mg2_7  1  0.83733250  0.91266750  0.50000000  1
  Mg  Mg3_0  1  0.08733250  0.33733250  0.00000000  1
  Mg  Mg3_1  1  0.08733250  0.33733250  0.50000000  1
  Mg  Mg3_2  1  0.08733250  0.83733250  0.00000000  1
  Mg  Mg3_3  1  0.08733250  0.83733250  0.50000000  1
  Mg  Mg3_4  1  0.58733250  0.33733250  0.00000000  1
  Mg  Mg3_5  1  0.58733250  0.33733250  0.50000000  1
  Mg  Mg3_6  1  0.58733250  0.83733250  0.00000000  1
  Mg  Mg3_7  1  0.58733250  0.83733250  0.50000000  1
  Ge  Ge0_0  1  0.00000000  0.00000000  0.00000000  1
  Ge  Ge0_1  1  0.00000000  0.00000000  0.50000000  1
  Ge  Ge0_2  1  0.00000000  0.50000000  0.00000000  1
  Ge  Ge0_3  1  0.00000000  0.50000000  0.50000000  1
  Ge  Ge0_4  1  0.50000000  0.00000000  0.00000000  1
  Ge  Ge0_5  1  0.50000000  0.00000000  0.50000000  1
  Ge  Ge0_6  1  0.50000000  0.50000000  0.00000000  1
  Ge  Ge0_7  1  0.50000000  0.50000000  0.50000000  1
  Ge  Ge1_0  1  0.25000000  0.25000000  0.00000000  1
  Ge  Ge1_1  1  0.25000000  0.25000000  0.50000000  1
  Ge  Ge1_2  1  0.25000000  0.75000000  0.00000000  1
  Ge  Ge1_3  1  0.25000000  0.75000000  0.50000000  1
  Ge  Ge1_4  1  0.75000000  0.25000000  0.00000000  1
  Ge  Ge1_5  1  0.75000000  0.25000000  0.50000000  1
  Ge  Ge1_6  1  0.75000000  0.75000000  0.00000000  1
  Ge  Ge1_7  1  0.75000000  0.75000000  0.50000000  1
  B  B0_0  1  0.31262700  0.06262700  0.00000000  1
  B  B0_1  1  0.31262700  0.06262700  0.50000000  1
  B  B0_2  1  0.31262700  0.56262700  0.00000000  1
  B  B0_3  1  0.31262700  0.56262700  0.50000000  1
  B  B0_4  1  0.81262700  0.06262700  0.00000000  1
  B  B0_5  1  0.81262700  0.06262700  0.50000000  1
  B  B0_6  1  0.81262700  0.56262700  0.00000000  1
  B  B0_7  1  0.81262700  0.56262700  0.50000000  1
  B  B1_0  1  0.06262700  0.18737300  0.00000000  1
  B  B1_1  1  0.06262700  0.18737300  0.50000000  1
  B  B1_2  1  0.06262700  0.68737300  0.00000000  1
  B  B1_3  1  0.06262700  0.68737300  0.50000000  1
  B  B1_4  1  0.56262700  0.18737300  0.00000000  1
  B  B1_5  1  0.56262700  0.18737300  0.50000000  1
  B  B1_6  1  0.56262700  0.68737300  0.00000000  1
  B  B1_7  1  0.56262700  0.68737300  0.50000000  1
  B  B2_0  1  0.43737300  0.31262700  0.00000000  1
  B  B2_1  1  0.43737300  0.31262700  0.50000000  1
  B  B2_2  1  0.43737300  0.81262700  0.00000000  1
  B  B2_3  1  0.43737300  0.81262700  0.50000000  1
  B  B2_4  1  0.93737300  0.31262700  0.00000000  1
  B  B2_5  1  0.93737300  0.31262700  0.50000000  1
  B  B2_6  1  0.93737300  0.81262700  0.00000000  1
  B  B2_7  1  0.93737300  0.81262700  0.50000000  1
  B  B3_0  1  0.18737300  0.43737300  0.00000000  1
  B  B3_1  1  0.18737300  0.43737300  0.50000000  1
  B  B3_2  1  0.18737300  0.93737300  0.00000000  1
  B  B3_3  1  0.18737300  0.93737300  0.50000000  1
  B  B3_4  1  0.68737300  0.43737300  0.00000000  1
  B  B3_5  1  0.68737300  0.43737300  0.50000000  1
  B  B3_6  1  0.68737300  0.93737300  0.00000000  1
  B  B3_7  1  0.68737300  0.93737300  0.50000000  1
  Rh  Rh0_0  1  0.03603350  0.10680800  0.25000000  1
  Rh  Rh0_1  1  0.03603350  0.10680800  0.75000000  1
  Rh  Rh0_2  1  0.03603350  0.60680800  0.25000000  1
  Rh  Rh0_3  1  0.03603350  0.60680800  0.75000000  1
  Rh  Rh0_4  1  0.53603350  0.10680800  0.25000000  1
  Rh  Rh0_5  1  0.53603350  0.10680800  0.75000000  1
  Rh  Rh0_6  1  0.53603350  0.60680800  0.25000000  1
  Rh  Rh0_7  1  0.53603350  0.60680800  0.75000000  1
  Rh  Rh1_0  1  0.10680800  0.46396650  0.25000000  1
  Rh  Rh1_1  1  0.10680800  0.46396650  0.75000000  1
  Rh  Rh1_2  1  0.10680800  0.96396650  0.25000000  1
  Rh  Rh1_3  1  0.10680800  0.96396650  0.75000000  1
  Rh  Rh1_4  1  0.60680800  0.46396650  0.25000000  1
  Rh  Rh1_5  1  0.60680800  0.46396650  0.75000000  1
  Rh  Rh1_6  1  0.60680800  0.96396650  0.25000000  1
  Rh  Rh1_7  1  0.60680800  0.96396650  0.75000000  1
  Rh  Rh2_0  1  0.39319200  0.03603350  0.25000000  1
  Rh  Rh2_1  1  0.39319200  0.03603350  0.75000000  1
  Rh  Rh2_2  1  0.39319200  0.53603350  0.25000000  1
  Rh  Rh2_3  1  0.39319200  0.53603350  0.75000000  1
  Rh  Rh2_4  1  0.89319200  0.03603350  0.25000000  1
  Rh  Rh2_5  1  0.89319200  0.03603350  0.75000000  1
  Rh  Rh2_6  1  0.89319200  0.53603350  0.25000000  1
  Rh  Rh2_7  1  0.89319200  0.53603350  0.75000000  1
  Rh  Rh3_0  1  0.46396650  0.39319200  0.25000000  1
  Rh  Rh3_1  1  0.46396650  0.39319200  0.75000000  1
  Rh  Rh3_2  1  0.46396650  0.89319200  0.25000000  1
  Rh  Rh3_3  1  0.46396650  0.89319200  0.75000000  1
  Rh  Rh3_4  1  0.96396650  0.39319200  0.25000000  1
  Rh  Rh3_5  1  0.96396650  0.39319200  0.75000000  1
  Rh  Rh3_6  1  0.96396650  0.89319200  0.25000000  1
  Rh  Rh3_7  1  0.96396650  0.89319200  0.75000000  1
  Rh  Rh4_0  1  0.21396650  0.35680800  0.25000000  1
  Rh  Rh4_1  1  0.21396650  0.35680800  0.75000000  1
  Rh  Rh4_2  1  0.21396650  0.85680800  0.25000000  1
  Rh  Rh4_3  1  0.21396650  0.85680800  0.75000000  1
  Rh  Rh4_4  1  0.71396650  0.35680800  0.25000000  1
  Rh  Rh4_5  1  0.71396650  0.35680800  0.75000000  1
  Rh  Rh4_6  1  0.71396650  0.85680800  0.25000000  1
  Rh  Rh4_7  1  0.71396650  0.85680800  0.75000000  1
  Rh  Rh5_0  1  0.28603350  0.14319200  0.25000000  1
  Rh  Rh5_1  1  0.28603350  0.14319200  0.75000000  1
  Rh  Rh5_2  1  0.28603350  0.64319200  0.25000000  1
  Rh  Rh5_3  1  0.28603350  0.64319200  0.75000000  1
  Rh  Rh5_4  1  0.78603350  0.14319200  0.25000000  1
  Rh  Rh5_5  1  0.78603350  0.14319200  0.75000000  1
  Rh  Rh5_6  1  0.78603350  0.64319200  0.25000000  1
  Rh  Rh5_7  1  0.78603350  0.64319200  0.75000000  1
  Rh  Rh6_0  1  0.35680800  0.28603350  0.25000000  1
  Rh  Rh6_1  1  0.35680800  0.28603350  0.75000000  1
  Rh  Rh6_2  1  0.35680800  0.78603350  0.25000000  1
  Rh  Rh6_3  1  0.35680800  0.78603350  0.75000000  1
  Rh  Rh6_4  1  0.85680800  0.28603350  0.25000000  1
  Rh  Rh6_5  1  0.85680800  0.28603350  0.75000000  1
  Rh  Rh6_6  1  0.85680800  0.78603350  0.25000000  1
  Rh  Rh6_7  1  0.85680800  0.78603350  0.75000000  1
  Rh  Rh7_0  1  0.14319200  0.21396650  0.25000000  1
  Rh  Rh7_1  1  0.14319200  0.21396650  0.75000000  1
  Rh  Rh7_2  1  0.14319200  0.71396650  0.25000000  1
  Rh  Rh7_3  1  0.14319200  0.71396650  0.75000000  1
  Rh  Rh7_4  1  0.64319200  0.21396650  0.25000000  1
  Rh  Rh7_5  1  0.64319200  0.21396650  0.75000000  1
  Rh  Rh7_6  1  0.64319200  0.71396650  0.25000000  1
  Rh  Rh7_7  1  0.64319200  0.71396650  0.75000000  1
  Rh  Rh8_0  1  0.25000000  0.00000000  0.25000000  1
  Rh  Rh8_1  1  0.25000000  0.00000000  0.75000000  1
  Rh  Rh8_2  1  0.25000000  0.50000000  0.25000000  1
  Rh  Rh8_3  1  0.25000000  0.50000000  0.75000000  1
  Rh  Rh8_4  1  0.75000000  0.00000000  0.25000000  1
  Rh  Rh8_5  1  0.75000000  0.00000000  0.75000000  1
  Rh  Rh8_6  1  0.75000000  0.50000000  0.25000000  1
  Rh  Rh8_7  1  0.75000000  0.50000000  0.75000000  1
  Rh  Rh9_0  1  0.00000000  0.25000000  0.25000000  1
  Rh  Rh9_1  1  0.00000000  0.25000000  0.75000000  1
  Rh  Rh9_2  1  0.00000000  0.75000000  0.25000000  1
  Rh  Rh9_3  1  0.00000000  0.75000000  0.75000000  1
  Rh  Rh9_4  1  0.50000000  0.25000000  0.25000000  1
  Rh  Rh9_5  1  0.50000000  0.25000000  0.75000000  1
  Rh  Rh9_6  1  0.50000000  0.75000000  0.25000000  1
  Rh  Rh9_7  1  0.50000000  0.75000000  0.75000000  1
loop_
_geom_bond_atom_site_label_1
_geom_bond_atom_site_label_2
_geom_bond_distance
_geom_bond_site_symmetry_2
Mg0_0 Rh9_4 2.751616 1_555
Mg0_0 Rh9_5 2.751616 1_554
Mg0_0 Rh5_0 2.825541 1_555
Mg0_0 Rh5_1 2.825541 1_554
Mg0_0 Rh2_0 2.825541 1_555
Mg0_0 Rh2_1 2.825541 1_554
Mg0_0 Mg0_1 2.937303 1_555
Mg0_0 Mg0_1 2.937303 1_554
Mg0_0 Rh0_4 2.943911 1_555
Mg0_0 Rh6_0 2.943911 1_555
Mg0_0 Rh0_5 2.943911 1_554
Mg0_0 Rh6_1 2.943911 1_554
Mg0_1 Rh9_5 2.751616 1_555
Mg0_1 Rh9_4 2.751616 1_555
Mg0_1 Rh5_1 2.825541 1_555
Mg0_1 Rh5_0 2.825541 1_555
Mg0_1 Rh2_1 2.825541 1_555
Mg0_1 Rh2_0 2.825541 1_555
Mg0_1 Rh6_1 2.943911 1_555
Mg0_1 Rh0_4 2.943911 1_555
Mg0_1 Rh0_5 2.943911 1_555
Mg0_1 Rh6_0 2.943911 1_555
Mg0_2 Rh9_6 2.751616 1_555
Mg0_2 Rh9_7 2.751616 1_554
Mg0_2 Rh5_2 2.825541 1_555
Mg0_2 Rh5_3 2.825541 1_554
Mg0_2 Rh2_2 2.825541 1_555
Mg0_2 Rh2_3 2.825541 1_554
Mg0_2 Mg0_3 2.937303 1_555
Mg0_2 Mg0_3 2.937303 1_554
Mg0_2 Rh0_6 2.943911 1_555
Mg0_2 Rh6_2 2.943911 1_555
Mg0_2 Rh6_3 2.943911 1_554
Mg0_2 Rh0_7 2.943911 1_554
Mg0_3 Rh9_7 2.751616 1_555
Mg0_3 Rh9_6 2.751616 1_555
Mg0_3 Rh5_2 2.825541 1_555
Mg0_3 Rh5_3 2.825541 1_555
Mg0_3 Rh2_3 2.825541 1_555
Mg0_3 Rh2_2 2.825541 1_555
Mg0_3 Rh0_6 2.943911 1_555
Mg0_3 Rh0_7 2.943911 1_555
Mg0_3 Rh6_2 2.943911 1_555
Mg0_3 Rh6_3 2.943911 1_555
Mg0_4 Rh9_0 2.751616 1_655
Mg0_4 Rh9_1 2.751616 1_654
Mg0_4 Rh5_4 2.825541 1_555
Mg0_4 Rh5_5 2.825541 1_554
Mg0_4 Rh2_4 2.825541 1_555
Mg0_4 Rh2_5 2.825541 1_554
Mg0_4 Mg0_5 2.937303 1_555
Mg0_4 Mg0_5 2.937303 1_554
Mg0_4 Rh6_4 2.943911 1_555
Mg0_4 Rh6_5 2.943911 1_554
Mg0_4 Rh0_0 2.943911 1_655
Mg0_4 Rh0_1 2.943911 1_654
Mg0_5 Rh9_1 2.751616 1_655
Mg0_5 Rh9_0 2.751616 1_655
Mg0_5 Rh5_4 2.825541 1_555
Mg0_5 Rh5_5 2.825541 1_555
Mg0_5 Rh2_4 2.825541 1_555
Mg0_5 Rh2_5 2.825541 1_555
Mg0_5 Rh6_5 2.943911 1_555
Mg0_5 Rh6_4 2.943911 1_555
Mg0_5 Rh0_0 2.943911 1_655
Mg0_5 Rh0_1 2.943911 1_655
Mg0_6 Rh9_2 2.751616 1_655
Mg0_6 Rh9_3 2.751616 1_654
Mg0_6 Rh5_6 2.825541 1_555
Mg0_6 Rh5_7 2.825541 1_554
Mg0_6 Rh2_6 2.825541 1_555
Mg0_6 Rh2_7 2.825541 1_554
Mg0_6 Mg0_7 2.937303 1_555
Mg0_6 Mg0_7 2.937303 1_554
Mg0_6 Rh6_6 2.943911 1_555
Mg0_6 Rh6_7 2.943911 1_554
Mg0_6 Rh0_2 2.943911 1_655
Mg0_6 Rh0_3 2.943911 1_654
Mg0_7 Rh9_2 2.751616 1_655
Mg0_7 Rh9_3 2.751616 1_655
Mg0_7 Rh5_7 2.825541 1_555
Mg0_7 Rh5_6 2.825541 1_555
Mg0_7 Rh2_6 2.825541 1_555
Mg0_7 Rh2_7 2.825541 1_555
Mg0_7 Rh6_7 2.943911 1_555
Mg0_7 Rh6_6 2.943911 1_555
Mg0_7 Rh0_3 2.943911 1_655
Mg0_7 Rh0_2 2.943911 1_655
Mg1_0 Rh8_0 2.751616 1_555
Mg1_0 Rh8_1 2.751616 1_554
Mg1_0 Rh7_0 2.825541 1_555
Mg1_0 Rh7_1 2.825541 1_554
Mg1_0 Rh0_0 2.825541 1_555
Mg1_0 Rh0_1 2.825541 1_554
Mg1_0 Mg1_1 2.937303 1_555
Mg1_0 Mg1_1 2.937303 1_554
Mg1_0 Rh5_0 2.943911 1_555
Mg1_0 Rh5_1 2.943911 1_554
Mg1_0 Rh1_2 2.943911 1_545
Mg1_0 Rh1_3 2.943911 1_544
Mg1_1 Rh8_1 2.751616 1_555
Mg1_1 Rh8_0 2.751616 1_555
Mg1_1 Rh7_0 2.825541 1_555
Mg1_1 Rh7_1 2.825541 1_555
Mg1_1 Rh0_0 2.825541 1_555
Mg1_1 Rh0_1 2.825541 1_555
Mg1_1 Rh5_1 2.943911 1_555
Mg1_1 Rh5_0 2.943911 1_555
Mg1_1 Rh1_2 2.943911 1_545
Mg1_1 Rh1_3 2.943911 1_545
Mg1_2 Rh8_2 2.751616 1_555
Mg1_2 Rh8_3 2.751616 1_554
Mg1_2 Rh7_2 2.825541 1_555
Mg1_2 Rh7_3 2.825541 1_554
Mg1_2 Rh0_2 2.825541 1_555
Mg1_2 Rh0_3 2.825541 1_554
Mg1_2 Mg1_3 2.937303 1_555
Mg1_2 Mg1_3 2.937303 1_554
Mg1_2 Rh5_2 2.943911 1_555
Mg1_2 Rh5_3 2.943911 1_554
Mg1_2 Rh1_0 2.943911 1_555
Mg1_2 Rh1_1 2.943911 1_554
Mg1_3 Rh8_2 2.751616 1_555
Mg1_3 Rh8_3 2.751616 1_555
Mg1_3 Rh7_3 2.825541 1_555
Mg1_3 Rh7_2 2.825541 1_555
Mg1_3 Rh0_2 2.825541 1_555
Mg1_3 Rh0_3 2.825541 1_555
Mg1_3 Rh5_2 2.943911 1_555
Mg1_3 Rh5_3 2.943911 1_555
Mg1_3 Rh1_0 2.943911 1_555
Mg1_3 Rh1_1 2.943911 1_555
Mg1_4 Rh8_4 2.751616 1_555
Mg1_4 Rh8_5 2.751616 1_554
Mg1_4 Rh7_4 2.825541 1_555
Mg1_4 Rh7_5 2.825541 1_554
Mg1_4 Rh0_4 2.825541 1_555
Mg1_4 Rh0_5 2.825541 1_554
Mg1_4 Mg1_5 2.937303 1_555
Mg1_4 Mg1_5 2.937303 1_554
Mg1_4 Rh5_4 2.943911 1_555
Mg1_4 Rh5_5 2.943911 1_554
Mg1_4 Rh1_6 2.943911 1_545
Mg1_4 Rh1_7 2.943911 1_544
Mg1_5 Rh8_5 2.751616 1_555
Mg1_5 Rh8_4 2.751616 1_555
Mg1_5 Rh7_4 2.825541 1_555
Mg1_5 Rh7_5 2.825541 1_555
Mg1_5 Rh0_4 2.825541 1_555
Mg1_5 Rh0_5 2.825541 1_555
Mg1_5 Rh5_4 2.943911 1_555
Mg1_5 Rh5_5 2.943911 1_555
Mg1_5 Rh1_6 2.943911 1_545
Mg1_5 Rh1_7 2.943911 1_545
Mg1_6 Rh8_6 2.751616 1_555
Mg1_6 Rh8_7 2.751616 1_554
Mg1_6 Rh7_6 2.825541 1_555
Mg1_6 Rh7_7 2.825541 1_554
Mg1_6 Rh0_6 2.825541 1_555
Mg1_6 Rh0_7 2.825541 1_554
Mg1_6 Mg1_7 2.937303 1_555
Mg1_6 Mg1_7 2.937303 1_554
Mg1_6 Rh5_6 2.943911 1_555
Mg1_6 Rh5_7 2.943911 1_554
Mg1_6 Rh1_4 2.943911 1_555
Mg1_6 Rh1_5 2.943911 1_554
Mg1_7 Rh8_6 2.751616 1_555
Mg1_7 Rh8_7 2.751616 1_555
Mg1_7 Rh7_6 2.825541 1_555
Mg1_7 Rh7_7 2.825541 1_555
Mg1_7 Rh0_7 2.825541 1_555
Mg1_7 Rh0_6 2.825541 1_555
Mg1_7 Rh5_7 2.943911 1_555
Mg1_7 Rh5_6 2.943911 1_555
Mg1_7 Rh1_4 2.943911 1_555
Mg1_7 Rh1_5 2.943911 1_555
Mg2_0 Rh8_2 2.751616 1_555
Mg2_0 Rh8_3 2.751616 1_554
Mg2_0 Rh6_0 2.825541 1_555
Mg2_0 Rh6_1 2.825541 1_554
Mg2_0 Rh3_0 2.825541 1_555
Mg2_0 Rh3_1 2.825541 1_554
Mg2_0 Mg2_1 2.937303 1_555
Mg2_0 Mg2_1 2.937303 1_554
Mg2_0 Rh2_2 2.943911 1_555
Mg2_0 Rh2_3 2.943911 1_554
Mg2_0 Rh4_0 2.943911 1_555
Mg2_0 Rh4_1 2.943911 1_554
Mg2_1 Rh8_2 2.751616 1_555
Mg2_1 Rh8_3 2.751616 1_555
Mg2_1 Rh6_1 2.825541 1_555
Mg2_1 Rh6_0 2.825541 1_555
Mg2_1 Rh3_1 2.825541 1_555
Mg2_1 Rh3_0 2.825541 1_555
Mg2_1 Rh2_3 2.943911 1_555
Mg2_1 Rh2_2 2.943911 1_555
Mg2_1 Rh4_0 2.943911 1_555
Mg2_1 Rh4_1 2.943911 1_555
Mg2_2 Rh8_0 2.751616 1_565
Mg2_2 Rh8_1 2.751616 1_564
Mg2_2 Rh6_2 2.825541 1_555
Mg2_2 Rh6_3 2.825541 1_554
Mg2_2 Rh3_2 2.825541 1_555
Mg2_2 Rh3_3 2.825541 1_554
Mg2_2 Mg2_3 2.937303 1_555
Mg2_2 Mg2_3 2.937303 1_554
Mg2_2 Rh2_0 2.943911 1_565
Mg2_2 Rh4_2 2.943911 1_555
Mg2_2 Rh4_3 2.943911 1_554
Mg2_2 Rh2_1 2.943911 1_564
Mg2_3 Rh8_1 2.751616 1_565
Mg2_3 Rh8_0 2.751616 1_565
Mg2_3 Rh6_2 2.825541 1_555
Mg2_3 Rh6_3 2.825541 1_555
Mg2_3 Rh3_3 2.825541 1_555
Mg2_3 Rh3_2 2.825541 1_555
Mg2_3 Rh2_0 2.943911 1_565
Mg2_3 Rh4_3 2.943911 1_555
Mg2_3 Rh4_2 2.943911 1_555
Mg2_3 Rh2_1 2.943911 1_565
Mg2_4 Rh8_6 2.751616 1_555
Mg2_4 Rh8_7 2.751616 1_554
Mg2_4 Rh6_4 2.825541 1_555
Mg2_4 Rh6_5 2.825541 1_554
Mg2_4 Rh3_4 2.825541 1_555
Mg2_4 Rh3_5 2.825541 1_554
Mg2_4 Mg2_5 2.937303 1_555
Mg2_4 Mg2_5 2.937303 1_554
Mg2_4 Rh2_6 2.943911 1_555
Mg2_4 Rh2_7 2.943911 1_554
Mg2_4 Rh4_4 2.943911 1_555
Mg2_4 Rh4_5 2.943911 1_554
Mg2_5 Rh8_6 2.751616 1_555
Mg2_5 Rh8_7 2.751616 1_555
Mg2_5 Rh6_5 2.825541 1_555
Mg2_5 Rh6_4 2.825541 1_555
Mg2_5 Rh3_5 2.825541 1_555
Mg2_5 Rh3_4 2.825541 1_555
Mg2_5 Rh2_6 2.943911 1_555
Mg2_5 Rh2_7 2.943911 1_555
Mg2_5 Rh4_5 2.943911 1_555
Mg2_5 Rh4_4 2.943911 1_555
Mg2_6 Rh8_4 2.751616 1_565
Mg2_6 Rh8_5 2.751616 1_564
Mg2_6 Rh6_6 2.825541 1_555
Mg2_6 Rh6_7 2.825541 1_554
Mg2_6 Rh3_6 2.825541 1_555
Mg2_6 Rh3_7 2.825541 1_554
Mg2_6 Mg2_7 2.937303 1_555
Mg2_6 Mg2_7 2.937303 1_554
Mg2_6 Rh4_6 2.943911 1_555
Mg2_6 Rh4_7 2.943911 1_554
Mg2_6 Rh2_4 2.943911 1_565
Mg2_6 Rh2_5 2.943911 1_564
Mg2_7 Rh8_5 2.751616 1_565
Mg2_7 Rh8_4 2.751616 1_565
Mg2_7 Rh6_7 2.825541 1_555
Mg2_7 Rh6_6 2.825541 1_555
Mg2_7 Rh3_6 2.825541 1_555
Mg2_7 Rh3_7 2.825541 1_555
Mg2_7 Rh4_6 2.943911 1_555
Mg2_7 Rh4_7 2.943911 1_555
Mg2_7 Rh2_4 2.943911 1_565
Mg2_7 Rh2_5 2.943911 1_565
Mg3_0 Rh9_0 2.751616 1_555
Mg3_0 Rh9_1 2.751616 1_554
Mg3_0 Rh4_0 2.825541 1_555
Mg3_0 Rh4_1 2.825541 1_554
Mg3_0 Rh1_0 2.825541 1_555
Mg3_0 Rh1_1 2.825541 1_554
Mg3_0 Mg3_1 2.937303 1_555
Mg3_0 Mg3_1 2.937303 1_554
Mg3_0 Rh7_0 2.943911 1_555
Mg3_0 Rh7_1 2.943911 1_554
Mg3_0 Rh3_4 2.943911 1_455
Mg3_0 Rh3_5 2.943911 1_454
Mg3_1 Rh9_1 2.751616 1_555
Mg3_1 Rh9_0 2.751616 1_555
Mg3_1 Rh4_1 2.825541 1_555
Mg3_1 Rh4_0 2.825541 1_555
Mg3_1 Rh1_0 2.825541 1_555
Mg3_1 Rh1_1 2.825541 1_555
Mg3_1 Rh7_1 2.943911 1_555
Mg3_1 Rh7_0 2.943911 1_555
Mg3_1 Rh3_4 2.943911 1_455
Mg3_1 Rh3_5 2.943911 1_455
Mg3_2 Rh9_2 2.751616 1_555
Mg3_2 Rh9_3 2.751616 1_554
Mg3_2 Rh4_2 2.825541 1_555
Mg3_2 Rh4_3 2.825541 1_554
Mg3_2 Rh1_2 2.825541 1_555
Mg3_2 Rh1_3 2.825541 1_554
Mg3_2 Mg3_3 2.937303 1_555
Mg3_2 Mg3_3 2.937303 1_554
Mg3_2 Rh7_2 2.943911 1_555
Mg3_2 Rh7_3 2.943911 1_554
Mg3_2 Rh3_6 2.943911 1_455
Mg3_2 Rh3_7 2.943911 1_454
Mg3_3 Rh9_2 2.751616 1_555
Mg3_3 Rh9_3 2.751616 1_555
Mg3_3 Rh4_3 2.825541 1_555
Mg3_3 Rh4_2 2.825541 1_555
Mg3_3 Rh1_2 2.825541 1_555
Mg3_3 Rh1_3 2.825541 1_555
Mg3_3 Rh7_2 2.943911 1_555
Mg3_3 Rh7_3 2.943911 1_555
Mg3_3 Rh3_6 2.943911 1_455
Mg3_3 Rh3_7 2.943911 1_455
Mg3_4 Rh9_4 2.751616 1_555
Mg3_4 Rh9_5 2.751616 1_554
Mg3_4 Rh4_4 2.825541 1_555
Mg3_4 Rh4_5 2.825541 1_554
Mg3_4 Rh1_4 2.825541 1_555
Mg3_4 Rh1_5 2.825541 1_554
Mg3_4 Mg3_5 2.937303 1_555
Mg3_4 Mg3_5 2.937303 1_554
Mg3_4 Rh7_4 2.943911 1_555
Mg3_4 Rh7_5 2.943911 1_554
Mg3_4 Rh3_0 2.943911 1_555
Mg3_4 Rh3_1 2.943911 1_554
Mg3_5 Rh9_4 2.751616 1_555
Mg3_5 Rh9_5 2.751616 1_555
Mg3_5 Rh4_4 2.825541 1_555
Mg3_5 Rh4_5 2.825541 1_555
Mg3_5 Rh1_4 2.825541 1_555
Mg3_5 Rh1_5 2.825541 1_555
Mg3_5 Rh7_4 2.943911 1_555
Mg3_5 Rh7_5 2.943911 1_555
Mg3_5 Rh3_0 2.943911 1_555
Mg3_5 Rh3_1 2.943911 1_555
Mg3_6 Rh9_6 2.751616 1_555
Mg3_6 Rh9_7 2.751616 1_554
Mg3_6 Rh4_6 2.825541 1_555
Mg3_6 Rh4_7 2.825541 1_554
Mg3_6 Rh1_6 2.825541 1_555
Mg3_6 Rh1_7 2.825541 1_554
Mg3_6 Mg3_7 2.937303 1_555
Mg3_6 Mg3_7 2.937303 1_554
Mg3_6 Rh7_6 2.943911 1_555
Mg3_6 Rh7_7 2.943911 1_554
Mg3_6 Rh3_2 2.943911 1_555
Mg3_6 Rh3_3 2.943911 1_554
Mg3_7 Rh9_7 2.751616 1_555
Mg3_7 Rh9_6 2.751616 1_555
Mg3_7 Rh4_6 2.825541 1_555
Mg3_7 Rh4_7 2.825541 1_555
Mg3_7 Rh1_7 2.825541 1_555
Mg3_7 Rh1_6 2.825541 1_555
Mg3_7 Rh7_7 2.943911 1_555
Mg3_7 Rh7_6 2.943911 1_555
Mg3_7 Rh3_3 2.943911 1_555
Mg3_7 Rh3_2 2.943911 1_555
Ge0_0 Rh0_0 2.582077 1_555
Ge0_0 Rh2_4 2.582077 1_455
Ge0_0 Rh2_5 2.582077 1_454
Ge0_0 Rh0_1 2.582077 1_554
Ge0_0 Rh1_2 2.582077 1_545
Ge0_0 Rh1_3 2.582077 1_544
Ge0_0 Rh3_6 2.582077 1_445
Ge0_0 Rh3_7 2.582077 1_444
Ge0_1 Rh0_0 2.582077 1_555
Ge0_1 Rh0_1 2.582077 1_555
Ge0_1 Rh2_4 2.582077 1_455
Ge0_1 Rh2_5 2.582077 1_455
Ge0_1 Rh1_2 2.582077 1_545
Ge0_1 Rh1_3 2.582077 1_545
Ge0_1 Rh3_7 2.582077 1_445
Ge0_1 Rh3_6 2.582077 1_445
Ge0_2 Rh2_6 2.582077 1_455
Ge0_2 Rh0_2 2.582077 1_555
Ge0_2 Rh0_3 2.582077 1_554
Ge0_2 Rh2_7 2.582077 1_454
Ge0_2 Rh1_0 2.582077 1_555
Ge0_2 Rh1_1 2.582077 1_554
Ge0_2 Rh3_4 2.582077 1_455
Ge0_2 Rh3_5 2.582077 1_454
Ge0_3 Rh0_3 2.582077 1_555
Ge0_3 Rh2_6 2.582077 1_455
Ge0_3 Rh0_2 2.582077 1_555
Ge0_3 Rh2_7 2.582077 1_455
Ge0_3 Rh1_0 2.582077 1_555
Ge0_3 Rh1_1 2.582077 1_555
Ge0_3 Rh3_5 2.582077 1_455
Ge0_3 Rh3_4 2.582077 1_455
Ge0_4 Rh0_4 2.582077 1_555
Ge0_4 Rh2_0 2.582077 1_555
Ge0_4 Rh0_5 2.582077 1_554
Ge0_4 Rh2_1 2.582077 1_554
Ge0_4 Rh3_2 2.582077 1_545
Ge0_4 Rh1_6 2.582077 1_545
Ge0_4 Rh3_3 2.582077 1_544
Ge0_4 Rh1_7 2.582077 1_544
Ge0_5 Rh0_4 2.582077 1_555
Ge0_5 Rh0_5 2.582077 1_555
Ge0_5 Rh2_0 2.582077 1_555
Ge0_5 Rh2_1 2.582077 1_555
Ge0_5 Rh3_2 2.582077 1_545
Ge0_5 Rh1_7 2.582077 1_545
Ge0_5 Rh3_3 2.582077 1_545
Ge0_5 Rh1_6 2.582077 1_545
Ge0_6 Rh2_2 2.582077 1_555
Ge0_6 Rh0_6 2.582077 1_555
Ge0_6 Rh2_3 2.582077 1_554
Ge0_6 Rh0_7 2.582077 1_554
Ge0_6 Rh3_0 2.582077 1_555
Ge0_6 Rh1_4 2.582077 1_555
Ge0_6 Rh1_5 2.582077 1_554
Ge0_6 Rh3_1 2.582077 1_554
Ge0_7 Rh2_3 2.582077 1_555
Ge0_7 Rh0_7 2.582077 1_555
Ge0_7 Rh2_2 2.582077 1_555
Ge0_7 Rh0_6 2.582077 1_555
Ge0_7 Rh3_1 2.582077 1_555
Ge0_7 Rh1_5 2.582077 1_555
Ge0_7 Rh3_0 2.582077 1_555
Ge0_7 Rh1_4 2.582077 1_555
Ge1_0 Rh4_0 2.582077 1_555
Ge1_0 Rh6_0 2.582077 1_555
Ge1_0 Rh4_1 2.582077 1_554
Ge1_0 Rh6_1 2.582077 1_554
Ge1_0 Rh5_0 2.582077 1_555
Ge1_0 Rh7_0 2.582077 1_555
Ge1_0 Rh5_1 2.582077 1_554
Ge1_0 Rh7_1 2.582077 1_554
Ge1_1 Rh6_1 2.582077 1_555
Ge1_1 Rh4_0 2.582077 1_555
Ge1_1 Rh6_0 2.582077 1_555
Ge1_1 Rh4_1 2.582077 1_555
Ge1_1 Rh5_1 2.582077 1_555
Ge1_1 Rh7_1 2.582077 1_555
Ge1_1 Rh5_0 2.582077 1_555
Ge1_1 Rh7_0 2.582077 1_555
Ge1_2 Rh4_2 2.582077 1_555
Ge1_2 Rh4_3 2.582077 1_554
Ge1_2 Rh6_2 2.582077 1_555
Ge1_2 Rh6_3 2.582077 1_554
Ge1_2 Rh7_2 2.582077 1_555
Ge1_2 Rh5_2 2.582077 1_555
Ge1_2 Rh7_3 2.582077 1_554
Ge1_2 Rh5_3 2.582077 1_554
Ge1_3 Rh4_2 2.582077 1_555
Ge1_3 Rh4_3 2.582077 1_555
Ge1_3 Rh6_3 2.582077 1_555
Ge1_3 Rh6_2 2.582077 1_555
Ge1_3 Rh7_3 2.582077 1_555
Ge1_3 Rh5_3 2.582077 1_555
Ge1_3 Rh7_2 2.582077 1_555
Ge1_3 Rh5_2 2.582077 1_555
Ge1_4 Rh6_4 2.582077 1_555
Ge1_4 Rh6_5 2.582077 1_554
Ge1_4 Rh4_4 2.582077 1_555
Ge1_4 Rh4_5 2.582077 1_554
Ge1_4 Rh7_4 2.582077 1_555
Ge1_4 Rh7_5 2.582077 1_554
Ge1_4 Rh5_4 2.582077 1_555
Ge1_4 Rh5_5 2.582077 1_554
Ge1_5 Rh6_5 2.582077 1_555
Ge1_5 Rh6_4 2.582077 1_555
Ge1_5 Rh4_5 2.582077 1_555
Ge1_5 Rh4_4 2.582077 1_555
Ge1_5 Rh7_5 2.582077 1_555
Ge1_5 Rh7_4 2.582077 1_555
Ge1_5 Rh5_4 2.582077 1_555
Ge1_5 Rh5_5 2.582077 1_555
Ge1_6 Rh4_6 2.582077 1_555
Ge1_6 Rh6_6 2.582077 1_555
Ge1_6 Rh4_7 2.582077 1_554
Ge1_6 Rh6_7 2.582077 1_554
Ge1_6 Rh7_6 2.582077 1_555
Ge1_6 Rh5_6 2.582077 1_555
Ge1_6 Rh7_7 2.582077 1_554
Ge1_6 Rh5_7 2.582077 1_554
Ge1_7 Rh4_6 2.582077 1_555
Ge1_7 Rh4_7 2.582077 1_555
Ge1_7 Rh6_6 2.582077 1_555
Ge1_7 Rh6_7 2.582077 1_555
Ge1_7 Rh7_6 2.582077 1_555
Ge1_7 Rh7_7 2.582077 1_555
Ge1_7 Rh5_6 2.582077 1_555
Ge1_7 Rh5_7 2.582077 1_555
B0_0 Rh5_0 2.170686 1_555
B0_0 Rh5_1 2.170686 1_554
B0_0 Rh2_0 2.170686 1_555
B0_0 Rh2_1 2.170686 1_554
B0_0 Rh8_0 2.222904 1_555
B0_0 Rh8_1 2.222904 1_554
B0_0 Mg0_0 2.665492 1_555
B0_0 Mg1_0 2.863358 1_555
B0_0 Mg2_2 2.863358 1_545
B0_1 Rh5_0 2.170686 1_555
B0_1 Rh5_1 2.170686 1_555
B0_1 Rh2_0 2.170686 1_555
B0_1 Rh2_1 2.170686 1_555
B0_1 Rh8_0 2.222904 1_555
B0_1 Rh8_1 2.222904 1_555
B0_1 Mg0_1 2.665492 1_555
B0_1 Mg1_1 2.863358 1_555
B0_1 Mg2_3 2.863358 1_545
B0_2 Rh5_2 2.170686 1_555
B0_2 Rh5_3 2.170686 1_554
B0_2 Rh2_2 2.170686 1_555
B0_2 Rh2_3 2.170686 1_554
B0_2 Rh8_2 2.222904 1_555
B0_2 Rh8_3 2.222904 1_554
B0_2 Mg0_2 2.665492 1_555
B0_2 Mg1_2 2.863358 1_555
B0_2 Mg2_0 2.863358 1_555
B0_3 Rh5_3 2.170686 1_555
B0_3 Rh5_2 2.170686 1_555
B0_3 Rh2_3 2.170686 1_555
B0_3 Rh2_2 2.170686 1_555
B0_3 Rh8_2 2.222904 1_555
B0_3 Rh8_3 2.222904 1_555
B0_3 Mg0_3 2.665492 1_555
B0_3 Mg1_3 2.863358 1_555
B0_3 Mg2_1 2.863358 1_555
B0_4 Rh5_4 2.170686 1_555
B0_4 Rh5_5 2.170686 1_554
B0_4 Rh2_4 2.170686 1_555
B0_4 Rh2_5 2.170686 1_554
B0_4 Rh8_4 2.222904 1_555
B0_4 Rh8_5 2.222904 1_554
B0_4 Mg0_4 2.665492 1_555
B0_4 Mg1_4 2.863358 1_555
B0_4 Mg2_6 2.863358 1_545
B0_5 Rh5_4 2.170686 1_555
B0_5 Rh5_5 2.170686 1_555
B0_5 Rh2_5 2.170686 1_555
B0_5 Rh2_4 2.170686 1_555
B0_5 Rh8_4 2.222904 1_555
B0_5 Rh8_5 2.222904 1_555
B0_5 Mg0_5 2.665492 1_555
B0_5 Mg1_5 2.863358 1_555
B0_5 Mg2_7 2.863358 1_545
B0_6 Rh5_6 2.170686 1_555
B0_6 Rh5_7 2.170686 1_554
B0_6 Rh2_6 2.170686 1_555
B0_6 Rh2_7 2.170686 1_554
B0_6 Rh8_6 2.222904 1_555
B0_6 Rh8_7 2.222904 1_554
B0_6 Mg0_6 2.665492 1_555
B0_6 Mg1_6 2.863358 1_555
B0_6 Mg2_4 2.863358 1_555
B0_7 Rh5_7 2.170686 1_555
B0_7 Rh5_6 2.170686 1_555
B0_7 Rh2_6 2.170686 1_555
B0_7 Rh2_7 2.170686 1_555
B0_7 Rh8_7 2.222904 1_555
B0_7 Rh8_6 2.222904 1_555
B0_7 Mg0_7 2.665492 1_555
B0_7 Mg1_7 2.863358 1_555
B0_7 Mg2_5 2.863358 1_555
B1_0 Rh0_0 2.170686 1_555
B1_0 Rh7_0 2.170686 1_555
B1_0 Rh7_1 2.170686 1_554
B1_0 Rh0_1 2.170686 1_554
B1_0 Rh9_0 2.222904 1_555
B1_0 Rh9_1 2.222904 1_554
B1_0 Mg1_0 2.665492 1_555
B1_0 Mg0_4 2.863358 1_455
B1_0 Mg3_0 2.863358 1_555
B1_1 Rh0_1 2.170686 1_555
B1_1 Rh0_0 2.170686 1_555
B1_1 Rh7_0 2.170686 1_555
B1_1 Rh7_1 2.170686 1_555
B1_1 Rh9_0 2.222904 1_555
B1_1 Rh9_1 2.222904 1_555
B1_1 Mg1_1 2.665492 1_555
B1_1 Mg0_5 2.863358 1_455
B1_1 Mg3_1 2.863358 1_555
B1_2 Rh7_2 2.170686 1_555
B1_2 Rh7_3 2.170686 1_554
B1_2 Rh0_2 2.170686 1_555
B1_2 Rh0_3 2.170686 1_554
B1_2 Rh9_2 2.222904 1_555
B1_2 Rh9_3 2.222904 1_554
B1_2 Mg1_2 2.665492 1_555
B1_2 Mg0_6 2.863358 1_455
B1_2 Mg3_2 2.863358 1_555
B1_3 Rh7_2 2.170686 1_555
B1_3 Rh7_3 2.170686 1_555
B1_3 Rh0_2 2.170686 1_555
B1_3 Rh0_3 2.170686 1_555
B1_3 Rh9_3 2.222904 1_555
B1_3 Rh9_2 2.222904 1_555
B1_3 Mg1_3 2.665492 1_555
B1_3 Mg0_7 2.863358 1_455
B1_3 Mg3_3 2.863358 1_555
B1_4 Rh0_4 2.170686 1_555
B1_4 Rh0_5 2.170686 1_554
B1_4 Rh7_4 2.170686 1_555
B1_4 Rh7_5 2.170686 1_554
B1_4 Rh9_4 2.222904 1_555
B1_4 Rh9_5 2.222904 1_554
B1_4 Mg1_4 2.665492 1_555
B1_4 Mg0_0 2.863358 1_555
B1_4 Mg3_4 2.863358 1_555
B1_5 Rh0_5 2.170686 1_555
B1_5 Rh0_4 2.170686 1_555
B1_5 Rh7_5 2.170686 1_555
B1_5 Rh7_4 2.170686 1_555
B1_5 Rh9_5 2.222904 1_555
B1_5 Rh9_4 2.222904 1_555
B1_5 Mg1_5 2.665492 1_555
B1_5 Mg0_1 2.863358 1_555
B1_5 Mg3_5 2.863358 1_555
B1_6 Rh7_6 2.170686 1_555
B1_6 Rh0_6 2.170686 1_555
B1_6 Rh0_7 2.170686 1_554
B1_6 Rh7_7 2.170686 1_554
B1_6 Rh9_6 2.222904 1_555
B1_6 Rh9_7 2.222904 1_554
B1_6 Mg1_6 2.665492 1_555
B1_6 Mg0_2 2.863358 1_555
B1_6 Mg3_6 2.863358 1_555
B1_7 Rh7_6 2.170686 1_555
B1_7 Rh0_6 2.170686 1_555
B1_7 Rh7_7 2.170686 1_555
B1_7 Rh0_7 2.170686 1_555
B1_7 Rh9_7 2.222904 1_555
B1_7 Rh9_6 2.222904 1_555
B1_7 Mg1_7 2.665492 1_555
B1_7 Mg0_3 2.863358 1_555
B1_7 Mg3_7 2.863358 1_555
B2_0 Rh6_0 2.170686 1_555
B2_0 Rh6_1 2.170686 1_554
B2_0 Rh3_0 2.170686 1_555
B2_0 Rh3_1 2.170686 1_554
B2_0 Rh9_4 2.222904 1_555
B2_0 Rh9_5 2.222904 1_554
B2_0 Mg2_0 2.665492 1_555
B2_0 Mg0_0 2.863358 1_555
B2_0 Mg3_4 2.863358 1_555
B2_1 Rh6_0 2.170686 1_555
B2_1 Rh6_1 2.170686 1_555
B2_1 Rh3_1 2.170686 1_555
B2_1 Rh3_0 2.170686 1_555
B2_1 Rh9_4 2.222904 1_555
B2_1 Rh9_5 2.222904 1_555
B2_1 Mg2_1 2.665492 1_555
B2_1 Mg0_1 2.863358 1_555
B2_1 Mg3_5 2.863358 1_555
B2_2 Rh6_2 2.170686 1_555
B2_2 Rh6_3 2.170686 1_554
B2_2 Rh3_2 2.170686 1_555
B2_2 Rh3_3 2.170686 1_554
B2_2 Rh9_6 2.222904 1_555
B2_2 Rh9_7 2.222904 1_554
B2_2 Mg2_2 2.665492 1_555
B2_2 Mg0_2 2.863358 1_555
B2_2 Mg3_6 2.863358 1_555
B2_3 Rh6_3 2.170686 1_555
B2_3 Rh6_2 2.170686 1_555
B2_3 Rh3_3 2.170686 1_555
B2_3 Rh3_2 2.170686 1_555
B2_3 Rh9_6 2.222904 1_555
B2_3 Rh9_7 2.222904 1_555
B2_3 Mg2_3 2.665492 1_555
B2_3 Mg0_3 2.863358 1_555
B2_3 Mg3_7 2.863358 1_555
B2_4 Rh6_4 2.170686 1_555
B2_4 Rh6_5 2.170686 1_554
B2_4 Rh3_4 2.170686 1_555
B2_4 Rh3_5 2.170686 1_554
B2_4 Rh9_0 2.222904 1_655
B2_4 Rh9_1 2.222904 1_654
B2_4 Mg2_4 2.665492 1_555
B2_4 Mg0_4 2.863358 1_555
B2_4 Mg3_0 2.863358 1_655
B2_5 Rh6_4 2.170686 1_555
B2_5 Rh6_5 2.170686 1_555
B2_5 Rh3_4 2.170686 1_555
B2_5 Rh3_5 2.170686 1_555
B2_5 Rh9_0 2.222904 1_655
B2_5 Rh9_1 2.222904 1_655
B2_5 Mg2_5 2.665492 1_555
B2_5 Mg0_5 2.863358 1_555
B2_5 Mg3_1 2.863358 1_655
B2_6 Rh6_6 2.170686 1_555
B2_6 Rh6_7 2.170686 1_554
B2_6 Rh3_6 2.170686 1_555
B2_6 Rh3_7 2.170686 1_554
B2_6 Rh9_2 2.222904 1_655
B2_6 Rh9_3 2.222904 1_654
B2_6 Mg2_6 2.665492 1_555
B2_6 Mg0_6 2.863358 1_555
B2_6 Mg3_2 2.863358 1_655
B2_7 Rh6_6 2.170686 1_555
B2_7 Rh6_7 2.170686 1_555
B2_7 Rh3_6 2.170686 1_555
B2_7 Rh3_7 2.170686 1_555
B2_7 Rh9_3 2.222904 1_655
B2_7 Rh9_2 2.222904 1_655
B2_7 Mg2_7 2.665492 1_555
B2_7 Mg0_7 2.863358 1_555
B2_7 Mg3_3 2.863358 1_655
B3_0 Rh1_0 2.170686 1_555
B3_0 Rh1_1 2.170686 1_554
B3_0 Rh4_0 2.170686 1_555
B3_0 Rh4_1 2.170686 1_554
B3_0 Rh8_2 2.222904 1_555
B3_0 Rh8_3 2.222904 1_554
B3_0 Mg3_0 2.665492 1_555
B3_0 Mg1_2 2.863358 1_555
B3_0 Mg2_0 2.863358 1_555
B3_1 Rh1_1 2.170686 1_555
B3_1 Rh1_0 2.170686 1_555
B3_1 Rh4_0 2.170686 1_555
B3_1 Rh4_1 2.170686 1_555
B3_1 Rh8_3 2.222904 1_555
B3_1 Rh8_2 2.222904 1_555
B3_1 Mg3_1 2.665492 1_555
B3_1 Mg1_3 2.863358 1_555
B3_1 Mg2_1 2.863358 1_555
B3_2 Rh1_2 2.170686 1_555
B3_2 Rh1_3 2.170686 1_554
B3_2 Rh4_2 2.170686 1_555
B3_2 Rh4_3 2.170686 1_554
B3_2 Rh8_0 2.222904 1_565
B3_2 Rh8_1 2.222904 1_564
B3_2 Mg3_2 2.665492 1_555
B3_2 Mg1_0 2.863358 1_565
B3_2 Mg2_2 2.863358 1_555
B3_3 Rh1_2 2.170686 1_555
B3_3 Rh1_3 2.170686 1_555
B3_3 Rh4_3 2.170686 1_555
B3_3 Rh4_2 2.170686 1_555
B3_3 Rh8_0 2.222904 1_565
B3_3 Rh8_1 2.222904 1_565
B3_3 Mg3_3 2.665492 1_555
B3_3 Mg1_1 2.863358 1_565
B3_3 Mg2_3 2.863358 1_555
B3_4 Rh1_4 2.170686 1_555
B3_4 Rh1_5 2.170686 1_554
B3_4 Rh4_4 2.170686 1_555
B3_4 Rh4_5 2.170686 1_554
B3_4 Rh8_6 2.222904 1_555
B3_4 Rh8_7 2.222904 1_554
B3_4 Mg3_4 2.665492 1_555
B3_4 Mg2_4 2.863358 1_555
B3_4 Mg1_6 2.863358 1_555
B3_5 Rh1_5 2.170686 1_555
B3_5 Rh1_4 2.170686 1_555
B3_5 Rh4_4 2.170686 1_555
B3_5 Rh4_5 2.170686 1_555
B3_5 Rh8_7 2.222904 1_555
B3_5 Rh8_6 2.222904 1_555
B3_5 Mg3_5 2.665492 1_555
B3_5 Mg2_5 2.863358 1_555
B3_5 Mg1_7 2.863358 1_555
B3_6 Rh1_6 2.170686 1_555
B3_6 Rh1_7 2.170686 1_554
B3_6 Rh4_6 2.170686 1_555
B3_6 Rh4_7 2.170686 1_554
B3_6 Rh8_4 2.222904 1_565
B3_6 Rh8_5 2.222904 1_564
B3_6 Mg3_6 2.665492 1_555
B3_6 Mg2_6 2.863358 1_555
B3_6 Mg1_4 2.863358 1_565
B3_7 Rh1_6 2.170686 1_555
B3_7 Rh1_7 2.170686 1_555
B3_7 Rh4_6 2.170686 1_555
B3_7 Rh4_7 2.170686 1_555
B3_7 Rh8_4 2.222904 1_565
B3_7 Rh8_5 2.222904 1_565
B3_7 Mg3_7 2.665492 1_555
B3_7 Mg2_7 2.863358 1_555
B3_7 Mg1_5 2.863358 1_565
