# generated using pymatgen
data_MnPtF6
_symmetry_space_group_name_H-M   'P 1'
_cell_length_a   5.55134357
_cell_length_b   5.55134974
_cell_length_c   5.55135236
_cell_angle_alpha   54.20120355
_cell_angle_beta   54.20117802
_cell_angle_gamma   54.20123903
_symmetry_Int_Tables_number   1
_chemical_formula_structural   MnPtF6
_chemical_formula_sum   'Mn1 Pt1 F6'
_cell_volume   104.59808410
_cell_formula_units_Z   1
loop_
 _symmetry_equiv_pos_site_id
 _symmetry_equiv_pos_as_xyz
  1  'x, y, z'
loop_
 _atom_site_type_symbol
 _atom_site_label
 _atom_site_symmetry_multiplicity
 _atom_site_fract_x
 _atom_site_fract_y
 _atom_site_fract_z
 _atom_site_occupancy
  Mn  Mn0  1  -0.00000000  0.00000000  0.00000000  1
  Pt  Pt0  1  0.50000000  0.50000000  0.50000000  1
  F  F0  1  0.88586540  0.60236543  0.25786234  1
  F  F1  1  0.60236643  0.25786334  0.88586640  1
  F  F2  1  0.74213766  0.11413360  0.39763457  1
  F  F3  1  0.39763357  0.74213666  0.11413360  1
  F  F4  1  0.11413460  0.39763457  0.74213766  1
  F  F5  1  0.25786234  0.88586640  0.60236543  1
loop_
_geom_bond_atom_site_label_1
_geom_bond_atom_site_label_2
_geom_bond_distance
_geom_bond_site_symmetry_2
F0 Pt0 1.969816 1_555
F0 Mn0 2.049809 1_665
F1 Pt0 1.969828 1_555
F1 Mn0 2.049801 1_656
F2 Pt0 1.969825 1_555
F2 Mn0 2.049808 1_655
F3 Pt0 1.969828 1_555
F3 Mn0 2.049801 1_565
F4 Pt0 1.969816 1_555
F4 Mn0 2.049809 1_556
F5 Pt0 1.969825 1_555
F5 Mn0 2.049808 1_566
