# generated using pymatgen
data_Hf(FeSi)2
_symmetry_space_group_name_H-M   'P 1'
_cell_length_a   5.02370100
_cell_length_b   7.02671200
_cell_length_c   7.43028900
_cell_angle_alpha   90.00000000
_cell_angle_beta   90.00000000
_cell_angle_gamma   90.00000000
_symmetry_Int_Tables_number   1
_chemical_formula_structural   Hf(FeSi)2
_chemical_formula_sum   'Hf4 Fe8 Si8'
_cell_volume   262.28994548
_cell_formula_units_Z   4
loop_
 _symmetry_equiv_pos_site_id
 _symmetry_equiv_pos_as_xyz
  1  'x, y, z'
loop_
 _atom_site_type_symbol
 _atom_site_label
 _atom_site_symmetry_multiplicity
 _atom_site_fract_x
 _atom_site_fract_y
 _atom_site_fract_z
 _atom_site_occupancy
  Hf  Hf0  1  0.75000000  0.90670600  0.24872900  1
  Hf  Hf1  1  0.25000000  0.09329400  0.75127100  1
  Hf  Hf2  1  0.75000000  0.40670600  0.75127100  1
  Hf  Hf3  1  0.25000000  0.59329400  0.24872900  1
  Fe  Fe0  1  0.75000000  0.51668500  0.10838300  1
  Fe  Fe1  1  0.25000000  0.48331500  0.89161700  1
  Fe  Fe2  1  0.75000000  0.01668500  0.89161700  1
  Fe  Fe3  1  0.25000000  0.98331500  0.10838300  1
  Fe  Fe4  1  0.00000000  0.75000000  0.60995600  1
  Fe  Fe5  1  0.50000000  0.25000000  0.39004400  1
  Fe  Fe6  1  0.00000000  0.25000000  0.39004400  1
  Fe  Fe7  1  0.50000000  0.75000000  0.60995600  1
  Si  Si0  1  0.75000000  0.54887900  0.41430600  1
  Si  Si1  1  0.25000000  0.45112100  0.58569400  1
  Si  Si2  1  0.75000000  0.04887900  0.58569400  1
  Si  Si3  1  0.25000000  0.95112100  0.41430600  1
  Si  Si4  1  0.00000000  0.75000000  0.94366400  1
  Si  Si5  1  0.50000000  0.25000000  0.05633600  1
  Si  Si6  1  0.00000000  0.25000000  0.05633600  1
  Si  Si7  1  0.50000000  0.75000000  0.94366400  1
loop_
_geom_bond_atom_site_label_1
_geom_bond_atom_site_label_2
_geom_bond_distance
_geom_bond_site_symmetry_2
Hf0 Si2 2.695695 1_565
Hf0 Si0 2.799204 1_555
Hf0 Si3 2.814320 1_555
Hf0 Si3 2.814320 1_655
Hf0 Si7 2.815645 1_554
Hf0 Si4 2.815645 1_654
Hf0 Si5 3.072420 1_565
Hf0 Si6 3.072420 1_665
Hf1 Si3 2.695695 1_545
Hf1 Si1 2.799204 1_555
Hf1 Si2 2.814320 1_555
Hf1 Si2 2.814320 1_455
Hf1 Si5 2.815645 1_556
Hf1 Si6 2.815645 1_556
Hf1 Si7 3.072420 1_545
Hf1 Si4 3.072420 1_545
Hf2 Si0 2.695695 1_555
Hf2 Si2 2.799204 1_555
Hf2 Si1 2.814320 1_555
Hf2 Si1 2.814320 1_655
Hf2 Si6 2.815645 1_656
Hf2 Si5 2.815645 1_556
Hf2 Si7 3.072420 1_555
Hf2 Si4 3.072420 1_655
Hf3 Si1 2.695695 1_555
Hf3 Si3 2.799204 1_555
Hf3 Si0 2.814320 1_455
Hf3 Si0 2.814320 1_555
Hf3 Si4 2.815645 1_554
Hf3 Si7 2.815645 1_554
Hf3 Si6 3.072420 1_555
Hf3 Si5 3.072420 1_555
Fe0 Si0 2.284325 1_555
Fe0 Si6 2.288772 1_655
Fe0 Si5 2.288772 1_555
Fe0 Si7 2.400637 1_554
Fe0 Si4 2.400637 1_654
Fe0 Hf2 2.763689 1_554
Fe0 Hf3 2.772476 1_555
Fe0 Hf3 2.772476 1_655
Fe0 Hf0 2.932261 1_555
Fe1 Si1 2.284325 1_555
Fe1 Si4 2.288772 1_555
Fe1 Si7 2.288772 1_555
Fe1 Si6 2.400637 1_556
Fe1 Si5 2.400637 1_556
Fe1 Hf3 2.763689 1_556
Fe1 Hf2 2.772476 1_555
Fe1 Hf2 2.772476 1_455
Fe1 Hf1 2.932261 1_555
Fe2 Si2 2.284325 1_555
Fe2 Si4 2.288772 1_645
Fe2 Si7 2.288772 1_545
Fe2 Si6 2.400637 1_656
Fe2 Si5 2.400637 1_556
Fe2 Hf0 2.763689 1_546
Fe2 Hf1 2.772476 1_655
Fe2 Hf1 2.772476 1_555
Fe2 Hf2 2.932261 1_555
Fe3 Si3 2.284325 1_555
Fe3 Si6 2.288772 1_565
Fe3 Si5 2.288772 1_565
Fe3 Si4 2.400637 1_554
Fe3 Si7 2.400637 1_554
Fe3 Hf1 2.763689 1_564
Fe3 Hf0 2.772476 1_455
Fe3 Hf0 2.772476 1_555
Fe3 Hf3 2.932261 1_555
Fe4 Si3 2.384929 1_555
Fe4 Si0 2.384929 1_455
Fe4 Si2 2.453655 1_465
Fe4 Si1 2.453655 1_555
Fe4 Si4 2.479547 1_555
Fe4 Fe7 2.511850 1_455
Fe4 Fe7 2.511850 1_555
Fe4 Hf1 2.915256 1_565
Fe4 Hf2 2.915256 1_455
Fe4 Hf0 3.161297 1_455
Fe4 Hf3 3.161297 1_555
Fe5 Si2 2.384929 1_555
Fe5 Si1 2.384929 1_555
Fe5 Si0 2.453655 1_555
Fe5 Si3 2.453655 1_545
Fe5 Si5 2.479547 1_555
Fe5 Fe6 2.511850 1_655
Fe5 Fe6 2.511850 1_555
Fe5 Hf0 2.915256 1_545
Fe5 Hf3 2.915256 1_555
Fe5 Hf2 3.161297 1_555
Fe5 Hf1 3.161297 1_555
Fe6 Si2 2.384929 1_455
Fe6 Si1 2.384929 1_555
Fe6 Si3 2.453655 1_545
Fe6 Si0 2.453655 1_455
Fe6 Si6 2.479547 1_555
Fe6 Hf0 2.915256 1_445
Fe6 Hf3 2.915256 1_555
Fe6 Hf2 3.161297 1_455
Fe6 Hf1 3.161297 1_555
Fe7 Si3 2.384929 1_555
Fe7 Si0 2.384929 1_555
Fe7 Si2 2.453655 1_565
Fe7 Si1 2.453655 1_555
Fe7 Si7 2.479547 1_555
Fe7 Hf1 2.915256 1_565
Fe7 Hf2 2.915256 1_555
Fe7 Hf0 3.161297 1_555
Fe7 Hf3 3.161297 1_555
Si4 Si7 2.511850 1_555
Si4 Si7 2.511850 1_455
Si5 Si6 2.511850 1_655
Si5 Si6 2.511850 1_555
