# generated using pymatgen
data_Sb2Pb2S5
_symmetry_space_group_name_H-M   'P 1'
_cell_length_a   4.00703600
_cell_length_b   11.37815600
_cell_length_c   20.45866700
_cell_angle_alpha   90.00000000
_cell_angle_beta   90.00000000
_cell_angle_gamma   90.00000000
_symmetry_Int_Tables_number   1
_chemical_formula_structural   Sb2Pb2S5
_chemical_formula_sum   'Sb8 Pb8 S20'
_cell_volume   932.76547219
_cell_formula_units_Z   4
loop_
 _symmetry_equiv_pos_site_id
 _symmetry_equiv_pos_as_xyz
  1  'x, y, z'
loop_
 _atom_site_type_symbol
 _atom_site_label
 _atom_site_symmetry_multiplicity
 _atom_site_fract_x
 _atom_site_fract_y
 _atom_site_fract_z
 _atom_site_occupancy
  Sb  Sb0  1  0.25000000  0.37880800  0.36860500  1
  Sb  Sb1  1  0.75000000  0.62119200  0.63139500  1
  Sb  Sb2  1  0.75000000  0.87880800  0.13139500  1
  Sb  Sb3  1  0.25000000  0.12119200  0.86860500  1
  Sb  Sb4  1  0.25000000  0.70290500  0.47316300  1
  Sb  Sb5  1  0.75000000  0.29709500  0.52683700  1
  Sb  Sb6  1  0.75000000  0.20290500  0.02683700  1
  Sb  Sb7  1  0.25000000  0.79709500  0.97316300  1
  Pb  Pb0  1  0.25000000  0.16882600  0.20687800  1
  Pb  Pb1  1  0.75000000  0.83117400  0.79312200  1
  Pb  Pb2  1  0.75000000  0.66882600  0.29312200  1
  Pb  Pb3  1  0.25000000  0.33117400  0.70687800  1
  Pb  Pb4  1  0.25000000  0.49879700  0.09551600  1
  Pb  Pb5  1  0.75000000  0.50120300  0.90448400  1
  Pb  Pb6  1  0.75000000  0.99879700  0.40448400  1
  Pb  Pb7  1  0.25000000  0.00120300  0.59551600  1
  S  S0  1  0.25000000  0.49221600  0.26738300  1
  S  S1  1  0.75000000  0.50778400  0.73261700  1
  S  S2  1  0.75000000  0.99221600  0.23261700  1
  S  S3  1  0.25000000  0.00778400  0.76738300  1
  S  S4  1  0.25000000  0.68522400  0.87030600  1
  S  S5  1  0.75000000  0.31477600  0.12969400  1
  S  S6  1  0.75000000  0.18522400  0.62969400  1
  S  S7  1  0.25000000  0.81477600  0.37030600  1
  S  S8  1  0.25000000  0.74866500  0.16880300  1
  S  S9  1  0.75000000  0.25133500  0.83119700  1
  S  S10  1  0.75000000  0.24866500  0.33119700  1
  S  S11  1  0.25000000  0.75133500  0.66880300  1
  S  S12  1  0.25000000  0.13835700  0.47960300  1
  S  S13  1  0.75000000  0.86164300  0.52039700  1
  S  S14  1  0.75000000  0.63835700  0.02039700  1
  S  S15  1  0.25000000  0.36164300  0.97960300  1
  S  S16  1  0.25000000  0.06806200  0.07642300  1
  S  S17  1  0.75000000  0.93193700  0.92357700  1
  S  S18  1  0.75000000  0.56806300  0.42357700  1
  S  S19  1  0.25000000  0.43193700  0.57642300  1
loop_
_geom_bond_atom_site_label_1
_geom_bond_atom_site_label_2
_geom_bond_distance
_geom_bond_site_symmetry_2
Pb0 S2 2.886079 1_445
Pb0 S2 2.886079 1_545
Pb0 S16 2.904772 1_555
Pb0 S5 3.043898 1_555
Pb0 S5 3.043898 1_455
Pb1 S3 2.886079 1_665
Pb1 S3 2.886079 1_565
Pb1 S17 2.904767 1_555
Pb1 S4 3.043898 1_555
Pb1 S4 3.043898 1_655
Pb2 S0 2.886079 1_555
Pb2 S0 2.886079 1_655
Pb2 S18 2.904767 1_555
Pb2 S7 3.043898 1_655
Pb2 S7 3.043898 1_555
Pb3 S1 2.886079 1_455
Pb3 S1 2.886079 1_555
Pb3 S19 2.904767 1_555
Pb3 S6 3.043898 1_555
Pb3 S6 3.043898 1_455
Pb4 S15 2.838839 1_554
Pb4 S5 2.981123 1_455
Pb4 S5 2.981123 1_555
Pb4 S14 2.982865 1_455
Pb4 S14 2.982865 1_555
Pb4 S8 3.214175 1_555
Pb5 S14 2.838839 1_556
Pb5 S4 2.981123 1_655
Pb5 S4 2.981123 1_555
Pb5 S15 2.982865 1_555
Pb5 S15 2.982865 1_655
Pb5 S9 3.214175 1_555
Pb6 S13 2.838839 1_555
Pb6 S7 2.981123 1_655
Pb6 S7 2.981123 1_555
Pb6 S12 2.982865 1_565
Pb6 S12 2.982865 1_665
Pb6 S10 3.214175 1_565
Pb7 S12 2.838839 1_555
Pb7 S6 2.981123 1_455
Pb7 S6 2.981123 1_555
Pb7 S13 2.982865 1_445
Pb7 S13 2.982865 1_545
Pb7 S11 3.214175 1_545
S0 Sb0 2.439991 1_555
S1 Sb1 2.439991 1_555
S2 Sb2 2.439991 1_555
S3 Sb3 2.439991 1_555
S4 Sb7 2.459347 1_555
S5 Sb6 2.459347 1_555
S6 Sb5 2.459347 1_555
S7 Sb4 2.459347 1_555
S8 Sb2 2.606248 1_455
S8 Sb2 2.606248 1_555
S9 Sb3 2.606248 1_655
S9 Sb3 2.606248 1_555
S10 Sb0 2.606248 1_655
S10 Sb0 2.606248 1_555
S11 Sb1 2.606248 1_555
S11 Sb1 2.606248 1_455
S12 Sb5 2.865322 1_555
S12 Sb5 2.865322 1_455
S13 Sb4 2.865322 1_555
S13 Sb4 2.865322 1_655
S14 Sb7 2.865322 1_554
S14 Sb7 2.865322 1_654
S15 Sb6 2.865322 1_456
S15 Sb6 2.865322 1_556
S16 Sb6 2.719777 1_455
S16 Sb6 2.719777 1_555
S16 Sb2 3.148952 1_545
S16 Sb2 3.148952 1_445
S17 Sb7 2.719771 1_655
S17 Sb7 2.719771 1_555
S17 Sb3 3.148959 1_665
S17 Sb3 3.148959 1_565
S18 Sb4 2.719771 1_555
S18 Sb4 2.719771 1_655
S18 Sb0 3.148959 1_655
S18 Sb0 3.148959 1_555
S19 Sb5 2.719771 1_455
S19 Sb5 2.719771 1_555
S19 Sb1 3.148959 1_455
S19 Sb1 3.148959 1_555
