# generated using pymatgen
data_NbSe2
_symmetry_space_group_name_H-M   'P 1'
_cell_length_a   3.49970061
_cell_length_b   3.49970013
_cell_length_c   26.82964057
_cell_angle_alpha   90.00000000
_cell_angle_beta   90.00000000
_cell_angle_gamma   119.99998448
_symmetry_Int_Tables_number   1
_chemical_formula_structural   NbSe2
_chemical_formula_sum   'Nb4 Se8'
_cell_volume   284.58190402
_cell_formula_units_Z   4
loop_
 _symmetry_equiv_pos_site_id
 _symmetry_equiv_pos_as_xyz
  1  'x, y, z'
loop_
 _atom_site_type_symbol
 _atom_site_label
 _atom_site_symmetry_multiplicity
 _atom_site_fract_x
 _atom_site_fract_y
 _atom_site_fract_z
 _atom_site_occupancy
  Nb  Nb0  1  0.00000000  0.00000000  0.00000000  1
  Nb  Nb1  1  -0.00000000  0.00000000  0.24875800  1
  Nb  Nb2  1  0.33333300  0.66666700  0.50000000  1
  Nb  Nb3  1  -0.00000000  0.00000000  0.75124200  1
  Se  Se0  1  0.33333300  0.66666700  0.93766559  1
  Se  Se1  1  0.66666700  0.33333300  0.68880898  1
  Se  Se2  1  0.66666700  0.33333300  0.31119102  1
  Se  Se3  1  0.33333300  0.66666700  0.06233441  1
  Se  Se4  1  0.66666700  0.33333300  0.81359128  1
  Se  Se5  1  0.66666700  0.33333300  0.18640872  1
  Se  Se6  1  0.00000000  0.00000000  0.43767004  1
  Se  Se7  1  0.00000000  0.00000000  0.56232996  1
loop_
_geom_bond_atom_site_label_1
_geom_bond_atom_site_label_2
_geom_bond_distance
_geom_bond_site_symmetry_2
Nb0 Se0 2.622895 1_544
Nb0 Se3 2.622895 1_545
Nb0 Se0 2.622898 1_554
Nb0 Se3 2.622898 1_555
Nb0 Se0 2.622898 1_444
Nb0 Se3 2.622898 1_445
Nb1 Se5 2.623150 1_455
Nb1 Se5 2.623152 1_445
Nb1 Se5 2.623153 1_555
Nb1 Se2 2.624583 1_455
Nb1 Se2 2.624586 1_445
Nb1 Se2 2.624586 1_555
Nb2 Se7 2.622819 1_565
Nb2 Se6 2.622819 1_565
Nb2 Se6 2.622822 1_555
Nb2 Se7 2.622822 1_555
Nb2 Se7 2.622822 1_665
Nb2 Se6 2.622822 1_665
Nb3 Se4 2.623150 1_455
Nb3 Se4 2.623152 1_445
Nb3 Se4 2.623153 1_555
Nb3 Se1 2.624583 1_455
Nb3 Se1 2.624586 1_445
Nb3 Se1 2.624586 1_555
