# generated using pymatgen
data_Ba17Tm16Zn8Pt4O57
_symmetry_space_group_name_H-M   'P 1'
_cell_length_a   16.49256366
_cell_length_b   16.49256366
_cell_length_c   16.49256366
_cell_angle_alpha   91.72541002
_cell_angle_beta   91.72541002
_cell_angle_gamma   160.01479912
_symmetry_Int_Tables_number   1
_chemical_formula_structural   Ba17Tm16Zn8Pt4O57
_chemical_formula_sum   'Ba17 Tm16 Zn8 Pt4 O57'
_cell_volume   1509.97311112
_cell_formula_units_Z   1
loop_
 _symmetry_equiv_pos_site_id
 _symmetry_equiv_pos_as_xyz
  1  'x, y, z'
loop_
 _atom_site_type_symbol
 _atom_site_label
 _atom_site_symmetry_multiplicity
 _atom_site_fract_x
 _atom_site_fract_y
 _atom_site_fract_z
 _atom_site_occupancy
  Ba  Ba0  1  0.81099700  0.73213800  0.54313500  1
  Ba  Ba1  1  0.64948500  0.34314900  0.99263400  1
  Ba  Ba2  1  0.73213800  0.18900300  0.92114000  1
  Ba  Ba3  1  0.35051500  0.65685100  0.00736600  1
  Ba  Ba4  1  0.44227500  0.06788200  0.51015700  1
  Ba  Ba5  1  0.11167500  0.72406500  0.83573900  1
  Ba  Ba6  1  0.34314900  0.35051500  0.69366300  1
  Ba  Ba7  1  0.93211800  0.44227500  0.37439200  1
  Ba  Ba8  1  0.72406500  0.88832500  0.61239000  1
  Ba  Ba9  1  0.18900300  0.26786200  0.45686500  1
  Ba  Ba10  1  0.65685100  0.64948500  0.30633700  1
  Ba  Ba11  1  0.06788200  0.55772500  0.62560800  1
  Ba  Ba12  1  0.88832500  0.27593500  0.16426100  1
  Ba  Ba13  1  0.55772500  0.93211800  0.48984300  1
  Ba  Ba14  1  0.26786200  0.81099700  0.07886000  1
  Ba  Ba15  1  0.27593500  0.11167500  0.38761000  1
  Ba  Ba16  1  0.00000000  0.00000000  0.00000000  1
  Tm  Tm0  1  0.32515000  0.95050100  0.27565200  1
  Tm  Tm1  1  0.04949900  0.32515000  0.37464900  1
  Tm  Tm2  1  0.67485000  0.04949900  0.72434800  1
  Tm  Tm3  1  0.49370600  0.74856700  0.24227300  1
  Tm  Tm4  1  0.82827300  0.05186100  0.88013400  1
  Tm  Tm5  1  0.74856700  0.50629400  0.25486200  1
  Tm  Tm6  1  0.50629400  0.25143300  0.75772700  1
  Tm  Tm7  1  0.17172700  0.94813900  0.11986600  1
  Tm  Tm8  1  0.05186100  0.17172700  0.22358700  1
  Tm  Tm9  1  0.51137200  0.40084500  0.91221700  1
  Tm  Tm10  1  0.94813900  0.82827300  0.77641300  1
  Tm  Tm11  1  0.95050100  0.67485000  0.62535100  1
  Tm  Tm12  1  0.40084500  0.48862800  0.88947300  1
  Tm  Tm13  1  0.59915500  0.51137200  0.11052700  1
  Tm  Tm14  1  0.25143300  0.49370600  0.74513800  1
  Tm  Tm15  1  0.48862800  0.59915500  0.08778300  1
  Zn  Zn0  1  0.21219000  0.61997100  0.83216100  1
  Zn  Zn1  1  0.07527800  0.86738600  0.94266400  1
  Zn  Zn2  1  0.78781000  0.38002900  0.16783900  1
  Zn  Zn3  1  0.92472200  0.13261400  0.05733600  1
  Zn  Zn4  1  0.86738600  0.92472200  0.79210800  1
  Zn  Zn5  1  0.38002900  0.21219000  0.59221900  1
  Zn  Zn6  1  0.13261400  0.07527800  0.20789200  1
  Zn  Zn7  1  0.61997100  0.78781000  0.40778100  1
  Pt  Pt0  1  0.85567000  0.58246800  0.43813800  1
  Pt  Pt1  1  0.41753200  0.85567000  0.27320200  1
  Pt  Pt2  1  0.58246800  0.14433000  0.72679800  1
  Pt  Pt3  1  0.14433000  0.41753200  0.56186200  1
  O  O0  1  0.49395500  0.17644900  0.17633400  1
  O  O1  1  0.68237900  0.50604500  0.68249500  1
  O  O2  1  0.72023200  0.07286800  0.31014700  1
  O  O3  1  0.27783600  0.07576400  0.85196900  1
  O  O4  1  0.00011500  0.31762100  0.82366600  1
  O  O5  1  0.22379500  0.42586700  0.14803100  1
  O  O6  1  0.23901000  0.70092500  0.93993600  1
  O  O7  1  0.59768400  0.11991000  0.23306600  1
  O  O8  1  0.81258800  0.83776200  0.15423400  1
  O  O9  1  0.36461900  0.59768400  0.47777500  1
  O  O10  1  0.23191100  0.39309200  0.62500300  1
  O  O11  1  0.11315600  0.63538100  0.23306600  1
  O  O12  1  0.82355100  0.99988500  0.31750500  1
  O  O13  1  0.31762100  0.49395500  0.31750500  1
  O  O14  1  0.42586700  0.27783600  0.20207200  1
  O  O15  1  0.88009000  0.11315600  0.47777500  1
  O  O16  1  0.99988500  0.68237900  0.17633400  1
  O  O17  1  0.15791400  0.15776300  0.31567800  1
  O  O18  1  0.29907500  0.23901000  0.53808500  1
  O  O19  1  0.39309200  0.76808900  0.16118200  1
  O  O20  1  0.92713200  0.23727800  0.64736400  1
  O  O21  1  0.70092500  0.76099000  0.46191500  1
  O  O22  1  0.50000000  0.50000000  0.00000000  1
  O  O23  1  0.07576400  0.22379500  0.79792800  1
  O  O24  1  0.31647100  0.34164600  0.15423400  1
  O  O25  1  0.76272200  0.41008600  0.68985300  1
  O  O26  1  0.11991000  0.88684400  0.52222500  1
  O  O27  1  0.07286800  0.76272200  0.35263600  1
  O  O28  1  0.57413300  0.72216400  0.79792800  1
  O  O29  1  0.77620500  0.57413300  0.85196900  1
  O  O30  1  0.84208600  0.84223700  0.68432200  1
  O  O31  1  0.16223800  0.31647100  0.97482600  1
  O  O32  1  0.50604500  0.82355100  0.82366600  1
  O  O33  1  0.23727800  0.58991400  0.31014700  1
  O  O34  1  0.60690800  0.23191100  0.83881800  1
  O  O35  1  0.63538100  0.40231600  0.52222500  1
  O  O36  1  0.58991400  0.27976800  0.35263600  1
  O  O37  1  0.76808900  0.60690800  0.37499700  1
  O  O38  1  0.27976800  0.92713200  0.68985300  1
  O  O39  1  0.05435300  0.43497000  0.48932300  1
  O  O40  1  0.94564700  0.56503000  0.51067700  1
  O  O41  1  0.40231600  0.88009000  0.76693400  1
  O  O42  1  0.56503000  0.05435300  0.61938200  1
  O  O43  1  0.65835400  0.81258800  0.97482600  1
  O  O44  1  0.68352900  0.65835400  0.84576600  1
  O  O45  1  0.76099000  0.29907500  0.06006400  1
  O  O46  1  0.84223700  0.15791400  0.00015100  1
  O  O47  1  0.43497000  0.94564700  0.38061800  1
  O  O48  1  0.18741200  0.16223800  0.84576600  1
  O  O49  1  0.72216400  0.92423600  0.14803100  1
  O  O50  1  0.15776300  0.84208600  0.99984900  1
  O  O51  1  0.88684400  0.36461900  0.76693400  1
  O  O52  1  0.92423600  0.77620500  0.20207200  1
  O  O53  1  0.41008600  0.72023200  0.64736400  1
  O  O54  1  0.34164600  0.18741200  0.02517400  1
  O  O55  1  0.17644900  0.00011500  0.68249500  1
  O  O56  1  0.83776200  0.68352900  0.02517400  1
loop_
_geom_bond_atom_site_label_1
_geom_bond_atom_site_label_2
_geom_bond_distance
_geom_bond_site_symmetry_2
Ba0 O21 2.613789 1_555
Ba0 O30 2.627871 1_555
Ba0 O18 2.879209 1_555
Ba0 O18 2.879209 1_665
Ba0 O35 2.882960 1_555
Ba0 O26 2.882975 1_655
Ba0 O37 3.040723 1_555
Ba0 O55 3.103128 1_665
Ba0 O1 3.103130 1_555
Ba1 O34 2.735946 1_555
Ba1 O45 2.754107 1_556
Ba1 O50 2.868220 1_655
Ba1 O50 2.868220 1_545
Ba1 O54 2.898016 1_556
Ba1 O56 2.898031 1_556
Ba1 O29 3.181522 1_555
Ba1 O3 3.181522 1_555
Ba1 O16 3.321425 1_556
Ba1 O0 3.321425 1_556
Ba2 O45 2.613789 1_556
Ba2 O46 2.627893 1_556
Ba2 O6 2.879207 1_655
Ba2 O6 2.879218 1_545
Ba2 O41 2.882959 1_545
Ba2 O51 2.882960 1_555
Ba2 O34 3.040723 1_555
Ba2 O4 3.103107 1_655
Ba2 O32 3.103110 1_545
Ba3 O19 2.735946 1_555
Ba3 O6 2.754107 1_554
Ba3 O46 2.868220 1_455
Ba3 O46 2.868220 1_565
Ba3 O43 2.898016 1_554
Ba3 O31 2.898031 1_554
Ba3 O49 3.181522 1_555
Ba3 O5 3.181522 1_555
Ba3 O32 3.321425 1_554
Ba3 O4 3.321425 1_554
Ba4 O26 2.735658 1_545
Ba4 O35 2.735674 1_555
Ba4 O47 2.812758 1_545
Ba4 O42 2.836768 1_555
Ba4 O40 2.863603 1_445
Ba4 O40 2.863603 1_555
Ba4 O36 3.134391 1_555
Ba4 O27 3.134391 1_545
Ba4 O38 3.248674 1_545
Ba4 O25 3.248676 1_555
Ba5 O25 2.850764 1_455
Ba5 O38 2.850764 1_555
Ba5 O51 2.864565 1_455
Ba5 O41 2.864575 1_555
Ba5 O34 2.869565 1_565
Ba5 O34 2.869565 1_455
Ba5 O50 2.910353 1_555
Ba5 O6 2.972831 1_555
Ba6 O10 2.735924 1_555
Ba6 O18 2.754098 1_555
Ba6 O30 2.868220 1_445
Ba6 O30 2.868220 1_555
Ba6 O48 2.898031 1_555
Ba6 O44 2.898033 1_555
Ba6 O28 3.181529 1_555
Ba6 O23 3.181532 1_555
Ba6 O1 3.321421 1_555
Ba6 O55 3.321426 1_555
Ba7 O11 2.735643 1_655
Ba7 O7 2.735649 1_555
Ba7 O39 2.812781 1_655
Ba7 O40 2.836791 1_555
Ba7 O47 2.863599 1_655
Ba7 O47 2.863610 1_545
Ba7 O33 3.134378 1_655
Ba7 O2 3.134383 1_555
Ba7 O27 3.248686 1_655
Ba7 O36 3.248689 1_555
Ba8 O53 2.850764 1_555
Ba8 O20 2.850764 1_565
Ba8 O9 2.864565 1_555
Ba8 O15 2.864569 1_565
Ba8 O10 2.869565 1_555
Ba8 O10 2.869565 1_665
Ba8 O30 2.910331 1_555
Ba8 O21 2.972813 1_555
Ba9 O18 2.613789 1_555
Ba9 O17 2.627871 1_555
Ba9 O21 2.879209 1_555
Ba9 O21 2.879209 1_445
Ba9 O9 2.882960 1_555
Ba9 O15 2.882975 1_455
Ba9 O10 3.040723 1_555
Ba9 O12 3.103128 1_445
Ba9 O13 3.103130 1_555
Ba10 O37 2.735924 1_555
Ba10 O21 2.754098 1_555
Ba10 O17 2.868220 1_665
Ba10 O17 2.868220 1_555
Ba10 O8 2.898031 1_555
Ba10 O24 2.898033 1_555
Ba10 O14 3.181529 1_555
Ba10 O52 3.181532 1_555
Ba10 O13 3.321421 1_555
Ba10 O12 3.321426 1_555
Ba11 O51 2.735643 1_455
Ba11 O41 2.735649 1_555
Ba11 O40 2.812781 1_455
Ba11 O39 2.836791 1_555
Ba11 O42 2.863599 1_455
Ba11 O42 2.863610 1_565
Ba11 O25 3.134378 1_455
Ba11 O38 3.134383 1_555
Ba11 O20 3.248686 1_455
Ba11 O53 3.248689 1_555
Ba12 O2 2.850764 1_555
Ba12 O33 2.850764 1_655
Ba12 O11 2.864565 1_655
Ba12 O7 2.864575 1_555
Ba12 O19 2.869565 1_545
Ba12 O19 2.869565 1_655
Ba12 O46 2.910353 1_555
Ba12 O45 2.972831 1_555
Ba13 O15 2.735658 1_565
Ba13 O9 2.735674 1_555
Ba13 O42 2.812758 1_565
Ba13 O47 2.836768 1_555
Ba13 O39 2.863603 1_555
Ba13 O39 2.863603 1_665
Ba13 O53 3.134391 1_555
Ba13 O20 3.134391 1_565
Ba13 O2 3.248674 1_565
Ba13 O33 3.248676 1_555
Ba14 O6 2.613789 1_554
Ba14 O50 2.627893 1_554
Ba14 O45 2.879207 1_455
Ba14 O45 2.879218 1_565
Ba14 O7 2.882959 1_565
Ba14 O11 2.882960 1_555
Ba14 O19 3.040723 1_555
Ba14 O16 3.103107 1_455
Ba14 O0 3.103110 1_565
Ba15 O36 2.850764 1_555
Ba15 O27 2.850764 1_545
Ba15 O35 2.864565 1_555
Ba15 O26 2.864569 1_545
Ba15 O37 2.869565 1_445
Ba15 O37 2.869565 1_555
Ba15 O17 2.910331 1_555
Ba15 O18 2.972813 1_555
Ba16 O22 2.861806 1_445
Ba16 O22 2.861806 1_555
Ba16 O31 2.919276 1_554
Ba16 O56 2.919276 1_445
Ba16 O8 2.919291 1_445
Ba16 O43 2.919291 1_444
Ba16 O54 2.919291 1_555
Ba16 O48 2.919291 1_554
Ba16 O24 2.919292 1_555
Ba16 O44 2.919292 1_444
O0 Zn2 2.065273 1_555
O0 Tm7 2.273195 1_545
O0 Tm5 2.283938 1_555
O0 Tm0 2.337293 1_545
O1 Zn5 2.065283 1_555
O1 Tm10 2.273195 1_555
O1 Tm6 2.283921 1_555
O1 Tm11 2.337288 1_555
O2 Pt1 2.049141 1_545
O2 Tm1 2.202414 1_655
O2 Tm3 2.376482 1_545
O3 Zn1 2.059084 1_545
O3 Tm6 2.261061 1_555
O3 Tm9 2.280930 1_555
O3 Tm10 2.312948 1_445
O4 Zn0 2.065273 1_555
O4 Tm4 2.273195 1_455
O4 Tm14 2.283942 1_555
O4 Tm2 2.337290 1_455
O5 Zn3 2.059084 1_455
O5 Tm3 2.261061 1_555
O5 Tm15 2.280930 1_555
O5 Tm8 2.312944 1_555
O6 Zn0 1.958937 1_555
O7 Pt1 2.052581 1_545
O7 Zn2 2.142664 1_555
O7 Tm0 2.281839 1_545
O8 Zn6 2.152908 1_665
O8 Tm15 2.258907 1_555
O8 Tm8 2.390365 1_665
O8 Tm13 2.426077 1_555
O9 Pt3 2.052575 1_555
O9 Zn7 2.142664 1_555
O9 Tm1 2.281850 1_555
O10 Pt3 2.088613 1_555
O10 Tm14 2.354210 1_555
O11 Pt1 2.052572 1_555
O11 Zn2 2.142670 1_455
O11 Tm0 2.281850 1_555
O12 Zn7 2.065287 1_555
O12 Tm8 2.273195 1_665
O12 Tm3 2.283924 1_555
O12 Tm1 2.337285 1_665
O13 Zn7 2.065283 1_555
O13 Tm8 2.273195 1_555
O13 Tm3 2.283921 1_555
O13 Tm1 2.337288 1_555
O14 Zn6 2.059084 1_555
O14 Tm5 2.261066 1_555
O14 Tm13 2.280930 1_555
O14 Tm7 2.312954 1_545
O15 Pt3 2.052572 1_655
O15 Zn7 2.142670 1_545
O15 Tm1 2.281846 1_655
O16 Zn2 2.065273 1_555
O16 Tm7 2.273195 1_655
O16 Tm5 2.283942 1_555
O16 Tm0 2.337290 1_655
O17 Zn6 1.981832 1_555
O17 Tm8 2.457103 1_555
O18 Zn5 1.958922 1_555
O19 Pt1 2.088599 1_555
O19 Tm3 2.354215 1_555
O20 Pt3 2.049139 1_655
O20 Tm2 2.202409 1_555
O20 Tm14 2.376467 1_655
O21 Zn7 1.958922 1_555
O22 Tm9 2.292539 1_554
O22 Tm12 2.292539 1_554
O22 Tm13 2.292539 1_555
O22 Tm15 2.292539 1_555
O23 Zn4 2.059084 1_445
O23 Tm14 2.261069 1_555
O23 Tm12 2.280930 1_555
O23 Tm4 2.312954 1_455
O24 Zn6 2.152916 1_555
O24 Tm15 2.258898 1_555
O24 Tm8 2.390350 1_555
O24 Tm13 2.426091 1_555
O25 Pt2 2.049145 1_555
O25 Tm11 2.202410 1_555
O25 Tm6 2.376486 1_555
O26 Pt0 2.052572 1_455
O26 Zn5 2.142670 1_565
O26 Tm11 2.281846 1_455
O27 Pt0 2.049139 1_455
O27 Tm0 2.202409 1_555
O27 Tm5 2.376467 1_455
O28 Zn4 2.059084 1_555
O28 Tm14 2.261066 1_555
O28 Tm12 2.280930 1_555
O28 Tm4 2.312954 1_565
O29 Zn1 2.059084 1_655
O29 Tm6 2.261061 1_555
O29 Tm9 2.280930 1_555
O29 Tm10 2.312944 1_555
O30 Zn4 1.981832 1_555
O30 Tm10 2.457103 1_555
O31 Zn3 2.152912 1_456
O31 Tm12 2.258901 1_555
O31 Tm4 2.390377 1_455
O31 Tm15 2.426074 1_556
O32 Zn0 2.065273 1_555
O32 Tm4 2.273195 1_565
O32 Tm14 2.283938 1_555
O32 Tm2 2.337293 1_565
O33 Pt1 2.049145 1_555
O33 Tm1 2.202410 1_555
O33 Tm3 2.376486 1_555
O34 Pt2 2.088599 1_555
O34 Tm6 2.354215 1_555
O35 Pt0 2.052575 1_555
O35 Zn5 2.142664 1_555
O35 Tm11 2.281850 1_555
O36 Pt0 2.049139 1_555
O36 Tm0 2.202413 1_545
O36 Tm5 2.376464 1_555
O37 Pt0 2.088613 1_555
O37 Tm5 2.354210 1_555
O38 Pt2 2.049141 1_565
O38 Tm11 2.202414 1_455
O38 Tm6 2.376482 1_565
O39 Pt3 2.105245 1_555
O39 Tm1 2.525049 1_555
O40 Pt0 2.105245 1_555
O40 Tm11 2.525049 1_555
O41 Pt2 2.052581 1_565
O41 Zn0 2.142664 1_555
O41 Tm2 2.281839 1_565
O42 Pt2 2.105259 1_555
O42 Tm2 2.525049 1_555
O43 Zn3 2.152908 1_566
O43 Tm12 2.258907 1_555
O43 Tm4 2.390371 1_565
O43 Tm15 2.426077 1_556
O44 Zn4 2.152916 1_555
O44 Tm9 2.258898 1_555
O44 Tm10 2.390350 1_555
O44 Tm12 2.426091 1_555
O45 Zn2 1.958937 1_555
O46 Zn3 1.981818 1_555
O46 Tm4 2.457083 1_554
O47 Pt1 2.105259 1_555
O47 Tm0 2.525049 1_555
O48 Zn4 2.152908 1_445
O48 Tm9 2.258907 1_555
O48 Tm10 2.390365 1_445
O48 Tm12 2.426077 1_555
O49 Zn3 2.059084 1_565
O49 Tm3 2.261061 1_555
O49 Tm15 2.280930 1_555
O49 Tm8 2.312948 1_665
O50 Zn1 1.981818 1_555
O50 Tm7 2.457083 1_556
O51 Pt2 2.052572 1_555
O51 Zn0 2.142670 1_655
O51 Tm2 2.281850 1_555
O52 Zn6 2.059084 1_665
O52 Tm5 2.261069 1_555
O52 Tm13 2.280930 1_555
O52 Tm7 2.312954 1_655
O53 Pt3 2.049139 1_555
O53 Tm2 2.202413 1_565
O53 Tm14 2.376464 1_555
O54 Zn1 2.152908 1_544
O54 Tm13 2.258907 1_555
O54 Tm7 2.390371 1_545
O54 Tm9 2.426077 1_554
O55 Zn5 2.065287 1_555
O55 Tm10 2.273195 1_445
O55 Tm6 2.283924 1_555
O55 Tm11 2.337285 1_445
O56 Zn1 2.152912 1_654
O56 Tm13 2.258901 1_555
O56 Tm7 2.390377 1_655
O56 Tm9 2.426074 1_554
