# generated using pymatgen
data_Dy(Zn10Ru)2
_symmetry_space_group_name_H-M   'P 1'
_cell_length_a   9.94942758
_cell_length_b   9.94942758
_cell_length_c   9.94942758
_cell_angle_alpha   60.00000000
_cell_angle_beta   60.00000000
_cell_angle_gamma   60.00000000
_symmetry_Int_Tables_number   1
_chemical_formula_structural   Dy(Zn10Ru)2
_chemical_formula_sum   'Dy2 Zn40 Ru4'
_cell_volume   696.43291342
_cell_formula_units_Z   2
loop_
 _symmetry_equiv_pos_site_id
 _symmetry_equiv_pos_as_xyz
  1  'x, y, z'
loop_
 _atom_site_type_symbol
 _atom_site_label
 _atom_site_symmetry_multiplicity
 _atom_site_fract_x
 _atom_site_fract_y
 _atom_site_fract_z
 _atom_site_occupancy
  Dy  Dy0  1  0.75000000  0.75000000  0.75000000  1
  Dy  Dy1  1  0.50000000  0.50000000  0.50000000  1
  Zn  Zn0  1  0.38702265  0.38702265  0.11297735  1
  Zn  Zn1  1  0.86297735  0.13702265  0.86297735  1
  Zn  Zn2  1  0.68144273  0.41873532  0.94991097  1
  Zn  Zn3  1  0.41873532  0.94991097  0.94991097  1
  Zn  Zn4  1  0.11297735  0.38702265  0.38702265  1
  Zn  Zn5  1  0.30008903  0.30008903  0.56855727  1
  Zn  Zn6  1  0.56855727  0.30008903  0.30008903  1
  Zn  Zn7  1  0.12500000  0.62500000  0.62500000  1
  Zn  Zn8  1  0.83126468  0.30008903  0.30008903  1
  Zn  Zn9  1  0.68144273  0.94991097  0.41873532  1
  Zn  Zn10  1  0.30008903  0.83126468  0.56855727  1
  Zn  Zn11  1  0.56855727  0.83126468  0.30008903  1
  Zn  Zn12  1  0.94991097  0.94991097  0.41873532  1
  Zn  Zn13  1  0.83126468  0.30008903  0.56855727  1
  Zn  Zn14  1  0.30008903  0.56855727  0.30008903  1
  Zn  Zn15  1  0.30008903  0.30008903  0.83126468  1
  Zn  Zn16  1  0.94991097  0.41873532  0.68144273  1
  Zn  Zn17  1  0.86297735  0.86297735  0.13702265  1
  Zn  Zn18  1  0.94991097  0.94991097  0.68144273  1
  Zn  Zn19  1  0.68144273  0.94991097  0.94991097  1
  Zn  Zn20  1  0.41873532  0.68144273  0.94991097  1
  Zn  Zn21  1  0.94991097  0.41873532  0.94991097  1
  Zn  Zn22  1  0.38702265  0.11297735  0.38702265  1
  Zn  Zn23  1  0.30008903  0.83126468  0.30008903  1
  Zn  Zn24  1  0.38702265  0.11297735  0.11297735  1
  Zn  Zn25  1  0.94991097  0.68144273  0.94991097  1
  Zn  Zn26  1  0.11297735  0.38702265  0.11297735  1
  Zn  Zn27  1  0.30008903  0.56855727  0.83126468  1
  Zn  Zn28  1  0.83126468  0.56855727  0.30008903  1
  Zn  Zn29  1  0.56855727  0.30008903  0.83126468  1
  Zn  Zn30  1  0.62500000  0.62500000  0.12500000  1
  Zn  Zn31  1  0.86297735  0.13702265  0.13702265  1
  Zn  Zn32  1  0.62500000  0.12500000  0.62500000  1
  Zn  Zn33  1  0.11297735  0.11297735  0.38702265  1
  Zn  Zn34  1  0.13702265  0.13702265  0.86297735  1
  Zn  Zn35  1  0.13702265  0.86297735  0.13702265  1
  Zn  Zn36  1  0.94991097  0.68144273  0.41873532  1
  Zn  Zn37  1  0.62500000  0.62500000  0.62500000  1
  Zn  Zn38  1  0.13702265  0.86297735  0.86297735  1
  Zn  Zn39  1  0.41873532  0.94991097  0.68144273  1
  Ru  Ru0  1  0.12500000  0.12500000  0.62500000  1
  Ru  Ru1  1  0.62500000  0.12500000  0.12500000  1
  Ru  Ru2  1  0.12500000  0.62500000  0.12500000  1
  Ru  Ru3  1  0.12500000  0.12500000  0.12500000  1
loop_
_geom_bond_atom_site_label_1
_geom_bond_atom_site_label_2
_geom_bond_distance
_geom_bond_site_symmetry_2
Dy0 Zn37 3.046378 1_555
Dy0 Zn30 3.046378 1_556
Dy0 Zn32 3.046378 1_565
Dy0 Zn7 3.046378 1_655
Dy0 Zn25 3.101647 1_555
Dy0 Zn19 3.101647 1_555
Dy0 Zn18 3.101647 1_555
Dy0 Zn12 3.101647 1_555
Dy0 Zn21 3.101647 1_555
Dy0 Zn3 3.101647 1_555
Dy0 Zn2 3.101647 1_555
Dy0 Zn9 3.101647 1_555
Dy0 Zn39 3.101647 1_555
Dy0 Zn36 3.101647 1_555
Dy0 Zn20 3.101647 1_555
Dy0 Zn16 3.101647 1_555
Dy1 Zn30 3.046378 1_555
Dy1 Zn37 3.046378 1_555
Dy1 Zn7 3.046378 1_555
Dy1 Zn32 3.046378 1_555
Dy1 Zn6 3.101647 1_555
Dy1 Zn14 3.101647 1_555
Dy1 Zn5 3.101647 1_555
Dy1 Zn23 3.101647 1_555
Dy1 Zn8 3.101647 1_555
Dy1 Zn15 3.101647 1_555
Dy1 Zn28 3.101647 1_555
Dy1 Zn11 3.101647 1_555
Dy1 Zn13 3.101647 1_555
Dy1 Zn29 3.101647 1_555
Dy1 Zn27 3.101647 1_555
Dy1 Zn10 3.101647 1_555
Zn0 Zn2 2.640539 1_554
Zn0 Zn20 2.640539 1_554
Zn0 Zn29 2.768776 1_554
Zn0 Zn27 2.768776 1_554
Zn0 Zn6 2.768776 1_555
Zn0 Zn14 2.768776 1_555
Zn1 Zn29 2.640539 1_555
Zn1 Zn13 2.640539 1_555
Zn1 Zn16 2.768776 1_555
Zn1 Zn2 2.768776 1_555
Zn1 Zn18 2.768776 1_545
Zn1 Zn19 2.768776 1_545
Zn2 Zn20 2.613788 1_555
Zn2 Zn21 2.671105 1_555
Zn2 Zn31 2.768776 1_556
Zn2 Zn29 2.844925 1_555
Zn2 Zn6 2.844925 1_556
Zn2 Zn37 3.000987 1_555
Zn2 Zn30 3.000987 1_556
Zn3 Zn39 2.671105 1_555
Zn3 Zn35 2.768776 1_556
Zn3 Zn34 2.768776 1_565
Zn3 Zn32 3.000987 1_565
Zn3 Zn30 3.000987 1_556
Zn4 Zn5 2.768776 1_555
Zn5 Zn6 2.671105 1_555
Zn5 Zn7 3.000987 1_555
Zn6 Zn8 2.613788 1_555
Zn6 Zn9 2.844925 1_545
Zn10 Zn27 2.613788 1_555
Zn10 Zn38 2.640539 1_555
Zn10 Zn11 2.671105 1_555
Zn10 Zn23 2.671105 1_555
Zn10 Zn22 2.768776 1_565
Zn10 Zn33 2.768776 1_565
Zn10 Zn39 2.844925 1_555
Zn10 Zn18 2.844925 1_455
Zn10 Zn37 3.000987 1_555
Zn10 Zn7 3.000987 1_555
Zn11 Zn28 2.613788 1_555
Zn11 Zn17 2.640539 1_555
Zn11 Zn23 2.671105 1_555
Zn11 Zn22 2.768776 1_565
Zn11 Zn24 2.768776 1_565
Zn11 Zn9 2.844925 1_555
Zn11 Zn19 2.844925 1_554
Zn11 Zn37 3.000987 1_555
Zn11 Zn30 3.000987 1_555
Zn12 Zn18 2.613788 1_555
Zn12 Zn33 2.640539 1_665
Zn12 Zn9 2.671105 1_555
Zn12 Zn36 2.671105 1_555
Zn12 Zn35 2.768776 1_655
Zn12 Zn31 2.768776 1_565
Zn12 Zn23 2.844925 1_655
Zn12 Zn8 2.844925 1_565
Zn12 Zn7 3.000987 1_655
Zn12 Zn32 3.000987 1_565
Zn13 Zn29 2.613788 1_555
Zn13 Zn8 2.671105 1_555
Zn13 Zn28 2.671105 1_555
Zn13 Zn4 2.768776 1_655
Zn13 Zn33 2.768776 1_655
Zn13 Zn16 2.844925 1_555
Zn13 Zn18 2.844925 1_545
Zn13 Zn37 3.000987 1_555
Zn13 Zn32 3.000987 1_555
Zn14 Zn23 2.613788 1_555
Zn14 Zn35 2.640539 1_555
Zn14 Zn5 2.671105 1_555
Zn14 Zn6 2.671105 1_555
Zn14 Zn4 2.768776 1_555
Zn14 Zn36 2.844925 1_455
Zn14 Zn20 2.844925 1_554
Zn14 Zn7 3.000987 1_555
Zn14 Zn30 3.000987 1_555
Zn15 Zn5 2.613788 1_555
Zn15 Zn34 2.640539 1_555
Zn15 Zn27 2.671105 1_555
Zn15 Zn29 2.671105 1_555
Zn15 Zn26 2.768776 1_556
Zn15 Zn24 2.768776 1_556
Zn15 Zn3 2.844925 1_545
Zn15 Zn21 2.844925 1_455
Zn15 Zn7 3.000987 1_555
Zn15 Zn32 3.000987 1_555
Zn16 Zn36 2.613788 1_555
Zn16 Zn4 2.640539 1_655
Zn16 Zn21 2.671105 1_555
Zn16 Zn2 2.671105 1_555
Zn16 Zn34 2.768776 1_655
Zn16 Zn5 2.844925 1_655
Zn16 Zn37 3.000987 1_555
Zn16 Zn7 3.000987 1_655
Zn17 Zn28 2.640539 1_555
Zn17 Zn36 2.768776 1_555
Zn17 Zn9 2.768776 1_555
Zn17 Zn25 2.768776 1_554
Zn17 Zn19 2.768776 1_554
Zn18 Zn33 2.640539 1_665
Zn18 Zn25 2.671105 1_555
Zn18 Zn19 2.671105 1_555
Zn18 Zn38 2.768776 1_655
Zn18 Zn32 3.000987 1_565
Zn18 Zn7 3.000987 1_655
Zn19 Zn3 2.613788 1_555
Zn19 Zn24 2.640539 1_566
Zn19 Zn25 2.671105 1_555
Zn19 Zn29 2.844925 1_565
Zn19 Zn30 3.000987 1_556
Zn19 Zn32 3.000987 1_565
Zn20 Zn39 2.671105 1_555
Zn20 Zn3 2.671105 1_555
Zn20 Zn38 2.768776 1_555
Zn20 Zn35 2.768776 1_556
Zn20 Zn27 2.844925 1_555
Zn20 Zn37 3.000987 1_555
Zn20 Zn30 3.000987 1_556
Zn21 Zn25 2.613788 1_555
Zn21 Zn26 2.640539 1_656
Zn21 Zn31 2.768776 1_556
Zn21 Zn34 2.768776 1_655
Zn21 Zn8 2.844925 1_556
Zn21 Zn7 3.000987 1_655
Zn21 Zn30 3.000987 1_556
Zn22 Zn9 2.640539 1_545
Zn22 Zn39 2.640539 1_545
Zn22 Zn5 2.768776 1_555
Zn22 Zn6 2.768776 1_555
Zn23 Zn35 2.640539 1_555
Zn23 Zn24 2.768776 1_565
Zn23 Zn33 2.768776 1_565
Zn23 Zn3 2.844925 1_554
Zn23 Zn7 3.000987 1_555
Zn23 Zn30 3.000987 1_555
Zn24 Zn3 2.640539 1_544
Zn24 Zn29 2.768776 1_554
Zn25 Zn26 2.640539 1_656
Zn25 Zn38 2.768776 1_655
Zn25 Zn28 2.844925 1_556
Zn25 Zn27 2.844925 1_655
Zn25 Zn30 3.000987 1_556
Zn25 Zn7 3.000987 1_655
Zn26 Zn8 2.768776 1_455
Zn26 Zn28 2.768776 1_455
Zn26 Zn27 2.768776 1_554
Zn27 Zn38 2.640539 1_555
Zn27 Zn29 2.671105 1_555
Zn27 Zn37 3.000987 1_555
Zn27 Zn7 3.000987 1_555
Zn28 Zn8 2.671105 1_555
Zn28 Zn4 2.768776 1_655
Zn28 Zn36 2.844925 1_555
Zn28 Zn37 3.000987 1_555
Zn28 Zn30 3.000987 1_555
Zn29 Zn37 3.000987 1_555
Zn29 Zn32 3.000987 1_555
Zn30 Zn6 3.000987 1_555
Zn30 Zn8 3.000987 1_555
Zn31 Zn6 2.640539 1_555
Zn31 Zn8 2.640539 1_555
Zn31 Zn9 2.768776 1_545
Zn32 Zn6 3.000987 1_555
Zn32 Zn5 3.000987 1_555
Zn32 Zn8 3.000987 1_555
Zn32 Zn39 3.000987 1_545
Zn32 Zn9 3.000987 1_545
Zn33 Zn8 2.768776 1_455
Zn34 Zn5 2.640539 1_555
Zn34 Zn39 2.768776 1_545
Zn35 Zn36 2.768776 1_455
Zn36 Zn4 2.640539 1_655
Zn36 Zn9 2.671105 1_555
Zn36 Zn37 3.000987 1_555
Zn36 Zn7 3.000987 1_655
Zn37 Zn9 3.000987 1_555
Zn37 Zn39 3.000987 1_555
Zn38 Zn39 2.768776 1_555
Zn39 Zn9 2.613788 1_555
Zn39 Zn5 2.844925 1_565
Ru0 Zn34 2.493103 1_555
Ru0 Zn33 2.493103 1_555
Ru0 Zn1 2.493103 1_455
Ru0 Zn38 2.493103 1_545
Ru0 Zn4 2.493103 1_555
Ru0 Zn22 2.493103 1_555
Ru0 Zn13 2.731825 1_455
Ru0 Zn16 2.731825 1_455
Ru0 Zn39 2.731825 1_545
Ru0 Zn10 2.731825 1_545
Ru0 Zn18 2.731825 1_445
Ru0 Zn5 2.731825 1_555
Ru1 Zn22 2.493103 1_555
Ru1 Zn0 2.493103 1_555
Ru1 Zn1 2.493103 1_554
Ru1 Zn31 2.493103 1_555
Ru1 Zn17 2.493103 1_545
Ru1 Zn24 2.493103 1_555
Ru1 Zn11 2.731825 1_545
Ru1 Zn29 2.731825 1_554
Ru1 Zn2 2.731825 1_554
Ru1 Zn9 2.731825 1_545
Ru1 Zn19 2.731825 1_544
Ru1 Zn6 2.731825 1_555
Ru2 Zn26 2.493103 1_555
Ru2 Zn35 2.493103 1_555
Ru2 Zn17 2.493103 1_455
Ru2 Zn4 2.493103 1_555
Ru2 Zn38 2.493103 1_554
Ru2 Zn0 2.493103 1_555
Ru2 Zn20 2.731825 1_554
Ru2 Zn28 2.731825 1_455
Ru2 Zn36 2.731825 1_455
Ru2 Zn27 2.731825 1_554
Ru2 Zn25 2.731825 1_454
Ru2 Zn14 2.731825 1_555
Ru3 Zn31 2.493103 1_455
Ru3 Zn26 2.493103 1_555
Ru3 Zn35 2.493103 1_545
Ru3 Zn33 2.493103 1_555
Ru3 Zn34 2.493103 1_554
Ru3 Zn24 2.493103 1_555
Ru3 Zn12 2.731825 1_445
Ru3 Zn8 2.731825 1_455
Ru3 Zn15 2.731825 1_554
Ru3 Zn23 2.731825 1_545
Ru3 Zn3 2.731825 1_544
Ru3 Zn21 2.731825 1_454
