# generated using pymatgen
data_K2Nd(PO3)5
_symmetry_space_group_name_H-M   'P 1'
_cell_length_a   7.25722315
_cell_length_b   7.25722315
_cell_length_c   13.40959935
_cell_angle_alpha   89.59597683
_cell_angle_beta   89.59597683
_cell_angle_gamma   108.10139486
_symmetry_Int_Tables_number   1
_chemical_formula_structural   K2Nd(PO3)5
_chemical_formula_sum   'K4 Nd2 P10 O30'
_cell_volume   671.24533326
_cell_formula_units_Z   2
loop_
 _symmetry_equiv_pos_site_id
 _symmetry_equiv_pos_as_xyz
  1  'x, y, z'
loop_
 _atom_site_type_symbol
 _atom_site_label
 _atom_site_symmetry_multiplicity
 _atom_site_fract_x
 _atom_site_fract_y
 _atom_site_fract_z
 _atom_site_occupancy
  K  K0  1  0.79503400  0.55898900  0.94332300  1
  K  K1  1  0.31221000  0.70069600  0.74586100  1
  K  K2  1  0.55898900  0.79503400  0.44332300  1
  K  K3  1  0.70069600  0.31221000  0.24586100  1
  Nd  Nd0  1  0.90399200  0.09582800  0.74960500  1
  Nd  Nd1  1  0.09582800  0.90399200  0.24960500  1
  P  P0  1  0.00312900  0.60929600  0.49009700  1
  P  P1  1  0.23615400  0.38642800  0.94103200  1
  P  P2  1  0.77074100  0.56224000  0.67402500  1
  P  P3  1  0.96492400  0.18522500  0.47013500  1
  P  P4  1  0.38642800  0.23615400  0.44103200  1
  P  P5  1  0.44488600  0.19635900  0.65866600  1
  P  P6  1  0.19635900  0.44488600  0.15866600  1
  P  P7  1  0.18522500  0.96492400  0.97013500  1
  P  P8  1  0.56224000  0.77074100  0.17402500  1
  P  P9  1  0.60929600  0.00312900  0.99009700  1
  O  O0  1  0.15752900  0.23722800  0.18939200  1
  O  O1  1  0.91215400  0.08243900  0.37241800  1
  O  O2  1  0.08243900  0.91215400  0.87241800  1
  O  O3  1  0.54434500  0.43065000  0.66604200  1
  O  O4  1  0.62975900  0.82561000  0.06035700  1
  O  O5  1  0.27119200  0.19436600  0.98349800  1
  O  O6  1  0.18742100  0.65405600  0.54674900  1
  O  O7  1  0.65405600  0.18742100  0.04674900  1
  O  O8  1  0.23722800  0.15752900  0.68939200  1
  O  O9  1  0.74068400  0.76747200  0.22948800  1
  O  O10  1  0.06880700  0.34094400  0.86958600  1
  O  O11  1  0.08795800  0.56175700  0.21162500  1
  O  O12  1  0.43065000  0.54434500  0.16604200  1
  O  O13  1  0.99251900  0.72081400  0.39710900  1
  O  O14  1  0.52290800  0.42508100  0.40715200  1
  O  O15  1  0.46404400  0.15576000  0.54126600  1
  O  O16  1  0.42508100  0.52290800  0.90715200  1
  O  O17  1  0.88893600  0.44041900  0.71263100  1
  O  O18  1  0.56175700  0.08795800  0.71162500  1
  O  O19  1  0.08036400  0.87623800  0.06459600  1
  O  O20  1  0.38332900  0.91248600  0.96014500  1
  O  O21  1  0.82561000  0.62975900  0.56035700  1
  O  O22  1  0.72081400  0.99251900  0.89710900  1
  O  O23  1  0.19436600  0.27119200  0.48349800  1
  O  O24  1  0.15576000  0.46404400  0.04126600  1
  O  O25  1  0.91248600  0.38332900  0.46014500  1
  O  O26  1  0.87623800  0.08036400  0.56459600  1
  O  O27  1  0.34094400  0.06880700  0.36958600  1
  O  O28  1  0.44041900  0.88893600  0.21263100  1
  O  O29  1  0.76747200  0.74068400  0.72948800  1
loop_
_geom_bond_atom_site_label_1
_geom_bond_atom_site_label_2
_geom_bond_distance
_geom_bond_site_symmetry_2
K0 O16 2.663728 1_555
K0 O2 2.905027 1_655
K0 O7 2.907667 1_556
K0 O4 3.017281 1_556
K0 O19 3.061209 1_656
K0 O10 3.062222 1_655
K0 O29 3.181132 1_555
K0 O24 3.195243 1_656
K0 O17 3.338667 1_555
K1 O16 2.766947 1_555
K1 O6 2.814258 1_555
K1 O18 2.862946 1_565
K1 O2 3.098800 1_555
K1 O17 3.102905 1_455
K1 O10 3.117850 1_555
K1 O3 3.143277 1_555
K1 O29 3.231330 1_555
K1 O20 3.236637 1_555
K2 O14 2.663728 1_555
K2 O1 2.905027 1_565
K2 O6 2.907667 1_555
K2 O21 3.017281 1_555
K2 O26 3.061209 1_565
K2 O27 3.062222 1_565
K2 O9 3.181132 1_555
K2 O15 3.195243 1_565
K2 O28 3.338667 1_555
K3 O14 2.766947 1_555
K3 O7 2.814258 1_555
K3 O11 2.862946 1_655
K3 O1 3.098800 1_555
K3 O28 3.102905 1_545
K3 O27 3.117850 1_555
K3 O12 3.143277 1_555
K3 O9 3.231330 1_555
K3 O25 3.236637 1_555
Nd0 O22 2.358887 1_545
Nd0 O10 2.434935 1_655
Nd0 O8 2.448553 1_655
Nd0 O29 2.474664 1_545
Nd0 O26 2.490971 1_555
Nd0 O18 2.522180 1_555
Nd0 O17 2.581609 1_555
Nd0 O2 2.690331 1_645
Nd1 O13 2.358887 1_455
Nd1 O27 2.434935 1_565
Nd1 O0 2.448553 1_565
Nd1 O9 2.474664 1_455
Nd1 O19 2.490971 1_555
Nd1 O11 2.522180 1_555
Nd1 O28 2.581609 1_555
Nd1 O1 2.690331 1_465
O0 P6 1.498665 1_555
O1 P3 1.504474 1_555
O2 P7 1.504474 1_555
O3 P2 1.628446 1_555
O3 P5 1.631733 1_555
O4 P8 1.606747 1_555
O4 P9 1.634980 1_564
O5 P1 1.594616 1_555
O5 P7 1.598183 1_545
O6 P0 1.489712 1_555
O7 P9 1.489712 1_554
O8 P5 1.498665 1_555
O9 P8 1.504386 1_555
O10 P1 1.507830 1_555
O11 P6 1.502604 1_555
O12 P8 1.628446 1_555
O12 P6 1.631733 1_555
O13 P0 1.497197 1_655
O14 P4 1.486036 1_555
O15 P5 1.616611 1_555
O15 P4 1.633435 1_555
O16 P1 1.486036 1_555
O17 P2 1.502135 1_555
O18 P5 1.502604 1_555
O19 P7 1.506121 1_554
O20 P7 1.602400 1_555
O20 P9 1.620485 1_565
O21 P2 1.606747 1_555
O21 P0 1.634980 1_655
O22 P9 1.497197 1_565
O23 P4 1.594616 1_555
O23 P3 1.598183 1_455
O24 P6 1.616611 1_555
O24 P1 1.633435 1_554
O25 P3 1.602400 1_555
O25 P0 1.620485 1_655
O26 P3 1.506121 1_555
O27 P4 1.507830 1_555
O28 P8 1.502135 1_555
O29 P2 1.504386 1_555
