# generated using pymatgen
data_B12S
_symmetry_space_group_name_H-M   'P 1'
_cell_length_a   5.13414710
_cell_length_b   5.13414710
_cell_length_c   5.13414702
_cell_angle_alpha   68.73695781
_cell_angle_beta   68.73695781
_cell_angle_gamma   68.73696586
_symmetry_Int_Tables_number   1
_chemical_formula_structural   B12S
_chemical_formula_sum   'B12 S1'
_cell_volume   113.29615171
_cell_formula_units_Z   1
loop_
 _symmetry_equiv_pos_site_id
 _symmetry_equiv_pos_as_xyz
  1  'x, y, z'
loop_
 _atom_site_type_symbol
 _atom_site_label
 _atom_site_symmetry_multiplicity
 _atom_site_fract_x
 _atom_site_fract_y
 _atom_site_fract_z
 _atom_site_occupancy
  B  B0  1  0.18839600  0.18839600  0.71036700  1
  B  B1  1  0.99009500  0.67047100  0.99009500  1
  B  B2  1  0.81160400  0.81160400  0.28963300  1
  B  B3  1  0.67047100  0.99009500  0.99009500  1
  B  B4  1  0.81160400  0.28963300  0.81160400  1
  B  B5  1  0.32952900  0.00990500  0.00990500  1
  B  B6  1  0.28963300  0.81160400  0.81160400  1
  B  B7  1  0.71036700  0.18839600  0.18839600  1
  B  B8  1  0.18839600  0.71036700  0.18839600  1
  B  B9  1  0.00990500  0.32952900  0.00990500  1
  B  B10  1  0.00990500  0.00990500  0.32952900  1
  B  B11  1  0.99009500  0.99009500  0.67047100  1
  S  S0  1  0.50000000  0.50000000  0.50000000  1
loop_
_geom_bond_atom_site_label_1
_geom_bond_atom_site_label_2
_geom_bond_distance
_geom_bond_site_symmetry_2
B0 B6 1.737816 1_545
B0 B4 1.737816 1_455
B0 B9 1.741932 1_556
B0 B5 1.741932 1_556
B0 B11 1.780267 1_445
B0 S0 2.373866 1_555
B1 B9 1.683448 1_656
B1 B6 1.741932 1_655
B1 B2 1.741932 1_556
B1 B8 1.780267 1_656
B1 B11 1.852728 1_555
B1 B3 1.852728 1_555
B2 B7 1.737816 1_565
B2 B8 1.737816 1_655
B2 B3 1.741932 1_554
B2 S0 2.373866 1_555
B3 B5 1.683448 1_566
B3 B4 1.741932 1_565
B3 B7 1.780267 1_566
B4 B7 1.737816 1_556
B4 B9 1.780267 1_656
B4 S0 2.373866 1_555
B5 B8 1.741932 1_545
B5 B6 1.780267 1_544
B5 B9 1.852728 1_555
B6 B8 1.737816 1_556
B6 S0 2.373866 1_555
B7 B9 1.741932 1_655
B7 S0 2.373866 1_555
B8 S0 2.373866 1_555
B10 B11 1.683448 1_445
B10 B7 1.741932 1_455
B10 B8 1.741932 1_545
B10 B2 1.780267 1_445
B10 B9 1.852728 1_555
B10 B5 1.852728 1_555
B11 B4 1.741932 1_565
B11 B6 1.741932 1_655
B11 B3 1.852728 1_555
