# generated using pymatgen
data_Na11(WO3)16
_symmetry_space_group_name_H-M   'P 1'
_cell_length_a   6.73040135
_cell_length_b   13.45720102
_cell_length_c   12.88617506
_cell_angle_alpha   79.93902721
_cell_angle_beta   121.45249028
_cell_angle_gamma   109.54480178
_symmetry_Int_Tables_number   1
_chemical_formula_structural   Na11(WO3)16
_chemical_formula_sum   'Na11 W16 O48'
_cell_volume   938.27929309
_cell_formula_units_Z   1
loop_
 _symmetry_equiv_pos_site_id
 _symmetry_equiv_pos_as_xyz
  1  'x, y, z'
loop_
 _atom_site_type_symbol
 _atom_site_label
 _atom_site_symmetry_multiplicity
 _atom_site_fract_x
 _atom_site_fract_y
 _atom_site_fract_z
 _atom_site_occupancy
  Na  Na0  1  0.49838100  0.62379200  0.75007900  1
  Na  Na1  1  0.49799300  0.87514100  0.25006400  1
  Na  Na2  1  0.99884800  0.87576800  0.74997500  1
  Na  Na3  1  0.00146600  0.49922600  0.00138500  1
  Na  Na4  1  0.49898300  0.49926200  0.49879600  1
  Na  Na5  1  0.00296000  0.12565500  0.25006000  1
  Na  Na6  1  0.50281000  0.12563800  0.74988900  1
  Na  Na7  1  0.50334100  0.75066100  0.00120600  1
  Na  Na8  1  0.00050900  0.75029800  0.49861700  1
  Na  Na9  1  0.49773400  0.24962300  0.00042400  1
  Na  Na10  1  0.99695600  0.24997400  0.49944300  1
  W  W0  1  0.99949100  0.00058000  0.49972000  1
  W  W1  1  0.00055200  0.62331700  0.74982800  1
  W  W2  1  0.00202800  0.87544000  0.25023300  1
  W  W3  1  0.50307100  0.87672200  0.74951800  1
  W  W4  1  0.99642300  0.49891000  0.49760300  1
  W  W5  1  0.99674700  0.12546600  0.74966900  1
  W  W6  1  0.49541000  0.75005000  0.49774900  1
  W  W7  1  0.00062300  0.75061200  0.00219900  1
  W  W8  1  0.00096700  0.37589600  0.25026900  1
  W  W9  1  0.49864500  0.37443300  0.74999400  1
  W  W10  1  0.50092500  0.62344900  0.25015200  1
  W  W11  1  0.50298900  0.25057900  0.49983000  1
  W  W12  1  0.00308400  0.24983300  0.00022800  1
  W  W13  1  0.50142900  0.49864900  0.00248800  1
  W  W14  1  0.49730300  0.12538200  0.25031900  1
  W  W15  1  0.50028000  0.00062900  0.00019200  1
  O  O0  1  0.01546500  0.69539600  0.87468700  1
  O  O1  1  0.48040100  0.92975400  0.87342100  1
  O  O2  1  0.23455200  0.74977700  0.73419900  1
  O  O3  1  0.00925500  0.94440000  0.37376600  1
  O  O4  1  0.26229600  0.94447400  0.62657100  1
  O  O5  1  0.26729700  0.57139300  0.87564600  1
  O  O6  1  0.01419800  0.19432900  0.87508200  1
  O  O7  1  0.23649400  0.63258300  0.50196200  1
  O  O8  1  0.73314000  0.80369900  0.87378400  1
  O  O9  1  0.49029500  0.43034200  0.87654500  1
  O  O10  1  0.76278400  0.00008900  0.76314300  1
  O  O11  1  0.23680900  0.24902100  0.73484500  1
  O  O12  1  0.26388100  0.81906800  0.37423900  1
  O  O13  1  0.51562400  0.81813300  0.62624500  1
  O  O14  1  0.01842800  0.44374600  0.37694800  1
  O  O15  1  0.26735800  0.44581600  0.62427600  1
  O  O16  1  0.26639400  0.07030400  0.87362200  1
  O  O17  1  0.23804800  0.88107800  0.00026600  1
  O  O18  1  0.23374600  0.13322500  0.49995800  1
  O  O19  1  0.48991200  0.68043400  0.37634700  1
  O  O20  1  0.73427500  0.67947000  0.62536000  1
  O  O21  1  0.73274700  0.30414000  0.87545300  1
  O  O22  1  0.23594200  0.50002000  0.23561500  1
  O  O23  1  0.76337900  0.50122400  0.76551600  1
  O  O24  1  0.26694100  0.69571800  0.12436500  1
  O  O25  1  0.51032100  0.31950600  0.62409900  1
  O  O26  1  0.26303700  0.31956700  0.37641800  1
  O  O27  1  0.76586100  0.86654700  0.49971300  1
  O  O28  1  0.23624800  0.38209900  0.00038300  1
  O  O29  1  0.73287500  0.92985100  0.12604200  1
  O  O30  1  0.73549200  0.55591500  0.37675300  1
  O  O31  1  0.98435500  0.55646700  0.62380400  1
  O  O32  1  0.48489400  0.18105800  0.37450300  1
  O  O33  1  0.73617200  0.18112100  0.62557000  1
  O  O34  1  0.76259100  0.75110500  0.26475300  1
  O  O35  1  0.23688800  0.00001400  0.23718600  1
  O  O36  1  0.50985400  0.57028900  0.12289700  1
  O  O37  1  0.26375400  0.19424000  0.12486400  1
  O  O38  1  0.76482300  0.36773800  0.49965200  1
  O  O39  1  0.98583600  0.80572200  0.12492000  1
  O  O40  1  0.73634800  0.42941800  0.12330900  1
  O  O41  1  0.73785500  0.05575800  0.37373900  1
  O  O42  1  0.99053200  0.05572100  0.62641300  1
  O  O43  1  0.76699500  0.24890100  0.26484600  1
  O  O44  1  0.51896700  0.07033100  0.12617300  1
  O  O45  1  0.76307800  0.61776500  0.99796000  1
  O  O46  1  0.98177700  0.30442800  0.12414800  1
  O  O47  1  0.76183600  0.11881900  0.00006400  1
loop_
_geom_bond_atom_site_label_1
_geom_bond_atom_site_label_2
_geom_bond_distance
_geom_bond_site_symmetry_2
Na0 O15 2.648841 1_555
Na0 O5 2.651065 1_555
Na0 O8 2.656978 1_555
Na0 O20 2.666674 1_555
Na0 O23 2.724818 1_555
Na0 O45 2.729670 1_555
Na0 O7 2.733052 1_555
Na0 O2 2.753755 1_555
Na0 O13 2.816319 1_555
Na0 O9 2.819819 1_555
Na0 O31 2.824986 1_455
Na0 O0 2.843167 1_655
Na1 O12 2.650727 1_555
Na1 O29 2.653678 1_555
Na1 O41 2.664005 1_565
Na1 O24 2.664104 1_555
Na1 O35 2.741129 1_565
Na1 O34 2.742288 1_555
Na1 O17 2.748711 1_555
Na1 O27 2.751328 1_555
Na1 O3 2.810555 1_655
Na1 O39 2.815314 1_455
Na1 O44 2.826696 1_565
Na1 O19 2.832637 1_555
Na2 O1 2.647755 1_655
Na2 O42 2.655804 1_565
Na2 O13 2.655922 1_555
Na2 O0 2.667977 1_655
Na2 O10 2.740638 1_565
Na2 O17 2.753953 1_656
Na2 O27 2.758020 1_555
Na2 O2 2.772946 1_655
Na2 O4 2.803467 1_655
Na2 O16 2.818473 1_665
Na2 O8 2.821431 1_555
Na2 O20 2.842244 1_555
Na3 O22 2.574877 1_555
Na3 O28 2.583877 1_555
Na3 O23 2.593117 1_454
Na3 O45 2.595159 1_454
Na3 O36 2.795830 1_555
Na3 O40 2.797010 1_455
Na3 O9 2.809786 1_454
Na3 O46 2.815930 1_455
Na3 O24 2.836167 1_555
Na3 O21 2.836447 1_454
Na3 O5 2.842972 1_554
Na3 O0 2.851616 1_554
Na4 O30 2.640061 1_555
Na4 O14 2.641552 1_555
Na4 O26 2.646869 1_555
Na4 O15 2.652575 1_555
Na4 O19 2.663195 1_555
Na4 O25 2.663616 1_555
Na4 O31 2.667989 1_555
Na4 O20 2.676909 1_555
Na4 O22 2.893127 1_555
Na4 O38 2.902680 1_555
Na4 O7 2.926289 1_555
Na4 O23 2.932211 1_555
Na5 O32 2.649512 1_555
Na5 O46 2.658000 1_455
Na5 O44 2.660753 1_455
Na5 O3 2.670709 1_545
Na5 O43 2.738218 1_455
Na5 O35 2.741673 1_555
Na5 O47 2.750985 1_455
Na5 O18 2.753500 1_555
Na5 O37 2.808282 1_555
Na5 O41 2.815898 1_455
Na5 O26 2.824670 1_555
Na5 O29 2.834828 1_445
Na6 O33 2.648387 1_555
Na6 O21 2.653453 1_555
Na6 O16 2.658683 1_555
Na6 O4 2.667930 1_545
Na6 O10 2.740539 1_555
Na6 O11 2.741148 1_555
Na6 O47 2.753015 1_556
Na6 O18 2.754043 1_555
Na6 O6 2.810887 1_655
Na6 O42 2.816384 1_455
Na6 O25 2.820677 1_555
Na6 O1 2.832654 1_545
Na7 O36 2.649964 1_555
Na7 O24 2.652347 1_555
Na7 O39 2.652577 1_555
Na7 O29 2.656792 1_555
Na7 O5 2.660569 1_554
Na7 O8 2.664542 1_554
Na7 O1 2.672250 1_554
Na7 O0 2.682563 1_554
Na7 O17 2.887068 1_555
Na7 O34 2.897286 1_555
Na7 O45 2.906956 1_554
Na7 O2 2.935207 1_554
Na8 O34 2.571055 1_455
Na8 O7 2.573328 1_555
Na8 O27 2.574035 1_455
Na8 O2 2.589733 1_555
Na8 O30 2.807225 1_455
Na8 O19 2.807375 1_455
Na8 O12 2.813612 1_555
Na8 O31 2.818002 1_455
Na8 O3 2.818232 1_555
Na8 O13 2.830974 1_555
Na8 O4 2.836244 1_555
Na8 O20 2.855545 1_455
Na9 O40 2.650602 1_555
Na9 O37 2.653155 1_555
Na9 O6 2.658514 1_554
Na9 O46 2.661192 1_555
Na9 O44 2.662830 1_555
Na9 O21 2.665052 1_554
Na9 O9 2.665876 1_554
Na9 O16 2.669479 1_554
Na9 O47 2.891889 1_555
Na9 O28 2.893690 1_555
Na9 O43 2.907007 1_555
Na9 O11 2.919660 1_554
Na10 O38 2.571958 1_555
Na10 O43 2.579159 1_555
Na10 O18 2.582427 1_655
Na10 O11 2.588012 1_655
Na10 O14 2.803574 1_655
Na10 O26 2.814121 1_655
Na10 O32 2.814673 1_555
Na10 O33 2.818419 1_555
Na10 O25 2.822039 1_655
Na10 O41 2.824470 1_555
Na10 O42 2.831295 1_555
Na10 O15 2.839445 1_655
O0 W1 1.962469 1_555
O0 W7 1.977262 1_556
O1 W3 1.951165 1_555
O1 W15 1.956306 1_566
O2 W1 1.958318 1_555
O2 W3 1.975670 1_555
O3 W0 1.945127 1_465
O3 W2 1.950064 1_555
O4 W3 1.942162 1_555
O4 W0 1.953380 1_465
O5 W1 1.935442 1_555
O5 W13 1.974397 1_556
O6 W5 1.933051 1_455
O6 W12 1.936046 1_556
O7 W6 1.940132 1_555
O7 W4 1.961031 1_455
O8 W3 1.951481 1_555
O8 W7 1.956586 1_656
O9 W9 1.944537 1_555
O9 W13 1.957726 1_556
O10 W3 1.918940 1_545
O10 W5 1.939528 1_555
O11 W9 1.938586 1_555
O11 W5 1.955825 1_455
O12 W6 1.920334 1_555
O12 W2 1.940873 1_555
O13 W3 1.942780 1_555
O13 W6 1.952243 1_555
O14 W4 1.925487 1_455
O14 W8 1.939340 1_555
O15 W9 1.948203 1_555
O15 W4 1.964213 1_455
O16 W15 1.947090 1_556
O16 W5 1.964167 1_455
O17 W7 1.945691 1_555
O17 W15 1.950552 1_565
O18 W0 1.945748 1_455
O18 W11 1.966018 1_555
O19 W6 1.937747 1_555
O19 W10 1.958960 1_555
O20 W1 1.959156 1_655
O20 W6 1.976840 1_555
O21 W9 1.948242 1_555
O21 W12 1.963668 1_656
O22 W10 1.937196 1_555
O22 W8 1.939276 1_555
O23 W1 1.937621 1_655
O23 W9 1.959386 1_555
O24 W7 1.942082 1_555
O24 W10 1.965527 1_555
O25 W9 1.943012 1_555
O25 W11 1.957810 1_555
O26 W8 1.949380 1_555
O26 W11 1.950950 1_555
O27 W0 1.956560 1_565
O27 W6 1.956563 1_555
O28 W13 1.933264 1_555
O28 W12 1.939041 1_555
O29 W15 1.948443 1_565
O29 W2 1.957422 1_655
O30 W4 1.930730 1_555
O30 W10 1.932353 1_555
O31 W1 1.928351 1_655
O31 W4 1.967551 1_555
O32 W14 1.931170 1_555
O32 W11 1.935120 1_555
O33 W5 1.930691 1_555
O33 W11 1.939262 1_555
O34 W10 1.957284 1_555
O34 W2 1.957738 1_655
O35 W2 1.934709 1_545
O35 W14 1.938721 1_555
O36 W13 1.932460 1_555
O36 W10 1.935436 1_555
O37 W12 1.932615 1_555
O37 W14 1.934483 1_555
O38 W4 1.931849 1_555
O38 W11 1.932678 1_555
O39 W7 1.919415 1_655
O39 W2 1.943447 1_655
O40 W13 1.923986 1_555
O40 W8 1.942453 1_655
O41 W0 1.938574 1_555
O41 W14 1.958487 1_555
O42 W0 1.943077 1_555
O42 W5 1.957194 1_555
O43 W14 1.956557 1_555
O43 W8 1.957446 1_655
O44 W15 1.941944 1_555
O44 W14 1.964467 1_555
O45 W7 1.945687 1_656
O45 W13 1.964656 1_556
O46 W8 1.956259 1_655
O46 W12 1.956954 1_655
O47 W15 1.938397 1_555
O47 W12 1.956315 1_655
