# generated using pymatgen
data_La7Mn8O24
_symmetry_space_group_name_H-M   'P 1'
_cell_length_a   7.85038200
_cell_length_b   9.51544521
_cell_length_c   14.67881101
_cell_angle_alpha   90.56293792
_cell_angle_beta   105.36471459
_cell_angle_gamma   113.56831041
_symmetry_Int_Tables_number   1
_chemical_formula_structural   La7Mn8O24
_chemical_formula_sum   'La14 Mn16 O48'
_cell_volume   960.76835908
_cell_formula_units_Z   2
loop_
 _symmetry_equiv_pos_site_id
 _symmetry_equiv_pos_as_xyz
  1  'x, y, z'
loop_
 _atom_site_type_symbol
 _atom_site_label
 _atom_site_symmetry_multiplicity
 _atom_site_fract_x
 _atom_site_fract_y
 _atom_site_fract_z
 _atom_site_occupancy
  La  La0  1  0.87720600  0.38043600  0.87634200  1
  La  La1  1  0.12281000  0.11837200  0.62828800  1
  La  La2  1  0.37290800  0.37386700  0.87567200  1
  La  La3  1  0.49969400  0.75088900  0.74862400  1
  La  La4  1  0.37947200  0.87634500  0.37368800  1
  La  La5  1  0.62052800  0.12365500  0.62631200  1
  La  La6  1  0.74824500  0.50242200  0.50098000  1
  La  La7  1  0.62709200  0.62613300  0.12432800  1
  La  La8  1  0.87719000  0.88162800  0.37171200  1
  La  La9  1  0.25175500  0.49757800  0.49902000  1
  La  La10  1  0.12279400  0.61956400  0.12365800  1
  La  La11  1  0.24356300  0.99294600  0.99606300  1
  La  La12  1  0.50030600  0.24911100  0.25137600  1
  La  La13  1  0.75643700  0.00705400  0.00393700  1
  Mn  Mn0  1  0.81268400  0.68943200  0.93520700  1
  Mn  Mn1  1  0.93675100  0.05943300  0.81241200  1
  Mn  Mn2  1  0.06065700  0.44006100  0.68795100  1
  Mn  Mn3  1  0.43332600  0.05987400  0.81256900  1
  Mn  Mn4  1  0.18450800  0.81049500  0.56353800  1
  Mn  Mn5  1  0.31016700  0.18784700  0.43587300  1
  Mn  Mn6  1  0.56646300  0.44055800  0.68824400  1
  Mn  Mn7  1  0.68983300  0.81215300  0.56412700  1
  Mn  Mn8  1  0.43353700  0.55944200  0.31175600  1
  Mn  Mn9  1  0.56667400  0.94012600  0.18743100  1
  Mn  Mn10  1  0.81549200  0.18950500  0.43646200  1
  Mn  Mn11  1  0.93934300  0.55993900  0.31204900  1
  Mn  Mn12  1  0.69006200  0.31206900  0.06506300  1
  Mn  Mn13  1  0.06324900  0.94056700  0.18758800  1
  Mn  Mn14  1  0.18731600  0.31056800  0.06479300  1
  Mn  Mn15  1  0.30993800  0.68793100  0.93493700  1
  O  O0  1  0.04198100  0.26577600  0.76623100  1
  O  O1  1  0.20430200  0.07248000  0.83637300  1
  O  O2  1  0.05649600  0.68500000  0.92897500  1
  O  O3  1  0.42579900  0.89386800  0.89329100  1
  O  O4  1  0.30331600  0.92887400  0.69115200  1
  O  O5  1  0.24111800  0.57663800  0.80808900  1
  O  O6  1  0.28835300  0.01292100  0.51406600  1
  O  O7  1  0.64646100  0.53887700  0.82072400  1
  O  O8  1  0.44231400  0.80528000  0.58031900  1
  O  O9  1  0.60178400  0.21231500  0.93183800  1
  O  O10  1  0.30100800  0.43696000  0.66545200  1
  O  O11  1  0.45563500  0.23686300  0.73848800  1
  O  O12  1  0.63545300  0.62966500  0.62947700  1
  O  O13  1  0.80783500  0.41215100  0.70618500  1
  O  O14  1  0.52728800  0.67126100  0.44253200  1
  O  O15  1  0.68423200  0.07588400  0.79477800  1
  O  O16  1  0.47271200  0.32873900  0.55746800  1
  O  O17  1  0.82113000  0.86858700  0.86790600  1
  O  O18  1  0.54436500  0.76313700  0.26151200  1
  O  O19  1  0.90378700  0.28725600  0.57320200  1
  O  O20  1  0.69899200  0.56304000  0.33454800  1
  O  O21  1  0.83350200  0.96985300  0.67697700  1
  O  O22  1  0.55768600  0.19472000  0.41968100  1
  O  O23  1  0.71164700  0.98707900  0.48593400  1
  O  O24  1  0.90941900  0.39817300  0.39894500  1
  O  O25  1  0.07152500  0.17946700  0.46244900  1
  O  O26  1  0.75888200  0.42336200  0.19191100  1
  O  O27  1  0.92847500  0.82053300  0.53755100  1
  O  O28  1  0.69668400  0.07112600  0.30884800  1
  O  O29  1  0.09058100  0.60182700  0.60105500  1
  O  O30  1  0.78494800  0.51518900  0.01582700  1
  O  O31  1  0.16649800  0.03014700  0.32302300  1
  O  O32  1  0.94350400  0.31500000  0.07102500  1
  O  O33  1  0.09621300  0.71274400  0.42679800  1
  O  O34  1  0.79569800  0.92752000  0.16362700  1
  O  O35  1  0.95801900  0.73422400  0.23376900  1
  O  O36  1  0.17887000  0.13141300  0.13209400  1
  O  O37  1  0.31576800  0.92411600  0.20522200  1
  O  O38  1  0.02943300  0.16611500  0.94518400  1
  O  O39  1  0.19216500  0.58784900  0.29381500  1
  O  O40  1  0.97056700  0.83388500  0.05481600  1
  O  O41  1  0.36454700  0.37033500  0.37052300  1
  O  O42  1  0.39821600  0.78768500  0.06816200  1
  O  O43  1  0.35353900  0.46112300  0.17927600  1
  O  O44  1  0.21505200  0.48481100  0.98417300  1
  O  O45  1  0.57094300  0.68307900  0.95971500  1
  O  O46  1  0.42905700  0.31692100  0.04028500  1
  O  O47  1  0.57420100  0.10613200  0.10670900  1
loop_
_geom_bond_atom_site_label_1
_geom_bond_atom_site_label_2
_geom_bond_distance
_geom_bond_site_symmetry_2
La0 O13 2.459998 1_555
La0 O9 2.467933 1_555
La0 O44 2.482748 1_655
La0 O2 2.663557 1_655
La0 O15 2.754351 1_555
La0 O7 2.764998 1_555
La0 O0 2.770912 1_655
La0 O30 2.799592 1_556
La0 O38 2.820945 1_655
La0 O32 2.886356 1_556
La0 O11 3.113689 1_555
La0 O5 3.152641 1_655
La1 O21 2.445308 1_445
La1 O11 2.466428 1_555
La1 O25 2.474182 1_555
La1 O4 2.737510 1_545
La1 O27 2.743151 1_445
La1 O10 2.759777 1_555
La1 O6 2.769706 1_555
La1 O19 2.773278 1_455
La1 O0 2.794053 1_555
La1 O1 3.023852 1_555
La1 O23 3.081481 1_445
La1 O16 3.128884 1_555
La2 O7 2.444173 1_555
La2 O46 2.445168 1_556
La2 O0 2.450888 1_555
La2 O1 2.614676 1_555
La2 O5 2.620573 1_555
La2 O44 2.691797 1_555
La2 O11 2.737654 1_555
La2 O9 2.778464 1_555
La2 O45 2.801838 1_555
La2 O30 3.073210 1_556
La2 O38 3.074844 1_555
La2 O10 3.096039 1_555
La3 O5 2.430546 1_555
La3 O17 2.459203 1_555
La3 O8 2.489188 1_555
La3 O4 2.717252 1_555
La3 O12 2.730639 1_555
La3 O7 2.787831 1_555
La3 O3 2.814977 1_555
La3 O15 2.824392 1_565
La3 O10 2.835463 1_555
La3 O21 3.074346 1_555
La3 O29 3.103064 1_555
La3 O45 3.120860 1_555
La4 O23 2.473220 1_555
La4 O37 2.473943 1_555
La4 O33 2.479967 1_555
La4 O31 2.609489 1_565
La4 O39 2.620670 1_555
La4 O14 2.721067 1_555
La4 O22 2.767812 1_565
La4 O18 2.785172 1_555
La4 O6 2.813977 1_565
La4 O28 2.853433 1_565
La4 O8 3.068299 1_555
La4 O35 3.124119 1_455
La5 O6 2.473220 1_555
La5 O15 2.473943 1_555
La5 O19 2.479967 1_555
La5 O21 2.609489 1_545
La5 O13 2.620670 1_555
La5 O16 2.721067 1_555
La5 O8 2.767812 1_545
La5 O11 2.785172 1_555
La5 O23 2.813977 1_545
La5 O4 2.853433 1_545
La5 O22 3.068299 1_555
La5 O0 3.124119 1_655
La6 O29 2.474450 1_655
La6 O20 2.481137 1_555
La6 O16 2.493243 1_555
La6 O24 2.609015 1_555
La6 O12 2.739564 1_555
La6 O27 2.755591 1_555
La6 O22 2.778021 1_555
La6 O14 2.791591 1_555
La6 O19 2.857029 1_555
La6 O41 2.861546 1_555
La6 O13 3.107293 1_555
La6 O33 3.146476 1_655
La7 O43 2.444173 1_555
La7 O45 2.445168 1_554
La7 O35 2.450888 1_555
La7 O34 2.614676 1_555
La7 O26 2.620573 1_555
La7 O30 2.691797 1_555
La7 O18 2.737654 1_555
La7 O42 2.778464 1_555
La7 O46 2.801838 1_555
La7 O44 3.073210 1_554
La7 O40 3.074844 1_555
La7 O20 3.096039 1_555
La8 O31 2.445308 1_665
La8 O18 2.466428 1_555
La8 O27 2.474182 1_555
La8 O28 2.737510 1_565
La8 O25 2.743151 1_665
La8 O20 2.759777 1_555
La8 O23 2.769706 1_555
La8 O33 2.773278 1_655
La8 O35 2.794053 1_555
La8 O34 3.023852 1_555
La8 O6 3.081481 1_665
La8 O14 3.128884 1_555
La9 O24 2.474450 1_455
La9 O10 2.481137 1_555
La9 O14 2.493243 1_555
La9 O29 2.609015 1_555
La9 O41 2.739564 1_555
La9 O25 2.755591 1_555
La9 O8 2.778021 1_555
La9 O16 2.791591 1_555
La9 O33 2.857029 1_555
La9 O12 2.861546 1_555
La9 O39 3.107293 1_555
La9 O19 3.146476 1_455
La10 O39 2.459998 1_555
La10 O42 2.467933 1_555
La10 O30 2.482748 1_455
La10 O32 2.663557 1_455
La10 O37 2.754351 1_555
La10 O43 2.764998 1_555
La10 O35 2.770912 1_455
La10 O44 2.799592 1_554
La10 O40 2.820945 1_455
La10 O2 2.886356 1_554
La10 O18 3.113689 1_555
La10 O26 3.152641 1_455
La11 O1 2.449672 1_565
La11 O47 2.455855 1_566
La11 O40 2.457379 1_456
La11 O36 2.646099 1_566
La11 O3 2.721322 1_555
La11 O2 2.729187 1_555
La11 O42 2.768548 1_556
La11 O38 2.769960 1_565
La11 O46 2.813399 1_566
La11 O17 3.073907 1_455
La11 O37 3.096867 1_556
La11 O9 3.147006 1_565
La12 O26 2.430546 1_555
La12 O36 2.459203 1_555
La12 O22 2.489188 1_555
La12 O28 2.717252 1_555
La12 O41 2.730639 1_555
La12 O43 2.787831 1_555
La12 O47 2.814977 1_555
La12 O37 2.824392 1_545
La12 O20 2.835463 1_555
La12 O31 3.074346 1_555
La12 O24 3.103064 1_555
La12 O46 3.120860 1_555
La13 O34 2.449672 1_545
La13 O3 2.455855 1_544
La13 O38 2.457379 1_654
La13 O17 2.646099 1_544
La13 O47 2.721322 1_555
La13 O32 2.729187 1_555
La13 O9 2.768548 1_554
La13 O40 2.769960 1_545
La13 O45 2.813399 1_544
La13 O36 3.073907 1_655
La13 O15 3.096867 1_554
La13 O42 3.147006 1_545
Mn0 O2 1.957260 1_655
Mn0 O17 1.965678 1_555
Mn0 O7 1.968457 1_555
Mn0 O40 1.986234 1_556
Mn0 O45 2.001259 1_555
Mn0 O30 2.020700 1_556
Mn1 O17 1.971792 1_545
Mn1 O21 1.973851 1_545
Mn1 O1 1.987422 1_655
Mn1 O38 1.994305 1_655
Mn1 O15 1.999583 1_555
Mn1 O0 2.005718 1_655
Mn2 O19 1.971949 1_455
Mn2 O13 1.985646 1_455
Mn2 O29 1.989908 1_555
Mn2 O5 1.991119 1_555
Mn2 O0 2.006090 1_555
Mn2 O10 2.011141 1_555
Mn3 O4 1.935706 1_545
Mn3 O1 1.968138 1_555
Mn3 O3 1.975330 1_545
Mn3 O11 1.987584 1_555
Mn3 O15 2.001141 1_555
Mn3 O9 2.026618 1_555
Mn4 O4 1.959654 1_555
Mn4 O29 1.963500 1_555
Mn4 O27 1.985573 1_455
Mn4 O8 1.993886 1_555
Mn4 O6 1.996892 1_565
Mn4 O33 2.021104 1_555
Mn5 O41 1.942843 1_555
Mn5 O31 1.968629 1_555
Mn5 O25 1.984117 1_555
Mn5 O22 1.994969 1_555
Mn5 O16 1.997345 1_555
Mn5 O6 2.007744 1_555
Mn6 O12 1.942721 1_555
Mn6 O13 1.969637 1_555
Mn6 O7 1.974472 1_555
Mn6 O16 1.985885 1_555
Mn6 O10 2.007261 1_555
Mn6 O11 2.019231 1_555
Mn7 O12 1.942843 1_555
Mn7 O21 1.968629 1_555
Mn7 O27 1.984117 1_555
Mn7 O8 1.994969 1_555
Mn7 O14 1.997345 1_555
Mn7 O23 2.007744 1_555
Mn8 O41 1.942721 1_555
Mn8 O39 1.969637 1_555
Mn8 O43 1.974472 1_555
Mn8 O14 1.985885 1_555
Mn8 O20 2.007261 1_555
Mn8 O18 2.019231 1_555
Mn9 O28 1.935706 1_565
Mn9 O34 1.968138 1_555
Mn9 O47 1.975330 1_565
Mn9 O18 1.987584 1_555
Mn9 O37 2.001141 1_555
Mn9 O42 2.026618 1_555
Mn10 O28 1.959654 1_555
Mn10 O24 1.963500 1_555
Mn10 O25 1.985573 1_655
Mn10 O22 1.993886 1_555
Mn10 O23 1.996892 1_545
Mn10 O19 2.021104 1_555
Mn11 O33 1.971949 1_655
Mn11 O39 1.985646 1_655
Mn11 O24 1.989908 1_555
Mn11 O26 1.991119 1_555
Mn11 O35 2.006090 1_555
Mn11 O20 2.011141 1_555
Mn12 O32 1.957120 1_555
Mn12 O26 1.962389 1_555
Mn12 O9 1.981129 1_554
Mn12 O47 1.983389 1_555
Mn12 O30 1.993551 1_555
Mn12 O46 2.003455 1_555
Mn13 O36 1.971792 1_565
Mn13 O31 1.973851 1_565
Mn13 O34 1.987422 1_455
Mn13 O40 1.994305 1_455
Mn13 O37 1.999583 1_555
Mn13 O35 2.005718 1_455
Mn14 O32 1.957260 1_455
Mn14 O36 1.965678 1_555
Mn14 O43 1.968457 1_555
Mn14 O38 1.986234 1_554
Mn14 O46 2.001259 1_555
Mn14 O44 2.020700 1_554
Mn15 O2 1.957120 1_555
Mn15 O5 1.962389 1_555
Mn15 O42 1.981129 1_556
Mn15 O3 1.983389 1_555
Mn15 O44 1.993551 1_555
Mn15 O45 2.003455 1_555
