# generated using pymatgen
data_TlCu2P2O7
_symmetry_space_group_name_H-M   'P 1'
_cell_length_a   8.98774700
_cell_length_b   9.39046400
_cell_length_c   16.70623200
_cell_angle_alpha   90.00000000
_cell_angle_beta   90.00000000
_cell_angle_gamma   90.00000000
_symmetry_Int_Tables_number   1
_chemical_formula_structural   TlCu2P2O7
_chemical_formula_sum   'Tl8 Cu16 P16 O56'
_cell_volume   1409.99118985
_cell_formula_units_Z   8
loop_
 _symmetry_equiv_pos_site_id
 _symmetry_equiv_pos_as_xyz
  1  'x, y, z'
loop_
 _atom_site_type_symbol
 _atom_site_label
 _atom_site_symmetry_multiplicity
 _atom_site_fract_x
 _atom_site_fract_y
 _atom_site_fract_z
 _atom_site_occupancy
  Tl  Tl0  1  0.70789700  0.50147900  0.66748500  1
  Tl  Tl1  1  0.70789700  0.99852100  0.16748500  1
  Tl  Tl2  1  0.20789700  0.50147900  0.83251500  1
  Tl  Tl3  1  0.79210300  0.00147900  0.66748500  1
  Tl  Tl4  1  0.29210300  0.00147900  0.83251500  1
  Tl  Tl5  1  0.29210300  0.49852100  0.33251500  1
  Tl  Tl6  1  0.20789700  0.99852100  0.33251500  1
  Tl  Tl7  1  0.79210300  0.49852100  0.16748500  1
  Cu  Cu0  1  0.04646900  0.75857600  0.68243900  1
  Cu  Cu1  1  0.95353100  0.25857600  0.81756100  1
  Cu  Cu2  1  0.72178500  0.02109300  0.93325000  1
  Cu  Cu3  1  0.22178500  0.47890700  0.06675000  1
  Cu  Cu4  1  0.27821500  0.52109300  0.56675000  1
  Cu  Cu5  1  0.54646900  0.75857600  0.81756100  1
  Cu  Cu6  1  0.04646900  0.74142400  0.18243900  1
  Cu  Cu7  1  0.95353100  0.24142400  0.31756100  1
  Cu  Cu8  1  0.77821500  0.52109300  0.93325000  1
  Cu  Cu9  1  0.54646900  0.74142400  0.31756100  1
  Cu  Cu10  1  0.45353100  0.24142400  0.18243900  1
  Cu  Cu11  1  0.77821500  0.97890700  0.43325000  1
  Cu  Cu12  1  0.45353100  0.25857600  0.68243900  1
  Cu  Cu13  1  0.27821500  0.97890700  0.06675000  1
  Cu  Cu14  1  0.22178500  0.02109300  0.56675000  1
  Cu  Cu15  1  0.72178500  0.47890700  0.43325000  1
  P  P0  1  0.92526400  0.71078400  0.51769400  1
  P  P1  1  0.92410800  0.71484100  0.34973800  1
  P  P2  1  0.42410800  0.71484100  0.15026200  1
  P  P3  1  0.07589200  0.21484100  0.15026200  1
  P  P4  1  0.57473600  0.21078400  0.51769400  1
  P  P5  1  0.07473600  0.21078400  0.98230600  1
  P  P6  1  0.42526400  0.78921600  0.48230600  1
  P  P7  1  0.92526400  0.78921600  0.01769400  1
  P  P8  1  0.57473600  0.28921600  0.01769400  1
  P  P9  1  0.57589200  0.21484100  0.34973800  1
  P  P10  1  0.92410800  0.78515900  0.84973800  1
  P  P11  1  0.42410800  0.78515900  0.65026200  1
  P  P12  1  0.57589200  0.28515900  0.84973800  1
  P  P13  1  0.42526400  0.71078400  0.98230600  1
  P  P14  1  0.07473600  0.28921600  0.48230600  1
  P  P15  1  0.07589200  0.28515900  0.65026200  1
  O  O0  1  0.45523200  0.17989000  0.58121000  1
  O  O1  1  0.37879800  0.62751700  0.65341800  1
  O  O2  1  0.62725200  0.36636500  0.52049300  1
  O  O3  1  0.12120200  0.37248300  0.15341800  1
  O  O4  1  0.01228400  0.68753600  0.43322600  1
  O  O5  1  0.51228400  0.68753600  0.06677400  1
  O  O6  1  0.04476800  0.82011000  0.08121000  1
  O  O7  1  0.79879800  0.60089400  0.51968700  1
  O  O8  1  0.79879800  0.89910600  0.01968700  1
  O  O9  1  0.62725200  0.13363500  0.02049300  1
  O  O10  1  0.95390600  0.18046400  0.21241300  1
  O  O11  1  0.70828300  0.38849200  0.84671300  1
  O  O12  1  0.87274800  0.86636500  0.52049300  1
  O  O13  1  0.29879800  0.60089400  0.98031300  1
  O  O14  1  0.54609400  0.68046400  0.21241300  1
  O  O15  1  0.45523200  0.32011000  0.08121000  1
  O  O16  1  0.95390600  0.31953600  0.71241300  1
  O  O17  1  0.20120200  0.10089400  0.98031300  1
  O  O18  1  0.20120200  0.39910600  0.48031300  1
  O  O19  1  0.70828300  0.11150800  0.34671300  1
  O  O20  1  0.45390600  0.18046400  0.28758700  1
  O  O21  1  0.98771600  0.31246400  0.56677400  1
  O  O22  1  0.62120200  0.37248300  0.34658200  1
  O  O23  1  0.62120200  0.12751700  0.84658200  1
  O  O24  1  0.54476800  0.82011000  0.41879000  1
  O  O25  1  0.37274800  0.86636500  0.97950700  1
  O  O26  1  0.12725200  0.13363500  0.47950700  1
  O  O27  1  0.20828300  0.38849200  0.65328700  1
  O  O28  1  0.29171700  0.61150800  0.15328700  1
  O  O29  1  0.70120200  0.39910600  0.01968700  1
  O  O30  1  0.29171700  0.88849200  0.65328700  1
  O  O31  1  0.95523200  0.17989000  0.91879000  1
  O  O32  1  0.04609400  0.68046400  0.28758700  1
  O  O33  1  0.45390600  0.31953600  0.78758700  1
  O  O34  1  0.79171700  0.61150800  0.34671300  1
  O  O35  1  0.04609400  0.81953600  0.78758700  1
  O  O36  1  0.87274800  0.63363500  0.02049300  1
  O  O37  1  0.54476800  0.67989000  0.91879000  1
  O  O38  1  0.87879800  0.62751700  0.84658200  1
  O  O39  1  0.48771600  0.18753600  0.43322600  1
  O  O40  1  0.70120200  0.10089400  0.51968700  1
  O  O41  1  0.98771600  0.18753600  0.06677400  1
  O  O42  1  0.54609400  0.81953600  0.71241300  1
  O  O43  1  0.12725200  0.36636500  0.97950700  1
  O  O44  1  0.20828300  0.11150800  0.15328700  1
  O  O45  1  0.37879800  0.87248300  0.15341800  1
  O  O46  1  0.95523200  0.32011000  0.41879000  1
  O  O47  1  0.12120200  0.12751700  0.65341800  1
  O  O48  1  0.51228400  0.81246400  0.56677400  1
  O  O49  1  0.29879800  0.89910600  0.48031300  1
  O  O50  1  0.01228400  0.81246400  0.93322600  1
  O  O51  1  0.79171700  0.88849200  0.84671300  1
  O  O52  1  0.87879800  0.87248300  0.34658200  1
  O  O53  1  0.48771600  0.31246400  0.93322600  1
  O  O54  1  0.04476800  0.67989000  0.58121000  1
  O  O55  1  0.37274800  0.63363500  0.47950700  1
loop_
_geom_bond_atom_site_label_1
_geom_bond_atom_site_label_2
_geom_bond_distance
_geom_bond_site_symmetry_2
Cu0 O54 1.845592 1_555
Cu0 O35 1.847550 1_555
Cu0 O30 2.565957 1_555
Cu0 Tl3 3.239113 1_465
Cu1 O31 1.845592 1_555
Cu1 O16 1.847550 1_555
Cu1 O11 2.565957 1_555
Cu1 Tl2 3.239113 1_655
Cu2 O8 1.968895 1_546
Cu2 O23 1.977975 1_555
Cu2 O9 1.990746 1_556
Cu2 O51 2.008882 1_545
Cu2 O31 2.585392 1_555
Cu3 O13 1.968895 1_554
Cu3 O3 1.977975 1_555
Cu3 O43 1.990746 1_554
Cu3 O28 2.008882 1_555
Cu3 O15 2.585392 1_555
Cu4 O18 1.968895 1_555
Cu4 O1 1.977975 1_555
Cu4 O55 1.990746 1_555
Cu4 O27 2.008882 1_555
Cu4 O54 2.585392 1_555
Cu5 O37 1.845592 1_555
Cu5 O42 1.847550 1_555
Cu5 O51 2.565957 1_555
Cu5 Tl4 3.239113 1_565
Cu6 O6 1.845592 1_555
Cu6 O32 1.847550 1_555
Cu6 O28 2.565957 1_555
Cu6 Tl7 3.239113 1_455
Cu7 O46 1.845592 1_555
Cu7 O10 1.847550 1_555
Cu7 O19 2.565957 1_555
Cu7 Tl6 3.239113 1_645
Cu8 O29 1.968895 1_556
Cu8 O38 1.977975 1_555
Cu8 O36 1.990746 1_556
Cu8 O11 2.008882 1_555
Cu8 O37 2.585392 1_555
Cu9 O24 1.845592 1_555
Cu9 O14 1.847550 1_555
Cu9 O34 2.565957 1_555
Cu9 Tl5 3.239113 1_555
Cu10 O15 1.845592 1_555
Cu10 O20 1.847550 1_555
Cu10 O44 2.565957 1_555
Cu10 Tl1 3.239113 1_545
Cu11 O40 1.968895 1_565
Cu11 O52 1.977975 1_555
Cu11 O12 1.990746 1_555
Cu11 O19 2.008882 1_565
Cu11 O24 2.585392 1_555
Cu12 O0 1.845592 1_555
Cu12 O33 1.847550 1_555
Cu12 O27 2.565957 1_555
Cu12 Tl0 3.239113 1_555
Cu13 O17 1.968895 1_564
Cu13 O45 1.977975 1_555
Cu13 O25 1.990746 1_554
Cu13 O44 2.008882 1_565
Cu13 O6 2.585392 1_555
Cu14 O49 1.968895 1_545
Cu14 O47 1.977975 1_555
Cu14 O26 1.990746 1_555
Cu14 O30 2.008882 1_545
Cu14 O0 2.585392 1_555
Cu15 O7 1.968895 1_555
Cu15 O22 1.977975 1_555
Cu15 O2 1.990746 1_555
Cu15 O34 2.008882 1_555
Cu15 O46 2.585392 1_555
O0 P4 1.537451 1_555
O1 P11 1.536230 1_555
O2 P4 1.536043 1_555
O2 Tl0 2.857542 1_555
O3 P3 1.536230 1_555
O4 P1 1.624558 1_455
O4 P0 1.628092 1_455
O5 P2 1.624558 1_555
O5 P13 1.628092 1_554
O6 P7 1.537451 1_455
O7 P0 1.535553 1_555
O7 Tl0 2.763276 1_555
O8 P7 1.535553 1_555
O8 Tl1 2.763276 1_555
O9 P8 1.536043 1_555
O9 Tl1 2.857542 1_545
O10 P3 1.544132 1_655
O10 Tl1 2.893312 1_545
O11 P12 1.536222 1_555
O12 P0 1.536043 1_555
O12 Tl3 2.857542 1_565
O13 P13 1.535553 1_555
O13 Tl2 2.763276 1_555
O14 P2 1.544132 1_555
O14 Tl7 2.893312 1_555
O15 P8 1.537451 1_555
O16 P15 1.544132 1_655
O16 Tl0 2.893312 1_555
O17 P5 1.535553 1_555
O17 Tl4 2.763276 1_555
O18 P14 1.535553 1_555
O18 Tl5 2.763276 1_555
O19 P9 1.536222 1_555
O20 P9 1.544132 1_555
O20 Tl6 2.893312 1_545
O21 P15 1.624558 1_655
O21 P14 1.628092 1_655
O22 P9 1.536230 1_555
O23 P12 1.536230 1_555
O24 P6 1.537451 1_555
O25 P13 1.536043 1_555
O25 Tl4 2.857542 1_565
O26 P14 1.536043 1_555
O26 Tl6 2.857542 1_545
O27 P15 1.536222 1_555
O28 P2 1.536222 1_555
O29 P8 1.535553 1_555
O29 Tl7 2.763276 1_555
O30 P11 1.536222 1_555
O31 P5 1.537451 1_655
O32 P1 1.544132 1_455
O32 Tl5 2.893312 1_555
O33 P12 1.544132 1_555
O33 Tl2 2.893312 1_555
O34 P1 1.536222 1_555
O35 P10 1.544132 1_455
O35 Tl4 2.893312 1_565
O36 P7 1.536043 1_555
O36 Tl7 2.857542 1_555
O37 P13 1.537451 1_555
O38 P10 1.536230 1_555
O39 P9 1.624558 1_555
O39 P4 1.628092 1_555
O40 P4 1.535553 1_555
O40 Tl3 2.763276 1_555
O41 P3 1.624558 1_655
O41 P5 1.628092 1_654
O42 P11 1.544132 1_555
O42 Tl3 2.893312 1_565
O43 P5 1.536043 1_555
O43 Tl2 2.857542 1_555
O44 P3 1.536222 1_555
O45 P2 1.536230 1_555
O46 P14 1.537451 1_655
O47 P15 1.536230 1_555
O48 P11 1.624558 1_555
O48 P6 1.628092 1_555
O49 P6 1.535553 1_555
O49 Tl6 2.763276 1_555
O50 P10 1.624558 1_455
O50 P7 1.628092 1_456
O51 P10 1.536222 1_555
O52 P1 1.536230 1_555
O53 P12 1.624558 1_555
O53 P8 1.628092 1_556
O54 P0 1.537451 1_455
O55 P6 1.536043 1_555
O55 Tl5 2.857542 1_555
