# generated using pymatgen
data_Ho2O3
_symmetry_space_group_name_H-M   'P 1'
_cell_length_a   3.45898288
_cell_length_b   7.13897623
_cell_length_c   8.54016656
_cell_angle_alpha   99.86128335
_cell_angle_beta   90.00137278
_cell_angle_gamma   104.01970417
_symmetry_Int_Tables_number   1
_chemical_formula_structural   Ho2O3
_chemical_formula_sum   'Ho6 O9'
_cell_volume   201.39242567
_cell_formula_units_Z   3
loop_
 _symmetry_equiv_pos_site_id
 _symmetry_equiv_pos_as_xyz
  1  'x, y, z'
loop_
 _atom_site_type_symbol
 _atom_site_label
 _atom_site_symmetry_multiplicity
 _atom_site_fract_x
 _atom_site_fract_y
 _atom_site_fract_z
 _atom_site_occupancy
  Ho  Ho0  1  0.03308839  0.06601593  0.81295331  1
  Ho  Ho1  1  0.69095140  0.38190948  0.13734587  1
  Ho  Ho2  1  0.36499444  0.72994799  0.51240654  1
  Ho  Ho3  1  0.30904860  0.61809052  0.86265413  1
  Ho  Ho4  1  0.63500556  0.27005301  0.48759346  1
  Ho  Ho5  1  0.96691161  0.93398407  0.18704669  1
  O  O0  1  0.17466340  0.34933885  0.96981266  1
  O  O1  1  0.50000000  0.00000000  -0.00000000  1
  O  O2  1  0.82533660  0.65066115  0.03018734  1
  O  O3  1  0.87233204  0.74473095  0.71778820  1
  O  O4  1  0.20580724  0.41162463  0.62366176  1
  O  O5  1  0.79419176  0.58837537  0.37633824  1
  O  O6  1  0.12766796  0.25526905  0.28221180  1
  O  O7  1  0.52921238  0.05827832  0.65648695  1
  O  O8  1  0.47078762  0.94172168  0.34351305  1
loop_
_geom_bond_atom_site_label_1
_geom_bond_atom_site_label_2
_geom_bond_distance
_geom_bond_site_symmetry_2
Ho0 O0 2.171954 1_555
Ho0 O7 2.180428 1_455
Ho0 O7 2.180439 1_555
Ho0 O3 2.230260 1_445
Ho0 O1 2.451267 1_556
Ho0 O1 2.451716 1_456
Ho1 O2 2.214492 1_555
Ho1 O0 2.230487 1_554
Ho1 O0 2.230524 1_654
Ho1 O5 2.276044 1_555
Ho1 O6 2.382008 1_555
Ho1 O6 2.382143 1_655
Ho1 O1 2.697707 1_555
Ho2 O5 2.213732 1_555
Ho2 O5 2.213785 1_455
Ho2 O8 2.231357 1_555
Ho2 O7 2.386997 1_565
Ho2 O3 2.452330 1_555
Ho2 O3 2.452652 1_455
Ho2 O4 2.550208 1_555
Ho3 O0 2.214492 1_555
Ho3 O2 2.230487 1_556
Ho3 O2 2.230524 1_456
Ho3 O4 2.276044 1_555
Ho3 O3 2.382008 1_555
Ho3 O3 2.382143 1_455
Ho3 O1 2.697707 1_566
Ho4 O4 2.213731 1_555
Ho4 O4 2.213781 1_655
Ho4 O7 2.231363 1_555
Ho4 O8 2.387003 1_545
Ho4 O6 2.452328 1_555
Ho4 O6 2.452652 1_655
Ho4 O5 2.550201 1_555
Ho5 O2 2.171954 1_555
Ho5 O8 2.180428 1_655
Ho5 O8 2.180439 1_555
Ho5 O6 2.230260 1_665
Ho5 O1 2.451267 1_565
Ho5 O1 2.451716 1_665
