# generated using pymatgen
data_Yb2Co12P7
_symmetry_space_group_name_H-M   'P 1'
_cell_length_a   8.99756041
_cell_length_b   8.99756041
_cell_length_c   3.55247500
_cell_angle_alpha   90.00000000
_cell_angle_beta   90.00000000
_cell_angle_gamma   120.00000298
_symmetry_Int_Tables_number   1
_chemical_formula_structural   Yb2Co12P7
_chemical_formula_sum   'Yb2 Co12 P7'
_cell_volume   249.06413322
_cell_formula_units_Z   1
loop_
 _symmetry_equiv_pos_site_id
 _symmetry_equiv_pos_as_xyz
  1  'x, y, z'
loop_
 _atom_site_type_symbol
 _atom_site_label
 _atom_site_symmetry_multiplicity
 _atom_site_fract_x
 _atom_site_fract_y
 _atom_site_fract_z
 _atom_site_occupancy
  Yb  Yb0  1  0.66666700  0.33333300  0.50000000  1
  Yb  Yb1  1  0.33333300  0.66666700  0.00000000  1
  Co  Co0  1  0.72721400  0.88021500  0.00000000  1
  Co  Co1  1  0.94095600  0.37624500  0.00000000  1
  Co  Co2  1  0.23566700  0.10354100  0.50000000  1
  Co  Co3  1  0.89645900  0.13212600  0.50000000  1
  Co  Co4  1  0.15300100  0.27278600  0.00000000  1
  Co  Co5  1  0.38268500  0.43545800  0.50000000  1
  Co  Co6  1  0.11978500  0.84699900  0.00000000  1
  Co  Co7  1  0.43528900  0.05904400  0.00000000  1
  Co  Co8  1  0.05277300  0.61731500  0.50000000  1
  Co  Co9  1  0.56454200  0.94722700  0.50000000  1
  Co  Co10  1  0.62375500  0.56471100  0.00000000  1
  Co  Co11  1  0.86787400  0.76433300  0.50000000  1
  P  P0  1  0.40581500  0.29254000  0.00000000  1
  P  P1  1  0.29175300  0.88931900  0.50000000  1
  P  P2  1  0.70746000  0.11327500  0.00000000  1
  P  P3  1  0.59756700  0.70824700  0.50000000  1
  P  P4  1  0.88672500  0.59418500  0.00000000  1
  P  P5  1  0.11068100  0.40243300  0.50000000  1
  P  P6  1  0.00000000  0.00000000  0.00000000  1
loop_
_geom_bond_atom_site_label_1
_geom_bond_atom_site_label_2
_geom_bond_distance
_geom_bond_site_symmetry_2
Co0 P6 2.130826 1_665
Co0 P2 2.191253 1_565
Co0 P3 2.259412 1_554
Co0 P3 2.259412 1_555
Co0 Yb1 3.072802 1_555
Co1 P4 2.245030 1_555
Co1 P2 2.245268 1_555
Co1 P5 2.276571 1_654
Co1 P5 2.276571 1_655
Co1 Yb0 2.905496 1_554
Co1 Yb0 2.905496 1_555
Co1 Yb1 3.172833 1_655
Co2 P1 2.223172 1_545
Co2 P0 2.405651 1_556
Co2 P0 2.405651 1_555
Co2 P6 2.558069 1_555
Co2 P6 2.558069 1_556
Co3 P5 2.223166 1_655
Co3 P2 2.405651 1_556
Co3 P2 2.405651 1_555
Co3 P6 2.558069 1_655
Co3 P6 2.558069 1_656
Co4 P6 2.130826 1_555
Co4 P0 2.191253 1_555
Co4 P5 2.259409 1_555
Co4 P5 2.259409 1_554
Co4 Yb1 3.072802 1_555
Co5 P3 2.239844 1_555
Co5 P0 2.262636 1_555
Co5 P0 2.262636 1_556
Co5 P5 2.313159 1_555
Co5 Yb1 2.933202 1_556
Co5 Yb1 2.933202 1_555
Co6 P6 2.130826 1_565
Co6 P4 2.191253 1_455
Co6 P1 2.259414 1_554
Co6 P1 2.259414 1_555
Co6 Yb1 3.072794 1_555
Co7 P2 2.245030 1_555
Co7 P0 2.245268 1_555
Co7 P1 2.276569 1_545
Co7 P1 2.276569 1_544
Co7 Yb0 2.905498 1_555
Co7 Yb0 2.905498 1_554
Co7 Yb1 3.172830 1_545
Co8 P5 2.239850 1_555
Co8 P4 2.262636 1_455
Co8 P4 2.262636 1_456
Co8 P1 2.313162 1_555
Co8 Yb1 2.933195 1_556
Co8 Yb1 2.933195 1_555
Co9 P1 2.239842 1_555
Co9 P2 2.262636 1_565
Co9 P2 2.262636 1_566
Co9 P3 2.313168 1_555
Co9 Yb1 2.933198 1_556
Co9 Yb1 2.933198 1_555
Co10 P0 2.245030 1_555
Co10 P4 2.245268 1_555
Co10 P3 2.276566 1_555
Co10 P3 2.276566 1_554
Co10 Yb0 2.905503 1_555
Co10 Yb0 2.905503 1_554
Co10 Yb1 3.172839 1_555
Co11 P3 2.223164 1_555
Co11 P4 2.405651 1_556
Co11 P4 2.405651 1_555
Co11 P6 2.558069 1_666
Co11 P6 2.558069 1_665
P0 Yb0 2.817241 1_555
P0 Yb0 2.817241 1_554
P1 Yb1 2.838622 1_556
P1 Yb1 2.838622 1_555
P2 Yb0 2.817234 1_554
P2 Yb0 2.817234 1_555
P3 Yb1 2.838636 1_556
P3 Yb1 2.838636 1_555
P4 Yb0 2.817238 1_555
P4 Yb0 2.817238 1_554
P5 Yb1 2.838631 1_556
P5 Yb1 2.838631 1_555
