# generated using pymatgen
data_Cs7(In2Bi3)2
_symmetry_space_group_name_H-M   'P 1'
_cell_length_a   10.45429700
_cell_length_b   10.49737257
_cell_length_c   28.24657624
_cell_angle_alpha   94.59966518
_cell_angle_beta   90.86352897
_cell_angle_gamma   90.24703467
_symmetry_Int_Tables_number   1
_chemical_formula_structural   Cs7(In2Bi3)2
_chemical_formula_sum   'Cs28 In16 Bi24'
_cell_volume   3089.47228201
_cell_formula_units_Z   4
loop_
 _symmetry_equiv_pos_site_id
 _symmetry_equiv_pos_as_xyz
  1  'x, y, z'
loop_
 _atom_site_type_symbol
 _atom_site_label
 _atom_site_symmetry_multiplicity
 _atom_site_fract_x
 _atom_site_fract_y
 _atom_site_fract_z
 _atom_site_occupancy
  Cs  Cs0  1  0.51890400  0.47392800  0.07534900  1
  Cs  Cs1  1  0.62593900  0.19659100  0.17830800  1
  Cs  Cs2  1  0.95479900  0.33972200  0.08863800  1
  Cs  Cs3  1  0.30184700  0.14798300  0.41911900  1
  Cs  Cs4  1  0.48109600  0.52607200  0.92465100  1
  Cs  Cs5  1  0.81760900  0.57195600  0.32946900  1
  Cs  Cs6  1  0.37406100  0.80340900  0.82169200  1
  Cs  Cs7  1  0.74787000  0.90675800  0.25658800  1
  Cs  Cs8  1  0.98267000  0.25650300  0.24998000  1
  Cs  Cs9  1  0.25213000  0.09324200  0.74341200  1
  Cs  Cs10  1  0.10029700  0.74470000  0.58449300  1
  Cs  Cs11  1  0.88147600  0.30578500  0.76830000  1
  Cs  Cs12  1  0.18239100  0.42804400  0.67053100  1
  Cs  Cs13  1  0.89970300  0.25530000  0.41550700  1
  Cs  Cs14  1  0.71605200  0.90080700  0.91151700  1
  Cs  Cs15  1  0.65366800  0.92954000  0.41512300  1
  Cs  Cs16  1  0.83204400  0.29989400  0.92839600  1
  Cs  Cs17  1  0.04520100  0.66027800  0.91136200  1
  Cs  Cs18  1  0.01733000  0.74349700  0.75002000  1
  Cs  Cs19  1  0.28394800  0.09919300  0.08848300  1
  Cs  Cs20  1  0.52097500  0.48839200  0.42589300  1
  Cs  Cs21  1  0.67544700  0.96717500  0.73780300  1
  Cs  Cs22  1  0.47902500  0.51160800  0.57410700  1
  Cs  Cs23  1  0.34633200  0.07046000  0.58487700  1
  Cs  Cs24  1  0.69815300  0.85201700  0.58088100  1
  Cs  Cs25  1  0.32455300  0.03282500  0.26219700  1
  Cs  Cs26  1  0.11852400  0.69421500  0.23170000  1
  Cs  Cs27  1  0.16795600  0.70010600  0.07160400  1
  In  In0  1  0.77262800  0.75720900  0.12833700  1
  In  In1  1  0.45014900  0.13955300  0.95883600  1
  In  In2  1  0.90164100  0.96296200  0.03533900  1
  In  In3  1  0.49901800  0.60247900  0.20456100  1
  In  In4  1  0.96537500  0.10771500  0.53734300  1
  In  In5  1  0.13422100  0.53762800  0.45485500  1
  In  In6  1  0.54985100  0.86044700  0.04116400  1
  In  In7  1  0.86577900  0.46237200  0.54514500  1
  In  In8  1  0.50098200  0.39752100  0.79543900  1
  In  In9  1  0.23595700  0.73221500  0.36475400  1
  In  In10  1  0.41691700  0.41261200  0.29424600  1
  In  In11  1  0.09835900  0.03703800  0.96466100  1
  In  In12  1  0.76404300  0.26778500  0.63524600  1
  In  In13  1  0.03462500  0.89228500  0.46265700  1
  In  In14  1  0.22737200  0.24279100  0.87166300  1
  In  In15  1  0.58308300  0.58738800  0.70575400  1
  Bi  Bi0  1  0.61041400  0.22820200  0.32297900  1
  Bi  Bi1  1  0.86311000  0.64543800  0.46623900  1
  Bi  Bi2  1  0.30830700  0.77881200  0.47068200  1
  Bi  Bi3  1  0.30449100  0.38857800  0.19174100  1
  Bi  Bi4  1  0.77786500  0.53973100  0.18985500  1
  Bi  Bi5  1  0.22213500  0.46026900  0.81014500  1
  Bi  Bi6  1  0.47989400  0.70741900  0.30853900  1
  Bi  Bi7  1  0.38958600  0.77179800  0.67702100  1
  Bi  Bi8  1  0.21514800  0.31248800  0.97996500  1
  Bi  Bi9  1  0.13689000  0.35456200  0.53376100  1
  Bi  Bi10  1  0.65520100  0.13250100  0.03742000  1
  Bi  Bi11  1  0.02587200  0.92199000  0.35606700  1
  Bi  Bi12  1  0.97412800  0.07801000  0.64393300  1
  Bi  Bi13  1  0.16552000  0.44932300  0.35110000  1
  Bi  Bi14  1  0.78485200  0.68751200  0.02003500  1
  Bi  Bi15  1  0.83448000  0.55067700  0.64890000  1
  Bi  Bi16  1  0.69550900  0.61142200  0.80825900  1
  Bi  Bi17  1  0.34479900  0.86749900  0.96258000  1
  Bi  Bi18  1  0.52010600  0.29258100  0.69146100  1
  Bi  Bi19  1  0.50942800  0.16244900  0.85449400  1
  Bi  Bi20  1  0.03965400  0.02495800  0.85918100  1
  Bi  Bi21  1  0.49057200  0.83755100  0.14550600  1
  Bi  Bi22  1  0.96034600  0.97504200  0.14081900  1
  Bi  Bi23  1  0.69169300  0.22118800  0.52931800  1
loop_
_geom_bond_atom_site_label_1
_geom_bond_atom_site_label_2
_geom_bond_distance
_geom_bond_site_symmetry_2
Cs0 In3 3.797446 1_555
Cs0 In0 4.149383 1_555
Cs0 In6 4.257501 1_555
Cs0 Cs4 4.347438 1_554
Cs0 Cs27 4.383264 1_555
Cs0 Cs1 4.412895 1_555
Cs0 Cs19 4.671564 1_555
Cs0 Cs2 4.793777 1_555
Cs1 Cs7 4.098560 1_545
Cs1 Cs8 4.236779 1_555
Cs1 Cs25 4.396513 1_555
Cs1 Cs19 4.420923 1_555
Cs1 In10 4.439512 1_555
Cs1 In3 4.476181 1_555
Cs1 Cs2 4.617476 1_555
Cs2 In2 4.149482 1_545
Cs2 Cs27 4.445290 1_655
Cs2 Cs8 4.713626 1_555
Cs3 In13 4.133973 1_545
Cs3 In5 4.502548 1_555
Cs3 In9 4.555052 1_545
Cs4 In8 3.797446 1_555
Cs4 In14 4.149383 1_555
Cs4 In1 4.257501 1_555
Cs4 Cs6 4.412895 1_555
Cs5 Cs8 4.237705 1_555
Cs5 Cs7 4.273034 1_555
Cs6 Cs9 4.098560 1_565
Cs6 In15 4.439512 1_555
Cs6 In8 4.476181 1_555
Cs7 In0 3.843791 1_555
Cs7 In3 4.265041 1_555
Cs7 Cs8 4.425545 1_565
Cs9 In14 3.843791 1_555
Cs9 In8 4.265041 1_555
Cs10 In7 3.918759 1_455
Cs10 In13 3.938046 1_555
Cs10 In5 4.126615 1_555
Cs10 Cs23 4.269324 1_565
Cs10 Cs12 4.353110 1_555
Cs10 Cs24 4.358967 1_455
Cs10 In4 4.369038 1_465
Cs10 Cs22 4.664002 1_555
Cs10 Cs18 4.769177 1_555
Cs11 In12 3.925244 1_555
Cs11 In8 4.164662 1_555
Cs11 Cs21 4.171671 1_545
Cs11 Cs12 4.468296 1_655
Cs11 Cs9 4.515790 1_655
Cs11 Cs16 4.564632 1_555
Cs11 Cs18 4.872630 1_655
Cs12 Cs18 4.237705 1_555
Cs12 Cs9 4.273034 1_555
Cs12 Cs22 4.291723 1_555
Cs12 Cs23 4.648133 1_555
Cs13 In5 3.918759 1_655
Cs13 In4 3.938046 1_555
Cs13 In7 4.126615 1_555
Cs13 Cs15 4.269324 1_545
Cs13 Cs5 4.353110 1_555
Cs13 Cs3 4.358967 1_655
Cs13 In13 4.369038 1_645
Cs13 Cs20 4.664002 1_555
Cs13 Cs8 4.769177 1_555
Cs14 In1 3.928081 1_565
Cs14 In2 3.980135 1_556
Cs14 In6 4.128390 1_556
Cs14 Cs17 4.276620 1_655
Cs14 Cs16 4.343609 1_565
Cs14 Cs6 4.420923 1_555
Cs14 In11 4.438253 1_665
Cs14 Cs4 4.671564 1_555
Cs14 Cs21 5.023004 1_555
Cs15 In13 4.213500 1_655
Cs15 Cs3 4.340813 1_565
Cs15 Cs7 4.587305 1_555
Cs15 Cs5 4.648133 1_555
Cs15 Cs24 4.832111 1_555
Cs15 Cs20 4.862650 1_555
Cs16 In11 4.104640 1_655
Cs16 Cs4 4.383264 1_555
Cs16 Cs17 4.445290 1_655
Cs16 In1 4.448547 1_555
Cs16 In14 4.480509 1_655
Cs16 Cs2 4.671805 1_556
Cs17 In11 4.149482 1_565
Cs17 Cs6 4.617476 1_555
Cs17 Cs27 4.671805 1_556
Cs17 Cs18 4.713626 1_555
Cs17 Cs4 4.793777 1_555
Cs18 Cs6 4.236779 1_555
Cs18 Cs21 4.309525 1_455
Cs18 Cs9 4.425545 1_565
Cs19 In6 3.928081 1_545
Cs19 In11 3.980135 1_554
Cs19 In1 4.128390 1_554
Cs19 Cs2 4.276620 1_455
Cs19 Cs27 4.343609 1_545
Cs19 In2 4.438253 1_445
Cs19 Cs25 5.023004 1_555
Cs20 In10 3.878172 1_555
Cs20 In5 4.163422 1_555
Cs20 Cs22 4.203742 1_555
Cs20 Cs3 4.226137 1_555
Cs20 Cs5 4.291723 1_555
Cs20 In9 4.362505 1_555
Cs21 In15 4.124053 1_555
Cs21 Cs6 4.396513 1_555
Cs21 Cs24 4.509946 1_555
Cs21 In12 4.552971 1_565
Cs21 Cs9 4.625939 1_565
Cs22 In15 3.878172 1_555
Cs22 In7 4.163422 1_555
Cs22 Cs24 4.226137 1_555
Cs22 In12 4.362505 1_555
Cs22 Cs23 4.862650 1_555
Cs23 In4 4.213500 1_455
Cs23 Cs24 4.340813 1_545
Cs23 Cs9 4.587305 1_555
Cs23 Cs3 4.832111 1_555
Cs24 In4 4.133973 1_565
Cs24 In7 4.502548 1_555
Cs24 In12 4.555052 1_565
Cs25 In10 4.124053 1_555
Cs25 Cs26 4.171671 1_545
Cs25 Cs8 4.309525 1_455
Cs25 Cs3 4.509946 1_555
Cs25 In9 4.552971 1_545
Cs25 Cs7 4.625939 1_545
Cs26 In9 3.925244 1_555
Cs26 In3 4.164662 1_555
Cs26 Cs5 4.468296 1_455
Cs26 Cs7 4.515790 1_455
Cs26 Cs27 4.564632 1_555
Cs26 Cs8 4.872630 1_455
Cs27 In2 4.104640 1_455
Cs27 In6 4.448547 1_555
Cs27 In0 4.480509 1_455
In11 In2 3.029631 1_446
In13 In4 3.063293 1_465
Bi0 In10 2.955402 1_555
Bi0 Cs25 3.913156 1_555
Bi0 Cs20 3.951620 1_555
Bi0 Cs13 3.961487 1_555
Bi0 Cs7 4.009483 1_545
Bi0 Cs1 4.079042 1_555
Bi0 Cs5 4.190633 1_555
Bi0 Cs15 4.253654 1_545
Bi0 Cs3 4.370040 1_555
Bi0 Cs8 4.451435 1_555
Bi1 In7 3.057280 1_555
Bi1 In5 3.068236 1_655
Bi1 In13 3.153940 1_655
Bi1 Cs5 3.899966 1_555
Bi1 Cs20 4.041643 1_555
Bi1 Cs15 4.052756 1_555
Bi1 Cs24 4.151747 1_555
Bi1 Cs10 4.190647 1_655
Bi1 Cs13 4.249837 1_555
Bi2 In9 3.075369 1_555
Bi2 In5 3.110672 1_555
Bi2 In13 3.116024 1_555
Bi2 Cs20 3.919500 1_555
Bi2 Cs10 3.947213 1_555
Bi2 Cs3 4.248365 1_565
Bi2 Cs23 4.278158 1_565
Bi2 Cs15 4.303709 1_555
Bi2 Cs22 4.559368 1_555
Bi3 In3 3.019382 1_555
Bi3 In10 3.099387 1_555
Bi3 Cs26 3.858312 1_555
Bi3 Cs1 3.933558 1_555
Bi3 Cs19 4.041748 1_555
Bi3 Cs8 4.054638 1_455
Bi3 Cs0 4.160922 1_555
Bi3 Cs25 4.374598 1_555
Bi3 Cs2 4.640332 1_455
Bi4 In0 2.978056 1_555
Bi4 In3 3.018889 1_555
Bi4 Cs2 3.903058 1_555
Bi4 Cs1 3.917975 1_555
Bi4 Cs5 3.946470 1_555
Bi4 Cs26 4.028153 1_655
Bi4 Cs8 4.130780 1_555
Bi4 Cs7 4.166428 1_555
Bi4 Cs0 4.198732 1_555
Bi5 In14 2.978056 1_555
Bi5 In8 3.018889 1_555
Bi5 Cs17 3.903058 1_555
Bi5 Cs6 3.917975 1_555
Bi5 Cs12 3.946470 1_555
Bi5 Cs11 4.028153 1_455
Bi5 Cs18 4.130780 1_555
Bi5 Cs9 4.166428 1_555
Bi5 Cs4 4.198732 1_555
Bi6 In9 3.025571 1_555
Bi6 In3 3.062722 1_555
Bi6 In10 3.153990 1_555
Bi6 Cs7 3.866050 1_555
Bi6 Cs5 3.866753 1_555
Bi6 Cs15 4.058787 1_555
Bi6 Cs25 4.089028 1_565
Bi6 Cs20 4.200835 1_555
Bi6 Cs26 4.324627 1_555
Bi7 In15 2.955402 1_555
Bi7 Cs21 3.913156 1_555
Bi7 Cs22 3.951620 1_555
Bi7 Cs10 3.961487 1_555
Bi7 Cs9 4.009483 1_565
Bi7 Cs6 4.079042 1_555
Bi7 Cs12 4.190633 1_555
Bi7 Cs23 4.253654 1_565
Bi7 Cs24 4.370040 1_555
Bi7 Cs18 4.451435 1_555
Bi8 In14 3.092523 1_555
Bi8 In1 3.097797 1_555
Bi8 In11 3.129143 1_555
Bi8 Cs4 3.979594 1_555
Bi8 Cs19 3.996830 1_556
Bi8 Cs2 4.126769 1_456
Bi8 Cs16 4.238949 1_455
Bi8 Cs0 4.379342 1_556
Bi8 Cs17 4.618162 1_555
Bi8 Cs27 4.676188 1_556
Bi9 In5 3.057280 1_555
Bi9 In7 3.068236 1_455
Bi9 In4 3.153940 1_455
Bi9 Cs12 3.899966 1_555
Bi9 Cs22 4.041643 1_555
Bi9 Cs23 4.052756 1_555
Bi9 Cs3 4.151747 1_555
Bi9 Cs13 4.190647 1_455
Bi9 Cs10 4.249837 1_555
Bi10 In6 3.066741 1_545
Bi10 In1 3.067950 1_554
Bi10 In2 3.136204 1_545
Bi10 Cs0 3.936750 1_555
Bi10 Cs2 3.991836 1_555
Bi10 Cs1 3.999064 1_555
Bi10 Cs16 4.123204 1_554
Bi10 Cs19 4.183801 1_555
Bi10 Cs14 4.202608 1_544
Bi11 In9 2.992057 1_555
Bi11 In13 3.051730 1_555
Bi11 Cs13 3.995654 1_465
Bi11 Cs7 4.005719 1_455
Bi11 Cs3 4.028936 1_565
Bi11 Cs26 4.215613 1_555
Bi11 Cs15 4.255225 1_455
Bi11 Cs5 4.271449 1_455
Bi11 Cs25 4.341334 1_565
Bi12 In12 2.992057 1_555
Bi12 In4 3.051730 1_555
Bi12 Cs10 3.995654 1_645
Bi12 Cs9 4.005719 1_655
Bi12 Cs24 4.028936 1_545
Bi12 Cs11 4.215613 1_555
Bi12 Cs23 4.255225 1_655
Bi12 Cs12 4.271449 1_655
Bi12 Cs21 4.341334 1_545
Bi13 In5 3.025108 1_555
Bi13 In9 3.049350 1_555
Bi13 In10 3.109910 1_555
Bi13 Cs8 3.845036 1_455
Bi13 Cs5 3.919061 1_455
Bi13 Cs13 3.984767 1_455
Bi13 Cs3 4.081672 1_555
Bi13 Cs20 4.248721 1_555
Bi13 Cs26 4.424503 1_555
Bi14 In0 3.092523 1_555
Bi14 In6 3.097797 1_555
Bi14 In2 3.129143 1_555
Bi14 Cs0 3.979594 1_555
Bi14 Cs14 3.996830 1_554
Bi14 Cs17 4.126769 1_654
Bi14 Cs27 4.238949 1_655
Bi14 Cs4 4.379342 1_554
Bi14 Cs2 4.618162 1_555
Bi14 Cs16 4.676188 1_554
Bi15 In7 3.025108 1_555
Bi15 In12 3.049350 1_555
Bi15 In15 3.109910 1_555
Bi15 Cs18 3.845036 1_655
Bi15 Cs12 3.919061 1_655
Bi15 Cs10 3.984767 1_655
Bi15 Cs24 4.081672 1_555
Bi15 Cs22 4.248721 1_555
Bi15 Cs11 4.424503 1_555
Bi16 In8 3.019382 1_555
Bi16 In15 3.099387 1_555
Bi16 Cs11 3.858312 1_555
Bi16 Cs6 3.933558 1_555
Bi16 Cs14 4.041748 1_555
Bi16 Cs18 4.054638 1_655
Bi16 Cs4 4.160922 1_555
Bi16 Cs21 4.374598 1_555
Bi16 Cs17 4.640332 1_655
Bi17 In1 3.066741 1_565
Bi17 In6 3.067950 1_556
Bi17 In11 3.136204 1_565
Bi17 Cs4 3.936750 1_555
Bi17 Cs17 3.991836 1_555
Bi17 Cs6 3.999064 1_555
Bi17 Cs27 4.123204 1_556
Bi17 Cs14 4.183801 1_555
Bi17 Cs19 4.202608 1_566
Bi18 In12 3.025571 1_555
Bi18 In8 3.062722 1_555
Bi18 In15 3.153990 1_555
Bi18 Cs9 3.866050 1_555
Bi18 Cs12 3.866753 1_555
Bi18 Cs23 4.058787 1_555
Bi18 Cs21 4.089028 1_545
Bi18 Cs22 4.200835 1_555
Bi18 Cs11 4.324627 1_555
Bi19 In1 3.048902 1_555
Bi19 In8 3.088241 1_555
Bi19 In14 3.104874 1_555
Bi19 Cs14 3.931897 1_545
Bi19 Cs6 4.052254 1_545
Bi19 Cs9 4.119638 1_555
Bi19 Cs16 4.132469 1_555
Bi19 Cs21 4.147066 1_545
Bi19 Cs4 4.171238 1_555
Bi20 In14 3.002595 1_555
Bi20 In11 3.025469 1_555
Bi20 Cs14 3.968693 1_445
Bi20 Cs16 4.017412 1_455
Bi20 Cs9 4.089314 1_555
Bi20 Cs18 4.099127 1_545
Bi20 Cs17 4.211311 1_545
Bi20 Cs6 4.305670 1_545
Bi20 Cs11 4.375228 1_455
Bi21 In6 3.048902 1_555
Bi21 In3 3.088241 1_555
Bi21 In0 3.104874 1_555
Bi21 Cs19 3.931897 1_565
Bi21 Cs1 4.052254 1_565
Bi21 Cs7 4.119638 1_555
Bi21 Cs27 4.132469 1_555
Bi21 Cs25 4.147066 1_565
Bi21 Cs0 4.171238 1_555
Bi22 In0 3.002595 1_555
Bi22 In2 3.025469 1_555
Bi22 Cs19 3.968693 1_665
Bi22 Cs27 4.017412 1_655
Bi22 Cs7 4.089314 1_555
Bi22 Cs8 4.099127 1_565
Bi22 Cs2 4.211311 1_565
Bi22 Cs1 4.305670 1_565
Bi22 Cs26 4.375228 1_655
Bi23 In12 3.075369 1_555
Bi23 In7 3.110672 1_555
Bi23 In4 3.116024 1_555
Bi23 Cs22 3.919500 1_555
Bi23 Cs13 3.947213 1_555
Bi23 Cs24 4.248365 1_545
Bi23 Cs15 4.278158 1_545
Bi23 Cs23 4.303709 1_555
Bi23 Cs20 4.559368 1_555
