# generated using pymatgen
data_Y2(MoO4)3
_symmetry_space_group_name_H-M   'P 1'
_cell_length_a   10.52553500
_cell_length_b   10.54187800
_cell_length_c   10.73499800
_cell_angle_alpha   90.00000000
_cell_angle_beta   90.00000000
_cell_angle_gamma   90.00000000
_symmetry_Int_Tables_number   1
_chemical_formula_structural   Y2(MoO4)3
_chemical_formula_sum   'Y8 Mo12 O48'
_cell_volume   1191.14363243
_cell_formula_units_Z   4
loop_
 _symmetry_equiv_pos_site_id
 _symmetry_equiv_pos_as_xyz
  1  'x, y, z'
loop_
 _atom_site_type_symbol
 _atom_site_label
 _atom_site_symmetry_multiplicity
 _atom_site_fract_x
 _atom_site_fract_y
 _atom_site_fract_z
 _atom_site_occupancy
  Y  Y0  1  0.68795200  0.00093100  0.74092700  1
  Y  Y1  1  0.31204800  0.99906900  0.74092700  1
  Y  Y2  1  0.81204800  0.50093100  0.74092700  1
  Y  Y3  1  0.49721600  0.31200200  0.26644700  1
  Y  Y4  1  0.00278400  0.81200200  0.26644700  1
  Y  Y5  1  0.18795200  0.49906900  0.74092700  1
  Y  Y6  1  0.99721600  0.18799800  0.26644700  1
  Y  Y7  1  0.50278400  0.68799800  0.26644700  1
  Mo  Mo0  1  0.75259100  0.75207200  0.00344000  1
  Mo  Mo1  1  0.99807600  0.79317600  0.64689900  1
  Mo  Mo2  1  0.50192400  0.29317600  0.64689900  1
  Mo  Mo3  1  0.74740900  0.25207200  0.00344000  1
  Mo  Mo4  1  0.29378100  0.99235100  0.35980600  1
  Mo  Mo5  1  0.79378100  0.50764900  0.35980600  1
  Mo  Mo6  1  0.49807600  0.70682400  0.64689900  1
  Mo  Mo7  1  0.70621900  0.00764900  0.35980600  1
  Mo  Mo8  1  0.25259100  0.74792800  0.00344000  1
  Mo  Mo9  1  0.20621900  0.49235100  0.35980600  1
  Mo  Mo10  1  0.24740900  0.24792800  0.00344000  1
  Mo  Mo11  1  0.00192400  0.20682400  0.64689900  1
  O  O0  1  0.87512100  0.12092100  0.71781100  1
  O  O1  1  0.48425400  0.30386100  0.48192200  1
  O  O2  1  0.69436800  0.00320600  0.52534700  1
  O  O3  1  0.01574600  0.80386100  0.48192200  1
  O  O4  1  0.84999900  0.65879300  0.30943000  1
  O  O5  1  0.12721600  0.17800200  0.09909800  1
  O  O6  1  0.37278400  0.67800200  0.09909800  1
  O  O7  1  0.87278400  0.82199800  0.09909800  1
  O  O8  1  0.88164200  0.37947600  0.29378800  1
  O  O9  1  0.99602200  0.37344400  0.69593500  1
  O  O10  1  0.49602200  0.12655600  0.69593500  1
  O  O11  1  0.80563200  0.50320600  0.52534700  1
  O  O12  1  0.61835800  0.87947600  0.29378800  1
  O  O13  1  0.86352300  0.17967000  0.10278500  1
  O  O14  1  0.62721600  0.32199800  0.09909800  1
  O  O15  1  0.34999900  0.84120700  0.30943000  1
  O  O16  1  0.17664400  0.36449400  0.90401500  1
  O  O17  1  0.36352300  0.32033000  0.10278500  1
  O  O18  1  0.11835800  0.62052400  0.29378800  1
  O  O19  1  0.37512100  0.37907900  0.71781100  1
  O  O20  1  0.84615700  0.85242600  0.69167300  1
  O  O21  1  0.12678100  0.00444600  0.31198500  1
  O  O22  1  0.68095800  0.87150500  0.90769300  1
  O  O23  1  0.15000100  0.34120700  0.30943000  1
  O  O24  1  0.00397800  0.62655600  0.69593500  1
  O  O25  1  0.38164200  0.12052400  0.29378800  1
  O  O26  1  0.51574600  0.69613900  0.48192200  1
  O  O27  1  0.12487900  0.87907900  0.71781100  1
  O  O28  1  0.13647700  0.82033000  0.10278500  1
  O  O29  1  0.65000100  0.15879300  0.30943000  1
  O  O30  1  0.30563200  0.99679400  0.52534700  1
  O  O31  1  0.37321900  0.50444600  0.31198500  1
  O  O32  1  0.19436800  0.49679400  0.52534700  1
  O  O33  1  0.81904200  0.37150500  0.90769300  1
  O  O34  1  0.63647700  0.67967000  0.10278500  1
  O  O35  1  0.62678100  0.49555400  0.31198500  1
  O  O36  1  0.62487900  0.62092100  0.71781100  1
  O  O37  1  0.34615700  0.64757400  0.69167300  1
  O  O38  1  0.98425400  0.19613900  0.48192200  1
  O  O39  1  0.67664400  0.13550600  0.90401500  1
  O  O40  1  0.87321900  0.99555400  0.31198500  1
  O  O41  1  0.65384300  0.35242600  0.69167300  1
  O  O42  1  0.50397800  0.87344400  0.69593500  1
  O  O43  1  0.32335600  0.86449400  0.90401500  1
  O  O44  1  0.18095800  0.62849500  0.90769300  1
  O  O45  1  0.31904200  0.12849500  0.90769300  1
  O  O46  1  0.82335600  0.63550600  0.90401500  1
  O  O47  1  0.15384300  0.14757400  0.69167300  1
loop_
_geom_bond_atom_site_label_1
_geom_bond_atom_site_label_2
_geom_bond_distance
_geom_bond_site_symmetry_2
Mo0 O7 1.788396 1_555
Mo0 O46 1.789967 1_554
Mo0 O22 1.791688 1_554
Mo0 O34 1.792649 1_555
Mo1 O20 1.782708 1_555
Mo1 O27 1.783508 1_655
Mo1 O3 1.784326 1_655
Mo1 O24 1.834722 1_655
Mo2 O41 1.782708 1_555
Mo2 O19 1.783508 1_555
Mo2 O1 1.784326 1_555
Mo2 O10 1.834722 1_555
Mo3 O14 1.788396 1_555
Mo3 O39 1.789967 1_554
Mo3 O33 1.791688 1_554
Mo3 O13 1.792649 1_555
Mo4 O30 1.782070 1_555
Mo4 O15 1.783627 1_555
Mo4 O25 1.784148 1_565
Mo4 O21 1.835628 1_565
Mo5 O11 1.782070 1_555
Mo5 O4 1.783627 1_555
Mo5 O8 1.784148 1_555
Mo5 O35 1.835628 1_555
Mo6 O37 1.782708 1_555
Mo6 O36 1.783508 1_555
Mo6 O26 1.784326 1_555
Mo6 O42 1.834722 1_555
Mo7 O2 1.782070 1_555
Mo7 O29 1.783627 1_555
Mo7 O12 1.784148 1_545
Mo7 O40 1.835628 1_545
Mo8 O6 1.788396 1_555
Mo8 O43 1.789967 1_554
Mo8 O44 1.791688 1_554
Mo8 O28 1.792649 1_555
Mo9 O32 1.782070 1_555
Mo9 O23 1.783627 1_555
Mo9 O18 1.784148 1_555
Mo9 O31 1.835628 1_555
Mo10 O5 1.788396 1_555
Mo10 O16 1.789967 1_554
Mo10 O45 1.791688 1_554
Mo10 O17 1.792649 1_555
Mo11 O47 1.782708 1_555
Mo11 O0 1.783508 1_455
Mo11 O38 1.784326 1_455
Mo11 O9 1.834722 1_455
O0 Y0 2.354297 1_555
O1 Y3 2.318732 1_555
O2 Y0 2.315360 1_555
O3 Y4 2.318732 1_555
O4 Y4 2.325429 1_655
O5 Y6 2.260704 1_455
O6 Y7 2.260704 1_555
O7 Y4 2.260704 1_655
O8 Y6 2.374965 1_555
O9 Y2 2.406081 1_555
O9 Y5 2.463368 1_655
O10 Y1 2.406081 1_545
O10 Y0 2.463368 1_555
O11 Y2 2.315360 1_555
O12 Y7 2.374965 1_555
O13 Y6 2.252694 1_555
O14 Y3 2.260704 1_555
O15 Y7 2.325429 1_555
O16 Y5 2.256529 1_555
O17 Y3 2.252694 1_555
O18 Y4 2.374965 1_555
O19 Y5 2.354297 1_555
O20 Y0 2.345909 1_565
O21 Y6 2.417214 1_455
O21 Y4 2.461313 1_545
O22 Y0 2.252093 1_565
O23 Y6 2.325429 1_455
O24 Y5 2.406081 1_555
O24 Y2 2.463368 1_455
O25 Y3 2.374965 1_555
O26 Y7 2.318732 1_555
O27 Y1 2.354297 1_555
O28 Y4 2.252694 1_555
O29 Y3 2.325429 1_555
O30 Y1 2.315360 1_555
O31 Y7 2.417214 1_555
O31 Y3 2.461313 1_555
O32 Y5 2.315360 1_555
O33 Y2 2.252093 1_555
O34 Y7 2.252694 1_555
O35 Y3 2.417214 1_555
O35 Y7 2.461313 1_555
O36 Y2 2.354297 1_555
O37 Y5 2.345909 1_555
O38 Y6 2.318732 1_555
O39 Y0 2.256529 1_555
O40 Y4 2.417214 1_655
O40 Y6 2.461313 1_565
O41 Y2 2.345909 1_555
O42 Y0 2.406081 1_565
O42 Y1 2.463368 1_555
O43 Y1 2.256529 1_555
O44 Y5 2.252093 1_555
O45 Y1 2.252093 1_545
O46 Y2 2.256529 1_555
O47 Y1 2.345909 1_545
