# generated using pymatgen
data_FePH4NO4F
_symmetry_space_group_name_H-M   'P 1'
_cell_length_a   6.51480900
_cell_length_b   10.82108900
_cell_length_c   13.13696700
_cell_angle_alpha   90.00000000
_cell_angle_beta   90.00000000
_cell_angle_gamma   90.00000000
_symmetry_Int_Tables_number   1
_chemical_formula_structural   FePH4NO4F
_chemical_formula_sum   'Fe8 P8 H32 N8 O32 F8'
_cell_volume   926.12107162
_cell_formula_units_Z   8
loop_
 _symmetry_equiv_pos_site_id
 _symmetry_equiv_pos_as_xyz
  1  'x, y, z'
loop_
 _atom_site_type_symbol
 _atom_site_label
 _atom_site_symmetry_multiplicity
 _atom_site_fract_x
 _atom_site_fract_y
 _atom_site_fract_z
 _atom_site_occupancy
  Fe  Fe0  1  0.48822900  0.00241700  0.38655000  1
  Fe  Fe1  1  0.51177100  0.50241700  0.61345000  1
  Fe  Fe2  1  0.01177100  0.00241700  0.88655000  1
  Fe  Fe3  1  0.98822900  0.50241700  0.11345000  1
  Fe  Fe4  1  0.25211500  0.25429600  0.24933000  1
  Fe  Fe5  1  0.74788500  0.75429600  0.75067000  1
  Fe  Fe6  1  0.24788500  0.25429600  0.74933000  1
  Fe  Fe7  1  0.75211500  0.75429600  0.25067000  1
  P  P0  1  0.33061200  0.25014900  0.50337700  1
  P  P1  1  0.66938800  0.75014900  0.49662300  1
  P  P2  1  0.16938800  0.25014900  0.00337700  1
  P  P3  1  0.83061200  0.75014900  0.99662300  1
  P  P4  1  0.49887300  0.50654100  0.18426400  1
  P  P5  1  0.50112700  0.00654100  0.81573600  1
  P  P6  1  0.00112700  0.50654100  0.68426400  1
  P  P7  1  0.99887300  0.00654100  0.31573600  1
  H  H0  1  0.93923000  0.31642000  0.40000400  1
  H  H1  1  0.06077000  0.81642000  0.59999600  1
  H  H2  1  0.56077000  0.31642000  0.90000400  1
  H  H3  1  0.43923000  0.81642000  0.09999600  1
  H  H4  1  0.76123000  0.20983300  0.38288200  1
  H  H5  1  0.23877000  0.70983300  0.61711800  1
  H  H6  1  0.73877000  0.20983300  0.88288200  1
  H  H7  1  0.26123000  0.70983300  0.11711800  1
  H  H8  1  0.72878900  0.34569200  0.32417500  1
  H  H9  1  0.27121100  0.84569200  0.67582500  1
  H  H10  1  0.77121100  0.34569200  0.82417500  1
  H  H11  1  0.22878900  0.84569200  0.17582500  1
  H  H12  1  0.69413500  0.33703000  0.45004200  1
  H  H13  1  0.30586500  0.83703000  0.54995800  1
  H  H14  1  0.80586500  0.33703000  0.95004200  1
  H  H15  1  0.19413500  0.83703000  0.04995800  1
  H  H16  1  0.64334300  0.99145600  0.14161300  1
  H  H17  1  0.35665700  0.49145600  0.85838700  1
  H  H18  1  0.85665700  0.99145600  0.64161300  1
  H  H19  1  0.14334300  0.49145600  0.35838700  1
  H  H20  1  0.54427200  0.12983600  0.10738800  1
  H  H21  1  0.45572800  0.62983600  0.89261200  1
  H  H22  1  0.95572800  0.12983600  0.60738800  1
  H  H23  1  0.04427200  0.62983600  0.39261200  1
  H  H24  1  0.66607800  0.04249800  0.01888000  1
  H  H25  1  0.33392200  0.54249800  0.98112000  1
  H  H26  1  0.83392200  0.04249800  0.51888000  1
  H  H27  1  0.16607800  0.54249800  0.48112000  1
  H  H28  1  0.80361600  0.10609700  0.11383600  1
  H  H29  1  0.19638400  0.60609700  0.88616400  1
  H  H30  1  0.69638400  0.10609700  0.61383600  1
  H  H31  1  0.30361600  0.60609700  0.38616400  1
  N  N0  1  0.78259500  0.30440800  0.38954200  1
  N  N1  1  0.21740500  0.80440800  0.61045800  1
  N  N2  1  0.71740500  0.30440800  0.88954200  1
  N  N3  1  0.28259500  0.80440800  0.11045800  1
  N  N4  1  0.66339900  0.06752100  0.09583900  1
  N  N5  1  0.33660100  0.56752100  0.90416100  1
  N  N6  1  0.83660100  0.06752100  0.59583900  1
  N  N7  1  0.16339900  0.56752100  0.40416100  1
  O  O0  1  0.47036200  0.13546100  0.48915100  1
  O  O1  1  0.52963800  0.63546100  0.51084900  1
  O  O2  1  0.02963800  0.13546100  0.98915100  1
  O  O3  1  0.97036200  0.63546100  0.01084900  1
  O  O4  1  0.47488700  0.36332100  0.52076400  1
  O  O5  1  0.52511300  0.86332100  0.47923600  1
  O  O6  1  0.02511300  0.36332100  0.02076400  1
  O  O7  1  0.97488700  0.86332100  0.97923600  1
  O  O8  1  0.20235200  0.27396400  0.40568600  1
  O  O9  1  0.79764800  0.77396400  0.59431400  1
  O  O10  1  0.29764800  0.27396400  0.90568600  1
  O  O11  1  0.70235200  0.77396400  0.09431400  1
  O  O12  1  0.18928100  0.23369000  0.59737000  1
  O  O13  1  0.81071900  0.73369000  0.40263000  1
  O  O14  1  0.31071900  0.23369000  0.09737000  1
  O  O15  1  0.68928100  0.73369000  0.90263000  1
  O  O16  1  0.30755300  0.53397700  0.11543800  1
  O  O17  1  0.69244700  0.03397700  0.88456200  1
  O  O18  1  0.19244700  0.53397700  0.61543800  1
  O  O19  1  0.80755300  0.03397700  0.38456200  1
  O  O20  1  0.68689300  0.47872900  0.11604100  1
  O  O21  1  0.31310700  0.97872900  0.88395900  1
  O  O22  1  0.81310700  0.47872900  0.61604100  1
  O  O23  1  0.18689300  0.97872900  0.38395900  1
  O  O24  1  0.54060700  0.62103500  0.25317100  1
  O  O25  1  0.45939300  0.12103500  0.74682900  1
  O  O26  1  0.95939300  0.62103500  0.75317100  1
  O  O27  1  0.04060700  0.12103500  0.24682900  1
  O  O28  1  0.45432400  0.39432500  0.25469700  1
  O  O29  1  0.54567600  0.89432500  0.74530300  1
  O  O30  1  0.04567600  0.39432500  0.75469700  1
  O  O31  1  0.95432400  0.89432500  0.24530300  1
  F  F0  1  0.47380800  0.13382700  0.27675900  1
  F  F1  1  0.52619200  0.63382700  0.72324100  1
  F  F2  1  0.02619200  0.13382700  0.77675900  1
  F  F3  1  0.97380800  0.63382700  0.22324100  1
  F  F4  1  0.03495700  0.38487700  0.23246000  1
  F  F5  1  0.96504300  0.88487700  0.76754000  1
  F  F6  1  0.46504300  0.38487700  0.73246000  1
  F  F7  1  0.53495700  0.88487700  0.26754000  1
loop_
_geom_bond_atom_site_label_1
_geom_bond_atom_site_label_2
_geom_bond_distance
_geom_bond_site_symmetry_2
Fe0 O5 1.950861 1_545
Fe0 O0 1.975594 1_555
Fe0 O23 1.980103 1_545
Fe0 O19 2.108342 1_555
Fe1 O4 1.950861 1_555
Fe1 O1 1.975594 1_555
Fe1 O22 1.980103 1_555
Fe1 O18 2.108342 1_555
Fe2 O7 1.950861 1_445
Fe2 O2 1.975594 1_555
Fe2 O21 1.980103 1_545
Fe2 O17 2.108342 1_455
Fe3 O6 1.950861 1_655
Fe3 O3 1.975594 1_555
Fe3 O20 1.980103 1_555
Fe3 O16 2.108342 1_655
Fe4 O27 1.994801 1_555
Fe4 O28 2.009085 1_555
Fe4 O14 2.044670 1_555
Fe4 O8 2.090334 1_555
Fe5 O26 1.994801 1_555
Fe5 O29 2.009085 1_555
Fe5 O15 2.044670 1_555
Fe5 O9 2.090334 1_555
Fe6 O25 1.994801 1_555
Fe6 O30 2.009085 1_555
Fe6 O12 2.044670 1_555
Fe6 O10 2.090334 1_555
Fe7 O24 1.994801 1_555
Fe7 O31 2.009085 1_555
Fe7 O13 2.044670 1_555
Fe7 O11 2.090334 1_555
H0 N0 1.037833 1_555
H1 N1 1.037833 1_555
H2 N2 1.037833 1_555
H3 N3 1.037833 1_555
H4 N0 1.036526 1_555
H5 N1 1.036526 1_555
H6 N2 1.036526 1_555
H7 N3 1.036526 1_555
H8 N0 1.029494 1_555
H9 N1 1.029494 1_555
H10 N2 1.029494 1_555
H11 N3 1.029494 1_555
H12 N0 1.043274 1_555
H12 O4 1.727519 1_555
H13 N1 1.043274 1_555
H13 O5 1.727519 1_555
H14 N2 1.043274 1_555
H14 O6 1.727519 1_656
H15 N3 1.043274 1_555
H15 O7 1.727519 1_454
H16 N4 1.027704 1_565
H17 N5 1.027704 1_555
H18 N6 1.027704 1_565
H19 N7 1.027704 1_555
H20 N4 1.039248 1_555
H21 N5 1.039248 1_555
H22 N6 1.039248 1_555
H23 N7 1.039248 1_555
H24 N4 1.046786 1_555
H25 N5 1.046786 1_555
H26 N6 1.046786 1_555
H27 N7 1.046786 1_555
H28 N4 1.031798 1_555
H29 N5 1.031798 1_555
H30 N6 1.031798 1_555
H31 N7 1.031798 1_555
O0 P0 1.550496 1_555
O1 P1 1.550496 1_555
O2 P2 1.550496 1_556
O3 P3 1.550496 1_554
O4 P0 1.560571 1_555
O5 P1 1.560571 1_555
O6 P2 1.560571 1_555
O7 P3 1.560571 1_555
O8 P0 1.552947 1_555
O9 P1 1.552947 1_555
O10 P2 1.552947 1_556
O11 P3 1.552947 1_554
O12 P0 1.550542 1_555
O13 P1 1.550542 1_555
O14 P2 1.550542 1_555
O15 P3 1.550542 1_555
O16 P4 1.568184 1_555
O17 P5 1.568184 1_555
O18 P6 1.568184 1_555
O19 P7 1.568184 1_555
O20 P4 1.547334 1_555
O21 P5 1.547334 1_565
O22 P6 1.547334 1_655
O23 P7 1.547334 1_465
O24 P4 1.558320 1_555
O25 P5 1.558320 1_555
O26 P6 1.558320 1_655
O27 P7 1.558320 1_455
O28 P4 1.553992 1_555
O29 P5 1.553992 1_565
O30 P6 1.553992 1_555
O31 P7 1.553992 1_565
F0 Fe4 1.978685 1_555
F0 Fe0 2.027609 1_555
F1 Fe5 1.978685 1_555
F1 Fe1 2.027609 1_555
F2 Fe6 1.978685 1_555
F2 Fe2 2.027609 1_555
F3 Fe7 1.978685 1_555
F3 Fe3 2.027609 1_555
F4 Fe4 2.011781 1_555
F4 Fe3 2.038319 1_455
F5 Fe5 2.011781 1_555
F5 Fe2 2.038319 1_665
F6 Fe6 2.011781 1_555
F6 Fe1 2.038319 1_555
F7 Fe7 2.011781 1_555
F7 Fe0 2.038319 1_565
