# generated using pymatgen
data_RbIn(MoO4)2
_symmetry_space_group_name_H-M   'P 1'
_cell_length_a   5.84758094
_cell_length_b   5.84758094
_cell_length_c   7.58803753
_cell_angle_alpha   90.00000000
_cell_angle_beta   90.00000000
_cell_angle_gamma   120.00000224
_symmetry_Int_Tables_number   1
_chemical_formula_structural   RbIn(MoO4)2
_chemical_formula_sum   'Rb1 In1 Mo2 O8'
_cell_volume   224.70491687
_cell_formula_units_Z   1
loop_
 _symmetry_equiv_pos_site_id
 _symmetry_equiv_pos_as_xyz
  1  'x, y, z'
loop_
 _atom_site_type_symbol
 _atom_site_label
 _atom_site_symmetry_multiplicity
 _atom_site_fract_x
 _atom_site_fract_y
 _atom_site_fract_z
 _atom_site_occupancy
  Rb  Rb0  1  -0.00000000  0.00000000  0.50000000  1
  In  In0  1  -0.00000000  0.00000000  0.00000000  1
  Mo  Mo0  1  0.66666700  0.33333300  0.75496989  1
  Mo  Mo1  1  0.33333300  0.66666700  0.24503011  1
  O  O0  1  0.33366879  0.16683490  0.82863503  1
  O  O1  1  0.83316510  0.16683490  0.82863503  1
  O  O2  1  0.83316510  0.66633121  0.82863503  1
  O  O3  1  0.16683490  0.83316510  0.17136497  1
  O  O4  1  0.33333300  0.66666700  0.47148671  1
  O  O5  1  0.66666700  0.33333300  0.52851329  1
  O  O6  1  0.16683490  0.33366879  0.17136497  1
  O  O7  1  0.66633121  0.83316510  0.17136497  1
loop_
_geom_bond_atom_site_label_1
_geom_bond_atom_site_label_2
_geom_bond_distance
_geom_bond_site_symmetry_2
In0 O2 2.132158 1_444
In0 O7 2.132158 1_445
In0 O0 2.132158 1_554
In0 O6 2.132158 1_555
In0 O3 2.132162 1_545
In0 O1 2.132162 1_454
Mo0 O5 1.718361 1_555
Mo0 O1 1.776572 1_555
Mo0 O0 1.776581 1_555
Mo0 O2 1.776581 1_555
Mo1 O4 1.718361 1_555
Mo1 O3 1.776572 1_555
Mo1 O6 1.776581 1_555
Mo1 O7 1.776581 1_555
O0 Rb0 3.012270 1_555
O1 Rb0 3.012273 1_655
O2 Rb0 3.012270 1_665
O3 Rb0 3.012273 1_565
O4 Rb0 3.383025 1_565
O4 Rb0 3.383030 1_555
O4 Rb0 3.383030 1_665
O5 Rb0 3.383025 1_655
O5 Rb0 3.383030 1_665
O5 Rb0 3.383030 1_555
O6 Rb0 3.012270 1_555
O7 Rb0 3.012270 1_665
