# generated using pymatgen
data_KNa2Y(Si2O5)3
_symmetry_space_group_name_H-M   'P 1'
_cell_length_a   10.24037440
_cell_length_b   10.24037440
_cell_length_c   10.24037440
_cell_angle_alpha   130.01227541
_cell_angle_beta   116.67647103
_cell_angle_gamma   84.72685876
_symmetry_Int_Tables_number   1
_chemical_formula_structural   KNa2Y(Si2O5)3
_chemical_formula_sum   'K2 Na4 Y2 Si12 O30'
_cell_volume   703.90305061
_cell_formula_units_Z   2
loop_
 _symmetry_equiv_pos_site_id
 _symmetry_equiv_pos_as_xyz
  1  'x, y, z'
loop_
 _atom_site_type_symbol
 _atom_site_label
 _atom_site_symmetry_multiplicity
 _atom_site_fract_x
 _atom_site_fract_y
 _atom_site_fract_z
 _atom_site_occupancy
  K  K0  1  0.43001300  0.25000000  0.18001300  1
  K  K1  1  0.56998700  0.75000000  0.81998700  1
  Na  Na0  1  0.75656300  0.75656300  0.50000000  1
  Na  Na1  1  0.24343700  0.24343700  0.50000000  1
  Na  Na2  1  0.75656300  0.25656300  0.00000000  1
  Na  Na3  1  0.24343700  0.74343700  0.00000000  1
  Y  Y0  1  0.50000000  0.50000000  0.00000000  1
  Y  Y1  1  0.00000000  0.00000000  0.00000000  1
  Si  Si0  1  0.38396700  0.02612900  0.70191500  1
  Si  Si1  1  0.06591500  0.35001200  0.71590300  1
  Si  Si2  1  0.17578600  0.81794800  0.70191500  1
  Si  Si3  1  0.13410900  0.85001200  0.28409700  1
  Si  Si4  1  0.86589100  0.14998800  0.71590300  1
  Si  Si5  1  0.61603300  0.31794800  0.64216200  1
  Si  Si6  1  0.61603300  0.97387100  0.29808500  1
  Si  Si7  1  0.93408500  0.64998800  0.28409700  1
  Si  Si8  1  0.82421400  0.52612900  0.64216200  1
  Si  Si9  1  0.82421400  0.18205200  0.29808500  1
  Si  Si10  1  0.38396700  0.68205200  0.35783800  1
  Si  Si11  1  0.17578600  0.47387100  0.35783800  1
  O  O0  1  0.83035900  0.72250300  0.72565600  1
  O  O1  1  0.23836000  0.01355100  0.52974900  1
  O  O2  1  0.16964100  0.27749700  0.27434400  1
  O  O3  1  0.75588300  0.57255400  0.18332900  1
  O  O4  1  0.23836000  0.70861100  0.22480900  1
  O  O5  1  0.50315300  0.39529700  0.72565600  1
  O  O6  1  0.31925900  0.95586800  0.77512800  1
  O  O7  1  0.50315300  0.77749700  0.10785600  1
  O  O8  1  0.88922500  0.07255400  0.81667100  1
  O  O9  1  0.01619800  0.48644900  0.22480900  1
  O  O10  1  0.68074100  0.04413200  0.22487200  1
  O  O11  1  0.24411700  0.42744600  0.81667100  1
  O  O12  1  0.83035900  0.10470300  0.10785600  1
  O  O13  1  0.76164000  0.29138900  0.77519100  1
  O  O14  1  0.49684700  0.60470300  0.27434400  1
  O  O15  1  0.53014600  0.12118200  0.40896400  1
  O  O16  1  0.76164000  0.98644900  0.47025100  1
  O  O17  1  0.21221800  0.62118200  0.59103600  1
  O  O18  1  0.49684700  0.22250300  0.89214400  1
  O  O19  1  0.68074100  0.45586800  0.63660900  1
  O  O20  1  0.02499000  0.25000000  0.77499000  1
  O  O21  1  0.16964100  0.89529700  0.89214400  1
  O  O22  1  0.31925900  0.54413200  0.36339100  1
  O  O23  1  0.97501000  0.75000000  0.22501000  1
  O  O24  1  0.98380200  0.20861100  0.47025100  1
  O  O25  1  0.01619800  0.79138900  0.52974900  1
  O  O26  1  0.98380200  0.51355100  0.77519100  1
  O  O27  1  0.78778200  0.37881800  0.40896400  1
  O  O28  1  0.11077500  0.92744600  0.18332900  1
  O  O29  1  0.46985400  0.87881800  0.59103600  1
loop_
_geom_bond_atom_site_label_1
_geom_bond_atom_site_label_2
_geom_bond_distance
_geom_bond_site_symmetry_2
K0 O6 2.810000 1_544
K0 O22 2.810006 1_555
K0 O15 3.139782 1_555
K0 O27 3.139782 1_555
K0 O18 3.153806 1_554
K0 O2 3.153806 1_555
K0 O14 3.153806 1_555
K0 O21 3.153806 1_544
K0 O10 3.230951 1_555
K0 O19 3.230953 1_555
K1 O10 2.810000 1_566
K1 O19 2.810006 1_555
K1 O29 3.139782 1_555
K1 O17 3.139782 1_555
K1 O5 3.153806 1_555
K1 O7 3.153806 1_556
K1 O0 3.153806 1_555
K1 O12 3.153806 1_566
K1 O6 3.230951 1_555
K1 O22 3.230953 1_555
Na0 O0 2.335063 1_555
Na0 O14 2.335063 1_555
Na0 O3 2.488220 1_555
Na0 O8 2.488220 1_565
Na0 O25 2.568327 1_655
Na0 O16 2.568327 1_555
Na1 O5 2.335063 1_555
Na1 O2 2.335063 1_555
Na1 O11 2.488220 1_555
Na1 O28 2.488220 1_545
Na1 O1 2.568327 1_555
Na1 O24 2.568327 1_455
Na2 O12 2.335063 1_555
Na2 O18 2.335063 1_554
Na2 O8 2.488220 1_554
Na2 O3 2.488220 1_555
Na2 O9 2.568327 1_655
Na2 O13 2.568327 1_554
Na3 O21 2.335063 1_554
Na3 O7 2.335063 1_555
Na3 O11 2.488220 1_554
Na3 O28 2.488220 1_555
Na3 O26 2.568327 1_454
Na3 O4 2.568327 1_555
O0 Si8 1.594645 1_555
O0 Y1 2.290188 1_666
O1 Si0 1.652593 1_555
O1 Si3 1.665049 1_545
O2 Si11 1.594645 1_555
O2 Y1 2.290188 1_555
O3 Si7 1.595825 1_555
O3 Y0 2.256061 1_555
O4 Si10 1.652593 1_555
O4 Si3 1.665049 1_555
O5 Si5 1.594645 1_555
O5 Y0 2.290188 1_556
O6 Si2 1.657157 1_555
O6 Si0 1.657171 1_565
O7 Si6 1.594645 1_555
O7 Y0 2.290188 1_555
O8 Si4 1.595825 1_555
O8 Y1 2.256061 1_656
O9 Si11 1.652593 1_555
O9 Si7 1.665049 1_455
O10 Si9 1.657157 1_555
O10 Si6 1.657171 1_545
O11 Si1 1.595825 1_555
O11 Y0 2.256061 1_556
O12 Si9 1.594645 1_555
O12 Y1 2.290188 1_655
O13 Si5 1.652593 1_555
O13 Si4 1.665049 1_555
O14 Si10 1.594645 1_555
O14 Y0 2.290188 1_555
O15 Si5 1.669933 1_555
O15 Si6 1.669933 1_545
O16 Si6 1.652593 1_555
O16 Si4 1.665049 1_565
O17 Si2 1.669933 1_555
O17 Si11 1.669933 1_555
O18 Si0 1.594645 1_555
O18 Y0 2.290188 1_556
O19 Si8 1.657162 1_555
O19 Si5 1.657162 1_555
O20 Si1 1.641371 1_555
O20 Si4 1.641371 1_455
O21 Si2 1.594645 1_555
O21 Y1 2.290188 1_566
O22 Si11 1.657162 1_555
O22 Si10 1.657162 1_555
O23 Si3 1.641371 1_655
O23 Si7 1.641371 1_555
O24 Si9 1.652593 1_555
O24 Si1 1.665049 1_655
O25 Si2 1.652593 1_555
O25 Si7 1.665049 1_455
O26 Si8 1.652593 1_555
O26 Si1 1.665049 1_655
O27 Si8 1.669933 1_555
O27 Si9 1.669933 1_555
O28 Si3 1.595825 1_555
O28 Y1 2.256061 1_565
O29 Si0 1.669933 1_565
O29 Si10 1.669933 1_555
