# generated using pymatgen
data_ZnS
_symmetry_space_group_name_H-M   'P 1'
_cell_length_a   12.65013598
_cell_length_b   12.65013598
_cell_length_c   12.65013742
_cell_angle_alpha   17.31324284
_cell_angle_beta   17.31324284
_cell_angle_gamma   17.31324156
_symmetry_Int_Tables_number   1
_chemical_formula_structural   ZnS
_chemical_formula_sum   'Zn4 S4'
_cell_volume   156.44462063
_cell_formula_units_Z   4
loop_
 _symmetry_equiv_pos_site_id
 _symmetry_equiv_pos_as_xyz
  1  'x, y, z'
loop_
 _atom_site_type_symbol
 _atom_site_label
 _atom_site_symmetry_multiplicity
 _atom_site_fract_x
 _atom_site_fract_y
 _atom_site_fract_z
 _atom_site_occupancy
  Zn  Zn0  1  0.41665005  0.41665005  0.41665005  1
  Zn  Zn1  1  0.00005210  0.00005210  0.00005210  1
  Zn  Zn2  1  0.58339023  0.58339023  0.58339023  1
  Zn  Zn3  1  0.83331579  0.83331579  0.83331579  1
  S  S0  1  0.64591735  0.64591735  0.64591735  1
  S  S1  1  0.89583666  0.89583666  0.89583666  1
  S  S2  1  0.47909953  0.47909953  0.47909953  1
  S  S3  1  0.06250529  0.06250529  0.06250529  1
loop_
_geom_bond_atom_site_label_1
_geom_bond_atom_site_label_2
_geom_bond_distance
_geom_bond_site_symmetry_2
S0 Zn1 2.331951 1_665
S0 Zn1 2.331951 1_566
S0 Zn1 2.331951 1_656
S0 Zn2 2.336817 1_555
S1 Zn2 2.333018 1_565
S1 Zn2 2.333018 1_655
S1 Zn2 2.333019 1_556
S1 Zn3 2.336584 1_555
S2 Zn3 2.332968 1_554
S2 Zn3 2.332969 1_545
S2 Zn3 2.332969 1_455
S2 Zn0 2.333916 1_555
S3 Zn0 2.332076 1_554
S3 Zn0 2.332076 1_545
S3 Zn0 2.332076 1_455
S3 Zn1 2.334055 1_555
