# generated using pymatgen
data_Mn3As2
_symmetry_space_group_name_H-M   'P 1'
_cell_length_a   6.74731069
_cell_length_b   6.74731069
_cell_length_c   12.87303400
_cell_angle_alpha   90.00000000
_cell_angle_beta   90.00000000
_cell_angle_gamma   150.56113701
_symmetry_Int_Tables_number   1
_chemical_formula_structural   Mn3As2
_chemical_formula_sum   'Mn12 As8'
_cell_volume   288.04547747
_cell_formula_units_Z   4
loop_
 _symmetry_equiv_pos_site_id
 _symmetry_equiv_pos_as_xyz
  1  'x, y, z'
loop_
 _atom_site_type_symbol
 _atom_site_label
 _atom_site_symmetry_multiplicity
 _atom_site_fract_x
 _atom_site_fract_y
 _atom_site_fract_z
 _atom_site_occupancy
  Mn  Mn0  1  0.82730300  0.17269700  0.89335700  1
  Mn  Mn1  1  0.44180300  0.55819700  0.13257800  1
  Mn  Mn2  1  0.03039100  0.96960900  0.81298700  1
  Mn  Mn3  1  0.76672300  0.23327700  0.17879000  1
  Mn  Mn4  1  0.62888000  0.37112000  0.97990800  1
  Mn  Mn5  1  0.23327700  0.76672300  0.67879000  1
  Mn  Mn6  1  0.89111900  0.10888100  0.63921800  1
  Mn  Mn7  1  0.37112000  0.62888000  0.47990800  1
  Mn  Mn8  1  0.17269700  0.82730300  0.39335700  1
  Mn  Mn9  1  0.96960900  0.03039100  0.31298700  1
  Mn  Mn10  1  0.10888100  0.89111900  0.13921800  1
  Mn  Mn11  1  0.55819700  0.44180300  0.63257800  1
  As  As0  1  0.73491700  0.26508300  0.53064200  1
  As  As1  1  0.26508300  0.73491700  0.03064200  1
  As  As2  1  0.59705300  0.40294700  0.26795400  1
  As  As3  1  0.66212700  0.33787300  0.79782900  1
  As  As4  1  0.40294700  0.59705300  0.76795400  1
  As  As5  1  0.99028400  0.00971600  0.99673500  1
  As  As6  1  0.33787300  0.66212700  0.29782900  1
  As  As7  1  0.00971600  0.99028400  0.49673500  1
loop_
_geom_bond_atom_site_label_1
_geom_bond_atom_site_label_2
_geom_bond_distance
_geom_bond_site_symmetry_2
As0 Mn6 2.471823 1_555
As0 Mn7 2.554578 1_545
As0 Mn7 2.554578 1_655
As0 Mn5 2.564508 1_655
As0 Mn5 2.564508 1_545
As0 Mn8 2.592661 1_545
As0 Mn8 2.592661 1_655
As0 Mn11 2.653658 1_555
As1 Mn10 2.471823 1_555
As1 Mn4 2.554578 1_454
As1 Mn4 2.554578 1_564
As1 Mn3 2.564508 1_565
As1 Mn3 2.564508 1_455
As1 Mn0 2.592661 1_454
As1 Mn0 2.592661 1_564
As1 Mn1 2.653658 1_555
As2 Mn10 2.389430 1_655
As2 Mn10 2.389430 1_545
As2 Mn9 2.458051 1_565
As2 Mn9 2.458051 1_455
As2 Mn3 2.494281 1_555
As2 Mn8 2.553412 1_655
As2 Mn8 2.553412 1_545
As2 Mn1 2.672607 1_555
As3 Mn4 2.383738 1_555
As3 Mn2 2.435881 1_655
As3 Mn2 2.435881 1_545
As3 Mn5 2.479868 1_655
As3 Mn5 2.479868 1_545
As3 Mn0 2.481910 1_555
As3 Mn11 2.522961 1_555
As4 Mn6 2.389430 1_565
As4 Mn6 2.389430 1_455
As4 Mn2 2.458051 1_655
As4 Mn2 2.458051 1_545
As4 Mn5 2.494281 1_555
As4 Mn0 2.553412 1_565
As4 Mn0 2.553412 1_455
As4 Mn11 2.672607 1_555
As5 Mn10 2.400049 1_646
As5 Mn2 2.422624 1_645
As5 Mn4 2.501654 1_545
As5 Mn4 2.501654 1_655
As5 Mn0 2.509168 1_555
As5 Mn1 2.529335 1_546
As5 Mn1 2.529335 1_656
As6 Mn7 2.383738 1_555
As6 Mn9 2.435881 1_565
As6 Mn9 2.435881 1_455
As6 Mn3 2.479868 1_565
As6 Mn3 2.479868 1_455
As6 Mn8 2.481910 1_555
As6 Mn1 2.522961 1_555
As7 Mn6 2.400049 1_465
As7 Mn9 2.422624 1_465
As7 Mn7 2.501654 1_455
As7 Mn7 2.501654 1_565
As7 Mn8 2.509168 1_555
As7 Mn11 2.529335 1_455
As7 Mn11 2.529335 1_565
