# generated using pymatgen
data_NaNdH2S2O9
_symmetry_space_group_name_H-M   'P 1'
_cell_length_a   7.06421196
_cell_length_b   7.06421196
_cell_length_c   12.97756300
_cell_angle_alpha   90.00000000
_cell_angle_beta   90.00000000
_cell_angle_gamma   119.99999960
_symmetry_Int_Tables_number   1
_chemical_formula_structural   NaNdH2S2O9
_chemical_formula_sum   'Na3 Nd3 H6 S6 O27'
_cell_volume   560.85580885
_cell_formula_units_Z   3
loop_
 _symmetry_equiv_pos_site_id
 _symmetry_equiv_pos_as_xyz
  1  'x, y, z'
loop_
 _atom_site_type_symbol
 _atom_site_label
 _atom_site_symmetry_multiplicity
 _atom_site_fract_x
 _atom_site_fract_y
 _atom_site_fract_z
 _atom_site_occupancy
  Na  Na0  1  0.52690700  0.52690700  0.50000000  1
  Na  Na1  1  0.47309300  0.00000000  0.83333300  1
  Na  Na2  1  0.00000000  0.47309300  0.16666700  1
  Nd  Nd0  1  0.43838400  0.00000000  0.33333300  1
  Nd  Nd1  1  0.00000000  0.43838400  0.66666700  1
  Nd  Nd2  1  0.56161600  0.56161600  0.00000000  1
  H  H0  1  0.05150700  0.09577900  0.37324400  1
  H  H1  1  0.09577900  0.05150700  0.62675600  1
  H  H2  1  0.95572800  0.90422100  0.29342300  1
  H  H3  1  0.94849300  0.04427200  0.96008900  1
  H  H4  1  0.90422100  0.95572800  0.70657700  1
  H  H5  1  0.04427200  0.94849300  0.03991100  1
  S  S0  1  0.45369400  0.01104900  0.08990300  1
  S  S1  1  0.55735500  0.54630600  0.75656900  1
  S  S2  1  0.98895100  0.44264500  0.42323600  1
  S  S3  1  0.01104900  0.45369400  0.91009700  1
  S  S4  1  0.44264500  0.98895100  0.57676400  1
  S  S5  1  0.54630600  0.55735500  0.24343100  1
  O  O0  1  0.48881900  0.35855800  0.82879100  1
  O  O1  1  0.00000000  0.08638000  0.66666700  1
  O  O2  1  0.61235400  0.74019300  0.82366900  1
  O  O3  1  0.91362000  0.91362000  0.00000000  1
  O  O4  1  0.08638000  0.00000000  0.33333300  1
  O  O5  1  0.12783900  0.38764600  0.49033600  1
  O  O6  1  0.41010200  0.16418200  0.02946500  1
  O  O7  1  0.38192200  0.50694300  0.68231900  1
  O  O8  1  0.50694300  0.38192200  0.31768100  1
  O  O9  1  0.86974000  0.51118100  0.49545800  1
  O  O10  1  0.35855800  0.48881900  0.17120900  1
  O  O11  1  0.58989800  0.75408000  0.30386900  1
  O  O12  1  0.74019300  0.61235400  0.17633100  1
  O  O13  1  0.75408000  0.58989800  0.69613100  1
  O  O14  1  0.49305700  0.87497900  0.01565200  1
  O  O15  1  0.83581800  0.24592000  0.36279800  1
  O  O16  1  0.51118100  0.86974000  0.50454200  1
  O  O17  1  0.61807800  0.12502100  0.65101500  1
  O  O18  1  0.12502100  0.61807800  0.34898500  1
  O  O19  1  0.64144200  0.13026000  0.16212500  1
  O  O20  1  0.13026000  0.64144200  0.83787500  1
  O  O21  1  0.24592000  0.83581800  0.63720200  1
  O  O22  1  0.16418200  0.41010200  0.97053500  1
  O  O23  1  0.87216100  0.25980700  0.84299800  1
  O  O24  1  0.38764600  0.12783900  0.50966400  1
  O  O25  1  0.87497900  0.49305700  0.98434800  1
  O  O26  1  0.25980700  0.87216100  0.15700200  1
loop_
_geom_bond_atom_site_label_1
_geom_bond_atom_site_label_2
_geom_bond_distance
_geom_bond_site_symmetry_2
Na0 O16 2.479959 1_555
Na0 O9 2.479959 1_555
Na0 O24 2.481434 1_555
Na0 O5 2.481434 1_555
Na0 O8 2.553951 1_555
Na0 O7 2.553951 1_555
Na0 O13 2.921959 1_555
Na0 O11 2.921959 1_555
Na1 O0 2.479952 1_555
Na1 O20 2.479955 1_545
Na1 O2 2.481434 1_545
Na1 O23 2.481435 1_555
Na1 O17 2.553939 1_555
Na1 O14 2.553951 1_546
Na1 O21 2.921959 1_545
Na1 O6 2.921970 1_556
Na2 O10 2.479952 1_555
Na2 O19 2.479955 1_455
Na2 O12 2.481434 1_455
Na2 O26 2.481435 1_555
Na2 O18 2.553939 1_555
Na2 O25 2.553951 1_454
Na2 O15 2.921959 1_455
Na2 O22 2.921970 1_554
Nd0 O11 2.483784 1_545
Nd0 O15 2.483786 1_555
Nd0 O4 2.486631 1_555
Nd0 O8 2.499647 1_555
Nd0 O18 2.499647 1_545
Nd0 O24 2.550341 1_555
Nd0 O26 2.550341 1_545
Nd0 O19 2.553643 1_555
Nd0 O16 2.553651 1_545
Nd1 O13 2.483784 1_455
Nd1 O21 2.483786 1_555
Nd1 O1 2.486631 1_555
Nd1 O7 2.499647 1_555
Nd1 O17 2.499647 1_455
Nd1 O5 2.550341 1_555
Nd1 O23 2.550341 1_455
Nd1 O20 2.553643 1_555
Nd1 O9 2.553651 1_455
Nd2 O6 2.483786 1_555
Nd2 O22 2.483786 1_554
Nd2 O3 2.486631 1_555
Nd2 O25 2.499647 1_554
Nd2 O14 2.499647 1_555
Nd2 O12 2.550341 1_555
Nd2 O2 2.550341 1_554
Nd2 O10 2.553655 1_555
Nd2 O0 2.553655 1_554
H0 O4 0.976438 1_555
H1 O1 0.976438 1_555
H2 O4 0.976431 1_665
H3 O3 0.976438 1_546
H4 O1 0.976431 1_665
H5 O3 0.976438 1_455
O0 S1 1.493249 1_555
O2 S1 1.501018 1_555
O5 S2 1.501018 1_455
O6 S0 1.487733 1_555
O7 S1 1.482249 1_555
O8 S5 1.482249 1_555
O9 S2 1.493244 1_555
O10 S5 1.493249 1_555
O11 S5 1.487733 1_555
O12 S5 1.501018 1_555
O13 S1 1.487733 1_555
O14 S0 1.482257 1_565
O15 S2 1.487733 1_555
O16 S4 1.493244 1_555
O17 S4 1.482257 1_545
O18 S2 1.482257 1_455
O19 S0 1.493248 1_555
O20 S3 1.493248 1_555
O21 S4 1.487733 1_555
O22 S3 1.487733 1_555
O23 S3 1.501010 1_655
O24 S4 1.501018 1_545
O25 S3 1.482257 1_655
O26 S0 1.501010 1_565
