# generated using pymatgen
data_Nd2Te3MoO12
_symmetry_space_group_name_H-M   'P 1'
_cell_length_a   5.39578600
_cell_length_b   11.42417800
_cell_length_c   18.25076200
_cell_angle_alpha   90.00000000
_cell_angle_beta   90.00000000
_cell_angle_gamma   90.00000000
_symmetry_Int_Tables_number   1
_chemical_formula_structural   Nd2Te3MoO12
_chemical_formula_sum   'Nd8 Te12 Mo4 O48'
_cell_volume   1125.02113130
_cell_formula_units_Z   4
loop_
 _symmetry_equiv_pos_site_id
 _symmetry_equiv_pos_as_xyz
  1  'x, y, z'
loop_
 _atom_site_type_symbol
 _atom_site_label
 _atom_site_symmetry_multiplicity
 _atom_site_fract_x
 _atom_site_fract_y
 _atom_site_fract_z
 _atom_site_occupancy
  Nd  Nd0  1  0.25635300  0.92289100  0.93747100  1
  Nd  Nd1  1  0.75635300  0.42289100  0.56252900  1
  Nd  Nd2  1  0.74364700  0.42289100  0.06252900  1
  Nd  Nd3  1  0.74364700  0.07710900  0.06252900  1
  Nd  Nd4  1  0.75635300  0.07710900  0.56252900  1
  Nd  Nd5  1  0.24364700  0.92289100  0.43747100  1
  Nd  Nd6  1  0.25635300  0.57710900  0.93747100  1
  Nd  Nd7  1  0.24364700  0.57710900  0.43747100  1
  Te  Te0  1  0.22694400  0.58881200  0.16942500  1
  Te  Te1  1  0.71367700  0.75000000  0.54631300  1
  Te  Te2  1  0.21367700  0.25000000  0.95368700  1
  Te  Te3  1  0.72694400  0.41118800  0.33057500  1
  Te  Te4  1  0.78632300  0.75000000  0.04631300  1
  Te  Te5  1  0.27305600  0.58881200  0.66942500  1
  Te  Te6  1  0.27305600  0.91118800  0.66942500  1
  Te  Te7  1  0.77305600  0.08881200  0.83057500  1
  Te  Te8  1  0.77305600  0.41118800  0.83057500  1
  Te  Te9  1  0.22694400  0.91118800  0.16942500  1
  Te  Te10  1  0.72694400  0.08881200  0.33057500  1
  Te  Te11  1  0.28632300  0.25000000  0.45368700  1
  Mo  Mo0  1  0.74121500  0.75000000  0.31923100  1
  Mo  Mo1  1  0.25878500  0.25000000  0.68076900  1
  Mo  Mo2  1  0.75878500  0.75000000  0.81923100  1
  Mo  Mo3  1  0.24121500  0.25000000  0.18076900  1
  O  O0  1  0.51637200  0.25000000  0.53460000  1
  O  O1  1  0.95352100  0.87927400  0.82831200  1
  O  O2  1  0.60571700  0.61736100  0.00990100  1
  O  O3  1  0.35665600  0.25000000  0.27080000  1
  O  O4  1  0.98362800  0.25000000  0.03460000  1
  O  O5  1  0.96738400  0.98480000  0.65930600  1
  O  O6  1  0.04647900  0.12072600  0.17168800  1
  O  O7  1  0.39428300  0.11736100  0.99009900  1
  O  O8  1  0.54647900  0.87927400  0.32831200  1
  O  O9  1  0.41585200  0.93306000  0.57365500  1
  O  O10  1  0.51786400  0.25000000  0.12226600  1
  O  O11  1  0.60571700  0.88263900  0.00990100  1
  O  O12  1  0.01786400  0.75000000  0.37773400  1
  O  O13  1  0.58414800  0.06694000  0.42634500  1
  O  O14  1  0.46738400  0.48480000  0.84069400  1
  O  O15  1  0.14672400  0.75000000  0.64422600  1
  O  O16  1  0.39428300  0.38263900  0.99009900  1
  O  O17  1  0.41585200  0.56694000  0.57365500  1
  O  O18  1  0.54647900  0.62072600  0.32831200  1
  O  O19  1  0.04647900  0.37927400  0.17168800  1
  O  O20  1  0.03261600  0.48480000  0.34069400  1
  O  O21  1  0.64334400  0.75000000  0.72920000  1
  O  O22  1  0.91585200  0.43306000  0.92634500  1
  O  O23  1  0.89428300  0.88263900  0.50990100  1
  O  O24  1  0.14334400  0.25000000  0.77080000  1
  O  O25  1  0.03261600  0.01520000  0.34069400  1
  O  O26  1  0.53261600  0.51520000  0.15930600  1
  O  O27  1  0.08414800  0.56694000  0.07365500  1
  O  O28  1  0.45352100  0.37927400  0.67168800  1
  O  O29  1  0.10571700  0.11736100  0.49009900  1
  O  O30  1  0.46738400  0.01520000  0.84069400  1
  O  O31  1  0.10571700  0.38263900  0.49009900  1
  O  O32  1  0.53261600  0.98480000  0.15930600  1
  O  O33  1  0.85665600  0.75000000  0.22920000  1
  O  O34  1  0.45352100  0.12072600  0.67168800  1
  O  O35  1  0.95352100  0.62072600  0.82831200  1
  O  O36  1  0.98213600  0.25000000  0.62226600  1
  O  O37  1  0.91585200  0.06694000  0.92634500  1
  O  O38  1  0.89428300  0.61736100  0.50990100  1
  O  O39  1  0.85327600  0.25000000  0.35577400  1
  O  O40  1  0.64672400  0.25000000  0.85577400  1
  O  O41  1  0.48213600  0.75000000  0.87773400  1
  O  O42  1  0.35327600  0.75000000  0.14422600  1
  O  O43  1  0.01637200  0.75000000  0.96540000  1
  O  O44  1  0.96738400  0.51520000  0.65930600  1
  O  O45  1  0.08414800  0.93306000  0.07365500  1
  O  O46  1  0.58414800  0.43306000  0.42634500  1
  O  O47  1  0.48362800  0.75000000  0.46540000  1
loop_
_geom_bond_atom_site_label_1
_geom_bond_atom_site_label_2
_geom_bond_distance
_geom_bond_site_symmetry_2
Nd0 O11 2.347863 1_556
Nd0 O30 2.351239 1_565
Nd0 O43 2.416137 1_555
Nd0 O37 2.474860 1_465
Nd0 O7 2.532238 1_565
Nd0 O41 2.563982 1_555
Nd0 O1 2.624367 1_455
Nd0 O45 2.656011 1_556
Nd1 O31 2.347863 1_655
Nd1 O44 2.351239 1_555
Nd1 O0 2.416137 1_555
Nd1 O17 2.474860 1_555
Nd1 O38 2.532238 1_555
Nd1 O36 2.563982 1_555
Nd1 O28 2.624367 1_555
Nd1 O46 2.656011 1_555
Nd2 O16 2.347863 1_554
Nd2 O26 2.351239 1_555
Nd2 O4 2.416137 1_555
Nd2 O27 2.474860 1_655
Nd2 O2 2.532238 1_555
Nd2 O10 2.563982 1_555
Nd2 O19 2.624367 1_655
Nd2 O22 2.656011 1_554
Nd3 O7 2.347863 1_554
Nd3 O32 2.351239 1_545
Nd3 O4 2.416137 1_555
Nd3 O45 2.474860 1_645
Nd3 O11 2.532238 1_545
Nd3 O10 2.563982 1_555
Nd3 O6 2.624367 1_655
Nd3 O37 2.656011 1_554
Nd4 O29 2.347863 1_655
Nd4 O5 2.351239 1_545
Nd4 O0 2.416137 1_555
Nd4 O9 2.474860 1_545
Nd4 O23 2.532238 1_545
Nd4 O36 2.563982 1_555
Nd4 O34 2.624367 1_555
Nd4 O13 2.656011 1_555
Nd5 O23 2.347863 1_455
Nd5 O25 2.351239 1_565
Nd5 O47 2.416137 1_555
Nd5 O13 2.474860 1_565
Nd5 O29 2.532238 1_565
Nd5 O12 2.563982 1_555
Nd5 O8 2.624367 1_555
Nd5 O9 2.656011 1_555
Nd6 O2 2.347863 1_556
Nd6 O14 2.351239 1_555
Nd6 O43 2.416137 1_555
Nd6 O22 2.474860 1_455
Nd6 O16 2.532238 1_555
Nd6 O41 2.563982 1_555
Nd6 O35 2.624367 1_455
Nd6 O27 2.656011 1_556
Nd7 O38 2.347863 1_455
Nd7 O20 2.351239 1_555
Nd7 O47 2.416137 1_555
Nd7 O46 2.474860 1_555
Nd7 O31 2.532238 1_555
Nd7 O12 2.563982 1_555
Nd7 O18 2.624367 1_555
Nd7 O17 2.656011 1_555
Mo0 O33 1.757239 1_555
Mo0 O8 1.820065 1_555
Mo0 O18 1.820065 1_555
Mo0 O12 1.835294 1_655
Mo1 O24 1.757239 1_555
Mo1 O34 1.820065 1_555
Mo1 O28 1.820065 1_555
Mo1 O36 1.835294 1_455
Mo2 O21 1.757239 1_555
Mo2 O1 1.820065 1_555
Mo2 O35 1.820065 1_555
Mo2 O41 1.835294 1_555
Mo3 O3 1.757239 1_555
Mo3 O19 1.820065 1_555
Mo3 O6 1.820065 1_555
Mo3 O10 1.835294 1_555
O0 Te11 1.929126 1_555
O1 Te7 2.584603 1_565
O2 Te4 1.920261 1_555
O4 Te2 1.929126 1_654
O5 Te6 1.860548 1_655
O6 Te9 2.584603 1_545
O7 Te2 1.920261 1_555
O8 Te10 2.584603 1_565
O9 Te6 1.926439 1_555
O9 Te1 2.684221 1_555
O11 Te4 1.920261 1_555
O13 Te10 1.926439 1_555
O13 Te11 2.684221 1_555
O14 Te8 1.860548 1_555
O15 Te5 2.016698 1_555
O15 Te6 2.016698 1_555
O16 Te2 1.920261 1_555
O17 Te5 1.926439 1_555
O17 Te1 2.684221 1_555
O18 Te3 2.584603 1_555
O19 Te0 2.584603 1_555
O20 Te3 1.860548 1_455
O22 Te8 1.926439 1_555
O22 Te2 2.684221 1_655
O23 Te1 1.920261 1_555
O25 Te10 1.860548 1_455
O26 Te0 1.860548 1_555
O27 Te0 1.926439 1_555
O27 Te4 2.684221 1_455
O28 Te5 2.584603 1_555
O29 Te11 1.920261 1_555
O30 Te7 1.860548 1_555
O31 Te11 1.920261 1_555
O32 Te9 1.860548 1_555
O34 Te6 2.584603 1_545
O35 Te8 2.584603 1_555
O37 Te7 1.926439 1_555
O37 Te2 2.684221 1_655
O38 Te1 1.920261 1_555
O39 Te3 2.016698 1_555
O39 Te10 2.016698 1_555
O40 Te7 2.016698 1_555
O40 Te8 2.016698 1_555
O42 Te9 2.016698 1_555
O42 Te0 2.016698 1_555
O43 Te4 1.929126 1_456
O44 Te5 1.860548 1_655
O45 Te9 1.926439 1_555
O45 Te4 2.684221 1_455
O46 Te3 1.926439 1_555
O46 Te11 2.684221 1_555
O47 Te1 1.929126 1_555
