# generated using pymatgen
data_Mn11Si19
_symmetry_space_group_name_H-M   'P 1'
_cell_length_a   5.49093527
_cell_length_b   5.49093527
_cell_length_c   47.72219037
_cell_angle_alpha   90.00000000
_cell_angle_beta   90.00000000
_cell_angle_gamma   90.00000000
_symmetry_Int_Tables_number   1
_chemical_formula_structural   Mn11Si19
_chemical_formula_sum   'Mn44 Si76'
_cell_volume   1438.84170352
_cell_formula_units_Z   4
loop_
 _symmetry_equiv_pos_site_id
 _symmetry_equiv_pos_as_xyz
  1  'x, y, z'
loop_
 _atom_site_type_symbol
 _atom_site_label
 _atom_site_symmetry_multiplicity
 _atom_site_fract_x
 _atom_site_fract_y
 _atom_site_fract_z
 _atom_site_occupancy
  Mn  Mn0  1  0.00000000  0.50000000  0.52362585  1
  Mn  Mn1  1  0.00000000  0.50000000  0.43023076  1
  Mn  Mn2  1  0.50000000  0.00000000  0.11151863  1
  Mn  Mn3  1  0.50000000  0.50000000  0.95256019  1
  Mn  Mn4  1  0.50000000  0.00000000  0.56976924  1
  Mn  Mn5  1  0.50000000  0.50000000  0.77079706  1
  Mn  Mn6  1  0.50000000  0.00000000  0.47637415  1
  Mn  Mn7  1  0.00000000  0.50000000  0.70627545  1
  Mn  Mn8  1  0.50000000  0.00000000  0.93023076  1
  Mn  Mn9  1  0.00000000  0.50000000  0.61151863  1
  Mn  Mn10  1  0.50000000  0.00000000  0.29372455  1
  Mn  Mn11  1  0.50000000  0.00000000  0.84111985  1
  Mn  Mn12  1  0.00000000  0.00000000  0.91003645  1
  Mn  Mn13  1  0.00000000  0.00000000  0.45256019  1
  Mn  Mn14  1  0.00000000  0.50000000  0.79372455  1
  Mn  Mn15  1  0.00000000  0.00000000  0.27079706  1
  Mn  Mn16  1  0.50000000  0.50000000  0.58996355  1
  Mn  Mn17  1  0.50000000  0.50000000  0.04743981  1
  Mn  Mn18  1  0.00000000  0.00000000  0.00000000  1
  Mn  Mn19  1  0.00000000  0.00000000  0.72920294  1
  Mn  Mn20  1  0.50000000  0.50000000  0.13512452  1
  Mn  Mn21  1  0.50000000  0.00000000  0.38848137  1
  Mn  Mn22  1  0.50000000  0.50000000  0.86487548  1
  Mn  Mn23  1  0.50000000  0.50000000  0.22920294  1
  Mn  Mn24  1  0.00000000  0.50000000  0.34111985  1
  Mn  Mn25  1  0.00000000  0.50000000  0.06976924  1
  Mn  Mn26  1  0.50000000  0.00000000  0.02362585  1
  Mn  Mn27  1  0.00000000  0.50000000  0.15888015  1
  Mn  Mn28  1  0.50000000  0.50000000  0.41003645  1
  Mn  Mn29  1  0.50000000  0.00000000  0.65888015  1
  Mn  Mn30  1  0.00000000  0.00000000  0.08996355  1
  Mn  Mn31  1  0.50000000  0.00000000  0.75000000  1
  Mn  Mn32  1  0.50000000  0.50000000  0.50000000  1
  Mn  Mn33  1  0.00000000  0.00000000  0.63512452  1
  Mn  Mn34  1  0.00000000  0.00000000  0.81760394  1
  Mn  Mn35  1  0.00000000  0.50000000  0.97637415  1
  Mn  Mn36  1  0.50000000  0.50000000  0.68239606  1
  Mn  Mn37  1  0.50000000  0.00000000  0.20627545  1
  Mn  Mn38  1  0.00000000  0.50000000  0.25000000  1
  Mn  Mn39  1  0.00000000  0.00000000  0.54743981  1
  Mn  Mn40  1  0.50000000  0.50000000  0.31760394  1
  Mn  Mn41  1  0.00000000  0.00000000  0.36487548  1
  Mn  Mn42  1  0.00000000  0.50000000  0.88848137  1
  Mn  Mn43  1  0.00000000  0.00000000  0.18239606  1
  Si  Si0  1  0.31983072  0.34220330  0.27489204  1
  Si  Si1  1  0.34695065  0.25877425  0.17168009  1
  Si  Si2  1  0.34705831  0.71772441  0.35678867  1
  Si  Si3  1  0.15364879  0.70428108  0.30055882  1
  Si  Si4  1  0.66553102  0.16553102  0.25000000  1
  Si  Si5  1  0.65986720  0.82586200  0.43327573  1
  Si  Si6  1  0.17413800  0.65986720  0.56672427  1
  Si  Si7  1  0.65306371  0.22941579  0.98574642  1
  Si  Si8  1  0.19547408  0.15409247  0.95851715  1
  Si  Si9  1  0.28227559  0.34705831  0.64321133  1
  Si  Si10  1  0.65294169  0.28227559  0.35678867  1
  Si  Si11  1  0.78227559  0.15294169  0.14321133  1
  Si  Si12  1  0.27058421  0.84693629  0.51425358  1
  Si  Si13  1  0.84013280  0.32586200  0.93327573  1
  Si  Si14  1  0.25877425  0.65304935  0.82831991  1
  Si  Si15  1  0.34437982  0.81188340  0.61673019  1
  Si  Si16  1  0.15294169  0.21772441  0.85678867  1
  Si  Si17  1  0.32586200  0.15986720  0.06672427  1
  Si  Si18  1  0.34590753  0.30452592  0.54148285  1
  Si  Si19  1  0.84635121  0.29571892  0.30055882  1
  Si  Si20  1  0.75877425  0.84695065  0.32831991  1
  Si  Si21  1  0.84590753  0.19547408  0.04148285  1
  Si  Si22  1  0.31188340  0.84437982  0.88326981  1
  Si  Si23  1  0.74122575  0.34695065  0.82831991  1
  Si  Si24  1  0.33782796  0.33032223  0.90830119  1
  Si  Si25  1  0.16553102  0.33446898  0.75000000  1
  Si  Si26  1  0.65409247  0.69547408  0.54148285  1
  Si  Si27  1  0.29571892  0.15364879  0.69944118  1
  Si  Si28  1  0.70428108  0.84635121  0.69944118  1
  Si  Si29  1  0.22941579  0.34693629  0.01425358  1
  Si  Si30  1  0.79571892  0.34635121  0.19944118  1
  Si  Si31  1  0.84705831  0.78227559  0.85678867  1
  Si  Si32  1  0.21772441  0.84705831  0.14321133  1
  Si  Si33  1  0.83032223  0.83782796  0.59169881  1
  Si  Si34  1  0.33032223  0.66217204  0.09169881  1
  Si  Si35  1  0.80452592  0.84590753  0.95851715  1
  Si  Si36  1  0.71772441  0.65294169  0.64321133  1
  Si  Si37  1  0.77058421  0.65306371  0.01425358  1
  Si  Si38  1  0.16217204  0.83032223  0.40830119  1
  Si  Si39  1  0.83782796  0.16967777  0.40830119  1
  Si  Si40  1  0.65364879  0.79571892  0.80055882  1
  Si  Si41  1  0.16967777  0.16217204  0.59169881  1
  Si  Si42  1  0.67413800  0.84013280  0.06672427  1
  Si  Si43  1  0.72941579  0.15306371  0.51425358  1
  Si  Si44  1  0.34635121  0.20428108  0.80055882  1
  Si  Si45  1  0.84437982  0.68811660  0.11673019  1
  Si  Si46  1  0.65562018  0.18811660  0.61673019  1
  Si  Si47  1  0.68811660  0.15562018  0.88326981  1
  Si  Si48  1  0.30452592  0.65409247  0.45851715  1
  Si  Si49  1  0.18811660  0.34437982  0.38326981  1
  Si  Si50  1  0.15304935  0.75877425  0.67168009  1
  Si  Si51  1  0.34693629  0.77058421  0.98574642  1
  Si  Si52  1  0.18016928  0.84220330  0.77489204  1
  Si  Si53  1  0.84220330  0.81983072  0.22510796  1
  Si  Si54  1  0.81983072  0.15779670  0.77489204  1
  Si  Si55  1  0.84693629  0.72941579  0.48574642  1
  Si  Si56  1  0.81188340  0.65562018  0.38326981  1
  Si  Si57  1  0.82586200  0.34013280  0.56672427  1
  Si  Si58  1  0.68016928  0.65779670  0.27489204  1
  Si  Si59  1  0.20428108  0.65364879  0.19944118  1
  Si  Si60  1  0.24122575  0.15304935  0.32831991  1
  Si  Si61  1  0.69547408  0.34590753  0.45851715  1
  Si  Si62  1  0.66967777  0.33782796  0.09169881  1
  Si  Si63  1  0.34013280  0.17413800  0.43327573  1
  Si  Si64  1  0.15562018  0.31188340  0.11673019  1
  Si  Si65  1  0.84695065  0.24122575  0.67168009  1
  Si  Si66  1  0.83446898  0.66553102  0.75000000  1
  Si  Si67  1  0.65304935  0.74122575  0.17168009  1
  Si  Si68  1  0.15779670  0.18016928  0.22510796  1
  Si  Si69  1  0.33446898  0.83446898  0.25000000  1
  Si  Si70  1  0.66217204  0.66967777  0.90830119  1
  Si  Si71  1  0.34220330  0.68016928  0.72510796  1
  Si  Si72  1  0.15986720  0.67413800  0.93327573  1
  Si  Si73  1  0.15306371  0.27058421  0.48574642  1
  Si  Si74  1  0.65779670  0.31983072  0.72510796  1
  Si  Si75  1  0.15409247  0.80452592  0.04148285  1
loop_
_geom_bond_atom_site_label_1
_geom_bond_atom_site_label_2
_geom_bond_distance
_geom_bond_site_symmetry_2
Mn0 Si26 2.342179 1_455
Mn0 Si18 2.342179 1_555
Mn0 Si73 2.358173 1_555
Mn0 Si55 2.358173 1_455
Mn0 Si6 2.432093 1_555
Mn0 Si57 2.432093 1_455
Mn0 Si43 2.456944 1_455
Mn0 Si12 2.456944 1_555
Mn1 Si39 2.275513 1_455
Mn1 Si38 2.275513 1_555
Mn1 Si61 2.309574 1_455
Mn1 Si48 2.309574 1_555
Mn1 Si63 2.590515 1_555
Mn1 Si5 2.590515 1_455
Mn1 Si49 2.611430 1_555
Mn1 Si56 2.611430 1_455
Mn2 Si34 2.281154 1_545
Mn2 Si62 2.281154 1_555
Mn2 Si32 2.322737 1_545
Mn2 Si11 2.322737 1_555
Mn2 Si42 2.500909 1_545
Mn2 Si17 2.500909 1_555
Mn2 Si64 2.563275 1_555
Mn2 Si45 2.563275 1_545
Mn3 Si72 2.291142 1_555
Mn3 Si13 2.291142 1_555
Mn3 Si51 2.328525 1_555
Mn3 Si7 2.328525 1_555
Mn3 Si70 2.474291 1_555
Mn3 Si24 2.474291 1_555
Mn3 Si8 2.546447 1_555
Mn3 Si35 2.546447 1_555
Mn4 Si41 2.275513 1_555
Mn4 Si33 2.275513 1_545
Mn4 Si18 2.309574 1_555
Mn4 Si26 2.309574 1_545
Mn4 Si57 2.590515 1_555
Mn4 Si6 2.590515 1_545
Mn4 Si46 2.611430 1_555
Mn4 Si15 2.611430 1_545
Mn5 Si66 2.276853 1_555
Mn5 Si25 2.276853 1_555
Mn5 Si44 2.316392 1_555
Mn5 Si40 2.316392 1_555
Mn5 Si71 2.546276 1_555
Mn5 Si74 2.546276 1_555
Mn5 Si52 2.579346 1_555
Mn5 Si54 2.579346 1_555
Mn6 Si61 2.342179 1_555
Mn6 Si48 2.342179 1_545
Mn6 Si12 2.358173 1_545
Mn6 Si43 2.358173 1_555
Mn6 Si5 2.432093 1_545
Mn6 Si63 2.432093 1_555
Mn6 Si55 2.456944 1_545
Mn6 Si73 2.456944 1_555
Mn7 Si71 2.305889 1_555
Mn7 Si74 2.305889 1_455
Mn7 Si50 2.334722 1_555
Mn7 Si65 2.334722 1_455
Mn7 Si66 2.450776 1_455
Mn7 Si25 2.450776 1_555
Mn7 Si27 2.521869 1_555
Mn7 Si28 2.521869 1_455
Mn8 Si70 2.275513 1_545
Mn8 Si24 2.275513 1_555
Mn8 Si35 2.309574 1_545
Mn8 Si8 2.309574 1_555
Mn8 Si72 2.590515 1_545
Mn8 Si13 2.590515 1_555
Mn8 Si22 2.611430 1_545
Mn8 Si47 2.611430 1_555
Mn9 Si33 2.281154 1_455
Mn9 Si41 2.281154 1_555
Mn9 Si9 2.322737 1_555
Mn9 Si36 2.322737 1_455
Mn9 Si6 2.500909 1_555
Mn9 Si57 2.500909 1_455
Mn9 Si15 2.563275 1_555
Mn9 Si46 2.563275 1_455
Mn10 Si0 2.305889 1_555
Mn10 Si58 2.305889 1_545
Mn10 Si20 2.334722 1_545
Mn10 Si60 2.334722 1_555
Mn10 Si69 2.450776 1_545
Mn10 Si4 2.450776 1_555
Mn10 Si3 2.521869 1_545
Mn10 Si19 2.521869 1_555
Mn11 Si16 2.370648 1_555
Mn11 Si31 2.370648 1_545
Mn11 Si40 2.390977 1_545
Mn11 Si44 2.390977 1_555
Mn11 Si23 2.399357 1_555
Mn11 Si14 2.399357 1_545
Mn11 Si47 2.417274 1_555
Mn11 Si22 2.417274 1_545
Mn12 Si72 2.280803 1_545
Mn12 Si13 2.280803 1_455
Mn12 Si22 2.300998 1_545
Mn12 Si47 2.300998 1_455
Mn12 Si24 2.595697 1_555
Mn12 Si70 2.595697 1_445
Mn13 Si63 2.291142 1_555
Mn13 Si5 2.291142 1_445
Mn13 Si73 2.328525 1_555
Mn13 Si55 2.328525 1_445
Mn13 Si39 2.474291 1_455
Mn13 Si38 2.474291 1_545
Mn13 Si48 2.546447 1_545
Mn13 Si61 2.546447 1_455
Mn14 Si52 2.305889 1_555
Mn14 Si54 2.305889 1_455
Mn14 Si14 2.334722 1_555
Mn14 Si23 2.334722 1_455
Mn14 Si66 2.450776 1_455
Mn14 Si25 2.450776 1_555
Mn14 Si40 2.521869 1_455
Mn14 Si44 2.521869 1_555
Mn15 Si4 2.276853 1_455
Mn15 Si69 2.276853 1_545
Mn15 Si19 2.316392 1_455
Mn15 Si3 2.316392 1_545
Mn15 Si68 2.546276 1_555
Mn15 Si53 2.546276 1_445
Mn15 Si0 2.579346 1_555
Mn15 Si58 2.579346 1_445
Mn16 Si6 2.280803 1_555
Mn16 Si57 2.280803 1_555
Mn16 Si15 2.300998 1_555
Mn16 Si46 2.300998 1_555
Mn16 Si33 2.595697 1_555
Mn16 Si41 2.595697 1_555
Mn17 Si42 2.291142 1_555
Mn17 Si17 2.291142 1_555
Mn17 Si29 2.328525 1_555
Mn17 Si37 2.328525 1_555
Mn17 Si34 2.474291 1_555
Mn17 Si62 2.474291 1_555
Mn17 Si75 2.546447 1_555
Mn17 Si21 2.546447 1_555
Mn18 Si51 2.382980 1_544
Mn18 Si7 2.382980 1_454
Mn18 Si29 2.382980 1_555
Mn18 Si37 2.382980 1_445
Mn18 Si35 2.405614 1_444
Mn18 Si8 2.405614 1_554
Mn18 Si75 2.405614 1_545
Mn18 Si21 2.405614 1_455
Mn19 Si66 2.276853 1_445
Mn19 Si25 2.276853 1_555
Mn19 Si28 2.316392 1_445
Mn19 Si27 2.316392 1_555
Mn19 Si54 2.546276 1_455
Mn19 Si52 2.546276 1_545
Mn19 Si74 2.579346 1_455
Mn19 Si71 2.579346 1_545
Mn20 Si64 2.326645 1_555
Mn20 Si45 2.326645 1_555
Mn20 Si1 2.346063 1_555
Mn20 Si67 2.346063 1_555
Mn20 Si34 2.440433 1_555
Mn20 Si62 2.440433 1_555
Mn20 Si32 2.486543 1_555
Mn20 Si11 2.486543 1_555
Mn21 Si38 2.281154 1_545
Mn21 Si39 2.281154 1_555
Mn21 Si10 2.322737 1_555
Mn21 Si2 2.322737 1_545
Mn21 Si5 2.500909 1_545
Mn21 Si63 2.500909 1_555
Mn21 Si56 2.563275 1_545
Mn21 Si49 2.563275 1_555
Mn22 Si47 2.326645 1_555
Mn22 Si22 2.326645 1_555
Mn22 Si14 2.346063 1_555
Mn22 Si23 2.346063 1_555
Mn22 Si70 2.440433 1_555
Mn22 Si24 2.440433 1_555
Mn22 Si31 2.486543 1_555
Mn22 Si16 2.486543 1_555
Mn23 Si4 2.276853 1_555
Mn23 Si69 2.276853 1_555
Mn23 Si59 2.316392 1_555
Mn23 Si30 2.316392 1_555
Mn23 Si0 2.546276 1_555
Mn23 Si58 2.546276 1_555
Mn23 Si53 2.579346 1_555
Mn23 Si68 2.579346 1_555
Mn24 Si10 2.370648 1_455
Mn24 Si2 2.370648 1_555
Mn24 Si19 2.390977 1_455
Mn24 Si3 2.390977 1_555
Mn24 Si20 2.399357 1_455
Mn24 Si60 2.399357 1_555
Mn24 Si49 2.417274 1_555
Mn24 Si56 2.417274 1_455
Mn25 Si62 2.275513 1_455
Mn25 Si34 2.275513 1_555
Mn25 Si21 2.309574 1_455
Mn25 Si75 2.309574 1_555
Mn25 Si17 2.590515 1_555
Mn25 Si42 2.590515 1_455
Mn25 Si45 2.611430 1_455
Mn25 Si64 2.611430 1_555
Mn26 Si21 2.342179 1_555
Mn26 Si75 2.342179 1_545
Mn26 Si51 2.358173 1_544
Mn26 Si7 2.358173 1_554
Mn26 Si42 2.432093 1_545
Mn26 Si17 2.432093 1_555
Mn26 Si29 2.456944 1_555
Mn26 Si37 2.456944 1_545
Mn27 Si11 2.370648 1_455
Mn27 Si32 2.370648 1_555
Mn27 Si30 2.390977 1_455
Mn27 Si59 2.390977 1_555
Mn27 Si1 2.399357 1_555
Mn27 Si67 2.399357 1_455
Mn27 Si45 2.417274 1_455
Mn27 Si64 2.417274 1_555
Mn28 Si5 2.280803 1_555
Mn28 Si63 2.280803 1_555
Mn28 Si56 2.300998 1_555
Mn28 Si49 2.300998 1_555
Mn28 Si39 2.595697 1_555
Mn28 Si38 2.595697 1_555
Mn29 Si9 2.370648 1_555
Mn29 Si36 2.370648 1_545
Mn29 Si28 2.390977 1_545
Mn29 Si27 2.390977 1_555
Mn29 Si65 2.399357 1_555
Mn29 Si50 2.399357 1_545
Mn29 Si46 2.417274 1_555
Mn29 Si15 2.417274 1_545
Mn30 Si42 2.280803 1_445
Mn30 Si17 2.280803 1_555
Mn30 Si64 2.300998 1_555
Mn30 Si45 2.300998 1_445
Mn30 Si62 2.595697 1_455
Mn30 Si34 2.595697 1_545
Mn31 Si54 2.290411 1_555
Mn31 Si74 2.290411 1_555
Mn31 Si52 2.290411 1_545
Mn31 Si71 2.290411 1_545
Mn31 Si66 2.597270 1_545
Mn31 Si25 2.597270 1_555
Mn31 Si28 2.791323 1_545
Mn31 Si40 2.791323 1_545
Mn31 Si27 2.791323 1_555
Mn31 Si44 2.791323 1_555
Mn32 Si55 2.382980 1_555
Mn32 Si12 2.382980 1_555
Mn32 Si43 2.382980 1_555
Mn32 Si73 2.382980 1_555
Mn32 Si26 2.405614 1_555
Mn32 Si18 2.405614 1_555
Mn32 Si61 2.405614 1_555
Mn32 Si48 2.405614 1_555
Mn33 Si46 2.326645 1_455
Mn33 Si15 2.326645 1_545
Mn33 Si50 2.346063 1_545
Mn33 Si65 2.346063 1_455
Mn33 Si33 2.440433 1_445
Mn33 Si41 2.440433 1_555
Mn33 Si36 2.486543 1_445
Mn33 Si9 2.486543 1_555
Mn34 Si40 2.353015 1_445
Mn34 Si44 2.353015 1_555
Mn34 Si16 2.373042 1_555
Mn34 Si31 2.373042 1_445
Mn34 Si54 2.425724 1_455
Mn34 Si52 2.425724 1_545
Mn34 Si14 2.431019 1_545
Mn34 Si23 2.431019 1_455
Mn35 Si35 2.342179 1_455
Mn35 Si8 2.342179 1_555
Mn35 Si29 2.358173 1_556
Mn35 Si37 2.358173 1_456
Mn35 Si72 2.432093 1_555
Mn35 Si13 2.432093 1_455
Mn35 Si51 2.456944 1_555
Mn35 Si7 2.456944 1_455
Mn36 Si28 2.353015 1_555
Mn36 Si27 2.353015 1_555
Mn36 Si36 2.373042 1_555
Mn36 Si9 2.373042 1_555
Mn36 Si71 2.425724 1_555
Mn36 Si74 2.425724 1_555
Mn36 Si50 2.431019 1_555
Mn36 Si65 2.431019 1_555
Mn37 Si53 2.305889 1_545
Mn37 Si68 2.305889 1_555
Mn37 Si67 2.334722 1_545
Mn37 Si1 2.334722 1_555
Mn37 Si69 2.450776 1_545
Mn37 Si4 2.450776 1_555
Mn37 Si59 2.521869 1_545
Mn37 Si30 2.521869 1_555
Mn38 Si68 2.290411 1_555
Mn38 Si58 2.290411 1_455
Mn38 Si0 2.290411 1_555
Mn38 Si53 2.290411 1_455
Mn38 Si4 2.597270 1_455
Mn38 Si69 2.597270 1_555
Mn38 Si3 2.791323 1_555
Mn38 Si30 2.791323 1_455
Mn38 Si19 2.791323 1_455
Mn38 Si59 2.791323 1_555
Mn39 Si57 2.291142 1_455
Mn39 Si6 2.291142 1_545
Mn39 Si43 2.328525 1_455
Mn39 Si12 2.328525 1_545
Mn39 Si33 2.474291 1_445
Mn39 Si41 2.474291 1_555
Mn39 Si26 2.546447 1_445
Mn39 Si18 2.546447 1_555
Mn40 Si3 2.353015 1_555
Mn40 Si19 2.353015 1_555
Mn40 Si2 2.373042 1_555
Mn40 Si10 2.373042 1_555
Mn40 Si0 2.425724 1_555
Mn40 Si58 2.425724 1_555
Mn40 Si20 2.431019 1_555
Mn40 Si60 2.431019 1_555
Mn41 Si49 2.326645 1_555
Mn41 Si56 2.326645 1_445
Mn41 Si20 2.346063 1_445
Mn41 Si60 2.346063 1_555
Mn41 Si39 2.440433 1_455
Mn41 Si38 2.440433 1_545
Mn41 Si2 2.486543 1_545
Mn41 Si10 2.486543 1_455
Mn42 Si24 2.281154 1_555
Mn42 Si70 2.281154 1_455
Mn42 Si16 2.322737 1_555
Mn42 Si31 2.322737 1_455
Mn42 Si72 2.500909 1_555
Mn42 Si13 2.500909 1_455
Mn42 Si47 2.563275 1_455
Mn42 Si22 2.563275 1_555
Mn43 Si30 2.353015 1_455
Mn43 Si59 2.353015 1_545
Mn43 Si32 2.373042 1_545
Mn43 Si11 2.373042 1_455
Mn43 Si68 2.425724 1_555
Mn43 Si53 2.425724 1_445
Mn43 Si67 2.431019 1_445
Mn43 Si1 2.431019 1_555
