# generated using pymatgen
data_Tb3CuGeSe7
_symmetry_space_group_name_H-M   'P 1'
_cell_length_a   10.37991158
_cell_length_b   10.37991158
_cell_length_c   6.10403400
_cell_angle_alpha   90.00000000
_cell_angle_beta   90.00000000
_cell_angle_gamma   119.99999734
_symmetry_Int_Tables_number   1
_chemical_formula_structural   Tb3CuGeSe7
_chemical_formula_sum   'Tb6 Cu2 Ge2 Se14'
_cell_volume   569.55398613
_cell_formula_units_Z   2
loop_
 _symmetry_equiv_pos_site_id
 _symmetry_equiv_pos_as_xyz
  1  'x, y, z'
loop_
 _atom_site_type_symbol
 _atom_site_label
 _atom_site_symmetry_multiplicity
 _atom_site_fract_x
 _atom_site_fract_y
 _atom_site_fract_z
 _atom_site_occupancy
  Tb  Tb0  1  0.64437500  0.77920500  0.75633200  1
  Tb  Tb1  1  0.86517000  0.64437500  0.25633200  1
  Tb  Tb2  1  0.22079500  0.86517000  0.75633200  1
  Tb  Tb3  1  0.77920500  0.13483000  0.25633200  1
  Tb  Tb4  1  0.13483000  0.35562500  0.75633200  1
  Tb  Tb5  1  0.35562500  0.22079500  0.25633200  1
  Cu  Cu0  1  0.00000000  0.00000000  0.70772200  1
  Cu  Cu1  1  0.00000000  0.00000000  0.20772200  1
  Ge  Ge0  1  0.66666700  0.33333300  0.83884400  1
  Ge  Ge1  1  0.33333300  0.66666700  0.33884400  1
  Se  Se0  1  0.89866800  0.73827300  0.72538200  1
  Se  Se1  1  0.66666700  0.33333300  0.45175600  1
  Se  Se2  1  0.42492100  0.51813200  0.50461200  1
  Se  Se3  1  0.48186800  0.90678900  0.50461200  1
  Se  Se4  1  0.73827300  0.83960400  0.22538200  1
  Se  Se5  1  0.16039600  0.89866800  0.22538200  1
  Se  Se6  1  0.57507900  0.48186800  0.00461200  1
  Se  Se7  1  0.83960400  0.10133200  0.72538200  1
  Se  Se8  1  0.33333300  0.66666700  0.95175600  1
  Se  Se9  1  0.90678900  0.42492100  0.00461200  1
  Se  Se10  1  0.26172700  0.16039600  0.72538200  1
  Se  Se11  1  0.51813200  0.09321100  0.00461200  1
  Se  Se12  1  0.10133200  0.26172700  0.22538200  1
  Se  Se13  1  0.09321100  0.57507900  0.50461200  1
loop_
_geom_bond_atom_site_label_1
_geom_bond_atom_site_label_2
_geom_bond_distance
_geom_bond_site_symmetry_2
Cu0 Se0 2.375066 1_445
Cu0 Se10 2.375068 1_555
Cu0 Se7 2.375076 1_455
Cu0 Tb2 3.241400 1_545
Cu0 Tb4 3.241401 1_555
Cu0 Tb0 3.241401 1_445
Cu1 Se12 2.375066 1_555
Cu1 Se4 2.375068 1_445
Cu1 Se5 2.375076 1_545
Cu1 Tb3 3.241400 1_455
Cu1 Tb1 3.241401 1_445
Cu1 Tb5 3.241401 1_555
Ge0 Se1 2.362798 1_555
Ge0 Se9 2.402167 1_556
Ge0 Se11 2.402169 1_556
Ge0 Se6 2.402176 1_556
Ge1 Se8 2.362798 1_554
Ge1 Se13 2.402167 1_555
Ge1 Se3 2.402169 1_555
Ge1 Se2 2.402176 1_555
Se0 Tb0 2.881811 1_555
Se0 Tb2 2.923433 1_655
Se0 Tb1 2.988190 1_555
Se0 Tb1 3.351959 1_556
Se1 Tb3 3.072424 1_555
Se1 Tb1 3.072432 1_555
Se1 Tb5 3.072433 1_555
Se2 Tb0 2.953038 1_555
Se2 Tb4 3.032134 1_555
Se2 Tb5 3.181137 1_555
Se3 Tb2 2.953038 1_555
Se3 Tb0 3.032134 1_555
Se3 Tb3 3.181137 1_565
Se4 Tb3 2.881821 1_565
Se4 Tb1 2.923423 1_555
Se4 Tb0 2.988190 1_554
Se4 Tb0 3.351958 1_555
Se5 Tb1 2.881817 1_455
Se5 Tb5 2.923432 1_565
Se5 Tb2 2.988187 1_554
Se5 Tb2 3.351956 1_555
Se6 Tb5 2.953038 1_555
Se6 Tb1 3.032134 1_555
Se6 Tb0 3.181137 1_554
Se7 Tb4 2.881817 1_655
Se7 Tb0 2.923432 1_545
Se7 Tb3 2.988187 1_555
Se7 Tb3 3.351956 1_556
Se8 Tb2 3.072424 1_555
Se8 Tb4 3.072432 1_555
Se8 Tb0 3.072433 1_555
Se9 Tb1 2.953038 1_555
Se9 Tb3 3.032134 1_555
Se9 Tb4 3.181136 1_654
Se10 Tb2 2.881821 1_545
Se10 Tb4 2.923423 1_555
Se10 Tb5 2.988190 1_555
Se10 Tb5 3.351958 1_556
Se11 Tb3 2.953038 1_555
Se11 Tb5 3.032134 1_555
Se11 Tb2 3.181137 1_544
Se12 Tb5 2.881811 1_555
Se12 Tb3 2.923433 1_455
Se12 Tb4 2.988190 1_554
Se12 Tb4 3.351959 1_555
Se13 Tb4 2.953038 1_555
Se13 Tb2 3.032134 1_555
Se13 Tb1 3.181136 1_455
