# generated using pymatgen
data_CdI2
_symmetry_space_group_name_H-M   'P 1'
_cell_length_a   4.28509871
_cell_length_b   4.28509889
_cell_length_c   57.39804162
_cell_angle_alpha   90.00000000
_cell_angle_beta   90.00000000
_cell_angle_gamma   119.99999056
_symmetry_Int_Tables_number   1
_chemical_formula_structural   CdI2
_chemical_formula_sum   'Cd8 I16'
_cell_volume   912.74492485
_cell_formula_units_Z   8
loop_
 _symmetry_equiv_pos_site_id
 _symmetry_equiv_pos_as_xyz
  1  'x, y, z'
loop_
 _atom_site_type_symbol
 _atom_site_label
 _atom_site_symmetry_multiplicity
 _atom_site_fract_x
 _atom_site_fract_y
 _atom_site_fract_z
 _atom_site_occupancy
  Cd  Cd0  1  0.66666700  0.33333300  0.90671694  1
  Cd  Cd1  1  0.66666700  0.33333300  0.78079227  1
  Cd  Cd2  1  0.00000000  -0.00000000  0.28123016  1
  Cd  Cd3  1  0.66666700  0.33333300  0.53124586  1
  Cd  Cd4  1  0.66666700  0.33333300  0.40578878  1
  Cd  Cd5  1  -0.00000000  0.00000000  0.15628075  1
  Cd  Cd6  1  0.66666700  0.33333300  0.03124289  1
  Cd  Cd7  1  0.66666700  0.33333300  0.65671020  1
  I  I0  1  0.33333300  0.66666700  0.81069697  1
  I  I1  1  0.00000000  0.00000000  0.00120858  1
  I  I2  1  0.33333300  0.66666700  0.56129329  1
  I  I3  1  0.66666700  0.33333300  0.12622196  1
  I  I4  1  0.00000000  0.00000000  0.37587721  1
  I  I5  1  0.33333300  0.66666700  0.06129204  1
  I  I6  1  0.66666700  0.33333300  0.25120969  1
  I  I7  1  0.33333300  0.66666700  0.43569802  1
  I  I8  1  0.33333300  0.66666700  0.18629095  1
  I  I9  1  0.00000000  0.00000000  0.62677842  1
  I  I10  1  0.33333300  0.66666700  0.31129026  1
  I  I11  1  0.33333300  0.66666700  0.93662367  1
  I  I12  1  0.00000000  0.00000000  0.75087483  1
  I  I13  1  0.00000000  0.00000000  0.87680463  1
  I  I14  1  0.33333300  0.66666700  0.68662398  1
  I  I15  1  0.00000000  0.00000000  0.50120764  1
loop_
_geom_bond_atom_site_label_1
_geom_bond_atom_site_label_2
_geom_bond_distance
_geom_bond_site_symmetry_2
Cd0 I11 3.011205 1_655
Cd0 I11 3.011205 1_545
Cd0 I11 3.011210 1_555
Cd0 I13 3.011387 1_655
Cd0 I13 3.011390 1_555
Cd0 I13 3.011390 1_665
Cd1 I0 3.011138 1_655
Cd1 I0 3.011138 1_545
Cd1 I0 3.011144 1_555
Cd1 I12 3.011555 1_655
Cd1 I12 3.011558 1_555
Cd1 I12 3.011558 1_665
Cd2 I6 3.014931 1_455
Cd2 I6 3.014934 1_555
Cd2 I6 3.014934 1_445
Cd2 I10 3.016231 1_545
Cd2 I10 3.016235 1_445
Cd2 I10 3.016235 1_555
Cd3 I15 3.015513 1_655
Cd3 I15 3.015516 1_555
Cd3 I15 3.015516 1_665
Cd3 I2 3.015816 1_655
Cd3 I2 3.015816 1_545
Cd3 I2 3.015821 1_555
Cd4 I7 3.011287 1_655
Cd4 I7 3.011287 1_545
Cd4 I7 3.011293 1_555
Cd4 I4 3.011363 1_655
Cd4 I4 3.011366 1_555
Cd4 I4 3.011366 1_665
Cd5 I8 3.014594 1_545
Cd5 I8 3.014597 1_445
Cd5 I8 3.014597 1_555
Cd5 I3 3.016188 1_455
Cd5 I3 3.016192 1_555
Cd5 I3 3.016192 1_445
Cd6 I1 3.015385 1_655
Cd6 I1 3.015388 1_555
Cd6 I1 3.015388 1_665
Cd6 I5 3.015872 1_655
Cd6 I5 3.015872 1_545
Cd6 I5 3.015878 1_555
Cd7 I14 3.011435 1_655
Cd7 I14 3.011435 1_545
Cd7 I14 3.011441 1_555
Cd7 I9 3.012024 1_655
Cd7 I9 3.012027 1_555
Cd7 I9 3.012028 1_665
