# generated using pymatgen
data_Ag5GeO4
_symmetry_space_group_name_H-M   'P 1'
_cell_length_a   9.89279619
_cell_length_b   6.44040358
_cell_length_c   11.03169848
_cell_angle_alpha   55.97959453
_cell_angle_beta   90.00000000
_cell_angle_gamma   90.00000000
_symmetry_Int_Tables_number   1
_chemical_formula_structural   Ag5GeO4
_chemical_formula_sum   'Ag20 Ge4 O16'
_cell_volume   582.56498053
_cell_formula_units_Z   4
loop_
 _symmetry_equiv_pos_site_id
 _symmetry_equiv_pos_as_xyz
  1  'x, y, z'
loop_
 _atom_site_type_symbol
 _atom_site_label
 _atom_site_symmetry_multiplicity
 _atom_site_fract_x
 _atom_site_fract_y
 _atom_site_fract_z
 _atom_site_occupancy
  Ag  Ag0  1  0.41548258  0.07158963  0.08979481  1
  Ag  Ag1  1  0.91548258  0.92841037  0.41020519  1
  Ag  Ag2  1  0.58451742  0.92841037  0.91020519  1
  Ag  Ag3  1  0.08451742  0.07158963  0.58979481  1
  Ag  Ag4  1  0.35587842  0.60003964  0.11823780  1
  Ag  Ag5  1  0.85587842  0.39996036  0.38176220  1
  Ag  Ag6  1  0.64412158  0.39996036  0.88176220  1
  Ag  Ag7  1  0.14412158  0.60003964  0.61823780  1
  Ag  Ag8  1  0.40620451  0.32370968  0.69760214  1
  Ag  Ag9  1  0.90620451  0.67629032  0.80239786  1
  Ag  Ag10  1  0.59379549  0.67629032  0.30239786  1
  Ag  Ag11  1  0.09379549  0.32370968  0.19760214  1
  Ag  Ag12  1  0.37740311  0.79933352  0.42501681  1
  Ag  Ag13  1  0.87740311  0.20066648  0.07498319  1
  Ag  Ag14  1  0.62259689  0.20066648  0.57498319  1
  Ag  Ag15  1  0.12259689  0.79933352  0.92501681  1
  Ag  Ag16  1  0.37541194  0.34684772  0.44175011  1
  Ag  Ag17  1  0.87541194  0.65315228  0.05824989  1
  Ag  Ag18  1  0.62458806  0.65315228  0.55824989  1
  Ag  Ag19  1  0.12458806  0.34684772  0.94175011  1
  Ge  Ge0  1  0.38703780  0.75316046  0.75862435  1
  Ge  Ge1  1  0.88703780  0.24683954  0.74137565  1
  Ge  Ge2  1  0.61296220  0.24683954  0.24137565  1
  Ge  Ge3  1  0.11296220  0.75316046  0.25862435  1
  O  O0  1  0.43693755  0.21935397  0.27775139  1
  O  O1  1  0.93693755  0.78064603  0.22224861  1
  O  O2  1  0.56306245  0.78064603  0.72224861  1
  O  O3  1  0.06306245  0.21935397  0.77775139  1
  O  O4  1  0.29067581  0.91918680  0.59528805  1
  O  O5  1  0.79067581  0.08081320  0.90471195  1
  O  O6  1  0.70932419  0.08081320  0.40471195  1
  O  O7  1  0.20932419  0.91918680  0.09528805  1
  O  O8  1  0.34465294  0.43224092  0.85766348  1
  O  O9  1  0.14009723  0.88578090  0.36129130  1
  O  O10  1  0.84465294  0.56775908  0.64233652  1
  O  O11  1  0.15534706  0.43224092  0.35766348  1
  O  O12  1  0.35990277  0.88578090  0.86129130  1
  O  O13  1  0.85990277  0.11421910  0.63870870  1
  O  O14  1  0.64009723  0.11421910  0.13870870  1
  O  O15  1  0.65534706  0.56775908  0.14233652  1
loop_
_geom_bond_atom_site_label_1
_geom_bond_atom_site_label_2
_geom_bond_distance
_geom_bond_site_symmetry_2
Ag0 O7 2.249448 1_545
Ag0 O14 2.338783 1_555
Ag0 O8 2.405838 1_554
Ag0 O0 2.730944 1_555
Ag1 O6 2.249448 1_565
Ag1 O9 2.338783 1_655
Ag1 O10 2.405838 1_555
Ag1 O1 2.730944 1_555
Ag2 O5 2.249448 1_565
Ag2 O12 2.338783 1_555
Ag2 O15 2.405838 1_556
Ag2 O2 2.730944 1_555
Ag3 O4 2.249448 1_545
Ag3 O13 2.338783 1_455
Ag3 O11 2.405838 1_555
Ag3 O3 2.730944 1_555
Ag4 O0 2.218802 1_555
Ag4 O12 2.363457 1_554
Ag4 O7 2.410110 1_555
Ag5 O1 2.218802 1_555
Ag5 O13 2.363457 1_555
Ag5 O6 2.410110 1_555
Ag6 O2 2.218802 1_555
Ag6 O14 2.363457 1_556
Ag6 O5 2.410110 1_555
Ag7 O3 2.218802 1_555
Ag7 O9 2.363457 1_555
Ag7 O4 2.410110 1_555
Ag8 O8 2.314801 1_555
Ag8 O12 2.393005 1_545
Ag9 O10 2.314801 1_555
Ag9 O13 2.393005 1_565
Ag10 O15 2.314801 1_555
Ag10 O14 2.393005 1_565
Ag11 O11 2.314801 1_555
Ag11 O9 2.393005 1_545
Ag12 O0 2.320818 1_565
Ag12 O9 2.424363 1_555
Ag12 O4 2.546116 1_555
Ag13 O1 2.320818 1_545
Ag13 O14 2.424363 1_555
Ag13 O5 2.546116 1_554
Ag14 O2 2.320818 1_545
Ag14 O13 2.424363 1_555
Ag14 O6 2.546116 1_555
Ag15 O3 2.320818 1_565
Ag15 O12 2.424363 1_555
Ag15 O7 2.546116 1_556
Ag16 O11 2.309039 1_555
Ag16 O4 2.436715 1_545
Ag16 O0 2.445429 1_555
Ag17 O15 2.309039 1_555
Ag17 O5 2.436715 1_564
Ag17 O1 2.445429 1_555
Ag18 O10 2.309039 1_555
Ag18 O6 2.436715 1_565
Ag18 O2 2.445429 1_555
Ag19 O8 2.309039 1_555
Ag19 O7 2.436715 1_546
Ag19 O3 2.445429 1_555
Ge0 O8 1.764809 1_555
Ge0 O4 1.772833 1_555
Ge0 O2 1.773491 1_555
Ge0 O12 1.779560 1_555
Ge1 O10 1.764809 1_555
Ge1 O5 1.772833 1_555
Ge1 O3 1.773491 1_655
Ge1 O13 1.779560 1_555
Ge2 O15 1.764809 1_555
Ge2 O6 1.772833 1_555
Ge2 O0 1.773491 1_555
Ge2 O14 1.779560 1_555
Ge3 O11 1.764809 1_555
Ge3 O7 1.772833 1_555
Ge3 O1 1.773491 1_455
Ge3 O9 1.779560 1_555
