# generated using pymatgen
data_UOF4
_symmetry_space_group_name_H-M   'P 1'
_cell_length_a   7.89937949
_cell_length_b   7.89937949
_cell_length_c   7.89937982
_cell_angle_alpha   114.59132485
_cell_angle_beta   114.59132485
_cell_angle_gamma   114.59132729
_symmetry_Int_Tables_number   1
_chemical_formula_structural   UOF4
_chemical_formula_sum   'U3 O3 F12'
_cell_volume   285.87120843
_cell_formula_units_Z   3
loop_
 _symmetry_equiv_pos_site_id
 _symmetry_equiv_pos_as_xyz
  1  'x, y, z'
loop_
 _atom_site_type_symbol
 _atom_site_label
 _atom_site_symmetry_multiplicity
 _atom_site_fract_x
 _atom_site_fract_y
 _atom_site_fract_z
 _atom_site_occupancy
  U  U0  1  0.26602148  0.85508072  0.85508072  1
  U  U1  1  0.85508072  0.26602148  0.85508072  1
  U  U2  1  0.85508072  0.85508072  0.26602148  1
  O  O0  1  0.58765745  0.17414638  0.58765745  1
  O  O1  1  0.58765745  0.58765745  0.17414638  1
  O  O2  1  0.17414638  0.58765745  0.58765745  1
  F  F0  1  0.15260011  0.95612478  0.62488967  1
  F  F1  1  0.95612478  0.62488967  0.15260011  1
  F  F2  1  0.62488967  0.15260011  0.95612478  1
  F  F3  1  0.15178924  0.15178924  0.37356616  1
  F  F4  1  0.15178924  0.37356616  0.15178924  1
  F  F5  1  0.88165381  0.65466362  0.65466362  1
  F  F6  1  0.15260011  0.62488967  0.95612478  1
  F  F7  1  0.95612478  0.15260011  0.62488967  1
  F  F8  1  0.37356616  0.15178924  0.15178924  1
  F  F9  1  0.65466362  0.88165381  0.65466362  1
  F  F10  1  0.65466362  0.65466362  0.88165381  1
  F  F11  1  0.62488967  0.95612478  0.15260011  1
loop_
_geom_bond_atom_site_label_1
_geom_bond_atom_site_label_2
_geom_bond_distance
_geom_bond_site_symmetry_2
O0 U1 1.784850 1_555
O1 U2 1.784850 1_555
O2 U0 1.784850 1_555
F0 U0 2.278932 1_555
F0 U2 2.281951 1_455
F1 U2 2.278932 1_555
F1 U1 2.281951 1_554
F2 U1 2.278932 1_555
F2 U0 2.281951 1_545
F3 U2 1.955014 1_445
F4 U1 1.955014 1_454
F5 U0 2.035737 1_655
F6 U0 2.278932 1_555
F6 U1 2.281951 1_455
F7 U1 2.278932 1_555
F7 U2 2.281951 1_545
F8 U0 1.955014 1_544
F9 U1 2.035737 1_565
F10 U2 2.035737 1_556
F11 U2 2.278932 1_555
F11 U0 2.281951 1_554
