# generated using pymatgen
data_LuCuPbSe3
_symmetry_space_group_name_H-M   'P 1'
_cell_length_a   4.02482000
_cell_length_b   10.44842000
_cell_length_c   13.60998700
_cell_angle_alpha   90.00000000
_cell_angle_beta   90.00000000
_cell_angle_gamma   90.00000000
_symmetry_Int_Tables_number   1
_chemical_formula_structural   LuCuPbSe3
_chemical_formula_sum   'Lu4 Cu4 Pb4 Se12'
_cell_volume   572.34091648
_cell_formula_units_Z   4
loop_
 _symmetry_equiv_pos_site_id
 _symmetry_equiv_pos_as_xyz
  1  'x, y, z'
loop_
 _atom_site_type_symbol
 _atom_site_label
 _atom_site_symmetry_multiplicity
 _atom_site_fract_x
 _atom_site_fract_y
 _atom_site_fract_z
 _atom_site_occupancy
  Lu  Lu0  1  0.75000000  0.49335700  0.25234300  1
  Lu  Lu1  1  0.25000000  0.00664300  0.75234300  1
  Lu  Lu2  1  0.75000000  0.99335700  0.24765700  1
  Lu  Lu3  1  0.25000000  0.50664300  0.74765700  1
  Cu  Cu0  1  0.25000000  0.74525900  0.21799200  1
  Cu  Cu1  1  0.75000000  0.25474100  0.78200800  1
  Cu  Cu2  1  0.25000000  0.24525900  0.28200800  1
  Cu  Cu3  1  0.75000000  0.75474100  0.71799200  1
  Pb  Pb0  1  0.75000000  0.74072500  0.00753000  1
  Pb  Pb1  1  0.75000000  0.24072500  0.49247000  1
  Pb  Pb2  1  0.25000000  0.75927500  0.50753000  1
  Pb  Pb3  1  0.25000000  0.25927500  0.99247000  1
  Se  Se0  1  0.25000000  0.75546600  0.82814000  1
  Se  Se1  1  0.75000000  0.44645200  0.88714400  1
  Se  Se2  1  0.75000000  0.56754600  0.60985900  1
  Se  Se3  1  0.25000000  0.43245400  0.39014100  1
  Se  Se4  1  0.25000000  0.25546600  0.67186000  1
  Se  Se5  1  0.75000000  0.94645200  0.61285600  1
  Se  Se6  1  0.75000000  0.74453400  0.32814000  1
  Se  Se7  1  0.25000000  0.55354800  0.11285600  1
  Se  Se8  1  0.25000000  0.93245400  0.10985900  1
  Se  Se9  1  0.25000000  0.05354800  0.38714400  1
  Se  Se10  1  0.75000000  0.24453400  0.17186000  1
  Se  Se11  1  0.75000000  0.06754600  0.89014100  1
loop_
_geom_bond_atom_site_label_1
_geom_bond_atom_site_label_2
_geom_bond_distance
_geom_bond_site_symmetry_2
Lu0 Se6 2.819872 1_555
Lu0 Se10 2.821141 1_555
Lu0 Se3 2.823465 1_555
Lu0 Se3 2.823465 1_655
Lu0 Se7 2.837128 1_655
Lu0 Se7 2.837128 1_555
Lu1 Se0 2.819872 1_545
Lu1 Se4 2.821141 1_555
Lu1 Se11 2.823465 1_555
Lu1 Se11 2.823465 1_455
Lu1 Se5 2.837128 1_545
Lu1 Se5 2.837128 1_445
Lu2 Se10 2.819872 1_565
Lu2 Se6 2.821141 1_555
Lu2 Se8 2.823465 1_555
Lu2 Se8 2.823465 1_655
Lu2 Se9 2.837128 1_565
Lu2 Se9 2.837128 1_665
Lu3 Se4 2.819872 1_555
Lu3 Se0 2.821141 1_555
Lu3 Se2 2.823465 1_555
Lu3 Se2 2.823465 1_455
Lu3 Se1 2.837128 1_455
Lu3 Se1 2.837128 1_555
Cu0 Se8 2.447730 1_555
Cu0 Se7 2.461664 1_555
Cu0 Se6 2.509420 1_455
Cu0 Se6 2.509420 1_555
Cu1 Se11 2.447730 1_555
Cu1 Se1 2.461664 1_555
Cu1 Se4 2.509420 1_655
Cu1 Se4 2.509420 1_555
Cu2 Se3 2.447730 1_555
Cu2 Se9 2.461664 1_555
Cu2 Se10 2.509420 1_555
Cu2 Se10 2.509420 1_455
Cu3 Se2 2.447730 1_555
Cu3 Se5 2.461664 1_555
Cu3 Se0 2.509420 1_655
Cu3 Se0 2.509420 1_555
Pb0 Se7 3.151103 1_655
Pb0 Se7 3.151103 1_555
Pb0 Se8 3.162668 1_555
Pb0 Se8 3.162668 1_655
Pb0 Se0 3.167715 1_654
Pb0 Se0 3.167715 1_554
Pb1 Se9 3.151103 1_555
Pb1 Se9 3.151103 1_655
Pb1 Se3 3.162668 1_655
Pb1 Se3 3.162668 1_555
Pb1 Se4 3.167715 1_555
Pb1 Se4 3.167715 1_655
Pb2 Se5 3.151103 1_455
Pb2 Se5 3.151103 1_555
Pb2 Se2 3.162668 1_555
Pb2 Se2 3.162668 1_455
Pb2 Se6 3.167715 1_555
Pb2 Se6 3.167715 1_455
Pb3 Se1 3.151103 1_555
Pb3 Se1 3.151103 1_455
Pb3 Se11 3.162668 1_555
Pb3 Se11 3.162668 1_455
Pb3 Se10 3.167715 1_556
Pb3 Se10 3.167715 1_456
