# generated using pymatgen
data_ThPbI6
_symmetry_space_group_name_H-M   'P 1'
_cell_length_a   7.89686774
_cell_length_b   7.89686774
_cell_length_c   14.28401100
_cell_angle_alpha   90.00000000
_cell_angle_beta   90.00000000
_cell_angle_gamma   119.99999784
_symmetry_Int_Tables_number   1
_chemical_formula_structural   ThPbI6
_chemical_formula_sum   'Th2 Pb2 I12'
_cell_volume   771.41938131
_cell_formula_units_Z   2
loop_
 _symmetry_equiv_pos_site_id
 _symmetry_equiv_pos_as_xyz
  1  'x, y, z'
loop_
 _atom_site_type_symbol
 _atom_site_label
 _atom_site_symmetry_multiplicity
 _atom_site_fract_x
 _atom_site_fract_y
 _atom_site_fract_z
 _atom_site_occupancy
  Th  Th0  1  0.33333300  0.66666700  0.25000000  1
  Th  Th1  1  0.66666700  0.33333300  0.75000000  1
  Pb  Pb0  1  0.00000000  0.00000000  0.00000000  1
  Pb  Pb1  1  0.00000000  0.00000000  0.50000000  1
  I  I0  1  0.34022600  0.35069900  0.12586100  1
  I  I1  1  0.64930100  0.98952700  0.12586100  1
  I  I2  1  0.01047300  0.65977400  0.12586100  1
  I  I3  1  0.64930100  0.65977400  0.37413900  1
  I  I4  1  0.01047300  0.35069900  0.37413900  1
  I  I5  1  0.34022600  0.98952700  0.37413900  1
  I  I6  1  0.65977400  0.64930100  0.87413900  1
  I  I7  1  0.35069900  0.01047300  0.87413900  1
  I  I8  1  0.98952700  0.34022600  0.87413900  1
  I  I9  1  0.35069900  0.34022600  0.62586100  1
  I  I10  1  0.98952700  0.64930100  0.62586100  1
  I  I11  1  0.65977400  0.01047300  0.62586100  1
loop_
_geom_bond_atom_site_label_1
_geom_bond_atom_site_label_2
_geom_bond_distance
_geom_bond_site_symmetry_2
I0 Th0 3.083641 1_555
I0 Pb0 3.267964 1_555
I1 Th0 3.083638 1_555
I1 Pb0 3.267964 1_665
I2 Th0 3.083634 1_555
I2 Pb0 3.267964 1_565
I3 Th0 3.083641 1_555
I3 Pb1 3.267964 1_665
I4 Th0 3.083638 1_555
I4 Pb1 3.267964 1_555
I5 Th0 3.083634 1_555
I5 Pb1 3.267964 1_565
I6 Th1 3.083641 1_555
I6 Pb0 3.267964 1_666
I7 Th1 3.083638 1_555
I7 Pb0 3.267964 1_556
I8 Th1 3.083634 1_555
I8 Pb0 3.267964 1_656
I9 Th1 3.083641 1_555
I9 Pb1 3.267964 1_555
I10 Th1 3.083638 1_555
I10 Pb1 3.267964 1_665
I11 Th1 3.083634 1_555
I11 Pb1 3.267964 1_655
