# generated using pymatgen
data_Rb2Ag(AsSe2)3
_symmetry_space_group_name_H-M   'P 1'
_cell_length_a   8.03455100
_cell_length_b   13.08547000
_cell_length_c   18.60393648
_cell_angle_alpha   52.38273456
_cell_angle_beta   90.00000000
_cell_angle_gamma   90.00000000
_symmetry_Int_Tables_number   1
_chemical_formula_structural   Rb2Ag(AsSe2)3
_chemical_formula_sum   'Rb8 Ag4 As12 Se24'
_cell_volume   1549.31223355
_cell_formula_units_Z   4
loop_
 _symmetry_equiv_pos_site_id
 _symmetry_equiv_pos_as_xyz
  1  'x, y, z'
loop_
 _atom_site_type_symbol
 _atom_site_label
 _atom_site_symmetry_multiplicity
 _atom_site_fract_x
 _atom_site_fract_y
 _atom_site_fract_z
 _atom_site_occupancy
  Rb  Rb0  1  0.89908000  0.58537100  0.76325800  1
  Rb  Rb1  1  0.39908000  0.41462900  0.73674200  1
  Rb  Rb2  1  0.10092000  0.41462900  0.23674200  1
  Rb  Rb3  1  0.60092000  0.58537100  0.26325800  1
  Rb  Rb4  1  0.37185800  0.78088400  0.38934300  1
  Rb  Rb5  1  0.87185800  0.21911600  0.11065700  1
  Rb  Rb6  1  0.62814200  0.21911600  0.61065700  1
  Rb  Rb7  1  0.12814200  0.78088400  0.88934300  1
  Ag  Ag0  1  0.99321300  0.52762600  0.57303300  1
  Ag  Ag1  1  0.49321300  0.47237400  0.92696700  1
  Ag  Ag2  1  0.00678700  0.47237400  0.42696700  1
  Ag  Ag3  1  0.50678700  0.52762600  0.07303300  1
  As  As0  1  0.08981500  0.22176900  0.65192200  1
  As  As1  1  0.58981500  0.77823100  0.84807800  1
  As  As2  1  0.91018500  0.77823100  0.34807800  1
  As  As3  1  0.41018500  0.22176900  0.15192200  1
  As  As4  1  0.95841900  0.16609600  0.86278200  1
  As  As5  1  0.45841900  0.83390400  0.63721800  1
  As  As6  1  0.04158100  0.83390400  0.13721800  1
  As  As7  1  0.54158100  0.16609600  0.36278200  1
  As  As8  1  0.33248500  0.11538200  0.00616600  1
  As  As9  1  0.83248500  0.88461800  0.49383400  1
  As  As10  1  0.66751500  0.88461800  0.99383400  1
  As  As11  1  0.16751500  0.11538200  0.50616600  1
  Se  Se0  1  0.23864900  0.05204600  0.65778800  1
  Se  Se1  1  0.73864900  0.94795400  0.84221200  1
  Se  Se2  1  0.76135100  0.94795400  0.34221200  1
  Se  Se3  1  0.26135100  0.05204600  0.15778800  1
  Se  Se4  1  0.74247500  0.58798200  0.44626100  1
  Se  Se5  1  0.24247500  0.41201800  0.05373900  1
  Se  Se6  1  0.25752500  0.41201800  0.55373900  1
  Se  Se7  1  0.75752500  0.58798200  0.94626100  1
  Se  Se8  1  0.20475200  0.11931200  0.80452900  1
  Se  Se9  1  0.70475200  0.88068800  0.69547100  1
  Se  Se10  1  0.79524800  0.88068800  0.19547100  1
  Se  Se11  1  0.29524800  0.11931200  0.30452900  1
  Se  Se12  1  0.83009800  0.34482400  0.72907300  1
  Se  Se13  1  0.33009800  0.65517600  0.77092700  1
  Se  Se14  1  0.16990200  0.65517600  0.27092700  1
  Se  Se15  1  0.66990200  0.34482400  0.22907300  1
  Se  Se16  1  0.10602200  0.27590800  0.91562900  1
  Se  Se17  1  0.60602200  0.72409200  0.58437100  1
  Se  Se18  1  0.89397800  0.72409200  0.08437100  1
  Se  Se19  1  0.39397800  0.27590800  0.41562900  1
  Se  Se20  1  0.06906800  0.75098300  0.54008200  1
  Se  Se21  1  0.56906800  0.24901700  0.95991800  1
  Se  Se22  1  0.93093200  0.24901700  0.45991800  1
  Se  Se23  1  0.43093200  0.75098300  0.04008200  1
loop_
_geom_bond_atom_site_label_1
_geom_bond_atom_site_label_2
_geom_bond_distance
_geom_bond_site_symmetry_2
Rb0 Se17 3.541184 1_555
Rb0 Se20 3.579982 1_655
Rb0 Se13 3.606442 1_655
Rb0 Se9 3.607244 1_555
Rb0 Se7 3.609408 1_555
Rb0 Se12 3.614313 1_555
Rb0 Se16 3.631118 1_655
Rb1 Se16 3.541184 1_555
Rb1 Se21 3.579982 1_555
Rb1 Se12 3.606442 1_555
Rb1 Se8 3.607244 1_555
Rb1 Se6 3.609408 1_555
Rb1 Se13 3.614313 1_555
Rb1 Se17 3.631118 1_555
Rb2 Se19 3.541184 1_555
Rb2 Se22 3.579982 1_455
Rb2 Se15 3.606442 1_455
Rb2 Se11 3.607244 1_555
Rb2 Se5 3.609408 1_555
Rb2 Se14 3.614313 1_555
Rb2 Se18 3.631118 1_455
Rb3 Se18 3.541184 1_555
Rb3 Se23 3.579982 1_555
Rb3 Se14 3.606442 1_555
Rb3 Se10 3.607244 1_555
Rb3 Se4 3.609408 1_555
Rb3 Se15 3.614313 1_555
Rb3 Se19 3.631118 1_555
Rb4 Se20 3.549133 1_555
Rb4 Se2 3.605732 1_555
Rb4 Se4 3.618962 1_555
Rb4 Se3 3.643642 1_565
Rb4 Se11 3.734949 1_565
Rb4 Se17 3.736950 1_555
Rb4 Se14 3.823068 1_555
Rb4 Se6 3.933733 1_555
Rb5 Se21 3.549133 1_554
Rb5 Se3 3.605732 1_655
Rb5 Se5 3.618962 1_655
Rb5 Se2 3.643642 1_545
Rb5 Se10 3.734949 1_545
Rb5 Se16 3.736950 1_654
Rb5 Se15 3.823068 1_555
Rb5 Se7 3.933733 1_554
Rb6 Se22 3.549133 1_555
Rb6 Se0 3.605732 1_555
Rb6 Se6 3.618962 1_555
Rb6 Se1 3.643642 1_545
Rb6 Se9 3.734949 1_545
Rb6 Se19 3.736950 1_555
Rb6 Se12 3.823068 1_555
Rb6 Se4 3.933733 1_555
Rb7 Se23 3.549133 1_556
Rb7 Se1 3.605732 1_455
Rb7 Se7 3.618962 1_455
Rb7 Se0 3.643642 1_565
Rb7 Se8 3.734949 1_565
Rb7 Se18 3.736950 1_456
Rb7 Se13 3.823068 1_555
Rb7 Se5 3.933733 1_556
Ag0 Se20 2.665025 1_655
Ag0 Se12 2.718380 1_555
Ag0 Se6 2.755003 1_655
Ag0 Se4 2.823238 1_555
Ag1 Se21 2.665025 1_555
Ag1 Se13 2.718380 1_555
Ag1 Se7 2.755003 1_555
Ag1 Se5 2.823238 1_556
Ag2 Se22 2.665025 1_455
Ag2 Se14 2.718380 1_555
Ag2 Se4 2.755003 1_455
Ag2 Se6 2.823238 1_555
Ag3 Se23 2.665025 1_555
Ag3 Se15 2.718380 1_555
Ag3 Se5 2.755003 1_555
Ag3 Se7 2.823238 1_554
As0 Se6 2.408014 1_555
As0 Se8 2.462522 1_555
As0 Se0 2.465446 1_555
As0 Rb6 3.792395 1_455
As1 Se7 2.408014 1_555
As1 Se9 2.462522 1_555
As1 Se1 2.465446 1_555
As1 Rb7 3.792395 1_555
As2 Se4 2.408014 1_555
As2 Se10 2.462522 1_555
As2 Se2 2.465446 1_555
As2 Rb4 3.792395 1_655
As3 Se5 2.408014 1_555
As3 Se11 2.462522 1_555
As3 Se3 2.465446 1_555
As3 Rb5 3.792395 1_555
As4 Se12 2.370316 1_555
As4 Se16 2.482430 1_655
As4 Se8 2.505257 1_655
As5 Se13 2.370316 1_555
As5 Se17 2.482430 1_555
As5 Se9 2.505257 1_555
As6 Se14 2.370316 1_555
As6 Se18 2.482430 1_455
As6 Se10 2.505257 1_455
As7 Se15 2.370316 1_555
As7 Se19 2.482430 1_555
As7 Se11 2.505257 1_555
As8 Se21 2.361065 1_554
As8 Se3 2.473123 1_555
As8 Se16 2.498178 1_554
As9 Se20 2.361065 1_655
As9 Se2 2.473123 1_555
As9 Se17 2.498178 1_555
As10 Se23 2.361065 1_556
As10 Se1 2.473123 1_555
As10 Se18 2.498178 1_556
As11 Se22 2.361065 1_455
As11 Se0 2.473123 1_555
As11 Se19 2.498178 1_555
