# generated using pymatgen
data_Cs3BiSe3
_symmetry_space_group_name_H-M   'P 1'
_cell_length_a   10.73079035
_cell_length_b   10.73079035
_cell_length_c   10.73079035
_cell_angle_alpha   90.00000000
_cell_angle_beta   90.00000000
_cell_angle_gamma   90.00000000
_symmetry_Int_Tables_number   1
_chemical_formula_structural   Cs3BiSe3
_chemical_formula_sum   'Cs12 Bi4 Se12'
_cell_volume   1235.64902297
_cell_formula_units_Z   4
loop_
 _symmetry_equiv_pos_site_id
 _symmetry_equiv_pos_as_xyz
  1  'x, y, z'
loop_
 _atom_site_type_symbol
 _atom_site_label
 _atom_site_symmetry_multiplicity
 _atom_site_fract_x
 _atom_site_fract_y
 _atom_site_fract_z
 _atom_site_occupancy
  Cs  Cs0  1  0.17976957  0.67976957  0.82023043  1
  Cs  Cs1  1  0.31152614  0.68847386  0.18847386  1
  Cs  Cs2  1  0.92991102  0.42991102  0.07008898  1
  Cs  Cs3  1  0.81152614  0.81152614  0.81152614  1
  Cs  Cs4  1  0.42991102  0.07008898  0.92991102  1
  Cs  Cs5  1  0.67976957  0.82023043  0.17976957  1
  Cs  Cs6  1  0.57008898  0.57008898  0.57008898  1
  Cs  Cs7  1  0.82023043  0.17976957  0.67976957  1
  Cs  Cs8  1  0.68847386  0.18847386  0.31152614  1
  Cs  Cs9  1  0.07008898  0.92991102  0.42991102  1
  Cs  Cs10  1  0.18847386  0.31152614  0.68847386  1
  Cs  Cs11  1  0.32023043  0.32023043  0.32023043  1
  Bi  Bi0  1  0.52862440  0.47137560  0.97137560  1
  Bi  Bi1  1  0.02862440  0.02862440  0.02862440  1
  Bi  Bi2  1  0.97137560  0.52862440  0.47137560  1
  Bi  Bi3  1  0.47137560  0.97137560  0.52862440  1
  Se  Se0  1  0.29200192  0.39687651  0.99605817  1
  Se  Se1  1  0.79200192  0.10312349  0.00394183  1
  Se  Se2  1  0.70799808  0.89687651  0.50394183  1
  Se  Se3  1  0.99605817  0.29200192  0.39687651  1
  Se  Se4  1  0.89687651  0.50394183  0.70799808  1
  Se  Se5  1  0.10312349  0.00394183  0.79200192  1
  Se  Se6  1  0.20799808  0.60312349  0.49605817  1
  Se  Se7  1  0.39687651  0.99605817  0.29200192  1
  Se  Se8  1  0.60312349  0.49605817  0.20799808  1
  Se  Se9  1  0.50394183  0.70799808  0.89687651  1
  Se  Se10  1  0.00394183  0.79200192  0.10312349  1
  Se  Se11  1  0.49605817  0.20799808  0.60312349  1
loop_
_geom_bond_atom_site_label_1
_geom_bond_atom_site_label_2
_geom_bond_distance
_geom_bond_site_symmetry_2
Cs0 Se6 3.587345 1_555
Cs0 Se5 3.587345 1_565
Cs0 Se9 3.587345 1_555
Cs0 Se4 3.771685 1_455
Cs0 Se10 3.771685 1_556
Cs0 Se0 3.771685 1_555
Cs1 Se7 3.600989 1_555
Cs1 Se6 3.600989 1_555
Cs1 Se10 3.600989 1_555
Cs1 Se8 3.754765 1_555
Cs1 Se0 3.754765 1_554
Cs1 Se9 3.754765 1_554
Cs2 Se1 3.871785 1_555
Cs2 Se3 3.871785 1_555
Cs2 Se8 3.871785 1_555
Cs2 Se4 3.981711 1_554
Cs2 Se10 3.981711 1_655
Cs2 Se0 3.981711 1_654
Cs3 Se4 3.600989 1_555
Cs3 Se2 3.600989 1_555
Cs3 Se9 3.600989 1_555
Cs3 Se1 3.754765 1_566
Cs3 Se10 3.754765 1_656
Cs3 Se5 3.754765 1_665
Cs4 Se5 3.871785 1_555
Cs4 Se0 3.871785 1_555
Cs4 Se11 3.871785 1_555
Cs4 Se9 3.981711 1_545
Cs4 Se1 3.981711 1_556
Cs4 Se7 3.981711 1_546
Cs5 Se8 3.587345 1_555
Cs5 Se10 3.587345 1_655
Cs5 Se2 3.587345 1_555
Cs5 Se1 3.771685 1_565
Cs5 Se9 3.771685 1_554
Cs5 Se7 3.771685 1_555
Cs6 Se2 3.871785 1_555
Cs6 Se9 3.871785 1_555
Cs6 Se4 3.871785 1_555
Cs6 Se8 3.981711 1_555
Cs6 Se11 3.981711 1_555
Cs6 Se6 3.981711 1_555
Cs7 Se11 3.587345 1_555
Cs7 Se1 3.587345 1_556
Cs7 Se4 3.587345 1_555
Cs7 Se5 3.771685 1_655
Cs7 Se2 3.771685 1_545
Cs7 Se3 3.771685 1_555
Cs8 Se8 3.600989 1_555
Cs8 Se3 3.600989 1_555
Cs8 Se1 3.600989 1_555
Cs8 Se11 3.754765 1_555
Cs8 Se2 3.754765 1_545
Cs8 Se7 3.754765 1_545
Cs9 Se10 3.871785 1_555
Cs9 Se7 3.871785 1_555
Cs9 Se6 3.871785 1_555
Cs9 Se5 3.981711 1_565
Cs9 Se2 3.981711 1_455
Cs9 Se3 3.981711 1_465
Cs10 Se11 3.600989 1_555
Cs10 Se0 3.600989 1_555
Cs10 Se5 3.600989 1_555
Cs10 Se3 3.754765 1_455
Cs10 Se6 3.754765 1_555
Cs10 Se4 3.754765 1_455
Cs11 Se7 3.587345 1_545
Cs11 Se3 3.587345 1_455
Cs11 Se0 3.587345 1_554
Cs11 Se8 3.771685 1_555
Cs11 Se11 3.771685 1_555
Cs11 Se6 3.771685 1_555
Bi0 Se0 2.675166 1_555
Bi0 Se9 2.675166 1_555
Bi0 Se8 2.675166 1_556
Bi1 Se5 2.675166 1_554
Bi1 Se1 2.675166 1_455
Bi1 Se10 2.675166 1_545
Bi2 Se3 2.675166 1_555
Bi2 Se4 2.675166 1_555
Bi2 Se6 2.675166 1_655
Bi3 Se7 2.675166 1_555
Bi3 Se2 2.675166 1_555
Bi3 Se11 2.675166 1_565
