# generated using pymatgen
data_U2TeN2
_symmetry_space_group_name_H-M   'P 1'
_cell_length_a   3.89775459
_cell_length_b   3.89775604
_cell_length_c   6.96983966
_cell_angle_alpha   106.23727208
_cell_angle_beta   106.23727903
_cell_angle_gamma   89.99999820
_symmetry_Int_Tables_number   1
_chemical_formula_structural   U2TeN2
_chemical_formula_sum   'U2 Te1 N2'
_cell_volume   97.25858434
_cell_formula_units_Z   1
loop_
 _symmetry_equiv_pos_site_id
 _symmetry_equiv_pos_as_xyz
  1  'x, y, z'
loop_
 _atom_site_type_symbol
 _atom_site_label
 _atom_site_symmetry_multiplicity
 _atom_site_fract_x
 _atom_site_fract_y
 _atom_site_fract_z
 _atom_site_occupancy
  U  U0  1  0.33979872  0.33979872  0.67959544  1
  U  U1  1  0.66020128  0.66020128  0.32040456  1
  Te  Te0  1  -0.00000000  0.00000000  -0.00000000  1
  N  N0  1  0.25000000  0.75000000  0.50000000  1
  N  N1  1  0.75000000  0.25000000  0.50000000  1
loop_
_geom_bond_atom_site_label_1
_geom_bond_atom_site_label_2
_geom_bond_distance
_geom_bond_site_symmetry_2
Te0 U0 3.435613 1_444
Te0 U1 3.435613 1_555
Te0 U1 3.435617 1_545
Te0 U0 3.435617 1_454
Te0 U0 3.435617 1_544
Te0 U1 3.435617 1_455
Te0 U0 3.435622 1_554
Te0 U1 3.435622 1_445
N0 U1 2.262736 1_555
N0 U0 2.262737 1_555
N0 U1 2.262743 1_455
N0 U0 2.262744 1_565
N1 U0 2.262736 1_555
N1 U1 2.262737 1_555
N1 U0 2.262743 1_655
N1 U1 2.262744 1_545
