# generated using pymatgen
data_BaZrF6
_symmetry_space_group_name_H-M   'P 1'
_cell_length_a   9.49798026
_cell_length_b   6.52178929
_cell_length_c   9.21830821
_cell_angle_alpha   52.72980955
_cell_angle_beta   90.00000000
_cell_angle_gamma   90.00000000
_symmetry_Int_Tables_number   1
_chemical_formula_structural   BaZrF6
_chemical_formula_sum   'Ba4 Zr4 F24'
_cell_volume   454.40907155
_cell_formula_units_Z   4
loop_
 _symmetry_equiv_pos_site_id
 _symmetry_equiv_pos_as_xyz
  1  'x, y, z'
loop_
 _atom_site_type_symbol
 _atom_site_label
 _atom_site_symmetry_multiplicity
 _atom_site_fract_x
 _atom_site_fract_y
 _atom_site_fract_z
 _atom_site_occupancy
  Ba  Ba0  1  0.31876403  0.58809423  0.63932252  1
  Ba  Ba1  1  0.18123597  0.58809423  0.13932252  1
  Ba  Ba2  1  0.68123597  0.41190577  0.36067748  1
  Ba  Ba3  1  0.81876403  0.41190577  0.86067748  1
  Zr  Zr0  1  0.46388968  0.11977842  0.13576899  1
  Zr  Zr1  1  0.03611032  0.11977842  0.63576899  1
  Zr  Zr2  1  0.53611032  0.88022158  0.86423101  1
  Zr  Zr3  1  0.96388968  0.88022158  0.36423101  1
  F  F0  1  0.10418905  0.07543290  0.85918388  1
  F  F1  1  0.12304217  0.01652342  0.47082913  1
  F  F2  1  0.46829047  0.54746542  0.11404894  1
  F  F3  1  0.39581095  0.07543290  0.35918388  1
  F  F4  1  0.15596355  0.83786336  0.28963356  1
  F  F5  1  0.53170953  0.45253458  0.88595106  1
  F  F6  1  0.21938756  0.31917538  0.52926127  1
  F  F7  1  0.65596355  0.16213664  0.21036644  1
  F  F8  1  0.03170953  0.54746542  0.61404894  1
  F  F9  1  0.45999602  0.72727158  0.32248407  1
  F  F10  1  0.95999602  0.27272842  0.17751593  1
  F  F11  1  0.87695783  0.98347658  0.52917087  1
  F  F12  1  0.71938756  0.68082462  0.97073873  1
  F  F13  1  0.62304217  0.98347658  0.02917087  1
  F  F14  1  0.89581095  0.92456710  0.14081612  1
  F  F15  1  0.78061244  0.68082462  0.47073873  1
  F  F16  1  0.28061244  0.31917538  0.02926127  1
  F  F17  1  0.37695783  0.01652342  0.97082913  1
  F  F18  1  0.04000398  0.72727158  0.82248407  1
  F  F19  1  0.60418905  0.92456710  0.64081612  1
  F  F20  1  0.34403645  0.83786336  0.78963356  1
  F  F21  1  0.54000398  0.27272842  0.67751593  1
  F  F22  1  0.96829047  0.45253458  0.38595106  1
  F  F23  1  0.84403645  0.16213664  0.71036644  1
loop_
_geom_bond_atom_site_label_1
_geom_bond_atom_site_label_2
_geom_bond_distance
_geom_bond_site_symmetry_2
Ba0 F6 2.674195 1_555
Ba0 F20 2.713790 1_555
Ba0 F3 2.713907 1_565
Ba0 F5 2.758032 1_555
Ba0 F8 2.762738 1_555
Ba0 F21 2.809402 1_555
Ba0 F9 2.818334 1_555
Ba0 F1 2.901571 1_565
Ba0 F16 2.914238 1_556
Ba0 F4 3.012630 1_555
Ba0 F17 3.121364 1_555
Ba1 F16 2.674195 1_555
Ba1 F4 2.713790 1_555
Ba1 F0 2.713907 1_564
Ba1 F22 2.758032 1_455
Ba1 F2 2.762738 1_555
Ba1 F10 2.809402 1_455
Ba1 F18 2.818334 1_554
Ba1 F17 2.901571 1_564
Ba1 F6 2.914238 1_555
Ba1 F20 3.012630 1_554
Ba1 F1 3.121364 1_555
Ba2 F15 2.674195 1_555
Ba2 F7 2.713790 1_555
Ba2 F19 2.713907 1_545
Ba2 F2 2.758032 1_555
Ba2 F22 2.762738 1_555
Ba2 F9 2.809402 1_555
Ba2 F21 2.818334 1_555
Ba2 F11 2.901571 1_545
Ba2 F12 2.914238 1_554
Ba2 F23 3.012630 1_555
Ba2 F13 3.121364 1_555
Ba3 F12 2.674195 1_555
Ba3 F23 2.713790 1_555
Ba3 F14 2.713907 1_546
Ba3 F8 2.758032 1_655
Ba3 F5 2.762738 1_555
Ba3 F18 2.809402 1_655
Ba3 F10 2.818334 1_556
Ba3 F13 2.901571 1_546
Ba3 F15 2.914238 1_555
Ba3 F7 3.012630 1_556
Ba3 F11 3.121364 1_555
F0 Zr1 2.005472 1_555
F1 Zr1 2.164977 1_555
F1 Zr3 2.258048 1_445
F2 Zr2 2.091642 1_554
F3 Zr0 2.005472 1_555
F4 Zr3 2.026671 1_455
F5 Zr0 2.091642 1_556
F6 Zr1 2.034443 1_555
F7 Zr0 2.026671 1_555
F8 Zr3 2.091642 1_455
F9 Zr0 2.044598 1_565
F10 Zr3 2.044598 1_545
F11 Zr3 2.164977 1_555
F11 Zr1 2.258048 1_665
F12 Zr2 2.034443 1_555
F13 Zr2 2.164977 1_554
F13 Zr0 2.258048 1_565
F14 Zr3 2.005472 1_555
F15 Zr3 2.034443 1_555
F16 Zr0 2.034443 1_555
F17 Zr0 2.164977 1_556
F17 Zr2 2.258048 1_545
F18 Zr1 2.044598 1_565
F19 Zr2 2.005472 1_555
F20 Zr2 2.026671 1_555
F21 Zr2 2.044598 1_545
F22 Zr1 2.091642 1_655
F23 Zr1 2.026671 1_655
