# generated using pymatgen
data_Rb2TiO3
_symmetry_space_group_name_H-M   'P 1'
_cell_length_a   6.68991195
_cell_length_b   6.68991195
_cell_length_c   13.34690476
_cell_angle_alpha   90.00000000
_cell_angle_beta   90.00000000
_cell_angle_gamma   126.60895356
_symmetry_Int_Tables_number   1
_chemical_formula_structural   Rb2TiO3
_chemical_formula_sum   'Rb8 Ti4 O12'
_cell_volume   479.49907235
_cell_formula_units_Z   4
loop_
 _symmetry_equiv_pos_site_id
 _symmetry_equiv_pos_as_xyz
  1  'x, y, z'
loop_
 _atom_site_type_symbol
 _atom_site_label
 _atom_site_symmetry_multiplicity
 _atom_site_fract_x
 _atom_site_fract_y
 _atom_site_fract_z
 _atom_site_occupancy
  Rb  Rb0  1  0.36877483  0.63122517  0.07418731  1
  Rb  Rb1  1  0.86877483  0.13122517  0.42581269  1
  Rb  Rb2  1  0.13122517  0.86877483  0.57418731  1
  Rb  Rb3  1  0.63122517  0.36877483  0.92581269  1
  Rb  Rb4  1  0.44242226  0.55757774  0.63655928  1
  Rb  Rb5  1  0.55757774  0.44242226  0.36344072  1
  Rb  Rb6  1  0.05757774  0.94242226  0.13655928  1
  Rb  Rb7  1  0.94242226  0.05757774  0.86344072  1
  Ti  Ti0  1  0.75527934  0.24472066  0.66972542  1
  Ti  Ti1  1  0.74472066  0.25527934  0.16972542  1
  Ti  Ti2  1  0.24472066  0.75527934  0.33027458  1
  Ti  Ti3  1  0.25527934  0.74472066  0.83027458  1
  O  O0  1  0.97374738  0.52625262  0.75000000  1
  O  O1  1  0.52625262  0.97374738  0.25000000  1
  O  O2  1  0.02625262  0.47374738  0.25000000  1
  O  O3  1  0.47374738  0.02625262  0.75000000  1
  O  O4  1  0.39940630  0.60059370  0.86264740  1
  O  O5  1  0.60059370  0.39940630  0.13735260  1
  O  O6  1  0.10059370  0.89940630  0.36264740  1
  O  O7  1  0.66828433  0.33171567  0.56192342  1
  O  O8  1  0.16828433  0.83171567  0.93807658  1
  O  O9  1  0.83171567  0.16828433  0.06192342  1
  O  O10  1  0.33171567  0.66828433  0.43807658  1
  O  O11  1  0.89940630  0.10059370  0.63735260  1
loop_
_geom_bond_atom_site_label_1
_geom_bond_atom_site_label_2
_geom_bond_distance
_geom_bond_site_symmetry_2
O0 Ti3 1.883658 1_655
O0 Ti0 1.883658 1_555
O0 Rb2 2.997944 1_655
O0 Rb3 2.997944 1_555
O1 Ti1 1.883658 1_565
O1 Ti2 1.883658 1_555
O1 Rb1 2.997944 1_565
O1 Rb0 2.997944 1_555
O2 Ti1 1.883658 1_455
O2 Ti2 1.883658 1_555
O2 Rb0 2.997944 1_555
O2 Rb1 2.997944 1_455
O3 Ti0 1.883658 1_555
O3 Ti3 1.883658 1_545
O3 Rb2 2.997944 1_545
O3 Rb3 2.997944 1_555
O4 Ti3 1.776194 1_555
O4 Rb0 2.847047 1_556
O4 Rb3 2.896482 1_555
O4 Rb7 3.049125 1_455
O4 Rb7 3.049125 1_565
O4 Rb4 3.061073 1_555
O5 Ti1 1.776194 1_555
O5 Rb3 2.847047 1_554
O5 Rb0 2.896482 1_555
O5 Rb6 3.049125 1_545
O5 Rb6 3.049125 1_655
O5 Rb5 3.061073 1_555
O6 Ti2 1.776194 1_555
O6 Rb2 2.847047 1_555
O6 Rb1 2.896482 1_465
O6 Rb5 3.049125 1_455
O6 Rb5 3.049125 1_565
O6 Rb6 3.061073 1_555
O7 Ti0 1.775279 1_555
O7 Rb4 2.877782 1_555
O7 Rb5 2.961272 1_555
O7 Rb1 3.007304 1_555
O7 Rb2 3.042316 1_655
O7 Rb2 3.042316 1_545
O8 Ti3 1.775279 1_555
O8 Rb7 2.877782 1_465
O8 Rb6 2.961272 1_556
O8 Rb0 3.007304 1_556
O8 Rb3 3.042316 1_455
O8 Rb3 3.042316 1_565
O9 Ti1 1.775279 1_555
O9 Rb6 2.877782 1_645
O9 Rb7 2.961272 1_554
O9 Rb3 3.007304 1_554
O9 Rb0 3.042316 1_545
O9 Rb0 3.042316 1_655
O10 Ti2 1.775279 1_555
O10 Rb5 2.877782 1_555
O10 Rb4 2.961272 1_555
O10 Rb2 3.007304 1_555
O10 Rb1 3.042316 1_455
O10 Rb1 3.042316 1_565
O11 Ti0 1.776194 1_555
O11 Rb1 2.847047 1_555
O11 Rb2 2.896482 1_645
O11 Rb4 3.049125 1_545
O11 Rb4 3.049125 1_655
O11 Rb7 3.061073 1_555
