# generated using pymatgen
data_Ga(MoS2)4
_symmetry_space_group_name_H-M   'P 1'
_cell_length_a   6.91163486
_cell_length_b   6.91163488
_cell_length_c   6.91163486
_cell_angle_alpha   60.72409903
_cell_angle_beta   60.72409421
_cell_angle_gamma   60.72409903
_symmetry_Int_Tables_number   1
_chemical_formula_structural   Ga(MoS2)4
_chemical_formula_sum   'Ga1 Mo4 S8'
_cell_volume   237.28295874
_cell_formula_units_Z   1
loop_
 _symmetry_equiv_pos_site_id
 _symmetry_equiv_pos_as_xyz
  1  'x, y, z'
loop_
 _atom_site_type_symbol
 _atom_site_label
 _atom_site_symmetry_multiplicity
 _atom_site_fract_x
 _atom_site_fract_y
 _atom_site_fract_z
 _atom_site_occupancy
  Ga  Ga0  1  0.00070600  0.00070600  0.00070600  1
  Mo  Mo0  1  0.60347700  0.60347700  0.18976700  1
  Mo  Mo1  1  0.59806300  0.59806300  0.59806300  1
  Mo  Mo2  1  0.60347700  0.18976700  0.60347700  1
  Mo  Mo3  1  0.18976700  0.60347700  0.60347700  1
  S  S0  1  0.36763300  0.36763300  0.36763300  1
  S  S1  1  0.40704800  0.86200400  0.86200400  1
  S  S2  1  0.86331100  0.86331100  0.86331100  1
  S  S3  1  0.86200400  0.40704800  0.86200400  1
  S  S4  1  0.36276900  0.90127100  0.36276900  1
  S  S5  1  0.86200400  0.86200400  0.40704800  1
  S  S6  1  0.36276900  0.36276900  0.90127100  1
  S  S7  1  0.90127100  0.36276900  0.36276900  1
loop_
_geom_bond_atom_site_label_1
_geom_bond_atom_site_label_2
_geom_bond_distance
_geom_bond_site_symmetry_2
Ga0 S2 2.313284 1_444
Ga0 S5 2.314741 1_445
Ga0 S1 2.314741 1_544
Ga0 S3 2.314741 1_454
Mo0 S0 2.346166 1_555
Mo0 S4 2.355070 1_555
Mo0 S7 2.355070 1_555
Mo0 S2 2.601840 1_554
Mo0 S3 2.616182 1_554
Mo0 S1 2.616182 1_554
Mo1 S7 2.366740 1_555
Mo1 S6 2.366740 1_555
Mo1 S4 2.366740 1_555
Mo1 S1 2.634889 1_555
Mo1 S5 2.634889 1_555
Mo1 S3 2.634889 1_555
Mo2 S0 2.346166 1_555
Mo2 S7 2.355070 1_555
Mo2 S6 2.355070 1_555
Mo2 S2 2.601840 1_545
Mo2 S1 2.616182 1_545
Mo2 S5 2.616182 1_545
Mo3 S0 2.346166 1_555
Mo3 S4 2.355070 1_555
Mo3 S6 2.355070 1_555
Mo3 S2 2.601840 1_455
Mo3 S3 2.616182 1_455
Mo3 S5 2.616182 1_455
