# generated using pymatgen
data_Tl3(FeS2)2
_symmetry_space_group_name_H-M   'P 1'
_cell_length_a   7.48230100
_cell_length_b   10.64281500
_cell_length_c   11.30913700
_cell_angle_alpha   90.00000000
_cell_angle_beta   90.00000000
_cell_angle_gamma   90.00000000
_symmetry_Int_Tables_number   1
_chemical_formula_structural   Tl3(FeS2)2
_chemical_formula_sum   'Tl12 Fe8 S16'
_cell_volume   900.57762648
_cell_formula_units_Z   4
loop_
 _symmetry_equiv_pos_site_id
 _symmetry_equiv_pos_as_xyz
  1  'x, y, z'
loop_
 _atom_site_type_symbol
 _atom_site_label
 _atom_site_symmetry_multiplicity
 _atom_site_fract_x
 _atom_site_fract_y
 _atom_site_fract_z
 _atom_site_occupancy
  Tl  Tl0  1  0.45194000  0.07705600  0.63732200  1
  Tl  Tl1  1  0.45194000  0.42294400  0.63732200  1
  Tl  Tl2  1  0.91059400  0.25000000  0.22511200  1
  Tl  Tl3  1  0.41059400  0.25000000  0.27488800  1
  Tl  Tl4  1  0.95194000  0.07705600  0.86267800  1
  Tl  Tl5  1  0.08940600  0.75000000  0.77488800  1
  Tl  Tl6  1  0.95194000  0.42294400  0.86267800  1
  Tl  Tl7  1  0.04806000  0.57705600  0.13732200  1
  Tl  Tl8  1  0.58940600  0.75000000  0.72511200  1
  Tl  Tl9  1  0.04806000  0.92294400  0.13732200  1
  Tl  Tl10  1  0.54806000  0.92294400  0.36267800  1
  Tl  Tl11  1  0.54806000  0.57705600  0.36267800  1
  Fe  Fe0  1  0.03356200  0.87275400  0.46733400  1
  Fe  Fe1  1  0.46643800  0.37275400  0.96733400  1
  Fe  Fe2  1  0.96643800  0.37275400  0.53266600  1
  Fe  Fe3  1  0.03356200  0.62724600  0.46733400  1
  Fe  Fe4  1  0.53356200  0.62724600  0.03266600  1
  Fe  Fe5  1  0.96643800  0.12724600  0.53266600  1
  Fe  Fe6  1  0.53356200  0.87275400  0.03266600  1
  Fe  Fe7  1  0.46643800  0.12724600  0.96733400  1
  S  S0  1  0.76567600  0.75000000  0.97349800  1
  S  S1  1  0.23432400  0.25000000  0.02650200  1
  S  S2  1  0.13462400  0.44877700  0.38292500  1
  S  S3  1  0.38435400  0.75000000  0.16609300  1
  S  S4  1  0.63462400  0.44877700  0.11707500  1
  S  S5  1  0.61564600  0.25000000  0.83390700  1
  S  S6  1  0.88435400  0.75000000  0.33390700  1
  S  S7  1  0.11564600  0.25000000  0.66609300  1
  S  S8  1  0.73432400  0.25000000  0.47349800  1
  S  S9  1  0.36537600  0.94877700  0.88292500  1
  S  S10  1  0.36537600  0.55122300  0.88292500  1
  S  S11  1  0.86537600  0.55122300  0.61707500  1
  S  S12  1  0.13462400  0.05122300  0.38292500  1
  S  S13  1  0.26567600  0.75000000  0.52650200  1
  S  S14  1  0.86537600  0.94877700  0.61707500  1
  S  S15  1  0.63462400  0.05122300  0.11707500  1
loop_
_geom_bond_atom_site_label_1
_geom_bond_atom_site_label_2
_geom_bond_distance
_geom_bond_site_symmetry_2
Fe0 S12 2.256284 1_565
Fe0 S14 2.259646 1_455
Fe0 S13 2.273949 1_555
Fe0 S6 2.286944 1_455
Fe1 S10 2.256284 1_555
Fe1 S4 2.259646 1_556
Fe1 S1 2.273949 1_556
Fe1 S5 2.286944 1_555
Fe2 S11 2.256284 1_555
Fe2 S2 2.259646 1_655
Fe2 S8 2.273949 1_555
Fe2 S7 2.286944 1_655
Fe3 S2 2.256284 1_555
Fe3 S11 2.259646 1_455
Fe3 S13 2.273949 1_555
Fe3 S6 2.286944 1_455
Fe4 S4 2.256284 1_555
Fe4 S10 2.259646 1_554
Fe4 S0 2.273949 1_554
Fe4 S3 2.286944 1_555
Fe5 S14 2.256284 1_545
Fe5 S12 2.259646 1_655
Fe5 S8 2.273949 1_555
Fe5 S7 2.286944 1_655
Fe6 S15 2.256284 1_565
Fe6 S9 2.259646 1_554
Fe6 S0 2.273949 1_554
Fe6 S3 2.286944 1_555
Fe7 S9 2.256284 1_545
Fe7 S15 2.259646 1_556
Fe7 S1 2.273949 1_556
Fe7 S5 2.286944 1_555
S0 Tl8 3.103251 1_555
S0 Tl5 3.303373 1_655
S1 Tl3 3.103251 1_555
S1 Tl2 3.303373 1_455
S2 Tl7 3.162001 1_555
S2 Tl3 3.198768 1_555
S2 Tl2 3.235837 1_455
S3 Tl9 3.134525 1_555
S3 Tl7 3.134525 1_555
S3 Tl10 3.135422 1_555
S3 Tl11 3.135422 1_555
S4 Tl11 3.162001 1_555
S4 Tl2 3.198768 1_555
S4 Tl3 3.235837 1_555
S5 Tl6 3.134525 1_555
S5 Tl4 3.134525 1_555
S5 Tl0 3.135422 1_555
S5 Tl1 3.135422 1_555
S6 Tl11 3.134525 1_555
S6 Tl10 3.134525 1_555
S6 Tl7 3.135422 1_655
S6 Tl9 3.135422 1_655
S7 Tl0 3.134525 1_555
S7 Tl1 3.134525 1_555
S7 Tl4 3.135422 1_455
S7 Tl6 3.135422 1_455
S8 Tl2 3.103251 1_555
S8 Tl3 3.303373 1_555
S9 Tl0 3.162001 1_565
S9 Tl5 3.198768 1_555
S9 Tl8 3.235837 1_555
S10 Tl1 3.162001 1_555
S10 Tl5 3.198768 1_555
S10 Tl8 3.235837 1_555
S11 Tl6 3.162001 1_555
S11 Tl8 3.198768 1_555
S11 Tl5 3.235837 1_655
S12 Tl9 3.162001 1_545
S12 Tl3 3.198768 1_555
S12 Tl2 3.235837 1_455
S13 Tl5 3.103251 1_555
S13 Tl8 3.303373 1_555
S14 Tl4 3.162001 1_565
S14 Tl8 3.198768 1_555
S14 Tl5 3.235837 1_655
S15 Tl10 3.162001 1_545
S15 Tl2 3.198768 1_555
S15 Tl3 3.235837 1_555
