# generated using pymatgen
data_Li9Mn21O40
_symmetry_space_group_name_H-M   'P 1'
_cell_length_a   10.04046063
_cell_length_b   10.04046063
_cell_length_c   10.04046063
_cell_angle_alpha   99.60060518
_cell_angle_beta   99.60060518
_cell_angle_gamma   131.79302223
_symmetry_Int_Tables_number   1
_chemical_formula_structural   Li9Mn21O40
_chemical_formula_sum   'Li9 Mn21 O40'
_cell_volume   688.84565589
_cell_formula_units_Z   1
loop_
 _symmetry_equiv_pos_site_id
 _symmetry_equiv_pos_as_xyz
  1  'x, y, z'
loop_
 _atom_site_type_symbol
 _atom_site_label
 _atom_site_symmetry_multiplicity
 _atom_site_fract_x
 _atom_site_fract_y
 _atom_site_fract_z
 _atom_site_occupancy
  Li  Li0  1  0.40005400  0.19991300  0.59996700  1
  Li  Li1  1  0.80008700  0.40005400  0.20014100  1
  Li  Li2  1  0.19991300  0.59994600  0.79985900  1
  Li  Li3  1  0.45113300  0.35069600  0.30113800  1
  Li  Li4  1  0.59994600  0.80008700  0.40003300  1
  Li  Li5  1  0.85000600  0.54886700  0.89956400  1
  Li  Li6  1  0.25000000  0.75000000  0.50000000  1
  Li  Li7  1  0.64930400  0.95044200  0.10043600  1
  Li  Li8  1  0.04955800  0.14999400  0.69886200  1
  Mn  Mn0  1  0.92515500  0.77510800  0.44995000  1
  Mn  Mn1  1  0.72222400  0.67191800  0.15096100  1
  Mn  Mn2  1  0.42873700  0.27777600  0.94969400  1
  Mn  Mn3  1  0.32766200  0.97441900  0.05118600  1
  Mn  Mn4  1  0.12502400  0.87303200  0.74720900  1
  Mn  Mn5  1  0.72352400  0.67233800  0.64675800  1
  Mn  Mn6  1  0.82493000  0.47461700  0.54991800  1
  Mn  Mn7  1  0.72498800  0.17507000  0.64968700  1
  Mn  Mn8  1  0.52538300  0.07530100  0.35031300  1
  Mn  Mn9  1  0.12696800  0.87417700  0.25199200  1
  Mn  Mn10  1  0.22489200  0.67484200  0.15004700  1
  Mn  Mn11  1  0.12582300  0.37781500  0.25279100  1
  Mn  Mn12  1  0.92323300  0.27647600  0.94881400  1
  Mn  Mn13  1  0.00000000  0.00000000  0.00000000  1
  Mn  Mn14  1  0.52479400  0.07484500  0.84995300  1
  Mn  Mn15  1  0.62218500  0.87497600  0.74800800  1
  Mn  Mn16  1  0.52095700  0.57126300  0.84903900  1
  Mn  Mn17  1  0.32515800  0.47520600  0.55005000  1
  Mn  Mn18  1  0.92469900  0.27501200  0.45008200  1
  Mn  Mn19  1  0.02558100  0.07676700  0.35324200  1
  Mn  Mn20  1  0.32808200  0.47904300  0.05030600  1
  O  O0  1  0.15128500  0.00647600  0.43446300  1
  O  O1  1  0.97251300  0.91728900  0.16582200  1
  O  O2  1  0.88313200  0.64875600  0.25562900  1
  O  O3  1  0.65758100  0.52347900  0.95533000  1
  O  O4  1  0.55154200  0.20646000  0.03415700  1
  O  O5  1  0.37249600  0.11686800  0.76562400  1
  O  O6  1  0.19330900  0.02748700  0.94477600  1
  O  O7  1  0.28317700  0.84871500  0.85519100  1
  O  O8  1  0.96695800  0.90084500  0.64466900  1
  O  O9  1  0.87764500  0.63288400  0.73381500  1
  O  O10  1  0.05634800  0.72144900  0.55431700  1
  O  O11  1  0.69855800  0.54269600  0.46485800  1
  O  O12  1  0.95114500  0.40642200  0.63409800  1
  O  O13  1  0.77232400  0.31704800  0.36590200  1
  O  O14  1  0.59357800  0.22767600  0.54472300  1
  O  O15  1  0.68295200  0.04885500  0.45527700  1
  O  O16  1  0.36711600  0.10093000  0.24476100  1
  O  O17  1  0.27855100  0.83286900  0.33489900  1
  O  O18  1  0.45730400  0.92216200  0.15586200  1
  O  O19  1  0.09915500  0.74382400  0.06611400  1
  O  O20  1  0.35124400  0.60687300  0.23437600  1
  O  O21  1  0.99352400  0.42798600  0.14480900  1
  O  O22  1  0.17230300  0.51738400  0.96584300  1
  O  O23  1  0.08271100  0.24853300  0.05522400  1
  O  O24  1  0.76630000  0.30144200  0.84413800  1
  O  O25  1  0.67771000  0.03304200  0.93388600  1
  O  O26  1  0.85616900  0.12235500  0.75523900  1
  O  O27  1  0.49797000  0.94365200  0.66510100  1
  O  O28  1  0.75146700  0.80669100  0.83417800  1
  O  O29  1  0.57201400  0.71682300  0.56553700  1
  O  O30  1  0.39312700  0.62750400  0.74437100  1
  O  O31  1  0.48261600  0.44845800  0.65491800  1
  O  O32  1  0.16713100  0.50203000  0.44568300  1
  O  O33  1  0.07783800  0.23370000  0.53514200  1
  O  O34  1  0.25617600  0.32229000  0.35533100  1
  O  O35  1  0.89907000  0.14383100  0.26618500  1
  O  O36  1  0.79354000  0.82769700  0.34508200  1
  O  O37  1  0.56814800  0.70225100  0.04467000  1
  O  O38  1  0.47652100  0.43185200  0.13410300  1
  O  O39  1  0.29774900  0.34241900  0.86589700  1
loop_
_geom_bond_atom_site_label_1
_geom_bond_atom_site_label_2
_geom_bond_distance
_geom_bond_site_symmetry_2
Li0 O0 1.960939 1_555
Li0 O5 1.961344 1_555
Li0 O31 1.962145 1_555
Li0 O14 1.962148 1_555
Li1 O21 1.960944 1_555
Li1 O2 1.961344 1_555
Li1 O13 1.962143 1_555
Li1 O4 1.962150 1_555
Li2 O7 1.960944 1_555
Li2 O30 1.961339 1_555
Li2 O12 1.962148 1_455
Li2 O22 1.962155 1_555
Li3 O11 1.946163 1_555
Li3 O38 1.965508 1_555
Li3 O16 1.966841 1_555
Li3 O34 1.967731 1_555
Li4 O29 1.960934 1_555
Li4 O20 1.961344 1_555
Li4 O36 1.962150 1_555
Li4 O15 1.962153 1_565
Li5 O24 1.946159 1_555
Li5 O3 1.965517 1_555
Li5 O9 1.966841 1_555
Li5 O19 1.967721 1_656
Li6 O10 1.955262 1_555
Li6 O17 1.955266 1_555
Li6 O27 1.955266 1_555
Li6 O32 1.955266 1_555
Li7 O18 1.946168 1_555
Li7 O37 1.965508 1_555
Li7 O35 1.966841 1_565
Li7 O25 1.967726 1_564
Li8 O33 1.946168 1_555
Li8 O39 1.965508 1_555
Li8 O26 1.966845 1_455
Li8 O8 1.967716 1_445
Mn0 O2 1.944342 1_555
Mn0 O0 1.945200 1_665
Mn0 O36 1.945536 1_555
Mn0 O8 1.946533 1_555
Mn0 O10 1.948659 1_655
Mn0 O11 1.948768 1_555
Mn1 O38 1.929605 1_555
Mn1 O36 1.944943 1_555
Mn1 O2 1.945408 1_555
Mn1 O3 1.951832 1_554
Mn1 O37 1.952074 1_555
Mn1 O1 1.976674 1_555
Mn2 O3 1.929605 1_555
Mn2 O4 1.944943 1_556
Mn2 O5 1.945404 1_555
Mn2 O39 1.951836 1_555
Mn2 O38 1.952078 1_556
Mn2 O6 1.976674 1_555
Mn3 O18 1.926692 1_555
Mn3 O4 1.946984 1_565
Mn3 O7 1.947301 1_554
Mn3 O16 1.948571 1_565
Mn3 O19 1.948608 1_555
Mn3 O6 1.977949 1_564
Mn4 O10 1.927508 1_555
Mn4 O7 1.946122 1_555
Mn4 O5 1.946659 1_565
Mn4 O8 1.948925 1_455
Mn4 O9 1.949126 1_455
Mn4 O6 1.978135 1_565
Mn5 O11 1.926700 1_555
Mn5 O31 1.946975 1_555
Mn5 O29 1.947307 1_555
Mn5 O9 1.948571 1_555
Mn5 O8 1.948608 1_555
Mn5 O28 1.977941 1_555
Mn6 O13 1.944543 1_555
Mn6 O12 1.944595 1_555
Mn6 O14 1.945720 1_555
Mn6 O9 1.946488 1_555
Mn6 O11 1.948291 1_555
Mn6 O10 1.948517 1_655
Mn7 O14 1.944548 1_555
Mn7 O15 1.944591 1_555
Mn7 O12 1.945720 1_555
Mn7 O26 1.946480 1_555
Mn7 O24 1.948291 1_555
Mn7 O27 1.948513 1_545
Mn8 O15 1.944540 1_555
Mn8 O14 1.944595 1_555
Mn8 O13 1.945724 1_555
Mn8 O16 1.946480 1_555
Mn8 O18 1.948291 1_545
Mn8 O17 1.948513 1_545
Mn9 O17 1.927500 1_555
Mn9 O0 1.946130 1_565
Mn9 O2 1.946664 1_455
Mn9 O19 1.948916 1_555
Mn9 O16 1.949123 1_565
Mn9 O1 1.978135 1_455
Mn10 O20 1.944342 1_555
Mn10 O21 1.945204 1_455
Mn10 O22 1.945541 1_554
Mn10 O19 1.946529 1_555
Mn10 O17 1.948664 1_555
Mn10 O18 1.948768 1_555
Mn11 O32 1.927508 1_555
Mn11 O21 1.946122 1_455
Mn11 O20 1.946664 1_555
Mn11 O34 1.948916 1_555
Mn11 O35 1.949118 1_455
Mn11 O23 1.978135 1_555
Mn12 O24 1.926692 1_555
Mn12 O22 1.946980 1_655
Mn12 O21 1.947301 1_556
Mn12 O26 1.948571 1_555
Mn12 O25 1.948604 1_555
Mn12 O23 1.977949 1_656
Mn13 O1 1.961324 1_445
Mn13 O23 1.961324 1_555
Mn13 O6 1.961324 1_554
Mn13 O28 1.961324 1_444
Mn14 O5 1.944342 1_555
Mn14 O7 1.945200 1_545
Mn14 O4 1.945531 1_556
Mn14 O25 1.946530 1_555
Mn14 O27 1.948668 1_545
Mn14 O24 1.948773 1_555
Mn15 O27 1.927500 1_555
Mn15 O29 1.946129 1_555
Mn15 O30 1.946659 1_555
Mn15 O25 1.948921 1_565
Mn15 O26 1.949123 1_565
Mn15 O28 1.978135 1_555
Mn16 O39 1.929600 1_555
Mn16 O31 1.944947 1_555
Mn16 O30 1.945417 1_555
Mn16 O37 1.951836 1_556
Mn16 O3 1.952065 1_555
Mn16 O28 1.976674 1_555
Mn17 O30 1.944342 1_555
Mn17 O29 1.945204 1_555
Mn17 O31 1.945552 1_555
Mn17 O34 1.946533 1_555
Mn17 O32 1.948652 1_555
Mn17 O33 1.948772 1_555
Mn18 O12 1.944548 1_555
Mn18 O13 1.944603 1_555
Mn18 O15 1.945725 1_555
Mn18 O35 1.946488 1_555
Mn18 O33 1.948291 1_655
Mn18 O32 1.948509 1_655
Mn19 O33 1.926700 1_555
Mn19 O36 1.946988 1_445
Mn19 O0 1.947308 1_555
Mn19 O35 1.948571 1_455
Mn19 O34 1.948604 1_555
Mn19 O1 1.977941 1_445
Mn20 O37 1.929600 1_555
Mn20 O22 1.944935 1_554
Mn20 O20 1.945408 1_555
Mn20 O38 1.951828 1_555
Mn20 O39 1.952074 1_554
Mn20 O23 1.976674 1_555
