# generated using pymatgen
data_NpAl2Pd5
_symmetry_space_group_name_H-M   'P 1'
_cell_length_a   8.01055131
_cell_length_b   8.01055131
_cell_length_c   8.01055131
_cell_angle_alpha   149.99668988
_cell_angle_beta   149.99668988
_cell_angle_gamma   42.94626178
_symmetry_Int_Tables_number   1
_chemical_formula_structural   NpAl2Pd5
_chemical_formula_sum   'Np1 Al2 Pd5'
_cell_volume   128.20098950
_cell_formula_units_Z   1
loop_
 _symmetry_equiv_pos_site_id
 _symmetry_equiv_pos_as_xyz
  1  'x, y, z'
loop_
 _atom_site_type_symbol
 _atom_site_label
 _atom_site_symmetry_multiplicity
 _atom_site_fract_x
 _atom_site_fract_y
 _atom_site_fract_z
 _atom_site_occupancy
  Np  Np0  1  0.00000000  0.00000000  -0.00000000  1
  Al  Al0  1  0.74656553  0.74656553  0.00000000  1
  Al  Al1  1  0.25343447  0.25343447  -0.00000000  1
  Pd  Pd0  1  0.35458606  0.85458606  0.50000000  1
  Pd  Pd1  1  0.14541394  0.64541394  0.50000000  1
  Pd  Pd2  1  0.85458606  0.35458606  0.50000000  1
  Pd  Pd3  1  0.64541394  0.14541394  0.50000000  1
  Pd  Pd4  1  0.50000000  0.50000000  -0.00000000  1
loop_
_geom_bond_atom_site_label_1
_geom_bond_atom_site_label_2
_geom_bond_distance
_geom_bond_site_symmetry_2
Np0 Pd4 2.932381 1_556
Np0 Pd4 2.932381 1_545
Np0 Pd4 2.932381 1_444
Np0 Pd4 2.932381 1_455
Np0 Pd3 2.999932 1_555
Np0 Pd0 2.999932 1_444
Np0 Pd0 2.999932 1_545
Np0 Pd1 2.999932 1_555
Np0 Pd2 2.999932 1_455
Np0 Pd3 2.999932 1_454
Np0 Pd2 2.999932 1_444
Np0 Pd1 2.999932 1_544
Al0 Pd3 2.563927 1_565
Al0 Pd1 2.563927 1_655
Al0 Pd1 2.563927 1_554
Al0 Pd3 2.563927 1_554
Al0 Pd0 2.625470 1_655
Al0 Pd2 2.625470 1_565
Al0 Pd2 2.625470 1_554
Al0 Pd0 2.625470 1_554
Al1 Pd2 2.563927 1_555
Al1 Pd0 2.563927 1_555
Al1 Pd0 2.563927 1_544
Al1 Pd2 2.563927 1_454
Al1 Pd1 2.625470 1_544
Al1 Pd1 2.625470 1_555
Al1 Pd3 2.625470 1_555
Al1 Pd3 2.625470 1_454
