# generated using pymatgen
data_InBi
_symmetry_space_group_name_H-M   'P 1'
_cell_length_a   4.85883800
_cell_length_b   4.85883800
_cell_length_c   5.17545000
_cell_angle_alpha   90.00000000
_cell_angle_beta   90.00000000
_cell_angle_gamma   90.00000000
_symmetry_Int_Tables_number   1
_chemical_formula_structural   InBi
_chemical_formula_sum   'In2 Bi2'
_cell_volume   122.18361096
_cell_formula_units_Z   2
loop_
 _symmetry_equiv_pos_site_id
 _symmetry_equiv_pos_as_xyz
  1  'x, y, z'
loop_
 _atom_site_type_symbol
 _atom_site_label
 _atom_site_symmetry_multiplicity
 _atom_site_fract_x
 _atom_site_fract_y
 _atom_site_fract_z
 _atom_site_occupancy
  In  In0  1  0.00000000  0.50000000  0.50486200  1
  In  In1  1  0.50000000  0.00000000  0.49513800  1
  Bi  Bi0  1  0.50000000  0.50000000  0.00000000  1
  Bi  Bi1  1  0.00000000  0.00000000  0.00000000  1
loop_
_geom_bond_atom_site_label_1
_geom_bond_atom_site_label_2
_geom_bond_distance
_geom_bond_site_symmetry_2
In0 In1 3.436086 1_455
In0 In1 3.436086 1_555
In0 In1 3.436086 1_565
In0 In1 3.436086 1_465
Bi0 Bi1 3.435717 1_565
Bi0 Bi1 3.435717 1_665
Bi0 Bi1 3.435717 1_655
Bi0 Bi1 3.435717 1_555
Bi0 In1 3.531119 1_565
Bi0 In0 3.531119 1_554
Bi0 In0 3.531119 1_654
Bi0 In1 3.531119 1_555
Bi0 In1 3.567809 1_554
Bi0 In1 3.567809 1_564
Bi0 In0 3.567809 1_555
Bi0 In0 3.567809 1_655
Bi1 In0 3.531119 1_554
Bi1 In1 3.531119 1_455
Bi1 In0 3.531119 1_544
Bi1 In1 3.531119 1_555
Bi1 In1 3.567809 1_554
Bi1 In1 3.567809 1_454
Bi1 In0 3.567809 1_545
Bi1 In0 3.567809 1_555
