# generated using pymatgen
data_Ce2Fe17N3
_symmetry_space_group_name_H-M   'P 1'
_cell_length_a   6.52917264
_cell_length_b   6.52917333
_cell_length_c   6.52917298
_cell_angle_alpha   83.31388112
_cell_angle_beta   83.31387654
_cell_angle_gamma   83.31387870
_symmetry_Int_Tables_number   1
_chemical_formula_structural   Ce2Fe17N3
_chemical_formula_sum   'Ce2 Fe17 N3'
_cell_volume   273.06896607
_cell_formula_units_Z   1
loop_
 _symmetry_equiv_pos_site_id
 _symmetry_equiv_pos_as_xyz
  1  'x, y, z'
loop_
 _atom_site_type_symbol
 _atom_site_label
 _atom_site_symmetry_multiplicity
 _atom_site_fract_x
 _atom_site_fract_y
 _atom_site_fract_z
 _atom_site_occupancy
  Ce  Ce0  1  0.65697500  0.65697500  0.65697500  1
  Ce  Ce1  1  0.34302500  0.34302500  0.34302500  1
  Fe  Fe0  1  0.90506400  0.90506400  0.90506400  1
  Fe  Fe1  1  0.00000000  0.00000000  0.50000000  1
  Fe  Fe2  1  0.50000000  0.00000000  0.00000000  1
  Fe  Fe3  1  0.00000000  0.50000000  0.00000000  1
  Fe  Fe4  1  0.28136800  0.71863200  0.00000000  1
  Fe  Fe5  1  0.00000000  0.28136800  0.71863200  1
  Fe  Fe6  1  0.71863200  0.00000000  0.28136800  1
  Fe  Fe7  1  0.71863200  0.28136800  0.00000000  1
  Fe  Fe8  1  0.00000000  0.71863200  0.28136800  1
  Fe  Fe9  1  0.28136800  0.00000000  0.71863200  1
  Fe  Fe10  1  0.65786300  0.14262700  0.65786300  1
  Fe  Fe11  1  0.65786300  0.65786300  0.14262700  1
  Fe  Fe12  1  0.14262700  0.65786300  0.65786300  1
  Fe  Fe13  1  0.85737300  0.34213700  0.34213700  1
  Fe  Fe14  1  0.34213700  0.85737300  0.34213700  1
  Fe  Fe15  1  0.34213700  0.34213700  0.85737300  1
  Fe  Fe16  1  0.09493600  0.09493600  0.09493600  1
  N  N0  1  0.50000000  0.00000000  0.50000000  1
  N  N1  1  0.00000000  0.50000000  0.50000000  1
  N  N2  1  0.50000000  0.50000000  0.00000000  1
loop_
_geom_bond_atom_site_label_1
_geom_bond_atom_site_label_2
_geom_bond_distance
_geom_bond_site_symmetry_2
Ce0 N1 2.508503 1_655
Ce0 N2 2.508503 1_556
Ce0 N0 2.508503 1_565
Ce0 Fe0 3.115181 1_555
Ce0 Fe2 3.343905 1_566
Ce0 Fe1 3.343905 1_665
Ce0 Fe3 3.343905 1_656
Ce1 N1 2.508503 1_555
Ce1 N2 2.508503 1_555
Ce1 N0 2.508503 1_555
Ce1 Fe16 3.115181 1_555
Ce1 Fe2 3.343905 1_555
Ce1 Fe1 3.343905 1_555
Ce1 Fe3 3.343905 1_555
Fe0 Fe16 2.384167 1_666
Fe0 Fe12 2.656441 1_655
Fe0 Fe11 2.656441 1_556
Fe0 Fe10 2.656441 1_565
Fe0 Fe2 2.662525 1_566
Fe0 Fe1 2.662525 1_665
Fe0 Fe3 2.662525 1_656
Fe0 Fe9 2.717545 1_665
Fe0 Fe6 2.717545 1_566
Fe0 Fe4 2.717545 1_656
Fe0 Fe7 2.717545 1_566
Fe0 Fe8 2.717545 1_656
Fe0 Fe5 2.717545 1_665
Fe1 Fe6 2.454244 1_455
Fe1 Fe9 2.454244 1_555
Fe1 Fe8 2.454244 1_545
Fe1 Fe5 2.454244 1_555
Fe1 Fe10 2.474408 1_455
Fe1 Fe14 2.474408 1_545
Fe1 Fe13 2.474409 1_455
Fe1 Fe12 2.474409 1_545
Fe1 Fe16 2.662525 1_555
Fe2 Fe9 2.454244 1_554
Fe2 Fe6 2.454244 1_555
Fe2 Fe4 2.454244 1_545
Fe2 Fe7 2.454244 1_555
Fe3 Fe7 2.454244 1_455
Fe3 Fe4 2.454244 1_555
Fe3 Fe5 2.454244 1_554
Fe3 Fe8 2.454244 1_555
Fe4 N2 1.897612 1_555
Fe5 N1 1.897612 1_555
Fe6 N0 1.897612 1_555
Fe7 N2 1.897612 1_555
Fe8 N1 1.897612 1_555
Fe9 N0 1.897612 1_555
Fe10 N0 1.919987 1_555
Fe10 Fe2 2.474408 1_556
Fe11 N2 1.919987 1_555
Fe11 Fe3 2.474408 1_655
Fe11 Fe2 2.474409 1_565
Fe12 N1 1.919987 1_555
Fe12 Fe3 2.474408 1_556
Fe13 N1 1.919987 1_655
Fe13 Fe3 2.474408 1_655
Fe13 Fe16 2.656441 1_655
Fe14 N0 1.919987 1_565
Fe14 Fe2 2.474408 1_565
Fe14 Fe16 2.656441 1_565
Fe15 N2 1.919987 1_556
Fe15 Fe3 2.474408 1_556
Fe15 Fe2 2.474409 1_556
Fe15 Fe16 2.656441 1_556
Fe16 Fe2 2.662525 1_555
Fe16 Fe3 2.662525 1_555
Fe16 Fe6 2.717545 1_455
Fe16 Fe9 2.717545 1_554
Fe16 Fe7 2.717545 1_455
Fe16 Fe4 2.717545 1_545
Fe16 Fe5 2.717545 1_554
Fe16 Fe8 2.717545 1_545
