# generated using pymatgen
data_Na2Gd2B2O7
_symmetry_space_group_name_H-M   'P 1'
_cell_length_a   6.37159600
_cell_length_b   10.43595500
_cell_length_c   10.75874359
_cell_angle_alpha   62.10301829
_cell_angle_beta   90.00000000
_cell_angle_gamma   90.00000000
_symmetry_Int_Tables_number   1
_chemical_formula_structural   Na2Gd2B2O7
_chemical_formula_sum   'Na8 Gd8 B8 O28'
_cell_volume   632.25344780
_cell_formula_units_Z   4
loop_
 _symmetry_equiv_pos_site_id
 _symmetry_equiv_pos_as_xyz
  1  'x, y, z'
loop_
 _atom_site_type_symbol
 _atom_site_label
 _atom_site_symmetry_multiplicity
 _atom_site_fract_x
 _atom_site_fract_y
 _atom_site_fract_z
 _atom_site_occupancy
  Na  Na0  1  0.44194800  0.24075900  0.52339800  1
  Na  Na1  1  0.94194800  0.25924100  0.47660200  1
  Na  Na2  1  0.77571700  0.45200000  0.61008500  1
  Na  Na3  1  0.05805200  0.74075900  0.52339800  1
  Na  Na4  1  0.27571700  0.04800000  0.38991500  1
  Na  Na5  1  0.72428300  0.95200000  0.61008500  1
  Na  Na6  1  0.22428300  0.54800000  0.38991500  1
  Na  Na7  1  0.55805200  0.75924100  0.47660200  1
  Gd  Gd0  1  0.95747600  0.31838800  0.98320800  1
  Gd  Gd1  1  0.41899600  0.58817800  0.81513900  1
  Gd  Gd2  1  0.54252400  0.81838800  0.98320800  1
  Gd  Gd3  1  0.91899600  0.91182200  0.18486100  1
  Gd  Gd4  1  0.04252400  0.68161200  0.01679200  1
  Gd  Gd5  1  0.45747600  0.18161200  0.01679200  1
  Gd  Gd6  1  0.58100400  0.41182200  0.18486100  1
  Gd  Gd7  1  0.08100400  0.08817800  0.81513900  1
  B  B0  1  0.24636000  0.42199400  0.68280000  1
  B  B1  1  0.15173500  0.34981400  0.20953900  1
  B  B2  1  0.84826500  0.65018600  0.79046100  1
  B  B3  1  0.25364000  0.92199400  0.68280000  1
  B  B4  1  0.34826500  0.84981400  0.20953900  1
  B  B5  1  0.65173500  0.15018600  0.79046100  1
  B  B6  1  0.75364000  0.57800600  0.31720000  1
  B  B7  1  0.74636000  0.07800600  0.31720000  1
  O  O0  1  0.37807000  0.59812400  0.02478400  1
  O  O1  1  0.73639200  0.63157300  0.16955300  1
  O  O2  1  0.45920100  0.08841800  0.84949800  1
  O  O3  1  0.25482200  0.26955000  0.15335500  1
  O  O4  1  0.35364200  0.84072500  0.62990900  1
  O  O5  1  0.85364200  0.65927500  0.37009100  1
  O  O6  1  0.87807000  0.90187600  0.97521600  1
  O  O7  1  0.82995100  0.94207300  0.39928300  1
  O  O8  1  0.23639200  0.86842700  0.83044700  1
  O  O9  1  0.75482200  0.23045000  0.84664500  1
  O  O10  1  0.75634200  0.63385100  0.68393700  1
  O  O11  1  0.12193000  0.09812400  0.02478400  1
  O  O12  1  0.62193000  0.40187600  0.97521600  1
  O  O13  1  0.24517800  0.76955000  0.15335500  1
  O  O14  1  0.64635800  0.15927500  0.37009100  1
  O  O15  1  0.74365800  0.13385100  0.68393700  1
  O  O16  1  0.76360800  0.13157300  0.16955300  1
  O  O17  1  0.54079900  0.91158200  0.15050200  1
  O  O18  1  0.24365800  0.36614900  0.31606300  1
  O  O19  1  0.17004900  0.05792700  0.60071700  1
  O  O20  1  0.95920100  0.41158200  0.15050200  1
  O  O21  1  0.25634200  0.86614900  0.31606300  1
  O  O22  1  0.04079900  0.58841800  0.84949800  1
  O  O23  1  0.32995100  0.55792700  0.60071700  1
  O  O24  1  0.67004900  0.44207300  0.39928300  1
  O  O25  1  0.74517800  0.73045000  0.84664500  1
  O  O26  1  0.14635800  0.34072500  0.62990900  1
  O  O27  1  0.26360800  0.36842700  0.83044700  1
loop_
_geom_bond_atom_site_label_1
_geom_bond_atom_site_label_2
_geom_bond_distance
_geom_bond_site_symmetry_2
Na0 O18 2.356474 1_555
Na0 O24 2.384109 1_555
Na0 O19 2.418391 1_555
Na0 O15 2.473916 1_555
Na0 O14 2.540155 1_555
Na0 O26 2.658439 1_555
Na1 O15 2.356474 1_555
Na1 O19 2.384109 1_655
Na1 O24 2.418391 1_555
Na1 O18 2.473916 1_655
Na1 O26 2.540155 1_655
Na1 O14 2.658439 1_555
Na2 O10 2.378907 1_555
Na2 O24 2.414034 1_555
Na2 O9 2.516835 1_555
Na2 O5 2.523094 1_555
Na2 O26 2.596013 1_655
Na3 O21 2.356474 1_555
Na3 O7 2.384109 1_455
Na3 O23 2.418391 1_555
Na3 O10 2.473916 1_455
Na3 O5 2.540155 1_455
Na3 O4 2.658439 1_555
Na4 O21 2.378907 1_545
Na4 O19 2.414034 1_555
Na4 O3 2.516835 1_555
Na4 O4 2.523094 1_545
Na4 O14 2.596013 1_555
Na5 O15 2.378907 1_565
Na5 O7 2.414034 1_555
Na5 O25 2.516835 1_555
Na5 O14 2.523094 1_565
Na5 O4 2.596013 1_555
Na6 O18 2.378907 1_555
Na6 O23 2.414034 1_555
Na6 O13 2.516835 1_555
Na6 O26 2.523094 1_555
Na6 O5 2.596013 1_455
Na7 O10 2.356474 1_555
Na7 O23 2.384109 1_555
Na7 O7 2.418391 1_555
Na7 O21 2.473916 1_555
Na7 O4 2.540155 1_555
Na7 O5 2.658439 1_555
Gd0 O12 2.295060 1_555
Gd0 O11 2.370599 1_656
Gd0 O16 2.385073 1_556
Gd0 O20 2.413216 1_556
Gd0 O9 2.435140 1_555
Gd0 O27 2.444456 1_655
Gd0 O3 2.515368 1_656
Gd0 O22 2.549324 1_655
Gd1 O12 2.298842 1_555
Gd1 O0 2.320604 1_556
Gd1 O27 2.431708 1_555
Gd1 O22 2.438086 1_555
Gd1 O4 2.485184 1_555
Gd1 O10 2.492023 1_555
Gd1 O23 2.534740 1_555
Gd1 O25 2.666391 1_555
Gd2 O6 2.295060 1_555
Gd2 O0 2.370599 1_556
Gd2 O1 2.385073 1_556
Gd2 O17 2.413216 1_556
Gd2 O25 2.435140 1_555
Gd2 O8 2.444456 1_555
Gd2 O13 2.515368 1_556
Gd2 O2 2.549324 1_565
Gd3 O11 2.298842 1_665
Gd3 O6 2.320604 1_554
Gd3 O16 2.431708 1_565
Gd3 O17 2.438086 1_555
Gd3 O5 2.485184 1_555
Gd3 O21 2.492023 1_655
Gd3 O7 2.534740 1_555
Gd3 O13 2.666391 1_655
Gd4 O0 2.295060 1_555
Gd4 O6 2.370599 1_454
Gd4 O8 2.385073 1_554
Gd4 O22 2.413216 1_554
Gd4 O13 2.435140 1_555
Gd4 O1 2.444456 1_455
Gd4 O25 2.515368 1_454
Gd4 O20 2.549324 1_455
Gd5 O11 2.295060 1_555
Gd5 O12 2.370599 1_554
Gd5 O27 2.385073 1_554
Gd5 O2 2.413216 1_554
Gd5 O3 2.435140 1_555
Gd5 O16 2.444456 1_555
Gd5 O9 2.515368 1_554
Gd5 O17 2.549324 1_545
Gd6 O0 2.298842 1_555
Gd6 O12 2.320604 1_554
Gd6 O1 2.431708 1_555
Gd6 O20 2.438086 1_555
Gd6 O14 2.485184 1_555
Gd6 O18 2.492023 1_555
Gd6 O24 2.534740 1_555
Gd6 O3 2.666391 1_555
Gd7 O6 2.298842 1_445
Gd7 O11 2.320604 1_556
Gd7 O8 2.431708 1_545
Gd7 O2 2.438086 1_555
Gd7 O26 2.485184 1_555
Gd7 O15 2.492023 1_455
Gd7 O19 2.534740 1_555
Gd7 O9 2.666391 1_455
B0 O26 1.378665 1_555
B0 O23 1.379729 1_555
B0 O27 1.420190 1_555
B1 O18 1.366889 1_555
B1 O20 1.393102 1_455
B1 O3 1.404362 1_555
B2 O10 1.366889 1_555
B2 O22 1.393102 1_655
B2 O25 1.404362 1_555
B3 O4 1.378665 1_555
B3 O19 1.379729 1_565
B3 O8 1.420190 1_555
B4 O21 1.366889 1_555
B4 O17 1.393102 1_555
B4 O13 1.404362 1_555
B5 O15 1.366889 1_555
B5 O2 1.393102 1_555
B5 O9 1.404362 1_555
B6 O5 1.378665 1_555
B6 O24 1.379729 1_555
B6 O1 1.420190 1_555
B7 O14 1.378665 1_555
B7 O7 1.379729 1_545
B7 O16 1.420190 1_555
