# generated using pymatgen
data_Ca3(AsO4)2
_symmetry_space_group_name_H-M   'P 1'
_cell_length_a   14.25577019
_cell_length_b   14.25577019
_cell_length_c   14.25576993
_cell_angle_alpha   45.07982220
_cell_angle_beta   45.07982220
_cell_angle_gamma   45.07982107
_symmetry_Int_Tables_number   1
_chemical_formula_structural   Ca3(AsO4)2
_chemical_formula_sum   'Ca21 As14 O56'
_cell_volume   1322.36411990
_cell_formula_units_Z   7
loop_
 _symmetry_equiv_pos_site_id
 _symmetry_equiv_pos_as_xyz
  1  'x, y, z'
loop_
 _atom_site_type_symbol
 _atom_site_label
 _atom_site_symmetry_multiplicity
 _atom_site_fract_x
 _atom_site_fract_y
 _atom_site_fract_z
 _atom_site_occupancy
  Ca  Ca0  1  0.26662200  0.26662200  0.26662200  1
  Ca  Ca1  1  0.19782700  0.19718800  0.61140700  1
  Ca  Ca2  1  0.61140700  0.19782700  0.19718800  1
  Ca  Ca3  1  0.19718800  0.61140700  0.19782700  1
  Ca  Ca4  1  0.31809000  0.27228500  0.72475800  1
  Ca  Ca5  1  0.72475800  0.31809000  0.27228500  1
  Ca  Ca6  1  0.69989900  0.11022100  0.69784800  1
  Ca  Ca7  1  0.27228500  0.72475800  0.31809000  1
  Ca  Ca8  1  0.91889200  0.32043400  0.35971400  1
  Ca  Ca9  1  0.32043400  0.35971400  0.91889200  1
  Ca  Ca10  1  0.11022100  0.69784800  0.69989900  1
  Ca  Ca11  1  0.69784800  0.69989900  0.11022100  1
  Ca  Ca12  1  0.82485900  0.20342500  0.80068700  1
  Ca  Ca13  1  0.35971400  0.91889200  0.32043400  1
  Ca  Ca14  1  0.57566600  0.57566600  0.57566600  1
  Ca  Ca15  1  0.20342600  0.80068700  0.82485900  1
  Ca  Ca16  1  0.80068700  0.82485900  0.20342500  1
  Ca  Ca17  1  0.82821000  0.41753600  0.85963000  1
  Ca  Ca18  1  0.85963000  0.82821000  0.41753600  1
  Ca  Ca19  1  0.41753600  0.85963000  0.82821000  1
  Ca  Ca20  1  0.76750800  0.76750800  0.76750800  1
  As  As0  1  0.00075300  0.00075300  0.00075300  1
  As  As1  1  0.08429800  0.03839600  0.58237300  1
  As  As2  1  0.58237300  0.08429800  0.03839600  1
  As  As3  1  0.03839600  0.58237300  0.08429800  1
  As  As4  1  0.58334300  0.08316400  0.53896400  1
  As  As5  1  0.08316400  0.53896400  0.58334300  1
  As  As6  1  0.53896400  0.58334300  0.08316400  1
  As  As7  1  0.49900700  0.49900700  0.49900700  1
  As  As8  1  0.93209700  0.46442800  0.50252700  1
  As  As9  1  0.46442800  0.50252700  0.93209700  1
  As  As10  1  0.50252700  0.93209700  0.46442800  1
  As  As11  1  0.96032600  0.44452100  0.99485800  1
  As  As12  1  0.99485800  0.96032600  0.44452100  1
  As  As13  1  0.44452100  0.99485800  0.96032600  1
  O  O0  1  0.15046600  0.12500200  0.39502500  1
  O  O1  1  0.39502500  0.15046600  0.12500200  1
  O  O2  1  0.12500200  0.39502500  0.15046600  1
  O  O3  1  0.09861800  0.08328100  0.65508000  1
  O  O4  1  0.65508000  0.09861800  0.08328100  1
  O  O5  1  0.39337100  0.11695200  0.40247600  1
  O  O6  1  0.16748000  0.00641400  0.86331300  1
  O  O7  1  0.40247600  0.39337100  0.11695200  1
  O  O8  1  0.11695200  0.40247600  0.39337100  1
  O  O9  1  0.08328100  0.65508000  0.09861800  1
  O  O10  1  0.86331300  0.16748000  0.00641400  1
  O  O11  1  0.40168400  0.14875700  0.59499000  1
  O  O12  1  0.68900800  0.12694000  0.35551900  1
  O  O13  1  0.37225400  0.01029400  0.89024800  1
  O  O14  1  0.59499000  0.40168400  0.14875700  1
  O  O15  1  0.12694000  0.35551900  0.68900800  1
  O  O16  1  0.14875700  0.59499000  0.40168400  1
  O  O17  1  0.59534500  0.15441900  0.58732700  1
  O  O18  1  0.00641400  0.86331300  0.16748000  1
  O  O19  1  0.89024800  0.37225400  0.01029400  1
  O  O20  1  0.35551900  0.68900800  0.12694000  1
  O  O21  1  0.91679800  0.14640500  0.37253400  1
  O  O22  1  0.43175600  0.16933800  0.86840500  1
  O  O23  1  0.45474400  0.45474400  0.45474400  1
  O  O24  1  0.15441900  0.58732700  0.59534500  1
  O  O25  1  0.58732700  0.59534500  0.15441900  1
  O  O26  1  0.14640500  0.37253400  0.91679800  1
  O  O27  1  0.86840500  0.43175600  0.16933800  1
  O  O28  1  0.01029400  0.89024800  0.37225400  1
  O  O29  1  0.90176900  0.10179800  0.64598700  1
  O  O30  1  0.66134300  0.37270100  0.52027800  1
  O  O31  1  0.62927200  0.19035600  0.85467500  1
  O  O32  1  0.37270100  0.52027800  0.66134300  1
  O  O33  1  0.52027800  0.66134300  0.37270100  1
  O  O34  1  0.37253400  0.91679800  0.14640500  1
  O  O35  1  0.16933800  0.86840500  0.43175600  1
  O  O36  1  0.10179800  0.64598700  0.90176900  1
  O  O37  1  0.85467500  0.62927200  0.19035600  1
  O  O38  1  0.83054600  0.41787400  0.52524400  1
  O  O39  1  0.41787400  0.52524400  0.83054600  1
  O  O40  1  0.64598700  0.90176900  0.10179800  1
  O  O41  1  0.19035600  0.85467500  0.62927200  1
  O  O42  1  0.64962100  0.43001100  0.85912300  1
  O  O43  1  0.93472800  0.36148800  0.67108900  1
  O  O44  1  0.52524400  0.83054600  0.41787400  1
  O  O45  1  0.85912300  0.64962100  0.43001100  1
  O  O46  1  0.36148800  0.67108900  0.93472800  1
  O  O47  1  0.43001100  0.85912300  0.64962100  1
  O  O48  1  0.67108900  0.93472800  0.36148800  1
  O  O49  1  0.89598900  0.62518200  0.65045200  1
  O  O50  1  0.62518200  0.65045200  0.89598900  1
  O  O51  1  0.65045200  0.89598900  0.62518200  1
  O  O52  1  0.90052800  0.63184400  0.89460600  1
  O  O53  1  0.63184400  0.89460600  0.90052800  1
  O  O54  1  0.89460600  0.90052800  0.63184400  1
  O  O55  1  0.95528700  0.95528700  0.95528700  1
loop_
_geom_bond_atom_site_label_1
_geom_bond_atom_site_label_2
_geom_bond_distance
_geom_bond_site_symmetry_2
Ca0 O5 2.286892 1_555
Ca0 O8 2.286892 1_555
Ca0 O7 2.286892 1_555
Ca0 O1 2.321681 1_555
Ca0 O2 2.321681 1_555
Ca0 O0 2.321681 1_555
Ca1 O11 2.326189 1_555
Ca1 O3 2.365746 1_555
Ca1 O15 2.462919 1_555
Ca1 O6 2.480834 1_555
Ca1 O43 2.485700 1_455
Ca1 O5 2.555997 1_555
Ca1 O8 2.646642 1_555
Ca2 O14 2.326189 1_555
Ca2 O4 2.365746 1_555
Ca2 O12 2.462919 1_555
Ca2 O10 2.480834 1_555
Ca2 O48 2.485700 1_545
Ca2 O7 2.555997 1_555
Ca2 O5 2.646642 1_555
Ca3 O16 2.326189 1_555
Ca3 O9 2.365746 1_555
Ca3 O20 2.462919 1_555
Ca3 O18 2.480834 1_555
Ca3 O46 2.485700 1_554
Ca3 O8 2.555997 1_555
Ca3 O7 2.646642 1_555
Ca4 O15 2.373647 1_555
Ca4 O22 2.460992 1_555
Ca4 O13 2.483449 1_555
Ca4 O11 2.543056 1_555
Ca4 O17 2.572536 1_555
Ca4 O26 2.578859 1_555
Ca4 O23 2.793544 1_555
Ca4 O24 2.932072 1_555
Ca5 O12 2.373647 1_555
Ca5 O27 2.460992 1_555
Ca5 O19 2.483449 1_555
Ca5 O14 2.543056 1_555
Ca5 O25 2.572536 1_555
Ca5 O21 2.578859 1_555
Ca5 O23 2.793544 1_555
Ca5 O17 2.932072 1_555
Ca6 O29 2.339970 1_555
Ca6 O17 2.385205 1_555
Ca6 O54 2.468159 1_545
Ca6 O31 2.474000 1_555
Ca6 O30 2.528841 1_555
Ca6 O53 2.539269 1_545
Ca6 O22 2.540207 1_555
Ca7 O20 2.373647 1_555
Ca7 O35 2.460992 1_555
Ca7 O28 2.483449 1_555
Ca7 O16 2.543056 1_555
Ca7 O24 2.572536 1_555
Ca7 O34 2.578860 1_555
Ca7 O23 2.793544 1_555
Ca7 O25 2.932072 1_555
Ca8 O27 2.337746 1_555
Ca8 O21 2.376090 1_555
Ca8 O30 2.439559 1_555
Ca8 O2 2.493415 1_655
Ca8 O0 2.508188 1_655
Ca8 O38 2.654348 1_555
Ca8 O29 2.851863 1_555
Ca8 O37 2.910107 1_555
Ca9 O22 2.337746 1_555
Ca9 O26 2.376090 1_555
Ca9 O32 2.439559 1_555
Ca9 O1 2.493415 1_556
Ca9 O2 2.508188 1_556
Ca9 O39 2.654348 1_555
Ca9 O36 2.851863 1_555
Ca9 O31 2.910107 1_555
Ca10 O36 2.339970 1_555
Ca10 O24 2.385205 1_555
Ca10 O52 2.468159 1_455
Ca10 O41 2.474001 1_555
Ca10 O32 2.528841 1_555
Ca10 O54 2.539269 1_455
Ca10 O35 2.540207 1_555
Ca11 O40 2.339970 1_555
Ca11 O25 2.385205 1_555
Ca11 O53 2.468159 1_554
Ca11 O37 2.474001 1_555
Ca11 O33 2.528841 1_555
Ca11 O52 2.539269 1_554
Ca11 O27 2.540207 1_555
Ca12 O31 2.429380 1_555
Ca12 O43 2.441783 1_555
Ca12 O55 2.513190 1_545
Ca12 O3 2.571672 1_655
Ca12 O42 2.614165 1_555
Ca12 O29 2.649312 1_555
Ca12 O4 2.675130 1_556
Ca12 O38 2.778256 1_555
Ca12 O10 2.985938 1_556
Ca13 O35 2.337746 1_555
Ca13 O34 2.376090 1_555
Ca13 O33 2.439559 1_555
Ca13 O0 2.493415 1_565
Ca13 O1 2.508188 1_565
Ca13 O44 2.654348 1_555
Ca13 O40 2.851863 1_555
Ca13 O41 2.910107 1_555
Ca14 O38 2.414806 1_555
Ca14 O39 2.414806 1_555
Ca14 O44 2.414806 1_555
Ca14 O33 2.713076 1_555
Ca14 O30 2.713076 1_555
Ca14 O32 2.713076 1_555
Ca15 O41 2.429389 1_555
Ca15 O46 2.441771 1_555
Ca15 O55 2.513194 1_455
Ca15 O9 2.571674 1_556
Ca15 O47 2.614153 1_555
Ca15 O36 2.649325 1_555
Ca15 O3 2.675132 1_565
Ca15 O39 2.778254 1_555
Ca15 O6 2.985929 1_565
Ca16 O37 2.429380 1_555
Ca16 O48 2.441783 1_555
Ca16 O55 2.513190 1_554
Ca16 O4 2.571672 1_565
Ca16 O45 2.614165 1_555
Ca16 O40 2.649313 1_555
Ca16 O9 2.675130 1_655
Ca16 O44 2.778256 1_555
Ca16 O18 2.985938 1_655
Ca17 O43 2.392486 1_555
Ca17 O19 2.393814 1_556
Ca17 O10 2.400349 1_556
Ca17 O42 2.428613 1_555
Ca17 O49 2.468305 1_555
Ca17 O50 2.531920 1_555
Ca17 O15 2.815132 1_655
Ca17 O14 2.913132 1_556
Ca18 O48 2.392486 1_555
Ca18 O28 2.393814 1_655
Ca18 O18 2.400349 1_655
Ca18 O45 2.428613 1_555
Ca18 O51 2.468305 1_555
Ca18 O49 2.531920 1_555
Ca18 O12 2.815132 1_565
Ca18 O16 2.913132 1_655
Ca19 O46 2.392486 1_555
Ca19 O13 2.393814 1_565
Ca19 O6 2.400349 1_565
Ca19 O47 2.428613 1_555
Ca19 O50 2.468305 1_555
Ca19 O51 2.531920 1_555
Ca19 O20 2.815132 1_556
Ca19 O11 2.913132 1_565
Ca20 O53 2.311590 1_555
Ca20 O52 2.311590 1_555
Ca20 O54 2.311590 1_555
Ca20 O51 2.339440 1_555
Ca20 O49 2.339440 1_555
Ca20 O50 2.339440 1_555
As0 O10 1.722081 1_455
As0 O18 1.722081 1_545
As0 O6 1.722081 1_554
As0 O55 1.743607 1_444
As1 O29 1.706991 1_455
As1 O3 1.716203 1_555
As1 O41 1.718973 1_545
As1 O0 1.725475 1_555
As2 O40 1.706991 1_545
As2 O4 1.716203 1_555
As2 O31 1.718973 1_554
As2 O1 1.725475 1_555
As3 O36 1.706991 1_554
As3 O9 1.716203 1_555
As3 O37 1.718973 1_455
As3 O2 1.725475 1_555
As4 O11 1.712491 1_555
As4 O17 1.713928 1_555
As4 O12 1.719607 1_555
As4 O51 1.723296 1_545
As5 O16 1.712491 1_555
As5 O24 1.713928 1_555
As5 O15 1.719607 1_555
As5 O49 1.723296 1_455
As6 O14 1.712491 1_555
As6 O25 1.713928 1_555
As6 O20 1.719606 1_555
As6 O50 1.723296 1_554
As7 O23 1.697472 1_555
As7 O30 1.739224 1_555
As7 O32 1.739224 1_555
As7 O33 1.739224 1_555
As8 O45 1.704887 1_555
As8 O43 1.731688 1_555
As8 O8 1.734593 1_655
As8 O38 1.741363 1_555
As9 O42 1.704887 1_555
As9 O46 1.731688 1_555
As9 O7 1.734593 1_556
As9 O39 1.741363 1_555
As10 O47 1.704887 1_555
As10 O48 1.731688 1_555
As10 O5 1.734593 1_565
As10 O44 1.741363 1_555
As11 O26 1.711053 1_655
As11 O19 1.711924 1_556
As11 O52 1.736742 1_555
As11 O27 1.741149 1_556
As12 O21 1.711053 1_565
As12 O28 1.711924 1_655
As12 O54 1.736742 1_555
As12 O35 1.741149 1_655
As13 O34 1.711053 1_556
As13 O13 1.711924 1_565
As13 O53 1.736742 1_555
As13 O22 1.741149 1_565
