# generated using pymatgen
data_Mg2BN2Cl
_symmetry_space_group_name_H-M   'P 1'
_cell_length_a   6.68485400
_cell_length_b   9.83892700
_cell_length_c   10.65498000
_cell_angle_alpha   90.00000000
_cell_angle_beta   90.00000000
_cell_angle_gamma   90.00000000
_symmetry_Int_Tables_number   1
_chemical_formula_structural   Mg2BN2Cl
_chemical_formula_sum   'Mg16 B8 N16 Cl8'
_cell_volume   700.79711247
_cell_formula_units_Z   8
loop_
 _symmetry_equiv_pos_site_id
 _symmetry_equiv_pos_as_xyz
  1  'x, y, z'
loop_
 _atom_site_type_symbol
 _atom_site_label
 _atom_site_symmetry_multiplicity
 _atom_site_fract_x
 _atom_site_fract_y
 _atom_site_fract_z
 _atom_site_occupancy
  Mg  Mg0  1  0.69708000  0.95179100  0.05774800  1
  Mg  Mg1  1  0.94185100  0.24916700  0.80718100  1
  Mg  Mg2  1  0.94185100  0.25083300  0.30718100  1
  Mg  Mg3  1  0.44185100  0.24916700  0.69281900  1
  Mg  Mg4  1  0.44185100  0.25083300  0.19281900  1
  Mg  Mg5  1  0.19708000  0.95179100  0.44225200  1
  Mg  Mg6  1  0.30292000  0.45179100  0.44225200  1
  Mg  Mg7  1  0.55814900  0.75083300  0.30718100  1
  Mg  Mg8  1  0.55814900  0.74916700  0.80718100  1
  Mg  Mg9  1  0.30292000  0.04820900  0.94225200  1
  Mg  Mg10  1  0.69708000  0.54820900  0.55774800  1
  Mg  Mg11  1  0.80292000  0.04820900  0.55774800  1
  Mg  Mg12  1  0.05814900  0.74916700  0.69281900  1
  Mg  Mg13  1  0.05814900  0.75083300  0.19281900  1
  Mg  Mg14  1  0.19708000  0.54820900  0.94225200  1
  Mg  Mg15  1  0.80292000  0.45179100  0.05774800  1
  B  B0  1  0.64340800  0.03922400  0.80136700  1
  B  B1  1  0.64340800  0.46077600  0.30136700  1
  B  B2  1  0.85659200  0.96077600  0.30136700  1
  B  B3  1  0.35659200  0.96077600  0.19863300  1
  B  B4  1  0.35659200  0.53922400  0.69863300  1
  B  B5  1  0.14340800  0.46077600  0.19863300  1
  B  B6  1  0.85659200  0.53922400  0.80136700  1
  B  B7  1  0.14340800  0.03922400  0.69863300  1
  N  N0  1  0.07103100  0.94319600  0.62238900  1
  N  N1  1  0.92896900  0.44319600  0.87761100  1
  N  N2  1  0.29461800  0.64065000  0.77370000  1
  N  N3  1  0.70538200  0.35935000  0.22630000  1
  N  N4  1  0.70538200  0.14065000  0.72630000  1
  N  N5  1  0.57103100  0.94319600  0.87761100  1
  N  N6  1  0.29461800  0.85935000  0.27370000  1
  N  N7  1  0.92896900  0.05680400  0.37761100  1
  N  N8  1  0.20538200  0.14065000  0.77370000  1
  N  N9  1  0.42896900  0.05680400  0.12238900  1
  N  N10  1  0.20538200  0.35935000  0.27370000  1
  N  N11  1  0.79461800  0.85935000  0.22630000  1
  N  N12  1  0.42896900  0.44319600  0.62238900  1
  N  N13  1  0.79461800  0.64065000  0.72630000  1
  N  N14  1  0.57103100  0.55680400  0.37761100  1
  N  N15  1  0.07103100  0.55680400  0.12238900  1
  Cl  Cl0  1  0.43575600  0.15779400  0.45894200  1
  Cl  Cl1  1  0.06424400  0.65779400  0.45894200  1
  Cl  Cl2  1  0.56424400  0.65779400  0.04105800  1
  Cl  Cl3  1  0.43575600  0.34220600  0.95894200  1
  Cl  Cl4  1  0.56424400  0.84220600  0.54105800  1
  Cl  Cl5  1  0.06424400  0.84220600  0.95894200  1
  Cl  Cl6  1  0.93575600  0.34220600  0.54105800  1
  Cl  Cl7  1  0.93575600  0.15779400  0.04105800  1
loop_
_geom_bond_atom_site_label_1
_geom_bond_atom_site_label_2
_geom_bond_distance
_geom_bond_site_symmetry_2
Mg0 N5 2.097877 1_554
Mg0 N11 2.116055 1_555
Mg0 N9 2.180410 1_565
Mg1 N1 2.053043 1_555
Mg1 N8 2.090621 1_655
Mg1 N4 2.093190 1_555
Mg2 N7 2.053043 1_555
Mg2 N10 2.090621 1_655
Mg2 N3 2.093190 1_555
Mg3 N12 2.053043 1_555
Mg3 N4 2.090621 1_555
Mg3 N8 2.093190 1_555
Mg4 N9 2.053043 1_555
Mg4 N3 2.090621 1_555
Mg4 N10 2.093190 1_555
Mg5 N0 2.097877 1_555
Mg5 N6 2.116055 1_555
Mg5 N7 2.180410 1_465
Mg6 N12 2.097877 1_555
Mg6 N10 2.116055 1_555
Mg6 N14 2.180410 1_555
Mg7 N14 2.053043 1_555
Mg7 N6 2.090621 1_555
Mg7 N11 2.093190 1_555
Mg8 N5 2.053043 1_555
Mg8 N2 2.090621 1_555
Mg8 N13 2.093190 1_555
Mg9 N9 2.097877 1_556
Mg9 N8 2.116055 1_555
Mg9 N5 2.180410 1_545
Mg10 N14 2.097877 1_555
Mg10 N13 2.116055 1_555
Mg10 N12 2.180410 1_555
Mg11 N7 2.097877 1_555
Mg11 N4 2.116055 1_555
Mg11 N0 2.180410 1_645
Mg12 N0 2.053043 1_555
Mg12 N13 2.090621 1_455
Mg12 N2 2.093190 1_555
Mg13 N15 2.053043 1_555
Mg13 N11 2.090621 1_455
Mg13 N6 2.093190 1_555
Mg14 N15 2.097877 1_556
Mg14 N2 2.116055 1_555
Mg14 N1 2.180410 1_455
Mg15 N1 2.097877 1_554
Mg15 N3 2.116055 1_555
Mg15 N15 2.180410 1_655
B0 N5 1.336683 1_545
B0 N4 1.344330 1_555
B1 N14 1.336683 1_555
B1 N3 1.344330 1_555
B2 N7 1.336683 1_565
B2 N11 1.344330 1_555
B3 N9 1.336683 1_565
B3 N6 1.344330 1_555
B4 N12 1.336683 1_555
B4 N2 1.344330 1_555
B5 N15 1.336683 1_555
B5 N10 1.344330 1_555
B6 N1 1.336683 1_555
B6 N13 1.344330 1_555
B7 N0 1.336683 1_545
B7 N8 1.344330 1_555
Cl0 Mg5 2.585615 1_545
Cl0 Mg3 2.649476 1_555
Cl0 Mg11 2.880124 1_555
Cl0 Mg4 2.979914 1_555
Cl0 Mg6 3.031068 1_555
Cl1 Mg6 2.585615 1_555
Cl1 Mg12 2.649476 1_555
Cl1 Mg10 2.880124 1_455
Cl1 Mg13 2.979914 1_555
Cl1 Mg5 3.031068 1_555
Cl2 Mg15 2.585615 1_555
Cl2 Mg8 2.649476 1_554
Cl2 Mg14 2.880124 1_554
Cl2 Mg7 2.979914 1_555
Cl2 Mg0 3.031068 1_555
Cl3 Mg14 2.585615 1_555
Cl3 Mg4 2.649476 1_556
Cl3 Mg15 2.880124 1_556
Cl3 Mg3 2.979914 1_555
Cl3 Mg9 3.031068 1_555
Cl4 Mg11 2.585615 1_565
Cl4 Mg7 2.649476 1_555
Cl4 Mg5 2.880124 1_555
Cl4 Mg8 2.979914 1_555
Cl4 Mg10 3.031068 1_555
Cl5 Mg9 2.585615 1_565
Cl5 Mg13 2.649476 1_556
Cl5 Mg0 2.880124 1_456
Cl5 Mg12 2.979914 1_555
Cl5 Mg14 3.031068 1_555
Cl6 Mg10 2.585615 1_555
Cl6 Mg2 2.649476 1_555
Cl6 Mg6 2.880124 1_655
Cl6 Mg1 2.979914 1_555
Cl6 Mg11 3.031068 1_555
Cl7 Mg0 2.585615 1_545
Cl7 Mg1 2.649476 1_554
Cl7 Mg9 2.880124 1_654
Cl7 Mg2 2.979914 1_555
Cl7 Mg15 3.031068 1_555
