# generated using pymatgen
data_Rh2O3
_symmetry_space_group_name_H-M   'P 1'
_cell_length_a   5.49970409
_cell_length_b   5.49970337
_cell_length_c   5.49970287
_cell_angle_alpha   55.75603578
_cell_angle_beta   55.75603861
_cell_angle_gamma   55.75603657
_symmetry_Int_Tables_number   1
_chemical_formula_structural   Rh2O3
_chemical_formula_sum   'Rh4 O6'
_cell_volume   106.04826476
_cell_formula_units_Z   2
loop_
 _symmetry_equiv_pos_site_id
 _symmetry_equiv_pos_as_xyz
  1  'x, y, z'
loop_
 _atom_site_type_symbol
 _atom_site_label
 _atom_site_symmetry_multiplicity
 _atom_site_fract_x
 _atom_site_fract_y
 _atom_site_fract_z
 _atom_site_occupancy
  Rh  Rh0  1  0.34918406  0.34918406  0.34918406  1
  Rh  Rh1  1  0.15081594  0.15081594  0.15081594  1
  Rh  Rh2  1  0.65081594  0.65081594  0.65081594  1
  Rh  Rh3  1  0.84918406  0.84918406  0.84918406  1
  O  O0  1  0.54986897  0.95013103  0.25000000  1
  O  O1  1  0.25000000  0.54986897  0.95013103  1
  O  O2  1  0.95013103  0.25000000  0.54986897  1
  O  O3  1  0.45013103  0.04986897  0.75000000  1
  O  O4  1  0.75000000  0.45013103  0.04986897  1
  O  O5  1  0.04986897  0.75000000  0.45013103  1
loop_
_geom_bond_atom_site_label_1
_geom_bond_atom_site_label_2
_geom_bond_distance
_geom_bond_site_symmetry_2
O0 Rh2 2.035231 1_555
O0 Rh3 2.035231 1_554
O0 Rh0 2.067836 1_565
O0 Rh1 2.067836 1_565
O1 Rh3 2.035231 1_455
O1 Rh2 2.035231 1_555
O1 Rh0 2.067836 1_556
O1 Rh1 2.067836 1_556
O2 Rh2 2.035231 1_555
O2 Rh3 2.035231 1_545
O2 Rh1 2.067836 1_655
O2 Rh0 2.067836 1_655
O3 Rh0 2.035231 1_555
O3 Rh1 2.035231 1_556
O3 Rh2 2.067836 1_545
O3 Rh3 2.067836 1_545
O4 Rh1 2.035231 1_655
O4 Rh0 2.035231 1_555
O4 Rh2 2.067836 1_554
O4 Rh3 2.067836 1_554
O5 Rh0 2.035231 1_555
O5 Rh1 2.035231 1_565
O5 Rh3 2.067836 1_455
O5 Rh2 2.067836 1_455
