# generated using pymatgen
data_CeNdI4
_symmetry_space_group_name_H-M   'P 1'
_cell_length_a   8.90599681
_cell_length_b   8.90599681
_cell_length_c   7.68065077
_cell_angle_alpha   69.34013244
_cell_angle_beta   69.34013244
_cell_angle_gamma   110.20717446
_symmetry_Int_Tables_number   1
_chemical_formula_structural   CeNdI4
_chemical_formula_sum   'Ce2 Nd2 I8'
_cell_volume   450.04047641
_cell_formula_units_Z   2
loop_
 _symmetry_equiv_pos_site_id
 _symmetry_equiv_pos_as_xyz
  1  'x, y, z'
loop_
 _atom_site_type_symbol
 _atom_site_label
 _atom_site_symmetry_multiplicity
 _atom_site_fract_x
 _atom_site_fract_y
 _atom_site_fract_z
 _atom_site_occupancy
  Ce  Ce0  1  0.49459700  0.50540300  0.25000000  1
  Ce  Ce1  1  0.50540300  0.49459700  0.75000000  1
  Nd  Nd0  1  0.13067900  0.86932100  0.25000000  1
  Nd  Nd1  1  0.86932100  0.13067900  0.75000000  1
  I  I0  1  0.87441400  0.75421100  0.75530300  1
  I  I1  1  0.24578900  0.12558600  0.74469700  1
  I  I2  1  0.12558600  0.24578900  0.24469700  1
  I  I3  1  0.55539400  0.19384900  0.08976100  1
  I  I4  1  0.44460600  0.80615100  0.91023900  1
  I  I5  1  0.75421100  0.87441400  0.25530300  1
  I  I6  1  0.80615100  0.44460600  0.41023900  1
  I  I7  1  0.19384900  0.55539400  0.58976100  1
loop_
_geom_bond_atom_site_label_1
_geom_bond_atom_site_label_2
_geom_bond_distance
_geom_bond_site_symmetry_2
Ce0 I1 3.255879 1_555
Ce0 I0 3.255879 1_554
Ce0 I4 3.300573 1_554
Ce0 I7 3.300573 1_555
Ce0 I5 3.325602 1_555
Ce0 I2 3.325602 1_555
Ce0 I6 3.533302 1_555
Ce0 I3 3.533302 1_555
Ce1 I2 3.255879 1_556
Ce1 I5 3.255879 1_555
Ce1 I6 3.300573 1_555
Ce1 I3 3.300573 1_556
Ce1 I0 3.325602 1_555
Ce1 I1 3.325602 1_555
Ce1 I4 3.533302 1_555
Ce1 I7 3.533302 1_555
I0 Nd0 3.263153 1_655
I0 Nd1 3.354868 1_565
I1 Nd0 3.263153 1_546
I1 Nd1 3.354868 1_455
I2 Nd1 3.263153 1_455
I2 Nd0 3.354868 1_545
I3 Nd0 3.290620 1_545
I3 Nd1 3.452159 1_554
I4 Nd1 3.290620 1_565
I4 Nd0 3.452159 1_556
I5 Nd1 3.263153 1_564
I5 Nd0 3.354868 1_655
I6 Nd0 3.290620 1_655
I6 Nd1 3.452159 1_555
I7 Nd1 3.290620 1_455
I7 Nd0 3.452159 1_555
