# generated using pymatgen
data_Np(SiPt)2
_symmetry_space_group_name_H-M   'P 1'
_cell_length_a   4.18599031
_cell_length_b   4.18599031
_cell_length_c   9.89232694
_cell_angle_alpha   90.00000000
_cell_angle_beta   90.00000000
_cell_angle_gamma   90.00000000
_symmetry_Int_Tables_number   1
_chemical_formula_structural   Np(SiPt)2
_chemical_formula_sum   'Np2 Si4 Pt4'
_cell_volume   173.33844596
_cell_formula_units_Z   2
loop_
 _symmetry_equiv_pos_site_id
 _symmetry_equiv_pos_as_xyz
  1  'x, y, z'
loop_
 _atom_site_type_symbol
 _atom_site_label
 _atom_site_symmetry_multiplicity
 _atom_site_fract_x
 _atom_site_fract_y
 _atom_site_fract_z
 _atom_site_occupancy
  Np  Np0  1  0.25000000  0.25000000  0.74671058  1
  Np  Np1  1  0.75000000  0.75000000  0.25328942  1
  Si  Si0  1  0.25000000  0.25000000  0.13447728  1
  Si  Si1  1  0.75000000  0.75000000  0.86552272  1
  Si  Si2  1  0.25000000  0.75000000  0.50000000  1
  Si  Si3  1  0.75000000  0.25000000  0.50000000  1
  Pt  Pt0  1  0.25000000  0.25000000  0.37708453  1
  Pt  Pt1  1  0.75000000  0.75000000  0.62291547  1
  Pt  Pt2  1  0.25000000  0.75000000  -0.00000000  1
  Pt  Pt3  1  0.75000000  0.25000000  -0.00000000  1
loop_
_geom_bond_atom_site_label_1
_geom_bond_atom_site_label_2
_geom_bond_distance
_geom_bond_site_symmetry_2
Np0 Si1 3.184753 1_455
Np0 Si1 3.184753 1_445
Np0 Si1 3.184753 1_555
Np0 Si1 3.184753 1_545
Np0 Pt1 3.203273 1_555
Np0 Pt1 3.203273 1_545
Np0 Pt1 3.203273 1_445
Np0 Pt1 3.203273 1_455
Np0 Si2 3.215101 1_545
Np0 Si3 3.215101 1_455
Np0 Si2 3.215101 1_555
Np0 Si3 3.215101 1_555
Np0 Pt2 3.264777 1_556
Np0 Pt3 3.264777 1_556
Np0 Pt2 3.264777 1_546
Np0 Pt3 3.264777 1_456
Np1 Si0 3.184753 1_655
Np1 Si0 3.184753 1_665
Np1 Si0 3.184753 1_565
Np1 Si0 3.184753 1_555
Np1 Pt0 3.203273 1_655
Np1 Pt0 3.203273 1_665
Np1 Pt0 3.203273 1_555
Np1 Pt0 3.203273 1_565
Np1 Si3 3.215101 1_565
Np1 Si2 3.215101 1_655
Np1 Si2 3.215101 1_555
Np1 Si3 3.215101 1_555
Np1 Pt2 3.264777 1_555
Np1 Pt2 3.264777 1_655
Np1 Pt3 3.264777 1_555
Np1 Pt3 3.264777 1_565
Pt0 Si0 2.399950 1_555
Pt0 Si2 2.420556 1_545
Pt0 Si2 2.420556 1_555
Pt0 Si3 2.420556 1_455
Pt0 Si3 2.420556 1_555
Pt1 Si1 2.399950 1_555
Pt1 Si3 2.420556 1_565
Pt1 Si2 2.420556 1_555
Pt1 Si2 2.420556 1_655
Pt1 Si3 2.420556 1_555
Pt2 Si1 2.479982 1_554
Pt2 Si1 2.479982 1_454
Pt2 Si0 2.479982 1_565
Pt2 Si0 2.479982 1_555
Pt3 Si1 2.479982 1_554
Pt3 Si0 2.479982 1_655
Pt3 Si1 2.479982 1_544
Pt3 Si0 2.479982 1_555
