# generated using pymatgen
data_FeS4N4Cl3
_symmetry_space_group_name_H-M   'P 1'
_cell_length_a   13.61238300
_cell_length_b   6.62154700
_cell_length_c   13.23968682
_cell_angle_alpha   80.30484962
_cell_angle_beta   90.00000000
_cell_angle_gamma   90.00000000
_symmetry_Int_Tables_number   1
_chemical_formula_structural   FeS4N4Cl3
_chemical_formula_sum   'Fe4 S16 N16 Cl12'
_cell_volume   1176.31573152
_cell_formula_units_Z   4
loop_
 _symmetry_equiv_pos_site_id
 _symmetry_equiv_pos_as_xyz
  1  'x, y, z'
loop_
 _atom_site_type_symbol
 _atom_site_label
 _atom_site_symmetry_multiplicity
 _atom_site_fract_x
 _atom_site_fract_y
 _atom_site_fract_z
 _atom_site_occupancy
  Fe  Fe0  1  0.01060200  0.77743800  0.18905000  1
  Fe  Fe1  1  0.98939800  0.22256200  0.81095000  1
  Fe  Fe2  1  0.51060200  0.22256200  0.31095000  1
  Fe  Fe3  1  0.48939800  0.77743800  0.68905000  1
  S  S0  1  0.40961600  0.12150200  0.82218400  1
  S  S1  1  0.09038400  0.12150200  0.32218400  1
  S  S2  1  0.83723000  0.23378600  0.53002500  1
  S  S3  1  0.78391300  0.96149500  0.82673400  1
  S  S4  1  0.71608700  0.96149500  0.32673400  1
  S  S5  1  0.28391300  0.03850500  0.67326600  1
  S  S6  1  0.21608700  0.03850500  0.17326600  1
  S  S7  1  0.90961600  0.87849800  0.67781600  1
  S  S8  1  0.33723000  0.76621400  0.96997500  1
  S  S9  1  0.66277000  0.23378600  0.03002500  1
  S  S10  1  0.59038400  0.87849800  0.17781600  1
  S  S11  1  0.79566100  0.33009600  0.19339900  1
  S  S12  1  0.29566100  0.66990400  0.30660100  1
  S  S13  1  0.20433900  0.66990400  0.80660100  1
  S  S14  1  0.16277000  0.76621400  0.46997500  1
  S  S15  1  0.70433900  0.33009600  0.69339900  1
  N  N0  1  0.38187000  0.98223100  0.92862100  1
  N  N1  1  0.39559500  0.99105800  0.72489800  1
  N  N2  1  0.89559500  0.00894200  0.77510200  1
  N  N3  1  0.60440500  0.00894200  0.27510200  1
  N  N4  1  0.70904700  0.13838700  0.78066500  1
  N  N5  1  0.28746500  0.63646600  0.89262900  1
  N  N6  1  0.61813000  0.01776900  0.07137900  1
  N  N7  1  0.79095300  0.13838700  0.28066500  1
  N  N8  1  0.20904700  0.86161300  0.71933500  1
  N  N9  1  0.10440500  0.99105800  0.22489800  1
  N  N10  1  0.21253500  0.63646600  0.39262900  1
  N  N11  1  0.29095300  0.86161300  0.21933500  1
  N  N12  1  0.71253500  0.36353400  0.10737100  1
  N  N13  1  0.78746500  0.36353400  0.60737100  1
  N  N14  1  0.88187000  0.01776900  0.57137900  1
  N  N15  1  0.11813000  0.98223100  0.42862100  1
  Cl  Cl0  1  0.89123400  0.90268300  0.08604800  1
  Cl  Cl1  1  0.05062300  0.36308100  0.66187200  1
  Cl  Cl2  1  0.94937700  0.63691900  0.33812800  1
  Cl  Cl3  1  0.10876600  0.09731700  0.91395200  1
  Cl  Cl4  1  0.39123400  0.09731700  0.41395200  1
  Cl  Cl5  1  0.10007400  0.56156900  0.12033200  1
  Cl  Cl6  1  0.44937700  0.36308100  0.16187200  1
  Cl  Cl7  1  0.55062300  0.63691900  0.83812800  1
  Cl  Cl8  1  0.89992600  0.43843100  0.87966800  1
  Cl  Cl9  1  0.39992600  0.56156900  0.62033200  1
  Cl  Cl10  1  0.60876600  0.90268300  0.58604800  1
  Cl  Cl11  1  0.60007400  0.43843100  0.37966800  1
loop_
_geom_bond_atom_site_label_1
_geom_bond_atom_site_label_2
_geom_bond_distance
_geom_bond_site_symmetry_2
Fe0 N9 2.020545 1_555
Fe1 N2 2.020545 1_555
Fe2 N3 2.020545 1_555
Fe3 N1 2.020545 1_555
N0 S8 1.565629 1_555
N0 S0 1.594116 1_565
N1 S5 1.674769 1_565
N1 S0 1.678162 1_565
N2 S3 1.674769 1_545
N2 S7 1.678162 1_545
N3 S4 1.674769 1_545
N3 S10 1.678162 1_545
N4 S15 1.567296 1_555
N4 S3 1.594338 1_545
N5 S13 1.594289 1_555
N5 S8 1.594359 1_555
N6 S9 1.565629 1_555
N6 S10 1.594116 1_545
N7 S11 1.567296 1_555
N7 S4 1.594338 1_545
N8 S13 1.567296 1_555
N8 S5 1.594338 1_565
N9 S6 1.674769 1_565
N9 S1 1.678162 1_565
N10 S12 1.594289 1_555
N10 S14 1.594359 1_555
N11 S12 1.567296 1_555
N11 S6 1.594338 1_565
N12 S11 1.594289 1_555
N12 S9 1.594359 1_555
N13 S15 1.594289 1_555
N13 S2 1.594359 1_555
N14 S2 1.565629 1_555
N14 S7 1.594116 1_545
N15 S14 1.565629 1_555
N15 S1 1.594116 1_565
Cl0 Fe0 2.192443 1_655
Cl1 Fe1 2.199421 1_455
Cl2 Fe0 2.199421 1_655
Cl3 Fe1 2.192443 1_455
Cl4 Fe2 2.192443 1_555
Cl5 Fe0 2.189121 1_555
Cl6 Fe2 2.199421 1_555
Cl7 Fe3 2.199421 1_555
Cl8 Fe1 2.189121 1_555
Cl9 Fe3 2.189121 1_555
Cl10 Fe3 2.192443 1_555
Cl11 Fe2 2.189121 1_555
