# generated using pymatgen
data_LuPO4
_symmetry_space_group_name_H-M   'P 1'
_cell_length_a   6.47586767
_cell_length_b   6.47586767
_cell_length_c   6.47586767
_cell_angle_alpha   136.68928870
_cell_angle_beta   136.68928870
_cell_angle_gamma   62.91646523
_symmetry_Int_Tables_number   1
_chemical_formula_structural   LuPO4
_chemical_formula_sum   'Lu2 P2 O8'
_cell_volume   126.18845557
_cell_formula_units_Z   2
loop_
 _symmetry_equiv_pos_site_id
 _symmetry_equiv_pos_as_xyz
  1  'x, y, z'
loop_
 _atom_site_type_symbol
 _atom_site_label
 _atom_site_symmetry_multiplicity
 _atom_site_fract_x
 _atom_site_fract_y
 _atom_site_fract_z
 _atom_site_occupancy
  Lu  Lu0  1  0.00000000  0.00000000  0.00000000  1
  Lu  Lu1  1  0.75000000  0.25000000  0.50000000  1
  P  P0  1  0.50000000  0.50000000  0.00000000  1
  P  P1  1  0.25000000  0.75000000  0.50000000  1
  O  O0  1  0.56878600  0.69236300  0.61231100  1
  O  O1  1  0.66994800  0.29352500  0.11231100  1
  O  O2  1  0.08005200  0.95647500  0.38768900  1
  O  O3  1  0.44236300  0.33005200  0.62357700  1
  O  O4  1  0.04352500  0.43121400  0.12357700  1
  O  O5  1  0.70647500  0.81878600  0.37642300  1
  O  O6  1  0.30763700  0.91994800  0.87642300  1
  O  O7  1  0.18121400  0.55763700  0.88768900  1
loop_
_geom_bond_atom_site_label_1
_geom_bond_atom_site_label_2
_geom_bond_distance
_geom_bond_site_symmetry_2
Lu0 O1 2.293771 1_455
Lu0 O7 2.293771 1_544
Lu0 O3 2.293771 1_555
Lu0 O5 2.293771 1_444
Lu0 O4 2.377837 1_555
Lu0 O0 2.377837 1_444
Lu0 O6 2.377837 1_544
Lu0 O2 2.377837 1_545
Lu1 O0 2.293771 1_555
Lu1 O6 2.293771 1_544
Lu1 O2 2.293771 1_645
Lu1 O4 2.293771 1_656
Lu1 O1 2.377837 1_555
Lu1 O5 2.377837 1_545
Lu1 O7 2.377837 1_655
Lu1 O3 2.377837 1_555
O0 P1 1.561557 1_555
O1 P0 1.561557 1_555
O2 P1 1.561557 1_555
O3 P0 1.561557 1_556
O4 P1 1.561557 1_555
O5 P0 1.561557 1_555
O6 P1 1.561557 1_555
O7 P0 1.561557 1_556
