# generated using pymatgen
data_Cd2Fe(CN)6
_symmetry_space_group_name_H-M   'P 1'
_cell_length_a   6.38199629
_cell_length_b   6.38199629
_cell_length_c   6.37754900
_cell_angle_alpha   90.00000000
_cell_angle_beta   90.00000000
_cell_angle_gamma   120.00000303
_symmetry_Int_Tables_number   1
_chemical_formula_structural   Cd2Fe(CN)6
_chemical_formula_sum   'Cd2 Fe1 C6 N6'
_cell_volume   224.95596709
_cell_formula_units_Z   1
loop_
 _symmetry_equiv_pos_site_id
 _symmetry_equiv_pos_as_xyz
  1  'x, y, z'
loop_
 _atom_site_type_symbol
 _atom_site_label
 _atom_site_symmetry_multiplicity
 _atom_site_fract_x
 _atom_site_fract_y
 _atom_site_fract_z
 _atom_site_occupancy
  Cd  Cd0  1  0.33333300  0.66666700  0.50000000  1
  Cd  Cd1  1  0.66666700  0.33333300  0.50000000  1
  Fe  Fe0  1  0.00000000  0.00000000  0.00000000  1
  C  C0  1  0.76671600  0.76671600  0.17657800  1
  C  C1  1  0.00000000  0.23328400  0.17657800  1
  C  C2  1  0.23328400  0.23328400  0.82342200  1
  C  C3  1  0.23328400  0.00000000  0.17657800  1
  C  C4  1  0.00000000  0.76671600  0.82342200  1
  C  C5  1  0.76671600  0.00000000  0.82342200  1
  N  N0  1  0.62661200  0.62661200  0.29865700  1
  N  N1  1  0.00000000  0.37338800  0.29865700  1
  N  N2  1  0.37338800  0.00000000  0.29865700  1
  N  N3  1  0.62661200  0.00000000  0.70134300  1
  N  N4  1  0.00000000  0.62661200  0.70134300  1
  N  N5  1  0.37338800  0.37338800  0.70134300  1
loop_
_geom_bond_atom_site_label_1
_geom_bond_atom_site_label_2
_geom_bond_distance
_geom_bond_site_symmetry_2
Cd0 N4 2.386612 1_555
Cd0 N2 2.386612 1_565
Cd0 N3 2.386614 1_565
Cd0 N1 2.386614 1_555
Cd0 N0 2.386617 1_555
Cd0 N5 2.386617 1_555
Cd1 N3 2.386612 1_555
Cd1 N1 2.386612 1_655
Cd1 N2 2.386614 1_555
Cd1 N4 2.386614 1_655
Cd1 N0 2.386617 1_555
Cd1 N5 2.386617 1_555
C0 N0 1.185603 1_555
C0 Fe0 1.866750 1_665
C1 N1 1.185603 1_555
C1 Fe0 1.866751 1_555
C2 N5 1.185603 1_555
C2 Fe0 1.866750 1_556
C3 N2 1.185603 1_555
C3 Fe0 1.866751 1_555
C4 N4 1.185603 1_555
C4 Fe0 1.866751 1_566
C5 N3 1.185603 1_555
C5 Fe0 1.866751 1_656
