# generated using pymatgen
data_KCa4(BO3)3
_symmetry_space_group_name_H-M   'P 1'
_cell_length_a   6.68953268
_cell_length_b   6.68953268
_cell_length_c   10.72920800
_cell_angle_alpha   90.00000000
_cell_angle_beta   90.00000000
_cell_angle_gamma   121.19454762
_symmetry_Int_Tables_number   1
_chemical_formula_structural   KCa4(BO3)3
_chemical_formula_sum   'K2 Ca8 B6 O18'
_cell_volume   410.71006935
_cell_formula_units_Z   2
loop_
 _symmetry_equiv_pos_site_id
 _symmetry_equiv_pos_as_xyz
  1  'x, y, z'
loop_
 _atom_site_type_symbol
 _atom_site_label
 _atom_site_symmetry_multiplicity
 _atom_site_fract_x
 _atom_site_fract_y
 _atom_site_fract_z
 _atom_site_occupancy
  K  K0  1  0.10601100  0.26660900  0.75000000  1
  K  K1  1  0.26660900  0.10601100  0.25000000  1
  Ca  Ca0  1  0.71894900  0.71894900  0.00000000  1
  Ca  Ca1  1  0.86557800  0.29189900  0.47048700  1
  Ca  Ca2  1  0.29583300  0.60073000  0.25000000  1
  Ca  Ca3  1  0.29189900  0.86557800  0.52951300  1
  Ca  Ca4  1  0.29189900  0.86557800  0.97048700  1
  Ca  Ca5  1  0.60073000  0.29583300  0.75000000  1
  Ca  Ca6  1  0.71894900  0.71894900  0.50000000  1
  Ca  Ca7  1  0.86557800  0.29189900  0.02951300  1
  B  B0  1  0.04440800  0.69468200  0.75000000  1
  B  B1  1  0.62205700  0.86595000  0.75000000  1
  B  B2  1  0.29121900  0.29121900  0.00000000  1
  B  B3  1  0.29121900  0.29121900  0.50000000  1
  B  B4  1  0.69468200  0.04440800  0.25000000  1
  B  B5  1  0.86595000  0.62205700  0.25000000  1
  O  O0  1  0.98973200  0.65662800  0.36222800  1
  O  O1  1  0.63898700  0.56968600  0.25000000  1
  O  O2  1  0.49720700  0.29614600  0.52828000  1
  O  O3  1  0.08133700  0.08133700  0.00000000  1
  O  O4  1  0.49720700  0.29614600  0.97172000  1
  O  O5  1  0.57136400  0.95693900  0.36179000  1
  O  O6  1  0.29614600  0.49720700  0.02828000  1
  O  O7  1  0.92493900  0.22250900  0.25000000  1
  O  O8  1  0.95693900  0.57136400  0.63821000  1
  O  O9  1  0.57136400  0.95693900  0.13821000  1
  O  O10  1  0.65662800  0.98973200  0.63777200  1
  O  O11  1  0.65662800  0.98973200  0.86222800  1
  O  O12  1  0.95693900  0.57136400  0.86179000  1
  O  O13  1  0.56968600  0.63898700  0.75000000  1
  O  O14  1  0.29614600  0.49720700  0.47172000  1
  O  O15  1  0.08133700  0.08133700  0.50000000  1
  O  O16  1  0.98973200  0.65662800  0.13777200  1
  O  O17  1  0.22250900  0.92493900  0.75000000  1
loop_
_geom_bond_atom_site_label_1
_geom_bond_atom_site_label_2
_geom_bond_distance
_geom_bond_site_symmetry_2
K0 O17 2.770651 1_545
K0 O13 2.796836 1_555
K1 O7 2.770651 1_455
K1 O1 2.796836 1_555
Ca0 O3 2.380305 1_665
Ca0 O6 2.438434 1_555
Ca0 O4 2.438434 1_554
Ca0 O11 2.534231 1_554
Ca0 O16 2.534231 1_555
Ca0 O12 2.708588 1_554
Ca0 O9 2.708588 1_555
Ca0 O13 2.815066 1_554
Ca0 O1 2.815066 1_555
Ca1 O5 2.384576 1_545
Ca1 O0 2.427504 1_555
Ca1 O8 2.433777 1_555
Ca1 O14 2.466726 1_655
Ca1 O7 2.482016 1_555
Ca1 O15 2.504693 1_655
Ca1 O10 2.516800 1_545
Ca1 O2 2.555435 1_555
Ca2 O1 2.409659 1_555
Ca2 O9 2.442189 1_555
Ca2 O5 2.442189 1_555
Ca2 O7 2.460610 1_455
Ca2 O6 2.477935 1_555
Ca2 O14 2.477935 1_555
Ca2 O0 2.564344 1_455
Ca2 O16 2.564344 1_455
Ca3 O8 2.384576 1_455
Ca3 O10 2.427504 1_555
Ca3 O5 2.433777 1_555
Ca3 O2 2.466726 1_565
Ca3 O17 2.482016 1_555
Ca3 O15 2.504693 1_565
Ca3 O0 2.516800 1_455
Ca3 O14 2.555435 1_555
Ca4 O12 2.384576 1_455
Ca4 O11 2.427504 1_555
Ca4 O9 2.433777 1_556
Ca4 O4 2.466726 1_565
Ca4 O17 2.482016 1_555
Ca4 O3 2.504693 1_566
Ca4 O16 2.516800 1_456
Ca4 O6 2.555435 1_556
Ca5 O13 2.409659 1_555
Ca5 O8 2.442189 1_555
Ca5 O12 2.442189 1_555
Ca5 O17 2.460610 1_545
Ca5 O2 2.477935 1_555
Ca5 O4 2.477935 1_555
Ca5 O10 2.564344 1_545
Ca5 O11 2.564344 1_545
Ca6 O15 2.380305 1_665
Ca6 O14 2.438434 1_555
Ca6 O2 2.438434 1_555
Ca6 O10 2.534231 1_555
Ca6 O0 2.534231 1_555
Ca6 O5 2.708588 1_555
Ca6 O8 2.708588 1_555
Ca6 O13 2.815066 1_555
Ca6 O1 2.815066 1_555
Ca7 O9 2.384576 1_545
Ca7 O16 2.427504 1_555
Ca7 O12 2.433777 1_554
Ca7 O6 2.466726 1_655
Ca7 O7 2.482016 1_555
Ca7 O3 2.504693 1_655
Ca7 O11 2.516800 1_544
Ca7 O4 2.555435 1_554
B0 O17 1.375141 1_555
B0 O8 1.400530 1_455
B0 O12 1.400530 1_455
B1 O13 1.370000 1_555
B1 O11 1.410911 1_555
B1 O10 1.410911 1_555
B2 O3 1.378586 1_555
B2 O6 1.394592 1_555
B2 O4 1.394592 1_554
B3 O15 1.378586 1_555
B3 O14 1.394592 1_555
B3 O2 1.394592 1_555
B4 O7 1.375141 1_555
B4 O9 1.400530 1_545
B4 O5 1.400530 1_545
B5 O1 1.370000 1_555
B5 O0 1.410911 1_555
B5 O16 1.410911 1_555
