# generated using pymatgen
data_Tl4Ni7(PO4)6
_symmetry_space_group_name_H-M   'P 1'
_cell_length_a   9.03733408
_cell_length_b   9.03733408
_cell_length_c   6.78230107
_cell_angle_alpha   82.00772628
_cell_angle_beta   82.00772628
_cell_angle_gamma   106.23163205
_symmetry_Int_Tables_number   1
_chemical_formula_structural   Tl4Ni7(PO4)6
_chemical_formula_sum   'Tl4 Ni7 P6 O24'
_cell_volume   517.38602032
_cell_formula_units_Z   1
loop_
 _symmetry_equiv_pos_site_id
 _symmetry_equiv_pos_as_xyz
  1  'x, y, z'
loop_
 _atom_site_type_symbol
 _atom_site_label
 _atom_site_symmetry_multiplicity
 _atom_site_fract_x
 _atom_site_fract_y
 _atom_site_fract_z
 _atom_site_occupancy
  Tl  Tl0  1  0.30206000  0.30206000  0.49538000  1
  Tl  Tl1  1  0.73552100  0.50643900  0.46688500  1
  Tl  Tl2  1  0.91814500  0.91814500  0.52070700  1
  Tl  Tl3  1  0.50643900  0.73552100  0.46688500  1
  Ni  Ni0  1  0.99933100  0.99933100  0.00031700  1
  Ni  Ni1  1  0.36250200  0.98312000  0.17442400  1
  Ni  Ni2  1  0.03038900  0.63788600  0.81461900  1
  Ni  Ni3  1  0.38232900  0.62280300  0.99040900  1
  Ni  Ni4  1  0.98312000  0.36250200  0.17442400  1
  Ni  Ni5  1  0.63788600  0.03038900  0.81461900  1
  Ni  Ni6  1  0.62280300  0.38232900  0.99040900  1
  P  P0  1  0.30463200  0.30463200  0.98865600  1
  P  P1  1  0.11649600  0.71581700  0.26674300  1
  P  P2  1  0.71581700  0.11649600  0.26674300  1
  P  P3  1  0.28425100  0.89899300  0.72702100  1
  P  P4  1  0.70037600  0.70037600  0.99112900  1
  P  P5  1  0.89899300  0.28425100  0.72702100  1
  O  O0  1  0.98933200  0.39786500  0.85375000  1
  O  O1  1  0.19032100  0.19032100  0.89592100  1
  O  O2  1  0.66161500  0.04533000  0.49227800  1
  O  O3  1  0.39856700  0.22053600  0.12046500  1
  O  O4  1  0.02378600  0.60312400  0.13960200  1
  O  O5  1  0.43561300  0.43561300  0.83026100  1
  O  O6  1  0.27796500  0.71824400  0.77326700  1
  O  O7  1  0.22053600  0.39856700  0.12046500  1
  O  O8  1  0.89130600  0.11985100  0.19884100  1
  O  O9  1  0.60913000  0.78982400  0.86156000  1
  O  O10  1  0.33335300  0.96914000  0.50086600  1
  O  O11  1  0.72856300  0.29675900  0.21492500  1
  O  O12  1  0.78982400  0.60913000  0.86156000  1
  O  O13  1  0.56354000  0.56354000  0.13627900  1
  O  O14  1  0.80653800  0.80653800  0.10261600  1
  O  O15  1  0.04533000  0.66161500  0.49227800  1
  O  O16  1  0.39786500  0.98933200  0.85375000  1
  O  O17  1  0.29675900  0.72856300  0.21492500  1
  O  O18  1  0.60312400  0.02378600  0.13960200  1
  O  O19  1  0.88587500  0.10743500  0.79981400  1
  O  O20  1  0.96914000  0.33335300  0.50086600  1
  O  O21  1  0.11985100  0.89130600  0.19884100  1
  O  O22  1  0.71824400  0.27796500  0.77326700  1
  O  O23  1  0.10743500  0.88587500  0.79981400  1
loop_
_geom_bond_atom_site_label_1
_geom_bond_atom_site_label_2
_geom_bond_distance
_geom_bond_site_symmetry_2
Ni0 O1 2.028438 1_664
Ni0 O14 2.045342 1_555
Ni0 O19 2.105551 1_564
Ni0 O23 2.105551 1_654
Ni0 O8 2.142204 1_565
Ni0 O21 2.142204 1_655
Ni1 O3 2.049713 1_565
Ni1 O18 2.075070 1_565
Ni1 O21 2.090068 1_555
Ni1 O16 2.144351 1_554
Ni1 O10 2.174557 1_555
Ni1 O17 2.176145 1_555
Ni2 O0 2.067826 1_455
Ni2 O12 2.089049 1_455
Ni2 O6 2.114859 1_555
Ni2 O23 2.136187 1_555
Ni2 O15 2.148279 1_555
Ni2 O4 2.172751 1_556
Ni3 O6 2.071295 1_555
Ni3 O17 2.078643 1_556
Ni3 O7 2.123790 1_556
Ni3 O9 2.156093 1_555
Ni3 O13 2.177408 1_556
Ni3 O5 2.257084 1_555
Ni4 O7 2.049713 1_655
Ni4 O4 2.075070 1_655
Ni4 O8 2.090068 1_555
Ni4 O0 2.144351 1_554
Ni4 O20 2.174557 1_555
Ni4 O11 2.176145 1_555
Ni5 O16 2.067826 1_545
Ni5 O9 2.089049 1_545
Ni5 O22 2.114859 1_555
Ni5 O19 2.136187 1_555
Ni5 O2 2.148279 1_555
Ni5 O18 2.172751 1_556
Ni6 O22 2.071295 1_555
Ni6 O11 2.078643 1_556
Ni6 O3 2.123790 1_556
Ni6 O12 2.156093 1_555
Ni6 O13 2.177408 1_556
Ni6 O5 2.257084 1_555
O0 P5 1.559320 1_555
O1 P0 1.514854 1_555
O1 Tl0 2.706209 1_555
O2 P2 1.528186 1_555
O2 Tl3 2.800299 1_545
O3 P0 1.574879 1_554
O4 P1 1.565531 1_555
O5 P0 1.570319 1_555
O6 P3 1.603305 1_555
O6 Tl3 2.672482 1_555
O7 P0 1.574879 1_554
O8 P2 1.579362 1_555
O8 Tl2 2.726727 1_545
O9 P4 1.575544 1_555
O10 P3 1.527927 1_555
O11 P2 1.585990 1_555
O11 Tl1 2.716388 1_555
O12 P4 1.575544 1_555
O13 P4 1.579770 1_554
O14 P4 1.517102 1_554
O15 P1 1.528186 1_555
O15 Tl1 2.800299 1_455
O16 P3 1.559320 1_555
O17 P1 1.585990 1_555
O17 Tl3 2.716388 1_555
O18 P2 1.565531 1_555
O19 P5 1.571517 1_555
O19 Tl2 2.760572 1_545
O20 P5 1.527927 1_555
O21 P1 1.579362 1_555
O21 Tl2 2.726727 1_455
O22 P5 1.603305 1_555
O22 Tl1 2.672482 1_555
O23 P3 1.571517 1_555
O23 Tl2 2.760572 1_455
