# generated using pymatgen
data_Na2Mn2Si2O7
_symmetry_space_group_name_H-M   'P 1'
_cell_length_a   13.47781500
_cell_length_b   5.82160000
_cell_length_c   10.62837976
_cell_angle_alpha   56.70287663
_cell_angle_beta   90.00000000
_cell_angle_gamma   90.00000000
_symmetry_Int_Tables_number   1
_chemical_formula_structural   Na2Mn2Si2O7
_chemical_formula_sum   'Na8 Mn8 Si8 O28'
_cell_volume   697.02672590
_cell_formula_units_Z   4
loop_
 _symmetry_equiv_pos_site_id
 _symmetry_equiv_pos_as_xyz
  1  'x, y, z'
loop_
 _atom_site_type_symbol
 _atom_site_label
 _atom_site_symmetry_multiplicity
 _atom_site_fract_x
 _atom_site_fract_y
 _atom_site_fract_z
 _atom_site_occupancy
  Na  Na0  1  0.75336000  0.58900500  0.69465000  1
  Na  Na1  1  0.25336000  0.41099500  0.80535000  1
  Na  Na2  1  0.24664000  0.41099500  0.30535000  1
  Na  Na3  1  0.74664000  0.58900500  0.19465000  1
  Na  Na4  1  0.84046600  0.94800600  0.38351800  1
  Na  Na5  1  0.34046600  0.05199400  0.11648200  1
  Na  Na6  1  0.15953400  0.05199400  0.61648200  1
  Na  Na7  1  0.65953400  0.94800600  0.88351800  1
  Mn  Mn0  1  0.99287100  0.57137300  0.29068600  1
  Mn  Mn1  1  0.49287100  0.42862700  0.20931400  1
  Mn  Mn2  1  0.00712900  0.42862700  0.70931400  1
  Mn  Mn3  1  0.50712900  0.57137300  0.79068600  1
  Mn  Mn4  1  0.91918000  0.78049000  0.88319100  1
  Mn  Mn5  1  0.41918000  0.21951000  0.61680900  1
  Mn  Mn6  1  0.08082000  0.21951000  0.11680900  1
  Mn  Mn7  1  0.58082000  0.78049000  0.38319100  1
  Si  Si0  1  0.11924300  0.84817700  0.97154800  1
  Si  Si1  1  0.61924300  0.15182300  0.52845200  1
  Si  Si2  1  0.88075700  0.15182300  0.02845200  1
  Si  Si3  1  0.38075700  0.84817700  0.47154800  1
  Si  Si4  1  0.83345400  0.26636400  0.54965100  1
  Si  Si5  1  0.33345400  0.73363600  0.95034900  1
  Si  Si6  1  0.16654600  0.73363600  0.45034900  1
  Si  Si7  1  0.66654600  0.26636400  0.04965100  1
  O  O0  1  0.79007800  0.33534700  0.04193700  1
  O  O1  1  0.29007800  0.66465300  0.45806300  1
  O  O2  1  0.20992200  0.66465300  0.95806300  1
  O  O3  1  0.70992200  0.33534700  0.54193700  1
  O  O4  1  0.95914500  0.39439700  0.90836100  1
  O  O5  1  0.45914500  0.60560300  0.59163900  1
  O  O6  1  0.04085500  0.60560300  0.09163900  1
  O  O7  1  0.54085500  0.39439700  0.40836100  1
  O  O8  1  0.86657900  0.34030300  0.38228500  1
  O  O9  1  0.36657900  0.65969700  0.11771500  1
  O  O10  1  0.13342100  0.65969700  0.61771500  1
  O  O11  1  0.63342100  0.34030300  0.88228500  1
  O  O12  1  0.83557700  0.95662600  0.97715900  1
  O  O13  1  0.33557700  0.04337400  0.52284100  1
  O  O14  1  0.16442300  0.04337400  0.02284100  1
  O  O15  1  0.66442300  0.95662600  0.47715900  1
  O  O16  1  0.84763200  0.94258900  0.68015200  1
  O  O17  1  0.34763200  0.05741100  0.81984800  1
  O  O18  1  0.15236800  0.05741100  0.31984800  1
  O  O19  1  0.65236800  0.94258900  0.18015200  1
  O  O20  1  0.94046500  0.98132100  0.19061200  1
  O  O21  1  0.44046500  0.01867900  0.30938800  1
  O  O22  1  0.05953500  0.01867900  0.80938800  1
  O  O23  1  0.55953500  0.98132100  0.69061200  1
  O  O24  1  0.88342800  0.48510400  0.58266100  1
  O  O25  1  0.38342800  0.51489600  0.91733900  1
  O  O26  1  0.11657200  0.51489600  0.41733900  1
  O  O27  1  0.61657200  0.48510400  0.08266100  1
loop_
_geom_bond_atom_site_label_1
_geom_bond_atom_site_label_2
_geom_bond_distance
_geom_bond_site_symmetry_2
Na0 O11 2.348661 1_555
Na0 O16 2.350952 1_555
Na0 O24 2.376172 1_555
Na0 O15 2.434891 1_555
Na0 O3 2.790952 1_555
Na1 O10 2.348661 1_555
Na1 O17 2.350952 1_555
Na1 O25 2.376172 1_555
Na1 O14 2.434891 1_556
Na1 O2 2.790952 1_555
Na2 O9 2.348661 1_555
Na2 O18 2.350952 1_555
Na2 O26 2.376172 1_555
Na2 O13 2.434891 1_555
Na2 O1 2.790952 1_555
Na3 O8 2.348661 1_555
Na3 O19 2.350952 1_555
Na3 O27 2.376172 1_555
Na3 O12 2.434891 1_554
Na3 O0 2.790952 1_555
Na4 O8 2.303672 1_565
Na4 O20 2.370894 1_555
Na4 O24 2.411370 1_555
Na4 O15 2.584080 1_555
Na5 O9 2.303672 1_545
Na5 O21 2.370894 1_555
Na5 O25 2.411370 1_554
Na5 O14 2.584080 1_555
Na6 O10 2.303672 1_545
Na6 O22 2.370894 1_555
Na6 O26 2.411370 1_555
Na6 O13 2.584080 1_555
Na7 O11 2.303672 1_565
Na7 O23 2.370894 1_555
Na7 O27 2.411370 1_556
Na7 O12 2.584080 1_555
Mn0 O26 2.052756 1_655
Mn0 O8 2.053467 1_555
Mn0 O6 2.114385 1_655
Mn0 O20 2.130436 1_555
Mn1 O27 2.052756 1_555
Mn1 O9 2.053467 1_555
Mn1 O7 2.114385 1_555
Mn1 O21 2.130436 1_555
Mn2 O24 2.052756 1_455
Mn2 O10 2.053467 1_555
Mn2 O4 2.114385 1_455
Mn2 O22 2.130436 1_555
Mn3 O25 2.052756 1_555
Mn3 O11 2.053467 1_555
Mn3 O5 2.114385 1_555
Mn3 O23 2.130436 1_555
Mn4 O16 2.059455 1_555
Mn4 O12 2.107829 1_555
Mn4 O4 2.180267 1_555
Mn4 O22 2.218620 1_665
Mn4 O6 2.481450 1_656
Mn4 O0 2.790928 1_556
Mn5 O17 2.059455 1_555
Mn5 O13 2.107829 1_555
Mn5 O5 2.180267 1_555
Mn5 O23 2.218620 1_545
Mn5 O7 2.481450 1_555
Mn5 O1 2.790928 1_555
Mn6 O18 2.059455 1_555
Mn6 O14 2.107829 1_555
Mn6 O6 2.180267 1_555
Mn6 O20 2.218620 1_445
Mn6 O4 2.481450 1_454
Mn6 O2 2.790928 1_554
Mn7 O19 2.059455 1_555
Mn7 O15 2.107829 1_555
Mn7 O7 2.180267 1_555
Mn7 O21 2.218620 1_565
Mn7 O5 2.481450 1_555
Mn7 O3 2.790928 1_555
O0 Si2 1.680422 1_555
O0 Si7 1.704077 1_555
O1 Si3 1.680422 1_555
O1 Si6 1.704077 1_555
O2 Si0 1.680422 1_555
O2 Si5 1.704077 1_555
O3 Si1 1.680422 1_555
O3 Si4 1.704077 1_555
O4 Si2 1.661479 1_556
O5 Si3 1.661479 1_555
O6 Si0 1.661479 1_554
O7 Si1 1.661479 1_555
O8 Si4 1.645643 1_555
O9 Si5 1.645643 1_554
O10 Si6 1.645643 1_555
O11 Si7 1.645643 1_556
O12 Si2 1.624651 1_566
O13 Si3 1.624651 1_545
O14 Si0 1.624651 1_544
O15 Si1 1.624651 1_565
O16 Si4 1.625624 1_565
O17 Si5 1.625624 1_545
O18 Si6 1.625624 1_545
O19 Si7 1.625624 1_565
O20 Si2 1.650747 1_565
O21 Si3 1.650747 1_545
O22 Si0 1.650747 1_545
O23 Si1 1.650747 1_565
O24 Si4 1.639778 1_555
O25 Si5 1.639778 1_555
O26 Si6 1.639778 1_555
O27 Si7 1.639778 1_555
