# generated using pymatgen
data_HgCSNCl
_symmetry_space_group_name_H-M   'P 1'
_cell_length_a   4.41248400
_cell_length_b   10.26209700
_cell_length_c   10.91932300
_cell_angle_alpha   90.00000000
_cell_angle_beta   90.00000000
_cell_angle_gamma   90.00000000
_symmetry_Int_Tables_number   1
_chemical_formula_structural   HgCSNCl
_chemical_formula_sum   'Hg4 C4 S4 N4 Cl4'
_cell_volume   494.44156444
_cell_formula_units_Z   4
loop_
 _symmetry_equiv_pos_site_id
 _symmetry_equiv_pos_as_xyz
  1  'x, y, z'
loop_
 _atom_site_type_symbol
 _atom_site_label
 _atom_site_symmetry_multiplicity
 _atom_site_fract_x
 _atom_site_fract_y
 _atom_site_fract_z
 _atom_site_occupancy
  Hg  Hg0  1  0.25000000  0.09301900  0.36155900  1
  Hg  Hg1  1  0.75000000  0.59301900  0.13844100  1
  Hg  Hg2  1  0.75000000  0.90698100  0.63844100  1
  Hg  Hg3  1  0.25000000  0.40698100  0.86155900  1
  C  C0  1  0.25000000  0.61779400  0.65506600  1
  C  C1  1  0.75000000  0.38220600  0.34493400  1
  C  C2  1  0.25000000  0.88220600  0.15506600  1
  C  C3  1  0.75000000  0.11779400  0.84493400  1
  S  S0  1  0.25000000  0.04358300  0.14517300  1
  S  S1  1  0.75000000  0.95641700  0.85482700  1
  S  S2  1  0.75000000  0.54358300  0.35482700  1
  S  S3  1  0.25000000  0.45641700  0.64517300  1
  N  N0  1  0.25000000  0.73279400  0.65425200  1
  N  N1  1  0.75000000  0.26720600  0.34574800  1
  N  N2  1  0.75000000  0.23279400  0.84574800  1
  N  N3  1  0.25000000  0.76720600  0.15425200  1
  Cl  Cl0  1  0.25000000  0.12581400  0.57779700  1
  Cl  Cl1  1  0.25000000  0.37418600  0.07779700  1
  Cl  Cl2  1  0.75000000  0.62581400  0.92220300  1
  Cl  Cl3  1  0.75000000  0.87418600  0.42220300  1
loop_
_geom_bond_atom_site_label_1
_geom_bond_atom_site_label_2
_geom_bond_distance
_geom_bond_site_symmetry_2
Hg0 S0 2.416638 1_555
Hg1 S2 2.416638 1_555
Hg2 S1 2.416638 1_555
Hg3 S3 2.416638 1_555
C0 N0 1.180175 1_555
C0 S3 1.659586 1_555
C1 N1 1.180175 1_555
C1 S2 1.659586 1_555
C2 N3 1.180175 1_555
C2 S0 1.659586 1_565
C3 N2 1.180175 1_555
C3 S1 1.659586 1_545
Cl0 Hg0 2.385036 1_555
Cl1 Hg3 2.385036 1_554
Cl2 Hg1 2.385036 1_556
Cl3 Hg2 2.385036 1_555
