# generated using pymatgen
data_Gd10S14O
_symmetry_space_group_name_H-M   'P 1'
_cell_length_a   14.32444453
_cell_length_b   14.32444453
_cell_length_c   14.32444453
_cell_angle_alpha   117.93397188
_cell_angle_beta   117.93397188
_cell_angle_gamma   93.61733826
_symmetry_Int_Tables_number   1
_chemical_formula_structural   Gd10S14O
_chemical_formula_sum   'Gd40 S56 O4'
_cell_volume   2138.64051262
_cell_formula_units_Z   4
loop_
 _symmetry_equiv_pos_site_id
 _symmetry_equiv_pos_as_xyz
  1  'x, y, z'
loop_
 _atom_site_type_symbol
 _atom_site_label
 _atom_site_symmetry_multiplicity
 _atom_site_fract_x
 _atom_site_fract_y
 _atom_site_fract_z
 _atom_site_occupancy
  Gd  Gd0  1  0.06450700  0.92625500  0.12546400  1
  Gd  Gd1  1  0.68904400  0.31450700  0.63825200  1
  Gd  Gd2  1  0.54937300  0.69941600  0.40509900  1
  Gd  Gd3  1  0.88517200  0.61482800  0.00000000  1
  Gd  Gd4  1  0.07374500  0.19920800  0.13825200  1
  Gd  Gd5  1  0.56095600  0.69920800  0.12546400  1
  Gd  Gd6  1  0.89427400  0.79937300  0.34995700  1
  Gd  Gd7  1  0.56450700  0.43904400  0.13825200  1
  Gd  Gd8  1  0.17625500  0.81450700  0.62546400  1
  Gd  Gd9  1  0.29431700  0.14427400  0.59490100  1
  Gd  Gd10  1  0.68549300  0.32374500  0.37453600  1
  Gd  Gd11  1  0.80079200  0.93904400  0.87453600  1
  Gd  Gd12  1  0.44920800  0.82374500  0.63825200  1
  Gd  Gd13  1  0.45568300  0.10572600  0.90509900  1
  Gd  Gd14  1  0.04937300  0.64427400  0.84995700  1
  Gd  Gd15  1  0.20062700  0.55058400  0.09490100  1
  Gd  Gd16  1  0.63517200  0.13517200  0.77034400  1
  Gd  Gd17  1  0.79431700  0.19941600  0.15004300  1
  Gd  Gd18  1  0.36482800  0.86482800  0.22965600  1
  Gd  Gd19  1  0.38517200  0.38517200  0.27034400  1
  Gd  Gd20  1  0.35572600  0.20568300  0.40509900  1
  Gd  Gd21  1  0.80058400  0.95062700  0.59490100  1
  Gd  Gd22  1  0.39427400  0.04431700  0.09490100  1
  Gd  Gd23  1  0.18904400  0.55079200  0.37453600  1
  Gd  Gd24  1  0.67625500  0.05079200  0.36174800  1
  Gd  Gd25  1  0.94941600  0.29937300  0.90509900  1
  Gd  Gd26  1  0.86482800  0.63517200  0.50000000  1
  Gd  Gd27  1  0.57374500  0.43549300  0.87453600  1
  Gd  Gd28  1  0.30079200  0.42625500  0.86174800  1
  Gd  Gd29  1  0.44941600  0.54431700  0.65004300  1
  Gd  Gd30  1  0.94920800  0.31095600  0.62546400  1
  Gd  Gd31  1  0.11482800  0.11482800  0.72965600  1
  Gd  Gd32  1  0.06095600  0.93549300  0.86174800  1
  Gd  Gd33  1  0.95568300  0.05058400  0.34995700  1
  Gd  Gd34  1  0.13517200  0.36482800  0.50000000  1
  Gd  Gd35  1  0.85572600  0.45062700  0.15004300  1
  Gd  Gd36  1  0.18549300  0.81095600  0.36174800  1
  Gd  Gd37  1  0.30058400  0.70568300  0.84995700  1
  Gd  Gd38  1  0.70062700  0.60572600  0.65004300  1
  Gd  Gd39  1  0.61482800  0.88517200  0.00000000  1
  S  S0  1  0.12500000  0.22616700  0.60116700  1
  S  S1  1  0.63265900  0.91508700  0.64115300  1
  S  S2  1  0.76113000  0.60406200  0.10733500  1
  S  S3  1  0.75327300  0.14593800  0.65706800  1
  S  S4  1  0.70891500  0.68773500  0.33295700  1
  S  S5  1  0.40379500  0.01113000  0.65706800  1
  S  S6  1  0.47606600  0.25849400  0.14115300  1
  S  S7  1  0.48887000  0.09620500  0.34293200  1
  S  S8  1  0.81226500  0.79108500  0.66704300  1
  S  S9  1  0.90379500  0.24672700  0.39266500  1
  S  S10  1  0.31226500  0.64522200  0.02118000  1
  S  S11  1  0.54108500  0.37404200  0.47882000  1
  S  S12  1  0.00849400  0.36734100  0.28242800  1
  S  S13  1  0.13265900  0.49150600  0.71757200  1
  S  S14  1  0.25327300  0.59620500  0.60733500  1
  S  S15  1  0.85477800  0.18773500  0.97882000  1
  S  S16  1  0.16508700  0.38265900  0.14115300  1
  S  S17  1  0.66508700  0.52393400  0.78242800  1
  S  S18  1  0.77383300  0.37500000  0.89883300  1
  S  S19  1  0.99672700  0.10406200  0.84293200  1
  S  S20  1  0.62500000  0.02383300  0.89883300  1
  S  S21  1  0.85406200  0.51113000  0.60733500  1
  S  S22  1  0.12595800  0.95891500  0.52118000  1
  S  S23  1  0.34620500  0.23887000  0.84293200  1
  S  S24  1  0.39593800  0.50327300  0.15706800  1
  S  S25  1  0.27383300  0.37500000  0.39883300  1
  S  S26  1  0.20891500  0.87595800  0.02118000  1
  S  S27  1  0.50849400  0.22606600  0.64115300  1
  S  S28  1  0.74150600  0.88265900  0.21757200  1
  S  S29  1  0.12500000  0.72616700  0.10116700  1
  S  S30  1  0.12404200  0.14522200  0.33295700  1
  S  S31  1  0.62500000  0.52383300  0.39883300  1
  S  S32  1  0.26113000  0.15379500  0.15706800  1
  S  S33  1  0.47616700  0.87500000  0.10116700  1
  S  S34  1  0.43773500  0.60477800  0.47882000  1
  S  S35  1  0.84620500  0.00327300  0.10733500  1
  S  S36  1  0.24150600  0.02393400  0.85884700  1
  S  S37  1  0.27393400  0.99150600  0.35884700  1
  S  S38  1  0.89522200  0.06226500  0.52118000  1
  S  S39  1  0.89593800  0.73887000  0.89266500  1
  S  S40  1  0.98887000  0.64593800  0.39266500  1
  S  S41  1  0.04108500  0.56226500  0.16704300  1
  S  S42  1  0.93773500  0.45891500  0.83295700  1
  S  S43  1  0.35406200  0.74672700  0.34293200  1
  S  S44  1  0.97606600  0.83491300  0.21757200  1
  S  S45  1  0.77393400  0.41508700  0.28242800  1
  S  S46  1  0.62404200  0.29108500  0.97882000  1
  S  S47  1  0.61734100  0.75849400  0.78242800  1
  S  S48  1  0.08491300  0.72606600  0.71757200  1
  S  S49  1  0.97616700  0.87500000  0.60116700  1
  S  S50  1  0.62595800  0.10477800  0.16704300  1
  S  S51  1  0.39522200  0.87404200  0.83295700  1
  S  S52  1  0.58491300  0.86734100  0.35884700  1
  S  S53  1  0.11734100  0.33491300  0.85884700  1
  S  S54  1  0.35477800  0.37595800  0.66704300  1
  S  S55  1  0.49672700  0.65379500  0.89266500  1
  O  O0  1  0.50000000  0.50000000  0.00000000  1
  O  O1  1  0.00000000  0.00000000  0.00000000  1
  O  O2  1  0.25000000  0.75000000  0.50000000  1
  O  O3  1  0.75000000  0.25000000  0.50000000  1
loop_
_geom_bond_atom_site_label_1
_geom_bond_atom_site_label_2
_geom_bond_distance
_geom_bond_site_symmetry_2
Gd0 O1 2.354918 1_565
Gd0 S39 2.721669 1_454
Gd0 S30 2.820063 1_565
Gd0 S44 2.834082 1_455
Gd0 S37 2.893396 1_555
Gd0 S29 2.957730 1_555
Gd0 S26 3.017334 1_555
Gd0 S35 3.317525 1_465
Gd1 O3 2.354906 1_555
Gd1 S3 2.721664 1_555
Gd1 S11 2.820069 1_555
Gd1 S27 2.834095 1_555
Gd1 S17 2.893404 1_555
Gd1 S18 2.957733 1_555
Gd1 S42 3.017324 1_555
Gd1 S7 3.317528 1_555
Gd2 S43 2.747727 1_555
Gd2 S31 2.780451 1_555
Gd2 S24 2.810678 1_555
Gd2 S52 2.852866 1_555
Gd2 S34 2.856585 1_555
Gd2 S1 2.892967 1_555
Gd2 S4 2.901317 1_555
Gd2 S8 3.392013 1_555
Gd3 S17 2.796790 1_554
Gd3 S44 2.796790 1_555
Gd3 S41 2.858958 1_655
Gd3 S42 2.858958 1_554
Gd3 S2 2.879581 1_555
Gd3 S39 2.879581 1_554
Gd3 S18 2.987398 1_554
Gd3 S29 2.987398 1_655
Gd4 O1 2.354906 1_555
Gd4 S32 2.721664 1_555
Gd4 S15 2.820069 1_454
Gd4 S16 2.834095 1_555
Gd4 S12 2.893404 1_555
Gd4 S25 2.957733 1_555
Gd4 S30 3.017324 1_555
Gd4 S19 3.317528 1_454
Gd5 O0 2.354907 1_555
Gd5 S55 2.721678 1_554
Gd5 S4 2.820058 1_555
Gd5 S28 2.834100 1_555
Gd5 S52 2.893394 1_555
Gd5 S33 2.957738 1_555
Gd5 S10 3.017322 1_555
Gd5 S2 3.317532 1_555
Gd6 S2 2.747727 1_555
Gd6 S49 2.780451 1_555
Gd6 S40 2.810678 1_555
Gd6 S44 2.852866 1_555
Gd6 S4 2.856585 1_555
Gd6 S28 2.892967 1_555
Gd6 S22 2.901317 1_655
Gd6 S38 3.392013 1_565
Gd7 O0 2.354906 1_555
Gd7 S24 2.721664 1_555
Gd7 S46 2.820069 1_554
Gd7 S6 2.834095 1_555
Gd7 S45 2.893404 1_555
Gd7 S31 2.957733 1_555
Gd7 S4 3.017324 1_555
Gd7 S23 3.317528 1_554
Gd8 O2 2.354918 1_555
Gd8 S40 2.721669 1_455
Gd8 S51 2.820063 1_555
Gd8 S48 2.834082 1_555
Gd8 S36 2.893396 1_565
Gd8 S49 2.957730 1_455
Gd8 S22 3.017334 1_555
Gd8 S14 3.317525 1_555
Gd9 S5 2.747727 1_555
Gd9 S0 2.780451 1_555
Gd9 S23 2.810678 1_555
Gd9 S27 2.852866 1_555
Gd9 S22 2.856585 1_545
Gd9 S37 2.892967 1_545
Gd9 S54 2.901317 1_555
Gd9 S30 3.392013 1_555
Gd10 O3 2.354918 1_555
Gd10 S21 2.721669 1_555
Gd10 S50 2.820063 1_555
Gd10 S45 2.834082 1_555
Gd10 S6 2.893396 1_555
Gd10 S31 2.957730 1_555
Gd10 S11 3.017334 1_555
Gd10 S9 3.317525 1_555
Gd11 O1 2.354907 1_666
Gd11 S35 2.721678 1_566
Gd11 S8 2.820058 1_555
Gd11 S47 2.834100 1_555
Gd11 S1 2.893394 1_555
Gd11 S20 2.957738 1_565
Gd11 S15 3.017322 1_565
Gd11 S39 3.317532 1_555
Gd12 O2 2.354906 1_555
Gd12 S5 2.721664 1_565
Gd12 S34 2.820069 1_555
Gd12 S1 2.834095 1_555
Gd12 S47 2.893404 1_555
Gd12 S20 2.957733 1_565
Gd12 S51 3.017324 1_555
Gd12 S43 3.317528 1_555
Gd13 S23 2.747727 1_555
Gd13 S20 2.780451 1_555
Gd13 S5 2.810678 1_555
Gd13 S36 2.852866 1_555
Gd13 S46 2.856585 1_555
Gd13 S6 2.892967 1_556
Gd13 S51 2.901317 1_545
Gd13 S50 3.392013 1_556
Gd14 S21 2.747727 1_455
Gd14 S29 2.780451 1_556
Gd14 S39 2.810678 1_455
Gd14 S48 2.852866 1_555
Gd14 S42 2.856585 1_455
Gd14 S13 2.892967 1_555
Gd14 S26 2.901317 1_556
Gd14 S10 3.392013 1_556
Gd15 S24 2.747727 1_555
Gd15 S29 2.780451 1_555
Gd15 S43 2.810678 1_555
Gd15 S16 2.852866 1_555
Gd15 S10 2.856585 1_555
Gd15 S53 2.892967 1_554
Gd15 S41 2.901317 1_555
Gd15 S42 3.392013 1_454
Gd16 S27 2.796790 1_555
Gd16 S1 2.796790 1_545
Gd16 S15 2.858958 1_555
Gd16 S46 2.858958 1_555
Gd16 S3 2.879581 1_555
Gd16 S5 2.879581 1_555
Gd16 S18 2.987398 1_555
Gd16 S20 2.987398 1_555
Gd17 S9 2.747727 1_555
Gd17 S20 2.780451 1_554
Gd17 S35 2.810678 1_555
Gd17 S12 2.852866 1_655
Gd17 S50 2.856585 1_555
Gd17 S45 2.892967 1_555
Gd17 S15 2.901317 1_554
Gd17 S46 3.392013 1_554
Gd18 S37 2.796790 1_555
Gd18 S52 2.796790 1_555
Gd18 S10 2.858958 1_555
Gd18 S26 2.858958 1_555
Gd18 S43 2.879581 1_555
Gd18 S7 2.879581 1_565
Gd18 S29 2.987398 1_555
Gd18 S33 2.987398 1_555
Gd19 S16 2.796790 1_555
Gd19 S6 2.796790 1_555
Gd19 S11 2.858958 1_555
Gd19 S34 2.858958 1_555
Gd19 S32 2.879581 1_555
Gd19 S24 2.879581 1_555
Gd19 S25 2.987398 1_555
Gd19 S31 2.987398 1_555
Gd20 S7 2.747727 1_555
Gd20 S25 2.780451 1_555
Gd20 S32 2.810678 1_555
Gd20 S37 2.852866 1_545
Gd20 S11 2.856585 1_555
Gd20 S27 2.892967 1_555
Gd20 S30 2.901317 1_555
Gd20 S54 3.392013 1_555
Gd21 S3 2.747727 1_565
Gd21 S49 2.780451 1_555
Gd21 S19 2.810678 1_565
Gd21 S1 2.852866 1_555
Gd21 S38 2.856585 1_565
Gd21 S52 2.892967 1_555
Gd21 S8 2.901317 1_555
Gd21 S4 3.392013 1_555
Gd22 S32 2.747727 1_555
Gd22 S33 2.780451 1_545
Gd22 S7 2.810678 1_555
Gd22 S6 2.852866 1_555
Gd22 S26 2.856585 1_545
Gd22 S36 2.892967 1_554
Gd22 S50 2.901317 1_555
Gd22 S51 3.392013 1_544
Gd23 O2 2.354907 1_555
Gd23 S14 2.721678 1_555
Gd23 S41 2.820058 1_555
Gd23 S12 2.834100 1_555
Gd23 S16 2.893394 1_555
Gd23 S25 2.957738 1_555
Gd23 S34 3.017322 1_555
Gd23 S40 3.317532 1_455
Gd24 O3 2.354906 1_555
Gd24 S7 2.721664 1_555
Gd24 S38 2.820069 1_555
Gd24 S52 2.834095 1_545
Gd24 S28 2.893404 1_545
Gd24 S33 2.957733 1_545
Gd24 S50 3.017324 1_555
Gd24 S3 3.317528 1_555
Gd25 S19 2.747727 1_555
Gd25 S18 2.780451 1_555
Gd25 S3 2.810678 1_555
Gd25 S53 2.852866 1_655
Gd25 S15 2.856585 1_555
Gd25 S16 2.892967 1_656
Gd25 S42 2.901317 1_555
Gd25 S41 3.392013 1_656
Gd26 S45 2.796790 1_555
Gd26 S48 2.796790 1_655
Gd26 S8 2.858958 1_555
Gd26 S4 2.858958 1_555
Gd26 S21 2.879581 1_555
Gd26 S40 2.879581 1_555
Gd26 S31 2.987398 1_555
Gd26 S49 2.987398 1_555
Gd27 O0 2.354918 1_556
Gd27 S2 2.721669 1_556
Gd27 S54 2.820063 1_555
Gd27 S17 2.834082 1_555
Gd27 S27 2.893396 1_555
Gd27 S18 2.957730 1_555
Gd27 S46 3.017334 1_555
Gd27 S55 3.317525 1_555
Gd28 O0 2.354906 1_556
Gd28 S23 2.721664 1_555
Gd28 S10 2.820069 1_556
Gd28 S53 2.834095 1_555
Gd28 S13 2.893404 1_555
Gd28 S0 2.957733 1_555
Gd28 S54 3.017324 1_555
Gd28 S24 3.317528 1_556
Gd29 S55 2.747727 1_555
Gd29 S25 2.780451 1_555
Gd29 S14 2.810678 1_555
Gd29 S47 2.852866 1_555
Gd29 S54 2.856585 1_555
Gd29 S17 2.892967 1_555
Gd29 S34 2.901317 1_555
Gd29 S11 3.392013 1_555
Gd30 O3 2.354907 1_555
Gd30 S9 2.721678 1_555
Gd30 S42 2.820058 1_555
Gd30 S13 2.834100 1_655
Gd30 S53 2.893394 1_655
Gd30 S0 2.957738 1_655
Gd30 S38 3.017322 1_555
Gd30 S21 3.317532 1_555
Gd31 S53 2.796790 1_555
Gd31 S36 2.796790 1_555
Gd31 S38 2.858958 1_455
Gd31 S22 2.858958 1_545
Gd31 S23 2.879581 1_555
Gd31 S19 2.879581 1_455
Gd31 S0 2.987398 1_555
Gd31 S49 2.987398 1_445
Gd32 O1 2.354906 1_566
Gd32 S19 2.721664 1_465
Gd32 S26 2.820069 1_556
Gd32 S36 2.834095 1_565
Gd32 S48 2.893404 1_555
Gd32 S49 2.957733 1_455
Gd32 S8 3.017324 1_455
Gd32 S32 3.317528 1_566
Gd33 S35 2.747727 1_555
Gd33 S0 2.780451 1_655
Gd33 S9 2.810678 1_555
Gd33 S28 2.852866 1_545
Gd33 S30 2.856585 1_655
Gd33 S44 2.892967 1_545
Gd33 S38 2.901317 1_555
Gd33 S22 3.392013 1_645
Gd34 S12 2.796790 1_555
Gd34 S13 2.796790 1_555
Gd34 S30 2.858958 1_555
Gd34 S54 2.858958 1_555
Gd34 S14 2.879581 1_555
Gd34 S9 2.879581 1_455
Gd34 S25 2.987398 1_555
Gd34 S0 2.987398 1_555
Gd35 S40 2.747727 1_555
Gd35 S18 2.780451 1_554
Gd35 S2 2.810678 1_555
Gd35 S45 2.852866 1_555
Gd35 S41 2.856585 1_655
Gd35 S12 2.892967 1_655
Gd35 S46 2.901317 1_554
Gd35 S15 3.392013 1_554
Gd36 O2 2.354906 1_555
Gd36 S43 2.721664 1_555
Gd36 S22 2.820069 1_555
Gd36 S37 2.834095 1_555
Gd36 S44 2.893404 1_455
Gd36 S29 2.957733 1_555
Gd36 S41 3.017324 1_555
Gd36 S5 3.317528 1_565
Gd37 S14 2.747727 1_555
Gd37 S33 2.780451 1_556
Gd37 S55 2.810678 1_555
Gd37 S13 2.852866 1_555
Gd37 S51 2.856585 1_555
Gd37 S48 2.892967 1_555
Gd37 S10 2.901317 1_556
Gd37 S26 3.392013 1_556
Gd38 S39 2.747727 1_555
Gd38 S31 2.780451 1_555
Gd38 S21 2.810678 1_555
Gd38 S17 2.852866 1_555
Gd38 S8 2.856585 1_555
Gd38 S47 2.892967 1_555
Gd38 S11 2.901317 1_555
Gd38 S34 3.392013 1_555
Gd39 S47 2.796790 1_554
Gd39 S28 2.796790 1_555
Gd39 S50 2.858958 1_565
Gd39 S51 2.858958 1_554
Gd39 S55 2.879581 1_554
Gd39 S35 2.879581 1_565
Gd39 S33 2.987398 1_555
Gd39 S20 2.987398 1_564
