# generated using pymatgen
data_LiMg10AlH24
_symmetry_space_group_name_H-M   'P 1'
_cell_length_a   8.98010400
_cell_length_b   4.47679400
_cell_length_c   8.96724453
_cell_angle_alpha   89.66800860
_cell_angle_beta   90.00000000
_cell_angle_gamma   90.00000000
_symmetry_Int_Tables_number   1
_chemical_formula_structural   LiMg10AlH24
_chemical_formula_sum   'Li1 Mg10 Al1 H24'
_cell_volume   360.49579186
_cell_formula_units_Z   1
loop_
 _symmetry_equiv_pos_site_id
 _symmetry_equiv_pos_as_xyz
  1  'x, y, z'
loop_
 _atom_site_type_symbol
 _atom_site_label
 _atom_site_symmetry_multiplicity
 _atom_site_fract_x
 _atom_site_fract_y
 _atom_site_fract_z
 _atom_site_occupancy
  Li  Li0  1  0.50317900  0.50000000  0.00000000  1
  Mg  Mg0  1  0.49898300  0.50000000  0.50000000  1
  Mg  Mg1  1  0.33437600  0.00559600  0.24561400  1
  Mg  Mg2  1  0.16637200  0.50000000  0.50000000  1
  Mg  Mg3  1  0.82752100  0.50000000  0.00000000  1
  Mg  Mg4  1  0.66297100  0.00095700  0.24201000  1
  Mg  Mg5  1  0.83172000  0.50000000  0.50000000  1
  Mg  Mg6  1  0.33437600  0.99440400  0.75438600  1
  Mg  Mg7  1  0.99931800  0.99718400  0.74829200  1
  Mg  Mg8  1  0.99931800  0.00281600  0.25170800  1
  Mg  Mg9  1  0.66297100  0.99904300  0.75799000  1
  Al  Al0  1  0.16794400  0.50000000  0.00000000  1
  H  H0  1  0.66680500  0.69887400  0.59971800  1
  H  H1  1  0.32933400  0.69485700  0.59912700  1
  H  H2  1  0.49428700  0.80511400  0.85126100  1
  H  H3  1  0.67148400  0.30328400  0.90119500  1
  H  H4  1  0.66680500  0.30112600  0.40028200  1
  H  H5  1  0.83476500  0.19531800  0.65395300  1
  H  H6  1  0.16629400  0.18630700  0.65568400  1
  H  H7  1  0.16629400  0.81369300  0.34431600  1
  H  H8  1  0.00093400  0.69285100  0.59805000  1
  H  H9  1  0.16185700  0.22028700  0.14241000  1
  H  H10  1  0.30447900  0.69101100  0.09310600  1
  H  H11  1  0.16185700  0.77971300  0.85759000  1
  H  H12  1  0.49623300  0.80111100  0.34720500  1
  H  H13  1  0.49623300  0.19888900  0.65279500  1
  H  H14  1  0.49428700  0.19488600  0.14873900  1
  H  H15  1  0.84101000  0.19459300  0.14901500  1
  H  H16  1  0.32933400  0.30514300  0.40087300  1
  H  H17  1  0.30447900  0.30898900  0.90689400  1
  H  H18  1  0.01799400  0.31421600  0.90819200  1
  H  H19  1  0.67148400  0.69671600  0.09880500  1
  H  H20  1  0.83476500  0.80468200  0.34604700  1
  H  H21  1  0.00093400  0.30714900  0.40195000  1
  H  H22  1  0.84101000  0.80540700  0.85098500  1
  H  H23  1  0.01799400  0.68578400  0.09180800  1
loop_
_geom_bond_atom_site_label_1
_geom_bond_atom_site_label_2
_geom_bond_distance
_geom_bond_site_symmetry_2
Al0 H10 1.714608 1_555
Al0 H17 1.714608 1_554
Al0 H9 1.784180 1_555
Al0 H11 1.784180 1_554
Al0 H23 1.786251 1_555
Al0 H18 1.786251 1_554
H0 Mg5 1.948000 1_555
H0 Mg9 1.960454 1_555
H0 Mg0 1.967919 1_555
H1 Mg2 1.923974 1_555
H1 Mg6 1.939160 1_555
H1 Mg0 1.970035 1_555
H2 Mg6 1.877862 1_555
H2 Li0 1.905256 1_556
H2 Mg9 1.933773 1_555
H3 Mg9 1.878903 1_545
H3 Mg3 1.879641 1_556
H3 Li0 1.963143 1_556
H4 Mg5 1.948000 1_555
H4 Mg4 1.960454 1_555
H4 Mg0 1.967919 1_555
H5 Mg7 1.917639 1_545
H5 Mg5 1.935276 1_555
H5 Mg9 2.003233 1_545
H6 Mg7 1.909635 1_445
H6 Mg6 1.947024 1_545
H6 Mg2 1.974442 1_555
H7 Mg8 1.909635 1_465
H7 Mg1 1.947024 1_565
H7 Mg2 1.974442 1_555
H8 Mg7 1.921670 1_455
H8 Mg2 1.932458 1_555
H8 Mg5 1.958647 1_455
H9 Mg8 2.006955 1_455
H9 Mg1 2.042074 1_555
H10 Mg1 1.986974 1_565
H10 Li0 2.149525 1_555
H11 Mg7 2.006955 1_455
H11 Mg6 2.042074 1_555
H12 Mg0 1.916678 1_555
H12 Mg1 1.941882 1_565
H12 Mg4 1.980522 1_565
H13 Mg0 1.916678 1_555
H13 Mg6 1.941882 1_545
H13 Mg9 1.980522 1_545
H14 Mg1 1.877862 1_555
H14 Li0 1.905256 1_555
H14 Mg4 1.933773 1_555
H15 Mg8 1.896564 1_555
H15 Mg3 1.910087 1_555
H15 Mg4 1.998669 1_555
H16 Mg2 1.923974 1_555
H16 Mg1 1.939160 1_555
H16 Mg0 1.970035 1_555
H17 Mg6 1.986974 1_545
H17 Li0 2.149525 1_556
H18 Mg7 2.030283 1_445
H18 Mg3 2.074404 1_456
H19 Mg4 1.878903 1_565
H19 Mg3 1.879641 1_555
H19 Li0 1.963143 1_555
H20 Mg8 1.917639 1_565
H20 Mg5 1.935276 1_555
H20 Mg4 2.003233 1_565
H21 Mg8 1.921670 1_455
H21 Mg2 1.932458 1_555
H21 Mg5 1.958647 1_455
H22 Mg7 1.896564 1_555
H22 Mg3 1.910087 1_556
H22 Mg9 1.998669 1_555
H23 Mg8 2.030283 1_465
H23 Mg3 2.074404 1_455
