# generated using pymatgen
data_AlHg2SbCl4
_symmetry_space_group_name_H-M   'P 1'
_cell_length_a   8.98027500
_cell_length_b   12.47018300
_cell_length_c   18.04540400
_cell_angle_alpha   90.00000000
_cell_angle_beta   90.00000000
_cell_angle_gamma   90.00000000
_symmetry_Int_Tables_number   1
_chemical_formula_structural   AlHg2SbCl4
_chemical_formula_sum   'Al8 Hg16 Sb8 Cl32'
_cell_volume   2020.82670501
_cell_formula_units_Z   8
loop_
 _symmetry_equiv_pos_site_id
 _symmetry_equiv_pos_as_xyz
  1  'x, y, z'
loop_
 _atom_site_type_symbol
 _atom_site_label
 _atom_site_symmetry_multiplicity
 _atom_site_fract_x
 _atom_site_fract_y
 _atom_site_fract_z
 _atom_site_occupancy
  Al  Al0  1  0.16725400  0.98919900  0.12205300  1
  Al  Al1  1  0.83837800  0.70913000  0.63398000  1
  Al  Al2  1  0.33274600  0.98919900  0.62205300  1
  Al  Al3  1  0.66725400  0.48919900  0.37794700  1
  Al  Al4  1  0.33837800  0.20913000  0.86602000  1
  Al  Al5  1  0.66162200  0.70913000  0.13398000  1
  Al  Al6  1  0.16162200  0.20913000  0.36602000  1
  Al  Al7  1  0.83274600  0.48919900  0.87794700  1
  Hg  Hg0  1  0.42030600  0.33388300  0.12419700  1
  Hg  Hg1  1  0.75503500  0.10028600  0.49313800  1
  Hg  Hg2  1  0.92078800  0.36189300  0.12115100  1
  Hg  Hg3  1  0.25503500  0.60028600  0.00686200  1
  Hg  Hg4  1  0.57969400  0.83388300  0.87580300  1
  Hg  Hg5  1  0.07969400  0.33388300  0.62419700  1
  Hg  Hg6  1  0.79634600  0.09633500  0.74393900  1
  Hg  Hg7  1  0.24496500  0.60028600  0.50686200  1
  Hg  Hg8  1  0.57921200  0.36189300  0.62115100  1
  Hg  Hg9  1  0.29634600  0.59633500  0.75606100  1
  Hg  Hg10  1  0.70365400  0.09633500  0.24393900  1
  Hg  Hg11  1  0.92030600  0.83388300  0.37580300  1
  Hg  Hg12  1  0.20365400  0.59633500  0.25606100  1
  Hg  Hg13  1  0.74496500  0.10028600  0.99313800  1
  Hg  Hg14  1  0.42078800  0.86189300  0.37884900  1
  Hg  Hg15  1  0.07921200  0.86189300  0.87884900  1
  Sb  Sb0  1  0.81590900  0.22120200  0.61829700  1
  Sb  Sb1  1  0.68409100  0.22120200  0.11829700  1
  Sb  Sb2  1  0.18409100  0.72120200  0.38170300  1
  Sb  Sb3  1  0.31455400  0.47524400  0.62866000  1
  Sb  Sb4  1  0.68544600  0.97524400  0.37134000  1
  Sb  Sb5  1  0.31590900  0.72120200  0.88170300  1
  Sb  Sb6  1  0.18544600  0.47524400  0.12866000  1
  Sb  Sb7  1  0.81455400  0.97524400  0.87134000  1
  Cl  Cl0  1  0.31046000  0.33735700  0.94556100  1
  Cl  Cl1  1  0.12597000  0.84728400  0.05586200  1
  Cl  Cl2  1  0.14117800  0.19247400  0.79967100  1
  Cl  Cl3  1  0.57333200  0.62736800  0.43468700  1
  Cl  Cl4  1  0.07333200  0.12736800  0.06531300  1
  Cl  Cl5  1  0.47403300  0.74850400  0.20463200  1
  Cl  Cl6  1  0.94271000  0.46864000  0.77281200  1
  Cl  Cl7  1  0.59893700  0.51662900  0.86493600  1
  Cl  Cl8  1  0.88586700  0.56252200  0.57402700  1
  Cl  Cl9  1  0.18954000  0.33735700  0.44556100  1
  Cl  Cl10  1  0.44271000  0.96864000  0.72718800  1
  Cl  Cl11  1  0.42666800  0.12736800  0.56531300  1
  Cl  Cl12  1  0.62597000  0.34728400  0.44413800  1
  Cl  Cl13  1  0.09893700  0.01662900  0.63506400  1
  Cl  Cl14  1  0.64117800  0.69247400  0.70032900  1
  Cl  Cl15  1  0.85882200  0.69247400  0.20032900  1
  Cl  Cl16  1  0.87403000  0.34728400  0.94413800  1
  Cl  Cl17  1  0.61413300  0.56252200  0.07402700  1
  Cl  Cl18  1  0.40106300  0.01662900  0.13506400  1
  Cl  Cl19  1  0.37403000  0.84728400  0.55586200  1
  Cl  Cl20  1  0.90106300  0.51662900  0.36493600  1
  Cl  Cl21  1  0.55729000  0.46864000  0.27281200  1
  Cl  Cl22  1  0.05729000  0.96864000  0.22718800  1
  Cl  Cl23  1  0.35882200  0.19247400  0.29967100  1
  Cl  Cl24  1  0.52596700  0.24850400  0.79536800  1
  Cl  Cl25  1  0.92666800  0.62736800  0.93468700  1
  Cl  Cl26  1  0.81046000  0.83735700  0.55443900  1
  Cl  Cl27  1  0.11413300  0.06252200  0.42597300  1
  Cl  Cl28  1  0.38586700  0.06252200  0.92597300  1
  Cl  Cl29  1  0.68954000  0.83735700  0.05443900  1
  Cl  Cl30  1  0.97403300  0.24850400  0.29536800  1
  Cl  Cl31  1  0.02596700  0.74850400  0.70463200  1
loop_
_geom_bond_atom_site_label_1
_geom_bond_atom_site_label_2
_geom_bond_distance
_geom_bond_site_symmetry_2
Al0 Cl18 2.140266 1_565
Al0 Cl22 2.154131 1_555
Al0 Cl1 2.167026 1_555
Al0 Cl4 2.174504 1_565
Al1 Cl14 2.147738 1_555
Al1 Cl26 2.163315 1_555
Al1 Cl8 2.166737 1_555
Al1 Cl31 2.168973 1_655
Al2 Cl13 2.140266 1_565
Al2 Cl10 2.154131 1_555
Al2 Cl19 2.167026 1_555
Al2 Cl11 2.174504 1_565
Al3 Cl20 2.140266 1_555
Al3 Cl21 2.154131 1_555
Al3 Cl12 2.167026 1_555
Al3 Cl3 2.174504 1_555
Al4 Cl2 2.147738 1_555
Al4 Cl0 2.163315 1_555
Al4 Cl28 2.166737 1_555
Al4 Cl24 2.168973 1_555
Al5 Cl15 2.147738 1_555
Al5 Cl29 2.163315 1_555
Al5 Cl17 2.166737 1_555
Al5 Cl5 2.168973 1_555
Al6 Cl23 2.147738 1_555
Al6 Cl9 2.163315 1_555
Al6 Cl27 2.166737 1_555
Al6 Cl30 2.168973 1_455
Al7 Cl7 2.140266 1_555
Al7 Cl6 2.154131 1_555
Al7 Cl16 2.167026 1_555
Al7 Cl25 2.174504 1_555
Hg0 Sb6 2.749959 1_555
Hg0 Sb1 2.756319 1_555
Hg1 Sb4 2.766348 1_545
Hg1 Sb0 2.770102 1_555
Hg2 Sb1 2.756613 1_555
Hg2 Sb6 2.768587 1_655
Hg3 Sb6 2.766348 1_555
Hg3 Sb5 2.770102 1_554
Hg4 Sb7 2.749959 1_555
Hg4 Sb5 2.756319 1_555
Hg5 Sb3 2.749959 1_555
Hg5 Sb0 2.756319 1_455
Hg6 Sb7 2.755418 1_545
Hg6 Sb0 2.756073 1_555
Hg7 Sb3 2.766348 1_555
Hg7 Sb2 2.770102 1_555
Hg8 Sb0 2.756613 1_555
Hg8 Sb3 2.768587 1_555
Hg9 Sb3 2.755418 1_555
Hg9 Sb5 2.756073 1_555
Hg10 Sb4 2.755418 1_545
Hg10 Sb1 2.756073 1_555
Hg11 Sb4 2.749959 1_555
Hg11 Sb2 2.756319 1_655
Hg12 Sb6 2.755418 1_555
Hg12 Sb2 2.756073 1_555
Hg13 Sb7 2.766348 1_545
Hg13 Sb1 2.770102 1_556
Hg14 Sb2 2.756613 1_555
Hg14 Sb4 2.768587 1_555
Hg15 Sb5 2.756613 1_555
Hg15 Sb7 2.768587 1_455
