# generated using pymatgen
data_CsAlAgF6
_symmetry_space_group_name_H-M   'P 1'
_cell_length_a   7.34667600
_cell_length_b   7.57565500
_cell_length_c   10.54870100
_cell_angle_alpha   90.00000000
_cell_angle_beta   90.00000000
_cell_angle_gamma   90.00000000
_symmetry_Int_Tables_number   1
_chemical_formula_structural   CsAlAgF6
_chemical_formula_sum   'Cs4 Al4 Ag4 F24'
_cell_volume   587.09726626
_cell_formula_units_Z   4
loop_
 _symmetry_equiv_pos_site_id
 _symmetry_equiv_pos_as_xyz
  1  'x, y, z'
loop_
 _atom_site_type_symbol
 _atom_site_label
 _atom_site_symmetry_multiplicity
 _atom_site_fract_x
 _atom_site_fract_y
 _atom_site_fract_z
 _atom_site_occupancy
  Cs  Cs0  1  0.75000000  0.52082000  0.13397400  1
  Cs  Cs1  1  0.25000000  0.47918000  0.86602600  1
  Cs  Cs2  1  0.25000000  0.97918000  0.63397400  1
  Cs  Cs3  1  0.75000000  0.02082000  0.36602600  1
  Al  Al0  1  0.50000000  0.00000000  0.00000000  1
  Al  Al1  1  0.50000000  0.50000000  0.50000000  1
  Al  Al2  1  0.00000000  0.00000000  0.00000000  1
  Al  Al3  1  0.00000000  0.50000000  0.50000000  1
  Ag  Ag0  1  0.25000000  0.78441700  0.25414400  1
  Ag  Ag1  1  0.75000000  0.71558300  0.75414400  1
  Ag  Ag2  1  0.25000000  0.28441700  0.24585600  1
  Ag  Ag3  1  0.75000000  0.21558300  0.74585600  1
  F  F0  1  0.25000000  0.46415100  0.50538000  1
  F  F1  1  0.75000000  0.53584900  0.49462000  1
  F  F2  1  0.75000000  0.96271200  0.66869900  1
  F  F3  1  0.47023000  0.70040500  0.40685200  1
  F  F4  1  0.25000000  0.96415100  0.99462000  1
  F  F5  1  0.01292000  0.63205900  0.64473500  1
  F  F6  1  0.02977000  0.20040500  0.09314800  1
  F  F7  1  0.52977000  0.29959500  0.59314800  1
  F  F8  1  0.51292000  0.86794100  0.14473500  1
  F  F9  1  0.25000000  0.53728800  0.16869900  1
  F  F10  1  0.98708000  0.86794100  0.14473500  1
  F  F11  1  0.51292000  0.36794100  0.35526500  1
  F  F12  1  0.47023000  0.20040500  0.09314800  1
  F  F13  1  0.97023000  0.29959500  0.59314800  1
  F  F14  1  0.25000000  0.03728800  0.33130100  1
  F  F15  1  0.97023000  0.79959500  0.90685200  1
  F  F16  1  0.48708000  0.63205900  0.64473500  1
  F  F17  1  0.75000000  0.46271200  0.83130100  1
  F  F18  1  0.75000000  0.03584900  0.00538000  1
  F  F19  1  0.48708000  0.13205900  0.85526500  1
  F  F20  1  0.98708000  0.36794100  0.35526500  1
  F  F21  1  0.52977000  0.79959500  0.90685200  1
  F  F22  1  0.01292000  0.13205900  0.85526500  1
  F  F23  1  0.02977000  0.70040500  0.40685200  1
loop_
_geom_bond_atom_site_label_1
_geom_bond_atom_site_label_2
_geom_bond_distance
_geom_bond_site_symmetry_2
Cs0 F11 3.134347 1_555
Cs0 F20 3.134347 1_555
Cs0 F10 3.156222 1_555
Cs0 F8 3.156222 1_555
Cs0 F6 3.209688 1_655
Cs0 F12 3.209688 1_555
Cs0 F17 3.223011 1_554
Cs1 F16 3.134347 1_555
Cs1 F5 3.134347 1_555
Cs1 F19 3.156222 1_555
Cs1 F22 3.156222 1_555
Cs1 F15 3.209688 1_455
Cs1 F21 3.209688 1_555
Cs1 F9 3.223011 1_556
Cs2 F22 3.134347 1_565
Cs2 F19 3.134347 1_565
Cs2 F5 3.156222 1_555
Cs2 F16 3.156222 1_555
Cs2 F13 3.209688 1_465
Cs2 F7 3.209688 1_565
Cs2 F14 3.223011 1_565
Cs3 F8 3.134347 1_545
Cs3 F10 3.134347 1_545
Cs3 F11 3.156222 1_555
Cs3 F20 3.156222 1_555
Cs3 F3 3.209688 1_545
Cs3 F23 3.209688 1_645
Cs3 F2 3.223011 1_545
Al0 F12 1.821606 1_555
Al0 F21 1.821606 1_544
Al0 F19 1.827811 1_554
Al0 F8 1.827811 1_545
Al0 F18 1.857506 1_555
Al0 F4 1.857506 1_544
Al1 F7 1.821606 1_555
Al1 F3 1.821606 1_555
Al1 F16 1.827811 1_555
Al1 F11 1.827811 1_555
Al1 F1 1.857506 1_555
Al1 F0 1.857506 1_555
Al2 F6 1.821606 1_555
Al2 F15 1.821606 1_444
Al2 F22 1.827811 1_554
Al2 F10 1.827811 1_445
Al2 F18 1.857506 1_455
Al2 F4 1.857506 1_544
Al3 F13 1.821606 1_455
Al3 F23 1.821606 1_555
Al3 F5 1.827811 1_555
Al3 F20 1.827811 1_455
Al3 F1 1.857506 1_455
Al3 F0 1.857506 1_555
Ag0 F9 2.077836 1_555
Ag0 F14 2.081396 1_565
Ag0 F8 2.337392 1_555
Ag0 F10 2.337392 1_455
Ag0 F3 2.370181 1_555
Ag0 F23 2.370181 1_555
Ag1 F2 2.077836 1_555
Ag1 F17 2.081396 1_555
Ag1 F16 2.337392 1_555
Ag1 F5 2.337392 1_655
Ag1 F21 2.370181 1_555
Ag1 F15 2.370181 1_555
Ag2 F14 2.077836 1_555
Ag2 F9 2.081396 1_555
Ag2 F20 2.337392 1_455
Ag2 F11 2.337392 1_555
Ag2 F12 2.370181 1_555
Ag2 F6 2.370181 1_555
Ag3 F17 2.077836 1_555
Ag3 F2 2.081396 1_545
Ag3 F19 2.337392 1_555
Ag3 F22 2.337392 1_655
Ag3 F7 2.370181 1_555
Ag3 F13 2.370181 1_555
