# generated using pymatgen
data_CoHgC4(SN)4
_symmetry_space_group_name_H-M   'P 1'
_cell_length_a   8.26672914
_cell_length_b   8.26672914
_cell_length_c   8.26672914
_cell_angle_alpha   94.72574997
_cell_angle_beta   94.72574997
_cell_angle_gamma   146.63950096
_symmetry_Int_Tables_number   1
_chemical_formula_structural   CoHgC4(SN)4
_chemical_formula_sum   'Co1 Hg1 C4 S4 N4'
_cell_volume   297.59028415
_cell_formula_units_Z   1
loop_
 _symmetry_equiv_pos_site_id
 _symmetry_equiv_pos_as_xyz
  1  'x, y, z'
loop_
 _atom_site_type_symbol
 _atom_site_label
 _atom_site_symmetry_multiplicity
 _atom_site_fract_x
 _atom_site_fract_y
 _atom_site_fract_z
 _atom_site_occupancy
  Co  Co0  1  0.75000000  0.25000000  0.50000000  1
  Hg  Hg0  1  0.00000000  0.00000000  0.00000000  1
  C  C0  1  0.17672500  0.38115500  0.35509300  1
  C  C1  1  0.02606200  0.82163200  0.64490700  1
  C  C2  1  0.61884500  0.97393800  0.79556900  1
  C  C3  1  0.17836800  0.82327500  0.20443100  1
  S  S0  1  0.55327600  0.83447600  0.95451400  1
  S  S1  1  0.16552400  0.12003800  0.71880000  1
  S  S2  1  0.87996200  0.59876200  0.04548600  1
  S  S3  1  0.40123800  0.44672400  0.28120000  1
  N  N0  1  0.66031200  0.07286000  0.68111000  1
  N  N1  1  0.92714000  0.60824900  0.58745100  1
  N  N2  1  0.39175100  0.97920200  0.31889000  1
  N  N3  1  0.02079800  0.33968800  0.41254900  1
loop_
_geom_bond_atom_site_label_1
_geom_bond_atom_site_label_2
_geom_bond_distance
_geom_bond_site_symmetry_2
Co0 N1 1.914716 1_555
Co0 N2 1.914720 1_545
Co0 N3 1.914720 1_655
Co0 N0 1.914725 1_555
Hg0 S1 2.626186 1_554
Hg0 S2 2.626186 1_445
Hg0 S3 2.626186 1_555
Hg0 S0 2.626186 1_444
C0 N3 1.180778 1_555
C0 S3 1.634777 1_555
C1 N1 1.180783 1_455
C1 S1 1.634777 1_565
C2 N0 1.180767 1_565
C2 S0 1.634784 1_555
C3 N2 1.180773 1_555
C3 S2 1.634782 1_455
