# generated using pymatgen
data_Ba2Y2CuPtO8
_symmetry_space_group_name_H-M   'P 1'
_cell_length_a   5.74999000
_cell_length_b   10.44863300
_cell_length_c   13.38104300
_cell_angle_alpha   90.00000000
_cell_angle_beta   90.00000000
_cell_angle_gamma   90.00000000
_symmetry_Int_Tables_number   1
_chemical_formula_structural   Ba2Y2CuPtO8
_chemical_formula_sum   'Ba8 Y8 Cu4 Pt4 O32'
_cell_volume   803.92684478
_cell_formula_units_Z   4
loop_
 _symmetry_equiv_pos_site_id
 _symmetry_equiv_pos_as_xyz
  1  'x, y, z'
loop_
 _atom_site_type_symbol
 _atom_site_label
 _atom_site_symmetry_multiplicity
 _atom_site_fract_x
 _atom_site_fract_y
 _atom_site_fract_z
 _atom_site_occupancy
  Ba  Ba0  1  0.75000000  0.18629700  0.29305500  1
  Ba  Ba1  1  0.75000000  0.59132800  0.57718500  1
  Ba  Ba2  1  0.25000000  0.40867200  0.42281500  1
  Ba  Ba3  1  0.75000000  0.31370300  0.79305500  1
  Ba  Ba4  1  0.25000000  0.68629700  0.20694500  1
  Ba  Ba5  1  0.75000000  0.90867200  0.07718500  1
  Ba  Ba6  1  0.25000000  0.81370300  0.70694500  1
  Ba  Ba7  1  0.25000000  0.09132800  0.92281500  1
  Y  Y0  1  0.25000000  0.31183600  0.14218400  1
  Y  Y1  1  0.25000000  0.01406600  0.41675900  1
  Y  Y2  1  0.75000000  0.81183600  0.35781600  1
  Y  Y3  1  0.75000000  0.68816400  0.85781600  1
  Y  Y4  1  0.25000000  0.18816400  0.64218400  1
  Y  Y5  1  0.25000000  0.48593400  0.91675900  1
  Y  Y6  1  0.75000000  0.51406600  0.08324100  1
  Y  Y7  1  0.75000000  0.98593400  0.58324100  1
  Cu  Cu0  1  0.75000000  0.23204100  0.03896900  1
  Cu  Cu1  1  0.75000000  0.26795900  0.53896900  1
  Cu  Cu2  1  0.25000000  0.76795900  0.96103100  1
  Cu  Cu3  1  0.25000000  0.73204100  0.46103100  1
  Pt  Pt0  1  0.75000000  0.53228600  0.30653800  1
  Pt  Pt1  1  0.75000000  0.96771400  0.80653800  1
  Pt  Pt2  1  0.25000000  0.03228600  0.19346200  1
  Pt  Pt3  1  0.25000000  0.46771400  0.69346200  1
  O  O0  1  0.00713000  0.63695700  0.99284500  1
  O  O1  1  0.49349000  0.36194600  0.61415200  1
  O  O2  1  0.75000000  0.81417600  0.70406300  1
  O  O3  1  0.99287000  0.13695700  0.50715500  1
  O  O4  1  0.50651000  0.86194600  0.88584800  1
  O  O5  1  0.75000000  0.39118500  0.41139400  1
  O  O6  1  0.00651000  0.13805400  0.11415200  1
  O  O7  1  0.75000000  0.68582400  0.20406300  1
  O  O8  1  0.50923700  0.44343400  0.21716700  1
  O  O9  1  0.49076300  0.94343400  0.28283300  1
  O  O10  1  0.99287000  0.36304300  0.00715500  1
  O  O11  1  0.49349000  0.13805400  0.11415200  1
  O  O12  1  0.25000000  0.31417600  0.79593700  1
  O  O13  1  0.00923700  0.55656600  0.78283300  1
  O  O14  1  0.50713000  0.36304300  0.00715500  1
  O  O15  1  0.99076300  0.44343400  0.21716700  1
  O  O16  1  0.25000000  0.60881500  0.58860600  1
  O  O17  1  0.50923700  0.05656600  0.71716700  1
  O  O18  1  0.00651000  0.36194600  0.61415200  1
  O  O19  1  0.49287000  0.86304300  0.49284500  1
  O  O20  1  0.00923700  0.94343400  0.28283300  1
  O  O21  1  0.99076300  0.05656600  0.71716700  1
  O  O22  1  0.99349000  0.63805400  0.38584800  1
  O  O23  1  0.99349000  0.86194600  0.88584800  1
  O  O24  1  0.50713000  0.13695700  0.50715500  1
  O  O25  1  0.50651000  0.63805400  0.38584800  1
  O  O26  1  0.49076300  0.55656600  0.78283300  1
  O  O27  1  0.00713000  0.86304300  0.49284500  1
  O  O28  1  0.75000000  0.10881500  0.91139400  1
  O  O29  1  0.49287000  0.63695700  0.99284500  1
  O  O30  1  0.25000000  0.18582400  0.29593700  1
  O  O31  1  0.25000000  0.89118500  0.08860600  1
loop_
_geom_bond_atom_site_label_1
_geom_bond_atom_site_label_2
_geom_bond_distance
_geom_bond_site_symmetry_2
Ba0 O5 2.662798 1_555
Ba0 O6 2.856625 1_655
Ba0 O11 2.856625 1_555
Ba0 O30 2.875258 1_555
Ba0 O30 2.875258 1_655
Ba0 O20 2.946179 1_645
Ba0 O9 2.946179 1_545
Ba0 O8 3.188448 1_555
Ba0 O15 3.188448 1_555
Ba0 O3 3.228550 1_555
Ba0 O24 3.228550 1_555
Ba1 O18 2.857343 1_655
Ba1 O1 2.857343 1_555
Ba1 O2 2.881684 1_555
Ba1 O16 2.884846 1_555
Ba1 O16 2.884846 1_655
Ba1 O25 2.958652 1_555
Ba1 O22 2.958652 1_555
Ba1 O5 3.048730 1_555
Ba1 O13 3.150581 1_655
Ba1 O26 3.150581 1_555
Ba1 O19 3.394082 1_555
Ba1 O27 3.394082 1_655
Ba2 O22 2.857343 1_455
Ba2 O25 2.857343 1_555
Ba2 O30 2.881684 1_555
Ba2 O5 2.884846 1_455
Ba2 O5 2.884846 1_555
Ba2 O1 2.958652 1_555
Ba2 O18 2.958652 1_555
Ba2 O16 3.048730 1_555
Ba2 O8 3.150581 1_555
Ba2 O15 3.150581 1_455
Ba2 O24 3.394082 1_555
Ba2 O3 3.394082 1_455
Ba3 O28 2.662798 1_555
Ba3 O1 2.856625 1_555
Ba3 O18 2.856625 1_655
Ba3 O12 2.875258 1_555
Ba3 O12 2.875258 1_655
Ba3 O13 2.946179 1_655
Ba3 O26 2.946179 1_555
Ba3 O21 3.188448 1_555
Ba3 O17 3.188448 1_555
Ba3 O10 3.228550 1_556
Ba3 O14 3.228550 1_556
Ba4 O31 2.662798 1_555
Ba4 O22 2.856625 1_455
Ba4 O25 2.856625 1_555
Ba4 O7 2.875258 1_455
Ba4 O7 2.875258 1_555
Ba4 O8 2.946179 1_555
Ba4 O15 2.946179 1_455
Ba4 O9 3.188448 1_555
Ba4 O20 3.188448 1_555
Ba4 O29 3.228550 1_554
Ba4 O0 3.228550 1_554
Ba5 O6 2.857343 1_665
Ba5 O11 2.857343 1_565
Ba5 O7 2.881684 1_555
Ba5 O31 2.884846 1_655
Ba5 O31 2.884846 1_555
Ba5 O23 2.958652 1_554
Ba5 O4 2.958652 1_554
Ba5 O28 3.048730 1_564
Ba5 O20 3.150581 1_655
Ba5 O9 3.150581 1_555
Ba5 O0 3.394082 1_654
Ba5 O29 3.394082 1_554
Ba6 O16 2.662798 1_555
Ba6 O23 2.856625 1_455
Ba6 O4 2.856625 1_555
Ba6 O2 2.875258 1_555
Ba6 O2 2.875258 1_455
Ba6 O17 2.946179 1_565
Ba6 O21 2.946179 1_465
Ba6 O13 3.188448 1_555
Ba6 O26 3.188448 1_555
Ba6 O19 3.228550 1_555
Ba6 O27 3.228550 1_555
Ba7 O23 2.857343 1_445
Ba7 O4 2.857343 1_545
Ba7 O12 2.881684 1_555
Ba7 O28 2.884846 1_555
Ba7 O28 2.884846 1_455
Ba7 O11 2.958652 1_556
Ba7 O6 2.958652 1_556
Ba7 O31 3.048730 1_546
Ba7 O21 3.150581 1_455
Ba7 O17 3.150581 1_555
Ba7 O14 3.394082 1_556
Ba7 O10 3.394082 1_456
Cu0 O10 2.001257 1_555
Cu0 O14 2.001257 1_555
Cu0 O6 2.037622 1_655
Cu0 O11 2.037622 1_555
Cu0 O28 2.138203 1_554
Cu1 O3 2.001257 1_555
Cu1 O24 2.001257 1_555
Cu1 O1 2.037622 1_555
Cu1 O18 2.037622 1_655
Cu1 O5 2.138203 1_555
Cu2 O29 2.001257 1_555
Cu2 O0 2.001257 1_555
Cu2 O23 2.037622 1_455
Cu2 O4 2.037622 1_555
Cu2 O31 2.138203 1_556
Cu3 O27 2.001257 1_555
Cu3 O19 2.001257 1_555
Cu3 O22 2.037622 1_455
Cu3 O25 2.037622 1_555
Cu3 O16 2.138203 1_555
O0 Y6 2.301701 1_456
O0 Y5 2.340255 1_555
O0 Y3 2.395172 1_455
O1 Pt3 2.075512 1_555
O1 Y4 2.323350 1_555
O2 Pt1 2.110428 1_555
O2 Y7 2.415475 1_555
O2 Y3 2.442615 1_555
O3 Y1 2.301701 1_655
O3 Y7 2.340255 1_545
O3 Y4 2.395172 1_655
O4 Pt1 2.075512 1_555
O4 Y3 2.323350 1_555
O5 Pt0 2.035249 1_555
O6 Pt2 2.075512 1_555
O6 Y0 2.323350 1_555
O7 Pt0 2.110428 1_555
O7 Y6 2.415475 1_555
O7 Y2 2.442615 1_555
O8 Pt0 2.051472 1_555
O8 Y0 2.262589 1_555
O8 Y6 2.381741 1_555
O9 Pt2 2.051472 1_565
O9 Y2 2.262589 1_555
O9 Y1 2.381741 1_565
O10 Y5 2.301701 1_654
O10 Y6 2.340255 1_555
O10 Y0 2.395172 1_655
O11 Pt2 2.075512 1_555
O11 Y0 2.323350 1_555
O12 Pt3 2.110428 1_555
O12 Y5 2.415475 1_555
O12 Y4 2.442615 1_555
O13 Pt3 2.051472 1_555
O13 Y3 2.262589 1_455
O13 Y5 2.381741 1_555
O14 Y5 2.301701 1_554
O14 Y6 2.340255 1_555
O14 Y0 2.395172 1_555
O15 Pt0 2.051472 1_555
O15 Y0 2.262589 1_655
O15 Y6 2.381741 1_555
O16 Pt3 2.035249 1_555
O17 Pt1 2.051472 1_545
O17 Y4 2.262589 1_555
O17 Y7 2.381741 1_545
O18 Pt3 2.075512 1_555
O18 Y4 2.323350 1_555
O19 Y7 2.301701 1_555
O19 Y1 2.340255 1_565
O19 Y2 2.395172 1_555
O20 Pt2 2.051472 1_565
O20 Y2 2.262589 1_455
O20 Y1 2.381741 1_565
O21 Pt1 2.051472 1_545
O21 Y4 2.262589 1_655
O21 Y7 2.381741 1_545
O22 Pt0 2.075512 1_555
O22 Y2 2.323350 1_555
O23 Pt1 2.075512 1_555
O23 Y3 2.323350 1_555
O24 Y1 2.301701 1_555
O24 Y7 2.340255 1_545
O24 Y4 2.395172 1_555
O25 Pt0 2.075512 1_555
O25 Y2 2.323350 1_555
O26 Pt3 2.051472 1_555
O26 Y3 2.262589 1_555
O26 Y5 2.381741 1_555
O27 Y7 2.301701 1_455
O27 Y1 2.340255 1_565
O27 Y2 2.395172 1_455
O28 Pt1 2.035249 1_545
O29 Y6 2.301701 1_556
O29 Y5 2.340255 1_555
O29 Y3 2.395172 1_555
O30 Pt2 2.110428 1_555
O30 Y1 2.415475 1_555
O30 Y0 2.442615 1_555
O31 Pt2 2.035249 1_565
