# generated using pymatgen
data_CsNb4Br11
_symmetry_space_group_name_H-M   'P 1'
_cell_length_a   7.36666131
_cell_length_b   7.28078479
_cell_length_c   17.06709988
_cell_angle_alpha   90.00000000
_cell_angle_beta   90.00000000
_cell_angle_gamma   90.00000000
_symmetry_Int_Tables_number   1
_chemical_formula_structural   CsNb4Br11
_chemical_formula_sum   'Cs2 Nb8 Br22'
_cell_volume   915.39519266
_cell_formula_units_Z   2
loop_
 _symmetry_equiv_pos_site_id
 _symmetry_equiv_pos_as_xyz
  1  'x, y, z'
loop_
 _atom_site_type_symbol
 _atom_site_label
 _atom_site_symmetry_multiplicity
 _atom_site_fract_x
 _atom_site_fract_y
 _atom_site_fract_z
 _atom_site_occupancy
  Cs  Cs0  1  0.50000000  0.48990624  0.25000000  1
  Cs  Cs1  1  0.50000000  0.51009376  0.75000000  1
  Nb  Nb0  1  0.00000000  0.11872331  0.63829669  1
  Nb  Nb1  1  0.20610874  -0.00000000  0.50000000  1
  Nb  Nb2  1  0.79389126  -0.00000000  -0.00000000  1
  Nb  Nb3  1  0.00000000  0.88127669  0.36170331  1
  Nb  Nb4  1  0.00000000  0.88127669  0.13829669  1
  Nb  Nb5  1  0.79389126  -0.00000000  0.50000000  1
  Nb  Nb6  1  0.00000000  0.11872331  0.86170331  1
  Nb  Nb7  1  0.20610874  -0.00000000  -0.00000000  1
  Br  Br0  1  0.50000000  0.86781097  0.91541017  1
  Br  Br1  1  0.00000000  0.78488154  0.58764692  1
  Br  Br2  1  0.74742353  0.31400269  0.92286650  1
  Br  Br3  1  0.25257647  0.31400269  0.92286650  1
  Br  Br4  1  0.00000000  0.59534013  0.25000000  1
  Br  Br5  1  0.76413495  0.01074061  0.25000000  1
  Br  Br6  1  0.25257647  0.68599731  0.07713350  1
  Br  Br7  1  0.74742353  0.68599731  0.42286650  1
  Br  Br8  1  0.00000000  0.21511846  0.41235308  1
  Br  Br9  1  0.25257647  0.31400269  0.57713350  1
  Br  Br10  1  0.74742353  0.31400269  0.57713350  1
  Br  Br11  1  0.00000000  0.40465987  0.75000000  1
  Br  Br12  1  0.76413495  0.98925939  0.75000000  1
  Br  Br13  1  0.50000000  0.86781097  0.58458983  1
  Br  Br14  1  0.23586505  0.98925939  0.75000000  1
  Br  Br15  1  0.00000000  0.21511846  0.08764692  1
  Br  Br16  1  0.74742353  0.68599731  0.07713350  1
  Br  Br17  1  0.25257647  0.68599731  0.42286650  1
  Br  Br18  1  0.00000000  0.78488154  0.91235308  1
  Br  Br19  1  0.23586505  0.01074061  0.25000000  1
  Br  Br20  1  0.50000000  0.13218903  0.08458983  1
  Br  Br21  1  0.50000000  0.13218903  0.41541017  1
loop_
_geom_bond_atom_site_label_1
_geom_bond_atom_site_label_2
_geom_bond_distance
_geom_bond_site_symmetry_2
Br0 Nb7 2.774488 1_566
Br0 Nb2 2.774488 1_566
Br0 Cs1 3.840958 1_555
Br1 Nb0 2.579773 1_565
Br1 Nb5 2.645008 1_465
Br1 Nb1 2.645008 1_565
Br2 Nb6 2.563818 1_655
Br2 Nb2 2.660235 1_556
Br2 Cs1 3.750326 1_555
Br3 Nb6 2.563818 1_555
Br3 Nb7 2.660235 1_556
Br3 Cs1 3.750326 1_555
Br4 Nb4 2.822875 1_555
Br4 Nb3 2.822875 1_555
Br4 Cs0 3.762472 1_555
Br4 Cs0 3.762472 1_455
Br5 Nb3 2.746286 1_645
Br5 Nb4 2.746286 1_645
Br5 Cs0 3.994640 1_555
Br5 Cs0 4.262159 1_545
Br6 Nb4 2.563818 1_555
Br6 Nb7 2.660235 1_565
Br6 Cs0 3.750326 1_555
Br7 Nb3 2.563818 1_655
Br7 Nb5 2.660235 1_565
Br7 Cs0 3.750326 1_555
Br8 Nb3 2.579773 1_545
Br8 Nb1 2.645008 1_555
Br8 Nb5 2.645008 1_455
Br9 Nb0 2.563818 1_555
Br9 Nb1 2.660235 1_555
Br9 Cs1 3.750326 1_555
Br10 Nb0 2.563818 1_655
Br10 Nb5 2.660235 1_555
Br10 Cs1 3.750326 1_555
Br11 Nb6 2.822875 1_555
Br11 Nb0 2.822875 1_555
Br11 Cs1 3.762472 1_455
Br11 Cs1 3.762472 1_555
Br12 Nb6 2.746286 1_665
Br12 Nb0 2.746286 1_665
Br12 Cs1 3.994640 1_555
Br12 Cs1 4.262159 1_565
Br13 Nb1 2.774488 1_565
Br13 Nb5 2.774488 1_565
Br13 Cs1 3.840958 1_555
Br14 Nb0 2.746286 1_565
Br14 Nb6 2.746286 1_565
Br14 Cs1 3.994640 1_555
Br14 Cs1 4.262159 1_565
Br15 Nb4 2.579773 1_545
Br15 Nb7 2.645008 1_555
Br15 Nb2 2.645008 1_455
Br16 Nb4 2.563818 1_655
Br16 Nb2 2.660235 1_565
Br16 Cs0 3.750326 1_555
Br17 Nb3 2.563818 1_555
Br17 Nb1 2.660235 1_565
Br17 Cs0 3.750326 1_555
Br18 Nb6 2.579773 1_565
Br18 Nb2 2.645008 1_466
Br18 Nb7 2.645008 1_566
Br19 Nb4 2.746286 1_545
Br19 Nb3 2.746286 1_545
Br19 Cs0 3.994640 1_555
Br19 Cs0 4.262159 1_545
Br20 Nb7 2.774488 1_555
Br20 Nb2 2.774488 1_555
Br20 Cs0 3.840958 1_555
Br21 Nb1 2.774488 1_555
Br21 Nb5 2.774488 1_555
Br21 Cs0 3.840958 1_555
