# generated using pymatgen
data_Zn(FeO2)2
_symmetry_space_group_name_H-M   'P 1'
_cell_length_a   6.04709981
_cell_length_b   6.04710060
_cell_length_c   30.19583204
_cell_angle_alpha   59.95653355
_cell_angle_beta   59.95652882
_cell_angle_gamma   59.99999731
_symmetry_Int_Tables_number   1
_chemical_formula_structural   Zn(FeO2)2
_chemical_formula_sum   'Zn10 Fe20 O40'
_cell_volume   780.26237855
_cell_formula_units_Z   10
loop_
 _symmetry_equiv_pos_site_id
 _symmetry_equiv_pos_as_xyz
  1  'x, y, z'
loop_
 _atom_site_type_symbol
 _atom_site_label
 _atom_site_symmetry_multiplicity
 _atom_site_fract_x
 _atom_site_fract_y
 _atom_site_fract_z
 _atom_site_occupancy
  Zn  Zn0  1  0.00138900  0.00138900  0.99916700  1
  Zn  Zn1  1  0.99959600  0.99959600  0.20024300  1
  Zn  Zn2  1  0.62617100  0.62617100  0.02429700  1
  Zn  Zn3  1  0.24933200  0.24933200  0.25040100  1
  Zn  Zn4  1  0.00154400  0.00154400  0.39907400  1
  Zn  Zn5  1  0.24974600  0.24974600  0.45015300  1
  Zn  Zn6  1  0.00171200  0.00171200  0.59897300  1
  Zn  Zn7  1  0.00053200  0.00053200  0.79968100  1
  Zn  Zn8  1  0.25089400  0.25089400  0.64946400  1
  Zn  Zn9  1  0.24858400  0.24858400  0.85085000  1
  Fe  Fe0  1  0.24688500  0.24688500  0.05186900  1
  Fe  Fe1  1  0.12294200  0.62506800  0.12538400  1
  Fe  Fe2  1  0.62506800  0.12294200  0.12538400  1
  Fe  Fe3  1  0.62506800  0.62506800  0.12538400  1
  Fe  Fe4  1  0.12466900  0.62505100  0.32504600  1
  Fe  Fe5  1  0.62505100  0.12466900  0.32504600  1
  Fe  Fe6  1  0.62429800  0.62429800  0.22542100  1
  Fe  Fe7  1  0.62505100  0.62505100  0.32504600  1
  Fe  Fe8  1  0.12479700  0.62584700  0.52470200  1
  Fe  Fe9  1  0.62584700  0.12479700  0.52470200  1
  Fe  Fe10  1  0.62465400  0.62465400  0.42520800  1
  Fe  Fe11  1  0.62584700  0.62584700  0.52470200  1
  Fe  Fe12  1  0.12478700  0.62528500  0.72492800  1
  Fe  Fe13  1  0.62528500  0.12478700  0.72492800  1
  Fe  Fe14  1  0.62551100  0.62551100  0.62469300  1
  Fe  Fe15  1  0.62528500  0.62528500  0.72492800  1
  Fe  Fe16  1  0.12000700  0.62592800  0.92562800  1
  Fe  Fe17  1  0.62592800  0.12000700  0.92562800  1
  Fe  Fe18  1  0.62393200  0.62393200  0.82564100  1
  Fe  Fe19  1  0.62592800  0.62592800  0.92562800  1
  O  O0  1  0.37340200  0.37340200  0.07959400  1
  O  O1  1  0.38625400  0.38625400  0.16824700  1
  O  O2  1  0.37340200  0.85522400  0.07959400  1
  O  O3  1  0.85522400  0.37340200  0.07959400  1
  O  O4  1  0.38495300  0.38495300  0.27722400  1
  O  O5  1  0.40646800  0.86434500  0.17296800  1
  O  O6  1  0.86434500  0.40646800  0.17296800  1
  O  O7  1  0.38571900  0.38571900  0.36856900  1
  O  O8  1  0.38495300  0.84397100  0.27722400  1
  O  O9  1  0.86369900  0.86369900  0.08178100  1
  O  O10  1  0.84397100  0.38495300  0.27722400  1
  O  O11  1  0.86434500  0.86434500  0.17296800  1
  O  O12  1  0.38547300  0.38547300  0.47699600  1
  O  O13  1  0.40753300  0.86564300  0.37223600  1
  O  O14  1  0.86564300  0.40753300  0.37223600  1
  O  O15  1  0.38637000  0.38637000  0.56817800  1
  O  O16  1  0.38547300  0.84407300  0.47699600  1
  O  O17  1  0.86500300  0.86500300  0.28099800  1
  O  O18  1  0.84407300  0.38547300  0.47699600  1
  O  O19  1  0.86564300  0.86564300  0.37223600  1
  O  O20  1  0.38677500  0.38677500  0.67641900  1
  O  O21  1  0.40789900  0.86633700  0.57188500  1
  O  O22  1  0.86633700  0.40789900  0.57188500  1
  O  O23  1  0.38530900  0.38530900  0.76881500  1
  O  O24  1  0.86637100  0.86637100  0.48017700  1
  O  O25  1  0.38677500  0.84435400  0.67641900  1
  O  O26  1  0.84435400  0.38677500  0.67641900  1
  O  O27  1  0.86633700  0.86633700  0.57188500  1
  O  O28  1  0.40683200  0.86494900  0.77265400  1
  O  O29  1  0.38590200  0.38590200  0.87744300  1
  O  O30  1  0.86494900  0.40683200  0.77265400  1
  O  O31  1  0.37822000  0.37822000  0.97306800  1
  O  O32  1  0.86591500  0.86591500  0.68045100  1
  O  O33  1  0.38590200  0.84098000  0.87744300  1
  O  O34  1  0.84098000  0.38590200  0.87744300  1
  O  O35  1  0.86494900  0.86494900  0.77265400  1
  O  O36  1  0.40274800  0.87004200  0.97143400  1
  O  O37  1  0.87004200  0.40274800  0.97143400  1
  O  O38  1  0.86507600  0.86507600  0.88095400  1
  O  O39  1  0.87004200  0.87004200  0.97143400  1
loop_
_geom_bond_atom_site_label_1
_geom_bond_atom_site_label_2
_geom_bond_distance
_geom_bond_site_symmetry_2
Fe0 O0 1.933777 1_555
Fe0 O3 1.933787 1_455
Fe0 O2 1.933787 1_545
Fe0 O31 1.941545 1_554
Fe1 O11 2.042725 1_455
Fe1 O6 2.042725 1_455
Fe1 O9 2.043418 1_455
Fe1 O1 2.046597 1_555
Fe1 O0 2.055929 1_555
Fe1 O2 2.055929 1_555
Fe2 O11 2.042725 1_545
Fe2 O5 2.042725 1_545
Fe2 O9 2.043418 1_545
Fe2 O1 2.046597 1_555
Fe2 O0 2.055929 1_555
Fe2 O3 2.055929 1_555
Fe3 O6 2.042725 1_555
Fe3 O5 2.042725 1_555
Fe3 O9 2.043436 1_555
Fe3 O1 2.046602 1_555
Fe3 O2 2.055929 1_555
Fe3 O3 2.055929 1_555
Fe4 O19 2.040270 1_455
Fe4 O14 2.040278 1_455
Fe4 O7 2.049847 1_555
Fe4 O8 2.051530 1_555
Fe4 O4 2.051546 1_555
Fe4 O17 2.054380 1_455
Fe5 O19 2.040270 1_545
Fe5 O13 2.040278 1_545
Fe5 O7 2.049847 1_555
Fe5 O10 2.051530 1_555
Fe5 O4 2.051546 1_555
Fe5 O17 2.054380 1_545
Fe6 O8 2.048728 1_555
Fe6 O10 2.048728 1_555
Fe6 O4 2.048736 1_555
Fe6 O11 2.055644 1_555
Fe6 O6 2.055648 1_555
Fe6 O5 2.055648 1_555
Fe7 O14 2.040269 1_555
Fe7 O13 2.040269 1_555
Fe7 O7 2.049843 1_555
Fe7 O8 2.051548 1_555
Fe7 O10 2.051548 1_555
Fe7 O17 2.054371 1_555
Fe8 O27 2.039501 1_455
Fe8 O22 2.039513 1_455
Fe8 O16 2.050455 1_555
Fe8 O12 2.050463 1_555
Fe8 O15 2.051227 1_555
Fe8 O24 2.058640 1_455
Fe9 O27 2.039501 1_545
Fe9 O21 2.039513 1_545
Fe9 O18 2.050455 1_555
Fe9 O12 2.050463 1_555
Fe9 O15 2.051227 1_555
Fe9 O24 2.058640 1_545
Fe10 O16 2.047355 1_555
Fe10 O18 2.047355 1_555
Fe10 O12 2.047367 1_555
Fe10 O19 2.064332 1_555
Fe10 O14 2.064344 1_555
Fe10 O13 2.064344 1_555
Fe11 O22 2.039500 1_555
Fe11 O21 2.039500 1_555
Fe11 O16 2.050464 1_555
Fe11 O18 2.050464 1_555
Fe11 O15 2.051232 1_555
Fe11 O24 2.058627 1_555
Fe12 O30 2.047640 1_455
Fe12 O35 2.047652 1_455
Fe12 O23 2.054903 1_555
Fe12 O32 2.059633 1_455
Fe12 O20 2.059722 1_555
Fe12 O25 2.059730 1_555
Fe13 O28 2.047640 1_545
Fe13 O35 2.047652 1_545
Fe13 O23 2.054903 1_555
Fe13 O32 2.059633 1_545
Fe13 O20 2.059722 1_555
Fe13 O26 2.059730 1_555
Fe14 O20 2.043617 1_555
Fe14 O25 2.043621 1_555
Fe14 O26 2.043621 1_555
Fe14 O22 2.062676 1_555
Fe14 O21 2.062676 1_555
Fe14 O27 2.062676 1_555
Fe15 O30 2.047653 1_555
Fe15 O28 2.047653 1_555
Fe15 O23 2.054881 1_555
Fe15 O32 2.059646 1_555
Fe15 O25 2.059721 1_555
Fe15 O26 2.059721 1_555
Fe16 O39 2.024030 1_455
Fe16 O37 2.024034 1_455
Fe16 O38 2.046245 1_455
Fe16 O33 2.060893 1_555
Fe16 O29 2.060909 1_555
Fe16 O31 2.118038 1_555
Fe17 O39 2.024030 1_545
Fe17 O36 2.024034 1_545
Fe17 O38 2.046245 1_545
Fe17 O34 2.060893 1_555
Fe17 O29 2.060909 1_555
Fe17 O31 2.118038 1_555
Fe18 O33 2.037970 1_555
Fe18 O34 2.037970 1_555
Fe18 O29 2.037979 1_555
Fe18 O35 2.064590 1_555
Fe18 O30 2.064594 1_555
Fe18 O28 2.064594 1_555
Fe19 O37 2.024030 1_555
Fe19 O36 2.024030 1_555
Fe19 O38 2.046223 1_555
Fe19 O33 2.060911 1_555
Fe19 O34 2.060911 1_555
Fe19 O31 2.118051 1_555
O0 Zn2 2.164713 1_555
O1 Zn3 2.024158 1_555
O2 Zn2 2.164713 1_555
O3 Zn2 2.164713 1_555
O4 Zn3 2.001001 1_555
O5 Zn1 2.008464 1_455
O6 Zn1 2.008465 1_545
O7 Zn5 2.010114 1_555
O8 Zn3 2.001020 1_565
O9 Zn0 2.035492 1_664
O10 Zn3 2.001020 1_655
O11 Zn1 2.008489 1_555
O12 Zn5 2.002541 1_555
O13 Zn4 2.004123 1_565
O14 Zn4 2.004123 1_655
O15 Zn8 2.002772 1_555
O16 Zn5 2.002561 1_565
O17 Zn1 1.989689 1_555
O18 Zn5 2.002560 1_655
O19 Zn4 2.004138 1_665
O20 Zn8 2.006821 1_555
O21 Zn6 2.005084 1_565
O22 Zn6 2.005084 1_655
O23 Zn9 2.021226 1_555
O24 Zn4 1.998263 1_665
O25 Zn8 2.006835 1_565
O26 Zn8 2.006835 1_655
O27 Zn6 2.005099 1_665
O28 Zn7 2.005644 1_565
O29 Zn9 2.012140 1_555
O30 Zn7 2.005645 1_655
O32 Zn6 2.007502 1_665
O33 Zn9 2.012155 1_565
O34 Zn9 2.012155 1_655
O35 Zn7 2.005650 1_665
O36 Zn0 1.981384 1_565
O36 Zn2 2.087599 1_556
O37 Zn0 1.981384 1_655
O37 Zn2 2.087599 1_556
O38 Zn7 2.002452 1_665
O39 Zn0 1.981384 1_665
O39 Zn2 2.087615 1_556
