# generated using pymatgen
data_CaCu
_symmetry_space_group_name_H-M   'P 1'
_cell_length_a   4.19616705
_cell_length_b   5.75726453
_cell_length_c   39.10746861
_cell_angle_alpha   90.00000000
_cell_angle_beta   90.00000000
_cell_angle_gamma   90.00000000
_symmetry_Int_Tables_number   1
_chemical_formula_structural   CaCu
_chemical_formula_sum   'Ca20 Cu20'
_cell_volume   944.77557940
_cell_formula_units_Z   20
loop_
 _symmetry_equiv_pos_site_id
 _symmetry_equiv_pos_as_xyz
  1  'x, y, z'
loop_
 _atom_site_type_symbol
 _atom_site_label
 _atom_site_symmetry_multiplicity
 _atom_site_fract_x
 _atom_site_fract_y
 _atom_site_fract_z
 _atom_site_occupancy
  Ca  Ca0  1  0.75000000  0.37709212  0.53572371  1
  Ca  Ca1  1  0.25000000  0.37259523  0.76425125  1
  Ca  Ca2  1  0.25000000  0.62290788  0.46427629  1
  Ca  Ca3  1  0.75000000  0.37334910  0.13590275  1
  Ca  Ca4  1  0.25000000  0.62665090  0.86409725  1
  Ca  Ca5  1  0.25000000  0.12740477  0.26425125  1
  Ca  Ca6  1  0.75000000  0.12665090  0.63590275  1
  Ca  Ca7  1  0.25000000  0.87709212  0.96427629  1
  Ca  Ca8  1  0.25000000  0.62331971  0.66380645  1
  Ca  Ca9  1  0.75000000  0.62740477  0.23574875  1
  Ca  Ca10  1  0.25000000  0.87334910  0.36409725  1
  Ca  Ca11  1  0.75000000  0.87259523  0.73574875  1
  Ca  Ca12  1  0.75000000  0.37805493  0.93595575  1
  Ca  Ca13  1  0.25000000  0.87668029  0.16380645  1
  Ca  Ca14  1  0.75000000  0.12194507  0.43595575  1
  Ca  Ca15  1  0.75000000  0.12331971  0.83619355  1
  Ca  Ca16  1  0.25000000  0.62194507  0.06404425  1
  Ca  Ca17  1  0.75000000  0.12290788  0.03572371  1
  Ca  Ca18  1  0.75000000  0.37668029  0.33619355  1
  Ca  Ca19  1  0.25000000  0.87805493  0.56404425  1
  Cu  Cu0  1  0.25000000  0.39994390  0.59427024  1
  Cu  Cu1  1  0.25000000  0.85047735  0.79454156  1
  Cu  Cu2  1  0.25000000  0.64952265  0.29454156  1
  Cu  Cu3  1  0.75000000  0.85093228  0.30561954  1
  Cu  Cu4  1  0.75000000  0.89840493  0.10532134  1
  Cu  Cu5  1  0.75000000  0.35047735  0.70545844  1
  Cu  Cu6  1  0.25000000  0.10159507  0.89467866  1
  Cu  Cu7  1  0.75000000  0.60005610  0.40572976  1
  Cu  Cu8  1  0.75000000  0.89994390  0.90572976  1
  Cu  Cu9  1  0.75000000  0.60159507  0.60532134  1
  Cu  Cu10  1  0.75000000  0.59973706  0.00588438  1
  Cu  Cu11  1  0.25000000  0.10005610  0.09427024  1
  Cu  Cu12  1  0.75000000  0.64906772  0.80561954  1
  Cu  Cu13  1  0.25000000  0.09973706  0.49411562  1
  Cu  Cu14  1  0.75000000  0.90026294  0.50588438  1
  Cu  Cu15  1  0.25000000  0.39840493  0.39467866  1
  Cu  Cu16  1  0.25000000  0.40026294  0.99411562  1
  Cu  Cu17  1  0.25000000  0.14906772  0.69438046  1
  Cu  Cu18  1  0.25000000  0.35093228  0.19438046  1
  Cu  Cu19  1  0.75000000  0.14952265  0.20545844  1
loop_
_geom_bond_atom_site_label_1
_geom_bond_atom_site_label_2
_geom_bond_distance
_geom_bond_site_symmetry_2
Ca0 Cu14 2.982960 1_545
Ca0 Cu9 3.013095 1_555
Ca0 Cu13 3.098303 1_655
Ca0 Cu13 3.098303 1_555
Ca0 Cu0 3.108305 1_555
Ca0 Cu0 3.108305 1_655
Ca0 Cu14 3.230185 1_555
Ca1 Cu1 2.995470 1_555
Ca1 Cu17 3.020351 1_555
Ca1 Cu12 3.090769 1_455
Ca1 Cu12 3.090769 1_555
Ca1 Cu5 3.115231 1_455
Ca1 Cu5 3.115231 1_555
Ca1 Cu1 3.230957 1_545
Ca2 Cu13 2.982960 1_565
Ca2 Cu15 3.013095 1_555
Ca2 Cu14 3.098303 1_555
Ca2 Cu14 3.098303 1_455
Ca2 Cu7 3.108305 1_555
Ca2 Cu7 3.108305 1_455
Ca2 Cu13 3.230185 1_555
Ca3 Cu4 2.984486 1_545
Ca3 Cu19 3.009944 1_555
Ca3 Cu11 3.086819 1_655
Ca3 Cu11 3.086819 1_555
Ca3 Cu18 3.106218 1_555
Ca3 Cu18 3.106218 1_655
Ca3 Cu4 3.250871 1_555
Ca4 Cu6 2.984486 1_565
Ca4 Cu1 3.009944 1_555
Ca4 Cu8 3.086819 1_555
Ca4 Cu8 3.086819 1_455
Ca4 Cu12 3.106218 1_455
Ca4 Cu12 3.106218 1_555
Ca4 Cu6 3.250871 1_555
Ca5 Cu2 2.995470 1_545
Ca5 Cu18 3.020351 1_555
Ca5 Cu3 3.090769 1_545
Ca5 Cu3 3.090769 1_445
Ca5 Cu19 3.115231 1_455
Ca5 Cu19 3.115231 1_555
Ca5 Cu2 3.230957 1_555
Ca6 Cu9 2.984486 1_555
Ca6 Cu5 3.009944 1_555
Ca6 Cu0 3.086819 1_555
Ca6 Cu0 3.086819 1_655
Ca6 Cu17 3.106218 1_555
Ca6 Cu17 3.106218 1_655
Ca6 Cu9 3.250871 1_545
Ca7 Cu16 2.982960 1_555
Ca7 Cu6 3.013095 1_565
Ca7 Cu10 3.098303 1_456
Ca7 Cu10 3.098303 1_556
Ca7 Cu8 3.108305 1_555
Ca7 Cu8 3.108305 1_455
Ca7 Cu16 3.230185 1_565
Ca8 Cu17 2.980719 1_555
Ca8 Cu0 3.008145 1_555
Ca8 Cu5 3.085899 1_555
Ca8 Cu5 3.085899 1_455
Ca8 Cu9 3.106268 1_555
Ca8 Cu9 3.106268 1_455
Ca8 Cu17 3.254470 1_565
Ca9 Cu19 2.995470 1_555
Ca9 Cu3 3.020351 1_555
Ca9 Cu18 3.090769 1_655
Ca9 Cu18 3.090769 1_555
Ca9 Cu2 3.115231 1_655
Ca9 Cu2 3.115231 1_555
Ca9 Cu19 3.230957 1_565
Ca10 Cu15 2.984486 1_555
Ca10 Cu2 3.009944 1_555
Ca10 Cu7 3.086819 1_455
Ca10 Cu7 3.086819 1_555
Ca10 Cu3 3.106218 1_555
Ca10 Cu3 3.106218 1_455
Ca10 Cu15 3.250871 1_565
Ca11 Cu5 2.995470 1_565
Ca11 Cu12 3.020351 1_555
Ca11 Cu17 3.090769 1_565
Ca11 Cu17 3.090769 1_665
Ca11 Cu1 3.115231 1_655
Ca11 Cu1 3.115231 1_555
Ca11 Cu5 3.230957 1_555
Ca12 Cu8 2.995687 1_545
Ca12 Cu10 3.017889 1_556
Ca12 Cu6 3.088866 1_555
Ca12 Cu6 3.088866 1_655
Ca12 Cu16 3.097028 1_655
Ca12 Cu16 3.097028 1_555
Ca12 Cu8 3.228809 1_555
Ca13 Cu18 2.980719 1_565
Ca13 Cu11 3.008145 1_565
Ca13 Cu19 3.085899 1_565
Ca13 Cu19 3.085899 1_465
Ca13 Cu4 3.106268 1_555
Ca13 Cu4 3.106268 1_455
Ca13 Cu18 3.254470 1_555
Ca14 Cu7 2.995687 1_555
Ca14 Cu14 3.017889 1_545
Ca14 Cu15 3.088866 1_655
Ca14 Cu15 3.088866 1_555
Ca14 Cu13 3.097028 1_555
Ca14 Cu13 3.097028 1_655
Ca14 Cu7 3.228809 1_545
Ca15 Cu12 2.980719 1_545
Ca15 Cu8 3.008145 1_545
Ca15 Cu1 3.085899 1_545
Ca15 Cu1 3.085899 1_645
Ca15 Cu6 3.106268 1_655
Ca15 Cu6 3.106268 1_555
Ca15 Cu12 3.254470 1_555
Ca16 Cu11 2.995687 1_565
Ca16 Cu16 3.017889 1_554
Ca16 Cu4 3.088866 1_455
Ca16 Cu4 3.088866 1_555
Ca16 Cu10 3.097028 1_455
Ca16 Cu10 3.097028 1_555
Ca16 Cu11 3.228809 1_555
Ca17 Cu10 2.982960 1_555
Ca17 Cu4 3.013095 1_545
Ca17 Cu16 3.098303 1_654
Ca17 Cu16 3.098303 1_554
Ca17 Cu11 3.108305 1_655
Ca17 Cu11 3.108305 1_555
Ca17 Cu10 3.230185 1_545
Ca18 Cu3 2.980719 1_555
Ca18 Cu7 3.008145 1_555
Ca18 Cu2 3.085899 1_555
Ca18 Cu2 3.085899 1_655
Ca18 Cu15 3.106268 1_555
Ca18 Cu15 3.106268 1_655
Ca18 Cu3 3.254470 1_545
Ca19 Cu0 2.995687 1_555
Ca19 Cu13 3.017889 1_565
Ca19 Cu9 3.088866 1_455
Ca19 Cu9 3.088866 1_555
Ca19 Cu14 3.097028 1_455
Ca19 Cu14 3.097028 1_555
Ca19 Cu0 3.228809 1_565
Cu0 Cu9 2.436506 1_455
Cu0 Cu9 2.436506 1_555
Cu1 Cu12 2.436030 1_455
Cu1 Cu12 2.436030 1_555
Cu2 Cu3 2.436030 1_555
Cu2 Cu3 2.436030 1_455
Cu6 Cu8 2.436506 1_545
Cu6 Cu8 2.436506 1_445
Cu10 Cu16 2.435706 1_654
Cu10 Cu16 2.435706 1_554
Cu11 Cu4 2.436506 1_545
Cu11 Cu4 2.436506 1_445
Cu13 Cu14 2.435706 1_545
Cu13 Cu14 2.435706 1_445
Cu15 Cu7 2.436506 1_555
Cu15 Cu7 2.436506 1_455
Cu17 Cu5 2.436030 1_555
Cu17 Cu5 2.436030 1_455
Cu18 Cu19 2.436030 1_455
Cu18 Cu19 2.436030 1_555
