# generated using pymatgen
data_LiS2N(O2F)2
_symmetry_space_group_name_H-M   'P 1'
_cell_length_a   8.73812728
_cell_length_b   8.73812728
_cell_length_c   12.96651500
_cell_angle_alpha   90.00000000
_cell_angle_beta   90.00000000
_cell_angle_gamma   119.99999456
_symmetry_Int_Tables_number   1
_chemical_formula_structural   LiS2N(O2F)2
_chemical_formula_sum   'Li6 S12 N6 O24 F12'
_cell_volume   857.41416727
_cell_formula_units_Z   6
loop_
 _symmetry_equiv_pos_site_id
 _symmetry_equiv_pos_as_xyz
  1  'x, y, z'
loop_
 _atom_site_type_symbol
 _atom_site_label
 _atom_site_symmetry_multiplicity
 _atom_site_fract_x
 _atom_site_fract_y
 _atom_site_fract_z
 _atom_site_occupancy
  Li  Li0  1  0.66666700  0.33333300  0.01819500  1
  Li  Li1  1  0.33333300  0.66666700  0.98180400  1
  Li  Li2  1  0.66666700  0.33333300  0.48180500  1
  Li  Li3  1  0.33333300  0.66666700  0.51819600  1
  Li  Li4  1  0.33333300  0.66666700  0.75000000  1
  Li  Li5  1  0.66666700  0.33333300  0.25000000  1
  S  S0  1  0.97317300  0.63693500  0.85701800  1
  S  S1  1  0.66376200  0.02682700  0.64298200  1
  S  S2  1  0.36306500  0.33623800  0.85701800  1
  S  S3  1  0.33623800  0.97317300  0.14298200  1
  S  S4  1  0.97317300  0.63693500  0.64298200  1
  S  S5  1  0.02682700  0.36306500  0.35701800  1
  S  S6  1  0.63693500  0.66376200  0.35701800  1
  S  S7  1  0.33623800  0.97317300  0.35701800  1
  S  S8  1  0.63693500  0.66376200  0.14298200  1
  S  S9  1  0.02682700  0.36306500  0.14298200  1
  S  S10  1  0.36306500  0.33623800  0.64298200  1
  S  S11  1  0.66376200  0.02682700  0.85701800  1
  N  N0  1  0.27791700  0.87612000  0.25000000  1
  N  N1  1  0.59820200  0.72208300  0.25000000  1
  N  N2  1  0.72208300  0.12388000  0.75000000  1
  N  N3  1  0.40179800  0.27791700  0.75000000  1
  N  N4  1  0.12388000  0.40179800  0.25000000  1
  N  N5  1  0.87612000  0.59820200  0.75000000  1
  O  O0  1  0.15612500  0.44292000  0.06305800  1
  O  O1  1  0.15612500  0.44292000  0.43694200  1
  O  O2  1  0.87286000  0.38487800  0.36044000  1
  O  O3  1  0.71320500  0.15612500  0.56305800  1
  O  O4  1  0.38487800  0.51201800  0.63956000  1
  O  O5  1  0.51201800  0.12714000  0.36044000  1
  O  O6  1  0.84387500  0.55708000  0.56305800  1
  O  O7  1  0.84387500  0.55708000  0.93694200  1
  O  O8  1  0.55708000  0.71320500  0.06305800  1
  O  O9  1  0.61512200  0.48798200  0.13956000  1
  O  O10  1  0.44292000  0.28679500  0.93694200  1
  O  O11  1  0.55708000  0.71320500  0.43694200  1
  O  O12  1  0.12714000  0.61512200  0.86044000  1
  O  O13  1  0.12714000  0.61512200  0.63956000  1
  O  O14  1  0.51201800  0.12714000  0.13956000  1
  O  O15  1  0.48798200  0.87286000  0.63956000  1
  O  O16  1  0.61512200  0.48798200  0.36044000  1
  O  O17  1  0.71320500  0.15612500  0.93694200  1
  O  O18  1  0.48798200  0.87286000  0.86044000  1
  O  O19  1  0.28679500  0.84387500  0.06305800  1
  O  O20  1  0.87286000  0.38487800  0.13956000  1
  O  O21  1  0.44292000  0.28679500  0.56305800  1
  O  O22  1  0.28679500  0.84387500  0.43694200  1
  O  O23  1  0.38487800  0.51201800  0.86044000  1
  F  F0  1  0.20908600  0.05347400  0.37245200  1
  F  F1  1  0.79091400  0.94652600  0.62754800  1
  F  F2  1  0.05347400  0.84438800  0.62754800  1
  F  F3  1  0.05347400  0.84438800  0.87245200  1
  F  F4  1  0.94652600  0.15561200  0.12754800  1
  F  F5  1  0.15561200  0.20908600  0.62754800  1
  F  F6  1  0.94652600  0.15561200  0.37245200  1
  F  F7  1  0.79091400  0.94652600  0.87245200  1
  F  F8  1  0.15561200  0.20908600  0.87245200  1
  F  F9  1  0.20908600  0.05347400  0.12754800  1
  F  F10  1  0.84438800  0.79091400  0.12754800  1
  F  F11  1  0.84438800  0.79091400  0.37245200  1
loop_
_geom_bond_atom_site_label_1
_geom_bond_atom_site_label_2
_geom_bond_distance
_geom_bond_site_symmetry_2
Li0 O17 2.074322 1_554
Li0 O7 2.074327 1_554
Li0 O10 2.074330 1_554
Li0 O20 2.261436 1_555
Li0 O14 2.261438 1_555
Li0 O9 2.261442 1_555
Li1 O19 2.074329 1_556
Li1 O0 2.074334 1_556
Li1 O8 2.074336 1_556
Li1 O12 2.261427 1_555
Li1 O18 2.261429 1_555
Li1 O23 2.261433 1_555
Li2 O3 2.074322 1_555
Li2 O6 2.074327 1_555
Li2 O21 2.074330 1_555
Li2 O2 2.261436 1_555
Li2 O5 2.261438 1_555
Li2 O16 2.261442 1_555
Li3 O22 2.074329 1_555
Li3 O1 2.074334 1_555
Li3 O11 2.074336 1_555
Li3 O13 2.261427 1_555
Li3 O15 2.261429 1_555
Li3 O4 2.261433 1_555
Li4 O13 2.165250 1_555
Li4 O12 2.165250 1_555
Li4 O15 2.165252 1_555
Li4 O18 2.165252 1_555
Li4 O4 2.165256 1_555
Li4 O23 2.165256 1_555
Li5 O20 2.165250 1_555
Li5 O2 2.165250 1_555
Li5 O14 2.165252 1_555
Li5 O5 2.165252 1_555
Li5 O16 2.165256 1_555
Li5 O9 2.165256 1_555
N0 S3 1.572357 1_555
N0 S7 1.572357 1_555
N1 S8 1.572360 1_555
N1 S6 1.572360 1_555
N2 S11 1.572357 1_555
N2 S1 1.572357 1_555
N3 S2 1.572360 1_555
N3 S10 1.572360 1_555
N4 S5 1.572356 1_555
N4 S9 1.572356 1_555
N5 S0 1.572356 1_555
N5 S4 1.572356 1_555
O0 S9 1.431440 1_555
O1 S5 1.431440 1_555
O2 S5 1.450790 1_655
O3 S1 1.431440 1_555
O4 S10 1.450790 1_555
O5 S7 1.450790 1_545
O6 S4 1.431440 1_555
O7 S0 1.431440 1_555
O8 S8 1.431440 1_555
O9 S8 1.450790 1_555
O10 S2 1.431440 1_555
O11 S6 1.431440 1_555
O12 S0 1.450790 1_455
O13 S4 1.450790 1_455
O14 S3 1.450790 1_545
O15 S1 1.450790 1_565
O16 S6 1.450790 1_555
O17 S11 1.431440 1_555
O18 S11 1.450790 1_565
O19 S3 1.431440 1_555
O20 S9 1.450790 1_655
O21 S10 1.431440 1_555
O22 S7 1.431440 1_555
O23 S2 1.450790 1_555
F0 S7 1.595775 1_545
F1 S1 1.595775 1_565
F2 S4 1.595775 1_455
F3 S0 1.595775 1_455
F4 S9 1.595775 1_655
F5 S10 1.595775 1_555
F6 S5 1.595775 1_655
F7 S11 1.595775 1_565
F8 S2 1.595775 1_555
F9 S3 1.595775 1_545
F10 S8 1.595775 1_555
F11 S6 1.595775 1_555
