# generated using pymatgen
data_K2Ce(Si2O5)3
_symmetry_space_group_name_H-M   'P 1'
_cell_length_a   9.96865229
_cell_length_b   9.96865229
_cell_length_c   12.01320511
_cell_angle_alpha   52.99235242
_cell_angle_beta   52.99235242
_cell_angle_gamma   52.62659996
_symmetry_Int_Tables_number   1
_chemical_formula_structural   K2Ce(Si2O5)3
_chemical_formula_sum   'K4 Ce2 Si12 O30'
_cell_volume   702.99775652
_cell_formula_units_Z   2
loop_
 _symmetry_equiv_pos_site_id
 _symmetry_equiv_pos_as_xyz
  1  'x, y, z'
loop_
 _atom_site_type_symbol
 _atom_site_label
 _atom_site_symmetry_multiplicity
 _atom_site_fract_x
 _atom_site_fract_y
 _atom_site_fract_z
 _atom_site_occupancy
  K  K0  1  0.90280800  0.25395500  0.49873300  1
  K  K1  1  0.74604500  0.09719200  0.00126700  1
  K  K2  1  0.09719200  0.74604500  0.50126700  1
  K  K3  1  0.25395500  0.90280800  0.99873300  1
  Ce  Ce0  1  0.16716900  0.83283100  0.75000000  1
  Ce  Ce1  1  0.83283100  0.16716900  0.25000000  1
  Si  Si0  1  0.25349900  0.19661200  0.12288600  1
  Si  Si1  1  0.80338800  0.74650100  0.37711400  1
  Si  Si2  1  0.56353000  0.62753800  0.22579800  1
  Si  Si3  1  0.43647000  0.37246200  0.77420200  1
  Si  Si4  1  0.42662300  0.90128600  0.35554400  1
  Si  Si5  1  0.19661200  0.25349900  0.62288600  1
  Si  Si6  1  0.62753800  0.56353000  0.72579800  1
  Si  Si7  1  0.57337700  0.09871400  0.64445600  1
  Si  Si8  1  0.37246200  0.43647000  0.27420200  1
  Si  Si9  1  0.90128600  0.42662300  0.85554400  1
  Si  Si10  1  0.74650100  0.80338800  0.87711400  1
  Si  Si11  1  0.09871400  0.57337700  0.14445600  1
  O  O0  1  0.62746300  0.77485700  0.05544600  1
  O  O1  1  0.27801200  0.53132900  0.15654000  1
  O  O2  1  0.72198800  0.46867100  0.84346000  1
  O  O3  1  0.60697600  0.39302400  0.75000000  1
  O  O4  1  0.46867100  0.72198800  0.34346000  1
  O  O5  1  0.59343300  0.92175900  0.80141100  1
  O  O6  1  0.39302400  0.60697600  0.25000000  1
  O  O7  1  0.60552400  0.86665400  0.36061500  1
  O  O8  1  0.27251800  0.56700400  0.74338200  1
  O  O9  1  0.39447600  0.13334600  0.63938500  1
  O  O10  1  0.43299600  0.72748200  0.75661800  1
  O  O11  1  0.40656700  0.07824100  0.19858900  1
  O  O12  1  0.07824100  0.40656700  0.69858900  1
  O  O13  1  0.87652800  0.90815300  0.79503200  1
  O  O14  1  0.22514300  0.37253700  0.44455400  1
  O  O15  1  0.77485700  0.62746300  0.55544600  1
  O  O16  1  0.53132900  0.27801200  0.65654000  1
  O  O17  1  0.86665400  0.60552400  0.86061500  1
  O  O18  1  0.24242100  0.93797500  0.49852500  1
  O  O19  1  0.56700400  0.27251800  0.24338200  1
  O  O20  1  0.12347200  0.09184700  0.20496800  1
  O  O21  1  0.06202500  0.75757900  0.00147500  1
  O  O22  1  0.09184700  0.12347200  0.70496800  1
  O  O23  1  0.90815300  0.87652800  0.29503200  1
  O  O24  1  0.93797500  0.24242100  0.99852500  1
  O  O25  1  0.92175900  0.59343300  0.30141100  1
  O  O26  1  0.72748200  0.43299600  0.25661800  1
  O  O27  1  0.75757900  0.06202500  0.50147500  1
  O  O28  1  0.13334600  0.39447600  0.13938500  1
  O  O29  1  0.37253700  0.22514300  0.94455400  1
loop_
_geom_bond_atom_site_label_1
_geom_bond_atom_site_label_2
_geom_bond_distance
_geom_bond_site_symmetry_2
K0 O25 2.772547 1_555
K0 O16 2.895265 1_555
K0 O18 2.904564 1_645
K0 O27 2.997855 1_555
K0 O3 3.014682 1_555
K0 O13 3.134333 1_545
K0 O22 3.185367 1_655
K0 O28 3.250339 1_655
K0 O26 3.283798 1_555
K1 O11 2.772547 1_555
K1 O2 2.895265 1_554
K1 O21 2.904564 1_645
K1 O24 2.997855 1_554
K1 O3 3.014682 1_554
K1 O22 3.134333 1_654
K1 O13 3.185367 1_544
K1 O7 3.250339 1_545
K1 O19 3.283798 1_555
K2 O12 2.772547 1_555
K2 O4 2.895265 1_555
K2 O27 2.904564 1_465
K2 O18 2.997855 1_555
K2 O6 3.014682 1_555
K2 O20 3.134333 1_565
K2 O23 3.185367 1_455
K2 O17 3.250339 1_455
K2 O8 3.283798 1_555
K3 O5 2.772547 1_555
K3 O1 2.895265 1_556
K3 O24 2.904564 1_465
K3 O21 2.997855 1_556
K3 O6 3.014682 1_556
K3 O23 3.134333 1_456
K3 O20 3.185367 1_566
K3 O9 3.250339 1_565
K3 O10 3.283798 1_555
Ce0 O10 2.214944 1_555
Ce0 O8 2.214944 1_555
Ce0 O21 2.280861 1_556
Ce0 O18 2.280861 1_555
Ce0 O13 2.282952 1_455
Ce0 O22 2.282952 1_565
Ce1 O26 2.214944 1_555
Ce1 O19 2.214944 1_555
Ce1 O24 2.280861 1_554
Ce1 O27 2.280861 1_555
Ce1 O23 2.282952 1_545
Ce1 O20 2.282952 1_655
O0 Si10 1.641475 1_554
O0 Si2 1.642878 1_555
O1 Si8 1.640380 1_555
O1 Si11 1.649545 1_555
O2 Si6 1.640380 1_555
O2 Si9 1.649545 1_555
O3 Si3 1.664896 1_555
O3 Si6 1.664896 1_555
O4 Si2 1.640380 1_555
O4 Si4 1.649545 1_555
O5 Si7 1.651814 1_565
O5 Si10 1.655471 1_555
O6 Si8 1.664896 1_555
O6 Si2 1.664896 1_555
O7 Si4 1.631390 1_555
O7 Si1 1.637422 1_555
O8 Si3 1.607920 1_555
O9 Si7 1.631390 1_555
O9 Si5 1.637422 1_555
O10 Si6 1.607920 1_555
O11 Si4 1.651814 1_545
O11 Si0 1.655471 1_555
O12 Si9 1.651814 1_455
O12 Si5 1.655471 1_555
O13 Si10 1.614977 1_555
O14 Si5 1.641475 1_555
O14 Si8 1.642878 1_555
O15 Si1 1.641475 1_555
O15 Si6 1.642878 1_555
O16 Si3 1.640380 1_555
O16 Si7 1.649545 1_555
O17 Si9 1.631390 1_555
O17 Si10 1.637422 1_555
O18 Si4 1.612421 1_555
O19 Si8 1.607920 1_555
O20 Si0 1.614977 1_555
O21 Si11 1.612421 1_555
O22 Si5 1.614977 1_555
O23 Si1 1.614977 1_555
O24 Si9 1.612421 1_555
O25 Si11 1.651814 1_655
O25 Si1 1.655471 1_555
O26 Si2 1.607920 1_555
O27 Si7 1.612421 1_555
O28 Si11 1.631390 1_555
O28 Si0 1.637422 1_555
O29 Si0 1.641475 1_556
O29 Si3 1.642878 1_555
