# generated using pymatgen
data_Ba7B4Se13
_symmetry_space_group_name_H-M   'P 1'
_cell_length_a   13.74623651
_cell_length_b   13.74623651
_cell_length_c   10.63188430
_cell_angle_alpha   89.98415255
_cell_angle_beta   89.98415255
_cell_angle_gamma   134.48530333
_symmetry_Int_Tables_number   1
_chemical_formula_structural   Ba7B4Se13
_chemical_formula_sum   'Ba14 B8 Se26'
_cell_volume   1433.27409453
_cell_formula_units_Z   2
loop_
 _symmetry_equiv_pos_site_id
 _symmetry_equiv_pos_as_xyz
  1  'x, y, z'
loop_
 _atom_site_type_symbol
 _atom_site_label
 _atom_site_symmetry_multiplicity
 _atom_site_fract_x
 _atom_site_fract_y
 _atom_site_fract_z
 _atom_site_occupancy
  Ba  Ba0  1  0.06505354  0.72148125  0.52844764  1
  Ba  Ba1  1  0.27851875  0.93494646  0.97155236  1
  Ba  Ba2  1  0.45228199  0.10461493  0.35657382  1
  Ba  Ba3  1  0.33263083  0.66736917  0.25000000  1
  Ba  Ba4  1  0.66736917  0.33263083  0.75000000  1
  Ba  Ba5  1  0.54771801  0.89538507  0.64342618  1
  Ba  Ba6  1  0.99490542  0.00509458  0.75000000  1
  Ba  Ba7  1  0.93494646  0.27851875  0.47155236  1
  Ba  Ba8  1  0.89538507  0.54771801  0.14342618  1
  Ba  Ba9  1  0.00509458  0.99490542  0.25000000  1
  Ba  Ba10  1  0.10461493  0.45228199  0.85657382  1
  Ba  Ba11  1  0.50342227  0.49657773  0.25000000  1
  Ba  Ba12  1  0.49657773  0.50342227  0.75000000  1
  Ba  Ba13  1  0.72148125  0.06505354  0.02844764  1
  B  B0  1  0.51696421  0.28394779  0.06859662  1
  B  B1  1  0.06679316  0.29147035  0.14938277  1
  B  B2  1  0.48303579  0.71605221  0.93140338  1
  B  B3  1  0.93320684  0.70852965  0.85061723  1
  B  B4  1  0.28394779  0.51696421  0.56859662  1
  B  B5  1  0.29147035  0.06679316  0.64938277  1
  B  B6  1  0.71605221  0.48303579  0.43140338  1
  B  B7  1  0.70852965  0.93320684  0.35061723  1
  Se  Se0  1  0.37690942  0.99516239  0.65303384  1
  Se  Se1  1  0.20567490  0.79432510  0.25000000  1
  Se  Se2  1  0.34116210  0.18276207  0.15017005  1
  Se  Se3  1  0.59760488  0.20798128  0.06285905  1
  Se  Se4  1  0.20798128  0.59760488  0.56285905  1
  Se  Se5  1  0.65883790  0.81723793  0.84982995  1
  Se  Se6  1  0.81723793  0.65883790  0.34982995  1
  Se  Se7  1  0.32124405  0.16791652  0.79774379  1
  Se  Se8  1  0.79432510  0.20567490  0.75000000  1
  Se  Se9  1  0.82751700  0.97805961  0.48925349  1
  Se  Se10  1  0.46670201  0.62894270  0.49976464  1
  Se  Se11  1  0.97805961  0.82751700  0.98925349  1
  Se  Se12  1  0.02194039  0.17248300  0.01074651  1
  Se  Se13  1  0.62894270  0.46670201  0.99976464  1
  Se  Se14  1  0.83208348  0.67875595  0.70225621  1
  Se  Se15  1  0.67875595  0.83208348  0.20225621  1
  Se  Se16  1  0.00483761  0.62309058  0.84696616  1
  Se  Se17  1  0.40239512  0.79201872  0.93714095  1
  Se  Se18  1  0.53329799  0.37105730  0.50023536  1
  Se  Se19  1  0.99516239  0.37690942  0.15303384  1
  Se  Se20  1  0.16791652  0.32124405  0.29774379  1
  Se  Se21  1  0.62309058  0.00483761  0.34696616  1
  Se  Se22  1  0.37105730  0.53329799  0.00023536  1
  Se  Se23  1  0.17248300  0.02194039  0.51074651  1
  Se  Se24  1  0.18276207  0.34116210  0.65017005  1
  Se  Se25  1  0.79201872  0.40239512  0.43714095  1
loop_
_geom_bond_atom_site_label_1
_geom_bond_atom_site_label_2
_geom_bond_distance
_geom_bond_site_symmetry_2
Ba0 Se23 3.275091 1_565
Ba0 Se1 3.284186 1_555
Ba0 Se25 3.346792 1_455
Ba0 Se14 3.372786 1_455
Ba0 Se4 3.403285 1_555
Ba0 Se0 3.418897 1_555
Ba0 Se6 3.441772 1_455
Ba0 Se16 3.522702 1_555
Ba1 Se11 3.275091 1_455
Ba1 Se1 3.284186 1_556
Ba1 Se3 3.346792 1_566
Ba1 Se7 3.372786 1_565
Ba1 Se17 3.403285 1_555
Ba1 Se16 3.418897 1_555
Ba1 Se2 3.441772 1_566
Ba1 Se0 3.522702 1_555
Ba2 Se2 3.256220 1_555
Ba2 Se1 3.272528 1_545
Ba2 Se0 3.329075 1_545
Ba2 Se18 3.357877 1_555
Ba2 Se3 3.431791 1_555
Ba2 Se21 3.452214 1_555
Ba2 Se25 3.537313 1_555
Ba2 Se23 3.555438 1_555
Ba3 Se1 3.218615 1_555
Ba3 Se22 3.477545 1_555
Ba3 Se10 3.477545 1_555
Ba3 Se19 3.545642 1_455
Ba3 Se21 3.545642 1_565
Ba3 Se4 3.551335 1_555
Ba3 Se17 3.551335 1_554
Ba3 Se20 3.594773 1_555
Ba3 Se15 3.594773 1_555
Ba4 Se8 3.218615 1_555
Ba4 Se18 3.477545 1_555
Ba4 Se13 3.477545 1_555
Ba4 Se0 3.545642 1_545
Ba4 Se16 3.545642 1_655
Ba4 Se3 3.551335 1_556
Ba4 Se25 3.551335 1_555
Ba4 Se7 3.594773 1_555
Ba4 Se14 3.594773 1_555
Ba5 Se5 3.256220 1_555
Ba5 Se8 3.272528 1_565
Ba5 Se21 3.329075 1_565
Ba5 Se10 3.357877 1_555
Ba5 Se17 3.431791 1_555
Ba5 Se0 3.452214 1_555
Ba5 Se4 3.537313 1_555
Ba5 Se9 3.555438 1_555
Ba6 Se7 3.364745 1_655
Ba6 Se14 3.364745 1_545
Ba6 Se23 3.418591 1_655
Ba6 Se11 3.418591 1_545
Ba6 Se12 3.453039 1_656
Ba6 Se9 3.453039 1_545
Ba6 Se5 3.523267 1_545
Ba6 Se24 3.523267 1_655
Ba7 Se9 3.275091 1_545
Ba7 Se8 3.284186 1_555
Ba7 Se4 3.346792 1_655
Ba7 Se20 3.372786 1_655
Ba7 Se25 3.403285 1_555
Ba7 Se21 3.418897 1_555
Ba7 Se24 3.441772 1_655
Ba7 Se19 3.522702 1_555
Ba8 Se6 3.256220 1_555
Ba8 Se1 3.272528 1_655
Ba8 Se16 3.329075 1_654
Ba8 Se13 3.357877 1_554
Ba8 Se25 3.431791 1_555
Ba8 Se19 3.452214 1_555
Ba8 Se3 3.537313 1_555
Ba8 Se11 3.555438 1_554
Ba9 Se20 3.364745 1_565
Ba9 Se15 3.364745 1_455
Ba9 Se12 3.418591 1_565
Ba9 Se9 3.418591 1_455
Ba9 Se11 3.453039 1_454
Ba9 Se23 3.453039 1_565
Ba9 Se2 3.523267 1_565
Ba9 Se6 3.523267 1_455
Ba10 Se24 3.256220 1_555
Ba10 Se8 3.272528 1_455
Ba10 Se19 3.329075 1_456
Ba10 Se22 3.357877 1_556
Ba10 Se4 3.431791 1_555
Ba10 Se16 3.452214 1_555
Ba10 Se17 3.537313 1_555
Ba10 Se12 3.555438 1_556
Ba11 Se13 3.348885 1_554
Ba11 Se18 3.348885 1_555
Ba11 Se2 3.351068 1_555
Ba11 Se6 3.351068 1_555
Ba11 Se20 3.428800 1_555
Ba11 Se15 3.428800 1_555
Ba11 Se10 3.450511 1_555
Ba11 Se22 3.450511 1_555
Ba12 Se10 3.348885 1_555
Ba12 Se22 3.348885 1_556
Ba12 Se24 3.351068 1_555
Ba12 Se5 3.351068 1_555
Ba12 Se7 3.428800 1_555
Ba12 Se14 3.428800 1_555
Ba12 Se13 3.450511 1_555
Ba12 Se18 3.450511 1_555
Ba13 Se12 3.275091 1_655
Ba13 Se8 3.284186 1_554
Ba13 Se17 3.346792 1_544
Ba13 Se15 3.372786 1_545
Ba13 Se3 3.403285 1_555
Ba13 Se19 3.418897 1_555
Ba13 Se5 3.441772 1_544
Ba13 Se21 3.522702 1_555
B0 Se13 1.948077 1_554
B0 Se2 1.953026 1_555
B0 Se3 1.986262 1_555
B1 Se20 1.947331 1_555
B1 Se12 1.953593 1_555
B1 Se19 1.992767 1_455
B2 Se22 1.948077 1_556
B2 Se5 1.953026 1_555
B2 Se17 1.986262 1_555
B3 Se14 1.947331 1_555
B3 Se11 1.953593 1_555
B3 Se16 1.992767 1_655
B4 Se10 1.948077 1_555
B4 Se24 1.953026 1_555
B4 Se4 1.986262 1_555
B5 Se7 1.947331 1_555
B5 Se23 1.953593 1_555
B5 Se0 1.992767 1_545
B6 Se18 1.948077 1_555
B6 Se6 1.953026 1_555
B6 Se25 1.986262 1_555
B7 Se15 1.947331 1_555
B7 Se9 1.953593 1_555
B7 Se21 1.992767 1_565
