# generated using pymatgen
data_Sr11(OsO6)4
_symmetry_space_group_name_H-M   'P 1'
_cell_length_a   11.66722238
_cell_length_b   11.66722238
_cell_length_c   11.66722238
_cell_angle_alpha   119.25659169
_cell_angle_beta   119.25659169
_cell_angle_gamma   91.29251723
_symmetry_Int_Tables_number   1
_chemical_formula_structural   Sr11(OsO6)4
_chemical_formula_sum   'Sr22 Os8 O48'
_cell_volume   1135.32611746
_cell_formula_units_Z   2
loop_
 _symmetry_equiv_pos_site_id
 _symmetry_equiv_pos_as_xyz
  1  'x, y, z'
loop_
 _atom_site_type_symbol
 _atom_site_label
 _atom_site_symmetry_multiplicity
 _atom_site_fract_x
 _atom_site_fract_y
 _atom_site_fract_z
 _atom_site_occupancy
  Sr  Sr0  1  0.12031900  0.93212900  0.23482200  1
  Sr  Sr1  1  0.03310400  0.97463200  0.53205000  1
  Sr  Sr2  1  0.48729000  0.98729000  0.50000000  1
  Sr  Sr3  1  0.73729000  0.73729000  0.00000000  1
  Sr  Sr4  1  0.11450300  0.87968100  0.81181100  1
  Sr  Sr5  1  0.71689600  0.27536800  0.96795000  1
  Sr  Sr6  1  0.01271000  0.51271000  0.50000000  1
  Sr  Sr7  1  0.63549700  0.37031900  0.68818900  1
  Sr  Sr8  1  0.06787100  0.30269200  0.18818900  1
  Sr  Sr9  1  0.69730800  0.88549700  0.76517800  1
  Sr  Sr10  1  0.68212900  0.94730800  0.31181100  1
  Sr  Sr11  1  0.50000000  0.50000000  0.00000000  1
  Sr  Sr12  1  0.05269200  0.36450300  0.73482200  1
  Sr  Sr13  1  0.25000000  0.75000000  0.50000000  1
  Sr  Sr14  1  0.02536800  0.55741800  0.05847300  1
  Sr  Sr15  1  0.62968100  0.31787100  0.26517800  1
  Sr  Sr16  1  0.30741800  0.74894600  0.03205000  1
  Sr  Sr17  1  0.49894600  0.96689600  0.94152700  1
  Sr  Sr18  1  0.72463200  0.69258200  0.44152700  1
  Sr  Sr19  1  0.44258200  0.50105400  0.46795000  1
  Sr  Sr20  1  0.26271000  0.26271000  0.00000000  1
  Sr  Sr21  1  0.25105400  0.28310400  0.55847300  1
  Os  Os0  1  0.87500000  0.12500000  0.75000000  1
  Os  Os1  1  0.37500000  0.62500000  0.25000000  1
  Os  Os2  1  0.37500000  0.12500000  0.75000000  1
  Os  Os3  1  0.87500000  0.12500000  0.25000000  1
  Os  Os4  1  0.37500000  0.62500000  0.75000000  1
  Os  Os5  1  0.37500000  0.12500000  0.25000000  1
  Os  Os6  1  0.87500000  0.62500000  0.75000000  1
  Os  Os7  1  0.87500000  0.62500000  0.25000000  1
  O  O0  1  0.71100700  0.11782700  0.24874500  1
  O  O1  1  0.35883400  0.15271400  0.41705900  1
  O  O2  1  0.23884100  0.48479400  0.51283400  1
  O  O3  1  0.88217300  0.13091800  0.59318000  1
  O  O4  1  0.48004600  0.26898100  0.76509000  1
  O  O5  1  0.53773800  0.28899300  0.40682000  1
  O  O6  1  0.90271400  0.98565500  0.29388000  1
  O  O7  1  0.73565500  0.94177500  0.58294100  1
  O  O8  1  0.27399300  0.76115900  0.24595300  1
  O  O9  1  0.84728600  0.26434500  0.20612000  1
  O  O10  1  0.26304500  0.01728500  0.52113100  1
  O  O11  1  0.49615300  0.74191400  0.47886900  1
  O  O12  1  0.73101900  0.49610800  0.21106500  1
  O  O13  1  0.94617200  0.72870100  0.97302900  1
  O  O14  1  0.98271500  0.50384700  0.24576100  1
  O  O15  1  0.39116600  0.09728600  0.08294100  1
  O  O16  1  0.01434500  0.30822500  0.91705900  1
  O  O17  1  0.50389200  0.71495600  0.23491000  1
  O  O18  1  0.75567200  0.97314300  0.02697100  1
  O  O19  1  0.51520600  0.02804000  0.75404700  1
  O  O20  1  0.80382800  0.52129900  0.52697100  1
  O  O21  1  0.25384700  0.50808600  0.02113100  1
  O  O22  1  0.88091800  0.78773800  0.74874500  1
  O  O23  1  0.48695500  0.23271500  0.97886900  1
  O  O24  1  0.27129900  0.24432800  0.21747100  1
  O  O25  1  0.77804000  0.52399300  0.01283400  1
  O  O26  1  0.49191400  0.51304500  0.74576100  1
  O  O27  1  0.86782700  0.11908200  0.90682000  1
  O  O28  1  0.05822500  0.64116600  0.79388000  1
  O  O29  1  0.86908200  0.46226200  0.75125500  1
  O  O30  1  0.72314300  0.19617200  0.71747100  1
  O  O31  1  0.02685700  0.05382800  0.78252900  1
  O  O32  1  0.24610800  0.53504400  0.26509000  1
  O  O33  1  0.47600700  0.48884100  0.25404700  1
  O  O34  1  0.99432800  0.27685700  0.47302900  1
  O  O35  1  0.26995400  0.98101900  0.73491000  1
  O  O36  1  0.46495600  0.73004600  0.71106500  1
  O  O37  1  0.51115900  0.76520600  0.98716600  1
  O  O38  1  0.01898100  0.75389200  0.28893500  1
  O  O39  1  0.21226200  0.96100700  0.09318000  1
  O  O40  1  0.97196000  0.72600700  0.48716600  1
  O  O41  1  0.76728500  0.74615300  0.25423900  1
  O  O42  1  0.03899300  0.13217300  0.25125500  1
  O  O43  1  0.25808600  0.73695500  0.75423900  1
  O  O44  1  0.69177500  0.60883400  0.70612000  1
  O  O45  1  0.47870100  0.00567200  0.28252900  1
  O  O46  1  0.28504400  0.51995400  0.78893500  1
  O  O47  1  0.23479400  0.22196000  0.74595300  1
loop_
_geom_bond_atom_site_label_1
_geom_bond_atom_site_label_2
_geom_bond_distance
_geom_bond_site_symmetry_2
O0 Os3 1.905858 1_555
O0 Sr15 2.494948 1_555
O0 Sr10 2.501180 1_545
O0 Sr17 2.652512 1_544
O1 Os5 1.919698 1_555
O1 Sr21 2.505731 1_555
O1 Sr0 2.726391 1_545
O1 Sr2 2.728756 1_545
O1 Sr7 2.944716 1_555
O2 Os4 2.004508 1_555
O2 Sr6 2.605673 1_555
O2 Sr21 2.647059 1_555
O2 Sr19 2.693377 1_555
O2 Sr8 2.719843 1_555
O2 Sr13 3.172901 1_555
O3 Os0 1.905858 1_555
O3 Sr10 2.494941 1_545
O3 Sr12 2.501177 1_655
O3 Sr1 2.652505 1_645
O4 Os2 1.939622 1_555
O4 Sr5 2.582455 1_555
O4 Sr11 2.637837 1_556
O4 Sr21 2.662559 1_555
O4 Sr7 2.832502 1_555
O5 Os5 1.905858 1_555
O5 Sr7 2.494938 1_555
O5 Sr15 2.501182 1_555
O5 Sr19 2.652505 1_555
O6 Os3 1.919698 1_565
O6 Sr1 2.505724 1_655
O6 Sr10 2.726396 1_555
O6 Sr3 2.728756 1_555
O6 Sr0 2.944717 1_655
O7 Os0 1.919698 1_565
O7 Sr18 2.505725 1_555
O7 Sr9 2.726385 1_555
O7 Sr2 2.728756 1_555
O7 Sr10 2.944712 1_555
O8 Os1 2.004508 1_555
O8 Sr2 2.605673 1_555
O8 Sr16 2.647052 1_555
O8 Sr14 2.693379 1_555
O8 Sr0 2.719835 1_555
O8 Sr13 3.172901 1_555
O9 Os3 1.919698 1_555
O9 Sr5 2.505724 1_554
O9 Sr8 2.726396 1_655
O9 Sr6 2.728756 1_655
O9 Sr15 2.944717 1_555
O10 Os2 1.911141 1_555
O10 Sr0 2.482511 1_545
O10 Sr2 2.759676 1_545
O10 Sr1 2.792301 1_545
O10 Sr21 2.930241 1_555
O10 Sr13 2.999875 1_545
O11 Os1 1.911140 1_555
O11 Sr9 2.482517 1_555
O11 Sr2 2.759675 1_555
O11 Sr19 2.792299 1_555
O11 Sr18 2.930262 1_555
O11 Sr13 2.999863 1_555
O12 Os7 1.939629 1_555
O12 Sr18 2.582452 1_555
O12 Sr11 2.637843 1_555
O12 Sr5 2.662559 1_554
O12 Sr15 2.832483 1_555
O13 Os6 1.920891 1_555
O13 Sr0 2.391942 1_656
O13 Sr3 2.603493 1_556
O13 Sr14 2.640334 1_656
O14 Os7 1.911132 1_555
O14 Sr8 2.482530 1_655
O14 Sr6 2.759671 1_655
O14 Sr14 2.792294 1_655
O14 Sr5 2.930251 1_554
O14 Sr13 2.999869 1_655
O15 Os5 1.919698 1_555
O15 Sr17 2.505731 1_544
O15 Sr15 2.726391 1_555
O15 Sr20 2.728756 1_555
O15 Sr4 2.944716 1_544
O16 Os0 1.919698 1_455
O16 Sr14 2.505725 1_556
O16 Sr12 2.726385 1_555
O16 Sr20 2.728756 1_556
O16 Sr8 2.944712 1_556
O17 Os1 1.939631 1_555
O17 Sr16 2.582460 1_555
O17 Sr11 2.637831 1_555
O17 Sr18 2.662553 1_555
O17 Sr10 2.832489 1_555
O18 Os3 1.920891 1_565
O18 Sr9 2.391946 1_554
O18 Sr3 2.603493 1_555
O18 Sr17 2.640325 1_554
O19 Os2 2.004508 1_555
O19 Sr2 2.605673 1_545
O19 Sr5 2.647052 1_555
O19 Sr17 2.693366 1_545
O19 Sr9 2.719844 1_545
O19 Sr13 3.172901 1_545
O20 Os6 1.920891 1_555
O20 Sr15 2.391942 1_555
O20 Sr6 2.603493 1_655
O20 Sr18 2.640334 1_555
O21 Os1 1.911140 1_555
O21 Sr12 2.482517 1_554
O21 Sr20 2.759675 1_555
O21 Sr16 2.792299 1_555
O21 Sr14 2.930262 1_555
O21 Sr11 2.999863 1_555
O22 Os6 1.905858 1_555
O22 Sr9 2.494938 1_555
O22 Sr4 2.501177 1_655
O22 Sr18 2.652515 1_555
O23 Os2 1.911141 1_555
O23 Sr15 2.482511 1_556
O23 Sr20 2.759676 1_556
O23 Sr5 2.792301 1_555
O23 Sr17 2.930241 1_545
O23 Sr11 2.999875 1_556
O24 Os5 1.920891 1_555
O24 Sr8 2.391935 1_555
O24 Sr20 2.603493 1_555
O24 Sr19 2.640327 1_555
O25 Os7 2.004508 1_555
O25 Sr3 2.605673 1_555
O25 Sr14 2.647048 1_655
O25 Sr5 2.693377 1_554
O25 Sr7 2.719844 1_554
O25 Sr11 3.172901 1_555
O26 Os4 1.911140 1_555
O26 Sr7 2.482517 1_555
O26 Sr3 2.759675 1_556
O26 Sr21 2.792301 1_555
O26 Sr19 2.930257 1_555
O26 Sr11 2.999863 1_556
O27 Os0 1.905858 1_555
O27 Sr8 2.494941 1_656
O27 Sr9 2.501177 1_545
O27 Sr5 2.652505 1_555
O28 Os6 1.919698 1_455
O28 Sr16 2.505724 1_556
O28 Sr4 2.726385 1_555
O28 Sr6 2.728756 1_555
O28 Sr12 2.944716 1_555
O29 Os6 1.905858 1_555
O29 Sr12 2.494938 1_655
O29 Sr7 2.501177 1_555
O29 Sr14 2.652515 1_656
O30 Os0 1.920891 1_555
O30 Sr7 2.391946 1_555
O30 Sr2 2.603493 1_545
O30 Sr5 2.640327 1_555
O31 Os0 1.920891 1_455
O31 Sr4 2.391946 1_545
O31 Sr20 2.603493 1_556
O31 Sr1 2.640327 1_545
O32 Os1 1.939631 1_555
O32 Sr19 2.582460 1_555
O32 Sr13 2.637831 1_555
O32 Sr14 2.662553 1_555
O32 Sr8 2.832489 1_555
O33 Os1 2.004508 1_555
O33 Sr20 2.605673 1_555
O33 Sr19 2.647052 1_555
O33 Sr18 2.693379 1_555
O33 Sr15 2.719835 1_555
O33 Sr11 3.172901 1_555
O34 Os3 1.920891 1_555
O34 Sr12 2.391946 1_655
O34 Sr6 2.603493 1_655
O34 Sr21 2.640325 1_655
O35 Os2 1.939622 1_565
O35 Sr1 2.582455 1_555
O35 Sr13 2.637837 1_555
O35 Sr17 2.662559 1_555
O35 Sr4 2.832502 1_555
O36 Os4 1.939622 1_555
O36 Sr17 2.582450 1_555
O36 Sr13 2.637837 1_555
O36 Sr19 2.662564 1_555
O36 Sr9 2.832502 1_555
O37 Os4 2.004508 1_555
O37 Sr3 2.605673 1_556
O37 Sr17 2.647059 1_555
O37 Sr16 2.693377 1_556
O37 Sr10 2.719843 1_556
O37 Sr11 3.172901 1_556
O38 Os7 1.939629 1_455
O38 Sr14 2.582452 1_555
O38 Sr13 2.637843 1_555
O38 Sr1 2.662559 1_555
O38 Sr0 2.832483 1_555
O39 Os5 1.905858 1_565
O39 Sr4 2.494938 1_554
O39 Sr0 2.501182 1_555
O39 Sr16 2.652505 1_555
O40 Os7 2.004508 1_555
O40 Sr6 2.605673 1_655
O40 Sr18 2.647048 1_555
O40 Sr1 2.693377 1_655
O40 Sr4 2.719844 1_655
O40 Sr13 3.172901 1_655
O41 Os7 1.911132 1_555
O41 Sr10 2.482530 1_555
O41 Sr3 2.759671 1_555
O41 Sr18 2.792294 1_555
O41 Sr1 2.930251 1_655
O41 Sr11 2.999869 1_555
O42 Os3 1.905858 1_455
O42 Sr0 2.494948 1_545
O42 Sr8 2.501180 1_555
O42 Sr21 2.652512 1_555
O43 Os4 1.911140 1_555
O43 Sr4 2.482517 1_555
O43 Sr6 2.759675 1_555
O43 Sr17 2.792301 1_555
O43 Sr16 2.930257 1_556
O43 Sr13 2.999863 1_555
O44 Os6 1.919698 1_555
O44 Sr19 2.505724 1_555
O44 Sr7 2.726385 1_555
O44 Sr3 2.728756 1_556
O44 Sr9 2.944716 1_555
O45 Os5 1.920891 1_555
O45 Sr10 2.391935 1_545
O45 Sr2 2.603493 1_545
O45 Sr16 2.640327 1_545
O46 Os4 1.939622 1_555
O46 Sr21 2.582450 1_555
O46 Sr11 2.637837 1_556
O46 Sr16 2.662564 1_556
O46 Sr12 2.832502 1_555
O47 Os2 2.004508 1_555
O47 Sr20 2.605673 1_556
O47 Sr1 2.647052 1_545
O47 Sr21 2.693366 1_555
O47 Sr12 2.719844 1_555
O47 Sr11 3.172901 1_556
