# generated using pymatgen
data_MgAl6O10
_symmetry_space_group_name_H-M   'P 1'
_cell_length_a   5.70762978
_cell_length_b   5.70762978
_cell_length_c   23.38969811
_cell_angle_alpha   82.90735263
_cell_angle_beta   82.90735263
_cell_angle_gamma   60.26330238
_symmetry_Int_Tables_number   1
_chemical_formula_structural   MgAl6O10
_chemical_formula_sum   'Mg4 Al24 O40'
_cell_volume   654.84934232
_cell_formula_units_Z   4
loop_
 _symmetry_equiv_pos_site_id
 _symmetry_equiv_pos_as_xyz
  1  'x, y, z'
loop_
 _atom_site_type_symbol
 _atom_site_label
 _atom_site_symmetry_multiplicity
 _atom_site_fract_x
 _atom_site_fract_y
 _atom_site_fract_z
 _atom_site_occupancy
  Mg  Mg0  1  0.53263500  0.53263500  0.41612100  1
  Mg  Mg1  1  0.12618000  0.12618000  0.62406200  1
  Mg  Mg2  1  0.72251800  0.72251800  0.83382000  1
  Mg  Mg3  1  0.47571900  0.47571900  0.57251500  1
  Al  Al0  1  0.32276900  0.32276900  0.03157200  1
  Al  Al1  1  0.80365800  0.80365800  0.09647500  1
  Al  Al2  1  0.80470600  0.29254600  0.09602600  1
  Al  Al3  1  0.93125600  0.93125600  0.22335700  1
  Al  Al4  1  0.29254600  0.80470600  0.09602600  1
  Al  Al5  1  0.40301100  0.90005000  0.29724300  1
  Al  Al6  1  0.58797600  0.58797600  0.20237300  1
  Al  Al7  1  0.90005000  0.40301100  0.29724300  1
  Al  Al8  1  0.26802500  0.26802500  0.17568100  1
  Al  Al9  1  0.21077900  0.21077900  0.39563400  1
  Al  Al10  1  0.49837500  0.00339200  0.49722900  1
  Al  Al11  1  0.60274100  0.60274100  0.70138000  1
  Al  Al12  1  0.87089000  0.87089000  0.37111000  1
  Al  Al13  1  0.80101100  0.80101100  0.59807400  1
  Al  Al14  1  0.00339200  0.49837500  0.49722900  1
  Al  Al15  1  0.00384000  0.00384000  0.49711700  1
  Al  Al16  1  0.09343800  0.60296500  0.70137700  1
  Al  Al17  1  0.19667300  0.19667300  0.90695200  1
  Al  Al18  1  0.19688500  0.69840300  0.90678800  1
  Al  Al19  1  0.39768400  0.39768400  0.80667400  1
  Al  Al20  1  0.60296500  0.09343800  0.70137700  1
  Al  Al21  1  0.69840300  0.19688500  0.90678800  1
  Al  Al22  1  0.07346600  0.07346600  0.77876900  1
  Al  Al23  1  0.67487300  0.67487300  0.97279200  1
  O  O0  1  0.65169100  0.14529600  0.05605200  1
  O  O1  1  0.95123400  0.95123400  0.14271000  1
  O  O2  1  0.14529600  0.65169100  0.05605200  1
  O  O3  1  0.14539600  0.14539600  0.05600700  1
  O  O4  1  0.26546900  0.77061800  0.24328500  1
  O  O5  1  0.45861100  0.45861100  0.14709600  1
  O  O6  1  0.64753400  0.64753400  0.05171600  1
  O  O7  1  0.46457100  0.92349600  0.14525300  1
  O  O8  1  0.56741300  0.56741300  0.33482300  1
  O  O9  1  0.77061800  0.26546900  0.24328500  1
  O  O10  1  0.74733600  0.74733600  0.24529300  1
  O  O11  1  0.92349600  0.46457100  0.14525300  1
  O  O12  1  0.88209700  0.33250000  0.45335900  1
  O  O13  1  0.05796700  0.05796700  0.34809900  1
  O  O14  1  0.23885900  0.23885900  0.25163700  1
  O  O15  1  0.33250000  0.88209700  0.45335900  1
  O  O16  1  0.03576700  0.53222400  0.35221600  1
  O  O17  1  0.15472900  0.15472900  0.54218600  1
  O  O18  1  0.33649300  0.33649300  0.45248200  1
  O  O19  1  0.53222400  0.03576700  0.35221600  1
  O  O20  1  0.48340600  0.93090000  0.65496900  1
  O  O21  1  0.67048700  0.67048700  0.54738100  1
  O  O22  1  0.85058700  0.85058700  0.45283800  1
  O  O23  1  0.67106500  0.11265700  0.54749300  1
  O  O24  1  0.75139800  0.75139800  0.74616900  1
  O  O25  1  0.93090000  0.48340600  0.65496900  1
  O  O26  1  0.11265700  0.67106500  0.54749300  1
  O  O27  1  0.93151800  0.93151800  0.65496700  1
  O  O28  1  0.09079400  0.52622900  0.85549300  1
  O  O29  1  0.25818100  0.25818100  0.75148900  1
  O  O30  1  0.44592300  0.44592300  0.66237600  1
  O  O31  1  0.34927600  0.34927600  0.95131300  1
  O  O32  1  0.25826100  0.73189300  0.75151700  1
  O  O33  1  0.52622900  0.09079400  0.85549300  1
  O  O34  1  0.52697400  0.52697400  0.85546500  1
  O  O35  1  0.73189300  0.25826100  0.75151700  1
  O  O36  1  0.85149300  0.85149300  0.94296200  1
  O  O37  1  0.04771300  0.04771300  0.85575300  1
  O  O38  1  0.85166600  0.35239000  0.94308300  1
  O  O39  1  0.35239000  0.85166600  0.94308300  1
loop_
_geom_bond_atom_site_label_1
_geom_bond_atom_site_label_2
_geom_bond_distance
_geom_bond_site_symmetry_2
Mg0 O8 1.883430 1_555
Mg0 O15 1.991216 1_555
Mg0 O12 1.991216 1_555
Mg0 O18 2.000738 1_555
Mg1 O17 1.895457 1_555
Mg1 O27 1.954321 1_445
Mg1 O25 1.957714 1_455
Mg1 O20 1.957714 1_545
Mg2 O34 1.924655 1_555
Mg2 O33 1.928001 1_565
Mg2 O28 1.928001 1_655
Mg2 O24 2.029144 1_555
Mg3 O21 1.928825 1_555
Mg3 O23 1.930309 1_555
Mg3 O26 1.930309 1_555
Mg3 O30 2.080300 1_555
Al0 O3 1.762794 1_555
Al0 O0 1.764687 1_555
Al0 O2 1.764687 1_555
Al0 O31 1.858015 1_554
Al1 O0 1.875617 1_565
Al1 O2 1.875617 1_655
Al1 O1 1.934467 1_555
Al1 O11 1.961990 1_555
Al1 O7 1.961990 1_555
Al1 O6 1.983075 1_555
Al2 O0 1.862028 1_555
Al2 O3 1.867421 1_655
Al2 O1 1.941838 1_545
Al2 O11 1.970236 1_555
Al2 O6 1.972822 1_555
Al2 O5 2.016646 1_555
Al3 O9 1.753766 1_565
Al3 O4 1.753766 1_655
Al3 O10 1.815037 1_555
Al3 O1 1.868377 1_555
Al4 O2 1.862028 1_555
Al4 O3 1.867421 1_565
Al4 O1 1.941838 1_455
Al4 O7 1.970236 1_555
Al4 O6 1.972822 1_555
Al4 O5 2.016646 1_555
Al5 O8 1.811609 1_555
Al5 O14 1.922313 1_565
Al5 O4 1.950659 1_555
Al5 O19 1.960638 1_565
Al5 O13 2.007770 1_565
Al5 O10 2.017674 1_555
Al6 O9 1.816182 1_555
Al6 O4 1.816182 1_555
Al6 O5 1.942764 1_555
Al6 O10 1.983460 1_555
Al6 O7 2.052034 1_555
Al6 O11 2.052034 1_555
Al7 O8 1.811609 1_555
Al7 O14 1.922313 1_655
Al7 O9 1.950659 1_555
Al7 O16 1.960638 1_655
Al7 O13 2.007770 1_655
Al7 O10 2.017674 1_555
Al8 O14 1.758724 1_555
Al8 O7 1.895239 1_545
Al8 O11 1.895239 1_455
Al8 O5 1.904802 1_555
Al9 O16 1.835083 1_555
Al9 O19 1.835083 1_555
Al9 O18 1.944130 1_555
Al9 O13 1.997803 1_555
Al9 O12 2.034253 1_455
Al9 O15 2.034253 1_545
Al10 O15 1.869244 1_545
Al10 O18 1.889050 1_555
Al10 O17 1.932148 1_555
Al10 O23 1.954388 1_555
Al10 O21 1.958027 1_545
Al10 O22 1.961850 1_545
Al11 O20 1.888226 1_555
Al11 O25 1.888226 1_555
Al11 O30 1.905932 1_555
Al11 O24 1.921065 1_555
Al11 O32 1.997666 1_555
Al11 O35 1.997666 1_555
Al12 O16 1.766636 1_655
Al12 O19 1.766636 1_565
Al12 O13 1.848548 1_665
Al12 O22 1.893399 1_555
Al13 O26 1.871362 1_655
Al13 O23 1.871362 1_565
Al13 O21 1.871554 1_555
Al13 O27 1.980024 1_555
Al13 O25 1.980245 1_555
Al13 O20 1.980245 1_555
Al14 O12 1.869244 1_455
Al14 O18 1.889050 1_555
Al14 O17 1.932148 1_555
Al14 O26 1.954388 1_555
Al14 O21 1.958027 1_455
Al14 O22 1.961850 1_455
Al15 O12 1.859480 1_455
Al15 O15 1.859480 1_545
Al15 O17 1.943913 1_555
Al15 O22 1.951745 1_445
Al15 O26 1.959449 1_545
Al15 O23 1.959449 1_455
Al16 O25 1.887900 1_455
Al16 O27 1.890723 1_455
Al16 O30 1.908639 1_555
Al16 O24 1.923524 1_455
Al16 O32 1.993541 1_555
Al16 O29 1.999378 1_555
Al17 O39 1.849343 1_545
Al17 O38 1.849343 1_455
Al17 O31 1.947520 1_555
Al17 O28 1.960832 1_555
Al17 O33 1.960832 1_555
Al17 O37 2.024781 1_555
Al18 O39 1.847527 1_555
Al18 O36 1.851358 1_455
Al18 O31 1.950312 1_555
Al18 O28 1.957731 1_555
Al18 O34 1.962337 1_555
Al18 O37 2.025853 1_565
Al19 O34 1.829647 1_555
Al19 O33 1.829855 1_555
Al19 O28 1.829855 1_555
Al19 O29 2.017564 1_555
Al19 O35 2.018978 1_555
Al19 O32 2.018978 1_555
Al20 O20 1.887900 1_545
Al20 O27 1.890723 1_545
Al20 O30 1.908639 1_555
Al20 O24 1.923524 1_545
Al20 O35 1.993541 1_555
Al20 O29 1.999378 1_555
Al21 O38 1.847527 1_555
Al21 O36 1.851358 1_545
Al21 O31 1.950312 1_555
Al21 O33 1.957731 1_555
Al21 O34 1.962337 1_555
Al21 O37 2.025853 1_655
Al22 O37 1.782190 1_555
Al22 O29 1.844065 1_555
Al22 O32 1.849475 1_545
Al22 O35 1.849475 1_455
Al23 O36 1.783258 1_555
Al23 O39 1.785815 1_555
Al23 O38 1.785815 1_555
Al23 O6 1.827110 1_556
