# generated using pymatgen
data_Eu3Fe5O12
_symmetry_space_group_name_H-M   'P 1'
_cell_length_a   11.01295234
_cell_length_b   11.01295234
_cell_length_c   11.01295234
_cell_angle_alpha   109.47122063
_cell_angle_beta   109.47122063
_cell_angle_gamma   109.47122063
_symmetry_Int_Tables_number   1
_chemical_formula_structural   Eu3Fe5O12
_chemical_formula_sum   'Eu12 Fe20 O48'
_cell_volume   1028.22791199
_cell_formula_units_Z   4
loop_
 _symmetry_equiv_pos_site_id
 _symmetry_equiv_pos_as_xyz
  1  'x, y, z'
loop_
 _atom_site_type_symbol
 _atom_site_label
 _atom_site_symmetry_multiplicity
 _atom_site_fract_x
 _atom_site_fract_y
 _atom_site_fract_z
 _atom_site_occupancy
  Eu  Eu0  1  0.62500000  0.87500000  0.75000000  1
  Eu  Eu1  1  0.75000000  0.12500000  0.37500000  1
  Eu  Eu2  1  0.62500000  0.25000000  0.87500000  1
  Eu  Eu3  1  0.12500000  0.25000000  0.37500000  1
  Eu  Eu4  1  0.25000000  0.37500000  0.12500000  1
  Eu  Eu5  1  0.87500000  0.75000000  0.62500000  1
  Eu  Eu6  1  0.87500000  0.62500000  0.25000000  1
  Eu  Eu7  1  0.12500000  0.37500000  0.75000000  1
  Eu  Eu8  1  0.37500000  0.12500000  0.25000000  1
  Eu  Eu9  1  0.25000000  0.87500000  0.62500000  1
  Eu  Eu10  1  0.75000000  0.62500000  0.87500000  1
  Eu  Eu11  1  0.37500000  0.75000000  0.12500000  1
  Fe  Fe0  1  0.87500000  0.25000000  0.12500000  1
  Fe  Fe1  1  0.75000000  0.87500000  0.12500000  1
  Fe  Fe2  1  0.12500000  0.75000000  0.87500000  1
  Fe  Fe3  1  0.00000000  0.50000000  0.50000000  1
  Fe  Fe4  1  0.00000000  0.50000000  0.00000000  1
  Fe  Fe5  1  0.50000000  0.50000000  0.50000000  1
  Fe  Fe6  1  0.00000000  0.00000000  0.00000000  1
  Fe  Fe7  1  0.37500000  0.62500000  0.75000000  1
  Fe  Fe8  1  0.62500000  0.75000000  0.37500000  1
  Fe  Fe9  1  0.62500000  0.37500000  0.25000000  1
  Fe  Fe10  1  0.50000000  0.50000000  0.00000000  1
  Fe  Fe11  1  0.75000000  0.37500000  0.62500000  1
  Fe  Fe12  1  0.25000000  0.62500000  0.37500000  1
  Fe  Fe13  1  0.25000000  0.12500000  0.87500000  1
  Fe  Fe14  1  0.50000000  0.00000000  0.50000000  1
  Fe  Fe15  1  0.37500000  0.25000000  0.62500000  1
  Fe  Fe16  1  0.12500000  0.87500000  0.25000000  1
  Fe  Fe17  1  0.00000000  0.00000000  0.50000000  1
  Fe  Fe18  1  0.87500000  0.12500000  0.75000000  1
  Fe  Fe19  1  0.50000000  0.00000000  0.00000000  1
  O  O0  1  0.52495600  0.40407100  0.82198200  1
  O  O1  1  0.29702600  0.47504400  0.37911400  1
  O  O2  1  0.37911400  0.58208900  0.90407100  1
  O  O3  1  0.82198200  0.52495600  0.40407100  1
  O  O4  1  0.17801800  0.47504400  0.59592900  1
  O  O5  1  0.67801800  0.08208900  0.70297400  1
  O  O6  1  0.97504400  0.67801800  0.09592900  1
  O  O7  1  0.32198200  0.91791100  0.29702600  1
  O  O8  1  0.02495600  0.20297400  0.12088600  1
  O  O9  1  0.08208900  0.87911400  0.40407100  1
  O  O10  1  0.08208900  0.70297400  0.67801800  1
  O  O11  1  0.70297400  0.52495600  0.62088600  1
  O  O12  1  0.62088600  0.70297400  0.52495600  1
  O  O13  1  0.40407100  0.82198200  0.52495600  1
  O  O14  1  0.90407100  0.02495600  0.32198200  1
  O  O15  1  0.20297400  0.12088600  0.02495600  1
  O  O16  1  0.59592900  0.91791100  0.12088600  1
  O  O17  1  0.17801800  0.20297400  0.58208900  1
  O  O18  1  0.37911400  0.29702600  0.47504400  1
  O  O19  1  0.58208900  0.90407100  0.37911400  1
  O  O20  1  0.40407100  0.08208900  0.87911400  1
  O  O21  1  0.59592900  0.17801800  0.47504400  1
  O  O22  1  0.09592900  0.97504400  0.67801800  1
  O  O23  1  0.20297400  0.58208900  0.17801800  1
  O  O24  1  0.79702600  0.87911400  0.97504400  1
  O  O25  1  0.91791100  0.12088600  0.59592900  1
  O  O26  1  0.87911400  0.40407100  0.08208900  1
  O  O27  1  0.97504400  0.79702600  0.87911400  1
  O  O28  1  0.91791100  0.29702600  0.32198200  1
  O  O29  1  0.12088600  0.59592900  0.91791100  1
  O  O30  1  0.70297400  0.67801800  0.08208900  1
  O  O31  1  0.41791100  0.82198200  0.79702600  1
  O  O32  1  0.62088600  0.41791100  0.09592900  1
  O  O33  1  0.90407100  0.37911400  0.58208900  1
  O  O34  1  0.79702600  0.41791100  0.82198200  1
  O  O35  1  0.82198200  0.79702600  0.41791100  1
  O  O36  1  0.67801800  0.09592900  0.97504400  1
  O  O37  1  0.52495600  0.62088600  0.70297400  1
  O  O38  1  0.41791100  0.09592900  0.62088600  1
  O  O39  1  0.29702600  0.32198200  0.91791100  1
  O  O40  1  0.12088600  0.02495600  0.20297400  1
  O  O41  1  0.32198200  0.90407100  0.02495600  1
  O  O42  1  0.47504400  0.37911400  0.29702600  1
  O  O43  1  0.58208900  0.17801800  0.20297400  1
  O  O44  1  0.02495600  0.32198200  0.90407100  1
  O  O45  1  0.87911400  0.97504400  0.79702600  1
  O  O46  1  0.47504400  0.59592900  0.17801800  1
  O  O47  1  0.09592900  0.62088600  0.41791100  1
loop_
_geom_bond_atom_site_label_1
_geom_bond_atom_site_label_2
_geom_bond_distance
_geom_bond_site_symmetry_2
Eu0 O45 2.431412 1_555
Eu0 O37 2.431412 1_555
Eu0 O31 2.431422 1_555
Eu0 O5 2.431422 1_565
Eu0 O36 2.543883 1_565
Eu0 O13 2.543883 1_555
Eu0 O24 2.543889 1_555
Eu0 O12 2.543889 1_555
Eu1 O33 2.431415 1_555
Eu1 O16 2.431415 1_545
Eu1 O21 2.431422 1_555
Eu1 O14 2.431422 1_555
Eu1 O25 2.543877 1_555
Eu1 O19 2.543877 1_545
Eu1 O43 2.543883 1_555
Eu1 O28 2.543883 1_555
Eu2 O26 2.431415 1_556
Eu2 O38 2.431415 1_555
Eu2 O0 2.431422 1_555
Eu2 O36 2.431422 1_555
Eu2 O32 2.543877 1_556
Eu2 O20 2.543877 1_555
Eu2 O5 2.543883 1_555
Eu2 O34 2.543883 1_555
Eu3 O18 2.431412 1_555
Eu3 O8 2.431412 1_555
Eu3 O17 2.431422 1_555
Eu3 O28 2.431422 1_455
Eu3 O4 2.543883 1_555
Eu3 O14 2.543883 1_455
Eu3 O1 2.543889 1_555
Eu3 O40 2.543889 1_555
Eu4 O1 2.431412 1_555
Eu4 O15 2.431412 1_555
Eu4 O23 2.431422 1_555
Eu4 O39 2.431422 1_554
Eu4 O46 2.543883 1_555
Eu4 O44 2.543883 1_554
Eu4 O42 2.543889 1_555
Eu4 O8 2.543889 1_555
Eu5 O27 2.431412 1_555
Eu5 O12 2.431412 1_555
Eu5 O35 2.431422 1_555
Eu5 O10 2.431422 1_655
Eu5 O22 2.543883 1_655
Eu5 O3 2.543883 1_555
Eu5 O45 2.543889 1_555
Eu5 O11 2.543889 1_555
Eu6 O9 2.431415 1_655
Eu6 O32 2.431415 1_555
Eu6 O3 2.431422 1_555
Eu6 O6 2.431422 1_555
Eu6 O47 2.543877 1_655
Eu6 O26 2.543877 1_555
Eu6 O35 2.543883 1_555
Eu6 O30 2.543883 1_555
Eu7 O2 2.431415 1_555
Eu7 O25 2.431415 1_455
Eu7 O44 2.431422 1_555
Eu7 O4 2.431422 1_555
Eu7 O29 2.543877 1_555
Eu7 O33 2.543877 1_455
Eu7 O17 2.543883 1_555
Eu7 O39 2.543883 1_555
Eu8 O42 2.431412 1_555
Eu8 O40 2.431412 1_555
Eu8 O43 2.431422 1_555
Eu8 O7 2.431422 1_545
Eu8 O21 2.543883 1_555
Eu8 O41 2.543883 1_545
Eu8 O18 2.543889 1_555
Eu8 O15 2.543889 1_555
Eu9 O20 2.431415 1_565
Eu9 O47 2.431415 1_555
Eu9 O13 2.431422 1_555
Eu9 O22 2.431422 1_555
Eu9 O38 2.543877 1_565
Eu9 O9 2.543877 1_555
Eu9 O31 2.543883 1_555
Eu9 O10 2.543883 1_555
Eu10 O24 2.431412 1_555
Eu10 O11 2.431412 1_555
Eu10 O34 2.431422 1_555
Eu10 O30 2.431422 1_556
Eu10 O6 2.543883 1_556
Eu10 O0 2.543883 1_555
Eu10 O27 2.543889 1_555
Eu10 O37 2.543889 1_555
Eu11 O19 2.431415 1_555
Eu11 O29 2.431415 1_554
Eu11 O46 2.431422 1_555
Eu11 O41 2.431422 1_555
Eu11 O16 2.543877 1_555
Eu11 O2 2.543877 1_554
Eu11 O23 2.543883 1_555
Eu11 O7 2.543883 1_555
Fe0 O8 1.897896 1_655
Fe0 O36 1.897899 1_554
Fe0 O28 1.897899 1_555
Fe0 O26 1.897901 1_555
Fe1 O24 1.897896 1_554
Fe1 O30 1.897899 1_555
Fe1 O14 1.897899 1_565
Fe1 O16 1.897901 1_555
Fe2 O27 1.897896 1_455
Fe2 O41 1.897899 1_556
Fe2 O10 1.897899 1_555
Fe2 O29 1.897901 1_555
Fe3 O4 2.051149 1_555
Fe3 O28 2.051149 1_455
Fe3 O10 2.051149 1_555
Fe3 O3 2.051149 1_455
Fe3 O47 2.051156 1_555
Fe3 O33 2.051156 1_455
Fe4 O23 2.051149 1_555
Fe4 O34 2.051149 1_454
Fe4 O44 2.051149 1_554
Fe4 O6 2.051149 1_455
Fe4 O29 2.051156 1_554
Fe4 O26 2.051156 1_455
Fe5 O1 2.051152 1_555
Fe5 O42 2.051152 1_555
Fe5 O18 2.051152 1_555
Fe5 O12 2.051152 1_555
Fe5 O11 2.051152 1_555
Fe5 O37 2.051152 1_555
Fe6 O45 2.051152 1_444
Fe6 O27 2.051152 1_444
Fe6 O24 2.051152 1_444
Fe6 O15 2.051152 1_555
Fe6 O8 2.051152 1_555
Fe6 O40 2.051152 1_555
Fe7 O37 1.897896 1_555
Fe7 O31 1.897899 1_555
Fe7 O4 1.897899 1_555
Fe7 O2 1.897901 1_555
Fe8 O12 1.897896 1_555
Fe8 O35 1.897899 1_555
Fe8 O46 1.897899 1_555
Fe8 O19 1.897901 1_555
Fe9 O42 1.897896 1_555
Fe9 O3 1.897899 1_555
Fe9 O43 1.897899 1_555
Fe9 O32 1.897901 1_555
Fe10 O46 2.051149 1_555
Fe10 O39 2.051149 1_554
Fe10 O30 2.051149 1_555
Fe10 O0 2.051149 1_554
Fe10 O32 2.051156 1_555
Fe10 O2 2.051156 1_554
Fe11 O11 1.897896 1_555
Fe11 O34 1.897899 1_555
Fe11 O21 1.897899 1_555
Fe11 O33 1.897901 1_555
Fe12 O1 1.897896 1_555
Fe12 O13 1.897899 1_555
Fe12 O23 1.897899 1_555
Fe12 O47 1.897901 1_555
Fe13 O15 1.897896 1_556
Fe13 O22 1.897899 1_545
Fe13 O39 1.897899 1_555
Fe13 O20 1.897901 1_555
Fe14 O21 2.051149 1_555
Fe14 O7 2.051149 1_545
Fe14 O5 2.051149 1_555
Fe14 O13 2.051149 1_545
Fe14 O38 2.051156 1_555
Fe14 O19 2.051156 1_545
Fe15 O18 1.897896 1_555
Fe15 O0 1.897899 1_555
Fe15 O17 1.897899 1_555
Fe15 O38 1.897901 1_555
Fe16 O40 1.897896 1_565
Fe16 O6 1.897899 1_455
Fe16 O7 1.897899 1_555
Fe16 O9 1.897901 1_555
Fe17 O17 2.051149 1_555
Fe17 O35 2.051149 1_445
Fe17 O14 2.051149 1_455
Fe17 O22 2.051149 1_545
Fe17 O25 2.051156 1_455
Fe17 O9 2.051156 1_545
Fe18 O45 1.897896 1_545
Fe18 O5 1.897899 1_555
Fe18 O44 1.897899 1_655
Fe18 O25 1.897901 1_555
Fe19 O43 2.051149 1_555
Fe19 O31 2.051149 1_544
Fe19 O41 2.051149 1_545
Fe19 O36 2.051149 1_554
Fe19 O16 2.051156 1_545
Fe19 O20 2.051156 1_554
