# generated using pymatgen
data_Li3Er(NO3)6
_symmetry_space_group_name_H-M   'P 1'
_cell_length_a   7.64576400
_cell_length_b   7.92331900
_cell_length_c   24.49235980
_cell_angle_alpha   88.98582524
_cell_angle_beta   90.00000000
_cell_angle_gamma   90.00000000
_symmetry_Int_Tables_number   1
_chemical_formula_structural   Li3Er(NO3)6
_chemical_formula_sum   'Li12 Er4 N24 O72'
_cell_volume   1483.51049101
_cell_formula_units_Z   4
loop_
 _symmetry_equiv_pos_site_id
 _symmetry_equiv_pos_as_xyz
  1  'x, y, z'
loop_
 _atom_site_type_symbol
 _atom_site_label
 _atom_site_symmetry_multiplicity
 _atom_site_fract_x
 _atom_site_fract_y
 _atom_site_fract_z
 _atom_site_occupancy
  Li  Li0  1  0.81517300  0.21304200  0.36444900  1
  Li  Li1  1  0.94043800  0.00145200  0.75464000  1
  Li  Li2  1  0.71128400  0.75720900  0.52467600  1
  Li  Li3  1  0.44043800  0.49854800  0.74536000  1
  Li  Li4  1  0.55956200  0.50145200  0.25464000  1
  Li  Li5  1  0.05956200  0.99854800  0.24536000  1
  Li  Li6  1  0.28871600  0.24279100  0.47532400  1
  Li  Li7  1  0.18482700  0.78695800  0.63555100  1
  Li  Li8  1  0.31517300  0.28695800  0.13555100  1
  Li  Li9  1  0.68482700  0.71304200  0.86444900  1
  Li  Li10  1  0.21128400  0.74279100  0.97532400  1
  Li  Li11  1  0.78871600  0.25720900  0.02467600  1
  Er  Er0  1  0.80475800  0.75659100  0.10943800  1
  Er  Er1  1  0.19524200  0.24340900  0.89056200  1
  Er  Er2  1  0.69524200  0.25659100  0.60943800  1
  Er  Er3  1  0.30475800  0.74340900  0.39056200  1
  N  N0  1  0.37744300  0.39546400  0.56437300  1
  N  N1  1  0.29897900  0.26442800  0.23536200  1
  N  N2  1  0.38300100  0.92826400  0.89402000  1
  N  N3  1  0.11699900  0.42826400  0.39402000  1
  N  N4  1  0.62255700  0.60453600  0.43562700  1
  N  N5  1  0.00296100  0.14852800  0.55440600  1
  N  N6  1  0.80203200  0.73940900  0.22782700  1
  N  N7  1  0.19796800  0.26059100  0.77217300  1
  N  N8  1  0.99619400  0.55096300  0.90220500  1
  N  N9  1  0.61699900  0.07173600  0.10598000  1
  N  N10  1  0.00380600  0.44903700  0.09779500  1
  N  N11  1  0.88300100  0.57173600  0.60598000  1
  N  N12  1  0.12255700  0.89546400  0.06437300  1
  N  N13  1  0.50296100  0.35147200  0.94559400  1
  N  N14  1  0.69796800  0.23940900  0.72782700  1
  N  N15  1  0.87744300  0.10453600  0.93562700  1
  N  N16  1  0.49619400  0.94903700  0.59779500  1
  N  N17  1  0.99703900  0.85147200  0.44559400  1
  N  N18  1  0.50380600  0.05096300  0.40220500  1
  N  N19  1  0.79897900  0.23557200  0.26463800  1
  N  N20  1  0.20102100  0.76442800  0.73536200  1
  N  N21  1  0.49703900  0.64852800  0.05440600  1
  N  N22  1  0.70102100  0.73557200  0.76463800  1
  N  N23  1  0.30203200  0.76059100  0.27217300  1
  O  O0  1  0.70381900  0.74521100  0.71415100  1
  O  O1  1  0.36169800  0.02896600  0.42984400  1
  O  O2  1  0.86240800  0.89307700  0.47061000  1
  O  O3  1  0.39675600  0.65408100  0.29955100  1
  O  O4  1  0.40204400  0.82421000  0.59017900  1
  O  O5  1  0.75752900  0.54826800  0.45663400  1
  O  O6  1  0.88904700  0.24890500  0.53307000  1
  O  O7  1  0.42529200  0.42473900  0.61267000  1
  O  O8  1  0.09795600  0.32421000  0.09017900  1
  O  O9  1  0.36240800  0.60692300  0.02939000  1
  O  O10  1  0.46684200  0.79502700  0.89935100  1
  O  O11  1  0.98091500  0.20297400  0.96371900  1
  O  O12  1  0.24016500  0.94786500  0.92129700  1
  O  O13  1  0.25983500  0.44786500  0.42129700  1
  O  O14  1  0.60798000  0.62514200  0.79053300  1
  O  O15  1  0.57086800  0.94942500  0.13685400  1
  O  O16  1  0.38904700  0.25109500  0.96693000  1
  O  O17  1  0.30027100  0.76919200  0.22225600  1
  O  O18  1  0.48091500  0.29702600  0.53628100  1
  O  O19  1  0.61095300  0.74890500  0.03307000  1
  O  O20  1  0.57470800  0.57526100  0.38733000  1
  O  O21  1  0.89202000  0.12514200  0.29053300  1
  O  O22  1  0.54076900  0.93804300  0.36771300  1
  O  O23  1  0.92913200  0.44942500  0.63685400  1
  O  O24  1  0.51908500  0.70297400  0.46371900  1
  O  O25  1  0.03315800  0.29502700  0.39935100  1
  O  O26  1  0.74016500  0.55213500  0.57870300  1
  O  O27  1  0.29618100  0.25478900  0.28584900  1
  O  O28  1  0.69972900  0.23080800  0.77774400  1
  O  O29  1  0.04076900  0.56195700  0.13228700  1
  O  O30  1  0.07470800  0.92473900  0.11267000  1
  O  O31  1  0.45923100  0.06195700  0.63228700  1
  O  O32  1  0.07086800  0.55057500  0.36314600  1
  O  O33  1  0.52855700  0.59336600  0.10260800  1
  O  O34  1  0.79201100  0.14111800  0.69799300  1
  O  O35  1  0.29201100  0.35888200  0.80200700  1
  O  O36  1  0.75983500  0.05213500  0.07870300  1
  O  O37  1  0.96684200  0.70497300  0.60064900  1
  O  O38  1  0.70798900  0.64111800  0.19799300  1
  O  O39  1  0.20980400  0.16500800  0.20526600  1
  O  O40  1  0.20798900  0.85888200  0.30200700  1
  O  O41  1  0.13759200  0.10692300  0.52939000  1
  O  O42  1  0.63759200  0.39307700  0.97061000  1
  O  O43  1  0.29019600  0.66500800  0.70526600  1
  O  O44  1  0.02855700  0.90663400  0.39739200  1
  O  O45  1  0.95923100  0.43804300  0.86771300  1
  O  O46  1  0.70980400  0.33499200  0.29473400  1
  O  O47  1  0.59795600  0.17579000  0.40982100  1
  O  O48  1  0.90204400  0.67579000  0.90982100  1
  O  O49  1  0.10798000  0.87485800  0.70946700  1
  O  O50  1  0.86169800  0.47103400  0.07015600  1
  O  O51  1  0.24247100  0.45173200  0.54336600  1
  O  O52  1  0.01908500  0.79702600  0.03628100  1
  O  O53  1  0.42913200  0.05057500  0.86314600  1
  O  O54  1  0.60324400  0.34591900  0.70044900  1
  O  O55  1  0.97144300  0.09336600  0.60260800  1
  O  O56  1  0.79618100  0.24521100  0.21415100  1
  O  O57  1  0.53315800  0.20497300  0.10064900  1
  O  O58  1  0.13830200  0.52896600  0.92984400  1
  O  O59  1  0.79019600  0.83499200  0.79473400  1
  O  O60  1  0.47144300  0.40663400  0.89739200  1
  O  O61  1  0.89675600  0.84591900  0.20044900  1
  O  O62  1  0.92529200  0.07526100  0.88733000  1
  O  O63  1  0.63830200  0.97103400  0.57015600  1
  O  O64  1  0.74247100  0.04826800  0.95663400  1
  O  O65  1  0.80027100  0.73080800  0.27774400  1
  O  O66  1  0.25752900  0.95173200  0.04336600  1
  O  O67  1  0.19972900  0.26919200  0.72225600  1
  O  O68  1  0.39202000  0.37485800  0.20946700  1
  O  O69  1  0.10324400  0.15408100  0.79955100  1
  O  O70  1  0.11095300  0.75109500  0.46693000  1
  O  O71  1  0.20381900  0.75478900  0.78584900  1
loop_
_geom_bond_atom_site_label_1
_geom_bond_atom_site_label_2
_geom_bond_distance
_geom_bond_site_symmetry_2
Li0 O25 1.987493 1_655
Li0 O47 2.017089 1_555
Li0 O21 2.037738 1_555
Li0 O46 2.107076 1_555
Li1 O49 1.977477 1_645
Li1 O59 1.994380 1_545
Li1 O69 2.066151 1_655
Li1 O34 2.093571 1_555
Li2 O2 2.048669 1_555
Li2 O26 2.088977 1_555
Li2 O63 2.118797 1_555
Li2 O24 2.143786 1_555
Li2 O5 2.395962 1_555
Li3 O14 1.977477 1_555
Li3 O43 1.994380 1_555
Li3 O54 2.066151 1_555
Li3 O35 2.093571 1_555
Li4 O68 1.977477 1_555
Li4 O46 1.994380 1_555
Li4 O3 2.066151 1_555
Li4 O38 2.093571 1_555
Li5 O21 1.977477 1_465
Li5 O39 1.994380 1_565
Li5 O61 2.066151 1_455
Li5 O40 2.093571 1_555
Li6 O41 2.048669 1_555
Li6 O13 2.088977 1_555
Li6 O1 2.118797 1_555
Li6 O18 2.143786 1_555
Li6 O51 2.395962 1_555
Li7 O37 1.987493 1_455
Li7 O4 2.017089 1_555
Li7 O49 2.037738 1_555
Li7 O43 2.107076 1_555
Li8 O57 1.987493 1_555
Li8 O8 2.017089 1_555
Li8 O68 2.037738 1_555
Li8 O39 2.107076 1_555
Li9 O10 1.987493 1_555
Li9 O48 2.017089 1_555
Li9 O14 2.037738 1_555
Li9 O59 2.107076 1_555
Li10 O9 2.048669 1_556
Li10 O12 2.088977 1_555
Li10 O58 2.118797 1_555
Li10 O52 2.143786 1_556
Li10 O66 2.395962 1_556
Li11 O42 2.048669 1_554
Li11 O36 2.088977 1_555
Li11 O50 2.118797 1_555
Li11 O11 2.143786 1_554
Li11 O64 2.395962 1_554
Er0 O19 2.387876 1_555
Er0 O29 2.432491 1_655
Er0 O52 2.445024 1_655
Er0 O38 2.453259 1_555
Er0 O15 2.453475 1_555
Er0 O61 2.453636 1_555
Er0 O30 2.458655 1_655
Er0 O36 2.470981 1_565
Er0 O33 2.483503 1_555
Er0 O50 2.512253 1_555
Er1 O16 2.387876 1_555
Er1 O45 2.432491 1_455
Er1 O11 2.445024 1_455
Er1 O35 2.453259 1_555
Er1 O53 2.453475 1_555
Er1 O69 2.453636 1_555
Er1 O62 2.458655 1_455
Er1 O12 2.470981 1_545
Er1 O60 2.483503 1_555
Er1 O58 2.512253 1_555
Er2 O6 2.387876 1_555
Er2 O31 2.432491 1_555
Er2 O18 2.445024 1_555
Er2 O34 2.453259 1_555
Er2 O23 2.453475 1_555
Er2 O54 2.453636 1_555
Er2 O7 2.458655 1_555
Er2 O26 2.470981 1_555
Er2 O55 2.483503 1_555
Er2 O63 2.512253 1_545
Er3 O70 2.387876 1_555
Er3 O22 2.432491 1_555
Er3 O24 2.445024 1_555
Er3 O40 2.453259 1_555
Er3 O32 2.453475 1_555
Er3 O3 2.453636 1_555
Er3 O20 2.458655 1_555
Er3 O13 2.470981 1_555
Er3 O44 2.483503 1_555
Er3 O1 2.512253 1_565
N0 O51 1.233011 1_555
N0 O7 1.263577 1_555
N0 O18 1.314002 1_555
N1 O27 1.237737 1_555
N1 O39 1.284250 1_555
N1 O68 1.286167 1_555
N2 O10 1.239978 1_555
N2 O53 1.268636 1_565
N2 O12 1.291039 1_555
N3 O25 1.239978 1_555
N3 O32 1.268636 1_555
N3 O13 1.291039 1_555
N4 O5 1.233011 1_555
N4 O20 1.263577 1_555
N4 O24 1.314002 1_555
N5 O41 1.245310 1_555
N5 O55 1.274599 1_455
N5 O6 1.284316 1_455
N6 O65 1.223352 1_555
N6 O61 1.290859 1_555
N6 O38 1.295220 1_555
N7 O67 1.223352 1_555
N7 O69 1.290859 1_555
N7 O35 1.295220 1_555
N8 O48 1.240047 1_555
N8 O45 1.273101 1_555
N8 O58 1.290344 1_655
N9 O57 1.239978 1_555
N9 O15 1.268636 1_545
N9 O36 1.291039 1_555
N10 O8 1.240047 1_555
N10 O29 1.273101 1_555
N10 O50 1.290344 1_455
N11 O37 1.239978 1_555
N11 O23 1.268636 1_555
N11 O26 1.291039 1_555
N12 O66 1.233011 1_555
N12 O30 1.263577 1_555
N12 O52 1.314002 1_555
N13 O42 1.245310 1_555
N13 O60 1.274599 1_555
N13 O16 1.284316 1_555
N14 O28 1.223352 1_555
N14 O54 1.290859 1_555
N14 O34 1.295220 1_555
N15 O64 1.233011 1_555
N15 O62 1.263577 1_555
N15 O11 1.314002 1_555
N16 O4 1.240047 1_555
N16 O31 1.273101 1_565
N16 O63 1.290344 1_555
N17 O2 1.245310 1_555
N17 O44 1.274599 1_655
N17 O70 1.284316 1_655
N18 O47 1.240047 1_555
N18 O22 1.273101 1_545
N18 O1 1.290344 1_555
N19 O56 1.237737 1_555
N19 O46 1.284250 1_555
N19 O21 1.286167 1_555
N20 O71 1.237737 1_555
N20 O43 1.284250 1_555
N20 O49 1.286167 1_555
N21 O9 1.245310 1_555
N21 O33 1.274599 1_555
N21 O19 1.284316 1_555
N22 O0 1.237737 1_555
N22 O59 1.284250 1_555
N22 O14 1.286167 1_555
N23 O17 1.223352 1_555
N23 O3 1.290859 1_555
N23 O40 1.295220 1_555
