# generated using pymatgen
data_Ca4Al6WO16
_symmetry_space_group_name_H-M   'P 1'
_cell_length_a   8.12001255
_cell_length_b   8.12001255
_cell_length_c   26.38657500
_cell_angle_alpha   90.00000000
_cell_angle_beta   90.00000000
_cell_angle_gamma   109.03108265
_symmetry_Int_Tables_number   1
_chemical_formula_structural   Ca4Al6WO16
_chemical_formula_sum   'Ca16 Al24 W4 O64'
_cell_volume   1644.69469866
_cell_formula_units_Z   4
loop_
 _symmetry_equiv_pos_site_id
 _symmetry_equiv_pos_as_xyz
  1  'x, y, z'
loop_
 _atom_site_type_symbol
 _atom_site_label
 _atom_site_symmetry_multiplicity
 _atom_site_fract_x
 _atom_site_fract_y
 _atom_site_fract_z
 _atom_site_occupancy
  Ca  Ca0  1  0.75994600  0.73268600  0.87985700  1
  Ca  Ca1  1  0.50993400  0.98662000  0.75003400  1
  Ca  Ca2  1  0.75439000  0.80606600  0.63836700  1
  Ca  Ca3  1  0.25994600  0.23268600  0.62014300  1
  Ca  Ca4  1  0.73268600  0.75994600  0.12014300  1
  Ca  Ca5  1  0.43663200  0.97168700  0.48321500  1
  Ca  Ca6  1  0.00993400  0.48662000  0.74996600  1
  Ca  Ca7  1  0.93663200  0.47168700  0.01678500  1
  Ca  Ca8  1  0.23268600  0.25994600  0.37985700  1
  Ca  Ca9  1  0.25439000  0.30606600  0.86163300  1
  Ca  Ca10  1  0.47168700  0.93663200  0.98321500  1
  Ca  Ca11  1  0.97168700  0.43663200  0.51678500  1
  Ca  Ca12  1  0.30606600  0.25439000  0.13836700  1
  Ca  Ca13  1  0.80606600  0.75439000  0.36163300  1
  Ca  Ca14  1  0.48662000  0.00993400  0.25003400  1
  Ca  Ca15  1  0.98662000  0.50993400  0.24996600  1
  Al  Al0  1  0.36293200  0.59052200  0.06284300  1
  Al  Al1  1  0.59052200  0.36293200  0.93715700  1
  Al  Al2  1  0.09052200  0.86293200  0.56284300  1
  Al  Al3  1  0.87431200  0.12361200  0.81465500  1
  Al  Al4  1  0.36010200  0.62880900  0.55950300  1
  Al  Al5  1  0.75366400  0.75917000  0.24338600  1
  Al  Al6  1  0.24314500  0.24314500  0.50000000  1
  Al  Al7  1  0.38593600  0.63731300  0.18996500  1
  Al  Al8  1  0.22840900  0.22840900  0.00000000  1
  Al  Al9  1  0.75917000  0.75366400  0.75661400  1
  Al  Al10  1  0.13731300  0.88593600  0.68996500  1
  Al  Al11  1  0.25917000  0.25366400  0.74338600  1
  Al  Al12  1  0.63731300  0.38593600  0.81003500  1
  Al  Al13  1  0.12361200  0.87431200  0.18534500  1
  Al  Al14  1  0.37431200  0.62361200  0.68534500  1
  Al  Al15  1  0.25366400  0.25917000  0.25661400  1
  Al  Al16  1  0.74314500  0.74314500  0.00000000  1
  Al  Al17  1  0.88593600  0.13731300  0.31003500  1
  Al  Al18  1  0.62361200  0.37431200  0.31465500  1
  Al  Al19  1  0.86293200  0.09052200  0.43715700  1
  Al  Al20  1  0.62880900  0.36010200  0.44049700  1
  Al  Al21  1  0.86010200  0.12880900  0.94049700  1
  Al  Al22  1  0.72840900  0.72840900  0.50000000  1
  Al  Al23  1  0.12880900  0.86010200  0.05950300  1
  W  W0  1  0.24098100  0.76157800  0.86358900  1
  W  W1  1  0.26157800  0.74098100  0.36358900  1
  W  W2  1  0.74098100  0.26157800  0.63641100  1
  W  W3  1  0.76157800  0.24098100  0.13641100  1
  O  O0  1  0.40278600  0.26646600  0.45315900  1
  O  O1  1  0.92465800  0.82889700  0.71235400  1
  O  O2  1  0.32889700  0.42465800  0.21235400  1
  O  O3  1  0.24664100  0.02234900  0.01663800  1
  O  O4  1  0.86276800  0.79324600  0.55431500  1
  O  O5  1  0.71934100  0.56877400  0.28001200  1
  O  O6  1  0.74664100  0.52234900  0.48336200  1
  O  O7  1  0.29478900  0.08380300  0.70887700  1
  O  O8  1  0.29324600  0.36276800  0.05431500  1
  O  O9  1  0.44603700  0.65738000  0.62177100  1
  O  O10  1  0.72925800  0.23112400  0.29121600  1
  O  O11  1  0.76612000  0.40486200  0.08895100  1
  O  O12  1  0.60285800  0.43155000  0.87360700  1
  O  O13  1  0.19614100  0.67557700  0.04637100  1
  O  O14  1  0.77653200  0.04830600  0.10569400  1
  O  O15  1  0.58380300  0.79478900  0.20887700  1
  O  O16  1  0.56877400  0.71934100  0.71998800  1
  O  O17  1  0.17557700  0.69614100  0.54637100  1
  O  O18  1  0.44373000  0.82586400  0.32089200  1
  O  O19  1  0.94373000  0.32586400  0.17910800  1
  O  O20  1  0.21934100  0.06877400  0.21998800  1
  O  O21  1  0.74884500  0.90174800  0.80519100  1
  O  O22  1  0.26612000  0.90486200  0.41104900  1
  O  O23  1  0.23266400  0.05099800  0.53266000  1
  O  O24  1  0.69614100  0.17557700  0.45362900  1
  O  O25  1  0.55099800  0.73266400  0.03266000  1
  O  O26  1  0.10285800  0.93155000  0.62639300  1
  O  O27  1  0.23112400  0.72925800  0.70878400  1
  O  O28  1  0.26646600  0.40278600  0.54684100  1
  O  O29  1  0.04830600  0.77653200  0.89430600  1
  O  O30  1  0.73112400  0.22925800  0.79121600  1
  O  O31  1  0.82586400  0.44373000  0.67910800  1
  O  O32  1  0.76646600  0.90278600  0.95315900  1
  O  O33  1  0.93155000  0.10285800  0.37360700  1
  O  O34  1  0.40174800  0.24884500  0.30519100  1
  O  O35  1  0.42465800  0.32889700  0.78764600  1
  O  O36  1  0.52234900  0.74664100  0.51663800  1
  O  O37  1  0.18916500  0.55568100  0.82913700  1
  O  O38  1  0.90174800  0.74884500  0.19480900  1
  O  O39  1  0.15738000  0.94603700  0.12177100  1
  O  O40  1  0.40486200  0.76612000  0.91104900  1
  O  O41  1  0.79478900  0.58380300  0.79112300  1
  O  O42  1  0.65738000  0.44603700  0.37822900  1
  O  O43  1  0.79324600  0.86276800  0.44568500  1
  O  O44  1  0.08380300  0.29478900  0.29112300  1
  O  O45  1  0.22925800  0.73112400  0.20878400  1
  O  O46  1  0.73266400  0.55099800  0.96734000  1
  O  O47  1  0.02234900  0.24664100  0.98336200  1
  O  O48  1  0.82889700  0.92465800  0.28764600  1
  O  O49  1  0.90486200  0.26612000  0.58895100  1
  O  O50  1  0.54830600  0.27653200  0.60569400  1
  O  O51  1  0.43155000  0.60285800  0.12639300  1
  O  O52  1  0.94603700  0.15738000  0.87822900  1
  O  O53  1  0.32586400  0.94373000  0.82089200  1
  O  O54  1  0.36276800  0.29324600  0.94568500  1
  O  O55  1  0.67557700  0.19614100  0.95362900  1
  O  O56  1  0.90278600  0.76646600  0.04684100  1
  O  O57  1  0.05099800  0.23266400  0.46734000  1
  O  O58  1  0.27653200  0.54830600  0.39430600  1
  O  O59  1  0.06877400  0.21934100  0.78001200  1
  O  O60  1  0.05568100  0.68916500  0.32913700  1
  O  O61  1  0.68916500  0.05568100  0.67086300  1
  O  O62  1  0.24884500  0.40174800  0.69480900  1
  O  O63  1  0.55568100  0.18916500  0.17086300  1
loop_
_geom_bond_atom_site_label_1
_geom_bond_atom_site_label_2
_geom_bond_distance
_geom_bond_site_symmetry_2
Ca0 O29 2.282763 1_655
Ca0 O12 2.366278 1_555
Ca0 O32 2.367267 1_555
Ca0 O21 2.419706 1_555
Ca0 O41 2.691973 1_555
Ca0 O46 2.709441 1_555
Ca0 O40 3.094341 1_555
Ca1 O53 2.347674 1_555
Ca1 O7 2.398563 1_565
Ca1 O30 2.445541 1_565
Ca1 O16 2.498662 1_555
Ca1 O61 2.502883 1_565
Ca1 O21 2.688586 1_555
Ca1 O27 2.755333 1_555
Ca2 O1 2.364332 1_555
Ca2 O4 2.400806 1_555
Ca2 O61 2.413309 1_565
Ca2 O9 2.438673 1_555
Ca2 O16 2.591099 1_555
Ca2 O26 2.695220 1_655
Ca3 O50 2.282763 1_555
Ca3 O26 2.366278 1_545
Ca3 O28 2.367267 1_555
Ca3 O62 2.419706 1_555
Ca3 O7 2.691973 1_555
Ca3 O23 2.709441 1_555
Ca3 O49 3.094341 1_455
Ca4 O14 2.282763 1_565
Ca4 O51 2.366278 1_555
Ca4 O56 2.367267 1_555
Ca4 O38 2.419706 1_555
Ca4 O15 2.691973 1_555
Ca4 O25 2.709441 1_555
Ca4 O11 3.094341 1_555
Ca5 O22 2.312468 1_555
Ca5 O36 2.330454 1_555
Ca5 O24 2.348531 1_565
Ca5 O23 2.357038 1_565
Ca5 O0 2.619710 1_565
Ca5 O17 3.030440 1_555
Ca6 O31 2.347674 1_455
Ca6 O41 2.398563 1_455
Ca6 O27 2.445541 1_555
Ca6 O59 2.498662 1_555
Ca6 O37 2.502883 1_555
Ca6 O62 2.688586 1_555
Ca6 O30 2.755333 1_455
Ca7 O11 2.312468 1_555
Ca7 O47 2.330454 1_654
Ca7 O13 2.348531 1_655
Ca7 O46 2.357038 1_554
Ca7 O56 2.619710 1_555
Ca7 O55 3.030440 1_554
Ca8 O58 2.282763 1_555
Ca8 O33 2.366278 1_455
Ca8 O0 2.367267 1_555
Ca8 O34 2.419706 1_555
Ca8 O44 2.691973 1_555
Ca8 O57 2.709441 1_555
Ca8 O22 3.094341 1_545
Ca9 O35 2.364332 1_555
Ca9 O54 2.400806 1_555
Ca9 O37 2.413309 1_555
Ca9 O52 2.438673 1_455
Ca9 O59 2.591099 1_555
Ca9 O12 2.695220 1_555
Ca10 O40 2.312468 1_555
Ca10 O3 2.330454 1_566
Ca10 O55 2.348531 1_565
Ca10 O25 2.357038 1_556
Ca10 O32 2.619710 1_555
Ca10 O13 3.030440 1_556
Ca11 O49 2.312468 1_555
Ca11 O6 2.330454 1_555
Ca11 O17 2.348531 1_655
Ca11 O57 2.357038 1_655
Ca11 O28 2.619710 1_655
Ca11 O24 3.030440 1_555
Ca12 O2 2.364332 1_555
Ca12 O8 2.400806 1_555
Ca12 O63 2.413309 1_555
Ca12 O39 2.438673 1_545
Ca12 O20 2.591099 1_555
Ca12 O51 2.695220 1_555
Ca13 O48 2.364332 1_555
Ca13 O43 2.400806 1_555
Ca13 O60 2.413309 1_655
Ca13 O42 2.438673 1_555
Ca13 O5 2.591099 1_555
Ca13 O33 2.695220 1_565
Ca14 O18 2.347674 1_545
Ca14 O15 2.398563 1_545
Ca14 O10 2.445541 1_555
Ca14 O20 2.498662 1_555
Ca14 O63 2.502883 1_555
Ca14 O34 2.688586 1_555
Ca14 O45 2.755333 1_545
Ca15 O19 2.347674 1_555
Ca15 O44 2.398563 1_655
Ca15 O45 2.445541 1_655
Ca15 O5 2.498662 1_555
Ca15 O60 2.502883 1_655
Ca15 O38 2.688586 1_555
Ca15 O10 2.755333 1_555
Al0 O51 1.759536 1_555
Al0 O8 1.763097 1_555
Al0 O13 1.763568 1_555
Al0 O25 1.774545 1_555
Al1 O12 1.759536 1_555
Al1 O54 1.763097 1_555
Al1 O55 1.763568 1_555
Al1 O46 1.774545 1_555
Al2 O26 1.759536 1_555
Al2 O4 1.763097 1_455
Al2 O17 1.763568 1_555
Al2 O23 1.774545 1_565
Al3 O30 1.766558 1_555
Al3 O52 1.767553 1_555
Al3 O59 1.769943 1_655
Al3 O21 1.774505 1_545
Al4 O36 1.763053 1_555
Al4 O9 1.770520 1_555
Al4 O28 1.774270 1_555
Al4 O17 1.788373 1_555
Al5 O48 1.734202 1_555
Al5 O15 1.753669 1_555
Al5 O5 1.766590 1_555
Al5 O38 1.778091 1_555
Al6 O0 1.756064 1_555
Al6 O28 1.756064 1_555
Al6 O57 1.760016 1_555
Al6 O23 1.760016 1_555
Al7 O2 1.738865 1_555
Al7 O45 1.754258 1_555
Al7 O51 1.759793 1_555
Al7 O15 1.767963 1_555
Al8 O54 1.773946 1_554
Al8 O8 1.773946 1_555
Al8 O3 1.782087 1_555
Al8 O47 1.782087 1_554
Al9 O1 1.734202 1_555
Al9 O41 1.753669 1_555
Al9 O16 1.766590 1_555
Al9 O21 1.778091 1_555
Al10 O1 1.738865 1_455
Al10 O27 1.754258 1_555
Al10 O26 1.759793 1_555
Al10 O7 1.767963 1_565
Al11 O35 1.734202 1_555
Al11 O7 1.753669 1_555
Al11 O59 1.766590 1_555
Al11 O62 1.778091 1_555
Al12 O35 1.738865 1_555
Al12 O30 1.754258 1_555
Al12 O12 1.759793 1_555
Al12 O41 1.767963 1_555
Al13 O45 1.766558 1_555
Al13 O39 1.767553 1_555
Al13 O20 1.769943 1_565
Al13 O38 1.774505 1_455
Al14 O27 1.766558 1_555
Al14 O9 1.767553 1_555
Al14 O16 1.769943 1_555
Al14 O62 1.774505 1_555
Al15 O2 1.734202 1_555
Al15 O44 1.753669 1_555
Al15 O20 1.766590 1_555
Al15 O34 1.778091 1_555
Al16 O56 1.756064 1_555
Al16 O32 1.756064 1_554
Al16 O25 1.760016 1_555
Al16 O46 1.760016 1_554
Al17 O48 1.738865 1_545
Al17 O10 1.754258 1_555
Al17 O33 1.759793 1_555
Al17 O44 1.767963 1_655
Al18 O10 1.766558 1_555
Al18 O42 1.767553 1_555
Al18 O5 1.769943 1_555
Al18 O34 1.774505 1_555
Al19 O33 1.759536 1_555
Al19 O43 1.763097 1_545
Al19 O24 1.763568 1_555
Al19 O57 1.774545 1_655
Al20 O6 1.763053 1_555
Al20 O42 1.770520 1_555
Al20 O0 1.774270 1_555
Al20 O24 1.788373 1_555
Al21 O47 1.763053 1_655
Al21 O52 1.770520 1_555
Al21 O32 1.774270 1_545
Al21 O55 1.788373 1_555
Al22 O4 1.773946 1_555
Al22 O43 1.773946 1_555
Al22 O6 1.782087 1_555
Al22 O36 1.782087 1_555
Al23 O3 1.763053 1_565
Al23 O39 1.770520 1_555
Al23 O56 1.774270 1_455
Al23 O13 1.788373 1_555
O11 W3 1.818909 1_555
O14 W3 1.800919 1_555
O18 W1 1.807533 1_555
O19 W3 1.807533 1_555
O22 W1 1.818909 1_555
O29 W0 1.800919 1_555
O31 W2 1.807533 1_555
O37 W0 1.827535 1_555
O40 W0 1.818909 1_555
O49 W2 1.818909 1_555
O50 W2 1.800919 1_555
O53 W0 1.807533 1_555
O58 W1 1.800919 1_555
O60 W1 1.827535 1_555
O61 W2 1.827535 1_555
O63 W3 1.827535 1_555
