# generated using pymatgen
data_KTeO2F
_symmetry_space_group_name_H-M   'P 1'
_cell_length_a   15.26837200
_cell_length_b   6.34961900
_cell_length_c   13.24373501
_cell_angle_alpha   65.66069565
_cell_angle_beta   90.00000000
_cell_angle_gamma   90.00000000
_symmetry_Int_Tables_number   1
_chemical_formula_structural   KTeO2F
_chemical_formula_sum   'K12 Te12 O24 F12'
_cell_volume   1169.84097101
_cell_formula_units_Z   12
loop_
 _symmetry_equiv_pos_site_id
 _symmetry_equiv_pos_as_xyz
  1  'x, y, z'
loop_
 _atom_site_type_symbol
 _atom_site_label
 _atom_site_symmetry_multiplicity
 _atom_site_fract_x
 _atom_site_fract_y
 _atom_site_fract_z
 _atom_site_occupancy
  K  K0  1  0.68452400  0.79305100  0.98533200  1
  K  K1  1  0.31498000  0.84054200  0.36802000  1
  K  K2  1  0.18502000  0.84054200  0.86802000  1
  K  K3  1  0.81498000  0.15945800  0.13198000  1
  K  K4  1  0.92872200  0.33746400  0.39895200  1
  K  K5  1  0.68502000  0.15945800  0.63198000  1
  K  K6  1  0.18452400  0.20694900  0.51466800  1
  K  K7  1  0.42872200  0.66253600  0.10104800  1
  K  K8  1  0.57127800  0.33746400  0.89895200  1
  K  K9  1  0.07127800  0.66253600  0.60104800  1
  K  K10  1  0.81547600  0.79305100  0.48533200  1
  K  K11  1  0.31547600  0.20694900  0.01466800  1
  Te  Te0  1  0.55127200  0.08197200  0.21795500  1
  Te  Te1  1  0.44872800  0.91802800  0.78204500  1
  Te  Te2  1  0.81573000  0.42653100  0.80257200  1
  Te  Te3  1  0.68427000  0.42653100  0.30257200  1
  Te  Te4  1  0.03843100  0.31930800  0.90681100  1
  Te  Te5  1  0.46156900  0.31930800  0.40681100  1
  Te  Te6  1  0.94872800  0.08197200  0.71795500  1
  Te  Te7  1  0.05127200  0.91802800  0.28204500  1
  Te  Te8  1  0.31573000  0.57346900  0.69742800  1
  Te  Te9  1  0.18427000  0.57346900  0.19742800  1
  Te  Te10  1  0.96156900  0.68069200  0.09318900  1
  Te  Te11  1  0.53843100  0.68069200  0.59318900  1
  O  O0  1  0.02354600  0.16058100  0.59903200  1
  O  O1  1  0.46896100  0.63124300  0.31616400  1
  O  O2  1  0.39362200  0.61591200  0.81985900  1
  O  O3  1  0.25481600  0.82193500  0.17791800  1
  O  O4  1  0.95093900  0.81738600  0.19876900  1
  O  O5  1  0.24518400  0.82193500  0.67791800  1
  O  O6  1  0.97645400  0.83941900  0.40096800  1
  O  O7  1  0.52354600  0.83941900  0.90096800  1
  O  O8  1  0.09809500  0.73416900  0.08223000  1
  O  O9  1  0.90190500  0.26583100  0.91777000  1
  O  O10  1  0.53103900  0.36875700  0.68383600  1
  O  O11  1  0.45093900  0.18261400  0.30123100  1
  O  O12  1  0.60637800  0.38408800  0.18014100  1
  O  O13  1  0.47645400  0.16058100  0.09903200  1
  O  O14  1  0.40190500  0.73416900  0.58223000  1
  O  O15  1  0.96896100  0.36875700  0.18383600  1
  O  O16  1  0.54906100  0.81738600  0.69876900  1
  O  O17  1  0.74518400  0.17806500  0.82208200  1
  O  O18  1  0.03103900  0.63124300  0.81616400  1
  O  O19  1  0.10637800  0.61591200  0.31985900  1
  O  O20  1  0.59809500  0.26583100  0.41777000  1
  O  O21  1  0.04906100  0.18261400  0.80123100  1
  O  O22  1  0.89362200  0.38408800  0.68014100  1
  O  O23  1  0.75481600  0.17806500  0.32208200  1
  F  F0  1  0.25759800  0.53059400  0.06934500  1
  F  F1  1  0.24240200  0.53059400  0.56934500  1
  F  F2  1  0.17696300  0.34046700  0.88949600  1
  F  F3  1  0.75759800  0.46940600  0.43065500  1
  F  F4  1  0.74240200  0.46940600  0.93065500  1
  F  F5  1  0.32303700  0.34046700  0.38949600  1
  F  F6  1  0.14830500  0.98383800  0.38334200  1
  F  F7  1  0.82303700  0.65953300  0.11050400  1
  F  F8  1  0.85169500  0.01616200  0.61665800  1
  F  F9  1  0.35169500  0.98383800  0.88334200  1
  F  F10  1  0.64830500  0.01616200  0.11665800  1
  F  F11  1  0.67696300  0.65953300  0.61050400  1
loop_
_geom_bond_atom_site_label_1
_geom_bond_atom_site_label_2
_geom_bond_distance
_geom_bond_site_symmetry_2
K0 O7 2.665523 1_555
K0 O17 2.674322 1_565
K0 O12 3.049725 1_556
K1 O3 2.727929 1_555
K1 O11 2.868051 1_565
K1 O1 2.918477 1_555
K1 O14 2.947280 1_555
K2 O5 2.727929 1_555
K2 O21 2.868051 1_565
K2 O18 2.918477 1_555
K2 O8 2.947280 1_556
K3 O23 2.727929 1_555
K3 O4 2.868051 1_545
K3 O15 2.918477 1_555
K3 O9 2.947280 1_554
K4 O0 2.815302 1_655
K4 O15 2.840211 1_555
K4 O4 3.125799 1_555
K4 O23 3.156034 1_555
K4 O19 3.170864 1_655
K4 O6 3.234656 1_545
K4 O6 3.280302 1_555
K5 O17 2.727929 1_555
K5 O16 2.868051 1_545
K5 O10 2.918477 1_555
K5 O20 2.947280 1_555
K6 O0 2.665523 1_555
K6 O5 2.674322 1_545
K6 O19 3.049725 1_555
K7 O7 2.815302 1_554
K7 O1 2.840211 1_555
K7 O11 3.125799 1_555
K7 O3 3.156034 1_555
K7 O12 3.170864 1_555
K7 O13 3.234656 1_565
K7 O13 3.280302 1_555
K8 O13 2.815302 1_556
K8 O10 2.840211 1_555
K8 O16 3.125799 1_555
K8 O17 3.156034 1_555
K8 O2 3.170864 1_555
K8 O7 3.234656 1_545
K8 O7 3.280302 1_555
K9 O6 2.815302 1_455
K9 O18 2.840211 1_555
K9 O21 3.125799 1_555
K9 O5 3.156034 1_555
K9 O22 3.170864 1_455
K9 O0 3.234656 1_565
K9 O0 3.280302 1_555
K10 O6 2.665523 1_555
K10 O23 2.674322 1_565
K10 O22 3.049725 1_555
K11 O13 2.665523 1_555
K11 O3 2.674322 1_545
K11 O2 3.049725 1_554
O0 Te6 1.840294 1_455
O1 Te5 1.848520 1_555
O2 Te1 1.961325 1_555
O2 Te8 2.115725 1_555
O3 Te9 1.838469 1_555
O4 Te10 1.932675 1_555
O4 Te7 2.133647 1_655
O5 Te8 1.838469 1_555
O6 Te7 1.840294 1_655
O7 Te1 1.840294 1_555
O8 Te9 1.953664 1_555
O8 Te10 2.107370 1_455
O9 Te2 1.953664 1_555
O9 Te4 2.107370 1_655
O10 Te11 1.848520 1_555
O11 Te5 1.932675 1_555
O11 Te0 2.133647 1_555
O12 Te0 1.961325 1_555
O12 Te3 2.115725 1_555
O13 Te0 1.840294 1_555
O14 Te8 1.953664 1_555
O14 Te11 2.107370 1_555
O15 Te10 1.848520 1_555
O16 Te11 1.932675 1_555
O16 Te1 2.133647 1_555
O17 Te2 1.838469 1_555
O18 Te4 1.848520 1_555
O19 Te7 1.961325 1_555
O19 Te9 2.115725 1_555
O20 Te3 1.953664 1_555
O20 Te5 2.107370 1_555
O21 Te4 1.932675 1_555
O21 Te6 2.133647 1_455
O22 Te6 1.961325 1_555
O22 Te2 2.115725 1_555
O23 Te3 1.838469 1_555
F0 Te9 2.141423 1_555
F0 K11 2.599042 1_555
F0 K2 2.808028 1_554
F0 K7 2.827500 1_555
F1 Te8 2.141423 1_555
F1 K6 2.599042 1_555
F1 K1 2.808028 1_555
F1 K9 2.827500 1_555
F2 Te4 2.125826 1_555
F2 K11 2.604050 1_556
F2 K2 3.071489 1_555
F2 K2 3.304031 1_545
F3 Te3 2.141423 1_555
F3 K10 2.599042 1_555
F3 K5 2.808028 1_555
F3 K4 2.827500 1_555
F4 Te2 2.141423 1_555
F4 K0 2.599042 1_555
F4 K3 2.808028 1_556
F4 K8 2.827500 1_555
F5 Te5 2.125826 1_555
F5 K6 2.604050 1_555
F5 K1 3.071489 1_555
F5 K1 3.304031 1_545
F6 Te7 2.152070 1_555
F6 K6 2.714539 1_565
F6 K1 2.738162 1_555
F6 K9 3.001638 1_555
F7 Te10 2.125826 1_555
F7 K0 2.604050 1_554
F7 K3 3.071489 1_555
F7 K3 3.304031 1_565
F8 Te6 2.152070 1_555
F8 K10 2.714539 1_545
F8 K5 2.738162 1_555
F8 K4 3.001638 1_555
F9 Te1 2.152070 1_555
F9 K11 2.714539 1_566
F9 K2 2.738162 1_555
F9 K7 3.001638 1_556
F10 Te0 2.152070 1_555
F10 K0 2.714539 1_544
F10 K3 2.738162 1_555
F10 K8 3.001638 1_554
F11 Te11 2.125826 1_555
F11 K10 2.604050 1_555
F11 K5 3.071489 1_555
F11 K5 3.304031 1_565
