# generated using pymatgen
data_Co2Mo3N
_symmetry_space_group_name_H-M   'P 1'
_cell_length_a   6.66791800
_cell_length_b   6.66791800
_cell_length_c   6.66791800
_cell_angle_alpha   90.00000000
_cell_angle_beta   90.00000000
_cell_angle_gamma   90.00000000
_symmetry_Int_Tables_number   1
_chemical_formula_structural   Co2Mo3N
_chemical_formula_sum   'Co8 Mo12 N4'
_cell_volume   296.46317206
_cell_formula_units_Z   4
loop_
 _symmetry_equiv_pos_site_id
 _symmetry_equiv_pos_as_xyz
  1  'x, y, z'
loop_
 _atom_site_type_symbol
 _atom_site_label
 _atom_site_symmetry_multiplicity
 _atom_site_fract_x
 _atom_site_fract_y
 _atom_site_fract_z
 _atom_site_occupancy
  Co  Co0  1  0.06901000  0.06901000  0.06901000  1
  Co  Co1  1  0.31901000  0.18099000  0.81901000  1
  Co  Co2  1  0.81901000  0.31901000  0.18099000  1
  Co  Co3  1  0.18099000  0.81901000  0.31901000  1
  Co  Co4  1  0.43099000  0.93099000  0.56901000  1
  Co  Co5  1  0.56901000  0.43099000  0.93099000  1
  Co  Co6  1  0.93099000  0.56901000  0.43099000  1
  Co  Co7  1  0.68099000  0.68099000  0.68099000  1
  Mo  Mo0  1  0.12500000  0.20140100  0.45140100  1
  Mo  Mo1  1  0.37500000  0.79859900  0.95140100  1
  Mo  Mo2  1  0.87500000  0.70140100  0.04859900  1
  Mo  Mo3  1  0.20140100  0.45140100  0.12500000  1
  Mo  Mo4  1  0.79859900  0.95140100  0.37500000  1
  Mo  Mo5  1  0.04859900  0.87500000  0.70140100  1
  Mo  Mo6  1  0.45140100  0.12500000  0.20140100  1
  Mo  Mo7  1  0.29859900  0.54859900  0.62500000  1
  Mo  Mo8  1  0.95140100  0.37500000  0.79859900  1
  Mo  Mo9  1  0.54859900  0.62500000  0.29859900  1
  Mo  Mo10  1  0.70140100  0.04859900  0.87500000  1
  Mo  Mo11  1  0.62500000  0.29859900  0.54859900  1
  N  N0  1  0.37500000  0.37500000  0.37500000  1
  N  N1  1  0.62500000  0.87500000  0.12500000  1
  N  N2  1  0.12500000  0.62500000  0.87500000  1
  N  N3  1  0.87500000  0.12500000  0.62500000  1
loop_
_geom_bond_atom_site_label_1
_geom_bond_atom_site_label_2
_geom_bond_distance
_geom_bond_site_symmetry_2
Co0 Co3 2.472885 1_545
Co0 Co2 2.472885 1_455
Co0 Co1 2.472885 1_554
Co0 Mo0 2.723950 1_555
Co0 Mo6 2.723950 1_555
Co0 Mo3 2.723950 1_555
Co0 Mo10 2.774951 1_454
Co0 Mo2 2.774951 1_445
Co0 Mo5 2.774951 1_544
Co0 Mo1 2.833542 1_544
Co0 Mo4 2.833542 1_445
Co0 Mo8 2.833542 1_454
Co1 Co4 2.472885 1_545
Co1 Co5 2.472885 1_555
Co1 Mo10 2.723950 1_555
Co1 Mo1 2.723950 1_545
Co1 Mo6 2.723950 1_556
Co1 Mo7 2.774951 1_555
Co1 Mo0 2.774951 1_555
Co1 Mo8 2.774951 1_455
Co1 Mo3 2.833542 1_556
Co1 Mo11 2.833542 1_555
Co1 Mo5 2.833542 1_545
Co2 Co5 2.472885 1_554
Co2 Co6 2.472885 1_555
Co2 Mo2 2.723950 1_555
Co2 Mo8 2.723950 1_554
Co2 Mo3 2.723950 1_655
Co2 Mo11 2.774951 1_555
Co2 Mo6 2.774951 1_555
Co2 Mo4 2.774951 1_545
Co2 Mo0 2.833542 1_655
Co2 Mo9 2.833542 1_555
Co2 Mo10 2.833542 1_554
Co3 Co6 2.472885 1_455
Co3 Co4 2.472885 1_555
Co3 Mo5 2.723950 1_555
Co3 Mo4 2.723950 1_455
Co3 Mo0 2.723950 1_565
Co3 Mo9 2.774951 1_555
Co3 Mo3 2.774951 1_555
Co3 Mo1 2.774951 1_554
Co3 Mo6 2.833542 1_565
Co3 Mo7 2.833542 1_555
Co3 Mo2 2.833542 1_455
Co4 Co7 2.472885 1_555
Co4 Mo1 2.723950 1_555
Co4 Mo7 2.723950 1_555
Co4 Mo5 2.723950 1_555
Co4 Mo4 2.774951 1_555
Co4 Mo11 2.774951 1_565
Co4 Mo6 2.774951 1_565
Co4 Mo10 2.833542 1_565
Co4 Mo0 2.833542 1_565
Co4 Mo9 2.833542 1_555
Co5 Co7 2.472885 1_555
Co5 Mo8 2.723950 1_555
Co5 Mo11 2.723950 1_555
Co5 Mo10 2.723950 1_555
Co5 Mo1 2.774951 1_555
Co5 Mo9 2.774951 1_556
Co5 Mo3 2.774951 1_556
Co5 Mo2 2.833542 1_556
Co5 Mo6 2.833542 1_556
Co5 Mo7 2.833542 1_555
Co6 Co7 2.472885 1_555
Co6 Mo4 2.723950 1_555
Co6 Mo9 2.723950 1_555
Co6 Mo2 2.723950 1_555
Co6 Mo8 2.774951 1_555
Co6 Mo7 2.774951 1_655
Co6 Mo0 2.774951 1_655
Co6 Mo5 2.833542 1_655
Co6 Mo3 2.833542 1_655
Co6 Mo11 2.833542 1_555
Co7 Mo11 2.723950 1_555
Co7 Mo7 2.723950 1_555
Co7 Mo9 2.723950 1_555
Co7 Mo2 2.774951 1_556
Co7 Mo5 2.774951 1_655
Co7 Mo10 2.774951 1_565
Co7 Mo8 2.833542 1_555
Co7 Mo4 2.833542 1_555
Co7 Mo1 2.833542 1_555
Mo0 N3 2.092428 1_455
Mo0 N0 2.092428 1_555
Mo1 N2 2.092428 1_555
Mo1 N1 2.092428 1_556
Mo2 N2 2.092428 1_654
Mo2 N1 2.092428 1_555
Mo3 N2 2.092428 1_554
Mo3 N0 2.092428 1_555
Mo4 N1 2.092428 1_555
Mo4 N3 2.092428 1_565
Mo5 N3 2.092428 1_465
Mo5 N2 2.092428 1_555
Mo6 N1 2.092428 1_545
Mo6 N0 2.092428 1_555
Mo7 N2 2.092428 1_555
Mo7 N0 2.092428 1_555
Mo8 N3 2.092428 1_555
Mo8 N2 2.092428 1_655
Mo9 N1 2.092428 1_555
Mo9 N0 2.092428 1_555
Mo10 N1 2.092428 1_546
Mo10 N3 2.092428 1_555
Mo11 N0 2.092428 1_555
Mo11 N3 2.092428 1_555
