# generated using pymatgen
data_Li2Ta2(OF2)3
_symmetry_space_group_name_H-M   'P 1'
_cell_length_a   5.67194075
_cell_length_b   5.67194075
_cell_length_c   21.27847600
_cell_angle_alpha   90.00000000
_cell_angle_beta   90.00000000
_cell_angle_gamma   120.00000880
_symmetry_Int_Tables_number   1
_chemical_formula_structural   Li2Ta2(OF2)3
_chemical_formula_sum   'Li6 Ta6 O9 F18'
_cell_volume   592.83588583
_cell_formula_units_Z   3
loop_
 _symmetry_equiv_pos_site_id
 _symmetry_equiv_pos_as_xyz
  1  'x, y, z'
loop_
 _atom_site_type_symbol
 _atom_site_label
 _atom_site_symmetry_multiplicity
 _atom_site_fract_x
 _atom_site_fract_y
 _atom_site_fract_z
 _atom_site_occupancy
  Li  Li0  1  0.44700300  0.45286800  0.14199300  1
  Li  Li1  1  0.99413600  0.54713200  0.52467300  1
  Li  Li2  1  0.45286800  0.44700300  0.85800700  1
  Li  Li3  1  0.54713200  0.99413600  0.47532700  1
  Li  Li4  1  0.55299700  0.00586400  0.19134000  1
  Li  Li5  1  0.00586400  0.55299700  0.80866000  1
  Ta  Ta0  1  0.78006400  0.11205000  0.04558800  1
  Ta  Ta1  1  0.66801400  0.88795000  0.62107900  1
  Ta  Ta2  1  0.21993600  0.33198600  0.28774600  1
  Ta  Ta3  1  0.88795000  0.66801400  0.37892100  1
  Ta  Ta4  1  0.33198600  0.21993600  0.71225400  1
  Ta  Ta5  1  0.11205000  0.78006400  0.95441200  1
  O  O0  1  0.09795200  0.00000000  0.33333300  1
  O  O1  1  0.90204800  0.90204800  0.00000000  1
  O  O2  1  0.50628400  0.58074700  0.67512900  1
  O  O3  1  0.58074700  0.50628400  0.32487100  1
  O  O4  1  0.41925300  0.92553700  0.00846300  1
  O  O5  1  0.00000000  0.09795200  0.66666700  1
  O  O6  1  0.92553700  0.41925300  0.99153700  1
  O  O7  1  0.07446300  0.49371600  0.34179600  1
  O  O8  1  0.49371600  0.07446300  0.65820400  1
  F  F0  1  0.36304100  0.70614800  0.55799400  1
  F  F1  1  0.15852400  0.87926100  0.76179300  1
  F  F2  1  0.27926400  0.12073900  0.90487400  1
  F  F3  1  0.83248200  0.63499600  0.88321500  1
  F  F4  1  0.65689300  0.29385200  0.10867300  1
  F  F5  1  0.63499600  0.83248200  0.11678500  1
  F  F6  1  0.19748600  0.36500400  0.78345200  1
  F  F7  1  0.16751800  0.80251400  0.45011800  1
  F  F8  1  0.63695900  0.34310700  0.77533900  1
  F  F9  1  0.72073600  0.84147600  0.42846000  1
  F  F10  1  0.36500400  0.19748600  0.21654800  1
  F  F11  1  0.12073900  0.27926400  0.09512600  1
  F  F12  1  0.87926100  0.15852400  0.23820700  1
  F  F13  1  0.34310700  0.63695900  0.22466100  1
  F  F14  1  0.29385200  0.65689300  0.89132700  1
  F  F15  1  0.70614800  0.36304100  0.44200600  1
  F  F16  1  0.80251400  0.16751800  0.54988200  1
  F  F17  1  0.84147600  0.72073600  0.57154000  1
loop_
_geom_bond_atom_site_label_1
_geom_bond_atom_site_label_2
_geom_bond_distance
_geom_bond_site_symmetry_2
O0 Ta2 1.913774 1_555
O0 Ta3 1.913785 1_445
O1 Ta5 1.913785 1_654
O1 Ta0 1.913785 1_565
O2 Ta1 1.897874 1_555
O2 Ta4 1.940711 1_555
O3 Ta3 1.897874 1_555
O3 Ta2 1.940711 1_555
O4 Ta5 1.897887 1_554
O4 Ta0 1.940711 1_565
O5 Ta4 1.913774 1_555
O5 Ta1 1.913785 1_445
O6 Ta0 1.897887 1_556
O6 Ta5 1.940711 1_655
O7 Ta2 1.897874 1_555
O7 Ta3 1.940711 1_455
O8 Ta4 1.897874 1_555
O8 Ta1 1.940711 1_545
F0 Li1 1.951192 1_455
F0 Ta1 2.018337 1_555
F0 Li3 2.268705 1_555
F1 Li5 1.888506 1_555
F1 Ta4 1.977821 1_565
F2 Li2 1.888506 1_555
F2 Ta5 1.977809 1_545
F3 Li2 1.940323 1_555
F3 Li5 2.038997 1_655
F3 Ta5 2.044952 1_655
F4 Li0 1.951189 1_555
F4 Ta0 2.018337 1_555
F4 Li4 2.268706 1_555
F5 Li0 1.940323 1_555
F5 Li4 2.038997 1_565
F5 Ta0 2.044952 1_565
F6 Li5 1.940328 1_555
F6 Li2 2.039000 1_555
F6 Ta4 2.044968 1_555
F7 Li3 1.940329 1_555
F7 Li1 2.039000 1_455
F7 Ta3 2.044952 1_455
F8 Li5 1.951192 1_655
F8 Ta4 2.018337 1_555
F8 Li2 2.268719 1_555
F9 Li3 1.888506 1_555
F9 Ta3 1.977825 1_555
F10 Li4 1.940328 1_555
F10 Li0 2.039000 1_555
F10 Ta2 2.044968 1_555
F11 Li0 1.888506 1_555
F11 Ta0 1.977809 1_455
F12 Li4 1.888506 1_555
F12 Ta2 1.977821 1_655
F13 Li4 1.951192 1_565
F13 Ta2 2.018337 1_555
F13 Li0 2.268719 1_555
F14 Li2 1.951189 1_555
F14 Ta5 2.018337 1_555
F14 Li5 2.268706 1_555
F15 Li3 1.951192 1_545
F15 Ta3 2.018337 1_555
F15 Li1 2.268705 1_555
F16 Li1 1.940329 1_555
F16 Li3 2.039000 1_545
F16 Ta1 2.044952 1_545
F17 Li1 1.888506 1_555
F17 Ta1 1.977825 1_555
