# generated using pymatgen
data_KIO3
_symmetry_space_group_name_H-M   'P 1'
_cell_length_a   4.20026300
_cell_length_b   4.20026300
_cell_length_c   4.20026300
_cell_angle_alpha   90.00000000
_cell_angle_beta   90.00000000
_cell_angle_gamma   90.00000000
_symmetry_Int_Tables_number   1
_chemical_formula_structural   KIO3
_chemical_formula_sum   'K1 I1 O3'
_cell_volume   74.10191883
_cell_formula_units_Z   1
loop_
 _symmetry_equiv_pos_site_id
 _symmetry_equiv_pos_as_xyz
  1  'x, y, z'
loop_
 _atom_site_type_symbol
 _atom_site_label
 _atom_site_symmetry_multiplicity
 _atom_site_fract_x
 _atom_site_fract_y
 _atom_site_fract_z
 _atom_site_occupancy
  K  K0  1  0.00000000  0.00000000  0.00000000  1
  I  I0  1  0.50000000  0.50000000  0.50000000  1
  O  O0  1  0.50000000  0.00000000  0.50000000  1
  O  O1  1  0.50000000  0.50000000  0.00000000  1
  O  O2  1  0.00000000  0.50000000  0.50000000  1
loop_
_geom_bond_atom_site_label_1
_geom_bond_atom_site_label_2
_geom_bond_distance
_geom_bond_site_symmetry_2
K0 O1 2.970034 1_445
K0 O2 2.970034 1_544
K0 O0 2.970034 1_554
K0 O2 2.970034 1_545
K0 O1 2.970034 1_455
K0 O0 2.970034 1_454
K0 O1 2.970034 1_555
K0 O0 2.970034 1_555
K0 O2 2.970034 1_555
K0 O2 2.970034 1_554
K0 O1 2.970034 1_545
K0 O0 2.970034 1_455
I0 O2 2.100131 1_555
I0 O2 2.100131 1_655
I0 O1 2.100131 1_556
I0 O1 2.100131 1_555
I0 O0 2.100131 1_555
I0 O0 2.100131 1_565
