# generated using pymatgen
data_Sr10Al4Si6O
_symmetry_space_group_name_H-M   'P 1'
_cell_length_a   11.66225003
_cell_length_b   11.66225003
_cell_length_c   11.66225003
_cell_angle_alpha   156.06332352
_cell_angle_beta   110.11897042
_cell_angle_gamma   75.05065142
_symmetry_Int_Tables_number   1
_chemical_formula_structural   Sr10Al4Si6O
_chemical_formula_sum   'Sr10 Al4 Si6 O1'
_cell_volume   597.61470341
_cell_formula_units_Z   1
loop_
 _symmetry_equiv_pos_site_id
 _symmetry_equiv_pos_as_xyz
  1  'x, y, z'
loop_
 _atom_site_type_symbol
 _atom_site_label
 _atom_site_symmetry_multiplicity
 _atom_site_fract_x
 _atom_site_fract_y
 _atom_site_fract_z
 _atom_site_occupancy
  Sr  Sr0  1  0.84364800  0.84364800  0.00000000  1
  Sr  Sr1  1  0.18713700  0.00000000  0.18713700  1
  Sr  Sr2  1  0.46985600  0.80683500  0.66302000  1
  Sr  Sr3  1  0.85618500  0.19316500  0.66302000  1
  Sr  Sr4  1  0.81286300  0.00000000  0.81286300  1
  Sr  Sr5  1  0.00000000  0.50000000  0.50000000  1
  Sr  Sr6  1  0.15635200  0.15635200  0.00000000  1
  Sr  Sr7  1  0.53014400  0.19316500  0.33698000  1
  Sr  Sr8  1  0.50000000  0.00000000  0.50000000  1
  Sr  Sr9  1  0.14381500  0.80683500  0.33698000  1
  Al  Al0  1  0.41317600  0.57062400  0.84255200  1
  Al  Al1  1  0.27192800  0.42937600  0.84255200  1
  Al  Al2  1  0.58682400  0.42937600  0.15744800  1
  Al  Al3  1  0.72807200  0.57062400  0.15744800  1
  Si  Si0  1  0.69001900  0.36821800  0.32180100  1
  Si  Si1  1  0.64561700  0.64561700  0.00000000  1
  Si  Si2  1  0.30998100  0.63178200  0.67819900  1
  Si  Si3  1  0.35438300  0.35438300  0.00000000  1
  Si  Si4  1  0.04641700  0.36821800  0.67819900  1
  Si  Si5  1  0.95358300  0.63178200  0.32180100  1
  O  O0  1  0.00000000  0.00000000  0.00000000  1
loop_
_geom_bond_atom_site_label_1
_geom_bond_atom_site_label_2
_geom_bond_distance
_geom_bond_site_symmetry_2
Al0 Si2 2.469853 1_555
Al0 Si1 2.519565 1_556
Al0 Al1 2.612847 1_555
Al0 Sr7 3.315508 1_555
Al0 Sr7 3.315511 1_566
Al0 Sr1 3.444667 1_566
Al0 Sr1 3.444667 1_555
Al0 Sr8 3.461103 1_566
Al0 Sr8 3.461103 1_555
Al1 Si4 2.469853 1_555
Al1 Si3 2.519565 1_556
Al1 Sr9 3.315516 1_545
Al1 Sr9 3.315516 1_556
Al1 Sr1 3.444667 1_555
Al1 Sr1 3.444667 1_566
Al1 Sr8 3.461103 1_555
Al1 Sr8 3.461103 1_566
Al2 Si0 2.469853 1_555
Al2 Si3 2.519565 1_555
Al2 Al3 2.612847 1_555
Al2 Sr2 3.315508 1_555
Al2 Sr2 3.315511 1_544
Al2 Sr4 3.444667 1_554
Al2 Sr4 3.444667 1_565
Al2 Sr8 3.461103 1_565
Al2 Sr8 3.461103 1_554
Al3 Si5 2.469853 1_555
Al3 Si1 2.519565 1_555
Al3 Sr3 3.315516 1_554
Al3 Sr3 3.315516 1_565
Al3 Sr4 3.444667 1_554
Al3 Sr4 3.444667 1_565
Al3 Sr8 3.461103 1_565
Al3 Sr8 3.461103 1_554
Si0 Sr7 3.244533 1_555
Si0 Sr5 3.407237 1_655
Si0 Sr2 3.411301 1_555
Si0 Sr2 3.411304 1_544
Si0 Sr0 3.423737 1_545
Si0 Sr0 3.423737 1_556
Si0 Sr4 3.435923 1_554
Si0 Sr4 3.435923 1_565
Si1 Sr3 3.371167 1_554
Si1 Sr3 3.371167 1_565
Si1 Sr7 3.371167 1_554
Si1 Sr7 3.371170 1_565
Si1 Sr8 3.620022 1_554
Si1 Sr8 3.620022 1_565
Si1 Sr0 3.663235 1_555
Si2 Sr2 3.244533 1_555
Si2 Sr5 3.407237 1_555
Si2 Sr7 3.411301 1_555
Si2 Sr7 3.411304 1_566
Si2 Sr6 3.423737 1_566
Si2 Sr6 3.423737 1_555
Si2 Sr1 3.435923 1_555
Si2 Sr1 3.435923 1_566
Si3 Sr9 3.371167 1_544
Si3 Sr9 3.371167 1_555
Si3 Sr2 3.371167 1_555
Si3 Sr2 3.371170 1_544
Si3 Sr8 3.620022 1_554
Si3 Sr8 3.620022 1_565
Si3 Sr6 3.663235 1_555
Si4 Sr3 3.244524 1_455
Si4 Sr5 3.407237 1_555
Si4 Sr9 3.411310 1_545
Si4 Sr9 3.411310 1_556
Si4 Sr0 3.423737 1_456
Si4 Sr0 3.423737 1_445
Si4 Sr1 3.435923 1_555
Si4 Sr1 3.435923 1_566
Si5 Sr9 3.244524 1_655
Si5 Sr5 3.407237 1_655
Si5 Sr3 3.411310 1_554
Si5 Sr3 3.411310 1_565
Si5 Sr6 3.423737 1_666
Si5 Sr6 3.423737 1_655
Si5 Sr4 3.435923 1_554
Si5 Sr4 3.435923 1_565
O0 Sr5 2.418414 1_555
O0 Sr5 2.418414 1_544
O0 Sr4 2.499877 1_454
O0 Sr1 2.499877 1_555
O0 Sr6 2.892245 1_555
O0 Sr0 2.892245 1_445
