# generated using pymatgen
data_LiMnGaF6
_symmetry_space_group_name_H-M   'P 1'
_cell_length_a   8.81769759
_cell_length_b   8.81769759
_cell_length_c   4.79596400
_cell_angle_alpha   90.00000000
_cell_angle_beta   90.00000000
_cell_angle_gamma   119.99999694
_symmetry_Int_Tables_number   1
_chemical_formula_structural   LiMnGaF6
_chemical_formula_sum   'Li3 Mn3 Ga3 F18'
_cell_volume   322.93637081
_cell_formula_units_Z   3
loop_
 _symmetry_equiv_pos_site_id
 _symmetry_equiv_pos_as_xyz
  1  'x, y, z'
loop_
 _atom_site_type_symbol
 _atom_site_label
 _atom_site_symmetry_multiplicity
 _atom_site_fract_x
 _atom_site_fract_y
 _atom_site_fract_z
 _atom_site_occupancy
  Li  Li0  1  0.29841700  0.00000000  0.50000000  1
  Li  Li1  1  0.00000000  0.29841700  0.50000000  1
  Li  Li2  1  0.70158300  0.70158300  0.50000000  1
  Mn  Mn0  1  0.63942500  0.00000000  0.00000000  1
  Mn  Mn1  1  0.00000000  0.63942500  0.00000000  1
  Mn  Mn2  1  0.36057500  0.36057500  0.00000000  1
  Ga  Ga0  1  0.00000000  0.00000000  0.00000000  1
  Ga  Ga1  1  0.33333300  0.66666700  0.50306300  1
  Ga  Ga2  1  0.66666700  0.33333300  0.49693700  1
  F  F0  1  0.09901500  0.88885600  0.77788800  1
  F  F1  1  0.11114400  0.21015900  0.77788800  1
  F  F2  1  0.78984100  0.90098500  0.77788800  1
  F  F3  1  0.21015900  0.11114400  0.22211200  1
  F  F4  1  0.90098500  0.78984100  0.22211200  1
  F  F5  1  0.88885600  0.09901500  0.22211200  1
  F  F6  1  0.45346800  0.57901400  0.72885600  1
  F  F7  1  0.42098600  0.87445400  0.72885600  1
  F  F8  1  0.12554600  0.54653200  0.72885600  1
  F  F9  1  0.87445400  0.42098600  0.27114400  1
  F  F10  1  0.54653200  0.12554600  0.27114400  1
  F  F11  1  0.57901400  0.45346800  0.27114400  1
  F  F12  1  0.22359900  0.76708000  0.28190400  1
  F  F13  1  0.23292000  0.45651900  0.28190400  1
  F  F14  1  0.54348100  0.77640100  0.28190400  1
  F  F15  1  0.45651900  0.23292000  0.71809600  1
  F  F16  1  0.77640100  0.54348100  0.71809600  1
  F  F17  1  0.76708000  0.22359900  0.71809600  1
loop_
_geom_bond_atom_site_label_1
_geom_bond_atom_site_label_2
_geom_bond_distance
_geom_bond_site_symmetry_2
F0 Ga0 1.926949 1_566
F0 Li0 2.026081 1_565
F0 Mn1 2.194115 1_556
F1 Ga0 1.926950 1_556
F1 Li1 2.026081 1_555
F1 Mn2 2.194115 1_556
F2 Ga0 1.926950 1_666
F2 Li2 2.026081 1_555
F2 Mn0 2.194115 1_566
F3 Ga0 1.926950 1_555
F3 Li0 2.026081 1_555
F3 Mn2 2.194115 1_555
F4 Ga0 1.926950 1_665
F4 Li2 2.026081 1_555
F4 Mn1 2.194115 1_655
F5 Ga0 1.926949 1_655
F5 Li1 2.026081 1_655
F5 Mn0 2.194115 1_555
F6 Ga1 1.926375 1_555
F6 Mn2 2.119962 1_556
F6 Li2 2.189687 1_555
F7 Ga1 1.926368 1_555
F7 Mn0 2.119962 1_566
F7 Li0 2.189686 1_565
F8 Ga1 1.926369 1_555
F8 Mn1 2.119962 1_556
F8 Li1 2.189687 1_555
F9 Ga2 1.926368 1_555
F9 Mn1 2.119962 1_655
F9 Li1 2.189686 1_655
F10 Ga2 1.926369 1_555
F10 Mn0 2.119962 1_555
F10 Li0 2.189687 1_555
F11 Ga2 1.926375 1_555
F11 Mn2 2.119962 1_555
F11 Li2 2.189687 1_555
F12 Ga1 1.924046 1_555
F12 Li0 2.095836 1_565
F12 Mn1 2.182417 1_555
F13 Ga1 1.924052 1_555
F13 Li1 2.095836 1_555
F13 Mn2 2.182417 1_555
F14 Ga1 1.924052 1_555
F14 Li2 2.095836 1_555
F14 Mn0 2.182417 1_565
F15 Ga2 1.924052 1_555
F15 Li0 2.095836 1_555
F15 Mn2 2.182417 1_556
F16 Ga2 1.924052 1_555
F16 Li2 2.095836 1_555
F16 Mn1 2.182417 1_656
F17 Ga2 1.924046 1_555
F17 Li1 2.095836 1_655
F17 Mn0 2.182417 1_556
