# generated using pymatgen
data_CuH12(N5O4)2
_symmetry_space_group_name_H-M   'P 1'
_cell_length_a   6.69586100
_cell_length_b   7.49519404
_cell_length_c   7.63537022
_cell_angle_alpha   96.93534363
_cell_angle_beta   110.92267186
_cell_angle_gamma   115.23723431
_symmetry_Int_Tables_number   1
_chemical_formula_structural   CuH12(N5O4)2
_chemical_formula_sum   'Cu1 H12 N10 O8'
_cell_volume   306.39626464
_cell_formula_units_Z   1
loop_
 _symmetry_equiv_pos_site_id
 _symmetry_equiv_pos_as_xyz
  1  'x, y, z'
loop_
 _atom_site_type_symbol
 _atom_site_label
 _atom_site_symmetry_multiplicity
 _atom_site_fract_x
 _atom_site_fract_y
 _atom_site_fract_z
 _atom_site_occupancy
  Cu  Cu0  1  0.00000000  0.50000000  0.00000000  1
  H  H0  1  0.95429400  0.20288200  0.74173800  1
  H  H1  1  0.72923800  0.22791800  0.11515800  1
  H  H2  1  0.97819800  0.70871300  0.76188600  1
  H  H3  1  0.84341400  0.11600600  0.01382400  1
  H  H4  1  0.16518800  0.42892700  0.74981900  1
  H  H5  1  0.04570600  0.79711800  0.25826200  1
  H  H6  1  0.02180200  0.29128700  0.23811400  1
  H  H7  1  0.27076200  0.77208200  0.88484200  1
  H  H8  1  0.83481200  0.57107300  0.25018100  1
  H  H9  1  0.23542200  0.32888200  0.92917200  1
  H  H10  1  0.15658600  0.88399400  0.98617600  1
  H  H11  1  0.76457800  0.67111800  0.07082800  1
  N  N0  1  0.09871000  0.34901900  0.83496900  1
  N  N1  1  0.40472000  0.18583300  0.59745700  1
  N  N2  1  0.90129000  0.65098100  0.16503100  1
  N  N3  1  0.88531700  0.25515600  0.10034900  1
  N  N4  1  0.33554300  0.12851500  0.39516000  1
  N  N5  1  0.66445700  0.87148500  0.60484000  1
  N  N6  1  0.59528000  0.81416700  0.40254300  1
  N  N7  1  0.11468300  0.74484400  0.89965100  1
  N  N8  1  0.50034000  0.74431000  0.66228100  1
  N  N9  1  0.49966000  0.25569000  0.33771900  1
  O  O0  1  0.41251000  0.20506200  0.15045200  1
  O  O1  1  0.71638200  0.39745600  0.44974500  1
  O  O2  1  0.44702300  0.63215900  0.28716800  1
  O  O3  1  0.55297700  0.36784100  0.71283200  1
  O  O4  1  0.28361800  0.60254400  0.55025500  1
  O  O5  1  0.71061000  0.96228700  0.35272100  1
  O  O6  1  0.58749000  0.79493800  0.84954800  1
  O  O7  1  0.28939000  0.03771300  0.64727900  1
loop_
_geom_bond_atom_site_label_1
_geom_bond_atom_site_label_2
_geom_bond_distance
_geom_bond_site_symmetry_2
Cu0 N3 2.025495 1_455
Cu0 N7 2.025495 1_554
Cu0 N0 2.047803 1_554
Cu0 N2 2.047803 1_455
H0 N0 1.028795 1_655
H1 N3 1.026985 1_555
H2 N7 1.024000 1_655
H3 N3 1.026945 1_555
H4 N0 1.026130 1_555
H5 N2 1.028795 1_455
H6 N3 1.024000 1_455
H7 N7 1.026985 1_555
H8 N2 1.026130 1_555
H9 N0 1.025610 1_555
H10 N7 1.026945 1_555
H11 N2 1.025610 1_555
N1 O3 1.246153 1_555
N1 O7 1.246718 1_555
N1 N4 1.394277 1_555
N4 N9 1.364003 1_555
N5 N8 1.364003 1_555
N5 N6 1.394277 1_555
N6 O2 1.246153 1_555
N6 O5 1.246718 1_555
N8 O4 1.243232 1_555
N8 O6 1.270122 1_555
N9 O1 1.243232 1_555
N9 O0 1.270122 1_555
