# generated using pymatgen
data_Na4CO4
_symmetry_space_group_name_H-M   'P 1'
_cell_length_a   4.86460968
_cell_length_b   4.86460968
_cell_length_c   4.86460936
_cell_angle_alpha   91.57521539
_cell_angle_beta   91.57521539
_cell_angle_gamma   91.57522618
_symmetry_Int_Tables_number   1
_chemical_formula_structural   Na4CO4
_chemical_formula_sum   'Na4 C1 O4'
_cell_volume   114.98524120
_cell_formula_units_Z   1
loop_
 _symmetry_equiv_pos_site_id
 _symmetry_equiv_pos_as_xyz
  1  'x, y, z'
loop_
 _atom_site_type_symbol
 _atom_site_label
 _atom_site_symmetry_multiplicity
 _atom_site_fract_x
 _atom_site_fract_y
 _atom_site_fract_z
 _atom_site_occupancy
  Na  Na0  1  0.52868500  0.98892500  0.54632800  1
  Na  Na1  1  0.54632800  0.52868500  0.98892500  1
  Na  Na2  1  0.19689100  0.19689100  0.19689100  1
  Na  Na3  1  0.98892500  0.54632800  0.52868500  1
  C  C0  1  0.90941300  0.90941300  0.90941300  1
  O  O0  1  0.69419800  0.01688700  0.02173900  1
  O  O1  1  0.02173900  0.69419800  0.01688700  1
  O  O2  1  0.01688700  0.02173900  0.69419800  1
  O  O3  1  0.47888500  0.47888500  0.47888500  1
loop_
_geom_bond_atom_site_label_1
_geom_bond_atom_site_label_2
_geom_bond_distance
_geom_bond_site_symmetry_2
Na0 O0 2.426853 1_566
Na0 O3 2.432611 1_565
Na0 O2 2.462122 1_665
Na0 O3 2.498047 1_555
Na0 O2 2.618303 1_565
Na0 O0 2.702796 1_565
Na1 O1 2.426854 1_656
Na1 O3 2.432611 1_556
Na1 O0 2.462122 1_566
Na1 O3 2.498047 1_555
Na1 O0 2.618303 1_556
Na1 O1 2.702796 1_556
Na2 O3 2.309773 1_555
Na2 O2 2.683179 1_554
Na2 O0 2.683179 1_455
Na2 O1 2.683179 1_545
Na2 O2 2.744825 1_555
Na2 O1 2.744825 1_555
Na2 O0 2.744825 1_555
Na3 O2 2.426854 1_665
Na3 O3 2.432611 1_655
Na3 O1 2.462122 1_656
Na3 O3 2.498047 1_555
Na3 O1 2.618302 1_655
Na3 O2 2.702796 1_655
C0 O2 1.309134 1_665
C0 O0 1.309134 1_566
C0 O1 1.309134 1_656
C0 Na2 2.354692 1_666
