# generated using pymatgen
data_K4Nb2S10O
_symmetry_space_group_name_H-M   'P 1'
_cell_length_a   7.68215300
_cell_length_b   12.93657000
_cell_length_c   18.15251500
_cell_angle_alpha   90.00000000
_cell_angle_beta   90.00000000
_cell_angle_gamma   90.00000000
_symmetry_Int_Tables_number   1
_chemical_formula_structural   K4Nb2S10O
_chemical_formula_sum   'K16 Nb8 S40 O4'
_cell_volume   1804.00982962
_cell_formula_units_Z   4
loop_
 _symmetry_equiv_pos_site_id
 _symmetry_equiv_pos_as_xyz
  1  'x, y, z'
loop_
 _atom_site_type_symbol
 _atom_site_label
 _atom_site_symmetry_multiplicity
 _atom_site_fract_x
 _atom_site_fract_y
 _atom_site_fract_z
 _atom_site_occupancy
  K  K0  1  0.78906200  0.93999100  0.83516300  1
  K  K1  1  0.85646700  0.90240300  0.53555800  1
  K  K2  1  0.21093800  0.43999100  0.83516300  1
  K  K3  1  0.85646700  0.59759700  0.03555800  1
  K  K4  1  0.21093800  0.06000900  0.33516300  1
  K  K5  1  0.14353300  0.40240300  0.53555800  1
  K  K6  1  0.81387900  0.24015300  0.20023000  1
  K  K7  1  0.14353300  0.09759700  0.03555800  1
  K  K8  1  0.66758700  0.23512700  0.96826900  1
  K  K9  1  0.18612100  0.75984700  0.70023000  1
  K  K10  1  0.78906200  0.56000900  0.33516300  1
  K  K11  1  0.81387900  0.25984700  0.70023000  1
  K  K12  1  0.66758700  0.26487300  0.46826900  1
  K  K13  1  0.18612100  0.74015300  0.20023000  1
  K  K14  1  0.33241300  0.76487300  0.46826900  1
  K  K15  1  0.33241300  0.73512700  0.96826900  1
  Nb  Nb0  1  0.74249400  0.96306500  0.10458000  1
  Nb  Nb1  1  0.25750600  0.03693500  0.60458000  1
  Nb  Nb2  1  0.21446500  0.39840600  0.29418000  1
  Nb  Nb3  1  0.74249400  0.53693500  0.60458000  1
  Nb  Nb4  1  0.21446500  0.10159400  0.79418000  1
  Nb  Nb5  1  0.78553500  0.89840600  0.29418000  1
  Nb  Nb6  1  0.25750600  0.46306500  0.10458000  1
  Nb  Nb7  1  0.78553500  0.60159400  0.79418000  1
  S  S0  1  0.02636500  0.35082600  0.04927100  1
  S  S1  1  0.75238100  0.77209200  0.19028000  1
  S  S2  1  0.25032700  0.93031300  0.85255900  1
  S  S3  1  0.53754100  0.48927400  0.70590900  1
  S  S4  1  0.57665200  0.43617800  0.11640700  1
  S  S5  1  0.26643300  0.34033100  0.99664300  1
  S  S6  1  0.46245900  0.51072600  0.20590900  1
  S  S7  1  0.75238100  0.72790800  0.69028000  1
  S  S8  1  0.03042900  0.49559600  0.20237900  1
  S  S9  1  0.97363500  0.85082600  0.04927100  1
  S  S10  1  0.46245900  0.98927400  0.70590900  1
  S  S11  1  0.99301700  0.17340300  0.85966200  1
  S  S12  1  0.24761900  0.27209200  0.19028000  1
  S  S13  1  0.57665200  0.06382200  0.61640700  1
  S  S14  1  0.42556900  0.24205300  0.77591000  1
  S  S15  1  0.59007700  0.54383700  0.89776500  1
  S  S16  1  0.03042900  0.00440400  0.70237900  1
  S  S17  1  0.96957100  0.99559600  0.20237900  1
  S  S18  1  0.24761900  0.22790800  0.69028000  1
  S  S19  1  0.00698300  0.82659700  0.35966200  1
  S  S20  1  0.42334800  0.56382200  0.61640700  1
  S  S21  1  0.02636500  0.14917400  0.54927100  1
  S  S22  1  0.99301700  0.32659700  0.35966200  1
  S  S23  1  0.00698300  0.67340300  0.85966200  1
  S  S24  1  0.42556900  0.25794700  0.27591000  1
  S  S25  1  0.74967300  0.43031300  0.85255900  1
  S  S26  1  0.97363500  0.64917400  0.54927100  1
  S  S27  1  0.42334800  0.93617800  0.11640700  1
  S  S28  1  0.96957100  0.50440400  0.70237900  1
  S  S29  1  0.57443100  0.75794700  0.27591000  1
  S  S30  1  0.73356700  0.84033100  0.99664300  1
  S  S31  1  0.53754100  0.01072600  0.20590900  1
  S  S32  1  0.26643300  0.15966900  0.49664300  1
  S  S33  1  0.40992300  0.45616300  0.39776500  1
  S  S34  1  0.57443100  0.74205300  0.77591000  1
  S  S35  1  0.59007700  0.95616300  0.39776500  1
  S  S36  1  0.40992300  0.04383700  0.89776500  1
  S  S37  1  0.25032700  0.56968700  0.35255900  1
  S  S38  1  0.74967300  0.06968700  0.35255900  1
  S  S39  1  0.73356700  0.65966900  0.49664300  1
  O  O0  1  0.77194800  0.41615300  0.55728400  1
  O  O1  1  0.77194800  0.08384700  0.05728400  1
  O  O2  1  0.22805200  0.91615300  0.55728400  1
  O  O3  1  0.22805200  0.58384700  0.05728400  1
loop_
_geom_bond_atom_site_label_1
_geom_bond_atom_site_label_2
_geom_bond_distance
_geom_bond_site_symmetry_2
K0 S16 3.153147 1_665
K0 S34 3.229923 1_555
K0 S30 3.230522 1_555
K0 S36 3.402849 1_565
K0 S11 3.430797 1_565
K0 S10 3.493806 1_555
K0 S2 3.559753 1_655
K1 O2 2.887172 1_655
K1 S35 3.305765 1_555
K1 S13 3.336945 1_565
K1 S39 3.354238 1_555
K1 S26 3.406430 1_555
K1 S21 3.457845 1_665
K1 S19 3.534639 1_655
K1 S16 3.563325 1_665
K1 S7 3.690971 1_555
K2 S28 3.153147 1_455
K2 S14 3.229923 1_555
K2 S5 3.230522 1_555
K2 S15 3.402849 1_555
K2 S23 3.430797 1_555
K2 S3 3.493806 1_555
K2 S25 3.559753 1_455
K3 O3 2.887172 1_655
K3 S15 3.305765 1_554
K3 S4 3.336945 1_555
K3 S30 3.354238 1_554
K3 S9 3.406430 1_555
K3 S0 3.457845 1_655
K3 S23 3.534639 1_654
K3 S8 3.563325 1_655
K3 S1 3.690971 1_555
K4 S17 3.153147 1_445
K4 S24 3.229923 1_555
K4 S32 3.230522 1_555
K4 S35 3.402849 1_545
K4 S19 3.430797 1_545
K4 S31 3.493806 1_555
K4 S38 3.559753 1_455
K5 O0 2.887172 1_455
K5 S33 3.305765 1_555
K5 S20 3.336945 1_555
K5 S32 3.354238 1_555
K5 S21 3.406430 1_555
K5 S26 3.457845 1_455
K5 S22 3.534639 1_455
K5 S28 3.563325 1_455
K5 S18 3.690971 1_555
K6 S24 3.292248 1_555
K6 O1 3.305396 1_555
K6 S12 3.362431 1_655
K6 S17 3.382490 1_545
K6 S22 3.394137 1_555
K6 S4 3.473787 1_555
K6 S0 3.496224 1_655
K6 S38 3.571060 1_555
K6 S31 3.650510 1_555
K6 S8 3.699876 1_655
K7 O1 2.887172 1_455
K7 S36 3.305765 1_554
K7 S27 3.336945 1_545
K7 S5 3.354238 1_554
K7 S0 3.406430 1_555
K7 S9 3.457845 1_445
K7 S11 3.534639 1_454
K7 S17 3.563325 1_445
K7 S12 3.690971 1_555
K8 O1 2.661528 1_556
K8 S25 3.344438 1_555
K8 S5 3.408018 1_555
K8 S36 3.417581 1_555
K8 S0 3.463939 1_656
K9 S34 3.292248 1_555
K9 O2 3.305396 1_555
K9 S7 3.362431 1_455
K9 S16 3.382490 1_565
K9 S23 3.394137 1_555
K9 S20 3.473787 1_555
K9 S26 3.496224 1_455
K9 S2 3.571060 1_555
K9 S10 3.650510 1_555
K9 S28 3.699876 1_455
K10 S8 3.153147 1_655
K10 S29 3.229923 1_555
K10 S39 3.230522 1_555
K10 S33 3.402849 1_555
K10 S22 3.430797 1_555
K10 S6 3.493806 1_555
K10 S37 3.559753 1_655
K11 S14 3.292248 1_555
K11 O0 3.305396 1_555
K11 S18 3.362431 1_655
K11 S28 3.382490 1_555
K11 S11 3.394137 1_555
K11 S13 3.473787 1_555
K11 S21 3.496224 1_655
K11 S25 3.571060 1_555
K11 S3 3.650510 1_555
K11 S16 3.699876 1_655
K12 O0 2.661528 1_555
K12 S38 3.344438 1_555
K12 S32 3.408018 1_555
K12 S33 3.417581 1_555
K12 S21 3.463939 1_655
K13 S29 3.292248 1_555
K13 O3 3.305396 1_555
K13 S1 3.362431 1_455
K13 S8 3.382490 1_555
K13 S19 3.394137 1_555
K13 S27 3.473787 1_555
K13 S9 3.496224 1_455
K13 S37 3.571060 1_555
K13 S6 3.650510 1_555
K13 S17 3.699876 1_455
K14 O2 2.661528 1_555
K14 S37 3.344438 1_555
K14 S39 3.408018 1_555
K14 S35 3.417581 1_555
K14 S26 3.463939 1_455
K15 O3 2.661528 1_556
K15 S2 3.344438 1_555
K15 S30 3.408018 1_555
K15 S15 3.417581 1_555
K15 S9 3.463939 1_456
Nb0 O1 1.797140 1_565
Nb0 S27 2.485568 1_555
Nb0 S31 2.498490 1_565
Nb0 S9 2.503847 1_555
Nb0 S30 2.522824 1_554
Nb0 S17 2.524254 1_555
Nb0 S1 2.920518 1_555
Nb1 O2 1.797140 1_545
Nb1 S13 2.485568 1_555
Nb1 S10 2.498490 1_545
Nb1 S21 2.503847 1_555
Nb1 S32 2.522824 1_555
Nb1 S16 2.524254 1_555
Nb1 S18 2.920518 1_555
Nb2 S22 2.273755 1_455
Nb2 S24 2.457988 1_555
Nb2 S37 2.471566 1_555
Nb2 S12 2.508431 1_555
Nb2 S33 2.519628 1_555
Nb2 S8 2.521226 1_555
Nb2 S6 2.882416 1_555
Nb3 O0 1.797140 1_555
Nb3 S20 2.485568 1_555
Nb3 S3 2.498490 1_555
Nb3 S26 2.503847 1_555
Nb3 S39 2.522824 1_555
Nb3 S28 2.524254 1_555
Nb3 S7 2.920518 1_555
Nb4 S11 2.273755 1_455
Nb4 S14 2.457988 1_555
Nb4 S2 2.471566 1_545
Nb4 S18 2.508431 1_555
Nb4 S36 2.519628 1_555
Nb4 S16 2.521226 1_555
Nb4 S10 2.882416 1_545
Nb5 S19 2.273755 1_655
Nb5 S29 2.457988 1_555
Nb5 S38 2.471566 1_565
Nb5 S1 2.508431 1_555
Nb5 S35 2.519628 1_555
Nb5 S17 2.521226 1_555
Nb5 S31 2.882416 1_565
Nb6 O3 1.797140 1_555
Nb6 S4 2.485568 1_555
Nb6 S6 2.498490 1_555
Nb6 S0 2.503847 1_555
Nb6 S5 2.522824 1_554
Nb6 S8 2.524254 1_555
Nb6 S12 2.920518 1_555
Nb7 S23 2.273755 1_655
Nb7 S34 2.457988 1_555
Nb7 S25 2.471566 1_555
Nb7 S7 2.508431 1_555
Nb7 S15 2.519628 1_555
Nb7 S28 2.521226 1_555
Nb7 S3 2.882416 1_555
S0 S5 2.081420 1_554
S1 S29 2.078086 1_555
S2 S36 2.081678 1_565
S4 S6 2.083082 1_555
S10 S13 2.083082 1_565
S12 S24 2.078086 1_555
S14 S18 2.078086 1_555
S15 S25 2.081678 1_555
S20 S3 2.083082 1_555
S21 S32 2.081420 1_555
S26 S39 2.081420 1_555
S27 S31 2.083082 1_565
S30 S9 2.081420 1_556
S33 S37 2.081678 1_555
S34 S7 2.078086 1_555
S35 S38 2.081678 1_565
