# generated using pymatgen
data_Nd2Si2O7
_symmetry_space_group_name_H-M   'P 1'
_cell_length_a   5.35331069
_cell_length_b   8.57836727
_cell_length_c   12.95389425
_cell_angle_alpha   90.00000000
_cell_angle_beta   90.00000000
_cell_angle_gamma   90.00000000
_symmetry_Int_Tables_number   1
_chemical_formula_structural   Nd2Si2O7
_chemical_formula_sum   'Nd8 Si8 O28'
_cell_volume   594.87734880
_cell_formula_units_Z   4
loop_
 _symmetry_equiv_pos_site_id
 _symmetry_equiv_pos_as_xyz
  1  'x, y, z'
loop_
 _atom_site_type_symbol
 _atom_site_label
 _atom_site_symmetry_multiplicity
 _atom_site_fract_x
 _atom_site_fract_y
 _atom_site_fract_z
 _atom_site_occupancy
  Nd  Nd0  1  0.23610738  0.10404418  0.33888028  1
  Nd  Nd1  1  0.26389262  0.60404418  0.66111972  1
  Nd  Nd2  1  0.73610738  0.89595582  0.16111972  1
  Nd  Nd3  1  0.26160697  0.19777827  0.01965282  1
  Nd  Nd4  1  0.76160697  0.80222173  0.48034718  1
  Nd  Nd5  1  0.23839303  0.69777827  0.98034718  1
  Nd  Nd6  1  0.76389262  0.39595582  0.83888028  1
  Nd  Nd7  1  0.73839303  0.30222173  0.51965282  1
  Si  Si0  1  0.26628569  0.50222577  0.42922521  1
  Si  Si1  1  0.76772140  0.24745409  0.22472673  1
  Si  Si2  1  0.23227860  0.25254591  0.72472673  1
  Si  Si3  1  0.73371431  0.99777423  0.92922521  1
  Si  Si4  1  0.23371431  0.00222577  0.57077479  1
  Si  Si5  1  0.26772140  0.75254591  0.27527327  1
  Si  Si6  1  0.76628569  0.49777423  0.07077479  1
  Si  Si7  1  0.73227860  0.74745409  0.77527327  1
  O  O0  1  0.99734442  0.14580604  0.17461263  1
  O  O1  1  0.00265558  0.35419396  0.67461263  1
  O  O2  1  0.16482169  0.82004306  0.57252654  1
  O  O3  1  0.49422466  0.57514145  0.49656142  1
  O  O4  1  0.23816714  0.07331170  0.68693659  1
  O  O5  1  0.26183286  0.57331270  0.31306341  1
  O  O6  1  0.31770959  0.76602811  0.15358835  1
  O  O7  1  0.81770959  0.23397189  0.34641165  1
  O  O8  1  0.66482169  0.17995694  0.92747346  1
  O  O9  1  0.68229041  0.73397189  0.65358835  1
  O  O10  1  0.51420625  0.15513498  0.18851433  1
  O  O11  1  0.98579375  0.65513498  0.81148567  1
  O  O12  1  0.50265558  0.64580604  0.82538737  1
  O  O13  1  0.49734442  0.85419396  0.32538737  1
  O  O14  1  0.99364435  0.96502561  0.98951284  1
  O  O15  1  0.49364435  0.03497439  0.51048716  1
  O  O16  1  0.99422466  0.42485855  0.00343858  1
  O  O17  1  0.00577534  0.07514145  0.50343858  1
  O  O18  1  0.73816714  0.92668730  0.81306341  1
  O  O19  1  0.50635565  0.46502561  0.01048716  1
  O  O20  1  0.76183286  0.42668830  0.18693659  1
  O  O21  1  0.00635565  0.53497439  0.48951284  1
  O  O22  1  0.01420625  0.84486502  0.31148567  1
  O  O23  1  0.50577534  0.92485855  0.99656142  1
  O  O24  1  0.48579375  0.34486502  0.68851433  1
  O  O25  1  0.33517831  0.32004306  0.42747346  1
  O  O26  1  0.18229041  0.26602811  0.84641165  1
  O  O27  1  0.83517831  0.67995694  0.07252654  1
loop_
_geom_bond_atom_site_label_1
_geom_bond_atom_site_label_2
_geom_bond_distance
_geom_bond_site_symmetry_2
Nd0 O25 2.243130 1_555
Nd0 O17 2.475051 1_555
Nd0 O10 2.490478 1_555
Nd0 O7 2.503706 1_455
Nd0 O0 2.507997 1_455
Nd0 O22 2.545636 1_545
Nd0 O13 2.565165 1_545
Nd0 O15 2.682058 1_555
Nd1 O2 2.243130 1_555
Nd1 O3 2.475051 1_555
Nd1 O11 2.490478 1_455
Nd1 O9 2.503706 1_555
Nd1 O12 2.507997 1_555
Nd1 O24 2.545636 1_555
Nd1 O1 2.565165 1_555
Nd1 O21 2.682058 1_555
Nd2 O27 2.243130 1_555
Nd2 O23 2.475051 1_554
Nd2 O22 2.490478 1_655
Nd2 O6 2.503706 1_555
Nd2 O13 2.507997 1_555
Nd2 O10 2.545636 1_565
Nd2 O0 2.565165 1_565
Nd2 O14 2.682058 1_554
Nd3 O26 2.357810 1_554
Nd3 O16 2.426435 1_455
Nd3 O8 2.471532 1_554
Nd3 O14 2.489328 1_444
Nd3 O0 2.495892 1_455
Nd3 O10 2.597529 1_555
Nd3 O19 2.643204 1_555
Nd3 O23 2.698009 1_544
Nd4 O9 2.357810 1_555
Nd4 O3 2.426435 1_555
Nd4 O2 2.471532 1_655
Nd4 O15 2.489328 1_565
Nd4 O13 2.495892 1_555
Nd4 O22 2.597529 1_655
Nd4 O21 2.643204 1_655
Nd4 O17 2.698009 1_665
Nd5 O6 2.357810 1_556
Nd5 O23 2.426435 1_555
Nd5 O27 2.471532 1_456
Nd5 O19 2.489328 1_556
Nd5 O12 2.495892 1_555
Nd5 O11 2.597529 1_455
Nd5 O14 2.643204 1_455
Nd5 O16 2.698009 1_456
Nd6 O8 2.243130 1_555
Nd6 O16 2.475051 1_556
Nd6 O24 2.490478 1_555
Nd6 O26 2.503706 1_655
Nd6 O1 2.507997 1_655
Nd6 O11 2.545636 1_555
Nd6 O12 2.565165 1_555
Nd6 O19 2.682058 1_556
Nd7 O7 2.357810 1_555
Nd7 O17 2.426435 1_655
Nd7 O25 2.471532 1_555
Nd7 O21 2.489328 1_655
Nd7 O1 2.495892 1_655
Nd7 O24 2.597529 1_555
Nd7 O15 2.643204 1_555
Nd7 O3 2.698009 1_555
O0 Si1 1.640976 1_555
O1 Si2 1.640976 1_555
O2 Si4 1.605917 1_565
O3 Si0 1.625131 1_555
O4 Si2 1.613894 1_555
O4 Si4 1.623789 1_555
O5 Si5 1.613885 1_555
O5 Si0 1.623792 1_555
O6 Si5 1.603025 1_555
O7 Si1 1.603025 1_555
O8 Si3 1.605917 1_545
O9 Si7 1.603025 1_555
O10 Si1 1.639839 1_555
O11 Si7 1.639839 1_555
O12 Si7 1.640976 1_555
O13 Si5 1.640976 1_555
O14 Si3 1.620202 1_555
O15 Si4 1.620202 1_555
O16 Si6 1.625131 1_555
O17 Si4 1.625131 1_555
O18 Si7 1.613885 1_555
O18 Si3 1.623792 1_555
O19 Si6 1.620202 1_555
O20 Si1 1.613894 1_555
O20 Si6 1.623789 1_555
O21 Si0 1.620202 1_555
O22 Si5 1.639839 1_555
O23 Si3 1.625131 1_555
O24 Si2 1.639839 1_555
O25 Si0 1.605917 1_555
O26 Si2 1.603025 1_555
O27 Si6 1.605917 1_555
