# generated using pymatgen
data_K2Co2(MoO4)3
_symmetry_space_group_name_H-M   'P 1'
_cell_length_a   9.16318500
_cell_length_b   7.10596900
_cell_length_c   20.30951694
_cell_angle_alpha   71.67613529
_cell_angle_beta   90.00000000
_cell_angle_gamma   90.00000000
_symmetry_Int_Tables_number   1
_chemical_formula_structural   K2Co2(MoO4)3
_chemical_formula_sum   'K8 Co8 Mo12 O48'
_cell_volume   1255.36603158
_cell_formula_units_Z   4
loop_
 _symmetry_equiv_pos_site_id
 _symmetry_equiv_pos_as_xyz
  1  'x, y, z'
loop_
 _atom_site_type_symbol
 _atom_site_label
 _atom_site_symmetry_multiplicity
 _atom_site_fract_x
 _atom_site_fract_y
 _atom_site_fract_z
 _atom_site_occupancy
  K  K0  1  0.97838000  0.48943400  0.27573000  1
  K  K1  1  0.02162000  0.51056600  0.72427000  1
  K  K2  1  0.45618500  0.18941500  0.09228200  1
  K  K3  1  0.52162000  0.48943400  0.77573000  1
  K  K4  1  0.95618500  0.81058500  0.40771800  1
  K  K5  1  0.54381500  0.81058500  0.90771800  1
  K  K6  1  0.04381500  0.18941500  0.59228200  1
  K  K7  1  0.47838000  0.51056600  0.22427000  1
  Co  Co0  1  0.34724900  0.72405500  0.36461900  1
  Co  Co1  1  0.42460000  0.07409100  0.55971100  1
  Co  Co2  1  0.07540000  0.07409100  0.05971100  1
  Co  Co3  1  0.92460000  0.92590900  0.94028900  1
  Co  Co4  1  0.15275100  0.72405500  0.86461900  1
  Co  Co5  1  0.84724900  0.27594500  0.13538100  1
  Co  Co6  1  0.57540000  0.92590900  0.44028900  1
  Co  Co7  1  0.65275100  0.27594500  0.63538100  1
  Mo  Mo0  1  0.34278400  0.04939900  0.72890700  1
  Mo  Mo1  1  0.16309000  0.58555600  0.03960200  1
  Mo  Mo2  1  0.33691000  0.58555600  0.53960200  1
  Mo  Mo3  1  0.23209300  0.19562000  0.90195800  1
  Mo  Mo4  1  0.84278400  0.95060100  0.77109300  1
  Mo  Mo5  1  0.65721600  0.95060100  0.27109300  1
  Mo  Mo6  1  0.83691000  0.41444400  0.96039800  1
  Mo  Mo7  1  0.15721600  0.04939900  0.22890700  1
  Mo  Mo8  1  0.76790700  0.80438000  0.09804200  1
  Mo  Mo9  1  0.73209300  0.80438000  0.59804200  1
  Mo  Mo10  1  0.66309000  0.41444400  0.46039800  1
  Mo  Mo11  1  0.26790700  0.19562000  0.40195800  1
  O  O0  1  0.23677100  0.62450800  0.45992900  1
  O  O1  1  0.93982000  0.19131600  0.96198500  1
  O  O2  1  0.24981000  0.16211700  0.49371300  1
  O  O3  1  0.62019900  0.00461900  0.61183600  1
  O  O4  1  0.75019000  0.83788300  0.50628700  1
  O  O5  1  0.58976100  0.83092200  0.12626500  1
  O  O6  1  0.87980100  0.00461900  0.11183600  1
  O  O7  1  0.25019000  0.16211700  0.99371300  1
  O  O8  1  0.70100900  0.45623800  0.89711700  1
  O  O9  1  0.45677700  0.36408700  0.56516000  1
  O  O10  1  0.83122100  0.55810800  0.14549100  1
  O  O11  1  0.80363700  0.00587900  0.85068800  1
  O  O12  1  0.30363700  0.99412100  0.64931200  1
  O  O13  1  0.16024200  0.82247000  0.30337700  1
  O  O14  1  0.04322300  0.36408700  0.06516000  1
  O  O15  1  0.43982000  0.80868400  0.53801500  1
  O  O16  1  0.19636300  0.99412100  0.14931200  1
  O  O17  1  0.79899100  0.45623800  0.39711700  1
  O  O18  1  0.08976100  0.16907800  0.37373500  1
  O  O19  1  0.26322900  0.62450800  0.95992900  1
  O  O20  1  0.33122100  0.44189200  0.35450900  1
  O  O21  1  0.70890900  0.78498700  0.76069900  1
  O  O22  1  0.98254100  0.17437800  0.22045300  1
  O  O23  1  0.79109100  0.78498700  0.26069900  1
  O  O24  1  0.12019900  0.99538100  0.88816400  1
  O  O25  1  0.66024200  0.17753000  0.19662300  1
  O  O26  1  0.01745900  0.82562200  0.77954700  1
  O  O27  1  0.69636300  0.00587900  0.35068800  1
  O  O28  1  0.76322900  0.37549200  0.54007100  1
  O  O29  1  0.51745900  0.17437800  0.72045300  1
  O  O30  1  0.83975800  0.17753000  0.69662300  1
  O  O31  1  0.73677100  0.37549200  0.04007100  1
  O  O32  1  0.33975800  0.82247000  0.80337700  1
  O  O33  1  0.66877900  0.55810800  0.64549100  1
  O  O34  1  0.37980100  0.99538100  0.38816400  1
  O  O35  1  0.16877900  0.44189200  0.85450900  1
  O  O36  1  0.29899100  0.54376200  0.10288300  1
  O  O37  1  0.20890900  0.21501300  0.73930100  1
  O  O38  1  0.48254100  0.82562200  0.27954700  1
  O  O39  1  0.91023900  0.83092200  0.62626500  1
  O  O40  1  0.20100900  0.54376200  0.60288300  1
  O  O41  1  0.06018000  0.80868400  0.03801500  1
  O  O42  1  0.54322300  0.63591300  0.43484000  1
  O  O43  1  0.95677700  0.63591300  0.93484000  1
  O  O44  1  0.56018000  0.19131600  0.46198500  1
  O  O45  1  0.74981000  0.83788300  0.00628700  1
  O  O46  1  0.41023900  0.16907800  0.87373500  1
  O  O47  1  0.29109100  0.21501300  0.23930100  1
loop_
_geom_bond_atom_site_label_1
_geom_bond_atom_site_label_2
_geom_bond_distance
_geom_bond_site_symmetry_2
K0 O23 2.654446 1_555
K0 O18 2.708614 1_655
K0 O22 2.802546 1_555
K0 O10 2.870772 1_555
K0 O17 2.910282 1_555
K0 O13 3.086800 1_655
K1 O37 2.654446 1_555
K1 O39 2.708614 1_455
K1 O26 2.802546 1_555
K1 O35 2.870772 1_555
K1 O40 2.910282 1_555
K1 O30 3.086800 1_455
K2 O5 2.712641 1_545
K2 O7 2.802191 1_554
K2 O25 2.807392 1_555
K2 O16 2.815125 1_545
K2 O31 2.932835 1_555
K2 O36 2.966849 1_555
K3 O21 2.654446 1_555
K3 O46 2.708614 1_555
K3 O29 2.802546 1_555
K3 O33 2.870772 1_555
K3 O8 2.910282 1_555
K3 O32 3.086800 1_555
K4 O18 2.712641 1_665
K4 O4 2.802191 1_555
K4 O13 2.807392 1_655
K4 O27 2.815125 1_565
K4 O0 2.932835 1_655
K4 O17 2.966849 1_555
K5 O46 2.712641 1_565
K5 O45 2.802191 1_556
K5 O32 2.807392 1_555
K5 O11 2.815125 1_565
K5 O19 2.932835 1_555
K5 O8 2.966849 1_555
K6 O39 2.712641 1_445
K6 O2 2.802191 1_555
K6 O30 2.807392 1_455
K6 O12 2.815125 1_545
K6 O28 2.932835 1_455
K6 O40 2.966849 1_555
K7 O47 2.654446 1_555
K7 O5 2.708614 1_555
K7 O38 2.802546 1_555
K7 O20 2.870772 1_555
K7 O36 2.910282 1_555
K7 O25 3.086800 1_555
Co0 O38 2.063707 1_555
Co0 O20 2.083935 1_555
Co0 O0 2.100278 1_555
Co0 O13 2.103693 1_555
Co0 O34 2.148175 1_555
Co0 O42 2.255939 1_555
Co1 O12 2.052504 1_545
Co1 O2 2.055711 1_555
Co1 O3 2.061111 1_555
Co1 O15 2.071964 1_545
Co1 O9 2.118742 1_555
Co1 O44 2.266506 1_555
Co2 O16 2.052504 1_545
Co2 O7 2.055711 1_554
Co2 O6 2.061111 1_455
Co2 O41 2.071964 1_545
Co2 O14 2.118742 1_555
Co2 O1 2.266506 1_454
Co3 O11 2.052504 1_565
Co3 O45 2.055711 1_556
Co3 O24 2.061111 1_655
Co3 O1 2.071964 1_565
Co3 O43 2.118742 1_555
Co3 O41 2.266506 1_656
Co4 O26 2.063707 1_555
Co4 O35 2.083935 1_555
Co4 O19 2.100278 1_555
Co4 O32 2.103693 1_555
Co4 O24 2.148175 1_555
Co4 O43 2.255939 1_455
Co5 O22 2.063707 1_555
Co5 O10 2.083935 1_555
Co5 O31 2.100278 1_555
Co5 O25 2.103693 1_555
Co5 O6 2.148175 1_555
Co5 O14 2.255939 1_655
Co6 O27 2.052504 1_565
Co6 O4 2.055711 1_555
Co6 O34 2.061111 1_555
Co6 O44 2.071964 1_565
Co6 O42 2.118742 1_555
Co6 O15 2.266506 1_555
Co7 O29 2.063707 1_555
Co7 O33 2.083935 1_555
Co7 O28 2.100278 1_555
Co7 O30 2.103693 1_555
Co7 O3 2.148175 1_555
Co7 O9 2.255939 1_555
Mo0 O37 1.758006 1_555
Mo0 O29 1.812229 1_555
Mo0 O12 1.815329 1_545
Mo0 O32 1.831685 1_545
Mo1 O36 1.746625 1_555
Mo1 O19 1.804241 1_554
Mo1 O41 1.836318 1_555
Mo1 O14 1.854425 1_555
Mo2 O40 1.746625 1_555
Mo2 O0 1.804241 1_555
Mo2 O15 1.836318 1_555
Mo2 O9 1.854425 1_555
Mo3 O46 1.759767 1_555
Mo3 O35 1.807585 1_555
Mo3 O7 1.810484 1_555
Mo3 O24 1.845265 1_545
Mo4 O21 1.758006 1_555
Mo4 O26 1.812229 1_655
Mo4 O11 1.815329 1_565
Mo4 O30 1.831685 1_565
Mo5 O23 1.758006 1_555
Mo5 O38 1.812229 1_555
Mo5 O27 1.815329 1_565
Mo5 O25 1.831685 1_565
Mo6 O8 1.746625 1_555
Mo6 O31 1.804241 1_556
Mo6 O1 1.836318 1_555
Mo6 O43 1.854425 1_555
Mo7 O47 1.758006 1_555
Mo7 O22 1.812229 1_455
Mo7 O16 1.815329 1_545
Mo7 O13 1.831685 1_545
Mo8 O5 1.759767 1_555
Mo8 O10 1.807585 1_555
Mo8 O45 1.810484 1_555
Mo8 O6 1.845265 1_565
Mo9 O39 1.759767 1_555
Mo9 O33 1.807585 1_555
Mo9 O4 1.810484 1_555
Mo9 O3 1.845265 1_565
Mo10 O17 1.746625 1_555
Mo10 O28 1.804241 1_555
Mo10 O44 1.836318 1_555
Mo10 O42 1.854425 1_555
Mo11 O18 1.759767 1_555
Mo11 O20 1.807585 1_555
Mo11 O2 1.810484 1_555
Mo11 O34 1.845265 1_545
