# generated using pymatgen
data_La3CBr5
_symmetry_space_group_name_H-M   'P 1'
_cell_length_a   9.01117710
_cell_length_b   9.01117710
_cell_length_c   14.63913755
_cell_angle_alpha   76.75390753
_cell_angle_beta   76.75390753
_cell_angle_gamma   74.90066540
_symmetry_Int_Tables_number   1
_chemical_formula_structural   La3CBr5
_chemical_formula_sum   'La12 C4 Br20'
_cell_volume   1098.83482548
_cell_formula_units_Z   4
loop_
 _symmetry_equiv_pos_site_id
 _symmetry_equiv_pos_as_xyz
  1  'x, y, z'
loop_
 _atom_site_type_symbol
 _atom_site_label
 _atom_site_symmetry_multiplicity
 _atom_site_fract_x
 _atom_site_fract_y
 _atom_site_fract_z
 _atom_site_occupancy
  La  La0  1  0.61947239  0.66085024  0.59432123  1
  La  La1  1  0.98969003  0.71241180  0.67453052  1
  La  La2  1  0.32000943  0.98511157  0.08723368  1
  La  La3  1  0.01030997  0.28758820  0.32546948  1
  La  La4  1  0.67999057  0.01488843  0.91276632  1
  La  La5  1  0.01488843  0.67999057  0.41276632  1
  La  La6  1  0.98511157  0.32000943  0.58723368  1
  La  La7  1  0.71241180  0.98969003  0.17453052  1
  La  La8  1  0.38052761  0.33914976  0.40567877  1
  La  La9  1  0.66085024  0.61947239  0.09432123  1
  La  La10  1  0.33914976  0.38052761  0.90567877  1
  La  La11  1  0.28758820  0.01030997  0.82546948  1
  C  C0  1  0.11187905  0.39515869  0.42058607  1
  C  C1  1  0.88812095  0.60484131  0.57941393  1
  C  C2  1  0.39515869  0.11187905  0.92058607  1
  C  C3  1  0.60484131  0.88812095  0.07941393  1
  Br  Br0  1  0.97735420  0.02264580  0.75000000  1
  Br  Br1  1  0.88250490  0.63694657  0.22766767  1
  Br  Br2  1  0.63694657  0.88250490  0.72766767  1
  Br  Br3  1  0.35824770  0.64175230  0.25000000  1
  Br  Br4  1  0.66320171  0.87887276  0.40710558  1
  Br  Br5  1  0.38166673  0.69995046  0.98106485  1
  Br  Br6  1  0.69659867  0.30340133  0.25000000  1
  Br  Br7  1  0.30004954  0.61833327  0.51893515  1
  Br  Br8  1  0.64175230  0.35824770  0.75000000  1
  Br  Br9  1  0.12112724  0.33679829  0.09289442  1
  Br  Br10  1  0.30340133  0.69659867  0.75000000  1
  Br  Br11  1  0.87887276  0.66320171  0.90710558  1
  Br  Br12  1  0.36305343  0.11749510  0.27233233  1
  Br  Br13  1  -0.00000000  0.00000000  0.00000000  1
  Br  Br14  1  0.02264580  0.97735420  0.25000000  1
  Br  Br15  1  0.61833327  0.30004954  0.01893515  1
  Br  Br16  1  0.33679829  0.12112724  0.59289442  1
  Br  Br17  1  0.69995046  0.38166673  0.48106485  1
  Br  Br18  1  0.11749510  0.36305343  0.77233233  1
  Br  Br19  1  -0.00000000  0.00000000  0.50000000  1
loop_
_geom_bond_atom_site_label_1
_geom_bond_atom_site_label_2
_geom_bond_distance
_geom_bond_site_symmetry_2
C0 La8 2.309684 1_555
C0 La3 2.319685 1_555
C0 La6 2.466549 1_455
C0 La5 2.471288 1_555
C1 La0 2.309684 1_555
C1 La1 2.319685 1_555
C1 La5 2.466549 1_655
C1 La6 2.471288 1_555
C2 La10 2.309684 1_555
C2 La11 2.319685 1_555
C2 La2 2.466549 1_546
C2 La4 2.471288 1_555
C3 La9 2.309684 1_555
C3 La7 2.319685 1_555
C3 La4 2.466549 1_564
C3 La2 2.471288 1_555
Br0 La6 3.155623 1_555
Br0 La4 3.155623 1_555
Br0 La11 3.200844 1_655
Br0 La1 3.200844 1_545
Br1 La9 3.149031 1_555
Br1 La7 3.151685 1_555
Br1 La3 3.176182 1_655
Br1 La5 3.334663 1_655
Br2 La0 3.149031 1_555
Br2 La1 3.151685 1_555
Br2 La11 3.176182 1_565
Br2 La4 3.334663 1_565
Br3 La8 3.121896 1_555
Br3 La9 3.121896 1_555
Br3 La5 3.436832 1_555
Br3 La2 3.436832 1_555
Br4 La0 2.994543 1_555
Br4 La5 3.217964 1_655
Br4 La7 3.281242 1_555
Br5 La9 3.164470 1_556
Br5 La2 3.165124 1_556
Br5 La11 3.234029 1_565
Br5 La10 3.445830 1_555
Br6 La9 3.208353 1_555
Br6 La8 3.208353 1_555
Br6 La3 3.222044 1_655
Br6 La7 3.222044 1_545
Br7 La8 3.164470 1_555
Br7 La5 3.165124 1_555
Br7 La1 3.234029 1_455
Br7 La0 3.445830 1_555
Br8 La10 3.121896 1_555
Br8 La0 3.121896 1_555
Br8 La4 3.436832 1_555
Br8 La6 3.436832 1_555
Br9 La10 2.994543 1_554
Br9 La2 3.217964 1_545
Br9 La3 3.281242 1_555
Br10 La0 3.208353 1_555
Br10 La10 3.208353 1_555
Br10 La11 3.222044 1_565
Br10 La1 3.222044 1_455
Br11 La9 2.994543 1_556
Br11 La4 3.217964 1_565
Br11 La1 3.281242 1_555
Br12 La8 3.149031 1_555
Br12 La3 3.151685 1_555
Br12 La7 3.176182 1_545
Br12 La2 3.334663 1_545
Br13 La11 3.199188 1_554
Br13 La7 3.199188 1_445
Br13 La4 3.372210 1_454
Br13 La2 3.372210 1_545
Br14 La2 3.155623 1_555
Br14 La5 3.155623 1_555
Br14 La3 3.200844 1_565
Br14 La7 3.200844 1_455
Br15 La10 3.164470 1_554
Br15 La4 3.165124 1_554
Br15 La7 3.234029 1_545
Br15 La9 3.445830 1_555
Br16 La8 2.994543 1_555
Br16 La6 3.217964 1_455
Br16 La11 3.281242 1_555
Br17 La0 3.164470 1_555
Br17 La6 3.165124 1_555
Br17 La3 3.234029 1_655
Br17 La8 3.445830 1_555
Br18 La10 3.149031 1_555
Br18 La11 3.151685 1_555
Br18 La1 3.176182 1_455
Br18 La6 3.334663 1_455
Br19 La3 3.199188 1_555
Br19 La1 3.199188 1_445
Br19 La6 3.372210 1_455
Br19 La5 3.372210 1_545
