# generated using pymatgen
data_Tb11S16
_symmetry_space_group_name_H-M   'P 1'
_cell_length_a   8.31163800
_cell_length_b   8.36931100
_cell_length_c   16.80289400
_cell_angle_alpha   90.00000000
_cell_angle_beta   90.00000000
_cell_angle_gamma   90.00000000
_symmetry_Int_Tables_number   1
_chemical_formula_structural   Tb11S16
_chemical_formula_sum   'Tb22 S32'
_cell_volume   1168.85439454
_cell_formula_units_Z   2
loop_
 _symmetry_equiv_pos_site_id
 _symmetry_equiv_pos_as_xyz
  1  'x, y, z'
loop_
 _atom_site_type_symbol
 _atom_site_label
 _atom_site_symmetry_multiplicity
 _atom_site_fract_x
 _atom_site_fract_y
 _atom_site_fract_z
 _atom_site_occupancy
  Tb  Tb0  1  0.25659000  0.36104600  0.87957900  1
  Tb  Tb1  1  0.50014600  0.75030100  0.81896700  1
  Tb  Tb2  1  0.73286100  0.12411800  0.87780300  1
  Tb  Tb3  1  0.01928600  0.75612100  0.93852400  1
  Tb  Tb4  1  0.73286100  0.87588200  0.12219700  1
  Tb  Tb5  1  0.62897000  0.50000000  0.00000000  1
  Tb  Tb6  1  0.01928600  0.24387900  0.06147600  1
  Tb  Tb7  1  0.25659000  0.63895400  0.12042100  1
  Tb  Tb8  1  0.50014600  0.24969900  0.18103300  1
  Tb  Tb9  1  0.26713900  0.37588200  0.37780300  1
  Tb  Tb10  1  0.87937900  0.49585000  0.25001300  1
  Tb  Tb11  1  0.12062100  0.99585000  0.24998700  1
  Tb  Tb12  1  0.49985400  0.74969900  0.31896700  1
  Tb  Tb13  1  0.74341000  0.13895400  0.37957900  1
  Tb  Tb14  1  0.98071400  0.74387900  0.43852400  1
  Tb  Tb15  1  0.74341000  0.86104600  0.62042100  1
  Tb  Tb16  1  0.37103000  0.00000000  0.50000000  1
  Tb  Tb17  1  0.98071400  0.25612100  0.56147600  1
  Tb  Tb18  1  0.26713900  0.62411800  0.62219700  1
  Tb  Tb19  1  0.49985400  0.25030100  0.68103300  1
  Tb  Tb20  1  0.87937900  0.50415000  0.74998700  1
  Tb  Tb21  1  0.12062100  0.00415000  0.75001300  1
  S  S0  1  0.18001300  0.68379300  0.78319500  1
  S  S1  1  0.42018200  0.07330800  0.83090000  1
  S  S2  1  0.93726300  0.43805500  0.90998700  1
  S  S3  1  0.57578400  0.42606700  0.84160200  1
  S  S4  1  0.05655900  0.07686200  0.90752300  1
  S  S5  1  0.81820100  0.82646200  0.78302600  1
  S  S6  1  0.69596400  0.18397700  0.03768000  1
  S  S7  1  0.69596400  0.81602300  0.96232000  1
  S  S8  1  0.93726300  0.56194500  0.09001300  1
  S  S9  1  0.33316700  0.67100100  0.96060500  1
  S  S10  1  0.42018200  0.92669200  0.16910000  1
  S  S11  1  0.05655900  0.92313800  0.09247700  1
  S  S12  1  0.57578400  0.57393300  0.15839800  1
  S  S13  1  0.33316700  0.32899900  0.03939500  1
  S  S14  1  0.18179900  0.67353800  0.28302600  1
  S  S15  1  0.18001300  0.31620700  0.21680500  1
  S  S16  1  0.42421600  0.07393300  0.34160200  1
  S  S17  1  0.81820100  0.17353800  0.21697400  1
  S  S18  1  0.94344100  0.42313800  0.40752300  1
  S  S19  1  0.57981800  0.42669200  0.33090000  1
  S  S20  1  0.06273700  0.06194500  0.40998700  1
  S  S21  1  0.81998700  0.81620700  0.28319500  1
  S  S22  1  0.66683300  0.17100100  0.53939500  1
  S  S23  1  0.66683300  0.82899900  0.46060500  1
  S  S24  1  0.94344100  0.57686200  0.59247700  1
  S  S25  1  0.30403600  0.68397700  0.46232000  1
  S  S26  1  0.42421600  0.92606700  0.65839800  1
  S  S27  1  0.06273700  0.93805500  0.59001300  1
  S  S28  1  0.57981800  0.57330800  0.66910000  1
  S  S29  1  0.30403600  0.31602300  0.53768000  1
  S  S30  1  0.18179900  0.32646200  0.71697400  1
  S  S31  1  0.81998700  0.18379300  0.71680500  1
loop_
_geom_bond_atom_site_label_1
_geom_bond_atom_site_label_2
_geom_bond_distance
_geom_bond_site_symmetry_2
S0 Tb21 2.782662 1_565
S0 Tb1 2.784086 1_555
S0 Tb18 2.844667 1_555
S0 Tb20 2.969114 1_455
S0 Tb3 2.993835 1_555
S0 Tb0 3.213146 1_555
S1 Tb2 2.748835 1_555
S1 Tb1 2.791061 1_545
S1 Tb0 2.883947 1_555
S1 Tb21 2.895096 1_555
S1 Tb19 2.995684 1_555
S2 Tb0 2.778645 1_655
S2 Tb20 2.786628 1_555
S2 Tb3 2.789428 1_655
S2 Tb5 3.020325 1_556
S2 Tb6 3.095985 1_656
S2 Tb2 3.175245 1_555
S3 Tb5 2.768052 1_556
S3 Tb0 2.782423 1_555
S3 Tb1 2.811333 1_555
S3 Tb2 2.908741 1_555
S3 Tb20 3.027245 1_555
S3 Tb19 3.137130 1_555
S4 Tb3 2.751949 1_545
S4 Tb2 2.764847 1_455
S4 Tb21 2.767393 1_555
S4 Tb0 2.939653 1_555
S4 Tb6 2.956635 1_556
S5 Tb1 2.785571 1_555
S5 Tb20 2.800610 1_555
S5 Tb15 2.816969 1_555
S5 Tb21 2.972787 1_665
S5 Tb2 3.040597 1_565
S5 Tb3 3.157021 1_655
S6 Tb2 2.749864 1_554
S6 Tb6 2.762786 1_655
S6 Tb5 2.776038 1_555
S6 Tb8 2.958646 1_555
S6 Tb4 2.959679 1_545
S7 Tb4 2.749864 1_556
S7 Tb3 2.762786 1_655
S7 Tb5 2.776038 1_556
S7 Tb1 2.958646 1_555
S7 Tb2 2.959679 1_565
S8 Tb7 2.778645 1_655
S8 Tb10 2.786628 1_555
S8 Tb6 2.789428 1_655
S8 Tb5 3.020325 1_555
S8 Tb3 3.095985 1_654
S8 Tb4 3.175245 1_555
S9 Tb3 2.729715 1_555
S9 Tb7 2.772772 1_556
S9 Tb1 2.833852 1_555
S9 Tb5 2.920813 1_556
S9 Tb0 2.998019 1_555
S10 Tb4 2.748835 1_555
S10 Tb8 2.791061 1_565
S10 Tb7 2.883947 1_555
S10 Tb11 2.895096 1_555
S10 Tb12 2.995684 1_555
S11 Tb6 2.751949 1_565
S11 Tb4 2.764847 1_455
S11 Tb11 2.767393 1_555
S11 Tb7 2.939653 1_555
S11 Tb3 2.956635 1_554
S12 Tb5 2.768052 1_555
S12 Tb7 2.782423 1_555
S12 Tb8 2.811333 1_555
S12 Tb4 2.908741 1_555
S12 Tb10 3.027245 1_555
S12 Tb12 3.137130 1_555
S13 Tb6 2.729715 1_555
S13 Tb0 2.772772 1_554
S13 Tb8 2.833852 1_555
S13 Tb5 2.920813 1_555
S13 Tb7 2.998019 1_555
S14 Tb12 2.785571 1_555
S14 Tb11 2.800610 1_555
S14 Tb7 2.816969 1_555
S14 Tb10 2.972787 1_455
S14 Tb9 3.040597 1_555
S14 Tb14 3.157021 1_455
S15 Tb11 2.782662 1_545
S15 Tb8 2.784086 1_555
S15 Tb9 2.844667 1_555
S15 Tb10 2.969114 1_455
S15 Tb6 2.993835 1_555
S15 Tb7 3.213146 1_555
S16 Tb16 2.768052 1_555
S16 Tb13 2.782423 1_555
S16 Tb12 2.811333 1_545
S16 Tb9 2.908741 1_555
S16 Tb11 3.027245 1_545
S16 Tb8 3.137130 1_555
S17 Tb8 2.785571 1_555
S17 Tb10 2.800610 1_555
S17 Tb13 2.816969 1_555
S17 Tb11 2.972787 1_645
S17 Tb4 3.040597 1_545
S17 Tb6 3.157021 1_655
S18 Tb14 2.751949 1_555
S18 Tb9 2.764847 1_655
S18 Tb10 2.767393 1_555
S18 Tb13 2.939653 1_555
S18 Tb17 2.956635 1_555
S19 Tb9 2.748835 1_555
S19 Tb12 2.791061 1_555
S19 Tb13 2.883947 1_555
S19 Tb10 2.895096 1_555
S19 Tb8 2.995684 1_555
S20 Tb13 2.778645 1_455
S20 Tb11 2.786628 1_545
S20 Tb14 2.789428 1_445
S20 Tb16 3.020325 1_555
S20 Tb17 3.095985 1_455
S20 Tb9 3.175245 1_555
S21 Tb10 2.782662 1_555
S21 Tb12 2.784086 1_555
S21 Tb4 2.844667 1_555
S21 Tb11 2.969114 1_655
S21 Tb14 2.993835 1_555
S21 Tb13 3.213146 1_565
S22 Tb17 2.729715 1_555
S22 Tb13 2.772772 1_555
S22 Tb19 2.833852 1_555
S22 Tb16 2.920813 1_555
S22 Tb15 2.998019 1_545
S23 Tb14 2.729715 1_555
S23 Tb15 2.772772 1_555
S23 Tb12 2.833852 1_555
S23 Tb16 2.920813 1_565
S23 Tb13 2.998019 1_565
S24 Tb17 2.751949 1_555
S24 Tb18 2.764847 1_655
S24 Tb20 2.767393 1_555
S24 Tb15 2.939653 1_555
S24 Tb14 2.956635 1_555
S25 Tb18 2.749864 1_555
S25 Tb14 2.762786 1_455
S25 Tb16 2.776038 1_565
S25 Tb12 2.958646 1_555
S25 Tb9 2.959679 1_555
S26 Tb16 2.768052 1_565
S26 Tb15 2.782423 1_555
S26 Tb19 2.811333 1_565
S26 Tb18 2.908741 1_555
S26 Tb21 3.027245 1_565
S26 Tb1 3.137130 1_555
S27 Tb15 2.778645 1_455
S27 Tb21 2.786628 1_565
S27 Tb17 2.789428 1_465
S27 Tb16 3.020325 1_565
S27 Tb14 3.095985 1_455
S27 Tb18 3.175245 1_555
S28 Tb18 2.748835 1_555
S28 Tb19 2.791061 1_555
S28 Tb15 2.883947 1_555
S28 Tb20 2.895096 1_555
S28 Tb1 2.995684 1_555
S29 Tb9 2.749864 1_555
S29 Tb17 2.762786 1_455
S29 Tb16 2.776038 1_555
S29 Tb19 2.958646 1_555
S29 Tb18 2.959679 1_555
S30 Tb19 2.785571 1_555
S30 Tb21 2.800610 1_555
S30 Tb0 2.816969 1_555
S30 Tb20 2.972787 1_455
S30 Tb18 3.040597 1_555
S30 Tb17 3.157021 1_455
S31 Tb20 2.782662 1_555
S31 Tb19 2.784086 1_555
S31 Tb2 2.844667 1_555
S31 Tb21 2.969114 1_655
S31 Tb17 2.993835 1_555
S31 Tb15 3.213146 1_545
