# generated using pymatgen
data_Sr11Al4Sn3
_symmetry_space_group_name_H-M   'P 1'
_cell_length_a   12.32671816
_cell_length_b   12.32671816
_cell_length_c   12.32671816
_cell_angle_alpha   60.00000000
_cell_angle_beta   60.00000000
_cell_angle_gamma   60.00000000
_symmetry_Int_Tables_number   1
_chemical_formula_structural   Sr11Al4Sn3
_chemical_formula_sum   'Sr22 Al8 Sn6'
_cell_volume   1324.42509474
_cell_formula_units_Z   2
loop_
 _symmetry_equiv_pos_site_id
 _symmetry_equiv_pos_as_xyz
  1  'x, y, z'
loop_
 _atom_site_type_symbol
 _atom_site_label
 _atom_site_symmetry_multiplicity
 _atom_site_fract_x
 _atom_site_fract_y
 _atom_site_fract_z
 _atom_site_occupancy
  Sr  Sr0  1  0.12910700  0.12910700  0.12910700  1
  Sr  Sr1  1  0.50000000  0.50000000  0.83464900  1
  Sr  Sr2  1  0.50000000  0.16535100  0.83464900  1
  Sr  Sr3  1  0.87089300  0.38732100  0.87089300  1
  Sr  Sr4  1  0.12910700  0.61267900  0.12910700  1
  Sr  Sr5  1  0.50000000  0.83464900  0.50000000  1
  Sr  Sr6  1  0.16535100  0.50000000  0.50000000  1
  Sr  Sr7  1  0.87089300  0.87089300  0.38732100  1
  Sr  Sr8  1  0.50000000  0.83464900  0.16535100  1
  Sr  Sr9  1  0.61267900  0.12910700  0.12910700  1
  Sr  Sr10  1  0.83464900  0.16535100  0.50000000  1
  Sr  Sr11  1  0.87089300  0.87089300  0.87089300  1
  Sr  Sr12  1  0.38732100  0.87089300  0.87089300  1
  Sr  Sr13  1  0.83464900  0.50000000  0.16535100  1
  Sr  Sr14  1  0.50000000  0.50000000  0.50000000  1
  Sr  Sr15  1  0.83464900  0.50000000  0.50000000  1
  Sr  Sr16  1  0.16535100  0.50000000  0.83464900  1
  Sr  Sr17  1  0.50000000  0.50000000  0.16535100  1
  Sr  Sr18  1  0.16535100  0.83464900  0.50000000  1
  Sr  Sr19  1  0.00000000  0.00000000  0.00000000  1
  Sr  Sr20  1  0.12910700  0.12910700  0.61267900  1
  Sr  Sr21  1  0.50000000  0.16535100  0.50000000  1
  Al  Al0  1  0.08380200  0.30539900  0.30539900  1
  Al  Al1  1  0.69460100  0.69460100  0.91619800  1
  Al  Al2  1  0.30539900  0.30539900  0.08380200  1
  Al  Al3  1  0.69460100  0.91619800  0.69460100  1
  Al  Al4  1  0.30539900  0.08380200  0.30539900  1
  Al  Al5  1  0.91619800  0.69460100  0.69460100  1
  Al  Al6  1  0.30539900  0.30539900  0.30539900  1
  Al  Al7  1  0.69460100  0.69460100  0.69460100  1
  Sn  Sn0  1  0.21742000  0.78258000  0.78258000  1
  Sn  Sn1  1  0.21742000  0.21742000  0.78258000  1
  Sn  Sn2  1  0.21742000  0.78258000  0.21742000  1
  Sn  Sn3  1  0.78258000  0.78258000  0.21742000  1
  Sn  Sn4  1  0.78258000  0.21742000  0.78258000  1
  Sn  Sn5  1  0.78258000  0.21742000  0.21742000  1
loop_
_geom_bond_atom_site_label_1
_geom_bond_atom_site_label_2
_geom_bond_distance
_geom_bond_site_symmetry_2
Sr0 Sr19 3.898279 1_555
Sr0 Sr10 4.254748 1_455
Sr0 Sr8 4.254748 1_545
Sr0 Sr2 4.254748 1_554
Sr0 Sr13 4.254748 1_455
Sr0 Sr16 4.254748 1_554
Sr0 Sr18 4.254748 1_545
Sr1 Sr17 4.076470 1_556
Sr1 Sr15 4.125124 1_555
Sr1 Sr5 4.125124 1_555
Sr1 Sr14 4.125124 1_555
Sr1 Sr2 4.125124 1_555
Sr1 Sr16 4.125124 1_555
Sr1 Sr3 4.254748 1_555
Sr1 Sr12 4.254748 1_555
Sr1 Sr9 4.254748 1_556
Sr1 Sr4 4.254748 1_556
Sr2 Sr8 4.076470 1_546
Sr2 Sr21 4.125124 1_555
Sr2 Sr9 4.254748 1_556
Sr3 Sr6 4.254748 1_655
Sr4 Sr6 4.254748 1_555
Sr5 Sr8 4.125124 1_555
Sr5 Sr7 4.254748 1_555
Sr5 Sr9 4.254748 1_565
Sr6 Sr7 4.254748 1_455
Sr8 Sr9 4.254748 1_565
Sr10 Sr18 4.076470 1_645
Sr10 Sr15 4.125124 1_555
Sr10 Sr14 4.125124 1_555
Sr10 Sr13 4.125124 1_555
Sr10 Sr21 4.125124 1_555
Sr10 Sr2 4.125124 1_555
Sr10 Sr11 4.254748 1_545
Sr10 Sr20 4.254748 1_655
Sr10 Sr7 4.254748 1_545
Sr11 Sr19 3.898279 1_666
Sr11 Sr18 4.254748 1_655
Sr11 Sr13 4.254748 1_556
Sr11 Sr8 4.254748 1_556
Sr11 Sr16 4.254748 1_655
Sr11 Sr2 4.254748 1_565
Sr12 Sr19 3.898279 1_566
Sr12 Sr5 4.254748 1_555
Sr12 Sr21 4.254748 1_565
Sr12 Sr17 4.254748 1_556
Sr12 Sr8 4.254748 1_556
Sr12 Sr2 4.254748 1_565
Sr13 Sr16 4.076470 1_654
Sr13 Sr15 4.125124 1_555
Sr13 Sr8 4.125124 1_555
Sr13 Sr14 4.125124 1_555
Sr13 Sr17 4.125124 1_555
Sr13 Sr4 4.254748 1_655
Sr13 Sr3 4.254748 1_554
Sr14 Sr15 4.125124 1_555
Sr14 Sr8 4.125124 1_555
Sr14 Sr5 4.125124 1_555
Sr14 Sr2 4.125124 1_555
Sr14 Sr18 4.125124 1_555
Sr14 Sr21 4.125124 1_555
Sr14 Sr16 4.125124 1_555
Sr14 Sr6 4.125124 1_555
Sr14 Sr17 4.125124 1_555
Sr15 Sr6 4.076470 1_655
Sr15 Sr5 4.125124 1_555
Sr15 Sr3 4.254748 1_555
Sr15 Sr7 4.254748 1_555
Sr15 Sr4 4.254748 1_655
Sr15 Sr20 4.254748 1_655
Sr16 Sr2 4.125124 1_555
Sr16 Sr18 4.125124 1_555
Sr16 Sr6 4.125124 1_555
Sr16 Sr4 4.254748 1_556
Sr16 Sr3 4.254748 1_455
Sr17 Sr8 4.125124 1_555
Sr17 Sr21 4.125124 1_555
Sr17 Sr6 4.125124 1_555
Sr17 Sr9 4.254748 1_555
Sr17 Sr4 4.254748 1_555
Sr17 Sr3 4.254748 1_554
Sr18 Sr8 4.125124 1_555
Sr18 Sr5 4.125124 1_555
Sr18 Sr6 4.125124 1_555
Sr18 Sr20 4.254748 1_565
Sr18 Sr7 4.254748 1_455
Sr19 Sr7 3.898279 1_445
Sr19 Sr3 3.898279 1_454
Sr19 Sr9 3.898279 1_455
Sr19 Sr4 3.898279 1_545
Sr19 Sr20 3.898279 1_554
Sr20 Sr5 4.254748 1_545
Sr20 Sr6 4.254748 1_555
Sr20 Sr21 4.254748 1_555
Sr21 Sr5 4.076470 1_545
Sr21 Sr6 4.125124 1_555
Sr21 Sr9 4.254748 1_555
Sr21 Sr7 4.254748 1_545
Al0 Al4 2.731564 1_555
Al0 Al6 2.731564 1_555
Al0 Al2 2.731564 1_555
Al0 Sr13 3.458401 1_455
Al0 Sr10 3.458401 1_455
Al0 Sr15 3.458408 1_455
Al0 Sr0 3.471571 1_555
Al0 Sr4 3.471581 1_555
Al0 Sr20 3.471581 1_555
Al1 Al5 2.731564 1_555
Al1 Al7 2.731564 1_555
Al1 Al3 2.731564 1_555
Al1 Sr13 3.458401 1_556
Al1 Sr8 3.458401 1_556
Al1 Sr17 3.458408 1_556
Al1 Sr11 3.471571 1_555
Al1 Sr3 3.471581 1_555
Al1 Sr12 3.471581 1_555
Al2 Al6 2.731564 1_555
Al2 Al4 2.731564 1_555
Al2 Sr2 3.458401 1_554
Al2 Sr16 3.458401 1_554
Al2 Sr1 3.458408 1_554
Al2 Sr0 3.471571 1_555
Al2 Sr9 3.471581 1_555
Al2 Sr4 3.471581 1_555
Al3 Al5 2.731564 1_555
Al3 Al7 2.731564 1_555
Al3 Sr10 3.458401 1_565
Al3 Sr2 3.458401 1_565
Al3 Sr21 3.458408 1_565
Al3 Sr11 3.471571 1_555
Al3 Sr7 3.471581 1_555
Al3 Sr12 3.471581 1_555
Al4 Al6 2.731564 1_555
Al4 Sr18 3.458401 1_545
Al4 Sr8 3.458401 1_545
Al4 Sr5 3.458408 1_545
Al4 Sr0 3.471571 1_555
Al4 Sr9 3.471581 1_555
Al4 Sr20 3.471581 1_555
Al5 Al7 2.731564 1_555
Al5 Sr16 3.458401 1_655
Al5 Sr18 3.458401 1_655
Al5 Sr6 3.458408 1_655
Al5 Sr11 3.471571 1_555
Al5 Sr7 3.471581 1_555
Al5 Sr3 3.471581 1_555
Al6 Sr6 3.458411 1_555
Al6 Sr21 3.458411 1_555
Al6 Sr17 3.458411 1_555
Al6 Sr4 3.471577 1_555
Al6 Sr9 3.471577 1_555
Al6 Sr20 3.471577 1_555
Al7 Sr5 3.458411 1_555
Al7 Sr1 3.458411 1_555
Al7 Sr15 3.458411 1_555
Al7 Sr7 3.471577 1_555
Al7 Sr12 3.471577 1_555
Al7 Sr3 3.471577 1_555
Sn0 Sr12 3.535702 1_555
Sn0 Sr4 3.535702 1_556
Sn0 Sr20 3.535702 1_565
Sn0 Sr11 3.535702 1_455
Sn0 Sr1 3.541924 1_555
Sn0 Sr5 3.541924 1_555
Sn0 Sr18 3.541924 1_555
Sn0 Sr16 3.541924 1_555
Sn0 Sr19 3.790199 1_566
Sn1 Sr0 3.535702 1_556
Sn1 Sr20 3.535702 1_555
Sn1 Sr12 3.535702 1_545
Sn1 Sr3 3.535702 1_455
Sn1 Sr2 3.541924 1_555
Sn1 Sr16 3.541924 1_555
Sn1 Sr21 3.541924 1_555
Sn1 Sr6 3.541924 1_555
Sn1 Sr19 3.790199 1_556
Sn2 Sr0 3.535702 1_565
Sn2 Sr4 3.535702 1_555
Sn2 Sr12 3.535702 1_554
Sn2 Sr7 3.535702 1_455
Sn2 Sr18 3.541924 1_555
Sn2 Sr8 3.541924 1_555
Sn2 Sr17 3.541924 1_555
Sn2 Sr6 3.541924 1_555
Sn2 Sr19 3.790199 1_565
Sn3 Sr7 3.535702 1_555
Sn3 Sr9 3.535702 1_565
Sn3 Sr4 3.535702 1_655
Sn3 Sr11 3.535702 1_554
Sn3 Sr5 3.541924 1_555
Sn3 Sr15 3.541924 1_555
Sn3 Sr8 3.541924 1_555
Sn3 Sr13 3.541924 1_555
Sn3 Sr19 3.790199 1_665
Sn4 Sr3 3.535702 1_555
Sn4 Sr20 3.535702 1_655
Sn4 Sr9 3.535702 1_556
Sn4 Sr11 3.535702 1_545
Sn4 Sr1 3.541924 1_555
Sn4 Sr15 3.541924 1_555
Sn4 Sr2 3.541924 1_555
Sn4 Sr10 3.541924 1_555
Sn4 Sr19 3.790199 1_656
Sn5 Sr0 3.535702 1_655
Sn5 Sr9 3.535702 1_555
Sn5 Sr3 3.535702 1_554
Sn5 Sr7 3.535702 1_545
Sn5 Sr13 3.541924 1_555
Sn5 Sr10 3.541924 1_555
Sn5 Sr21 3.541924 1_555
Sn5 Sr17 3.541924 1_555
Sn5 Sr19 3.790199 1_655
