# generated using pymatgen
data_Mo15Se19
_symmetry_space_group_name_H-M   'P 1'
_cell_length_a   9.62931799
_cell_length_b   9.62931799
_cell_length_c   19.85199600
_cell_angle_alpha   90.00000000
_cell_angle_beta   90.00000000
_cell_angle_gamma   119.99999995
_symmetry_Int_Tables_number   1
_chemical_formula_structural   Mo15Se19
_chemical_formula_sum   'Mo30 Se38'
_cell_volume   1594.13783191
_cell_formula_units_Z   2
loop_
 _symmetry_equiv_pos_site_id
 _symmetry_equiv_pos_as_xyz
  1  'x, y, z'
loop_
 _atom_site_type_symbol
 _atom_site_label
 _atom_site_symmetry_multiplicity
 _atom_site_fract_x
 _atom_site_fract_y
 _atom_site_fract_z
 _atom_site_occupancy
  Mo  Mo0  1  0.68743200  0.50447100  0.13343500  1
  Mo  Mo1  1  0.16537000  0.51208100  0.75000000  1
  Mo  Mo2  1  0.02101100  0.17105000  0.55965200  1
  Mo  Mo3  1  0.82895000  0.84996100  0.55965200  1
  Mo  Mo4  1  0.68743200  0.50447100  0.36656500  1
  Mo  Mo5  1  0.81703900  0.31256800  0.36656500  1
  Mo  Mo6  1  0.49552900  0.18296100  0.13343500  1
  Mo  Mo7  1  0.31256800  0.49552900  0.63343500  1
  Mo  Mo8  1  0.51208100  0.34671100  0.25000000  1
  Mo  Mo9  1  0.15003900  0.97898900  0.55965200  1
  Mo  Mo10  1  0.48791900  0.65328900  0.75000000  1
  Mo  Mo11  1  0.65328900  0.16537000  0.25000000  1
  Mo  Mo12  1  0.82895000  0.84996100  0.94034800  1
  Mo  Mo13  1  0.49552900  0.18296100  0.36656500  1
  Mo  Mo14  1  0.84996100  0.02101100  0.44034800  1
  Mo  Mo15  1  0.18296100  0.68743200  0.86656500  1
  Mo  Mo16  1  0.84996100  0.02101100  0.05965200  1
  Mo  Mo17  1  0.18296100  0.68743200  0.63343500  1
  Mo  Mo18  1  0.97898900  0.82895000  0.44034800  1
  Mo  Mo19  1  0.50447100  0.81703900  0.86656500  1
  Mo  Mo20  1  0.17105000  0.15003900  0.44034800  1
  Mo  Mo21  1  0.15003900  0.97898900  0.94034800  1
  Mo  Mo22  1  0.31256800  0.49552900  0.86656500  1
  Mo  Mo23  1  0.02101100  0.17105000  0.94034800  1
  Mo  Mo24  1  0.81703900  0.31256800  0.13343500  1
  Mo  Mo25  1  0.97898900  0.82895000  0.05965200  1
  Mo  Mo26  1  0.50447100  0.81703900  0.63343500  1
  Mo  Mo27  1  0.34671100  0.83463000  0.75000000  1
  Mo  Mo28  1  0.17105000  0.15003900  0.05965200  1
  Mo  Mo29  1  0.83463000  0.48791900  0.25000000  1
  Se  Se0  1  0.99692900  0.62440100  0.35610900  1
  Se  Se1  1  0.03538900  0.32707000  0.04805900  1
  Se  Se2  1  0.37252800  0.99692900  0.64389100  1
  Se  Se3  1  0.62440100  0.62747200  0.85610900  1
  Se  Se4  1  0.00000000  0.00000000  0.33881300  1
  Se  Se5  1  0.34207200  0.03812000  0.25000000  1
  Se  Se6  1  0.33333300  0.66666700  0.53188300  1
  Se  Se7  1  0.00000000  0.00000000  0.83881300  1
  Se  Se8  1  0.32707000  0.29168100  0.54805900  1
  Se  Se9  1  0.30395200  0.34207200  0.75000000  1
  Se  Se10  1  0.66666700  0.33333300  0.46811700  1
  Se  Se11  1  0.29168100  0.96461100  0.45194100  1
  Se  Se12  1  0.96461100  0.67293000  0.54805900  1
  Se  Se13  1  0.67293000  0.70831900  0.04805900  1
  Se  Se14  1  0.03812000  0.69604800  0.75000000  1
  Se  Se15  1  0.70831900  0.03538900  0.54805900  1
  Se  Se16  1  0.67293000  0.70831900  0.45194100  1
  Se  Se17  1  0.62747200  0.00307100  0.14389100  1
  Se  Se18  1  0.00307100  0.37559900  0.64389100  1
  Se  Se19  1  0.00307100  0.37559900  0.85610900  1
  Se  Se20  1  0.96188000  0.30395200  0.25000000  1
  Se  Se21  1  0.70831900  0.03538900  0.95194100  1
  Se  Se22  1  0.03538900  0.32707000  0.45194100  1
  Se  Se23  1  0.66666700  0.33333300  0.03188300  1
  Se  Se24  1  0.62747200  0.00307100  0.35610900  1
  Se  Se25  1  0.37252800  0.99692900  0.85610900  1
  Se  Se26  1  0.99692900  0.62440100  0.14389100  1
  Se  Se27  1  0.96461100  0.67293000  0.95194100  1
  Se  Se28  1  0.37559900  0.37252800  0.35610900  1
  Se  Se29  1  0.65792800  0.96188000  0.75000000  1
  Se  Se30  1  0.32707000  0.29168100  0.95194100  1
  Se  Se31  1  0.00000000  0.00000000  0.66118700  1
  Se  Se32  1  0.33333300  0.66666700  0.96811700  1
  Se  Se33  1  0.29168100  0.96461100  0.04805900  1
  Se  Se34  1  0.69604800  0.65792800  0.25000000  1
  Se  Se35  1  0.62440100  0.62747200  0.64389100  1
  Se  Se36  1  0.00000000  0.00000000  0.16118700  1
  Se  Se37  1  0.37559900  0.37252800  0.14389100  1
loop_
_geom_bond_atom_site_label_1
_geom_bond_atom_site_label_2
_geom_bond_distance
_geom_bond_site_symmetry_2
Mo0 Se23 2.547642 1_555
Mo0 Se26 2.610918 1_555
Mo0 Se37 2.618914 1_555
Mo0 Se13 2.649394 1_555
Mo0 Se34 2.724456 1_555
Mo1 Se19 2.559874 1_555
Mo1 Se18 2.559874 1_555
Mo1 Se9 2.577857 1_555
Mo1 Se14 2.609638 1_555
Mo2 Se31 2.546281 1_555
Mo2 Se22 2.576918 1_555
Mo2 Se8 2.581573 1_555
Mo2 Se15 2.625315 1_455
Mo2 Se18 2.654491 1_555
Mo3 Se31 2.546281 1_665
Mo3 Se16 2.576918 1_555
Mo3 Se15 2.581573 1_565
Mo3 Se12 2.625315 1_555
Mo3 Se35 2.654491 1_555
Mo4 Se10 2.547642 1_555
Mo4 Se0 2.610918 1_555
Mo4 Se28 2.618914 1_555
Mo4 Se16 2.649394 1_555
Mo4 Se34 2.724456 1_555
Mo5 Se10 2.547636 1_555
Mo5 Se24 2.610918 1_555
Mo5 Se0 2.618914 1_555
Mo5 Se22 2.649394 1_655
Mo5 Se20 2.724456 1_555
Mo6 Se23 2.547640 1_555
Mo6 Se37 2.610918 1_555
Mo6 Se17 2.618914 1_555
Mo6 Se33 2.649394 1_545
Mo6 Se5 2.724456 1_555
Mo7 Se6 2.547642 1_555
Mo7 Se18 2.610918 1_555
Mo7 Se35 2.618914 1_555
Mo7 Se8 2.649394 1_555
Mo7 Se9 2.724456 1_555
Mo8 Se37 2.559874 1_555
Mo8 Se28 2.559874 1_555
Mo8 Se5 2.577857 1_555
Mo8 Se34 2.609638 1_555
Mo9 Se31 2.546281 1_565
Mo9 Se11 2.576918 1_555
Mo9 Se12 2.581573 1_455
Mo9 Se8 2.625315 1_565
Mo9 Se2 2.654491 1_555
Mo10 Se35 2.559874 1_555
Mo10 Se3 2.559874 1_555
Mo10 Se29 2.577857 1_555
Mo10 Se9 2.609638 1_555
Mo11 Se24 2.559874 1_555
Mo11 Se17 2.559874 1_555
Mo11 Se20 2.577857 1_555
Mo11 Se5 2.609638 1_555
Mo12 Se7 2.546281 1_665
Mo12 Se13 2.576918 1_556
Mo12 Se21 2.581573 1_565
Mo12 Se27 2.625315 1_555
Mo12 Se3 2.654491 1_555
Mo13 Se10 2.547640 1_555
Mo13 Se28 2.610918 1_555
Mo13 Se24 2.618914 1_555
Mo13 Se11 2.649394 1_545
Mo13 Se5 2.724456 1_555
Mo14 Se4 2.546281 1_655
Mo14 Se15 2.576918 1_555
Mo14 Se22 2.581573 1_655
Mo14 Se16 2.625315 1_545
Mo14 Se24 2.654491 1_555
Mo15 Se32 2.547636 1_555
Mo15 Se25 2.610918 1_555
Mo15 Se19 2.618914 1_555
Mo15 Se27 2.649394 1_455
Mo15 Se14 2.724456 1_555
Mo16 Se36 2.546281 1_655
Mo16 Se21 2.576918 1_554
Mo16 Se1 2.581573 1_655
Mo16 Se13 2.625315 1_545
Mo16 Se17 2.654491 1_555
Mo17 Se6 2.547636 1_555
Mo17 Se2 2.610918 1_555
Mo17 Se18 2.618914 1_555
Mo17 Se12 2.649394 1_455
Mo17 Se14 2.724456 1_555
Mo18 Se4 2.546281 1_665
Mo18 Se12 2.576918 1_555
Mo18 Se16 2.581573 1_555
Mo18 Se11 2.625315 1_655
Mo18 Se0 2.654491 1_555
Mo19 Se32 2.547640 1_555
Mo19 Se3 2.610918 1_555
Mo19 Se25 2.618914 1_555
Mo19 Se21 2.649394 1_565
Mo19 Se29 2.724456 1_555
Mo20 Se4 2.546281 1_555
Mo20 Se8 2.576918 1_555
Mo20 Se11 2.581573 1_545
Mo20 Se22 2.625315 1_555
Mo20 Se28 2.654491 1_555
Mo21 Se7 2.546281 1_565
Mo21 Se33 2.576918 1_556
Mo21 Se27 2.581573 1_455
Mo21 Se30 2.625315 1_565
Mo21 Se25 2.654491 1_555
Mo22 Se32 2.547642 1_555
Mo22 Se19 2.610918 1_555
Mo22 Se3 2.618914 1_555
Mo22 Se30 2.649394 1_555
Mo22 Se9 2.724456 1_555
Mo23 Se7 2.546281 1_555
Mo23 Se1 2.576918 1_556
Mo23 Se30 2.581573 1_555
Mo23 Se21 2.625315 1_455
Mo23 Se19 2.654491 1_555
Mo24 Se23 2.547636 1_555
Mo24 Se17 2.610918 1_555
Mo24 Se26 2.618914 1_555
Mo24 Se1 2.649394 1_655
Mo24 Se20 2.724456 1_555
Mo25 Se36 2.546281 1_665
Mo25 Se27 2.576918 1_554
Mo25 Se13 2.581573 1_555
Mo25 Se33 2.625315 1_655
Mo25 Se26 2.654491 1_555
Mo26 Se6 2.547640 1_555
Mo26 Se35 2.610918 1_555
Mo26 Se2 2.618914 1_555
Mo26 Se15 2.649394 1_565
Mo26 Se29 2.724456 1_555
Mo27 Se2 2.559874 1_555
Mo27 Se25 2.559874 1_555
Mo27 Se14 2.577857 1_555
Mo27 Se29 2.609638 1_555
Mo28 Se36 2.546281 1_555
Mo28 Se30 2.576918 1_554
Mo28 Se33 2.581573 1_545
Mo28 Se1 2.625315 1_555
Mo28 Se37 2.654491 1_555
Mo29 Se0 2.559874 1_555
Mo29 Se26 2.559874 1_555
Mo29 Se34 2.577857 1_555
Mo29 Se20 2.609638 1_555
