# generated using pymatgen
data_ThSiO4
_symmetry_space_group_name_H-M   'P 1'
_cell_length_a   5.96167707
_cell_length_b   5.96167732
_cell_length_c   5.96167787
_cell_angle_alpha   106.40151089
_cell_angle_beta   106.40150066
_cell_angle_gamma   115.80226390
_symmetry_Int_Tables_number   1
_chemical_formula_structural   ThSiO4
_chemical_formula_sum   'Th2 Si2 O8'
_cell_volume   161.60125464
_cell_formula_units_Z   2
loop_
 _symmetry_equiv_pos_site_id
 _symmetry_equiv_pos_as_xyz
  1  'x, y, z'
loop_
 _atom_site_type_symbol
 _atom_site_label
 _atom_site_symmetry_multiplicity
 _atom_site_fract_x
 _atom_site_fract_y
 _atom_site_fract_z
 _atom_site_occupancy
  Th  Th0  1  0.62500000  0.37500000  0.25000000  1
  Th  Th1  1  0.37500000  0.62500000  0.75000000  1
  Si  Si0  1  0.12500000  0.87500000  0.25000000  1
  Si  Si1  1  0.87500000  0.12500000  0.75000000  1
  O  O0  1  0.13632453  0.70985468  0.42646986  1
  O  O1  1  0.70985468  0.78338582  0.57353014  1
  O  O2  1  0.70985468  0.13632453  0.92646986  1
  O  O3  1  0.78338582  0.70985468  0.07353014  1
  O  O4  1  0.29014532  0.86367547  0.07353014  1
  O  O5  1  0.21661418  0.29014532  0.92646986  1
  O  O6  1  0.86367547  0.29014532  0.57353014  1
  O  O7  1  0.29014532  0.21661418  0.42646986  1
loop_
_geom_bond_atom_site_label_1
_geom_bond_atom_site_label_2
_geom_bond_distance
_geom_bond_site_symmetry_2
O0 Si0 1.638111 1_555
O0 Th1 2.372451 1_555
O0 Th0 2.467738 1_455
O1 Si1 1.638106 1_565
O1 Th0 2.372455 1_555
O1 Th1 2.467739 1_555
O2 Si1 1.638110 1_555
O2 Th0 2.372451 1_556
O2 Th1 2.467738 1_545
O3 Si0 1.638106 1_655
O3 Th1 2.372455 1_554
O3 Th0 2.467739 1_555
O4 Si0 1.638110 1_555
O4 Th1 2.372451 1_554
O4 Th0 2.467738 1_565
O5 Si1 1.638106 1_455
O5 Th0 2.372455 1_556
O5 Th1 2.467739 1_555
O6 Si1 1.638111 1_555
O6 Th0 2.372451 1_555
O6 Th1 2.467738 1_655
O7 Si0 1.638106 1_545
O7 Th1 2.372455 1_555
O7 Th0 2.467739 1_555
