# generated using pymatgen
data_Tb(SiAu)2
_symmetry_space_group_name_H-M   'P 1'
_cell_length_a   4.24382551
_cell_length_b   4.24382605
_cell_length_c   5.91239206
_cell_angle_alpha   111.03219408
_cell_angle_beta   111.03219877
_cell_angle_gamma   90.00001082
_symmetry_Int_Tables_number   1
_chemical_formula_structural   Tb(SiAu)2
_chemical_formula_sum   'Tb1 Si2 Au2'
_cell_volume   91.74767030
_cell_formula_units_Z   1
loop_
 _symmetry_equiv_pos_site_id
 _symmetry_equiv_pos_as_xyz
  1  'x, y, z'
loop_
 _atom_site_type_symbol
 _atom_site_label
 _atom_site_symmetry_multiplicity
 _atom_site_fract_x
 _atom_site_fract_y
 _atom_site_fract_z
 _atom_site_occupancy
  Tb  Tb0  1  -0.00000000  -0.00000000  -0.00000000  1
  Si  Si0  1  0.38784754  0.38784754  0.77569408  1
  Si  Si1  1  0.61215246  0.61215246  0.22430592  1
  Au  Au0  1  0.75000000  0.25000000  0.50000000  1
  Au  Au1  1  0.25000000  0.75000000  0.50000000  1
loop_
_geom_bond_atom_site_label_1
_geom_bond_atom_site_label_2
_geom_bond_distance
_geom_bond_site_symmetry_2
Si0 Si1 2.285339 1_556
Si0 Tb0 3.211028 1_666
Si0 Tb0 3.211032 1_656
Si0 Tb0 3.211032 1_566
Si0 Tb0 3.211034 1_556
Si1 Tb0 3.211028 1_555
Si1 Tb0 3.211032 1_565
Si1 Tb0 3.211032 1_655
Si1 Tb0 3.211034 1_665
Au0 Si0 2.544601 1_555
Au0 Si1 2.544601 1_555
Au0 Si0 2.544604 1_655
Au0 Si1 2.544605 1_545
Au0 Tb0 3.315169 1_555
Au0 Tb0 3.315170 1_666
Au0 Tb0 3.315170 1_656
Au0 Tb0 3.315170 1_655
Au1 Si1 2.544601 1_555
Au1 Si0 2.544601 1_555
Au1 Si1 2.544604 1_455
Au1 Si0 2.544605 1_565
Au1 Tb0 3.315169 1_666
Au1 Tb0 3.315170 1_555
Au1 Tb0 3.315170 1_565
Au1 Tb0 3.315170 1_566
