# generated using pymatgen
data_K3(FeSe2)2
_symmetry_space_group_name_H-M   'P 1'
_cell_length_a   7.47446202
_cell_length_b   11.38876425
_cell_length_c   12.08636677
_cell_angle_alpha   90.00000000
_cell_angle_beta   90.00000000
_cell_angle_gamma   90.00000000
_symmetry_Int_Tables_number   1
_chemical_formula_structural   K3(FeSe2)2
_chemical_formula_sum   'K12 Fe8 Se16'
_cell_volume   1028.85059153
_cell_formula_units_Z   4
loop_
 _symmetry_equiv_pos_site_id
 _symmetry_equiv_pos_as_xyz
  1  'x, y, z'
loop_
 _atom_site_type_symbol
 _atom_site_label
 _atom_site_symmetry_multiplicity
 _atom_site_fract_x
 _atom_site_fract_y
 _atom_site_fract_z
 _atom_site_occupancy
  K  K0  1  0.08890137  0.25000000  0.76510182  1
  K  K1  1  0.58890137  0.25000000  0.73489818  1
  K  K2  1  0.91109863  0.75000000  0.23489818  1
  K  K3  1  0.41109863  0.75000000  0.26510182  1
  K  K4  1  0.07618117  0.43024415  0.13602749  1
  K  K5  1  0.57618117  0.06975585  0.36397251  1
  K  K6  1  0.92381883  0.93024415  0.86397251  1
  K  K7  1  0.42381883  0.56975585  0.63602749  1
  K  K8  1  0.92381883  0.56975585  0.86397251  1
  K  K9  1  0.42381883  0.93024415  0.63602749  1
  K  K10  1  0.07618117  0.06975585  0.13602749  1
  K  K11  1  0.57618117  0.43024415  0.36397251  1
  Fe  Fe0  1  0.05147112  0.36669593  0.46841191  1
  Fe  Fe1  1  0.55147112  0.13330407  0.03158809  1
  Fe  Fe2  1  0.94852888  0.86669593  0.53158809  1
  Fe  Fe3  1  0.44852888  0.63330407  0.96841191  1
  Fe  Fe4  1  0.94852888  0.63330407  0.53158809  1
  Fe  Fe5  1  0.44852888  0.86669593  0.96841191  1
  Fe  Fe6  1  0.05147112  0.13330407  0.46841191  1
  Fe  Fe7  1  0.55147112  0.36669593  0.03158809  1
  Se  Se0  1  0.15489150  0.55738006  0.39017789  1
  Se  Se1  1  0.65489150  0.94261994  0.10982211  1
  Se  Se2  1  0.84510850  0.05738006  0.60982211  1
  Se  Se3  1  0.34510850  0.44261994  0.89017789  1
  Se  Se4  1  0.84510850  0.44261994  0.60982211  1
  Se  Se5  1  0.34510850  0.05738006  0.89017789  1
  Se  Se6  1  0.15489150  0.94261994  0.39017789  1
  Se  Se7  1  0.65489150  0.55738006  0.10982211  1
  Se  Se8  1  0.30601448  0.25000000  0.53261130  1
  Se  Se9  1  0.80601448  0.25000000  0.96738870  1
  Se  Se10  1  0.69398552  0.75000000  0.46738870  1
  Se  Se11  1  0.19398552  0.75000000  0.03261130  1
  Se  Se12  1  0.40877155  0.25000000  0.17291383  1
  Se  Se13  1  0.90877155  0.25000000  0.32708617  1
  Se  Se14  1  0.59122845  0.75000000  0.82708617  1
  Se  Se15  1  0.09122845  0.75000000  0.67291383  1
loop_
_geom_bond_atom_site_label_1
_geom_bond_atom_site_label_2
_geom_bond_distance
_geom_bond_site_symmetry_2
K0 Se9 3.232399 1_455
K0 Se8 3.244904 1_555
K0 Se5 3.280988 1_555
K0 Se3 3.280988 1_555
K0 Se2 3.413953 1_455
K0 Se4 3.413953 1_455
K1 Se8 3.232399 1_555
K1 Se9 3.244904 1_555
K1 Se4 3.280988 1_555
K1 Se2 3.280988 1_555
K1 Se3 3.413953 1_555
K1 Se5 3.413953 1_555
K2 Se11 3.232399 1_655
K2 Se10 3.244904 1_555
K2 Se7 3.280988 1_555
K2 Se1 3.280988 1_555
K2 Se0 3.413953 1_655
K2 Se6 3.413953 1_655
K3 Se10 3.232399 1_555
K3 Se11 3.244904 1_555
K3 Se0 3.280988 1_555
K3 Se6 3.280988 1_555
K3 Se7 3.413953 1_555
K3 Se1 3.413953 1_555
K4 Se12 3.254603 1_555
K4 Se13 3.333465 1_455
K4 Se0 3.446487 1_555
K4 Se7 3.480294 1_455
K4 Se9 3.527885 1_454
K4 Se3 3.590223 1_554
K5 Se13 3.254603 1_555
K5 Se12 3.333465 1_555
K5 Se1 3.446487 1_545
K5 Se6 3.480294 1_545
K5 Se8 3.527885 1_555
K5 Se2 3.590223 1_555
K6 Se14 3.254603 1_555
K6 Se15 3.333465 1_655
K6 Se2 3.446487 1_565
K6 Se5 3.480294 1_665
K6 Se11 3.527885 1_656
K6 Se1 3.590223 1_556
K7 Se15 3.254603 1_555
K7 Se14 3.333465 1_555
K7 Se3 3.446487 1_555
K7 Se4 3.480294 1_555
K7 Se10 3.527885 1_555
K7 Se0 3.590223 1_555
K8 Se14 3.254603 1_555
K8 Se15 3.333465 1_655
K8 Se4 3.446487 1_555
K8 Se3 3.480294 1_655
K8 Se11 3.527885 1_656
K8 Se7 3.590223 1_556
K9 Se15 3.254603 1_555
K9 Se14 3.333465 1_555
K9 Se5 3.446487 1_565
K9 Se2 3.480294 1_565
K9 Se10 3.527885 1_555
K9 Se6 3.590223 1_555
K10 Se12 3.254603 1_555
K10 Se13 3.333465 1_455
K10 Se6 3.446487 1_545
K10 Se1 3.480294 1_445
K10 Se9 3.527885 1_454
K10 Se5 3.590223 1_554
K11 Se13 3.254603 1_555
K11 Se12 3.333465 1_555
K11 Se7 3.446487 1_555
K11 Se0 3.480294 1_555
K11 Se8 3.527885 1_555
K11 Se4 3.590223 1_555
Fe0 Se13 2.412799 1_455
Fe0 Se8 2.447074 1_555
Fe0 Se4 2.459262 1_455
Fe0 Se0 2.491532 1_555
Fe1 Se12 2.412799 1_555
Fe1 Se9 2.447074 1_554
Fe1 Se5 2.459262 1_554
Fe1 Se1 2.491532 1_545
Fe2 Se15 2.412799 1_655
Fe2 Se10 2.447074 1_555
Fe2 Se6 2.459262 1_655
Fe2 Se2 2.491532 1_565
Fe3 Se14 2.412799 1_555
Fe3 Se11 2.447074 1_556
Fe3 Se7 2.459262 1_556
Fe3 Se3 2.491532 1_555
Fe4 Se15 2.412799 1_655
Fe4 Se10 2.447074 1_555
Fe4 Se0 2.459262 1_655
Fe4 Se4 2.491532 1_555
Fe5 Se14 2.412799 1_555
Fe5 Se11 2.447074 1_556
Fe5 Se1 2.459262 1_556
Fe5 Se5 2.491532 1_565
Fe6 Se13 2.412799 1_455
Fe6 Se8 2.447074 1_555
Fe6 Se2 2.459262 1_455
Fe6 Se6 2.491532 1_545
Fe7 Se12 2.412799 1_555
Fe7 Se9 2.447074 1_554
Fe7 Se3 2.459262 1_554
Fe7 Se7 2.491532 1_555
