# generated using pymatgen
data_Na2PtO3
_symmetry_space_group_name_H-M   'P 1'
_cell_length_a   10.38595870
_cell_length_b   9.90165501
_cell_length_c   5.48254798
_cell_angle_alpha   79.25990092
_cell_angle_beta   69.49945244
_cell_angle_gamma   31.24064665
_symmetry_Int_Tables_number   1
_chemical_formula_structural   Na2PtO3
_chemical_formula_sum   'Na8 Pt4 O12'
_cell_volume   266.37095200
_cell_formula_units_Z   4
loop_
 _symmetry_equiv_pos_site_id
 _symmetry_equiv_pos_as_xyz
  1  'x, y, z'
loop_
 _atom_site_type_symbol
 _atom_site_label
 _atom_site_symmetry_multiplicity
 _atom_site_fract_x
 _atom_site_fract_y
 _atom_site_fract_z
 _atom_site_occupancy
  Na  Na0  1  0.24432929  0.24432929  0.75567071  1
  Na  Na1  1  0.92033130  0.92033130  0.07966870  1
  Na  Na2  1  0.00567071  0.00567071  0.49432929  1
  Na  Na3  1  0.49432929  0.49432929  0.00567071  1
  Na  Na4  1  0.17033130  0.17033130  0.32966870  1
  Na  Na5  1  0.32966870  0.32966870  0.17033130  1
  Na  Na6  1  0.75567071  0.75567071  0.24432929  1
  Na  Na7  1  0.07966870  0.07966870  0.92033130  1
  Pt  Pt0  1  0.58356106  0.58356106  0.41643894  1
  Pt  Pt1  1  0.66643894  0.66643894  0.83356106  1
  Pt  Pt2  1  0.41643894  0.41643894  0.58356106  1
  Pt  Pt3  1  0.83356106  0.83356106  0.66643894  1
  O  O0  1  0.28920984  0.71079016  0.71079016  1
  O  O1  1  0.66380016  0.15772638  0.79710253  1
  O  O2  1  0.15772638  0.66380016  0.38137093  1
  O  O3  1  0.79710253  0.38137093  0.66380016  1
  O  O4  1  0.09227362  0.58619984  0.86862907  1
  O  O5  1  0.38137093  0.79710253  0.15772638  1
  O  O6  1  0.58619984  0.09227362  0.45289747  1
  O  O7  1  0.53920984  0.96079016  0.96079016  1
  O  O8  1  0.45289747  0.86862907  0.58619984  1
  O  O9  1  0.86862907  0.45289747  0.09227362  1
  O  O10  1  0.96079016  0.53920984  0.53920984  1
  O  O11  1  0.71079016  0.28920984  0.28920984  1
loop_
_geom_bond_atom_site_label_1
_geom_bond_atom_site_label_2
_geom_bond_distance
_geom_bond_site_symmetry_2
Na0 O10 2.249219 1_455
Na0 O7 2.249219 1_545
Na0 O6 2.300267 1_555
Na0 O4 2.300267 1_555
Na0 O8 2.343773 1_545
Na0 O9 2.343773 1_456
Na1 O4 2.313039 1_654
Na1 O6 2.313039 1_565
Na1 O0 2.370015 1_654
Na1 O11 2.370015 1_565
Na1 O2 2.418358 1_655
Na1 O1 2.418358 1_564
Na2 O11 2.249219 1_455
Na2 O0 2.249219 1_545
Na2 O1 2.300267 1_455
Na2 O2 2.300267 1_545
Na2 O3 2.343773 1_455
Na2 O5 2.343773 1_545
Na3 O0 2.249219 1_554
Na3 O11 2.249219 1_555
Na3 O5 2.300267 1_555
Na3 O3 2.300267 1_554
Na3 O2 2.343773 1_555
Na3 O1 2.343773 1_554
Na4 O5 2.313039 1_545
Na4 O3 2.313039 1_455
Na4 O7 2.370015 1_544
Na4 O10 2.370015 1_455
Na4 O9 2.418358 1_455
Na4 O8 2.418358 1_545
Na5 O1 2.313039 1_554
Na5 O2 2.313039 1_555
Na5 O7 2.370015 1_544
Na5 O10 2.370015 1_455
Na5 O4 2.418358 1_554
Na5 O6 2.418358 1_555
Na6 O7 2.249219 1_554
Na6 O10 2.249219 1_555
Na6 O8 2.300267 1_555
Na6 O9 2.300267 1_555
Na6 O4 2.343773 1_654
Na6 O6 2.343773 1_565
Na7 O8 2.313039 1_545
Na7 O9 2.313039 1_456
Na7 O0 2.370015 1_545
Na7 O11 2.370015 1_456
Na7 O3 2.418358 1_455
Na7 O5 2.418358 1_546
O0 Pt0 2.062466 1_555
O0 Pt2 2.062466 1_555
O1 Pt3 2.054142 1_545
O1 Pt2 2.065973 1_555
O2 Pt3 2.054142 1_455
O2 Pt2 2.065973 1_555
O3 Pt1 2.054142 1_555
O3 Pt0 2.065973 1_555
O4 Pt2 2.054142 1_555
O4 Pt3 2.065973 1_455
O5 Pt1 2.054142 1_554
O5 Pt0 2.065973 1_555
O6 Pt2 2.054142 1_555
O6 Pt3 2.065973 1_545
O7 Pt3 2.062466 1_555
O7 Pt1 2.062466 1_555
O8 Pt0 2.054142 1_555
O8 Pt1 2.065973 1_555
O9 Pt0 2.054142 1_555
O9 Pt1 2.065973 1_554
O10 Pt3 2.062466 1_555
O10 Pt1 2.062466 1_555
O11 Pt0 2.062466 1_555
O11 Pt2 2.062466 1_555
