# generated using pymatgen
data_LiInO2
_symmetry_space_group_name_H-M   'P 1'
_cell_length_a   5.56194217
_cell_length_b   5.56194217
_cell_length_c   5.56194217
_cell_angle_alpha   134.16111763
_cell_angle_beta   134.16111763
_cell_angle_gamma   66.83646520
_symmetry_Int_Tables_number   1
_chemical_formula_structural   LiInO2
_chemical_formula_sum   'Li2 In2 O4'
_cell_volume   87.12220980
_cell_formula_units_Z   2
loop_
 _symmetry_equiv_pos_site_id
 _symmetry_equiv_pos_as_xyz
  1  'x, y, z'
loop_
 _atom_site_type_symbol
 _atom_site_label
 _atom_site_symmetry_multiplicity
 _atom_site_fract_x
 _atom_site_fract_y
 _atom_site_fract_z
 _atom_site_occupancy
  Li  Li0  1  0.00000000  0.00000000  -0.00000000  1
  Li  Li1  1  0.75000000  0.25000000  0.50000000  1
  In  In0  1  0.25000000  0.75000000  0.50000000  1
  In  In1  1  0.50000000  0.50000000  -0.00000000  1
  O  O0  1  0.26467015  0.26467015  0.00000000  1
  O  O1  1  0.01467015  0.51467015  0.50000000  1
  O  O2  1  0.73532985  0.73532985  -0.00000000  1
  O  O3  1  0.48532985  0.98532985  0.50000000  1
loop_
_geom_bond_atom_site_label_1
_geom_bond_atom_site_label_2
_geom_bond_distance
_geom_bond_site_symmetry_2
Li0 O3 2.170302 1_545
Li0 O3 2.170302 1_444
Li0 O1 2.170302 1_544
Li0 O1 2.170302 1_555
Li0 O0 2.457410 1_555
Li0 O2 2.457410 1_445
Li1 O0 2.170302 1_656
Li1 O2 2.170302 1_556
Li1 O0 2.170302 1_555
Li1 O2 2.170302 1_545
Li1 O1 2.457410 1_655
Li1 O3 2.457410 1_545
In0 O2 2.170302 1_455
In0 O0 2.170302 1_566
In0 O2 2.170302 1_556
In0 O0 2.170302 1_555
In0 O3 2.184991 1_555
In0 O1 2.184991 1_555
In1 O1 2.170302 1_554
In1 O3 2.170302 1_544
In1 O1 2.170302 1_655
In1 O3 2.170302 1_555
In1 O2 2.184991 1_555
In1 O0 2.184991 1_555
