# generated using pymatgen
data_K8Th(MoO4)6
_symmetry_space_group_name_H-M   'P 1'
_cell_length_a   10.50619500
_cell_length_b   10.51680546
_cell_length_c   14.75313589
_cell_angle_alpha   75.81537111
_cell_angle_beta   83.13806625
_cell_angle_gamma   61.72157678
_symmetry_Int_Tables_number   1
_chemical_formula_structural   K8Th(MoO4)6
_chemical_formula_sum   'K16 Th2 Mo12 O48'
_cell_volume   1391.77566221
_cell_formula_units_Z   2
loop_
 _symmetry_equiv_pos_site_id
 _symmetry_equiv_pos_as_xyz
  1  'x, y, z'
loop_
 _atom_site_type_symbol
 _atom_site_label
 _atom_site_symmetry_multiplicity
 _atom_site_fract_x
 _atom_site_fract_y
 _atom_site_fract_z
 _atom_site_occupancy
  K  K0  1  0.99536500  0.35578800  0.45658300  1
  K  K1  1  0.66632000  0.50417600  0.94982600  1
  K  K2  1  0.99043600  0.15428500  0.04134000  1
  K  K3  1  0.33368000  0.49582400  0.05017400  1
  K  K4  1  0.00956400  0.84571500  0.95866000  1
  K  K5  1  0.32374000  0.98290800  0.55281800  1
  K  K6  1  0.31089000  0.20516000  0.95148800  1
  K  K7  1  0.68911000  0.79484000  0.04851200  1
  K  K8  1  0.00463500  0.64421200  0.54341700  1
  K  K9  1  0.01632800  0.24885000  0.74806000  1
  K  K10  1  0.98367200  0.75115000  0.25194000  1
  K  K11  1  0.67626000  0.01709200  0.44718200  1
  K  K12  1  0.33297700  0.57646700  0.75159100  1
  K  K13  1  0.66935300  0.32192000  0.54139300  1
  K  K14  1  0.66702300  0.42353300  0.24840900  1
  K  K15  1  0.33064700  0.67808000  0.45860700  1
  Th  Th0  1  0.30856300  0.06853800  0.24879700  1
  Th  Th1  1  0.69143700  0.93146200  0.75120300  1
  Mo  Mo0  1  0.67046200  0.11184800  0.15590500  1
  Mo  Mo1  1  0.34836300  0.27040300  0.64655600  1
  Mo  Mo2  1  0.99070900  0.94925700  0.64552900  1
  Mo  Mo3  1  0.33103500  0.39091900  0.34310800  1
  Mo  Mo4  1  0.66896500  0.60908100  0.65689200  1
  Mo  Mo5  1  0.00156000  0.44616900  0.14965800  1
  Mo  Mo6  1  0.32953800  0.88815200  0.84409500  1
  Mo  Mo7  1  0.33423700  0.80335700  0.14367600  1
  Mo  Mo8  1  0.99844000  0.55383100  0.85034200  1
  Mo  Mo9  1  0.65163700  0.72959700  0.35344400  1
  Mo  Mo10  1  0.66576300  0.19664300  0.85632400  1
  Mo  Mo11  1  0.00929100  0.05074300  0.35447100  1
  O  O0  1  0.37202400  0.43210000  0.60227100  1
  O  O1  1  0.20246000  0.28170400  0.58824100  1
  O  O2  1  0.49863000  0.09980800  0.16607300  1
  O  O3  1  0.35882100  0.70630100  0.90121100  1
  O  O4  1  0.00742200  0.61696300  0.10347900  1
  O  O5  1  0.17519200  0.80717300  0.11013500  1
  O  O6  1  0.79754000  0.71829600  0.41175900  1
  O  O7  1  0.99257800  0.38303700  0.89652100  1
  O  O8  1  0.64249300  0.50948700  0.76741500  1
  O  O9  1  0.85284300  0.19315500  0.39491800  1
  O  O10  1  0.80373600  0.98339000  0.09226000  1
  O  O11  1  0.51254400  0.09637100  0.63353800  1
  O  O12  1  0.96573000  0.42955800  0.27126000  1
  O  O13  1  0.30569600  0.25714900  0.76735900  1
  O  O14  1  0.82284100  0.48267900  0.60300800  1
  O  O15  1  0.48890900  0.32148400  0.41109300  1
  O  O16  1  0.69648000  0.76481900  0.67075200  1
  O  O17  1  0.50137000  0.90019200  0.83392700  1
  O  O18  1  0.30352000  0.23518100  0.32924800  1
  O  O19  1  0.05324800  0.09371600  0.23076400  1
  O  O20  1  0.17715900  0.51732100  0.39699200  1
  O  O21  1  0.66079300  0.19630100  0.73304100  1
  O  O22  1  0.85769900  0.44861700  0.09426800  1
  O  O23  1  0.62797600  0.56790000  0.39772900  1
  O  O24  1  0.03427000  0.57044200  0.72874000  1
  O  O25  1  0.01085400  0.87614700  0.39385000  1
  O  O26  1  0.51109100  0.67851600  0.58890700  1
  O  O27  1  0.94675200  0.90628400  0.76923600  1
  O  O28  1  0.19626400  0.01661000  0.90774000  1
  O  O29  1  0.33920700  0.80369900  0.26695900  1
  O  O30  1  0.74400400  0.07171800  0.26806700  1
  O  O31  1  0.17138000  0.03847900  0.39801100  1
  O  O32  1  0.67217600  0.01527600  0.89977700  1
  O  O33  1  0.82862000  0.96152100  0.60198900  1
  O  O34  1  0.98914600  0.12385300  0.60615000  1
  O  O35  1  0.35750700  0.49051300  0.23258500  1
  O  O36  1  0.82480800  0.19282700  0.88986500  1
  O  O37  1  0.48745600  0.90362900  0.36646200  1
  O  O38  1  0.14715700  0.80684500  0.60508200  1
  O  O39  1  0.14230100  0.55138300  0.90573200  1
  O  O40  1  0.32782400  0.98472400  0.10022300  1
  O  O41  1  0.25599600  0.92828200  0.73193300  1
  O  O42  1  0.17988200  0.28925500  0.13224400  1
  O  O43  1  0.49487700  0.66849700  0.10071800  1
  O  O44  1  0.69430400  0.74285100  0.23264100  1
  O  O45  1  0.64117900  0.29369900  0.09878900  1
  O  O46  1  0.50512300  0.33150300  0.89928200  1
  O  O47  1  0.82011800  0.71074500  0.86775600  1
loop_
_geom_bond_atom_site_label_1
_geom_bond_atom_site_label_2
_geom_bond_distance
_geom_bond_site_symmetry_2
K0 O12 2.666286 1_555
K0 O1 2.788512 1_655
K0 O14 2.813923 1_555
K0 O34 2.881276 1_555
K0 O20 3.041051 1_655
K0 O9 3.083812 1_555
K0 O31 3.238323 1_655
K0 O6 3.297972 1_555
K1 O8 2.716993 1_555
K1 O45 2.798295 1_556
K1 O22 2.868041 1_556
K1 O3 2.961356 1_555
K1 O43 3.027273 1_556
K1 O7 3.114487 1_555
K1 O36 3.190355 1_555
K1 O47 3.219608 1_555
K1 O46 3.255982 1_555
K2 O19 2.796600 1_655
K2 O7 2.805997 1_554
K2 O36 2.829012 1_554
K2 O28 2.840962 1_654
K2 O22 2.995067 1_555
K2 O10 3.157299 1_545
K2 O5 3.172545 1_645
K2 O40 3.238305 1_645
K2 O45 3.331750 1_555
K3 O35 2.716993 1_555
K3 O3 2.798295 1_554
K3 O39 2.868041 1_554
K3 O45 2.961356 1_555
K3 O46 3.027273 1_554
K3 O4 3.114487 1_555
K3 O5 3.190355 1_555
K3 O42 3.219608 1_555
K3 O43 3.255982 1_555
K4 O27 2.796600 1_455
K4 O4 2.805997 1_556
K4 O5 2.829012 1_556
K4 O10 2.840962 1_456
K4 O39 2.995067 1_555
K4 O28 3.157299 1_565
K4 O36 3.172545 1_465
K4 O32 3.238305 1_465
K4 O3 3.331750 1_555
K5 O41 2.648291 1_555
K5 O31 2.730025 1_565
K5 O26 2.801863 1_555
K5 O1 2.936513 1_565
K5 O38 3.110977 1_555
K5 O37 3.138013 1_555
K5 O34 3.185454 1_465
K5 O11 3.206312 1_565
K6 O13 2.638261 1_555
K6 O40 2.725882 1_546
K6 O46 2.866181 1_555
K6 O28 2.979024 1_555
K6 O42 2.985536 1_556
K6 O7 3.052534 1_455
K6 O39 3.133886 1_555
K7 O44 2.638261 1_555
K7 O32 2.725882 1_564
K7 O43 2.866181 1_555
K7 O10 2.979024 1_555
K7 O47 2.985536 1_554
K7 O4 3.052534 1_655
K7 O22 3.133886 1_555
K8 O24 2.666286 1_555
K8 O6 2.788512 1_455
K8 O20 2.813923 1_555
K8 O25 2.881276 1_555
K8 O14 3.041051 1_455
K8 O38 3.083812 1_555
K8 O33 3.238323 1_455
K8 O1 3.297972 1_555
K9 O7 2.810992 1_455
K9 O34 2.835543 1_455
K9 O36 2.878529 1_455
K9 O14 2.912550 1_455
K9 O1 2.939736 1_555
K9 O28 2.993034 1_555
K9 O13 3.130762 1_555
K9 O41 3.157436 1_545
K10 O4 2.810992 1_655
K10 O25 2.835543 1_655
K10 O5 2.878529 1_655
K10 O20 2.912550 1_655
K10 O6 2.939736 1_555
K10 O10 2.993034 1_555
K10 O44 3.130762 1_555
K10 O30 3.157436 1_565
K11 O30 2.648291 1_555
K11 O33 2.730025 1_545
K11 O15 2.801863 1_555
K11 O6 2.936513 1_545
K11 O9 3.110977 1_555
K11 O11 3.138013 1_555
K11 O25 3.185454 1_645
K11 O37 3.206312 1_545
K12 O0 2.856484 1_555
K12 O38 2.883301 1_555
K12 O39 2.893481 1_555
K12 O46 2.903690 1_555
K12 O3 2.963489 1_555
K12 O8 3.009240 1_555
K12 O26 3.159328 1_555
K12 O24 3.227712 1_555
K12 O41 3.335082 1_555
K13 O23 2.800152 1_555
K13 O21 2.822909 1_555
K13 O15 2.858803 1_555
K13 O9 2.860967 1_555
K13 O0 2.883989 1_555
K13 O34 3.114562 1_555
K13 O14 3.157813 1_555
K13 O33 3.263828 1_545
K14 O23 2.856484 1_555
K14 O9 2.883301 1_555
K14 O22 2.893481 1_555
K14 O43 2.903690 1_555
K14 O45 2.963489 1_555
K14 O35 3.009240 1_555
K14 O15 3.159328 1_555
K14 O12 3.227712 1_555
K14 O30 3.335082 1_555
K15 O0 2.800152 1_555
K15 O29 2.822909 1_555
K15 O26 2.858803 1_555
K15 O38 2.860967 1_555
K15 O23 2.883989 1_555
K15 O25 3.114562 1_555
K15 O20 3.157813 1_555
K15 O31 3.263828 1_565
Mo0 O30 1.779759 1_555
Mo0 O45 1.782401 1_555
Mo0 O10 1.783961 1_545
Mo0 O2 1.854783 1_555
Mo1 O13 1.772919 1_555
Mo1 O1 1.787855 1_555
Mo1 O0 1.788211 1_555
Mo1 O11 1.861142 1_555
Mo2 O34 1.777719 1_565
Mo2 O38 1.781007 1_655
Mo2 O27 1.827706 1_555
Mo2 O33 1.828092 1_555
Mo3 O35 1.778703 1_555
Mo3 O15 1.783623 1_555
Mo3 O20 1.785276 1_555
Mo3 O18 1.853339 1_555
Mo4 O8 1.778703 1_555
Mo4 O26 1.783623 1_555
Mo4 O14 1.785276 1_555
Mo4 O16 1.853339 1_555
Mo5 O12 1.771450 1_455
Mo5 O4 1.785875 1_555
Mo5 O22 1.789083 1_455
Mo5 O42 1.860800 1_555
Mo6 O41 1.779759 1_555
Mo6 O3 1.782401 1_555
Mo6 O28 1.783961 1_565
Mo6 O17 1.854783 1_555
Mo7 O5 1.778449 1_555
Mo7 O43 1.782835 1_555
Mo7 O29 1.826716 1_555
Mo7 O40 1.828378 1_555
Mo8 O24 1.771450 1_655
Mo8 O7 1.785875 1_555
Mo8 O39 1.789083 1_655
Mo8 O47 1.860800 1_555
Mo9 O44 1.772919 1_555
Mo9 O6 1.787855 1_555
Mo9 O23 1.788211 1_555
Mo9 O37 1.861142 1_555
Mo10 O36 1.778449 1_555
Mo10 O46 1.782835 1_555
Mo10 O21 1.826716 1_555
Mo10 O32 1.828378 1_555
Mo11 O25 1.777719 1_545
Mo11 O9 1.781007 1_455
Mo11 O19 1.827706 1_555
Mo11 O31 1.828092 1_555
O2 Th0 2.329878 1_555
O11 Th1 2.401947 1_545
O16 Th1 2.323668 1_555
O17 Th1 2.329878 1_555
O18 Th0 2.323668 1_555
O19 Th0 2.607510 1_555
O21 Th1 2.595828 1_545
O27 Th1 2.607510 1_555
O29 Th0 2.595828 1_565
O31 Th0 2.521060 1_555
O32 Th1 2.508862 1_545
O33 Th1 2.521060 1_555
O37 Th0 2.401947 1_565
O40 Th0 2.508862 1_565
O42 Th0 2.408010 1_555
O47 Th1 2.408010 1_555
