# generated using pymatgen
data_GdWClO4
_symmetry_space_group_name_H-M   'P 1'
_cell_length_a   6.41922305
_cell_length_b   6.41922305
_cell_length_c   7.04012774
_cell_angle_alpha   75.83784619
_cell_angle_beta   75.83784619
_cell_angle_gamma   70.93800608
_symmetry_Int_Tables_number   1
_chemical_formula_structural   GdWClO4
_chemical_formula_sum   'Gd2 W2 Cl2 O8'
_cell_volume   261.52587343
_cell_formula_units_Z   2
loop_
 _symmetry_equiv_pos_site_id
 _symmetry_equiv_pos_as_xyz
  1  'x, y, z'
loop_
 _atom_site_type_symbol
 _atom_site_label
 _atom_site_symmetry_multiplicity
 _atom_site_fract_x
 _atom_site_fract_y
 _atom_site_fract_z
 _atom_site_occupancy
  Gd  Gd0  1  0.22169600  0.22169600  0.88218500  1
  Gd  Gd1  1  0.77830400  0.77830400  0.11781500  1
  W  W0  1  0.36267000  0.36267000  0.26735200  1
  W  W1  1  0.63733000  0.63733000  0.73264800  1
  Cl  Cl0  1  0.98804400  0.98804400  0.76902600  1
  Cl  Cl1  1  0.01195600  0.01195600  0.23097400  1
  O  O0  1  0.54349800  0.54349800  0.19933100  1
  O  O1  1  0.45650200  0.45650200  0.80066900  1
  O  O2  1  0.11106900  0.49140800  0.15475900  1
  O  O3  1  0.88893100  0.50859200  0.84524100  1
  O  O4  1  0.49140800  0.11106900  0.15475900  1
  O  O5  1  0.50859200  0.88893100  0.84524100  1
  O  O6  1  0.70657700  0.70657700  0.46619400  1
  O  O7  1  0.29342300  0.29342300  0.53380600  1
loop_
_geom_bond_atom_site_label_1
_geom_bond_atom_site_label_2
_geom_bond_distance
_geom_bond_site_symmetry_2
Gd0 O7 2.339379 1_555
Gd0 O3 2.343099 1_455
Gd0 O5 2.343099 1_545
Gd0 O1 2.347441 1_555
Gd0 O4 2.709256 1_556
Gd0 O2 2.709256 1_556
Gd1 O6 2.339379 1_555
Gd1 O4 2.343099 1_565
Gd1 O2 2.343099 1_655
Gd1 O0 2.347441 1_555
Gd1 O5 2.709256 1_554
Gd1 O3 2.709256 1_554
Cl0 Gd1 2.757446 1_556
Cl0 Gd0 2.787942 1_665
Cl1 Gd0 2.757446 1_554
Cl1 Gd1 2.787942 1_445
O0 W0 1.805605 1_555
O1 W1 1.805605 1_555
O2 W0 1.831356 1_555
O3 W1 1.831356 1_555
O4 W0 1.831356 1_555
O5 W1 1.831356 1_555
O6 W1 1.796406 1_555
O7 W0 1.796406 1_555
