# generated using pymatgen
data_SmMoClO4
_symmetry_space_group_name_H-M   'P 1'
_cell_length_a   6.43232448
_cell_length_b   6.43232448
_cell_length_c   7.00646969
_cell_angle_alpha   76.38562807
_cell_angle_beta   76.38562807
_cell_angle_gamma   71.06176811
_symmetry_Int_Tables_number   1
_chemical_formula_structural   SmMoClO4
_chemical_formula_sum   'Sm2 Mo2 Cl2 O8'
_cell_volume   262.47879219
_cell_formula_units_Z   2
loop_
 _symmetry_equiv_pos_site_id
 _symmetry_equiv_pos_as_xyz
  1  'x, y, z'
loop_
 _atom_site_type_symbol
 _atom_site_label
 _atom_site_symmetry_multiplicity
 _atom_site_fract_x
 _atom_site_fract_y
 _atom_site_fract_z
 _atom_site_occupancy
  Sm  Sm0  1  0.77826600  0.77826600  0.11320200  1
  Sm  Sm1  1  0.22173400  0.22173400  0.88679800  1
  Mo  Mo0  1  0.36255600  0.36255600  0.26831500  1
  Mo  Mo1  1  0.63744400  0.63744400  0.73168500  1
  Cl  Cl0  1  0.98893900  0.98893900  0.76495600  1
  Cl  Cl1  1  0.01106100  0.01106100  0.23504400  1
  O  O0  1  0.88388200  0.50983200  0.84881500  1
  O  O1  1  0.29323300  0.29323300  0.53067000  1
  O  O2  1  0.53977200  0.53977200  0.20662500  1
  O  O3  1  0.70676700  0.70676700  0.46933000  1
  O  O4  1  0.46022800  0.46022800  0.79337500  1
  O  O5  1  0.49016800  0.11611800  0.15118500  1
  O  O6  1  0.11611800  0.49016800  0.15118500  1
  O  O7  1  0.50983200  0.88388200  0.84881500  1
loop_
_geom_bond_atom_site_label_1
_geom_bond_atom_site_label_2
_geom_bond_distance
_geom_bond_site_symmetry_2
Mo0 O1 1.770282 1_555
Mo0 O2 1.779087 1_555
Mo0 O5 1.819546 1_555
Mo0 O6 1.819546 1_555
Mo1 O3 1.770282 1_555
Mo1 O4 1.779087 1_555
Mo1 O0 1.819546 1_555
Mo1 O7 1.819546 1_555
Cl0 Sm0 2.775781 1_556
Cl0 Sm1 2.805760 1_665
Cl1 Sm1 2.775781 1_554
Cl1 Sm0 2.805760 1_445
O0 Sm1 2.377749 1_655
O0 Sm0 2.650704 1_556
O1 Sm1 2.388696 1_555
O2 Sm0 2.391092 1_555
O3 Sm0 2.388696 1_555
O4 Sm1 2.391092 1_555
O5 Sm0 2.377749 1_545
O5 Sm1 2.650704 1_554
O6 Sm0 2.377749 1_455
O6 Sm1 2.650704 1_554
O7 Sm1 2.377749 1_565
O7 Sm0 2.650704 1_556
