# generated using pymatgen
data_Sr4Ti5(Si2O11)2
_symmetry_space_group_name_H-M   'P 1'
_cell_length_a   7.61799130
_cell_length_b   7.61799130
_cell_length_c   12.00765735
_cell_angle_alpha   67.41171573
_cell_angle_beta   67.41171573
_cell_angle_gamma   43.79985924
_symmetry_Int_Tables_number   1
_chemical_formula_structural   Sr4Ti5(Si2O11)2
_chemical_formula_sum   'Sr4 Ti5 Si4 O22'
_cell_volume   439.04774206
_cell_formula_units_Z   1
loop_
 _symmetry_equiv_pos_site_id
 _symmetry_equiv_pos_as_xyz
  1  'x, y, z'
loop_
 _atom_site_type_symbol
 _atom_site_label
 _atom_site_symmetry_multiplicity
 _atom_site_fract_x
 _atom_site_fract_y
 _atom_site_fract_z
 _atom_site_occupancy
  Sr  Sr0  1  0.95376500  0.95376500  0.73963800  1
  Sr  Sr1  1  0.76508000  0.76508000  0.26726500  1
  Sr  Sr2  1  0.04623500  0.04623500  0.26036200  1
  Sr  Sr3  1  0.23492000  0.23492000  0.73273500  1
  Ti  Ti0  1  0.24235600  0.75764400  0.00000000  1
  Ti  Ti1  1  0.50000000  0.50000000  0.50000000  1
  Ti  Ti2  1  0.72548000  0.72548000  0.00075600  1
  Ti  Ti3  1  0.75764400  0.24235600  0.00000000  1
  Ti  Ti4  1  0.27452000  0.27452000  0.99924400  1
  Si  Si0  1  0.59430400  0.59430400  0.72938500  1
  Si  Si1  1  0.15751100  0.15751100  0.45347200  1
  Si  Si2  1  0.84248900  0.84248900  0.54652800  1
  Si  Si3  1  0.40569600  0.40569600  0.27061500  1
  O  O0  1  0.67170100  0.20218400  0.18219900  1
  O  O1  1  0.86638900  0.34525700  0.41822700  1
  O  O2  1  0.65474300  0.13361100  0.58177300  1
  O  O3  1  0.45823800  0.95787100  0.11793300  1
  O  O4  1  0.90800200  0.90800200  0.00002000  1
  O  O5  1  0.40484300  0.40484300  0.00097600  1
  O  O6  1  0.14666600  0.14666600  0.59056200  1
  O  O7  1  0.85333400  0.85333400  0.40943800  1
  O  O8  1  0.79781600  0.32829900  0.81780100  1
  O  O9  1  0.46925500  0.46925500  0.35719800  1
  O  O10  1  0.32829900  0.79781600  0.81780100  1
  O  O11  1  0.27866500  0.27866500  0.34478200  1
  O  O12  1  0.54176200  0.04212900  0.88206700  1
  O  O13  1  0.59515700  0.59515700  0.99902400  1
  O  O14  1  0.04212900  0.54176200  0.88206700  1
  O  O15  1  0.53074500  0.53074500  0.64280200  1
  O  O16  1  0.09199800  0.09199800  0.99998000  1
  O  O17  1  0.95787100  0.45823800  0.11793300  1
  O  O18  1  0.13361100  0.65474300  0.58177300  1
  O  O19  1  0.72133500  0.72133500  0.65521800  1
  O  O20  1  0.34525700  0.86638900  0.41822700  1
  O  O21  1  0.20218400  0.67170100  0.18219900  1
loop_
_geom_bond_atom_site_label_1
_geom_bond_atom_site_label_2
_geom_bond_distance
_geom_bond_site_symmetry_2
O0 Si3 1.647353 1_555
O0 Ti3 1.995801 1_555
O0 Sr2 2.596261 1_655
O0 Sr1 2.676434 1_545
O1 Si1 1.679417 1_655
O1 Ti1 2.044133 1_555
O1 Sr1 2.677332 1_555
O1 Sr2 2.734283 1_655
O2 Si2 1.679417 1_545
O2 Ti1 2.044133 1_555
O2 Sr3 2.677332 1_555
O2 Sr0 2.734283 1_545
O3 Ti2 1.941355 1_555
O3 Ti4 1.956174 1_564
O3 Sr2 2.634389 1_565
O3 Sr1 2.660346 1_555
O4 Ti3 1.894196 1_565
O4 Ti0 1.894196 1_655
O4 Sr0 2.918786 1_554
O4 Sr1 3.001932 1_555
O5 Ti4 1.851018 1_554
O5 Ti3 1.985027 1_555
O5 Ti0 1.985027 1_555
O6 Si1 1.588803 1_555
O6 Sr3 2.496872 1_555
O6 Sr0 2.568838 1_445
O7 Si2 1.588803 1_555
O7 Sr1 2.496872 1_555
O7 Sr2 2.568838 1_665
O8 Si0 1.647353 1_555
O8 Ti3 1.995801 1_556
O8 Sr0 2.596261 1_545
O8 Sr3 2.676434 1_655
O9 Si3 1.631449 1_555
O9 Ti1 1.935512 1_555
O9 Sr2 3.092283 1_565
O9 Sr2 3.092283 1_655
O10 Si0 1.647353 1_555
O10 Ti0 1.995801 1_556
O10 Sr0 2.596261 1_455
O10 Sr3 2.676434 1_565
O11 Si3 1.641278 1_555
O11 Si1 1.669111 1_555
O11 Sr1 3.020740 1_455
O11 Sr1 3.020740 1_545
O12 Ti4 1.941355 1_555
O12 Ti2 1.956174 1_546
O12 Sr0 2.634389 1_545
O12 Sr3 2.660346 1_555
O13 Ti2 1.851018 1_556
O13 Ti3 1.985027 1_556
O13 Ti0 1.985027 1_556
O14 Ti4 1.941355 1_555
O14 Ti2 1.956174 1_456
O14 Sr0 2.634389 1_455
O14 Sr3 2.660346 1_555
O15 Si0 1.631449 1_555
O15 Ti1 1.935512 1_555
O15 Sr0 3.092283 1_545
O15 Sr0 3.092283 1_455
O16 Ti3 1.894196 1_456
O16 Ti0 1.894196 1_546
O16 Sr2 2.918786 1_556
O16 Sr3 3.001932 1_555
O17 Ti2 1.941355 1_555
O17 Ti4 1.956174 1_654
O17 Sr2 2.634389 1_655
O17 Sr1 2.660346 1_555
O18 Si2 1.679417 1_455
O18 Ti1 2.044133 1_555
O18 Sr3 2.677332 1_555
O18 Sr0 2.734283 1_455
O19 Si0 1.641278 1_555
O19 Si2 1.669111 1_555
O19 Sr3 3.020740 1_565
O19 Sr3 3.020740 1_655
O20 Si1 1.679417 1_565
O20 Ti1 2.044133 1_555
O20 Sr1 2.677332 1_555
O20 Sr2 2.734283 1_565
O21 Si3 1.647353 1_555
O21 Ti0 1.995801 1_555
O21 Sr2 2.596261 1_565
O21 Sr1 2.676434 1_455
