# generated using pymatgen
data_Ta3P
_symmetry_space_group_name_H-M   'P 1'
_cell_length_a   5.04869323
_cell_length_b   10.14911710
_cell_length_c   10.14911710
_cell_angle_alpha   90.00000000
_cell_angle_beta   90.00000000
_cell_angle_gamma   90.00000000
_symmetry_Int_Tables_number   1
_chemical_formula_structural   Ta3P
_chemical_formula_sum   'Ta24 P8'
_cell_volume   520.03851550
_cell_formula_units_Z   8
loop_
 _symmetry_equiv_pos_site_id
 _symmetry_equiv_pos_as_xyz
  1  'x, y, z'
loop_
 _atom_site_type_symbol
 _atom_site_label
 _atom_site_symmetry_multiplicity
 _atom_site_fract_x
 _atom_site_fract_y
 _atom_site_fract_z
 _atom_site_occupancy
  Ta  Ta0  1  0.73223430  0.16146606  0.65343694  1
  Ta  Ta1  1  0.23223430  0.34656306  0.66146606  1
  Ta  Ta2  1  0.23223430  0.15343694  0.83853394  1
  Ta  Ta3  1  0.73223430  0.33853394  0.84656306  1
  Ta  Ta4  1  0.26776570  0.83853394  0.34656306  1
  Ta  Ta5  1  0.76776570  0.65343694  0.33853394  1
  Ta  Ta6  1  0.76776570  0.84656306  0.16146606  1
  Ta  Ta7  1  0.26776570  0.66146606  0.15343694  1
  Ta  Ta8  1  0.51188447  0.10470819  0.25934475  1
  Ta  Ta9  1  0.01188447  0.74065525  0.60470819  1
  Ta  Ta10  1  0.01188447  0.75934475  0.89529181  1
  Ta  Ta11  1  0.51188447  0.39529181  0.24065525  1
  Ta  Ta12  1  0.48811553  0.89529181  0.74065525  1
  Ta  Ta13  1  0.98811553  0.25934475  0.39529181  1
  Ta  Ta14  1  0.98811553  0.24065525  0.10470819  1
  Ta  Ta15  1  0.48811553  0.60470819  0.75934475  1
  Ta  Ta16  1  0.24242514  0.05745296  0.54035518  1
  Ta  Ta17  1  0.74242514  0.45964482  0.55745296  1
  Ta  Ta18  1  0.74242514  0.04035518  0.94254704  1
  Ta  Ta19  1  0.24242514  0.44254704  0.95964482  1
  Ta  Ta20  1  0.75757486  0.94254704  0.45964482  1
  Ta  Ta21  1  0.25757486  0.54035518  0.44254704  1
  Ta  Ta22  1  0.25757486  0.95964482  0.05745296  1
  Ta  Ta23  1  0.75757486  0.55745296  0.04035518  1
  P  P0  1  0.01546580  0.04259169  0.26883751  1
  P  P1  1  0.51546580  0.73116249  0.54259169  1
  P  P2  1  0.51546580  0.76883751  0.95740831  1
  P  P3  1  0.01546580  0.45740831  0.23116249  1
  P  P4  1  0.98453420  0.95740831  0.73116249  1
  P  P5  1  0.48453420  0.26883751  0.45740831  1
  P  P6  1  0.48453420  0.23116249  0.04259169  1
  P  P7  1  0.98453420  0.54259169  0.76883751  1
loop_
_geom_bond_atom_site_label_1
_geom_bond_atom_site_label_2
_geom_bond_distance
_geom_bond_site_symmetry_2
P0 Ta20 2.544864 1_445
P0 Ta13 2.550594 1_455
P0 Ta4 2.556144 1_545
P0 Ta8 2.586134 1_555
P0 Ta6 2.590287 1_445
P0 Ta22 2.608714 1_545
P0 Ta14 2.614313 1_455
P0 Ta8 2.621194 1_455
P0 Ta16 2.988211 1_555
P1 Ta21 2.544864 1_555
P1 Ta15 2.550594 1_555
P1 Ta5 2.556144 1_555
P1 Ta9 2.586134 1_655
P1 Ta4 2.590287 1_555
P1 Ta20 2.608714 1_555
P1 Ta12 2.614313 1_555
P1 Ta9 2.621194 1_555
P1 Ta17 2.988211 1_555
P2 Ta22 2.544864 1_556
P2 Ta12 2.550594 1_555
P2 Ta6 2.556144 1_556
P2 Ta10 2.586134 1_655
P2 Ta7 2.590287 1_556
P2 Ta23 2.608714 1_556
P2 Ta15 2.614313 1_555
P2 Ta10 2.621194 1_555
P2 Ta18 2.988211 1_565
P3 Ta23 2.544864 1_455
P3 Ta14 2.550594 1_455
P3 Ta7 2.556144 1_555
P3 Ta11 2.586134 1_555
P3 Ta5 2.590287 1_455
P3 Ta21 2.608714 1_555
P3 Ta13 2.614313 1_455
P3 Ta11 2.621194 1_455
P3 Ta19 2.988211 1_554
P4 Ta16 2.544864 1_665
P4 Ta9 2.550594 1_655
P4 Ta0 2.556144 1_565
P4 Ta12 2.586134 1_555
P4 Ta2 2.590287 1_665
P4 Ta18 2.608714 1_565
P4 Ta10 2.614313 1_655
P4 Ta12 2.621194 1_655
P4 Ta20 2.988211 1_555
P5 Ta17 2.544864 1_555
P5 Ta11 2.550594 1_555
P5 Ta1 2.556144 1_555
P5 Ta13 2.586134 1_455
P5 Ta0 2.590287 1_555
P5 Ta16 2.608714 1_555
P5 Ta8 2.614313 1_555
P5 Ta13 2.621194 1_555
P5 Ta21 2.988211 1_555
P6 Ta18 2.544864 1_554
P6 Ta8 2.550594 1_555
P6 Ta2 2.556144 1_554
P6 Ta14 2.586134 1_455
P6 Ta3 2.590287 1_554
P6 Ta19 2.608714 1_554
P6 Ta11 2.614313 1_555
P6 Ta14 2.621194 1_555
P6 Ta22 2.988211 1_545
P7 Ta19 2.544864 1_655
P7 Ta10 2.550594 1_655
P7 Ta3 2.556144 1_555
P7 Ta15 2.586134 1_555
P7 Ta1 2.590287 1_655
P7 Ta17 2.608714 1_555
P7 Ta9 2.614313 1_655
P7 Ta15 2.621194 1_655
P7 Ta23 2.988211 1_556
