# generated using pymatgen
data_AlMoP2O9
_symmetry_space_group_name_H-M   'P 1'
_cell_length_a   8.98554100
_cell_length_b   8.98554100
_cell_length_c   8.87724000
_cell_angle_alpha   90.00000000
_cell_angle_beta   90.00000000
_cell_angle_gamma   90.00000000
_symmetry_Int_Tables_number   1
_chemical_formula_structural   AlMoP2O9
_chemical_formula_sum   'Al4 Mo4 P8 O36'
_cell_volume   716.74788766
_cell_formula_units_Z   4
loop_
 _symmetry_equiv_pos_site_id
 _symmetry_equiv_pos_as_xyz
  1  'x, y, z'
loop_
 _atom_site_type_symbol
 _atom_site_label
 _atom_site_symmetry_multiplicity
 _atom_site_fract_x
 _atom_site_fract_y
 _atom_site_fract_z
 _atom_site_occupancy
  Al  Al0  1  0.00000000  0.00000000  0.00000000  1
  Al  Al1  1  0.50000000  0.50000000  0.00000000  1
  Al  Al2  1  0.50000000  0.50000000  0.50000000  1
  Al  Al3  1  0.00000000  0.00000000  0.50000000  1
  Mo  Mo0  1  0.50000000  0.00000000  0.81837200  1
  Mo  Mo1  1  0.50000000  0.00000000  0.31837200  1
  Mo  Mo2  1  0.00000000  0.50000000  0.68162800  1
  Mo  Mo3  1  0.00000000  0.50000000  0.18162800  1
  P  P0  1  0.68199100  0.31800900  0.75000000  1
  P  P1  1  0.68199100  0.68199100  0.25000000  1
  P  P2  1  0.81800900  0.81800900  0.75000000  1
  P  P3  1  0.81800900  0.18199100  0.25000000  1
  P  P4  1  0.18199100  0.18199100  0.75000000  1
  P  P5  1  0.18199100  0.81800900  0.25000000  1
  P  P6  1  0.31800900  0.68199100  0.75000000  1
  P  P7  1  0.31800900  0.31800900  0.25000000  1
  O  O0  1  0.60152200  0.37391100  0.60877700  1
  O  O1  1  0.50000000  0.00000000  0.01085600  1
  O  O2  1  0.87391100  0.10152200  0.10877700  1
  O  O3  1  0.37391100  0.39847800  0.39122300  1
  O  O4  1  0.83854200  0.64753300  0.73315800  1
  O  O5  1  0.66145800  0.85246700  0.26684200  1
  O  O6  1  0.16145800  0.64753300  0.23315800  1
  O  O7  1  0.00000000  0.50000000  0.98914400  1
  O  O8  1  0.89847800  0.87391100  0.89122300  1
  O  O9  1  0.16145800  0.35246700  0.73315800  1
  O  O10  1  0.62608900  0.39847800  0.89122300  1
  O  O11  1  0.89847800  0.12608900  0.39122300  1
  O  O12  1  0.50000000  0.00000000  0.51085600  1
  O  O13  1  0.37391100  0.60152200  0.89122300  1
  O  O14  1  0.66145800  0.14753300  0.76684200  1
  O  O15  1  0.33854200  0.85246700  0.76684200  1
  O  O16  1  0.87391100  0.89847800  0.60877700  1
  O  O17  1  0.62608900  0.60152200  0.39122300  1
  O  O18  1  0.10152200  0.12608900  0.89122300  1
  O  O19  1  0.64753300  0.83854200  0.76684200  1
  O  O20  1  0.00000000  0.50000000  0.48914400  1
  O  O21  1  0.14753300  0.66145800  0.73315800  1
  O  O22  1  0.33854200  0.14753300  0.26684200  1
  O  O23  1  0.85246700  0.33854200  0.73315800  1
  O  O24  1  0.35246700  0.83854200  0.26684200  1
  O  O25  1  0.10152200  0.87391100  0.39122300  1
  O  O26  1  0.12608900  0.10152200  0.60877700  1
  O  O27  1  0.39847800  0.37391100  0.10877700  1
  O  O28  1  0.64753300  0.16145800  0.26684200  1
  O  O29  1  0.12608900  0.89847800  0.10877700  1
  O  O30  1  0.85246700  0.66145800  0.23315800  1
  O  O31  1  0.60152200  0.62608900  0.10877700  1
  O  O32  1  0.14753300  0.33854200  0.23315800  1
  O  O33  1  0.83854200  0.35246700  0.23315800  1
  O  O34  1  0.39847800  0.62608900  0.60877700  1
  O  O35  1  0.35246700  0.16145800  0.76684200  1
loop_
_geom_bond_atom_site_label_1
_geom_bond_atom_site_label_2
_geom_bond_distance
_geom_bond_site_symmetry_2
Al0 O29 1.745927 1_545
Al0 O8 1.745927 1_444
Al0 O2 1.745927 1_455
Al0 O18 1.745927 1_554
Al1 O13 1.745927 1_554
Al1 O10 1.745927 1_554
Al1 O31 1.745927 1_555
Al1 O27 1.745927 1_555
Al2 O34 1.745927 1_555
Al2 O0 1.745927 1_555
Al2 O3 1.745927 1_555
Al2 O17 1.745927 1_555
Al3 O16 1.745927 1_445
Al3 O25 1.745927 1_545
Al3 O26 1.745927 1_555
Al3 O11 1.745927 1_455
Mo0 O1 1.708727 1_556
Mo0 O19 2.017777 1_545
Mo0 O35 2.017777 1_555
Mo0 O15 2.017777 1_545
Mo0 O14 2.017777 1_555
Mo1 O12 1.708727 1_555
Mo1 O24 2.017777 1_545
Mo1 O5 2.017777 1_545
Mo1 O22 2.017777 1_555
Mo1 O28 2.017777 1_555
Mo2 O20 1.708727 1_555
Mo2 O4 2.017777 1_455
Mo2 O9 2.017777 1_555
Mo2 O23 2.017777 1_455
Mo2 O21 2.017777 1_555
Mo3 O7 1.708727 1_554
Mo3 O32 2.017777 1_555
Mo3 O30 2.017777 1_455
Mo3 O33 2.017777 1_455
Mo3 O6 2.017777 1_555
O0 P0 1.531932 1_555
O2 P3 1.531932 1_555
O3 P7 1.531932 1_555
O4 P2 1.550117 1_555
O5 P1 1.550117 1_555
O6 P5 1.550117 1_555
O8 P2 1.531932 1_555
O9 P4 1.550117 1_555
O10 P0 1.531932 1_555
O11 P3 1.531932 1_555
O13 P6 1.531932 1_555
O14 P0 1.550117 1_555
O15 P6 1.550117 1_555
O16 P2 1.531932 1_555
O17 P1 1.531932 1_555
O18 P4 1.531932 1_555
O19 P2 1.550117 1_555
O21 P6 1.550117 1_555
O22 P7 1.550117 1_555
O23 P0 1.550117 1_555
O24 P5 1.550117 1_555
O25 P5 1.531932 1_555
O26 P4 1.531932 1_555
O27 P7 1.531932 1_555
O28 P3 1.550117 1_555
O29 P5 1.531932 1_555
O30 P1 1.550117 1_555
O31 P1 1.531932 1_555
O32 P7 1.550117 1_555
O33 P3 1.550117 1_555
O34 P6 1.531932 1_555
O35 P4 1.550117 1_555
