# generated using pymatgen
data_Lu3B5O12
_symmetry_space_group_name_H-M   'P 1'
_cell_length_a   4.58707000
_cell_length_b   12.49146200
_cell_length_c   12.78505400
_cell_angle_alpha   90.00000000
_cell_angle_beta   90.00000000
_cell_angle_gamma   90.00000000
_symmetry_Int_Tables_number   1
_chemical_formula_structural   Lu3B5O12
_chemical_formula_sum   'Lu12 B20 O48'
_cell_volume   732.57350163
_cell_formula_units_Z   4
loop_
 _symmetry_equiv_pos_site_id
 _symmetry_equiv_pos_as_xyz
  1  'x, y, z'
loop_
 _atom_site_type_symbol
 _atom_site_label
 _atom_site_symmetry_multiplicity
 _atom_site_fract_x
 _atom_site_fract_y
 _atom_site_fract_z
 _atom_site_occupancy
  Lu  Lu0  1  0.99632500  0.69335500  0.63541500  1
  Lu  Lu1  1  0.00000000  0.50000000  0.86813900  1
  Lu  Lu2  1  0.00000000  0.00000000  0.63186100  1
  Lu  Lu3  1  0.00000000  0.50000000  0.13186100  1
  Lu  Lu4  1  0.99632500  0.80664500  0.13541500  1
  Lu  Lu5  1  0.00000000  0.00000000  0.36813900  1
  Lu  Lu6  1  0.00367500  0.30664500  0.63541500  1
  Lu  Lu7  1  0.00367500  0.30664500  0.36458500  1
  Lu  Lu8  1  0.99632500  0.80664500  0.86458500  1
  Lu  Lu9  1  0.00367500  0.19335500  0.13541500  1
  Lu  Lu10  1  0.99632500  0.69335500  0.36458500  1
  Lu  Lu11  1  0.00367500  0.19335500  0.86458500  1
  B  B0  1  0.45790000  0.12705300  0.00000000  1
  B  B1  1  0.53241000  0.15096300  0.29809100  1
  B  B2  1  0.46759000  0.84903700  0.70190900  1
  B  B3  1  0.50000000  0.50000000  0.33826100  1
  B  B4  1  0.45790000  0.37294700  0.50000000  1
  B  B5  1  0.50000000  0.00000000  0.83826100  1
  B  B6  1  0.53241000  0.34903700  0.20190900  1
  B  B7  1  0.46759000  0.84903700  0.29809100  1
  B  B8  1  0.46759000  0.65096300  0.79809100  1
  B  B9  1  0.46759000  0.65096300  0.20190900  1
  B  B10  1  0.53864800  0.85115100  0.50000000  1
  B  B11  1  0.53241000  0.34903700  0.79809100  1
  B  B12  1  0.54210000  0.62705300  0.50000000  1
  B  B13  1  0.50000000  0.50000000  0.66173900  1
  B  B14  1  0.46135200  0.14884900  0.50000000  1
  B  B15  1  0.53241000  0.15096300  0.70190900  1
  B  B16  1  0.53864800  0.64884900  0.00000000  1
  B  B17  1  0.54210000  0.87294700  0.00000000  1
  B  B18  1  0.46135200  0.35115100  0.00000000  1
  B  B19  1  0.50000000  0.00000000  0.16173900  1
  O  O0  1  0.66529400  0.92513300  0.09615300  1
  O  O1  1  0.69294000  0.06426300  0.76667300  1
  O  O2  1  0.69294000  0.43573700  0.26667300  1
  O  O3  1  0.76219200  0.14108600  0.00000000  1
  O  O4  1  0.78004800  0.84787900  0.70421600  1
  O  O5  1  0.30706000  0.56426300  0.73332700  1
  O  O6  1  0.78004800  0.65212100  0.79578400  1
  O  O7  1  0.76219200  0.35891400  0.50000000  1
  O  O8  1  0.66529400  0.57486700  0.40384700  1
  O  O9  1  0.23780800  0.85891400  0.00000000  1
  O  O10  1  0.76106000  0.93065800  0.50000000  1
  O  O11  1  0.21995200  0.15212100  0.70421600  1
  O  O12  1  0.30706000  0.56426300  0.26667300  1
  O  O13  1  0.23894000  0.43065800  0.00000000  1
  O  O14  1  0.76106000  0.56934200  0.00000000  1
  O  O15  1  0.21995200  0.34787900  0.20421600  1
  O  O16  1  0.23894000  0.06934200  0.50000000  1
  O  O17  1  0.23780800  0.64108600  0.50000000  1
  O  O18  1  0.66035000  0.35549300  0.09485500  1
  O  O19  1  0.66300400  0.25000000  0.75000000  1
  O  O20  1  0.33470600  0.42513300  0.40384700  1
  O  O21  1  0.33965000  0.85549300  0.40514500  1
  O  O22  1  0.30706000  0.93573700  0.76667300  1
  O  O23  1  0.66529400  0.92513300  0.90384700  1
  O  O24  1  0.33965000  0.85549300  0.59485500  1
  O  O25  1  0.66035000  0.14450700  0.59485500  1
  O  O26  1  0.69294000  0.06426300  0.23332700  1
  O  O27  1  0.69294000  0.43573700  0.73332700  1
  O  O28  1  0.33470600  0.07486700  0.90384700  1
  O  O29  1  0.69870300  0.73885200  0.50000000  1
  O  O30  1  0.30706000  0.93573700  0.23332700  1
  O  O31  1  0.21995200  0.15212100  0.29578400  1
  O  O32  1  0.78004800  0.65212100  0.20421600  1
  O  O33  1  0.33699600  0.75000000  0.75000000  1
  O  O34  1  0.33470600  0.42513300  0.59615300  1
  O  O35  1  0.66035000  0.14450700  0.40514500  1
  O  O36  1  0.30129700  0.23885200  0.00000000  1
  O  O37  1  0.33965000  0.64450700  0.09485500  1
  O  O38  1  0.66035000  0.35549300  0.90514500  1
  O  O39  1  0.33699600  0.75000000  0.25000000  1
  O  O40  1  0.30129700  0.26114800  0.50000000  1
  O  O41  1  0.21995200  0.34787900  0.79578400  1
  O  O42  1  0.66300400  0.25000000  0.25000000  1
  O  O43  1  0.33965000  0.64450700  0.90514500  1
  O  O44  1  0.78004800  0.84787900  0.29578400  1
  O  O45  1  0.33470600  0.07486700  0.09615300  1
  O  O46  1  0.66529400  0.57486700  0.59615300  1
  O  O47  1  0.69870300  0.76114800  0.00000000  1
loop_
_geom_bond_atom_site_label_1
_geom_bond_atom_site_label_2
_geom_bond_distance
_geom_bond_site_symmetry_2
Lu0 O17 2.156538 1_655
Lu0 O46 2.179073 1_555
Lu0 O33 2.255836 1_655
Lu0 O29 2.276874 1_555
Lu0 O6 2.335242 1_555
Lu0 O4 2.341740 1_555
Lu0 O5 2.489779 1_655
Lu0 O24 2.617457 1_655
Lu1 O14 2.189442 1_456
Lu1 O13 2.189442 1_556
Lu1 O6 2.341902 1_455
Lu1 O41 2.341902 1_555
Lu1 O27 2.366221 1_455
Lu1 O5 2.366221 1_555
Lu1 O38 2.430968 1_455
Lu1 O43 2.430968 1_555
Lu2 O10 2.189442 1_445
Lu2 O16 2.189442 1_555
Lu2 O4 2.341902 1_445
Lu2 O11 2.341902 1_555
Lu2 O1 2.366221 1_455
Lu2 O22 2.366221 1_545
Lu2 O25 2.430968 1_455
Lu2 O24 2.430968 1_545
Lu3 O14 2.189442 1_455
Lu3 O13 2.189442 1_555
Lu3 O32 2.341902 1_455
Lu3 O15 2.341902 1_555
Lu3 O12 2.366221 1_555
Lu3 O2 2.366221 1_455
Lu3 O18 2.430968 1_455
Lu3 O37 2.430968 1_555
Lu4 O9 2.156538 1_655
Lu4 O0 2.179073 1_555
Lu4 O39 2.255836 1_655
Lu4 O47 2.276874 1_555
Lu4 O44 2.335242 1_555
Lu4 O32 2.341740 1_555
Lu4 O30 2.489779 1_655
Lu4 O37 2.617457 1_655
Lu5 O10 2.189442 1_445
Lu5 O16 2.189442 1_555
Lu5 O44 2.341902 1_445
Lu5 O31 2.341902 1_555
Lu5 O30 2.366221 1_545
Lu5 O26 2.366221 1_455
Lu5 O35 2.430968 1_455
Lu5 O21 2.430968 1_545
Lu6 O7 2.156538 1_455
Lu6 O34 2.179073 1_555
Lu6 O19 2.255836 1_455
Lu6 O40 2.276874 1_555
Lu6 O41 2.335242 1_555
Lu6 O11 2.341740 1_555
Lu6 O27 2.489779 1_455
Lu6 O25 2.617457 1_455
Lu7 O7 2.156538 1_455
Lu7 O20 2.179073 1_555
Lu7 O42 2.255836 1_455
Lu7 O40 2.276874 1_555
Lu7 O15 2.335242 1_555
Lu7 O31 2.341740 1_555
Lu7 O2 2.489779 1_455
Lu7 O35 2.617457 1_455
Lu8 O9 2.156538 1_656
Lu8 O23 2.179073 1_555
Lu8 O33 2.255836 1_655
Lu8 O47 2.276874 1_556
Lu8 O4 2.335242 1_555
Lu8 O6 2.341740 1_555
Lu8 O22 2.489779 1_655
Lu8 O43 2.617457 1_655
Lu9 O3 2.156538 1_455
Lu9 O45 2.179073 1_555
Lu9 O42 2.255836 1_455
Lu9 O36 2.276874 1_555
Lu9 O31 2.335242 1_555
Lu9 O15 2.341740 1_555
Lu9 O26 2.489779 1_455
Lu9 O18 2.617457 1_455
Lu10 O17 2.156538 1_655
Lu10 O8 2.179073 1_555
Lu10 O39 2.255836 1_655
Lu10 O29 2.276874 1_555
Lu10 O32 2.335242 1_555
Lu10 O44 2.341740 1_555
Lu10 O12 2.489779 1_655
Lu10 O21 2.617457 1_655
Lu11 O3 2.156538 1_456
Lu11 O28 2.179073 1_555
Lu11 O19 2.255836 1_455
Lu11 O36 2.276874 1_556
Lu11 O11 2.335242 1_555
Lu11 O41 2.341740 1_555
Lu11 O1 2.489779 1_455
Lu11 O38 2.617457 1_455
B0 O3 1.406773 1_555
B0 O45 1.501837 1_555
B0 O28 1.501837 1_554
B0 O36 1.570455 1_555
B1 O31 1.433643 1_555
B1 O35 1.491387 1_555
B1 O42 1.505771 1_555
B1 O26 1.549433 1_555
B2 O4 1.433643 1_555
B2 O24 1.491387 1_555
B2 O33 1.505771 1_555
B2 O22 1.549433 1_555
B3 O20 1.467175 1_555
B3 O8 1.467175 1_555
B3 O12 1.505112 1_555
B3 O2 1.505112 1_555
B4 O7 1.406773 1_555
B4 O20 1.501837 1_555
B4 O34 1.501837 1_555
B4 O40 1.570455 1_555
B5 O23 1.467175 1_545
B5 O28 1.467175 1_555
B5 O22 1.505112 1_545
B5 O1 1.505112 1_555
B6 O15 1.433643 1_555
B6 O18 1.491387 1_555
B6 O42 1.505771 1_555
B6 O2 1.549433 1_555
B7 O44 1.433643 1_555
B7 O21 1.491387 1_555
B7 O39 1.505771 1_555
B7 O30 1.549433 1_555
B8 O6 1.433643 1_555
B8 O43 1.491387 1_555
B8 O33 1.505771 1_555
B8 O5 1.549433 1_555
B9 O32 1.433643 1_555
B9 O37 1.491387 1_555
B9 O39 1.505771 1_555
B9 O12 1.549433 1_555
B10 O10 1.423802 1_555
B10 O24 1.518843 1_555
B10 O21 1.518843 1_555
B10 O29 1.583292 1_555
B11 O41 1.433643 1_555
B11 O38 1.491387 1_555
B11 O19 1.505771 1_555
B11 O27 1.549433 1_555
B12 O17 1.406773 1_555
B12 O8 1.501837 1_555
B12 O46 1.501837 1_555
B12 O29 1.570455 1_555
B13 O34 1.467175 1_555
B13 O46 1.467175 1_555
B13 O5 1.505112 1_555
B13 O27 1.505112 1_555
B14 O16 1.423802 1_555
B14 O35 1.518843 1_555
B14 O25 1.518843 1_555
B14 O40 1.583292 1_555
B15 O11 1.433643 1_555
B15 O25 1.491387 1_555
B15 O19 1.505771 1_555
B15 O1 1.549433 1_555
B16 O14 1.423802 1_555
B16 O37 1.518843 1_555
B16 O43 1.518843 1_554
B16 O47 1.583292 1_555
B17 O9 1.406773 1_555
B17 O0 1.501837 1_555
B17 O23 1.501837 1_554
B17 O47 1.570455 1_555
B18 O13 1.423802 1_555
B18 O18 1.518843 1_555
B18 O38 1.518843 1_554
B18 O36 1.583292 1_555
B19 O45 1.467175 1_555
B19 O0 1.467175 1_545
B19 O30 1.505112 1_545
B19 O26 1.505112 1_555
