# generated using pymatgen
data_KAu(SO4)2
_symmetry_space_group_name_H-M   'P 1'
_cell_length_a   6.62614915
_cell_length_b   6.62614915
_cell_length_c   9.45180257
_cell_angle_alpha   66.40357777
_cell_angle_beta   66.40357777
_cell_angle_gamma   65.82692731
_symmetry_Int_Tables_number   1
_chemical_formula_structural   KAu(SO4)2
_chemical_formula_sum   'K2 Au2 S4 O16'
_cell_volume   332.78862292
_cell_formula_units_Z   2
loop_
 _symmetry_equiv_pos_site_id
 _symmetry_equiv_pos_as_xyz
  1  'x, y, z'
loop_
 _atom_site_type_symbol
 _atom_site_label
 _atom_site_symmetry_multiplicity
 _atom_site_fract_x
 _atom_site_fract_y
 _atom_site_fract_z
 _atom_site_occupancy
  K  K0  1  0.97505156  0.02494844  0.25000000  1
  K  K1  1  0.02494844  0.97505156  0.75000000  1
  Au  Au0  1  0.50000000  0.50000000  0.50000000  1
  Au  Au1  1  0.50000000  0.50000000  0.00000000  1
  S  S0  1  0.68292733  0.71691500  0.13836704  1
  S  S1  1  0.28308500  0.31707267  0.36163296  1
  S  S2  1  0.71691500  0.68292733  0.63836704  1
  S  S3  1  0.31707267  0.28308500  0.86163296  1
  O  O0  1  0.14900856  0.55346759  0.32126509  1
  O  O1  1  0.49875659  0.27211835  0.21788968  1
  O  O2  1  0.85520197  0.83015159  0.08417323  1
  O  O3  1  0.39044565  0.26108754  0.49560238  1
  O  O4  1  0.14479803  0.16984841  0.91582677  1
  O  O5  1  0.16984841  0.14479803  0.41582677  1
  O  O6  1  0.50124341  0.72788165  0.78211032  1
  O  O7  1  0.26108754  0.39044565  0.99560238  1
  O  O8  1  0.27211835  0.49875659  0.71788968  1
  O  O9  1  0.73891246  0.60955435  0.00439762  1
  O  O10  1  0.72788165  0.50124341  0.28211032  1
  O  O11  1  0.85099144  0.44653241  0.67873491  1
  O  O12  1  0.55346759  0.14900856  0.82126509  1
  O  O13  1  0.44653241  0.85099144  0.17873491  1
  O  O14  1  0.83015159  0.85520197  0.58417323  1
  O  O15  1  0.60955435  0.73891246  0.50439762  1
loop_
_geom_bond_atom_site_label_1
_geom_bond_atom_site_label_2
_geom_bond_distance
_geom_bond_site_symmetry_2
K0 O0 2.744091 1_645
K0 O13 2.744091 1_645
K0 O4 2.788501 1_654
K0 O14 2.788501 1_545
K0 O5 2.865128 1_655
K0 O2 2.865128 1_545
K0 O10 2.978332 1_555
K0 O1 2.978332 1_555
K0 O7 3.269238 1_654
K0 O15 3.269238 1_545
K1 O11 2.744091 1_465
K1 O12 2.744091 1_465
K1 O2 2.788501 1_456
K1 O5 2.788501 1_565
K1 O4 2.865128 1_565
K1 O14 2.865128 1_455
K1 O6 2.978332 1_555
K1 O8 2.978332 1_555
K1 O9 3.269238 1_456
K1 O3 3.269238 1_565
Au0 O8 2.007099 1_555
Au0 O10 2.007099 1_555
Au0 O3 2.013159 1_555
Au0 O15 2.013159 1_555
Au1 O6 2.007099 1_554
Au1 O1 2.007099 1_555
Au1 O9 2.013159 1_555
Au1 O7 2.013159 1_554
O0 S1 1.428855 1_555
O1 S1 1.548492 1_555
O2 S0 1.433207 1_555
O3 S1 1.541445 1_555
O4 S3 1.433207 1_555
O5 S1 1.433207 1_555
O6 S2 1.548492 1_555
O7 S3 1.541445 1_555
O8 S3 1.548492 1_555
O9 S0 1.541445 1_555
O10 S0 1.548492 1_555
O11 S2 1.428855 1_555
O12 S3 1.428855 1_555
O13 S0 1.428855 1_555
O14 S2 1.433207 1_555
O15 S2 1.541445 1_555
