# generated using pymatgen
data_K2ZnSiO4
_symmetry_space_group_name_H-M   'P 1'
_cell_length_a   5.50046100
_cell_length_b   11.06865000
_cell_length_c   15.79671600
_cell_angle_alpha   90.00000000
_cell_angle_beta   90.00000000
_cell_angle_gamma   90.00000000
_symmetry_Int_Tables_number   1
_chemical_formula_structural   K2ZnSiO4
_chemical_formula_sum   'K16 Zn8 Si8 O32'
_cell_volume   961.74636812
_cell_formula_units_Z   8
loop_
 _symmetry_equiv_pos_site_id
 _symmetry_equiv_pos_as_xyz
  1  'x, y, z'
loop_
 _atom_site_type_symbol
 _atom_site_label
 _atom_site_symmetry_multiplicity
 _atom_site_fract_x
 _atom_site_fract_y
 _atom_site_fract_z
 _atom_site_occupancy
  K  K0  1  0.49835900  0.98563400  0.93802600  1
  K  K1  1  0.50164100  0.01436600  0.43802600  1
  K  K2  1  0.50164100  0.48563400  0.93802600  1
  K  K3  1  0.49835900  0.51436600  0.43802600  1
  K  K4  1  0.45248800  0.73823500  0.81623500  1
  K  K5  1  0.54751200  0.26176500  0.31623500  1
  K  K6  1  0.54751200  0.23823500  0.81623500  1
  K  K7  1  0.45248800  0.76176500  0.31623500  1
  K  K8  1  0.00473300  0.01378900  0.06124800  1
  K  K9  1  0.99526700  0.98621100  0.56124800  1
  K  K10  1  0.99526700  0.51378900  0.06124800  1
  K  K11  1  0.00473300  0.48621100  0.56124800  1
  K  K12  1  0.04986200  0.26450400  0.18537400  1
  K  K13  1  0.95013800  0.73549600  0.68537400  1
  K  K14  1  0.95013800  0.76450400  0.18537400  1
  K  K15  1  0.04986200  0.23549600  0.68537400  1
  Zn  Zn0  1  0.99240300  0.99207700  0.81125700  1
  Zn  Zn1  1  0.00759700  0.00792300  0.31125700  1
  Zn  Zn2  1  0.00759700  0.49207700  0.81125700  1
  Zn  Zn3  1  0.99240300  0.50792300  0.31125700  1
  Zn  Zn4  1  0.53450900  0.25913700  0.06376200  1
  Zn  Zn5  1  0.46549100  0.74086300  0.56376200  1
  Zn  Zn6  1  0.46549100  0.75913700  0.06376200  1
  Zn  Zn7  1  0.53450900  0.24086300  0.56376200  1
  Si  Si0  1  0.50972900  0.00751800  0.18908900  1
  Si  Si1  1  0.49027100  0.99248200  0.68908900  1
  Si  Si2  1  0.49027100  0.50751800  0.18908900  1
  Si  Si3  1  0.50972900  0.49248200  0.68908900  1
  Si  Si4  1  0.96796600  0.73589000  0.93563900  1
  Si  Si5  1  0.03203400  0.26411000  0.43563900  1
  Si  Si6  1  0.03203400  0.23589000  0.93563900  1
  Si  Si7  1  0.96796600  0.76411000  0.43563900  1
  O  O0  1  0.69913300  0.70347400  0.97708000  1
  O  O1  1  0.30086700  0.29652600  0.47708000  1
  O  O2  1  0.30086700  0.20347400  0.97708000  1
  O  O3  1  0.69913300  0.79652600  0.47708000  1
  O  O4  1  0.09328800  0.60787400  0.90264300  1
  O  O5  1  0.90671200  0.39212600  0.40264300  1
  O  O6  1  0.90671200  0.10787400  0.90264300  1
  O  O7  1  0.09328800  0.89212600  0.40264300  1
  O  O8  1  0.93166200  0.82631100  0.85342000  1
  O  O9  1  0.06833800  0.17368900  0.35342000  1
  O  O10  1  0.06833800  0.32631100  0.85342000  1
  O  O11  1  0.93166200  0.67368900  0.35342000  1
  O  O12  1  0.33299700  0.02203800  0.77622400  1
  O  O13  1  0.66700300  0.97796200  0.27622400  1
  O  O14  1  0.66700300  0.52203800  0.77622400  1
  O  O15  1  0.33299700  0.47796200  0.27622400  1
  O  O16  1  0.85156800  0.29574600  0.00839000  1
  O  O17  1  0.14843200  0.70425400  0.50839000  1
  O  O18  1  0.14843200  0.79574600  0.00839000  1
  O  O19  1  0.85156800  0.20425400  0.50839000  1
  O  O20  1  0.41319200  0.41601700  0.11043400  1
  O  O21  1  0.58680800  0.58398300  0.61043400  1
  O  O22  1  0.58680800  0.91601700  0.11043400  1
  O  O23  1  0.41319200  0.08398300  0.61043400  1
  O  O24  1  0.57079300  0.14873100  0.16084900  1
  O  O25  1  0.42920700  0.85126900  0.66084900  1
  O  O26  1  0.42920700  0.64873100  0.16084900  1
  O  O27  1  0.57079300  0.35126900  0.66084900  1
  O  O28  1  0.21795400  0.98683000  0.21033100  1
  O  O29  1  0.78204600  0.01317000  0.71033100  1
  O  O30  1  0.78204600  0.48683000  0.21033100  1
  O  O31  1  0.21795400  0.51317000  0.71033100  1
loop_
_geom_bond_atom_site_label_1
_geom_bond_atom_site_label_2
_geom_bond_distance
_geom_bond_site_symmetry_2
K0 O6 2.681082 1_565
K0 O2 2.715603 1_565
K0 O12 2.742719 1_565
K0 O22 2.871900 1_556
K0 O18 3.059045 1_556
K0 O8 3.252162 1_555
K1 O7 2.681082 1_545
K1 O3 2.715603 1_545
K1 O13 2.742719 1_545
K1 O23 2.871900 1_555
K1 O19 3.059045 1_555
K1 O9 3.252162 1_555
K2 O4 2.681082 1_555
K2 O0 2.715603 1_555
K2 O14 2.742719 1_555
K2 O20 2.871900 1_556
K2 O16 3.059045 1_556
K2 O10 3.252162 1_555
K3 O5 2.681082 1_555
K3 O1 2.715603 1_555
K3 O15 2.742719 1_555
K3 O21 2.871900 1_555
K3 O17 3.059045 1_555
K3 O11 3.252162 1_555
K4 O14 2.741935 1_555
K4 O25 2.758032 1_555
K4 O4 2.801569 1_555
K4 O8 2.870929 1_555
K4 O0 2.905916 1_555
K4 O8 3.082599 1_455
K4 O31 3.266318 1_555
K4 O12 3.270983 1_565
K5 O15 2.741935 1_555
K5 O24 2.758032 1_555
K5 O5 2.801569 1_555
K5 O9 2.870929 1_555
K5 O1 2.905916 1_555
K5 O9 3.082599 1_655
K5 O30 3.266318 1_555
K5 O13 3.270983 1_545
K6 O12 2.741935 1_555
K6 O27 2.758032 1_555
K6 O6 2.801569 1_555
K6 O10 2.870929 1_555
K6 O2 2.905916 1_555
K6 O10 3.082599 1_655
K6 O29 3.266318 1_555
K6 O14 3.270983 1_555
K7 O13 2.741935 1_555
K7 O26 2.758032 1_555
K7 O7 2.801569 1_555
K7 O11 2.870929 1_555
K7 O3 2.905916 1_555
K7 O11 3.082599 1_455
K7 O28 3.266318 1_555
K7 O15 3.270983 1_555
K8 O28 2.647766 1_545
K8 O22 2.656925 1_445
K8 O18 2.673321 1_545
K8 O6 2.766300 1_454
K8 O2 2.971388 1_554
K8 O24 3.225454 1_455
K9 O29 2.647766 1_565
K9 O23 2.656925 1_665
K9 O19 2.673321 1_565
K9 O7 2.766300 1_655
K9 O3 2.971388 1_555
K9 O25 3.225454 1_655
K10 O30 2.647766 1_555
K10 O20 2.656925 1_655
K10 O16 2.673321 1_555
K10 O4 2.766300 1_654
K10 O0 2.971388 1_554
K10 O26 3.225454 1_655
K11 O31 2.647766 1_555
K11 O21 2.656925 1_455
K11 O17 2.673321 1_555
K11 O5 2.766300 1_455
K11 O1 2.971388 1_555
K11 O27 3.225454 1_455
K12 O9 2.840338 1_555
K12 O20 2.864927 1_555
K12 O30 2.895040 1_455
K12 O24 2.955666 1_455
K12 O16 3.020850 1_455
K12 O24 3.162673 1_555
K12 O15 3.172905 1_555
K12 O28 3.233657 1_545
K13 O8 2.840338 1_555
K13 O21 2.864927 1_555
K13 O31 2.895040 1_655
K13 O25 2.955666 1_655
K13 O17 3.020850 1_655
K13 O25 3.162673 1_555
K13 O14 3.172905 1_555
K13 O29 3.233657 1_565
K14 O11 2.840338 1_555
K14 O22 2.864927 1_555
K14 O28 2.895040 1_655
K14 O26 2.955666 1_655
K14 O18 3.020850 1_655
K14 O26 3.162673 1_555
K14 O13 3.172905 1_555
K14 O30 3.233657 1_555
K15 O10 2.840338 1_555
K15 O23 2.864927 1_555
K15 O29 2.895040 1_455
K15 O27 2.955666 1_455
K15 O19 3.020850 1_455
K15 O27 3.162673 1_555
K15 O12 3.172905 1_555
K15 O31 3.233657 1_555
O0 Si4 1.656457 1_555
O0 Zn6 1.976395 1_556
O1 Si5 1.656457 1_555
O1 Zn7 1.976395 1_555
O2 Si6 1.656457 1_555
O2 Zn4 1.976395 1_556
O3 Si7 1.656457 1_555
O3 Zn5 1.976395 1_555
O4 Si4 1.659711 1_455
O4 Zn2 1.987193 1_555
O5 Si5 1.659711 1_655
O5 Zn3 1.987193 1_555
O6 Si6 1.659711 1_655
O6 Zn0 1.987193 1_545
O7 Si7 1.659711 1_455
O7 Zn1 1.987193 1_565
O8 Si4 1.651790 1_555
O8 Zn0 1.980339 1_555
O9 Si5 1.651790 1_555
O9 Zn1 1.980339 1_555
O10 Si6 1.651790 1_555
O10 Zn2 1.980339 1_555
O11 Si7 1.651790 1_555
O11 Zn3 1.980339 1_555
O12 Si1 1.658310 1_545
O12 Zn0 1.981402 1_445
O13 Si0 1.658310 1_565
O13 Zn1 1.981402 1_665
O14 Si3 1.658310 1_555
O14 Zn2 1.981402 1_655
O15 Si2 1.658310 1_555
O15 Zn3 1.981402 1_455
O16 Si6 1.656807 1_654
O16 Zn4 1.992667 1_555
O17 Si7 1.656807 1_455
O17 Zn5 1.992667 1_555
O18 Si4 1.656807 1_454
O18 Zn6 1.992667 1_555
O19 Si5 1.656807 1_655
O19 Zn7 1.992667 1_555
O20 Si2 1.658096 1_555
O20 Zn4 2.001026 1_555
O21 Si3 1.658096 1_555
O21 Zn5 2.001026 1_555
O22 Si0 1.658096 1_565
O22 Zn6 2.001026 1_555
O23 Si1 1.658096 1_545
O23 Zn7 2.001026 1_555
O24 Si0 1.659791 1_555
O24 Zn4 1.971123 1_555
O25 Si1 1.659791 1_555
O25 Zn5 1.971123 1_555
O26 Si2 1.659791 1_555
O26 Zn6 1.971123 1_555
O27 Si3 1.659791 1_555
O27 Zn7 1.971123 1_555
O28 Si0 1.655514 1_565
O28 Zn1 1.983706 1_565
O29 Si1 1.655514 1_545
O29 Zn0 1.983706 1_545
O30 Si2 1.655514 1_555
O30 Zn3 1.983706 1_555
O31 Si3 1.655514 1_555
O31 Zn2 1.983706 1_555
