# generated using pymatgen
data_BaPb2C2(O3F)2
_symmetry_space_group_name_H-M   'P 1'
_cell_length_a   8.57074937
_cell_length_b   8.57074937
_cell_length_c   8.57074925
_cell_angle_alpha   35.66097794
_cell_angle_beta   35.66097794
_cell_angle_gamma   35.66097905
_symmetry_Int_Tables_number   1
_chemical_formula_structural   BaPb2C2(O3F)2
_chemical_formula_sum   'Ba1 Pb2 C2 O6 F2'
_cell_volume   191.27740788
_cell_formula_units_Z   1
loop_
 _symmetry_equiv_pos_site_id
 _symmetry_equiv_pos_as_xyz
  1  'x, y, z'
loop_
 _atom_site_type_symbol
 _atom_site_label
 _atom_site_symmetry_multiplicity
 _atom_site_fract_x
 _atom_site_fract_y
 _atom_site_fract_z
 _atom_site_occupancy
  Ba  Ba0  1  0.00000000  0.00000000  0.00000000  1
  Pb  Pb0  1  0.21656100  0.21656100  0.21656100  1
  Pb  Pb1  1  0.78343900  0.78343900  0.78343900  1
  C  C0  1  0.42981400  0.42981400  0.42981400  1
  C  C1  1  0.57018600  0.57018600  0.57018600  1
  O  O0  1  0.28768000  0.71650800  0.28768000  1
  O  O1  1  0.71232000  0.28349200  0.71232000  1
  O  O2  1  0.28768000  0.28768000  0.71650800  1
  O  O3  1  0.71232000  0.71232000  0.28349200  1
  O  O4  1  0.28349200  0.71232000  0.71232000  1
  O  O5  1  0.71650800  0.28768000  0.28768000  1
  F  F0  1  0.30981700  0.30981700  0.30981700  1
  F  F1  1  0.69018300  0.69018300  0.69018300  1
loop_
_geom_bond_atom_site_label_1
_geom_bond_atom_site_label_2
_geom_bond_distance
_geom_bond_site_symmetry_2
Ba0 O2 2.910540 1_554
Ba0 O3 2.910540 1_445
Ba0 O5 2.910540 1_455
Ba0 O0 2.910540 1_545
Ba0 O1 2.910540 1_454
Ba0 O4 2.910540 1_544
Ba0 F1 3.082704 1_445
Ba0 F0 3.082704 1_554
Ba0 F0 3.082704 1_545
Ba0 F1 3.082704 1_544
Ba0 F0 3.082704 1_455
Ba0 F1 3.082704 1_454
C0 O2 1.299654 1_555
C0 O0 1.299654 1_555
C0 O5 1.299654 1_555
C1 O3 1.299654 1_555
C1 O4 1.299654 1_555
C1 O1 1.299654 1_555
O0 Pb1 2.674597 1_554
O0 Pb1 2.674597 1_455
O1 Pb0 2.674597 1_556
O1 Pb0 2.674597 1_655
O2 Pb1 2.674597 1_455
O2 Pb1 2.674597 1_545
O3 Pb0 2.674597 1_655
O3 Pb0 2.674597 1_565
O4 Pb0 2.674597 1_556
O4 Pb0 2.674597 1_565
O5 Pb1 2.674597 1_554
O5 Pb1 2.674597 1_545
F0 Pb0 2.242940 1_555
F1 Pb1 2.242940 1_555
