# generated using pymatgen
data_CePO4
_symmetry_space_group_name_H-M   'P 1'
_cell_length_a   7.14415938
_cell_length_b   7.14433709
_cell_length_c   6.43985262
_cell_angle_alpha   90.00080762
_cell_angle_beta   90.00067543
_cell_angle_gamma   119.99920410
_symmetry_Int_Tables_number   1
_chemical_formula_structural   CePO4
_chemical_formula_sum   'Ce3 P3 O12'
_cell_volume   284.65781744
_cell_formula_units_Z   3
loop_
 _symmetry_equiv_pos_site_id
 _symmetry_equiv_pos_as_xyz
  1  'x, y, z'
loop_
 _atom_site_type_symbol
 _atom_site_label
 _atom_site_symmetry_multiplicity
 _atom_site_fract_x
 _atom_site_fract_y
 _atom_site_fract_z
 _atom_site_occupancy
  Ce  Ce0  1  0.49999974  0.99999653  0.49999897  1
  Ce  Ce1  1  0.49991160  0.49994094  0.16661801  1
  Ce  Ce2  1  0.99997427  0.50002059  0.83339961  1
  P  P0  1  0.00000250  0.49999348  0.33336268  1
  P  P1  1  0.50000613  -0.00000641  -0.00000806  1
  P  P2  1  0.50000483  0.50001291  0.66663167  1
  O  O0  1  0.13699184  0.69030459  0.47923524  1
  O  O1  1  0.44671444  0.30974621  0.52074898  1
  O  O2  1  0.30971776  0.86300274  0.85409642  1
  O  O3  1  0.30982245  0.44672583  0.81257290  1
  O  O4  1  0.44669461  0.13698108  0.14588088  1
  O  O5  1  0.55325786  0.69025758  0.52077206  1
  O  O6  1  0.86304720  0.55325803  0.18740515  1
  O  O7  1  0.86301152  0.30975076  0.47924376  1
  O  O8  1  0.55328626  0.86301143  0.14587717  1
  O  O9  1  0.69034486  0.55335808  0.81250500  1
  O  O10  1  0.69026330  0.13698400  0.85414459  1
  O  O11  1  0.13694783  0.44666263  0.18751298  1
loop_
_geom_bond_atom_site_label_1
_geom_bond_atom_site_label_2
_geom_bond_distance
_geom_bond_site_symmetry_2
Ce0 O0 2.429202 1_555
Ce0 O5 2.429291 1_555
Ce0 O7 2.429391 1_565
Ce0 O1 2.429474 1_565
Ce0 O2 2.583699 1_555
Ce0 O8 2.583771 1_555
Ce0 O4 2.583809 1_565
Ce0 O10 2.583871 1_565
Ce1 O11 2.428996 1_555
Ce1 O4 2.429140 1_555
Ce1 O8 2.429503 1_555
Ce1 O6 2.430063 1_555
Ce1 O3 2.582786 1_554
Ce1 O1 2.583686 1_555
Ce1 O5 2.584046 1_555
Ce1 O9 2.584155 1_554
Ce2 O9 2.428856 1_555
Ce2 O2 2.429223 1_655
Ce2 O10 2.429398 1_555
Ce2 O3 2.430193 1_655
Ce2 O6 2.582811 1_556
Ce2 O11 2.583853 1_656
Ce2 O7 2.583931 1_555
Ce2 O0 2.584113 1_655
O0 P0 1.535654 1_555
O1 P2 1.535501 1_555
O2 P1 1.535641 1_566
O3 P2 1.535277 1_555
O4 P1 1.535666 1_555
O5 P2 1.535371 1_555
O6 P0 1.535560 1_655
O7 P0 1.535451 1_655
O8 P1 1.535507 1_565
O9 P2 1.535760 1_555
O10 P1 1.535360 1_556
O11 P0 1.535357 1_555
