# generated using pymatgen
data_Li3Mn8O16
_symmetry_space_group_name_H-M   'P 1'
_cell_length_a   5.97233200
_cell_length_b   8.19738400
_cell_length_c   12.06236900
_cell_angle_alpha   90.00000000
_cell_angle_beta   90.00000000
_cell_angle_gamma   90.00000000
_symmetry_Int_Tables_number   1
_chemical_formula_structural   Li3Mn8O16
_chemical_formula_sum   'Li6 Mn16 O32'
_cell_volume   590.54341560
_cell_formula_units_Z   2
loop_
 _symmetry_equiv_pos_site_id
 _symmetry_equiv_pos_as_xyz
  1  'x, y, z'
loop_
 _atom_site_type_symbol
 _atom_site_label
 _atom_site_symmetry_multiplicity
 _atom_site_fract_x
 _atom_site_fract_y
 _atom_site_fract_z
 _atom_site_occupancy
  Li  Li0  1  0.50000000  0.12966700  0.00000000  1
  Li  Li1  1  0.00000000  0.62823700  0.24342000  1
  Li  Li2  1  0.00000000  0.62823700  0.75658000  1
  Li  Li3  1  0.50000000  0.37176300  0.25658000  1
  Li  Li4  1  0.00000000  0.87033300  0.50000000  1
  Li  Li5  1  0.50000000  0.37176300  0.74342000  1
  Mn  Mn0  1  0.00000000  0.25227800  0.12584100  1
  Mn  Mn1  1  0.25168700  0.49926600  0.00000000  1
  Mn  Mn2  1  0.25000000  0.00000000  0.25000000  1
  Mn  Mn3  1  0.50000000  0.74772200  0.37415900  1
  Mn  Mn4  1  0.50000000  0.75160300  0.12182000  1
  Mn  Mn5  1  0.75168700  0.50073400  0.50000000  1
  Mn  Mn6  1  0.75000000  0.00000000  0.25000000  1
  Mn  Mn7  1  0.00000000  0.24839700  0.37818000  1
  Mn  Mn8  1  0.00000000  0.24839700  0.62182000  1
  Mn  Mn9  1  0.24831300  0.50073400  0.50000000  1
  Mn  Mn10  1  0.25000000  0.00000000  0.75000000  1
  Mn  Mn11  1  0.50000000  0.75160300  0.87818000  1
  Mn  Mn12  1  0.50000000  0.74772200  0.62584100  1
  Mn  Mn13  1  0.75000000  0.00000000  0.75000000  1
  Mn  Mn14  1  0.74831300  0.49926600  0.00000000  1
  Mn  Mn15  1  0.00000000  0.25227800  0.87415900  1
  O  O0  1  0.76319600  0.26791600  0.00000000  1
  O  O1  1  0.00000000  0.48712500  0.11070000  1
  O  O2  1  0.23680400  0.26791600  0.00000000  1
  O  O3  1  0.27414600  0.76477300  0.23801700  1
  O  O4  1  0.50000000  0.99333600  0.14047900  1
  O  O5  1  0.50000000  0.98146500  0.35422800  1
  O  O6  1  0.50000000  0.51614100  0.11394500  1
  O  O7  1  0.72585400  0.76477300  0.23801700  1
  O  O8  1  0.78676500  0.26185800  0.50000000  1
  O  O9  1  0.77414600  0.23522700  0.26198300  1
  O  O10  1  0.00000000  0.48385900  0.61394500  1
  O  O11  1  0.00000000  0.01853500  0.14577200  1
  O  O12  1  0.00000000  0.48385900  0.38605500  1
  O  O13  1  0.00000000  0.00666400  0.35952100  1
  O  O14  1  0.22585400  0.23522700  0.26198300  1
  O  O15  1  0.21323500  0.26185800  0.50000000  1
  O  O16  1  0.27414600  0.76477300  0.76198300  1
  O  O17  1  0.26319600  0.73208400  0.50000000  1
  O  O18  1  0.50000000  0.51287500  0.38930000  1
  O  O19  1  0.50000000  0.98146500  0.64577200  1
  O  O20  1  0.50000000  0.99333600  0.85952100  1
  O  O21  1  0.50000000  0.51287500  0.61070000  1
  O  O22  1  0.73680400  0.73208400  0.50000000  1
  O  O23  1  0.72585400  0.76477300  0.76198300  1
  O  O24  1  0.77414600  0.23522700  0.73801700  1
  O  O25  1  0.00000000  0.48712500  0.88930000  1
  O  O26  1  0.00000000  0.00666400  0.64047900  1
  O  O27  1  0.00000000  0.01853500  0.85422800  1
  O  O28  1  0.22585400  0.23522700  0.73801700  1
  O  O29  1  0.28676500  0.73814200  0.00000000  1
  O  O30  1  0.50000000  0.51614100  0.88605500  1
  O  O31  1  0.71323500  0.73814200  0.00000000  1
loop_
_geom_bond_atom_site_label_1
_geom_bond_atom_site_label_2
_geom_bond_distance
_geom_bond_site_symmetry_2
Li0 O2 1.937827 1_555
Li0 O0 1.937827 1_555
Li0 O4 2.029852 1_545
Li0 O20 2.029852 1_544
Li1 O1 1.975096 1_555
Li1 O3 1.984355 1_555
Li1 O7 1.984355 1_455
Li1 O12 2.088277 1_555
Li2 O25 1.975096 1_555
Li2 O23 1.984355 1_455
Li2 O16 1.984355 1_555
Li2 O10 2.088277 1_555
Li3 O18 1.975096 1_555
Li3 O9 1.984355 1_555
Li3 O14 1.984355 1_555
Li3 O6 2.088277 1_555
Li4 O22 1.937827 1_455
Li4 O17 1.937827 1_555
Li4 O13 2.029852 1_565
Li4 O26 2.029852 1_565
Li5 O21 1.975096 1_555
Li5 O24 1.984355 1_555
Li5 O28 1.984355 1_555
Li5 O30 2.088277 1_555
Mn0 O11 1.931105 1_555
Mn0 O1 1.933775 1_555
Mn0 O2 2.078639 1_555
Mn0 O0 2.078639 1_455
Mn0 O14 2.129743 1_555
Mn0 O9 2.129743 1_455
Mn1 O2 1.898547 1_555
Mn1 O29 1.969333 1_555
Mn1 O25 2.013064 1_554
Mn1 O1 2.013064 1_555
Mn1 O30 2.026709 1_554
Mn1 O6 2.026709 1_555
Mn2 O3 1.939026 1_545
Mn2 O14 1.939026 1_555
Mn2 O5 1.957812 1_545
Mn2 O11 1.957812 1_555
Mn2 O4 1.994377 1_545
Mn2 O13 1.994377 1_555
Mn3 O5 1.931105 1_555
Mn3 O18 1.933775 1_555
Mn3 O17 2.078639 1_555
Mn3 O22 2.078639 1_555
Mn3 O3 2.129743 1_555
Mn3 O7 2.129743 1_555
Mn4 O6 1.932508 1_555
Mn4 O31 1.947627 1_555
Mn4 O29 1.947627 1_555
Mn4 O3 1.948238 1_555
Mn4 O7 1.948238 1_555
Mn4 O4 1.994319 1_555
Mn5 O22 1.898547 1_555
Mn5 O8 1.969333 1_555
Mn5 O21 2.013064 1_555
Mn5 O18 2.013064 1_555
Mn5 O10 2.026709 1_655
Mn5 O12 2.026709 1_655
Mn6 O7 1.939026 1_545
Mn6 O9 1.939026 1_555
Mn6 O11 1.957812 1_655
Mn6 O5 1.957812 1_545
Mn6 O4 1.994377 1_545
Mn6 O13 1.994377 1_655
Mn7 O12 1.932508 1_555
Mn7 O8 1.947627 1_455
Mn7 O15 1.947627 1_555
Mn7 O9 1.948238 1_455
Mn7 O14 1.948238 1_555
Mn7 O13 1.994319 1_555
Mn8 O10 1.932508 1_555
Mn8 O8 1.947627 1_455
Mn8 O15 1.947627 1_555
Mn8 O28 1.948238 1_555
Mn8 O24 1.948238 1_455
Mn8 O26 1.994319 1_555
Mn9 O17 1.898547 1_555
Mn9 O15 1.969333 1_555
Mn9 O21 2.013064 1_555
Mn9 O18 2.013064 1_555
Mn9 O10 2.026709 1_555
Mn9 O12 2.026709 1_555
Mn10 O16 1.939026 1_545
Mn10 O28 1.939026 1_555
Mn10 O19 1.957812 1_545
Mn10 O27 1.957812 1_555
Mn10 O20 1.994377 1_545
Mn10 O26 1.994377 1_555
Mn11 O30 1.932508 1_555
Mn11 O31 1.947627 1_556
Mn11 O29 1.947627 1_556
Mn11 O23 1.948238 1_555
Mn11 O16 1.948238 1_555
Mn11 O20 1.994319 1_555
Mn12 O19 1.931105 1_555
Mn12 O21 1.933775 1_555
Mn12 O17 2.078639 1_555
Mn12 O22 2.078639 1_555
Mn12 O16 2.129743 1_555
Mn12 O23 2.129743 1_555
Mn13 O23 1.939026 1_545
Mn13 O24 1.939026 1_555
Mn13 O19 1.957812 1_545
Mn13 O27 1.957812 1_655
Mn13 O20 1.994377 1_545
Mn13 O26 1.994377 1_655
Mn14 O0 1.898547 1_555
Mn14 O31 1.969333 1_555
Mn14 O25 2.013064 1_654
Mn14 O1 2.013064 1_655
Mn14 O30 2.026709 1_554
Mn14 O6 2.026709 1_555
Mn15 O27 1.931105 1_555
Mn15 O25 1.933775 1_555
Mn15 O0 2.078639 1_456
Mn15 O2 2.078639 1_556
Mn15 O28 2.129743 1_555
Mn15 O24 2.129743 1_455
