# generated using pymatgen
data_EuNi5P3
_symmetry_space_group_name_H-M   'P 1'
_cell_length_a   6.07717086
_cell_length_b   6.07717086
_cell_length_c   11.42519271
_cell_angle_alpha   90.00000000
_cell_angle_beta   90.00000000
_cell_angle_gamma   145.80004730
_symmetry_Int_Tables_number   1
_chemical_formula_structural   EuNi5P3
_chemical_formula_sum   'Eu2 Ni10 P6'
_cell_volume   237.17376240
_cell_formula_units_Z   2
loop_
 _symmetry_equiv_pos_site_id
 _symmetry_equiv_pos_as_xyz
  1  'x, y, z'
loop_
 _atom_site_type_symbol
 _atom_site_label
 _atom_site_symmetry_multiplicity
 _atom_site_fract_x
 _atom_site_fract_y
 _atom_site_fract_z
 _atom_site_occupancy
  Eu  Eu0  1  0.16129294  0.83870706  0.25000000  1
  Eu  Eu1  1  0.83870706  0.16129294  0.75000000  1
  Ni  Ni0  1  0.44911518  0.55088482  0.14481026  1
  Ni  Ni1  1  0.44911518  0.55088482  0.35518974  1
  Ni  Ni2  1  0.19820882  0.80179118  0.93196058  1
  Ni  Ni3  1  0.55088482  0.44911518  0.85518974  1
  Ni  Ni4  1  0.80179118  0.19820882  0.43196058  1
  Ni  Ni5  1  0.55088482  0.44911518  0.64481026  1
  Ni  Ni6  1  0.19820882  0.80179118  0.56803942  1
  Ni  Ni7  1  -0.00000000  0.00000000  0.00000000  1
  Ni  Ni8  1  -0.00000000  0.00000000  0.50000000  1
  Ni  Ni9  1  0.80179118  0.19820882  0.06803942  1
  P  P0  1  0.11691658  0.88308342  0.75000000  1
  P  P1  1  0.38143583  0.61856417  0.96058233  1
  P  P2  1  0.38143583  0.61856417  0.53941767  1
  P  P3  1  0.61856417  0.38143583  0.46058233  1
  P  P4  1  0.61856417  0.38143583  0.03941767  1
  P  P5  1  0.88308342  0.11691658  0.25000000  1
loop_
_geom_bond_atom_site_label_1
_geom_bond_atom_site_label_2
_geom_bond_distance
_geom_bond_site_symmetry_2
Eu0 P3 3.037776 1_565
Eu0 P4 3.037776 1_565
Eu0 P3 3.037776 1_455
Eu0 P4 3.037776 1_455
Eu0 P5 3.135558 1_455
Eu0 P5 3.135558 1_565
Eu0 Ni9 3.190467 1_455
Eu0 Ni4 3.190467 1_455
Eu0 Ni4 3.190467 1_565
Eu0 Ni9 3.190467 1_565
Eu0 P5 3.231970 1_465
Eu0 Ni1 3.273086 1_565
Eu0 Ni0 3.273086 1_565
Eu0 Ni0 3.273086 1_455
Eu0 Ni1 3.273086 1_455
Eu1 P1 3.037776 1_545
Eu1 P2 3.037776 1_545
Eu1 P2 3.037776 1_655
Eu1 P1 3.037776 1_655
Eu1 P0 3.135558 1_545
Eu1 P0 3.135558 1_655
Eu1 Ni6 3.190467 1_545
Eu1 Ni2 3.190467 1_545
Eu1 Ni6 3.190467 1_655
Eu1 Ni2 3.190467 1_655
Eu1 P0 3.231970 1_645
Eu1 Ni5 3.273086 1_655
Eu1 Ni3 3.273086 1_655
Eu1 Ni3 3.273086 1_545
Eu1 Ni5 3.273086 1_545
Ni0 P1 2.246890 1_554
Ni0 P5 2.286025 1_565
Ni0 P5 2.286025 1_455
Ni0 P4 2.307575 1_555
Ni1 P2 2.246890 1_555
Ni1 P5 2.286025 1_565
Ni1 P5 2.286025 1_455
Ni1 P3 2.307575 1_555
Ni2 P1 2.153527 1_555
Ni2 P0 2.283378 1_555
Ni2 P4 2.357217 1_566
Ni2 P4 2.357217 1_456
Ni3 P4 2.246890 1_556
Ni3 P0 2.286025 1_545
Ni3 P0 2.286025 1_655
Ni3 P1 2.307575 1_555
Ni4 P3 2.153527 1_555
Ni4 P5 2.283378 1_555
Ni4 P2 2.357217 1_655
Ni4 P2 2.357217 1_545
Ni5 P3 2.246890 1_555
Ni5 P0 2.286025 1_545
Ni5 P0 2.286025 1_655
Ni5 P2 2.307575 1_555
Ni6 P2 2.153527 1_555
Ni6 P0 2.283378 1_555
Ni6 P3 2.357217 1_455
Ni6 P3 2.357217 1_565
Ni7 P1 2.300668 1_444
Ni7 P4 2.300668 1_555
Ni7 P4 2.300668 1_445
Ni7 P1 2.300668 1_554
Ni8 P3 2.300668 1_555
Ni8 P3 2.300668 1_445
Ni8 P2 2.300668 1_555
Ni8 P2 2.300668 1_445
Ni9 P4 2.153527 1_555
Ni9 P5 2.283378 1_555
Ni9 P1 2.357217 1_654
Ni9 P1 2.357217 1_544
