# generated using pymatgen
data_In5AgTe8
_symmetry_space_group_name_H-M   'P 1'
_cell_length_a   6.28824375
_cell_length_b   6.28824375
_cell_length_c   12.77533365
_cell_angle_alpha   90.00000000
_cell_angle_beta   90.00000000
_cell_angle_gamma   90.00000000
_symmetry_Int_Tables_number   1
_chemical_formula_structural   In5AgTe8
_chemical_formula_sum   'In5 Ag1 Te8'
_cell_volume   505.16236404
_cell_formula_units_Z   1
loop_
 _symmetry_equiv_pos_site_id
 _symmetry_equiv_pos_as_xyz
  1  'x, y, z'
loop_
 _atom_site_type_symbol
 _atom_site_label
 _atom_site_symmetry_multiplicity
 _atom_site_fract_x
 _atom_site_fract_y
 _atom_site_fract_z
 _atom_site_occupancy
  In  In0  1  0.00000000  0.50000000  0.25572129  1
  In  In1  1  0.00000000  0.50000000  0.74427871  1
  In  In2  1  0.50000000  0.00000000  0.74427871  1
  In  In3  1  0.50000000  0.50000000  0.00000000  1
  In  In4  1  0.50000000  0.00000000  0.25572129  1
  Ag  Ag0  1  0.00000000  0.00000000  0.50000000  1
  Te  Te0  1  0.73108963  0.26891037  0.38585810  1
  Te  Te1  1  0.22717486  0.77282514  0.88622659  1
  Te  Te2  1  0.77282514  0.22717486  0.88622659  1
  Te  Te3  1  0.77282514  0.77282514  0.11377341  1
  Te  Te4  1  0.26891037  0.73108963  0.38585810  1
  Te  Te5  1  0.22717486  0.22717486  0.11377341  1
  Te  Te6  1  0.73108963  0.73108963  0.61414190  1
  Te  Te7  1  0.26891037  0.26891037  0.61414190  1
loop_
_geom_bond_atom_site_label_1
_geom_bond_atom_site_label_2
_geom_bond_distance
_geom_bond_site_symmetry_2
In0 Te0 2.781200 1_455
In0 Te4 2.781200 1_555
In0 Te5 2.876193 1_555
In0 Te3 2.876193 1_455
In1 Te6 2.781200 1_455
In1 Te7 2.781200 1_555
In1 Te2 2.876193 1_455
In1 Te1 2.876193 1_555
In2 Te6 2.781200 1_545
In2 Te7 2.781200 1_555
In2 Te1 2.876193 1_545
In2 Te2 2.876193 1_555
In3 Te3 2.828276 1_555
In3 Te1 2.828276 1_554
In3 Te2 2.828276 1_554
In3 Te5 2.828276 1_555
In4 Te4 2.781200 1_545
In4 Te0 2.781200 1_555
In4 Te3 2.876193 1_545
In4 Te5 2.876193 1_555
Ag0 Te6 2.800917 1_445
Ag0 Te4 2.800917 1_545
Ag0 Te0 2.800917 1_455
Ag0 Te7 2.800917 1_555
