# generated using pymatgen
data_CdI2
_symmetry_space_group_name_H-M   'P 1'
_cell_length_a   4.28687450
_cell_length_b   4.28687442
_cell_length_c   50.54893900
_cell_angle_alpha   90.00000000
_cell_angle_beta   90.00000000
_cell_angle_gamma   120.00000060
_symmetry_Int_Tables_number   1
_chemical_formula_structural   CdI2
_chemical_formula_sum   'Cd7 I14'
_cell_volume   804.49658454
_cell_formula_units_Z   7
loop_
 _symmetry_equiv_pos_site_id
 _symmetry_equiv_pos_as_xyz
  1  'x, y, z'
loop_
 _atom_site_type_symbol
 _atom_site_label
 _atom_site_symmetry_multiplicity
 _atom_site_fract_x
 _atom_site_fract_y
 _atom_site_fract_z
 _atom_site_occupancy
  Cd  Cd0  1  -0.00000000  0.00000000  0.89249477  1
  Cd  Cd1  1  -0.00000000  0.00000000  0.32144884  1
  Cd  Cd2  1  0.66666700  0.33333300  0.46397021  1
  Cd  Cd3  1  0.00000000  0.00000000  0.60750244  1
  Cd  Cd4  1  0.00000000  0.00000000  0.17889689  1
  Cd  Cd5  1  0.66666700  0.33333300  0.03573611  1
  Cd  Cd6  1  -0.00000000  0.00000000  0.75002501  1
  I  I0  1  0.66666700  0.33333300  0.28734369  1
  I  I1  1  0.66666700  0.33333300  0.14493396  1
  I  I2  1  0.33333300  0.66666700  0.06980491  1
  I  I3  1  0.66666700  0.33333300  0.57351561  1
  I  I4  1  0.33333300  0.66666700  0.21286270  1
  I  I5  1  0.33333300  0.66666700  0.35552123  1
  I  I6  1  -0.00000000  0.00000000  0.42993695  1
  I  I7  1  0.33333300  0.66666700  0.64155003  1
  I  I8  1  -0.00000000  0.00000000  0.00162291  1
  I  I9  1  0.33333300  0.66666700  0.78409005  1
  I  I10  1  0.33333300  0.66666700  0.92644946  1
  I  I11  1  0.66666700  0.33333300  0.85845345  1
  I  I12  1  0.33333300  0.66666700  0.49792969  1
  I  I13  1  0.66666700  0.33333300  0.71591310  1
loop_
_geom_bond_atom_site_label_1
_geom_bond_atom_site_label_2
_geom_bond_distance
_geom_bond_site_symmetry_2
Cd0 I10 3.011925 1_545
Cd0 I10 3.011928 1_555
Cd0 I10 3.011928 1_445
Cd0 I11 3.014422 1_455
Cd0 I11 3.014425 1_445
Cd0 I11 3.014425 1_555
Cd1 I5 3.015319 1_545
Cd1 I5 3.015322 1_555
Cd1 I5 3.015322 1_445
Cd1 I0 3.016265 1_455
Cd1 I0 3.016268 1_445
Cd1 I0 3.016268 1_555
Cd2 I12 3.012063 1_545
Cd2 I12 3.012063 1_655
Cd2 I12 3.012069 1_555
Cd2 I6 3.014190 1_655
Cd2 I6 3.014193 1_665
Cd2 I6 3.014193 1_555
Cd3 I3 3.012851 1_455
Cd3 I3 3.012854 1_445
Cd3 I3 3.012854 1_555
Cd3 I7 3.014603 1_545
Cd3 I7 3.014606 1_555
Cd3 I7 3.014606 1_445
Cd4 I1 3.012162 1_455
Cd4 I1 3.012165 1_445
Cd4 I1 3.012165 1_555
Cd4 I4 3.012245 1_545
Cd4 I4 3.012248 1_555
Cd4 I4 3.012248 1_445
Cd5 I2 3.015215 1_545
Cd5 I2 3.015215 1_655
Cd5 I2 3.015222 1_555
Cd5 I8 3.016498 1_655
Cd5 I8 3.016501 1_665
Cd5 I8 3.016501 1_555
Cd6 I9 3.015107 1_545
Cd6 I9 3.015110 1_555
Cd6 I9 3.015110 1_445
Cd6 I13 3.016461 1_455
Cd6 I13 3.016464 1_445
Cd6 I13 3.016464 1_555
