# generated using pymatgen
data_Th2Ga
_symmetry_space_group_name_H-M   'P 1'
_cell_length_a   5.82714234
_cell_length_b   6.08162835
_cell_length_c   6.08162935
_cell_angle_alpha   76.73147973
_cell_angle_beta   61.37483838
_cell_angle_gamma   61.37484725
_symmetry_Int_Tables_number   1
_chemical_formula_structural   Th2Ga
_chemical_formula_sum   'Th4 Ga2'
_cell_volume   166.05792236
_cell_formula_units_Z   2
loop_
 _symmetry_equiv_pos_site_id
 _symmetry_equiv_pos_as_xyz
  1  'x, y, z'
loop_
 _atom_site_type_symbol
 _atom_site_label
 _atom_site_symmetry_multiplicity
 _atom_site_fract_x
 _atom_site_fract_y
 _atom_site_fract_z
 _atom_site_occupancy
  Th  Th0  1  0.15784805  0.50000000  0.18430291  1
  Th  Th1  1  0.84215195  0.50000000  0.81569709  1
  Th  Th2  1  0.34215195  0.81569709  0.50000000  1
  Th  Th3  1  0.65784805  0.18430291  0.50000000  1
  Ga  Ga0  1  0.25000000  -0.00000000  -0.00000000  1
  Ga  Ga1  1  0.75000000  0.00000000  -0.00000000  1
loop_
_geom_bond_atom_site_label_1
_geom_bond_atom_site_label_2
_geom_bond_distance
_geom_bond_site_symmetry_2
Th0 Th1 3.370564 1_455
Th0 Th1 3.515793 1_454
Th0 Th1 3.515803 1_554
Th0 Th2 3.764202 1_455
Th0 Th3 3.764206 1_455
Th0 Th3 3.764206 1_555
Th0 Th2 3.764210 1_555
Th0 Th3 4.023012 1_465
Th0 Th3 4.023012 1_554
Th0 Th2 4.023012 1_545
Th0 Th2 4.023012 1_554
Th1 Th3 3.764202 1_655
Th1 Th2 3.764206 1_655
Th1 Th2 3.764206 1_555
Th1 Th3 3.764210 1_555
Th1 Th2 4.023012 1_645
Th1 Th2 4.023012 1_556
Th1 Th3 4.023012 1_565
Th1 Th3 4.023012 1_556
Th2 Th3 3.370564 1_555
Th2 Th3 3.515793 1_565
Th2 Th3 3.515803 1_465
Ga0 Ga1 2.913571 1_455
Ga0 Ga1 2.913571 1_555
Ga0 Th0 3.196017 1_555
Ga0 Th2 3.196018 1_544
Ga0 Th3 3.196018 1_554
Ga0 Th1 3.196018 1_454
Ga0 Th0 3.196020 1_545
Ga0 Th3 3.196021 1_455
Ga0 Th1 3.196021 1_544
Ga0 Th2 3.196021 1_545
Ga1 Th1 3.196017 1_544
Ga1 Th3 3.196018 1_555
Ga1 Th2 3.196018 1_545
Ga1 Th0 3.196018 1_645
Ga1 Th1 3.196020 1_554
Ga1 Th2 3.196021 1_644
Ga1 Th0 3.196021 1_555
Ga1 Th3 3.196021 1_554
