# generated using pymatgen
data_K2Sm2IrO7
_symmetry_space_group_name_H-M   'P 1'
_cell_length_a   13.07392296
_cell_length_b   13.07392296
_cell_length_c   13.07392314
_cell_angle_alpha   25.34190751
_cell_angle_beta   25.34190751
_cell_angle_gamma   25.34190514
_symmetry_Int_Tables_number   1
_chemical_formula_structural   K2Sm2IrO7
_chemical_formula_sum   'K4 Sm4 Ir2 O14'
_cell_volume   360.32333779
_cell_formula_units_Z   2
loop_
 _symmetry_equiv_pos_site_id
 _symmetry_equiv_pos_as_xyz
  1  'x, y, z'
loop_
 _atom_site_type_symbol
 _atom_site_label
 _atom_site_symmetry_multiplicity
 _atom_site_fract_x
 _atom_site_fract_y
 _atom_site_fract_z
 _atom_site_occupancy
  K  K0  1  0.58704900  0.58704900  0.58704900  1
  K  K1  1  0.08704900  0.08704900  0.08704900  1
  K  K2  1  0.91295100  0.91295100  0.91295100  1
  K  K3  1  0.41295100  0.41295100  0.41295100  1
  Sm  Sm0  1  0.19084800  0.19084800  0.19084800  1
  Sm  Sm1  1  0.69084800  0.69084800  0.69084800  1
  Sm  Sm2  1  0.30915200  0.30915200  0.30915200  1
  Sm  Sm3  1  0.80915200  0.80915200  0.80915200  1
  Ir  Ir0  1  0.50000000  0.50000000  0.50000000  1
  Ir  Ir1  1  0.00000000  0.00000000  0.00000000  1
  O  O0  1  0.22237900  0.79203700  0.40393500  1
  O  O1  1  0.72237900  0.90393500  0.29203700  1
  O  O2  1  0.27762100  0.09606500  0.70796300  1
  O  O3  1  0.79203700  0.40393500  0.22237900  1
  O  O4  1  0.90393500  0.29203700  0.72237900  1
  O  O5  1  0.77762100  0.20796300  0.59606500  1
  O  O6  1  0.40393500  0.22237900  0.79203700  1
  O  O7  1  0.20796300  0.59606500  0.77762100  1
  O  O8  1  0.70796300  0.27762100  0.09606500  1
  O  O9  1  0.29203700  0.72237900  0.90393500  1
  O  O10  1  0.59606500  0.77762100  0.20796300  1
  O  O11  1  0.25000000  0.25000000  0.25000000  1
  O  O12  1  0.75000000  0.75000000  0.75000000  1
  O  O13  1  0.09606500  0.70796300  0.27762100  1
loop_
_geom_bond_atom_site_label_1
_geom_bond_atom_site_label_2
_geom_bond_distance
_geom_bond_site_symmetry_2
K0 O4 2.683678 1_555
K0 O9 2.683678 1_555
K0 O1 2.683678 1_555
K0 O5 2.817744 1_555
K0 O7 2.817745 1_555
K0 O10 2.817745 1_555
K1 O3 2.683678 1_455
K1 O0 2.683678 1_545
K1 O6 2.683678 1_554
K1 O8 2.817744 1_455
K1 O13 2.817745 1_545
K1 O2 2.817745 1_554
K2 O7 2.683678 1_655
K2 O5 2.683678 1_565
K2 O10 2.683678 1_556
K2 O9 2.817744 1_655
K2 O4 2.817745 1_565
K2 O1 2.817745 1_556
K3 O13 2.683678 1_555
K3 O8 2.683678 1_555
K3 O2 2.683678 1_555
K3 O0 2.817744 1_555
K3 O3 2.817745 1_555
K3 O6 2.817745 1_555
Ir0 O5 1.962698 1_555
Ir0 O0 1.962698 1_555
Ir0 O7 1.962698 1_555
Ir0 O3 1.962698 1_555
Ir0 O10 1.962698 1_555
Ir0 O6 1.962698 1_555
Ir1 O9 1.962698 1_544
Ir1 O8 1.962698 1_455
Ir1 O13 1.962698 1_545
Ir1 O4 1.962698 1_454
Ir1 O1 1.962698 1_445
Ir1 O2 1.962698 1_554
O0 Sm3 2.350986 1_455
O0 Sm0 2.655587 1_565
O1 Sm2 2.350986 1_565
O1 Sm1 2.655588 1_555
O2 Sm1 2.350986 1_545
O2 Sm2 2.655588 1_555
O3 Sm3 2.350986 1_554
O3 Sm0 2.655587 1_655
O4 Sm2 2.350986 1_655
O4 Sm1 2.655587 1_555
O5 Sm0 2.350986 1_655
O5 Sm3 2.655587 1_545
O6 Sm3 2.350986 1_545
O6 Sm0 2.655588 1_556
O7 Sm0 2.350986 1_556
O7 Sm3 2.655587 1_455
O8 Sm1 2.350986 1_554
O8 Sm2 2.655587 1_555
O9 Sm2 2.350986 1_556
O9 Sm1 2.655587 1_555
O10 Sm0 2.350986 1_565
O10 Sm3 2.655588 1_554
O11 Sm2 2.244393 1_555
O11 Sm0 2.244393 1_555
O12 Sm3 2.244393 1_555
O12 Sm1 2.244393 1_555
O13 Sm1 2.350986 1_455
O13 Sm2 2.655587 1_555
