# generated using pymatgen
data_NaMgBO3
_symmetry_space_group_name_H-M   'P 1'
_cell_length_a   5.11159793
_cell_length_b   5.11159793
_cell_length_c   5.59162454
_cell_angle_alpha   85.40116673
_cell_angle_beta   85.40116673
_cell_angle_gamma   120.60135505
_symmetry_Int_Tables_number   1
_chemical_formula_structural   NaMgBO3
_chemical_formula_sum   'Na2 Mg2 B2 O6'
_cell_volume   124.09538377
_cell_formula_units_Z   2
loop_
 _symmetry_equiv_pos_site_id
 _symmetry_equiv_pos_as_xyz
  1  'x, y, z'
loop_
 _atom_site_type_symbol
 _atom_site_label
 _atom_site_symmetry_multiplicity
 _atom_site_fract_x
 _atom_site_fract_y
 _atom_site_fract_z
 _atom_site_occupancy
  Na  Na0  1  0.66508300  0.33491700  0.75000000  1
  Na  Na1  1  0.33491700  0.66508300  0.25000000  1
  Mg  Mg0  1  0.00000000  0.00000000  0.00000000  1
  Mg  Mg1  1  0.00000000  0.00000000  0.50000000  1
  B  B0  1  0.33266300  0.66733700  0.75000000  1
  B  B1  1  0.66733700  0.33266300  0.25000000  1
  O  O0  1  0.81391700  0.63460100  0.29604400  1
  O  O1  1  0.17637900  0.82362100  0.75000000  1
  O  O2  1  0.36539900  0.18608300  0.20395600  1
  O  O3  1  0.63460100  0.81391700  0.79604400  1
  O  O4  1  0.82362100  0.17637900  0.25000000  1
  O  O5  1  0.18608300  0.36539900  0.70395600  1
loop_
_geom_bond_atom_site_label_1
_geom_bond_atom_site_label_2
_geom_bond_distance
_geom_bond_site_symmetry_2
Na0 O1 2.534519 1_545
Na0 O1 2.534519 1_655
Na0 O5 2.562921 1_555
Na0 O3 2.562921 1_555
Na0 O3 2.577603 1_545
Na0 O5 2.577603 1_655
Na0 O0 2.692375 1_555
Na0 O2 2.692375 1_556
Na1 O4 2.534519 1_565
Na1 O4 2.534519 1_455
Na1 O0 2.562921 1_555
Na1 O2 2.562921 1_555
Na1 O2 2.577603 1_565
Na1 O0 2.577603 1_455
Na1 O3 2.692375 1_554
Na1 O5 2.692375 1_555
Mg0 O2 2.097779 1_555
Mg0 O3 2.097779 1_444
Mg0 O1 2.099382 1_544
Mg0 O4 2.099382 1_455
Mg0 O5 2.139271 1_554
Mg0 O0 2.139271 1_445
Mg1 O5 2.097779 1_555
Mg1 O0 2.097779 1_445
Mg1 O4 2.099382 1_455
Mg1 O1 2.099382 1_545
Mg1 O2 2.139271 1_555
Mg1 O3 2.139271 1_445
B0 O1 1.387841 1_555
B0 O3 1.388169 1_555
B0 O5 1.388169 1_555
B0 Na1 2.795884 1_556
B0 Na1 2.795884 1_555
B1 O4 1.387841 1_555
B1 O0 1.388169 1_555
B1 O2 1.388169 1_555
B1 Na0 2.795884 1_554
B1 Na0 2.795884 1_555
