# generated using pymatgen
data_Al3(Co10B3)2
_symmetry_space_group_name_H-M   'P 1'
_cell_length_a   7.39881746
_cell_length_b   7.39881746
_cell_length_c   7.39881746
_cell_angle_alpha   60.00000000
_cell_angle_beta   60.00000000
_cell_angle_gamma   60.00000000
_symmetry_Int_Tables_number   1
_chemical_formula_structural   Al3(Co10B3)2
_chemical_formula_sum   'Al3 Co20 B6'
_cell_volume   286.39929247
_cell_formula_units_Z   1
loop_
 _symmetry_equiv_pos_site_id
 _symmetry_equiv_pos_as_xyz
  1  'x, y, z'
loop_
 _atom_site_type_symbol
 _atom_site_label
 _atom_site_symmetry_multiplicity
 _atom_site_fract_x
 _atom_site_fract_y
 _atom_site_fract_z
 _atom_site_occupancy
  Al  Al0  1  0.00000000  0.00000000  0.00000000  1
  Al  Al1  1  0.75000000  0.75000000  0.75000000  1
  Al  Al2  1  0.25000000  0.25000000  0.25000000  1
  Co  Co0  1  0.61754700  0.14735900  0.61754700  1
  Co  Co1  1  0.38245300  0.38245300  0.85264100  1
  Co  Co2  1  0.85264100  0.38245300  0.38245300  1
  Co  Co3  1  0.38245300  0.38245300  0.38245300  1
  Co  Co4  1  0.14735900  0.61754700  0.61754700  1
  Co  Co5  1  0.61754700  0.61754700  0.61754700  1
  Co  Co6  1  0.61754700  0.61754700  0.14735900  1
  Co  Co7  1  0.38245300  0.85264100  0.38245300  1
  Co  Co8  1  0.65961500  0.34038500  0.00000000  1
  Co  Co9  1  0.00000000  0.34038500  0.65961500  1
  Co  Co10  1  0.65961500  0.00000000  0.00000000  1
  Co  Co11  1  0.00000000  0.00000000  0.34038500  1
  Co  Co12  1  0.00000000  0.00000000  0.65961500  1
  Co  Co13  1  0.00000000  0.34038500  0.00000000  1
  Co  Co14  1  0.65961500  0.00000000  0.34038500  1
  Co  Co15  1  0.34038500  0.00000000  0.00000000  1
  Co  Co16  1  0.00000000  0.65961500  0.00000000  1
  Co  Co17  1  0.34038500  0.00000000  0.65961500  1
  Co  Co18  1  0.00000000  0.65961500  0.34038500  1
  Co  Co19  1  0.34038500  0.65961500  0.00000000  1
  B  B0  1  0.27662700  0.27662700  0.72337300  1
  B  B1  1  0.27662700  0.72337300  0.72337300  1
  B  B2  1  0.72337300  0.27662700  0.27662700  1
  B  B3  1  0.27662700  0.72337300  0.27662700  1
  B  B4  1  0.72337300  0.27662700  0.72337300  1
  B  B5  1  0.72337300  0.72337300  0.27662700  1
loop_
_geom_bond_atom_site_label_1
_geom_bond_atom_site_label_2
_geom_bond_distance
_geom_bond_site_symmetry_2
Al0 Co19 2.518446 1_545
Al0 Co8 2.518446 1_455
Al0 Co11 2.518446 1_555
Al0 Co16 2.518446 1_545
Al0 Co12 2.518446 1_554
Al0 Co18 2.518446 1_545
Al0 Co9 2.518446 1_554
Al0 Co15 2.518446 1_555
Al0 Co10 2.518446 1_455
Al0 Co17 2.518446 1_554
Al0 Co14 2.518446 1_455
Al0 Co13 2.518446 1_555
Al1 Co4 2.400489 1_655
Al1 Co6 2.400489 1_556
Al1 Co0 2.400489 1_565
Al1 Co5 2.400489 1_555
Al2 Co3 2.400489 1_555
Al2 Co2 2.400489 1_455
Al2 Co1 2.400489 1_554
Al2 Co7 2.400489 1_545
B0 Co3 2.061968 1_555
B0 Co0 2.061968 1_555
B0 Co4 2.061968 1_555
B0 Co1 2.061968 1_555
B0 Co17 2.100373 1_555
B0 Co9 2.100373 1_555
B0 Co13 2.100373 1_556
B0 Co15 2.100373 1_556
B1 Co4 2.061968 1_555
B1 Co7 2.061968 1_555
B1 Co1 2.061968 1_555
B1 Co5 2.061968 1_555
B1 Co12 2.100373 1_565
B1 Co16 2.100373 1_556
B1 Co17 2.100373 1_565
B1 Co19 2.100373 1_556
B2 Co3 2.061968 1_555
B2 Co6 2.061968 1_555
B2 Co0 2.061968 1_555
B2 Co2 2.061968 1_555
B2 Co8 2.100373 1_555
B2 Co14 2.100373 1_555
B2 Co11 2.100373 1_655
B2 Co13 2.100373 1_655
B3 Co3 2.061968 1_555
B3 Co6 2.061968 1_555
B3 Co4 2.061968 1_555
B3 Co7 2.061968 1_555
B3 Co18 2.100373 1_555
B3 Co19 2.100373 1_555
B3 Co15 2.100373 1_565
B3 Co11 2.100373 1_565
B4 Co0 2.061968 1_555
B4 Co1 2.061968 1_555
B4 Co2 2.061968 1_555
B4 Co5 2.061968 1_555
B4 Co10 2.100373 1_556
B4 Co12 2.100373 1_655
B4 Co8 2.100373 1_556
B4 Co9 2.100373 1_655
B5 Co6 2.061968 1_555
B5 Co7 2.061968 1_555
B5 Co2 2.061968 1_555
B5 Co5 2.061968 1_555
B5 Co10 2.100373 1_565
B5 Co16 2.100373 1_655
B5 Co14 2.100373 1_565
B5 Co18 2.100373 1_655
