# generated using pymatgen
data_VS2N3Cl2
_symmetry_space_group_name_H-M   'P 1'
_cell_length_a   5.79645200
_cell_length_b   7.38449529
_cell_length_c   8.03199303
_cell_angle_alpha   95.06420289
_cell_angle_beta   98.93359259
_cell_angle_gamma   97.38317479
_symmetry_Int_Tables_number   1
_chemical_formula_structural   VS2N3Cl2
_chemical_formula_sum   'V2 S4 N6 Cl4'
_cell_volume   334.75229820
_cell_formula_units_Z   2
loop_
 _symmetry_equiv_pos_site_id
 _symmetry_equiv_pos_as_xyz
  1  'x, y, z'
loop_
 _atom_site_type_symbol
 _atom_site_label
 _atom_site_symmetry_multiplicity
 _atom_site_fract_x
 _atom_site_fract_y
 _atom_site_fract_z
 _atom_site_occupancy
  V  V0  1  0.75995300  0.85386400  0.02174500  1
  V  V1  1  0.24004700  0.14613600  0.97825500  1
  S  S0  1  0.74879300  0.63715700  0.33440500  1
  S  S1  1  0.82125800  0.12731700  0.68198700  1
  S  S2  1  0.25120700  0.36284300  0.66559500  1
  S  S3  1  0.17874200  0.87268300  0.31801300  1
  N  N0  1  0.98542400  0.26582500  0.59492800  1
  N  N1  1  0.05800900  0.92271300  0.13943100  1
  N  N2  1  0.01457600  0.73417500  0.40507200  1
  N  N3  1  0.65746100  0.70524700  0.15750800  1
  N  N4  1  0.34253900  0.29475300  0.84249200  1
  N  N5  1  0.94199100  0.07728700  0.86056900  1
  Cl  Cl0  1  0.37948100  0.88528700  0.83485600  1
  Cl  Cl1  1  0.19807300  0.35271700  0.19070200  1
  Cl  Cl2  1  0.62051900  0.11471300  0.16514400  1
  Cl  Cl3  1  0.80192700  0.64728300  0.80929800  1
loop_
_geom_bond_atom_site_label_1
_geom_bond_atom_site_label_2
_geom_bond_distance
_geom_bond_site_symmetry_2
N0 S1 1.588519 1_555
N0 S2 1.606810 1_655
N1 S3 1.591195 1_555
N1 V0 1.821820 1_455
N1 V1 2.421827 1_564
N2 S3 1.588519 1_555
N2 S0 1.606810 1_455
N3 S0 1.585175 1_555
N3 V0 1.729551 1_555
N4 S2 1.585175 1_555
N4 V1 1.729551 1_555
N5 S1 1.591195 1_555
N5 V1 1.821820 1_655
N5 V0 2.421827 1_546
Cl0 V1 2.446992 1_565
Cl0 V0 2.517082 1_556
Cl1 V1 2.250070 1_554
Cl2 V0 2.446992 1_545
Cl2 V1 2.517082 1_554
Cl3 V0 2.250070 1_556
