# generated using pymatgen
data_CsYbCoS3
_symmetry_space_group_name_H-M   'P 1'
_cell_length_a   8.06109579
_cell_length_b   8.06109579
_cell_length_c   10.83576400
_cell_angle_alpha   90.00000000
_cell_angle_beta   90.00000000
_cell_angle_gamma   151.36154411
_symmetry_Int_Tables_number   1
_chemical_formula_structural   CsYbCoS3
_chemical_formula_sum   'Cs2 Yb2 Co2 S6'
_cell_volume   337.47215655
_cell_formula_units_Z   2
loop_
 _symmetry_equiv_pos_site_id
 _symmetry_equiv_pos_as_xyz
  1  'x, y, z'
loop_
 _atom_site_type_symbol
 _atom_site_label
 _atom_site_symmetry_multiplicity
 _atom_site_fract_x
 _atom_site_fract_y
 _atom_site_fract_z
 _atom_site_occupancy
  Cs  Cs0  1  0.26429900  0.73570100  0.75000000  1
  Cs  Cs1  1  0.73570100  0.26429900  0.25000000  1
  Yb  Yb0  1  0.00000000  0.00000000  0.00000000  1
  Yb  Yb1  1  0.00000000  0.00000000  0.50000000  1
  Co  Co0  1  0.54095900  0.45904100  0.75000000  1
  Co  Co1  1  0.45904100  0.54095900  0.25000000  1
  S  S0  1  0.61439800  0.38560200  0.92118200  1
  S  S1  1  0.95698700  0.04301300  0.75000000  1
  S  S2  1  0.04301300  0.95698700  0.25000000  1
  S  S3  1  0.38560200  0.61439800  0.07881800  1
  S  S4  1  0.38560200  0.61439800  0.42118200  1
  S  S5  1  0.61439800  0.38560200  0.57881800  1
loop_
_geom_bond_atom_site_label_1
_geom_bond_atom_site_label_2
_geom_bond_distance
_geom_bond_site_symmetry_2
Cs0 S0 3.591489 1_565
Cs0 S5 3.591489 1_455
Cs0 S5 3.591489 1_565
Cs0 S0 3.591489 1_455
Cs0 S1 3.610430 1_565
Cs0 S1 3.610430 1_455
Cs0 S4 4.035545 1_555
Cs0 S3 4.035545 1_556
Cs1 S3 3.591489 1_655
Cs1 S3 3.591489 1_545
Cs1 S4 3.591489 1_545
Cs1 S4 3.591489 1_655
Cs1 S2 3.610430 1_545
Cs1 S2 3.610430 1_655
Cs1 S0 4.035545 1_554
Cs1 S5 4.035545 1_555
Co0 S0 2.180988 1_555
Co0 S5 2.180988 1_555
Co0 S1 2.386536 1_565
Co0 S1 2.386536 1_455
Co1 S3 2.180988 1_555
Co1 S4 2.180988 1_555
Co1 S2 2.386536 1_655
Co1 S2 2.386536 1_545
S0 Yb0 2.810303 1_666
S0 Yb0 2.810303 1_556
S1 Yb0 2.791028 1_656
S1 Yb1 2.791028 1_655
S2 Yb1 2.791028 1_565
S2 Yb0 2.791028 1_565
S3 Yb0 2.810303 1_555
S3 Yb0 2.810303 1_665
S4 Yb1 2.810303 1_555
S4 Yb1 2.810303 1_665
S5 Yb1 2.810303 1_665
S5 Yb1 2.810303 1_555
