# generated using pymatgen
data_Pr2WC2
_symmetry_space_group_name_H-M   'P 1'
_cell_length_a   5.83318451
_cell_length_b   5.83318451
_cell_length_c   10.53277207
_cell_angle_alpha   90.00000000
_cell_angle_beta   90.00000000
_cell_angle_gamma   90.00000000
_symmetry_Int_Tables_number   1
_chemical_formula_structural   Pr2WC2
_chemical_formula_sum   'Pr8 W4 C8'
_cell_volume   358.38853986
_cell_formula_units_Z   4
loop_
 _symmetry_equiv_pos_site_id
 _symmetry_equiv_pos_as_xyz
  1  'x, y, z'
loop_
 _atom_site_type_symbol
 _atom_site_label
 _atom_site_symmetry_multiplicity
 _atom_site_fract_x
 _atom_site_fract_y
 _atom_site_fract_z
 _atom_site_occupancy
  Pr  Pr0  1  0.30417321  0.69582679  0.15680519  1
  Pr  Pr1  1  0.69582679  0.30417321  0.84319481  1
  Pr  Pr2  1  0.80417321  0.80417321  0.34319481  1
  Pr  Pr3  1  0.19582679  0.19582679  0.65680519  1
  Pr  Pr4  1  0.69582679  0.30417321  0.15680519  1
  Pr  Pr5  1  0.30417321  0.69582679  0.84319481  1
  Pr  Pr6  1  0.19582679  0.19582679  0.34319481  1
  Pr  Pr7  1  0.80417321  0.80417321  0.65680519  1
  W  W0  1  0.67746045  0.32253955  0.50000000  1
  W  W1  1  0.32253955  0.67746045  0.50000000  1
  W  W2  1  0.82253955  0.82253955  0.00000000  1
  W  W3  1  0.17746045  0.17746045  0.00000000  1
  C  C0  1  0.00000000  -0.00000000  0.86091582  1
  C  C1  1  0.50000000  0.50000000  0.63908418  1
  C  C2  1  0.50000000  0.50000000  0.36091582  1
  C  C3  1  0.50000000  0.00000000  0.00000000  1
  C  C4  1  0.50000000  0.00000000  0.50000000  1
  C  C5  1  0.00000000  0.50000000  0.00000000  1
  C  C6  1  0.00000000  0.50000000  0.50000000  1
  C  C7  1  -0.00000000  -0.00000000  0.13908418  1
loop_
_geom_bond_atom_site_label_1
_geom_bond_atom_site_label_2
_geom_bond_distance
_geom_bond_site_symmetry_2
C0 W3 2.071030 1_556
C0 W2 2.071030 1_446
C0 Pr5 2.516169 1_545
C0 Pr1 2.516169 1_455
C0 Pr3 2.689150 1_555
C0 Pr7 2.689150 1_445
C1 W0 2.071030 1_555
C1 W1 2.071030 1_555
C1 Pr3 2.516169 1_555
C1 Pr7 2.516169 1_555
C1 Pr1 2.689150 1_555
C1 Pr5 2.689150 1_555
C2 W0 2.071030 1_555
C2 W1 2.071030 1_555
C2 Pr2 2.516169 1_555
C2 Pr6 2.516169 1_555
C2 Pr0 2.689150 1_555
C2 Pr4 2.689150 1_555
C3 W3 2.147404 1_555
C3 W2 2.147404 1_545
C3 Pr5 2.679689 1_544
C3 Pr0 2.679689 1_545
C3 Pr1 2.679689 1_554
C3 Pr4 2.679689 1_555
C4 W1 2.147404 1_545
C4 W0 2.147404 1_555
C4 Pr6 2.679689 1_555
C4 Pr3 2.679689 1_555
C4 Pr2 2.679689 1_545
C4 Pr7 2.679689 1_545
C5 W3 2.147404 1_555
C5 W2 2.147404 1_455
C5 Pr1 2.679689 1_454
C5 Pr4 2.679689 1_455
C5 Pr5 2.679689 1_554
C5 Pr0 2.679689 1_555
C6 W0 2.147404 1_455
C6 W1 2.147404 1_555
C6 Pr6 2.679689 1_555
C6 Pr3 2.679689 1_555
C6 Pr2 2.679689 1_455
C6 Pr7 2.679689 1_455
C7 W2 2.071030 1_445
C7 W3 2.071030 1_555
C7 Pr0 2.516169 1_545
C7 Pr4 2.516169 1_455
C7 Pr6 2.689150 1_555
C7 Pr2 2.689150 1_445
