# generated using pymatgen
data_K2RbMn2F7
_symmetry_space_group_name_H-M   'P 1'
_cell_length_a   11.40713072
_cell_length_b   11.40713072
_cell_length_c   11.40713072
_cell_angle_alpha   158.35611694
_cell_angle_beta   158.35611694
_cell_angle_gamma   30.79679587
_symmetry_Int_Tables_number   1
_chemical_formula_structural   K2RbMn2F7
_chemical_formula_sum   'K2 Rb1 Mn2 F7'
_cell_volume   201.79344346
_cell_formula_units_Z   1
loop_
 _symmetry_equiv_pos_site_id
 _symmetry_equiv_pos_as_xyz
  1  'x, y, z'
loop_
 _atom_site_type_symbol
 _atom_site_label
 _atom_site_symmetry_multiplicity
 _atom_site_fract_x
 _atom_site_fract_y
 _atom_site_fract_z
 _atom_site_occupancy
  K  K0  1  0.31379500  0.31379500  0.00000000  1
  K  K1  1  0.68620500  0.68620500  0.00000000  1
  Rb  Rb0  1  0.50000000  0.50000000  0.00000000  1
  Mn  Mn0  1  0.90083000  0.90083000  0.00000000  1
  Mn  Mn1  1  0.09917000  0.09917000  0.00000000  1
  F  F0  1  0.40127300  0.90127300  0.50000000  1
  F  F1  1  0.90127300  0.40127300  0.50000000  1
  F  F2  1  0.19534300  0.19534300  0.00000000  1
  F  F3  1  0.80465700  0.80465700  0.00000000  1
  F  F4  1  0.00000000  0.00000000  0.00000000  1
  F  F5  1  0.09872700  0.59872700  0.50000000  1
  F  F6  1  0.59872700  0.09872700  0.50000000  1
loop_
_geom_bond_atom_site_label_1
_geom_bond_atom_site_label_2
_geom_bond_distance
_geom_bond_site_symmetry_2
F0 Mn0 2.141796 1_455
F0 Mn0 2.141796 1_556
F0 K0 2.879127 1_555
F0 K0 2.879127 1_566
F0 Rb0 3.050039 1_555
F0 Rb0 3.050039 1_566
F1 Mn0 2.141796 1_545
F1 Mn0 2.141796 1_556
F1 K0 2.879127 1_555
F1 K0 2.879127 1_656
F1 Rb0 3.050039 1_656
F1 Rb0 3.050039 1_555
F2 Mn1 2.115353 1_555
F2 K0 2.605387 1_555
F2 K1 3.035587 1_455
F2 K1 3.035587 1_556
F2 K1 3.035587 1_444
F2 K1 3.035587 1_545
F3 Mn0 2.115353 1_555
F3 K1 2.605387 1_555
F3 K0 3.035587 1_554
F3 K0 3.035587 1_655
F3 K0 3.035587 1_565
F3 K0 3.035587 1_666
F4 Mn0 2.181273 1_445
F4 Mn1 2.181273 1_555
F4 Rb0 3.028926 1_444
F4 Rb0 3.028926 1_455
F4 Rb0 3.028926 1_556
F4 Rb0 3.028926 1_545
F5 Mn1 2.141796 1_566
F5 Mn1 2.141796 1_555
F5 K1 2.879127 1_455
F5 K1 2.879127 1_556
F5 Rb0 3.050039 1_455
F5 Rb0 3.050039 1_556
F6 Mn1 2.141796 1_656
F6 Mn1 2.141796 1_555
F6 K1 2.879127 1_556
F6 K1 2.879127 1_545
F6 Rb0 3.050039 1_556
F6 Rb0 3.050039 1_545
