# generated using pymatgen
data_AsH5COF6
_symmetry_space_group_name_H-M   'P 1'
_cell_length_a   7.18407600
_cell_length_b   5.02707300
_cell_length_c   8.78653900
_cell_angle_alpha   82.24691323
_cell_angle_beta   90.00000000
_cell_angle_gamma   90.00000000
_symmetry_Int_Tables_number   1
_chemical_formula_structural   AsH5COF6
_chemical_formula_sum   'As2 H10 C2 O2 F12'
_cell_volume   314.42397035
_cell_formula_units_Z   2
loop_
 _symmetry_equiv_pos_site_id
 _symmetry_equiv_pos_as_xyz
  1  'x, y, z'
loop_
 _atom_site_type_symbol
 _atom_site_label
 _atom_site_symmetry_multiplicity
 _atom_site_fract_x
 _atom_site_fract_y
 _atom_site_fract_z
 _atom_site_occupancy
  As  As0  1  0.25000000  0.06579600  0.70241800  1
  As  As1  1  0.75000000  0.93420400  0.29758200  1
  H  H0  1  0.62472600  0.43618800  0.90578300  1
  H  H1  1  0.63382200  0.38905300  0.64406900  1
  H  H2  1  0.86617800  0.38905300  0.64406900  1
  H  H3  1  0.13382200  0.61094700  0.35593100  1
  H  H4  1  0.25000000  0.86618100  0.12227600  1
  H  H5  1  0.36617800  0.61094700  0.35593100  1
  H  H6  1  0.87527400  0.43618800  0.90578300  1
  H  H7  1  0.12472600  0.56381200  0.09421700  1
  H  H8  1  0.75000000  0.13381900  0.87772400  1
  H  H9  1  0.37527400  0.56381200  0.09421700  1
  C  C0  1  0.25000000  0.64658400  0.13991200  1
  C  C1  1  0.75000000  0.35341600  0.86008800  1
  O  O0  1  0.75000000  0.45025400  0.69320100  1
  O  O1  1  0.25000000  0.54974600  0.30679900  1
  F  F0  1  0.25000000  0.91515900  0.53309600  1
  F  F1  1  0.42789500  0.84996500  0.78239800  1
  F  F2  1  0.25000000  0.23276800  0.86662300  1
  F  F3  1  0.92789500  0.15003500  0.21760200  1
  F  F4  1  0.57784000  0.69800800  0.38444100  1
  F  F5  1  0.75000000  0.08484100  0.46690400  1
  F  F6  1  0.42216000  0.30199200  0.61555900  1
  F  F7  1  0.75000000  0.76723200  0.13337700  1
  F  F8  1  0.57210500  0.15003500  0.21760200  1
  F  F9  1  0.07784000  0.30199200  0.61555900  1
  F  F10  1  0.07210500  0.84996500  0.78239800  1
  F  F11  1  0.92216000  0.69800800  0.38444100  1
loop_
_geom_bond_atom_site_label_1
_geom_bond_atom_site_label_2
_geom_bond_distance
_geom_bond_site_symmetry_2
As0 F0 1.758076 1_545
As0 F1 1.760302 1_545
As0 F10 1.760302 1_545
As0 F2 1.764360 1_555
As0 F9 1.810392 1_555
As0 F6 1.810392 1_555
As1 F5 1.758076 1_565
As1 F3 1.760302 1_565
As1 F8 1.760302 1_565
As1 F7 1.764360 1_555
As1 F4 1.810392 1_555
As1 F11 1.810392 1_555
H1 O0 1.006711 1_555
H2 O0 1.006711 1_555
H3 O1 1.006711 1_555
H5 O1 1.006711 1_555
C0 H9 1.090586 1_555
C0 H7 1.090586 1_555
C0 H4 1.093855 1_555
C0 O1 1.481416 1_555
C1 H6 1.090586 1_555
C1 H0 1.090586 1_555
C1 H8 1.093855 1_555
C1 O0 1.481416 1_555
F4 H5 1.611240 1_555
F6 H1 1.611240 1_555
F9 H2 1.611240 1_455
F11 H3 1.611240 1_655
