# generated using pymatgen
data_Na3GaS3
_symmetry_space_group_name_H-M   'P 1'
_cell_length_a   12.06592719
_cell_length_b   7.62554679
_cell_length_c   13.59311015
_cell_angle_alpha   81.59821543
_cell_angle_beta   90.00000000
_cell_angle_gamma   90.00000000
_symmetry_Int_Tables_number   1
_chemical_formula_structural   Na3GaS3
_chemical_formula_sum   'Na24 Ga8 S24'
_cell_volume   1237.26974178
_cell_formula_units_Z   8
loop_
 _symmetry_equiv_pos_site_id
 _symmetry_equiv_pos_as_xyz
  1  'x, y, z'
loop_
 _atom_site_type_symbol
 _atom_site_label
 _atom_site_symmetry_multiplicity
 _atom_site_fract_x
 _atom_site_fract_y
 _atom_site_fract_z
 _atom_site_occupancy
  Na  Na0  1  0.75286071  0.49930846  0.01529871  1
  Na  Na1  1  0.30799559  0.96223550  0.23957671  1
  Na  Na2  1  0.74713929  0.99930846  0.01529871  1
  Na  Na3  1  0.26955347  0.07706290  0.47439509  1
  Na  Na4  1  0.91021132  0.10780513  0.36841033  1
  Na  Na5  1  0.41021132  0.39219487  0.63158967  1
  Na  Na6  1  0.33056019  0.99435630  0.75530529  1
  Na  Na7  1  0.24713929  0.50069154  0.98470129  1
  Na  Na8  1  0.69200441  0.03776450  0.76042329  1
  Na  Na9  1  0.08978868  0.89219487  0.63158967  1
  Na  Na10  1  0.73044653  0.92293710  0.52560491  1
  Na  Na11  1  0.66943981  0.00564370  0.24469471  1
  Na  Na12  1  0.19200441  0.46223550  0.23957671  1
  Na  Na13  1  0.80799559  0.53776450  0.76042329  1
  Na  Na14  1  0.48045232  0.42098713  0.19293823  1
  Na  Na15  1  0.58978868  0.60780513  0.36841033  1
  Na  Na16  1  0.98045232  0.07901287  0.80706177  1
  Na  Na17  1  0.01954768  0.92098713  0.19293823  1
  Na  Na18  1  0.76955347  0.42293710  0.52560491  1
  Na  Na19  1  0.16943981  0.49435630  0.75530529  1
  Na  Na20  1  0.25286071  0.00069154  0.98470129  1
  Na  Na21  1  0.51954768  0.57901287  0.80706177  1
  Na  Na22  1  0.83056019  0.50564370  0.24469471  1
  Na  Na23  1  0.23044653  0.57706290  0.47439509  1
  Ga  Ga0  1  0.50684320  0.18020164  0.92639247  1
  Ga  Ga1  1  0.97734156  0.68507305  0.43431878  1
  Ga  Ga2  1  0.49315680  0.81979836  0.07360753  1
  Ga  Ga3  1  0.99315680  0.68020164  0.92639247  1
  Ga  Ga4  1  0.47734156  0.81492695  0.56568122  1
  Ga  Ga5  1  0.52265844  0.18507305  0.43431878  1
  Ga  Ga6  1  0.02265844  0.31492695  0.56568122  1
  Ga  Ga7  1  0.00684320  0.31979836  0.07360753  1
  S  S0  1  0.18830932  0.23577183  0.62857691  1
  S  S1  1  0.64207207  0.68813315  0.14937712  1
  S  S2  1  0.49584863  0.11831252  0.09919337  1
  S  S3  1  0.68830932  0.26422817  0.37142309  1
  S  S4  1  0.50415137  0.88168748  0.90080663  1
  S  S5  1  0.46850733  0.91089957  0.39352145  1
  S  S6  1  0.53149267  0.08910043  0.60647855  1
  S  S7  1  0.99584863  0.38168748  0.90080663  1
  S  S8  1  0.03149267  0.41089957  0.39352145  1
  S  S9  1  0.31169068  0.73577183  0.62857691  1
  S  S10  1  0.17042460  0.19856923  0.12109744  1
  S  S11  1  0.82957540  0.80143077  0.87890256  1
  S  S12  1  0.81169068  0.76422817  0.37142309  1
  S  S13  1  0.39010160  0.38581747  0.38704837  1
  S  S14  1  0.85792793  0.18813315  0.14937712  1
  S  S15  1  0.00415137  0.61831252  0.09919337  1
  S  S16  1  0.10989840  0.88581747  0.38704837  1
  S  S17  1  0.60989840  0.61418253  0.61295163  1
  S  S18  1  0.96850733  0.58910043  0.60647855  1
  S  S19  1  0.35792793  0.31186685  0.85062288  1
  S  S20  1  0.32957540  0.69856923  0.12109744  1
  S  S21  1  0.89010160  0.11418253  0.61295163  1
  S  S22  1  0.14207207  0.81186685  0.85062288  1
  S  S23  1  0.67042460  0.30143077  0.87890256  1
loop_
_geom_bond_atom_site_label_1
_geom_bond_atom_site_label_2
_geom_bond_distance
_geom_bond_site_symmetry_2
Na0 S23 2.742491 1_554
Na0 S1 2.819358 1_555
Na0 S11 2.890289 1_554
Na0 S14 3.048867 1_555
Na1 S20 2.765914 1_555
Na1 S10 2.783653 1_565
Na1 S5 2.836138 1_555
Na1 S2 3.087361 1_565
Na1 S16 3.119264 1_555
Na2 S11 2.742491 1_554
Na2 S14 2.819358 1_565
Na2 S23 2.890289 1_564
Na2 S1 3.048867 1_555
Na3 S0 2.749416 1_555
Na3 S16 2.784504 1_545
Na3 S13 2.872587 1_555
Na3 S5 2.997295 1_545
Na3 S9 3.135308 1_545
Na4 S8 2.798292 1_655
Na4 S12 2.871869 1_545
Na4 S3 2.933855 1_555
Na4 S16 2.934214 1_645
Na4 S14 3.017416 1_555
Na4 S21 3.340354 1_555
Na5 S6 2.798292 1_555
Na5 S9 2.871869 1_555
Na5 S0 2.933855 1_555
Na5 S17 2.934214 1_555
Na5 S19 3.017416 1_555
Na5 S13 3.340354 1_555
Na6 S9 2.810714 1_555
Na6 S22 2.874146 1_555
Na6 S0 2.894086 1_565
Na6 S4 2.922402 1_555
Na6 S19 2.926890 1_565
Na6 S6 3.172594 1_565
Na7 S20 2.742491 1_556
Na7 S19 2.819358 1_555
Na7 S10 2.890289 1_556
Na7 S22 3.048867 1_555
Na8 S23 2.765914 1_555
Na8 S11 2.783653 1_545
Na8 S6 2.836138 1_555
Na8 S4 3.087361 1_545
Na8 S21 3.119264 1_555
Na9 S18 2.798292 1_455
Na9 S0 2.871869 1_565
Na9 S9 2.933855 1_555
Na9 S21 2.934214 1_465
Na9 S22 3.017416 1_555
Na9 S16 3.340354 1_555
Na10 S12 2.749416 1_555
Na10 S21 2.784504 1_565
Na10 S17 2.872587 1_555
Na10 S6 2.997295 1_565
Na10 S3 3.135308 1_565
Na11 S3 2.810714 1_555
Na11 S14 2.874146 1_555
Na11 S12 2.894086 1_545
Na11 S2 2.922402 1_555
Na11 S1 2.926890 1_545
Na11 S5 3.172594 1_545
Na12 S10 2.765914 1_555
Na12 S20 2.783653 1_555
Na12 S8 2.836138 1_555
Na12 S15 3.087361 1_555
Na12 S13 3.119264 1_555
Na13 S11 2.765914 1_555
Na13 S23 2.783653 1_555
Na13 S18 2.836138 1_555
Na13 S7 3.087361 1_555
Na13 S17 3.119264 1_555
Na14 S2 2.800880 1_555
Na14 S1 2.819733 1_555
Na14 S13 2.831183 1_555
Na14 S20 2.853800 1_555
Na15 S5 2.798292 1_555
Na15 S3 2.871869 1_555
Na15 S12 2.933855 1_555
Na15 S13 2.934214 1_555
Na15 S1 3.017416 1_555
Na15 S17 3.340354 1_555
Na16 S7 2.800880 1_555
Na16 S22 2.819733 1_645
Na16 S21 2.831183 1_555
Na16 S11 2.853800 1_545
Na17 S15 2.800880 1_555
Na17 S14 2.819733 1_465
Na17 S16 2.831183 1_555
Na17 S10 2.853800 1_565
Na18 S3 2.749416 1_555
Na18 S17 2.784504 1_555
Na18 S21 2.872587 1_555
Na18 S18 2.997295 1_555
Na18 S12 3.135308 1_555
Na19 S0 2.810714 1_555
Na19 S19 2.874146 1_555
Na19 S9 2.894086 1_555
Na19 S7 2.922402 1_455
Na19 S22 2.926890 1_555
Na19 S18 3.172594 1_455
Na20 S10 2.742491 1_556
Na20 S22 2.819358 1_545
Na20 S20 2.890289 1_546
Na20 S19 3.048867 1_555
Na21 S4 2.800880 1_555
Na21 S19 2.819733 1_555
Na21 S17 2.831183 1_555
Na21 S23 2.853800 1_555
Na22 S12 2.810714 1_555
Na22 S1 2.874146 1_555
Na22 S3 2.894086 1_555
Na22 S15 2.922402 1_655
Na22 S14 2.926890 1_555
Na22 S8 3.172594 1_655
Na23 S9 2.749416 1_555
Na23 S13 2.784504 1_555
Na23 S16 2.872587 1_555
Na23 S8 2.997295 1_555
Na23 S0 3.135308 1_555
Ga0 S23 2.234423 1_555
Ga0 S19 2.234982 1_555
Ga0 S2 2.331034 1_556
Ga0 S4 2.352671 1_545
Ga1 S12 2.222475 1_555
Ga1 S16 2.242072 1_655
Ga1 S8 2.333322 1_655
Ga1 S18 2.350095 1_555
Ga2 S20 2.234423 1_555
Ga2 S1 2.234982 1_555
Ga2 S4 2.331034 1_554
Ga2 S2 2.352671 1_565
Ga3 S11 2.234423 1_555
Ga3 S22 2.234982 1_655
Ga3 S15 2.331034 1_656
Ga3 S7 2.352671 1_555
Ga4 S9 2.222475 1_555
Ga4 S17 2.242072 1_555
Ga4 S6 2.333322 1_565
Ga4 S5 2.350095 1_555
Ga5 S3 2.222475 1_555
Ga5 S13 2.242072 1_555
Ga5 S5 2.333322 1_545
Ga5 S6 2.350095 1_555
Ga6 S0 2.222475 1_555
Ga6 S21 2.242072 1_455
Ga6 S18 2.333322 1_455
Ga6 S8 2.350095 1_555
Ga7 S10 2.234423 1_555
Ga7 S14 2.234982 1_455
Ga7 S7 2.331034 1_454
Ga7 S15 2.352671 1_555
