# generated using pymatgen
data_UTe6(OF5)6
_symmetry_space_group_name_H-M   'P 1'
_cell_length_a   10.02324228
_cell_length_b   10.02324228
_cell_length_c   10.36681714
_cell_angle_alpha   77.25794585
_cell_angle_beta   77.25794585
_cell_angle_gamma   116.28622478
_symmetry_Int_Tables_number   1
_chemical_formula_structural   UTe6(OF5)6
_chemical_formula_sum   'U1 Te6 O6 F30'
_cell_volume   848.36152841
_cell_formula_units_Z   1
loop_
 _symmetry_equiv_pos_site_id
 _symmetry_equiv_pos_as_xyz
  1  'x, y, z'
loop_
 _atom_site_type_symbol
 _atom_site_label
 _atom_site_symmetry_multiplicity
 _atom_site_fract_x
 _atom_site_fract_y
 _atom_site_fract_z
 _atom_site_occupancy
  U  U0  1  0.00000000  0.00000000  0.00000000  1
  Te  Te0  1  0.40269700  0.07937700  0.73522000  1
  Te  Te1  1  0.76471000  0.76471000  0.78586000  1
  Te  Te2  1  0.59730300  0.92062300  0.26478000  1
  Te  Te3  1  0.07937700  0.40269700  0.73522000  1
  Te  Te4  1  0.23529000  0.23529000  0.21414000  1
  Te  Te5  1  0.92062300  0.59730300  0.26478000  1
  O  O0  1  0.95369100  0.78256500  0.12764000  1
  O  O1  1  0.10746500  0.10746500  0.12717300  1
  O  O2  1  0.89253500  0.89253500  0.87282700  1
  O  O3  1  0.78256500  0.95369100  0.12764000  1
  O  O4  1  0.21743500  0.04630900  0.87236000  1
  O  O5  1  0.04630900  0.21743500  0.87236000  1
  F  F0  1  0.58056300  0.73596600  0.91257200  1
  F  F1  1  0.29711900  0.50999600  0.70636100  1
  F  F2  1  0.11987700  0.32775700  0.58985100  1
  F  F3  1  0.49000400  0.70288100  0.29363900  1
  F  F4  1  0.95975200  0.51894300  0.12213500  1
  F  F5  1  0.88946600  0.41720700  0.39811700  1
  F  F6  1  0.20877300  0.05328400  0.34153700  1
  F  F7  1  0.67224300  0.88012300  0.41014900  1
  F  F8  1  0.63961200  0.63961200  0.70179500  1
  F  F9  1  0.11053400  0.58279300  0.60188300  1
  F  F10  1  0.48105700  0.04024800  0.87786500  1
  F  F11  1  0.05328400  0.20877300  0.34153700  1
  F  F12  1  0.70288100  0.49000400  0.29363900  1
  F  F13  1  0.73596600  0.58056300  0.91257200  1
  F  F14  1  0.79122700  0.94671600  0.65846300  1
  F  F15  1  0.36038800  0.36038800  0.29820500  1
  F  F16  1  0.29786700  0.86163300  0.76315000  1
  F  F17  1  0.13836700  0.70213300  0.23685000  1
  F  F18  1  0.41943700  0.26403400  0.08742800  1
  F  F19  1  0.86163300  0.29786700  0.76315000  1
  F  F20  1  0.32775700  0.11987700  0.58985100  1
  F  F21  1  0.70213300  0.13836700  0.23685000  1
  F  F22  1  0.04024800  0.48105700  0.87786500  1
  F  F23  1  0.26403400  0.41943700  0.08742800  1
  F  F24  1  0.58279300  0.11053400  0.60188300  1
  F  F25  1  0.88012300  0.67224300  0.41014900  1
  F  F26  1  0.50999600  0.29711900  0.70636100  1
  F  F27  1  0.94671600  0.79122700  0.65846300  1
  F  F28  1  0.41720700  0.88946600  0.39811700  1
  F  F29  1  0.51894300  0.95975200  0.12213500  1
loop_
_geom_bond_atom_site_label_1
_geom_bond_atom_site_label_2
_geom_bond_distance
_geom_bond_site_symmetry_2
O0 Te5 1.913559 1_555
O0 U0 2.068117 1_665
O1 Te4 1.913390 1_555
O1 U0 2.069745 1_555
O2 Te1 1.913390 1_555
O2 U0 2.069745 1_666
O3 Te2 1.913559 1_555
O3 U0 2.068117 1_665
O4 Te0 1.913559 1_555
O4 U0 2.068117 1_556
O5 Te3 1.913559 1_555
O5 U0 2.068117 1_556
F0 Te1 1.872928 1_555
F1 Te3 1.870953 1_555
F2 Te3 1.870734 1_555
F3 Te2 1.870953 1_555
F4 Te5 1.867304 1_555
F5 Te5 1.864496 1_555
F6 Te4 1.869708 1_555
F7 Te2 1.870734 1_555
F8 Te1 1.864265 1_555
F9 Te3 1.864496 1_555
F10 Te0 1.867304 1_555
F11 Te4 1.869708 1_555
F12 Te5 1.870953 1_555
F13 Te1 1.872928 1_555
F14 Te1 1.869708 1_555
F15 Te4 1.864265 1_555
F16 Te0 1.872721 1_565
F17 Te5 1.872721 1_455
F18 Te4 1.872928 1_555
F19 Te3 1.872721 1_655
F20 Te0 1.870734 1_555
F21 Te2 1.872721 1_545
F22 Te3 1.867304 1_555
F23 Te4 1.872928 1_555
F24 Te0 1.864496 1_555
F25 Te5 1.870734 1_555
F26 Te0 1.870953 1_555
F27 Te1 1.869708 1_555
F28 Te2 1.864496 1_555
F29 Te2 1.867304 1_555
