# generated using pymatgen
data_CsCr5Se8
_symmetry_space_group_name_H-M   'P 1'
_cell_length_a   3.69347176
_cell_length_b   9.23124240
_cell_length_c   9.69896088
_cell_angle_alpha   104.41558632
_cell_angle_beta   100.98203300
_cell_angle_gamma   90.00316447
_symmetry_Int_Tables_number   1
_chemical_formula_structural   CsCr5Se8
_chemical_formula_sum   'Cs1 Cr5 Se8'
_cell_volume   314.02014562
_cell_formula_units_Z   1
loop_
 _symmetry_equiv_pos_site_id
 _symmetry_equiv_pos_as_xyz
  1  'x, y, z'
loop_
 _atom_site_type_symbol
 _atom_site_label
 _atom_site_symmetry_multiplicity
 _atom_site_fract_x
 _atom_site_fract_y
 _atom_site_fract_z
 _atom_site_occupancy
  Cs  Cs0  1  0.49999067  0.50000510  0.99999675  1
  Cr  Cr0  1  0.00001705  0.00000819  0.00000029  1
  Cr  Cr1  1  0.66006331  0.98172777  0.31954650  1
  Cr  Cr2  1  0.33992879  0.01827117  0.68043888  1
  Cr  Cr3  1  0.29526372  0.66545461  0.59048460  1
  Cr  Cr4  1  0.70470207  0.33454187  0.40952621  1
  Se  Se0  1  0.57599124  0.15209788  0.15126320  1
  Se  Se1  1  0.42403863  0.84790885  0.84874294  1
  Se  Se2  1  0.91116444  0.16506117  0.82368135  1
  Se  Se3  1  0.08883992  0.83493827  0.17629852  1
  Se  Se4  1  0.82792829  0.51132740  0.65600841  1
  Se  Se5  1  0.17205793  0.48866805  0.34399615  1
  Se  Se6  1  0.23945916  0.15803102  0.47824556  1
  Se  Se7  1  0.76055580  0.84195865  0.52177064  1
loop_
_geom_bond_atom_site_label_1
_geom_bond_atom_site_label_2
_geom_bond_distance
_geom_bond_site_symmetry_2
Cs0 Se3 3.625877 1_556
Cs0 Se2 3.626039 1_555
Cs0 Se3 3.628164 1_656
Cs0 Se2 3.628212 1_455
Cs0 Se4 3.784429 1_455
Cs0 Se4 3.784489 1_555
Cs0 Se5 3.784553 1_656
Cs0 Se5 3.784615 1_556
Cs0 Se1 3.838517 1_555
Cs0 Se0 3.838618 1_556
Cr0 Se1 2.535020 1_544
Cr0 Se0 2.535025 1_455
Cr0 Se0 2.536552 1_555
Cr0 Se1 2.536584 1_444
Cr0 Se3 2.537132 1_545
Cr0 Se2 2.537173 1_454
Cr1 Se3 2.482579 1_555
Cr1 Se3 2.485088 1_655
Cr1 Se0 2.513752 1_565
Cr1 Se7 2.575295 1_555
Cr1 Se6 2.663607 1_665
Cr1 Se6 2.663698 1_565
Cr2 Se2 2.482601 1_555
Cr2 Se2 2.485027 1_455
Cr2 Se1 2.513852 1_545
Cr2 Se6 2.574980 1_555
Cr2 Se7 2.663507 1_445
Cr2 Se7 2.663636 1_545
Cr3 Se5 2.495711 1_555
Cr3 Se4 2.504583 1_555
Cr3 Se4 2.505087 1_455
Cr3 Se1 2.604349 1_555
Cr3 Se7 2.651240 1_555
Cr3 Se7 2.653082 1_455
Cr4 Se4 2.495661 1_555
Cr4 Se5 2.504536 1_555
Cr4 Se5 2.505168 1_655
Cr4 Se0 2.604345 1_555
Cr4 Se6 2.651184 1_555
Cr4 Se6 2.653264 1_655
