# generated using pymatgen
data_K2Be(Si2O5)2
_symmetry_space_group_name_H-M   'P 1'
_cell_length_a   9.87571900
_cell_length_b   7.04563700
_cell_length_c   15.22486517
_cell_angle_alpha   66.32289726
_cell_angle_beta   90.00000000
_cell_angle_gamma   90.00000000
_symmetry_Int_Tables_number   1
_chemical_formula_structural   K2Be(Si2O5)2
_chemical_formula_sum   'K8 Be4 Si16 O40'
_cell_volume   970.18389588
_cell_formula_units_Z   4
loop_
 _symmetry_equiv_pos_site_id
 _symmetry_equiv_pos_as_xyz
  1  'x, y, z'
loop_
 _atom_site_type_symbol
 _atom_site_label
 _atom_site_symmetry_multiplicity
 _atom_site_fract_x
 _atom_site_fract_y
 _atom_site_fract_z
 _atom_site_occupancy
  K  K0  1  0.07818400  0.10747600  0.13313000  1
  K  K1  1  0.57818400  0.89252400  0.36687000  1
  K  K2  1  0.12451000  0.13403500  0.40790000  1
  K  K3  1  0.42181600  0.10747600  0.63313000  1
  K  K4  1  0.87549000  0.86596500  0.59210000  1
  K  K5  1  0.37549000  0.13403500  0.90790000  1
  K  K6  1  0.92181600  0.89252400  0.86687000  1
  K  K7  1  0.62451000  0.86596500  0.09210000  1
  Be  Be0  1  0.63556600  0.15073600  0.80476700  1
  Be  Be1  1  0.36443400  0.84926400  0.19523300  1
  Be  Be2  1  0.13556600  0.84926400  0.69523300  1
  Be  Be3  1  0.86443400  0.15073600  0.30476700  1
  Si  Si0  1  0.78361100  0.35213900  0.63005600  1
  Si  Si1  1  0.76538200  0.33379600  0.93329700  1
  Si  Si2  1  0.21638900  0.64786100  0.36994400  1
  Si  Si3  1  0.95154300  0.55846700  0.17058600  1
  Si  Si4  1  0.28361100  0.64786100  0.86994400  1
  Si  Si5  1  0.57401600  0.70330500  0.83377900  1
  Si  Si6  1  0.42598400  0.29669500  0.16622100  1
  Si  Si7  1  0.92598400  0.70330500  0.33377900  1
  Si  Si8  1  0.07401600  0.29669500  0.66622100  1
  Si  Si9  1  0.26538200  0.66620400  0.56670300  1
  Si  Si10  1  0.71638900  0.35213900  0.13005600  1
  Si  Si11  1  0.73461800  0.33379600  0.43329700  1
  Si  Si12  1  0.04845700  0.44153300  0.82941400  1
  Si  Si13  1  0.45154300  0.44153300  0.32941400  1
  Si  Si14  1  0.23461800  0.66620400  0.06670300  1
  Si  Si15  1  0.54845700  0.55846700  0.67058600  1
  O  O0  1  0.92948400  0.33467600  0.91049000  1
  O  O1  1  0.42271200  0.27639000  0.27916200  1
  O  O2  1  0.43385700  0.07486400  0.16253100  1
  O  O3  1  0.06614300  0.07486400  0.66253100  1
  O  O4  1  0.76547700  0.17945500  0.73620500  1
  O  O5  1  0.71319200  0.57689900  0.88543900  1
  O  O6  1  0.42948400  0.66532400  0.58951000  1
  O  O7  1  0.57051600  0.33467600  0.41049000  1
  O  O8  1  0.57728800  0.72361000  0.72083800  1
  O  O9  1  0.44098800  0.55973800  0.88872400  1
  O  O10  1  0.92271200  0.72361000  0.22083800  1
  O  O11  1  0.32040400  0.82477000  0.09557500  1
  O  O12  1  0.25917600  0.74471700  0.44861700  1
  O  O13  1  0.74082400  0.25528300  0.55138300  1
  O  O14  1  0.24082400  0.74471700  0.94861700  1
  O  O15  1  0.67959600  0.17523000  0.90442500  1
  O  O16  1  0.07051600  0.66532400  0.08951000  1
  O  O17  1  0.81217400  0.56245000  0.10748500  1
  O  O18  1  0.82040400  0.17523000  0.40442500  1
  O  O19  1  0.51668200  0.32540800  0.74356600  1
  O  O20  1  0.23452300  0.82054500  0.26379500  1
  O  O21  1  0.48331800  0.67459200  0.25643400  1
  O  O22  1  0.75917600  0.25528300  0.05138300  1
  O  O23  1  0.68782600  0.56245000  0.60748500  1
  O  O24  1  0.31217400  0.43755000  0.39251500  1
  O  O25  1  0.93385700  0.92513600  0.33746900  1
  O  O26  1  0.78680800  0.57689900  0.38543900  1
  O  O27  1  0.94098800  0.44026200  0.61127600  1
  O  O28  1  0.28680800  0.42310100  0.11456100  1
  O  O29  1  0.73452300  0.17945500  0.23620500  1
  O  O30  1  0.55901200  0.44026200  0.11127600  1
  O  O31  1  0.07728800  0.27639000  0.77916200  1
  O  O32  1  0.26547700  0.82054500  0.76379500  1
  O  O33  1  0.98331800  0.32540800  0.24356600  1
  O  O34  1  0.21319200  0.42310100  0.61456100  1
  O  O35  1  0.17959600  0.82477000  0.59557500  1
  O  O36  1  0.05901200  0.55973800  0.38872400  1
  O  O37  1  0.01668200  0.67459200  0.75643400  1
  O  O38  1  0.18782600  0.43755000  0.89251500  1
  O  O39  1  0.56614300  0.92513600  0.83746900  1
loop_
_geom_bond_atom_site_label_1
_geom_bond_atom_site_label_2
_geom_bond_distance
_geom_bond_site_symmetry_2
K0 O20 2.682942 1_545
K0 O33 2.852356 1_455
K0 O10 2.924839 1_445
K0 O28 2.960586 1_555
K1 O29 2.682942 1_565
K1 O21 2.852356 1_555
K1 O1 2.924839 1_565
K1 O26 2.960586 1_555
K2 O33 2.704191 1_455
K2 O24 2.767732 1_555
K2 O25 2.851099 1_445
K2 O35 2.864900 1_545
K2 O12 2.882931 1_545
K2 O36 2.965877 1_555
K2 O18 3.015678 1_455
K3 O32 2.682942 1_545
K3 O19 2.852356 1_555
K3 O8 2.924839 1_545
K3 O34 2.960586 1_555
K4 O37 2.704191 1_655
K4 O23 2.767732 1_555
K4 O3 2.851099 1_665
K4 O18 2.864900 1_565
K4 O13 2.882931 1_565
K4 O27 2.965877 1_555
K4 O35 3.015678 1_655
K5 O19 2.704191 1_555
K5 O38 2.767732 1_555
K5 O39 2.851099 1_545
K5 O11 2.864900 1_546
K5 O14 2.882931 1_545
K5 O9 2.965877 1_555
K5 O15 3.015678 1_555
K6 O4 2.682942 1_565
K6 O37 2.852356 1_655
K6 O31 2.924839 1_665
K6 O5 2.960586 1_555
K7 O21 2.704191 1_555
K7 O17 2.767732 1_555
K7 O2 2.851099 1_565
K7 O15 2.864900 1_564
K7 O22 2.882931 1_565
K7 O30 2.965877 1_555
K7 O11 3.015678 1_555
Be0 O4 1.614595 1_555
Be0 O39 1.615185 1_545
Be0 O15 1.652665 1_555
Be0 O19 1.685289 1_555
Be1 O20 1.614595 1_555
Be1 O2 1.615185 1_565
Be1 O11 1.652665 1_555
Be1 O21 1.685289 1_555
Be2 O32 1.614595 1_555
Be2 O3 1.615185 1_565
Be2 O35 1.652665 1_555
Be2 O37 1.685289 1_555
Be3 O29 1.614595 1_555
Be3 O25 1.615185 1_545
Be3 O18 1.652665 1_555
Be3 O33 1.685289 1_555
O0 Si12 1.650632 1_655
O0 Si1 1.656897 1_555
O1 Si13 1.653848 1_555
O1 Si6 1.667530 1_555
O2 Si6 1.588240 1_555
O3 Si8 1.588240 1_555
O4 Si0 1.595279 1_555
O5 Si1 1.651646 1_555
O5 Si5 1.654794 1_555
O6 Si15 1.650632 1_555
O6 Si9 1.656897 1_555
O7 Si13 1.650632 1_555
O7 Si11 1.656897 1_555
O8 Si15 1.653848 1_555
O8 Si5 1.667530 1_555
O9 Si4 1.655366 1_555
O9 Si5 1.664115 1_555
O10 Si3 1.653848 1_555
O10 Si7 1.667530 1_555
O11 Si14 1.597976 1_555
O12 Si2 1.653911 1_555
O12 Si9 1.656272 1_555
O13 Si0 1.653911 1_555
O13 Si11 1.656272 1_555
O14 Si4 1.653911 1_555
O14 Si14 1.656272 1_556
O15 Si1 1.597976 1_555
O16 Si3 1.650632 1_455
O16 Si14 1.656897 1_555
O17 Si3 1.672268 1_555
O17 Si10 1.673198 1_555
O18 Si11 1.597976 1_555
O19 Si15 1.601247 1_555
O20 Si2 1.595279 1_555
O21 Si13 1.601247 1_555
O22 Si10 1.653911 1_555
O22 Si1 1.656272 1_554
O23 Si15 1.672268 1_555
O23 Si0 1.673198 1_555
O24 Si13 1.672268 1_555
O24 Si2 1.673198 1_555
O25 Si7 1.588240 1_555
O26 Si11 1.651646 1_555
O26 Si7 1.654794 1_555
O27 Si0 1.655366 1_555
O27 Si8 1.664115 1_655
O28 Si14 1.651646 1_555
O28 Si6 1.654794 1_555
O29 Si10 1.595279 1_555
O30 Si10 1.655366 1_555
O30 Si6 1.664115 1_555
O31 Si12 1.653848 1_555
O31 Si8 1.667530 1_555
O32 Si4 1.595279 1_555
O33 Si3 1.601247 1_555
O34 Si9 1.651646 1_555
O34 Si8 1.654794 1_555
O35 Si9 1.597976 1_555
O36 Si2 1.655366 1_555
O36 Si7 1.664115 1_455
O37 Si12 1.601247 1_555
O38 Si12 1.672268 1_555
O38 Si4 1.673198 1_555
O39 Si5 1.588240 1_555
