# generated using pymatgen
data_Si3As4
_symmetry_space_group_name_H-M   'P 1'
_cell_length_a   5.32896009
_cell_length_b   5.32896009
_cell_length_c   5.32889943
_cell_angle_alpha   90.00000000
_cell_angle_beta   90.00000000
_cell_angle_gamma   90.00000000
_symmetry_Int_Tables_number   1
_chemical_formula_structural   Si3As4
_chemical_formula_sum   'Si3 As4'
_cell_volume   151.32910358
_cell_formula_units_Z   1
loop_
 _symmetry_equiv_pos_site_id
 _symmetry_equiv_pos_as_xyz
  1  'x, y, z'
loop_
 _atom_site_type_symbol
 _atom_site_label
 _atom_site_symmetry_multiplicity
 _atom_site_fract_x
 _atom_site_fract_y
 _atom_site_fract_z
 _atom_site_occupancy
  Si  Si0  1  -0.00000000  0.00000000  0.00000000  1
  Si  Si1  1  0.50000000  0.00000000  0.50000000  1
  Si  Si2  1  -0.00000000  0.50000000  0.50000000  1
  As  As0  1  0.72377048  0.27622952  0.77620791  1
  As  As1  1  0.27622952  0.72377048  0.77620791  1
  As  As2  1  0.27622952  0.27622952  0.22379209  1
  As  As3  1  0.72377048  0.72377048  0.22379209  1
loop_
_geom_bond_atom_site_label_1
_geom_bond_atom_site_label_2
_geom_bond_distance
_geom_bond_site_symmetry_2
As0 Si2 2.399009 1_655
As0 Si1 2.399009 1_555
As0 Si0 2.399141 1_656
As1 Si2 2.399009 1_555
As1 Si1 2.399009 1_565
As1 Si0 2.399141 1_566
As2 Si1 2.399009 1_555
As2 Si2 2.399009 1_555
As2 Si0 2.399141 1_555
As3 Si2 2.399009 1_655
As3 Si1 2.399009 1_565
As3 Si0 2.399141 1_665
