# generated using pymatgen
data_ZrP2O7
_symmetry_space_group_name_H-M   'P 1'
_cell_length_a   5.43492285
_cell_length_b   6.78063489
_cell_length_c   8.46824943
_cell_angle_alpha   90.00000000
_cell_angle_beta   90.00000000
_cell_angle_gamma   90.00000000
_symmetry_Int_Tables_number   1
_chemical_formula_structural   ZrP2O7
_chemical_formula_sum   'Zr2 P4 O14'
_cell_volume   312.07385453
_cell_formula_units_Z   2
loop_
 _symmetry_equiv_pos_site_id
 _symmetry_equiv_pos_as_xyz
  1  'x, y, z'
loop_
 _atom_site_type_symbol
 _atom_site_label
 _atom_site_symmetry_multiplicity
 _atom_site_fract_x
 _atom_site_fract_y
 _atom_site_fract_z
 _atom_site_occupancy
  Zr  Zr0  1  -0.00000000  0.50000000  0.00000000  1
  Zr  Zr1  1  0.50000000  0.00000000  0.50000000  1
  P  P0  1  -0.00000000  0.31135699  0.39327822  1
  P  P1  1  0.50000000  0.81135699  0.10672178  1
  P  P2  1  0.50000000  0.18864301  0.89327822  1
  P  P3  1  -0.00000000  0.68864301  0.60672178  1
  O  O0  1  0.26949026  0.69823530  0.06700897  1
  O  O1  1  0.50000000  0.88111469  0.27553185  1
  O  O2  1  -0.00000000  0.38111469  0.22446815  1
  O  O3  1  0.23050974  0.19823530  0.43299103  1
  O  O4  1  -0.00000000  0.61888531  0.77553185  1
  O  O5  1  0.73050974  0.30176470  0.93299103  1
  O  O6  1  0.23050974  0.80176470  0.56700897  1
  O  O7  1  0.50000000  0.11888531  0.72446815  1
  O  O8  1  0.76949026  0.80176470  0.56700897  1
  O  O9  1  0.26949026  0.30176470  0.93299103  1
  O  O10  1  -0.00000000  0.50000000  0.50000000  1
  O  O11  1  0.76949026  0.19823530  0.43299103  1
  O  O12  1  0.73050974  0.69823530  0.06700897  1
  O  O13  1  0.50000000  0.00000000  0.00000000  1
loop_
_geom_bond_atom_site_label_1
_geom_bond_atom_site_label_2
_geom_bond_distance
_geom_bond_site_symmetry_2
O0 P1 1.506969 1_555
O0 Zr0 2.067364 1_555
O1 P1 1.505747 1_555
O1 Zr1 2.064719 1_565
O2 P0 1.505747 1_555
O2 Zr0 2.064719 1_555
O3 P0 1.506969 1_555
O3 Zr1 2.067364 1_555
O4 P3 1.505747 1_555
O4 Zr0 2.064719 1_556
O5 P2 1.506969 1_555
O5 Zr0 2.067364 1_656
O6 P3 1.506969 1_555
O6 Zr1 2.067364 1_565
O7 P2 1.505747 1_555
O7 Zr1 2.064719 1_555
O8 P3 1.506969 1_655
O8 Zr1 2.067364 1_565
O9 P2 1.506969 1_555
O9 Zr0 2.067364 1_556
O10 P0 1.566175 1_555
O10 P3 1.566175 1_555
O11 P0 1.506969 1_655
O11 Zr1 2.067364 1_555
O12 P1 1.506969 1_555
O12 Zr0 2.067364 1_655
O13 P1 1.566175 1_545
O13 P2 1.566175 1_554
