# generated using pymatgen
data_NaAlSiO4
_symmetry_space_group_name_H-M   'P 1'
_cell_length_a   5.14028806
_cell_length_b   10.22889757
_cell_length_c   13.92659557
_cell_angle_alpha   90.00000000
_cell_angle_beta   90.00000000
_cell_angle_gamma   90.00000000
_symmetry_Int_Tables_number   1
_chemical_formula_structural   NaAlSiO4
_chemical_formula_sum   'Na8 Al8 Si8 O32'
_cell_volume   732.25315388
_cell_formula_units_Z   8
loop_
 _symmetry_equiv_pos_site_id
 _symmetry_equiv_pos_as_xyz
  1  'x, y, z'
loop_
 _atom_site_type_symbol
 _atom_site_label
 _atom_site_symmetry_multiplicity
 _atom_site_fract_x
 _atom_site_fract_y
 _atom_site_fract_z
 _atom_site_occupancy
  Na  Na0  1  0.94795519  0.47494549  0.74737654  1
  Na  Na1  1  0.94795519  0.02505451  0.24737654  1
  Na  Na2  1  0.44544110  0.28607255  0.49929388  1
  Na  Na3  1  0.05204481  0.97494549  0.74737654  1
  Na  Na4  1  0.55455890  0.78607255  0.49929388  1
  Na  Na5  1  0.05204481  0.52505451  0.24737654  1
  Na  Na6  1  0.44544110  0.21392745  0.99929388  1
  Na  Na7  1  0.55455890  0.71392745  0.99929388  1
  Al  Al0  1  0.54772273  0.72019315  0.24957779  1
  Al  Al1  1  0.93694105  0.52788339  0.49760261  1
  Al  Al2  1  0.93694105  0.97211661  0.99760261  1
  Al  Al3  1  0.45227727  0.27980685  0.74957779  1
  Al  Al4  1  0.06305895  0.47211661  0.99760261  1
  Al  Al5  1  0.45227727  0.22019315  0.24957779  1
  Al  Al6  1  0.06305895  0.02788339  0.49760261  1
  Al  Al7  1  0.54772273  0.77980685  0.74957779  1
  Si  Si0  1  0.56226849  0.03127429  0.62412945  1
  Si  Si1  1  0.56226849  0.46872571  0.12412945  1
  Si  Si2  1  0.95318712  0.27816070  0.37256516  1
  Si  Si3  1  0.04681288  0.77816070  0.37256516  1
  Si  Si4  1  0.95318712  0.22183930  0.87256516  1
  Si  Si5  1  0.43773151  0.53127429  0.62412945  1
  Si  Si6  1  0.04681288  0.72183930  0.87256516  1
  Si  Si7  1  0.43773151  0.96872571  0.12412945  1
  O  O0  1  0.12359095  0.23701629  0.27942898  1
  O  O1  1  0.48127369  0.81597001  0.14883979  1
  O  O2  1  0.12359095  0.26298371  0.77942898  1
  O  O3  1  0.61929930  0.00755111  0.03330760  1
  O  O4  1  0.51068049  0.05720542  0.21715432  1
  O  O5  1  0.64755533  0.25542767  0.34907387  1
  O  O6  1  0.98866464  0.93015807  0.39818129  1
  O  O7  1  0.87640905  0.76298371  0.77942898  1
  O  O8  1  0.96020359  0.69163224  0.46446222  1
  O  O9  1  0.51068049  0.44279458  0.71715432  1
  O  O10  1  0.96020359  0.80836776  0.96446222  1
  O  O11  1  0.35244467  0.74457233  0.84907387  1
  O  O12  1  0.86091275  0.99790796  0.59600851  1
  O  O13  1  0.48931951  0.94279458  0.71715432  1
  O  O14  1  0.64755533  0.24457233  0.84907387  1
  O  O15  1  0.48931951  0.55720542  0.21715432  1
  O  O16  1  0.51872631  0.18402999  0.64883979  1
  O  O17  1  0.38070070  0.50755111  0.03330760  1
  O  O18  1  0.87640905  0.73701629  0.27942898  1
  O  O19  1  0.48127369  0.68402999  0.64883979  1
  O  O20  1  0.38070070  0.99244889  0.53330760  1
  O  O21  1  0.13908725  0.49790796  0.59600851  1
  O  O22  1  0.13908725  0.00209204  0.09600951  1
  O  O23  1  0.51872631  0.31597001  0.14883979  1
  O  O24  1  0.61929930  0.49244889  0.53330760  1
  O  O25  1  0.86091275  0.50209204  0.09600951  1
  O  O26  1  0.01133536  0.06984193  0.89818129  1
  O  O27  1  0.03979641  0.30836776  0.96446222  1
  O  O28  1  0.35244467  0.75542767  0.34907387  1
  O  O29  1  0.03979641  0.19163224  0.46446222  1
  O  O30  1  0.98866464  0.56984193  0.89818129  1
  O  O31  1  0.01133536  0.43015807  0.39818129  1
loop_
_geom_bond_atom_site_label_1
_geom_bond_atom_site_label_2
_geom_bond_distance
_geom_bond_site_symmetry_2
Na0 O9 2.310312 1_555
Na0 O30 2.323111 1_555
Na0 O21 2.337576 1_655
Na0 O2 2.390638 1_655
Na1 O4 2.310312 1_555
Na1 O6 2.323111 1_545
Na1 O22 2.337564 1_655
Na1 O0 2.390638 1_655
Na2 O24 2.340809 1_555
Na2 O29 2.348675 1_555
Na2 O5 2.356759 1_555
Na2 O16 2.359849 1_555
Na3 O13 2.310312 1_555
Na3 O26 2.323111 1_565
Na3 O12 2.337576 1_455
Na3 O7 2.390638 1_455
Na4 O20 2.340809 1_555
Na4 O8 2.348675 1_555
Na4 O28 2.356759 1_555
Na4 O19 2.359849 1_555
Na5 O15 2.310312 1_555
Na5 O31 2.323111 1_555
Na5 O25 2.337564 1_455
Na5 O18 2.390638 1_455
Na6 O3 2.340809 1_556
Na6 O27 2.348675 1_555
Na6 O14 2.356759 1_555
Na6 O23 2.359849 1_556
Na7 O17 2.340809 1_556
Na7 O10 2.348675 1_555
Na7 O11 2.356759 1_555
Na7 O1 2.359849 1_556
Al0 O1 1.744906 1_555
Al0 O18 1.748426 1_555
Al0 O28 1.748566 1_555
Al0 O15 1.753148 1_555
Al1 O8 1.741504 1_555
Al1 O24 1.744869 1_555
Al1 O21 1.746963 1_655
Al1 O31 1.750028 1_655
Al2 O10 1.741504 1_555
Al2 O3 1.744869 1_566
Al2 O22 1.746974 1_666
Al2 O26 1.750028 1_665
Al3 O16 1.744906 1_555
Al3 O2 1.748426 1_555
Al3 O14 1.748566 1_555
Al3 O9 1.753148 1_555
Al4 O27 1.741504 1_555
Al4 O17 1.744869 1_556
Al4 O25 1.746974 1_456
Al4 O30 1.750028 1_455
Al5 O23 1.744906 1_555
Al5 O0 1.748426 1_555
Al5 O5 1.748566 1_555
Al5 O4 1.753148 1_555
Al6 O29 1.741504 1_555
Al6 O20 1.744869 1_545
Al6 O12 1.746963 1_445
Al6 O6 1.750028 1_445
Al7 O19 1.744906 1_555
Al7 O7 1.748426 1_555
Al7 O11 1.748566 1_555
Al7 O13 1.753148 1_555
O0 Si2 1.620728 1_455
O1 Si7 1.615549 1_555
O2 Si4 1.620728 1_455
O3 Si7 1.621298 1_545
O4 Si7 1.624222 1_545
O5 Si2 1.621497 1_555
O6 Si3 1.622931 1_655
O7 Si6 1.620728 1_655
O8 Si3 1.618489 1_655
O9 Si5 1.624222 1_555
O10 Si6 1.618489 1_655
O11 Si6 1.621497 1_555
O12 Si0 1.620631 1_565
O13 Si0 1.624222 1_565
O14 Si4 1.621497 1_555
O15 Si1 1.624222 1_555
O16 Si0 1.615549 1_555
O17 Si1 1.621298 1_555
O18 Si3 1.620728 1_655
O19 Si5 1.615549 1_555
O20 Si0 1.621298 1_565
O21 Si5 1.620631 1_555
O22 Si7 1.620628 1_545
O23 Si1 1.615549 1_555
O24 Si5 1.621298 1_555
O25 Si1 1.620628 1_555
O26 Si4 1.622931 1_455
O27 Si4 1.618489 1_455
O28 Si3 1.621497 1_555
O29 Si2 1.618489 1_455
O30 Si6 1.622931 1_655
O31 Si2 1.622931 1_455
