# generated using pymatgen
data_Na2Ca3(Si3O8)2
_symmetry_space_group_name_H-M   'P 1'
_cell_length_a   7.30466900
_cell_length_b   10.28536132
_cell_length_c   10.79645275
_cell_angle_alpha   78.20375189
_cell_angle_beta   70.27006582
_cell_angle_gamma   80.91386045
_symmetry_Int_Tables_number   1
_chemical_formula_structural   Na2Ca3(Si3O8)2
_chemical_formula_sum   'Na4 Ca6 Si12 O32'
_cell_volume   743.91841709
_cell_formula_units_Z   2
loop_
 _symmetry_equiv_pos_site_id
 _symmetry_equiv_pos_as_xyz
  1  'x, y, z'
loop_
 _atom_site_type_symbol
 _atom_site_label
 _atom_site_symmetry_multiplicity
 _atom_site_fract_x
 _atom_site_fract_y
 _atom_site_fract_z
 _atom_site_occupancy
  Na  Na0  1  0.17721200  0.41884500  0.17547600  1
  Na  Na1  1  0.91762900  0.86538900  0.47952200  1
  Na  Na2  1  0.08237100  0.13461100  0.52047800  1
  Na  Na3  1  0.82278800  0.58115500  0.82452400  1
  Ca  Ca0  1  0.84510400  0.87518700  0.12012900  1
  Ca  Ca1  1  0.35147100  0.86557400  0.11200800  1
  Ca  Ca2  1  0.15489600  0.12481300  0.87987100  1
  Ca  Ca3  1  0.41894000  0.84988000  0.48462200  1
  Ca  Ca4  1  0.58106000  0.15012000  0.51537800  1
  Ca  Ca5  1  0.64852900  0.13442600  0.88799200  1
  Si  Si0  1  0.25378000  0.60126400  0.36063100  1
  Si  Si1  1  0.18555400  0.40199500  0.62686400  1
  Si  Si2  1  0.35162500  0.41636000  0.84992200  1
  Si  Si3  1  0.45013200  0.12659000  0.23130600  1
  Si  Si4  1  0.77344200  0.31278900  0.07610100  1
  Si  Si5  1  0.81444600  0.59800500  0.37313600  1
  Si  Si6  1  0.64837500  0.58364000  0.15007800  1
  Si  Si7  1  0.98133200  0.86732200  0.76880900  1
  Si  Si8  1  0.74622000  0.39873600  0.63936900  1
  Si  Si9  1  0.54986800  0.87341000  0.76869400  1
  Si  Si10  1  0.01866800  0.13267800  0.23119100  1
  Si  Si11  1  0.22655800  0.68721100  0.92389900  1
  O  O0  1  0.29437600  0.50136700  0.49019600  1
  O  O1  1  0.55962000  0.26598700  0.17522400  1
  O  O2  1  0.74362400  0.75477600  0.37128900  1
  O  O3  1  0.06563700  0.02360000  0.13069600  1
  O  O4  1  0.25799900  0.75789400  0.35915100  1
  O  O5  1  0.70562400  0.49863300  0.50980400  1
  O  O6  1  0.11215300  0.91258300  0.61688100  1
  O  O7  1  0.44038000  0.73401300  0.82477600  1
  O  O8  1  0.22207500  0.18215200  0.23712100  1
  O  O9  1  0.25637600  0.24522400  0.62871100  1
  O  O10  1  0.57996500  0.45097600  0.77140500  1
  O  O11  1  0.93436300  0.97640000  0.86930400  1
  O  O12  1  0.26046300  0.52175000  0.95804700  1
  O  O13  1  0.42003500  0.54902400  0.22859500  1
  O  O14  1  0.07413500  0.72216300  0.83636600  1
  O  O15  1  0.88784700  0.08741700  0.38311900  1
  O  O16  1  0.74200100  0.24210600  0.64084900  1
  O  O17  1  0.65321400  0.73693900  0.08195600  1
  O  O18  1  0.45145300  0.97807900  0.87353200  1
  O  O19  1  0.05120200  0.56081000  0.34882000  1
  O  O20  1  0.73953700  0.47825000  0.04195300  1
  O  O21  1  0.77792500  0.81784800  0.76287900  1
  O  O22  1  0.85265000  0.24886100  0.94204300  1
  O  O23  1  0.34678600  0.26306100  0.91804400  1
  O  O24  1  0.55462800  0.93298300  0.61714900  1
  O  O25  1  0.14735000  0.75113900  0.05795700  1
  O  O26  1  0.78062100  0.54214000  0.25122900  1
  O  O27  1  0.21937900  0.45786000  0.74877100  1
  O  O28  1  0.92586500  0.27783700  0.16363400  1
  O  O29  1  0.44537200  0.06701700  0.38285100  1
  O  O30  1  0.94879800  0.43919000  0.65118000  1
  O  O31  1  0.54854700  0.02192100  0.12646800  1
loop_
_geom_bond_atom_site_label_1
_geom_bond_atom_site_label_2
_geom_bond_distance
_geom_bond_site_symmetry_2
Na0 O12 2.285656 1_554
Na0 O8 2.389524 1_555
Na0 O19 2.451847 1_555
Na0 O28 2.562421 1_455
Na0 O13 2.649278 1_555
Na0 O26 2.886784 1_455
Na0 O1 2.980645 1_555
Na1 O15 2.317279 1_565
Na1 O2 2.505688 1_555
Na1 O6 2.527616 1_655
Na1 O4 2.575003 1_655
Na1 O24 2.627194 1_555
Na1 O21 2.842120 1_555
Na2 O6 2.317279 1_545
Na2 O9 2.505688 1_555
Na2 O15 2.527616 1_455
Na2 O16 2.575003 1_455
Na2 O29 2.627194 1_555
Na2 O8 2.842120 1_555
Na3 O20 2.285656 1_556
Na3 O21 2.389524 1_555
Na3 O30 2.451847 1_555
Na3 O14 2.562421 1_655
Na3 O10 2.649278 1_555
Na3 O27 2.886784 1_655
Na3 O7 2.980645 1_555
Ca0 O25 2.326527 1_655
Ca0 O17 2.327150 1_555
Ca0 O31 2.425819 1_565
Ca0 O3 2.431085 1_665
Ca0 O11 2.590719 1_554
Ca0 O2 2.644996 1_555
Ca1 O25 2.317684 1_555
Ca1 O17 2.342131 1_555
Ca1 O31 2.380803 1_565
Ca1 O3 2.412411 1_565
Ca1 O18 2.506121 1_554
Ca1 O4 2.571569 1_555
Ca2 O22 2.326527 1_455
Ca2 O23 2.327150 1_555
Ca2 O18 2.425819 1_545
Ca2 O11 2.431085 1_445
Ca2 O3 2.590719 1_556
Ca2 O9 2.644996 1_555
Ca3 O29 2.285165 1_565
Ca3 O6 2.288321 1_555
Ca3 O24 2.342082 1_555
Ca3 O2 2.424107 1_555
Ca3 O4 2.462279 1_555
Ca4 O24 2.285165 1_545
Ca4 O15 2.288321 1_555
Ca4 O29 2.342082 1_555
Ca4 O9 2.424107 1_555
Ca4 O16 2.462279 1_555
Ca5 O22 2.317684 1_555
Ca5 O23 2.342131 1_555
Ca5 O18 2.380803 1_545
Ca5 O11 2.412411 1_545
Ca5 O31 2.506121 1_556
Ca5 O16 2.571569 1_555
O0 Si0 1.642130 1_555
O0 Si1 1.643711 1_555
O1 Si4 1.647667 1_555
O1 Si3 1.655945 1_555
O2 Si5 1.611946 1_555
O3 Si10 1.636574 1_555
O4 Si0 1.612866 1_555
O5 Si8 1.642130 1_555
O5 Si5 1.643711 1_555
O6 Si7 1.609475 1_455
O7 Si11 1.647667 1_555
O7 Si9 1.655945 1_555
O8 Si3 1.658029 1_555
O8 Si10 1.669444 1_555
O9 Si1 1.611946 1_555
O10 Si8 1.653443 1_555
O10 Si2 1.654367 1_555
O11 Si7 1.636574 1_555
O12 Si2 1.657021 1_555
O12 Si11 1.662970 1_555
O13 Si0 1.653443 1_555
O13 Si6 1.654367 1_555
O14 Si11 1.645330 1_555
O14 Si7 1.670195 1_455
O15 Si10 1.609475 1_655
O16 Si8 1.612866 1_555
O17 Si6 1.598180 1_555
O18 Si9 1.631356 1_555
O19 Si0 1.650046 1_555
O19 Si5 1.652798 1_455
O20 Si6 1.657021 1_555
O20 Si4 1.662970 1_555
O21 Si9 1.658029 1_555
O21 Si7 1.669444 1_555
O22 Si4 1.601707 1_556
O23 Si2 1.598180 1_555
O24 Si9 1.616185 1_555
O25 Si11 1.601707 1_554
O26 Si5 1.642285 1_555
O26 Si6 1.643002 1_555
O27 Si1 1.642285 1_555
O27 Si2 1.643002 1_555
O28 Si4 1.645330 1_555
O28 Si10 1.670195 1_655
O29 Si3 1.616185 1_555
O30 Si8 1.650046 1_555
O30 Si1 1.652798 1_655
O31 Si3 1.631356 1_555
