# generated using pymatgen
data_Nd4Te3N2
_symmetry_space_group_name_H-M   'P 1'
_cell_length_a   7.41384377
_cell_length_b   11.41294275
_cell_length_c   11.79579670
_cell_angle_alpha   90.00000000
_cell_angle_beta   90.00000000
_cell_angle_gamma   90.00000000
_symmetry_Int_Tables_number   1
_chemical_formula_structural   Nd4Te3N2
_chemical_formula_sum   'Nd16 Te12 N8'
_cell_volume   998.08688207
_cell_formula_units_Z   4
loop_
 _symmetry_equiv_pos_site_id
 _symmetry_equiv_pos_as_xyz
  1  'x, y, z'
loop_
 _atom_site_type_symbol
 _atom_site_label
 _atom_site_symmetry_multiplicity
 _atom_site_fract_x
 _atom_site_fract_y
 _atom_site_fract_z
 _atom_site_occupancy
  Nd  Nd0  1  0.14610411  0.39054664  0.95147803  1
  Nd  Nd1  1  0.40808881  0.15750207  0.25000000  1
  Nd  Nd2  1  0.35389589  0.89054664  0.04852197  1
  Nd  Nd3  1  0.73142477  0.46800987  0.75000000  1
  Nd  Nd4  1  0.85389589  0.60945336  0.45147803  1
  Nd  Nd5  1  0.76857523  0.96800987  0.25000000  1
  Nd  Nd6  1  0.26857523  0.53199013  0.25000000  1
  Nd  Nd7  1  0.14610411  0.39054664  0.54852197  1
  Nd  Nd8  1  0.35389589  0.89054664  0.45147803  1
  Nd  Nd9  1  0.09191119  0.65750207  0.75000000  1
  Nd  Nd10  1  0.90808881  0.34249793  0.25000000  1
  Nd  Nd11  1  0.23142477  0.03199013  0.75000000  1
  Nd  Nd12  1  0.64610411  0.10945336  0.54852197  1
  Nd  Nd13  1  0.59191119  0.84249793  0.75000000  1
  Nd  Nd14  1  0.85389589  0.60945336  0.04852197  1
  Nd  Nd15  1  0.64610411  0.10945336  0.95147803  1
  Te  Te0  1  0.06403680  0.13677080  0.07999874  1
  Te  Te1  1  0.08438398  0.77630421  0.25000000  1
  Te  Te2  1  0.56403680  0.36322920  0.07999874  1
  Te  Te3  1  0.58438398  0.72369579  0.25000000  1
  Te  Te4  1  0.93596320  0.86322920  0.92000126  1
  Te  Te5  1  0.43596320  0.63677080  0.92000126  1
  Te  Te6  1  0.91561602  0.22369579  0.75000000  1
  Te  Te7  1  0.93596320  0.86322920  0.57999874  1
  Te  Te8  1  0.06403680  0.13677080  0.42000126  1
  Te  Te9  1  0.43596320  0.63677080  0.57999874  1
  Te  Te10  1  0.56403680  0.36322920  0.42000126  1
  Te  Te11  1  0.41561602  0.27630421  0.75000000  1
  N  N0  1  0.44769203  0.96835927  0.62204553  1
  N  N1  1  0.55230797  0.03164073  0.12204553  1
  N  N2  1  0.94769203  0.53164073  0.62204553  1
  N  N3  1  0.05230797  0.46835927  0.37795447  1
  N  N4  1  0.94769203  0.53164073  0.87795447  1
  N  N5  1  0.05230797  0.46835927  0.12204553  1
  N  N6  1  0.55230797  0.03164073  0.37795447  1
  N  N7  1  0.44769203  0.96835927  0.87795447  1
loop_
_geom_bond_atom_site_label_1
_geom_bond_atom_site_label_2
_geom_bond_distance
_geom_bond_site_symmetry_2
Nd0 Te0 3.325234 1_556
Nd0 Te11 3.367593 1_555
Nd0 Te2 3.463538 1_556
Nd0 Te6 3.492049 1_455
Nd0 Te5 3.557082 1_555
Nd1 Te0 3.253233 1_555
Nd1 Te8 3.253233 1_555
Nd1 Te2 3.297097 1_555
Nd1 Te10 3.297097 1_555
Nd2 Te5 3.325234 1_554
Nd2 Te1 3.367593 1_555
Nd2 Te4 3.463538 1_454
Nd2 Te3 3.492049 1_555
Nd2 Te0 3.557082 1_565
Nd3 Te6 3.104774 1_555
Nd3 Te11 3.204523 1_555
Nd3 Te5 3.539668 1_555
Nd3 Te9 3.539668 1_555
Nd4 Te7 3.325234 1_555
Nd4 Te3 3.367593 1_555
Nd4 Te9 3.463538 1_555
Nd4 Te1 3.492049 1_655
Nd4 Te10 3.557082 1_555
Nd5 Te3 3.104774 1_555
Nd5 Te1 3.204523 1_655
Nd5 Te8 3.539668 1_665
Nd5 Te0 3.539668 1_665
Nd6 Te1 3.104774 1_555
Nd6 Te3 3.204523 1_555
Nd6 Te2 3.539668 1_555
Nd6 Te10 3.539668 1_555
Nd7 Te8 3.325234 1_555
Nd7 Te11 3.367593 1_555
Nd7 Te10 3.463538 1_555
Nd7 Te6 3.492049 1_455
Nd7 Te9 3.557082 1_555
Nd8 Te9 3.325234 1_555
Nd8 Te1 3.367593 1_555
Nd8 Te7 3.463538 1_455
Nd8 Te3 3.492049 1_555
Nd8 Te8 3.557082 1_565
Nd9 Te5 3.253233 1_555
Nd9 Te9 3.253233 1_555
Nd9 Te4 3.297097 1_455
Nd9 Te7 3.297097 1_455
Nd10 Te2 3.253233 1_555
Nd10 Te10 3.253233 1_555
Nd10 Te8 3.297097 1_655
Nd10 Te0 3.297097 1_655
Nd11 Te11 3.104774 1_555
Nd11 Te6 3.204523 1_455
Nd11 Te4 3.539668 1_445
Nd11 Te7 3.539668 1_445
Nd12 Te10 3.325234 1_555
Nd12 Te6 3.367593 1_555
Nd12 Te8 3.463538 1_655
Nd12 Te11 3.492049 1_555
Nd12 Te7 3.557082 1_545
Nd13 Te7 3.253233 1_555
Nd13 Te4 3.253233 1_555
Nd13 Te9 3.297097 1_555
Nd13 Te5 3.297097 1_555
Nd14 Te4 3.325234 1_554
Nd14 Te3 3.367593 1_555
Nd14 Te5 3.463538 1_554
Nd14 Te1 3.492049 1_655
Nd14 Te2 3.557082 1_555
Nd15 Te2 3.325234 1_556
Nd15 Te6 3.367593 1_555
Nd15 Te0 3.463538 1_656
Nd15 Te11 3.492049 1_555
Nd15 Te4 3.557082 1_545
N0 Nd8 2.306577 1_555
N0 Nd11 2.318674 1_565
N0 Nd13 2.341938 1_555
N0 Nd12 2.347136 1_565
N1 Nd15 2.306577 1_554
N1 Nd5 2.318674 1_545
N1 Nd1 2.341938 1_555
N1 Nd2 2.347136 1_545
N2 Nd4 2.306577 1_555
N2 Nd3 2.318674 1_555
N2 Nd9 2.341938 1_655
N2 Nd7 2.347136 1_655
N3 Nd7 2.306577 1_555
N3 Nd6 2.318674 1_555
N3 Nd10 2.341938 1_455
N3 Nd4 2.347136 1_455
N4 Nd14 2.306577 1_556
N4 Nd3 2.318674 1_555
N4 Nd9 2.341938 1_655
N4 Nd0 2.347136 1_655
N5 Nd0 2.306577 1_554
N5 Nd6 2.318674 1_555
N5 Nd10 2.341938 1_455
N5 Nd14 2.347136 1_455
N6 Nd12 2.306577 1_555
N6 Nd5 2.318674 1_545
N6 Nd1 2.341938 1_555
N6 Nd8 2.347136 1_545
N7 Nd2 2.306577 1_556
N7 Nd11 2.318674 1_565
N7 Nd13 2.341938 1_555
N7 Nd15 2.347136 1_565
