# generated using pymatgen
data_FeS3(NCl2)2
_symmetry_space_group_name_H-M   'P 1'
_cell_length_a   11.83525600
_cell_length_b   12.66152600
_cell_length_c   14.41256300
_cell_angle_alpha   77.96109588
_cell_angle_beta   90.00000000
_cell_angle_gamma   90.00000000
_symmetry_Int_Tables_number   1
_chemical_formula_structural   FeS3(NCl2)2
_chemical_formula_sum   'Fe8 S24 N16 Cl32'
_cell_volume   2112.25591498
_cell_formula_units_Z   8
loop_
 _symmetry_equiv_pos_site_id
 _symmetry_equiv_pos_as_xyz
  1  'x, y, z'
loop_
 _atom_site_type_symbol
 _atom_site_label
 _atom_site_symmetry_multiplicity
 _atom_site_fract_x
 _atom_site_fract_y
 _atom_site_fract_z
 _atom_site_occupancy
  Fe  Fe0  1  0.64731400  0.03329600  0.26461200  1
  Fe  Fe1  1  0.19711400  0.55398300  0.23236000  1
  Fe  Fe2  1  0.80288600  0.44601700  0.76764000  1
  Fe  Fe3  1  0.69711400  0.44601700  0.26764000  1
  Fe  Fe4  1  0.14731400  0.96670400  0.23538800  1
  Fe  Fe5  1  0.85268600  0.03329600  0.76461200  1
  Fe  Fe6  1  0.30288600  0.55398300  0.73236000  1
  Fe  Fe7  1  0.35268600  0.96670400  0.73538800  1
  S  S0  1  0.46936300  0.73808500  0.07045800  1
  S  S1  1  0.53063700  0.26191500  0.92954200  1
  S  S2  1  0.01879400  0.77115300  0.94862200  1
  S  S3  1  0.85673100  0.87009900  0.48308000  1
  S  S4  1  0.87337000  0.71524500  0.43322800  1
  S  S5  1  0.84236900  0.63988900  0.03193500  1
  S  S6  1  0.35673100  0.12990100  0.01692000  1
  S  S7  1  0.96936300  0.26191500  0.42954200  1
  S  S8  1  0.14395900  0.20334000  0.91945900  1
  S  S9  1  0.85604100  0.79666000  0.08054100  1
  S  S10  1  0.35604100  0.20334000  0.41945900  1
  S  S11  1  0.98120600  0.22884700  0.05137800  1
  S  S12  1  0.37337000  0.28475500  0.06677200  1
  S  S13  1  0.03063700  0.73808500  0.57045800  1
  S  S14  1  0.65763100  0.63988900  0.53193500  1
  S  S15  1  0.15763100  0.36011100  0.96806500  1
  S  S16  1  0.64395900  0.79666000  0.58054100  1
  S  S17  1  0.62663000  0.71524500  0.93322900  1
  S  S18  1  0.64326900  0.87009900  0.98308000  1
  S  S19  1  0.14326900  0.12990100  0.51692000  1
  S  S20  1  0.34236900  0.36011100  0.46806500  1
  S  S21  1  0.51879400  0.22884700  0.55137800  1
  S  S22  1  0.48120600  0.77115300  0.44862200  1
  S  S23  1  0.12663000  0.28475500  0.56677100  1
  N  N0  1  0.94977900  0.66190600  0.96354400  1
  N  N1  1  0.03986000  0.15334800  0.44374600  1
  N  N2  1  0.02012000  0.32808500  0.50150500  1
  N  N3  1  0.46368100  0.16054400  0.48258200  1
  N  N4  1  0.46014000  0.15334800  0.94374600  1
  N  N5  1  0.55022100  0.66190600  0.46354400  1
  N  N6  1  0.52012000  0.67191500  0.99849500  1
  N  N7  1  0.05022100  0.33809400  0.03645600  1
  N  N8  1  0.44977900  0.33809400  0.53645600  1
  N  N9  1  0.47988000  0.32808500  0.00150500  1
  N  N10  1  0.97988000  0.67191500  0.49849500  1
  N  N11  1  0.53986000  0.84665200  0.05625400  1
  N  N12  1  0.53631900  0.83945600  0.51741800  1
  N  N13  1  0.96368100  0.83945600  0.01741800  1
  N  N14  1  0.03631900  0.16054400  0.98258200  1
  N  N15  1  0.96014000  0.84665200  0.55625400  1
  Cl  Cl0  1  0.19731800  0.14243700  0.18835800  1
  Cl  Cl1  1  0.03734800  0.03381800  0.77722300  1
  Cl  Cl2  1  0.77402500  0.12098800  0.86325000  1
  Cl  Cl3  1  0.68604500  0.62359000  0.20043600  1
  Cl  Cl4  1  0.83399400  0.37720900  0.19688200  1
  Cl  Cl5  1  0.81395500  0.62359000  0.70043600  1
  Cl  Cl6  1  0.23771000  0.56826300  0.08034100  1
  Cl  Cl7  1  0.16600600  0.62279100  0.80311800  1
  Cl  Cl8  1  0.53278500  0.37272400  0.25034900  1
  Cl  Cl9  1  0.80551100  0.09359900  0.61537700  1
  Cl  Cl10  1  0.30551100  0.90640100  0.88462300  1
  Cl  Cl11  1  0.46721500  0.62727600  0.74965100  1
  Cl  Cl12  1  0.19448900  0.90640100  0.38462300  1
  Cl  Cl13  1  0.30268200  0.14243700  0.68835800  1
  Cl  Cl14  1  0.72597500  0.12098800  0.36325000  1
  Cl  Cl15  1  0.46265200  0.03381800  0.27722300  1
  Cl  Cl16  1  0.73771000  0.43173700  0.41965900  1
  Cl  Cl17  1  0.66600600  0.37720900  0.69688200  1
  Cl  Cl18  1  0.76229000  0.43173700  0.91965900  1
  Cl  Cl19  1  0.69448900  0.09359900  0.11537700  1
  Cl  Cl20  1  0.22597500  0.87901200  0.13675000  1
  Cl  Cl21  1  0.26229000  0.56826300  0.58034100  1
  Cl  Cl22  1  0.53734800  0.96618200  0.72277700  1
  Cl  Cl23  1  0.96265200  0.96618200  0.22277700  1
  Cl  Cl24  1  0.33399400  0.62279100  0.30311800  1
  Cl  Cl25  1  0.31395500  0.37641000  0.79956400  1
  Cl  Cl26  1  0.96721500  0.37272400  0.75034900  1
  Cl  Cl27  1  0.69731800  0.85756300  0.31164200  1
  Cl  Cl28  1  0.18604500  0.37641000  0.29956400  1
  Cl  Cl29  1  0.80268200  0.85756300  0.81164200  1
  Cl  Cl30  1  0.03278500  0.62727600  0.24965100  1
  Cl  Cl31  1  0.27402500  0.87901200  0.63675000  1
loop_
_geom_bond_atom_site_label_1
_geom_bond_atom_site_label_2
_geom_bond_distance
_geom_bond_site_symmetry_2
N0 S2 1.581983 1_655
N0 S5 1.597086 1_556
N1 S7 1.584377 1_455
N1 S19 1.602381 1_555
N2 S7 1.581458 1_455
N2 S23 1.599868 1_555
N3 S21 1.585625 1_555
N3 S10 1.593294 1_555
N4 S1 1.584377 1_555
N4 S6 1.602381 1_556
N5 S22 1.581983 1_555
N5 S14 1.597086 1_555
N6 S0 1.581458 1_556
N6 S17 1.599868 1_555
N7 S11 1.581983 1_455
N7 S15 1.597086 1_554
N8 S21 1.581983 1_555
N8 S20 1.597086 1_555
N9 S1 1.581458 1_554
N9 S12 1.599876 1_555
N10 S13 1.581458 1_655
N10 S4 1.599876 1_555
N11 S0 1.584377 1_555
N11 S18 1.602381 1_554
N12 S22 1.585625 1_555
N12 S16 1.593294 1_555
N13 S2 1.585625 1_654
N13 S9 1.593294 1_555
N14 S11 1.585625 1_456
N14 S8 1.593294 1_555
N15 S13 1.584377 1_655
N15 S3 1.602381 1_555
Cl0 Fe4 2.265255 1_545
Cl1 Fe5 2.193191 1_455
Cl2 Fe5 2.186089 1_555
Cl3 Fe3 2.258746 1_555
Cl4 Fe3 2.189537 1_555
Cl5 Fe2 2.258746 1_555
Cl6 Fe1 2.213299 1_555
Cl7 Fe6 2.189537 1_555
Cl8 Fe3 2.191416 1_555
Cl9 Fe5 2.199053 1_555
Cl10 Fe7 2.199053 1_555
Cl11 Fe6 2.191416 1_555
Cl12 Fe4 2.199053 1_555
Cl13 Fe7 2.265255 1_545
Cl14 Fe0 2.186089 1_555
Cl15 Fe0 2.193191 1_555
Cl16 Fe3 2.213299 1_555
Cl17 Fe2 2.189537 1_555
Cl18 Fe2 2.213299 1_555
Cl19 Fe0 2.199053 1_555
Cl20 Fe4 2.186089 1_555
Cl21 Fe6 2.213299 1_555
Cl22 Fe7 2.193191 1_555
Cl23 Fe4 2.193191 1_655
Cl24 Fe1 2.189537 1_555
Cl25 Fe6 2.258746 1_555
Cl26 Fe2 2.191416 1_555
Cl27 Fe0 2.265255 1_565
Cl28 Fe1 2.258746 1_555
Cl29 Fe5 2.265255 1_565
Cl30 Fe1 2.191416 1_555
Cl31 Fe7 2.186089 1_555
