# generated using pymatgen
data_Ce4MnSe6O
_symmetry_space_group_name_H-M   'P 1'
_cell_length_a   9.66467246
_cell_length_b   9.66467246
_cell_length_c   7.06774000
_cell_angle_alpha   90.00000000
_cell_angle_beta   90.00000000
_cell_angle_gamma   120.00000313
_symmetry_Int_Tables_number   1
_chemical_formula_structural   Ce4MnSe6O
_chemical_formula_sum   'Ce8 Mn2 Se12 O2'
_cell_volume   571.72273544
_cell_formula_units_Z   2
loop_
 _symmetry_equiv_pos_site_id
 _symmetry_equiv_pos_as_xyz
  1  'x, y, z'
loop_
 _atom_site_type_symbol
 _atom_site_label
 _atom_site_symmetry_multiplicity
 _atom_site_fract_x
 _atom_site_fract_y
 _atom_site_fract_z
 _atom_site_occupancy
  Ce  Ce0  1  0.66666700  0.33333300  0.70993400  1
  Ce  Ce1  1  0.59663400  0.79831700  0.65899600  1
  Ce  Ce2  1  0.79831700  0.20168300  0.15899600  1
  Ce  Ce3  1  0.40336600  0.20168300  0.15899600  1
  Ce  Ce4  1  0.79831700  0.59663400  0.15899600  1
  Ce  Ce5  1  0.33333300  0.66666700  0.20993400  1
  Ce  Ce6  1  0.20168300  0.40336600  0.65899600  1
  Ce  Ce7  1  0.20168300  0.79831700  0.65899600  1
  Mn  Mn0  1  0.00000000  0.00000000  0.99589900  1
  Mn  Mn1  1  0.00000000  0.00000000  0.49589900  1
  Se  Se0  1  0.12770900  0.87229100  0.26167500  1
  Se  Se1  1  0.12770900  0.25541700  0.26167500  1
  Se  Se2  1  0.87229100  0.12770900  0.76167500  1
  Se  Se3  1  0.52951700  0.47048300  0.44537200  1
  Se  Se4  1  0.05903400  0.52951700  0.94537200  1
  Se  Se5  1  0.25541700  0.12770900  0.76167500  1
  Se  Se6  1  0.47048300  0.52951700  0.94537200  1
  Se  Se7  1  0.47048300  0.94096600  0.94537200  1
  Se  Se8  1  0.74458300  0.87229100  0.26167500  1
  Se  Se9  1  0.87229100  0.74458300  0.76167500  1
  Se  Se10  1  0.94096600  0.47048300  0.44537200  1
  Se  Se11  1  0.52951700  0.05903400  0.44537200  1
  O  O0  1  0.66666700  0.33333300  0.04870200  1
  O  O1  1  0.33333300  0.66666700  0.54870200  1
loop_
_geom_bond_atom_site_label_1
_geom_bond_atom_site_label_2
_geom_bond_distance
_geom_bond_site_symmetry_2
Ce0 O0 2.394324 1_556
Ce0 Se10 2.960954 1_555
Ce0 Se11 2.960954 1_555
Ce0 Se3 2.960961 1_555
Ce0 Se2 3.461456 1_555
Ce0 Se5 3.461473 1_555
Ce0 Se9 3.461473 1_555
Ce0 Se4 3.681569 1_655
Ce0 Se7 3.681569 1_545
Ce0 Se6 3.681577 1_555
Ce1 O1 2.337597 1_555
Ce1 Se6 3.027331 1_555
Ce1 Se7 3.027331 1_555
Ce1 Se9 3.045899 1_555
Ce1 Se2 3.045905 1_565
Ce1 Se8 3.069069 1_555
Ce1 Se3 3.268632 1_555
Ce1 Se11 3.268632 1_565
Ce2 O0 2.337589 1_555
Ce2 Se10 3.027331 1_555
Ce2 Se11 3.027331 1_555
Ce2 Se8 3.045909 1_545
Ce2 Se1 3.045909 1_655
Ce2 Se2 3.069066 1_554
Ce2 Se4 3.268632 1_654
Ce2 Se7 3.268632 1_544
Ce3 O0 2.337597 1_555
Ce3 Se3 3.027331 1_555
Ce3 Se11 3.027331 1_555
Ce3 Se1 3.045899 1_555
Ce3 Se0 3.045905 1_545
Ce3 Se5 3.069069 1_554
Ce3 Se6 3.268632 1_554
Ce3 Se7 3.268632 1_544
Ce4 O0 2.337597 1_555
Ce4 Se3 3.027331 1_555
Ce4 Se10 3.027331 1_555
Ce4 Se8 3.045899 1_555
Ce4 Se0 3.045905 1_655
Ce4 Se9 3.069069 1_554
Ce4 Se6 3.268632 1_554
Ce4 Se4 3.268632 1_654
Ce5 O1 2.394324 1_555
Ce5 Se7 2.960954 1_554
Ce5 Se4 2.960954 1_554
Ce5 Se6 2.960961 1_554
Ce5 Se0 3.461456 1_555
Ce5 Se8 3.461473 1_555
Ce5 Se1 3.461473 1_555
Ce5 Se10 3.681569 1_455
Ce5 Se11 3.681569 1_565
Ce5 Se3 3.681577 1_555
Ce6 O1 2.337597 1_555
Ce6 Se6 3.027331 1_555
Ce6 Se4 3.027331 1_555
Ce6 Se5 3.045899 1_555
Ce6 Se2 3.045905 1_455
Ce6 Se1 3.069069 1_555
Ce6 Se3 3.268632 1_555
Ce6 Se10 3.268632 1_455
Ce7 O1 2.337589 1_555
Ce7 Se7 3.027331 1_555
Ce7 Se4 3.027331 1_555
Ce7 Se9 3.045909 1_455
Ce7 Se5 3.045909 1_565
Ce7 Se0 3.069066 1_555
Ce7 Se10 3.268632 1_455
Ce7 Se11 3.268632 1_565
Mn0 Se5 2.703824 1_555
Mn0 Se9 2.703824 1_445
Mn0 Se2 2.703830 1_455
Mn0 Se8 2.845825 1_446
Mn0 Se1 2.845825 1_556
Mn0 Se0 2.845831 1_546
Mn1 Se8 2.703824 1_445
Mn1 Se1 2.703824 1_555
Mn1 Se0 2.703830 1_545
Mn1 Se9 2.845825 1_445
Mn1 Se5 2.845825 1_555
Mn1 Se2 2.845831 1_455
