# generated using pymatgen
data_SrTaNO2
_symmetry_space_group_name_H-M   'P 1'
_cell_length_a   5.75652955
_cell_length_b   5.75652955
_cell_length_c   5.75652955
_cell_angle_alpha   120.91775496
_cell_angle_beta   120.91775496
_cell_angle_gamma   88.41761868
_symmetry_Int_Tables_number   1
_chemical_formula_structural   SrTaNO2
_chemical_formula_sum   'Sr2 Ta2 N2 O4'
_cell_volume   132.95995521
_cell_formula_units_Z   2
loop_
 _symmetry_equiv_pos_site_id
 _symmetry_equiv_pos_as_xyz
  1  'x, y, z'
loop_
 _atom_site_type_symbol
 _atom_site_label
 _atom_site_symmetry_multiplicity
 _atom_site_fract_x
 _atom_site_fract_y
 _atom_site_fract_z
 _atom_site_occupancy
  Sr  Sr0  1  0.75000000  0.25000000  0.50000000  1
  Sr  Sr1  1  0.25000000  0.75000000  0.50000000  1
  Ta  Ta0  1  0.50000000  0.50000000  0.00000000  1
  Ta  Ta1  1  0.00000000  0.00000000  0.00000000  1
  N  N0  1  0.75000000  0.75000000  0.00000000  1
  N  N1  1  0.25000000  0.25000000  0.00000000  1
  O  O0  1  0.79457200  0.29457200  0.08914500  1
  O  O1  1  0.29457200  0.20542800  0.50000000  1
  O  O2  1  0.20542800  0.70542800  0.91085500  1
  O  O3  1  0.70542800  0.79457200  0.50000000  1
loop_
_geom_bond_atom_site_label_1
_geom_bond_atom_site_label_2
_geom_bond_distance
_geom_bond_site_symmetry_2
N0 Ta1 2.063150 1_665
N0 Ta0 2.063150 1_555
N0 Sr0 2.838246 1_554
N0 Sr1 2.838246 1_554
N0 Sr1 2.838246 1_655
N0 Sr0 2.838246 1_565
N1 Ta0 2.063150 1_555
N1 Ta1 2.063150 1_555
N1 Sr1 2.838246 1_544
N1 Sr0 2.838246 1_454
N1 Sr0 2.838246 1_555
N1 Sr1 2.838246 1_555
O0 Ta0 2.038591 1_555
O0 Ta1 2.038591 1_655
O0 Sr0 2.641247 1_555
O0 Sr1 2.641253 1_655
O0 Sr1 3.138258 1_544
O0 Sr0 3.138264 1_554
O1 Ta0 2.038590 1_556
O1 Ta1 2.038590 1_555
O1 Sr0 2.641253 1_555
O1 Sr1 2.641253 1_545
O1 Sr1 3.138258 1_555
O1 Sr0 3.138258 1_455
O2 Ta0 2.038591 1_556
O2 Ta1 2.038591 1_566
O2 Sr1 2.641247 1_555
O2 Sr0 2.641253 1_455
O2 Sr0 3.138258 1_566
O2 Sr1 3.138264 1_556
O3 Ta1 2.038590 1_666
O3 Ta0 2.038590 1_555
O3 Sr1 2.641253 1_555
O3 Sr0 2.641253 1_565
O3 Sr0 3.138258 1_555
O3 Sr1 3.138258 1_655
