# generated using pymatgen
data_K2Sm2As2Se9
_symmetry_space_group_name_H-M   'P 1'
_cell_length_a   8.54222300
_cell_length_b   17.65439900
_cell_length_c   22.94636600
_cell_angle_alpha   90.00000000
_cell_angle_beta   90.00000000
_cell_angle_gamma   90.00000000
_symmetry_Int_Tables_number   1
_chemical_formula_structural   K2Sm2As2Se9
_chemical_formula_sum   'K16 Sm16 As16 Se72'
_cell_volume   3460.49127709
_cell_formula_units_Z   8
loop_
 _symmetry_equiv_pos_site_id
 _symmetry_equiv_pos_as_xyz
  1  'x, y, z'
loop_
 _atom_site_type_symbol
 _atom_site_label
 _atom_site_symmetry_multiplicity
 _atom_site_fract_x
 _atom_site_fract_y
 _atom_site_fract_z
 _atom_site_occupancy
  K  K0  1  0.50000000  0.50000000  0.50000000  1
  K  K1  1  0.50067500  0.90906400  0.77549100  1
  K  K2  1  0.49932500  0.59093600  0.27549100  1
  K  K3  1  0.00067500  0.59093600  0.27549100  1
  K  K4  1  0.50000000  0.00000000  0.50000000  1
  K  K5  1  0.00067500  0.09093600  0.22450900  1
  K  K6  1  0.00000000  0.50000000  0.50000000  1
  K  K7  1  0.00000000  0.00000000  0.00000000  1
  K  K8  1  0.50000000  0.00000000  0.00000000  1
  K  K9  1  0.00000000  0.50000000  0.00000000  1
  K  K10  1  0.50000000  0.50000000  0.00000000  1
  K  K11  1  0.49932500  0.09093600  0.22450900  1
  K  K12  1  0.99932500  0.40906400  0.72450900  1
  K  K13  1  0.50067500  0.40906400  0.72450900  1
  K  K14  1  0.00000000  0.00000000  0.50000000  1
  K  K15  1  0.99932500  0.90906400  0.77549100  1
  Sm  Sm0  1  0.49906000  0.74772400  0.93175800  1
  Sm  Sm1  1  0.49711700  0.32752900  0.32510200  1
  Sm  Sm2  1  0.50094000  0.25227600  0.06824200  1
  Sm  Sm3  1  0.99906000  0.75227600  0.43175800  1
  Sm  Sm4  1  0.50288300  0.67247100  0.67489800  1
  Sm  Sm5  1  0.99906000  0.25227600  0.06824200  1
  Sm  Sm6  1  0.99711700  0.67247100  0.67489800  1
  Sm  Sm7  1  0.00094000  0.74772400  0.93175800  1
  Sm  Sm8  1  0.00288300  0.32752900  0.32510200  1
  Sm  Sm9  1  0.49711700  0.82752900  0.17489800  1
  Sm  Sm10  1  0.50094000  0.75227600  0.43175800  1
  Sm  Sm11  1  0.00288300  0.82752900  0.17489800  1
  Sm  Sm12  1  0.00094000  0.24772400  0.56824200  1
  Sm  Sm13  1  0.99711700  0.17247100  0.82510200  1
  Sm  Sm14  1  0.49906000  0.24772400  0.56824200  1
  Sm  Sm15  1  0.50288300  0.17247100  0.82510200  1
  As  As0  1  0.75000000  0.10727700  0.66696700  1
  As  As1  1  0.75000000  0.43267800  0.15330800  1
  As  As2  1  0.75000000  0.93267800  0.34669200  1
  As  As3  1  0.25000000  0.65997200  0.09824600  1
  As  As4  1  0.25000000  0.39272300  0.16696700  1
  As  As5  1  0.25000000  0.06732200  0.65330800  1
  As  As6  1  0.25000000  0.56732200  0.84669200  1
  As  As7  1  0.25000000  0.86899900  0.61581300  1
  As  As8  1  0.25000000  0.15997200  0.40175400  1
  As  As9  1  0.75000000  0.84002800  0.59824600  1
  As  As10  1  0.75000000  0.13100100  0.38418700  1
  As  As11  1  0.75000000  0.60727700  0.83303300  1
  As  As12  1  0.25000000  0.36899900  0.88418700  1
  As  As13  1  0.75000000  0.34002800  0.90175400  1
  As  As14  1  0.75000000  0.63100100  0.11581300  1
  As  As15  1  0.25000000  0.89272300  0.33303300  1
  Se  Se0  1  0.25000000  0.85541400  0.96801000  1
  Se  Se1  1  0.25000000  0.44364100  0.29229300  1
  Se  Se2  1  0.02016400  0.81699100  0.31042200  1
  Se  Se3  1  0.75000000  0.41134900  0.39300800  1
  Se  Se4  1  0.95670600  0.53183600  0.14010800  1
  Se  Se5  1  0.75000000  0.43214400  0.28785000  1
  Se  Se6  1  0.75000000  0.84685000  0.98370200  1
  Se  Se7  1  0.75000000  0.62887200  0.93994100  1
  Se  Se8  1  0.75000000  0.79084100  0.69804400  1
  Se  Se9  1  0.75000000  0.21050500  0.29606900  1
  Se  Se10  1  0.25000000  0.12717100  0.55549500  1
  Se  Se11  1  0.48439100  0.72872400  0.06578100  1
  Se  Se12  1  0.54329400  0.03183600  0.35989200  1
  Se  Se13  1  0.98439100  0.27127600  0.93421900  1
  Se  Se14  1  0.25000000  0.90588000  0.10582500  1
  Se  Se15  1  0.25000000  0.15315000  0.01629800  1
  Se  Se16  1  0.95670600  0.03183600  0.35989200  1
  Se  Se17  1  0.25000000  0.58865100  0.60699200  1
  Se  Se18  1  0.25000000  0.82902500  0.86499000  1
  Se  Se19  1  0.25000000  0.20915900  0.30195600  1
  Se  Se20  1  0.45670600  0.96816400  0.64010800  1
  Se  Se21  1  0.25000000  0.40588000  0.39417500  1
  Se  Se22  1  0.02016400  0.31699100  0.18957800  1
  Se  Se23  1  0.75000000  0.29084100  0.80195600  1
  Se  Se24  1  0.25000000  0.94364100  0.20770700  1
  Se  Se25  1  0.75000000  0.12887200  0.56005900  1
  Se  Se26  1  0.75000000  0.64458600  0.46801000  1
  Se  Se27  1  0.25000000  0.15831200  0.12129600  1
  Se  Se28  1  0.75000000  0.87282900  0.44450500  1
  Se  Se29  1  0.75000000  0.93214400  0.21215000  1
  Se  Se30  1  0.25000000  0.35541400  0.53199000  1
  Se  Se31  1  0.98439100  0.77127600  0.56578100  1
  Se  Se32  1  0.75000000  0.71050500  0.20393100  1
  Se  Se33  1  0.25000000  0.06785600  0.78785000  1
  Se  Se34  1  0.25000000  0.65831200  0.37870400  1
  Se  Se35  1  0.25000000  0.28949500  0.79606900  1
  Se  Se36  1  0.51560900  0.27127600  0.93421900  1
  Se  Se37  1  0.75000000  0.09412000  0.89417500  1
  Se  Se38  1  0.52016400  0.18300900  0.68957800  1
  Se  Se39  1  0.25000000  0.70915900  0.19804400  1
  Se  Se40  1  0.25000000  0.87112800  0.43994100  1
  Se  Se41  1  0.47983600  0.81699100  0.31042200  1
  Se  Se42  1  0.75000000  0.55635900  0.70770700  1
  Se  Se43  1  0.25000000  0.78949500  0.70393100  1
  Se  Se44  1  0.75000000  0.59412000  0.60582500  1
  Se  Se45  1  0.25000000  0.65315000  0.48370200  1
  Se  Se46  1  0.25000000  0.56785600  0.71215000  1
  Se  Se47  1  0.45670600  0.46816400  0.85989200  1
  Se  Se48  1  0.75000000  0.14458600  0.03199000  1
  Se  Se49  1  0.51560900  0.77127600  0.56578100  1
  Se  Se50  1  0.52016400  0.68300900  0.81042200  1
  Se  Se51  1  0.25000000  0.62717100  0.94450500  1
  Se  Se52  1  0.75000000  0.34685000  0.51629800  1
  Se  Se53  1  0.75000000  0.17097500  0.13501000  1
  Se  Se54  1  0.25000000  0.32902500  0.63501000  1
  Se  Se55  1  0.47983600  0.31699100  0.18957800  1
  Se  Se56  1  0.01560900  0.72872400  0.06578100  1
  Se  Se57  1  0.97983600  0.68300900  0.81042200  1
  Se  Se58  1  0.04329400  0.46816400  0.85989200  1
  Se  Se59  1  0.25000000  0.37112800  0.06005900  1
  Se  Se60  1  0.75000000  0.84168800  0.87870400  1
  Se  Se61  1  0.75000000  0.37282900  0.05549500  1
  Se  Se62  1  0.75000000  0.05635900  0.79229300  1
  Se  Se63  1  0.01560900  0.22872400  0.43421900  1
  Se  Se64  1  0.97983600  0.18300900  0.68957800  1
  Se  Se65  1  0.25000000  0.08865100  0.89300800  1
  Se  Se66  1  0.54329400  0.53183600  0.14010800  1
  Se  Se67  1  0.75000000  0.91134900  0.10699200  1
  Se  Se68  1  0.48439100  0.22872400  0.43421900  1
  Se  Se69  1  0.04329400  0.96816400  0.64010800  1
  Se  Se70  1  0.75000000  0.67097500  0.36499000  1
  Se  Se71  1  0.75000000  0.34168800  0.62129600  1
loop_
_geom_bond_atom_site_label_1
_geom_bond_atom_site_label_2
_geom_bond_distance
_geom_bond_site_symmetry_2
K0 Se30 3.408092 1_555
K0 Se26 3.408092 1_555
K0 Se45 3.465666 1_555
K0 Se52 3.465666 1_555
K0 Se3 3.610745 1_555
K0 Se17 3.610745 1_555
K0 Se44 3.635692 1_555
K0 Se21 3.635692 1_555
K1 Se18 3.286264 1_555
K1 Se20 3.298536 1_555
K1 Se62 3.383305 1_565
K1 Se60 3.400003 1_555
K1 Se43 3.426009 1_555
K1 Se8 3.471369 1_555
K1 Se33 3.539012 1_565
K2 Se70 3.286264 1_555
K2 Se66 3.298536 1_555
K2 Se1 3.383305 1_555
K2 Se34 3.400003 1_555
K2 Se32 3.426009 1_555
K2 Se39 3.471369 1_555
K2 Se5 3.539012 1_555
K3 Se70 3.286264 1_455
K3 Se4 3.298536 1_455
K3 Se1 3.383305 1_555
K3 Se34 3.400003 1_555
K3 Se32 3.426009 1_455
K3 Se39 3.471369 1_555
K3 Se5 3.539012 1_455
K4 Se20 3.284615 1_545
K4 Se12 3.284615 1_555
K4 Se10 3.350040 1_555
K4 Se28 3.350040 1_545
K4 Se25 3.411187 1_555
K4 Se40 3.411187 1_545
K5 Se53 3.286264 1_455
K5 Se16 3.298536 1_455
K5 Se24 3.383305 1_545
K5 Se27 3.400003 1_555
K5 Se9 3.426009 1_455
K5 Se19 3.471369 1_555
K5 Se29 3.539012 1_445
K6 Se30 3.408092 1_555
K6 Se26 3.408092 1_455
K6 Se45 3.465666 1_555
K6 Se52 3.465666 1_455
K6 Se3 3.610745 1_455
K6 Se17 3.610745 1_555
K6 Se44 3.635692 1_455
K6 Se21 3.635692 1_555
K7 Se0 3.408092 1_544
K7 Se48 3.408092 1_455
K7 Se15 3.465666 1_555
K7 Se6 3.465666 1_444
K7 Se65 3.610745 1_554
K7 Se67 3.610745 1_445
K7 Se37 3.635692 1_454
K7 Se14 3.635692 1_545
K8 Se0 3.408092 1_544
K8 Se48 3.408092 1_555
K8 Se15 3.465666 1_555
K8 Se6 3.465666 1_544
K8 Se65 3.610745 1_554
K8 Se67 3.610745 1_545
K8 Se37 3.635692 1_554
K8 Se14 3.635692 1_545
K9 Se58 3.284615 1_554
K9 Se4 3.284615 1_455
K9 Se61 3.350040 1_455
K9 Se51 3.350040 1_554
K9 Se7 3.411187 1_454
K9 Se59 3.411187 1_555
K10 Se47 3.284615 1_554
K10 Se66 3.284615 1_555
K10 Se61 3.350040 1_555
K10 Se51 3.350040 1_554
K10 Se7 3.411187 1_554
K10 Se59 3.411187 1_555
K11 Se53 3.286264 1_555
K11 Se12 3.298536 1_555
K11 Se24 3.383305 1_545
K11 Se27 3.400003 1_555
K11 Se9 3.426009 1_555
K11 Se19 3.471369 1_555
K11 Se29 3.539012 1_545
K12 Se54 3.286264 1_655
K12 Se58 3.298536 1_655
K12 Se42 3.383305 1_555
K12 Se71 3.400003 1_555
K12 Se35 3.426009 1_655
K12 Se23 3.471369 1_555
K12 Se46 3.539012 1_655
K13 Se54 3.286264 1_555
K13 Se47 3.298536 1_555
K13 Se42 3.383305 1_555
K13 Se71 3.400003 1_555
K13 Se35 3.426009 1_555
K13 Se23 3.471369 1_555
K13 Se46 3.539012 1_555
K14 Se69 3.284615 1_545
K14 Se16 3.284615 1_455
K14 Se10 3.350040 1_555
K14 Se28 3.350040 1_445
K14 Se40 3.411187 1_545
K14 Se25 3.411187 1_455
K15 Se18 3.286264 1_655
K15 Se69 3.298536 1_655
K15 Se62 3.383305 1_565
K15 Se60 3.400003 1_555
K15 Se43 3.426009 1_655
K15 Se8 3.471369 1_555
K15 Se33 3.539012 1_665
As0 Se38 2.431329 1_555
As0 Se64 2.431329 1_555
As0 Se25 2.482598 1_555
As0 Se62 3.012998 1_555
As1 Se61 2.480719 1_555
As1 Se66 2.504806 1_555
As1 Se4 2.504806 1_555
As1 Se5 3.087264 1_555
As2 Se28 2.480719 1_555
As2 Se16 2.504806 1_565
As2 Se12 2.504806 1_565
As2 Se29 3.087264 1_555
As3 Se39 2.449116 1_555
As3 Se11 2.457049 1_555
As3 Se56 2.457049 1_555
As4 Se22 2.431329 1_555
As4 Se55 2.431329 1_555
As4 Se59 2.482598 1_555
As4 Se1 3.012998 1_555
As5 Se10 2.480719 1_555
As5 Se20 2.504806 1_545
As5 Se69 2.504806 1_545
As5 Se33 3.087264 1_555
As6 Se51 2.480719 1_555
As6 Se58 2.504806 1_555
As6 Se47 2.504806 1_555
As6 Se46 3.087264 1_555
As7 Se43 2.461405 1_555
As7 Se20 2.548240 1_555
As7 Se69 2.548240 1_555
As7 Se49 3.072840 1_555
As7 Se31 3.072840 1_455
As8 Se19 2.449116 1_555
As8 Se63 2.457049 1_555
As8 Se68 2.457049 1_555
As9 Se8 2.449116 1_555
As9 Se31 2.457049 1_555
As9 Se49 2.457049 1_555
As10 Se9 2.461405 1_555
As10 Se16 2.548240 1_555
As10 Se12 2.548240 1_555
As10 Se68 3.072840 1_555
As10 Se63 3.072840 1_655
As11 Se57 2.431329 1_555
As11 Se50 2.431329 1_555
As11 Se7 2.482598 1_555
As11 Se42 3.012998 1_555
As12 Se35 2.461405 1_555
As12 Se47 2.548240 1_555
As12 Se58 2.548240 1_555
As12 Se13 3.072840 1_455
As12 Se36 3.072840 1_555
As13 Se23 2.449116 1_555
As13 Se36 2.457049 1_555
As13 Se13 2.457049 1_555
As14 Se32 2.461405 1_555
As14 Se66 2.548240 1_555
As14 Se4 2.548240 1_555
As14 Se11 3.072840 1_555
As14 Se56 3.072840 1_655
As15 Se41 2.431329 1_555
As15 Se2 2.431329 1_555
As15 Se40 2.482598 1_555
As15 Se24 3.012998 1_555
Se0 Se18 2.409405 1_555
Se0 Sm0 2.972022 1_555
Se0 Sm7 2.972022 1_555
Se1 Se21 2.431014 1_555
Se1 Sm1 3.037242 1_555
Se1 Sm8 3.037242 1_555
Se2 Sm3 3.014913 1_455
Se2 Sm11 3.118839 1_555
Se3 Se5 2.440762 1_555
Se3 Sm8 3.046990 1_655
Se3 Sm1 3.046990 1_555
Se3 Se52 3.049620 1_555
Se5 Sm8 2.967855 1_655
Se5 Sm1 2.967855 1_555
Se6 Se60 2.411045 1_555
Se6 Sm7 3.013002 1_655
Se6 Sm0 3.013002 1_555
Se6 Se67 3.049620 1_556
Se7 Sm7 3.005481 1_655
Se7 Sm0 3.005481 1_555
Se8 Sm6 3.017476 1_555
Se8 Sm4 3.017476 1_555
Se9 Sm8 3.062437 1_655
Se9 Sm1 3.062437 1_555
Se10 Sm14 3.023499 1_555
Se10 Sm12 3.023499 1_555
Se11 Sm9 3.053483 1_555
Se11 Sm0 3.096117 1_554
Se13 Sm13 3.053483 1_555
Se13 Sm5 3.096117 1_556
Se14 Se24 2.431014 1_555
Se14 Sm11 2.980187 1_555
Se14 Sm9 2.980187 1_555
Se15 Se27 2.411045 1_555
Se15 Sm2 3.013002 1_555
Se15 Sm5 3.013002 1_455
Se15 Se65 3.049620 1_554
Se17 Se46 2.440762 1_555
Se17 Sm6 3.046990 1_455
Se17 Sm4 3.046990 1_555
Se17 Se45 3.049620 1_555
Se18 Sm0 2.988945 1_555
Se18 Sm7 2.988945 1_555
Se19 Sm1 3.017476 1_555
Se19 Sm8 3.017476 1_555
Se21 Sm1 2.980187 1_555
Se21 Sm8 2.980187 1_555
Se22 Sm5 3.014913 1_455
Se22 Sm8 3.118839 1_555
Se23 Sm13 3.017476 1_555
Se23 Sm15 3.017476 1_555
Se24 Sm11 3.037242 1_555
Se24 Sm9 3.037242 1_555
Se25 Sm14 3.005481 1_555
Se25 Sm12 3.005481 1_655
Se26 Se70 2.409405 1_555
Se26 Sm3 2.972022 1_555
Se26 Sm10 2.972022 1_555
Se27 Sm5 2.971345 1_455
Se27 Sm2 2.971345 1_555
Se28 Sm3 3.023499 1_555
Se28 Sm10 3.023499 1_555
Se29 Se67 2.440762 1_555
Se29 Sm11 2.967855 1_655
Se29 Sm9 2.967855 1_555
Se30 Se54 2.409405 1_555
Se30 Sm14 2.972022 1_555
Se30 Sm12 2.972022 1_555
Se31 Sm6 3.053483 1_555
Se31 Sm3 3.096117 1_555
Se32 Sm11 3.062437 1_655
Se32 Sm9 3.062437 1_555
Se33 Se65 2.440762 1_555
Se33 Sm13 2.967855 1_455
Se33 Sm15 2.967855 1_555
Se34 Se45 2.411045 1_555
Se34 Sm10 2.971345 1_555
Se34 Sm3 2.971345 1_455
Se35 Sm13 3.062437 1_455
Se35 Sm15 3.062437 1_555
Se36 Sm15 3.053483 1_555
Se36 Sm2 3.096117 1_556
Se37 Se62 2.431014 1_555
Se37 Sm13 2.980187 1_555
Se37 Sm15 2.980187 1_555
Se38 Sm14 3.014913 1_555
Se38 Sm15 3.118839 1_555
Se39 Sm9 3.017476 1_555
Se39 Sm11 3.017476 1_555
Se40 Sm10 3.005481 1_555
Se40 Sm3 3.005481 1_455
Se41 Sm10 3.014913 1_555
Se41 Sm9 3.118839 1_555
Se42 Se44 2.431014 1_555
Se42 Sm6 3.037242 1_555
Se42 Sm4 3.037242 1_555
Se43 Sm6 3.062437 1_455
Se43 Sm4 3.062437 1_555
Se44 Sm6 2.980187 1_555
Se44 Sm4 2.980187 1_555
Se45 Sm3 3.013002 1_455
Se45 Sm10 3.013002 1_555
Se46 Sm4 2.967855 1_555
Se46 Sm6 2.967855 1_455
Se48 Se53 2.409405 1_555
Se48 Sm5 2.972022 1_555
Se48 Sm2 2.972022 1_555
Se49 Sm4 3.053483 1_555
Se49 Sm10 3.096117 1_555
Se50 Sm0 3.014913 1_555
Se50 Sm4 3.118839 1_555
Se51 Sm0 3.023499 1_555
Se51 Sm7 3.023499 1_555
Se52 Se71 2.411045 1_555
Se52 Sm12 3.013002 1_655
Se52 Sm14 3.013002 1_555
Se53 Sm5 2.988945 1_555
Se53 Sm2 2.988945 1_555
Se54 Sm14 2.988945 1_555
Se54 Sm12 2.988945 1_555
Se55 Sm2 3.014913 1_555
Se55 Sm1 3.118839 1_555
Se56 Sm11 3.053483 1_555
Se56 Sm7 3.096117 1_554
Se57 Sm7 3.014913 1_655
Se57 Sm6 3.118839 1_555
Se59 Sm2 3.005481 1_555
Se59 Sm5 3.005481 1_455
Se60 Sm7 2.971345 1_655
Se60 Sm0 2.971345 1_555
Se61 Sm5 3.023499 1_555
Se61 Sm2 3.023499 1_555
Se62 Sm15 3.037242 1_555
Se62 Sm13 3.037242 1_555
Se63 Sm8 3.053483 1_555
Se63 Sm12 3.096117 1_555
Se64 Sm12 3.014913 1_655
Se64 Sm13 3.118839 1_555
Se65 Sm13 3.046990 1_455
Se65 Sm15 3.046990 1_555
Se67 Sm11 3.046990 1_655
Se67 Sm9 3.046990 1_555
Se68 Sm1 3.053483 1_555
Se68 Sm14 3.096117 1_555
Se70 Sm10 2.988945 1_555
Se70 Sm3 2.988945 1_555
Se71 Sm12 2.971345 1_655
Se71 Sm14 2.971345 1_555
