# generated using pymatgen
data_Sn2WO5
_symmetry_space_group_name_H-M   'P 1'
_cell_length_a   13.83267167
_cell_length_b   8.01910178
_cell_length_c   10.68131962
_cell_angle_alpha   66.00282858
_cell_angle_beta   90.00000000
_cell_angle_gamma   90.00000000
_symmetry_Int_Tables_number   1
_chemical_formula_structural   Sn2WO5
_chemical_formula_sum   'Sn16 W8 O40'
_cell_volume   1082.42150801
_cell_formula_units_Z   8
loop_
 _symmetry_equiv_pos_site_id
 _symmetry_equiv_pos_as_xyz
  1  'x, y, z'
loop_
 _atom_site_type_symbol
 _atom_site_label
 _atom_site_symmetry_multiplicity
 _atom_site_fract_x
 _atom_site_fract_y
 _atom_site_fract_z
 _atom_site_occupancy
  Sn  Sn0  1  0.10267787  0.90831651  0.27247474  1
  Sn  Sn1  1  0.89732213  0.09168349  0.72752526  1
  Sn  Sn2  1  0.84708388  0.55434154  0.38710559  1
  Sn  Sn3  1  0.64979581  0.23483921  0.54131382  1
  Sn  Sn4  1  0.65291612  0.55434154  0.88710559  1
  Sn  Sn5  1  0.59922890  0.69164006  0.19951535  1
  Sn  Sn6  1  0.40077110  0.30835994  0.80048465  1
  Sn  Sn7  1  0.35020419  0.76516079  0.45868618  1
  Sn  Sn8  1  0.39732213  0.90831651  0.77247474  1
  Sn  Sn9  1  0.85020419  0.23483921  0.04131382  1
  Sn  Sn10  1  0.60267787  0.09168349  0.22752526  1
  Sn  Sn11  1  0.15291612  0.44565846  0.61289441  1
  Sn  Sn12  1  0.14979581  0.76516079  0.95868618  1
  Sn  Sn13  1  0.90077110  0.69164006  0.69951535  1
  Sn  Sn14  1  0.09922890  0.30835994  0.30048465  1
  Sn  Sn15  1  0.34708388  0.44565846  0.11289441  1
  W  W0  1  0.16924226  0.27763601  0.96626482  1
  W  W1  1  0.83075774  0.72236399  0.03373518  1
  W  W2  1  0.66924226  0.72236399  0.53373518  1
  W  W3  1  0.33075774  0.27763601  0.46626482  1
  W  W4  1  0.17408179  0.93768982  0.60513800  1
  W  W5  1  0.82591821  0.06231018  0.39486200  1
  W  W6  1  0.67408179  0.06231018  0.89486200  1
  W  W7  1  0.32591821  0.93768982  0.10513800  1
  O  O0  1  0.38482675  0.19325445  0.65339057  1
  O  O1  1  0.18201780  0.19162460  0.56452196  1
  O  O2  1  0.21844327  0.72823099  0.58166125  1
  O  O3  1  0.74237892  0.12345608  0.72087643  1
  O  O4  1  0.75762108  0.12345608  0.22087643  1
  O  O5  1  0.82117052  0.98015597  0.98464494  1
  O  O6  1  0.12047473  0.02293257  0.42074619  1
  O  O7  1  0.26085162  0.33248453  0.29578296  1
  O  O8  1  0.88482675  0.80674555  0.84660943  1
  O  O9  1  0.62047473  0.97706743  0.07925381  1
  O  O10  1  0.73914838  0.66751547  0.70421704  1
  O  O11  1  0.25762108  0.87654392  0.27912357  1
  O  O12  1  0.24237892  0.87654392  0.77912357  1
  O  O13  1  0.37952527  0.02293257  0.92074619  1
  O  O14  1  0.71844327  0.27176901  0.91833875  1
  O  O15  1  0.61517325  0.80674555  0.34660943  1
  O  O16  1  0.28549365  0.48533670  0.49237774  1
  O  O17  1  0.56427000  0.13923414  0.80583165  1
  O  O18  1  0.93573000  0.13923414  0.30583165  1
  O  O19  1  0.93918231  0.64833077  0.12119428  1
  O  O20  1  0.81798220  0.80837540  0.43547804  1
  O  O21  1  0.32117052  0.01984403  0.51535506  1
  O  O22  1  0.06427000  0.86076586  0.69416835  1
  O  O23  1  0.21450635  0.48533670  0.99237774  1
  O  O24  1  0.87952527  0.97706743  0.57925381  1
  O  O25  1  0.68201780  0.80837540  0.93547804  1
  O  O26  1  0.43918231  0.35166923  0.37880572  1
  O  O27  1  0.67882948  0.98015597  0.48464494  1
  O  O28  1  0.71450635  0.51466330  0.50762226  1
  O  O29  1  0.28155673  0.72823099  0.08166125  1
  O  O30  1  0.31798220  0.19162460  0.06452196  1
  O  O31  1  0.78549365  0.51466330  0.00762226  1
  O  O32  1  0.43573000  0.86076586  0.19416835  1
  O  O33  1  0.78155673  0.27176901  0.41833875  1
  O  O34  1  0.23914838  0.33248453  0.79578296  1
  O  O35  1  0.76085162  0.66751547  0.20421704  1
  O  O36  1  0.56081769  0.64833077  0.62119428  1
  O  O37  1  0.11517325  0.19325445  0.15339057  1
  O  O38  1  0.06081769  0.35166923  0.87880572  1
  O  O39  1  0.17882948  0.01984403  0.01535506  1
loop_
_geom_bond_atom_site_label_1
_geom_bond_atom_site_label_2
_geom_bond_distance
_geom_bond_site_symmetry_2
O0 W3 1.977921 1_555
O0 Sn8 2.122443 1_545
O0 Sn6 2.132791 1_555
O1 W4 1.904818 1_545
O1 W3 2.285083 1_555
O1 Sn11 2.331309 1_555
O2 W4 1.898243 1_555
O2 Sn7 2.195123 1_555
O2 Sn11 2.335093 1_555
O3 W6 1.960968 1_555
O3 Sn1 2.156127 1_555
O3 Sn3 2.173267 1_555
O4 W5 1.960968 1_555
O4 Sn10 2.156127 1_555
O4 Sn9 2.173267 1_555
O5 W1 1.919483 1_556
O5 W6 2.231487 1_565
O5 Sn9 2.388371 1_566
O6 W4 1.949660 1_545
O6 Sn14 2.141001 1_555
O6 Sn0 2.144199 1_545
O7 W3 1.947562 1_555
O7 Sn15 2.149549 1_555
O7 Sn14 2.242829 1_555
O8 W1 1.977921 1_556
O8 Sn1 2.122443 1_565
O8 Sn13 2.132791 1_555
O9 W6 1.949660 1_564
O9 Sn5 2.141001 1_555
O9 Sn10 2.144199 1_565
O10 W2 1.947562 1_555
O10 Sn4 2.149549 1_555
O10 Sn13 2.242829 1_555
O11 W7 1.960968 1_555
O11 Sn0 2.156127 1_555
O11 Sn7 2.173267 1_555
O12 W4 1.960968 1_555
O12 Sn8 2.156127 1_555
O12 Sn12 2.173267 1_555
O13 W7 1.949660 1_546
O13 Sn6 2.141001 1_555
O13 Sn8 2.144199 1_545
O14 W6 1.898243 1_555
O14 Sn9 2.195123 1_556
O14 Sn4 2.335093 1_555
O15 W2 1.977921 1_555
O15 Sn10 2.122443 1_565
O15 Sn5 2.132791 1_555
O16 W3 1.903110 1_555
O16 Sn11 2.188233 1_555
O16 Sn7 2.304165 1_555
O17 W6 1.764947 1_555
O17 Sn6 2.625755 1_555
O18 W5 1.764947 1_555
O18 Sn14 2.625755 1_655
O19 W1 1.738806 1_555
O20 W5 1.904818 1_565
O20 W2 2.285083 1_555
O20 Sn2 2.331309 1_555
O21 W3 1.919483 1_555
O21 W4 2.231487 1_545
O21 Sn7 2.388371 1_545
O22 W4 1.764947 1_555
O22 Sn13 2.625755 1_455
O23 W0 1.903110 1_555
O23 Sn15 2.188233 1_556
O23 Sn12 2.304165 1_555
O24 W5 1.949660 1_565
O24 Sn13 2.141001 1_555
O24 Sn1 2.144199 1_565
O25 W6 1.904818 1_565
O25 W1 2.285083 1_556
O25 Sn4 2.331309 1_555
O26 W3 1.738806 1_555
O27 W2 1.919483 1_555
O27 W5 2.231487 1_565
O27 Sn3 2.388371 1_565
O28 W2 1.903110 1_555
O28 Sn2 2.188233 1_555
O28 Sn3 2.304165 1_555
O29 W7 1.898243 1_555
O29 Sn12 2.195123 1_554
O29 Sn15 2.335093 1_555
O30 W7 1.904818 1_545
O30 W0 2.285083 1_554
O30 Sn15 2.331309 1_555
O31 W1 1.903110 1_555
O31 Sn4 2.188233 1_554
O31 Sn9 2.304165 1_555
O32 W7 1.764947 1_555
O32 Sn5 2.625755 1_555
O33 W5 1.898243 1_555
O33 Sn3 2.195123 1_555
O33 Sn2 2.335093 1_555
O34 W0 1.947562 1_555
O34 Sn11 2.149549 1_555
O34 Sn6 2.242829 1_555
O35 W1 1.947562 1_555
O35 Sn2 2.149549 1_555
O35 Sn5 2.242829 1_555
O36 W2 1.738806 1_555
O37 W0 1.977921 1_554
O37 Sn0 2.122443 1_545
O37 Sn14 2.132791 1_555
O38 W0 1.738806 1_555
O39 W0 1.919483 1_554
O39 W7 2.231487 1_545
O39 Sn12 2.388371 1_544
