# generated using pymatgen
data_NaBe2BO3F2
_symmetry_space_group_name_H-M   'P 1'
_cell_length_a   7.78453680
_cell_length_b   7.78453680
_cell_length_c   7.64204371
_cell_angle_alpha   70.89165827
_cell_angle_beta   70.89165827
_cell_angle_gamma   68.53468278
_symmetry_Int_Tables_number   1
_chemical_formula_structural   NaBe2BO3F2
_chemical_formula_sum   'Na4 Be8 B4 O12 F8'
_cell_volume   395.72597424
_cell_formula_units_Z   4
loop_
 _symmetry_equiv_pos_site_id
 _symmetry_equiv_pos_as_xyz
  1  'x, y, z'
loop_
 _atom_site_type_symbol
 _atom_site_label
 _atom_site_symmetry_multiplicity
 _atom_site_fract_x
 _atom_site_fract_y
 _atom_site_fract_z
 _atom_site_occupancy
  Na  Na0  1  0.81530000  0.18470000  0.00000000  1
  Na  Na1  1  0.66152100  0.33847900  0.50000000  1
  Na  Na2  1  0.40304600  0.59695400  0.00000000  1
  Na  Na3  1  0.25998700  0.74001300  0.50000000  1
  Be  Be0  1  0.64819000  0.79539800  0.19556200  1
  Be  Be1  1  0.08878700  0.29258500  0.19860300  1
  Be  Be2  1  0.35795400  0.00782100  0.70040300  1
  Be  Be3  1  0.43185800  0.13723900  0.30396300  1
  Be  Be4  1  0.70741500  0.91121300  0.80139700  1
  Be  Be5  1  0.86276100  0.56814200  0.69603700  1
  Be  Be6  1  0.20460200  0.35181000  0.80443800  1
  Be  Be7  1  0.99217900  0.64204600  0.29959700  1
  B  B0  1  0.69421200  0.87573700  0.47771200  1
  B  B1  1  0.39359800  0.06180300  0.01419200  1
  B  B2  1  0.93819700  0.60640200  0.98580900  1
  B  B3  1  0.12426300  0.30578800  0.52228800  1
  O  O0  1  0.02467300  0.53010900  0.13683700  1
  O  O1  1  0.51885300  0.01202700  0.49148600  1
  O  O2  1  0.46989100  0.97532700  0.86316300  1
  O  O3  1  0.00403500  0.51972200  0.83556800  1
  O  O4  1  0.19931700  0.22207900  0.36936800  1
  O  O5  1  0.98797300  0.48114700  0.50851400  1
  O  O6  1  0.77792100  0.80068300  0.63063200  1
  O  O7  1  0.19253200  0.21653900  0.68477700  1
  O  O8  1  0.78212600  0.76372100  0.98759200  1
  O  O9  1  0.48027800  0.99596500  0.16443200  1
  O  O10  1  0.78346100  0.80746800  0.31522300  1
  O  O11  1  0.23627900  0.21787400  0.01240800  1
  F  F0  1  0.69973900  0.47837000  0.80569600  1
  F  F1  1  0.52163000  0.30026100  0.19430400  1
  F  F2  1  0.77407000  0.09007400  0.74576900  1
  F  F3  1  0.55743500  0.63385700  0.30975800  1
  F  F4  1  0.15865800  0.72470900  0.25360900  1
  F  F5  1  0.27529100  0.84134200  0.74639100  1
  F  F6  1  0.36614300  0.44256500  0.69024200  1
  F  F7  1  0.90992600  0.22593000  0.25423100  1
loop_
_geom_bond_atom_site_label_1
_geom_bond_atom_site_label_2
_geom_bond_distance
_geom_bond_site_symmetry_2
Be0 F3 1.539523 1_555
Be0 O8 1.630132 1_554
Be0 O9 1.633905 1_555
Be0 O10 1.647126 1_555
Be1 F7 1.544474 1_455
Be1 O11 1.632379 1_555
Be1 O4 1.632531 1_555
Be1 O0 1.672776 1_555
Be2 F5 1.543114 1_545
Be2 O2 1.647016 1_545
Be2 O7 1.659750 1_555
Be2 O1 1.674939 1_555
Be3 F1 1.539643 1_555
Be3 O9 1.640051 1_545
Be3 O1 1.643204 1_555
Be3 O4 1.646715 1_555
Be4 F2 1.544474 1_565
Be4 O8 1.632379 1_555
Be4 O6 1.632531 1_555
Be4 O2 1.672776 1_555
Be5 F0 1.539643 1_555
Be5 O3 1.640051 1_655
Be5 O5 1.643204 1_555
Be5 O6 1.646715 1_555
Be6 F6 1.539523 1_555
Be6 O11 1.630132 1_556
Be6 O3 1.633905 1_555
Be6 O7 1.647126 1_555
Be7 F4 1.543114 1_655
Be7 O0 1.647016 1_655
Be7 O10 1.659750 1_555
Be7 O5 1.674939 1_555
B0 O10 1.379877 1_555
B0 O6 1.380062 1_555
B0 O1 1.385366 1_565
B1 O11 1.373750 1_555
B1 O9 1.380241 1_545
B1 O2 1.380323 1_544
B2 O8 1.373750 1_555
B2 O3 1.380247 1_655
B2 O0 1.380317 1_656
B3 O7 1.379877 1_555
B3 O4 1.380062 1_555
B3 O5 1.385366 1_455
F0 Na0 2.321051 1_556
F0 Na2 2.341591 1_556
F1 Na0 2.321051 1_555
F1 Na2 2.341591 1_555
F2 Na1 2.343934 1_555
F2 Na0 2.436911 1_556
F3 Na1 2.297031 1_555
F3 Na3 2.310893 1_555
F4 Na3 2.317300 1_555
F4 Na2 2.414079 1_555
F5 Na3 2.317300 1_555
F5 Na2 2.414079 1_556
F6 Na1 2.297031 1_555
F6 Na3 2.310893 1_555
F7 Na1 2.343934 1_555
F7 Na0 2.436911 1_555
