# generated using pymatgen
data_K6Sn25
_symmetry_space_group_name_H-M   'P 1'
_cell_length_a   16.61228100
_cell_length_b   16.61228100
_cell_length_c   16.61228100
_cell_angle_alpha   90.00000000
_cell_angle_beta   90.00000000
_cell_angle_gamma   90.00000000
_symmetry_Int_Tables_number   1
_chemical_formula_structural   K6Sn25
_chemical_formula_sum   'K24 Sn100'
_cell_volume   4584.45596992
_cell_formula_units_Z   4
loop_
 _symmetry_equiv_pos_site_id
 _symmetry_equiv_pos_as_xyz
  1  'x, y, z'
loop_
 _atom_site_type_symbol
 _atom_site_label
 _atom_site_symmetry_multiplicity
 _atom_site_fract_x
 _atom_site_fract_y
 _atom_site_fract_z
 _atom_site_occupancy
  K  K0  1  0.62500000  0.18965200  0.06034800  1
  K  K1  1  0.06034800  0.62500000  0.18965200  1
  K  K2  1  0.87500000  0.81034800  0.56034800  1
  K  K3  1  0.81034800  0.56034800  0.87500000  1
  K  K4  1  0.18965200  0.06034800  0.62500000  1
  K  K5  1  0.12500000  0.87500000  0.37500000  1
  K  K6  1  0.19038600  0.69038600  0.80961400  1
  K  K7  1  0.44038600  0.55961400  0.05961400  1
  K  K8  1  0.05961400  0.44038600  0.55961400  1
  K  K9  1  0.37500000  0.12500000  0.87500000  1
  K  K10  1  0.43965200  0.37500000  0.68965200  1
  K  K11  1  0.37500000  0.68965200  0.43965200  1
  K  K12  1  0.55961400  0.05961400  0.44038600  1
  K  K13  1  0.93965200  0.12500000  0.31034800  1
  K  K14  1  0.94038600  0.94038600  0.94038600  1
  K  K15  1  0.87500000  0.37500000  0.12500000  1
  K  K16  1  0.80961400  0.19038600  0.69038600  1
  K  K17  1  0.56034800  0.87500000  0.81034800  1
  K  K18  1  0.69038600  0.80961400  0.19038600  1
  K  K19  1  0.62500000  0.62500000  0.62500000  1
  K  K20  1  0.68965200  0.43965200  0.37500000  1
  K  K21  1  0.30961400  0.30961400  0.30961400  1
  K  K22  1  0.31034800  0.93965200  0.12500000  1
  K  K23  1  0.12500000  0.31034800  0.93965200  1
  Sn  Sn0  1  0.21979500  0.28020500  0.71979500  1
  Sn  Sn1  1  0.29402700  0.54629100  0.24756800  1
  Sn  Sn2  1  0.79629100  0.04402700  0.50243200  1
  Sn  Sn3  1  0.53020500  0.96979500  0.03020500  1
  Sn  Sn4  1  0.76084600  0.93274200  0.37439500  1
  Sn  Sn5  1  0.33919200  0.90215000  0.83328900  1
  Sn  Sn6  1  0.16080800  0.09785000  0.33328900  1
  Sn  Sn7  1  0.28020500  0.71979500  0.21979500  1
  Sn  Sn8  1  0.91671100  0.15215000  0.08919200  1
  Sn  Sn9  1  0.71979500  0.21979500  0.28020500  1
  Sn  Sn10  1  0.87500000  0.17024400  0.92024400  1
  Sn  Sn11  1  0.08919200  0.91671100  0.15215000  1
  Sn  Sn12  1  0.83919200  0.59785000  0.16671100  1
  Sn  Sn13  1  0.20370900  0.54402700  0.99756800  1
  Sn  Sn14  1  0.84785000  0.58919200  0.58328900  1
  Sn  Sn15  1  0.65215000  0.41080800  0.08328900  1
  Sn  Sn16  1  0.54629100  0.24756800  0.29402700  1
  Sn  Sn17  1  0.37500000  0.32975600  0.07975600  1
  Sn  Sn18  1  0.17559900  0.17559900  0.17559900  1
  Sn  Sn19  1  0.74756800  0.20597300  0.45370900  1
  Sn  Sn20  1  0.00243200  0.70370900  0.95597300  1
  Sn  Sn21  1  0.42024400  0.62500000  0.82975600  1
  Sn  Sn22  1  0.68274200  0.98915400  0.62439500  1
  Sn  Sn23  1  0.40215000  0.66671100  0.66080800  1
  Sn  Sn24  1  0.62439500  0.68274200  0.98915400  1
  Sn  Sn25  1  0.04629100  0.25243200  0.70597300  1
  Sn  Sn26  1  0.49756800  0.29629100  0.45597300  1
  Sn  Sn27  1  0.90215000  0.83328900  0.33919200  1
  Sn  Sn28  1  0.23915400  0.43274200  0.12560500  1
  Sn  Sn29  1  0.03020500  0.53020500  0.96979500  1
  Sn  Sn30  1  0.07975600  0.37500000  0.32975600  1
  Sn  Sn31  1  0.25243200  0.70597300  0.04629100  1
  Sn  Sn32  1  0.45370900  0.74756800  0.20597300  1
  Sn  Sn33  1  0.01084600  0.12439500  0.81725800  1
  Sn  Sn34  1  0.95370900  0.75243200  0.79402700  1
  Sn  Sn35  1  0.75243200  0.79402700  0.95370900  1
  Sn  Sn36  1  0.51084600  0.37560500  0.18274200  1
  Sn  Sn37  1  0.34785000  0.91080800  0.41671100  1
  Sn  Sn38  1  0.41671100  0.34785000  0.91080800  1
  Sn  Sn39  1  0.24756800  0.29402700  0.54629100  1
  Sn  Sn40  1  0.26084600  0.56725800  0.62560500  1
  Sn  Sn41  1  0.92024400  0.87500000  0.17024400  1
  Sn  Sn42  1  0.87560500  0.31725800  0.48915400  1
  Sn  Sn43  1  0.08328900  0.65215000  0.41080800  1
  Sn  Sn44  1  0.56725800  0.62560500  0.26084600  1
  Sn  Sn45  1  0.83328900  0.33919200  0.90215000  1
  Sn  Sn46  1  0.17024400  0.92024400  0.87500000  1
  Sn  Sn47  1  0.16671100  0.83919200  0.59785000  1
  Sn  Sn48  1  0.07440100  0.07440100  0.07440100  1
  Sn  Sn49  1  0.37560500  0.18274200  0.51084600  1
  Sn  Sn50  1  0.18274200  0.51084600  0.37560500  1
  Sn  Sn51  1  0.57440100  0.42559900  0.92559900  1
  Sn  Sn52  1  0.70370900  0.95597300  0.00243200  1
  Sn  Sn53  1  0.42559900  0.92559900  0.57440100  1
  Sn  Sn54  1  0.46979500  0.46979500  0.46979500  1
  Sn  Sn55  1  0.95597300  0.00243200  0.70370900  1
  Sn  Sn56  1  0.12500000  0.67024400  0.57975600  1
  Sn  Sn57  1  0.57975600  0.12500000  0.67024400  1
  Sn  Sn58  1  0.70597300  0.04629100  0.25243200  1
  Sn  Sn59  1  0.91080800  0.41671100  0.34785000  1
  Sn  Sn60  1  0.99756800  0.20370900  0.54402700  1
  Sn  Sn61  1  0.82975600  0.42024400  0.62500000  1
  Sn  Sn62  1  0.67024400  0.57975600  0.12500000  1
  Sn  Sn63  1  0.93274200  0.37439500  0.76084600  1
  Sn  Sn64  1  0.54402700  0.99756800  0.20370900  1
  Sn  Sn65  1  0.87439500  0.73915400  0.06725800  1
  Sn  Sn66  1  0.48915400  0.87560500  0.31725800  1
  Sn  Sn67  1  0.12560500  0.23915400  0.43274200  1
  Sn  Sn68  1  0.62560500  0.26084600  0.56725800  1
  Sn  Sn69  1  0.66080800  0.40215000  0.66671100  1
  Sn  Sn70  1  0.04402700  0.50243200  0.79629100  1
  Sn  Sn71  1  0.67559900  0.32440100  0.82440100  1
  Sn  Sn72  1  0.92559900  0.57440100  0.42559900  1
  Sn  Sn73  1  0.73915400  0.06725800  0.87439500  1
  Sn  Sn74  1  0.66671100  0.66080800  0.40215000  1
  Sn  Sn75  1  0.78020500  0.78020500  0.78020500  1
  Sn  Sn76  1  0.45597300  0.49756800  0.29629100  1
  Sn  Sn77  1  0.15215000  0.08919200  0.91671100  1
  Sn  Sn78  1  0.82440100  0.67559900  0.32440100  1
  Sn  Sn79  1  0.58919200  0.58328900  0.84785000  1
  Sn  Sn80  1  0.37439500  0.76084600  0.93274200  1
  Sn  Sn81  1  0.09785000  0.33328900  0.16080800  1
  Sn  Sn82  1  0.59785000  0.16671100  0.83919200  1
  Sn  Sn83  1  0.96979500  0.03020500  0.53020500  1
  Sn  Sn84  1  0.32975600  0.07975600  0.37500000  1
  Sn  Sn85  1  0.50243200  0.79629100  0.04402700  1
  Sn  Sn86  1  0.41080800  0.08328900  0.65215000  1
  Sn  Sn87  1  0.58328900  0.84785000  0.58919200  1
  Sn  Sn88  1  0.43274200  0.12560500  0.23915400  1
  Sn  Sn89  1  0.98915400  0.62439500  0.68274200  1
  Sn  Sn90  1  0.31725800  0.48915400  0.87560500  1
  Sn  Sn91  1  0.29629100  0.45597300  0.49756800  1
  Sn  Sn92  1  0.32440100  0.82440100  0.67559900  1
  Sn  Sn93  1  0.12439500  0.81725800  0.01084600  1
  Sn  Sn94  1  0.79402700  0.95370900  0.75243200  1
  Sn  Sn95  1  0.33328900  0.16080800  0.09785000  1
  Sn  Sn96  1  0.06725800  0.87439500  0.73915400  1
  Sn  Sn97  1  0.62500000  0.82975600  0.42024400  1
  Sn  Sn98  1  0.81725800  0.01084600  0.12439500  1
  Sn  Sn99  1  0.20597300  0.45370900  0.74756800  1
loop_
_geom_bond_atom_site_label_1
_geom_bond_atom_site_label_2
_geom_bond_distance
_geom_bond_site_symmetry_2
K0 Sn82 3.721054 1_554
K0 Sn15 3.721054 1_555
K0 Sn9 4.008753 1_555
K0 Sn3 4.008753 1_545
K1 Sn12 3.721054 1_455
K1 Sn43 3.721054 1_555
K1 Sn7 4.008753 1_555
K1 Sn29 4.008753 1_554
K2 Sn14 3.721054 1_555
K2 Sn27 3.721054 1_555
K2 Sn83 4.008753 1_565
K2 Sn75 4.008753 1_555
K3 Sn79 3.721054 1_555
K3 Sn45 3.721054 1_555
K3 Sn75 4.008753 1_555
K3 Sn29 4.008753 1_655
K4 Sn47 3.721054 1_545
K4 Sn86 3.721054 1_555
K4 Sn0 4.008753 1_555
K4 Sn83 4.008753 1_455
K5 Sn6 3.813021 1_565
K5 Sn47 3.813021 1_555
K5 Sn37 3.813021 1_555
K5 Sn43 3.813021 1_555
K5 Sn11 3.813021 1_555
K5 Sn27 3.813021 1_455
K6 Sn92 3.856056 1_555
K6 Sn96 3.859789 1_555
K6 Sn40 3.859789 1_555
K6 Sn80 3.859789 1_555
K6 Sn20 3.963523 1_555
K6 Sn13 3.963523 1_555
K6 Sn70 3.963523 1_555
K6 Sn56 3.984030 1_555
K6 Sn46 3.984030 1_555
K6 Sn21 3.984030 1_555
K6 Sn34 4.072844 1_455
K6 Sn99 4.072844 1_555
K6 Sn31 4.072844 1_556
K6 Sn93 4.101102 1_556
K6 Sn89 4.101102 1_455
K6 Sn90 4.101102 1_555
K7 Sn51 3.856056 1_554
K7 Sn36 3.859789 1_555
K7 Sn90 3.859789 1_554
K7 Sn24 3.859789 1_554
K7 Sn31 3.963523 1_555
K7 Sn1 3.963523 1_555
K7 Sn32 3.963523 1_555
K7 Sn21 3.984030 1_554
K7 Sn62 3.984030 1_555
K7 Sn17 3.984030 1_555
K7 Sn13 4.072844 1_554
K7 Sn85 4.072844 1_555
K7 Sn76 4.072844 1_555
K7 Sn28 4.101102 1_555
K7 Sn80 4.101102 1_554
K7 Sn44 4.101102 1_555
K8 Sn72 3.856056 1_455
K8 Sn50 3.859789 1_555
K8 Sn42 3.859789 1_455
K8 Sn89 3.859789 1_455
K8 Sn25 3.963523 1_555
K8 Sn39 3.963523 1_555
K8 Sn99 3.963523 1_555
K8 Sn30 3.984030 1_555
K8 Sn56 3.984030 1_555
K8 Sn61 3.984030 1_455
K8 Sn60 4.072844 1_455
K8 Sn91 4.072844 1_555
K8 Sn70 4.072844 1_555
K8 Sn67 4.101102 1_555
K8 Sn40 4.101102 1_555
K8 Sn63 4.101102 1_455
K9 Sn82 3.813021 1_555
K9 Sn95 3.813021 1_556
K9 Sn38 3.813021 1_555
K9 Sn86 3.813021 1_555
K9 Sn77 3.813021 1_555
K9 Sn5 3.813021 1_545
K10 Sn38 3.721054 1_555
K10 Sn69 3.721054 1_555
K10 Sn0 4.008753 1_555
K10 Sn54 4.008753 1_555
K11 Sn37 3.721054 1_555
K11 Sn23 3.721054 1_555
K11 Sn7 4.008753 1_555
K11 Sn54 4.008753 1_555
K12 Sn53 3.856056 1_545
K12 Sn49 3.859789 1_555
K12 Sn22 3.859789 1_545
K12 Sn66 3.859789 1_545
K12 Sn16 3.963523 1_555
K12 Sn58 3.963523 1_555
K12 Sn19 3.963523 1_555
K12 Sn57 3.984030 1_555
K12 Sn84 3.984030 1_555
K12 Sn97 3.984030 1_545
K12 Sn26 4.072844 1_555
K12 Sn64 4.072844 1_545
K12 Sn2 4.072844 1_555
K12 Sn88 4.101102 1_555
K12 Sn68 4.101102 1_555
K12 Sn4 4.101102 1_545
K13 Sn8 3.721054 1_555
K13 Sn6 3.721054 1_655
K13 Sn83 4.008753 1_555
K13 Sn9 4.008753 1_555
K14 Sn48 3.856056 1_666
K14 Sn33 3.859789 1_665
K14 Sn98 3.859789 1_566
K14 Sn93 3.859789 1_656
K14 Sn35 3.963523 1_555
K14 Sn94 3.963523 1_555
K14 Sn34 3.963523 1_555
K14 Sn46 3.984030 1_655
K14 Sn41 3.984030 1_556
K14 Sn10 3.984030 1_565
K14 Sn20 4.072844 1_655
K14 Sn55 4.072844 1_565
K14 Sn52 4.072844 1_556
K14 Sn73 4.101102 1_565
K14 Sn96 4.101102 1_655
K14 Sn65 4.101102 1_556
K15 Sn59 3.813021 1_555
K15 Sn81 3.813021 1_655
K15 Sn12 3.813021 1_555
K15 Sn15 3.813021 1_555
K15 Sn8 3.813021 1_555
K15 Sn45 3.813021 1_554
K16 Sn71 3.856056 1_555
K16 Sn73 3.859789 1_555
K16 Sn63 3.859789 1_555
K16 Sn68 3.859789 1_555
K16 Sn55 3.963523 1_555
K16 Sn2 3.963523 1_555
K16 Sn60 3.963523 1_555
K16 Sn57 3.984030 1_555
K16 Sn10 3.984030 1_555
K16 Sn61 3.984030 1_555
K16 Sn94 4.072844 1_545
K16 Sn19 4.072844 1_555
K16 Sn25 4.072844 1_655
K16 Sn33 4.101102 1_655
K16 Sn22 4.101102 1_545
K16 Sn42 4.101102 1_555
K17 Sn87 3.721054 1_555
K17 Sn5 3.721054 1_555
K17 Sn3 4.008753 1_556
K17 Sn75 4.008753 1_555
K18 Sn78 3.856056 1_555
K18 Sn4 3.859789 1_555
K18 Sn65 3.859789 1_555
K18 Sn44 3.859789 1_555
K18 Sn52 3.963523 1_555
K18 Sn85 3.963523 1_555
K18 Sn64 3.963523 1_555
K18 Sn62 3.984030 1_555
K18 Sn41 3.984030 1_555
K18 Sn97 3.984030 1_555
K18 Sn35 4.072844 1_554
K18 Sn32 4.072844 1_555
K18 Sn58 4.072844 1_565
K18 Sn98 4.101102 1_565
K18 Sn24 4.101102 1_554
K18 Sn66 4.101102 1_555
K19 Sn87 3.813021 1_555
K19 Sn14 3.813021 1_555
K19 Sn23 3.813021 1_555
K19 Sn69 3.813021 1_555
K19 Sn74 3.813021 1_555
K19 Sn79 3.813021 1_555
K20 Sn59 3.721054 1_555
K20 Sn74 3.721054 1_555
K20 Sn9 4.008753 1_555
K20 Sn54 4.008753 1_555
K21 Sn18 3.856056 1_555
K21 Sn67 3.859789 1_555
K21 Sn28 3.859789 1_555
K21 Sn88 3.859789 1_555
K21 Sn91 3.963523 1_555
K21 Sn26 3.963523 1_555
K21 Sn76 3.963523 1_555
K21 Sn84 3.984030 1_555
K21 Sn17 3.984030 1_555
K21 Sn30 3.984030 1_555
K21 Sn16 4.072844 1_555
K21 Sn1 4.072844 1_555
K21 Sn39 4.072844 1_555
K21 Sn50 4.101102 1_555
K21 Sn49 4.101102 1_555
K21 Sn36 4.101102 1_555
K22 Sn95 3.721054 1_565
K22 Sn11 3.721054 1_555
K22 Sn3 4.008753 1_555
K22 Sn7 4.008753 1_555
K23 Sn77 3.721054 1_555
K23 Sn81 3.721054 1_556
K23 Sn29 4.008753 1_555
K23 Sn0 4.008753 1_555
Sn0 Sn99 2.928007 1_555
Sn0 Sn39 2.928007 1_555
Sn0 Sn25 2.928007 1_555
Sn1 Sn50 2.878970 1_555
Sn1 Sn28 2.914468 1_555
Sn1 Sn76 2.923684 1_555
Sn1 Sn7 2.928007 1_555
Sn2 Sn4 2.878970 1_545
Sn2 Sn22 2.914468 1_545
Sn2 Sn83 2.928007 1_555
Sn3 Sn64 2.928007 1_555
Sn3 Sn52 2.928007 1_555
Sn3 Sn85 2.928007 1_555
Sn4 Sn58 2.914468 1_565
Sn4 Sn97 2.932544 1_555
Sn5 Sn80 2.929465 1_555
Sn5 Sn92 2.931012 1_555
Sn6 Sn84 2.906467 1_555
Sn6 Sn67 2.929465 1_555
Sn8 Sn98 2.929465 1_555
Sn10 Sn45 2.906467 1_555
Sn10 Sn8 2.906467 1_556
Sn10 Sn33 2.932544 1_655
Sn10 Sn73 2.932544 1_555
Sn11 Sn41 2.906467 1_455
Sn11 Sn93 2.929465 1_555
Sn11 Sn48 2.931012 1_565
Sn12 Sn62 2.906467 1_555
Sn12 Sn65 2.929465 1_555
Sn12 Sn78 2.931012 1_555
Sn13 Sn28 2.878970 1_556
Sn13 Sn90 2.914468 1_555
Sn13 Sn31 2.923684 1_556
Sn13 Sn29 2.928007 1_555
Sn14 Sn61 2.906467 1_555
Sn14 Sn89 2.929465 1_555
Sn14 Sn72 2.931012 1_555
Sn15 Sn62 2.906467 1_555
Sn15 Sn36 2.929465 1_555
Sn15 Sn51 2.931012 1_554
Sn16 Sn36 2.878970 1_555
Sn16 Sn88 2.914468 1_555
Sn16 Sn26 2.923684 1_555
Sn16 Sn9 2.928007 1_555
Sn17 Sn95 2.906467 1_555
Sn17 Sn38 2.906467 1_554
Sn17 Sn28 2.932544 1_555
Sn17 Sn36 2.932544 1_555
Sn18 Sn48 2.911802 1_555
Sn18 Sn81 2.931012 1_555
Sn18 Sn95 2.931012 1_555
Sn18 Sn6 2.931012 1_555
Sn19 Sn42 2.878970 1_555
Sn19 Sn68 2.914468 1_555
Sn19 Sn2 2.923684 1_555
Sn19 Sn9 2.928007 1_555
Sn20 Sn65 2.878970 1_456
Sn20 Sn93 2.914468 1_556
Sn20 Sn34 2.923684 1_455
Sn20 Sn29 2.928007 1_555
Sn21 Sn79 2.906467 1_555
Sn21 Sn23 2.906467 1_555
Sn21 Sn80 2.932544 1_555
Sn21 Sn90 2.932544 1_555
Sn22 Sn94 2.878970 1_555
Sn22 Sn87 2.929465 1_555
Sn22 Sn57 2.932544 1_565
Sn23 Sn40 2.929465 1_555
Sn23 Sn92 2.931012 1_555
Sn24 Sn35 2.878970 1_555
Sn24 Sn85 2.914468 1_556
Sn24 Sn79 2.929465 1_555
Sn24 Sn62 2.932544 1_556
Sn25 Sn33 2.878970 1_555
Sn25 Sn63 2.914468 1_455
Sn25 Sn60 2.923684 1_455
Sn26 Sn68 2.878970 1_555
Sn26 Sn49 2.914468 1_555
Sn26 Sn54 2.928007 1_555
Sn27 Sn41 2.906467 1_555
Sn27 Sn4 2.929465 1_555
Sn27 Sn78 2.931012 1_555
Sn28 Sn81 2.929465 1_555
Sn29 Sn70 2.928007 1_555
Sn30 Sn81 2.906467 1_555
Sn30 Sn59 2.906467 1_455
Sn30 Sn67 2.932544 1_555
Sn30 Sn50 2.932544 1_555
Sn31 Sn93 2.878970 1_555
Sn31 Sn80 2.914468 1_554
Sn31 Sn7 2.928007 1_555
Sn32 Sn66 2.878970 1_555
Sn32 Sn44 2.914468 1_555
Sn32 Sn85 2.923684 1_555
Sn32 Sn7 2.928007 1_555
Sn33 Sn55 2.914468 1_455
Sn33 Sn77 2.929465 1_555
Sn34 Sn89 2.878970 1_555
Sn34 Sn96 2.914468 1_655
Sn34 Sn75 2.928007 1_555
Sn35 Sn65 2.914468 1_556
Sn35 Sn52 2.923684 1_556
Sn35 Sn75 2.928007 1_555
Sn36 Sn76 2.914468 1_555
Sn37 Sn84 2.906467 1_565
Sn37 Sn66 2.929465 1_555
Sn37 Sn53 2.931012 1_555
Sn38 Sn90 2.929465 1_555
Sn38 Sn51 2.931012 1_555
Sn39 Sn49 2.878970 1_555
Sn39 Sn67 2.914468 1_555
Sn39 Sn91 2.923684 1_555
Sn40 Sn91 2.878970 1_555
Sn40 Sn99 2.914468 1_555
Sn40 Sn56 2.932544 1_555
Sn41 Sn98 2.932544 1_565
Sn41 Sn65 2.932544 1_555
Sn42 Sn60 2.914468 1_555
Sn42 Sn59 2.929465 1_555
Sn42 Sn61 2.932544 1_555
Sn43 Sn56 2.906467 1_555
Sn43 Sn50 2.929465 1_555
Sn43 Sn72 2.931012 1_455
Sn44 Sn76 2.878970 1_555
Sn44 Sn74 2.929465 1_555
Sn44 Sn62 2.932544 1_555
Sn45 Sn63 2.929465 1_555
Sn45 Sn71 2.931012 1_555
Sn46 Sn5 2.906467 1_555
Sn46 Sn77 2.906467 1_565
Sn46 Sn93 2.932544 1_556
Sn46 Sn96 2.932544 1_555
Sn47 Sn56 2.906467 1_555
Sn47 Sn96 2.929465 1_555
Sn47 Sn92 2.931012 1_555
Sn48 Sn8 2.931012 1_455
Sn48 Sn77 2.931012 1_554
Sn49 Sn86 2.929465 1_555
Sn49 Sn84 2.932544 1_555
Sn50 Sn91 2.914468 1_555
Sn51 Sn71 2.911802 1_555
Sn51 Sn79 2.931012 1_555
Sn52 Sn73 2.878970 1_564
Sn52 Sn98 2.914468 1_565
Sn53 Sn92 2.911802 1_555
Sn53 Sn87 2.931012 1_555
Sn53 Sn86 2.931012 1_565
Sn54 Sn91 2.928007 1_555
Sn54 Sn76 2.928007 1_555
Sn55 Sn96 2.878970 1_645
Sn55 Sn94 2.923684 1_545
Sn55 Sn83 2.928007 1_555
Sn56 Sn89 2.932544 1_455
Sn57 Sn86 2.906467 1_555
Sn57 Sn82 2.906467 1_555
Sn57 Sn68 2.932544 1_555
Sn58 Sn98 2.878970 1_555
Sn58 Sn64 2.923684 1_545
Sn58 Sn9 2.928007 1_555
Sn59 Sn72 2.931012 1_555
Sn60 Sn67 2.878970 1_655
Sn60 Sn83 2.928007 1_555
Sn61 Sn69 2.906467 1_555
Sn61 Sn63 2.932544 1_555
Sn63 Sn70 2.878970 1_655
Sn64 Sn88 2.878970 1_565
Sn64 Sn66 2.914468 1_555
Sn66 Sn97 2.932544 1_555
Sn68 Sn69 2.929465 1_555
Sn69 Sn71 2.931012 1_555
Sn70 Sn89 2.914468 1_455
Sn70 Sn99 2.923684 1_555
Sn71 Sn82 2.931012 1_555
Sn72 Sn78 2.911802 1_555
Sn73 Sn94 2.914468 1_545
Sn73 Sn82 2.929465 1_555
Sn74 Sn97 2.906467 1_555
Sn74 Sn78 2.931012 1_555
Sn75 Sn94 2.928007 1_555
Sn80 Sn85 2.878970 1_556
Sn84 Sn88 2.932544 1_555
Sn87 Sn97 2.906467 1_555
Sn88 Sn95 2.929465 1_555
Sn90 Sn99 2.878970 1_555
