# generated using pymatgen
data_SmSnPd
_symmetry_space_group_name_H-M   'P 1'
_cell_length_a   4.67302967
_cell_length_b   7.38738107
_cell_length_c   7.97100576
_cell_angle_alpha   90.00000000
_cell_angle_beta   90.00000000
_cell_angle_gamma   90.00000000
_symmetry_Int_Tables_number   1
_chemical_formula_structural   SmSnPd
_chemical_formula_sum   'Sm4 Sn4 Pd4'
_cell_volume   275.17068416
_cell_formula_units_Z   4
loop_
 _symmetry_equiv_pos_site_id
 _symmetry_equiv_pos_as_xyz
  1  'x, y, z'
loop_
 _atom_site_type_symbol
 _atom_site_label
 _atom_site_symmetry_multiplicity
 _atom_site_fract_x
 _atom_site_fract_y
 _atom_site_fract_z
 _atom_site_occupancy
  Sm  Sm0  1  0.75000000  0.51024646  0.20468736  1
  Sm  Sm1  1  0.75000000  0.01024646  0.29531264  1
  Sm  Sm2  1  0.25000000  0.98975354  0.70468736  1
  Sm  Sm3  1  0.25000000  0.48975354  0.79531264  1
  Sn  Sn0  1  0.75000000  0.19150799  0.91240195  1
  Sn  Sn1  1  0.75000000  0.69150799  0.58759805  1
  Sn  Sn2  1  0.25000000  0.80849201  0.08759805  1
  Sn  Sn3  1  0.25000000  0.30849201  0.41240195  1
  Pd  Pd0  1  0.75000000  0.79845940  0.91660187  1
  Pd  Pd1  1  0.25000000  0.20154060  0.08339813  1
  Pd  Pd2  1  0.75000000  0.29845940  0.58339813  1
  Pd  Pd3  1  0.25000000  0.70154060  0.41660187  1
loop_
_geom_bond_atom_site_label_1
_geom_bond_atom_site_label_2
_geom_bond_distance
_geom_bond_site_symmetry_2
Sm0 Sn3 3.228316 1_555
Sm0 Sn3 3.228316 1_655
Sm0 Sn0 3.312454 1_554
Sm0 Sn1 3.332998 1_555
Sm0 Sn2 3.344355 1_555
Sm0 Sn2 3.344355 1_655
Sm1 Sn2 3.228316 1_545
Sm1 Sn2 3.228316 1_645
Sm1 Sn1 3.312454 1_545
Sm1 Sn0 3.332998 1_554
Sm1 Sn3 3.344355 1_655
Sm1 Sn3 3.344355 1_555
Sm2 Sn0 3.228316 1_565
Sm2 Sn0 3.228316 1_465
Sm2 Sn3 3.312454 1_565
Sm2 Sn2 3.332998 1_556
Sm2 Sn1 3.344355 1_555
Sm2 Sn1 3.344355 1_455
Sm3 Sn1 3.228316 1_455
Sm3 Sn1 3.228316 1_555
Sm3 Sn2 3.312454 1_556
Sm3 Sn3 3.332998 1_555
Sm3 Sn0 3.344355 1_455
Sm3 Sn0 3.344355 1_555
Pd0 Sn2 2.706029 1_656
Pd0 Sn2 2.706029 1_556
Pd0 Sn1 2.738924 1_555
Pd0 Sn0 2.903793 1_565
Pd0 Sm0 3.131512 1_556
Pd0 Sm2 3.210862 1_655
Pd0 Sm2 3.210862 1_555
Pd0 Sm1 3.400060 1_566
Pd0 Sm3 3.405115 1_555
Pd0 Sm3 3.405115 1_655
Pd1 Sn0 2.706029 1_554
Pd1 Sn0 2.706029 1_454
Pd1 Sn3 2.738924 1_555
Pd1 Sn2 2.903793 1_545
Pd1 Sm3 3.131512 1_554
Pd1 Sm1 3.210862 1_555
Pd1 Sm1 3.210862 1_455
Pd1 Sm2 3.400060 1_544
Pd1 Sm0 3.405115 1_455
Pd1 Sm0 3.405115 1_555
Pd2 Sn3 2.706029 1_555
Pd2 Sn3 2.706029 1_655
Pd2 Sn0 2.738924 1_555
Pd2 Sn1 2.903793 1_555
Pd2 Sm1 3.131512 1_555
Pd2 Sm3 3.210862 1_555
Pd2 Sm3 3.210862 1_655
Pd2 Sm0 3.400060 1_555
Pd2 Sm2 3.405115 1_545
Pd2 Sm2 3.405115 1_645
Pd3 Sn1 2.706029 1_555
Pd3 Sn1 2.706029 1_455
Pd3 Sn2 2.738924 1_555
Pd3 Sn3 2.903793 1_555
Pd3 Sm2 3.131512 1_555
Pd3 Sm0 3.210862 1_455
Pd3 Sm0 3.210862 1_555
Pd3 Sm3 3.400060 1_555
Pd3 Sm1 3.405115 1_565
Pd3 Sm1 3.405115 1_465
