# generated using pymatgen
data_ScSbPd
_symmetry_space_group_name_H-M   'P 1'
_cell_length_a   4.49013929
_cell_length_b   4.49013880
_cell_length_c   4.49013962
_cell_angle_alpha   59.99999396
_cell_angle_beta   59.99999759
_cell_angle_gamma   59.99999915
_symmetry_Int_Tables_number   1
_chemical_formula_structural   ScSbPd
_chemical_formula_sum   'Sc1 Sb1 Pd1'
_cell_volume   64.01244229
_cell_formula_units_Z   1
loop_
 _symmetry_equiv_pos_site_id
 _symmetry_equiv_pos_as_xyz
  1  'x, y, z'
loop_
 _atom_site_type_symbol
 _atom_site_label
 _atom_site_symmetry_multiplicity
 _atom_site_fract_x
 _atom_site_fract_y
 _atom_site_fract_z
 _atom_site_occupancy
  Sc  Sc0  1  0.50000000  0.50000000  0.50000000  1
  Sb  Sb0  1  0.00000000  0.00000000  -0.00000000  1
  Pd  Pd0  1  0.25000000  0.25000000  0.25000000  1
loop_
_geom_bond_atom_site_label_1
_geom_bond_atom_site_label_2
_geom_bond_distance
_geom_bond_site_symmetry_2
Sb0 Sc0 3.175008 1_554
Sb0 Sc0 3.175008 1_445
Sb0 Sc0 3.175008 1_454
Sb0 Sc0 3.175008 1_544
Sb0 Sc0 3.175008 1_545
Sb0 Sc0 3.175008 1_455
Pd0 Sc0 2.749637 1_545
Pd0 Sb0 2.749637 1_565
Pd0 Sc0 2.749638 1_455
Pd0 Sb0 2.749638 1_655
Pd0 Sc0 2.749638 1_555
Pd0 Sc0 2.749638 1_554
Pd0 Sb0 2.749638 1_555
Pd0 Sb0 2.749638 1_556
