# generated using pymatgen
data_YbBr2
_symmetry_space_group_name_H-M   'P 1'
_cell_length_a   6.81339304
_cell_length_b   6.36025857
_cell_length_c   8.09263628
_cell_angle_alpha   90.00000000
_cell_angle_beta   90.00000000
_cell_angle_gamma   90.00000000
_symmetry_Int_Tables_number   1
_chemical_formula_structural   YbBr2
_chemical_formula_sum   'Yb4 Br8'
_cell_volume   350.69391962
_cell_formula_units_Z   4
loop_
 _symmetry_equiv_pos_site_id
 _symmetry_equiv_pos_as_xyz
  1  'x, y, z'
loop_
 _atom_site_type_symbol
 _atom_site_label
 _atom_site_symmetry_multiplicity
 _atom_site_fract_x
 _atom_site_fract_y
 _atom_site_fract_z
 _atom_site_occupancy
  Yb  Yb0  1  0.00000000  0.25000000  0.59295459  1
  Yb  Yb1  1  0.50000000  0.75000000  0.90704541  1
  Yb  Yb2  1  0.00000000  0.75000000  0.40704541  1
  Yb  Yb3  1  0.50000000  0.25000000  0.09295459  1
  Br  Br0  1  0.23174390  0.08902876  0.86144497  1
  Br  Br1  1  0.26825610  0.58902876  0.63855503  1
  Br  Br2  1  0.73174390  0.91097124  0.63855503  1
  Br  Br3  1  0.76825610  0.41097124  0.86144497  1
  Br  Br4  1  0.76825610  0.91097124  0.13855503  1
  Br  Br5  1  0.73174390  0.41097124  0.36144497  1
  Br  Br6  1  0.26825610  0.08902876  0.36144497  1
  Br  Br7  1  0.23174390  0.58902876  0.13855503  1
loop_
_geom_bond_atom_site_label_1
_geom_bond_atom_site_label_2
_geom_bond_distance
_geom_bond_site_symmetry_2
Br0 Yb3 2.810499 1_556
Br0 Yb1 2.850696 1_545
Br0 Yb0 2.874433 1_555
Br1 Yb2 2.810499 1_555
Br1 Yb0 2.850696 1_555
Br1 Yb1 2.874433 1_555
Br2 Yb2 2.810499 1_655
Br2 Yb0 2.850696 1_665
Br2 Yb1 2.874433 1_555
Br3 Yb3 2.810499 1_556
Br3 Yb1 2.850696 1_555
Br3 Yb0 2.874433 1_655
Br4 Yb1 2.810499 1_554
Br4 Yb3 2.850696 1_565
Br4 Yb2 2.874433 1_655
Br5 Yb0 2.810499 1_655
Br5 Yb2 2.850696 1_655
Br5 Yb3 2.874433 1_555
Br6 Yb0 2.810499 1_555
Br6 Yb2 2.850696 1_545
Br6 Yb3 2.874433 1_555
Br7 Yb1 2.810499 1_554
Br7 Yb3 2.850696 1_555
Br7 Yb2 2.874433 1_555
