# generated using pymatgen
data_Cs3LaCl6
_symmetry_space_group_name_H-M   'P 1'
_cell_length_a   14.33125184
_cell_length_b   14.33125184
_cell_length_c   13.38423116
_cell_angle_alpha   80.68272455
_cell_angle_beta   80.68272455
_cell_angle_gamma   33.93945432
_symmetry_Int_Tables_number   1
_chemical_formula_structural   Cs3LaCl6
_chemical_formula_sum   'Cs12 La4 Cl24'
_cell_volume   1512.61847261
_cell_formula_units_Z   4
loop_
 _symmetry_equiv_pos_site_id
 _symmetry_equiv_pos_as_xyz
  1  'x, y, z'
loop_
 _atom_site_type_symbol
 _atom_site_label
 _atom_site_symmetry_multiplicity
 _atom_site_fract_x
 _atom_site_fract_y
 _atom_site_fract_z
 _atom_site_occupancy
  Cs  Cs0  1  0.65153857  0.02437758  0.80126229  1
  Cs  Cs1  1  0.53166532  0.16134300  0.14549229  1
  Cs  Cs2  1  0.46833468  0.83865700  0.85450771  1
  Cs  Cs3  1  0.97562242  0.34846143  0.69873771  1
  Cs  Cs4  1  0.30359091  0.79740818  0.56700827  1
  Cs  Cs5  1  0.34846143  0.97562242  0.19873771  1
  Cs  Cs6  1  0.83865700  0.46833468  0.35450771  1
  Cs  Cs7  1  0.02437758  0.65153857  0.30126229  1
  Cs  Cs8  1  0.69640909  0.20259182  0.43299173  1
  Cs  Cs9  1  0.20259182  0.69640909  0.93299173  1
  Cs  Cs10  1  0.79740818  0.30359091  0.06700827  1
  Cs  Cs11  1  0.16134300  0.53166532  0.64549229  1
  La  La0  1  0.20793461  0.79206539  0.25000000  1
  La  La1  1  0.50000000  0.00000000  0.50000000  1
  La  La2  1  0.79206539  0.20793461  0.75000000  1
  La  La3  1  -0.00000000  0.50000000  0.00000000  1
  Cl  Cl0  1  0.27768120  0.38198898  0.92040955  1
  Cl  Cl1  1  0.38198898  0.27768120  0.42040955  1
  Cl  Cl2  1  0.01851434  0.10126749  0.29976509  1
  Cl  Cl3  1  0.85878459  0.64085203  0.81000815  1
  Cl  Cl4  1  0.61801102  0.72231880  0.57959045  1
  Cl  Cl5  1  0.10126749  0.01851434  0.79976509  1
  Cl  Cl6  1  0.13632677  0.21578410  0.96539665  1
  Cl  Cl7  1  0.86367323  0.78421590  0.03460335  1
  Cl  Cl8  1  0.72752662  0.15690965  0.94014819  1
  Cl  Cl9  1  0.64085203  0.85878459  0.31000815  1
  Cl  Cl10  1  0.84309035  0.27247338  0.55985181  1
  Cl  Cl11  1  0.62095082  0.49703061  0.82179278  1
  Cl  Cl12  1  0.37904918  0.50296939  0.17820722  1
  Cl  Cl13  1  0.98148566  0.89873251  0.70023491  1
  Cl  Cl14  1  0.78421590  0.86367323  0.53460335  1
  Cl  Cl15  1  0.89873251  0.98148566  0.20023491  1
  Cl  Cl16  1  0.49703061  0.62095082  0.32179278  1
  Cl  Cl17  1  0.27247338  0.84309035  0.05985181  1
  Cl  Cl18  1  0.72231880  0.61801102  0.07959045  1
  Cl  Cl19  1  0.15690965  0.72752662  0.44014819  1
  Cl  Cl20  1  0.50296939  0.37904918  0.67820722  1
  Cl  Cl21  1  0.14121541  0.35914797  0.18999185  1
  Cl  Cl22  1  0.35914797  0.14121541  0.68999185  1
  Cl  Cl23  1  0.21578410  0.13632677  0.46539665  1
loop_
_geom_bond_atom_site_label_1
_geom_bond_atom_site_label_2
_geom_bond_distance
_geom_bond_site_symmetry_2
Cl0 La3 2.806241 1_556
Cl0 Cs0 3.439991 1_555
Cl0 Cs9 3.692147 1_555
Cl0 Cs1 3.700239 1_556
Cl0 Cs11 3.796944 1_555
Cl1 La1 2.806241 1_555
Cl1 Cs7 3.439991 1_555
Cl1 Cs8 3.692147 1_555
Cl1 Cs11 3.700239 1_555
Cl1 Cs1 3.796944 1_555
Cl2 La0 2.803490 1_545
Cl2 Cs5 3.467031 1_545
Cl2 Cs6 3.604425 1_455
Cl2 Cs10 3.630374 1_455
Cl2 Cs8 3.694330 1_455
Cl3 La3 2.804039 1_656
Cl3 Cs0 3.444236 1_565
Cl3 Cs3 3.485924 1_555
Cl3 Cs2 3.584632 1_555
Cl3 Cs11 3.586695 1_655
Cl4 La1 2.806241 1_565
Cl4 Cs3 3.439991 1_555
Cl4 Cs4 3.692147 1_555
Cl4 Cs6 3.700239 1_555
Cl4 Cs2 3.796944 1_555
Cl5 La2 2.803490 1_455
Cl5 Cs3 3.467031 1_455
Cl5 Cs2 3.604425 1_545
Cl5 Cs4 3.630374 1_545
Cl5 Cs9 3.694330 1_545
Cl6 La3 2.781358 1_556
Cl6 Cs2 3.419677 1_545
Cl6 Cs5 3.615836 1_546
Cl6 Cs3 3.854301 1_455
Cl6 Cs10 3.911323 1_456
Cl7 La3 2.781358 1_655
Cl7 Cs1 3.419677 1_565
Cl7 Cs0 3.615836 1_564
Cl7 Cs7 3.854301 1_655
Cl7 Cs9 3.911323 1_654
Cl8 La2 2.761268 1_555
Cl8 Cs1 3.563585 1_556
Cl8 Cs0 3.671461 1_555
Cl8 Cs10 3.674830 1_556
Cl8 Cs9 3.918728 1_645
Cl9 La1 2.804039 1_565
Cl9 Cs7 3.444236 1_655
Cl9 Cs5 3.485924 1_555
Cl9 Cs6 3.584632 1_555
Cl9 Cs1 3.586695 1_565
Cl10 La2 2.761268 1_555
Cl10 Cs6 3.563585 1_555
Cl10 Cs3 3.671461 1_555
Cl10 Cs8 3.674830 1_555
Cl10 Cs4 3.918728 1_645
Cl11 La2 2.787518 1_555
Cl11 Cs2 3.400280 1_555
Cl11 Cs10 3.600147 1_556
Cl11 Cs3 3.680954 1_555
Cl11 Cs9 4.048314 1_555
Cl12 La0 2.787518 1_555
Cl12 Cs1 3.400280 1_555
Cl12 Cs9 3.600147 1_554
Cl12 Cs7 3.680954 1_555
Cl12 Cs10 4.048314 1_555
Cl13 La2 2.803490 1_565
Cl13 Cs0 3.467031 1_565
Cl13 Cs11 3.604425 1_655
Cl13 Cs9 3.630374 1_655
Cl13 Cs4 3.694330 1_655
Cl14 La1 2.781358 1_565
Cl14 Cs11 3.419677 1_655
Cl14 Cs7 3.615836 1_655
Cl14 Cs0 3.854301 1_565
Cl14 Cs8 3.911323 1_565
Cl15 La0 2.803490 1_655
Cl15 Cs7 3.467031 1_655
Cl15 Cs1 3.604425 1_565
Cl15 Cs8 3.630374 1_565
Cl15 Cs10 3.694330 1_565
Cl16 La0 2.787518 1_555
Cl16 Cs6 3.400280 1_555
Cl16 Cs4 3.600147 1_555
Cl16 Cs5 3.680954 1_555
Cl16 Cs8 4.048314 1_555
Cl17 La0 2.761268 1_555
Cl17 Cs2 3.563585 1_554
Cl17 Cs5 3.671461 1_555
Cl17 Cs9 3.674830 1_554
Cl17 Cs10 3.918728 1_465
Cl18 La3 2.806241 1_655
Cl18 Cs5 3.439991 1_555
Cl18 Cs10 3.692147 1_555
Cl18 Cs2 3.700239 1_554
Cl18 Cs6 3.796944 1_555
Cl19 La0 2.761268 1_555
Cl19 Cs11 3.563585 1_555
Cl19 Cs7 3.671461 1_555
Cl19 Cs4 3.674830 1_555
Cl19 Cs8 3.918728 1_465
Cl20 La2 2.787518 1_555
Cl20 Cs11 3.400280 1_555
Cl20 Cs8 3.600147 1_555
Cl20 Cs0 3.680954 1_555
Cl20 Cs4 4.048314 1_555
Cl21 La3 2.804039 1_555
Cl21 Cs5 3.444236 1_545
Cl21 Cs7 3.485924 1_555
Cl21 Cs1 3.584632 1_555
Cl21 Cs6 3.586695 1_455
Cl22 La1 2.804039 1_555
Cl22 Cs3 3.444236 1_455
Cl22 Cs0 3.485924 1_555
Cl22 Cs11 3.584632 1_555
Cl22 Cs2 3.586695 1_545
Cl23 La1 2.781358 1_555
Cl23 Cs6 3.419677 1_455
Cl23 Cs3 3.615836 1_455
Cl23 Cs5 3.854301 1_545
Cl23 Cs4 3.911323 1_545
