# generated using pymatgen
data_Na2CrNiF7
_symmetry_space_group_name_H-M   'P 1'
_cell_length_a   7.22675795
_cell_length_b   7.22675795
_cell_length_c   7.22675795
_cell_angle_alpha   120.86503853
_cell_angle_beta   118.65561519
_cell_angle_gamma   90.42620237
_symmetry_Int_Tables_number   1
_chemical_formula_structural   Na2CrNiF7
_chemical_formula_sum   'Na4 Cr2 Ni2 F14'
_cell_volume   267.71514246
_cell_formula_units_Z   2
loop_
 _symmetry_equiv_pos_site_id
 _symmetry_equiv_pos_as_xyz
  1  'x, y, z'
loop_
 _atom_site_type_symbol
 _atom_site_label
 _atom_site_symmetry_multiplicity
 _atom_site_fract_x
 _atom_site_fract_y
 _atom_site_fract_z
 _atom_site_occupancy
  Na  Na0  1  0.50000000  0.50000000  0.00000000  1
  Na  Na1  1  0.00000000  0.00000000  0.00000000  1
  Na  Na2  1  0.50000000  0.50000000  0.50000000  1
  Na  Na3  1  0.50000000  0.00000000  0.00000000  1
  Cr  Cr0  1  0.00000000  0.50000000  0.50000000  1
  Cr  Cr1  1  0.50000000  0.00000000  0.50000000  1
  Ni  Ni0  1  0.00000000  0.50000000  0.00000000  1
  Ni  Ni1  1  0.00000000  0.00000000  0.50000000  1
  F  F0  1  0.36134008  0.09116876  0.27017132  1
  F  F1  1  0.89159242  0.75000000  0.14159242  1
  F  F2  1  0.32183499  0.08442274  0.63771566  1
  F  F3  1  0.67816501  0.91557726  0.36228434  1
  F  F4  1  0.05329292  0.41557726  0.23741225  1
  F  F5  1  0.94670708  0.58442274  0.76258775  1
  F  F6  1  0.67900256  0.40883124  0.27017132  1
  F  F7  1  0.63865992  0.90883124  0.72982868  1
  F  F8  1  0.10840758  0.25000000  0.85840758  1
  F  F9  1  0.05329292  0.81588068  0.63771566  1
  F  F10  1  0.94670708  0.18411932  0.36228434  1
  F  F11  1  0.32183499  0.68411932  0.23741225  1
  F  F12  1  0.32099744  0.59116876  0.72982868  1
  F  F13  1  0.67816501  0.31588068  0.76258775  1
loop_
_geom_bond_atom_site_label_1
_geom_bond_atom_site_label_2
_geom_bond_distance
_geom_bond_site_symmetry_2
Cr0 F4 1.907407 1_555
Cr0 F5 1.907407 1_455
Cr0 F10 1.907407 1_455
Cr0 F9 1.907407 1_555
Cr0 F6 1.932156 1_455
Cr0 F12 1.932156 1_555
Cr1 F3 1.907407 1_545
Cr1 F2 1.907407 1_555
Cr1 F11 1.907407 1_545
Cr1 F13 1.907407 1_555
Cr1 F7 1.932156 1_545
Cr1 F0 1.932156 1_555
F0 Na1 2.197679 1_555
F0 Na2 2.411786 1_555
F0 Na3 2.411786 1_555
F1 Ni0 1.953977 1_655
F1 Ni1 1.953977 1_665
F1 Na1 2.751287 1_665
F1 Na0 2.751287 1_555
F2 Ni1 1.976870 1_555
F2 Na0 2.484713 1_556
F2 Na3 2.702260 1_556
F3 Ni1 1.976870 1_665
F3 Na0 2.484713 1_555
F3 Na3 2.702260 1_565
F4 Ni0 1.976870 1_555
F4 Na1 2.484713 1_555
F4 Na2 2.702260 1_555
F5 Ni0 1.976870 1_656
F5 Na1 2.484713 1_666
F5 Na2 2.702260 1_555
F6 Na0 2.197679 1_555
F6 Na3 2.411786 1_555
F6 Na2 2.411786 1_555
F7 Na1 2.197679 1_666
F7 Na2 2.411786 1_555
F7 Na3 2.411786 1_566
F8 Ni1 1.953977 1_555
F8 Ni0 1.953977 1_556
F8 Na0 2.751287 1_556
F8 Na1 2.751287 1_556
F9 Ni1 1.976870 1_565
F9 Na1 2.484713 1_566
F9 Na3 2.702260 1_566
F10 Ni1 1.976870 1_655
F10 Na1 2.484713 1_655
F10 Na3 2.702260 1_555
F11 Ni0 1.976870 1_555
F11 Na0 2.484713 1_555
F11 Na2 2.702260 1_555
F12 Na0 2.197679 1_556
F12 Na2 2.411786 1_555
F12 Na3 2.411786 1_566
F13 Ni0 1.976870 1_656
F13 Na0 2.484713 1_556
F13 Na2 2.702260 1_555
