# generated using pymatgen
data_Na9V14O35
_symmetry_space_group_name_H-M   'P 1'
_cell_length_a   5.22175405
_cell_length_b   15.36364725
_cell_length_c   21.05163428
_cell_angle_alpha   109.07215237
_cell_angle_beta   90.00000000
_cell_angle_gamma   90.00000000
_symmetry_Int_Tables_number   1
_chemical_formula_structural   Na9V14O35
_chemical_formula_sum   'Na18 V28 O70'
_cell_volume   1596.16550714
_cell_formula_units_Z   2
loop_
 _symmetry_equiv_pos_site_id
 _symmetry_equiv_pos_as_xyz
  1  'x, y, z'
loop_
 _atom_site_type_symbol
 _atom_site_label
 _atom_site_symmetry_multiplicity
 _atom_site_fract_x
 _atom_site_fract_y
 _atom_site_fract_z
 _atom_site_occupancy
  Na  Na0  1  0.40963972  0.00000000  0.75000000  1
  Na  Na1  1  0.37191689  0.56902943  0.84847124  1
  Na  Na2  1  0.62808311  0.56902943  0.34847124  1
  Na  Na3  1  0.62170566  0.34927091  0.38377432  1
  Na  Na4  1  0.36736948  0.86661334  0.57754419  1
  Na  Na5  1  0.61273661  0.78257194  0.30216831  1
  Na  Na6  1  0.63263052  0.13338666  0.42245581  1
  Na  Na7  1  0.62170566  0.65072909  0.11622568  1
  Na  Na8  1  0.59036028  0.00000000  0.25000000  1
  Na  Na9  1  0.37829434  0.65072909  0.61622568  1
  Na  Na10  1  0.38726339  0.78257194  0.80216831  1
  Na  Na11  1  0.38726339  0.21742806  0.69783169  1
  Na  Na12  1  0.63263052  0.86661334  0.07754419  1
  Na  Na13  1  0.37191689  0.43097057  0.65152876  1
  Na  Na14  1  0.37829434  0.34927091  0.88377432  1
  Na  Na15  1  0.36736948  0.13338666  0.92245581  1
  Na  Na16  1  0.61273661  0.21742806  0.19783169  1
  Na  Na17  1  0.62808311  0.43097057  0.15152876  1
  V  V0  1  0.10004416  0.69967551  0.02387086  1
  V  V1  1  0.85400388  0.40284987  0.76860997  1
  V  V2  1  0.89957242  0.48819886  0.56509333  1
  V  V3  1  0.89910976  0.27614004  0.60687623  1
  V  V4  1  0.08204255  0.06429297  0.15143017  1
  V  V5  1  0.10042758  0.51180114  0.43490667  1
  V  V6  1  0.88864721  0.90890107  0.47961832  1
  V  V7  1  0.08204255  0.93570703  0.34856983  1
  V  V8  1  0.14599612  0.59715013  0.23139003  1
  V  V9  1  0.11135279  0.09109893  0.52038168  1
  V  V10  1  0.11135279  0.90890107  0.97961832  1
  V  V11  1  0.07386165  0.14395073  0.31792545  1
  V  V12  1  0.07386165  0.85604927  0.18207455  1
  V  V13  1  0.89995584  0.30032449  0.97612914  1
  V  V14  1  0.88864721  0.09109893  0.02038168  1
  V  V15  1  0.89957242  0.51180114  0.93490667  1
  V  V16  1  0.89995584  0.69967551  0.52387086  1
  V  V17  1  0.91795745  0.93570703  0.84856983  1
  V  V18  1  0.92613835  0.14395073  0.81792545  1
  V  V19  1  0.10089024  0.72385996  0.39312377  1
  V  V20  1  0.10004416  0.30032449  0.47612914  1
  V  V21  1  0.85400388  0.59715013  0.73139003  1
  V  V22  1  0.10042758  0.48819886  0.06509333  1
  V  V23  1  0.10089024  0.27614004  0.10687623  1
  V  V24  1  0.91795745  0.06429297  0.65143017  1
  V  V25  1  0.92613835  0.85604927  0.68207455  1
  V  V26  1  0.14599612  0.40284987  0.26860997  1
  V  V27  1  0.89910976  0.72385996  0.89312377  1
  O  O0  1  0.41326616  0.50030053  0.08126902  1
  O  O1  1  0.03336765  0.20215109  0.01015237  1
  O  O2  1  0.41316480  0.71117513  0.37683087  1
  O  O3  1  0.03532947  0.16140439  0.61485030  1
  O  O4  1  0.03412669  0.62798193  0.92725014  1
  O  O5  1  0.03995060  0.41648879  0.96853487  1
  O  O6  1  0.95517397  0.44696038  0.34065749  1
  O  O7  1  0.96467053  0.83859561  0.38514970  1
  O  O8  1  0.60570334  0.86176164  0.67940958  1
  O  O9  1  0.04482603  0.44696038  0.84065749  1
  O  O10  1  0.03943157  0.00813448  0.94164916  1
  O  O11  1  0.60570334  0.13823836  0.82059042  1
  O  O12  1  0.95186055  0.23627997  0.38567382  1
  O  O13  1  0.58673384  0.50030053  0.58126902  1
  O  O14  1  0.41316480  0.28882487  0.12316913  1
  O  O15  1  0.96587331  0.62798193  0.42725014  1
  O  O16  1  0.39958150  0.93548259  0.34235659  1
  O  O17  1  0.41352795  0.70944790  0.03722677  1
  O  O18  1  0.95306518  0.34707181  0.19889507  1
  O  O19  1  0.95517397  0.55303962  0.15934251  1
  O  O20  1  0.96467053  0.16140439  0.11485030  1
  O  O21  1  0.58078949  0.09817549  0.00860203  1
  O  O22  1  0.05162330  0.95837843  0.67335312  1
  O  O23  1  0.41921051  0.09817549  0.50860203  1
  O  O24  1  0.04813945  0.76372003  0.61432618  1
  O  O25  1  0.41921051  0.90182451  0.99139797  1
  O  O26  1  0.60041850  0.93548259  0.84235659  1
  O  O27  1  0.62299715  0.66523637  0.71907586  1
  O  O28  1  0.03718542  0.14694009  0.73893827  1
  O  O29  1  0.62299715  0.33476363  0.78092414  1
  O  O30  1  0.96587331  0.37201807  0.07274986  1
  O  O31  1  0.96281458  0.14694009  0.23893827  1
  O  O32  1  0.04693482  0.34707181  0.69889507  1
  O  O33  1  0.03943157  0.99186552  0.55835084  1
  O  O34  1  0.58647205  0.70944790  0.53722677  1
  O  O35  1  0.03412669  0.37201807  0.57274986  1
  O  O36  1  0.96056843  0.99186552  0.05835084  1
  O  O37  1  0.60041850  0.06451741  0.65764341  1
  O  O38  1  0.39429666  0.86176164  0.17940958  1
  O  O39  1  0.58078949  0.90182451  0.49139797  1
  O  O40  1  0.96281458  0.85305991  0.26106173  1
  O  O41  1  0.96056843  0.00813448  0.44164916  1
  O  O42  1  0.04693482  0.65292819  0.80110493  1
  O  O43  1  0.03532947  0.83859561  0.88514970  1
  O  O44  1  0.04813945  0.23627997  0.88567382  1
  O  O45  1  0.58673384  0.49969947  0.91873098  1
  O  O46  1  0.05162330  0.04162157  0.82664688  1
  O  O47  1  0.03718542  0.85305991  0.76106173  1
  O  O48  1  0.58683520  0.71117513  0.87683087  1
  O  O49  1  0.41326616  0.49969947  0.41873098  1
  O  O50  1  0.41352795  0.29055210  0.46277323  1
  O  O51  1  0.03995060  0.58351121  0.53146513  1
  O  O52  1  0.94837670  0.95837843  0.17335312  1
  O  O53  1  0.39958150  0.06451741  0.15764341  1
  O  O54  1  0.96004940  0.41648879  0.46853487  1
  O  O55  1  0.69330741  0.50000000  0.75000000  1
  O  O56  1  0.04482603  0.55303962  0.65934251  1
  O  O57  1  0.37700285  0.33476363  0.28092414  1
  O  O58  1  0.94837670  0.04162157  0.32664688  1
  O  O59  1  0.03336765  0.79784891  0.48984763  1
  O  O60  1  0.96663235  0.20215109  0.51015237  1
  O  O61  1  0.39429666  0.13823836  0.32059042  1
  O  O62  1  0.96663235  0.79784891  0.98984763  1
  O  O63  1  0.58683520  0.28882487  0.62316913  1
  O  O64  1  0.95306518  0.65292819  0.30110493  1
  O  O65  1  0.95186055  0.76372003  0.11432618  1
  O  O66  1  0.58647205  0.29055210  0.96277323  1
  O  O67  1  0.96004940  0.58351121  0.03146513  1
  O  O68  1  0.30669159  0.50000000  0.25000000  1
  O  O69  1  0.37700285  0.66523637  0.21907586  1
loop_
_geom_bond_atom_site_label_1
_geom_bond_atom_site_label_2
_geom_bond_distance
_geom_bond_site_symmetry_2
Na0 O8 2.388435 1_545
Na0 O11 2.388435 1_555
Na0 O22 2.415173 1_545
Na0 O46 2.415173 1_555
Na0 O26 2.648495 1_545
Na0 O37 2.648495 1_555
Na1 O48 2.352260 1_555
Na1 O45 2.368565 1_555
Na1 O4 2.387524 1_555
Na1 O9 2.501979 1_555
Na1 O42 2.524971 1_555
Na1 O55 2.608004 1_555
Na2 O2 2.352260 1_555
Na2 O49 2.368565 1_555
Na2 O15 2.387524 1_555
Na2 O6 2.501979 1_555
Na2 O64 2.524971 1_555
Na2 O68 2.608007 1_555
Na3 O50 2.396197 1_555
Na3 O49 2.440504 1_555
Na3 O12 2.456141 1_555
Na3 O57 2.460682 1_555
Na3 O54 2.483454 1_555
Na3 O6 2.645536 1_555
Na4 O39 2.337646 1_555
Na4 O8 2.501488 1_555
Na4 O59 2.508305 1_555
Na4 O34 2.553521 1_555
Na4 O24 2.584026 1_555
Na4 O22 2.629780 1_555
Na4 O33 2.703106 1_555
Na5 O69 2.400834 1_555
Na5 O40 2.423992 1_555
Na5 O2 2.426193 1_555
Na5 O16 2.484911 1_555
Na5 O7 2.487378 1_555
Na5 O64 2.663974 1_555
Na6 O23 2.337646 1_555
Na6 O61 2.501488 1_555
Na6 O60 2.508305 1_555
Na6 O50 2.553521 1_555
Na6 O12 2.584026 1_555
Na6 O58 2.629780 1_555
Na6 O41 2.703106 1_555
Na7 O17 2.396197 1_555
Na7 O0 2.440504 1_555
Na7 O65 2.456141 1_555
Na7 O69 2.460682 1_555
Na7 O67 2.483454 1_555
Na7 O19 2.645536 1_555
Na8 O38 2.388435 1_545
Na8 O61 2.388435 1_555
Na8 O58 2.415173 1_555
Na8 O52 2.415173 1_545
Na8 O53 2.648495 1_555
Na8 O16 2.648495 1_545
Na9 O34 2.396197 1_555
Na9 O13 2.440504 1_555
Na9 O24 2.456141 1_555
Na9 O27 2.460682 1_555
Na9 O51 2.483454 1_555
Na9 O56 2.645536 1_555
Na10 O27 2.400834 1_555
Na10 O47 2.423992 1_555
Na10 O48 2.426193 1_555
Na10 O26 2.484911 1_555
Na10 O43 2.487378 1_555
Na10 O42 2.663974 1_555
Na11 O29 2.400834 1_555
Na11 O28 2.423992 1_555
Na11 O63 2.426193 1_555
Na11 O37 2.484911 1_555
Na11 O3 2.487378 1_555
Na11 O32 2.663974 1_555
Na12 O25 2.337646 1_554
Na12 O38 2.501488 1_555
Na12 O62 2.508305 1_554
Na12 O17 2.553521 1_555
Na12 O65 2.584026 1_555
Na12 O52 2.629780 1_555
Na12 O36 2.703106 1_555
Na13 O63 2.352260 1_555
Na13 O13 2.368565 1_555
Na13 O35 2.387524 1_555
Na13 O56 2.501979 1_555
Na13 O32 2.524971 1_555
Na13 O55 2.608004 1_555
Na14 O66 2.396197 1_555
Na14 O45 2.440504 1_555
Na14 O44 2.456141 1_555
Na14 O29 2.460682 1_555
Na14 O5 2.483454 1_555
Na14 O9 2.645536 1_555
Na15 O21 2.337646 1_556
Na15 O11 2.501488 1_555
Na15 O1 2.508305 1_556
Na15 O66 2.553521 1_555
Na15 O44 2.584026 1_555
Na15 O46 2.629780 1_555
Na15 O10 2.703106 1_555
Na16 O57 2.400834 1_555
Na16 O31 2.423992 1_555
Na16 O14 2.426193 1_555
Na16 O53 2.484911 1_555
Na16 O20 2.487378 1_555
Na16 O18 2.663974 1_555
Na17 O14 2.352260 1_555
Na17 O0 2.368565 1_555
Na17 O30 2.387524 1_555
Na17 O19 2.501979 1_555
Na17 O18 2.524971 1_555
Na17 O68 2.608007 1_555
O0 V22 1.666640 1_555
O1 V14 1.941278 1_455
O1 V13 1.994817 1_454
O1 V23 2.012446 1_555
O2 V19 1.664591 1_555
O3 V3 1.958273 1_455
O3 V9 1.968625 1_555
O3 V24 1.986328 1_455
O4 V27 1.968401 1_455
O4 V15 1.973257 1_455
O4 V0 2.001205 1_556
O5 V15 1.964754 1_455
O5 V13 1.982824 1_455
O5 V22 1.995471 1_556
O6 V26 1.755232 1_655
O6 V5 2.052470 1_655
O7 V19 1.958273 1_655
O7 V6 1.968625 1_555
O7 V7 1.986328 1_655
O8 V25 1.677431 1_555
O9 V1 1.755232 1_455
O9 V15 2.052470 1_455
O10 V14 1.900294 1_456
O10 V10 1.975019 1_545
O10 V17 2.013743 1_445
O11 V18 1.677431 1_555
O12 V11 1.769175 1_655
O12 V20 1.992115 1_655
O13 V2 1.666640 1_555
O14 V23 1.664591 1_555
O15 V19 1.968401 1_655
O15 V5 1.973257 1_655
O15 V16 2.001205 1_555
O16 V7 1.663176 1_555
O17 V0 1.659387 1_555
O18 V26 1.755356 1_655
O18 V23 2.038718 1_655
O19 V8 1.755232 1_655
O19 V22 2.052470 1_655
O20 V23 1.958273 1_655
O20 V14 1.968625 1_555
O20 V4 1.986328 1_655
O21 V14 1.635596 1_555
O22 V25 1.767301 1_455
O22 V24 1.959294 1_465
O23 V9 1.635596 1_555
O24 V25 1.769175 1_455
O24 V16 1.992115 1_455
O25 V10 1.635596 1_555
O26 V17 1.663176 1_555
O27 V21 1.671439 1_555
O28 V18 1.775722 1_455
O28 V24 1.965932 1_455
O29 V1 1.671439 1_555
O30 V23 1.968401 1_655
O30 V22 1.973257 1_655
O30 V13 2.001205 1_554
O31 V11 1.775722 1_655
O31 V4 1.965932 1_655
O32 V1 1.755356 1_455
O32 V3 2.038718 1_455
O33 V6 1.900294 1_455
O33 V9 1.975019 1_565
O33 V24 2.013743 1_465
O34 V16 1.659387 1_555
O35 V3 1.968401 1_455
O35 V2 1.973257 1_455
O35 V20 2.001205 1_555
O36 V10 1.900294 1_654
O36 V14 1.975019 1_565
O36 V4 2.013743 1_665
O37 V24 1.663176 1_555
O38 V12 1.677431 1_555
O39 V6 1.635596 1_555
O40 V12 1.775722 1_655
O40 V7 1.965932 1_655
O41 V9 1.900294 1_655
O41 V6 1.975019 1_545
O41 V7 2.013743 1_645
O42 V21 1.755356 1_455
O42 V27 2.038718 1_455
O43 V27 1.958273 1_455
O43 V10 1.968625 1_555
O43 V17 1.986328 1_455
O44 V18 1.769175 1_455
O44 V13 1.992115 1_455
O45 V15 1.666640 1_555
O46 V18 1.767301 1_455
O46 V17 1.959294 1_445
O47 V25 1.775722 1_455
O47 V17 1.965932 1_455
O48 V27 1.664591 1_555
O49 V5 1.666640 1_555
O50 V20 1.659387 1_555
O51 V2 1.964754 1_455
O51 V16 1.982824 1_455
O51 V5 1.995471 1_555
O52 V12 1.767301 1_655
O52 V4 1.959294 1_665
O53 V4 1.663176 1_555
O54 V5 1.964754 1_655
O54 V20 1.982824 1_655
O54 V2 1.995471 1_555
O55 V21 1.862134 1_555
O55 V1 1.862134 1_555
O56 V21 1.755232 1_455
O56 V2 2.052470 1_455
O57 V26 1.671439 1_555
O58 V11 1.767301 1_655
O58 V7 1.959294 1_645
O59 V6 1.941278 1_455
O59 V16 1.994817 1_455
O59 V19 2.012446 1_555
O60 V9 1.941278 1_655
O60 V20 1.994817 1_655
O60 V3 2.012446 1_555
O61 V11 1.677431 1_555
O62 V10 1.941278 1_655
O62 V0 1.994817 1_656
O62 V27 2.012446 1_555
O63 V3 1.664591 1_555
O64 V8 1.755356 1_655
O64 V19 2.038718 1_655
O65 V12 1.769175 1_655
O65 V0 1.992115 1_655
O66 V13 1.659387 1_555
O67 V22 1.964754 1_655
O67 V0 1.982824 1_655
O67 V15 1.995471 1_554
O68 V8 1.862131 1_555
O68 V26 1.862131 1_555
O69 V8 1.671439 1_555
