# generated using pymatgen
data_CsGaS2
_symmetry_space_group_name_H-M   'P 1'
_cell_length_a   5.93350940
_cell_length_b   7.20952382
_cell_length_c   7.20952388
_cell_angle_alpha   117.38432562
_cell_angle_beta   101.74917534
_cell_angle_gamma   101.74917366
_symmetry_Int_Tables_number   1
_chemical_formula_structural   CsGaS2
_chemical_formula_sum   'Cs2 Ga2 S4'
_cell_volume   251.94595991
_cell_formula_units_Z   2
loop_
 _symmetry_equiv_pos_site_id
 _symmetry_equiv_pos_as_xyz
  1  'x, y, z'
loop_
 _atom_site_type_symbol
 _atom_site_label
 _atom_site_symmetry_multiplicity
 _atom_site_fract_x
 _atom_site_fract_y
 _atom_site_fract_z
 _atom_site_occupancy
  Cs  Cs0  1  0.25000000  0.35627096  0.64372904  1
  Cs  Cs1  1  0.75000000  0.64372904  0.35627096  1
  Ga  Ga0  1  0.75000000  0.00324041  0.99675959  1
  Ga  Ga1  1  0.25000000  0.99675959  0.00324041  1
  S  S0  1  0.40598348  0.92088271  0.72120962  1
  S  S1  1  0.09401652  0.27879038  0.07911729  1
  S  S2  1  0.90598348  0.72120962  0.92088271  1
  S  S3  1  0.59401652  0.07911729  0.27879038  1
loop_
_geom_bond_atom_site_label_1
_geom_bond_atom_site_label_2
_geom_bond_distance
_geom_bond_site_symmetry_2
Cs0 S0 3.688791 1_545
Cs0 S1 3.688791 1_556
Cs0 S3 3.727020 1_455
Cs0 S2 3.727020 1_555
Cs0 S0 3.728498 1_555
Cs0 S1 3.728498 1_555
Cs0 S2 3.754145 1_455
Cs0 S3 3.754145 1_555
Cs1 S3 3.688791 1_565
Cs1 S2 3.688791 1_554
Cs1 S0 3.727020 1_655
Cs1 S1 3.727020 1_555
Cs1 S3 3.728498 1_555
Cs1 S2 3.728498 1_555
Cs1 S1 3.754145 1_655
Cs1 S0 3.754145 1_555
Ga0 S0 2.288130 1_545
Ga0 S1 2.288130 1_656
Ga0 S2 2.289013 1_545
Ga0 S3 2.289013 1_556
Ga1 S3 2.288130 1_565
Ga1 S2 2.288130 1_454
Ga1 S1 2.289013 1_565
Ga1 S0 2.289013 1_554
