# generated using pymatgen
data_Ca5P3ClO12
_symmetry_space_group_name_H-M   'P 1'
_cell_length_a   9.67224115
_cell_length_b   9.67224085
_cell_length_c   6.68289052
_cell_angle_alpha   90.00000000
_cell_angle_beta   90.00000000
_cell_angle_gamma   120.00000615
_symmetry_Int_Tables_number   1
_chemical_formula_structural   Ca5P3ClO12
_chemical_formula_sum   'Ca10 P6 Cl2 O24'
_cell_volume   541.43854478
_cell_formula_units_Z   2
loop_
 _symmetry_equiv_pos_site_id
 _symmetry_equiv_pos_as_xyz
  1  'x, y, z'
loop_
 _atom_site_type_symbol
 _atom_site_label
 _atom_site_symmetry_multiplicity
 _atom_site_fract_x
 _atom_site_fract_y
 _atom_site_fract_z
 _atom_site_occupancy
  Ca  Ca0  1  0.01365965  0.75341948  0.75000000  1
  Ca  Ca1  1  0.26024017  0.01365965  0.25000000  1
  Ca  Ca2  1  0.66666700  0.33333300  0.50457440  1
  Ca  Ca3  1  0.24658052  0.26024017  0.75000000  1
  Ca  Ca4  1  0.75341948  0.73975983  0.25000000  1
  Ca  Ca5  1  0.33333300  0.66666700  0.49542560  1
  Ca  Ca6  1  0.98634035  0.24658052  0.25000000  1
  Ca  Ca7  1  0.66666700  0.33333300  0.99542560  1
  Ca  Ca8  1  0.33333300  0.66666700  0.00457440  1
  Ca  Ca9  1  0.73975983  0.98634035  0.75000000  1
  P  P0  1  0.58748278  0.62051223  0.75000000  1
  P  P1  1  0.03303045  0.41251722  0.75000000  1
  P  P2  1  0.37948777  0.96696955  0.75000000  1
  P  P3  1  0.41251722  0.37948777  0.25000000  1
  P  P4  1  0.62051223  0.03303045  0.25000000  1
  P  P5  1  0.96696955  0.58748278  0.25000000  1
  Cl  Cl0  1  0.00000000  -0.00000000  0.50000000  1
  Cl  Cl1  1  0.00000000  -0.00000000  -0.00000000  1
  O  O0  1  0.49871303  0.14584693  0.75000000  1
  O  O1  1  0.64433075  0.72972242  0.56512259  1
  O  O2  1  0.53329864  0.13039435  0.25000000  1
  O  O3  1  0.50128697  0.85415307  0.25000000  1
  O  O4  1  0.35566925  0.27027758  0.06512259  1
  O  O5  1  0.85415307  0.35286611  0.75000000  1
  O  O6  1  0.91460833  0.64433075  0.06512259  1
  O  O7  1  0.27027758  0.91460833  0.56512259  1
  O  O8  1  0.91460833  0.64433075  0.43487741  1
  O  O9  1  0.13039435  0.59709471  0.75000000  1
  O  O10  1  0.27027758  0.91460833  0.93487741  1
  O  O11  1  0.59709471  0.46670136  0.25000000  1
  O  O12  1  0.40290529  0.53329864  0.75000000  1
  O  O13  1  0.08539167  0.35566925  0.93487741  1
  O  O14  1  0.86960565  0.40290529  0.25000000  1
  O  O15  1  0.35566925  0.27027758  0.43487741  1
  O  O16  1  0.72972242  0.08539167  0.06512259  1
  O  O17  1  0.14584693  0.64713389  0.25000000  1
  O  O18  1  0.64433075  0.72972242  0.93487741  1
  O  O19  1  0.08539167  0.35566925  0.56512259  1
  O  O20  1  0.72972242  0.08539167  0.43487741  1
  O  O21  1  0.46670136  0.86960565  0.75000000  1
  O  O22  1  0.35286611  0.49871303  0.25000000  1
  O  O23  1  0.64713389  0.50128697  0.75000000  1
loop_
_geom_bond_atom_site_label_1
_geom_bond_atom_site_label_2
_geom_bond_distance
_geom_bond_site_symmetry_2
Ca0 O9 2.295257 1_555
Ca0 O8 2.335644 1_455
Ca0 O6 2.335644 1_456
Ca0 O7 2.499628 1_555
Ca0 O10 2.499628 1_555
Ca0 Cl1 2.968507 1_566
Ca0 Cl0 2.968507 1_565
Ca1 O2 2.295248 1_555
Ca1 O10 2.335644 1_544
Ca1 O7 2.335644 1_545
Ca1 O4 2.499628 1_555
Ca1 O15 2.499628 1_555
Ca1 Cl0 2.968507 1_555
Ca1 Cl1 2.968507 1_555
Ca2 O5 2.381522 1_555
Ca2 O0 2.381525 1_555
Ca2 O23 2.381529 1_555
Ca2 O14 2.424712 1_555
Ca2 O2 2.424714 1_555
Ca2 O11 2.424725 1_555
Ca2 O20 2.793318 1_555
Ca2 O8 2.793324 1_555
Ca2 O15 2.793327 1_555
Ca3 O12 2.295248 1_555
Ca3 O15 2.335644 1_555
Ca3 O4 2.335644 1_556
Ca3 O19 2.499628 1_555
Ca3 O13 2.499628 1_555
Ca3 Cl0 2.968506 1_555
Ca3 Cl1 2.968506 1_556
Ca4 O11 2.295248 1_555
Ca4 O1 2.335644 1_555
Ca4 O18 2.335644 1_554
Ca4 O6 2.499628 1_555
Ca4 O8 2.499628 1_555
Ca4 Cl0 2.968506 1_665
Ca4 Cl1 2.968506 1_665
Ca5 O17 2.381522 1_555
Ca5 O3 2.381525 1_555
Ca5 O22 2.381529 1_555
Ca5 O9 2.424712 1_555
Ca5 O21 2.424714 1_555
Ca5 O12 2.424725 1_555
Ca5 O7 2.793318 1_555
Ca5 O19 2.793324 1_555
Ca5 O1 2.793327 1_555
Ca6 O14 2.295257 1_555
Ca6 O13 2.335644 1_654
Ca6 O19 2.335644 1_655
Ca6 O20 2.499628 1_555
Ca6 O16 2.499628 1_555
Ca6 Cl1 2.968507 1_655
Ca6 Cl0 2.968507 1_655
Ca7 O5 2.381522 1_555
Ca7 O0 2.381525 1_555
Ca7 O23 2.381529 1_555
Ca7 O14 2.424712 1_556
Ca7 O2 2.424714 1_556
Ca7 O11 2.424725 1_556
Ca7 O16 2.793318 1_556
Ca7 O6 2.793324 1_556
Ca7 O4 2.793327 1_556
Ca8 O17 2.381522 1_555
Ca8 O3 2.381525 1_555
Ca8 O22 2.381529 1_555
Ca8 O9 2.424712 1_554
Ca8 O21 2.424714 1_554
Ca8 O12 2.424725 1_554
Ca8 O10 2.793318 1_554
Ca8 O13 2.793324 1_554
Ca8 O18 2.793327 1_554
Ca9 O21 2.295248 1_555
Ca9 O20 2.335644 1_565
Ca9 O16 2.335644 1_566
Ca9 O1 2.499628 1_555
Ca9 O18 2.499628 1_555
Ca9 Cl1 2.968507 1_666
Ca9 Cl0 2.968507 1_665
O0 P2 1.525796 1_545
O1 P0 1.537468 1_555
O2 P4 1.546875 1_555
O3 P4 1.525796 1_565
O4 P3 1.537468 1_555
O5 P1 1.525798 1_655
O6 P5 1.537463 1_555
O7 P2 1.537468 1_555
O8 P5 1.537463 1_555
O9 P1 1.546875 1_555
O10 P2 1.537468 1_555
O11 P3 1.546875 1_555
O12 P0 1.546875 1_555
O13 P1 1.537463 1_555
O14 P5 1.546875 1_555
O15 P3 1.537468 1_555
O16 P4 1.537468 1_555
O17 P5 1.525798 1_455
O18 P0 1.537468 1_555
O19 P1 1.537463 1_555
O20 P4 1.537468 1_555
O21 P2 1.546875 1_555
O22 P3 1.525789 1_555
O23 P0 1.525789 1_555
