# generated using pymatgen
data_Li8Bi2PdO10
_symmetry_space_group_name_H-M   'P 1'
_cell_length_a   5.35718188
_cell_length_b   5.35718188
_cell_length_c   11.27159047
_cell_angle_alpha   75.53644122
_cell_angle_beta   75.53644122
_cell_angle_gamma   47.12973466
_symmetry_Int_Tables_number   1
_chemical_formula_structural   Li8Bi2PdO10
_chemical_formula_sum   'Li8 Bi2 Pd1 O10'
_cell_volume   228.11160260
_cell_formula_units_Z   1
loop_
 _symmetry_equiv_pos_site_id
 _symmetry_equiv_pos_as_xyz
  1  'x, y, z'
loop_
 _atom_site_type_symbol
 _atom_site_label
 _atom_site_symmetry_multiplicity
 _atom_site_fract_x
 _atom_site_fract_y
 _atom_site_fract_z
 _atom_site_occupancy
  Li  Li0  1  0.62005000  0.62005000  0.53840100  1
  Li  Li1  1  0.25292900  0.25292900  0.09407200  1
  Li  Li2  1  0.08609200  0.08609200  0.38510800  1
  Li  Li3  1  0.91390800  0.91390800  0.61489200  1
  Li  Li4  1  0.74707100  0.74707100  0.90592800  1
  Li  Li5  1  0.37995000  0.37995000  0.46159900  1
  Li  Li6  1  0.55216000  0.55216000  0.19478600  1
  Li  Li7  1  0.44784000  0.44784000  0.80521400  1
  Bi  Bi0  1  0.18145400  0.18145400  0.71995200  1
  Bi  Bi1  1  0.81854600  0.81854600  0.28004800  1
  Pd  Pd0  1  0.00000000  0.00000000  0.00000000  1
  O  O0  1  0.96166300  0.96166300  0.83294200  1
  O  O1  1  0.67383000  0.67383000  0.74175700  1
  O  O2  1  0.32617000  0.32617000  0.25824300  1
  O  O3  1  0.39971200  0.39971200  0.64127900  1
  O  O4  1  0.60028800  0.60028800  0.35872100  1
  O  O5  1  0.21069900  0.21069900  0.90850800  1
  O  O6  1  0.03833700  0.03833700  0.16705800  1
  O  O7  1  0.12791700  0.12791700  0.55420800  1
  O  O8  1  0.87208300  0.87208300  0.44579200  1
  O  O9  1  0.78930100  0.78930100  0.09149200  1
loop_
_geom_bond_atom_site_label_1
_geom_bond_atom_site_label_2
_geom_bond_distance
_geom_bond_site_symmetry_2
Li0 O4 2.086537 1_555
Li0 O7 2.152262 1_565
Li0 O7 2.152262 1_655
Li0 O3 2.158632 1_555
Li0 O8 2.409999 1_555
Li0 O1 2.488505 1_555
Li1 O6 2.042891 1_555
Li1 O2 2.160321 1_555
Li1 O9 2.170206 1_545
Li1 O9 2.170206 1_455
Li1 O5 2.240434 1_554
Li2 O8 2.025284 1_445
Li2 O7 2.056289 1_555
Li2 O4 2.161554 1_545
Li2 O4 2.161554 1_455
Li2 O2 2.401356 1_555
Li2 O6 2.624648 1_555
Li3 O7 2.025284 1_665
Li3 O8 2.056289 1_555
Li3 O3 2.161554 1_565
Li3 O3 2.161554 1_655
Li3 O1 2.401356 1_555
Li3 O0 2.624648 1_555
Li4 O0 2.042891 1_555
Li4 O1 2.160321 1_555
Li4 O5 2.170206 1_565
Li4 O5 2.170206 1_655
Li4 O9 2.240434 1_556
Li5 O3 2.086537 1_555
Li5 O8 2.152262 1_545
Li5 O8 2.152262 1_455
Li5 O4 2.158632 1_555
Li5 O7 2.409999 1_555
Li5 O2 2.488505 1_555
Li6 O4 2.028244 1_555
Li6 O2 2.138292 1_555
Li6 O6 2.173994 1_565
Li6 O6 2.173994 1_655
Li6 O9 2.302556 1_555
Li7 O3 2.028244 1_555
Li7 O1 2.138292 1_555
Li7 O0 2.173994 1_545
Li7 O0 2.173994 1_455
Li7 O5 2.302556 1_555
Bi0 O7 2.074107 1_555
Bi0 O3 2.084468 1_555
Bi0 O1 2.154762 1_545
Bi0 O1 2.154762 1_455
Bi0 O0 2.187034 1_445
Bi0 O5 2.220847 1_555
Bi1 O8 2.074107 1_555
Bi1 O4 2.084468 1_555
Bi1 O2 2.154762 1_655
Bi1 O2 2.154762 1_565
Bi1 O6 2.187034 1_665
Bi1 O9 2.220847 1_555
O0 Pd0 2.018376 1_666
O5 Pd0 2.045078 1_556
O6 Pd0 2.018376 1_555
O9 Pd0 2.045078 1_665
