# generated using pymatgen
data_Y3ReB7
_symmetry_space_group_name_H-M   'P 1'
_cell_length_a   7.76289431
_cell_length_b   7.76289431
_cell_length_c   10.08088800
_cell_angle_alpha   90.00000000
_cell_angle_beta   90.00000000
_cell_angle_gamma   152.62162770
_symmetry_Int_Tables_number   1
_chemical_formula_structural   Y3ReB7
_chemical_formula_sum   'Y6 Re2 B14'
_cell_volume   279.36766517
_cell_formula_units_Z   2
loop_
 _symmetry_equiv_pos_site_id
 _symmetry_equiv_pos_as_xyz
  1  'x, y, z'
loop_
 _atom_site_type_symbol
 _atom_site_label
 _atom_site_symmetry_multiplicity
 _atom_site_fract_x
 _atom_site_fract_y
 _atom_site_fract_z
 _atom_site_occupancy
  Y  Y0  1  0.16566000  0.83434000  0.94277400  1
  Y  Y1  1  0.02749800  0.97250200  0.25000000  1
  Y  Y2  1  0.83434000  0.16566000  0.05722600  1
  Y  Y3  1  0.97250200  0.02749800  0.75000000  1
  Y  Y4  1  0.16566000  0.83434000  0.55722600  1
  Y  Y5  1  0.83434000  0.16566000  0.44277400  1
  Re  Re0  1  0.77673600  0.22326400  0.75000000  1
  Re  Re1  1  0.22326400  0.77673600  0.25000000  1
  B  B0  1  0.44999200  0.55000800  0.94585800  1
  B  B1  1  0.44679800  0.55320200  0.11573800  1
  B  B2  1  0.62067200  0.37932800  0.75000000  1
  B  B3  1  0.34552200  0.65447800  0.66049500  1
  B  B4  1  0.37932800  0.62067200  0.25000000  1
  B  B5  1  0.55320200  0.44679800  0.61573800  1
  B  B6  1  0.65447800  0.34552200  0.16049500  1
  B  B7  1  0.55000800  0.44999200  0.44585800  1
  B  B8  1  0.65447800  0.34552200  0.33950500  1
  B  B9  1  0.55000800  0.44999200  0.05414200  1
  B  B10  1  0.55320200  0.44679800  0.88426200  1
  B  B11  1  0.34552200  0.65447800  0.83950500  1
  B  B12  1  0.44679800  0.55320200  0.38426200  1
  B  B13  1  0.44999200  0.55000800  0.55414200  1
loop_
_geom_bond_atom_site_label_1
_geom_bond_atom_site_label_2
_geom_bond_distance
_geom_bond_site_symmetry_2
Re0 Y3 2.953083 1_555
Re1 Y1 2.953083 1_555
B0 B10 1.676157 1_555
B0 B1 1.713219 1_556
B0 B9 1.862207 1_556
B0 B11 1.906029 1_555
B0 Y3 2.718212 1_565
B0 Y3 2.718212 1_455
B0 Y2 2.771106 1_566
B0 Y2 2.771106 1_456
B1 B9 1.676157 1_555
B1 B4 1.693447 1_555
B1 Y2 2.569190 1_565
B1 Y2 2.569190 1_455
B1 Y1 2.586283 1_655
B1 Y1 2.586283 1_545
B2 B5 1.693447 1_555
B2 Re0 2.354188 1_555
B2 Y4 2.759007 1_545
B2 Y4 2.759007 1_655
B2 Y0 2.759007 1_545
B2 Y0 2.759007 1_655
B2 Y3 2.893224 1_565
B2 Y3 2.893224 1_455
B3 Re0 2.294736 1_565
B3 Re0 2.294736 1_455
B3 Y3 2.803240 1_455
B3 Y3 2.803240 1_565
B3 Y5 2.867180 1_565
B3 Y5 2.867180 1_455
B3 Y4 2.906044 1_555
B4 Re1 2.354188 1_555
B4 Y5 2.759007 1_565
B4 Y5 2.759007 1_455
B4 Y2 2.759007 1_565
B4 Y2 2.759007 1_455
B4 Y1 2.893224 1_545
B4 Y1 2.893224 1_655
B5 B7 1.713219 1_555
B5 Y4 2.569190 1_545
B5 Y4 2.569190 1_655
B5 Y3 2.586283 1_565
B5 Y3 2.586283 1_455
B6 B8 1.804580 1_555
B6 B9 1.906029 1_555
B6 Re1 2.294736 1_655
B6 Re1 2.294736 1_545
B6 Y1 2.803240 1_655
B6 Y1 2.803240 1_545
B6 Y0 2.867180 1_654
B6 Y0 2.867180 1_544
B6 Y2 2.906044 1_555
B7 B8 1.906029 1_555
B7 Y1 2.718212 1_655
B7 Y1 2.718212 1_545
B7 Y4 2.771106 1_655
B7 Y4 2.771106 1_545
B8 Re1 2.294736 1_655
B8 Re1 2.294736 1_545
B8 Y1 2.803240 1_655
B8 Y1 2.803240 1_545
B8 Y4 2.867180 1_545
B8 Y4 2.867180 1_655
B8 Y5 2.906044 1_555
B9 Y1 2.718212 1_545
B9 Y1 2.718212 1_655
B9 Y0 2.771106 1_654
B9 Y0 2.771106 1_544
B10 B2 1.693447 1_555
B10 B9 1.713219 1_556
B10 Y0 2.569190 1_545
B10 Y0 2.569190 1_655
B10 Y3 2.586283 1_565
B10 Y3 2.586283 1_455
B11 B3 1.804580 1_555
B11 Re0 2.294736 1_565
B11 Re0 2.294736 1_455
B11 Y3 2.803240 1_455
B11 Y3 2.803240 1_565
B11 Y2 2.867180 1_566
B11 Y2 2.867180 1_456
B11 Y0 2.906044 1_555
B12 B7 1.676157 1_555
B12 B4 1.693447 1_555
B12 B13 1.713219 1_555
B12 Y5 2.569190 1_455
B12 Y5 2.569190 1_565
B12 Y1 2.586283 1_545
B12 Y1 2.586283 1_655
B13 B5 1.676157 1_555
B13 B7 1.862207 1_555
B13 B3 1.906029 1_555
B13 Y3 2.718212 1_565
B13 Y3 2.718212 1_455
B13 Y5 2.771106 1_565
B13 Y5 2.771106 1_455
