# generated using pymatgen
data_TmSeO3F
_symmetry_space_group_name_H-M   'P 1'
_cell_length_a   6.92551000
_cell_length_b   6.58846400
_cell_length_c   7.16186476
_cell_angle_alpha   81.67958202
_cell_angle_beta   90.00000000
_cell_angle_gamma   90.00000000
_symmetry_Int_Tables_number   1
_chemical_formula_structural   TmSeO3F
_chemical_formula_sum   'Tm4 Se4 O12 F4'
_cell_volume   323.34530922
_cell_formula_units_Z   4
loop_
 _symmetry_equiv_pos_site_id
 _symmetry_equiv_pos_as_xyz
  1  'x, y, z'
loop_
 _atom_site_type_symbol
 _atom_site_label
 _atom_site_symmetry_multiplicity
 _atom_site_fract_x
 _atom_site_fract_y
 _atom_site_fract_z
 _atom_site_occupancy
  Tm  Tm0  1  0.85901100  0.86190500  0.82466100  1
  Tm  Tm1  1  0.14098900  0.13809500  0.17533900  1
  Tm  Tm2  1  0.64098900  0.86190500  0.32466100  1
  Tm  Tm3  1  0.35901100  0.13809500  0.67533900  1
  Se  Se0  1  0.88044400  0.35151300  0.71024000  1
  Se  Se1  1  0.61955600  0.35151300  0.21024000  1
  Se  Se2  1  0.11955600  0.64848700  0.28976000  1
  Se  Se3  1  0.38044400  0.64848700  0.78976000  1
  O  O0  1  0.46951500  0.17210300  0.35270100  1
  O  O1  1  0.53048500  0.82789700  0.64729900  1
  O  O2  1  0.19228500  0.82601600  0.77914500  1
  O  O3  1  0.30771500  0.82601600  0.27914500  1
  O  O4  1  0.81392800  0.51824200  0.86108400  1
  O  O5  1  0.03048500  0.17210300  0.85270100  1
  O  O6  1  0.69228500  0.17398400  0.72085500  1
  O  O7  1  0.68607200  0.51824200  0.36108400  1
  O  O8  1  0.96951500  0.82789700  0.14729900  1
  O  O9  1  0.18607200  0.48175800  0.13891600  1
  O  O10  1  0.31392800  0.48175800  0.63891600  1
  O  O11  1  0.80771500  0.17398400  0.22085500  1
  F  F0  1  0.62043600  0.83472000  0.02623400  1
  F  F1  1  0.37956400  0.16528000  0.97376600  1
  F  F2  1  0.12043600  0.16528000  0.47376600  1
  F  F3  1  0.87956400  0.83472000  0.52623400  1
loop_
_geom_bond_atom_site_label_1
_geom_bond_atom_site_label_2
_geom_bond_distance
_geom_bond_site_symmetry_2
O0 Se1 1.780141 1_555
O0 Tm2 2.397123 1_545
O0 Tm3 2.413572 1_555
O0 Tm1 2.631097 1_555
O1 Se3 1.780141 1_555
O1 Tm3 2.397123 1_565
O1 Tm2 2.413572 1_555
O1 Tm0 2.631097 1_555
O2 Se3 1.745329 1_555
O2 Tm0 2.347716 1_455
O2 Tm3 2.381425 1_565
O3 Se2 1.745329 1_555
O3 Tm2 2.347716 1_555
O3 Tm1 2.381425 1_565
O4 Se0 1.711561 1_555
O4 Tm0 2.263016 1_555
O5 Se0 1.780141 1_455
O5 Tm0 2.397123 1_445
O5 Tm1 2.413572 1_556
O5 Tm3 2.631097 1_555
O6 Se0 1.745329 1_555
O6 Tm3 2.347716 1_555
O6 Tm0 2.381425 1_545
O7 Se1 1.711561 1_555
O7 Tm2 2.263016 1_555
O8 Se2 1.780141 1_655
O8 Tm1 2.397123 1_665
O8 Tm0 2.413572 1_554
O8 Tm2 2.631097 1_555
O9 Se2 1.711561 1_555
O9 Tm1 2.263016 1_555
O10 Se3 1.711561 1_555
O10 Tm3 2.263016 1_555
O11 Se1 1.745329 1_555
O11 Tm1 2.347716 1_655
O11 Tm2 2.381425 1_545
F0 Tm2 2.175122 1_555
F0 Tm0 2.184326 1_554
F1 Tm3 2.175122 1_555
F1 Tm1 2.184326 1_556
F2 Tm1 2.175122 1_555
F2 Tm3 2.184326 1_555
F3 Tm0 2.175122 1_555
F3 Tm2 2.184326 1_555
