# generated using pymatgen
data_TaI5
_symmetry_space_group_name_H-M   'P 1'
_cell_length_a   6.83105347
_cell_length_b   14.46706261
_cell_length_c   20.49354875
_cell_angle_alpha   90.00000000
_cell_angle_beta   90.00000000
_cell_angle_gamma   90.00000000
_symmetry_Int_Tables_number   1
_chemical_formula_structural   TaI5
_chemical_formula_sum   'Ta8 I40'
_cell_volume   2025.28065740
_cell_formula_units_Z   8
loop_
 _symmetry_equiv_pos_site_id
 _symmetry_equiv_pos_as_xyz
  1  'x, y, z'
loop_
 _atom_site_type_symbol
 _atom_site_label
 _atom_site_symmetry_multiplicity
 _atom_site_fract_x
 _atom_site_fract_y
 _atom_site_fract_z
 _atom_site_occupancy
  Ta  Ta0  1  0.49833183  0.12598440  0.14012860  1
  Ta  Ta1  1  0.49833183  0.12598440  0.35987140  1
  Ta  Ta2  1  0.50166817  0.87401560  0.85987140  1
  Ta  Ta3  1  0.00166817  0.62598440  0.14012860  1
  Ta  Ta4  1  0.99833183  0.37401560  0.85987140  1
  Ta  Ta5  1  0.99833183  0.37401560  0.64012860  1
  Ta  Ta6  1  0.50166817  0.87401560  0.64012860  1
  Ta  Ta7  1  0.00166817  0.62598440  0.35987140  1
  I  I0  1  0.25265749  0.04386836  0.44132052  1
  I  I1  1  0.22339070  0.29826894  0.75000000  1
  I  I2  1  0.75535990  0.70762251  0.05850465  1
  I  I3  1  0.27395631  0.05052717  0.25000000  1
  I  I4  1  0.75265849  0.45613164  0.94132052  1
  I  I5  1  0.26931451  0.27879662  0.15075393  1
  I  I6  1  0.22604369  0.55052717  0.25000000  1
  I  I7  1  0.22815173  0.52658782  0.84916520  1
  I  I8  1  0.73068549  0.72120338  0.84924607  1
  I  I9  1  0.72815173  0.97341218  0.34916520  1
  I  I10  1  0.77395631  0.44947283  0.75000000  1
  I  I11  1  0.23068549  0.77879662  0.34924607  1
  I  I12  1  0.27184827  0.02658782  0.65083480  1
  I  I13  1  0.76931451  0.22120338  0.84924607  1
  I  I14  1  0.74464010  0.20762251  0.05850465  1
  I  I15  1  0.26931451  0.27879662  0.34924607  1
  I  I16  1  0.24464010  0.29237749  0.94149535  1
  I  I17  1  0.24734251  0.54386836  0.44132052  1
  I  I18  1  0.74464010  0.20762251  0.44149535  1
  I  I19  1  0.24464010  0.29237749  0.55850465  1
  I  I20  1  0.72339070  0.20173106  0.25000000  1
  I  I21  1  0.23068549  0.77879662  0.15075393  1
  I  I22  1  0.77660930  0.70173106  0.25000000  1
  I  I23  1  0.76931451  0.22120338  0.65075393  1
  I  I24  1  0.27184827  0.02658782  0.84916520  1
  I  I25  1  0.27660930  0.79826894  0.75000000  1
  I  I26  1  0.77184827  0.47341218  0.15083480  1
  I  I27  1  0.74734151  0.95613164  0.94132052  1
  I  I28  1  0.72604369  0.94947283  0.75000000  1
  I  I29  1  0.24734251  0.54386836  0.05867948  1
  I  I30  1  0.75535990  0.70762251  0.44149535  1
  I  I31  1  0.25265749  0.04386836  0.05867948  1
  I  I32  1  0.22815173  0.52658782  0.65083480  1
  I  I33  1  0.73068549  0.72120338  0.65075393  1
  I  I34  1  0.77184827  0.47341218  0.34916520  1
  I  I35  1  0.75265849  0.45613164  0.55867948  1
  I  I36  1  0.72815173  0.97341218  0.15083480  1
  I  I37  1  0.74734151  0.95613164  0.55867948  1
  I  I38  1  0.25535990  0.79237749  0.94149535  1
  I  I39  1  0.25535990  0.79237749  0.55850465  1
loop_
_geom_bond_atom_site_label_1
_geom_bond_atom_site_label_2
_geom_bond_distance
_geom_bond_site_symmetry_2
I0 Ta1 2.648370 1_555
I1 Ta4 2.938429 1_455
I1 Ta5 2.938429 1_455
I2 Ta3 2.650285 1_655
I3 Ta0 2.934429 1_555
I3 Ta1 2.934429 1_555
I4 Ta4 2.648365 1_555
I5 Ta0 2.717029 1_555
I6 Ta7 2.934429 1_555
I6 Ta3 2.934429 1_555
I7 Ta4 2.717501 1_455
I8 Ta2 2.717029 1_555
I9 Ta1 2.717501 1_565
I10 Ta4 2.934429 1_555
I10 Ta5 2.934429 1_555
I11 Ta7 2.717029 1_555
I12 Ta6 2.717501 1_545
I13 Ta4 2.717029 1_555
I14 Ta0 2.650285 1_555
I15 Ta1 2.717029 1_555
I16 Ta4 2.650285 1_455
I17 Ta7 2.648370 1_555
I18 Ta1 2.650285 1_555
I19 Ta5 2.650285 1_455
I20 Ta1 2.938429 1_555
I20 Ta0 2.938429 1_555
I21 Ta3 2.717029 1_555
I22 Ta3 2.938429 1_655
I22 Ta7 2.938429 1_655
I23 Ta5 2.717029 1_555
I24 Ta2 2.717501 1_545
I25 Ta2 2.938429 1_555
I25 Ta6 2.938429 1_555
I26 Ta3 2.717501 1_655
I27 Ta2 2.648365 1_555
I28 Ta2 2.934429 1_555
I28 Ta6 2.934429 1_555
I29 Ta3 2.648370 1_555
I30 Ta7 2.650285 1_655
I31 Ta0 2.648370 1_555
I32 Ta5 2.717501 1_455
I33 Ta6 2.717029 1_555
I34 Ta7 2.717501 1_655
I35 Ta5 2.648365 1_555
I36 Ta0 2.717501 1_565
I37 Ta6 2.648365 1_555
I38 Ta2 2.650285 1_555
I39 Ta6 2.650285 1_555
