# generated using pymatgen
data_Sr2Cu2Ni(SO)2
_symmetry_space_group_name_H-M   'P 1'
_cell_length_a   9.73630418
_cell_length_b   9.73630418
_cell_length_c   9.73630418
_cell_angle_alpha   157.02310622
_cell_angle_beta   157.02310622
_cell_angle_gamma   32.71972931
_symmetry_Int_Tables_number   1
_chemical_formula_structural   Sr2Cu2Ni(SO)2
_chemical_formula_sum   'Sr2 Cu2 Ni1 S2 O2'
_cell_volume   140.52121868
_cell_formula_units_Z   1
loop_
 _symmetry_equiv_pos_site_id
 _symmetry_equiv_pos_as_xyz
  1  'x, y, z'
loop_
 _atom_site_type_symbol
 _atom_site_label
 _atom_site_symmetry_multiplicity
 _atom_site_fract_x
 _atom_site_fract_y
 _atom_site_fract_z
 _atom_site_occupancy
  Sr  Sr0  1  0.59154900  0.59154900  0.00000000  1
  Sr  Sr1  1  0.40845100  0.40845100  0.00000000  1
  Cu  Cu0  1  0.75000000  0.25000000  0.50000000  1
  Cu  Cu1  1  0.25000000  0.75000000  0.50000000  1
  Ni  Ni0  1  0.00000000  0.00000000  0.00000000  1
  S  S0  1  0.82614700  0.82614700  0.00000000  1
  S  S1  1  0.17385300  0.17385300  0.00000000  1
  O  O0  1  0.00000000  0.50000000  0.50000000  1
  O  O1  1  0.50000000  0.00000000  0.50000000  1
loop_
_geom_bond_atom_site_label_1
_geom_bond_atom_site_label_2
_geom_bond_distance
_geom_bond_site_symmetry_2
Cu0 S0 2.405127 1_545
Cu0 S0 2.405127 1_556
Cu0 S1 2.405127 1_555
Cu0 S1 2.405127 1_656
Cu1 S0 2.405127 1_455
Cu1 S0 2.405127 1_556
Cu1 S1 2.405127 1_555
Cu1 S1 2.405127 1_566
Ni0 O1 1.939183 1_454
Ni0 O0 1.939183 1_544
Ni0 O0 1.939183 1_555
Ni0 O1 1.939183 1_555
S0 Sr1 3.144144 1_655
S0 Sr1 3.144144 1_565
S0 Sr1 3.144144 1_666
S0 Sr1 3.144144 1_554
S1 Sr0 3.144144 1_556
S1 Sr0 3.144144 1_545
S1 Sr0 3.144144 1_455
S1 Sr0 3.144144 1_444
O0 Sr0 2.585789 1_556
O0 Sr1 2.585789 1_455
O0 Sr0 2.585789 1_455
O0 Sr1 2.585789 1_556
O1 Sr0 2.585789 1_545
O1 Sr1 2.585789 1_545
O1 Sr0 2.585789 1_556
O1 Sr1 2.585789 1_556
