# generated using pymatgen
data_CsScAs2(HO4)2
_symmetry_space_group_name_H-M   'P 1'
_cell_length_a   9.57495800
_cell_length_b   5.63040800
_cell_length_c   15.29459274
_cell_angle_alpha   84.13969318
_cell_angle_beta   90.00000000
_cell_angle_gamma   90.00000000
_symmetry_Int_Tables_number   1
_chemical_formula_structural   CsScAs2(HO4)2
_chemical_formula_sum   'Cs4 Sc4 As8 H8 O32'
_cell_volume   820.23631996
_cell_formula_units_Z   4
loop_
 _symmetry_equiv_pos_site_id
 _symmetry_equiv_pos_as_xyz
  1  'x, y, z'
loop_
 _atom_site_type_symbol
 _atom_site_label
 _atom_site_symmetry_multiplicity
 _atom_site_fract_x
 _atom_site_fract_y
 _atom_site_fract_z
 _atom_site_occupancy
  Cs  Cs0  1  0.99416000  0.77084800  0.39157000  1
  Cs  Cs1  1  0.49416000  0.22915200  0.10843000  1
  Cs  Cs2  1  0.00584000  0.22915200  0.60843000  1
  Cs  Cs3  1  0.50584000  0.77084800  0.89157000  1
  Sc  Sc0  1  0.03464400  0.24370500  0.15297000  1
  Sc  Sc1  1  0.53464400  0.75629500  0.34703000  1
  Sc  Sc2  1  0.96535600  0.75629500  0.84703000  1
  Sc  Sc3  1  0.46535600  0.24370500  0.65297000  1
  As  As0  1  0.85097300  0.78469600  0.05960500  1
  As  As1  1  0.35097300  0.21530400  0.44039500  1
  As  As2  1  0.14902700  0.21530400  0.94039500  1
  As  As3  1  0.64902700  0.78469600  0.55960500  1
  As  As4  1  0.74897300  0.28087000  0.30868700  1
  As  As5  1  0.24897300  0.71913000  0.19131300  1
  As  As6  1  0.25102700  0.71913000  0.69131300  1
  As  As7  1  0.75102700  0.28087000  0.80868700  1
  H  H0  1  0.69226100  0.66940300  0.17130700  1
  H  H1  1  0.19226100  0.33059700  0.32869300  1
  H  H2  1  0.30773900  0.33059700  0.82869300  1
  H  H3  1  0.80773900  0.66940300  0.67130700  1
  H  H4  1  0.70891400  0.25759100  0.45904400  1
  H  H5  1  0.20891400  0.74240900  0.04095600  1
  H  H6  1  0.29108600  0.74240900  0.54095600  1
  H  H7  1  0.79108600  0.25759100  0.95904400  1
  O  O0  1  0.88634500  0.07477900  0.07680100  1
  O  O1  1  0.38634500  0.92522100  0.42319900  1
  O  O2  1  0.11365500  0.92522100  0.92319900  1
  O  O3  1  0.61365500  0.07477900  0.57680100  1
  O  O4  1  0.96928700  0.58650200  0.10643000  1
  O  O5  1  0.46928700  0.41349800  0.39357000  1
  O  O6  1  0.03071300  0.41349800  0.89357000  1
  O  O7  1  0.53071300  0.58650200  0.60643000  1
  O  O8  1  0.82191000  0.75758800  0.95147100  1
  O  O9  1  0.32191000  0.24241200  0.54852900  1
  O  O10  1  0.17809000  0.24241200  0.04852900  1
  O  O11  1  0.67809000  0.75758800  0.45147100  1
  O  O12  1  0.68339800  0.71599400  0.10567100  1
  O  O13  1  0.18339800  0.28400600  0.39432900  1
  O  O14  1  0.31660200  0.28400600  0.89432900  1
  O  O15  1  0.81660200  0.71599400  0.60567100  1
  O  O16  1  0.62948800  0.07134000  0.28722100  1
  O  O17  1  0.12948800  0.92866000  0.21277900  1
  O  O18  1  0.37051200  0.92866000  0.71277900  1
  O  O19  1  0.87051200  0.07134000  0.78722100  1
  O  O20  1  0.69365300  0.56675900  0.27701300  1
  O  O21  1  0.19365300  0.43324100  0.22298700  1
  O  O22  1  0.30634700  0.43324100  0.72298700  1
  O  O23  1  0.80634700  0.56675900  0.77701300  1
  O  O24  1  0.90761100  0.22836600  0.26530600  1
  O  O25  1  0.40761100  0.77163400  0.23469400  1
  O  O26  1  0.09238900  0.77163400  0.73469400  1
  O  O27  1  0.59238900  0.22836600  0.76530600  1
  O  O28  1  0.79433300  0.26286100  0.42258600  1
  O  O29  1  0.29433300  0.73713900  0.07741400  1
  O  O30  1  0.20566700  0.73713900  0.57741400  1
  O  O31  1  0.70566700  0.26286100  0.92258600  1
loop_
_geom_bond_atom_site_label_1
_geom_bond_atom_site_label_2
_geom_bond_distance
_geom_bond_site_symmetry_2
Cs0 O17 3.074088 1_655
Cs0 O11 3.160664 1_555
Cs0 O24 3.167979 1_565
Cs0 O13 3.282536 1_655
Cs0 H1 3.339747 1_655
Cs0 O13 3.414354 1_665
Cs0 O28 3.433571 1_555
Cs0 O28 3.439249 1_565
Cs0 O30 3.479434 1_655
Cs0 O20 3.616703 1_555
Cs0 O15 3.674529 1_555
Cs1 O16 3.074088 1_555
Cs1 O10 3.160664 1_555
Cs1 O25 3.167979 1_545
Cs1 O12 3.282536 1_555
Cs1 H0 3.339747 1_555
Cs1 O12 3.414354 1_545
Cs1 O29 3.433571 1_555
Cs1 O29 3.439249 1_545
Cs1 O31 3.479434 1_554
Cs1 O21 3.616703 1_555
Cs1 O14 3.674529 1_554
Cs2 O19 3.074088 1_455
Cs2 O9 3.160664 1_555
Cs2 O26 3.167979 1_545
Cs2 O15 3.282536 1_455
Cs2 H3 3.339747 1_455
Cs2 O15 3.414354 1_445
Cs2 O30 3.433571 1_555
Cs2 O30 3.439249 1_545
Cs2 O28 3.479434 1_455
Cs2 O22 3.616703 1_555
Cs2 O13 3.674529 1_555
Cs3 O18 3.074088 1_555
Cs3 O8 3.160664 1_555
Cs3 O27 3.167979 1_565
Cs3 O14 3.282536 1_555
Cs3 H2 3.339747 1_555
Cs3 O14 3.414354 1_565
Cs3 O31 3.433571 1_555
Cs3 O31 3.439249 1_565
Cs3 O29 3.479434 1_556
Cs3 O23 3.616703 1_555
Cs3 O12 3.674529 1_556
As0 O4 1.696560 1_555
As0 O8 1.699280 1_554
As0 O0 1.714416 1_565
As0 O12 1.779010 1_555
As1 O5 1.696560 1_555
As1 O9 1.699280 1_555
As1 O1 1.714416 1_545
As1 O13 1.779010 1_555
As2 O6 1.696560 1_555
As2 O10 1.699280 1_556
As2 O2 1.714416 1_545
As2 O14 1.779010 1_555
As3 O7 1.696560 1_555
As3 O11 1.699280 1_555
As3 O3 1.714416 1_565
As3 O15 1.779010 1_555
As4 O24 1.695549 1_555
As4 O16 1.699280 1_555
As4 O20 1.716699 1_555
As4 O28 1.788168 1_555
As5 O25 1.695549 1_555
As5 O17 1.699280 1_555
As5 O21 1.716699 1_555
As5 O29 1.788168 1_555
As6 O26 1.695549 1_555
As6 O18 1.699280 1_555
As6 O22 1.716699 1_555
As6 O30 1.788168 1_555
As7 O27 1.695549 1_555
As7 O19 1.699280 1_555
As7 O23 1.716699 1_555
As7 O31 1.788168 1_555
H0 O12 1.014893 1_555
H0 O20 1.660480 1_555
H1 O13 1.014893 1_555
H1 O21 1.660480 1_555
H2 O14 1.014893 1_555
H2 O22 1.660480 1_555
H3 O15 1.014893 1_555
H3 O23 1.660480 1_555
H4 O28 0.988617 1_555
H5 O29 0.988617 1_555
H6 O30 0.988617 1_555
H7 O31 0.988617 1_555
O0 Sc0 2.122344 1_655
O1 Sc1 2.122344 1_555
O2 Sc2 2.122344 1_455
O3 Sc3 2.122344 1_555
O4 Sc0 2.083980 1_655
O5 Sc1 2.083980 1_555
O6 Sc2 2.083980 1_455
O7 Sc3 2.083980 1_555
O8 Sc2 2.107257 1_555
O9 Sc3 2.107257 1_555
O10 Sc0 2.107257 1_555
O11 Sc1 2.107257 1_555
O16 Sc1 2.115798 1_545
O17 Sc0 2.115798 1_565
O18 Sc3 2.115798 1_565
O19 Sc2 2.115798 1_545
O20 Sc1 2.199322 1_555
O21 Sc0 2.199322 1_555
O22 Sc3 2.199322 1_555
O23 Sc2 2.199322 1_555
O24 Sc0 2.099670 1_655
O25 Sc1 2.099670 1_555
O26 Sc2 2.099670 1_455
O27 Sc3 2.099670 1_555
