# generated using pymatgen
data_Yb3Fe5O12
_symmetry_space_group_name_H-M   'P 1'
_cell_length_a   10.76344696
_cell_length_b   10.76344696
_cell_length_c   10.76344696
_cell_angle_alpha   109.47122063
_cell_angle_beta   109.47122063
_cell_angle_gamma   109.47122063
_symmetry_Int_Tables_number   1
_chemical_formula_structural   Yb3Fe5O12
_chemical_formula_sum   'Yb12 Fe20 O48'
_cell_volume   959.91379817
_cell_formula_units_Z   4
loop_
 _symmetry_equiv_pos_site_id
 _symmetry_equiv_pos_as_xyz
  1  'x, y, z'
loop_
 _atom_site_type_symbol
 _atom_site_label
 _atom_site_symmetry_multiplicity
 _atom_site_fract_x
 _atom_site_fract_y
 _atom_site_fract_z
 _atom_site_occupancy
  Yb  Yb0  1  0.25000000  0.37500000  0.12500000  1
  Yb  Yb1  1  0.87500000  0.62500000  0.25000000  1
  Yb  Yb2  1  0.37500000  0.12500000  0.25000000  1
  Yb  Yb3  1  0.75000000  0.62500000  0.87500000  1
  Yb  Yb4  1  0.12500000  0.37500000  0.75000000  1
  Yb  Yb5  1  0.87500000  0.75000000  0.62500000  1
  Yb  Yb6  1  0.25000000  0.87500000  0.62500000  1
  Yb  Yb7  1  0.75000000  0.12500000  0.37500000  1
  Yb  Yb8  1  0.37500000  0.75000000  0.12500000  1
  Yb  Yb9  1  0.62500000  0.87500000  0.75000000  1
  Yb  Yb10  1  0.12500000  0.25000000  0.37500000  1
  Yb  Yb11  1  0.62500000  0.25000000  0.87500000  1
  Fe  Fe0  1  0.00000000  0.50000000  0.50000000  1
  Fe  Fe1  1  0.25000000  0.12500000  0.87500000  1
  Fe  Fe2  1  0.37500000  0.62500000  0.75000000  1
  Fe  Fe3  1  0.50000000  0.50000000  0.50000000  1
  Fe  Fe4  1  0.00000000  0.00000000  0.00000000  1
  Fe  Fe5  1  0.25000000  0.62500000  0.37500000  1
  Fe  Fe6  1  0.50000000  0.00000000  0.00000000  1
  Fe  Fe7  1  0.50000000  0.50000000  0.00000000  1
  Fe  Fe8  1  0.62500000  0.75000000  0.37500000  1
  Fe  Fe9  1  0.00000000  0.00000000  0.50000000  1
  Fe  Fe10  1  0.12500000  0.75000000  0.87500000  1
  Fe  Fe11  1  0.75000000  0.37500000  0.62500000  1
  Fe  Fe12  1  0.75000000  0.87500000  0.12500000  1
  Fe  Fe13  1  0.37500000  0.25000000  0.62500000  1
  Fe  Fe14  1  0.87500000  0.12500000  0.75000000  1
  Fe  Fe15  1  0.50000000  0.00000000  0.50000000  1
  Fe  Fe16  1  0.12500000  0.87500000  0.25000000  1
  Fe  Fe17  1  0.87500000  0.25000000  0.12500000  1
  Fe  Fe18  1  0.00000000  0.50000000  0.00000000  1
  Fe  Fe19  1  0.62500000  0.37500000  0.25000000  1
  O  O0  1  0.80004500  0.87921000  0.97620600  1
  O  O1  1  0.87921000  0.97620600  0.80004500  1
  O  O2  1  0.09699600  0.97620600  0.67616100  1
  O  O3  1  0.52379400  0.40300400  0.82383900  1
  O  O4  1  0.69995500  0.52379400  0.62079000  1
  O  O5  1  0.67616100  0.07916500  0.69995500  1
  O  O6  1  0.02379400  0.19995500  0.12079000  1
  O  O7  1  0.57916500  0.17616100  0.19995500  1
  O  O8  1  0.17616100  0.19995500  0.57916500  1
  O  O9  1  0.90300400  0.02379400  0.32383900  1
  O  O10  1  0.82383900  0.80004500  0.42083500  1
  O  O11  1  0.97620600  0.80004500  0.87921000  1
  O  O12  1  0.37921000  0.30004500  0.47620600  1
  O  O13  1  0.97620600  0.67616100  0.09699600  1
  O  O14  1  0.09699600  0.62079000  0.42083500  1
  O  O15  1  0.59699600  0.92083500  0.12079000  1
  O  O16  1  0.62079000  0.42083500  0.09699600  1
  O  O17  1  0.52379400  0.62079000  0.69995500  1
  O  O18  1  0.59699600  0.17616100  0.47620600  1
  O  O19  1  0.17616100  0.47620600  0.59699600  1
  O  O20  1  0.12079000  0.59699600  0.92083500  1
  O  O21  1  0.19995500  0.12079000  0.02379400  1
  O  O22  1  0.07916500  0.87921000  0.40300400  1
  O  O23  1  0.42083500  0.09699600  0.62079000  1
  O  O24  1  0.47620600  0.37921000  0.30004500  1
  O  O25  1  0.80004500  0.42083500  0.82383900  1
  O  O26  1  0.47620600  0.59699600  0.17616100  1
  O  O27  1  0.67616100  0.09699600  0.97620600  1
  O  O28  1  0.07916500  0.69995500  0.67616100  1
  O  O29  1  0.12079000  0.02379400  0.19995500  1
  O  O30  1  0.30004500  0.32383900  0.92083500  1
  O  O31  1  0.87921000  0.40300400  0.07916500  1
  O  O32  1  0.42083500  0.82383900  0.80004500  1
  O  O33  1  0.57916500  0.90300400  0.37921000  1
  O  O34  1  0.90300400  0.37921000  0.57916500  1
  O  O35  1  0.32383900  0.92083500  0.30004500  1
  O  O36  1  0.40300400  0.82383900  0.52379400  1
  O  O37  1  0.32383900  0.90300400  0.02379400  1
  O  O38  1  0.40300400  0.07916500  0.87921000  1
  O  O39  1  0.02379400  0.32383900  0.90300400  1
  O  O40  1  0.82383900  0.52379400  0.40300400  1
  O  O41  1  0.69995500  0.67616100  0.07916500  1
  O  O42  1  0.92083500  0.30004500  0.32383900  1
  O  O43  1  0.62079000  0.69995500  0.52379400  1
  O  O44  1  0.19995500  0.57916500  0.17616100  1
  O  O45  1  0.30004500  0.47620600  0.37921000  1
  O  O46  1  0.37921000  0.57916500  0.90300400  1
  O  O47  1  0.92083500  0.12079000  0.59699600  1
loop_
_geom_bond_atom_site_label_1
_geom_bond_atom_site_label_2
_geom_bond_distance
_geom_bond_site_symmetry_2
Fe0 O14 1.983187 1_555
Fe0 O28 1.983187 1_555
Fe0 O19 1.983187 1_555
Fe0 O42 1.983187 1_455
Fe0 O40 1.983187 1_455
Fe0 O34 1.983187 1_455
Fe1 O38 1.861277 1_555
Fe1 O30 1.861277 1_555
Fe1 O2 1.861277 1_545
Fe1 O21 1.861277 1_556
Fe2 O19 1.861277 1_555
Fe2 O32 1.861277 1_555
Fe2 O17 1.861277 1_555
Fe2 O46 1.861277 1_555
Fe3 O4 1.983187 1_555
Fe3 O12 1.983187 1_555
Fe3 O43 1.983187 1_555
Fe3 O45 1.983187 1_555
Fe3 O17 1.983187 1_555
Fe3 O24 1.983187 1_555
Fe4 O6 1.983187 1_555
Fe4 O0 1.983187 1_444
Fe4 O29 1.983187 1_555
Fe4 O21 1.983187 1_555
Fe4 O1 1.983187 1_444
Fe4 O11 1.983187 1_444
Fe5 O36 1.861277 1_555
Fe5 O45 1.861277 1_555
Fe5 O44 1.861277 1_555
Fe5 O14 1.861277 1_555
Fe6 O38 1.983187 1_554
Fe6 O37 1.983187 1_545
Fe6 O32 1.983187 1_544
Fe6 O7 1.983187 1_555
Fe6 O27 1.983187 1_554
Fe6 O15 1.983187 1_545
Fe7 O16 1.983187 1_555
Fe7 O26 1.983187 1_555
Fe7 O3 1.983187 1_554
Fe7 O30 1.983187 1_554
Fe7 O41 1.983187 1_555
Fe7 O46 1.983187 1_554
Fe8 O10 1.861277 1_555
Fe8 O43 1.861277 1_555
Fe8 O33 1.861277 1_555
Fe8 O26 1.861277 1_555
Fe9 O8 1.983187 1_555
Fe9 O22 1.983187 1_545
Fe9 O10 1.983187 1_445
Fe9 O2 1.983187 1_545
Fe9 O47 1.983187 1_455
Fe9 O9 1.983187 1_455
Fe10 O20 1.861277 1_555
Fe10 O28 1.861277 1_555
Fe10 O37 1.861277 1_556
Fe10 O11 1.861277 1_455
Fe11 O4 1.861277 1_555
Fe11 O18 1.861277 1_555
Fe11 O25 1.861277 1_555
Fe11 O34 1.861277 1_555
Fe12 O41 1.861277 1_555
Fe12 O0 1.861277 1_554
Fe12 O9 1.861277 1_565
Fe12 O15 1.861277 1_555
Fe13 O8 1.861277 1_555
Fe13 O12 1.861277 1_555
Fe13 O3 1.861277 1_555
Fe13 O23 1.861277 1_555
Fe14 O5 1.861277 1_555
Fe14 O47 1.861277 1_555
Fe14 O1 1.861277 1_545
Fe14 O39 1.861277 1_655
Fe15 O23 1.983187 1_555
Fe15 O18 1.983187 1_555
Fe15 O35 1.983187 1_545
Fe15 O5 1.983187 1_555
Fe15 O36 1.983187 1_545
Fe15 O33 1.983187 1_545
Fe16 O13 1.861277 1_455
Fe16 O22 1.861277 1_555
Fe16 O35 1.861277 1_555
Fe16 O29 1.861277 1_565
Fe17 O31 1.861277 1_555
Fe17 O42 1.861277 1_555
Fe17 O27 1.861277 1_554
Fe17 O6 1.861277 1_655
Fe18 O31 1.983187 1_455
Fe18 O13 1.983187 1_455
Fe18 O44 1.983187 1_555
Fe18 O39 1.983187 1_554
Fe18 O20 1.983187 1_554
Fe18 O25 1.983187 1_454
Fe19 O40 1.861277 1_555
Fe19 O7 1.861277 1_555
Fe19 O24 1.861277 1_555
Fe19 O16 1.861277 1_555
O0 Yb3 2.366987 1_555
O0 Yb9 2.508229 1_555
O1 Yb9 2.366987 1_555
O1 Yb5 2.508229 1_555
O2 Yb6 2.366987 1_555
O2 Yb5 2.508229 1_455
O3 Yb11 2.366987 1_555
O3 Yb3 2.508229 1_555
O4 Yb3 2.366987 1_555
O4 Yb5 2.508229 1_555
O5 Yb9 2.366987 1_545
O5 Yb11 2.508229 1_555
O6 Yb10 2.366987 1_555
O6 Yb0 2.508229 1_555
O7 Yb2 2.366987 1_555
O7 Yb7 2.508229 1_555
O8 Yb10 2.366987 1_555
O8 Yb4 2.508229 1_555
O9 Yb7 2.366987 1_555
O9 Yb10 2.508229 1_655
O10 Yb5 2.366987 1_555
O10 Yb1 2.508229 1_555
O11 Yb5 2.366987 1_555
O11 Yb3 2.508229 1_555
O12 Yb10 2.366987 1_555
O12 Yb2 2.508229 1_555
O13 Yb1 2.366987 1_555
O13 Yb3 2.508229 1_554
O14 Yb6 2.366987 1_555
O14 Yb1 2.508229 1_455
O15 Yb7 2.366987 1_565
O15 Yb8 2.508229 1_555
O16 Yb1 2.366987 1_555
O16 Yb11 2.508229 1_554
O17 Yb9 2.366987 1_555
O17 Yb3 2.508229 1_555
O18 Yb7 2.366987 1_555
O18 Yb2 2.508229 1_555
O19 Yb4 2.366987 1_555
O19 Yb10 2.508229 1_555
O20 Yb8 2.366987 1_556
O20 Yb4 2.508229 1_555
O21 Yb0 2.366987 1_555
O21 Yb2 2.508229 1_555
O22 Yb1 2.366987 1_455
O22 Yb6 2.508229 1_555
O23 Yb11 2.366987 1_555
O23 Yb6 2.508229 1_545
O24 Yb2 2.366987 1_555
O24 Yb0 2.508229 1_555
O25 Yb3 2.366987 1_555
O25 Yb11 2.508229 1_555
O26 Yb8 2.366987 1_555
O26 Yb0 2.508229 1_555
O27 Yb11 2.366987 1_555
O27 Yb9 2.508229 1_545
O28 Yb5 2.366987 1_455
O28 Yb6 2.508229 1_555
O29 Yb2 2.366987 1_555
O29 Yb10 2.508229 1_555
O30 Yb0 2.366987 1_556
O30 Yb4 2.508229 1_555
O31 Yb11 2.366987 1_554
O31 Yb1 2.508229 1_555
O32 Yb9 2.366987 1_555
O32 Yb6 2.508229 1_555
O33 Yb8 2.366987 1_555
O33 Yb7 2.508229 1_565
O34 Yb7 2.366987 1_555
O34 Yb4 2.508229 1_655
O35 Yb2 2.366987 1_565
O35 Yb8 2.508229 1_555
O36 Yb6 2.366987 1_555
O36 Yb9 2.508229 1_555
O37 Yb8 2.366987 1_555
O37 Yb2 2.508229 1_565
O38 Yb6 2.366987 1_545
O38 Yb11 2.508229 1_555
O39 Yb4 2.366987 1_555
O39 Yb0 2.508229 1_556
O40 Yb1 2.366987 1_555
O40 Yb5 2.508229 1_555
O41 Yb3 2.366987 1_554
O41 Yb1 2.508229 1_555
O42 Yb10 2.366987 1_655
O42 Yb7 2.508229 1_555
O43 Yb5 2.366987 1_555
O43 Yb9 2.508229 1_555
O44 Yb0 2.366987 1_555
O44 Yb8 2.508229 1_555
O45 Yb0 2.366987 1_555
O45 Yb10 2.508229 1_555
O46 Yb4 2.366987 1_555
O46 Yb8 2.508229 1_556
O47 Yb4 2.366987 1_655
O47 Yb7 2.508229 1_555
