# generated using pymatgen
data_Na2NiH8(SO6)2
_symmetry_space_group_name_H-M   'P 1'
_cell_length_a   8.25921400
_cell_length_b   5.56722200
_cell_length_c   11.12545037
_cell_angle_alpha   80.04354865
_cell_angle_beta   90.00000000
_cell_angle_gamma   90.00000000
_symmetry_Int_Tables_number   1
_chemical_formula_structural   Na2NiH8(SO6)2
_chemical_formula_sum   'Na4 Ni2 H16 S4 O24'
_cell_volume   503.85363186
_cell_formula_units_Z   2
loop_
 _symmetry_equiv_pos_site_id
 _symmetry_equiv_pos_as_xyz
  1  'x, y, z'
loop_
 _atom_site_type_symbol
 _atom_site_label
 _atom_site_symmetry_multiplicity
 _atom_site_fract_x
 _atom_site_fract_y
 _atom_site_fract_z
 _atom_site_occupancy
  Na  Na0  1  0.07108300  0.12325800  0.63935000  1
  Na  Na1  1  0.57108300  0.87674200  0.86065000  1
  Na  Na2  1  0.92891700  0.87674200  0.36065000  1
  Na  Na3  1  0.42891700  0.12325800  0.13935000  1
  Ni  Ni0  1  0.00000000  0.00000000  0.00000000  1
  Ni  Ni1  1  0.50000000  0.00000000  0.50000000  1
  H  H0  1  0.94427800  0.76555000  0.82111800  1
  H  H1  1  0.44427800  0.23445000  0.67888200  1
  H  H2  1  0.05572200  0.23445000  0.17888200  1
  H  H3  1  0.55572200  0.76555000  0.32111800  1
  H  H4  1  0.13622000  0.77296800  0.84721300  1
  H  H5  1  0.63622000  0.22703200  0.65278700  1
  H  H6  1  0.86378000  0.22703200  0.15278700  1
  H  H7  1  0.36378000  0.77296800  0.34721300  1
  H  H8  1  0.30682800  0.67834200  0.63996200  1
  H  H9  1  0.80682800  0.32165800  0.86003800  1
  H  H10  1  0.69317200  0.32165800  0.36003800  1
  H  H11  1  0.19317200  0.67834200  0.13996200  1
  H  H12  1  0.22453600  0.76419600  0.51490400  1
  H  H13  1  0.72453600  0.23580400  0.98509600  1
  H  H14  1  0.77546400  0.23580400  0.48509600  1
  H  H15  1  0.27546400  0.76419600  0.01490400  1
  S  S0  1  0.28556500  0.37634400  0.86359000  1
  S  S1  1  0.78556500  0.62365600  0.63641000  1
  S  S2  1  0.71443500  0.62365600  0.13641000  1
  S  S3  1  0.21443500  0.37634400  0.36359000  1
  O  O0  1  0.27521700  0.36274500  0.72975400  1
  O  O1  1  0.77521700  0.63725500  0.77024600  1
  O  O2  1  0.72478300  0.63725500  0.27024600  1
  O  O3  1  0.22478300  0.36274500  0.22975400  1
  O  O4  1  0.41390500  0.21314700  0.92243800  1
  O  O5  1  0.91390500  0.78685300  0.57756200  1
  O  O6  1  0.58609500  0.78685300  0.07756200  1
  O  O7  1  0.08609500  0.21314700  0.42243800  1
  O  O8  1  0.12552800  0.31525300  0.92338300  1
  O  O9  1  0.62552800  0.68474700  0.57661700  1
  O  O10  1  0.87447200  0.68474700  0.07661700  1
  O  O11  1  0.37447200  0.31525300  0.42338300  1
  O  O12  1  0.32153900  0.63757700  0.87381800  1
  O  O13  1  0.82153900  0.36242300  0.62618200  1
  O  O14  1  0.67846100  0.36242300  0.12618200  1
  O  O15  1  0.17846100  0.63757700  0.37381800  1
  O  O16  1  0.03522400  0.87334800  0.83853500  1
  O  O17  1  0.53522400  0.12665200  0.66146500  1
  O  O18  1  0.96477600  0.12665200  0.16146500  1
  O  O19  1  0.46477600  0.87334800  0.33853500  1
  O  O20  1  0.28720300  0.82735000  0.57867400  1
  O  O21  1  0.78720300  0.17265000  0.92132600  1
  O  O22  1  0.71279700  0.17265000  0.42132600  1
  O  O23  1  0.21279700  0.82735000  0.07867400  1
loop_
_geom_bond_atom_site_label_1
_geom_bond_atom_site_label_2
_geom_bond_distance
_geom_bond_site_symmetry_2
Na0 O7 2.381584 1_555
Na0 O16 2.422405 1_545
Na0 O13 2.444327 1_455
Na0 O0 2.468906 1_555
Na0 O5 2.471944 1_445
Na0 O20 2.596205 1_545
Na1 O6 2.381584 1_556
Na1 O17 2.422405 1_565
Na1 O12 2.444327 1_555
Na1 O1 2.468906 1_555
Na1 O4 2.471944 1_565
Na1 O21 2.596205 1_565
Na2 O5 2.381584 1_555
Na2 O18 2.422405 1_565
Na2 O15 2.444327 1_655
Na2 O2 2.468906 1_555
Na2 O7 2.471944 1_665
Na2 O22 2.596205 1_565
Na3 O4 2.381584 1_554
Na3 O19 2.422405 1_545
Na3 O14 2.444327 1_555
Na3 O3 2.468906 1_555
Na3 O6 2.471944 1_545
Na3 O23 2.596205 1_545
Ni0 O18 2.060764 1_455
Ni0 O16 2.060764 1_544
Ni0 O8 2.089127 1_554
Ni0 O10 2.089127 1_445
Ni0 O23 2.118490 1_545
Ni0 O21 2.118490 1_454
Ni1 O17 2.060764 1_555
Ni1 O19 2.060764 1_545
Ni1 O9 2.089127 1_545
Ni1 O11 2.089127 1_555
Ni1 O20 2.118490 1_545
Ni1 O22 2.118490 1_555
H0 O16 1.001068 1_655
H0 O1 1.708785 1_555
H1 O17 1.001068 1_555
H1 O0 1.708785 1_555
H2 O18 1.001068 1_455
H2 O3 1.708785 1_555
H3 O19 1.001068 1_555
H3 O2 1.708785 1_555
H4 O16 0.999383 1_555
H4 O12 1.709183 1_555
H5 O17 0.999383 1_555
H5 O13 1.709183 1_555
H6 O18 0.999383 1_555
H6 O14 1.709183 1_555
H7 O19 0.999383 1_555
H7 O15 1.709183 1_555
H8 O20 0.991853 1_555
H9 O21 0.991853 1_555
H10 O22 0.991853 1_555
H11 O23 0.991853 1_555
H12 O20 0.990511 1_555
H13 O21 0.990511 1_555
H14 O22 0.990511 1_555
H15 O23 0.990511 1_555
O0 S0 1.506352 1_555
O1 S1 1.506352 1_555
O2 S2 1.506352 1_555
O3 S3 1.506352 1_555
O4 S0 1.473769 1_555
O5 S1 1.473769 1_555
O6 S2 1.473769 1_555
O7 S3 1.473769 1_555
O8 S0 1.492334 1_555
O9 S1 1.492334 1_555
O10 S2 1.492334 1_555
O11 S3 1.492334 1_555
O12 S0 1.507834 1_555
O13 S1 1.507834 1_555
O14 S2 1.507834 1_555
O15 S3 1.507834 1_555
