# generated using pymatgen
data_PrSbO4
_symmetry_space_group_name_H-M   'P 1'
_cell_length_a   4.74906900
_cell_length_b   6.03378000
_cell_length_c   14.01222927
_cell_angle_alpha   68.73231768
_cell_angle_beta   90.00000000
_cell_angle_gamma   90.00000000
_symmetry_Int_Tables_number   1
_chemical_formula_structural   PrSbO4
_chemical_formula_sum   'Pr4 Sb4 O16'
_cell_volume   374.17314945
_cell_formula_units_Z   4
loop_
 _symmetry_equiv_pos_site_id
 _symmetry_equiv_pos_as_xyz
  1  'x, y, z'
loop_
 _atom_site_type_symbol
 _atom_site_label
 _atom_site_symmetry_multiplicity
 _atom_site_fract_x
 _atom_site_fract_y
 _atom_site_fract_z
 _atom_site_occupancy
  Pr  Pr0  1  0.84327000  0.60032300  0.36548300  1
  Pr  Pr1  1  0.15673000  0.60032300  0.86548300  1
  Pr  Pr2  1  0.15673000  0.39967700  0.63451700  1
  Pr  Pr3  1  0.84327000  0.39967700  0.13451700  1
  Sb  Sb0  1  0.22895000  0.08411600  0.40306200  1
  Sb  Sb1  1  0.77105000  0.08411600  0.90306200  1
  Sb  Sb2  1  0.22895000  0.91588400  0.09693800  1
  Sb  Sb3  1  0.77105000  0.91588400  0.59693800  1
  O  O0  1  0.36066600  0.79383700  0.32868500  1
  O  O1  1  0.34718700  0.53558400  0.39748500  1
  O  O2  1  0.99045300  0.20475500  0.01528600  1
  O  O3  1  0.65281300  0.46441600  0.60251500  1
  O  O4  1  0.09068200  0.75395100  0.68625300  1
  O  O5  1  0.00954700  0.20475500  0.51528600  1
  O  O6  1  0.65281300  0.53558400  0.89748500  1
  O  O7  1  0.36066600  0.20616300  0.17131500  1
  O  O8  1  0.63933400  0.79383700  0.82868500  1
  O  O9  1  0.90931800  0.75395100  0.18625300  1
  O  O10  1  0.00954700  0.79524500  0.98471400  1
  O  O11  1  0.99045300  0.79524500  0.48471400  1
  O  O12  1  0.90931800  0.24604900  0.31374700  1
  O  O13  1  0.34718700  0.46441600  0.10251500  1
  O  O14  1  0.09068200  0.24604900  0.81374700  1
  O  O15  1  0.63933400  0.20616300  0.67131500  1
loop_
_geom_bond_atom_site_label_1
_geom_bond_atom_site_label_2
_geom_bond_distance
_geom_bond_site_symmetry_2
O0 O1 1.507253 1_555
O0 Sb0 2.422672 1_565
O0 Pr0 2.538768 1_555
O0 Pr0 2.688871 1_455
O1 Pr0 2.403541 1_555
O1 Pr0 2.440020 1_455
O2 Sb2 2.045287 1_645
O2 Sb1 2.217814 1_554
O2 Pr3 2.467488 1_555
O2 Pr1 2.663049 1_654
O3 Pr2 2.403541 1_555
O3 Pr2 2.440020 1_655
O4 Sb3 1.984445 1_455
O4 Pr1 2.361355 1_555
O4 Pr2 2.513461 1_555
O5 Sb3 2.045287 1_445
O5 Sb0 2.217814 1_555
O5 Pr2 2.467488 1_555
O5 Pr0 2.663049 1_455
O6 O8 1.507253 1_555
O6 Pr1 2.403541 1_555
O6 Pr1 2.440020 1_655
O7 Sb2 2.422672 1_545
O7 Pr3 2.538768 1_555
O7 Pr3 2.688871 1_455
O8 Sb1 2.422672 1_565
O8 Pr1 2.538768 1_555
O8 Pr1 2.688871 1_655
O9 Sb2 1.984445 1_655
O9 Pr0 2.361355 1_555
O9 Pr3 2.513461 1_555
O10 Sb1 2.045287 1_465
O10 Sb2 2.217814 1_556
O10 Pr1 2.467488 1_555
O10 Pr3 2.663049 1_456
O11 Sb0 2.045287 1_665
O11 Sb3 2.217814 1_555
O11 Pr0 2.467488 1_555
O11 Pr2 2.663049 1_655
O12 Sb0 1.984445 1_655
O12 Pr3 2.361355 1_555
O12 Pr0 2.513461 1_555
O13 O7 1.507253 1_555
O13 Pr3 2.403541 1_555
O13 Pr3 2.440020 1_455
O14 Sb1 1.984445 1_455
O14 Pr2 2.361355 1_555
O14 Pr1 2.513461 1_555
O15 O3 1.507253 1_555
O15 Sb3 2.422672 1_545
O15 Pr2 2.538768 1_555
O15 Pr2 2.688871 1_655
