# generated using pymatgen
data_RbDy(WO4)2
_symmetry_space_group_name_H-M   'P 1'
_cell_length_a   10.43894800
_cell_length_b   8.07562300
_cell_length_c   9.17243545
_cell_angle_alpha   81.45480891
_cell_angle_beta   90.00000000
_cell_angle_gamma   90.00000000
_symmetry_Int_Tables_number   1
_chemical_formula_structural   RbDy(WO4)2
_chemical_formula_sum   'Rb4 Dy4 W8 O32'
_cell_volume   764.66173990
_cell_formula_units_Z   4
loop_
 _symmetry_equiv_pos_site_id
 _symmetry_equiv_pos_as_xyz
  1  'x, y, z'
loop_
 _atom_site_type_symbol
 _atom_site_label
 _atom_site_symmetry_multiplicity
 _atom_site_fract_x
 _atom_site_fract_y
 _atom_site_fract_z
 _atom_site_occupancy
  Rb  Rb0  1  0.21648300  0.57297600  0.98851400  1
  Rb  Rb1  1  0.28351700  0.07297600  0.98851400  1
  Rb  Rb2  1  0.71648300  0.92702400  0.01148600  1
  Rb  Rb3  1  0.78351700  0.42702400  0.01148600  1
  Dy  Dy0  1  0.72329400  0.02135100  0.43591800  1
  Dy  Dy1  1  0.27670600  0.97864900  0.56408200  1
  Dy  Dy2  1  0.22329400  0.47864900  0.56408200  1
  Dy  Dy3  1  0.77670600  0.52135100  0.43591800  1
  W  W0  1  0.51221000  0.32357700  0.66180600  1
  W  W1  1  0.48611900  0.28594600  0.28180400  1
  W  W2  1  0.98611900  0.21405400  0.71819600  1
  W  W3  1  0.98779000  0.82357700  0.66180600  1
  W  W4  1  0.01388100  0.78594600  0.28180400  1
  W  W5  1  0.51388100  0.71405400  0.71819600  1
  W  W6  1  0.01221000  0.17642300  0.33819400  1
  W  W7  1  0.48779000  0.67642300  0.33819400  1
  O  O0  1  0.89524400  0.74284600  0.50734300  1
  O  O1  1  0.10400000  0.95471000  0.40767300  1
  O  O2  1  0.89600000  0.04529000  0.59232700  1
  O  O3  1  0.10475600  0.25715400  0.49265700  1
  O  O4  1  0.62280800  0.15985700  0.23275800  1
  O  O5  1  0.88016700  0.38123600  0.62918800  1
  O  O6  1  0.41013200  0.76657800  0.17535800  1
  O  O7  1  0.59143000  0.65506000  0.88989400  1
  O  O8  1  0.38016700  0.11876400  0.37081200  1
  O  O9  1  0.37719200  0.84014300  0.76724200  1
  O  O10  1  0.60400000  0.54529000  0.59232700  1
  O  O11  1  0.90857000  0.15506000  0.88989400  1
  O  O12  1  0.08986800  0.26657800  0.17535800  1
  O  O13  1  0.89963400  0.99883300  0.27493200  1
  O  O14  1  0.60036600  0.49883300  0.27493200  1
  O  O15  1  0.61983300  0.88123600  0.62918800  1
  O  O16  1  0.10036600  0.00116700  0.72506800  1
  O  O17  1  0.36096900  0.20423900  0.65404900  1
  O  O18  1  0.12280800  0.34014300  0.76724200  1
  O  O19  1  0.91013200  0.73342200  0.82464200  1
  O  O20  1  0.11983300  0.61876400  0.37081200  1
  O  O21  1  0.63903100  0.79576100  0.34595100  1
  O  O22  1  0.39600000  0.45471000  0.40767300  1
  O  O23  1  0.86096900  0.29576100  0.34595100  1
  O  O24  1  0.60475600  0.24284600  0.50734300  1
  O  O25  1  0.13903100  0.70423900  0.65404900  1
  O  O26  1  0.40857000  0.34494000  0.11010600  1
  O  O27  1  0.39963400  0.50116700  0.72506800  1
  O  O28  1  0.39524400  0.75715400  0.49265700  1
  O  O29  1  0.09143000  0.84494000  0.11010600  1
  O  O30  1  0.87719200  0.65985700  0.23275800  1
  O  O31  1  0.58986800  0.23342200  0.82464200  1
loop_
_geom_bond_atom_site_label_1
_geom_bond_atom_site_label_2
_geom_bond_distance
_geom_bond_site_symmetry_2
Dy0 O15 2.234577 1_545
Dy0 O4 2.281345 1_555
Dy0 O21 2.284810 1_545
Dy0 O2 2.329884 1_555
Dy0 O24 2.346941 1_555
Dy0 O13 2.383668 1_545
Dy0 O23 2.667174 1_555
Dy0 O0 2.876060 1_545
Dy1 O8 2.234577 1_565
Dy1 O9 2.281345 1_555
Dy1 O17 2.284810 1_565
Dy1 O1 2.329884 1_555
Dy1 O28 2.346941 1_555
Dy1 O16 2.383668 1_565
Dy1 O25 2.667174 1_555
Dy1 O3 2.876060 1_565
Dy2 O20 2.234577 1_555
Dy2 O18 2.281345 1_555
Dy2 O25 2.284810 1_555
Dy2 O22 2.329884 1_555
Dy2 O3 2.346941 1_555
Dy2 O27 2.383668 1_555
Dy2 O17 2.667174 1_555
Dy2 O28 2.876060 1_555
Dy3 O5 2.234577 1_555
Dy3 O30 2.281345 1_555
Dy3 O23 2.284810 1_555
Dy3 O10 2.329884 1_555
Dy3 O0 2.346941 1_555
Dy3 O14 2.383668 1_555
Dy3 O21 2.667174 1_555
Dy3 O24 2.876060 1_555
O0 W3 1.907927 1_555
O0 W4 2.391778 1_655
O1 W6 2.047183 1_565
O1 W4 2.131423 1_555
O2 W3 2.047183 1_545
O2 W2 2.131423 1_555
O3 W6 1.907927 1_555
O3 W2 2.391778 1_455
O4 W1 1.846986 1_555
O4 Rb2 3.121703 1_545
O4 Rb3 3.207396 1_555
O5 W2 1.839848 1_555
O6 W7 1.759244 1_555
O6 Rb1 3.089716 1_564
O6 Rb0 3.203790 1_554
O7 W5 1.771895 1_555
O7 Rb3 2.836465 1_556
O7 Rb2 2.915405 1_556
O8 W1 1.839848 1_555
O9 W5 1.846986 1_555
O9 Rb1 3.121703 1_565
O9 Rb0 3.207396 1_555
O10 W0 2.047183 1_555
O10 W5 2.131423 1_555
O11 W2 1.771895 1_555
O11 Rb2 2.836465 1_546
O11 Rb3 2.915405 1_556
O12 W6 1.759244 1_555
O12 Rb0 3.089716 1_554
O12 Rb1 3.203790 1_554
O13 W6 2.005453 1_665
O13 W4 2.085603 1_655
O13 Rb2 3.201139 1_555
O14 W7 2.005453 1_555
O14 W1 2.085603 1_555
O14 Rb3 3.201139 1_555
O15 W5 1.839848 1_555
O16 W3 2.005453 1_445
O16 W2 2.085603 1_455
O16 Rb1 3.201139 1_555
O17 W0 1.856559 1_555
O17 Rb1 3.197294 1_555
O18 W2 1.846986 1_455
O18 Rb0 3.121703 1_555
O18 Rb1 3.207396 1_555
O19 W3 1.759244 1_555
O19 Rb3 3.089716 1_556
O19 Rb2 3.203790 1_556
O20 W4 1.839848 1_555
O21 W7 1.856559 1_555
O21 Rb2 3.197294 1_555
O22 W7 2.047183 1_555
O22 W1 2.131423 1_555
O23 W6 1.856559 1_655
O23 Rb3 3.197294 1_555
O24 W0 1.907927 1_555
O24 W1 2.391778 1_555
O25 W3 1.856559 1_455
O25 Rb0 3.197294 1_555
O26 W1 1.771895 1_555
O26 Rb0 2.836465 1_554
O26 Rb1 2.915405 1_554
O27 W0 2.005453 1_555
O27 W5 2.085603 1_555
O27 Rb0 3.201139 1_555
O28 W7 1.907927 1_555
O28 W5 2.391778 1_555
O29 W4 1.771895 1_555
O29 Rb1 2.836465 1_564
O29 Rb0 2.915405 1_554
O30 W4 1.846986 1_655
O30 Rb3 3.121703 1_555
O30 Rb2 3.207396 1_555
O31 W0 1.759244 1_555
O31 Rb2 3.089716 1_546
O31 Rb3 3.203790 1_556
