# generated using pymatgen
data_Ce2Ti2SiO9
_symmetry_space_group_name_H-M   'P 1'
_cell_length_a   5.79254027
_cell_length_b   7.69977735
_cell_length_c   8.98276507
_cell_angle_alpha   110.02102062
_cell_angle_beta   108.80965869
_cell_angle_gamma   89.99999719
_symmetry_Int_Tables_number   1
_chemical_formula_structural   Ce2Ti2SiO9
_chemical_formula_sum   'Ce4 Ti4 Si2 O18'
_cell_volume   353.57220591
_cell_formula_units_Z   2
loop_
 _symmetry_equiv_pos_site_id
 _symmetry_equiv_pos_as_xyz
  1  'x, y, z'
loop_
 _atom_site_type_symbol
 _atom_site_label
 _atom_site_symmetry_multiplicity
 _atom_site_fract_x
 _atom_site_fract_y
 _atom_site_fract_z
 _atom_site_occupancy
  Ce  Ce0  1  0.10448500  0.69457000  0.20897100  1
  Ce  Ce1  1  0.89551500  0.30543000  0.79102900  1
  Ce  Ce2  1  0.21186500  0.31482500  0.42373100  1
  Ce  Ce3  1  0.78813500  0.68517500  0.57626900  1
  Ti  Ti0  1  0.41856200  0.55184200  0.83712300  1
  Ti  Ti1  1  0.23983500  0.00000000  0.00000000  1
  Ti  Ti2  1  0.76016500  0.00000000  0.00000000  1
  Ti  Ti3  1  0.58143800  0.44815800  0.16287700  1
  Si  Si0  1  0.33568600  0.01735000  0.67137200  1
  Si  Si1  1  0.66431400  0.98265000  0.32862800  1
  O  O0  1  0.52817400  0.19060700  0.05634800  1
  O  O1  1  0.09344300  0.51600100  0.67340400  1
  O  O2  1  0.65687800  0.76490800  0.31375500  1
  O  O3  1  0.97705300  0.81593000  0.95410500  1
  O  O4  1  0.42003900  0.48399900  0.32659600  1
  O  O5  1  0.62495300  0.98422800  0.76056500  1
  O  O6  1  0.27196200  0.50000000  0.00000000  1
  O  O7  1  0.02294700  0.18407000  0.04589500  1
  O  O8  1  0.57996100  0.51600100  0.67340400  1
  O  O9  1  0.72803800  0.50000000  0.00000000  1
  O  O10  1  0.34312200  0.23509200  0.68624500  1
  O  O11  1  0.37504700  0.01577200  0.23943500  1
  O  O12  1  0.24109700  0.86346200  0.48219300  1
  O  O13  1  0.90655700  0.48399900  0.32659600  1
  O  O14  1  0.13561300  0.98422800  0.76056500  1
  O  O15  1  0.75890300  0.13653800  0.51780700  1
  O  O16  1  0.47182600  0.80939300  0.94365200  1
  O  O17  1  0.86438700  0.01577200  0.23943500  1
loop_
_geom_bond_atom_site_label_1
_geom_bond_atom_site_label_2
_geom_bond_distance
_geom_bond_site_symmetry_2
Ce0 O12 2.214284 1_555
Ce0 O9 2.440877 1_455
Ce0 O6 2.440881 1_555
Ce0 O13 2.648365 1_455
Ce0 O4 2.648369 1_555
Ce0 O3 2.652267 1_454
Ce0 O17 2.812079 1_465
Ce0 O11 2.812079 1_565
Ce0 O2 3.021003 1_455
Ce0 O2 3.021014 1_555
Ce1 O15 2.214284 1_555
Ce1 O6 2.440877 1_656
Ce1 O9 2.440881 1_556
Ce1 O1 2.648365 1_655
Ce1 O8 2.648369 1_555
Ce1 O7 2.652267 1_656
Ce1 O14 2.812079 1_645
Ce1 O5 2.812079 1_545
Ce1 O10 3.021003 1_655
Ce1 O10 3.021014 1_555
Ce2 O13 2.317089 1_455
Ce2 O4 2.317093 1_555
Ce2 O10 2.520071 1_555
Ce2 O1 2.552099 1_555
Ce2 O8 2.552102 1_555
Ce2 O11 2.708352 1_555
Ce2 O17 2.708352 1_455
Ce3 O1 2.317089 1_655
Ce3 O8 2.317093 1_555
Ce3 O2 2.520071 1_555
Ce3 O13 2.552099 1_555
Ce3 O4 2.552102 1_555
Ce3 O5 2.708352 1_555
Ce3 O14 2.708352 1_655
O0 Ti3 1.858427 1_555
O0 Ti2 2.036160 1_555
O0 Ti1 2.036160 1_555
O1 Ti0 1.929187 1_555
O2 Si1 1.635081 1_555
O2 Ti3 2.308853 1_555
O3 Ti1 1.921186 1_666
O3 Ti2 1.921190 1_566
O4 Ti3 1.929183 1_555
O5 Si0 1.669963 1_565
O5 Ti2 1.997235 1_566
O6 Ti3 2.054785 1_555
O6 Ti0 2.054789 1_554
O7 Ti2 1.921186 1_455
O7 Ti1 1.921190 1_555
O8 Ti0 1.929183 1_555
O9 Ti0 2.054785 1_554
O9 Ti3 2.054789 1_555
O10 Si0 1.635081 1_555
O10 Ti0 2.308853 1_555
O11 Si1 1.669963 1_545
O11 Ti1 1.997235 1_555
O12 Si0 1.616425 1_565
O13 Ti3 1.929187 1_555
O14 Si0 1.669959 1_565
O14 Ti1 1.997235 1_566
O15 Si1 1.616425 1_545
O16 Ti0 1.858427 1_555
O16 Ti1 2.036160 1_566
O16 Ti2 2.036160 1_566
O17 Si1 1.669959 1_545
O17 Ti2 1.997235 1_555
