# generated using pymatgen
data_La4Ni3O8
_symmetry_space_group_name_H-M   'P 1'
_cell_length_a   13.29691295
_cell_length_b   13.29691295
_cell_length_c   13.29691295
_cell_angle_alpha   162.69962485
_cell_angle_beta   162.69962485
_cell_angle_gamma   24.56121323
_symmetry_Int_Tables_number   1
_chemical_formula_structural   La4Ni3O8
_chemical_formula_sum   'La4 Ni3 O8'
_cell_volume   207.85617565
_cell_formula_units_Z   1
loop_
 _symmetry_equiv_pos_site_id
 _symmetry_equiv_pos_as_xyz
  1  'x, y, z'
loop_
 _atom_site_type_symbol
 _atom_site_label
 _atom_site_symmetry_multiplicity
 _atom_site_fract_x
 _atom_site_fract_y
 _atom_site_fract_z
 _atom_site_occupancy
  La  La0  1  0.29887700  0.29887700  0.00000000  1
  La  La1  1  0.70112300  0.70112300  0.00000000  1
  La  La2  1  0.43381900  0.43381900  0.00000000  1
  La  La3  1  0.56618100  0.56618100  0.00000000  1
  Ni  Ni0  1  0.12496500  0.12496500  0.00000000  1
  Ni  Ni1  1  0.87503500  0.87503500  0.00000000  1
  Ni  Ni2  1  0.00000000  0.00000000  0.00000000  1
  O  O0  1  0.87465100  0.37465100  0.50000000  1
  O  O1  1  0.75000000  0.25000000  0.50000000  1
  O  O2  1  0.37465100  0.87465100  0.50000000  1
  O  O3  1  0.25000000  0.75000000  0.50000000  1
  O  O4  1  0.00000000  0.50000000  0.50000000  1
  O  O5  1  0.12534900  0.62534900  0.50000000  1
  O  O6  1  0.62534900  0.12534900  0.50000000  1
  O  O7  1  0.50000000  0.00000000  0.50000000  1
loop_
_geom_bond_atom_site_label_1
_geom_bond_atom_site_label_2
_geom_bond_distance
_geom_bond_site_symmetry_2
La0 O3 2.369094 1_555
La0 O1 2.369094 1_555
La0 O1 2.369094 1_454
La0 O3 2.369094 1_544
La0 O0 2.806510 1_454
La0 O0 2.806510 1_555
La0 O2 2.806510 1_555
La0 O2 2.806510 1_544
La1 O3 2.369094 1_655
La1 O3 2.369094 1_554
La1 O1 2.369094 1_554
La1 O1 2.369094 1_565
La1 O5 2.806510 1_554
La1 O6 2.806510 1_554
La1 O5 2.806510 1_655
La1 O6 2.806510 1_565
La2 O2 2.522577 1_555
La2 O0 2.522577 1_555
La2 O0 2.522577 1_454
La2 O2 2.522577 1_544
La2 O7 2.637608 1_554
La2 O4 2.637608 1_554
La2 O4 2.637608 1_655
La2 O7 2.637608 1_565
La3 O5 2.522577 1_655
La3 O6 2.522577 1_565
La3 O5 2.522577 1_554
La3 O6 2.522577 1_554
La3 O7 2.637608 1_554
La3 O4 2.637608 1_554
La3 O4 2.637608 1_655
La3 O7 2.637608 1_565
Ni0 O5 1.999899 1_544
Ni0 O6 1.999899 1_454
Ni0 O5 1.999899 1_555
Ni0 O6 1.999899 1_555
Ni1 O0 1.999899 1_554
Ni1 O2 1.999899 1_554
Ni1 O0 1.999899 1_565
Ni1 O2 1.999899 1_655
Ni2 O7 1.999874 1_555
Ni2 O7 1.999874 1_454
Ni2 O4 1.999874 1_544
Ni2 O4 1.999874 1_555
