# generated using pymatgen
data_BaNa2Nd2Si4CO15
_symmetry_space_group_name_H-M   'P 1'
_cell_length_a   7.05760600
_cell_length_b   13.61261300
_cell_length_c   14.18709300
_cell_angle_alpha   90.00000000
_cell_angle_beta   90.00000000
_cell_angle_gamma   90.00000000
_symmetry_Int_Tables_number   1
_chemical_formula_structural   BaNa2Nd2Si4CO15
_chemical_formula_sum   'Ba4 Na8 Nd8 Si16 C4 O60'
_cell_volume   1362.98891319
_cell_formula_units_Z   4
loop_
 _symmetry_equiv_pos_site_id
 _symmetry_equiv_pos_as_xyz
  1  'x, y, z'
loop_
 _atom_site_type_symbol
 _atom_site_label
 _atom_site_symmetry_multiplicity
 _atom_site_fract_x
 _atom_site_fract_y
 _atom_site_fract_z
 _atom_site_occupancy
  Ba  Ba0  1  0.41059000  0.25000000  0.85939700  1
  Ba  Ba1  1  0.91059000  0.75000000  0.64060300  1
  Ba  Ba2  1  0.08941000  0.25000000  0.35939700  1
  Ba  Ba3  1  0.58941000  0.75000000  0.14060300  1
  Na  Na0  1  0.76399600  0.96277600  0.52928600  1
  Na  Na1  1  0.23600400  0.03722400  0.47071400  1
  Na  Na2  1  0.26399600  0.46277600  0.97071400  1
  Na  Na3  1  0.76399600  0.53722400  0.52928600  1
  Na  Na4  1  0.73600400  0.53722400  0.02928600  1
  Na  Na5  1  0.23600400  0.46277600  0.47071400  1
  Na  Na6  1  0.26399600  0.03722400  0.97071400  1
  Na  Na7  1  0.73600400  0.96277600  0.02928600  1
  Nd  Nd0  1  0.88101800  0.94281200  0.28745700  1
  Nd  Nd1  1  0.38101800  0.05718800  0.21254300  1
  Nd  Nd2  1  0.11898200  0.44281200  0.71254300  1
  Nd  Nd3  1  0.61898200  0.94281200  0.78745700  1
  Nd  Nd4  1  0.61898200  0.55718800  0.78745700  1
  Nd  Nd5  1  0.38101800  0.44281200  0.21254300  1
  Nd  Nd6  1  0.11898200  0.05718800  0.71254300  1
  Nd  Nd7  1  0.88101800  0.55718800  0.28745700  1
  Si  Si0  1  0.11847800  0.86655600  0.85049600  1
  Si  Si1  1  0.38152200  0.86655600  0.35049600  1
  Si  Si2  1  0.61909400  0.13714400  0.42558400  1
  Si  Si3  1  0.88090600  0.13714400  0.92558400  1
  Si  Si4  1  0.38090600  0.86285600  0.57441600  1
  Si  Si5  1  0.61847800  0.36655600  0.64950400  1
  Si  Si6  1  0.38152200  0.63344400  0.35049600  1
  Si  Si7  1  0.38090600  0.63714400  0.57441600  1
  Si  Si8  1  0.88152200  0.13344400  0.14950400  1
  Si  Si9  1  0.11847800  0.63344400  0.85049600  1
  Si  Si10  1  0.11909400  0.63714400  0.07441600  1
  Si  Si11  1  0.88152200  0.36655600  0.14950400  1
  Si  Si12  1  0.11909400  0.86285600  0.07441600  1
  Si  Si13  1  0.61909400  0.36285600  0.42558400  1
  Si  Si14  1  0.61847800  0.13344400  0.64950400  1
  Si  Si15  1  0.88090600  0.36285600  0.92558400  1
  C  C0  1  0.87939300  0.75000000  0.40152000  1
  C  C1  1  0.62060700  0.75000000  0.90152000  1
  C  C2  1  0.37939300  0.25000000  0.09848000  1
  C  C3  1  0.12060700  0.25000000  0.59848000  1
  O  O0  1  0.05102200  0.10041300  0.22118100  1
  O  O1  1  0.94897800  0.89958700  0.77881900  1
  O  O2  1  0.55666800  0.38279800  0.53804700  1
  O  O3  1  0.86881800  0.75000000  0.30960600  1
  O  O4  1  0.61432600  0.83328100  0.94589500  1
  O  O5  1  0.20730200  0.75000000  0.08171800  1
  O  O6  1  0.55102200  0.60041300  0.27881900  1
  O  O7  1  0.57601600  0.87477200  0.63386900  1
  O  O8  1  0.57601600  0.62522800  0.63386900  1
  O  O9  1  0.63118200  0.75000000  0.80960600  1
  O  O10  1  0.38567400  0.16671900  0.05410500  1
  O  O11  1  0.29327100  0.56407800  0.10054500  1
  O  O12  1  0.94897800  0.60041300  0.77881900  1
  O  O13  1  0.44897800  0.10041300  0.72118100  1
  O  O14  1  0.29327100  0.93592200  0.10054500  1
  O  O15  1  0.70730200  0.25000000  0.41828200  1
  O  O16  1  0.88567400  0.83328100  0.44589500  1
  O  O17  1  0.29269800  0.75000000  0.58171800  1
  O  O18  1  0.70672900  0.43592200  0.89945500  1
  O  O19  1  0.13118200  0.25000000  0.69039400  1
  O  O20  1  0.20447400  0.93923200  0.32731700  1
  O  O21  1  0.94333200  0.11720200  0.03804700  1
  O  O22  1  0.20447400  0.56076800  0.32731700  1
  O  O23  1  0.79552600  0.06076800  0.67268300  1
  O  O24  1  0.07601600  0.37477200  0.86613100  1
  O  O25  1  0.11432600  0.16671900  0.55410500  1
  O  O26  1  0.16910800  0.75000000  0.83181000  1
  O  O27  1  0.42398400  0.12522800  0.36613100  1
  O  O28  1  0.05102200  0.39958700  0.22118100  1
  O  O29  1  0.36881800  0.25000000  0.19039400  1
  O  O30  1  0.61432600  0.66671900  0.94589500  1
  O  O31  1  0.66910800  0.25000000  0.66819000  1
  O  O32  1  0.92398400  0.62522800  0.13386900  1
  O  O33  1  0.20672900  0.56407800  0.60054500  1
  O  O34  1  0.11432600  0.33328100  0.55410500  1
  O  O35  1  0.29552600  0.56076800  0.82731700  1
  O  O36  1  0.29552600  0.93923200  0.82731700  1
  O  O37  1  0.79327100  0.43592200  0.39945500  1
  O  O38  1  0.20672900  0.93592200  0.60054500  1
  O  O39  1  0.38567400  0.33328100  0.05410500  1
  O  O40  1  0.70672900  0.06407800  0.89945500  1
  O  O41  1  0.33089200  0.75000000  0.33181000  1
  O  O42  1  0.05666800  0.88279800  0.96195300  1
  O  O43  1  0.55102200  0.89958700  0.27881900  1
  O  O44  1  0.44333200  0.61720200  0.46195300  1
  O  O45  1  0.94333200  0.38279800  0.03804700  1
  O  O46  1  0.79327100  0.06407800  0.39945500  1
  O  O47  1  0.05666800  0.61720200  0.96195300  1
  O  O48  1  0.79552600  0.43923200  0.67268300  1
  O  O49  1  0.07601600  0.12522800  0.86613100  1
  O  O50  1  0.55666800  0.11720200  0.53804700  1
  O  O51  1  0.44333200  0.88279800  0.46195300  1
  O  O52  1  0.83089200  0.25000000  0.16819000  1
  O  O53  1  0.92398400  0.87477200  0.13386900  1
  O  O54  1  0.42398400  0.37477200  0.36613100  1
  O  O55  1  0.88567400  0.66671900  0.44589500  1
  O  O56  1  0.70447400  0.06076800  0.17268300  1
  O  O57  1  0.70447400  0.43923200  0.17268300  1
  O  O58  1  0.79269800  0.25000000  0.91828200  1
  O  O59  1  0.44897800  0.39958700  0.72118100  1
loop_
_geom_bond_atom_site_label_1
_geom_bond_atom_site_label_2
_geom_bond_distance
_geom_bond_site_symmetry_2
Ba0 O58 2.823200 1_555
Ba0 O59 2.839870 1_555
Ba0 O13 2.839870 1_555
Ba0 O49 2.910264 1_555
Ba0 O24 2.910264 1_555
Ba0 O10 2.991097 1_556
Ba0 O39 2.991097 1_556
Ba0 O19 3.104412 1_555
Ba0 O31 3.269167 1_555
Ba0 O18 3.331153 1_555
Ba0 O40 3.331153 1_555
Ba1 O17 2.823200 1_655
Ba1 O12 2.839870 1_555
Ba1 O1 2.839870 1_555
Ba1 O8 2.910264 1_555
Ba1 O7 2.910264 1_555
Ba1 O16 2.991097 1_555
Ba1 O55 2.991097 1_555
Ba1 O9 3.104412 1_555
Ba1 O26 3.269167 1_655
Ba1 O33 3.331153 1_655
Ba1 O38 3.331153 1_655
Ba2 O15 2.823200 1_455
Ba2 O28 2.839870 1_555
Ba2 O0 2.839870 1_555
Ba2 O54 2.910264 1_555
Ba2 O27 2.910264 1_555
Ba2 O34 2.991097 1_555
Ba2 O25 2.991097 1_555
Ba2 O29 3.104412 1_555
Ba2 O52 3.269167 1_455
Ba2 O37 3.331153 1_455
Ba2 O46 3.331153 1_455
Ba3 O5 2.823200 1_555
Ba3 O43 2.839870 1_555
Ba3 O6 2.839870 1_555
Ba3 O32 2.910264 1_555
Ba3 O53 2.910264 1_555
Ba3 O30 2.991097 1_554
Ba3 O4 2.991097 1_554
Ba3 O3 3.104412 1_555
Ba3 O41 3.269167 1_555
Ba3 O14 3.331153 1_555
Ba3 O11 3.331153 1_555
Na0 O16 2.290081 1_555
Na0 O46 2.310189 1_565
Na0 O7 2.323074 1_555
Na0 O23 2.442869 1_565
Na0 O50 2.564277 1_565
Na0 O51 2.686917 1_555
Na1 O25 2.290081 1_555
Na1 O38 2.310189 1_545
Na1 O27 2.323074 1_555
Na1 O20 2.442869 1_545
Na1 O51 2.564277 1_545
Na1 O50 2.686917 1_555
Na2 O39 2.290081 1_556
Na2 O11 2.310189 1_556
Na2 O24 2.323074 1_555
Na2 O35 2.442869 1_555
Na2 O47 2.564277 1_555
Na2 O45 2.686917 1_456
Na3 O55 2.290081 1_555
Na3 O37 2.310189 1_555
Na3 O8 2.323074 1_555
Na3 O48 2.442869 1_555
Na3 O2 2.564277 1_555
Na3 O44 2.686917 1_555
Na4 O30 2.290081 1_554
Na4 O18 2.310189 1_554
Na4 O32 2.323074 1_555
Na4 O57 2.442869 1_555
Na4 O45 2.564277 1_555
Na4 O47 2.686917 1_654
Na5 O34 2.290081 1_555
Na5 O33 2.310189 1_555
Na5 O54 2.323074 1_555
Na5 O22 2.442869 1_555
Na5 O44 2.564277 1_555
Na5 O2 2.686917 1_555
Na6 O10 2.290081 1_556
Na6 O14 2.310189 1_546
Na6 O49 2.323074 1_555
Na6 O36 2.442869 1_545
Na6 O42 2.564277 1_545
Na6 O21 2.686917 1_456
Na7 O4 2.290081 1_554
Na7 O40 2.310189 1_564
Na7 O53 2.323074 1_555
Na7 O56 2.442869 1_565
Na7 O21 2.564277 1_565
Na7 O42 2.686917 1_654
Nd0 O20 2.352329 1_655
Nd0 O46 2.373429 1_565
Nd0 O53 2.386986 1_555
Nd0 O43 2.405285 1_555
Nd0 O56 2.604245 1_565
Nd0 O0 2.631776 1_665
Nd0 O3 2.644820 1_555
Nd0 O16 2.697529 1_555
Nd1 O56 2.352329 1_555
Nd1 O14 2.373429 1_545
Nd1 O27 2.386986 1_555
Nd1 O0 2.405285 1_555
Nd1 O20 2.604245 1_545
Nd1 O43 2.631776 1_545
Nd1 O29 2.644820 1_555
Nd1 O10 2.697529 1_555
Nd2 O48 2.352329 1_455
Nd2 O33 2.373429 1_555
Nd2 O24 2.386986 1_555
Nd2 O59 2.405285 1_555
Nd2 O35 2.604245 1_555
Nd2 O12 2.631776 1_455
Nd2 O19 2.644820 1_555
Nd2 O34 2.697529 1_555
Nd3 O36 2.352329 1_555
Nd3 O40 2.373429 1_565
Nd3 O7 2.386986 1_555
Nd3 O1 2.405285 1_555
Nd3 O23 2.604245 1_565
Nd3 O13 2.631776 1_565
Nd3 O9 2.644820 1_555
Nd3 O4 2.697529 1_555
Nd4 O35 2.352329 1_555
Nd4 O18 2.373429 1_555
Nd4 O8 2.386986 1_555
Nd4 O12 2.405285 1_555
Nd4 O48 2.604245 1_555
Nd4 O59 2.631776 1_555
Nd4 O9 2.644820 1_555
Nd4 O30 2.697529 1_555
Nd5 O57 2.352329 1_555
Nd5 O11 2.373429 1_555
Nd5 O54 2.386986 1_555
Nd5 O28 2.405285 1_555
Nd5 O22 2.604245 1_555
Nd5 O6 2.631776 1_555
Nd5 O29 2.644820 1_555
Nd5 O39 2.697529 1_555
Nd6 O23 2.352329 1_455
Nd6 O38 2.373429 1_545
Nd6 O49 2.386986 1_555
Nd6 O13 2.405285 1_555
Nd6 O36 2.604245 1_545
Nd6 O1 2.631776 1_445
Nd6 O19 2.644820 1_555
Nd6 O25 2.697529 1_555
Nd7 O22 2.352329 1_655
Nd7 O37 2.373429 1_555
Nd7 O32 2.386986 1_555
Nd7 O6 2.405285 1_555
Nd7 O57 2.604245 1_555
Nd7 O28 2.631776 1_655
Nd7 O3 2.644820 1_555
Nd7 O55 2.697529 1_555
C0 O16 1.297503 1_555
C0 O55 1.297503 1_555
C0 O3 1.306127 1_555
C1 O4 1.297503 1_555
C1 O30 1.297503 1_555
C1 O9 1.306127 1_555
C2 O10 1.297503 1_555
C2 O39 1.297503 1_555
C2 O29 1.306127 1_555
C3 O25 1.297503 1_555
C3 O34 1.297503 1_555
C3 O19 1.306127 1_555
O0 Si8 1.633182 1_455
O1 Si0 1.633182 1_655
O2 Si5 1.655154 1_555
O2 Si13 1.677348 1_555
O5 Si12 1.660842 1_555
O5 Si10 1.660842 1_555
O6 Si6 1.633182 1_555
O7 Si4 1.622930 1_555
O8 Si7 1.622930 1_555
O11 Si10 1.624128 1_555
O12 Si9 1.633182 1_655
O13 Si14 1.633182 1_555
O14 Si12 1.624128 1_555
O15 Si13 1.660842 1_555
O15 Si2 1.660842 1_555
O17 Si7 1.660842 1_555
O17 Si4 1.660842 1_555
O18 Si15 1.624128 1_555
O20 Si1 1.627332 1_555
O21 Si8 1.655154 1_555
O21 Si3 1.677348 1_554
O22 Si6 1.627332 1_555
O23 Si14 1.627332 1_555
O24 Si15 1.622930 1_455
O26 Si0 1.647835 1_555
O26 Si9 1.647835 1_555
O27 Si2 1.622930 1_555
O28 Si11 1.633182 1_455
O31 Si5 1.647835 1_555
O31 Si14 1.647835 1_555
O32 Si10 1.622930 1_655
O33 Si7 1.624128 1_555
O35 Si9 1.627332 1_555
O36 Si0 1.627332 1_555
O37 Si13 1.624128 1_555
O38 Si4 1.624128 1_555
O40 Si3 1.624128 1_555
O41 Si6 1.647835 1_555
O41 Si1 1.647835 1_555
O42 Si0 1.655154 1_555
O42 Si12 1.677348 1_556
O43 Si1 1.633182 1_555
O44 Si6 1.655154 1_555
O44 Si7 1.677348 1_555
O45 Si11 1.655154 1_555
O45 Si15 1.677348 1_554
O46 Si2 1.624128 1_555
O47 Si9 1.655154 1_555
O47 Si10 1.677348 1_556
O48 Si5 1.627332 1_555
O49 Si3 1.622930 1_455
O50 Si14 1.655154 1_555
O50 Si2 1.677348 1_555
O51 Si1 1.655154 1_555
O51 Si4 1.677348 1_555
O52 Si11 1.647835 1_555
O52 Si8 1.647835 1_555
O53 Si12 1.622930 1_655
O54 Si13 1.622930 1_555
O56 Si8 1.627332 1_555
O57 Si11 1.627332 1_555
O58 Si3 1.660842 1_555
O58 Si15 1.660842 1_555
O59 Si5 1.633182 1_555
