# generated using pymatgen
data_Np3Te4
_symmetry_space_group_name_H-M   'P 1'
_cell_length_a   8.20496569
_cell_length_b   8.22702197
_cell_length_c   8.25837512
_cell_angle_alpha   109.41892873
_cell_angle_beta   109.49826185
_cell_angle_gamma   109.46571149
_symmetry_Int_Tables_number   1
_chemical_formula_structural   Np3Te4
_chemical_formula_sum   'Np6 Te8'
_cell_volume   429.29589943
_cell_formula_units_Z   2
loop_
 _symmetry_equiv_pos_site_id
 _symmetry_equiv_pos_as_xyz
  1  'x, y, z'
loop_
 _atom_site_type_symbol
 _atom_site_label
 _atom_site_symmetry_multiplicity
 _atom_site_fract_x
 _atom_site_fract_y
 _atom_site_fract_z
 _atom_site_occupancy
  Np  Np0  1  0.12243382  0.75244935  0.87382239  1
  Np  Np1  1  0.62542728  0.37282690  0.25114663  1
  Np  Np2  1  0.37341342  0.24893462  0.62267134  1
  Np  Np3  1  0.75008830  0.87741075  0.12678451  1
  Np  Np4  1  0.25017535  0.62690561  0.37641000  1
  Np  Np5  1  0.87328105  0.12292712  0.74978712  1
  Te  Te0  1  0.64960402  0.64796042  0.64865117  1
  Te  Te1  1  0.99825802  0.84987182  0.49804629  1
  Te  Te2  1  0.85314556  0.50038294  0.00081550  1
  Te  Te3  1  0.00268809  0.35297483  0.50202141  1
  Te  Te4  1  0.49932900  -0.00133663  0.84987269  1
  Te  Te5  1  0.50033021  0.99964764  0.35104704  1
  Te  Te6  1  0.35306650  0.49986803  -0.00019487  1
  Te  Te7  1  0.14876138  0.14917259  0.14911680  1
loop_
_geom_bond_atom_site_label_1
_geom_bond_atom_site_label_2
_geom_bond_distance
_geom_bond_site_symmetry_2
Np0 Te7 3.183750 1_566
Np0 Te4 3.194534 1_565
Np0 Te2 3.197106 1_456
Np0 Te3 3.212189 1_555
Np0 Te0 3.338602 1_455
Np0 Te1 3.376154 1_455
Np0 Te5 3.404760 1_556
Np0 Te6 3.424255 1_556
Np1 Te3 3.190846 1_655
Np1 Te0 3.203811 1_555
Np1 Te6 3.208969 1_555
Np1 Te4 3.214546 1_554
Np1 Te5 3.362932 1_545
Np1 Te7 3.371155 1_555
Np1 Te1 3.381077 1_555
Np1 Te2 3.402999 1_555
Np2 Te0 3.194851 1_555
Np2 Te1 3.196228 1_445
Np2 Te5 3.200949 1_545
Np2 Te6 3.208013 1_556
Np2 Te3 3.355148 1_555
Np2 Te7 3.377982 1_555
Np2 Te4 3.394104 1_555
Np2 Te2 3.405417 1_556
Np3 Te6 3.188898 1_555
Np3 Te7 3.190864 1_665
Np3 Te1 3.193707 1_555
Np3 Te4 3.194028 1_564
Np3 Te5 3.362957 1_555
Np3 Te3 3.384092 1_665
Np3 Te2 3.407072 1_555
Np3 Te0 3.415810 1_554
Np4 Te2 3.188188 1_455
Np4 Te5 3.190546 1_555
Np4 Te3 3.192030 1_555
Np4 Te0 3.204586 1_555
Np4 Te1 3.366613 1_455
Np4 Te4 3.371457 1_565
Np4 Te7 3.396355 1_555
Np4 Te6 3.414295 1_555
Np5 Te5 3.196888 1_545
Np5 Te7 3.202563 1_656
Np5 Te2 3.202810 1_556
Np5 Te1 3.205157 1_545
Np5 Te4 3.362558 1_555
Np5 Te0 3.370721 1_545
Np5 Te6 3.399562 1_656
Np5 Te3 3.403241 1_655
