# generated using pymatgen
data_Na2P2PbO7
_symmetry_space_group_name_H-M   'P 1'
_cell_length_a   5.59383800
_cell_length_b   7.02270570
_cell_length_c   9.53670085
_cell_angle_alpha   106.21143073
_cell_angle_beta   96.90996678
_cell_angle_gamma   108.53863097
_symmetry_Int_Tables_number   1
_chemical_formula_structural   Na2P2PbO7
_chemical_formula_sum   'Na4 P4 Pb2 O14'
_cell_volume   331.95935993
_cell_formula_units_Z   2
loop_
 _symmetry_equiv_pos_site_id
 _symmetry_equiv_pos_as_xyz
  1  'x, y, z'
loop_
 _atom_site_type_symbol
 _atom_site_label
 _atom_site_symmetry_multiplicity
 _atom_site_fract_x
 _atom_site_fract_y
 _atom_site_fract_z
 _atom_site_occupancy
  Na  Na0  1  0.34528300  0.63549300  0.77172200  1
  Na  Na1  1  0.09885600  0.28714700  0.99229000  1
  Na  Na2  1  0.90114400  0.71285300  0.00771000  1
  Na  Na3  1  0.65471700  0.36450700  0.22827800  1
  P  P0  1  0.47373100  0.86034200  0.15936100  1
  P  P1  1  0.75032400  0.36086300  0.64020000  1
  P  P2  1  0.24967600  0.63913700  0.35980000  1
  P  P3  1  0.52626900  0.13965800  0.84063900  1
  Pb  Pb0  1  0.86035700  0.86588100  0.62633900  1
  Pb  Pb1  1  0.13964300  0.13411900  0.37366100  1
  O  O0  1  0.34729800  0.68137300  0.52613500  1
  O  O1  1  0.50964000  0.20178200  0.68613600  1
  O  O2  1  0.01297900  0.69541200  0.32110500  1
  O  O3  1  0.24136000  0.02488900  0.83770800  1
  O  O4  1  0.32109000  0.01162600  0.17447100  1
  O  O5  1  0.65270200  0.31862700  0.47386500  1
  O  O6  1  0.78696800  0.59013000  0.73913100  1
  O  O7  1  0.33308700  0.65693500  0.02517400  1
  O  O8  1  0.49036000  0.79821800  0.31386400  1
  O  O9  1  0.66691300  0.34306500  0.97482600  1
  O  O10  1  0.98702100  0.30458800  0.67889500  1
  O  O11  1  0.75864000  0.97511100  0.16229200  1
  O  O12  1  0.21303200  0.40987000  0.26086900  1
  O  O13  1  0.67891000  0.98837400  0.82552900  1
loop_
_geom_bond_atom_site_label_1
_geom_bond_atom_site_label_2
_geom_bond_distance
_geom_bond_site_symmetry_2
Na0 O10 2.379756 1_455
Na0 O7 2.390118 1_556
Na0 O13 2.450753 1_555
Na0 O0 2.452494 1_555
Na0 O6 2.632967 1_555
Na0 O3 2.889652 1_565
Na0 O6 3.005074 1_455
Na1 O12 2.394788 1_556
Na1 O7 2.416977 1_556
Na1 O3 2.429219 1_555
Na1 O13 2.560002 1_445
Na1 O9 2.561856 1_455
Na2 O6 2.394788 1_554
Na2 O9 2.416977 1_554
Na2 O11 2.429219 1_555
Na2 O4 2.560002 1_665
Na2 O7 2.561856 1_655
Na3 O2 2.379756 1_655
Na3 O9 2.390118 1_554
Na3 O4 2.450753 1_555
Na3 O5 2.452494 1_555
Na3 O12 2.632967 1_555
Na3 O11 2.889652 1_545
Na3 O12 3.005074 1_655
O0 P2 1.525891 1_555
O0 Pb0 2.666996 1_555
O1 P1 1.646631 1_555
O1 P3 1.649790 1_555
O2 P2 1.530379 1_555
O2 Pb1 2.812378 1_565
O3 P3 1.533060 1_555
O3 Pb0 2.459393 1_445
O4 P0 1.549043 1_545
O4 Pb1 2.342102 1_555
O5 P1 1.525891 1_555
O5 Pb1 2.666996 1_555
O6 P1 1.555606 1_555
O6 Pb0 2.416509 1_555
O7 P0 1.523001 1_555
O8 P2 1.646631 1_555
O8 P0 1.649790 1_555
O9 P3 1.523001 1_555
O10 P1 1.530379 1_555
O10 Pb0 2.812378 1_545
O11 P0 1.533060 1_555
O11 Pb1 2.459393 1_665
O12 P2 1.555606 1_555
O12 Pb1 2.416509 1_555
O13 P3 1.549043 1_565
O13 Pb0 2.342102 1_555
