# generated using pymatgen
data_Ba17Y16Zn8Pt4O57
_symmetry_space_group_name_H-M   'P 1'
_cell_length_a   16.63572954
_cell_length_b   16.63572954
_cell_length_c   16.63572954
_cell_angle_alpha   91.72923838
_cell_angle_beta   91.72923838
_cell_angle_gamma   159.99241871
_symmetry_Int_Tables_number   1
_chemical_formula_structural   Ba17Y16Zn8Pt4O57
_chemical_formula_sum   'Ba17 Y16 Zn8 Pt4 O57'
_cell_volume   1551.24888292
_cell_formula_units_Z   1
loop_
 _symmetry_equiv_pos_site_id
 _symmetry_equiv_pos_as_xyz
  1  'x, y, z'
loop_
 _atom_site_type_symbol
 _atom_site_label
 _atom_site_symmetry_multiplicity
 _atom_site_fract_x
 _atom_site_fract_y
 _atom_site_fract_z
 _atom_site_occupancy
  Ba  Ba0  1  0.93249100  0.44150200  0.37399200  1
  Ba  Ba1  1  0.88784500  0.27654900  0.16439300  1
  Ba  Ba2  1  0.73209700  0.18916400  0.92126100  1
  Ba  Ba3  1  0.27654900  0.11215500  0.38870400  1
  Ba  Ba4  1  0.26790300  0.81083600  0.07873900  1
  Ba  Ba5  1  0.81083600  0.73209700  0.54293300  1
  Ba  Ba6  1  0.06750900  0.55849800  0.62600800  1
  Ba  Ba7  1  0.65823400  0.64980500  0.30803900  1
  Ba  Ba8  1  0.44150200  0.06750900  0.50901100  1
  Ba  Ba9  1  0.18916400  0.26790300  0.45706700  1
  Ba  Ba10  1  0.55849800  0.93249100  0.49098900  1
  Ba  Ba11  1  0.11215500  0.72345100  0.83560700  1
  Ba  Ba12  1  0.34176600  0.35019500  0.69196100  1
  Ba  Ba13  1  0.72345100  0.88784500  0.61129600  1
  Ba  Ba14  1  0.64980500  0.34176600  0.99157100  1
  Ba  Ba15  1  0.35019500  0.65823400  0.00842900  1
  Ba  Ba16  1  0.00000000  0.00000000  0.00000000  1
  Y  Y0  1  0.74964900  0.50662100  0.25627000  1
  Y  Y1  1  0.67369200  0.04948700  0.72317900  1
  Y  Y2  1  0.49337900  0.74964900  0.24302700  1
  Y  Y3  1  0.51179800  0.40019100  0.91198900  1
  Y  Y4  1  0.95051300  0.67369200  0.62420500  1
  Y  Y5  1  0.25035100  0.49337900  0.74373000  1
  Y  Y6  1  0.40019100  0.48820200  0.88839300  1
  Y  Y7  1  0.17204600  0.94758600  0.11963200  1
  Y  Y8  1  0.48820200  0.59980900  0.08801100  1
  Y  Y9  1  0.50662100  0.25035100  0.75697300  1
  Y  Y10  1  0.04948700  0.32630800  0.37579500  1
  Y  Y11  1  0.05241400  0.17204600  0.22445900  1
  Y  Y12  1  0.94758600  0.82795400  0.77554100  1
  Y  Y13  1  0.59980900  0.51179800  0.11160700  1
  Y  Y14  1  0.32630800  0.95051300  0.27682100  1
  Y  Y15  1  0.82795400  0.05241400  0.88036800  1
  Zn  Zn0  1  0.78777700  0.37906300  0.16684100  1
  Zn  Zn1  1  0.62093700  0.78777700  0.40871400  1
  Zn  Zn2  1  0.07602500  0.86623100  0.94225600  1
  Zn  Zn3  1  0.13376900  0.07602500  0.20979300  1
  Zn  Zn4  1  0.21222300  0.62093700  0.83315900  1
  Zn  Zn5  1  0.92397500  0.13376900  0.05774400  1
  Zn  Zn6  1  0.86623100  0.92397500  0.79020700  1
  Zn  Zn7  1  0.37906300  0.21222300  0.59128600  1
  Pt  Pt0  1  0.58305900  0.14422100  0.72728100  1
  Pt  Pt1  1  0.85577900  0.58305900  0.43883800  1
  Pt  Pt2  1  0.41694100  0.85577900  0.27271900  1
  Pt  Pt3  1  0.14422100  0.41694100  0.56116200  1
  O  O0  1  0.63176100  0.39913400  0.52067100  1
  O  O1  1  0.23961800  0.70101100  0.94062900  1
  O  O2  1  0.28060000  0.92502500  0.68954400  1
  O  O3  1  0.59105600  0.28060000  0.35557500  1
  O  O4  1  0.23088600  0.39147500  0.62236100  1
  O  O5  1  0.92755400  0.77968000  0.20412700  1
  O  O6  1  0.29898900  0.23961800  0.53860700  1
  O  O7  1  0.11109100  0.63176100  0.23262800  1
  O  O8  1  0.76911400  0.60852500  0.37763900  1
  O  O9  1  0.68430200  0.66001200  0.84469500  1
  O  O10  1  0.70101100  0.76038200  0.46139300  1
  O  O11  1  0.49686400  0.17737800  0.17587100  1
  O  O12  1  0.84019900  0.84227600  0.68247600  1
  O  O13  1  0.40894400  0.71940000  0.64442500  1
  O  O14  1  0.16039300  0.31569800  0.97571000  1
  O  O15  1  0.82262200  0.99849300  0.31948600  1
  O  O16  1  0.72342600  0.92755400  0.14787300  1
  O  O17  1  0.39913400  0.87846300  0.76737200  1
  O  O18  1  0.05508100  0.43564600  0.49072600  1
  O  O19  1  0.12153700  0.88890900  0.52067100  1
  O  O20  1  0.23548100  0.59105600  0.31045600  1
  O  O21  1  0.18468300  0.16039300  0.84469500  1
  O  O22  1  0.87846300  0.11109100  0.47932900  1
  O  O23  1  0.27657400  0.07244600  0.85212700  1
  O  O24  1  0.39147500  0.76911400  0.16058800  1
  O  O25  1  0.50313600  0.82262200  0.82412900  1
  O  O26  1  0.42444700  0.27657400  0.20412700  1
  O  O27  1  0.99849300  0.67900700  0.17587100  1
  O  O28  1  0.84227600  0.15980100  0.00207700  1
  O  O29  1  0.92502500  0.23548100  0.64442500  1
  O  O30  1  0.32099300  0.49686400  0.31948600  1
  O  O31  1  0.94491900  0.56435400  0.50927400  1
  O  O32  1  0.67900700  0.50313600  0.68051400  1
  O  O33  1  0.07244600  0.22032000  0.79587300  1
  O  O34  1  0.17737800  0.00150700  0.68051400  1
  O  O35  1  0.66001200  0.81531700  0.97571000  1
  O  O36  1  0.00150700  0.32099300  0.82412900  1
  O  O37  1  0.43564600  0.94491900  0.38056500  1
  O  O38  1  0.56435400  0.05508100  0.61943500  1
  O  O39  1  0.76451900  0.40894400  0.68954400  1
  O  O40  1  0.77968000  0.57555300  0.85212700  1
  O  O41  1  0.88890900  0.36823900  0.76737200  1
  O  O42  1  0.60852500  0.23088600  0.83941200  1
  O  O43  1  0.07497500  0.76451900  0.35557500  1
  O  O44  1  0.22032000  0.42444700  0.14787300  1
  O  O45  1  0.31569800  0.33998800  0.15530500  1
  O  O46  1  0.33998800  0.18468300  0.02429000  1
  O  O47  1  0.50000000  0.50000000  0.00000000  1
  O  O48  1  0.71940000  0.07497500  0.31045600  1
  O  O49  1  0.81531700  0.83960700  0.15530500  1
  O  O50  1  0.36823900  0.60086600  0.47932900  1
  O  O51  1  0.76038200  0.29898900  0.05937100  1
  O  O52  1  0.15772400  0.84019900  0.99792300  1
  O  O53  1  0.83960700  0.68430200  0.02429000  1
  O  O54  1  0.15980100  0.15772400  0.31752400  1
  O  O55  1  0.60086600  0.12153700  0.23262800  1
  O  O56  1  0.57555300  0.72342600  0.79587300  1
loop_
_geom_bond_atom_site_label_1
_geom_bond_atom_site_label_2
_geom_bond_distance
_geom_bond_site_symmetry_2
Ba0 O7 2.752110 1_655
Ba0 O55 2.752116 1_555
Ba0 O18 2.843500 1_655
Ba0 O31 2.860884 1_555
Ba0 O37 2.891854 1_655
Ba0 O37 2.891860 1_545
Ba0 O20 3.102655 1_655
Ba0 O48 3.102658 1_555
Ba0 O43 3.285470 1_655
Ba0 O3 3.285472 1_555
Ba1 O7 2.845670 1_655
Ba1 O55 2.845687 1_555
Ba1 O20 2.871393 1_655
Ba1 O48 2.871396 1_555
Ba1 O24 2.896199 1_655
Ba1 O24 2.896199 1_545
Ba1 O28 2.903638 1_555
Ba1 O51 2.998569 1_555
Ba1 O16 3.358422 1_545
Ba1 O44 3.358436 1_655
Ba2 O51 2.627546 1_556
Ba2 O28 2.641810 1_556
Ba2 O1 2.908079 1_655
Ba2 O1 2.908079 1_545
Ba2 O17 2.914175 1_545
Ba2 O41 2.914179 1_555
Ba2 O42 3.021789 1_555
Ba2 O36 3.112361 1_655
Ba2 O25 3.112361 1_545
Ba3 O0 2.845671 1_555
Ba3 O19 2.845679 1_545
Ba3 O3 2.871381 1_555
Ba3 O43 2.871381 1_545
Ba3 O8 2.896199 1_555
Ba3 O8 2.896199 1_445
Ba3 O54 2.903660 1_555
Ba3 O6 2.998579 1_555
Ba3 O5 3.358436 1_445
Ba3 O26 3.358438 1_555
Ba4 O1 2.627546 1_554
Ba4 O52 2.641810 1_554
Ba4 O51 2.908079 1_565
Ba4 O51 2.908079 1_455
Ba4 O55 2.914175 1_565
Ba4 O7 2.914179 1_555
Ba4 O24 3.021789 1_555
Ba4 O11 3.112361 1_565
Ba4 O27 3.112361 1_455
Ba5 O10 2.627546 1_555
Ba5 O12 2.641824 1_555
Ba5 O6 2.908079 1_555
Ba5 O6 2.908079 1_665
Ba5 O0 2.914162 1_555
Ba5 O19 2.914175 1_655
Ba5 O8 3.021796 1_555
Ba5 O32 3.112361 1_555
Ba5 O34 3.112361 1_665
Ba6 O41 2.752110 1_455
Ba6 O17 2.752116 1_555
Ba6 O31 2.843500 1_455
Ba6 O18 2.860884 1_555
Ba6 O38 2.891854 1_455
Ba6 O38 2.891860 1_565
Ba6 O39 3.102655 1_455
Ba6 O2 3.102658 1_555
Ba6 O29 3.285470 1_455
Ba6 O13 3.285472 1_555
Ba7 O8 2.741212 1_555
Ba7 O10 2.746957 1_555
Ba7 O54 2.895890 1_555
Ba7 O54 2.895896 1_665
Ba7 O45 2.938199 1_555
Ba7 O49 2.938199 1_555
Ba7 O26 3.198555 1_555
Ba7 O5 3.198568 1_555
Ba7 O30 3.354561 1_555
Ba7 O15 3.354561 1_555
Ba8 O19 2.752128 1_545
Ba8 O0 2.752140 1_555
Ba8 O37 2.843500 1_545
Ba8 O38 2.860859 1_555
Ba8 O31 2.891853 1_555
Ba8 O31 2.891859 1_445
Ba8 O43 3.102662 1_545
Ba8 O3 3.102662 1_555
Ba8 O39 3.285473 1_555
Ba8 O2 3.285473 1_545
Ba9 O6 2.627546 1_555
Ba9 O54 2.641824 1_555
Ba9 O10 2.908079 1_445
Ba9 O10 2.908079 1_555
Ba9 O50 2.914162 1_555
Ba9 O22 2.914175 1_455
Ba9 O4 3.021796 1_555
Ba9 O15 3.112361 1_445
Ba9 O30 3.112361 1_555
Ba10 O22 2.752128 1_565
Ba10 O50 2.752140 1_555
Ba10 O38 2.843500 1_565
Ba10 O37 2.860859 1_555
Ba10 O18 2.891853 1_555
Ba10 O18 2.891859 1_665
Ba10 O13 3.102662 1_555
Ba10 O29 3.102662 1_565
Ba10 O20 3.285473 1_555
Ba10 O48 3.285473 1_565
Ba11 O41 2.845670 1_455
Ba11 O17 2.845687 1_555
Ba11 O39 2.871393 1_455
Ba11 O2 2.871396 1_555
Ba11 O42 2.896199 1_565
Ba11 O42 2.896199 1_455
Ba11 O52 2.903638 1_555
Ba11 O1 2.998569 1_555
Ba11 O23 3.358422 1_565
Ba11 O40 3.358436 1_455
Ba12 O4 2.741212 1_555
Ba12 O6 2.746957 1_555
Ba12 O12 2.895890 1_555
Ba12 O12 2.895896 1_445
Ba12 O21 2.938199 1_555
Ba12 O9 2.938199 1_555
Ba12 O56 3.198555 1_555
Ba12 O33 3.198568 1_555
Ba12 O32 3.354561 1_555
Ba12 O34 3.354561 1_555
Ba13 O50 2.845671 1_555
Ba13 O22 2.845679 1_565
Ba13 O13 2.871381 1_555
Ba13 O29 2.871381 1_565
Ba13 O4 2.896199 1_665
Ba13 O4 2.896199 1_555
Ba13 O12 2.903660 1_555
Ba13 O10 2.998579 1_555
Ba13 O33 3.358436 1_665
Ba13 O56 3.358438 1_555
Ba14 O42 2.741197 1_555
Ba14 O51 2.746957 1_556
Ba14 O52 2.895894 1_545
Ba14 O52 2.895894 1_655
Ba14 O46 2.938199 1_556
Ba14 O53 2.938199 1_556
Ba14 O23 3.198548 1_555
Ba14 O40 3.198555 1_555
Ba14 O11 3.354561 1_556
Ba14 O27 3.354561 1_556
Ba15 O24 2.741197 1_555
Ba15 O1 2.746957 1_554
Ba15 O28 2.895894 1_455
Ba15 O28 2.895894 1_565
Ba15 O14 2.938199 1_554
Ba15 O35 2.938199 1_554
Ba15 O16 3.198548 1_555
Ba15 O44 3.198555 1_555
Ba15 O25 3.354561 1_554
Ba15 O36 3.354561 1_554
Ba16 O47 2.889848 1_555
Ba16 O47 2.889848 1_445
Ba16 O35 2.953467 1_444
Ba16 O46 2.953467 1_555
Ba16 O14 2.953467 1_554
Ba16 O9 2.953467 1_444
Ba16 O45 2.953467 1_555
Ba16 O49 2.953467 1_445
Ba16 O53 2.953467 1_445
Ba16 O21 2.953467 1_554
O0 Pt1 2.057202 1_555
O0 Zn7 2.161947 1_555
O0 Y4 2.324762 1_555
O1 Zn4 1.960802 1_555
O2 Pt0 2.049048 1_565
O2 Y4 2.243823 1_455
O2 Y9 2.413039 1_565
O3 Pt1 2.049045 1_555
O3 Y14 2.243823 1_545
O3 Y0 2.413033 1_555
O4 Pt3 2.092815 1_555
O4 Y5 2.403677 1_555
O5 Zn3 2.061761 1_665
O5 Y0 2.296456 1_555
O5 Y13 2.317997 1_555
O5 Y7 2.356350 1_655
O6 Zn7 1.960787 1_555
O7 Pt2 2.057183 1_555
O7 Zn0 2.161957 1_455
O7 Y14 2.324769 1_555
O8 Pt1 2.092815 1_555
O8 Y0 2.403677 1_555
O9 Zn6 2.166570 1_555
O9 Y3 2.312223 1_555
O9 Y12 2.411280 1_555
O9 Y6 2.445816 1_555
O10 Zn1 1.960787 1_555
O11 Zn0 2.064021 1_555
O11 Y7 2.312297 1_545
O11 Y0 2.324939 1_555
O11 Y14 2.379166 1_545
O12 Zn6 1.986633 1_555
O12 Y12 2.510056 1_555
O13 Pt3 2.049045 1_555
O13 Y1 2.243823 1_565
O13 Y5 2.413033 1_555
O14 Zn5 2.166579 1_456
O14 Y6 2.312223 1_555
O14 Y15 2.411290 1_455
O14 Y8 2.445816 1_556
O15 Zn1 2.064024 1_555
O15 Y11 2.312310 1_665
O15 Y2 2.324946 1_555
O15 Y10 2.379166 1_665
O16 Zn5 2.061747 1_565
O16 Y2 2.296448 1_555
O16 Y8 2.318001 1_555
O16 Y11 2.356361 1_665
O17 Pt0 2.057188 1_565
O17 Zn4 2.161947 1_555
O17 Y1 2.324756 1_565
O18 Pt3 2.110254 1_555
O18 Y10 2.536530 1_555
O19 Pt1 2.057195 1_455
O19 Zn7 2.161957 1_565
O19 Y4 2.324756 1_455
O20 Pt2 2.049052 1_555
O20 Y10 2.243823 1_555
O20 Y2 2.413042 1_555
O21 Zn6 2.166574 1_445
O21 Y3 2.312223 1_555
O21 Y12 2.411284 1_445
O21 Y6 2.445816 1_555
O22 Pt3 2.057195 1_655
O22 Zn1 2.161957 1_545
O22 Y10 2.324756 1_655
O23 Zn2 2.061747 1_545
O23 Y9 2.296448 1_555
O23 Y3 2.318001 1_555
O23 Y12 2.356361 1_445
O24 Pt2 2.092815 1_555
O24 Y2 2.403677 1_555
O25 Zn4 2.064021 1_555
O25 Y15 2.312297 1_565
O25 Y5 2.324939 1_555
O25 Y1 2.379166 1_565
O26 Zn3 2.061747 1_555
O26 Y0 2.296465 1_555
O26 Y13 2.317989 1_555
O26 Y7 2.356360 1_545
O27 Zn0 2.064025 1_555
O27 Y7 2.312297 1_655
O27 Y0 2.324939 1_555
O27 Y14 2.379166 1_655
O28 Zn5 1.986633 1_555
O28 Y15 2.510056 1_554
O29 Pt3 2.049045 1_655
O29 Y1 2.243823 1_555
O29 Y5 2.413033 1_655
O30 Zn1 2.064024 1_555
O30 Y11 2.312306 1_555
O30 Y2 2.324950 1_555
O30 Y10 2.379166 1_555
O31 Pt1 2.110254 1_555
O31 Y4 2.536530 1_555
O32 Zn7 2.064024 1_555
O32 Y12 2.312306 1_555
O32 Y9 2.324950 1_555
O32 Y4 2.379166 1_555
O33 Zn6 2.061761 1_445
O33 Y5 2.296456 1_555
O33 Y6 2.317997 1_555
O33 Y15 2.356350 1_455
O34 Zn7 2.064024 1_555
O34 Y12 2.312310 1_445
O34 Y9 2.324946 1_555
O34 Y4 2.379166 1_445
O35 Zn5 2.166579 1_566
O35 Y6 2.312223 1_555
O35 Y15 2.411290 1_565
O35 Y8 2.445816 1_556
O36 Zn4 2.064025 1_555
O36 Y15 2.312297 1_455
O36 Y5 2.324939 1_555
O36 Y1 2.379166 1_455
O37 Pt2 2.110258 1_555
O37 Y14 2.536542 1_555
O38 Pt0 2.110258 1_555
O38 Y1 2.536542 1_555
O39 Pt0 2.049052 1_555
O39 Y4 2.243823 1_555
O39 Y9 2.413042 1_555
O40 Zn2 2.061750 1_655
O40 Y9 2.296456 1_555
O40 Y3 2.317989 1_555
O40 Y12 2.356350 1_555
O41 Pt0 2.057183 1_555
O41 Zn4 2.161957 1_655
O41 Y1 2.324769 1_555
O42 Pt0 2.092815 1_555
O42 Y9 2.403677 1_555
O43 Pt1 2.049045 1_455
O43 Y14 2.243823 1_555
O43 Y0 2.413033 1_455
O44 Zn5 2.061750 1_455
O44 Y2 2.296456 1_555
O44 Y8 2.317989 1_555
O44 Y11 2.356350 1_555
O45 Zn3 2.166570 1_555
O45 Y8 2.312223 1_555
O45 Y11 2.411280 1_555
O45 Y13 2.445816 1_555
O46 Zn2 2.166579 1_544
O46 Y13 2.312223 1_555
O46 Y7 2.411290 1_545
O46 Y3 2.445816 1_554
O47 Y3 2.328553 1_554
O47 Y6 2.328553 1_554
O47 Y8 2.328553 1_555
O47 Y13 2.328553 1_555
O48 Pt2 2.049048 1_545
O48 Y10 2.243823 1_655
O48 Y2 2.413039 1_545
O49 Zn3 2.166574 1_665
O49 Y8 2.312223 1_555
O49 Y11 2.411284 1_665
O49 Y13 2.445816 1_555
O50 Pt3 2.057202 1_555
O50 Zn1 2.161947 1_555
O50 Y10 2.324762 1_555
O51 Zn0 1.960802 1_555
O52 Zn2 1.986633 1_555
O52 Y7 2.510056 1_556
O53 Zn2 2.166579 1_654
O53 Y13 2.312223 1_555
O53 Y7 2.411290 1_655
O53 Y3 2.445816 1_554
O54 Zn3 1.986633 1_555
O54 Y11 2.510056 1_555
O55 Pt2 2.057188 1_545
O55 Zn0 2.161947 1_555
O55 Y14 2.324756 1_545
O56 Zn6 2.061747 1_555
O56 Y5 2.296465 1_555
O56 Y6 2.317989 1_555
O56 Y15 2.356360 1_565
