# generated using pymatgen
data_PrCdPd
_symmetry_space_group_name_H-M   'P 1'
_cell_length_a   7.71644339
_cell_length_b   7.71644361
_cell_length_c   4.07280235
_cell_angle_alpha   90.00000000
_cell_angle_beta   90.00000000
_cell_angle_gamma   119.99999911
_symmetry_Int_Tables_number   1
_chemical_formula_structural   PrCdPd
_chemical_formula_sum   'Pr3 Cd3 Pd3'
_cell_volume   210.01887668
_cell_formula_units_Z   3
loop_
 _symmetry_equiv_pos_site_id
 _symmetry_equiv_pos_as_xyz
  1  'x, y, z'
loop_
 _atom_site_type_symbol
 _atom_site_label
 _atom_site_symmetry_multiplicity
 _atom_site_fract_x
 _atom_site_fract_y
 _atom_site_fract_z
 _atom_site_occupancy
  Pr  Pr0  1  0.40653092  0.40653092  0.50000000  1
  Pr  Pr1  1  -0.00000000  0.59346908  0.50000000  1
  Pr  Pr2  1  0.59346908  -0.00000000  0.50000000  1
  Cd  Cd0  1  0.74962546  0.74962546  -0.00000000  1
  Cd  Cd1  1  0.25037454  -0.00000000  0.00000000  1
  Cd  Cd2  1  0.00000000  0.25037454  -0.00000000  1
  Pd  Pd0  1  0.66666700  0.33333300  -0.00000000  1
  Pd  Pd1  1  -0.00000000  -0.00000000  0.50000000  1
  Pd  Pd2  1  0.33333300  0.66666700  0.00000000  1
loop_
_geom_bond_atom_site_label_1
_geom_bond_atom_site_label_2
_geom_bond_distance
_geom_bond_site_symmetry_2
Cd0 Pd1 2.807055 1_665
Cd0 Pd1 2.807055 1_664
Cd0 Pd2 2.944878 1_555
Cd0 Pd0 2.944878 1_555
Cd0 Pr0 3.340064 1_554
Cd0 Pr0 3.340064 1_555
Cd0 Cd1 3.346324 1_665
Cd0 Cd2 3.346324 1_665
Cd0 Pr1 3.414604 1_654
Cd0 Pr1 3.414604 1_655
Cd0 Pr2 3.414604 1_565
Cd0 Pr2 3.414604 1_564
Cd1 Pd1 2.807055 1_555
Cd1 Pd1 2.807055 1_554
Cd1 Pd2 2.944870 1_545
Cd1 Pd0 2.944875 1_555
Cd1 Pr2 3.340064 1_554
Cd1 Pr2 3.340064 1_555
Cd1 Cd2 3.346324 1_555
Cd1 Pr1 3.414604 1_545
Cd1 Pr1 3.414604 1_544
Cd1 Pr0 3.414604 1_554
Cd1 Pr0 3.414604 1_555
Cd2 Pd1 2.807055 1_554
Cd2 Pd1 2.807055 1_555
Cd2 Pd0 2.944870 1_455
Cd2 Pd2 2.944875 1_555
Cd2 Pr1 3.340064 1_555
Cd2 Pr1 3.340064 1_554
Cd2 Pr0 3.414604 1_555
Cd2 Pr0 3.414604 1_554
Cd2 Pr2 3.414604 1_455
Cd2 Pr2 3.414604 1_454
Pd0 Pr2 3.103075 1_555
Pd0 Pr2 3.103075 1_554
Pd0 Pr1 3.103076 1_654
Pd0 Pr1 3.103076 1_655
Pd0 Pr0 3.103080 1_555
Pd0 Pr0 3.103080 1_554
Pd1 Pr2 3.136973 1_455
Pd1 Pr0 3.136973 1_555
Pd1 Pr1 3.136973 1_545
Pd2 Pr1 3.103075 1_555
Pd2 Pr1 3.103075 1_554
Pd2 Pr2 3.103077 1_565
Pd2 Pr2 3.103077 1_564
Pd2 Pr0 3.103080 1_554
Pd2 Pr0 3.103080 1_555
