# generated using pymatgen
data_AgC4OF9
_symmetry_space_group_name_H-M   'P 1'
_cell_length_a   6.98779500
_cell_length_b   10.39860175
_cell_length_c   11.02402817
_cell_angle_alpha   84.86869348
_cell_angle_beta   89.35830044
_cell_angle_gamma   88.03629353
_symmetry_Int_Tables_number   1
_chemical_formula_structural   AgC4OF9
_chemical_formula_sum   'Ag4 C16 O4 F36'
_cell_volume   797.33676799
_cell_formula_units_Z   4
loop_
 _symmetry_equiv_pos_site_id
 _symmetry_equiv_pos_as_xyz
  1  'x, y, z'
loop_
 _atom_site_type_symbol
 _atom_site_label
 _atom_site_symmetry_multiplicity
 _atom_site_fract_x
 _atom_site_fract_y
 _atom_site_fract_z
 _atom_site_occupancy
  Ag  Ag0  1  0.79851500  0.90878600  0.58296100  1
  Ag  Ag1  1  0.20148500  0.09121400  0.41703900  1
  Ag  Ag2  1  0.68903200  0.02996300  0.32360800  1
  Ag  Ag3  1  0.31096800  0.97003700  0.67639200  1
  C  C0  1  0.54557600  0.35715800  0.23139600  1
  C  C1  1  0.45442400  0.64284200  0.76860400  1
  C  C2  1  0.93149600  0.16608900  0.79767200  1
  C  C3  1  0.83860000  0.27204500  0.58635100  1
  C  C4  1  0.79069200  0.70274100  0.82986500  1
  C  C5  1  0.42237000  0.24459400  0.18934300  1
  C  C6  1  0.57763000  0.75540600  0.81065700  1
  C  C7  1  0.82093500  0.70720000  0.33412500  1
  C  C8  1  0.17906500  0.29280000  0.66587500  1
  C  C9  1  0.49823900  0.79665000  0.93680200  1
  C  C10  1  0.99421300  0.80080500  0.33743700  1
  C  C11  1  0.00578700  0.19919500  0.66256300  1
  C  C12  1  0.16140000  0.72795500  0.41364900  1
  C  C13  1  0.06850400  0.83391100  0.20232800  1
  C  C14  1  0.20930800  0.29725900  0.17013500  1
  C  C15  1  0.50176100  0.20335000  0.06319800  1
  O  O0  1  0.05809100  0.08682200  0.60972000  1
  O  O1  1  0.42742000  0.13983500  0.27531900  1
  O  O2  1  0.57258000  0.86016500  0.72468100  1
  O  O3  1  0.94190900  0.91317800  0.39028000  1
  F  F0  1  0.29596600  0.81321100  0.44157900  1
  F  F1  1  0.74754500  0.36498600  0.64514200  1
  F  F2  1  0.37782200  0.12540600  0.01405500  1
  F  F3  1  0.18536300  0.37916500  0.06877900  1
  F  F4  1  0.46692100  0.69482800  0.01902600  1
  F  F5  1  0.81463700  0.62083500  0.93122100  1
  F  F6  1  0.14879900  0.36041700  0.26736500  1
  F  F7  1  0.75308500  0.11771000  0.79729800  1
  F  F8  1  0.62217800  0.87459400  0.98594500  1
  F  F9  1  0.87554300  0.58648400  0.30929200  1
  F  F10  1  0.67125500  0.13498200  0.07865300  1
  F  F11  1  0.04729300  0.07432200  0.85711100  1
  F  F12  1  0.90956800  0.80274400  0.83745500  1
  F  F13  1  0.26401700  0.67443400  0.77762900  1
  F  F14  1  0.30800400  0.24483600  0.75151600  1
  F  F15  1  0.73598300  0.32556600  0.22237100  1
  F  F16  1  0.90666500  0.32672300  0.47871200  1
  F  F17  1  0.51343800  0.47175500  0.16524400  1
  F  F18  1  0.72593100  0.69765100  0.44283800  1
  F  F19  1  0.49103700  0.62541500  0.65005400  1
  F  F20  1  0.53307900  0.30517200  0.98097400  1
  F  F21  1  0.32874500  0.86501800  0.92134700  1
  F  F22  1  0.07596700  0.72975700  0.13692000  1
  F  F23  1  0.50896300  0.37458500  0.34994600  1
  F  F24  1  0.85120100  0.63958300  0.73263500  1
  F  F25  1  0.48656200  0.52824500  0.83475600  1
  F  F26  1  0.09043200  0.19725600  0.16254500  1
  F  F27  1  0.25245500  0.63501400  0.35485800  1
  F  F28  1  0.95270700  0.92567800  0.14288900  1
  F  F29  1  0.12445700  0.41351600  0.69070800  1
  F  F30  1  0.69199600  0.75516400  0.24848400  1
  F  F31  1  0.70403400  0.18678900  0.55842100  1
  F  F32  1  0.27406900  0.30234900  0.55716200  1
  F  F33  1  0.24691500  0.88229000  0.20270200  1
  F  F34  1  0.92403300  0.27024300  0.86308000  1
  F  F35  1  0.09333500  0.67327700  0.52128800  1
loop_
_geom_bond_atom_site_label_1
_geom_bond_atom_site_label_2
_geom_bond_distance
_geom_bond_site_symmetry_2
Ag0 O2 2.246600 1_555
Ag0 O3 2.335831 1_555
Ag0 O0 2.672890 1_665
Ag1 O1 2.246600 1_555
Ag1 O0 2.335831 1_555
Ag1 O3 2.672890 1_445
Ag2 O1 2.168065 1_555
Ag2 O3 2.204501 1_545
Ag3 O2 2.168065 1_555
Ag3 O0 2.204501 1_565
C0 F17 1.353574 1_555
C0 F23 1.355720 1_555
C0 F15 1.364200 1_555
C1 F25 1.353574 1_555
C1 F19 1.355720 1_555
C1 F13 1.364200 1_555
C2 F34 1.353010 1_555
C2 F11 1.357134 1_655
C2 F7 1.360452 1_555
C3 F1 1.348925 1_555
C3 F16 1.357482 1_555
C3 F31 1.370185 1_555
C4 F5 1.351321 1_555
C4 F12 1.361884 1_555
C4 F24 1.362257 1_555
C5 O1 1.378288 1_555
C6 O2 1.378288 1_555
C7 F9 1.350030 1_555
C7 F18 1.360987 1_555
C7 F30 1.362324 1_555
C8 F29 1.350030 1_555
C8 F32 1.360987 1_555
C8 F14 1.362324 1_555
C9 F4 1.352907 1_556
C9 F8 1.355597 1_555
C9 F21 1.364689 1_555
C10 O3 1.387843 1_555
C11 O0 1.387843 1_555
C12 F27 1.348925 1_555
C12 F35 1.357482 1_555
C12 F0 1.370185 1_555
C13 F22 1.353010 1_555
C13 F28 1.357134 1_455
C13 F33 1.360452 1_555
C14 F3 1.351321 1_555
C14 F26 1.361884 1_555
C14 F6 1.362257 1_555
C15 F20 1.352907 1_554
C15 F2 1.355597 1_555
C15 F10 1.364689 1_555
