# generated using pymatgen
data_RbGeIO6
_symmetry_space_group_name_H-M   'P 1'
_cell_length_a   5.11433745
_cell_length_b   5.11433745
_cell_length_c   6.52555200
_cell_angle_alpha   90.00000000
_cell_angle_beta   90.00000000
_cell_angle_gamma   119.99999292
_symmetry_Int_Tables_number   1
_chemical_formula_structural   RbGeIO6
_chemical_formula_sum   'Rb1 Ge1 I1 O6'
_cell_volume   147.81778075
_cell_formula_units_Z   1
loop_
 _symmetry_equiv_pos_site_id
 _symmetry_equiv_pos_as_xyz
  1  'x, y, z'
loop_
 _atom_site_type_symbol
 _atom_site_label
 _atom_site_symmetry_multiplicity
 _atom_site_fract_x
 _atom_site_fract_y
 _atom_site_fract_z
 _atom_site_occupancy
  Rb  Rb0  1  0.66666700  0.33333300  0.00000000  1
  Ge  Ge0  1  0.00000000  0.00000000  0.50000000  1
  I  I0  1  0.33333300  0.66666700  0.50000000  1
  O  O0  1  0.05240600  0.71668400  0.33256700  1
  O  O1  1  0.05240600  0.33572200  0.66743300  1
  O  O2  1  0.66427800  0.71668400  0.66743300  1
  O  O3  1  0.28331600  0.94759400  0.66743300  1
  O  O4  1  0.66427800  0.94759400  0.33256700  1
  O  O5  1  0.28331600  0.33572200  0.33256700  1
loop_
_geom_bond_atom_site_label_1
_geom_bond_atom_site_label_2
_geom_bond_distance
_geom_bond_site_symmetry_2
Ge0 O0 1.937389 1_545
Ge0 O3 1.937389 1_545
Ge0 O1 1.937389 1_555
Ge0 O4 1.937389 1_445
Ge0 O5 1.937389 1_555
Ge0 O2 1.937389 1_445
I0 O3 1.921194 1_555
I0 O0 1.921194 1_555
I0 O4 1.921197 1_555
I0 O1 1.921197 1_555
I0 O2 1.921199 1_555
I0 O5 1.921199 1_555
O0 Rb0 2.928769 1_455
O1 Rb0 2.928767 1_456
O2 Rb0 2.928771 1_556
O3 Rb0 2.928769 1_566
O4 Rb0 2.928767 1_565
O5 Rb0 2.928771 1_555
