# generated using pymatgen
data_Cu6GeWS8
_symmetry_space_group_name_H-M   'P 1'
_cell_length_a   7.57030350
_cell_length_b   7.57030350
_cell_length_c   12.44946100
_cell_angle_alpha   90.00000000
_cell_angle_beta   90.00000000
_cell_angle_gamma   119.99999562
_symmetry_Int_Tables_number   1
_chemical_formula_structural   Cu6GeWS8
_chemical_formula_sum   'Cu12 Ge2 W2 S16'
_cell_volume   617.88518455
_cell_formula_units_Z   2
loop_
 _symmetry_equiv_pos_site_id
 _symmetry_equiv_pos_as_xyz
  1  'x, y, z'
loop_
 _atom_site_type_symbol
 _atom_site_label
 _atom_site_symmetry_multiplicity
 _atom_site_fract_x
 _atom_site_fract_y
 _atom_site_fract_z
 _atom_site_occupancy
  Cu  Cu0  1  0.83887600  0.67775300  0.10490300  1
  Cu  Cu1  1  0.50351200  0.49648800  0.35381100  1
  Cu  Cu2  1  0.00702400  0.50351200  0.85381100  1
  Cu  Cu3  1  0.83887600  0.16112400  0.10490300  1
  Cu  Cu4  1  0.49648800  0.50351200  0.85381100  1
  Cu  Cu5  1  0.16112400  0.32224700  0.60490300  1
  Cu  Cu6  1  0.50351200  0.00702400  0.35381100  1
  Cu  Cu7  1  0.99297600  0.49648800  0.35381100  1
  Cu  Cu8  1  0.16112400  0.83887600  0.60490300  1
  Cu  Cu9  1  0.49648800  0.99297600  0.85381100  1
  Cu  Cu10  1  0.67775300  0.83887600  0.60490300  1
  Cu  Cu11  1  0.32224700  0.16112400  0.10490300  1
  Ge  Ge0  1  0.00000000  0.00000000  0.85178600  1
  Ge  Ge1  1  0.00000000  0.00000000  0.35178600  1
  W  W0  1  0.33333300  0.66666700  0.48147600  1
  W  W1  1  0.66666700  0.33333300  0.98147600  1
  S  S0  1  0.00000000  0.00000000  0.03427700  1
  S  S1  1  0.32955100  0.16477600  0.28968100  1
  S  S2  1  0.83522400  0.16477600  0.28968100  1
  S  S3  1  0.00659900  0.50330000  0.54128800  1
  S  S4  1  0.83522400  0.67044900  0.28968100  1
  S  S5  1  0.66666700  0.33333300  0.79941300  1
  S  S6  1  0.16477600  0.32955100  0.78968100  1
  S  S7  1  0.49670000  0.50330000  0.54128800  1
  S  S8  1  0.00000000  0.00000000  0.53427700  1
  S  S9  1  0.33333300  0.66666700  0.29941300  1
  S  S10  1  0.99340100  0.49670000  0.04128800  1
  S  S11  1  0.49670000  0.99340100  0.54128800  1
  S  S12  1  0.16477600  0.83522400  0.78968100  1
  S  S13  1  0.67044900  0.83522400  0.78968100  1
  S  S14  1  0.50330000  0.00659900  0.04128800  1
  S  S15  1  0.50330000  0.49670000  0.04128800  1
loop_
_geom_bond_atom_site_label_1
_geom_bond_atom_site_label_2
_geom_bond_distance
_geom_bond_site_symmetry_2
Cu0 S0 2.288338 1_665
Cu0 S4 2.300885 1_555
Cu0 S15 2.340422 1_555
Cu0 S10 2.340434 1_555
Cu0 W1 2.731282 1_554
Cu1 S1 2.317461 1_555
Cu1 S4 2.317461 1_555
Cu1 S9 2.331917 1_555
Cu1 S7 2.335696 1_555
Cu1 W0 2.739575 1_555
Cu2 S12 2.317461 1_555
Cu2 S6 2.317467 1_555
Cu2 S5 2.331911 1_455
Cu2 S10 2.335696 1_456
Cu2 W1 2.739569 1_455
Cu3 S0 2.288343 1_655
Cu3 S2 2.300885 1_555
Cu3 S10 2.340421 1_555
Cu3 S14 2.340421 1_555
Cu3 W1 2.731271 1_554
Cu4 S6 2.317461 1_555
Cu4 S13 2.317461 1_555
Cu4 S5 2.331917 1_555
Cu4 S15 2.335696 1_556
Cu4 W1 2.739575 1_555
Cu5 S8 2.288338 1_555
Cu5 S6 2.300885 1_555
Cu5 S7 2.340422 1_555
Cu5 S3 2.340434 1_555
Cu5 W0 2.731282 1_555
Cu6 S2 2.317461 1_555
Cu6 S1 2.317467 1_555
Cu6 S9 2.331911 1_545
Cu6 S11 2.335696 1_545
Cu6 W0 2.739569 1_545
Cu7 S2 2.317461 1_555
Cu7 S4 2.317467 1_555
Cu7 S9 2.331911 1_655
Cu7 S3 2.335696 1_655
Cu7 W0 2.739569 1_655
Cu8 S8 2.288343 1_565
Cu8 S12 2.300885 1_555
Cu8 S11 2.340421 1_555
Cu8 S3 2.340421 1_555
Cu8 W0 2.731271 1_555
Cu9 S12 2.317461 1_555
Cu9 S13 2.317467 1_555
Cu9 S5 2.331911 1_565
Cu9 S14 2.335696 1_566
Cu9 W1 2.739569 1_565
Cu10 S8 2.288338 1_665
Cu10 S13 2.300885 1_555
Cu10 S7 2.340422 1_555
Cu10 S11 2.340434 1_555
Cu10 W0 2.731282 1_555
Cu11 S0 2.288338 1_555
Cu11 S1 2.300885 1_555
Cu11 S15 2.340422 1_555
Cu11 S14 2.340434 1_555
Cu11 W1 2.731282 1_554
Ge0 S0 2.271915 1_556
Ge0 S6 2.294738 1_555
Ge0 S13 2.294738 1_445
Ge0 S12 2.294744 1_545
Ge1 S8 2.271915 1_555
Ge1 S4 2.294738 1_445
Ge1 S1 2.294738 1_555
Ge1 S2 2.294744 1_455
S3 W0 2.267825 1_555
S5 W1 2.266586 1_555
S7 W0 2.267825 1_555
S9 W0 2.266586 1_555
S10 W1 2.267825 1_554
S11 W0 2.267825 1_555
S14 W1 2.267825 1_554
S15 W1 2.267825 1_554
