# generated using pymatgen
data_GdTaO4
_symmetry_space_group_name_H-M   'P 1'
_cell_length_a   5.08838906
_cell_length_b   5.41010404
_cell_length_c   6.56525706
_cell_angle_alpha   111.96614438
_cell_angle_beta   110.30775269
_cell_angle_gamma   95.62142359
_symmetry_Int_Tables_number   1
_chemical_formula_structural   GdTaO4
_chemical_formula_sum   'Gd2 Ta2 O8'
_cell_volume   151.70808054
_cell_formula_units_Z   2
loop_
 _symmetry_equiv_pos_site_id
 _symmetry_equiv_pos_as_xyz
  1  'x, y, z'
loop_
 _atom_site_type_symbol
 _atom_site_label
 _atom_site_symmetry_multiplicity
 _atom_site_fract_x
 _atom_site_fract_y
 _atom_site_fract_z
 _atom_site_occupancy
  Gd  Gd0  1  0.38202243  0.63197756  0.26411371  1
  Gd  Gd1  1  0.61797757  0.36802244  0.73588629  1
  Ta  Ta0  1  0.85014550  0.10013629  0.20036151  1
  Ta  Ta1  1  0.14985450  0.89986471  0.79963849  1
  O  O0  1  0.00184998  0.79237873  0.06268843  1
  O  O1  1  0.56080669  0.27023483  0.06261404  1
  O  O2  1  0.99815002  0.20762127  0.93731157  1
  O  O3  1  0.43919331  0.72976517  0.93738596  1
  O  O4  1  0.20276720  0.36373591  0.41771980  1
  O  O5  1  0.71489893  0.05390250  0.41776982  1
  O  O6  1  0.79723280  0.63626409  0.58228020  1
  O  O7  1  0.28510107  0.94609750  0.58223018  1
loop_
_geom_bond_atom_site_label_1
_geom_bond_atom_site_label_2
_geom_bond_distance
_geom_bond_site_symmetry_2
Gd0 O4 2.330025 1_555
Gd0 O5 2.330438 1_565
Gd0 O1 2.378033 1_555
Gd0 O0 2.378169 1_555
Gd0 O7 2.391031 1_555
Gd0 O6 2.391312 1_555
Gd0 O2 2.493367 1_454
Gd0 O3 2.493537 1_554
Gd1 O6 2.330025 1_555
Gd1 O7 2.330438 1_545
Gd1 O3 2.378033 1_555
Gd1 O2 2.378169 1_555
Gd1 O5 2.391031 1_555
Gd1 O4 2.391312 1_555
Gd1 O0 2.493367 1_656
Gd1 O1 2.493537 1_556
O0 Ta0 1.948154 1_465
O0 Ta1 2.335832 1_554
O1 Ta0 1.948365 1_555
O1 Ta1 2.335274 1_544
O2 Ta1 1.948150 1_645
O2 Ta0 2.335829 1_556
O3 Ta1 1.948369 1_555
O3 Ta0 2.335276 1_566
O4 Ta0 1.867757 1_455
O5 Ta0 1.867797 1_555
O6 Ta1 1.867759 1_655
O7 Ta1 1.867794 1_555
