# generated using pymatgen
data_La2C2N4O
_symmetry_space_group_name_H-M   'P 1'
_cell_length_a   7.48012739
_cell_length_b   7.48012739
_cell_length_c   6.14068267
_cell_angle_alpha   76.64346268
_cell_angle_beta   76.64346268
_cell_angle_gamma   49.64739160
_symmetry_Int_Tables_number   1
_chemical_formula_structural   La2C2N4O
_chemical_formula_sum   'La4 C4 N8 O2'
_cell_volume   253.21405063
_cell_formula_units_Z   2
loop_
 _symmetry_equiv_pos_site_id
 _symmetry_equiv_pos_as_xyz
  1  'x, y, z'
loop_
 _atom_site_type_symbol
 _atom_site_label
 _atom_site_symmetry_multiplicity
 _atom_site_fract_x
 _atom_site_fract_y
 _atom_site_fract_z
 _atom_site_occupancy
  La  La0  1  0.31530400  0.88522900  0.42451700  1
  La  La1  1  0.11477100  0.68469600  0.07548300  1
  La  La2  1  0.68469600  0.11477100  0.57548300  1
  La  La3  1  0.88522900  0.31530400  0.92451700  1
  C  C0  1  0.87876200  0.42637100  0.38852400  1
  C  C1  1  0.42637100  0.87876200  0.88852400  1
  C  C2  1  0.57362900  0.12123800  0.11147600  1
  C  C3  1  0.12123800  0.57362900  0.61147600  1
  N  N0  1  0.47496700  0.70936200  0.03101200  1
  N  N1  1  0.52503300  0.29063800  0.96898800  1
  N  N2  1  0.95019700  0.63286700  0.75354900  1
  N  N3  1  0.70936200  0.47496700  0.53101200  1
  N  N4  1  0.04980300  0.36713300  0.24645100  1
  N  N5  1  0.36713300  0.04980300  0.74645100  1
  N  N6  1  0.29063800  0.52503300  0.46898800  1
  N  N7  1  0.63286700  0.95019700  0.25354900  1
  O  O0  1  0.02610100  0.97389900  0.75000000  1
  O  O1  1  0.97389900  0.02610100  0.25000000  1
loop_
_geom_bond_atom_site_label_1
_geom_bond_atom_site_label_2
_geom_bond_distance
_geom_bond_site_symmetry_2
La0 O0 2.423057 1_555
La0 O1 2.457311 1_465
La0 N3 2.604436 1_555
La0 N7 2.662314 1_555
La0 N0 2.663947 1_555
La0 N6 2.765586 1_555
La0 N5 2.769545 1_565
La0 N4 2.836419 1_565
La1 O0 2.423057 1_554
La1 O1 2.457311 1_465
La1 N1 2.604436 1_554
La1 N4 2.662314 1_555
La1 N6 2.663947 1_555
La1 N0 2.765586 1_555
La1 N2 2.769545 1_454
La1 N7 2.836419 1_455
La2 O1 2.423057 1_555
La2 O0 2.457311 1_645
La2 N6 2.604436 1_555
La2 N5 2.662314 1_555
La2 N1 2.663947 1_555
La2 N3 2.765586 1_555
La2 N7 2.769545 1_545
La2 N2 2.836419 1_545
La3 O1 2.423057 1_556
La3 O0 2.457311 1_645
La3 N0 2.604436 1_556
La3 N2 2.662314 1_555
La3 N3 2.663947 1_555
La3 N1 2.765586 1_555
La3 N4 2.769545 1_656
La3 N5 2.836419 1_655
C0 N4 1.234147 1_655
C0 N3 1.241598 1_555
C1 N5 1.234147 1_565
C1 N0 1.241598 1_556
C2 N7 1.234147 1_545
C2 N1 1.241598 1_554
C3 N2 1.234147 1_455
C3 N6 1.241598 1_555
