# generated using pymatgen
data_Zr3Pb(O2F3)2
_symmetry_space_group_name_H-M   'P 1'
_cell_length_a   7.84093598
_cell_length_b   7.84093598
_cell_length_c   7.84093598
_cell_angle_alpha   60.00000000
_cell_angle_beta   60.00000000
_cell_angle_gamma   60.00000000
_symmetry_Int_Tables_number   1
_chemical_formula_structural   Zr3Pb(O2F3)2
_chemical_formula_sum   'Zr6 Pb2 O8 F12'
_cell_volume   340.86995666
_cell_formula_units_Z   2
loop_
 _symmetry_equiv_pos_site_id
 _symmetry_equiv_pos_as_xyz
  1  'x, y, z'
loop_
 _atom_site_type_symbol
 _atom_site_label
 _atom_site_symmetry_multiplicity
 _atom_site_fract_x
 _atom_site_fract_y
 _atom_site_fract_z
 _atom_site_occupancy
  Zr  Zr0  1  0.22288400  0.22288400  0.77711600  1
  Zr  Zr1  1  0.22288400  0.77711600  0.77711600  1
  Zr  Zr2  1  0.77711600  0.22288400  0.22288400  1
  Zr  Zr3  1  0.22288400  0.77711600  0.22288400  1
  Zr  Zr4  1  0.77711600  0.22288400  0.77711600  1
  Zr  Zr5  1  0.77711600  0.77711600  0.22288400  1
  Pb  Pb0  1  0.75000000  0.75000000  0.75000000  1
  Pb  Pb1  1  0.25000000  0.25000000  0.25000000  1
  O  O0  1  0.88422900  0.34731200  0.88422900  1
  O  O1  1  0.11577100  0.11577100  0.65268800  1
  O  O2  1  0.65268800  0.11577100  0.11577100  1
  O  O3  1  0.11577100  0.11577100  0.11577100  1
  O  O4  1  0.34731200  0.88422900  0.88422900  1
  O  O5  1  0.88422900  0.88422900  0.88422900  1
  O  O6  1  0.88422900  0.88422900  0.34731200  1
  O  O7  1  0.11577100  0.65268800  0.11577100  1
  F  F0  1  0.17197500  0.82802500  0.50000000  1
  F  F1  1  0.50000000  0.82802500  0.17197500  1
  F  F2  1  0.17197500  0.50000000  0.50000000  1
  F  F3  1  0.50000000  0.50000000  0.82802500  1
  F  F4  1  0.50000000  0.50000000  0.17197500  1
  F  F5  1  0.50000000  0.82802500  0.50000000  1
  F  F6  1  0.17197500  0.50000000  0.82802500  1
  F  F7  1  0.82802500  0.50000000  0.50000000  1
  F  F8  1  0.50000000  0.17197500  0.50000000  1
  F  F9  1  0.82802500  0.50000000  0.17197500  1
  F  F10  1  0.50000000  0.17197500  0.82802500  1
  F  F11  1  0.82802500  0.17197500  0.50000000  1
loop_
_geom_bond_atom_site_label_1
_geom_bond_atom_site_label_2
_geom_bond_distance
_geom_bond_site_symmetry_2
O0 Zr4 2.169512 1_555
O0 Zr2 2.169519 1_556
O0 Zr0 2.169519 1_655
O0 Pb0 2.578048 1_555
O1 Zr0 2.169512 1_555
O1 Zr1 2.169519 1_545
O1 Zr4 2.169519 1_455
O1 Pb1 2.578048 1_555
O2 Zr2 2.169512 1_555
O2 Zr4 2.169519 1_554
O2 Zr5 2.169519 1_545
O2 Pb1 2.578048 1_555
O3 Zr0 2.169519 1_554
O3 Zr2 2.169519 1_455
O3 Zr3 2.169519 1_545
O3 Pb1 2.578041 1_555
O4 Zr1 2.169512 1_555
O4 Zr3 2.169519 1_556
O4 Zr0 2.169519 1_565
O4 Pb0 2.578048 1_555
O5 Zr1 2.169519 1_655
O5 Zr4 2.169519 1_565
O5 Zr5 2.169519 1_556
O5 Pb0 2.578041 1_555
O6 Zr5 2.169512 1_555
O6 Zr2 2.169519 1_565
O6 Zr3 2.169519 1_655
O6 Pb0 2.578048 1_555
O7 Zr3 2.169512 1_555
O7 Zr1 2.169519 1_554
O7 Zr5 2.169519 1_455
O7 Pb1 2.578048 1_555
F0 Zr1 2.209211 1_555
F0 Zr3 2.209211 1_555
F1 Zr5 2.209211 1_555
F1 Zr3 2.209211 1_555
F2 Zr3 2.209211 1_555
F2 Zr0 2.209211 1_555
F3 Zr1 2.209211 1_555
F3 Zr4 2.209211 1_555
F4 Zr3 2.209211 1_555
F4 Zr2 2.209211 1_555
F5 Zr1 2.209211 1_555
F5 Zr5 2.209211 1_555
F6 Zr1 2.209211 1_555
F6 Zr0 2.209211 1_555
F7 Zr4 2.209211 1_555
F7 Zr5 2.209211 1_555
F8 Zr0 2.209211 1_555
F8 Zr2 2.209211 1_555
F9 Zr5 2.209211 1_555
F9 Zr2 2.209211 1_555
F10 Zr4 2.209211 1_555
F10 Zr0 2.209211 1_555
F11 Zr4 2.209211 1_555
F11 Zr2 2.209211 1_555
