# generated using pymatgen
data_LiC2S2N(O2F3)2
_symmetry_space_group_name_H-M   'P 1'
_cell_length_a   5.52901500
_cell_length_b   9.82532700
_cell_length_c   16.59463100
_cell_angle_alpha   90.00000000
_cell_angle_beta   90.00000000
_cell_angle_gamma   90.00000000
_symmetry_Int_Tables_number   1
_chemical_formula_structural   LiC2S2N(O2F3)2
_chemical_formula_sum   'Li4 C8 S8 N4 O16 F24'
_cell_volume   901.49304643
_cell_formula_units_Z   4
loop_
 _symmetry_equiv_pos_site_id
 _symmetry_equiv_pos_as_xyz
  1  'x, y, z'
loop_
 _atom_site_type_symbol
 _atom_site_label
 _atom_site_symmetry_multiplicity
 _atom_site_fract_x
 _atom_site_fract_y
 _atom_site_fract_z
 _atom_site_occupancy
  Li  Li0  1  0.25000000  0.34519800  0.75000000  1
  Li  Li1  1  0.75000000  0.65480200  0.25000000  1
  Li  Li2  1  0.25000000  0.84519800  0.75000000  1
  Li  Li3  1  0.75000000  0.15480200  0.25000000  1
  C  C0  1  0.74966900  0.09366600  0.90792900  1
  C  C1  1  0.75033100  0.09366600  0.59207100  1
  C  C2  1  0.74966900  0.59366600  0.59207100  1
  C  C3  1  0.25033100  0.90633400  0.09207100  1
  C  C4  1  0.24966900  0.90633400  0.40792900  1
  C  C5  1  0.75033100  0.59366600  0.90792900  1
  C  C6  1  0.24966900  0.40633400  0.09207100  1
  C  C7  1  0.25033100  0.40633400  0.40792900  1
  S  S0  1  0.07027600  0.41832700  0.31201700  1
  S  S1  1  0.42972400  0.91832700  0.31201700  1
  S  S2  1  0.92972400  0.08167300  0.81201700  1
  S  S3  1  0.57027600  0.08167300  0.68798300  1
  S  S4  1  0.57027600  0.58167300  0.81201700  1
  S  S5  1  0.07027600  0.91832700  0.18798300  1
  S  S6  1  0.92972400  0.58167300  0.68798300  1
  S  S7  1  0.42972400  0.41832700  0.18798300  1
  N  N0  1  0.25000000  0.98609700  0.25000000  1
  N  N1  1  0.75000000  0.51390300  0.75000000  1
  N  N2  1  0.25000000  0.48609700  0.25000000  1
  N  N3  1  0.75000000  0.01390300  0.75000000  1
  O  O0  1  0.11784800  0.48287500  0.67024500  1
  O  O1  1  0.88215200  0.01712500  0.17024500  1
  O  O2  1  0.11784800  0.98287500  0.82975500  1
  O  O3  1  0.50306500  0.27930300  0.20447700  1
  O  O4  1  0.88215200  0.51712500  0.32975500  1
  O  O5  1  0.00306500  0.22069700  0.79552300  1
  O  O6  1  0.49693500  0.22069700  0.70447700  1
  O  O7  1  0.38215200  0.48287500  0.82975500  1
  O  O8  1  0.50306500  0.77930300  0.29552300  1
  O  O9  1  0.99693500  0.27930300  0.29552300  1
  O  O10  1  0.99693500  0.77930300  0.20447700  1
  O  O11  1  0.38215200  0.98287500  0.67024500  1
  O  O12  1  0.49693500  0.72069700  0.79552300  1
  O  O13  1  0.61784800  0.51712500  0.17024500  1
  O  O14  1  0.61784800  0.01712500  0.32975500  1
  O  O15  1  0.00306500  0.72069700  0.70447700  1
  F  F0  1  0.67183500  0.46933100  0.56990100  1
  F  F1  1  0.60868900  0.14573600  0.53359500  1
  F  F2  1  0.39131100  0.35426400  0.03359500  1
  F  F3  1  0.17183500  0.03066900  0.43009900  1
  F  F4  1  0.44262800  0.82384500  0.10333900  1
  F  F5  1  0.89131100  0.14573600  0.96640500  1
  F  F6  1  0.60868900  0.64573600  0.96640500  1
  F  F7  1  0.10868900  0.85426400  0.03359500  1
  F  F8  1  0.17183500  0.53066900  0.06990100  1
  F  F9  1  0.05737200  0.32384500  0.10333900  1
  F  F10  1  0.67183500  0.96933100  0.93009900  1
  F  F11  1  0.89131100  0.64573600  0.53359500  1
  F  F12  1  0.32816500  0.03066900  0.06990100  1
  F  F13  1  0.55737200  0.67615500  0.60333900  1
  F  F14  1  0.94262800  0.17615500  0.60333900  1
  F  F15  1  0.05737200  0.82384500  0.39666100  1
  F  F16  1  0.94262800  0.67615500  0.89666100  1
  F  F17  1  0.82816500  0.46933100  0.93009900  1
  F  F18  1  0.82816500  0.96933100  0.56990100  1
  F  F19  1  0.39131100  0.85426400  0.46640500  1
  F  F20  1  0.10868900  0.35426400  0.46640500  1
  F  F21  1  0.44262800  0.32384500  0.39666100  1
  F  F22  1  0.55737200  0.17615500  0.89666100  1
  F  F23  1  0.32816500  0.53066900  0.43009900  1
loop_
_geom_bond_atom_site_label_1
_geom_bond_atom_site_label_2
_geom_bond_distance
_geom_bond_site_symmetry_2
Li0 O5 1.982706 1_555
Li0 O6 1.982706 1_555
Li0 O0 2.028645 1_555
Li0 O7 2.028645 1_555
Li1 O10 1.982706 1_555
Li1 O8 1.982706 1_555
Li1 O13 2.028645 1_555
Li1 O4 2.028645 1_555
Li2 O15 1.982706 1_555
Li2 O12 1.982706 1_555
Li2 O11 2.028645 1_555
Li2 O2 2.028645 1_555
Li3 O3 1.982706 1_555
Li3 O9 1.982706 1_555
Li3 O1 2.028645 1_555
Li3 O14 2.028645 1_555
C0 F10 1.346453 1_545
C0 F5 1.347851 1_555
C0 F22 1.349914 1_555
C0 S2 1.881017 1_555
C1 F18 1.346453 1_545
C1 F1 1.347851 1_555
C1 F14 1.349914 1_555
C1 S3 1.881017 1_555
C2 F0 1.346453 1_555
C2 F11 1.347851 1_555
C2 F13 1.349914 1_555
C2 S6 1.881017 1_555
C3 F12 1.346453 1_565
C3 F7 1.347851 1_555
C3 F4 1.349914 1_555
C3 S5 1.881017 1_555
C4 F3 1.346453 1_565
C4 F19 1.347851 1_555
C4 F15 1.349914 1_555
C4 S1 1.881017 1_555
C5 F17 1.346453 1_555
C5 F6 1.347851 1_555
C5 F16 1.349914 1_555
C5 S4 1.881017 1_555
C6 F8 1.346453 1_555
C6 F2 1.347851 1_555
C6 F9 1.349914 1_555
C6 S7 1.881017 1_555
C7 F23 1.346453 1_555
C7 F20 1.347851 1_555
C7 F21 1.349914 1_555
C7 S0 1.881017 1_555
N0 S1 1.577959 1_555
N0 S5 1.577959 1_555
N1 S4 1.577959 1_555
N1 S6 1.577959 1_555
N2 S7 1.577959 1_555
N2 S0 1.577959 1_555
N3 S3 1.577959 1_555
N3 S2 1.577959 1_555
O0 S6 1.452873 1_455
O1 S5 1.452873 1_645
O2 S2 1.452873 1_465
O3 S7 1.450927 1_555
O4 S0 1.452873 1_655
O5 S2 1.450927 1_455
O6 S3 1.450927 1_555
O7 S4 1.452873 1_555
O8 S1 1.450927 1_555
O9 S0 1.450927 1_655
O10 S5 1.450927 1_655
O11 S3 1.452873 1_565
O12 S4 1.450927 1_555
O13 S7 1.452873 1_555
O14 S1 1.452873 1_545
O15 S6 1.450927 1_455
