# generated using pymatgen
data_CaYbInS4
_symmetry_space_group_name_H-M   'P 1'
_cell_length_a   6.73802500
_cell_length_b   8.04723300
_cell_length_c   13.83916700
_cell_angle_alpha   90.00000000
_cell_angle_beta   90.00000000
_cell_angle_gamma   90.00000000
_symmetry_Int_Tables_number   1
_chemical_formula_structural   CaYbInS4
_chemical_formula_sum   'Ca4 Yb4 In4 S16'
_cell_volume   750.39363944
_cell_formula_units_Z   4
loop_
 _symmetry_equiv_pos_site_id
 _symmetry_equiv_pos_as_xyz
  1  'x, y, z'
loop_
 _atom_site_type_symbol
 _atom_site_label
 _atom_site_symmetry_multiplicity
 _atom_site_fract_x
 _atom_site_fract_y
 _atom_site_fract_z
 _atom_site_occupancy
  Ca  Ca0  1  0.00707500  0.75000000  0.26839000  1
  Ca  Ca1  1  0.50707500  0.25000000  0.23161000  1
  Ca  Ca2  1  0.99292500  0.25000000  0.73161000  1
  Ca  Ca3  1  0.49292500  0.75000000  0.76839000  1
  Yb  Yb0  1  0.50000000  0.00000000  0.50000000  1
  Yb  Yb1  1  0.00000000  0.00000000  0.00000000  1
  Yb  Yb2  1  0.50000000  0.50000000  0.50000000  1
  Yb  Yb3  1  0.00000000  0.50000000  0.00000000  1
  In  In0  1  0.58395800  0.75000000  0.09011500  1
  In  In1  1  0.08395800  0.25000000  0.40988500  1
  In  In2  1  0.41604200  0.25000000  0.90988500  1
  In  In3  1  0.91604200  0.75000000  0.59011500  1
  S  S0  1  0.22167900  0.75000000  0.09003900  1
  S  S1  1  0.72167900  0.25000000  0.40996100  1
  S  S2  1  0.77832100  0.25000000  0.90996100  1
  S  S3  1  0.27832100  0.75000000  0.59003900  1
  S  S4  1  0.74941000  0.75000000  0.42803900  1
  S  S5  1  0.24941000  0.25000000  0.07196100  1
  S  S6  1  0.25059000  0.25000000  0.57196100  1
  S  S7  1  0.75059000  0.75000000  0.92803900  1
  S  S8  1  0.76004000  0.98789700  0.16701600  1
  S  S9  1  0.26004000  0.01210300  0.33298400  1
  S  S10  1  0.23996000  0.48789700  0.83298400  1
  S  S11  1  0.73996000  0.51210300  0.66701600  1
  S  S12  1  0.23996000  0.01210300  0.83298400  1
  S  S13  1  0.73996000  0.98789700  0.66701600  1
  S  S14  1  0.76004000  0.51210300  0.16701600  1
  S  S15  1  0.26004000  0.48789700  0.33298400  1
loop_
_geom_bond_atom_site_label_1
_geom_bond_atom_site_label_2
_geom_bond_distance
_geom_bond_site_symmetry_2
Ca0 S4 2.809932 1_455
Ca0 S15 2.855366 1_555
Ca0 S9 2.855366 1_565
Ca0 S0 2.860610 1_555
Ca0 S14 2.898939 1_455
Ca0 S8 2.898939 1_455
Ca1 S5 2.809932 1_555
Ca1 S14 2.855366 1_555
Ca1 S8 2.855366 1_545
Ca1 S1 2.860610 1_555
Ca1 S9 2.898939 1_555
Ca1 S15 2.898939 1_555
Ca2 S6 2.809932 1_655
Ca2 S13 2.855366 1_545
Ca2 S11 2.855366 1_555
Ca2 S2 2.860610 1_555
Ca2 S12 2.898939 1_655
Ca2 S10 2.898939 1_655
Ca3 S7 2.809932 1_555
Ca3 S12 2.855366 1_565
Ca3 S10 2.855366 1_555
Ca3 S3 2.860610 1_555
Ca3 S13 2.898939 1_555
Ca3 S11 2.898939 1_555
In0 S0 2.441045 1_555
In0 S8 2.491033 1_555
In0 S14 2.491033 1_555
In0 S7 2.508316 1_554
In1 S1 2.441045 1_455
In1 S15 2.491033 1_555
In1 S9 2.491033 1_555
In1 S6 2.508316 1_555
In2 S2 2.441045 1_555
In2 S12 2.491033 1_555
In2 S10 2.491033 1_555
In2 S5 2.508316 1_556
In3 S3 2.441045 1_655
In3 S13 2.491033 1_555
In3 S11 2.491033 1_555
In3 S4 2.508316 1_555
S0 Yb3 2.798415 1_555
S0 Yb1 2.798415 1_565
S1 Yb0 2.798415 1_555
S1 Yb2 2.798415 1_555
S2 Yb3 2.798415 1_656
S2 Yb1 2.798415 1_656
S3 Yb2 2.798415 1_555
S3 Yb0 2.798415 1_565
S4 Yb2 2.804164 1_555
S4 Yb0 2.804164 1_565
S5 Yb3 2.804164 1_555
S5 Yb1 2.804164 1_555
S6 Yb2 2.804164 1_555
S6 Yb0 2.804164 1_555
S7 Yb3 2.804164 1_656
S7 Yb1 2.804164 1_666
S8 Yb1 2.822429 1_665
S9 Yb0 2.822429 1_555
S10 Yb3 2.822429 1_556
S11 Yb2 2.822429 1_555
S12 Yb1 2.822429 1_556
S13 Yb0 2.822429 1_565
S14 Yb3 2.822429 1_655
S15 Yb2 2.822429 1_555
