# generated using pymatgen
data_CsTeAu
_symmetry_space_group_name_H-M   'P 1'
_cell_length_a   5.40637089
_cell_length_b   6.28707151
_cell_length_c   7.30254586
_cell_angle_alpha   90.00000000
_cell_angle_beta   90.00000000
_cell_angle_gamma   90.00000000
_symmetry_Int_Tables_number   1
_chemical_formula_structural   CsTeAu
_chemical_formula_sum   'Cs2 Te2 Au2'
_cell_volume   248.21528928
_cell_formula_units_Z   2
loop_
 _symmetry_equiv_pos_site_id
 _symmetry_equiv_pos_as_xyz
  1  'x, y, z'
loop_
 _atom_site_type_symbol
 _atom_site_label
 _atom_site_symmetry_multiplicity
 _atom_site_fract_x
 _atom_site_fract_y
 _atom_site_fract_z
 _atom_site_occupancy
  Cs  Cs0  1  0.50000000  0.25000000  0.71402883  1
  Cs  Cs1  1  0.50000000  0.75000000  0.28597117  1
  Te  Te0  1  -0.00000000  0.75000000  0.71415588  1
  Te  Te1  1  -0.00000000  0.25000000  0.28584412  1
  Au  Au0  1  0.00000000  -0.00000000  0.00000000  1
  Au  Au1  1  -0.00000000  0.50000000  0.00000000  1
loop_
_geom_bond_atom_site_label_1
_geom_bond_atom_site_label_2
_geom_bond_distance
_geom_bond_site_symmetry_2
Cs0 Te1 4.133320 1_655
Cs0 Te1 4.133320 1_555
Cs0 Te0 4.145965 1_655
Cs0 Te0 4.145965 1_645
Cs0 Te0 4.145965 1_545
Cs0 Te0 4.145965 1_555
Cs1 Te0 4.133320 1_555
Cs1 Te0 4.133320 1_655
Cs1 Te1 4.145965 1_665
Cs1 Te1 4.145965 1_555
Cs1 Te1 4.145965 1_565
Cs1 Te1 4.145965 1_655
Au0 Te1 2.612977 1_555
Au0 Te0 2.612977 1_544
Au0 Cs0 3.760151 1_554
Au0 Cs1 3.760151 1_445
Au0 Cs0 3.760151 1_454
Au0 Cs1 3.760151 1_545
Au1 Te1 2.612977 1_555
Au1 Te0 2.612977 1_554
Au1 Cs0 3.760151 1_554
Au1 Cs1 3.760151 1_455
Au1 Cs0 3.760151 1_454
Au1 Cs1 3.760151 1_555
