# generated using pymatgen
data_MoC3S2Cl7O
_symmetry_space_group_name_H-M   'P 1'
_cell_length_a   10.33117800
_cell_length_b   8.37877300
_cell_length_c   9.00111091
_cell_angle_alpha   72.35173108
_cell_angle_beta   90.00000000
_cell_angle_gamma   90.00000000
_symmetry_Int_Tables_number   1
_chemical_formula_structural   MoC3S2Cl7O
_chemical_formula_sum   'Mo2 C6 S4 Cl14 O2'
_cell_volume   742.48884324
_cell_formula_units_Z   2
loop_
 _symmetry_equiv_pos_site_id
 _symmetry_equiv_pos_as_xyz
  1  'x, y, z'
loop_
 _atom_site_type_symbol
 _atom_site_label
 _atom_site_symmetry_multiplicity
 _atom_site_fract_x
 _atom_site_fract_y
 _atom_site_fract_z
 _atom_site_occupancy
  Mo  Mo0  1  0.76914600  0.43419000  0.87901100  1
  Mo  Mo1  1  0.23085400  0.43419000  0.37901100  1
  C  C0  1  0.33494800  0.92151000  0.95757000  1
  C  C1  1  0.77307200  0.85308900  0.40474100  1
  C  C2  1  0.66505200  0.92151000  0.45757000  1
  C  C3  1  0.69254100  0.05955500  0.50947500  1
  C  C4  1  0.22692800  0.85308900  0.90474100  1
  C  C5  1  0.30745900  0.05955500  0.00947500  1
  S  S0  1  0.92036400  0.94077500  0.41661900  1
  S  S1  1  0.14990000  0.12102100  0.00550800  1
  S  S2  1  0.85010000  0.12102100  0.50550800  1
  S  S3  1  0.07963600  0.94077500  0.91661900  1
  Cl  Cl0  1  0.18936700  0.71754500  0.36603800  1
  Cl  Cl1  1  0.82122900  0.14080700  0.97910800  1
  Cl  Cl2  1  0.51342900  0.84429500  0.45734200  1
  Cl  Cl3  1  0.81063300  0.71754500  0.86603800  1
  Cl  Cl4  1  0.95284000  0.45342900  0.71584300  1
  Cl  Cl5  1  0.76685000  0.69428900  0.32773700  1
  Cl  Cl6  1  0.58098000  0.17041100  0.57164800  1
  Cl  Cl7  1  0.68073100  0.40263700  0.13077700  1
  Cl  Cl8  1  0.17877100  0.14080700  0.47910800  1
  Cl  Cl9  1  0.04716000  0.45342900  0.21584300  1
  Cl  Cl10  1  0.41902000  0.17041100  0.07164800  1
  Cl  Cl11  1  0.31926900  0.40263700  0.63077700  1
  Cl  Cl12  1  0.23315000  0.69428900  0.82773700  1
  Cl  Cl13  1  0.48657100  0.84429500  0.95734200  1
  O  O0  1  0.64009200  0.44550700  0.76009400  1
  O  O1  1  0.35990800  0.44550700  0.26009400  1
loop_
_geom_bond_atom_site_label_1
_geom_bond_atom_site_label_2
_geom_bond_distance
_geom_bond_site_symmetry_2
Mo0 O0 1.694346 1_555
Mo1 O1 1.694346 1_555
C0 C5 1.401580 1_566
C0 C4 1.401951 1_555
C0 Cl13 1.695029 1_555
C1 C2 1.401951 1_555
C1 Cl5 1.677529 1_555
C1 S0 1.707166 1_555
C2 C3 1.401580 1_565
C2 Cl2 1.695029 1_555
C3 Cl6 1.679133 1_555
C3 S2 1.704405 1_555
C4 Cl12 1.677529 1_555
C4 S3 1.707166 1_555
C5 Cl10 1.679133 1_555
C5 S1 1.704405 1_555
S0 S2 2.044653 1_565
S1 S3 2.044653 1_544
Cl0 Mo1 2.380318 1_555
Cl1 Mo0 2.408541 1_555
Cl3 Mo0 2.380318 1_555
Cl4 Mo0 2.375088 1_555
Cl7 Mo0 2.382545 1_554
Cl8 Mo1 2.408541 1_555
Cl9 Mo1 2.375088 1_555
Cl11 Mo1 2.382545 1_555
