# generated using pymatgen
data_SiO2
_symmetry_space_group_name_H-M   'P 1'
_cell_length_a   4.68449800
_cell_length_b   4.68265500
_cell_length_c   8.32812670
_cell_angle_alpha   66.73678213
_cell_angle_beta   90.00000000
_cell_angle_gamma   90.00000000
_symmetry_Int_Tables_number   1
_chemical_formula_structural   SiO2
_chemical_formula_sum   'Si4 O8'
_cell_volume   167.83259768
_cell_formula_units_Z   4
loop_
 _symmetry_equiv_pos_site_id
 _symmetry_equiv_pos_as_xyz
  1  'x, y, z'
loop_
 _atom_site_type_symbol
 _atom_site_label
 _atom_site_symmetry_multiplicity
 _atom_site_fract_x
 _atom_site_fract_y
 _atom_site_fract_z
 _atom_site_occupancy
  Si  Si0  1  0.77381000  0.76409000  0.94392900  1
  Si  Si1  1  0.77381000  0.23591000  0.55607100  1
  Si  Si2  1  0.22619000  0.76409000  0.44392900  1
  Si  Si3  1  0.22619000  0.23591000  0.05607100  1
  O  O0  1  0.33086100  0.00000000  0.25000000  1
  O  O1  1  0.00000000  0.00000000  0.00000000  1
  O  O2  1  0.50000000  0.50000000  0.00000000  1
  O  O3  1  0.00000000  0.50000000  0.50000000  1
  O  O4  1  0.66913900  0.00000000  0.75000000  1
  O  O5  1  0.50000000  0.50000000  0.50000000  1
  O  O6  1  0.00000000  0.50000000  0.00000000  1
  O  O7  1  0.00000000  0.00000000  0.50000000  1
loop_
_geom_bond_atom_site_label_1
_geom_bond_atom_site_label_2
_geom_bond_distance
_geom_bond_site_symmetry_2
O0 Si3 1.630913 1_555
O0 Si2 1.630913 1_545
O1 Si0 1.722959 1_444
O1 Si3 1.722959 1_555
O2 Si3 1.713597 1_555
O2 Si0 1.713597 1_554
O3 Si1 1.553678 1_455
O3 Si2 1.553678 1_555
O4 Si0 1.630913 1_545
O4 Si1 1.630913 1_555
O5 Si1 1.713597 1_555
O5 Si2 1.713597 1_555
O6 Si3 1.553678 1_555
O6 Si0 1.553678 1_454
O7 Si2 1.722959 1_545
O7 Si1 1.722959 1_455
