# generated using pymatgen
data_Sr2CuClO2
_symmetry_space_group_name_H-M   'P 1'
_cell_length_a   4.03741169
_cell_length_b   4.03741169
_cell_length_c   27.80849200
_cell_angle_alpha   90.00000000
_cell_angle_beta   90.00000000
_cell_angle_gamma   119.99999493
_symmetry_Int_Tables_number   1
_chemical_formula_structural   Sr2CuClO2
_chemical_formula_sum   'Sr6 Cu3 Cl3 O6'
_cell_volume   392.56733965
_cell_formula_units_Z   3
loop_
 _symmetry_equiv_pos_site_id
 _symmetry_equiv_pos_as_xyz
  1  'x, y, z'
loop_
 _atom_site_type_symbol
 _atom_site_label
 _atom_site_symmetry_multiplicity
 _atom_site_fract_x
 _atom_site_fract_y
 _atom_site_fract_z
 _atom_site_occupancy
  Sr  Sr0  1  0.32738200  0.98718900  0.57727500  1
  Sr  Sr1  1  0.65980700  0.67261800  0.24394200  1
  Sr  Sr2  1  0.34019300  0.01281100  0.08939100  1
  Sr  Sr3  1  0.67261800  0.65980700  0.75605800  1
  Sr  Sr4  1  0.98718900  0.32738200  0.42272500  1
  Sr  Sr5  1  0.01281100  0.34019300  0.91060900  1
  Cu  Cu0  1  0.00000000  0.32383100  0.66666700  1
  Cu  Cu1  1  0.67616900  0.67616900  0.00000000  1
  Cu  Cu2  1  0.32383100  0.00000000  0.33333300  1
  Cl  Cl0  1  0.00000000  0.34830700  0.16666700  1
  Cl  Cl1  1  0.65169300  0.65169300  0.50000000  1
  Cl  Cl2  1  0.34830700  0.00000000  0.83333300  1
  O  O0  1  0.99355100  0.32001200  0.60123000  1
  O  O1  1  0.67998800  0.67353900  0.93456300  1
  O  O2  1  0.32001200  0.99355100  0.39877000  1
  O  O3  1  0.00644900  0.32646100  0.73210300  1
  O  O4  1  0.67353900  0.67998800  0.06543700  1
  O  O5  1  0.32646100  0.00644900  0.26789700  1
loop_
_geom_bond_atom_site_label_1
_geom_bond_atom_site_label_2
_geom_bond_distance
_geom_bond_site_symmetry_2
Cu0 O3 1.819818 1_555
Cu0 O0 1.819846 1_455
Cu1 O1 1.819846 1_554
Cu1 O4 1.819846 1_555
Cu2 O5 1.819818 1_555
Cu2 O2 1.819846 1_545
Cl0 Sr1 3.152873 1_555
Cl0 Sr2 3.152892 1_455
Cl0 Sr1 3.164992 1_455
Cl0 Sr2 3.165011 1_565
Cl0 Sr1 3.193665 1_445
Cl0 Sr2 3.193684 1_555
Cl1 Sr0 3.152873 1_555
Cl1 Sr4 3.152873 1_555
Cl1 Sr4 3.164992 1_455
Cl1 Sr0 3.164992 1_545
Cl1 Sr4 3.193665 1_565
Cl1 Sr0 3.193665 1_655
Cl2 Sr3 3.152873 1_555
Cl2 Sr5 3.152892 1_545
Cl2 Sr3 3.164992 1_545
Cl2 Sr5 3.165011 1_655
Cl2 Sr3 3.193665 1_445
Cl2 Sr5 3.193684 1_555
O0 Sr0 2.422646 1_545
O0 Sr0 2.424277 1_645
O0 Sr0 2.426035 1_655
O1 Sr5 2.422639 1_655
O1 Sr5 2.424270 1_665
O1 Sr5 2.426028 1_555
O2 Sr4 2.422646 1_455
O2 Sr4 2.424277 1_465
O2 Sr4 2.426035 1_565
O3 Sr3 2.422646 1_555
O3 Sr3 2.424278 1_445
O3 Sr3 2.426035 1_455
O4 Sr2 2.422639 1_565
O4 Sr2 2.424270 1_665
O4 Sr2 2.426028 1_555
O5 Sr1 2.422646 1_555
O5 Sr1 2.424278 1_445
O5 Sr1 2.426035 1_545
