# generated using pymatgen
data_CsBaCr3F12
_symmetry_space_group_name_H-M   'P 1'
_cell_length_a   10.11237404
_cell_length_b   10.11237404
_cell_length_c   15.35022016
_cell_angle_alpha   60.79585322
_cell_angle_beta   60.79585322
_cell_angle_gamma   59.81825572
_symmetry_Int_Tables_number   1
_chemical_formula_structural   CsBaCr3F12
_chemical_formula_sum   'Cs4 Ba4 Cr12 F48'
_cell_volume   1121.53487162
_cell_formula_units_Z   4
loop_
 _symmetry_equiv_pos_site_id
 _symmetry_equiv_pos_as_xyz
  1  'x, y, z'
loop_
 _atom_site_type_symbol
 _atom_site_label
 _atom_site_symmetry_multiplicity
 _atom_site_fract_x
 _atom_site_fract_y
 _atom_site_fract_z
 _atom_site_occupancy
  Cs  Cs0  1  0.27449500  0.50192400  0.96490600  1
  Cs  Cs1  1  0.50192400  0.27449500  0.46490600  1
  Cs  Cs2  1  0.72550500  0.49807600  0.03509400  1
  Cs  Cs3  1  0.49807600  0.72550500  0.53509400  1
  Ba  Ba0  1  0.74130100  0.00081600  0.00155800  1
  Ba  Ba1  1  0.00081600  0.74130100  0.50155800  1
  Ba  Ba2  1  0.99918400  0.25869900  0.49844200  1
  Ba  Ba3  1  0.25869900  0.99918400  0.99844200  1
  Cr  Cr0  1  0.14740700  0.41040600  0.76852200  1
  Cr  Cr1  1  0.84736600  0.95355500  0.23857200  1
  Cr  Cr2  1  0.95355500  0.84736600  0.73857200  1
  Cr  Cr3  1  0.41022300  0.77874500  0.27149500  1
  Cr  Cr4  1  0.58977700  0.22125500  0.72850500  1
  Cr  Cr5  1  0.85259300  0.58959400  0.23147800  1
  Cr  Cr6  1  0.22125500  0.58977700  0.22850500  1
  Cr  Cr7  1  0.41040600  0.14740700  0.26852200  1
  Cr  Cr8  1  0.04644500  0.15263400  0.26142800  1
  Cr  Cr9  1  0.15263400  0.04644500  0.76142800  1
  Cr  Cr10  1  0.77874500  0.41022300  0.77149500  1
  Cr  Cr11  1  0.58959400  0.85259300  0.73147800  1
  F  F0  1  0.06252900  0.89226300  0.58889400  1
  F  F1  1  0.18059200  0.92060800  0.29267100  1
  F  F2  1  0.21245100  0.18499400  0.78042600  1
  F  F3  1  0.18243700  0.16355200  0.61568900  1
  F  F4  1  0.45218700  0.91865700  0.30184200  1
  F  F5  1  0.07939200  0.81940800  0.20732900  1
  F  F6  1  0.08134300  0.54781300  0.19815800  1
  F  F7  1  0.47733300  0.88148400  0.12019700  1
  F  F8  1  0.89226300  0.06252900  0.08889400  1
  F  F9  1  0.11299900  0.88700100  0.75000000  1
  F  F10  1  0.66366400  0.32692900  0.58037200  1
  F  F11  1  0.37546800  0.62453200  0.25000000  1
  F  F12  1  0.81940800  0.07939200  0.70732900  1
  F  F13  1  0.11743100  0.32614200  0.91636400  1
  F  F14  1  0.83644800  0.81756300  0.88431100  1
  F  F15  1  0.91865700  0.45218700  0.80184200  1
  F  F16  1  0.78754900  0.81500600  0.21957400  1
  F  F17  1  0.09787500  0.62286200  0.76977600  1
  F  F18  1  0.62286200  0.09787500  0.26977600  1
  F  F19  1  0.54781300  0.08134300  0.69815800  1
  F  F20  1  0.88256900  0.67385800  0.08363600  1
  F  F21  1  0.48993700  0.17543700  0.12221600  1
  F  F22  1  0.92060800  0.18059200  0.79267100  1
  F  F23  1  0.90212500  0.37713800  0.23022400  1
  F  F24  1  0.81500600  0.78754900  0.71957400  1
  F  F25  1  0.67385800  0.88256900  0.58363600  1
  F  F26  1  0.81756300  0.83644900  0.38431100  1
  F  F27  1  0.10773700  0.93747100  0.91110600  1
  F  F28  1  0.52266700  0.11851600  0.87980300  1
  F  F29  1  0.82456300  0.51006300  0.37778400  1
  F  F30  1  0.62768000  0.61990900  0.26395300  1
  F  F31  1  0.33633600  0.67307100  0.41962800  1
  F  F32  1  0.61990900  0.62768000  0.76395300  1
  F  F33  1  0.32692900  0.66366400  0.08037200  1
  F  F34  1  0.93747100  0.10773700  0.41110600  1
  F  F35  1  0.16355200  0.18243700  0.11568900  1
  F  F36  1  0.62453200  0.37546800  0.75000000  1
  F  F37  1  0.11851600  0.52266700  0.37980300  1
  F  F38  1  0.17543700  0.48993700  0.62221600  1
  F  F39  1  0.88148400  0.47733300  0.62019700  1
  F  F40  1  0.18499400  0.21245100  0.28042600  1
  F  F41  1  0.32614200  0.11743100  0.41636400  1
  F  F42  1  0.88700100  0.11299900  0.25000000  1
  F  F43  1  0.38009100  0.37232000  0.23604700  1
  F  F44  1  0.67307100  0.33633600  0.91962800  1
  F  F45  1  0.51006300  0.82456300  0.87778400  1
  F  F46  1  0.37713800  0.90212500  0.73022400  1
  F  F47  1  0.37232000  0.38009100  0.73604700  1
loop_
_geom_bond_atom_site_label_1
_geom_bond_atom_site_label_2
_geom_bond_distance
_geom_bond_site_symmetry_2
Cs0 F33 3.273495 1_556
Cs0 F6 3.276532 1_556
Cs0 F35 3.296520 1_556
Cs0 F44 3.338888 1_555
Cs0 F20 3.341724 1_456
Cs0 F13 3.394684 1_555
Cs0 F21 3.405768 1_556
Cs0 F17 3.620351 1_555
Cs0 F36 3.635595 1_555
Cs0 F27 3.642257 1_555
Cs0 F32 3.668394 1_555
Cs1 F10 3.273495 1_555
Cs1 F19 3.276532 1_555
Cs1 F3 3.296520 1_555
Cs1 F31 3.338888 1_555
Cs1 F25 3.341724 1_545
Cs1 F41 3.394684 1_555
Cs1 F38 3.405768 1_555
Cs1 F18 3.620351 1_555
Cs1 F11 3.635595 1_555
Cs1 F34 3.642257 1_555
Cs1 F30 3.668394 1_555
Cs2 F44 3.273495 1_554
Cs2 F15 3.276532 1_554
Cs2 F14 3.296520 1_554
Cs2 F33 3.338888 1_555
Cs2 F13 3.341724 1_654
Cs2 F20 3.394684 1_555
Cs2 F45 3.405768 1_554
Cs2 F23 3.620351 1_555
Cs2 F11 3.635595 1_555
Cs2 F8 3.642257 1_555
Cs2 F43 3.668394 1_555
Cs3 F31 3.273495 1_555
Cs3 F4 3.276532 1_555
Cs3 F26 3.296525 1_555
Cs3 F10 3.338888 1_555
Cs3 F41 3.341724 1_565
Cs3 F25 3.394684 1_555
Cs3 F29 3.405768 1_555
Cs3 F46 3.620351 1_555
Cs3 F36 3.635595 1_555
Cs3 F0 3.642257 1_555
Cs3 F47 3.668394 1_555
Ba0 F21 2.663440 1_555
Ba0 F14 2.714955 1_544
Ba0 F20 2.738987 1_545
Ba0 F44 2.810419 1_554
Ba0 F7 2.872043 1_545
Ba0 F8 2.879008 1_555
Ba0 F22 2.970959 1_554
Ba0 F28 3.002234 1_554
Ba0 F16 3.075130 1_545
Ba0 F27 3.087019 1_644
Ba1 F38 2.663440 1_555
Ba1 F26 2.714952 1_455
Ba1 F25 2.738987 1_455
Ba1 F31 2.810419 1_555
Ba1 F39 2.872043 1_455
Ba1 F0 2.879008 1_555
Ba1 F1 2.970959 1_555
Ba1 F37 3.002234 1_555
Ba1 F24 3.075130 1_455
Ba1 F34 3.087019 1_465
Ba2 F29 2.663440 1_555
Ba2 F3 2.714955 1_655
Ba2 F41 2.738987 1_655
Ba2 F10 2.810419 1_555
Ba2 F37 2.872043 1_655
Ba2 F34 2.879008 1_555
Ba2 F12 2.970959 1_555
Ba2 F39 3.002234 1_555
Ba2 F40 3.075130 1_655
Ba2 F0 3.087019 1_645
Ba3 F45 2.663440 1_555
Ba3 F35 2.714955 1_566
Ba3 F13 2.738987 1_565
Ba3 F33 2.810419 1_556
Ba3 F28 2.872043 1_565
Ba3 F27 2.879008 1_555
Ba3 F5 2.970959 1_556
Ba3 F7 3.002234 1_556
Ba3 F2 3.075130 1_565
Ba3 F8 3.087019 1_466
Cr0 F38 1.901669 1_555
Cr0 F13 1.915600 1_555
Cr0 F17 1.953445 1_555
Cr0 F47 1.963939 1_555
Cr0 F15 1.965871 1_455
Cr0 F2 1.966013 1_555
Cr1 F26 1.900947 1_555
Cr1 F8 1.927119 1_565
Cr1 F42 1.945642 1_565
Cr1 F18 1.950124 1_565
Cr1 F16 1.958801 1_555
Cr1 F5 1.977852 1_655
Cr2 F14 1.900948 1_555
Cr2 F0 1.927119 1_655
Cr2 F9 1.945642 1_655
Cr2 F17 1.950124 1_655
Cr2 F24 1.958801 1_555
Cr2 F12 1.977852 1_565
Cr3 F31 1.909028 1_555
Cr3 F7 1.936501 1_555
Cr3 F30 1.952055 1_555
Cr3 F11 1.957211 1_555
Cr3 F4 1.959238 1_555
Cr3 F1 1.981115 1_555
Cr4 F10 1.909028 1_555
Cr4 F28 1.936501 1_555
Cr4 F47 1.952055 1_555
Cr4 F36 1.957211 1_555
Cr4 F19 1.959238 1_555
Cr4 F12 1.981115 1_555
Cr5 F29 1.901669 1_555
Cr5 F20 1.915600 1_555
Cr5 F23 1.953445 1_555
Cr5 F30 1.963939 1_555
Cr5 F6 1.965871 1_655
Cr5 F16 1.966013 1_555
Cr6 F33 1.909028 1_555
Cr6 F37 1.936501 1_555
Cr6 F43 1.952055 1_555
Cr6 F11 1.957211 1_555
Cr6 F6 1.959238 1_555
Cr6 F5 1.981115 1_555
Cr7 F21 1.901669 1_555
Cr7 F41 1.915600 1_555
Cr7 F18 1.953445 1_555
Cr7 F43 1.963939 1_555
Cr7 F4 1.965871 1_545
Cr7 F40 1.966013 1_555
Cr8 F35 1.900948 1_555
Cr8 F34 1.927119 1_455
Cr8 F42 1.945642 1_455
Cr8 F23 1.950124 1_455
Cr8 F40 1.958801 1_555
Cr8 F1 1.977852 1_545
Cr9 F3 1.900948 1_555
Cr9 F27 1.927119 1_545
Cr9 F9 1.945642 1_545
Cr9 F46 1.950124 1_545
Cr9 F2 1.958801 1_555
Cr9 F22 1.977852 1_455
Cr10 F44 1.909028 1_555
Cr10 F39 1.936501 1_555
Cr10 F32 1.952055 1_555
Cr10 F36 1.957211 1_555
Cr10 F15 1.959238 1_555
Cr10 F22 1.981115 1_555
Cr11 F45 1.901669 1_555
Cr11 F25 1.915600 1_555
Cr11 F46 1.953445 1_555
Cr11 F32 1.963939 1_555
Cr11 F19 1.965871 1_565
Cr11 F24 1.966013 1_555
