# generated using pymatgen
data_Fe5(SiO4)3
_symmetry_space_group_name_H-M   'P 1'
_cell_length_a   10.28442579
_cell_length_b   10.28442579
_cell_length_c   10.28442579
_cell_angle_alpha   109.47122063
_cell_angle_beta   109.47122063
_cell_angle_gamma   109.47122063
_symmetry_Int_Tables_number   1
_chemical_formula_structural   Fe5(SiO4)3
_chemical_formula_sum   'Fe20 Si12 O48'
_cell_volume   837.37165489
_cell_formula_units_Z   4
loop_
 _symmetry_equiv_pos_site_id
 _symmetry_equiv_pos_as_xyz
  1  'x, y, z'
loop_
 _atom_site_type_symbol
 _atom_site_label
 _atom_site_symmetry_multiplicity
 _atom_site_fract_x
 _atom_site_fract_y
 _atom_site_fract_z
 _atom_site_occupancy
  Fe  Fe0  1  0.00000000  0.50000000  0.50000000  1
  Fe  Fe1  1  0.50000000  0.00000000  0.50000000  1
  Fe  Fe2  1  0.12500000  0.37500000  0.75000000  1
  Fe  Fe3  1  0.50000000  0.00000000  0.00000000  1
  Fe  Fe4  1  0.50000000  0.50000000  0.00000000  1
  Fe  Fe5  1  0.87500000  0.75000000  0.62500000  1
  Fe  Fe6  1  0.00000000  0.00000000  0.00000000  1
  Fe  Fe7  1  0.25000000  0.87500000  0.62500000  1
  Fe  Fe8  1  0.62500000  0.25000000  0.87500000  1
  Fe  Fe9  1  0.50000000  0.50000000  0.50000000  1
  Fe  Fe10  1  0.00000000  0.50000000  0.00000000  1
  Fe  Fe11  1  0.87500000  0.62500000  0.25000000  1
  Fe  Fe12  1  0.75000000  0.62500000  0.87500000  1
  Fe  Fe13  1  0.37500000  0.75000000  0.12500000  1
  Fe  Fe14  1  0.62500000  0.87500000  0.75000000  1
  Fe  Fe15  1  0.12500000  0.25000000  0.37500000  1
  Fe  Fe16  1  0.00000000  0.00000000  0.50000000  1
  Fe  Fe17  1  0.25000000  0.37500000  0.12500000  1
  Fe  Fe18  1  0.37500000  0.12500000  0.25000000  1
  Fe  Fe19  1  0.75000000  0.12500000  0.37500000  1
  Si  Si0  1  0.25000000  0.12500000  0.87500000  1
  Si  Si1  1  0.37500000  0.62500000  0.75000000  1
  Si  Si2  1  0.25000000  0.62500000  0.37500000  1
  Si  Si3  1  0.37500000  0.25000000  0.62500000  1
  Si  Si4  1  0.62500000  0.75000000  0.37500000  1
  Si  Si5  1  0.87500000  0.12500000  0.75000000  1
  Si  Si6  1  0.75000000  0.37500000  0.62500000  1
  Si  Si7  1  0.87500000  0.25000000  0.12500000  1
  Si  Si8  1  0.75000000  0.87500000  0.12500000  1
  Si  Si9  1  0.12500000  0.75000000  0.87500000  1
  Si  Si10  1  0.62500000  0.37500000  0.25000000  1
  Si  Si11  1  0.12500000  0.87500000  0.25000000  1
  O  O0  1  0.41151700  0.10427800  0.62201600  1
  O  O1  1  0.58848300  0.89572200  0.37798400  1
  O  O2  1  0.08848300  0.87798400  0.39572200  1
  O  O3  1  0.10427800  0.62201600  0.41151700  1
  O  O4  1  0.48226200  0.60427800  0.19276100  1
  O  O5  1  0.28950100  0.48226200  0.37798400  1
  O  O6  1  0.21049900  0.12201600  0.01773800  1
  O  O7  1  0.89572200  0.37798400  0.58848300  1
  O  O8  1  0.19276100  0.21049900  0.58848300  1
  O  O9  1  0.30723900  0.91151700  0.28950100  1
  O  O10  1  0.80723900  0.51773800  0.39572200  1
  O  O11  1  0.60427800  0.91151700  0.12201600  1
  O  O12  1  0.30723900  0.89572200  0.01773800  1
  O  O13  1  0.10427800  0.98226200  0.69276100  1
  O  O14  1  0.37798400  0.58848300  0.89572200  1
  O  O15  1  0.12201600  0.01773800  0.21049900  1
  O  O16  1  0.78950100  0.41151700  0.80723900  1
  O  O17  1  0.39572200  0.80723900  0.51773800  1
  O  O18  1  0.41151700  0.80723900  0.78950100  1
  O  O19  1  0.19276100  0.48226200  0.60427800  1
  O  O20  1  0.01773800  0.21049900  0.12201600  1
  O  O21  1  0.98226200  0.69276100  0.10427800  1
  O  O22  1  0.69276100  0.10427800  0.98226200  1
  O  O23  1  0.87798400  0.98226200  0.78950100  1
  O  O24  1  0.60427800  0.19276100  0.48226200  1
  O  O25  1  0.98226200  0.78950100  0.87798400  1
  O  O26  1  0.62201600  0.41151700  0.10427800  1
  O  O27  1  0.12201600  0.60427800  0.91151700  1
  O  O28  1  0.21049900  0.58848300  0.19276100  1
  O  O29  1  0.91151700  0.12201600  0.60427800  1
  O  O30  1  0.08848300  0.71049900  0.69276100  1
  O  O31  1  0.51773800  0.62201600  0.71049900  1
  O  O32  1  0.91151700  0.28950100  0.30723900  1
  O  O33  1  0.89572200  0.01773800  0.30723900  1
  O  O34  1  0.80723900  0.78950100  0.41151700  1
  O  O35  1  0.71049900  0.51773800  0.62201600  1
  O  O36  1  0.51773800  0.39572200  0.80723900  1
  O  O37  1  0.01773800  0.30723900  0.89572200  1
  O  O38  1  0.87798400  0.39572200  0.08848300  1
  O  O39  1  0.71049900  0.69276100  0.08848300  1
  O  O40  1  0.62201600  0.71049900  0.51773800  1
  O  O41  1  0.28950100  0.30723900  0.91151700  1
  O  O42  1  0.48226200  0.37798400  0.28950100  1
  O  O43  1  0.78950100  0.87798400  0.98226200  1
  O  O44  1  0.39572200  0.08848300  0.87798400  1
  O  O45  1  0.37798400  0.28950100  0.48226200  1
  O  O46  1  0.58848300  0.19276100  0.21049900  1
  O  O47  1  0.69276100  0.08848300  0.71049900  1
loop_
_geom_bond_atom_site_label_1
_geom_bond_atom_site_label_2
_geom_bond_distance
_geom_bond_site_symmetry_2
Fe0 O30 2.016834 1_555
Fe0 O10 2.016834 1_455
Fe0 O7 2.016834 1_455
Fe0 O19 2.016834 1_555
Fe0 O32 2.016834 1_455
Fe0 O3 2.016834 1_555
Fe1 O47 2.016834 1_555
Fe1 O1 2.016834 1_545
Fe1 O24 2.016834 1_555
Fe1 O0 2.016834 1_555
Fe1 O17 2.016834 1_545
Fe1 O9 2.016834 1_545
Fe2 O29 2.287892 1_455
Fe2 O19 2.287892 1_555
Fe2 O14 2.287892 1_555
Fe2 O37 2.287892 1_555
Fe2 O8 2.406518 1_555
Fe2 O41 2.406518 1_555
Fe2 O7 2.406518 1_455
Fe2 O27 2.406518 1_555
Fe3 O22 2.016834 1_554
Fe3 O18 2.016834 1_544
Fe3 O11 2.016834 1_545
Fe3 O12 2.016834 1_545
Fe3 O44 2.016834 1_554
Fe3 O46 2.016834 1_555
Fe4 O39 2.016834 1_555
Fe4 O36 2.016834 1_554
Fe4 O41 2.016834 1_554
Fe4 O26 2.016834 1_555
Fe4 O4 2.016834 1_555
Fe4 O14 2.016834 1_554
Fe5 O34 2.287892 1_555
Fe5 O25 2.287892 1_555
Fe5 O40 2.287892 1_555
Fe5 O30 2.287892 1_655
Fe5 O23 2.406518 1_555
Fe5 O35 2.406518 1_555
Fe5 O10 2.406518 1_555
Fe5 O13 2.406518 1_655
Fe6 O6 2.016834 1_555
Fe6 O25 2.016834 1_444
Fe6 O43 2.016834 1_444
Fe6 O23 2.016834 1_444
Fe6 O20 2.016834 1_555
Fe6 O15 2.016834 1_555
Fe7 O17 2.287892 1_555
Fe7 O3 2.287892 1_555
Fe7 O13 2.287892 1_555
Fe7 O44 2.287892 1_565
Fe7 O30 2.406518 1_555
Fe7 O2 2.406518 1_555
Fe7 O18 2.406518 1_555
Fe7 O0 2.406518 1_565
Fe8 O36 2.287892 1_555
Fe8 O0 2.287892 1_555
Fe8 O22 2.287892 1_555
Fe8 O38 2.287892 1_556
Fe8 O16 2.406518 1_555
Fe8 O44 2.406518 1_555
Fe8 O47 2.406518 1_555
Fe8 O26 2.406518 1_556
Fe9 O31 2.016834 1_555
Fe9 O35 2.016834 1_555
Fe9 O45 2.016834 1_555
Fe9 O42 2.016834 1_555
Fe9 O5 2.016834 1_555
Fe9 O40 2.016834 1_555
Fe10 O27 2.016834 1_554
Fe10 O16 2.016834 1_454
Fe10 O21 2.016834 1_455
Fe10 O37 2.016834 1_554
Fe10 O38 2.016834 1_455
Fe10 O28 2.016834 1_555
Fe11 O21 2.287892 1_555
Fe11 O10 2.287892 1_555
Fe11 O2 2.287892 1_655
Fe11 O26 2.287892 1_555
Fe11 O39 2.406518 1_555
Fe11 O34 2.406518 1_555
Fe11 O38 2.406518 1_555
Fe11 O3 2.406518 1_655
Fe12 O43 2.287892 1_555
Fe12 O16 2.287892 1_555
Fe12 O35 2.287892 1_555
Fe12 O39 2.287892 1_556
Fe12 O31 2.406518 1_555
Fe12 O25 2.406518 1_555
Fe12 O36 2.406518 1_555
Fe12 O21 2.406518 1_556
Fe13 O27 2.287892 1_554
Fe13 O1 2.287892 1_555
Fe13 O4 2.287892 1_555
Fe13 O12 2.287892 1_555
Fe13 O11 2.406518 1_555
Fe13 O28 2.406518 1_555
Fe13 O9 2.406518 1_555
Fe13 O14 2.406518 1_554
Fe14 O31 2.287892 1_555
Fe14 O18 2.287892 1_555
Fe14 O23 2.287892 1_555
Fe14 O47 2.287892 1_565
Fe14 O43 2.406518 1_555
Fe14 O40 2.406518 1_555
Fe14 O17 2.406518 1_555
Fe14 O22 2.406518 1_565
Fe15 O8 2.287892 1_555
Fe15 O32 2.287892 1_455
Fe15 O45 2.287892 1_555
Fe15 O20 2.287892 1_555
Fe15 O15 2.406518 1_555
Fe15 O19 2.406518 1_555
Fe15 O33 2.406518 1_455
Fe15 O5 2.406518 1_555
Fe16 O29 2.016834 1_455
Fe16 O2 2.016834 1_545
Fe16 O33 2.016834 1_455
Fe16 O8 2.016834 1_555
Fe16 O13 2.016834 1_545
Fe16 O34 2.016834 1_445
Fe17 O5 2.287892 1_555
Fe17 O6 2.287892 1_555
Fe17 O41 2.287892 1_554
Fe17 O28 2.287892 1_555
Fe17 O20 2.406518 1_555
Fe17 O4 2.406518 1_555
Fe17 O42 2.406518 1_555
Fe17 O37 2.406518 1_554
Fe18 O42 2.287892 1_555
Fe18 O15 2.287892 1_555
Fe18 O9 2.287892 1_545
Fe18 O46 2.287892 1_555
Fe18 O12 2.406518 1_545
Fe18 O24 2.406518 1_555
Fe18 O6 2.406518 1_555
Fe18 O45 2.406518 1_555
Fe19 O11 2.287892 1_545
Fe19 O7 2.287892 1_555
Fe19 O33 2.287892 1_555
Fe19 O24 2.287892 1_555
Fe19 O1 2.406518 1_545
Fe19 O46 2.406518 1_555
Fe19 O29 2.406518 1_555
Fe19 O32 2.406518 1_555
O0 Si3 1.655365 1_555
O1 Si4 1.655365 1_555
O2 Si11 1.655365 1_555
O3 Si2 1.655365 1_555
O4 Si4 1.655365 1_555
O5 Si2 1.655365 1_555
O6 Si0 1.655365 1_554
O7 Si6 1.655365 1_555
O8 Si3 1.655365 1_555
O9 Si11 1.655365 1_555
O10 Si10 1.655365 1_555
O11 Si8 1.655365 1_555
O12 Si9 1.655365 1_554
O13 Si0 1.655365 1_565
O14 Si1 1.655365 1_555
O15 Si11 1.655365 1_545
O16 Si6 1.655365 1_555
O17 Si2 1.655365 1_555
O18 Si1 1.655365 1_555
O19 Si1 1.655365 1_555
O20 Si7 1.655365 1_455
O21 Si11 1.655365 1_655
O22 Si7 1.655365 1_556
O23 Si5 1.655365 1_565
O24 Si6 1.655365 1_555
O25 Si9 1.655365 1_655
O26 Si10 1.655365 1_555
O27 Si9 1.655365 1_555
O28 Si2 1.655365 1_555
O29 Si5 1.655365 1_555
O30 Si9 1.655365 1_555
O31 Si1 1.655365 1_555
O32 Si7 1.655365 1_555
O33 Si8 1.655365 1_545
O34 Si4 1.655365 1_555
O35 Si6 1.655365 1_555
O36 Si3 1.655365 1_555
O37 Si5 1.655365 1_455
O38 Si7 1.655365 1_555
O39 Si8 1.655365 1_555
O40 Si4 1.655365 1_555
O41 Si0 1.655365 1_555
O42 Si10 1.655365 1_555
O43 Si8 1.655365 1_556
O44 Si0 1.655365 1_555
O45 Si3 1.655365 1_555
O46 Si10 1.655365 1_555
O47 Si5 1.655365 1_555
