# generated using pymatgen
data_ZrTe
_symmetry_space_group_name_H-M   'P 1'
_cell_length_a   3.81862064
_cell_length_b   6.99632885
_cell_length_c   7.43466569
_cell_angle_alpha   90.00000000
_cell_angle_beta   90.00000000
_cell_angle_gamma   90.00000000
_symmetry_Int_Tables_number   1
_chemical_formula_structural   ZrTe
_chemical_formula_sum   'Zr4 Te4'
_cell_volume   198.62695042
_cell_formula_units_Z   4
loop_
 _symmetry_equiv_pos_site_id
 _symmetry_equiv_pos_as_xyz
  1  'x, y, z'
loop_
 _atom_site_type_symbol
 _atom_site_label
 _atom_site_symmetry_multiplicity
 _atom_site_fract_x
 _atom_site_fract_y
 _atom_site_fract_z
 _atom_site_occupancy
  Zr  Zr0  1  0.75000000  0.31271561  0.99266485  1
  Zr  Zr1  1  0.75000000  0.18728439  0.49266485  1
  Zr  Zr2  1  0.25000000  0.68728439  0.00733515  1
  Zr  Zr3  1  0.25000000  0.81271561  0.50733515  1
  Te  Te0  1  0.25000000  0.42400658  0.70846492  1
  Te  Te1  1  0.75000000  0.57599342  0.29153508  1
  Te  Te2  1  0.25000000  0.07599342  0.20846492  1
  Te  Te3  1  0.75000000  0.92400658  0.79153508  1
loop_
_geom_bond_atom_site_label_1
_geom_bond_atom_site_label_2
_geom_bond_distance
_geom_bond_site_symmetry_2
Te0 Zr2 2.886203 1_556
Te0 Zr0 2.952322 1_555
Te0 Zr0 2.952322 1_455
Te0 Zr1 2.993747 1_555
Te0 Zr1 2.993747 1_455
Te0 Zr3 3.103530 1_555
Te1 Zr0 2.886203 1_554
Te1 Zr2 2.952322 1_555
Te1 Zr2 2.952322 1_655
Te1 Zr3 2.993747 1_555
Te1 Zr3 2.993747 1_655
Te1 Zr1 3.103530 1_555
Te2 Zr3 2.886203 1_545
Te2 Zr1 2.952322 1_555
Te2 Zr1 2.952322 1_455
Te2 Zr0 2.993747 1_554
Te2 Zr0 2.993747 1_454
Te2 Zr2 3.103530 1_545
Te3 Zr1 2.886203 1_565
Te3 Zr3 2.952322 1_655
Te3 Zr3 2.952322 1_555
Te3 Zr2 2.993747 1_656
Te3 Zr2 2.993747 1_556
Te3 Zr0 3.103530 1_565
