# generated using pymatgen
data_Ce2(Al5Ru)3
_symmetry_space_group_name_H-M   'P 1'
_cell_length_a   13.12141995
_cell_length_b   13.12141995
_cell_length_c   9.05855800
_cell_angle_alpha   90.00000000
_cell_angle_beta   90.00000000
_cell_angle_gamma   119.99999977
_symmetry_Int_Tables_number   1
_chemical_formula_structural   Ce2(Al5Ru)3
_chemical_formula_sum   'Ce8 Al60 Ru12'
_cell_volume   1350.67659048
_cell_formula_units_Z   4
loop_
 _symmetry_equiv_pos_site_id
 _symmetry_equiv_pos_as_xyz
  1  'x, y, z'
loop_
 _atom_site_type_symbol
 _atom_site_label
 _atom_site_symmetry_multiplicity
 _atom_site_fract_x
 _atom_site_fract_y
 _atom_site_fract_z
 _atom_site_occupancy
  Ce  Ce0  1  0.60519800  0.00000000  0.25000000  1
  Ce  Ce1  1  0.39480200  0.39480200  0.25000000  1
  Ce  Ce2  1  0.39480200  0.00000000  0.75000000  1
  Ce  Ce3  1  0.00000000  0.00000000  0.25000000  1
  Ce  Ce4  1  0.00000000  0.39480200  0.75000000  1
  Ce  Ce5  1  0.60519800  0.60519800  0.75000000  1
  Ce  Ce6  1  0.00000000  0.60519800  0.25000000  1
  Ce  Ce7  1  0.00000000  0.00000000  0.75000000  1
  Al  Al0  1  0.72354800  0.24801500  0.75000000  1
  Al  Al1  1  0.61647100  0.61647100  0.39695200  1
  Al  Al2  1  0.79823000  0.00000000  0.47274200  1
  Al  Al3  1  0.75198500  0.47553400  0.75000000  1
  Al  Al4  1  0.79823000  0.00000000  0.02725800  1
  Al  Al5  1  0.75198500  0.27645200  0.25000000  1
  Al  Al6  1  0.00000000  0.79823000  0.47274200  1
  Al  Al7  1  0.79823000  0.79823000  0.52725800  1
  Al  Al8  1  0.81755300  0.40877700  0.50000000  1
  Al  Al9  1  0.00000000  0.20177000  0.97274200  1
  Al  Al10  1  0.40877700  0.81755300  0.00000000  1
  Al  Al11  1  0.47553400  0.75198500  0.75000000  1
  Al  Al12  1  0.83441900  0.71451100  0.25000000  1
  Al  Al13  1  0.59122300  0.18244700  0.00000000  1
  Al  Al14  1  0.61647100  0.00000000  0.89695200  1
  Al  Al15  1  0.20177000  0.20177000  0.47274200  1
  Al  Al16  1  0.59122300  0.18244700  0.50000000  1
  Al  Al17  1  0.27645200  0.52446600  0.75000000  1
  Al  Al18  1  0.71451100  0.83441900  0.25000000  1
  Al  Al19  1  0.20177000  0.00000000  0.97274200  1
  Al  Al20  1  0.40877700  0.81755300  0.50000000  1
  Al  Al21  1  0.47553400  0.72354800  0.25000000  1
  Al  Al22  1  0.38352900  0.00000000  0.39695200  1
  Al  Al23  1  0.11990900  0.83441900  0.75000000  1
  Al  Al24  1  0.20177000  0.20177000  0.02725800  1
  Al  Al25  1  0.00000000  0.38352900  0.39695200  1
  Al  Al26  1  0.00000000  0.79823000  0.02725800  1
  Al  Al27  1  0.20177000  0.00000000  0.52725800  1
  Al  Al28  1  0.59122300  0.40877700  0.00000000  1
  Al  Al29  1  0.72354800  0.47553400  0.25000000  1
  Al  Al30  1  0.52446600  0.24801500  0.25000000  1
  Al  Al31  1  0.59122300  0.40877700  0.50000000  1
  Al  Al32  1  0.18244700  0.59122300  0.00000000  1
  Al  Al33  1  0.18244700  0.59122300  0.50000000  1
  Al  Al34  1  0.38352900  0.38352900  0.89695200  1
  Al  Al35  1  0.28548900  0.11990900  0.25000000  1
  Al  Al36  1  0.16558100  0.88009100  0.25000000  1
  Al  Al37  1  0.61647100  0.61647100  0.10304800  1
  Al  Al38  1  0.83441900  0.11990900  0.75000000  1
  Al  Al39  1  0.28548900  0.16558100  0.75000000  1
  Al  Al40  1  0.88009100  0.16558100  0.25000000  1
  Al  Al41  1  0.00000000  0.61647100  0.60304800  1
  Al  Al42  1  0.00000000  0.20177000  0.52725800  1
  Al  Al43  1  0.38352900  0.00000000  0.10304800  1
  Al  Al44  1  0.88009100  0.71451100  0.75000000  1
  Al  Al45  1  0.11990900  0.28548900  0.25000000  1
  Al  Al46  1  0.52446600  0.27645200  0.75000000  1
  Al  Al47  1  0.79823000  0.79823000  0.97274200  1
  Al  Al48  1  0.00000000  0.61647100  0.89695200  1
  Al  Al49  1  0.16558100  0.28548900  0.75000000  1
  Al  Al50  1  0.61647100  0.00000000  0.60304800  1
  Al  Al51  1  0.27645200  0.75198500  0.25000000  1
  Al  Al52  1  0.24801500  0.72354800  0.75000000  1
  Al  Al53  1  0.40877700  0.59122300  0.50000000  1
  Al  Al54  1  0.38352900  0.38352900  0.60304800  1
  Al  Al55  1  0.81755300  0.40877700  0.00000000  1
  Al  Al56  1  0.00000000  0.38352900  0.10304800  1
  Al  Al57  1  0.24801500  0.52446600  0.25000000  1
  Al  Al58  1  0.71451100  0.88009100  0.75000000  1
  Al  Al59  1  0.40877700  0.59122300  0.00000000  1
  Ru  Ru0  1  0.20293500  0.79706500  0.00000000  1
  Ru  Ru1  1  0.79706500  0.59413000  0.50000000  1
  Ru  Ru2  1  0.59413000  0.79706500  0.50000000  1
  Ru  Ru3  1  0.40587000  0.20293500  0.00000000  1
  Ru  Ru4  1  0.20293500  0.40587000  0.00000000  1
  Ru  Ru5  1  0.20293500  0.79706500  0.50000000  1
  Ru  Ru6  1  0.40587000  0.20293500  0.50000000  1
  Ru  Ru7  1  0.79706500  0.59413000  0.00000000  1
  Ru  Ru8  1  0.79706500  0.20293500  0.50000000  1
  Ru  Ru9  1  0.59413000  0.79706500  0.00000000  1
  Ru  Ru10  1  0.20293500  0.40587000  0.50000000  1
  Ru  Ru11  1  0.79706500  0.20293500  0.00000000  1
loop_
_geom_bond_atom_site_label_1
_geom_bond_atom_site_label_2
_geom_bond_distance
_geom_bond_site_symmetry_2
Ce0 Ru2 3.442884 1_545
Ce0 Ru9 3.442884 1_545
Ce0 Ru11 3.442884 1_555
Ce0 Ru8 3.442884 1_555
Ce1 Ru6 3.442884 1_555
Ce1 Ru3 3.442884 1_555
Ce1 Ru10 3.442884 1_555
Ce1 Ru4 3.442884 1_555
Ce2 Ru3 3.442884 1_556
Ce2 Ru6 3.442884 1_555
Ce2 Ru0 3.442884 1_546
Ce2 Ru5 3.442884 1_545
Ce4 Ru4 3.442884 1_556
Ce4 Ru10 3.442884 1_555
Ce4 Ru8 3.442884 1_455
Ce4 Ru11 3.442884 1_456
Ce5 Ru2 3.442884 1_555
Ce5 Ru1 3.442884 1_555
Ce5 Ru9 3.442884 1_556
Ce5 Ru7 3.442884 1_556
Ce6 Ru1 3.442884 1_455
Ce6 Ru7 3.442884 1_455
Ce6 Ru5 3.442884 1_555
Ce6 Ru0 3.442884 1_555
Al0 Ru8 2.641898 1_555
Al0 Ru11 2.641898 1_556
Al0 Al38 2.717964 1_555
Al0 Ce4 3.143465 1_655
Al1 Ru2 2.695772 1_555
Al1 Ru1 2.695772 1_555
Al1 Al12 2.815385 1_555
Al1 Al18 2.815385 1_555
Al1 Ce1 3.198757 1_555
Al1 Ce5 3.201525 1_555
Al2 Ru8 2.681862 1_555
Al2 Ru2 2.681862 1_545
Al2 Al40 2.758927 1_555
Al2 Al58 2.874333 1_545
Al2 Al38 2.874335 1_555
Al2 Ce0 3.238294 1_555
Al2 Ce3 3.328739 1_655
Al2 Ce7 3.649277 1_655
Al3 Ru1 2.641892 1_555
Al3 Ru7 2.641892 1_556
Al3 Al44 2.717964 1_555
Al3 Ce5 3.143454 1_555
Al4 Ru11 2.681862 1_555
Al4 Ru9 2.681862 1_545
Al4 Al40 2.758927 1_555
Al4 Al58 2.874333 1_544
Al4 Ce0 3.238294 1_555
Al4 Ce3 3.328739 1_655
Al4 Ce7 3.649277 1_654
Al5 Ru11 2.641898 1_555
Al5 Ru8 2.641898 1_555
Al5 Ce0 3.143465 1_555
Al6 Ru5 2.681862 1_555
Al6 Ru1 2.681862 1_455
Al6 Ce6 3.238294 1_555
Al6 Ce3 3.328739 1_565
Al6 Ce7 3.649277 1_565
Al7 Ru1 2.681862 1_555
Al7 Ru2 2.681862 1_555
Al7 Ce5 3.238294 1_555
Al7 Ce7 3.328739 1_665
Al7 Ce3 3.649277 1_665
Al8 Ru1 2.577048 1_555
Al8 Ru8 2.577061 1_555
Al8 Ce6 3.366338 1_655
Al8 Ce4 3.366343 1_655
Al9 Ru11 2.681862 1_456
Al9 Ru4 2.681862 1_556
Al9 Ce4 3.238294 1_555
Al9 Ce7 3.328739 1_555
Al9 Ce3 3.649277 1_556
Al10 Ru9 2.577048 1_555
Al10 Ru0 2.577061 1_555
Al10 Ce0 3.366338 1_565
Al10 Ce2 3.366343 1_564
Al11 Ru9 2.641892 1_556
Al11 Ru2 2.641892 1_555
Al11 Al58 2.717964 1_555
Al11 Ce5 3.143454 1_555
Al12 Ru1 2.662642 1_555
Al12 Ru7 2.662642 1_555
Al12 Al29 2.717964 1_555
Al12 Al18 2.725145 1_555
Al12 Al6 2.758927 1_655
Al12 Al26 2.758927 1_655
Al12 Al37 2.815385 1_555
Al12 Al47 2.874328 1_554
Al12 Al7 2.874328 1_555
Al12 Ce6 3.145491 1_655
Al12 Ce3 3.257959 1_665
Al13 Ru3 2.577048 1_555
Al13 Ru11 2.577061 1_555
Al13 Ce2 3.366338 1_554
Al13 Ce0 3.366343 1_555
Al14 Ru9 2.695772 1_546
Al14 Ru11 2.695772 1_556
Al14 Al38 2.815386 1_555
Al14 Al58 2.815395 1_545
Al14 Ce2 3.198757 1_555
Al14 Ce0 3.201525 1_556
Al15 Ru10 2.681862 1_555
Al15 Ru6 2.681862 1_555
Al15 Al45 2.758919 1_555
Al15 Al35 2.758919 1_555
Al15 Al39 2.874328 1_555
Al15 Al49 2.874328 1_555
Al15 Ce1 3.238294 1_555
Al15 Ce3 3.328739 1_555
Al15 Ce7 3.649277 1_555
Al16 Ru6 2.577048 1_555
Al16 Ru8 2.577061 1_555
Al16 Ce2 3.366338 1_555
Al16 Ce0 3.366343 1_555
Al17 Ru4 2.641893 1_556
Al17 Ru10 2.641893 1_555
Al17 Al49 2.717964 1_555
Al17 Ce4 3.143466 1_555
Al18 Ru9 2.662642 1_555
Al18 Ru2 2.662642 1_555
Al18 Al21 2.717964 1_555
Al18 Al4 2.758927 1_565
Al18 Al2 2.758927 1_565
Al18 Al37 2.815385 1_555
Al18 Al47 2.874328 1_554
Al18 Al7 2.874328 1_555
Al18 Ce0 3.145491 1_565
Al18 Ce3 3.257959 1_665
Al19 Ru0 2.681862 1_546
Al19 Ru3 2.681862 1_556
Al19 Al39 2.758927 1_555
Al19 Al23 2.758927 1_545
Al19 Al35 2.874333 1_556
Al19 Al36 2.874335 1_546
Al19 Ce2 3.238294 1_555
Al19 Ce7 3.328739 1_555
Al19 Ce3 3.649277 1_556
Al20 Ru2 2.577048 1_555
Al20 Ru5 2.577061 1_555
Al20 Ce0 3.366338 1_565
Al20 Ce2 3.366343 1_565
Al21 Ru9 2.641893 1_555
Al21 Ru2 2.641893 1_555
Al21 Ce0 3.143466 1_565
Al22 Ru6 2.695772 1_555
Al22 Ru5 2.695772 1_545
Al22 Al36 2.815386 1_545
Al22 Al35 2.815395 1_555
Al22 Ce0 3.198757 1_555
Al22 Ce2 3.201525 1_555
Al23 Ru0 2.662635 1_556
Al23 Ru5 2.662635 1_555
Al23 Al52 2.717964 1_555
Al23 Al44 2.725168 1_455
Al23 Al27 2.758927 1_565
Al23 Al41 2.815386 1_555
Al23 Al48 2.815386 1_555
Al23 Al6 2.874335 1_555
Al23 Al26 2.874335 1_556
Al23 Ce2 3.145480 1_565
Al23 Ce7 3.257969 1_565
Al24 Ru4 2.681862 1_555
Al24 Ru3 2.681862 1_555
Al24 Al45 2.758919 1_555
Al24 Al35 2.758919 1_555
Al24 Al39 2.874328 1_554
Al24 Al49 2.874328 1_554
Al24 Ce1 3.238294 1_555
Al24 Ce3 3.328739 1_555
Al24 Ce7 3.649277 1_554
Al25 Ru10 2.695772 1_555
Al25 Ru8 2.695772 1_455
Al25 Al40 2.815386 1_455
Al25 Al45 2.815395 1_555
Al25 Ce6 3.198757 1_555
Al25 Ce4 3.201525 1_555
Al26 Ru0 2.681862 1_555
Al26 Ru7 2.681862 1_455
Al26 Al36 2.758927 1_555
Al26 Al44 2.874333 1_454
Al26 Ce6 3.238294 1_555
Al26 Ce3 3.328739 1_565
Al26 Ce7 3.649277 1_564
Al27 Ru5 2.681862 1_545
Al27 Ru6 2.681862 1_555
Al27 Al39 2.758927 1_555
Al27 Al35 2.874333 1_555
Al27 Al36 2.874335 1_545
Al27 Ce2 3.238294 1_555
Al27 Ce7 3.328739 1_555
Al27 Ce3 3.649277 1_555
Al28 Ru3 2.577056 1_555
Al28 Ru7 2.577056 1_555
Al28 Ce1 3.366333 1_555
Al28 Ce5 3.366333 1_554
Al29 Ru1 2.641893 1_555
Al29 Ru7 2.641893 1_555
Al29 Ce6 3.143466 1_655
Al30 Ru6 2.641892 1_555
Al30 Ru3 2.641892 1_555
Al30 Al35 2.717964 1_555
Al30 Ce1 3.143454 1_555
Al31 Ru6 2.577056 1_555
Al31 Ru1 2.577056 1_555
Al31 Ce1 3.366333 1_555
Al31 Ce5 3.366333 1_555
Al32 Ru4 2.577048 1_555
Al32 Ru0 2.577061 1_555
Al32 Ce4 3.366338 1_554
Al32 Ce6 3.366343 1_555
Al33 Ru10 2.577048 1_555
Al33 Ru5 2.577061 1_555
Al33 Ce4 3.366338 1_555
Al33 Ce6 3.366343 1_555
Al34 Ru3 2.695772 1_556
Al34 Ru4 2.695772 1_556
Al34 Al39 2.815385 1_555
Al34 Al49 2.815385 1_555
Al34 Ce5 3.198757 1_555
Al34 Ce1 3.201525 1_556
Al35 Ru3 2.662640 1_555
Al35 Ru6 2.662640 1_555
Al35 Al36 2.725168 1_545
Al35 Al43 2.815395 1_555
Al35 Ce1 3.145479 1_555
Al35 Ce3 3.257957 1_555
Al36 Ru0 2.662635 1_555
Al36 Ru5 2.662635 1_555
Al36 Al51 2.717964 1_555
Al36 Al6 2.758927 1_555
Al36 Al43 2.815386 1_565
Al36 Ce6 3.145480 1_555
Al36 Ce3 3.257969 1_565
Al37 Ru7 2.695772 1_555
Al37 Ru9 2.695772 1_555
Al37 Ce1 3.198757 1_555
Al37 Ce5 3.201525 1_554
Al38 Ru8 2.662635 1_555
Al38 Ru11 2.662635 1_556
Al38 Al58 2.725168 1_545
Al38 Al42 2.758927 1_655
Al38 Al9 2.758927 1_655
Al38 Al50 2.815386 1_555
Al38 Al4 2.874335 1_556
Al38 Ce4 3.145480 1_655
Al38 Ce7 3.257969 1_655
Al39 Ru3 2.662642 1_556
Al39 Ru6 2.662642 1_555
Al39 Al46 2.717964 1_555
Al39 Al49 2.725145 1_555
Al39 Al54 2.815385 1_555
Al39 Ce2 3.145491 1_555
Al39 Ce7 3.257959 1_555
Al40 Ru11 2.662635 1_555
Al40 Ru8 2.662635 1_555
Al40 Al5 2.717964 1_555
Al40 Al45 2.725168 1_655
Al40 Al56 2.815386 1_655
Al40 Al9 2.874335 1_654
Al40 Al42 2.874335 1_655
Al40 Ce0 3.145480 1_555
Al40 Ce3 3.257969 1_655
Al41 Ru1 2.695772 1_455
Al41 Ru5 2.695772 1_555
Al41 Al44 2.815395 1_455
Al41 Ce4 3.198757 1_555
Al41 Ce6 3.201525 1_555
Al42 Ru8 2.681862 1_455
Al42 Ru10 2.681862 1_555
Al42 Al49 2.758927 1_555
Al42 Al45 2.874333 1_555
Al42 Ce4 3.238294 1_555
Al42 Ce7 3.328739 1_555
Al42 Ce3 3.649277 1_555
Al43 Ru3 2.695772 1_555
Al43 Ru0 2.695772 1_545
Al43 Ce0 3.198757 1_555
Al43 Ce2 3.201525 1_554
Al44 Ru1 2.662640 1_555
Al44 Ru7 2.662640 1_556
Al44 Al7 2.758919 1_555
Al44 Al47 2.758919 1_555
Al44 Al48 2.815395 1_655
Al44 Al6 2.874333 1_655
Al44 Ce5 3.145479 1_555
Al44 Ce7 3.257957 1_665
Al45 Ru10 2.662640 1_555
Al45 Ru4 2.662640 1_555
Al45 Al57 2.717964 1_555
Al45 Al56 2.815395 1_555
Al45 Al9 2.874333 1_554
Al45 Ce1 3.145479 1_555
Al45 Ce3 3.257957 1_555
Al46 Ru3 2.641893 1_556
Al46 Ru6 2.641893 1_555
Al46 Ce2 3.143466 1_555
Al47 Ru9 2.681862 1_556
Al47 Ru7 2.681862 1_556
Al47 Al58 2.758919 1_555
Al47 Ce5 3.238294 1_555
Al47 Ce7 3.328739 1_665
Al47 Ce3 3.649277 1_666
Al48 Ru7 2.695772 1_456
Al48 Ru0 2.695772 1_556
Al48 Ce4 3.198757 1_555
Al48 Ce6 3.201525 1_556
Al49 Ru10 2.662642 1_555
Al49 Ru4 2.662642 1_556
Al49 Al9 2.758927 1_555
Al49 Al54 2.815385 1_555
Al49 Ce4 3.145491 1_555
Al49 Ce7 3.257959 1_555
Al50 Ru2 2.695772 1_545
Al50 Ru8 2.695772 1_555
Al50 Al58 2.815395 1_545
Al50 Ce2 3.198757 1_555
Al50 Ce0 3.201525 1_555
Al51 Ru0 2.641898 1_555
Al51 Ru5 2.641898 1_555
Al51 Ce6 3.143465 1_555
Al52 Ru5 2.641898 1_555
Al52 Ru0 2.641898 1_556
Al52 Ce2 3.143465 1_565
Al53 Ru2 2.577056 1_555
Al53 Ru10 2.577056 1_555
Al53 Ce1 3.366333 1_555
Al53 Ce5 3.366333 1_555
Al54 Ru6 2.695772 1_555
Al54 Ru10 2.695772 1_555
Al54 Ce5 3.198757 1_555
Al54 Ce1 3.201525 1_555
Al55 Ru7 2.577048 1_555
Al55 Ru11 2.577061 1_555
Al55 Ce6 3.366338 1_655
Al55 Ce4 3.366343 1_654
Al56 Ru4 2.695772 1_555
Al56 Ru11 2.695772 1_455
Al56 Ce6 3.198757 1_555
Al56 Ce4 3.201525 1_554
Al57 Ru4 2.641892 1_555
Al57 Ru10 2.641892 1_555
Al57 Ce1 3.143454 1_555
Al58 Ru2 2.662640 1_555
Al58 Ru9 2.662640 1_556
Al58 Al7 2.758919 1_555
Al58 Ce5 3.145479 1_555
Al58 Ce7 3.257957 1_665
Al59 Ru9 2.577056 1_555
Al59 Ru4 2.577056 1_555
Al59 Ce1 3.366333 1_555
Al59 Ce5 3.366333 1_554
