# generated using pymatgen
data_Mg3(PO4)2
_symmetry_space_group_name_H-M   'P 1'
_cell_length_a   4.72599144
_cell_length_b   5.88968545
_cell_length_c   10.19475575
_cell_angle_alpha   89.19685145
_cell_angle_beta   90.00000000
_cell_angle_gamma   90.00000000
_symmetry_Int_Tables_number   1
_chemical_formula_structural   Mg3(PO4)2
_chemical_formula_sum   'Mg6 P4 O16'
_cell_volume   283.73910057
_cell_formula_units_Z   2
loop_
 _symmetry_equiv_pos_site_id
 _symmetry_equiv_pos_as_xyz
  1  'x, y, z'
loop_
 _atom_site_type_symbol
 _atom_site_label
 _atom_site_symmetry_multiplicity
 _atom_site_fract_x
 _atom_site_fract_y
 _atom_site_fract_z
 _atom_site_occupancy
  Mg  Mg0  1  0.51250541  0.76242114  0.77773845  1
  Mg  Mg1  1  0.01250541  0.23757886  0.72226155  1
  Mg  Mg2  1  0.98749459  0.76242114  0.27773845  1
  Mg  Mg3  1  0.00000000  0.50000000  -0.00000000  1
  Mg  Mg4  1  0.48749459  0.23757886  0.22226155  1
  Mg  Mg5  1  0.50000000  0.50000000  0.50000000  1
  P  P0  1  0.92468940  0.25591728  0.40302145  1
  P  P1  1  0.42468940  0.74408272  0.09697855  1
  P  P2  1  0.07531060  0.74408272  0.59697855  1
  P  P3  1  0.57531060  0.25591728  0.90302145  1
  O  O0  1  0.74562287  0.72495571  0.10416382  1
  O  O1  1  0.68730761  0.25518379  0.04426740  1
  O  O2  1  0.25437713  0.27504429  0.89583618  1
  O  O3  1  0.22968470  0.53202394  0.66117166  1
  O  O4  1  0.80914597  0.05918862  0.32296139  1
  O  O5  1  0.69085403  0.05918862  0.82296139  1
  O  O6  1  0.30914597  0.94081138  0.17703861  1
  O  O7  1  0.31269239  0.74481621  0.95573260  1
  O  O8  1  0.18730761  0.74481621  0.45573260  1
  O  O9  1  0.19085403  0.94081138  0.67703861  1
  O  O10  1  0.27031530  0.53202394  0.16117166  1
  O  O11  1  0.24562287  0.27504429  0.39583618  1
  O  O12  1  0.72968470  0.46797606  0.83882834  1
  O  O13  1  0.77031530  0.46797606  0.33882834  1
  O  O14  1  0.75437713  0.72495571  0.60416382  1
  O  O15  1  0.81269239  0.25518379  0.54426740  1
loop_
_geom_bond_atom_site_label_1
_geom_bond_atom_site_label_2
_geom_bond_distance
_geom_bond_site_symmetry_2
Mg0 O5 2.000155 1_565
Mg0 O7 2.046950 1_555
Mg0 O12 2.102018 1_555
Mg0 O9 2.106740 1_555
Mg0 O14 2.120752 1_555
Mg0 O3 2.255064 1_555
Mg1 O9 2.000155 1_545
Mg1 O15 2.046950 1_455
Mg1 O3 2.102018 1_555
Mg1 O5 2.106740 1_455
Mg1 O2 2.120752 1_555
Mg1 O12 2.255064 1_455
Mg2 O4 2.000155 1_565
Mg2 O8 2.046950 1_655
Mg2 O13 2.102018 1_555
Mg2 O6 2.106740 1_655
Mg2 O0 2.120752 1_555
Mg2 O10 2.255064 1_655
Mg3 O2 2.089924 1_554
Mg3 O0 2.089924 1_455
Mg3 O12 2.091909 1_454
Mg3 O10 2.091909 1_555
Mg3 O1 2.109102 1_455
Mg3 O7 2.109102 1_554
Mg4 O6 2.000155 1_545
Mg4 O1 2.046950 1_555
Mg4 O10 2.102018 1_555
Mg4 O4 2.106740 1_555
Mg4 O11 2.120752 1_555
Mg4 O13 2.255064 1_555
Mg5 O14 2.089924 1_555
Mg5 O11 2.089924 1_555
Mg5 O13 2.091909 1_555
Mg5 O3 2.091909 1_555
Mg5 O8 2.109102 1_555
Mg5 O15 2.109102 1_555
O0 P1 1.522594 1_555
O1 P3 1.534114 1_554
O2 P3 1.522594 1_555
O3 P2 1.580361 1_555
O4 P0 1.527540 1_555
O5 P3 1.527540 1_555
O6 P1 1.527540 1_555
O7 P1 1.534114 1_556
O8 P2 1.534114 1_555
O9 P2 1.527540 1_555
O10 P1 1.580361 1_555
O11 P0 1.522594 1_455
O12 P3 1.580361 1_555
O13 P0 1.580361 1_555
O14 P2 1.522594 1_655
O15 P0 1.534114 1_555
