# generated using pymatgen
data_CaInPt
_symmetry_space_group_name_H-M   'P 1'
_cell_length_a   4.43334716
_cell_length_b   7.29230069
_cell_length_c   8.34592203
_cell_angle_alpha   90.00000000
_cell_angle_beta   90.00000000
_cell_angle_gamma   90.00000000
_symmetry_Int_Tables_number   1
_chemical_formula_structural   CaInPt
_chemical_formula_sum   'Ca4 In4 Pt4'
_cell_volume   269.81782171
_cell_formula_units_Z   4
loop_
 _symmetry_equiv_pos_site_id
 _symmetry_equiv_pos_as_xyz
  1  'x, y, z'
loop_
 _atom_site_type_symbol
 _atom_site_label
 _atom_site_symmetry_multiplicity
 _atom_site_fract_x
 _atom_site_fract_y
 _atom_site_fract_z
 _atom_site_occupancy
  Ca  Ca0  1  0.25000000  0.02936261  0.67787779  1
  Ca  Ca1  1  0.25000000  0.52936261  0.82212221  1
  Ca  Ca2  1  0.75000000  0.97063739  0.32212221  1
  Ca  Ca3  1  0.75000000  0.47063739  0.17787779  1
  In  In0  1  0.75000000  0.35083689  0.56520532  1
  In  In1  1  0.25000000  0.14916311  0.06520532  1
  In  In2  1  0.75000000  0.85083689  0.93479468  1
  In  In3  1  0.25000000  0.64916311  0.43479468  1
  Pt  Pt0  1  0.75000000  0.23090088  0.87780966  1
  Pt  Pt1  1  0.75000000  0.73090088  0.62219034  1
  Pt  Pt2  1  0.25000000  0.76909912  0.12219034  1
  Pt  Pt3  1  0.25000000  0.26909912  0.37780966  1
loop_
_geom_bond_atom_site_label_1
_geom_bond_atom_site_label_2
_geom_bond_distance
_geom_bond_site_symmetry_2
Ca0 Pt3 3.054187 1_555
Ca0 Pt0 3.139725 1_555
Ca0 Pt0 3.139725 1_455
Ca0 Pt1 3.141127 1_545
Ca0 Pt1 3.141127 1_445
Ca0 In2 3.347554 1_445
Ca0 In2 3.347554 1_545
Ca0 In1 3.348575 1_556
Ca0 In0 3.360594 1_455
Ca0 In0 3.360594 1_555
Ca0 In3 3.435514 1_545
Ca0 Ca2 3.729965 1_545
Ca0 Ca2 3.729965 1_445
Ca0 Ca1 3.839749 1_555
Ca0 Ca1 3.839749 1_545
Ca1 Pt2 3.054187 1_556
Ca1 Pt1 3.139725 1_555
Ca1 Pt1 3.139725 1_455
Ca1 Pt0 3.141127 1_455
Ca1 Pt0 3.141127 1_555
Ca1 In0 3.347554 1_555
Ca1 In0 3.347554 1_455
Ca1 In3 3.348575 1_555
Ca1 In2 3.360594 1_455
Ca1 In2 3.360594 1_555
Ca1 In1 3.435514 1_556
Ca1 Ca3 3.729965 1_556
Ca1 Ca3 3.729965 1_456
Ca2 Pt1 3.054187 1_555
Ca2 Pt2 3.139725 1_655
Ca2 Pt2 3.139725 1_555
Ca2 Pt3 3.141127 1_565
Ca2 Pt3 3.141127 1_665
Ca2 In1 3.347554 1_665
Ca2 In1 3.347554 1_565
Ca2 In2 3.348575 1_554
Ca2 In3 3.360594 1_555
Ca2 In3 3.360594 1_655
Ca2 In0 3.435514 1_565
Ca2 Ca3 3.839749 1_565
Ca2 Ca3 3.839749 1_555
Ca3 Pt0 3.054187 1_554
Ca3 Pt3 3.139725 1_655
Ca3 Pt3 3.139725 1_555
Ca3 Pt2 3.141127 1_655
Ca3 Pt2 3.141127 1_555
Ca3 In3 3.347554 1_555
Ca3 In3 3.347554 1_655
Ca3 In0 3.348575 1_555
Ca3 In1 3.360594 1_555
Ca3 In1 3.360594 1_655
Ca3 In2 3.435514 1_554
In0 Pt0 2.751667 1_555
In0 Pt3 2.777587 1_655
In0 Pt3 2.777587 1_555
In0 Pt1 2.812050 1_555
In1 Pt3 2.751667 1_555
In1 Pt0 2.777587 1_454
In1 Pt0 2.777587 1_554
In1 Pt2 2.812050 1_545
In2 Pt1 2.751667 1_555
In2 Pt2 2.777587 1_556
In2 Pt2 2.777587 1_656
In2 Pt0 2.812050 1_565
In3 Pt2 2.751667 1_555
In3 Pt1 2.777587 1_555
In3 Pt1 2.777587 1_455
In3 Pt3 2.812050 1_555
