# generated using pymatgen
data_CdI2
_symmetry_space_group_name_H-M   'P 1'
_cell_length_a   4.33654463
_cell_length_b   4.33654463
_cell_length_c   98.92343500
_cell_angle_alpha   90.00000000
_cell_angle_beta   90.00000000
_cell_angle_gamma   120.00000966
_symmetry_Int_Tables_number   1
_chemical_formula_structural   CdI2
_chemical_formula_sum   'Cd13 I26'
_cell_volume   1611.08116014
_cell_formula_units_Z   13
loop_
 _symmetry_equiv_pos_site_id
 _symmetry_equiv_pos_as_xyz
  1  'x, y, z'
loop_
 _atom_site_type_symbol
 _atom_site_label
 _atom_site_symmetry_multiplicity
 _atom_site_fract_x
 _atom_site_fract_y
 _atom_site_fract_z
 _atom_site_occupancy
  Cd  Cd0  1  0.00000000  0.00000000  0.71163700  1
  Cd  Cd1  1  0.33333300  0.66666700  0.32698900  1
  Cd  Cd2  1  0.33333300  0.66666700  0.55763900  1
  Cd  Cd3  1  0.00000000  0.00000000  0.09600500  1
  Cd  Cd4  1  0.00000000  0.00000000  0.63466500  1
  Cd  Cd5  1  0.33333300  0.66666700  0.86537300  1
  Cd  Cd6  1  0.33333300  0.66666700  0.94232000  1
  Cd  Cd7  1  0.33333300  0.66666700  0.48099400  1
  Cd  Cd8  1  0.33333300  0.66666700  0.40402100  1
  Cd  Cd9  1  0.00000000  0.00000000  0.24999200  1
  Cd  Cd10  1  0.33333300  0.66666700  0.01902300  1
  Cd  Cd11  1  0.00000000  0.00000000  0.78835600  1
  Cd  Cd12  1  0.00000000  0.00000000  0.17299200  1
  I  I0  1  0.33333300  0.66666700  0.61723800  1
  I  I1  1  0.66666700  0.33333300  0.65207000  1
  I  I2  1  0.00000000  0.00000000  0.54022100  1
  I  I3  1  0.00000000  0.00000000  0.84797600  1
  I  I4  1  0.33333300  0.66666700  0.23259800  1
  I  I5  1  0.00000000  0.00000000  0.30959000  1
  I  I6  1  0.00000000  0.00000000  0.38662800  1
  I  I7  1  0.66666700  0.33333300  0.95972900  1
  I  I8  1  0.66666700  0.33333300  0.72903100  1
  I  I9  1  0.66666700  0.33333300  0.19037700  1
  I  I10  1  0.66666700  0.33333300  0.80576700  1
  I  I11  1  0.00000000  0.00000000  0.46360700  1
  I  I12  1  0.66666700  0.33333300  0.34438700  1
  I  I13  1  0.66666700  0.33333300  0.57504900  1
  I  I14  1  0.66666700  0.33333300  0.03641700  1
  I  I15  1  0.66666700  0.33333300  0.26738100  1
  I  I16  1  0.33333300  0.66666700  0.77096200  1
  I  I17  1  0.33333300  0.66666700  0.69422700  1
  I  I18  1  0.66666700  0.33333300  0.11338500  1
  I  I19  1  0.33333300  0.66666700  0.07862400  1
  I  I20  1  0.66666700  0.33333300  0.88279900  1
  I  I21  1  0.66666700  0.33333300  0.42141900  1
  I  I22  1  0.33333300  0.66666700  0.15559300  1
  I  I23  1  0.00000000  0.00000000  0.00162800  1
  I  I24  1  0.66666700  0.33333300  0.49837400  1
  I  I25  1  0.00000000  0.00000000  0.92491600  1
loop_
_geom_bond_atom_site_label_1
_geom_bond_atom_site_label_2
_geom_bond_distance
_geom_bond_site_symmetry_2
Cd0 I8 3.037968 1_455
Cd0 I8 3.037970 1_445
Cd0 I8 3.037970 1_555
Cd0 I17 3.038864 1_545
Cd0 I17 3.038867 1_555
Cd0 I17 3.038867 1_445
Cd1 I12 3.038192 1_455
Cd1 I12 3.038192 1_565
Cd1 I12 3.038198 1_555
Cd1 I5 3.038248 1_565
Cd1 I5 3.038251 1_665
Cd1 I5 3.038251 1_555
Cd2 I13 3.038864 1_565
Cd2 I13 3.038864 1_455
Cd2 I13 3.038871 1_555
Cd2 I2 3.039313 1_565
Cd2 I2 3.039316 1_665
Cd2 I2 3.039316 1_555
Cd3 I18 3.037183 1_455
Cd3 I18 3.037186 1_445
Cd3 I18 3.037186 1_555
Cd3 I19 3.037239 1_545
Cd3 I19 3.037242 1_445
Cd3 I19 3.037242 1_555
Cd4 I1 3.038584 1_455
Cd4 I1 3.038587 1_445
Cd4 I1 3.038587 1_555
Cd4 I0 3.039818 1_545
Cd4 I0 3.039821 1_555
Cd4 I0 3.039821 1_445
Cd5 I3 3.038136 1_565
Cd5 I3 3.038139 1_555
Cd5 I3 3.038139 1_665
Cd5 I20 3.039761 1_455
Cd5 I20 3.039761 1_565
Cd5 I20 3.039768 1_555
Cd6 I25 3.038528 1_565
Cd6 I25 3.038531 1_665
Cd6 I25 3.038531 1_555
Cd6 I7 3.038808 1_565
Cd6 I7 3.038808 1_455
Cd6 I7 3.038815 1_555
Cd7 I24 3.037183 1_565
Cd7 I24 3.037183 1_455
Cd7 I24 3.037190 1_555
Cd7 I11 3.037576 1_565
Cd7 I11 3.037578 1_665
Cd7 I11 3.037578 1_555
Cd8 I6 3.037912 1_565
Cd8 I6 3.037914 1_665
Cd8 I6 3.037914 1_555
Cd8 I21 3.038192 1_455
Cd8 I21 3.038192 1_565
Cd8 I21 3.038198 1_555
Cd9 I15 3.037688 1_455
Cd9 I15 3.037690 1_555
Cd9 I15 3.037690 1_445
Cd9 I4 3.037968 1_545
Cd9 I4 3.037970 1_445
Cd9 I4 3.037970 1_555
Cd10 I14 3.037967 1_455
Cd10 I14 3.037967 1_565
Cd10 I14 3.037974 1_555
Cd10 I23 3.038024 1_565
Cd10 I23 3.038027 1_555
Cd10 I23 3.038027 1_665
Cd11 I16 3.037968 1_545
Cd11 I16 3.037970 1_555
Cd11 I16 3.037970 1_445
Cd11 I10 3.038920 1_455
Cd11 I10 3.038923 1_555
Cd11 I10 3.038923 1_445
Cd12 I9 3.037464 1_455
Cd12 I9 3.037466 1_555
Cd12 I9 3.037466 1_445
Cd12 I22 3.038248 1_545
Cd12 I22 3.038251 1_555
Cd12 I22 3.038251 1_445
