# generated using pymatgen
data_Cs
_symmetry_space_group_name_H-M   'P 1'
_cell_length_a   10.13229257
_cell_length_b   10.13229257
_cell_length_c   10.44175000
_cell_angle_alpha   90.00000000
_cell_angle_beta   90.00000000
_cell_angle_gamma   118.00077133
_symmetry_Int_Tables_number   1
_chemical_formula_structural   Cs
_chemical_formula_sum   Cs8
_cell_volume   946.49985634
_cell_formula_units_Z   8
loop_
 _symmetry_equiv_pos_site_id
 _symmetry_equiv_pos_as_xyz
  1  'x, y, z'
loop_
 _atom_site_type_symbol
 _atom_site_label
 _atom_site_symmetry_multiplicity
 _atom_site_fract_x
 _atom_site_fract_y
 _atom_site_fract_z
 _atom_site_occupancy
  Cs  Cs0  1  0.67582700  0.67582700  0.17641100  1
  Cs  Cs1  1  0.78338500  0.21661500  0.00000000  1
  Cs  Cs2  1  0.28338500  0.71661500  0.50000000  1
  Cs  Cs3  1  0.32417300  0.32417300  0.82358900  1
  Cs  Cs4  1  0.82417300  0.82417300  0.67641100  1
  Cs  Cs5  1  0.21661500  0.78338500  0.00000000  1
  Cs  Cs6  1  0.17582700  0.17582700  0.32358900  1
  Cs  Cs7  1  0.71661500  0.28338500  0.50000000  1
loop_
_geom_bond_atom_site_label_1
_geom_bond_atom_site_label_2
_geom_bond_distance
_geom_bond_site_symmetry_2
Cs0 Cs3 5.200258 1_554
Cs0 Cs2 5.379741 1_555
Cs0 Cs7 5.379741 1_555
Cs0 Cs5 5.384960 1_655
Cs0 Cs1 5.384960 1_565
Cs0 Cs6 5.440041 1_665
Cs0 Cs6 5.440041 1_555
Cs0 Cs4 5.445612 1_554
Cs0 Cs4 5.445612 1_555
Cs0 Cs5 5.566979 1_555
Cs0 Cs1 5.566979 1_555
Cs1 Cs5 5.345789 1_655
Cs1 Cs5 5.345789 1_545
Cs1 Cs7 5.348149 1_554
Cs1 Cs7 5.348149 1_555
Cs1 Cs6 5.379741 1_655
Cs1 Cs4 5.379741 1_544
Cs1 Cs3 5.384960 1_654
Cs1 Cs3 5.566979 1_554
Cs2 Cs7 5.345789 1_565
Cs2 Cs7 5.345789 1_455
Cs2 Cs5 5.348149 1_555
Cs2 Cs5 5.348149 1_556
Cs2 Cs3 5.379741 1_555
Cs2 Cs4 5.384960 1_555
Cs2 Cs6 5.384960 1_555
Cs2 Cs6 5.566979 1_565
Cs2 Cs4 5.566979 1_455
Cs3 Cs7 5.379741 1_555
Cs3 Cs5 5.384960 1_546
Cs3 Cs4 5.440041 1_555
Cs3 Cs4 5.440041 1_445
Cs3 Cs6 5.445612 1_556
Cs3 Cs6 5.445612 1_555
Cs3 Cs5 5.566979 1_556
Cs4 Cs6 5.200258 1_665
Cs4 Cs5 5.379741 1_656
Cs4 Cs7 5.384960 1_555
Cs4 Cs7 5.566979 1_565
Cs5 Cs6 5.379741 1_565
Cs6 Cs7 5.384960 1_555
Cs6 Cs7 5.566979 1_455
