# generated using pymatgen
data_Rb2Ge4O9
_symmetry_space_group_name_H-M   'P 1'
_cell_length_a   12.13894330
_cell_length_b   12.13894330
_cell_length_c   9.89273423
_cell_angle_alpha   90.00000000
_cell_angle_beta   90.00000000
_cell_angle_gamma   120.00000392
_symmetry_Int_Tables_number   1
_chemical_formula_structural   Rb2Ge4O9
_chemical_formula_sum   'Rb12 Ge24 O54'
_cell_volume   1262.43411508
_cell_formula_units_Z   6
loop_
 _symmetry_equiv_pos_site_id
 _symmetry_equiv_pos_as_xyz
  1  'x, y, z'
loop_
 _atom_site_type_symbol
 _atom_site_label
 _atom_site_symmetry_multiplicity
 _atom_site_fract_x
 _atom_site_fract_y
 _atom_site_fract_z
 _atom_site_occupancy
  Rb  Rb0  1  0.99823979  0.66257338  0.56921163  1
  Rb  Rb1  1  0.66257338  0.66433359  0.43078837  1
  Rb  Rb2  1  0.33566641  0.33742662  0.93078837  1
  Rb  Rb3  1  0.00176021  0.33742662  0.43078837  1
  Rb  Rb4  1  0.33742662  0.00176021  0.06921163  1
  Rb  Rb5  1  0.99823979  0.33566641  0.06921163  1
  Rb  Rb6  1  0.66433359  0.00176021  0.56921163  1
  Rb  Rb7  1  0.66433359  0.66257338  0.06921163  1
  Rb  Rb8  1  0.66257338  0.99823979  0.93078837  1
  Rb  Rb9  1  0.00176021  0.66433359  0.93078837  1
  Rb  Rb10  1  0.33566641  0.99823979  0.43078837  1
  Rb  Rb11  1  0.33742662  0.33566641  0.56921163  1
  Ge  Ge0  1  0.00000000  0.17741027  0.75000000  1
  Ge  Ge1  1  0.33318711  0.48427068  0.22129296  1
  Ge  Ge2  1  0.84891642  0.33318711  0.77870704  1
  Ge  Ge3  1  0.33318711  0.84891642  0.72129296  1
  Ge  Ge4  1  0.51572932  0.66681289  0.72129296  1
  Ge  Ge5  1  0.15108358  0.48427068  0.72129296  1
  Ge  Ge6  1  0.17741027  0.17741027  0.25000000  1
  Ge  Ge7  1  0.15108358  0.66681289  0.22129296  1
  Ge  Ge8  1  0.66666700  0.33333300  0.02950997  1
  Ge  Ge9  1  0.66681289  0.51572932  0.77870704  1
  Ge  Ge10  1  0.48427068  0.33318711  0.27870704  1
  Ge  Ge11  1  1.00000000  0.82258973  0.25000000  1
  Ge  Ge12  1  0.33333300  0.66666700  0.97049003  1
  Ge  Ge13  1  0.82258973  1.00000000  0.25000000  1
  Ge  Ge14  1  0.48427068  0.15108358  0.77870704  1
  Ge  Ge15  1  0.66681289  0.15108358  0.27870704  1
  Ge  Ge16  1  -0.00000000  -0.00000000  0.50000000  1
  Ge  Ge17  1  0.33333300  0.66666700  0.47049003  1
  Ge  Ge18  1  0.82258973  0.82258973  0.75000000  1
  Ge  Ge19  1  0.17741027  0.00000000  0.75000000  1
  Ge  Ge20  1  -0.00000000  -0.00000000  -0.00000000  1
  Ge  Ge21  1  0.51572932  0.84891642  0.22129296  1
  Ge  Ge22  1  0.84891642  0.51572932  0.27870704  1
  Ge  Ge23  1  0.66666700  0.33333300  0.52950997  1
  O  O0  1  0.67308431  0.88205112  0.17983218  1
  O  O1  1  0.42183874  0.60894242  0.57771304  1
  O  O2  1  0.00000000  0.52959971  0.25000000  1
  O  O3  1  0.60894242  0.18710468  0.42228696  1
  O  O4  1  0.07617046  0.14791494  0.38737872  1
  O  O5  1  0.27112036  0.51833662  0.36216793  1
  O  O6  1  0.47040029  1.00000000  0.75000000  1
  O  O7  1  0.81289532  0.39105758  0.92228696  1
  O  O8  1  0.48166338  0.72887964  0.86216793  1
  O  O9  1  0.47040029  0.47040029  0.25000000  1
  O  O10  1  0.72887964  0.24721626  0.13783207  1
  O  O11  1  0.60894242  0.42183874  0.92228696  1
  O  O12  1  0.18710468  0.57816126  0.57771304  1
  O  O13  1  0.32691569  0.20896581  0.32016782  1
  O  O14  1  0.52959971  0.52959971  0.75000000  1
  O  O15  1  0.79103419  0.11794888  0.32016782  1
  O  O16  1  0.39105758  0.81289532  0.57771304  1
  O  O17  1  0.14791494  0.07617046  0.11262128  1
  O  O18  1  0.32691569  0.11794888  0.82016782  1
  O  O19  1  0.92825552  0.07617046  0.61262128  1
  O  O20  1  0.11794888  0.32691569  0.67983218  1
  O  O21  1  0.57816126  0.18710468  0.92228696  1
  O  O22  1  0.75278374  0.48166338  0.13783207  1
  O  O23  1  0.48166338  0.75278374  0.36216793  1
  O  O24  1  0.57816126  0.39105758  0.42228696  1
  O  O25  1  0.24721626  0.72887964  0.36216793  1
  O  O26  1  0.27112036  0.75278374  0.86216793  1
  O  O27  1  0.42183874  0.81289532  0.07771304  1
  O  O28  1  0.92825552  0.85208506  0.11262128  1
  O  O29  1  0.79103419  0.67308431  0.82016782  1
  O  O30  1  0.07617046  0.92825552  0.88737872  1
  O  O31  1  0.92382954  0.85208506  0.61262128  1
  O  O32  1  0.39105758  0.57816126  0.07771304  1
  O  O33  1  0.81289532  0.42183874  0.42228696  1
  O  O34  1  0.51833662  0.24721626  0.63783207  1
  O  O35  1  0.20896581  0.32691569  0.17983218  1
  O  O36  1  0.88205112  0.67308431  0.32016782  1
  O  O37  1  0.51833662  0.27112036  0.13783207  1
  O  O38  1  0.52959971  0.00000000  0.25000000  1
  O  O39  1  0.11794888  0.79103419  0.17983218  1
  O  O40  1  0.92382954  0.07174448  0.11262128  1
  O  O41  1  0.20896581  0.88205112  0.67983218  1
  O  O42  1  0.07174448  0.14791494  0.88737872  1
  O  O43  1  0.85208506  0.92825552  0.38737872  1
  O  O44  1  0.14791494  0.07174448  0.61262128  1
  O  O45  1  0.85208506  0.92382954  0.88737872  1
  O  O46  1  0.07174448  0.92382954  0.38737872  1
  O  O47  1  1.00000000  0.47040029  0.75000000  1
  O  O48  1  0.72887964  0.48166338  0.63783207  1
  O  O49  1  0.24721626  0.51833662  0.86216793  1
  O  O50  1  0.88205112  0.20896581  0.82016782  1
  O  O51  1  0.75278374  0.27112036  0.63783207  1
  O  O52  1  0.67308431  0.79103419  0.67983218  1
  O  O53  1  0.18710468  0.60894242  0.07771304  1
loop_
_geom_bond_atom_site_label_1
_geom_bond_atom_site_label_2
_geom_bond_distance
_geom_bond_site_symmetry_2
Ge0 O19 1.745137 1_455
Ge0 O42 1.745137 1_555
Ge0 O50 1.796384 1_455
Ge0 O20 1.796391 1_555
Ge1 O5 1.729867 1_555
Ge1 O32 1.734751 1_555
Ge1 O9 1.778692 1_555
Ge1 O35 1.791733 1_555
Ge2 O51 1.729867 1_555
Ge2 O7 1.734756 1_555
Ge2 O47 1.778692 1_555
Ge2 O50 1.791741 1_555
Ge3 O26 1.729867 1_555
Ge3 O16 1.734756 1_555
Ge3 O6 1.778692 1_555
Ge3 O41 1.791741 1_555
Ge4 O8 1.729867 1_555
Ge4 O1 1.734751 1_555
Ge4 O14 1.778692 1_555
Ge4 O52 1.791733 1_555
Ge5 O49 1.729867 1_555
Ge5 O12 1.734750 1_555
Ge5 O47 1.778692 1_455
Ge5 O20 1.791729 1_555
Ge6 O17 1.745137 1_555
Ge6 O4 1.745137 1_555
Ge6 O13 1.796395 1_555
Ge6 O35 1.796395 1_555
Ge7 O25 1.729867 1_555
Ge7 O53 1.734756 1_555
Ge7 O2 1.778692 1_555
Ge7 O39 1.791741 1_555
Ge8 O7 1.877010 1_554
Ge8 O21 1.877012 1_554
Ge8 O11 1.877028 1_554
Ge8 O10 1.897603 1_555
Ge8 O22 1.897611 1_555
Ge8 O37 1.897612 1_555
Ge9 O48 1.729867 1_555
Ge9 O11 1.734751 1_555
Ge9 O14 1.778692 1_555
Ge9 O29 1.791733 1_555
Ge10 O37 1.729867 1_555
Ge10 O24 1.734751 1_555
Ge10 O9 1.778692 1_555
Ge10 O13 1.791733 1_555
Ge11 O46 1.745137 1_655
Ge11 O28 1.745137 1_555
Ge11 O39 1.796384 1_655
Ge11 O36 1.796391 1_555
Ge12 O53 1.877010 1_556
Ge12 O27 1.877012 1_556
Ge12 O32 1.877028 1_556
Ge12 O26 1.897603 1_555
Ge12 O49 1.897611 1_555
Ge12 O8 1.897612 1_555
Ge13 O40 1.745137 1_565
Ge13 O43 1.745137 1_555
Ge13 O15 1.796384 1_565
Ge13 O0 1.796391 1_555
Ge14 O34 1.729867 1_555
Ge14 O21 1.734750 1_555
Ge14 O6 1.778692 1_545
Ge14 O18 1.791729 1_555
Ge15 O10 1.729867 1_555
Ge15 O3 1.734756 1_555
Ge15 O38 1.778692 1_555
Ge15 O15 1.791741 1_555
Ge16 O31 1.913103 1_445
Ge16 O4 1.913103 1_555
Ge16 O43 1.913103 1_445
Ge16 O44 1.913103 1_555
Ge16 O46 1.913103 1_545
Ge16 O19 1.913103 1_455
Ge17 O16 1.877010 1_555
Ge17 O12 1.877012 1_555
Ge17 O1 1.877028 1_555
Ge17 O25 1.897603 1_555
Ge17 O23 1.897611 1_555
Ge17 O5 1.897612 1_555
Ge18 O31 1.745137 1_555
Ge18 O45 1.745137 1_555
Ge18 O29 1.796395 1_555
Ge18 O52 1.796395 1_555
Ge19 O30 1.745137 1_545
Ge19 O44 1.745137 1_555
Ge19 O41 1.796384 1_545
Ge19 O18 1.796391 1_555
Ge20 O45 1.913103 1_444
Ge20 O17 1.913103 1_555
Ge20 O28 1.913103 1_445
Ge20 O42 1.913103 1_554
Ge20 O40 1.913103 1_455
Ge20 O30 1.913103 1_544
Ge21 O23 1.729867 1_555
Ge21 O27 1.734750 1_555
Ge21 O38 1.778692 1_565
Ge21 O0 1.791729 1_555
Ge22 O22 1.729867 1_555
Ge22 O33 1.734750 1_555
Ge22 O2 1.778692 1_655
Ge22 O36 1.791729 1_555
Ge23 O3 1.877010 1_555
Ge23 O33 1.877012 1_555
Ge23 O24 1.877028 1_555
Ge23 O51 1.897603 1_555
Ge23 O34 1.897611 1_555
Ge23 O48 1.897612 1_555
O0 Rb7 2.832661 1_555
O0 Rb8 2.873225 1_554
O1 Rb11 2.943171 1_555
O1 Rb1 3.023154 1_555
O2 Rb5 2.948026 1_455
O2 Rb3 2.948026 1_555
O3 Rb10 2.943174 1_545
O3 Rb6 3.023164 1_555
O4 Rb3 2.893164 1_555
O5 Rb3 2.965500 1_555
O6 Rb6 2.948026 1_565
O6 Rb8 2.948026 1_555
O7 Rb9 2.943174 1_655
O7 Rb5 3.023164 1_556
O8 Rb8 2.965500 1_555
O9 Rb7 2.948026 1_555
O9 Rb1 2.948026 1_555
O10 Rb5 2.965500 1_555
O11 Rb2 2.943171 1_555
O11 Rb7 3.023154 1_556
O12 Rb0 2.943183 1_455
O12 Rb3 3.023157 1_555
O13 Rb10 2.832650 1_545
O13 Rb11 2.873231 1_555
O14 Rb2 2.948026 1_555
O14 Rb11 2.948026 1_555
O15 Rb3 2.832655 1_655
O15 Rb6 2.873229 1_555
O16 Rb6 2.943174 1_565
O16 Rb10 3.023164 1_555
O17 Rb4 2.893164 1_555
O18 Rb2 2.832661 1_555
O18 Rb4 2.873225 1_556
O19 Rb6 2.893164 1_555
O20 Rb11 2.832661 1_555
O20 Rb3 2.873225 1_555
O21 Rb8 2.943183 1_545
O21 Rb4 3.023157 1_556
O22 Rb7 2.965500 1_555
O23 Rb1 2.965500 1_555
O24 Rb1 2.943171 1_555
O24 Rb11 3.023154 1_555
O25 Rb10 2.965500 1_555
O26 Rb9 2.965500 1_555
O27 Rb4 2.943183 1_565
O27 Rb8 3.023157 1_554
O28 Rb7 2.893164 1_555
O29 Rb9 2.832650 1_655
O29 Rb7 2.873231 1_556
O30 Rb9 2.893164 1_555
O31 Rb0 2.893164 1_555
O32 Rb7 2.943171 1_555
O32 Rb2 3.023154 1_554
O33 Rb3 2.943183 1_655
O33 Rb0 3.023157 1_555
O34 Rb11 2.965500 1_555
O35 Rb5 2.832650 1_455
O35 Rb2 2.873231 1_554
O36 Rb1 2.832661 1_555
O36 Rb0 2.873225 1_555
O37 Rb4 2.965500 1_555
O38 Rb10 2.948026 1_545
O38 Rb4 2.948026 1_555
O39 Rb4 2.832655 1_565
O39 Rb9 2.873229 1_554
O40 Rb5 2.893164 1_555
O41 Rb0 2.832655 1_455
O41 Rb10 2.873229 1_555
O42 Rb2 2.893164 1_555
O43 Rb1 2.893164 1_555
O44 Rb11 2.893164 1_555
O45 Rb8 2.893164 1_555
O46 Rb10 2.893164 1_555
O47 Rb9 2.948026 1_655
O47 Rb0 2.948026 1_555
O48 Rb0 2.965500 1_555
O49 Rb2 2.965500 1_555
O50 Rb8 2.832655 1_545
O50 Rb5 2.873229 1_556
O51 Rb6 2.965500 1_555
O52 Rb6 2.832650 1_565
O52 Rb1 2.873231 1_555
O53 Rb5 2.943174 1_455
O53 Rb9 3.023164 1_554
