# generated using pymatgen
data_Zr11Sb18
_symmetry_space_group_name_H-M   'P 1'
_cell_length_a   6.81834637
_cell_length_b   6.81834618
_cell_length_c   30.62852795
_cell_angle_alpha   96.39066335
_cell_angle_beta   96.39066410
_cell_angle_gamma   90.00000459
_symmetry_Int_Tables_number   1
_chemical_formula_structural   Zr11Sb18
_chemical_formula_sum   'Zr22 Sb36'
_cell_volume   1406.16364442
_cell_formula_units_Z   2
loop_
 _symmetry_equiv_pos_site_id
 _symmetry_equiv_pos_as_xyz
  1  'x, y, z'
loop_
 _atom_site_type_symbol
 _atom_site_label
 _atom_site_symmetry_multiplicity
 _atom_site_fract_x
 _atom_site_fract_y
 _atom_site_fract_z
 _atom_site_occupancy
  Zr  Zr0  1  0.36295379  0.36295379  0.72590558  1
  Zr  Zr1  1  0.63704621  0.63704621  0.27409442  1
  Zr  Zr2  1  0.38704621  0.88704621  0.77409442  1
  Zr  Zr3  1  0.11295379  0.61295379  0.22590558  1
  Zr  Zr4  1  0.08892588  0.08892588  0.17785176  1
  Zr  Zr5  1  0.91107412  0.91107412  0.82214824  1
  Zr  Zr6  1  0.66107412  0.16107412  0.32214824  1
  Zr  Zr7  1  0.83892588  0.33892588  0.67785176  1
  Zr  Zr8  1  0.00000000  -0.00000000  0.00000000  1
  Zr  Zr9  1  0.75000000  0.25000000  0.50000000  1
  Zr  Zr10  1  0.45204921  0.45204921  0.90409742  1
  Zr  Zr11  1  0.54795079  0.54795079  0.09590258  1
  Zr  Zr12  1  0.29795079  0.79795079  0.59590258  1
  Zr  Zr13  1  0.20204921  0.70204921  0.40409742  1
  Zr  Zr14  1  0.56669284  0.06669284  0.13338768  1
  Zr  Zr15  1  0.93330716  0.43330716  0.86661232  1
  Zr  Zr16  1  0.18330716  0.18330716  0.36661232  1
  Zr  Zr17  1  0.81669284  0.81669284  0.63338768  1
  Zr  Zr18  1  0.27392594  0.27392594  0.54784988  1
  Zr  Zr19  1  0.72607406  0.72607406  0.45215012  1
  Zr  Zr20  1  0.47607406  0.97607406  0.95215012  1
  Zr  Zr21  1  0.02392594  0.52392594  0.04784988  1
  Sb  Sb0  1  0.11520027  0.77676948  0.91535631  1
  Sb  Sb1  1  0.86141317  0.88479973  0.08464369  1
  Sb  Sb2  1  0.22323052  0.19984495  0.08464369  1
  Sb  Sb3  1  0.94984495  0.47323052  0.58464369  1
  Sb  Sb4  1  0.63479973  0.11141317  0.58464369  1
  Sb  Sb5  1  0.80015505  0.13858683  0.91535631  1
  Sb  Sb6  1  0.88858683  0.05015505  0.41535631  1
  Sb  Sb7  1  0.52676948  0.36520027  0.41535631  1
  Sb  Sb8  1  0.90134897  0.40848706  0.13856071  1
  Sb  Sb9  1  0.26992735  0.09865103  0.86143929  1
  Sb  Sb10  1  0.59151294  0.76278826  0.86143929  1
  Sb  Sb11  1  0.51278826  0.84151294  0.36143929  1
  Sb  Sb12  1  0.84865103  0.51992735  0.36143929  1
  Sb  Sb13  1  0.23721174  0.73007265  0.13856071  1
  Sb  Sb14  1  0.48007265  0.48721174  0.63856071  1
  Sb  Sb15  1  0.15848706  0.15134897  0.63856071  1
  Sb  Sb16  1  0.19974784  0.55810637  0.80753493  1
  Sb  Sb17  1  0.75057244  0.80025216  0.19246507  1
  Sb  Sb18  1  0.44189363  0.39221291  0.19246507  1
  Sb  Sb19  1  0.14221291  0.69189363  0.69246507  1
  Sb  Sb20  1  0.55025216  0.00057244  0.69246507  1
  Sb  Sb21  1  0.60778709  0.24942756  0.80753493  1
  Sb  Sb22  1  -0.00057244  0.85778709  0.30753493  1
  Sb  Sb23  1  0.30810637  0.44974784  0.30753493  1
  Sb  Sb24  1  0.67117857  0.23965973  0.03000711  1
  Sb  Sb25  1  0.20965262  0.32882143  0.96999289  1
  Sb  Sb26  1  0.76034027  0.64117146  0.96999289  1
  Sb  Sb27  1  0.39117146  0.01034027  0.46999289  1
  Sb  Sb28  1  0.07882143  0.45965262  0.46999289  1
  Sb  Sb29  1  0.35882854  0.79034738  0.03000711  1
  Sb  Sb30  1  0.54034738  0.60882854  0.53000711  1
  Sb  Sb31  1  0.98965973  0.92117857  0.53000711  1
  Sb  Sb32  1  0.87500000  0.28405692  0.25000000  1
  Sb  Sb33  1  0.03405692  0.12500000  0.75000000  1
  Sb  Sb34  1  0.71594308  0.62500000  0.75000000  1
  Sb  Sb35  1  0.37500000  0.96594308  0.25000000  1
loop_
_geom_bond_atom_site_label_1
_geom_bond_atom_site_label_2
_geom_bond_distance
_geom_bond_site_symmetry_2
Sb0 Zr15 2.839150 1_455
Sb0 Zr20 2.865805 1_555
Sb0 Zr8 3.038035 1_566
Sb0 Zr10 3.209732 1_555
Sb0 Zr5 3.259320 1_455
Sb1 Zr14 2.839160 1_565
Sb1 Zr21 2.865811 1_655
Sb1 Zr8 3.038035 1_665
Sb1 Zr11 3.209736 1_555
Sb1 Zr4 3.259320 1_665
Sb2 Zr14 2.839158 1_555
Sb2 Zr21 2.865811 1_555
Sb2 Zr8 3.038038 1_555
Sb2 Zr11 3.209722 1_555
Sb2 Zr4 3.259322 1_555
Sb3 Zr17 2.839158 1_555
Sb3 Zr18 2.865811 1_655
Sb3 Zr9 3.038038 1_555
Sb3 Zr12 3.209722 1_655
Sb3 Zr7 3.259322 1_555
Sb4 Zr17 2.839160 1_545
Sb4 Zr18 2.865811 1_555
Sb4 Zr9 3.038035 1_555
Sb4 Zr12 3.209736 1_545
Sb4 Zr7 3.259320 1_555
Sb5 Zr15 2.839168 1_555
Sb5 Zr20 2.865816 1_545
Sb5 Zr8 3.038037 1_656
Sb5 Zr10 3.209727 1_555
Sb5 Zr5 3.259322 1_545
Sb6 Zr16 2.839168 1_655
Sb6 Zr19 2.865816 1_545
Sb6 Zr9 3.038038 1_555
Sb6 Zr13 3.209727 1_645
Sb6 Zr6 3.259322 1_555
Sb7 Zr16 2.839150 1_555
Sb7 Zr19 2.865805 1_555
Sb7 Zr9 3.038035 1_555
Sb7 Zr13 3.209732 1_555
Sb7 Zr6 3.259320 1_555
Sb8 Zr11 2.827222 1_555
Sb8 Zr4 2.841230 1_655
Sb8 Zr3 3.081016 1_655
Sb8 Zr21 3.168747 1_655
Sb8 Zr14 3.240391 1_555
Sb9 Zr10 2.827222 1_555
Sb9 Zr5 2.841235 1_445
Sb9 Zr2 3.081008 1_545
Sb9 Zr20 3.168740 1_545
Sb9 Zr15 3.240387 1_455
Sb10 Zr10 2.827216 1_555
Sb10 Zr5 2.841229 1_555
Sb10 Zr2 3.081010 1_555
Sb10 Zr20 3.168742 1_555
Sb10 Zr15 3.240382 1_555
Sb11 Zr13 2.827216 1_555
Sb11 Zr6 2.841229 1_565
Sb11 Zr1 3.081010 1_555
Sb11 Zr19 3.168742 1_555
Sb11 Zr16 3.240382 1_565
Sb12 Zr13 2.827222 1_655
Sb12 Zr6 2.841235 1_555
Sb12 Zr1 3.081008 1_555
Sb12 Zr19 3.168740 1_555
Sb12 Zr16 3.240387 1_655
Sb13 Zr11 2.827216 1_555
Sb13 Zr4 2.841235 1_565
Sb13 Zr3 3.081003 1_555
Sb13 Zr21 3.168735 1_555
Sb13 Zr14 3.240377 1_565
Sb14 Zr12 2.827216 1_555
Sb14 Zr7 2.841235 1_555
Sb14 Zr0 3.081003 1_555
Sb14 Zr18 3.168735 1_555
Sb14 Zr17 3.240377 1_555
Sb15 Zr12 2.827222 1_545
Sb15 Zr7 2.841230 1_455
Sb15 Zr0 3.081016 1_555
Sb15 Zr18 3.168747 1_555
Sb15 Zr17 3.240391 1_445
Sb16 Zr15 2.893627 1_455
Sb16 Zr2 2.917667 1_555
Sb16 Zr0 3.023004 1_555
Sb16 Zr5 3.134129 1_455
Sb16 Zr10 3.401906 1_555
Sb17 Zr14 2.893634 1_565
Sb17 Zr3 2.917673 1_655
Sb17 Zr1 3.023011 1_555
Sb17 Zr4 3.134123 1_665
Sb17 Zr11 3.401911 1_555
Sb18 Zr14 2.893637 1_555
Sb18 Zr3 2.917674 1_555
Sb18 Zr1 3.022998 1_555
Sb18 Zr4 3.134129 1_555
Sb18 Zr11 3.401903 1_555
Sb19 Zr17 2.893637 1_455
Sb19 Zr0 2.917674 1_555
Sb19 Zr2 3.022998 1_555
Sb19 Zr7 3.134129 1_455
Sb19 Zr12 3.401903 1_555
Sb20 Zr17 2.893635 1_545
Sb20 Zr0 2.917673 1_555
Sb20 Zr2 3.023011 1_545
Sb20 Zr7 3.134123 1_555
Sb20 Zr12 3.401911 1_545
Sb21 Zr15 2.893644 1_555
Sb21 Zr2 2.917680 1_545
Sb21 Zr0 3.023005 1_555
Sb21 Zr5 3.134124 1_545
Sb21 Zr10 3.401908 1_555
Sb22 Zr16 2.893644 1_565
Sb22 Zr1 2.917680 1_455
Sb22 Zr3 3.023005 1_555
Sb22 Zr6 3.134124 1_465
Sb22 Zr13 3.401908 1_555
Sb23 Zr16 2.893627 1_555
Sb23 Zr1 2.917667 1_555
Sb23 Zr3 3.023004 1_555
Sb23 Zr6 3.134129 1_555
Sb23 Zr13 3.401906 1_555
Sb24 Zr11 2.937861 1_555
Sb24 Zr8 2.943799 1_655
Sb24 Zr20 3.004321 1_544
Sb24 Zr21 3.051513 1_655
Sb25 Zr10 2.937865 1_555
Sb25 Zr8 2.943799 1_556
Sb25 Zr21 3.004314 1_556
Sb25 Zr20 3.051505 1_545
Sb26 Zr10 2.937859 1_555
Sb26 Zr8 2.943799 1_666
Sb26 Zr21 3.004316 1_656
Sb26 Zr20 3.051503 1_555
Sb27 Zr13 2.937859 1_545
Sb27 Zr9 2.943799 1_555
Sb27 Zr18 3.004316 1_555
Sb27 Zr19 3.051503 1_545
Sb28 Zr13 2.937865 1_555
Sb28 Zr9 2.943799 1_455
Sb28 Zr18 3.004313 1_555
Sb28 Zr19 3.051505 1_455
Sb29 Zr11 2.937863 1_555
Sb29 Zr8 2.943799 1_565
Sb29 Zr20 3.004308 1_554
Sb29 Zr21 3.051494 1_555
Sb30 Zr12 2.937863 1_555
Sb30 Zr9 2.943799 1_555
Sb30 Zr19 3.004308 1_555
Sb30 Zr18 3.051494 1_555
Sb31 Zr12 2.937861 1_655
Sb31 Zr9 2.943799 1_565
Sb31 Zr19 3.004321 1_555
Sb31 Zr18 3.051513 1_665
Sb32 Zr1 2.973349 1_555
Sb32 Zr3 2.973359 1_655
Sb32 Zr6 2.973879 1_555
Sb32 Zr4 2.973880 1_655
Sb33 Zr2 2.973349 1_545
Sb33 Zr0 2.973359 1_555
Sb33 Zr5 2.973879 1_445
Sb33 Zr7 2.973880 1_455
Sb34 Zr0 2.973341 1_555
Sb34 Zr2 2.973352 1_555
Sb34 Zr7 2.973880 1_555
Sb34 Zr5 2.973880 1_555
Sb35 Zr3 2.973341 1_555
Sb35 Zr1 2.973352 1_555
Sb35 Zr4 2.973880 1_565
Sb35 Zr6 2.973880 1_565
