# generated using pymatgen
data_La3Re2O9
_symmetry_space_group_name_H-M   'P 1'
_cell_length_a   5.67660475
_cell_length_b   6.87732145
_cell_length_c   11.16478461
_cell_angle_alpha   77.56273031
_cell_angle_beta   75.61641397
_cell_angle_gamma   69.14171336
_symmetry_Int_Tables_number   1
_chemical_formula_structural   La3Re2O9
_chemical_formula_sum   'La6 Re4 O18'
_cell_volume   390.64101922
_cell_formula_units_Z   2
loop_
 _symmetry_equiv_pos_site_id
 _symmetry_equiv_pos_as_xyz
  1  'x, y, z'
loop_
 _atom_site_type_symbol
 _atom_site_label
 _atom_site_symmetry_multiplicity
 _atom_site_fract_x
 _atom_site_fract_y
 _atom_site_fract_z
 _atom_site_occupancy
  La  La0  1  0.71770239  0.90573507  0.61911973  1
  La  La1  1  0.28229761  0.09426493  0.38088027  1
  La  La2  1  0.00410955  0.72236760  0.26931753  1
  La  La3  1  0.99589045  0.27763240  0.73068247  1
  La  La4  1  0.22485928  0.66278830  0.88281017  1
  La  La5  1  0.77514072  0.33721170  0.11718983  1
  Re  Re0  1  0.48986847  0.11076569  0.90913798  1
  Re  Re1  1  0.51013153  0.88923431  0.09086202  1
  Re  Re2  1  0.35671020  0.62178156  0.57054047  1
  Re  Re3  1  0.64328980  0.37821844  0.42945953  1
  O  O0  1  0.37348060  0.32024041  0.57760330  1
  O  O1  1  0.62651940  0.67975959  0.42239670  1
  O  O2  1  0.85419854  0.68831697  0.06455748  1
  O  O3  1  0.14580146  0.31168303  0.93544252  1
  O  O4  1  0.30259105  0.91706443  0.59012217  1
  O  O5  1  0.69740895  0.08293557  0.40987783  1
  O  O6  1  0.64059246  0.02091322  0.18427837  1
  O  O7  1  0.35940754  0.97908678  0.81572163  1
  O  O8  1  0.06630131  0.61506074  0.71104218  1
  O  O9  1  0.93369869  0.38493926  0.28895782  1
  O  O10  1  0.41455735  0.43891676  0.31397675  1
  O  O11  1  0.58544265  0.56108324  0.68602325  1
  O  O12  1  0.82090776  0.99071181  0.81063832  1
  O  O13  1  0.17909224  0.00928819  0.18936168  1
  O  O14  1  0.11466369  0.75138993  0.46095303  1
  O  O15  1  0.88533631  0.24861007  0.53904697  1
  O  O16  1  0.61183013  0.32936358  0.92689824  1
  O  O17  1  0.38816987  0.67063642  0.07310176  1
loop_
_geom_bond_atom_site_label_1
_geom_bond_atom_site_label_2
_geom_bond_distance
_geom_bond_site_symmetry_2
La0 O5 2.400707 1_565
La0 O4 2.429203 1_555
La0 O8 2.504726 1_655
La0 O14 2.539684 1_655
La0 O12 2.580969 1_555
La0 O7 2.595688 1_555
La0 O11 2.639294 1_555
La0 O15 2.744527 1_565
La0 O0 2.841403 1_565
La1 O4 2.400707 1_545
La1 O5 2.429203 1_555
La1 O9 2.504726 1_455
La1 O15 2.539684 1_455
La1 O13 2.580969 1_555
La1 O6 2.595688 1_555
La1 O10 2.639294 1_555
La1 O14 2.744527 1_545
La1 O1 2.841403 1_545
La2 O13 2.423579 1_565
La2 O14 2.439609 1_555
La2 O9 2.447615 1_455
La2 O1 2.452078 1_455
La2 O10 2.530114 1_555
La2 O6 2.547908 1_465
La2 O17 2.662584 1_555
La2 O2 2.710042 1_455
La2 O5 2.981183 1_465
La3 O12 2.423579 1_545
La3 O15 2.439609 1_555
La3 O8 2.447615 1_655
La3 O0 2.452078 1_655
La3 O11 2.530114 1_555
La3 O7 2.547908 1_645
La3 O16 2.662584 1_555
La3 O3 2.710042 1_655
La3 O4 2.981183 1_645
La4 O8 2.436134 1_555
La4 O7 2.464416 1_555
La4 O2 2.518875 1_456
La4 O3 2.531163 1_555
La4 O17 2.537650 1_556
La4 O16 2.605735 1_555
La4 O11 2.629499 1_555
La4 O12 2.728763 1_455
La5 O9 2.436134 1_555
La5 O6 2.464416 1_555
La5 O3 2.518875 1_654
La5 O2 2.531163 1_555
La5 O16 2.537650 1_554
La5 O17 2.605735 1_555
La5 O10 2.629499 1_555
La5 O13 2.728763 1_655
O0 Re2 2.026971 1_555
O0 Re3 2.032907 1_555
O1 Re3 2.026971 1_555
O1 Re2 2.032907 1_555
O2 Re1 1.943770 1_555
O3 Re0 1.943770 1_555
O4 Re2 1.994929 1_555
O5 Re3 1.994929 1_555
O6 Re1 1.929905 1_545
O7 Re0 1.929905 1_565
O8 Re2 1.979589 1_555
O9 Re3 1.979589 1_555
O10 Re3 1.932999 1_555
O11 Re2 1.932999 1_555
O12 Re0 1.918831 1_565
O13 Re1 1.918831 1_545
O14 Re2 1.916432 1_555
O15 Re3 1.916432 1_555
O16 Re0 1.927835 1_555
O17 Re1 1.927835 1_555
