# generated using pymatgen
data_Ce3CI5
_symmetry_space_group_name_H-M   'P 1'
_cell_length_a   7.95883704
_cell_length_b   9.74738947
_cell_length_c   9.79848594
_cell_angle_alpha   107.19253049
_cell_angle_beta   96.72086972
_cell_angle_gamma   104.80460688
_symmetry_Int_Tables_number   1
_chemical_formula_structural   Ce3CI5
_chemical_formula_sum   'Ce6 C2 I10'
_cell_volume   686.64478216
_cell_formula_units_Z   2
loop_
 _symmetry_equiv_pos_site_id
 _symmetry_equiv_pos_as_xyz
  1  'x, y, z'
loop_
 _atom_site_type_symbol
 _atom_site_label
 _atom_site_symmetry_multiplicity
 _atom_site_fract_x
 _atom_site_fract_y
 _atom_site_fract_z
 _atom_site_occupancy
  Ce  Ce0  1  0.10810553  0.04006216  0.77491993  1
  Ce  Ce1  1  0.38198711  0.13383956  0.18004582  1
  Ce  Ce2  1  0.89195320  0.95997343  0.22508233  1
  Ce  Ce3  1  0.03108337  0.73437784  0.92178468  1
  Ce  Ce4  1  0.96890315  0.26563078  0.07820971  1
  Ce  Ce5  1  0.61798930  0.86618441  0.81999435  1
  C  C0  1  0.91126084  0.96976047  0.95862078  1
  C  C1  1  0.08876446  0.03023859  0.04135305  1
  I  I0  1  0.18996223  0.72792109  0.63469369  1
  I  I1  1  0.09021068  0.37537422  0.81808555  1
  I  I2  1  0.45314606  0.80313354  0.09539525  1
  I  I3  1  0.26034137  0.08664998  0.46575528  1
  I  I4  1  0.54667055  0.19684400  0.90448791  1
  I  I5  1  0.81011591  0.27208772  0.36538167  1
  I  I6  1  0.35035226  0.45869219  0.27608751  1
  I  I7  1  0.90987141  0.62464800  0.18186834  1
  I  I8  1  0.64961975  0.54139806  0.72393556  1
  I  I9  1  0.73966282  0.91318496  0.53429860  1
loop_
_geom_bond_atom_site_label_1
_geom_bond_atom_site_label_2
_geom_bond_distance
_geom_bond_site_symmetry_2
Ce0 I1 3.211929 1_555
Ce0 I0 3.212574 1_545
Ce0 I9 3.239109 1_445
Ce0 I4 3.349685 1_555
Ce0 I3 3.498907 1_555
Ce1 I6 3.110755 1_555
Ce1 I3 3.186580 1_555
Ce1 I4 3.283683 1_554
Ce1 I2 3.295772 1_545
Ce1 I5 3.388600 1_555
Ce2 I7 3.212040 1_555
Ce2 I5 3.212393 1_565
Ce2 I3 3.239180 1_665
Ce2 I2 3.351570 1_555
Ce2 I9 3.500146 1_555
Ce3 I8 3.172067 1_455
Ce3 I7 3.198224 1_456
Ce3 I0 3.206990 1_555
Ce3 I2 3.385960 1_556
Ce3 I1 3.514374 1_555
Ce4 I6 3.172206 1_655
Ce4 I1 3.198894 1_654
Ce4 I5 3.207352 1_555
Ce4 I4 3.387449 1_554
Ce4 I7 3.514174 1_555
Ce5 I8 3.110130 1_555
Ce5 I9 3.185933 1_555
Ce5 I2 3.282979 1_556
Ce5 I4 3.295944 1_565
Ce5 I0 3.387812 1_555
C0 C1 1.422774 1_666
C0 Ce5 2.356965 1_555
C0 Ce0 2.646610 1_665
C0 Ce3 2.648211 1_655
C0 Ce2 2.661443 1_556
C0 Ce4 2.664777 1_566
C1 Ce1 2.356867 1_555
C1 Ce2 2.646569 1_445
C1 Ce4 2.648466 1_455
C1 Ce0 2.661319 1_554
C1 Ce3 2.664624 1_544
