# generated using pymatgen
data_B4Rh5
_symmetry_space_group_name_H-M   'P 1'
_cell_length_a   3.32321096
_cell_length_b   3.32321200
_cell_length_c   20.29892815
_cell_angle_alpha   90.00000000
_cell_angle_beta   90.00000000
_cell_angle_gamma   120.00000994
_symmetry_Int_Tables_number   1
_chemical_formula_structural   B4Rh5
_chemical_formula_sum   'B8 Rh10'
_cell_volume   194.14206885
_cell_formula_units_Z   2
loop_
 _symmetry_equiv_pos_site_id
 _symmetry_equiv_pos_as_xyz
  1  'x, y, z'
loop_
 _atom_site_type_symbol
 _atom_site_label
 _atom_site_symmetry_multiplicity
 _atom_site_fract_x
 _atom_site_fract_y
 _atom_site_fract_z
 _atom_site_occupancy
  B  B0  1  0.66666700  0.33333300  0.08594646  1
  B  B1  1  0.33333300  0.66666700  0.58594646  1
  B  B2  1  0.66666700  0.33333300  0.30366413  1
  B  B3  1  0.33333300  0.66666700  0.69633587  1
  B  B4  1  0.66666700  0.33333300  0.19633587  1
  B  B5  1  0.33333300  0.66666700  0.80366413  1
  B  B6  1  0.33333300  0.66666700  0.91405354  1
  B  B7  1  0.66666700  0.33333300  0.41405354  1
  Rh  Rh0  1  0.00000000  -0.00000000  0.85243355  1
  Rh  Rh1  1  0.00000000  -0.00000000  0.64756645  1
  Rh  Rh2  1  -0.00000000  0.00000000  0.35243355  1
  Rh  Rh3  1  0.66666700  0.33333300  0.95261139  1
  Rh  Rh4  1  0.66666700  0.33333300  0.54738861  1
  Rh  Rh5  1  0.66666700  0.33333300  0.75000000  1
  Rh  Rh6  1  -0.00000000  0.00000000  0.14756645  1
  Rh  Rh7  1  0.33333300  0.66666700  0.45261139  1
  Rh  Rh8  1  0.33333300  0.66666700  0.04738861  1
  Rh  Rh9  1  0.33333300  0.66666700  0.25000000  1
loop_
_geom_bond_atom_site_label_1
_geom_bond_atom_site_label_2
_geom_bond_distance
_geom_bond_site_symmetry_2
B0 Rh8 2.072155 1_655
B0 Rh8 2.072156 1_545
B0 Rh8 2.072161 1_555
B0 B4 2.240787 1_555
B0 Rh6 2.290369 1_655
B0 Rh6 2.290370 1_555
B0 Rh6 2.290371 1_665
B0 Rh3 2.706559 1_554
B1 Rh4 2.072155 1_455
B1 Rh4 2.072156 1_565
B1 Rh4 2.072161 1_555
B1 B3 2.240787 1_555
B1 Rh1 2.290369 1_565
B1 Rh1 2.290370 1_665
B1 Rh1 2.290371 1_555
B1 Rh7 2.706559 1_555
B2 Rh2 2.158998 1_655
B2 Rh2 2.159000 1_555
B2 Rh2 2.159001 1_665
B2 B4 2.178649 1_555
B2 Rh9 2.206323 1_655
B2 Rh9 2.206324 1_545
B2 Rh9 2.206329 1_555
B2 B7 2.240787 1_555
B3 Rh1 2.158998 1_565
B3 Rh1 2.159000 1_665
B3 Rh1 2.159001 1_555
B3 B5 2.178649 1_555
B3 Rh5 2.206323 1_455
B3 Rh5 2.206324 1_565
B3 Rh5 2.206329 1_555
B4 Rh6 2.158998 1_655
B4 Rh6 2.159000 1_555
B4 Rh6 2.159001 1_665
B4 Rh9 2.206323 1_655
B4 Rh9 2.206324 1_545
B4 Rh9 2.206329 1_555
B5 Rh0 2.158998 1_565
B5 Rh0 2.159000 1_665
B5 Rh0 2.159001 1_555
B5 Rh5 2.206323 1_455
B5 Rh5 2.206324 1_565
B5 Rh5 2.206329 1_555
B5 B6 2.240787 1_555
B6 Rh3 2.072155 1_455
B6 Rh3 2.072156 1_565
B6 Rh3 2.072161 1_555
B6 Rh0 2.290369 1_565
B6 Rh0 2.290370 1_665
B6 Rh0 2.290371 1_555
B6 Rh8 2.706559 1_556
B7 Rh7 2.072155 1_655
B7 Rh7 2.072156 1_545
B7 Rh7 2.072161 1_555
B7 Rh2 2.290369 1_655
B7 Rh2 2.290370 1_555
B7 Rh2 2.290371 1_665
B7 Rh4 2.706559 1_555
