# generated using pymatgen
data_K3FeO3
_symmetry_space_group_name_H-M   'P 1'
_cell_length_a   6.57498772
_cell_length_b   6.57498772
_cell_length_c   6.46916544
_cell_angle_alpha   83.67976971
_cell_angle_beta   83.67976971
_cell_angle_gamma   114.03216177
_symmetry_Int_Tables_number   1
_chemical_formula_structural   K3FeO3
_chemical_formula_sum   'K6 Fe2 O6'
_cell_volume   250.14620530
_cell_formula_units_Z   2
loop_
 _symmetry_equiv_pos_site_id
 _symmetry_equiv_pos_as_xyz
  1  'x, y, z'
loop_
 _atom_site_type_symbol
 _atom_site_label
 _atom_site_symmetry_multiplicity
 _atom_site_fract_x
 _atom_site_fract_y
 _atom_site_fract_z
 _atom_site_occupancy
  K  K0  1  0.62625835  0.62625835  0.64718814  1
  K  K1  1  0.18713406  0.81286594  0.50000000  1
  K  K2  1  0.81286594  0.18713406  0.50000000  1
  K  K3  1  0.25711372  0.74288628  -0.00000000  1
  K  K4  1  0.37374165  0.37374165  0.35281186  1
  K  K5  1  0.74288628  0.25711372  -0.00000000  1
  Fe  Fe0  1  0.82696251  0.82696251  0.14507237  1
  Fe  Fe1  1  0.17303749  0.17303749  0.85492763  1
  O  O0  1  0.84218664  0.56678240  0.26670917  1
  O  O1  1  0.90411307  0.90411307  0.83606489  1
  O  O2  1  0.09588693  0.09588693  0.16393511  1
  O  O3  1  0.15781336  0.43321760  0.73329083  1
  O  O4  1  0.43321760  0.15781336  0.73329083  1
  O  O5  1  0.56678240  0.84218664  0.26670917  1
loop_
_geom_bond_atom_site_label_1
_geom_bond_atom_site_label_2
_geom_bond_distance
_geom_bond_site_symmetry_2
K0 O1 2.536251 1_555
K0 O4 2.773133 1_555
K0 O3 2.773133 1_555
K0 O5 2.849856 1_555
K0 O0 2.849856 1_555
K1 O5 2.694499 1_555
K1 O3 2.694499 1_555
K1 O0 2.888225 1_455
K1 O4 2.888225 1_565
K1 O1 2.975742 1_455
K1 O2 2.975742 1_565
K2 O0 2.694499 1_555
K2 O4 2.694499 1_555
K2 O5 2.888225 1_545
K2 O3 2.888225 1_655
K2 O2 2.975742 1_655
K2 O1 2.975742 1_545
K3 O5 2.736336 1_555
K3 O3 2.736336 1_554
K3 O4 2.776920 1_564
K3 O0 2.776920 1_455
K4 O2 2.536251 1_555
K4 O0 2.773133 1_555
K4 O5 2.773133 1_555
K4 O3 2.849856 1_555
K4 O4 2.849856 1_555
K5 O4 2.736336 1_554
K5 O0 2.736336 1_555
K5 O3 2.776920 1_654
K5 O5 2.776920 1_545
Fe0 O5 1.848265 1_555
Fe0 O0 1.848265 1_555
Fe0 O2 1.953535 1_665
Fe0 O1 1.963317 1_554
Fe1 O3 1.848265 1_555
Fe1 O4 1.848265 1_555
Fe1 O1 1.953535 1_445
Fe1 O2 1.963317 1_556
