# generated using pymatgen
data_Nd(SiOs)2
_symmetry_space_group_name_H-M   'P 1'
_cell_length_a   4.20859939
_cell_length_b   4.20859883
_cell_length_c   5.74722762
_cell_angle_alpha   111.47786529
_cell_angle_beta   111.47786488
_cell_angle_gamma   89.99999266
_symmetry_Int_Tables_number   1
_chemical_formula_structural   Nd(SiOs)2
_chemical_formula_sum   'Nd1 Si2 Os2'
_cell_volume   87.08705297
_cell_formula_units_Z   1
loop_
 _symmetry_equiv_pos_site_id
 _symmetry_equiv_pos_as_xyz
  1  'x, y, z'
loop_
 _atom_site_type_symbol
 _atom_site_label
 _atom_site_symmetry_multiplicity
 _atom_site_fract_x
 _atom_site_fract_y
 _atom_site_fract_z
 _atom_site_occupancy
  Nd  Nd0  1  -0.00000000  -0.00000000  -0.00000000  1
  Si  Si0  1  0.36558550  0.36558550  0.73117001  1
  Si  Si1  1  0.63441450  0.63441450  0.26882999  1
  Os  Os0  1  0.75000000  0.25000000  0.50000000  1
  Os  Os1  1  0.25000000  0.75000000  0.50000000  1
loop_
_geom_bond_atom_site_label_1
_geom_bond_atom_site_label_2
_geom_bond_distance
_geom_bond_site_symmetry_2
Nd0 Os0 3.235999 1_444
Nd0 Os1 3.235999 1_555
Nd0 Os1 3.236000 1_545
Nd0 Os0 3.236000 1_454
Nd0 Os1 3.236000 1_444
Nd0 Os0 3.236000 1_555
Nd0 Os0 3.236000 1_455
Nd0 Os1 3.236000 1_544
Nd0 Si0 3.256258 1_444
Nd0 Si1 3.256258 1_555
Nd0 Si0 3.256260 1_544
Nd0 Si1 3.256260 1_455
Nd0 Si0 3.256260 1_454
Nd0 Si1 3.256260 1_545
Nd0 Si1 3.256263 1_445
Nd0 Si0 3.256263 1_554
Os0 Si1 2.391640 1_555
Os0 Si0 2.391640 1_555
Os0 Si1 2.391643 1_545
Os0 Si0 2.391644 1_655
Os1 Si0 2.391640 1_555
Os1 Si1 2.391640 1_555
Os1 Si0 2.391643 1_565
Os1 Si1 2.391644 1_455
