# generated using pymatgen
data_Y3CuSiSe7
_symmetry_space_group_name_H-M   'P 1'
_cell_length_a   10.36455035
_cell_length_b   10.36455035
_cell_length_c   6.03296500
_cell_angle_alpha   90.00000000
_cell_angle_beta   90.00000000
_cell_angle_gamma   120.00000222
_symmetry_Int_Tables_number   1
_chemical_formula_structural   Y3CuSiSe7
_chemical_formula_sum   'Y6 Cu2 Si2 Se14'
_cell_volume   561.25776026
_cell_formula_units_Z   2
loop_
 _symmetry_equiv_pos_site_id
 _symmetry_equiv_pos_as_xyz
  1  'x, y, z'
loop_
 _atom_site_type_symbol
 _atom_site_label
 _atom_site_symmetry_multiplicity
 _atom_site_fract_x
 _atom_site_fract_y
 _atom_site_fract_z
 _atom_site_occupancy
  Y  Y0  1  0.22289900  0.35591000  0.92310900  1
  Y  Y1  1  0.64409000  0.86698900  0.92310900  1
  Y  Y2  1  0.86698900  0.22289900  0.42310900  1
  Y  Y3  1  0.77710100  0.64409000  0.42310900  1
  Y  Y4  1  0.13301100  0.77710100  0.92310900  1
  Y  Y5  1  0.35591000  0.13301100  0.42310900  1
  Cu  Cu0  1  0.00000000  0.00000000  0.97167600  1
  Cu  Cu1  1  0.00000000  0.00000000  0.47167600  1
  Si  Si0  1  0.66666700  0.33333300  0.83386800  1
  Si  Si1  1  0.33333300  0.66666700  0.33386800  1
  Se  Se0  1  0.83791900  0.73858100  0.95267800  1
  Se  Se1  1  0.42100800  0.89941900  0.17929700  1
  Se  Se2  1  0.26141900  0.09933800  0.95267800  1
  Se  Se3  1  0.16208100  0.26141900  0.45267800  1
  Se  Se4  1  0.47841100  0.57899200  0.17929700  1
  Se  Se5  1  0.73858100  0.90066200  0.45267800  1
  Se  Se6  1  0.57899200  0.10058100  0.67929700  1
  Se  Se7  1  0.33333300  0.66666700  0.71111200  1
  Se  Se8  1  0.89941900  0.47841100  0.67929700  1
  Se  Se9  1  0.66666700  0.33333300  0.21111200  1
  Se  Se10  1  0.90066200  0.16208100  0.95267800  1
  Se  Se11  1  0.09933800  0.83791900  0.45267800  1
  Se  Se12  1  0.10058100  0.52158900  0.17929700  1
  Se  Se13  1  0.52158900  0.42100800  0.67929700  1
loop_
_geom_bond_atom_site_label_1
_geom_bond_atom_site_label_2
_geom_bond_distance
_geom_bond_site_symmetry_2
Cu0 Se0 2.371679 1_445
Cu0 Se2 2.371679 1_555
Cu0 Se10 2.371680 1_455
Cu0 Y0 3.241687 1_555
Cu0 Y1 3.241687 1_445
Cu0 Y4 3.241688 1_545
Cu1 Se3 2.371679 1_555
Cu1 Se5 2.371679 1_445
Cu1 Se11 2.371680 1_545
Cu1 Y3 3.241687 1_445
Cu1 Y5 3.241687 1_555
Cu1 Y2 3.241688 1_455
Se0 Y4 2.885227 1_655
Se0 Y1 2.917648 1_555
Se0 Y3 2.965454 1_556
Se0 Y3 3.308526 1_555
Se1 Si1 2.307105 1_555
Se1 Y1 2.936827 1_554
Se1 Y4 3.020228 1_554
Se1 Y5 3.180243 1_565
Se2 Y0 2.885227 1_555
Se2 Y4 2.917648 1_545
Se2 Y5 2.965454 1_556
Se2 Y5 3.308526 1_555
Se3 Y2 2.885227 1_455
Se3 Y5 2.917648 1_555
Se3 Y0 2.965454 1_555
Se3 Y0 3.308526 1_554
Se4 Si1 2.307114 1_555
Se4 Y0 2.936827 1_554
Se4 Y1 3.020228 1_554
Se4 Y3 3.180243 1_555
Se5 Y3 2.885227 1_555
Se5 Y2 2.917648 1_565
Se5 Y1 2.965454 1_555
Se5 Y1 3.308526 1_554
Se6 Si0 2.307105 1_555
Se6 Y5 2.936827 1_555
Se6 Y2 3.020228 1_555
Se6 Y1 3.180243 1_545
Se7 Si1 2.275900 1_555
Se7 Y4 3.103731 1_555
Se7 Y1 3.103738 1_555
Se7 Y0 3.103740 1_555
Se8 Si0 2.307106 1_555
Se8 Y2 2.936827 1_555
Se8 Y3 3.020228 1_555
Se8 Y4 3.180243 1_655
Se9 Si0 2.275900 1_554
Se9 Y2 3.103731 1_555
Se9 Y5 3.103738 1_555
Se9 Y3 3.103740 1_555
Se10 Y1 2.885227 1_545
Se10 Y0 2.917648 1_655
Se10 Y2 2.965454 1_556
Se10 Y2 3.308526 1_555
Se11 Y5 2.885227 1_565
Se11 Y3 2.917648 1_455
Se11 Y4 2.965454 1_555
Se11 Y4 3.308526 1_554
Se12 Si1 2.307106 1_555
Se12 Y4 2.936827 1_554
Se12 Y0 3.020228 1_554
Se12 Y2 3.180243 1_455
Se13 Si0 2.307114 1_555
Se13 Y3 2.936827 1_555
Se13 Y5 3.020228 1_555
Se13 Y0 3.180243 1_555
