# generated using pymatgen
data_SrH2(CO2)2
_symmetry_space_group_name_H-M   'P 1'
_cell_length_a   7.00133400
_cell_length_b   7.38516700
_cell_length_c   8.84725000
_cell_angle_alpha   90.00000000
_cell_angle_beta   90.00000000
_cell_angle_gamma   90.00000000
_symmetry_Int_Tables_number   1
_chemical_formula_structural   SrH2(CO2)2
_chemical_formula_sum   'Sr4 H8 C8 O16'
_cell_volume   457.45609264
_cell_formula_units_Z   4
loop_
 _symmetry_equiv_pos_site_id
 _symmetry_equiv_pos_as_xyz
  1  'x, y, z'
loop_
 _atom_site_type_symbol
 _atom_site_label
 _atom_site_symmetry_multiplicity
 _atom_site_fract_x
 _atom_site_fract_y
 _atom_site_fract_z
 _atom_site_occupancy
  Sr  Sr0  1  0.00409300  0.24122500  0.66462800  1
  Sr  Sr1  1  0.99590700  0.74122500  0.83537200  1
  Sr  Sr2  1  0.50409300  0.25877500  0.33537200  1
  Sr  Sr3  1  0.49590700  0.75877500  0.16462800  1
  H  H0  1  0.47195900  0.00417100  0.77857100  1
  H  H1  1  0.70994900  0.20646500  0.98915500  1
  H  H2  1  0.52804100  0.50417100  0.72142900  1
  H  H3  1  0.02804100  0.99582900  0.27857100  1
  H  H4  1  0.97195900  0.49582900  0.22142900  1
  H  H5  1  0.79005100  0.79353500  0.48915500  1
  H  H6  1  0.29005100  0.70646500  0.51084500  1
  H  H7  1  0.20994900  0.29353500  0.01084500  1
  C  C0  1  0.38613800  0.44309000  0.69935700  1
  C  C1  1  0.88613800  0.05691000  0.30064300  1
  C  C2  1  0.23043100  0.14457200  0.00817600  1
  C  C3  1  0.26956900  0.85542800  0.50817600  1
  C  C4  1  0.76956900  0.64457200  0.49182400  1
  C  C5  1  0.11386200  0.55691000  0.19935700  1
  C  C6  1  0.61386200  0.94309000  0.80064300  1
  C  C7  1  0.73043100  0.35542800  0.99182400  1
  O  O0  1  0.15488700  0.92187800  0.60421600  1
  O  O1  1  0.74380100  0.99749700  0.22661000  1
  O  O2  1  0.84511300  0.42187800  0.89578400  1
  O  O3  1  0.25619900  0.49749700  0.27339000  1
  O  O4  1  0.12559200  0.68459900  0.10321300  1
  O  O5  1  0.36195100  0.94149000  0.40752000  1
  O  O6  1  0.37440800  0.31540100  0.60321300  1
  O  O7  1  0.62559200  0.81540100  0.89678700  1
  O  O8  1  0.86195100  0.55851000  0.59248000  1
  O  O9  1  0.87440800  0.18459900  0.39678700  1
  O  O10  1  0.75619900  0.00250300  0.72661000  1
  O  O11  1  0.13804900  0.05851000  0.90752000  1
  O  O12  1  0.34511300  0.07812200  0.10421600  1
  O  O13  1  0.65488700  0.57812200  0.39578400  1
  O  O14  1  0.63804900  0.44149000  0.09248000  1
  O  O15  1  0.24380100  0.50250300  0.77339000  1
loop_
_geom_bond_atom_site_label_1
_geom_bond_atom_site_label_2
_geom_bond_distance
_geom_bond_site_symmetry_2
C0 H2 1.108459 1_555
C0 O15 1.270686 1_555
C0 O6 1.272611 1_555
C1 H3 1.108459 1_645
C1 O1 1.270686 1_545
C1 O9 1.272611 1_555
C2 H7 1.109675 1_555
C2 O12 1.267870 1_555
C2 O11 1.270965 1_554
C3 H6 1.109675 1_555
C3 O0 1.267870 1_555
C3 O5 1.270965 1_555
C4 H5 1.109675 1_555
C4 O13 1.267870 1_555
C4 O8 1.270965 1_555
C5 H4 1.108459 1_455
C5 O3 1.270686 1_555
C5 O4 1.272611 1_555
C6 H0 1.108459 1_565
C6 O10 1.270686 1_565
C6 O7 1.272611 1_555
C7 H1 1.109675 1_555
C7 O2 1.267870 1_555
C7 O14 1.270965 1_556
O0 Sr0 2.638654 1_565
O0 Sr1 2.683525 1_455
O1 Sr3 2.534000 1_555
O1 Sr2 2.732363 1_565
O2 Sr1 2.638654 1_555
O2 Sr0 2.683525 1_655
O3 Sr2 2.534000 1_555
O3 Sr3 2.732363 1_555
O4 Sr1 2.571879 1_454
O4 Sr3 2.705071 1_555
O5 Sr2 2.624582 1_565
O5 Sr3 2.705238 1_555
O6 Sr2 2.571879 1_555
O6 Sr0 2.705071 1_555
O7 Sr3 2.571879 1_556
O7 Sr1 2.705071 1_555
O8 Sr0 2.624582 1_655
O8 Sr1 2.705238 1_555
O9 Sr0 2.571879 1_655
O9 Sr2 2.705071 1_555
O10 Sr0 2.534000 1_655
O10 Sr1 2.732363 1_545
O11 Sr1 2.624582 1_445
O11 Sr0 2.705238 1_555
O12 Sr3 2.638654 1_545
O12 Sr2 2.683525 1_555
O13 Sr2 2.638654 1_555
O13 Sr3 2.683525 1_555
O14 Sr3 2.624582 1_555
O14 Sr2 2.705238 1_555
O15 Sr1 2.534000 1_455
O15 Sr0 2.732363 1_555
