# generated using pymatgen
data_Pr12Fe2I17
_symmetry_space_group_name_H-M   'P 1'
_cell_length_a   9.97827120
_cell_length_b   12.02083415
_cell_length_c   12.08127565
_cell_angle_alpha   93.52152306
_cell_angle_beta   104.56974030
_cell_angle_gamma   114.49668320
_symmetry_Int_Tables_number   1
_chemical_formula_structural   Pr12Fe2I17
_chemical_formula_sum   'Pr12 Fe2 I17'
_cell_volume   1253.46737452
_cell_formula_units_Z   1
loop_
 _symmetry_equiv_pos_site_id
 _symmetry_equiv_pos_as_xyz
  1  'x, y, z'
loop_
 _atom_site_type_symbol
 _atom_site_label
 _atom_site_symmetry_multiplicity
 _atom_site_fract_x
 _atom_site_fract_y
 _atom_site_fract_z
 _atom_site_occupancy
  Pr  Pr0  1  0.05919064  0.51213954  0.32317533  1
  Pr  Pr1  1  0.98861450  0.81094522  0.58197520  1
  Pr  Pr2  1  0.64956873  0.24046939  0.28277580  1
  Pr  Pr3  1  0.01138550  0.18905478  0.41802480  1
  Pr  Pr4  1  0.22356660  0.66979909  0.98945127  1
  Pr  Pr5  1  0.26044046  0.98697253  0.89260734  1
  Pr  Pr6  1  0.35043127  0.75953061  0.71722420  1
  Pr  Pr7  1  0.94080936  0.48786046  0.67682467  1
  Pr  Pr8  1  0.73955954  0.01302747  0.10739266  1
  Pr  Pr9  1  0.14715109  0.28746100  0.15246319  1
  Pr  Pr10  1  0.77643340  0.33020091  0.01054873  1
  Pr  Pr11  1  0.85284891  0.71253900  0.84753681  1
  Fe  Fe0  1  0.10388533  0.73779860  0.78576022  1
  Fe  Fe1  1  0.89611467  0.26220140  0.21423978  1
  I  I0  1  0.78179692  0.52864341  0.41726965  1
  I  I1  1  0.63573442  0.41648853  0.75670656  1
  I  I2  1  0.84325223  0.89311816  0.32363065  1
  I  I3  1  0.32784864  0.21157207  0.37017935  1
  I  I4  1  0.15674777  0.10688184  0.67636935  1
  I  I5  1  0.59084934  0.05373874  0.84195006  1
  I  I6  1  0.75177022  0.17906361  0.53773773  1
  I  I7  1  0.54861608  0.70460575  0.95260301  1
  I  I8  1  0.36426558  0.58351147  0.24329344  1
  I  I9  1  0.21820308  0.47135659  0.58273035  1
  I  I10  1  0.05712367  0.36559939  0.89558011  1
  I  I11  1  0.45138392  0.29539425  0.04739699  1
  I  I12  1  -0.00000000  -0.00000000  -0.00000000  1
  I  I13  1  0.24822978  0.82093639  0.46226227  1
  I  I14  1  0.40915066  0.94626126  0.15804994  1
  I  I15  1  0.67215136  0.78842793  0.62982065  1
  I  I16  1  0.94287633  0.63440061  0.10441989  1
loop_
_geom_bond_atom_site_label_1
_geom_bond_atom_site_label_2
_geom_bond_distance
_geom_bond_site_symmetry_2
Fe0 Pr11 2.694711 1_455
Fe0 Pr6 2.706361 1_555
Fe0 Pr5 2.776421 1_555
Fe0 Pr4 2.779955 1_555
Fe0 Pr7 2.790919 1_455
Fe0 Pr1 2.799533 1_455
Fe1 Pr9 2.694711 1_655
Fe1 Pr2 2.706361 1_555
Fe1 Pr8 2.776421 1_555
Fe1 Pr10 2.779955 1_555
Fe1 Pr0 2.790919 1_655
Fe1 Pr3 2.799533 1_655
I0 Pr2 3.289467 1_555
I0 Pr7 3.304773 1_555
I0 Pr0 3.317180 1_655
I0 Pr1 3.321306 1_555
I1 Pr7 3.216839 1_555
I1 Pr11 3.239293 1_555
I1 Pr10 3.447321 1_556
I2 Pr8 3.211300 1_565
I2 Pr3 3.218695 1_665
I2 Pr1 3.479982 1_555
I3 Pr9 3.205362 1_555
I3 Pr3 3.256923 1_555
I3 Pr2 3.516662 1_555
I4 Pr5 3.211300 1_545
I4 Pr1 3.218695 1_445
I4 Pr3 3.479982 1_555
I5 Pr5 3.281688 1_545
I5 Pr10 3.284764 1_556
I5 Pr6 3.320263 1_545
I5 Pr8 3.335619 1_556
I6 Pr2 3.224288 1_555
I6 Pr3 3.235001 1_655
I6 Pr7 3.463104 1_555
I7 Pr4 3.242997 1_555
I7 Pr6 3.304122 1_555
I7 Pr8 3.517167 1_566
I7 Pr11 3.542507 1_555
I8 Pr0 3.216839 1_555
I8 Pr9 3.239293 1_555
I8 Pr4 3.447321 1_554
I9 Pr6 3.289467 1_555
I9 Pr0 3.304773 1_555
I9 Pr7 3.317180 1_455
I9 Pr3 3.321306 1_555
I10 Pr7 3.292428 1_455
I10 Pr4 3.304955 1_555
I10 Pr9 3.313003 1_556
I10 Pr10 3.316068 1_456
I11 Pr10 3.242997 1_555
I11 Pr2 3.304122 1_555
I11 Pr5 3.517167 1_544
I11 Pr9 3.542507 1_555
I12 Pr8 3.235777 1_455
I12 Pr5 3.235777 1_544
I12 Pr11 3.337534 1_444
I12 Pr9 3.337534 1_555
I13 Pr6 3.224288 1_555
I13 Pr1 3.235001 1_455
I13 Pr0 3.463104 1_555
I14 Pr8 3.281688 1_565
I14 Pr4 3.284764 1_554
I14 Pr2 3.320263 1_565
I14 Pr5 3.335619 1_554
I15 Pr11 3.205362 1_555
I15 Pr1 3.256923 1_555
I15 Pr6 3.516662 1_555
I16 Pr0 3.292428 1_655
I16 Pr10 3.304955 1_555
I16 Pr11 3.313003 1_554
I16 Pr4 3.316068 1_654
