# generated using pymatgen
data_Ce20Mg19Zn81
_symmetry_space_group_name_H-M   'P 1'
_cell_length_a   14.75044141
_cell_length_b   14.75044086
_cell_length_c   14.75044148
_cell_angle_alpha   60.00000072
_cell_angle_beta   60.00000197
_cell_angle_gamma   60.00000129
_symmetry_Int_Tables_number   1
_chemical_formula_structural   Ce20Mg19Zn81
_chemical_formula_sum   'Ce20 Mg19 Zn81'
_cell_volume   2269.34252714
_cell_formula_units_Z   1
loop_
 _symmetry_equiv_pos_site_id
 _symmetry_equiv_pos_as_xyz
  1  'x, y, z'
loop_
 _atom_site_type_symbol
 _atom_site_label
 _atom_site_symmetry_multiplicity
 _atom_site_fract_x
 _atom_site_fract_y
 _atom_site_fract_z
 _atom_site_occupancy
  Ce  Ce0  1  0.15348498  0.15348498  0.15348498  1
  Ce  Ce1  1  0.39803203  0.39803203  0.80590390  1
  Ce  Ce2  1  0.96655422  0.96655422  0.53344578  1
  Ce  Ce3  1  0.17195959  0.17195959  0.82804041  1
  Ce  Ce4  1  0.39803203  0.39803203  0.39803203  1
  Ce  Ce5  1  0.96655422  0.53344578  0.53344578  1
  Ce  Ce6  1  0.80590390  0.39803203  0.39803203  1
  Ce  Ce7  1  0.96655422  0.53344578  0.96655422  1
  Ce  Ce8  1  0.15348498  0.15348498  0.53954505  1
  Ce  Ce9  1  0.15348498  0.53954505  0.15348498  1
  Ce  Ce10  1  0.53954505  0.15348498  0.15348498  1
  Ce  Ce11  1  0.82804041  0.17195959  0.82804041  1
  Ce  Ce12  1  0.39803203  0.80590390  0.39803203  1
  Ce  Ce13  1  0.17195959  0.82804041  0.17195959  1
  Ce  Ce14  1  0.53344578  0.96655422  0.53344578  1
  Ce  Ce15  1  0.82804041  0.17195959  0.17195959  1
  Ce  Ce16  1  0.53344578  0.96655422  0.96655422  1
  Ce  Ce17  1  0.17195959  0.82804041  0.82804041  1
  Ce  Ce18  1  0.53344578  0.53344578  0.96655422  1
  Ce  Ce19  1  0.82804041  0.82804041  0.17195959  1
  Mg  Mg0  1  0.77366944  0.44048772  0.77366944  1
  Mg  Mg1  1  0.44048772  0.77366944  0.77366944  1
  Mg  Mg2  1  0.01217339  0.44048772  0.77366944  1
  Mg  Mg3  1  0.77366944  0.01217339  0.77366944  1
  Mg  Mg4  1  0.77366944  0.77366944  0.44048772  1
  Mg  Mg5  1  0.77366944  0.01217339  0.44048772  1
  Mg  Mg6  1  0.01217339  0.77366944  0.44048772  1
  Mg  Mg7  1  0.44048772  0.01217339  0.77366944  1
  Mg  Mg8  1  0.66784931  0.33215069  0.33215069  1
  Mg  Mg9  1  0.33215069  0.33215069  0.66784931  1
  Mg  Mg10  1  0.33215069  0.66784931  0.66784931  1
  Mg  Mg11  1  0.44048772  0.77366944  0.01217339  1
  Mg  Mg12  1  0.66784931  0.33215069  0.66784931  1
  Mg  Mg13  1  0.77366944  0.77366944  0.01217339  1
  Mg  Mg14  1  0.66784931  0.66784931  0.33215069  1
  Mg  Mg15  1  0.77366944  0.44048772  0.01217339  1
  Mg  Mg16  1  0.25000000  0.25000000  0.25000000  1
  Mg  Mg17  1  0.33215069  0.66784931  0.33215069  1
  Mg  Mg18  1  0.01217339  0.77366944  0.77366944  1
  Zn  Zn0  1  0.20192774  0.38367683  0.38367683  1
  Zn  Zn1  1  0.58712531  0.88668107  0.34914095  1
  Zn  Zn2  1  0.88668107  0.34914095  0.17705267  1
  Zn  Zn3  1  0.23929049  0.92023650  0.92023650  1
  Zn  Zn4  1  0.38367683  0.38367683  0.20192774  1
  Zn  Zn5  1  0.67254411  0.67254411  0.67254411  1
  Zn  Zn6  1  0.17705267  0.34914095  0.88668107  1
  Zn  Zn7  1  0.88668107  0.17705267  0.58712531  1
  Zn  Zn8  1  0.36098360  0.54633880  0.54633880  1
  Zn  Zn9  1  0.58712531  0.88668107  0.17705267  1
  Zn  Zn10  1  0.79712503  0.79712503  0.79712503  1
  Zn  Zn11  1  0.67254411  0.67254411  0.98236768  1
  Zn  Zn12  1  0.54768500  0.73224369  0.17238632  1
  Zn  Zn13  1  0.54768500  0.54768500  0.17238632  1
  Zn  Zn14  1  0.17238632  0.54768500  0.73224369  1
  Zn  Zn15  1  0.38367683  0.20192774  0.03071861  1
  Zn  Zn16  1  0.07143769  0.78568694  0.07143769  1
  Zn  Zn17  1  0.54633880  0.54633880  0.54633880  1
  Zn  Zn18  1  0.78568694  0.07143769  0.07143769  1
  Zn  Zn19  1  0.38367683  0.20192774  0.38367683  1
  Zn  Zn20  1  0.17705267  0.34914095  0.58712531  1
  Zn  Zn21  1  0.34914095  0.58712531  0.17705267  1
  Zn  Zn22  1  0.07143769  0.07143769  0.78568694  1
  Zn  Zn23  1  0.34914095  0.88668107  0.58712531  1
  Zn  Zn24  1  0.00069185  0.70466605  0.00069185  1
  Zn  Zn25  1  0.60862492  0.79712503  0.79712503  1
  Zn  Zn26  1  0.17705267  0.58712531  0.34914095  1
  Zn  Zn27  1  0.17238632  0.73224369  0.54768500  1
  Zn  Zn28  1  0.17705267  0.88668107  0.58712531  1
  Zn  Zn29  1  0.54768500  0.54768500  0.73224369  1
  Zn  Zn30  1  0.73224369  0.54768500  0.54768500  1
  Zn  Zn31  1  0.70466605  0.29395024  0.00069185  1
  Zn  Zn32  1  0.38367683  0.38367683  0.03071861  1
  Zn  Zn33  1  0.29395024  0.70466605  0.00069185  1
  Zn  Zn34  1  0.73224369  0.54768500  0.17238632  1
  Zn  Zn35  1  0.88668107  0.17705267  0.34914095  1
  Zn  Zn36  1  0.00000000  0.00000000  0.00000000  1
  Zn  Zn37  1  0.34914095  0.58712531  0.88668107  1
  Zn  Zn38  1  0.98236768  0.67254411  0.67254411  1
  Zn  Zn39  1  0.17705267  0.58712531  0.88668107  1
  Zn  Zn40  1  0.54768500  0.17238632  0.54768500  1
  Zn  Zn41  1  0.17238632  0.54768500  0.54768500  1
  Zn  Zn42  1  0.17705267  0.88668107  0.34914095  1
  Zn  Zn43  1  0.29395024  0.00069185  0.70466605  1
  Zn  Zn44  1  0.70466605  0.00069185  0.29395024  1
  Zn  Zn45  1  0.00069185  0.00069185  0.70466605  1
  Zn  Zn46  1  0.07143769  0.07143769  0.07143769  1
  Zn  Zn47  1  0.03071861  0.20192774  0.38367683  1
  Zn  Zn48  1  0.88668107  0.34914095  0.58712531  1
  Zn  Zn49  1  0.54768500  0.17238632  0.73224369  1
  Zn  Zn50  1  0.38367683  0.03071861  0.38367683  1
  Zn  Zn51  1  0.34914095  0.17705267  0.58712531  1
  Zn  Zn52  1  0.29395024  0.00069185  0.00069185  1
  Zn  Zn53  1  0.58712531  0.34914095  0.88668107  1
  Zn  Zn54  1  0.00069185  0.00069185  0.29395024  1
  Zn  Zn55  1  0.34914095  0.88668107  0.17705267  1
  Zn  Zn56  1  0.03071861  0.38367683  0.20192774  1
  Zn  Zn57  1  0.00069185  0.70466605  0.29395024  1
  Zn  Zn58  1  0.58712531  0.17705267  0.34914095  1
  Zn  Zn59  1  0.54633880  0.36098360  0.54633880  1
  Zn  Zn60  1  0.38367683  0.03071861  0.20192774  1
  Zn  Zn61  1  0.58712531  0.34914095  0.17705267  1
  Zn  Zn62  1  0.79712503  0.79712503  0.60862492  1
  Zn  Zn63  1  0.92023650  0.23929049  0.92023650  1
  Zn  Zn64  1  0.88668107  0.58712531  0.34914095  1
  Zn  Zn65  1  0.54768500  0.73224369  0.54768500  1
  Zn  Zn66  1  0.54633880  0.54633880  0.36098360  1
  Zn  Zn67  1  0.00069185  0.29395024  0.70466605  1
  Zn  Zn68  1  0.92023650  0.92023650  0.23929049  1
  Zn  Zn69  1  0.79712503  0.60862492  0.79712503  1
  Zn  Zn70  1  0.88668107  0.58712531  0.17705267  1
  Zn  Zn71  1  0.00069185  0.29395024  0.00069185  1
  Zn  Zn72  1  0.58712531  0.17705267  0.88668107  1
  Zn  Zn73  1  0.20192774  0.03071861  0.38367683  1
  Zn  Zn74  1  0.70466605  0.00069185  0.00069185  1
  Zn  Zn75  1  0.67254411  0.98236768  0.67254411  1
  Zn  Zn76  1  0.73224369  0.17238632  0.54768500  1
  Zn  Zn77  1  0.03071861  0.38367683  0.38367683  1
  Zn  Zn78  1  0.92023650  0.92023650  0.92023650  1
  Zn  Zn79  1  0.34914095  0.17705267  0.88668107  1
  Zn  Zn80  1  0.20192774  0.38367683  0.03071861  1
loop_
_geom_bond_atom_site_label_1
_geom_bond_atom_site_label_2
_geom_bond_distance
_geom_bond_site_symmetry_2
Ce0 Zn46 2.964455 1_555
Ce0 Zn54 3.192490 1_555
Ce0 Zn52 3.192490 1_555
Ce0 Zn71 3.192490 1_555
Ce0 Zn80 3.209729 1_555
Ce0 Zn56 3.209729 1_555
Ce0 Zn73 3.209729 1_555
Ce0 Zn60 3.209729 1_555
Ce0 Zn15 3.209729 1_555
Ce0 Zn47 3.209729 1_555
Ce0 Mg16 3.487189 1_555
Ce0 Zn42 3.495028 1_545
Ce0 Zn55 3.495028 1_545
Ce0 Zn6 3.495028 1_554
Ce0 Zn2 3.495028 1_455
Ce0 Zn35 3.495028 1_455
Ce0 Zn79 3.495028 1_554
Ce1 Zn15 3.118780 1_556
Ce1 Zn80 3.118780 1_556
Ce1 Zn32 3.118780 1_556
Ce1 Zn79 3.189362 1_555
Ce1 Zn6 3.189362 1_555
Ce1 Zn37 3.189362 1_555
Ce1 Zn72 3.189362 1_555
Ce1 Zn39 3.189362 1_555
Ce1 Zn53 3.189362 1_555
Ce1 Mg9 3.307211 1_555
Ce1 Mg10 3.307211 1_555
Ce1 Mg12 3.307211 1_555
Ce1 Zn49 3.316945 1_555
Ce1 Zn14 3.316945 1_555
Ce1 Zn29 3.316945 1_555
Ce1 Zn8 3.502048 1_555
Ce1 Zn59 3.502048 1_555
Ce1 Zn17 3.502048 1_555
Ce2 Zn7 3.085965 1_565
Ce2 Zn35 3.085965 1_565
Ce2 Zn28 3.085965 1_655
Ce2 Zn42 3.085965 1_655
Ce2 Zn45 3.111701 1_665
Ce2 Zn54 3.111701 1_665
Ce2 Zn27 3.259711 1_655
Ce2 Zn76 3.259711 1_565
Ce2 Zn47 3.369745 1_665
Ce2 Zn73 3.369745 1_665
Ce2 Mg18 3.389943 1_655
Ce2 Mg6 3.389943 1_655
Ce2 Mg3 3.389943 1_565
Ce2 Mg5 3.389943 1_565
Ce2 Zn38 3.693339 1_555
Ce2 Zn75 3.693339 1_555
Ce2 Zn62 3.797933 1_555
Ce2 Zn10 3.797933 1_555
Ce3 Zn22 2.972961 1_555
Ce3 Zn46 2.972962 1_556
Ce3 Zn3 3.039060 1_545
Ce3 Zn63 3.039060 1_455
Ce3 Zn52 3.115873 1_556
Ce3 Zn71 3.115873 1_556
Ce3 Zn43 3.115873 1_555
Ce3 Zn67 3.115873 1_555
Ce3 Zn6 3.179019 1_555
Ce3 Zn79 3.179019 1_555
Ce3 Zn20 3.179019 1_555
Ce3 Zn51 3.179019 1_555
Ce3 Mg9 3.341630 1_555
Ce3 Mg2 3.356356 1_555
Ce3 Mg7 3.356356 1_555
Ce4 Zn19 3.118780 1_555
Ce4 Zn0 3.118780 1_555
Ce4 Zn4 3.118780 1_555
Ce4 Zn51 3.189362 1_555
Ce4 Zn58 3.189362 1_555
Ce4 Zn21 3.189362 1_555
Ce4 Zn26 3.189362 1_555
Ce4 Zn20 3.189362 1_555
Ce4 Zn61 3.189362 1_555
Ce4 Mg17 3.307211 1_555
Ce4 Mg8 3.307211 1_555
Ce4 Mg9 3.307211 1_555
Ce4 Zn40 3.316945 1_555
Ce4 Zn13 3.316945 1_555
Ce4 Zn41 3.316945 1_555
Ce4 Zn66 3.502048 1_555
Ce4 Zn8 3.502048 1_555
Ce4 Zn59 3.502048 1_555
Ce5 Zn48 3.085965 1_555
Ce5 Zn64 3.085965 1_555
Ce5 Zn20 3.085965 1_655
Ce5 Zn26 3.085965 1_655
Ce5 Zn67 3.111701 1_655
Ce5 Zn57 3.111701 1_655
Ce5 Zn30 3.259710 1_555
Ce5 Zn41 3.259711 1_655
Ce5 Zn77 3.369745 1_655
Ce5 Zn0 3.369745 1_655
Ce5 Mg6 3.389943 1_655
Ce5 Mg2 3.389943 1_655
Ce5 Mg4 3.389943 1_555
Ce5 Mg0 3.389943 1_555
Ce5 Zn38 3.693339 1_555
Ce5 Zn5 3.693340 1_555
Ce5 Zn62 3.797933 1_555
Ce5 Zn69 3.797933 1_555
Ce6 Zn47 3.118780 1_655
Ce6 Zn56 3.118780 1_655
Ce6 Zn77 3.118780 1_655
Ce6 Zn35 3.189362 1_555
Ce6 Zn2 3.189362 1_555
Ce6 Zn64 3.189362 1_555
Ce6 Zn7 3.189362 1_555
Ce6 Zn70 3.189362 1_555
Ce6 Zn48 3.189362 1_555
Ce6 Mg8 3.307211 1_555
Ce6 Mg14 3.307211 1_555
Ce6 Mg12 3.307211 1_555
Ce6 Zn76 3.316945 1_555
Ce6 Zn34 3.316945 1_555
Ce6 Zn30 3.316945 1_555
Ce6 Zn66 3.502048 1_555
Ce6 Zn59 3.502048 1_555
Ce6 Zn17 3.502048 1_555
Ce7 Zn2 3.085965 1_556
Ce7 Zn39 3.085965 1_655
Ce7 Zn6 3.085965 1_655
Ce7 Zn70 3.085965 1_556
Ce7 Zn24 3.111701 1_656
Ce7 Zn71 3.111701 1_656
Ce7 Zn14 3.259711 1_655
Ce7 Zn34 3.259711 1_556
Ce7 Zn56 3.369745 1_656
Ce7 Zn80 3.369745 1_656
Ce7 Mg18 3.389943 1_655
Ce7 Mg13 3.389943 1_556
Ce7 Mg15 3.389943 1_556
Ce7 Mg2 3.389943 1_655
Ce7 Zn38 3.693339 1_555
Ce7 Zn11 3.693339 1_555
Ce7 Zn69 3.797933 1_555
Ce7 Zn10 3.797933 1_555
Ce8 Zn22 2.964455 1_555
Ce8 Zn45 3.192490 1_555
Ce8 Zn43 3.192490 1_555
Ce8 Zn67 3.192490 1_555
Ce8 Zn73 3.209729 1_555
Ce8 Zn47 3.209729 1_555
Ce8 Zn77 3.209729 1_555
Ce8 Zn0 3.209729 1_555
Ce8 Zn50 3.209729 1_555
Ce8 Zn19 3.209729 1_555
Ce8 Mg16 3.487189 1_555
Ce8 Zn28 3.495028 1_545
Ce8 Zn23 3.495028 1_545
Ce8 Zn20 3.495028 1_555
Ce8 Zn7 3.495028 1_455
Ce8 Zn48 3.495028 1_455
Ce8 Zn51 3.495028 1_555
Ce9 Zn16 2.964455 1_555
Ce9 Zn33 3.192490 1_555
Ce9 Zn57 3.192490 1_555
Ce9 Zn24 3.192490 1_555
Ce9 Zn56 3.209729 1_555
Ce9 Zn80 3.209729 1_555
Ce9 Zn77 3.209729 1_555
Ce9 Zn32 3.209729 1_555
Ce9 Zn0 3.209729 1_555
Ce9 Zn4 3.209729 1_555
Ce9 Mg16 3.487189 1_555
Ce9 Zn70 3.495028 1_455
Ce9 Zn39 3.495028 1_554
Ce9 Zn21 3.495028 1_555
Ce9 Zn26 3.495028 1_555
Ce9 Zn37 3.495028 1_554
Ce9 Zn64 3.495028 1_455
Ce10 Zn18 2.964455 1_555
Ce10 Zn31 3.192490 1_555
Ce10 Zn44 3.192490 1_555
Ce10 Zn74 3.192490 1_555
Ce10 Zn60 3.209729 1_555
Ce10 Zn15 3.209729 1_555
Ce10 Zn32 3.209729 1_555
Ce10 Zn50 3.209729 1_555
Ce10 Zn4 3.209729 1_555
Ce10 Zn19 3.209729 1_555
Ce10 Mg16 3.487189 1_555
Ce10 Zn9 3.495028 1_545
Ce10 Zn1 3.495028 1_545
Ce10 Zn61 3.495028 1_555
Ce10 Zn72 3.495028 1_554
Ce10 Zn53 3.495028 1_554
Ce10 Zn58 3.495028 1_555
Ce11 Zn18 2.972962 1_556
Ce11 Zn22 2.972962 1_655
Ce11 Zn63 3.039060 1_555
Ce11 Zn78 3.039060 1_545
Ce11 Zn67 3.115873 1_655
Ce11 Zn31 3.115873 1_556
Ce11 Zn74 3.115873 1_556
Ce11 Zn45 3.115873 1_655
Ce11 Zn48 3.179019 1_555
Ce11 Zn72 3.179019 1_555
Ce11 Zn53 3.179019 1_555
Ce11 Zn7 3.179019 1_555
Ce11 Mg12 3.341630 1_555
Ce11 Mg0 3.356356 1_555
Ce11 Mg3 3.356356 1_555
Ce12 Zn60 3.118780 1_565
Ce12 Zn73 3.118780 1_565
Ce12 Zn50 3.118780 1_565
Ce12 Zn42 3.189362 1_555
Ce12 Zn55 3.189362 1_555
Ce12 Zn1 3.189362 1_555
Ce12 Zn23 3.189362 1_555
Ce12 Zn9 3.189362 1_555
Ce12 Zn28 3.189362 1_555
Ce12 Mg17 3.307211 1_555
Ce12 Mg10 3.307211 1_555
Ce12 Mg14 3.307211 1_555
Ce12 Zn27 3.316945 1_555
Ce12 Zn12 3.316945 1_555
Ce12 Zn65 3.316945 1_555
Ce12 Zn8 3.502048 1_555
Ce12 Zn66 3.502048 1_555
Ce12 Zn17 3.502048 1_555
Ce13 Zn16 2.972961 1_555
Ce13 Zn46 2.972962 1_565
Ce13 Zn3 3.039060 1_554
Ce13 Zn68 3.039060 1_455
Ce13 Zn52 3.115873 1_565
Ce13 Zn54 3.115873 1_565
Ce13 Zn57 3.115873 1_555
Ce13 Zn33 3.115873 1_555
Ce13 Zn26 3.179019 1_555
Ce13 Zn55 3.179019 1_555
Ce13 Zn21 3.179019 1_555
Ce13 Zn42 3.179019 1_555
Ce13 Mg17 3.341630 1_555
Ce13 Mg6 3.356356 1_555
Ce13 Mg11 3.356356 1_555
Ce14 Zn58 3.085965 1_565
Ce14 Zn23 3.085965 1_555
Ce14 Zn51 3.085965 1_565
Ce14 Zn1 3.085965 1_555
Ce14 Zn44 3.111701 1_565
Ce14 Zn43 3.111701 1_565
Ce14 Zn65 3.259710 1_555
Ce14 Zn40 3.259710 1_565
Ce14 Zn50 3.369745 1_565
Ce14 Zn19 3.369745 1_565
Ce14 Mg5 3.389943 1_565
Ce14 Mg7 3.389943 1_565
Ce14 Mg1 3.389943 1_555
Ce14 Mg4 3.389943 1_555
Ce14 Zn5 3.693339 1_555
Ce14 Zn75 3.693339 1_555
Ce14 Zn25 3.797933 1_555
Ce14 Zn62 3.797933 1_555
Ce15 Zn18 2.972961 1_555
Ce15 Zn46 2.972962 1_655
Ce15 Zn68 3.039060 1_545
Ce15 Zn63 3.039060 1_554
Ce15 Zn54 3.115873 1_655
Ce15 Zn71 3.115873 1_655
Ce15 Zn44 3.115873 1_555
Ce15 Zn31 3.115873 1_555
Ce15 Zn2 3.179019 1_555
Ce15 Zn35 3.179019 1_555
Ce15 Zn61 3.179019 1_555
Ce15 Zn58 3.179019 1_555
Ce15 Mg8 3.341630 1_555
Ce15 Mg15 3.356356 1_555
Ce15 Mg5 3.356356 1_555
Ce16 Zn72 3.085965 1_565
Ce16 Zn79 3.085965 1_565
Ce16 Zn9 3.085965 1_556
Ce16 Zn55 3.085965 1_556
Ce16 Zn74 3.111701 1_566
Ce16 Zn52 3.111701 1_566
Ce16 Zn12 3.259710 1_556
Ce16 Zn49 3.259711 1_565
Ce16 Zn15 3.369745 1_566
Ce16 Zn60 3.369745 1_566
Ce16 Mg11 3.389943 1_556
Ce16 Mg13 3.389943 1_556
Ce16 Mg3 3.389943 1_565
Ce16 Mg7 3.389943 1_565
Ce16 Zn11 3.693339 1_555
Ce16 Zn75 3.693339 1_555
Ce16 Zn25 3.797933 1_555
Ce16 Zn10 3.797933 1_555
Ce17 Zn22 2.972962 1_565
Ce17 Zn16 2.972962 1_556
Ce17 Zn3 3.039060 1_555
Ce17 Zn78 3.039060 1_455
Ce17 Zn43 3.115873 1_565
Ce17 Zn33 3.115873 1_556
Ce17 Zn45 3.115873 1_565
Ce17 Zn24 3.115873 1_556
Ce17 Zn39 3.179019 1_555
Ce17 Zn37 3.179019 1_555
Ce17 Zn28 3.179019 1_555
Ce17 Zn23 3.179019 1_555
Ce17 Mg10 3.341630 1_555
Ce17 Mg1 3.356356 1_555
Ce17 Mg18 3.356356 1_555
Ce18 Zn53 3.085965 1_555
Ce18 Zn37 3.085965 1_555
Ce18 Zn61 3.085965 1_556
Ce18 Zn21 3.085965 1_556
Ce18 Zn31 3.111701 1_556
Ce18 Zn33 3.111701 1_556
Ce18 Zn29 3.259710 1_555
Ce18 Zn13 3.259711 1_556
Ce18 Zn32 3.369745 1_556
Ce18 Zn4 3.369745 1_556
Ce18 Mg11 3.389943 1_556
Ce18 Mg15 3.389943 1_556
Ce18 Mg1 3.389943 1_555
Ce18 Mg0 3.389943 1_555
Ce18 Zn11 3.693339 1_555
Ce18 Zn5 3.693339 1_555
Ce18 Zn25 3.797933 1_555
Ce18 Zn69 3.797933 1_555
Ce19 Zn18 2.972962 1_565
Ce19 Zn16 2.972962 1_655
Ce19 Zn68 3.039060 1_555
Ce19 Zn78 3.039060 1_554
Ce19 Zn44 3.115873 1_565
Ce19 Zn57 3.115873 1_655
Ce19 Zn74 3.115873 1_565
Ce19 Zn24 3.115873 1_655
Ce19 Zn70 3.179019 1_555
Ce19 Zn64 3.179019 1_555
Ce19 Zn9 3.179019 1_555
Ce19 Zn1 3.179019 1_555
Ce19 Mg14 3.341630 1_555
Ce19 Mg4 3.356356 1_555
Ce19 Mg13 3.356356 1_555
Mg0 Zn5 2.860050 1_555
Mg0 Zn69 2.868122 1_555
Mg0 Zn31 2.911217 1_556
Mg0 Zn67 2.911217 1_655
Mg0 Zn53 3.006698 1_555
Mg0 Zn48 3.006698 1_555
Mg0 Zn29 3.128076 1_555
Mg0 Zn30 3.128076 1_555
Mg0 Zn63 3.161838 1_555
Mg1 Zn5 2.860050 1_555
Mg1 Zn25 2.868122 1_555
Mg1 Zn43 2.911217 1_565
Mg1 Zn33 2.911217 1_556
Mg1 Zn37 3.006698 1_555
Mg1 Zn23 3.006698 1_555
Mg1 Zn29 3.128076 1_555
Mg1 Zn65 3.128076 1_555
Mg1 Zn3 3.161838 1_555
Mg2 Zn38 2.860050 1_455
Mg2 Zn69 2.868122 1_455
Mg2 Zn67 2.911217 1_555
Mg2 Zn71 2.911217 1_556
Mg2 Zn20 3.006699 1_555
Mg2 Zn6 3.006699 1_555
Mg2 Zn41 3.128076 1_555
Mg2 Zn14 3.128076 1_555
Mg2 Zn63 3.161838 1_455
Mg3 Zn75 2.860049 1_545
Mg3 Zn10 2.868121 1_545
Mg3 Zn45 2.911217 1_655
Mg3 Zn74 2.911217 1_556
Mg3 Zn7 3.006699 1_555
Mg3 Zn72 3.006699 1_555
Mg3 Zn76 3.128076 1_555
Mg3 Zn49 3.128076 1_555
Mg3 Zn78 3.161838 1_545
Mg4 Zn5 2.860050 1_555
Mg4 Zn62 2.868122 1_555
Mg4 Zn44 2.911217 1_565
Mg4 Zn57 2.911217 1_655
Mg4 Zn64 3.006698 1_555
Mg4 Zn1 3.006698 1_555
Mg4 Zn30 3.128076 1_555
Mg4 Zn65 3.128076 1_555
Mg4 Zn68 3.161838 1_555
Mg5 Zn75 2.860050 1_545
Mg5 Zn62 2.868122 1_545
Mg5 Zn44 2.911217 1_555
Mg5 Zn54 2.911217 1_655
Mg5 Zn58 3.006698 1_555
Mg5 Zn35 3.006698 1_555
Mg5 Zn40 3.128076 1_555
Mg5 Zn76 3.128076 1_555
Mg5 Zn68 3.161838 1_545
Mg6 Zn38 2.860050 1_455
Mg6 Zn62 2.868122 1_455
Mg6 Zn54 2.911217 1_565
Mg6 Zn57 2.911217 1_555
Mg6 Zn26 3.006698 1_555
Mg6 Zn42 3.006699 1_555
Mg6 Zn41 3.128076 1_555
Mg6 Zn27 3.128076 1_555
Mg6 Zn68 3.161838 1_455
Mg7 Zn75 2.860050 1_545
Mg7 Zn25 2.868122 1_545
Mg7 Zn43 2.911217 1_555
Mg7 Zn52 2.911217 1_556
Mg7 Zn51 3.006698 1_555
Mg7 Zn79 3.006699 1_555
Mg7 Zn40 3.128076 1_555
Mg7 Zn49 3.128076 1_555
Mg7 Zn3 3.161838 1_545
Mg8 Zn66 2.879879 1_555
Mg8 Zn59 2.879880 1_555
Mg8 Zn58 2.926908 1_555
Mg8 Zn61 2.926908 1_555
Mg8 Zn35 2.926909 1_555
Mg8 Zn2 2.926909 1_555
Mg8 Zn13 3.138861 1_555
Mg8 Zn34 3.138861 1_555
Mg8 Zn40 3.138861 1_555
Mg8 Zn76 3.138861 1_555
Mg9 Zn8 2.879879 1_555
Mg9 Zn59 2.879880 1_555
Mg9 Zn51 2.926908 1_555
Mg9 Zn20 2.926908 1_555
Mg9 Zn79 2.926909 1_555
Mg9 Zn6 2.926909 1_555
Mg9 Zn41 3.138861 1_555
Mg9 Zn14 3.138861 1_555
Mg9 Zn40 3.138861 1_555
Mg9 Zn49 3.138861 1_555
Mg10 Zn8 2.879879 1_555
Mg10 Zn17 2.879880 1_555
Mg10 Zn23 2.926908 1_555
Mg10 Zn28 2.926908 1_555
Mg10 Zn37 2.926909 1_555
Mg10 Zn39 2.926909 1_555
Mg10 Zn14 3.138861 1_555
Mg10 Zn27 3.138861 1_555
Mg10 Zn29 3.138861 1_555
Mg10 Zn65 3.138861 1_555
Mg11 Zn11 2.860050 1_554
Mg11 Zn25 2.868122 1_554
Mg11 Zn52 2.911217 1_565
Mg11 Zn33 2.911217 1_555
Mg11 Zn21 3.006698 1_555
Mg11 Zn55 3.006699 1_555
Mg11 Zn13 3.128076 1_555
Mg11 Zn12 3.128076 1_555
Mg11 Zn3 3.161838 1_554
Mg12 Zn17 2.879879 1_555
Mg12 Zn59 2.879879 1_555
Mg12 Zn72 2.926909 1_555
Mg12 Zn48 2.926909 1_555
Mg12 Zn7 2.926909 1_555
Mg12 Zn53 2.926909 1_555
Mg12 Zn49 3.138861 1_555
Mg12 Zn76 3.138861 1_555
Mg12 Zn30 3.138861 1_555
Mg12 Zn29 3.138861 1_555
Mg13 Zn11 2.860049 1_554
Mg13 Zn10 2.868122 1_554
Mg13 Zn74 2.911217 1_565
Mg13 Zn24 2.911217 1_655
Mg13 Zn70 3.006699 1_555
Mg13 Zn9 3.006699 1_555
Mg13 Zn34 3.128076 1_555
Mg13 Zn12 3.128076 1_555
Mg13 Zn78 3.161838 1_554
Mg14 Zn66 2.879879 1_555
Mg14 Zn17 2.879880 1_555
Mg14 Zn1 2.926908 1_555
Mg14 Zn9 2.926908 1_555
Mg14 Zn64 2.926909 1_555
Mg14 Zn70 2.926909 1_555
Mg14 Zn34 3.138861 1_555
Mg14 Zn12 3.138861 1_555
Mg14 Zn30 3.138861 1_555
Mg14 Zn65 3.138861 1_555
Mg15 Zn11 2.860050 1_554
Mg15 Zn69 2.868122 1_554
Mg15 Zn31 2.911217 1_555
Mg15 Zn71 2.911217 1_655
Mg15 Zn61 3.006698 1_555
Mg15 Zn2 3.006699 1_555
Mg15 Zn13 3.128076 1_555
Mg15 Zn34 3.128076 1_555
Mg15 Zn63 3.161838 1_554
Mg16 Zn73 3.061103 1_555
Mg16 Zn60 3.061103 1_555
Mg16 Zn80 3.061103 1_555
Mg16 Zn56 3.061103 1_555
Mg16 Zn47 3.061103 1_555
Mg16 Zn50 3.061103 1_555
Mg16 Zn4 3.061103 1_555
Mg16 Zn15 3.061103 1_555
Mg16 Zn0 3.061103 1_555
Mg16 Zn32 3.061103 1_555
Mg16 Zn19 3.061103 1_555
Mg16 Zn77 3.061103 1_555
Mg17 Zn8 2.879880 1_555
Mg17 Zn66 2.879880 1_555
Mg17 Zn55 2.926908 1_555
Mg17 Zn26 2.926908 1_555
Mg17 Zn42 2.926908 1_555
Mg17 Zn21 2.926908 1_555
Mg17 Zn41 3.138861 1_555
Mg17 Zn13 3.138861 1_555
Mg17 Zn12 3.138861 1_555
Mg17 Zn27 3.138861 1_555
Mg18 Zn38 2.860049 1_455
Mg18 Zn10 2.868122 1_455
Mg18 Zn45 2.911217 1_565
Mg18 Zn24 2.911217 1_556
Mg18 Zn39 3.006699 1_555
Mg18 Zn28 3.006699 1_555
Mg18 Zn14 3.128076 1_555
Mg18 Zn27 3.128076 1_555
Mg18 Zn78 3.161838 1_455
Zn0 Zn77 2.525410 1_555
Zn0 Zn26 2.637600 1_555
Zn0 Zn20 2.637600 1_555
Zn0 Zn19 2.680879 1_555
Zn0 Zn4 2.680879 1_555
Zn1 Zn9 2.538378 1_555
Zn1 Zn44 2.575282 1_565
Zn1 Zn50 2.637600 1_565
Zn1 Zn65 2.656062 1_555
Zn2 Zn35 2.538378 1_555
Zn2 Zn71 2.575282 1_655
Zn2 Zn56 2.637600 1_655
Zn2 Zn34 2.656062 1_555
Zn3 Zn33 2.605540 1_556
Zn3 Zn52 2.605540 1_566
Zn3 Zn43 2.605540 1_565
Zn3 Zn36 2.881939 1_566
Zn4 Zn61 2.637600 1_555
Zn5 Zn62 2.748520 1_555
Zn5 Zn69 2.748521 1_555
Zn5 Zn65 2.776273 1_555
Zn6 Zn79 2.538378 1_555
Zn6 Zn71 2.575282 1_556
Zn6 Zn80 2.637600 1_556
Zn7 Zn76 2.656062 1_555
Zn10 Zn75 2.748521 1_555
Zn10 Zn11 2.748521 1_555
Zn10 Zn38 2.748521 1_555
Zn11 Zn25 2.748521 1_555
Zn11 Zn69 2.748521 1_555
Zn11 Zn34 2.776273 1_556
Zn11 Zn13 2.776273 1_556
Zn11 Zn12 2.776273 1_556
Zn12 Zn9 2.656062 1_555
Zn12 Zn55 2.656062 1_555
Zn12 Zn13 2.722322 1_555
Zn12 Zn34 2.722322 1_555
Zn12 Zn66 2.762179 1_555
Zn13 Zn61 2.656062 1_555
Zn13 Zn21 2.656062 1_555
Zn13 Zn34 2.722322 1_555
Zn13 Zn66 2.762179 1_555
Zn14 Zn39 2.656062 1_555
Zn14 Zn6 2.656062 1_555
Zn14 Zn27 2.722322 1_555
Zn14 Zn41 2.722322 1_555
Zn14 Zn8 2.762179 1_555
Zn14 Zn38 2.776273 1_455
Zn15 Zn60 2.525410 1_555
Zn15 Zn72 2.637600 1_554
Zn15 Zn79 2.637600 1_554
Zn15 Zn32 2.680879 1_555
Zn15 Zn80 2.680879 1_555
Zn16 Zn36 2.581119 1_565
Zn16 Zn57 2.681299 1_555
Zn16 Zn33 2.681299 1_555
Zn16 Zn24 2.681299 1_555
Zn17 Zn59 2.734071 1_555
Zn17 Zn8 2.734071 1_555
Zn17 Zn66 2.734071 1_555
Zn17 Zn65 2.762179 1_555
Zn17 Zn30 2.762179 1_555
Zn17 Zn29 2.762179 1_555
Zn18 Zn36 2.581119 1_655
Zn18 Zn31 2.681299 1_555
Zn18 Zn44 2.681299 1_555
Zn18 Zn74 2.681299 1_555
Zn19 Zn50 2.525410 1_555
Zn19 Zn58 2.637600 1_555
Zn19 Zn51 2.637600 1_555
Zn19 Zn4 2.680879 1_555
Zn20 Zn51 2.538378 1_555
Zn20 Zn67 2.575282 1_555
Zn20 Zn41 2.656062 1_555
Zn21 Zn26 2.538378 1_555
Zn21 Zn33 2.575282 1_555
Zn21 Zn4 2.637600 1_555
Zn22 Zn36 2.581119 1_556
Zn22 Zn67 2.681299 1_555
Zn22 Zn43 2.681299 1_555
Zn22 Zn45 2.681299 1_555
Zn23 Zn28 2.538378 1_555
Zn23 Zn43 2.575282 1_565
Zn23 Zn50 2.637600 1_565
Zn23 Zn65 2.656062 1_555
Zn24 Zn70 2.575282 1_455
Zn24 Zn39 2.575282 1_554
Zn24 Zn78 2.605540 1_454
Zn25 Zn75 2.748520 1_555
Zn25 Zn5 2.748520 1_555
Zn26 Zn57 2.575282 1_555
Zn26 Zn41 2.656062 1_555
Zn27 Zn28 2.656062 1_555
Zn27 Zn42 2.656062 1_555
Zn27 Zn41 2.722322 1_555
Zn27 Zn8 2.762179 1_555
Zn27 Zn38 2.776273 1_455
Zn28 Zn45 2.575282 1_565
Zn28 Zn73 2.637600 1_565
Zn29 Zn53 2.656062 1_555
Zn29 Zn37 2.656062 1_555
Zn29 Zn65 2.722322 1_555
Zn29 Zn30 2.722322 1_555
Zn29 Zn5 2.776273 1_555
Zn30 Zn48 2.656062 1_555
Zn30 Zn64 2.656062 1_555
Zn30 Zn65 2.722322 1_555
Zn30 Zn5 2.776273 1_555
Zn31 Zn53 2.575282 1_554
Zn31 Zn61 2.575282 1_555
Zn31 Zn63 2.605540 1_554
Zn32 Zn4 2.525410 1_555
Zn32 Zn37 2.637600 1_554
Zn32 Zn53 2.637600 1_554
Zn32 Zn80 2.680879 1_555
Zn33 Zn37 2.575282 1_554
Zn34 Zn70 2.656062 1_555
Zn34 Zn66 2.762179 1_555
Zn35 Zn54 2.575282 1_655
Zn35 Zn47 2.637600 1_655
Zn35 Zn76 2.656062 1_555
Zn36 Zn46 2.581119 1_555
Zn36 Zn63 2.881939 1_454
Zn36 Zn78 2.881939 1_444
Zn36 Zn68 2.881939 1_445
Zn37 Zn39 2.538378 1_555
Zn38 Zn62 2.748521 1_555
Zn38 Zn69 2.748521 1_555
Zn38 Zn41 2.776273 1_655
Zn39 Zn80 2.637600 1_556
Zn40 Zn51 2.656062 1_555
Zn40 Zn58 2.656062 1_555
Zn40 Zn76 2.722322 1_555
Zn40 Zn49 2.722322 1_555
Zn40 Zn59 2.762179 1_555
Zn40 Zn75 2.776273 1_545
Zn41 Zn8 2.762179 1_555
Zn42 Zn55 2.538378 1_555
Zn42 Zn54 2.575282 1_565
Zn42 Zn73 2.637600 1_565
Zn43 Zn51 2.575282 1_555
Zn44 Zn58 2.575282 1_555
Zn44 Zn68 2.605540 1_545
Zn45 Zn7 2.575282 1_455
Zn45 Zn78 2.605540 1_445
Zn46 Zn71 2.681299 1_555
Zn46 Zn54 2.681299 1_555
Zn46 Zn52 2.681299 1_555
Zn47 Zn73 2.525410 1_555
Zn47 Zn7 2.637600 1_455
Zn47 Zn77 2.680879 1_555
Zn47 Zn56 2.680879 1_555
Zn48 Zn7 2.538378 1_555
Zn48 Zn67 2.575282 1_655
Zn48 Zn77 2.637600 1_655
Zn49 Zn72 2.656062 1_555
Zn49 Zn79 2.656062 1_555
Zn49 Zn76 2.722322 1_555
Zn49 Zn59 2.762179 1_555
Zn49 Zn75 2.776273 1_545
Zn50 Zn73 2.680879 1_555
Zn50 Zn60 2.680879 1_555
Zn52 Zn79 2.575282 1_554
Zn52 Zn55 2.575282 1_545
Zn53 Zn72 2.538378 1_555
Zn54 Zn68 2.605540 1_445
Zn55 Zn60 2.637600 1_565
Zn56 Zn80 2.525410 1_555
Zn56 Zn70 2.637600 1_455
Zn56 Zn77 2.680879 1_555
Zn57 Zn64 2.575282 1_455
Zn57 Zn68 2.605540 1_455
Zn58 Zn61 2.538378 1_555
Zn59 Zn66 2.734071 1_555
Zn59 Zn8 2.734071 1_555
Zn59 Zn76 2.762179 1_555
Zn60 Zn9 2.637600 1_545
Zn60 Zn73 2.680879 1_555
Zn62 Zn75 2.748520 1_555
Zn63 Zn71 2.605540 1_656
Zn63 Zn67 2.605540 1_655
Zn64 Zn70 2.538378 1_555
Zn64 Zn77 2.637600 1_655
Zn66 Zn8 2.734071 1_555
Zn72 Zn74 2.575282 1_556
Zn74 Zn9 2.575282 1_545
Zn74 Zn78 2.605540 1_544
Zn75 Zn76 2.776273 1_565
