# generated using pymatgen
data_Y(IO3)3
_symmetry_space_group_name_H-M   'P 1'
_cell_length_a   5.97515716
_cell_length_b   8.69536679
_cell_length_c   16.42723933
_cell_angle_alpha   65.34005427
_cell_angle_beta   90.00000000
_cell_angle_gamma   90.00000000
_symmetry_Int_Tables_number   1
_chemical_formula_structural   Y(IO3)3
_chemical_formula_sum   'Y4 I12 O36'
_cell_volume   775.65782621
_cell_formula_units_Z   4
loop_
 _symmetry_equiv_pos_site_id
 _symmetry_equiv_pos_as_xyz
  1  'x, y, z'
loop_
 _atom_site_type_symbol
 _atom_site_label
 _atom_site_symmetry_multiplicity
 _atom_site_fract_x
 _atom_site_fract_y
 _atom_site_fract_z
 _atom_site_occupancy
  Y  Y0  1  0.28514084  0.14560614  0.39728706  1
  Y  Y1  1  0.71485916  0.85439386  0.60271294  1
  Y  Y2  1  0.21485916  0.14560614  0.89728706  1
  Y  Y3  1  0.78514084  0.85439386  0.10271294  1
  I  I0  1  0.90162125  0.41871451  0.69968363  1
  I  I1  1  0.85066384  0.35704530  0.97902901  1
  I  I2  1  0.59837875  0.41871451  0.19968363  1
  I  I3  1  0.14933616  0.64295470  0.02097099  1
  I  I4  1  0.81387310  0.92509464  0.35480085  1
  I  I5  1  0.18612690  0.07490536  0.64519915  1
  I  I6  1  0.64933616  0.35704530  0.47902901  1
  I  I7  1  0.40162125  0.58128549  0.80031637  1
  I  I8  1  0.09837875  0.58128549  0.30031637  1
  I  I9  1  0.68612690  0.92509464  0.85480085  1
  I  I10  1  0.35066384  0.64295470  0.52097099  1
  I  I11  1  0.31387310  0.07490536  0.14519915  1
  O  O0  1  0.62014253  0.12834314  0.51250192  1
  O  O1  1  0.58835467  0.34194207  0.11233683  1
  O  O2  1  0.89174063  0.09469767  0.82969159  1
  O  O3  1  0.91164533  0.34194207  0.61233683  1
  O  O4  1  0.37986151  0.11541685  0.03087429  1
  O  O5  1  0.60825937  0.09469767  0.32969159  1
  O  O6  1  0.42864343  0.35494598  0.55788190  1
  O  O7  1  0.82206868  0.65664093  0.25593972  1
  O  O8  1  0.44076343  0.05760521  0.80975930  1
  O  O9  1  0.97343766  0.60553544  0.11818810  1
  O  O10  1  0.49005405  0.36286792  0.86441023  1
  O  O11  1  0.87985747  0.12834314  0.01250192  1
  O  O12  1  0.50994595  0.63713208  0.13558977  1
  O  O13  1  0.94076343  0.94239479  0.69024070  1
  O  O14  1  0.99005405  0.63713208  0.63558977  1
  O  O15  1  0.92864343  0.64505402  0.94211810  1
  O  O16  1  0.05923657  0.05760521  0.30975930  1
  O  O17  1  0.57135657  0.64505402  0.44211810  1
  O  O18  1  0.62013849  0.88458315  0.96912571  1
  O  O19  1  0.00994595  0.36286792  0.36441023  1
  O  O20  1  0.41164533  0.65805793  0.88766317  1
  O  O21  1  0.12014253  0.87165686  0.98749808  1
  O  O22  1  0.47343766  0.39446456  0.38181190  1
  O  O23  1  0.39174063  0.90530233  0.67030841  1
  O  O24  1  0.10825937  0.90530233  0.17030841  1
  O  O25  1  0.02656234  0.39446456  0.88181190  1
  O  O26  1  0.52656234  0.60553544  0.61818810  1
  O  O27  1  0.08835467  0.65805793  0.38766317  1
  O  O28  1  0.07135657  0.35494598  0.05788190  1
  O  O29  1  0.12013849  0.11541685  0.53087429  1
  O  O30  1  0.67793132  0.65664093  0.75593972  1
  O  O31  1  0.37985747  0.87165686  0.48749808  1
  O  O32  1  0.55923657  0.94239479  0.19024070  1
  O  O33  1  0.87986151  0.88458315  0.46912571  1
  O  O34  1  0.32206868  0.34335907  0.24406028  1
  O  O35  1  0.17793132  0.34335907  0.74406028  1
loop_
_geom_bond_atom_site_label_1
_geom_bond_atom_site_label_2
_geom_bond_distance
_geom_bond_site_symmetry_2
I0 O35 1.813273 1_655
I0 O3 1.818620 1_555
I0 O14 1.823779 1_555
I1 O25 1.824100 1_655
I1 O11 1.837125 1_556
I1 O28 1.843203 1_656
I1 O15 2.364181 1_555
I2 O34 1.813273 1_555
I2 O1 1.818620 1_555
I2 O12 1.823779 1_555
I3 O9 1.824100 1_455
I3 O21 1.837125 1_554
I3 O15 1.843203 1_454
I3 O28 2.364181 1_555
I4 O33 1.804036 1_555
I4 O16 1.820188 1_665
I4 O5 1.829438 1_565
I4 O17 2.678087 1_555
I5 O29 1.804036 1_555
I5 O13 1.820188 1_445
I5 O23 1.829438 1_545
I5 O6 2.678087 1_555
I6 O22 1.824100 1_555
I6 O0 1.837125 1_555
I6 O6 1.843203 1_555
I6 O17 2.364181 1_555
I7 O30 1.813273 1_555
I7 O20 1.818620 1_555
I7 O10 1.823779 1_555
I8 O7 1.813273 1_455
I8 O27 1.818620 1_555
I8 O19 1.823779 1_555
I9 O18 1.804036 1_555
I9 O8 1.820188 1_565
I9 O2 1.829438 1_565
I9 O15 2.678087 1_555
I10 O26 1.824100 1_555
I10 O31 1.837125 1_555
I10 O17 1.843203 1_555
I10 O6 2.364181 1_555
I11 O4 1.804036 1_555
I11 O32 1.820188 1_545
I11 O24 1.829438 1_545
I11 O28 2.678087 1_555
O0 Y1 2.290201 1_545
O0 Y0 2.715581 1_555
O2 Y2 2.359380 1_655
O4 Y2 2.318605 1_554
O5 Y0 2.359380 1_555
O7 Y3 2.393636 1_555
O8 Y2 2.322287 1_555
O9 Y3 2.356687 1_555
O10 Y2 2.390205 1_555
O11 Y3 2.290201 1_545
O11 Y2 2.715581 1_654
O12 Y3 2.390205 1_555
O13 Y1 2.322287 1_555
O14 Y1 2.390205 1_555
O16 Y0 2.322287 1_555
O18 Y3 2.318605 1_556
O19 Y0 2.390205 1_555
O21 Y2 2.290201 1_565
O21 Y3 2.715581 1_456
O22 Y0 2.356687 1_555
O23 Y1 2.359380 1_555
O24 Y3 2.359380 1_455
O25 Y2 2.356687 1_555
O26 Y1 2.356687 1_555
O29 Y0 2.318605 1_555
O30 Y1 2.393636 1_555
O31 Y0 2.290201 1_565
O31 Y1 2.715581 1_555
O32 Y3 2.322287 1_555
O33 Y1 2.318605 1_555
O34 Y0 2.393636 1_555
O35 Y2 2.393636 1_555
