# generated using pymatgen
data_Li2CaTa2O7
_symmetry_space_group_name_H-M   'P 1'
_cell_length_a   9.72038430
_cell_length_b   9.72038430
_cell_length_c   9.72038430
_cell_angle_alpha   156.52319164
_cell_angle_beta   156.52319164
_cell_angle_gamma   33.44213654
_symmetry_Int_Tables_number   1
_chemical_formula_structural   Li2CaTa2O7
_chemical_formula_sum   'Li2 Ca1 Ta2 O7'
_cell_volume   145.62484029
_cell_formula_units_Z   1
loop_
 _symmetry_equiv_pos_site_id
 _symmetry_equiv_pos_as_xyz
  1  'x, y, z'
loop_
 _atom_site_type_symbol
 _atom_site_label
 _atom_site_symmetry_multiplicity
 _atom_site_fract_x
 _atom_site_fract_y
 _atom_site_fract_z
 _atom_site_occupancy
  Li  Li0  1  0.75000000  0.25000000  0.50000000  1
  Li  Li1  1  0.25000000  0.75000000  0.50000000  1
  Ca  Ca0  1  0.00000000  0.00000000  0.00000000  1
  Ta  Ta0  1  0.61147000  0.61147000  0.00000000  1
  Ta  Ta1  1  0.38853000  0.38853000  0.00000000  1
  O  O0  1  0.59964600  0.09964600  0.50000000  1
  O  O1  1  0.28618800  0.28618800  0.00000000  1
  O  O2  1  0.90035400  0.40035400  0.50000000  1
  O  O3  1  0.40035400  0.90035400  0.50000000  1
  O  O4  1  0.71381200  0.71381200  0.00000000  1
  O  O5  1  0.09964600  0.59964600  0.50000000  1
  O  O6  1  0.50000000  0.50000000  0.00000000  1
loop_
_geom_bond_atom_site_label_1
_geom_bond_atom_site_label_2
_geom_bond_distance
_geom_bond_site_symmetry_2
Li0 O4 2.089181 1_556
Li0 O1 2.089181 1_555
Li0 O1 2.089181 1_656
Li0 O4 2.089181 1_545
Li1 O4 2.089181 1_455
Li1 O4 2.089181 1_556
Li1 O1 2.089181 1_555
Li1 O1 2.089181 1_566
Ca0 O2 2.711601 1_444
Ca0 O0 2.711601 1_555
Ca0 O3 2.711601 1_444
Ca0 O0 2.711601 1_454
Ca0 O3 2.711601 1_545
Ca0 O5 2.711601 1_555
Ca0 O5 2.711601 1_544
Ca0 O2 2.711601 1_455
Ca0 O6 2.796678 1_444
Ca0 O6 2.796678 1_545
Ca0 O6 2.796678 1_455
Ca0 O6 2.796678 1_556
O0 Ta0 1.989766 1_556
O0 Ta0 1.989766 1_545
O1 Ta1 1.905480 1_555
O2 Ta1 1.989766 1_656
O2 Ta1 1.989766 1_555
O3 Ta1 1.989766 1_566
O3 Ta1 1.989766 1_555
O4 Ta0 1.905480 1_555
O5 Ta0 1.989766 1_556
O5 Ta0 1.989766 1_455
O6 Ta0 2.075432 1_555
O6 Ta1 2.075432 1_555
