# generated using pymatgen
data_Ca4Al6MoO16
_symmetry_space_group_name_H-M   'P 1'
_cell_length_a   8.12287043
_cell_length_b   8.12287043
_cell_length_c   26.36826800
_cell_angle_alpha   90.00000000
_cell_angle_beta   90.00000000
_cell_angle_gamma   108.98142069
_symmetry_Int_Tables_number   1
_chemical_formula_structural   Ca4Al6MoO16
_chemical_formula_sum   'Ca16 Al24 Mo4 O64'
_cell_volume   1645.20184209
_cell_formula_units_Z   4
loop_
 _symmetry_equiv_pos_site_id
 _symmetry_equiv_pos_as_xyz
  1  'x, y, z'
loop_
 _atom_site_type_symbol
 _atom_site_label
 _atom_site_symmetry_multiplicity
 _atom_site_fract_x
 _atom_site_fract_y
 _atom_site_fract_z
 _atom_site_occupancy
  Ca  Ca0  1  0.97152700  0.43796900  0.51704300  1
  Ca  Ca1  1  0.00952200  0.48776000  0.75009200  1
  Ca  Ca2  1  0.43796900  0.97152700  0.48295700  1
  Ca  Ca3  1  0.25384500  0.30842200  0.86229600  1
  Ca  Ca4  1  0.48776000  0.00952200  0.24990800  1
  Ca  Ca5  1  0.47152700  0.93796900  0.98295700  1
  Ca  Ca6  1  0.26165700  0.23292100  0.62046500  1
  Ca  Ca7  1  0.80842200  0.75384500  0.36229600  1
  Ca  Ca8  1  0.50952200  0.98776000  0.74990800  1
  Ca  Ca9  1  0.30842200  0.25384500  0.13770400  1
  Ca  Ca10  1  0.93796900  0.47152700  0.01704300  1
  Ca  Ca11  1  0.75384500  0.80842200  0.63770400  1
  Ca  Ca12  1  0.23292100  0.26165700  0.37953500  1
  Ca  Ca13  1  0.98776000  0.50952200  0.25009200  1
  Ca  Ca14  1  0.76165700  0.73292100  0.87953500  1
  Ca  Ca15  1  0.73292100  0.76165700  0.12046500  1
  Al  Al0  1  0.74349000  0.74349000  0.00000000  1
  Al  Al1  1  0.87438400  0.12416000  0.81464200  1
  Al  Al2  1  0.12416000  0.87438400  0.18535800  1
  Al  Al3  1  0.59148500  0.36357300  0.93724500  1
  Al  Al4  1  0.62871800  0.36058400  0.44037400  1
  Al  Al5  1  0.75353000  0.75826300  0.24351400  1
  Al  Al6  1  0.36357300  0.59148500  0.06275500  1
  Al  Al7  1  0.88510800  0.13580200  0.31019700  1
  Al  Al8  1  0.38510800  0.63580200  0.18980300  1
  Al  Al9  1  0.86058400  0.12871800  0.94037400  1
  Al  Al10  1  0.13580200  0.88510800  0.68980300  1
  Al  Al11  1  0.72874300  0.72874300  0.50000000  1
  Al  Al12  1  0.12871800  0.86058400  0.05962600  1
  Al  Al13  1  0.62416000  0.37438400  0.31464200  1
  Al  Al14  1  0.09148500  0.86357300  0.56275500  1
  Al  Al15  1  0.86357300  0.09148500  0.43724500  1
  Al  Al16  1  0.25353000  0.25826300  0.25648600  1
  Al  Al17  1  0.75826300  0.75353000  0.75648600  1
  Al  Al18  1  0.22874300  0.22874300  0.00000000  1
  Al  Al19  1  0.24349000  0.24349000  0.50000000  1
  Al  Al20  1  0.63580200  0.38510800  0.81019700  1
  Al  Al21  1  0.36058400  0.62871800  0.55962600  1
  Al  Al22  1  0.25826300  0.25353000  0.74351400  1
  Al  Al23  1  0.37438400  0.62416000  0.68535800  1
  Mo  Mo0  1  0.74092400  0.26137100  0.63623300  1
  Mo  Mo1  1  0.24092400  0.76137100  0.86376700  1
  Mo  Mo2  1  0.26137100  0.74092400  0.36376700  1
  Mo  Mo3  1  0.76137100  0.24092400  0.13623300  1
  O  O0  1  0.43305800  0.60328400  0.12625200  1
  O  O1  1  0.69625700  0.17620600  0.45339100  1
  O  O2  1  0.27867000  0.55123100  0.39405000  1
  O  O3  1  0.40198000  0.25162200  0.30528400  1
  O  O4  1  0.82422700  0.43902200  0.67918800  1
  O  O5  1  0.93305800  0.10328400  0.37374800  1
  O  O6  1  0.75162200  0.90198000  0.80528400  1
  O  O7  1  0.15802700  0.94718200  0.12184300  1
  O  O8  1  0.55123100  0.27867000  0.60595000  1
  O  O9  1  0.42248200  0.32615700  0.78829600  1
  O  O10  1  0.72184000  0.56724400  0.27955400  1
  O  O11  1  0.29243400  0.08234000  0.70930200  1
  O  O12  1  0.90364600  0.26754800  0.58922400  1
  O  O13  1  0.79243400  0.58234000  0.79069800  1
  O  O14  1  0.26715300  0.40260600  0.54710600  1
  O  O15  1  0.58234000  0.79243400  0.20930200  1
  O  O16  1  0.32422700  0.93902200  0.82081200  1
  O  O17  1  0.56724400  0.72184000  0.72044600  1
  O  O18  1  0.68742700  0.05633200  0.66987200  1
  O  O19  1  0.43902200  0.82422700  0.32081200  1
  O  O20  1  0.65802700  0.44718200  0.37815700  1
  O  O21  1  0.93902200  0.32422700  0.17918800  1
  O  O22  1  0.55108400  0.73385500  0.03242100  1
  O  O23  1  0.40364600  0.76754800  0.91077600  1
  O  O24  1  0.76754800  0.40364600  0.08922400  1
  O  O25  1  0.44718200  0.65802700  0.62184300  1
  O  O26  1  0.22184000  0.06724400  0.22044600  1
  O  O27  1  0.36388100  0.29363200  0.94586500  1
  O  O28  1  0.17620600  0.69625700  0.54660900  1
  O  O29  1  0.18742700  0.55633200  0.83012800  1
  O  O30  1  0.52274400  0.74649700  0.51675700  1
  O  O31  1  0.79363200  0.86388100  0.44586500  1
  O  O32  1  0.10328400  0.93305800  0.62625200  1
  O  O33  1  0.72876500  0.22760800  0.79166600  1
  O  O34  1  0.55633200  0.18742700  0.16987200  1
  O  O35  1  0.72760800  0.22876500  0.29166600  1
  O  O36  1  0.60328400  0.43305800  0.87374800  1
  O  O37  1  0.40260600  0.26715300  0.45289400  1
  O  O38  1  0.94718200  0.15802700  0.87815700  1
  O  O39  1  0.73385500  0.55108400  0.96757900  1
  O  O40  1  0.05123100  0.77867000  0.89405000  1
  O  O41  1  0.25162200  0.40198000  0.69471600  1
  O  O42  1  0.32615700  0.42248200  0.21170400  1
  O  O43  1  0.22876500  0.72760800  0.70833400  1
  O  O44  1  0.19625700  0.67620600  0.04660900  1
  O  O45  1  0.90198000  0.75162200  0.19471600  1
  O  O46  1  0.29363200  0.36388100  0.05413500  1
  O  O47  1  0.74649700  0.52274400  0.48324300  1
  O  O48  1  0.06724400  0.22184000  0.77955400  1
  O  O49  1  0.77867000  0.05123100  0.10595000  1
  O  O50  1  0.02274400  0.24649700  0.98324300  1
  O  O51  1  0.05633200  0.68742700  0.33012800  1
  O  O52  1  0.24649700  0.02274400  0.01675700  1
  O  O53  1  0.08234000  0.29243400  0.29069800  1
  O  O54  1  0.23385500  0.05108400  0.53242100  1
  O  O55  1  0.90260600  0.76715300  0.04710600  1
  O  O56  1  0.82615700  0.92248200  0.28829600  1
  O  O57  1  0.22760800  0.72876500  0.20833400  1
  O  O58  1  0.86388100  0.79363200  0.55413500  1
  O  O59  1  0.92248200  0.82615700  0.71170400  1
  O  O60  1  0.05108400  0.23385500  0.46757900  1
  O  O61  1  0.76715300  0.90260600  0.95289400  1
  O  O62  1  0.26754800  0.90364600  0.41077600  1
  O  O63  1  0.67620600  0.19625700  0.95339100  1
loop_
_geom_bond_atom_site_label_1
_geom_bond_atom_site_label_2
_geom_bond_distance
_geom_bond_site_symmetry_2
Ca0 O12 2.312207 1_555
Ca0 O47 2.329918 1_555
Ca0 O28 2.346189 1_655
Ca0 O60 2.358961 1_655
Ca0 O14 2.631732 1_655
Ca0 O1 3.040535 1_555
Ca1 O4 2.351590 1_455
Ca1 O13 2.393205 1_455
Ca1 O43 2.433632 1_555
Ca1 O48 2.479502 1_555
Ca1 O29 2.515706 1_555
Ca1 O41 2.715931 1_555
Ca1 O33 2.780858 1_455
Ca2 O62 2.312207 1_555
Ca2 O30 2.329918 1_555
Ca2 O1 2.346189 1_565
Ca2 O54 2.358961 1_565
Ca2 O37 2.631732 1_565
Ca2 O28 3.040535 1_555
Ca3 O9 2.361390 1_555
Ca3 O27 2.395600 1_555
Ca3 O29 2.402588 1_555
Ca3 O38 2.427493 1_455
Ca3 O48 2.618913 1_555
Ca3 O36 2.702509 1_555
Ca4 O19 2.351590 1_545
Ca4 O15 2.393205 1_545
Ca4 O35 2.433632 1_555
Ca4 O26 2.479502 1_555
Ca4 O34 2.515706 1_555
Ca4 O3 2.715931 1_555
Ca4 O57 2.780858 1_545
Ca5 O23 2.312207 1_555
Ca5 O52 2.329918 1_566
Ca5 O63 2.346189 1_565
Ca5 O22 2.358961 1_556
Ca5 O61 2.631732 1_555
Ca5 O44 3.040535 1_556
Ca6 O8 2.290999 1_555
Ca6 O32 2.360658 1_545
Ca6 O14 2.367164 1_555
Ca6 O41 2.408011 1_555
Ca6 O11 2.691601 1_555
Ca6 O54 2.721273 1_555
Ca7 O56 2.361390 1_555
Ca7 O31 2.395600 1_555
Ca7 O51 2.402588 1_655
Ca7 O20 2.427493 1_555
Ca7 O10 2.618913 1_555
Ca7 O5 2.702509 1_565
Ca8 O16 2.351590 1_555
Ca8 O11 2.393205 1_565
Ca8 O33 2.433632 1_565
Ca8 O17 2.479502 1_555
Ca8 O18 2.515706 1_565
Ca8 O6 2.715931 1_555
Ca8 O43 2.780858 1_555
Ca9 O42 2.361390 1_555
Ca9 O46 2.395600 1_555
Ca9 O34 2.402588 1_555
Ca9 O7 2.427493 1_545
Ca9 O26 2.618913 1_555
Ca9 O0 2.702509 1_555
Ca10 O24 2.312207 1_555
Ca10 O50 2.329918 1_654
Ca10 O44 2.346189 1_655
Ca10 O39 2.358961 1_554
Ca10 O55 2.631732 1_555
Ca10 O63 3.040535 1_554
Ca11 O59 2.361390 1_555
Ca11 O58 2.395600 1_555
Ca11 O18 2.402588 1_565
Ca11 O25 2.427493 1_555
Ca11 O17 2.618913 1_555
Ca11 O32 2.702509 1_655
Ca12 O2 2.290999 1_555
Ca12 O5 2.360658 1_455
Ca12 O37 2.367164 1_555
Ca12 O3 2.408011 1_555
Ca12 O53 2.691601 1_555
Ca12 O60 2.721273 1_555
Ca13 O21 2.351590 1_555
Ca13 O53 2.393205 1_655
Ca13 O57 2.433632 1_655
Ca13 O10 2.479502 1_555
Ca13 O51 2.515706 1_655
Ca13 O45 2.715931 1_555
Ca13 O35 2.780858 1_555
Ca14 O40 2.290999 1_655
Ca14 O36 2.360658 1_555
Ca14 O61 2.367164 1_555
Ca14 O6 2.408011 1_555
Ca14 O13 2.691601 1_555
Ca14 O39 2.721273 1_555
Ca15 O49 2.290999 1_565
Ca15 O0 2.360658 1_555
Ca15 O55 2.367164 1_555
Ca15 O45 2.408011 1_555
Ca15 O15 2.691601 1_555
Ca15 O22 2.721273 1_555
Al0 O61 1.757458 1_554
Al0 O55 1.757458 1_555
Al0 O22 1.760683 1_555
Al0 O39 1.760683 1_554
Al1 O33 1.766022 1_555
Al1 O38 1.767602 1_555
Al1 O48 1.769501 1_655
Al1 O6 1.772463 1_545
Al2 O57 1.766022 1_555
Al2 O7 1.767602 1_555
Al2 O26 1.769501 1_565
Al2 O45 1.772463 1_455
Al3 O36 1.759507 1_555
Al3 O27 1.763294 1_555
Al3 O63 1.763630 1_555
Al3 O39 1.775168 1_555
Al4 O47 1.763037 1_555
Al4 O20 1.770300 1_555
Al4 O37 1.775268 1_555
Al4 O1 1.787826 1_555
Al5 O56 1.734883 1_555
Al5 O15 1.753731 1_555
Al5 O10 1.765521 1_555
Al5 O45 1.776210 1_555
Al6 O0 1.759507 1_555
Al6 O46 1.763294 1_555
Al6 O44 1.763630 1_555
Al6 O22 1.775168 1_555
Al7 O56 1.739404 1_545
Al7 O35 1.753331 1_555
Al7 O5 1.759679 1_555
Al7 O53 1.767430 1_655
Al8 O42 1.739404 1_555
Al8 O57 1.753331 1_555
Al8 O0 1.759679 1_555
Al8 O15 1.767430 1_555
Al9 O50 1.763037 1_655
Al9 O38 1.770300 1_555
Al9 O61 1.775268 1_545
Al9 O63 1.787826 1_555
Al10 O59 1.739404 1_455
Al10 O43 1.753331 1_555
Al10 O32 1.759679 1_555
Al10 O11 1.767430 1_565
Al11 O31 1.773133 1_555
Al11 O58 1.773133 1_555
Al11 O47 1.781279 1_555
Al11 O30 1.781279 1_555
Al12 O52 1.763037 1_565
Al12 O7 1.770300 1_555
Al12 O55 1.775268 1_455
Al12 O44 1.787826 1_555
Al13 O35 1.766022 1_555
Al13 O20 1.767602 1_555
Al13 O10 1.769501 1_555
Al13 O3 1.772463 1_555
Al14 O32 1.759507 1_555
Al14 O58 1.763294 1_455
Al14 O28 1.763630 1_555
Al14 O54 1.775168 1_565
Al15 O5 1.759507 1_555
Al15 O31 1.763294 1_545
Al15 O1 1.763630 1_555
Al15 O60 1.775168 1_655
Al16 O42 1.734883 1_555
Al16 O53 1.753731 1_555
Al16 O26 1.765521 1_555
Al16 O3 1.776210 1_555
Al17 O59 1.734883 1_555
Al17 O13 1.753731 1_555
Al17 O17 1.765521 1_555
Al17 O6 1.776210 1_555
Al18 O46 1.773133 1_555
Al18 O27 1.773133 1_554
Al18 O52 1.781279 1_555
Al18 O50 1.781279 1_554
Al19 O37 1.757458 1_555
Al19 O14 1.757458 1_555
Al19 O60 1.760683 1_555
Al19 O54 1.760683 1_555
Al20 O9 1.739404 1_555
Al20 O33 1.753331 1_555
Al20 O36 1.759679 1_555
Al20 O13 1.767430 1_555
Al21 O30 1.763037 1_555
Al21 O25 1.770300 1_555
Al21 O14 1.775268 1_555
Al21 O28 1.787826 1_555
Al22 O9 1.734883 1_555
Al22 O11 1.753731 1_555
Al22 O48 1.765521 1_555
Al22 O41 1.776210 1_555
Al23 O43 1.766022 1_555
Al23 O25 1.767602 1_555
Al23 O17 1.769501 1_555
Al23 O41 1.772463 1_555
Mo0 O8 1.781134 1_555
Mo0 O4 1.785473 1_555
Mo0 O12 1.800812 1_555
Mo0 O18 1.810718 1_555
Mo1 O40 1.781134 1_555
Mo1 O16 1.785473 1_555
Mo1 O23 1.800812 1_555
Mo1 O29 1.810718 1_555
Mo2 O2 1.781134 1_555
Mo2 O19 1.785473 1_555
Mo2 O62 1.800812 1_555
Mo2 O51 1.810718 1_555
Mo3 O49 1.781134 1_555
Mo3 O21 1.785473 1_555
Mo3 O24 1.800812 1_555
Mo3 O34 1.810718 1_555
