# generated using pymatgen
data_HfFeSi2
_symmetry_space_group_name_H-M   'P 1'
_cell_length_a   10.81844954
_cell_length_b   10.81844954
_cell_length_c   10.81844954
_cell_angle_alpha   152.70058077
_cell_angle_beta   138.61880458
_cell_angle_gamma   50.28643525
_symmetry_Int_Tables_number   1
_chemical_formula_structural   HfFeSi2
_chemical_formula_sum   'Hf6 Fe6 Si12'
_cell_volume   382.27659626
_cell_formula_units_Z   6
loop_
 _symmetry_equiv_pos_site_id
 _symmetry_equiv_pos_as_xyz
  1  'x, y, z'
loop_
 _atom_site_type_symbol
 _atom_site_label
 _atom_site_symmetry_multiplicity
 _atom_site_fract_x
 _atom_site_fract_y
 _atom_site_fract_z
 _atom_site_occupancy
  Hf  Hf0  1  0.87131600  0.11617000  0.75514600  1
  Hf  Hf1  1  0.14619700  0.64619700  0.50000000  1
  Hf  Hf2  1  0.36102400  0.11617000  0.24485400  1
  Hf  Hf3  1  0.85380300  0.35380300  0.50000000  1
  Hf  Hf4  1  0.63897600  0.88383000  0.75514600  1
  Hf  Hf5  1  0.12868400  0.88383000  0.24485400  1
  Fe  Fe0  1  0.00000000  0.50000000  0.00000000  1
  Fe  Fe1  1  0.25340000  0.00000000  0.25340000  1
  Fe  Fe2  1  0.50000000  0.00000000  0.00000000  1
  Fe  Fe3  1  0.74660000  0.00000000  0.74660000  1
  Fe  Fe4  1  0.00000000  0.00000000  0.50000000  1
  Fe  Fe5  1  0.50000000  0.50000000  0.50000000  1
  Si  Si0  1  0.50000000  0.74642900  0.24642900  1
  Si  Si1  1  0.28646400  0.78646400  0.50000000  1
  Si  Si2  1  0.78144200  0.78144200  0.00000000  1
  Si  Si3  1  0.00000000  0.74056400  0.74056400  1
  Si  Si4  1  0.50000000  0.25357100  0.75357100  1
  Si  Si5  1  0.49763000  0.34433600  0.15329400  1
  Si  Si6  1  0.21855800  0.21855800  0.00000000  1
  Si  Si7  1  0.71353600  0.21353600  0.50000000  1
  Si  Si8  1  0.00000000  0.25943600  0.25943600  1
  Si  Si9  1  0.50237000  0.65566400  0.84670600  1
  Si  Si10  1  0.19104300  0.34433600  0.84670600  1
  Si  Si11  1  0.80895700  0.65566400  0.15329400  1
loop_
_geom_bond_atom_site_label_1
_geom_bond_atom_site_label_2
_geom_bond_distance
_geom_bond_site_symmetry_2
Hf0 Si7 2.727922 1_555
Hf0 Si6 2.743296 1_656
Hf0 Si11 2.778926 1_545
Hf0 Si11 2.778931 1_556
Hf0 Si8 3.230485 1_656
Hf0 Si3 3.230485 1_645
Hf0 Si0 3.264711 1_545
Hf0 Si4 3.264711 1_555
Hf1 Si9 2.656969 1_555
Hf1 Si11 2.656972 1_455
Hf1 Si1 2.747378 1_555
Hf1 Si6 2.920030 1_555
Hf1 Si6 2.920030 1_566
Hf1 Si8 3.115855 1_555
Hf1 Si3 3.115855 1_555
Hf2 Si7 2.727922 1_555
Hf2 Si6 2.743296 1_555
Hf2 Si9 2.778930 1_544
Hf2 Si9 2.778930 1_555
Hf2 Si8 3.230485 1_555
Hf2 Si3 3.230485 1_544
Hf2 Si4 3.264711 1_555
Hf2 Si0 3.264711 1_545
Hf3 Si5 2.656969 1_555
Hf3 Si10 2.656972 1_655
Hf3 Si7 2.747378 1_555
Hf3 Si2 2.920030 1_545
Hf3 Si2 2.920030 1_556
Hf3 Si8 3.115855 1_655
Hf3 Si3 3.115855 1_655
Hf4 Si1 2.727922 1_555
Hf4 Si2 2.743296 1_556
Hf4 Si5 2.778930 1_555
Hf4 Si5 2.778930 1_566
Hf4 Si8 3.230485 1_666
Hf4 Si3 3.230485 1_655
Hf4 Si0 3.264711 1_555
Hf4 Si4 3.264711 1_565
Hf5 Si1 2.727922 1_555
Hf5 Si2 2.743296 1_455
Hf5 Si10 2.778926 1_565
Hf5 Si10 2.778931 1_554
Hf5 Si8 3.230485 1_565
Hf5 Si3 3.230485 1_554
Hf5 Si4 3.264711 1_565
Hf5 Si0 3.264711 1_555
Fe0 Si11 2.364358 1_455
Fe0 Si10 2.364358 1_554
Fe0 Si6 2.379365 1_555
Fe0 Si2 2.379365 1_455
Fe0 Si7 2.406701 1_454
Fe0 Si1 2.406701 1_555
Fe0 Fe4 2.552995 1_554
Fe0 Fe4 2.552995 1_565
Fe0 Hf0 2.915852 1_454
Fe0 Hf5 2.915852 1_555
Fe0 Hf1 3.068529 1_555
Fe0 Hf3 3.068529 1_454
Fe1 Hf5 2.276333 1_545
Fe1 Hf2 2.276333 1_555
Fe1 Si0 2.286988 1_545
Fe1 Si4 2.286988 1_555
Fe1 Si3 2.346799 1_544
Fe1 Si8 2.346799 1_555
Fe2 Si9 2.364347 1_544
Fe2 Si5 2.364347 1_555
Fe2 Si2 2.379365 1_545
Fe2 Si6 2.379365 1_555
Fe2 Si7 2.406701 1_555
Fe2 Si1 2.406701 1_544
Fe2 Fe5 2.552995 1_544
Fe2 Fe5 2.552995 1_555
Fe2 Hf2 2.915852 1_555
Fe2 Hf4 2.915852 1_544
Fe2 Hf1 3.068529 1_544
Fe2 Hf3 3.068529 1_555
Fe3 Hf4 2.276333 1_545
Fe3 Hf0 2.276333 1_555
Fe3 Si0 2.286988 1_545
Fe3 Si4 2.286988 1_555
Fe3 Si8 2.346799 1_656
Fe3 Si3 2.346799 1_645
Fe4 Si11 2.364355 1_445
Fe4 Si10 2.364355 1_555
Fe4 Si2 2.379365 1_445
Fe4 Si6 2.379365 1_556
Fe4 Si1 2.406701 1_545
Fe4 Si7 2.406701 1_455
Fe4 Hf0 2.915852 1_455
Fe4 Hf5 2.915852 1_545
Fe4 Hf1 3.068529 1_545
Fe4 Hf3 3.068529 1_455
Fe5 Si5 2.364347 1_555
Fe5 Si9 2.364347 1_555
Fe5 Si2 2.379365 1_556
Fe5 Si6 2.379365 1_555
Fe5 Si7 2.406701 1_555
Fe5 Si1 2.406701 1_555
Fe5 Hf2 2.915852 1_555
Fe5 Hf4 2.915852 1_555
Fe5 Hf3 3.068529 1_555
Fe5 Hf1 3.068529 1_555
Si0 Si4 2.516528 1_554
Si0 Si4 2.589462 1_565
Si3 Si8 2.456635 1_555
Si3 Si8 2.649355 1_566
Si10 Si5 2.343793 1_556
Si11 Si9 2.343793 1_554
