# generated using pymatgen
data_KVF4
_symmetry_space_group_name_H-M   'P 1'
_cell_length_a   7.58725362
_cell_length_b   7.71490846
_cell_length_c   12.18903139
_cell_angle_alpha   90.00000000
_cell_angle_beta   90.00000000
_cell_angle_gamma   90.00000000
_symmetry_Int_Tables_number   1
_chemical_formula_structural   KVF4
_chemical_formula_sum   'K8 V8 F32'
_cell_volume   713.48455190
_cell_formula_units_Z   8
loop_
 _symmetry_equiv_pos_site_id
 _symmetry_equiv_pos_as_xyz
  1  'x, y, z'
loop_
 _atom_site_type_symbol
 _atom_site_label
 _atom_site_symmetry_multiplicity
 _atom_site_fract_x
 _atom_site_fract_y
 _atom_site_fract_z
 _atom_site_occupancy
  K  K0  1  0.25000000  0.62413176  0.51174571  1
  K  K1  1  0.75000000  0.37586824  0.48825429  1
  K  K2  1  0.75000000  0.12413176  0.98825429  1
  K  K3  1  0.25000000  0.87586824  0.01174571  1
  K  K4  1  0.25000000  0.12487071  0.52704084  1
  K  K5  1  0.75000000  0.87512929  0.47295916  1
  K  K6  1  0.75000000  0.62487071  0.97295916  1
  K  K7  1  0.25000000  0.37512929  0.02704084  1
  V  V0  1  0.50070365  0.62526317  0.24804345  1
  V  V1  1  0.00070365  0.37473683  0.75195655  1
  V  V2  1  0.49929635  0.12526317  0.25195655  1
  V  V3  1  0.99929635  0.87473683  0.74804345  1
  V  V4  1  0.49929635  0.37473683  0.75195655  1
  V  V5  1  0.99929635  0.62526317  0.24804345  1
  V  V6  1  0.50070365  0.87473683  0.74804345  1
  V  V7  1  0.00070365  0.12526317  0.25195655  1
  F  F0  1  0.44481473  0.37524088  0.24859564  1
  F  F1  1  0.94481473  0.62475912  0.75140436  1
  F  F2  1  0.55518527  0.87524088  0.25140436  1
  F  F3  1  0.05518527  0.12475912  0.74859564  1
  F  F4  1  0.55518527  0.62475912  0.75140436  1
  F  F5  1  0.05518527  0.37524088  0.24859564  1
  F  F6  1  0.44481473  0.12475912  0.74859564  1
  F  F7  1  0.94481473  0.87524088  0.25140436  1
  F  F8  1  0.25000000  0.42602189  0.78764549  1
  F  F9  1  0.75000000  0.57397811  0.21235451  1
  F  F10  1  0.75000000  0.92602189  0.71235451  1
  F  F11  1  0.25000000  0.07397811  0.28764549  1
  F  F12  1  0.75000000  0.32378509  0.71786888  1
  F  F13  1  0.25000000  0.67621491  0.28213112  1
  F  F14  1  0.25000000  0.82378509  0.78213112  1
  F  F15  1  0.75000000  0.17621491  0.21786888  1
  F  F16  1  0.04918308  0.11521198  0.09993148  1
  F  F17  1  0.54918308  0.88478802  0.90006852  1
  F  F18  1  0.95081692  0.61521198  0.40006852  1
  F  F19  1  0.45081692  0.38478802  0.59993148  1
  F  F20  1  0.95081692  0.88478802  0.90006852  1
  F  F21  1  0.45081692  0.11521198  0.09993148  1
  F  F22  1  0.04918308  0.38478802  0.59993148  1
  F  F23  1  0.54918308  0.61521198  0.40006852  1
  F  F24  1  0.95397375  0.13453368  0.40442012  1
  F  F25  1  0.45397375  0.86546632  0.59557988  1
  F  F26  1  0.04602625  0.63453368  0.09557988  1
  F  F27  1  0.54602625  0.36546632  0.90442012  1
  F  F28  1  0.04602625  0.86546632  0.59557988  1
  F  F29  1  0.54602625  0.13453368  0.40442012  1
  F  F30  1  0.95397375  0.36546632  0.90442012  1
  F  F31  1  0.45397375  0.63453368  0.09557988  1
loop_
_geom_bond_atom_site_label_1
_geom_bond_atom_site_label_2
_geom_bond_distance
_geom_bond_site_symmetry_2
F0 V2 1.972783 1_555
F0 V0 1.974971 1_555
F0 K7 3.078590 1_555
F1 V3 1.972783 1_555
F1 V1 1.974971 1_655
F1 K6 3.078590 1_555
F2 V0 1.972783 1_555
F2 V2 1.974971 1_565
F2 K5 3.078590 1_555
F3 V1 1.972783 1_555
F3 V3 1.974971 1_445
F3 K4 3.078590 1_555
F4 V6 1.972783 1_555
F4 V4 1.974971 1_555
F4 K6 3.078590 1_555
F5 V7 1.972783 1_555
F5 V5 1.974971 1_455
F5 K7 3.078590 1_555
F6 V4 1.972783 1_555
F6 V6 1.974971 1_545
F6 K4 3.078590 1_555
F7 V5 1.972783 1_555
F7 V7 1.974971 1_665
F7 K5 3.078590 1_555
F8 V1 1.980772 1_555
F8 V4 1.980772 1_555
F8 K7 2.944294 1_556
F9 V5 1.980772 1_555
F9 V0 1.980772 1_555
F9 K6 2.944294 1_554
F10 V3 1.980772 1_555
F10 V6 1.980772 1_555
F10 K5 2.944294 1_555
F11 V2 1.980772 1_555
F11 V7 1.980772 1_555
F11 K4 2.944294 1_555
F12 V1 1.986287 1_655
F12 V4 1.986287 1_555
F12 K1 2.827476 1_555
F13 V0 1.986287 1_555
F13 V5 1.986287 1_455
F13 K0 2.827476 1_555
F14 V6 1.986287 1_555
F14 V3 1.986287 1_455
F14 K3 2.827476 1_556
F15 V7 1.986287 1_655
F15 V2 1.986287 1_555
F15 K2 2.827476 1_554
F16 V7 1.890783 1_555
F16 K3 2.624220 1_545
F16 K2 2.647735 1_454
F16 K7 2.670554 1_555
F17 V6 1.890783 1_555
F17 K2 2.624220 1_565
F17 K3 2.647735 1_556
F17 K6 2.670554 1_555
F18 V5 1.890783 1_555
F18 K1 2.624220 1_555
F18 K0 2.647735 1_655
F18 K5 2.670554 1_555
F19 V4 1.890783 1_555
F19 K0 2.624220 1_555
F19 K1 2.647735 1_555
F19 K4 2.670554 1_555
F20 V3 1.890783 1_555
F20 K2 2.624220 1_565
F20 K3 2.647735 1_656
F20 K6 2.670554 1_555
F21 V2 1.890783 1_555
F21 K3 2.624220 1_545
F21 K2 2.647735 1_554
F21 K7 2.670554 1_555
F22 V1 1.890783 1_555
F22 K0 2.624220 1_555
F22 K1 2.647735 1_455
F22 K4 2.670554 1_555
F23 V0 1.890783 1_555
F23 K1 2.624220 1_555
F23 K0 2.647735 1_555
F23 K5 2.670554 1_555
F24 V7 1.893254 1_655
F24 K1 2.627896 1_555
F24 K5 2.664231 1_545
F24 K4 2.698908 1_655
F25 V6 1.893254 1_555
F25 K0 2.627896 1_555
F25 K4 2.664231 1_565
F25 K5 2.698908 1_555
F26 V5 1.893254 1_455
F26 K3 2.627896 1_555
F26 K7 2.664231 1_555
F26 K6 2.698908 1_454
F27 V4 1.893254 1_555
F27 K2 2.627896 1_555
F27 K6 2.664231 1_555
F27 K7 2.698908 1_556
F28 V3 1.893254 1_455
F28 K0 2.627896 1_555
F28 K4 2.664231 1_565
F28 K5 2.698908 1_455
F29 V2 1.893254 1_555
F29 K1 2.627896 1_555
F29 K5 2.664231 1_545
F29 K4 2.698908 1_555
F30 V1 1.893254 1_655
F30 K2 2.627896 1_555
F30 K6 2.664231 1_555
F30 K7 2.698908 1_656
F31 V0 1.893254 1_555
F31 K3 2.627896 1_555
F31 K7 2.664231 1_555
F31 K6 2.698908 1_554
