# generated using pymatgen
data_Na(WO3)8
_symmetry_space_group_name_H-M   'P 1'
_cell_length_a   16.02464200
_cell_length_b   7.57597700
_cell_length_c   7.57663000
_cell_angle_alpha   89.99863125
_cell_angle_beta   90.00000000
_cell_angle_gamma   90.00000000
_symmetry_Int_Tables_number   1
_chemical_formula_structural   Na(WO3)8
_chemical_formula_sum   'Na2 W16 O48'
_cell_volume   919.82045391
_cell_formula_units_Z   2
loop_
 _symmetry_equiv_pos_site_id
 _symmetry_equiv_pos_as_xyz
  1  'x, y, z'
loop_
 _atom_site_type_symbol
 _atom_site_label
 _atom_site_symmetry_multiplicity
 _atom_site_fract_x
 _atom_site_fract_y
 _atom_site_fract_z
 _atom_site_occupancy
  Na  Na0  1  0.01794000  0.24979000  0.25029200  1
  Na  Na1  1  0.51794000  0.75021000  0.74970800  1
  W  W0  1  0.12796000  0.99414200  0.99435500  1
  W  W1  1  0.62796000  0.00585800  0.00564500  1
  W  W2  1  0.37603300  0.99660900  0.99589000  1
  W  W3  1  0.87603300  0.00339100  0.00411000  1
  W  W4  1  0.15995700  0.49628600  0.00380000  1
  W  W5  1  0.40801900  0.49421300  0.00653900  1
  W  W6  1  0.65995700  0.50371400  0.99620000  1
  W  W7  1  0.12751900  0.50635500  0.50619200  1
  W  W8  1  0.90801900  0.50578700  0.99346100  1
  W  W9  1  0.62751900  0.49364500  0.49380800  1
  W  W10  1  0.37560000  0.50379100  0.50439900  1
  W  W11  1  0.87560000  0.49620900  0.49560100  1
  W  W12  1  0.15996300  0.00417000  0.49675600  1
  W  W13  1  0.40801100  0.00620800  0.49372000  1
  W  W14  1  0.65996300  0.99583000  0.50324400  1
  W  W15  1  0.90801100  0.99379200  0.50628000  1
  O  O0  1  0.01697400  0.00333700  0.00292400  1
  O  O1  1  0.26570700  0.99799500  0.99964700  1
  O  O2  1  0.51697400  0.99666300  0.99707600  1
  O  O3  1  0.76570700  0.00200500  0.00035300  1
  O  O4  1  0.39303700  0.02473800  0.74920500  1
  O  O5  1  0.89340000  0.02504200  0.75155400  1
  O  O6  1  0.14149100  0.02772400  0.24925400  1
  O  O7  1  0.64259900  0.02530300  0.25191600  1
  O  O8  1  0.14306700  0.24929200  0.97636700  1
  O  O9  1  0.64273700  0.25138200  0.97507100  1
  O  O10  1  0.39361900  0.24793300  0.02628300  1
  O  O11  1  0.89452100  0.25082900  0.02802700  1
  O  O12  1  0.14266100  0.25104800  0.52411300  1
  O  O13  1  0.64237900  0.24817800  0.52432700  1
  O  O14  1  0.39318500  0.25239300  0.47405000  1
  O  O15  1  0.89424800  0.24878000  0.47175300  1
  O  O16  1  0.39267800  0.47570800  0.75109300  1
  O  O17  1  0.89302000  0.47458700  0.74822200  1
  O  O18  1  0.14115800  0.47275600  0.25117900  1
  O  O19  1  0.64217300  0.47428300  0.24756500  1
  O  O20  1  0.01654300  0.49692500  0.49727800  1
  O  O21  1  0.01898100  0.49704400  0.00308000  1
  O  O22  1  0.51654300  0.50307500  0.50272200  1
  O  O23  1  0.27027700  0.49961200  0.00244800  1
  O  O24  1  0.51898100  0.50295600  0.99692000  1
  O  O25  1  0.77027700  0.50038800  0.99755200  1
  O  O26  1  0.26527800  0.50250500  0.50080400  1
  O  O27  1  0.76527800  0.49749500  0.49919600  1
  O  O28  1  0.14217300  0.52571700  0.75243500  1
  O  O29  1  0.64115800  0.52724400  0.74882100  1
  O  O30  1  0.39302000  0.52541300  0.25177800  1
  O  O31  1  0.89267800  0.52429200  0.24890700  1
  O  O32  1  0.39424800  0.75122000  0.52824700  1
  O  O33  1  0.89318500  0.74760700  0.52595000  1
  O  O34  1  0.14237900  0.75182200  0.47567300  1
  O  O35  1  0.64266100  0.74895200  0.47588700  1
  O  O36  1  0.39452100  0.74917100  0.97197300  1
  O  O37  1  0.89361900  0.75206700  0.97371700  1
  O  O38  1  0.14273700  0.74861800  0.02492900  1
  O  O39  1  0.64306700  0.75070800  0.02363300  1
  O  O40  1  0.14259900  0.97469700  0.74808400  1
  O  O41  1  0.64149100  0.97227600  0.75074600  1
  O  O42  1  0.39340000  0.97495800  0.24844600  1
  O  O43  1  0.89303700  0.97526200  0.25079500  1
  O  O44  1  0.01897900  0.00267200  0.49687700  1
  O  O45  1  0.27028500  0.00077700  0.49791400  1
  O  O46  1  0.51897900  0.99732800  0.50312300  1
  O  O47  1  0.77028500  0.99922300  0.50208600  1
loop_
_geom_bond_atom_site_label_1
_geom_bond_atom_site_label_2
_geom_bond_distance
_geom_bond_site_symmetry_2
Na0 O15 2.596979 1_455
Na0 O11 2.597587 1_455
Na0 O6 2.598128 1_555
Na0 O18 2.598488 1_555
Na0 O44 2.644915 1_555
Na0 O0 2.645607 1_555
Na0 O20 2.647259 1_555
Na0 O21 2.649002 1_555
Na0 O12 2.880740 1_555
Na0 O8 2.885811 1_554
Na0 O43 2.886479 1_445
Na0 O31 2.890346 1_455
Na1 O32 2.596979 1_555
Na1 O36 2.597587 1_555
Na1 O41 2.598128 1_555
Na1 O29 2.598488 1_555
Na1 O46 2.644915 1_555
Na1 O2 2.645607 1_555
Na1 O22 2.647259 1_555
Na1 O24 2.649002 1_555
Na1 O35 2.880740 1_555
Na1 O39 2.885811 1_556
Na1 O4 2.886479 1_565
Na1 O16 2.890346 1_555
O0 W0 1.781058 1_544
O0 W3 2.258547 1_455
O1 W2 1.768195 1_555
O1 W0 2.207903 1_555
O2 W1 1.781058 1_566
O2 W2 2.258547 1_555
O3 W3 1.768195 1_555
O3 W1 2.207903 1_555
O4 W2 1.900778 1_545
O4 W13 1.955580 1_555
O5 W15 1.887950 1_545
O5 W3 1.940596 1_556
O6 W12 1.906814 1_555
O6 W0 1.959998 1_544
O7 W1 1.886357 1_555
O7 W14 1.937347 1_545
O8 W4 1.902089 1_556
O8 W0 1.952869 1_545
O9 W1 1.889345 1_556
O9 W6 1.938101 1_555
O10 W5 1.885965 1_555
O10 W2 1.938498 1_544
O11 W3 1.906487 1_555
O11 W8 1.961188 1_554
O12 W12 1.902113 1_555
O12 W7 1.954080 1_555
O13 W9 1.889036 1_555
O13 W14 1.939031 1_545
O14 W13 1.886057 1_555
O14 W10 1.939007 1_555
O15 W11 1.906771 1_555
O15 W15 1.961845 1_545
O16 W10 1.900976 1_555
O16 W5 1.956004 1_556
O17 W8 1.888423 1_555
O17 W11 1.941185 1_555
O18 W4 1.906701 1_555
O18 W7 1.961058 1_555
O19 W9 1.886128 1_555
O19 W6 1.938563 1_554
O20 W7 1.781066 1_555
O20 W11 2.258603 1_455
O21 W8 1.780851 1_454
O21 W4 2.259104 1_555
O22 W9 1.781066 1_555
O22 W10 2.258603 1_555
O23 W4 1.768048 1_555
O23 W5 2.207863 1_555
O24 W5 1.780851 1_556
O24 W6 2.259104 1_555
O25 W6 1.768048 1_555
O25 W8 2.207863 1_555
O26 W10 1.768107 1_555
O26 W7 2.208109 1_555
O27 W11 1.768107 1_555
O27 W9 2.208109 1_555
O28 W7 1.886128 1_555
O28 W4 1.938563 1_556
O29 W6 1.906701 1_555
O29 W9 1.961058 1_555
O30 W5 1.888423 1_555
O30 W10 1.941185 1_555
O31 W11 1.900976 1_555
O31 W8 1.956004 1_554
O32 W10 1.906771 1_555
O32 W13 1.961845 1_565
O33 W15 1.886057 1_555
O33 W11 1.939007 1_555
O34 W7 1.889036 1_555
O34 W12 1.939031 1_565
O35 W14 1.902113 1_555
O35 W9 1.954080 1_555
O36 W2 1.906487 1_555
O36 W5 1.961188 1_556
O37 W8 1.885965 1_555
O37 W3 1.938498 1_566
O38 W0 1.889345 1_554
O38 W4 1.938101 1_555
O39 W6 1.902089 1_554
O39 W1 1.952869 1_565
O40 W0 1.886357 1_555
O40 W12 1.937347 1_565
O41 W14 1.906814 1_555
O41 W1 1.959998 1_566
O42 W13 1.887950 1_565
O42 W2 1.940596 1_554
O43 W3 1.900778 1_565
O43 W15 1.955580 1_555
O44 W15 1.780920 1_445
O44 W12 2.259247 1_555
O45 W12 1.768079 1_555
O45 W13 2.207622 1_555
O46 W13 1.780920 1_565
O46 W14 2.259247 1_555
O47 W14 1.768079 1_555
O47 W15 2.207622 1_555
