# generated using pymatgen
data_CdCu2(BO3)2
_symmetry_space_group_name_H-M   'P 1'
_cell_length_a   15.24658500
_cell_length_b   3.56526600
_cell_length_c   9.51937655
_cell_angle_alpha   84.35103176
_cell_angle_beta   90.00000000
_cell_angle_gamma   90.00000000
_symmetry_Int_Tables_number   1
_chemical_formula_structural   CdCu2(BO3)2
_chemical_formula_sum   'Cd4 Cu8 B8 O24'
_cell_volume   514.94256671
_cell_formula_units_Z   4
loop_
 _symmetry_equiv_pos_site_id
 _symmetry_equiv_pos_as_xyz
  1  'x, y, z'
loop_
 _atom_site_type_symbol
 _atom_site_label
 _atom_site_symmetry_multiplicity
 _atom_site_fract_x
 _atom_site_fract_y
 _atom_site_fract_z
 _atom_site_occupancy
  Cd  Cd0  1  0.13312000  0.78753300  0.38617900  1
  Cd  Cd1  1  0.63312000  0.21246700  0.11382100  1
  Cd  Cd2  1  0.36688000  0.78753300  0.88617900  1
  Cd  Cd3  1  0.86688000  0.21246700  0.61382100  1
  Cu  Cu0  1  0.04098000  0.31261600  0.13760700  1
  Cu  Cu1  1  0.45902000  0.31261600  0.63760700  1
  Cu  Cu2  1  0.54098000  0.68738400  0.36239300  1
  Cu  Cu3  1  0.95902000  0.68738400  0.86239300  1
  Cu  Cu4  1  0.75352100  0.68031000  0.36437700  1
  Cu  Cu5  1  0.25352100  0.31969000  0.13562300  1
  Cu  Cu6  1  0.74647900  0.68031000  0.86437700  1
  Cu  Cu7  1  0.24647900  0.31969000  0.63562300  1
  B  B0  1  0.34896200  0.78820800  0.41976300  1
  B  B1  1  0.08835700  0.10830300  0.68530800  1
  B  B2  1  0.15103800  0.78820800  0.91976300  1
  B  B3  1  0.65103800  0.21179200  0.58023700  1
  B  B4  1  0.41164300  0.10830300  0.18530800  1
  B  B5  1  0.91164300  0.89169700  0.31469200  1
  B  B6  1  0.84896200  0.21179200  0.08023700  1
  B  B7  1  0.58835700  0.89169700  0.81469200  1
  O  O0  1  0.12447500  0.28226200  0.56312700  1
  O  O1  1  0.85093100  0.68086600  0.76264500  1
  O  O2  1  0.37552500  0.28226200  0.06312700  1
  O  O3  1  0.35093100  0.31913400  0.73735500  1
  O  O4  1  0.49724100  0.04032700  0.21047900  1
  O  O5  1  0.22830800  0.73284400  0.99000900  1
  O  O6  1  0.72830800  0.26715600  0.50999100  1
  O  O7  1  0.99724100  0.95967300  0.28952100  1
  O  O8  1  0.87552500  0.71773800  0.43687300  1
  O  O9  1  0.64906900  0.68086600  0.26264500  1
  O  O10  1  0.84453800  0.99988000  0.21438000  1
  O  O11  1  0.14906900  0.31913400  0.23735500  1
  O  O12  1  0.92921900  0.34583000  0.03171900  1
  O  O13  1  0.00275900  0.04032700  0.71047900  1
  O  O14  1  0.77169200  0.26715600  0.00999100  1
  O  O15  1  0.65546200  0.99988000  0.71438000  1
  O  O16  1  0.34453800  0.00012000  0.28562000  1
  O  O17  1  0.62447500  0.71773800  0.93687300  1
  O  O18  1  0.57078100  0.34583000  0.53171900  1
  O  O19  1  0.27169200  0.73284400  0.49000900  1
  O  O20  1  0.42921900  0.65417000  0.46828100  1
  O  O21  1  0.07078100  0.65417000  0.96828100  1
  O  O22  1  0.15546200  0.00012000  0.78562000  1
  O  O23  1  0.50275900  0.95967300  0.78952100  1
loop_
_geom_bond_atom_site_label_1
_geom_bond_atom_site_label_2
_geom_bond_distance
_geom_bond_site_symmetry_2
Cd0 O11 2.264896 1_565
Cd0 O11 2.306676 1_555
Cd0 O7 2.324654 1_455
Cd0 O19 2.332535 1_555
Cd0 O0 2.345732 1_555
Cd0 O0 2.559440 1_565
Cd1 O9 2.264896 1_545
Cd1 O9 2.306676 1_555
Cd1 O4 2.324654 1_555
Cd1 O14 2.332535 1_555
Cd1 O17 2.345732 1_554
Cd1 O17 2.559440 1_544
Cd2 O3 2.264896 1_565
Cd2 O3 2.306676 1_555
Cd2 O23 2.324654 1_555
Cd2 O5 2.332535 1_555
Cd2 O2 2.345732 1_556
Cd2 O2 2.559440 1_566
Cd3 O1 2.264896 1_545
Cd3 O1 2.306676 1_555
Cd3 O13 2.324654 1_655
Cd3 O6 2.332535 1_555
Cd3 O8 2.345732 1_555
Cd3 O8 2.559440 1_545
Cu0 O11 1.903253 1_555
Cu0 O7 1.939372 1_445
Cu0 O21 1.975107 1_554
Cu0 O12 1.977395 1_455
Cu1 O3 1.903253 1_555
Cu1 O23 1.939372 1_545
Cu1 O20 1.975107 1_555
Cu1 O18 1.977395 1_555
Cu2 O9 1.903253 1_555
Cu2 O4 1.939372 1_565
Cu2 O18 1.975107 1_555
Cu2 O20 1.977395 1_555
Cu3 O1 1.903253 1_555
Cu3 O13 1.939372 1_665
Cu3 O12 1.975107 1_556
Cu3 O21 1.977395 1_655
Cu4 O9 1.863772 1_555
Cu4 O6 1.958819 1_555
Cu4 O8 1.993071 1_555
Cu4 O10 2.223149 1_555
Cu4 O6 2.649096 1_565
Cu5 O11 1.863772 1_555
Cu5 O5 1.958819 1_554
Cu5 O2 1.993071 1_555
Cu5 O16 2.223149 1_555
Cu5 O5 2.649096 1_544
Cu6 O1 1.863772 1_555
Cu6 O14 1.958819 1_556
Cu6 O17 1.993071 1_555
Cu6 O15 2.223149 1_555
Cu6 O14 2.649096 1_566
Cu7 O3 1.863772 1_555
Cu7 O19 1.958819 1_555
Cu7 O0 1.993071 1_555
Cu7 O22 2.223149 1_555
Cu7 O19 2.649096 1_545
B0 O19 1.359434 1_555
B0 O20 1.376787 1_555
B0 O16 1.419878 1_565
B1 O13 1.344598 1_555
B1 O0 1.377920 1_555
B1 O22 1.426494 1_555
B2 O5 1.359434 1_555
B2 O21 1.376787 1_555
B2 O22 1.419878 1_565
B3 O6 1.359434 1_555
B3 O18 1.376787 1_555
B3 O15 1.419878 1_545
B4 O4 1.344598 1_555
B4 O2 1.377920 1_555
B4 O16 1.426494 1_555
B5 O7 1.344598 1_555
B5 O8 1.377920 1_555
B5 O10 1.426494 1_555
B6 O14 1.359434 1_555
B6 O12 1.376787 1_555
B6 O10 1.419878 1_545
B7 O23 1.344598 1_555
B7 O17 1.377920 1_555
B7 O15 1.426494 1_555
