# generated using pymatgen
data_Sb4IrC5ClO5F22
_symmetry_space_group_name_H-M   'P 1'
_cell_length_a   12.83114400
_cell_length_b   9.88848900
_cell_length_c   10.78011869
_cell_angle_alpha   73.42816937
_cell_angle_beta   90.00000000
_cell_angle_gamma   90.00000000
_symmetry_Int_Tables_number   1
_chemical_formula_structural   Sb4IrC5ClO5F22
_chemical_formula_sum   'Sb8 Ir2 C10 Cl2 O10 F44'
_cell_volume   1310.97427788
_cell_formula_units_Z   2
loop_
 _symmetry_equiv_pos_site_id
 _symmetry_equiv_pos_as_xyz
  1  'x, y, z'
loop_
 _atom_site_type_symbol
 _atom_site_label
 _atom_site_symmetry_multiplicity
 _atom_site_fract_x
 _atom_site_fract_y
 _atom_site_fract_z
 _atom_site_occupancy
  Sb  Sb0  1  0.62219300  0.25909100  0.96765600  1
  Sb  Sb1  1  0.36683300  0.24120000  0.50843200  1
  Sb  Sb2  1  0.86683300  0.75880000  0.49156800  1
  Sb  Sb3  1  0.68246300  0.83144700  0.76941100  1
  Sb  Sb4  1  0.18246300  0.16855300  0.23058900  1
  Sb  Sb5  1  0.12219300  0.74090900  0.03234400  1
  Sb  Sb6  1  0.28291600  0.65164400  0.74411500  1
  Sb  Sb7  1  0.78291600  0.34835600  0.25588500  1
  Ir  Ir0  1  0.48887300  0.74145100  0.24622700  1
  Ir  Ir1  1  0.98887300  0.25854900  0.75377300  1
  C  C0  1  0.96593900  0.41520600  0.83178500  1
  C  C1  1  0.13655500  0.23072900  0.81785100  1
  C  C2  1  0.46593900  0.58479400  0.16821500  1
  C  C3  1  0.34447100  0.73078100  0.32015800  1
  C  C4  1  0.43941900  0.88463900  0.08471700  1
  C  C5  1  0.63655500  0.76927100  0.18214900  1
  C  C6  1  0.93941900  0.11536100  0.91528300  1
  C  C7  1  0.84447100  0.26921900  0.67984200  1
  C  C8  1  0.04004000  0.38612900  0.58457800  1
  C  C9  1  0.54004000  0.61387100  0.41542200  1
  Cl  Cl0  1  0.01234200  0.07206300  0.65908500  1
  Cl  Cl1  1  0.51234200  0.92793700  0.34091500  1
  O  O0  1  0.56766800  0.54412300  0.51234400  1
  O  O1  1  0.45417000  0.49727700  0.12042000  1
  O  O2  1  0.76490900  0.27005400  0.63401100  1
  O  O3  1  0.26490900  0.72994600  0.36598900  1
  O  O4  1  0.71993400  0.78567200  0.14642500  1
  O  O5  1  0.41208100  0.96695600  0.99431800  1
  O  O6  1  0.06766800  0.45587700  0.48765600  1
  O  O7  1  0.95417000  0.50272300  0.87958000  1
  O  O8  1  0.91208100  0.03304400  0.00568200  1
  O  O9  1  0.21993400  0.21432800  0.85357500  1
  F  F0  1  0.77466100  0.95705400  0.82224200  1
  F  F1  1  0.49109900  0.23923200  0.41354500  1
  F  F2  1  0.26290300  0.70160800  0.09741200  1
  F  F3  1  0.76290300  0.29839200  0.90258800  1
  F  F4  1  0.08513900  0.55075100  0.11012000  1
  F  F5  1  0.17018400  0.92261100  0.93351600  1
  F  F6  1  0.72987600  0.75184300  0.42301000  1
  F  F7  1  0.67018400  0.07738900  0.06648400  1
  F  F8  1  0.21825600  0.81258900  0.63295600  1
  F  F9  1  0.92846400  0.68474800  0.36548000  1
  F  F10  1  0.38142300  0.05028500  0.60503100  1
  F  F11  1  0.22987600  0.24815700  0.57699000  1
  F  F12  1  0.10454800  0.28742500  0.30605100  1
  F  F13  1  0.71825600  0.18741100  0.36704400  1
  F  F14  1  0.60454800  0.71257500  0.69394900  1
  F  F15  1  0.58513900  0.44924900  0.88988000  1
  F  F16  1  0.87077700  0.23632700  0.18356900  1
  F  F17  1  0.88142300  0.94971500  0.39496900  1
  F  F18  1  0.99228600  0.77930300  0.94552700  1
  F  F19  1  0.79498300  0.83742400  0.62725200  1
  F  F20  1  0.37527600  0.63217000  0.61220200  1
  F  F21  1  0.62195500  0.99129500  0.65126800  1
  F  F22  1  0.26015100  0.32404500  0.12963100  1
  F  F23  1  0.67093300  0.33076300  0.12006800  1
  F  F24  1  0.49228600  0.22069700  0.05447300  1
  F  F25  1  0.87527600  0.36783000  0.38779800  1
  F  F26  1  0.17683900  0.53364700  0.70094400  1
  F  F27  1  0.84278400  0.57142400  0.60543400  1
  F  F28  1  0.08342800  0.80698800  0.17390300  1
  F  F29  1  0.12195500  0.00870500  0.34873200  1
  F  F30  1  0.29498300  0.16257600  0.37274800  1
  F  F31  1  0.58342800  0.19301200  0.82609700  1
  F  F32  1  0.76015100  0.67595500  0.87036900  1
  F  F33  1  0.82990700  0.51208400  0.12950100  1
  F  F34  1  0.58780100  0.82087500  0.90970300  1
  F  F35  1  0.99109900  0.76076800  0.58645500  1
  F  F36  1  0.27466100  0.04294600  0.17775800  1
  F  F37  1  0.34278400  0.42857600  0.39456600  1
  F  F38  1  0.37077700  0.76367300  0.81643100  1
  F  F39  1  0.42846400  0.31525200  0.63452000  1
  F  F40  1  0.17093300  0.66923700  0.87993200  1
  F  F41  1  0.67683900  0.46635300  0.29905600  1
  F  F42  1  0.08780100  0.17912500  0.09029700  1
  F  F43  1  0.32990700  0.48791600  0.87049900  1
loop_
_geom_bond_atom_site_label_1
_geom_bond_atom_site_label_2
_geom_bond_distance
_geom_bond_site_symmetry_2
C0 O7 1.136468 1_555
C0 Ir1 1.984110 1_555
C1 O9 1.132942 1_555
C1 Ir1 2.008780 1_455
C2 O1 1.136468 1_555
C2 Ir0 1.984110 1_555
C3 O3 1.133145 1_555
C3 Ir0 2.007829 1_555
C4 O5 1.132610 1_554
C4 Ir0 2.008140 1_555
C5 O4 1.132942 1_555
C5 Ir0 2.008780 1_555
C6 O8 1.132610 1_556
C6 Ir1 2.008140 1_555
C7 O2 1.133145 1_555
C7 Ir1 2.007829 1_555
C8 O6 1.132238 1_555
C8 Ir1 2.009173 1_455
C9 O0 1.132238 1_555
C9 Ir0 2.009173 1_555
Cl0 Ir1 2.367895 1_455
Cl1 Ir0 2.367895 1_555
F0 Sb3 1.915750 1_555
F1 Sb1 1.897471 1_555
F2 Sb5 1.935788 1_555
F3 Sb0 1.935788 1_555
F4 Sb5 1.888253 1_555
F5 Sb5 1.910658 1_556
F6 Sb2 1.915230 1_555
F7 Sb0 1.910658 1_554
F8 Sb6 1.889254 1_555
F9 Sb2 1.891263 1_555
F10 Sb1 1.887338 1_555
F11 Sb1 1.915230 1_555
F12 Sb4 1.894314 1_555
F13 Sb7 1.889254 1_555
F14 Sb3 1.894314 1_555
F15 Sb0 1.888253 1_555
F16 Sb7 1.896977 1_555
F17 Sb2 1.887338 1_555
F18 Sb5 1.896250 1_656
F19 Sb2 2.059746 1_555
F19 Sb3 2.093991 1_555
F20 Sb6 1.902605 1_555
F21 Sb3 1.890752 1_555
F22 Sb4 1.894130 1_555
F23 Sb0 2.063290 1_554
F23 Sb7 2.093756 1_555
F24 Sb0 1.896250 1_554
F25 Sb7 1.902605 1_555
F26 Sb6 1.934001 1_555
F27 Sb2 1.933308 1_555
F28 Sb5 1.889950 1_555
F29 Sb4 1.890752 1_555
F30 Sb1 2.059746 1_555
F30 Sb4 2.093991 1_555
F31 Sb0 1.889950 1_555
F32 Sb3 1.894130 1_555
F33 Sb7 1.892812 1_555
F34 Sb3 1.919191 1_555
F35 Sb2 1.897471 1_555
F36 Sb4 1.915750 1_555
F37 Sb1 1.933308 1_555
F38 Sb6 1.896977 1_555
F39 Sb1 1.891263 1_555
F40 Sb5 2.063290 1_556
F40 Sb6 2.093756 1_555
F41 Sb7 1.934001 1_555
F42 Sb4 1.919191 1_555
F43 Sb6 1.892812 1_555
