# generated using pymatgen
data_SnS2(O3F)2
_symmetry_space_group_name_H-M   'P 1'
_cell_length_a   9.86739900
_cell_length_b   5.40238100
_cell_length_c   14.15846718
_cell_angle_alpha   69.72561036
_cell_angle_beta   90.00000000
_cell_angle_gamma   90.00000000
_symmetry_Int_Tables_number   1
_chemical_formula_structural   SnS2(O3F)2
_chemical_formula_sum   'Sn4 S8 O24 F8'
_cell_volume   707.99030170
_cell_formula_units_Z   4
loop_
 _symmetry_equiv_pos_site_id
 _symmetry_equiv_pos_as_xyz
  1  'x, y, z'
loop_
 _atom_site_type_symbol
 _atom_site_label
 _atom_site_symmetry_multiplicity
 _atom_site_fract_x
 _atom_site_fract_y
 _atom_site_fract_z
 _atom_site_occupancy
  Sn  Sn0  1  0.69371900  0.97164000  0.67882800  1
  Sn  Sn1  1  0.30628100  0.02836000  0.32117200  1
  Sn  Sn2  1  0.80628100  0.97164000  0.17882800  1
  Sn  Sn3  1  0.19371900  0.02836000  0.82117200  1
  S  S0  1  0.31653800  0.17105500  0.56149800  1
  S  S1  1  0.52302000  0.53385600  0.19103400  1
  S  S2  1  0.97698000  0.53385600  0.69103400  1
  S  S3  1  0.02302000  0.46614400  0.30896600  1
  S  S4  1  0.68346200  0.82894500  0.43850200  1
  S  S5  1  0.81653800  0.82894500  0.93850200  1
  S  S6  1  0.18346200  0.17105500  0.06149800  1
  S  S7  1  0.47698000  0.46614400  0.80896600  1
  O  O0  1  0.73409000  0.84001100  0.53386700  1
  O  O1  1  0.44461500  0.04204200  0.59534900  1
  O  O2  1  0.71059900  0.87754000  0.86234300  1
  O  O3  1  0.21059900  0.12246000  0.63765700  1
  O  O4  1  0.10210000  0.27127300  0.28177400  1
  O  O5  1  0.26591000  0.15998900  0.46613300  1
  O  O6  1  0.59746800  0.54589400  0.74382800  1
  O  O7  1  0.94461500  0.95795800  0.90465100  1
  O  O8  1  0.90253200  0.54589400  0.24382800  1
  O  O9  1  0.40253200  0.45410600  0.25617200  1
  O  O10  1  0.23409000  0.15998900  0.96613300  1
  O  O11  1  0.55538500  0.95795800  0.40465100  1
  O  O12  1  0.60210000  0.72872700  0.21822600  1
  O  O13  1  0.40334000  0.67689000  0.82565700  1
  O  O14  1  0.28940100  0.12246000  0.13765700  1
  O  O15  1  0.59666000  0.32311000  0.17434300  1
  O  O16  1  0.09666000  0.67689000  0.32565700  1
  O  O17  1  0.76591000  0.84001100  0.03386700  1
  O  O18  1  0.09746800  0.45410600  0.75617200  1
  O  O19  1  0.90334000  0.32311000  0.67434300  1
  O  O20  1  0.39790000  0.27127300  0.78177400  1
  O  O21  1  0.89790000  0.72872700  0.71822600  1
  O  O22  1  0.78940100  0.87754000  0.36234300  1
  O  O23  1  0.05538500  0.04204200  0.09534900  1
  F  F0  1  0.84888600  0.51853200  0.96606400  1
  F  F1  1  0.96005300  0.29986900  0.41552300  1
  F  F2  1  0.34888600  0.48146800  0.53393600  1
  F  F3  1  0.53994700  0.29986900  0.91552300  1
  F  F4  1  0.15111400  0.48146800  0.03393600  1
  F  F5  1  0.65111400  0.51853200  0.46606400  1
  F  F6  1  0.46005300  0.70013100  0.08447700  1
  F  F7  1  0.03994700  0.70013100  0.58447700  1
loop_
_geom_bond_atom_site_label_1
_geom_bond_atom_site_label_2
_geom_bond_distance
_geom_bond_site_symmetry_2
O0 S4 1.460199 1_555
O0 Sn0 2.426582 1_555
O1 S0 1.442615 1_555
O1 Sn0 2.696644 1_545
O2 S5 1.458834 1_555
O2 Sn0 2.474244 1_555
O3 S0 1.458834 1_555
O3 Sn3 2.474244 1_555
O4 S3 1.465035 1_555
O4 Sn1 2.363293 1_555
O5 S0 1.460199 1_555
O5 Sn1 2.426582 1_555
O6 S7 1.474549 1_555
O6 Sn0 2.360551 1_555
O7 S5 1.442615 1_555
O7 Sn3 2.696644 1_665
O8 S3 1.474549 1_655
O8 Sn2 2.360551 1_555
O9 S1 1.474549 1_555
O9 Sn1 2.360551 1_555
O10 S6 1.460199 1_556
O10 Sn3 2.426582 1_555
O11 S4 1.442615 1_555
O11 Sn1 2.696644 1_565
O12 S1 1.465035 1_555
O12 Sn2 2.363293 1_555
O13 S7 1.437554 1_555
O13 Sn3 2.793592 1_565
O14 S6 1.458834 1_555
O14 Sn1 2.474244 1_555
O15 S1 1.437554 1_555
O15 Sn2 2.793592 1_545
O16 S3 1.437554 1_555
O16 Sn1 2.793592 1_565
O17 S5 1.460199 1_554
O17 Sn2 2.426582 1_555
O18 S2 1.474549 1_455
O18 Sn3 2.360551 1_555
O19 S2 1.437554 1_555
O19 Sn0 2.793592 1_545
O20 S7 1.465035 1_555
O20 Sn3 2.363293 1_555
O21 S2 1.465035 1_555
O21 Sn0 2.363293 1_555
O22 S4 1.458834 1_555
O22 Sn2 2.474244 1_555
O23 S6 1.442615 1_555
O23 Sn2 2.696644 1_445
F0 S5 1.616435 1_555
F1 S3 1.590554 1_655
F2 S0 1.616435 1_555
F3 S7 1.590554 1_555
F4 S6 1.616435 1_555
F5 S4 1.616435 1_555
F6 S1 1.590554 1_555
F7 S2 1.590554 1_455
