# generated using pymatgen
data_Rb3(FeS2)2
_symmetry_space_group_name_H-M   'P 1'
_cell_length_a   7.42496522
_cell_length_b   11.21447541
_cell_length_c   12.07864691
_cell_angle_alpha   90.00000000
_cell_angle_beta   90.00000000
_cell_angle_gamma   90.00000000
_symmetry_Int_Tables_number   1
_chemical_formula_structural   Rb3(FeS2)2
_chemical_formula_sum   'Rb12 Fe8 S16'
_cell_volume   1005.75377788
_cell_formula_units_Z   4
loop_
 _symmetry_equiv_pos_site_id
 _symmetry_equiv_pos_as_xyz
  1  'x, y, z'
loop_
 _atom_site_type_symbol
 _atom_site_label
 _atom_site_symmetry_multiplicity
 _atom_site_fract_x
 _atom_site_fract_y
 _atom_site_fract_z
 _atom_site_occupancy
  Rb  Rb0  1  0.06783096  0.42787045  0.13833573  1
  Rb  Rb1  1  0.56783096  0.07212955  0.36166427  1
  Rb  Rb2  1  0.93216904  0.92787045  0.86166427  1
  Rb  Rb3  1  0.43216904  0.57212955  0.63833573  1
  Rb  Rb4  1  0.93216904  0.57212955  0.86166427  1
  Rb  Rb5  1  0.43216904  0.92787045  0.63833573  1
  Rb  Rb6  1  0.06783096  0.07212955  0.13833573  1
  Rb  Rb7  1  0.56783096  0.42787045  0.36166427  1
  Rb  Rb8  1  0.09124124  0.25000000  0.77279579  1
  Rb  Rb9  1  0.59124124  0.25000000  0.72720421  1
  Rb  Rb10  1  0.90875876  0.75000000  0.22720421  1
  Rb  Rb11  1  0.40875876  0.75000000  0.27279579  1
  Fe  Fe0  1  0.05032616  0.36863564  0.47151281  1
  Fe  Fe1  1  0.55032616  0.13136436  0.02848719  1
  Fe  Fe2  1  0.94967384  0.86863564  0.52848719  1
  Fe  Fe3  1  0.44967384  0.63136436  0.97151281  1
  Fe  Fe4  1  0.94967384  0.63136436  0.52848719  1
  Fe  Fe5  1  0.44967384  0.86863564  0.97151281  1
  Fe  Fe6  1  0.05032616  0.13136436  0.47151281  1
  Fe  Fe7  1  0.55032616  0.36863564  0.02848719  1
  S  S0  1  0.14235297  0.55280022  0.39428713  1
  S  S1  1  0.64235297  0.94719978  0.10571287  1
  S  S2  1  0.85764703  0.05280022  0.60571287  1
  S  S3  1  0.35764703  0.44719978  0.89428713  1
  S  S4  1  0.85764703  0.44719978  0.60571287  1
  S  S5  1  0.35764703  0.05280022  0.89428713  1
  S  S6  1  0.14235297  0.94719978  0.39428713  1
  S  S7  1  0.64235297  0.55280022  0.10571287  1
  S  S8  1  0.28792982  0.25000000  0.53167819  1
  S  S9  1  0.78792982  0.25000000  0.96832181  1
  S  S10  1  0.71207018  0.75000000  0.46832181  1
  S  S11  1  0.21207018  0.75000000  0.03167819  1
  S  S12  1  0.41279519  0.25000000  0.15775132  1
  S  S13  1  0.91279519  0.25000000  0.34224868  1
  S  S14  1  0.58720481  0.75000000  0.84224868  1
  S  S15  1  0.08720481  0.75000000  0.65775132  1
loop_
_geom_bond_atom_site_label_1
_geom_bond_atom_site_label_2
_geom_bond_distance
_geom_bond_site_symmetry_2
Rb0 S12 3.254907 1_555
Rb0 S13 3.371998 1_455
Rb0 S0 3.438995 1_555
Rb0 S7 3.478278 1_455
Rb0 S9 3.537667 1_454
Rb0 S3 3.656083 1_554
Rb1 S13 3.254907 1_555
Rb1 S12 3.371998 1_555
Rb1 S1 3.438995 1_545
Rb1 S6 3.478278 1_545
Rb1 S8 3.537667 1_555
Rb1 S2 3.656083 1_555
Rb2 S14 3.254907 1_555
Rb2 S15 3.371998 1_655
Rb2 S2 3.438995 1_565
Rb2 S5 3.478278 1_665
Rb2 S11 3.537667 1_656
Rb2 S1 3.656083 1_556
Rb3 S15 3.254907 1_555
Rb3 S14 3.371998 1_555
Rb3 S3 3.438995 1_555
Rb3 S4 3.478278 1_555
Rb3 S10 3.537667 1_555
Rb3 S0 3.656083 1_555
Rb4 S14 3.254907 1_555
Rb4 S15 3.371998 1_655
Rb4 S4 3.438995 1_555
Rb4 S3 3.478278 1_655
Rb4 S11 3.537667 1_656
Rb4 S7 3.656083 1_556
Rb5 S15 3.254907 1_555
Rb5 S14 3.371998 1_555
Rb5 S5 3.438995 1_565
Rb5 S2 3.478278 1_565
Rb5 S10 3.537667 1_555
Rb5 S6 3.656083 1_555
Rb6 S12 3.254907 1_555
Rb6 S13 3.371998 1_455
Rb6 S6 3.438995 1_545
Rb6 S1 3.478278 1_445
Rb6 S9 3.537667 1_454
Rb6 S5 3.656083 1_554
Rb7 S13 3.254907 1_555
Rb7 S12 3.371998 1_555
Rb7 S7 3.438995 1_555
Rb7 S0 3.478278 1_555
Rb7 S8 3.537667 1_555
Rb7 S4 3.656083 1_555
Rb8 S8 3.258022 1_555
Rb8 S9 3.263346 1_455
Rb8 S3 3.310107 1_555
Rb8 S5 3.310107 1_555
Rb8 S2 3.460031 1_455
Rb8 S4 3.460031 1_455
Rb9 S9 3.258022 1_555
Rb9 S8 3.263346 1_555
Rb9 S4 3.310107 1_555
Rb9 S2 3.310107 1_555
Rb9 S5 3.460031 1_555
Rb9 S3 3.460031 1_555
Rb10 S10 3.258022 1_555
Rb10 S11 3.263346 1_655
Rb10 S7 3.310107 1_555
Rb10 S1 3.310107 1_555
Rb10 S0 3.460031 1_655
Rb10 S6 3.460031 1_655
Rb11 S11 3.258022 1_555
Rb11 S10 3.263346 1_555
Rb11 S0 3.310107 1_555
Rb11 S6 3.310107 1_555
Rb11 S7 3.460031 1_555
Rb11 S1 3.460031 1_555
Fe0 S13 2.291420 1_455
Fe0 S8 2.326064 1_555
Fe0 S4 2.334625 1_455
Fe0 S0 2.366955 1_555
Fe1 S12 2.291420 1_555
Fe1 S9 2.326064 1_554
Fe1 S5 2.334625 1_554
Fe1 S1 2.366955 1_545
Fe2 S15 2.291420 1_655
Fe2 S10 2.326064 1_555
Fe2 S6 2.334625 1_655
Fe2 S2 2.366955 1_565
Fe3 S14 2.291420 1_555
Fe3 S11 2.326064 1_556
Fe3 S7 2.334625 1_556
Fe3 S3 2.366955 1_555
Fe4 S15 2.291420 1_655
Fe4 S10 2.326064 1_555
Fe4 S0 2.334625 1_655
Fe4 S4 2.366955 1_555
Fe5 S14 2.291420 1_555
Fe5 S11 2.326064 1_556
Fe5 S1 2.334625 1_556
Fe5 S5 2.366955 1_565
Fe6 S13 2.291420 1_455
Fe6 S8 2.326064 1_555
Fe6 S2 2.334625 1_455
Fe6 S6 2.366955 1_545
Fe7 S12 2.291420 1_555
Fe7 S9 2.326064 1_554
Fe7 S3 2.334625 1_554
Fe7 S7 2.366955 1_555
