# generated using pymatgen
data_Sr2Cu(BO3)2
_symmetry_space_group_name_H-M   'P 1'
_cell_length_a   7.81744500
_cell_length_b   10.84098600
_cell_length_c   13.70343300
_cell_angle_alpha   90.00000000
_cell_angle_beta   90.00000000
_cell_angle_gamma   90.00000000
_symmetry_Int_Tables_number   1
_chemical_formula_structural   Sr2Cu(BO3)2
_chemical_formula_sum   'Sr16 Cu8 B16 O48'
_cell_volume   1161.34966434
_cell_formula_units_Z   8
loop_
 _symmetry_equiv_pos_site_id
 _symmetry_equiv_pos_as_xyz
  1  'x, y, z'
loop_
 _atom_site_type_symbol
 _atom_site_label
 _atom_site_symmetry_multiplicity
 _atom_site_fract_x
 _atom_site_fract_y
 _atom_site_fract_z
 _atom_site_occupancy
  Sr  Sr0  1  0.38564100  0.25000000  0.95480700  1
  Sr  Sr1  1  0.66421200  0.47655100  0.78347800  1
  Sr  Sr2  1  0.83578800  0.97655100  0.28347800  1
  Sr  Sr3  1  0.16421200  0.02344900  0.71652200  1
  Sr  Sr4  1  0.33578800  0.97655100  0.21652200  1
  Sr  Sr5  1  0.66421200  0.02344900  0.78347800  1
  Sr  Sr6  1  0.33578800  0.52344900  0.21652200  1
  Sr  Sr7  1  0.50000000  0.50000000  0.50000000  1
  Sr  Sr8  1  0.61435900  0.75000000  0.04519300  1
  Sr  Sr9  1  0.16421200  0.47655100  0.71652200  1
  Sr  Sr10  1  0.00000000  0.00000000  0.00000000  1
  Sr  Sr11  1  0.50000000  0.00000000  0.50000000  1
  Sr  Sr12  1  0.83578800  0.52344900  0.28347800  1
  Sr  Sr13  1  0.00000000  0.50000000  0.00000000  1
  Sr  Sr14  1  0.11435900  0.75000000  0.45480700  1
  Sr  Sr15  1  0.88564100  0.25000000  0.54519300  1
  Cu  Cu0  1  0.53145800  0.25000000  0.20001000  1
  Cu  Cu1  1  0.96854200  0.75000000  0.70001000  1
  Cu  Cu2  1  0.80718400  0.25000000  0.92996500  1
  Cu  Cu3  1  0.46854200  0.75000000  0.79999000  1
  Cu  Cu4  1  0.69281600  0.75000000  0.42996500  1
  Cu  Cu5  1  0.03145800  0.25000000  0.29999000  1
  Cu  Cu6  1  0.30718400  0.25000000  0.57003500  1
  Cu  Cu7  1  0.19281600  0.75000000  0.07003500  1
  B  B0  1  0.63167800  0.43708200  0.06763000  1
  B  B1  1  0.98416300  0.25000000  0.78847400  1
  B  B2  1  0.92848200  0.75000000  0.87164700  1
  B  B3  1  0.36832200  0.56291800  0.93237000  1
  B  B4  1  0.57151800  0.25000000  0.37164700  1
  B  B5  1  0.36832200  0.93708200  0.93237000  1
  B  B6  1  0.63167800  0.06291800  0.06763000  1
  B  B7  1  0.86832200  0.93708200  0.56763000  1
  B  B8  1  0.48416300  0.25000000  0.71152600  1
  B  B9  1  0.01583700  0.75000000  0.21152600  1
  B  B10  1  0.86832200  0.56291800  0.56763000  1
  B  B11  1  0.13167800  0.06291800  0.43237000  1
  B  B12  1  0.42848200  0.75000000  0.62835300  1
  B  B13  1  0.07151800  0.25000000  0.12835300  1
  B  B14  1  0.13167800  0.43708200  0.43237000  1
  B  B15  1  0.51583700  0.75000000  0.28847400  1
  O  O0  1  0.56183300  0.64068900  0.33544300  1
  O  O1  1  0.19896300  0.39892400  0.52202000  1
  O  O2  1  0.79689000  0.03581300  0.61457400  1
  O  O3  1  0.01301100  0.87600600  0.60389700  1
  O  O4  1  0.06896500  0.25000000  0.70192700  1
  O  O5  1  0.48698900  0.12399400  0.10389700  1
  O  O6  1  0.30103700  0.89892400  0.02202000  1
  O  O7  1  0.06183300  0.64068900  0.16455700  1
  O  O8  1  0.93103500  0.75000000  0.29807300  1
  O  O9  1  0.06205500  0.14103900  0.18466700  1
  O  O10  1  0.29689000  0.46418700  0.88542600  1
  O  O11  1  0.08621600  0.25000000  0.02995700  1
  O  O12  1  0.19896300  0.10107600  0.52202000  1
  O  O13  1  0.80103700  0.60107600  0.47798000  1
  O  O14  1  0.93816700  0.14068900  0.83544300  1
  O  O15  1  0.56205500  0.14103900  0.31533300  1
  O  O16  1  0.51301100  0.62399400  0.89610300  1
  O  O17  1  0.56896500  0.25000000  0.79807300  1
  O  O18  1  0.93816700  0.35931100  0.83544300  1
  O  O19  1  0.56183300  0.85931100  0.33544300  1
  O  O20  1  0.06183300  0.85931100  0.16455700  1
  O  O21  1  0.98698900  0.12399400  0.39610300  1
  O  O22  1  0.56205500  0.35896100  0.31533300  1
  O  O23  1  0.98698900  0.37600600  0.39610300  1
  O  O24  1  0.01301100  0.62399400  0.60389700  1
  O  O25  1  0.30103700  0.60107600  0.02202000  1
  O  O26  1  0.48698900  0.37600600  0.10389700  1
  O  O27  1  0.58621600  0.25000000  0.47004300  1
  O  O28  1  0.69896300  0.10107600  0.97798000  1
  O  O29  1  0.91378400  0.75000000  0.97004300  1
  O  O30  1  0.20311000  0.53581300  0.38542600  1
  O  O31  1  0.43816700  0.14068900  0.66455700  1
  O  O32  1  0.69896300  0.39892400  0.97798000  1
  O  O33  1  0.70311000  0.96418700  0.11457400  1
  O  O34  1  0.43816700  0.35931100  0.66455700  1
  O  O35  1  0.93794500  0.85896100  0.81533300  1
  O  O36  1  0.43103500  0.75000000  0.20192700  1
  O  O37  1  0.29689000  0.03581300  0.88542600  1
  O  O38  1  0.20311000  0.96418700  0.38542600  1
  O  O39  1  0.93794500  0.64103900  0.81533300  1
  O  O40  1  0.51301100  0.87600600  0.89610300  1
  O  O41  1  0.06205500  0.35896100  0.18466700  1
  O  O42  1  0.80103700  0.89892400  0.47798000  1
  O  O43  1  0.70311000  0.53581300  0.11457400  1
  O  O44  1  0.43794500  0.85896100  0.68466700  1
  O  O45  1  0.41378400  0.75000000  0.52995700  1
  O  O46  1  0.43794500  0.64103900  0.68466700  1
  O  O47  1  0.79689000  0.46418700  0.61457400  1
loop_
_geom_bond_atom_site_label_1
_geom_bond_atom_site_label_2
_geom_bond_distance
_geom_bond_site_symmetry_2
Cu0 O5 1.929140 1_555
Cu0 O26 1.929140 1_555
Cu0 O22 1.987452 1_555
Cu0 O15 1.987452 1_555
Cu1 O3 1.929140 1_655
Cu1 O24 1.929140 1_655
Cu1 O39 1.987452 1_555
Cu1 O35 1.987452 1_555
Cu2 O32 1.937838 1_555
Cu2 O28 1.937838 1_555
Cu2 O18 2.032372 1_555
Cu2 O14 2.032372 1_555
Cu2 O11 2.575982 1_656
Cu2 O17 2.595116 1_555
Cu3 O40 1.929140 1_555
Cu3 O16 1.929140 1_555
Cu3 O46 1.987452 1_555
Cu3 O44 1.987452 1_555
Cu4 O42 1.937838 1_555
Cu4 O13 1.937838 1_555
Cu4 O19 2.032372 1_555
Cu4 O0 2.032372 1_555
Cu4 O45 2.575982 1_555
Cu4 O8 2.595116 1_555
Cu5 O21 1.929140 1_455
Cu5 O23 1.929140 1_455
Cu5 O41 1.987452 1_555
Cu5 O9 1.987452 1_555
Cu6 O1 1.937838 1_555
Cu6 O12 1.937838 1_555
Cu6 O34 2.032372 1_555
Cu6 O31 2.032372 1_555
Cu6 O27 2.575982 1_555
Cu6 O4 2.595116 1_555
Cu7 O6 1.937838 1_555
Cu7 O25 1.937838 1_555
Cu7 O20 2.032372 1_555
Cu7 O7 2.032372 1_555
Cu7 O29 2.575982 1_454
Cu7 O36 2.595116 1_555
B0 O43 1.367950 1_555
B0 O32 1.398942 1_554
B0 O26 1.401707 1_555
B1 O4 1.358697 1_655
B1 O18 1.395664 1_555
B1 O14 1.395664 1_555
B2 O29 1.353250 1_555
B2 O35 1.412914 1_555
B2 O39 1.412914 1_555
B3 O10 1.367950 1_555
B3 O25 1.398942 1_556
B3 O16 1.401707 1_555
B4 O27 1.353250 1_555
B4 O22 1.412914 1_555
B4 O15 1.412914 1_555
B5 O37 1.367950 1_565
B5 O6 1.398942 1_556
B5 O40 1.401707 1_555
B6 O33 1.367950 1_545
B6 O28 1.398942 1_554
B6 O5 1.401707 1_555
B7 O2 1.367950 1_565
B7 O42 1.398942 1_555
B7 O3 1.401707 1_655
B8 O17 1.358697 1_555
B8 O34 1.395664 1_555
B8 O31 1.395664 1_555
B9 O8 1.358697 1_455
B9 O20 1.395664 1_555
B9 O7 1.395664 1_555
B10 O47 1.367950 1_555
B10 O13 1.398942 1_555
B10 O24 1.401707 1_655
B11 O38 1.367950 1_545
B11 O12 1.398942 1_555
B11 O21 1.401707 1_455
B12 O45 1.353250 1_555
B12 O44 1.412914 1_555
B12 O46 1.412914 1_555
B13 O11 1.353250 1_555
B13 O41 1.412914 1_555
B13 O9 1.412914 1_555
B14 O30 1.367950 1_555
B14 O1 1.398942 1_555
B14 O23 1.401707 1_455
B15 O36 1.358697 1_555
B15 O19 1.395664 1_555
B15 O0 1.395664 1_555
O0 Sr12 2.590191 1_555
O0 Sr6 2.719143 1_555
O0 Sr7 2.764944 1_555
O1 Sr7 2.613419 1_555
O1 Sr9 2.808216 1_555
O1 Sr15 2.950736 1_455
O2 Sr5 2.539875 1_555
O2 Sr15 2.603264 1_555
O2 Sr11 2.828868 1_555
O3 Sr3 2.516751 1_565
O3 Sr14 2.582204 1_555
O4 Sr9 2.574204 1_555
O4 Sr3 2.574204 1_555
O4 Sr15 2.582028 1_455
O5 Sr4 2.516751 1_545
O5 Sr0 2.582204 1_554
O6 Sr10 2.613419 1_565
O6 Sr4 2.808216 1_555
O6 Sr8 2.950736 1_555
O7 Sr6 2.590191 1_555
O7 Sr12 2.719143 1_455
O7 Sr13 2.764944 1_555
O8 Sr2 2.574204 1_555
O8 Sr12 2.574204 1_555
O8 Sr14 2.582028 1_655
O9 Sr4 2.819493 1_545
O9 Sr2 2.853429 1_445
O9 Sr10 2.996160 1_555
O10 Sr9 2.539875 1_555
O10 Sr0 2.603264 1_555
O10 Sr13 2.828868 1_556
O11 Sr0 2.557259 1_554
O11 Sr13 2.822803 1_555
O11 Sr10 2.822803 1_555
O12 Sr11 2.613419 1_555
O12 Sr3 2.808216 1_555
O12 Sr15 2.950736 1_455
O13 Sr7 2.613419 1_555
O13 Sr12 2.808216 1_555
O13 Sr14 2.950736 1_655
O14 Sr5 2.590191 1_555
O14 Sr3 2.719143 1_655
O14 Sr10 2.764944 1_656
O15 Sr2 2.819493 1_545
O15 Sr4 2.853429 1_545
O15 Sr11 2.996160 1_555
O16 Sr1 2.516751 1_555
O16 Sr8 2.582204 1_556
O17 Sr1 2.574204 1_555
O17 Sr5 2.574204 1_555
O17 Sr0 2.582028 1_555
O18 Sr1 2.590191 1_555
O18 Sr9 2.719143 1_655
O18 Sr13 2.764944 1_656
O19 Sr2 2.590191 1_555
O19 Sr4 2.719143 1_555
O19 Sr11 2.764944 1_565
O20 Sr4 2.590191 1_555
O20 Sr2 2.719143 1_455
O20 Sr10 2.764944 1_565
O21 Sr2 2.516751 1_545
O21 Sr15 2.582204 1_555
O22 Sr12 2.819493 1_555
O22 Sr6 2.853429 1_555
O22 Sr7 2.996160 1_555
O23 Sr12 2.516751 1_555
O23 Sr15 2.582204 1_555
O24 Sr9 2.516751 1_555
O24 Sr14 2.582204 1_555
O25 Sr13 2.613419 1_555
O25 Sr6 2.808216 1_555
O25 Sr8 2.950736 1_555
O26 Sr6 2.516751 1_555
O26 Sr0 2.582204 1_554
O27 Sr15 2.557259 1_555
O27 Sr7 2.822803 1_555
O27 Sr11 2.822803 1_555
O28 Sr10 2.613419 1_656
O28 Sr5 2.808216 1_555
O28 Sr0 2.950736 1_555
O29 Sr8 2.557259 1_556
O29 Sr13 2.822803 1_656
O29 Sr10 2.822803 1_666
O30 Sr6 2.539875 1_555
O30 Sr14 2.603264 1_555
O30 Sr7 2.828868 1_555
O31 Sr3 2.590191 1_555
O31 Sr5 2.719143 1_555
O31 Sr11 2.764944 1_555
O32 Sr13 2.613419 1_656
O32 Sr1 2.808216 1_555
O32 Sr0 2.950736 1_555
O33 Sr2 2.539875 1_555
O33 Sr8 2.603264 1_555
O33 Sr10 2.828868 1_665
O34 Sr9 2.590191 1_555
O34 Sr1 2.719143 1_555
O34 Sr7 2.764944 1_555
O35 Sr5 2.819493 1_565
O35 Sr3 2.853429 1_665
O35 Sr10 2.996160 1_666
O36 Sr4 2.574204 1_555
O36 Sr6 2.574204 1_555
O36 Sr8 2.582028 1_555
O37 Sr3 2.539875 1_555
O37 Sr0 2.603264 1_555
O37 Sr10 2.828868 1_556
O38 Sr4 2.539875 1_555
O38 Sr14 2.603264 1_555
O38 Sr11 2.828868 1_565
O39 Sr1 2.819493 1_555
O39 Sr9 2.853429 1_655
O39 Sr13 2.996160 1_656
O40 Sr5 2.516751 1_565
O40 Sr8 2.582204 1_556
O41 Sr6 2.819493 1_555
O41 Sr12 2.853429 1_455
O41 Sr13 2.996160 1_555
O42 Sr11 2.613419 1_565
O42 Sr2 2.808216 1_555
O42 Sr14 2.950736 1_655
O43 Sr12 2.539875 1_555
O43 Sr8 2.603264 1_555
O43 Sr13 2.828868 1_655
O44 Sr3 2.819493 1_565
O44 Sr5 2.853429 1_565
O44 Sr11 2.996160 1_565
O45 Sr14 2.557259 1_555
O45 Sr7 2.822803 1_555
O45 Sr11 2.822803 1_565
O46 Sr9 2.819493 1_555
O46 Sr1 2.853429 1_555
O46 Sr7 2.996160 1_555
O47 Sr1 2.539875 1_555
O47 Sr15 2.603264 1_555
O47 Sr7 2.828868 1_555
