# generated using pymatgen
data_SiNi2
_symmetry_space_group_name_H-M   'P 1'
_cell_length_a   3.87261215
_cell_length_b   3.87261158
_cell_length_c   4.91620593
_cell_angle_alpha   90.00000000
_cell_angle_beta   90.00000000
_cell_angle_gamma   119.99999620
_symmetry_Int_Tables_number   1
_chemical_formula_structural   SiNi2
_chemical_formula_sum   'Si2 Ni4'
_cell_volume   63.85114045
_cell_formula_units_Z   2
loop_
 _symmetry_equiv_pos_site_id
 _symmetry_equiv_pos_as_xyz
  1  'x, y, z'
loop_
 _atom_site_type_symbol
 _atom_site_label
 _atom_site_symmetry_multiplicity
 _atom_site_fract_x
 _atom_site_fract_y
 _atom_site_fract_z
 _atom_site_occupancy
  Si  Si0  1  0.66666700  0.33333300  0.25000000  1
  Si  Si1  1  0.33333300  0.66666700  0.75000000  1
  Ni  Ni0  1  0.33333300  0.66666700  0.25000000  1
  Ni  Ni1  1  0.66666700  0.33333300  0.75000000  1
  Ni  Ni2  1  -0.00000000  -0.00000000  0.50000000  1
  Ni  Ni3  1  -0.00000000  -0.00000000  -0.00000000  1
loop_
_geom_bond_atom_site_label_1
_geom_bond_atom_site_label_2
_geom_bond_distance
_geom_bond_site_symmetry_2
Ni0 Si0 2.235851 1_565
Ni0 Si0 2.235852 1_455
Ni0 Si0 2.235858 1_555
Ni0 Si1 2.458103 1_554
Ni0 Si1 2.458103 1_555
Ni0 Ni3 2.551391 1_565
Ni0 Ni2 2.551391 1_565
Ni0 Ni3 2.551394 1_555
Ni0 Ni2 2.551394 1_555
Ni0 Ni2 2.551395 1_665
Ni0 Ni3 2.551395 1_665
Ni1 Si1 2.235851 1_545
Ni1 Si1 2.235852 1_655
Ni1 Si1 2.235858 1_555
Ni1 Si0 2.458103 1_555
Ni1 Si0 2.458103 1_556
Ni1 Ni2 2.551391 1_655
Ni1 Ni3 2.551391 1_656
Ni1 Ni3 2.551394 1_666
Ni1 Ni2 2.551394 1_665
Ni1 Ni2 2.551395 1_555
Ni1 Ni3 2.551395 1_556
Ni2 Ni3 2.458103 1_555
Ni2 Ni3 2.458103 1_556
Ni2 Si0 2.551391 1_455
Ni2 Si1 2.551391 1_545
Ni2 Si0 2.551394 1_445
Ni2 Si1 2.551394 1_555
Ni2 Si0 2.551395 1_555
Ni2 Si1 2.551395 1_445
Ni3 Si0 2.551391 1_455
Ni3 Si1 2.551391 1_544
Ni3 Si0 2.551394 1_445
Ni3 Si1 2.551394 1_554
Ni3 Si0 2.551395 1_555
Ni3 Si1 2.551395 1_444
