# generated using pymatgen
data_Zn4As2O9
_symmetry_space_group_name_H-M   'P 1'
_cell_length_a   8.31613400
_cell_length_b   9.89274300
_cell_length_c   20.55996821
_cell_angle_alpha   62.77696149
_cell_angle_beta   90.00000000
_cell_angle_gamma   90.00000000
_symmetry_Int_Tables_number   1
_chemical_formula_structural   Zn4As2O9
_chemical_formula_sum   'Zn32 As16 O72'
_cell_volume   1504.09744310
_cell_formula_units_Z   8
loop_
 _symmetry_equiv_pos_site_id
 _symmetry_equiv_pos_as_xyz
  1  'x, y, z'
loop_
 _atom_site_type_symbol
 _atom_site_label
 _atom_site_symmetry_multiplicity
 _atom_site_fract_x
 _atom_site_fract_y
 _atom_site_fract_z
 _atom_site_occupancy
  Zn  Zn0  1  0.94341600  0.74857800  0.11946100  1
  Zn  Zn1  1  0.05637600  0.25390600  0.38126600  1
  Zn  Zn2  1  0.07191600  0.06951500  0.13179900  1
  Zn  Zn3  1  0.08615500  0.44224900  0.10916500  1
  Zn  Zn4  1  0.44362400  0.25390600  0.88126600  1
  Zn  Zn5  1  0.26970800  0.71855200  0.44417800  1
  Zn  Zn6  1  0.57191600  0.93048500  0.36820100  1
  Zn  Zn7  1  0.44341600  0.25142200  0.38053900  1
  Zn  Zn8  1  0.18288400  0.80561400  0.79030300  1
  Zn  Zn9  1  0.03765800  0.07541500  0.63229100  1
  Zn  Zn10  1  0.23029200  0.71855200  0.94417800  1
  Zn  Zn11  1  0.91384500  0.55775100  0.89083500  1
  Zn  Zn12  1  0.94362400  0.74609400  0.61873400  1
  Zn  Zn13  1  0.31711600  0.80561400  0.29030300  1
  Zn  Zn14  1  0.51488400  0.39495600  0.15248800  1
  Zn  Zn15  1  0.58615500  0.55775100  0.39083500  1
  Zn  Zn16  1  0.05658400  0.25142200  0.88053900  1
  Zn  Zn17  1  0.48511600  0.60504400  0.84751200  1
  Zn  Zn18  1  0.55658400  0.74857800  0.61946100  1
  Zn  Zn19  1  0.53765800  0.92458500  0.86770900  1
  Zn  Zn20  1  0.76970800  0.28144800  0.05582200  1
  Zn  Zn21  1  0.81711600  0.19438600  0.20969700  1
  Zn  Zn22  1  0.55637600  0.74609400  0.11873400  1
  Zn  Zn23  1  0.46234200  0.07541500  0.13229100  1
  Zn  Zn24  1  0.92808400  0.93048500  0.86820100  1
  Zn  Zn25  1  0.73029200  0.28144800  0.55582200  1
  Zn  Zn26  1  0.96234200  0.92458500  0.36770900  1
  Zn  Zn27  1  0.01488400  0.60504400  0.34751200  1
  Zn  Zn28  1  0.42808400  0.06951500  0.63179900  1
  Zn  Zn29  1  0.98511600  0.39495600  0.65248800  1
  Zn  Zn30  1  0.41384500  0.44224900  0.60916500  1
  Zn  Zn31  1  0.68288400  0.19438600  0.70969700  1
  As  As0  1  0.74386300  0.46857400  0.26680700  1
  As  As1  1  0.74070800  0.04416900  0.97445800  1
  As  As2  1  0.75189800  0.63511300  0.01094600  1
  As  As3  1  0.74810200  0.63511300  0.51094600  1
  As  As4  1  0.74613200  0.85842400  0.24811600  1
  As  As5  1  0.24070800  0.95583100  0.52554200  1
  As  As6  1  0.25613700  0.53142600  0.73319300  1
  As  As7  1  0.24386300  0.53142600  0.23319300  1
  As  As8  1  0.25386800  0.14157600  0.75188400  1
  As  As9  1  0.24613200  0.14157600  0.25188400  1
  As  As10  1  0.75386800  0.85842400  0.74811600  1
  As  As11  1  0.75929200  0.04416900  0.47445800  1
  As  As12  1  0.25929200  0.95583100  0.02554200  1
  As  As13  1  0.24810200  0.36488700  0.98905400  1
  As  As14  1  0.75613700  0.46857400  0.76680700  1
  As  As15  1  0.25189800  0.36488700  0.48905400  1
  O  O0  1  0.58807300  0.59733300  0.06816700  1
  O  O1  1  0.57394900  0.05977200  0.91964400  1
  O  O2  1  0.23137500  0.19431500  0.56584800  1
  O  O3  1  0.24403300  0.01449700  0.71205600  1
  O  O4  1  0.76862500  0.80568500  0.43415200  1
  O  O5  1  0.88966900  0.22575700  0.63580300  1
  O  O6  1  0.93064700  0.62953100  0.05455800  1
  O  O7  1  0.24908500  0.35334000  0.80838200  1
  O  O8  1  0.08982300  0.55567000  0.17222500  1
  O  O9  1  0.92605100  0.05977200  0.41964400  1
  O  O10  1  0.25596700  0.01449700  0.21205600  1
  O  O11  1  0.23545600  0.50082100  0.02030400  1
  O  O12  1  0.26862500  0.19431500  0.06584800  1
  O  O13  1  0.05297700  0.13196700  0.28388800  1
  O  O14  1  0.10626200  0.08692400  0.81596200  1
  O  O15  1  0.58966600  0.06433000  0.42066200  1
  O  O16  1  0.22661200  0.80157000  0.51073700  1
  O  O17  1  0.71622500  0.68419700  0.82193200  1
  O  O18  1  0.54241200  0.25681900  0.62311300  1
  O  O19  1  0.25091500  0.35334000  0.30838200  1
  O  O20  1  0.25253500  0.12424300  0.94580800  1
  O  O21  1  0.73137500  0.80568500  0.93415200  1
  O  O22  1  0.76454400  0.49917900  0.97969600  1
  O  O23  1  0.60626200  0.91307600  0.68403800  1
  O  O24  1  0.72661200  0.19843000  0.98926300  1
  O  O25  1  0.04241200  0.74318100  0.87688700  1
  O  O26  1  0.20029100  0.65998400  0.26644300  1
  O  O27  1  0.61033100  0.22575700  0.13580300  1
  O  O28  1  0.07677700  0.56537300  0.68686800  1
  O  O29  1  0.70029100  0.34001600  0.23355700  1
  O  O30  1  0.58982300  0.44433000  0.32777500  1
  O  O31  1  0.41192700  0.40266700  0.93183300  1
  O  O32  1  0.27338800  0.80157000  0.01073700  1
  O  O33  1  0.21622500  0.31580300  0.67806800  1
  O  O34  1  0.11033100  0.77424300  0.36419700  1
  O  O35  1  0.42322300  0.56537300  0.18686800  1
  O  O36  1  0.44702300  0.13196700  0.78388800  1
  O  O37  1  0.95758800  0.25681900  0.12311300  1
  O  O38  1  0.79970900  0.34001600  0.73355700  1
  O  O39  1  0.08807300  0.40266700  0.43183300  1
  O  O40  1  0.91192700  0.59733300  0.56816700  1
  O  O41  1  0.39373800  0.08692400  0.31596200  1
  O  O42  1  0.91017700  0.44433000  0.82777500  1
  O  O43  1  0.41033400  0.93567000  0.57933800  1
  O  O44  1  0.74403300  0.98550300  0.78794400  1
  O  O45  1  0.38966900  0.77424300  0.86419700  1
  O  O46  1  0.75596700  0.98550300  0.28794400  1
  O  O47  1  0.24746500  0.12424300  0.44580800  1
  O  O48  1  0.89373800  0.91307600  0.18403800  1
  O  O49  1  0.56935300  0.62953100  0.55455800  1
  O  O50  1  0.78377500  0.68419700  0.32193200  1
  O  O51  1  0.29970900  0.65998400  0.76644300  1
  O  O52  1  0.75253500  0.87575700  0.55419200  1
  O  O53  1  0.55297700  0.86803300  0.21611200  1
  O  O54  1  0.92322300  0.43462700  0.31313200  1
  O  O55  1  0.28377500  0.31580300  0.17806800  1
  O  O56  1  0.06935300  0.37046900  0.94544200  1
  O  O57  1  0.08966600  0.93567000  0.07933800  1
  O  O58  1  0.45758800  0.74318100  0.37688700  1
  O  O59  1  0.57677700  0.43462700  0.81313200  1
  O  O60  1  0.41017700  0.55567000  0.67222500  1
  O  O61  1  0.43064700  0.37046900  0.44544200  1
  O  O62  1  0.74746500  0.87575700  0.05419200  1
  O  O63  1  0.91033400  0.06433000  0.92066200  1
  O  O64  1  0.75091500  0.64666000  0.19161800  1
  O  O65  1  0.26454400  0.50082100  0.52030400  1
  O  O66  1  0.94702300  0.86803300  0.71611200  1
  O  O67  1  0.74908500  0.64666000  0.69161800  1
  O  O68  1  0.42605100  0.94022800  0.08035600  1
  O  O69  1  0.07394900  0.94022800  0.58035600  1
  O  O70  1  0.77338800  0.19843000  0.48926300  1
  O  O71  1  0.73545600  0.49917900  0.47969600  1
loop_
_geom_bond_atom_site_label_1
_geom_bond_atom_site_label_2
_geom_bond_distance
_geom_bond_site_symmetry_2
As0 O54 1.718167 1_555
As0 O30 1.730530 1_555
As0 O64 1.733567 1_555
As0 O29 1.735376 1_555
As1 O24 1.691231 1_555
As1 O62 1.722638 1_546
As1 O63 1.746760 1_555
As1 O1 1.748694 1_555
As2 O21 1.712266 1_554
As2 O6 1.723785 1_555
As2 O0 1.725564 1_555
As2 O22 1.738601 1_554
As3 O4 1.712266 1_555
As3 O49 1.723785 1_555
As3 O40 1.725564 1_555
As3 O71 1.738601 1_555
As4 O48 1.697960 1_555
As4 O53 1.721913 1_555
As4 O50 1.725915 1_555
As4 O46 1.788721 1_555
As5 O16 1.691231 1_555
As5 O47 1.722638 1_565
As5 O43 1.746760 1_555
As5 O69 1.748694 1_555
As6 O28 1.718167 1_555
As6 O60 1.730530 1_555
As6 O7 1.733567 1_555
As6 O51 1.735376 1_555
As7 O35 1.718167 1_555
As7 O8 1.730530 1_555
As7 O19 1.733567 1_555
As7 O26 1.735376 1_555
As8 O14 1.697960 1_555
As8 O36 1.721913 1_555
As8 O33 1.725915 1_555
As8 O3 1.788721 1_555
As9 O41 1.697960 1_555
As9 O13 1.721913 1_555
As9 O55 1.725915 1_555
As9 O10 1.788721 1_555
As10 O23 1.697960 1_555
As10 O66 1.721913 1_555
As10 O17 1.725915 1_555
As10 O44 1.788721 1_555
As11 O70 1.691231 1_555
As11 O52 1.722638 1_545
As11 O15 1.746760 1_555
As11 O9 1.748694 1_555
As12 O32 1.691231 1_555
As12 O20 1.722638 1_564
As12 O57 1.746760 1_555
As12 O68 1.748694 1_555
As13 O12 1.712266 1_556
As13 O56 1.723785 1_555
As13 O31 1.725564 1_555
As13 O11 1.738601 1_556
As14 O59 1.718167 1_555
As14 O42 1.730530 1_555
As14 O67 1.733567 1_555
As14 O38 1.735376 1_555
As15 O2 1.712266 1_555
As15 O61 1.723785 1_555
As15 O39 1.725564 1_555
As15 O65 1.738601 1_555
O0 Zn14 2.051509 1_555
O0 Zn22 2.171626 1_555
O1 Zn4 2.024640 1_555
O1 Zn19 2.079979 1_545
O2 Zn9 2.091610 1_555
O2 Zn28 2.123035 1_555
O3 Zn8 2.018737 1_545
O3 Zn28 2.130736 1_555
O3 Zn9 2.256974 1_555
O4 Zn26 2.091610 1_555
O4 Zn6 2.123035 1_555
O5 Zn9 1.957071 1_655
O5 Zn25 1.983788 1_555
O5 Zn29 2.018615 1_555
O5 Zn31 2.220425 1_555
O6 Zn3 2.112450 1_655
O6 Zn0 2.148650 1_555
O7 Zn16 2.100412 1_555
O7 Zn4 2.117028 1_555
O8 Zn3 2.066838 1_555
O8 Zn0 2.099307 1_455
O9 Zn1 2.024640 1_655
O9 Zn26 2.079979 1_545
O10 Zn13 2.018737 1_545
O10 Zn2 2.130736 1_555
O10 Zn23 2.256974 1_555
O11 Zn10 2.001664 1_554
O11 Zn3 2.060739 1_555
O12 Zn23 2.091610 1_555
O12 Zn2 2.123035 1_555
O13 Zn26 2.124213 1_445
O13 Zn21 2.386120 1_455
O14 Zn24 2.055112 1_445
O15 Zn7 2.046579 1_555
O15 Zn6 2.060346 1_545
O16 Zn5 1.924537 1_555
O17 Zn17 2.051048 1_555
O17 Zn11 2.156666 1_555
O18 Zn31 1.977163 1_555
O18 Zn28 2.016563 1_555
O18 Zn25 2.026385 1_555
O18 Zn30 2.027105 1_555
O19 Zn7 2.100412 1_555
O19 Zn1 2.117028 1_555
O20 Zn4 2.091471 1_555
O20 Zn16 2.120017 1_555
O21 Zn19 2.091610 1_555
O21 Zn24 2.123035 1_555
O22 Zn20 2.001664 1_556
O22 Zn11 2.060739 1_555
O23 Zn28 2.055112 1_565
O24 Zn20 1.924537 1_556
O25 Zn8 1.977163 1_555
O25 Zn24 2.016563 1_455
O25 Zn10 2.026385 1_555
O25 Zn11 2.027105 1_455
O26 Zn13 1.976535 1_555
O26 Zn27 2.149903 1_555
O27 Zn23 1.957071 1_555
O27 Zn20 1.983788 1_555
O27 Zn14 2.018615 1_555
O27 Zn21 2.220425 1_555
O28 Zn12 2.023231 1_455
O28 Zn29 2.239016 1_455
O29 Zn21 1.976535 1_555
O29 Zn14 2.149903 1_555
O30 Zn15 2.066838 1_555
O30 Zn7 2.099307 1_555
O31 Zn17 2.051509 1_555
O31 Zn4 2.171626 1_555
O32 Zn10 1.924537 1_554
O33 Zn29 2.051048 1_455
O33 Zn30 2.156666 1_555
O34 Zn26 1.957071 1_455
O34 Zn5 1.983788 1_555
O34 Zn27 2.018615 1_555
O34 Zn13 2.220425 1_555
O35 Zn22 2.023231 1_555
O35 Zn14 2.239016 1_555
O36 Zn19 2.124213 1_545
O36 Zn31 2.386120 1_555
O37 Zn21 1.977163 1_555
O37 Zn2 2.016563 1_655
O37 Zn20 2.026385 1_555
O37 Zn3 2.027105 1_655
O38 Zn31 1.976535 1_555
O38 Zn29 2.149903 1_555
O39 Zn27 2.051509 1_555
O39 Zn1 2.171626 1_555
O40 Zn29 2.051509 1_555
O40 Zn12 2.171626 1_555
O41 Zn6 2.055112 1_545
O42 Zn11 2.066838 1_555
O42 Zn16 2.099307 1_655
O43 Zn18 2.046579 1_555
O43 Zn28 2.060346 1_565
O44 Zn31 2.018737 1_565
O44 Zn24 2.130736 1_555
O44 Zn19 2.256974 1_555
O45 Zn19 1.957071 1_555
O45 Zn10 1.983788 1_555
O45 Zn17 2.018615 1_555
O45 Zn8 2.220425 1_555
O46 Zn21 2.018737 1_565
O46 Zn6 2.130736 1_555
O46 Zn26 2.256974 1_555
O47 Zn1 2.091471 1_555
O47 Zn7 2.120017 1_555
O48 Zn2 2.055112 1_665
O49 Zn30 2.112450 1_555
O49 Zn18 2.148650 1_555
O50 Zn27 2.051048 1_655
O50 Zn15 2.156666 1_555
O51 Zn8 1.976535 1_555
O51 Zn17 2.149903 1_555
O52 Zn12 2.091471 1_555
O52 Zn18 2.120017 1_555
O53 Zn23 2.124213 1_565
O53 Zn13 2.386120 1_555
O54 Zn1 2.023231 1_655
O54 Zn27 2.239016 1_655
O55 Zn14 2.051048 1_555
O55 Zn3 2.156666 1_555
O56 Zn11 2.112450 1_455
O56 Zn16 2.148650 1_555
O57 Zn0 2.046579 1_455
O57 Zn2 2.060346 1_565
O58 Zn13 1.977163 1_555
O58 Zn6 2.016563 1_555
O58 Zn5 2.026385 1_555
O58 Zn15 2.027105 1_555
O59 Zn4 2.023231 1_555
O59 Zn17 2.239016 1_555
O60 Zn30 2.066838 1_555
O60 Zn18 2.099307 1_555
O61 Zn15 2.112450 1_555
O61 Zn7 2.148650 1_555
O62 Zn22 2.091471 1_555
O62 Zn0 2.120017 1_555
O63 Zn16 2.046579 1_655
O63 Zn24 2.060346 1_545
O64 Zn0 2.100412 1_555
O64 Zn22 2.117028 1_555
O65 Zn5 2.001664 1_555
O65 Zn30 2.060739 1_555
O66 Zn9 2.124213 1_665
O66 Zn8 2.386120 1_655
O67 Zn18 2.100412 1_555
O67 Zn12 2.117028 1_555
O68 Zn22 2.024640 1_555
O68 Zn23 2.079979 1_565
O69 Zn12 2.024640 1_455
O69 Zn9 2.079979 1_565
O70 Zn25 1.924537 1_555
O71 Zn25 2.001664 1_555
O71 Zn15 2.060739 1_555
