# generated using pymatgen
data_K3Cu2(BiS2)5
_symmetry_space_group_name_H-M   'P 1'
_cell_length_a   4.03482321
_cell_length_b   14.28290543
_cell_length_c   17.78826967
_cell_angle_alpha   90.00000000
_cell_angle_beta   90.00000000
_cell_angle_gamma   90.00000000
_symmetry_Int_Tables_number   1
_chemical_formula_structural   K3Cu2(BiS2)5
_chemical_formula_sum   'K6 Cu4 Bi10 S20'
_cell_volume   1025.12016320
_cell_formula_units_Z   2
loop_
 _symmetry_equiv_pos_site_id
 _symmetry_equiv_pos_as_xyz
  1  'x, y, z'
loop_
 _atom_site_type_symbol
 _atom_site_label
 _atom_site_symmetry_multiplicity
 _atom_site_fract_x
 _atom_site_fract_y
 _atom_site_fract_z
 _atom_site_occupancy
  K  K0  1  0.50000000  0.97499315  0.24663675  1
  K  K1  1  0.50000000  0.02500685  0.75336325  1
  K  K2  1  -0.00000000  0.47499315  0.25336325  1
  K  K3  1  -0.00000000  0.52500685  0.74663675  1
  K  K4  1  0.50000000  0.50000000  0.00000000  1
  K  K5  1  -0.00000000  0.00000000  0.50000000  1
  Cu  Cu0  1  0.00000000  0.21753333  0.24707960  1
  Cu  Cu1  1  0.50000000  0.71753333  0.25292040  1
  Cu  Cu2  1  0.50000000  0.28246667  0.74707960  1
  Cu  Cu3  1  -0.00000000  0.78246667  0.75292040  1
  Bi  Bi0  1  -0.00000000  0.72009083  0.40298824  1
  Bi  Bi1  1  0.50000000  0.23100682  0.39614283  1
  Bi  Bi2  1  -0.00000000  0.27990917  0.59701176  1
  Bi  Bi3  1  -0.00000000  0.26899318  0.89614283  1
  Bi  Bi4  1  0.50000000  0.76899318  0.60385717  1
  Bi  Bi5  1  0.50000000  0.50000000  0.50000000  1
  Bi  Bi6  1  -0.00000000  0.73100682  0.10385717  1
  Bi  Bi7  1  0.50000000  0.22009083  0.09701176  1
  Bi  Bi8  1  0.50000000  0.77990917  0.90298824  1
  Bi  Bi9  1  -0.00000000  0.00000000  0.00000000  1
  S  S0  1  -0.00000000  0.79971809  0.26606488  1
  S  S1  1  0.50000000  0.12340216  0.94640975  1
  S  S2  1  0.50000000  0.29971809  0.23393512  1
  S  S3  1  0.50000000  0.87659784  0.05359025  1
  S  S4  1  -0.00000000  0.66187793  0.96358644  1
  S  S5  1  0.50000000  0.40572239  0.64021396  1
  S  S6  1  -0.00000000  0.20028191  0.73393512  1
  S  S7  1  -0.00000000  0.33812207  0.03641356  1
  S  S8  1  -0.00000000  0.90572239  0.85978604  1
  S  S9  1  0.50000000  0.16187793  0.53641356  1
  S  S10  1  -0.00000000  0.11749376  0.35082906  1
  S  S11  1  -0.00000000  0.88250624  0.64917094  1
  S  S12  1  -0.00000000  0.37659784  0.44640975  1
  S  S13  1  0.50000000  0.83812207  0.46358644  1
  S  S14  1  -0.00000000  0.09427761  0.14021396  1
  S  S15  1  0.50000000  0.61749376  0.14917094  1
  S  S16  1  -0.00000000  0.62340216  0.55359025  1
  S  S17  1  0.50000000  0.70028191  0.76606488  1
  S  S18  1  0.50000000  0.38250624  0.85082906  1
  S  S19  1  0.50000000  0.59427761  0.35978604  1
loop_
_geom_bond_atom_site_label_1
_geom_bond_atom_site_label_2
_geom_bond_distance
_geom_bond_site_symmetry_2
K0 S0 3.233664 1_655
K0 S0 3.233664 1_555
K0 S14 3.249059 1_565
K0 S14 3.249059 1_665
K0 S10 3.412856 1_665
K0 S10 3.412856 1_565
K0 S3 3.710414 1_555
K1 S6 3.233664 1_655
K1 S6 3.233664 1_555
K1 S8 3.249059 1_545
K1 S8 3.249059 1_645
K1 S11 3.412856 1_545
K1 S11 3.412856 1_645
K1 S1 3.710414 1_555
K2 S2 3.233664 1_555
K2 S2 3.233664 1_455
K2 S19 3.249059 1_455
K2 S19 3.249059 1_555
K2 S15 3.412856 1_455
K2 S15 3.412856 1_555
K2 S12 3.710414 1_555
K3 S17 3.233664 1_455
K3 S17 3.233664 1_555
K3 S5 3.249059 1_555
K3 S5 3.249059 1_455
K3 S18 3.412856 1_555
K3 S18 3.412856 1_455
K3 S16 3.710414 1_555
K4 S4 3.136121 1_654
K4 S4 3.136121 1_554
K4 S7 3.136121 1_655
K4 S7 3.136121 1_555
K4 S18 3.139621 1_554
K4 S15 3.139621 1_555
K5 S9 3.136121 1_455
K5 S9 3.136121 1_555
K5 S13 3.136121 1_445
K5 S13 3.136121 1_545
K5 S11 3.139621 1_545
K5 S10 3.139621 1_555
Cu0 S10 2.334006 1_555
Cu0 S2 2.345744 1_455
Cu0 S2 2.345744 1_555
Cu0 S14 2.590910 1_555
Cu1 S15 2.334006 1_555
Cu1 S0 2.345744 1_655
Cu1 S0 2.345744 1_555
Cu1 S19 2.590910 1_555
Cu2 S18 2.334006 1_555
Cu2 S6 2.345744 1_555
Cu2 S6 2.345744 1_655
Cu2 S5 2.590910 1_555
Cu3 S11 2.334006 1_555
Cu3 S17 2.345744 1_555
Cu3 S17 2.345744 1_455
Cu3 S8 2.590910 1_555
Bi0 S0 2.688078 1_555
Bi0 S19 2.808854 1_555
Bi0 S19 2.808854 1_455
Bi0 S13 2.841464 1_455
Bi0 S13 2.841464 1_555
Bi0 S16 3.013954 1_555
Bi1 S9 2.683426 1_555
Bi1 S10 2.710770 1_555
Bi1 S10 2.710770 1_655
Bi1 S12 3.032102 1_655
Bi1 S12 3.032102 1_555
Bi1 S2 3.047727 1_555
Bi2 S6 2.688078 1_555
Bi2 S5 2.808854 1_455
Bi2 S5 2.808854 1_555
Bi2 S9 2.841464 1_555
Bi2 S9 2.841464 1_455
Bi2 S12 3.013954 1_555
Bi3 S7 2.683426 1_556
Bi3 S18 2.710770 1_555
Bi3 S18 2.710770 1_455
Bi3 S1 3.032102 1_455
Bi3 S1 3.032102 1_555
Bi3 S6 3.047727 1_555
Bi4 S13 2.683426 1_555
Bi4 S11 2.710770 1_655
Bi4 S11 2.710770 1_555
Bi4 S16 3.032102 1_555
Bi4 S16 3.032102 1_655
Bi4 S17 3.047727 1_555
Bi5 S5 2.834444 1_555
Bi5 S19 2.834444 1_555
Bi5 S12 2.843456 1_555
Bi5 S12 2.843456 1_655
Bi5 S16 2.843456 1_555
Bi5 S16 2.843456 1_655
Bi6 S4 2.683426 1_554
Bi6 S15 2.710770 1_555
Bi6 S15 2.710770 1_455
Bi6 S3 3.032102 1_555
Bi6 S3 3.032102 1_455
Bi6 S0 3.047727 1_555
Bi7 S2 2.688078 1_555
Bi7 S14 2.808854 1_555
Bi7 S14 2.808854 1_655
Bi7 S7 2.841464 1_555
Bi7 S7 2.841464 1_655
Bi7 S1 3.013954 1_554
Bi8 S17 2.688078 1_555
Bi8 S8 2.808854 1_555
Bi8 S8 2.808854 1_655
Bi8 S4 2.841464 1_555
Bi8 S4 2.841464 1_655
Bi8 S3 3.013954 1_556
Bi9 S8 2.834444 1_544
Bi9 S14 2.834444 1_555
Bi9 S1 2.843456 1_554
Bi9 S1 2.843456 1_454
Bi9 S3 2.843456 1_545
Bi9 S3 2.843456 1_445
