# generated using pymatgen
data_In2Cu2SiS6
_symmetry_space_group_name_H-M   'P 1'
_cell_length_a   6.90803744
_cell_length_b   6.90803744
_cell_length_c   12.10526146
_cell_angle_alpha   72.49308886
_cell_angle_beta   72.49308886
_cell_angle_gamma   59.55636821
_symmetry_Int_Tables_number   1
_chemical_formula_structural   In2Cu2SiS6
_chemical_formula_sum   'In4 Cu4 Si2 S12'
_cell_volume   467.16102707
_cell_formula_units_Z   2
loop_
 _symmetry_equiv_pos_site_id
 _symmetry_equiv_pos_as_xyz
  1  'x, y, z'
loop_
 _atom_site_type_symbol
 _atom_site_label
 _atom_site_symmetry_multiplicity
 _atom_site_fract_x
 _atom_site_fract_y
 _atom_site_fract_z
 _atom_site_occupancy
  In  In0  1  0.53449200  0.30074700  0.44125000  1
  In  In1  1  0.17177500  0.31138400  0.74666100  1
  In  In2  1  0.31138400  0.17177500  0.24666100  1
  In  In3  1  0.30074700  0.53449200  0.94125000  1
  Cu  Cu0  1  0.38947700  0.81325500  0.59693800  1
  Cu  Cu1  1  0.78783600  0.01392100  0.74641200  1
  Cu  Cu2  1  0.81325500  0.38947700  0.09693800  1
  Cu  Cu3  1  0.01392100  0.78783600  0.24641200  1
  Si  Si0  1  0.40760800  0.92995300  0.00445300  1
  Si  Si1  1  0.92995300  0.40760800  0.50445300  1
  S  S0  1  0.69235500  0.14979400  0.24890300  1
  S  S1  1  0.83010700  0.35149500  0.69083600  1
  S  S2  1  0.53573100  0.03161700  0.63738400  1
  S  S3  1  0.08264500  0.11208800  0.95482500  1
  S  S4  1  0.11208800  0.08264500  0.45482500  1
  S  S5  1  0.14979400  0.69235500  0.74890300  1
  S  S6  1  0.03161700  0.53573100  0.13738400  1
  S  S7  1  0.60134300  0.11161400  0.93943900  1
  S  S8  1  0.35149500  0.83010700  0.19083600  1
  S  S9  1  0.11161400  0.60134300  0.43943900  1
  S  S10  1  0.61710800  0.61664900  0.44034700  1
  S  S11  1  0.61664900  0.61710800  0.94034700  1
loop_
_geom_bond_atom_site_label_1
_geom_bond_atom_site_label_2
_geom_bond_distance
_geom_bond_site_symmetry_2
In0 S10 2.516369 1_555
In0 S2 2.536536 1_555
In0 S0 2.545363 1_555
In0 S9 2.590385 1_555
In1 S1 2.507682 1_455
In1 S2 2.533637 1_555
In1 S3 2.542174 1_555
In1 S5 2.566221 1_555
In2 S8 2.507682 1_545
In2 S6 2.533637 1_555
In2 S4 2.542174 1_555
In2 S0 2.566221 1_555
In3 S11 2.516369 1_555
In3 S6 2.536536 1_556
In3 S5 2.545363 1_555
In3 S7 2.590385 1_555
Cu0 S5 2.338273 1_555
Cu0 S10 2.345596 1_555
Cu0 S2 2.412942 1_565
Cu0 S4 2.556952 1_565
Cu1 S5 2.358795 1_645
Cu1 S1 2.367269 1_555
Cu1 S7 2.414874 1_555
Cu1 S2 2.420727 1_555
Cu2 S0 2.338273 1_555
Cu2 S11 2.345596 1_554
Cu2 S6 2.412942 1_655
Cu2 S3 2.556952 1_654
Cu3 S0 2.358795 1_465
Cu3 S8 2.367269 1_555
Cu3 S9 2.414874 1_555
Cu3 S6 2.420727 1_555
S1 Si1 2.127202 1_555
S3 Si0 2.116060 1_546
S4 Si1 2.116060 1_455
S7 Si0 2.111731 1_546
S8 Si0 2.127202 1_555
S9 Si1 2.111731 1_455
S10 Si1 2.128445 1_555
S11 Si0 2.128445 1_556
