# generated using pymatgen
data_Sr2LiInGe2
_symmetry_space_group_name_H-M   'P 1'
_cell_length_a   4.66124900
_cell_length_b   7.55123200
_cell_length_c   17.57837600
_cell_angle_alpha   90.00000000
_cell_angle_beta   90.00000000
_cell_angle_gamma   90.00000000
_symmetry_Int_Tables_number   1
_chemical_formula_structural   Sr2LiInGe2
_chemical_formula_sum   'Sr8 Li4 In4 Ge8'
_cell_volume   618.72671263
_cell_formula_units_Z   4
loop_
 _symmetry_equiv_pos_site_id
 _symmetry_equiv_pos_as_xyz
  1  'x, y, z'
loop_
 _atom_site_type_symbol
 _atom_site_label
 _atom_site_symmetry_multiplicity
 _atom_site_fract_x
 _atom_site_fract_y
 _atom_site_fract_z
 _atom_site_occupancy
  Sr  Sr0  1  0.25000000  0.34373000  0.93927900  1
  Sr  Sr1  1  0.25000000  0.84373000  0.56072100  1
  Sr  Sr2  1  0.75000000  0.15627000  0.43927900  1
  Sr  Sr3  1  0.75000000  0.49954900  0.27809200  1
  Sr  Sr4  1  0.75000000  0.99954900  0.22190800  1
  Sr  Sr5  1  0.75000000  0.65627000  0.06072100  1
  Sr  Sr6  1  0.25000000  0.50045100  0.72190800  1
  Sr  Sr7  1  0.25000000  0.00045100  0.77809200  1
  Li  Li0  1  0.25000000  0.98490500  0.06695400  1
  Li  Li1  1  0.75000000  0.51509500  0.56695400  1
  Li  Li2  1  0.75000000  0.01509500  0.93304600  1
  Li  Li3  1  0.25000000  0.48490500  0.43304600  1
  In  In0  1  0.75000000  0.16844800  0.65370400  1
  In  In1  1  0.25000000  0.83155200  0.34629600  1
  In  In2  1  0.75000000  0.66844800  0.84629600  1
  In  In3  1  0.25000000  0.33155200  0.15370400  1
  Ge  Ge0  1  0.75000000  0.22181800  0.06543100  1
  Ge  Ge1  1  0.75000000  0.78708900  0.68577600  1
  Ge  Ge2  1  0.25000000  0.21291100  0.31422400  1
  Ge  Ge3  1  0.25000000  0.71291100  0.18577600  1
  Ge  Ge4  1  0.25000000  0.27818200  0.56543100  1
  Ge  Ge5  1  0.75000000  0.28708900  0.81422400  1
  Ge  Ge6  1  0.25000000  0.77818200  0.93456900  1
  Ge  Ge7  1  0.75000000  0.72181800  0.43456900  1
loop_
_geom_bond_atom_site_label_1
_geom_bond_atom_site_label_2
_geom_bond_distance
_geom_bond_site_symmetry_2
In0 Li1 3.029404 1_555
In0 Sr7 3.438324 1_555
In0 Sr7 3.438324 1_655
In0 Sr6 3.626902 1_655
In0 Sr6 3.626902 1_555
In0 Sr1 3.757097 1_545
In0 Sr1 3.757097 1_645
In0 Sr2 3.770365 1_555
In1 Li3 3.029404 1_555
In1 Sr4 3.438324 1_555
In1 Sr4 3.438324 1_455
In1 Sr3 3.626902 1_455
In1 Sr3 3.626902 1_555
In1 Sr2 3.757097 1_565
In1 Sr2 3.757097 1_465
In1 Sr1 3.770365 1_555
In2 Li2 3.029404 1_565
In2 Sr6 3.438324 1_555
In2 Sr6 3.438324 1_655
In2 Sr7 3.626902 1_565
In2 Sr7 3.626902 1_665
In2 Sr0 3.757097 1_555
In2 Sr0 3.757097 1_655
In2 Sr5 3.770365 1_556
In3 Li0 3.029404 1_545
In3 Sr3 3.438324 1_555
In3 Sr3 3.438324 1_455
In3 Sr4 3.626902 1_445
In3 Sr4 3.626902 1_545
In3 Sr5 3.757097 1_455
In3 Sr5 3.757097 1_555
In3 Sr0 3.770365 1_554
Ge0 Li2 2.802181 1_554
Ge0 In3 2.919965 1_655
Ge0 In3 2.919965 1_555
Ge0 Li0 2.938196 1_645
Ge0 Li0 2.938196 1_545
Ge0 Sr4 3.222252 1_545
Ge0 Sr5 3.281692 1_555
Ge0 Sr0 3.346163 1_654
Ge0 Sr0 3.346163 1_554
Ge1 Li1 2.929355 1_555
Ge1 In0 2.934397 1_565
Ge1 In2 2.960489 1_555
Ge1 Sr1 3.232199 1_655
Ge1 Sr1 3.232199 1_555
Ge1 Sr6 3.243478 1_555
Ge1 Sr6 3.243478 1_655
Ge1 Sr7 3.265114 1_565
Ge1 Sr7 3.265114 1_665
Ge2 Li3 2.929355 1_555
Ge2 In1 2.934397 1_545
Ge2 In3 2.960489 1_555
Ge2 Sr2 3.232199 1_455
Ge2 Sr2 3.232199 1_555
Ge2 Sr3 3.243478 1_455
Ge2 Sr3 3.243478 1_555
Ge2 Sr4 3.265114 1_445
Ge2 Sr4 3.265114 1_545
Ge3 Li0 2.929355 1_555
Ge3 In3 2.934397 1_555
Ge3 In1 2.960489 1_555
Ge3 Sr5 3.232199 1_455
Ge3 Sr5 3.232199 1_555
Ge3 Sr4 3.243478 1_455
Ge3 Sr4 3.243478 1_555
Ge3 Sr3 3.265114 1_455
Ge3 Sr3 3.265114 1_555
Ge4 Li3 2.802181 1_555
Ge4 In0 2.919965 1_455
Ge4 In0 2.919965 1_555
Ge4 Li1 2.938196 1_455
Ge4 Li1 2.938196 1_555
Ge4 Sr6 3.222252 1_555
Ge4 Sr1 3.281692 1_545
Ge4 Sr2 3.346163 1_555
Ge4 Sr2 3.346163 1_455
Ge5 Li2 2.929355 1_555
Ge5 In2 2.934397 1_555
Ge5 In0 2.960489 1_555
Ge5 Sr0 3.232199 1_655
Ge5 Sr0 3.232199 1_555
Ge5 Sr7 3.243478 1_655
Ge5 Sr7 3.243478 1_555
Ge5 Sr6 3.265114 1_655
Ge5 Sr6 3.265114 1_555
Ge6 Li0 2.802181 1_556
Ge6 In2 2.919965 1_455
Ge6 In2 2.919965 1_555
Ge6 Li2 2.938196 1_565
Ge6 Li2 2.938196 1_465
Ge6 Sr7 3.222252 1_565
Ge6 Sr0 3.281692 1_555
Ge6 Sr5 3.346163 1_456
Ge6 Sr5 3.346163 1_556
Ge7 Li1 2.802181 1_555
Ge7 In1 2.919965 1_555
Ge7 In1 2.919965 1_655
Ge7 Li3 2.938196 1_655
Ge7 Li3 2.938196 1_555
Ge7 Sr3 3.222252 1_555
Ge7 Sr2 3.281692 1_565
Ge7 Sr1 3.346163 1_655
Ge7 Sr1 3.346163 1_555
