# generated using pymatgen
data_Cs2U(SiO4)2
_symmetry_space_group_name_H-M   'P 1'
_cell_length_a   13.71619737
_cell_length_b   13.71619737
_cell_length_c   13.71619737
_cell_angle_alpha   111.98934019
_cell_angle_beta   110.97838305
_cell_angle_gamma   105.51854243
_symmetry_Int_Tables_number   1
_chemical_formula_structural   Cs2U(SiO4)2
_chemical_formula_sum   'Cs16 U8 Si16 O64'
_cell_volume   1979.26454583
_cell_formula_units_Z   8
loop_
 _symmetry_equiv_pos_site_id
 _symmetry_equiv_pos_as_xyz
  1  'x, y, z'
loop_
 _atom_site_type_symbol
 _atom_site_label
 _atom_site_symmetry_multiplicity
 _atom_site_fract_x
 _atom_site_fract_y
 _atom_site_fract_z
 _atom_site_occupancy
  Cs  Cs0  1  0.84937200  0.09937200  0.75000000  1
  Cs  Cs1  1  0.60201700  0.85201700  0.75000000  1
  Cs  Cs2  1  0.62964700  0.75000000  0.37964700  1
  Cs  Cs3  1  0.89798300  0.64798300  0.25000000  1
  Cs  Cs4  1  0.34937200  0.59937200  0.75000000  1
  Cs  Cs5  1  0.65062800  0.40062800  0.25000000  1
  Cs  Cs6  1  0.25000000  0.35639300  0.10639300  1
  Cs  Cs7  1  0.39798300  0.14798300  0.25000000  1
  Cs  Cs8  1  0.87035300  0.25000000  0.12035300  1
  Cs  Cs9  1  0.15062800  0.90062800  0.25000000  1
  Cs  Cs10  1  0.12964700  0.75000000  0.87964700  1
  Cs  Cs11  1  0.75000000  0.64360700  0.89360700  1
  Cs  Cs12  1  0.25000000  0.85639300  0.60639300  1
  Cs  Cs13  1  0.10201700  0.35201700  0.75000000  1
  Cs  Cs14  1  0.37035300  0.25000000  0.62035300  1
  Cs  Cs15  1  0.75000000  0.14360700  0.39360700  1
  U  U0  1  0.50000000  0.50000000  0.00000000  1
  U  U1  1  0.50000000  0.00000000  0.50000000  1
  U  U2  1  0.50000000  0.50000000  0.50000000  1
  U  U3  1  0.00000000  0.50000000  0.50000000  1
  U  U4  1  0.00000000  0.00000000  0.00000000  1
  U  U5  1  0.50000000  0.00000000  0.00000000  1
  U  U6  1  0.00000000  0.00000000  0.50000000  1
  U  U7  1  0.00000000  0.50000000  0.00000000  1
  Si  Si0  1  0.24614900  0.54721900  0.43945800  1
  Si  Si1  1  0.52685900  0.12256700  0.81507700  1
  Si  Si2  1  0.47314100  0.87743300  0.18492300  1
  Si  Si3  1  0.25385100  0.69330800  0.30106900  1
  Si  Si4  1  0.02685900  0.21178200  0.40429200  1
  Si  Si5  1  0.30749000  0.62256700  0.09570800  1
  Si  Si6  1  0.75385100  0.45278100  0.56054200  1
  Si  Si7  1  0.80749000  0.71178200  0.68492300  1
  Si  Si8  1  0.69251000  0.37743300  0.90429200  1
  Si  Si9  1  0.89223900  0.95278100  0.19893100  1
  Si  Si10  1  0.39223900  0.19330800  0.93945800  1
  Si  Si11  1  0.74614900  0.30669200  0.69893100  1
  Si  Si12  1  0.60776100  0.80669200  0.06054200  1
  Si  Si13  1  0.97314100  0.78821800  0.59570800  1
  Si  Si14  1  0.10776100  0.04721900  0.80106900  1
  Si  Si15  1  0.19251000  0.28821800  0.31507700  1
  O  O0  1  0.45078200  0.95882500  0.12639300  1
  O  O1  1  0.58166400  0.92230500  0.55061500  1
  O  O2  1  0.41818100  0.14920500  0.82506100  1
  O  O3  1  0.75000000  0.36712900  0.61712900  1
  O  O4  1  0.44310100  0.33723500  0.01222700  1
  O  O5  1  0.67499200  0.16276500  0.60586600  1
  O  O6  1  0.25000000  0.13287100  0.88287100  1
  O  O7  1  0.12831000  0.96895200  0.05061500  1
  O  O8  1  0.54921800  0.04117500  0.87360700  1
  O  O9  1  0.41833600  0.07769500  0.44938500  1
  O  O10  1  0.82500800  0.43087400  0.48777300  1
  O  O11  1  0.64950600  0.25000000  0.89950600  1
  O  O12  1  0.51192600  0.94033400  0.32872100  1
  O  O13  1  0.38838700  0.55966600  0.07159100  1
  O  O14  1  0.17499200  0.56912600  0.51222700  1
  O  O15  1  0.55689900  0.66276500  0.98777300  1
  O  O16  1  0.01192600  0.68320500  0.57159100  1
  O  O17  1  0.11871400  0.65070400  0.19898000  1
  O  O18  1  0.88838700  0.81679500  0.82872100  1
  O  O19  1  0.37169000  0.42230500  0.84064100  1
  O  O20  1  0.91818100  0.09312000  0.26897700  1
  O  O21  1  0.61871400  0.41973400  0.46801000  1
  O  O22  1  0.64965500  0.11244600  0.13484100  1
  O  O23  1  0.61161300  0.44033400  0.92840900  1
  O  O24  1  0.38128600  0.58026600  0.53199000  1
  O  O25  1  0.83243200  0.45882500  0.00804300  1
  O  O26  1  0.32500800  0.83723500  0.39413400  1
  O  O27  1  0.02239600  0.38755400  0.03721000  1
  O  O28  1  0.95172300  0.91973400  0.30102000  1
  O  O29  1  0.48807400  0.05966600  0.67127900  1
  O  O30  1  0.17585700  0.40688000  0.32506100  1
  O  O31  1  0.54827700  0.84929600  0.96801000  1
  O  O32  1  0.94310100  0.93087400  0.10586600  1
  O  O33  1  0.35034500  0.88755400  0.86515900  1
  O  O34  1  0.33243200  0.32438900  0.37360700  1
  O  O35  1  0.85049400  0.75000000  0.60049400  1
  O  O36  1  0.16756800  0.54117500  0.99195700  1
  O  O37  1  0.85034500  0.98518600  0.46279000  1
  O  O38  1  0.45172300  0.15070400  0.03199000  1
  O  O39  1  0.08166400  0.53104800  0.65935900  1
  O  O40  1  0.04827700  0.08026600  0.69898000  1
  O  O41  1  0.11161300  0.18320500  0.17127900  1
  O  O42  1  0.25000000  0.63287100  0.38287100  1
  O  O43  1  0.14950600  0.25000000  0.39950600  1
  O  O44  1  0.58181900  0.85079500  0.17493900  1
  O  O45  1  0.91833600  0.46895200  0.34064100  1
  O  O46  1  0.47760400  0.51481400  0.36515900  1
  O  O47  1  0.66756800  0.67561100  0.62639300  1
  O  O48  1  0.14965500  0.01481400  0.53721000  1
  O  O49  1  0.97760400  0.61244600  0.96279000  1
  O  O50  1  0.88128600  0.34929600  0.80102000  1
  O  O51  1  0.98807400  0.31679500  0.42840900  1
  O  O52  1  0.62831000  0.57769500  0.15935900  1
  O  O53  1  0.67585700  0.35079500  0.76897700  1
  O  O54  1  0.75000000  0.86712900  0.11712900  1
  O  O55  1  0.87169000  0.03104800  0.94938500  1
  O  O56  1  0.05689900  0.06912600  0.89413400  1
  O  O57  1  0.08181900  0.90688000  0.73102300  1
  O  O58  1  0.82414300  0.59312000  0.67493900  1
  O  O59  1  0.52239600  0.48518600  0.63484100  1
  O  O60  1  0.04921800  0.17561100  0.50804300  1
  O  O61  1  0.95078200  0.82438900  0.49195700  1
  O  O62  1  0.35049400  0.75000000  0.10049400  1
  O  O63  1  0.32414300  0.64920500  0.23102300  1
loop_
_geom_bond_atom_site_label_1
_geom_bond_atom_site_label_2
_geom_bond_distance
_geom_bond_site_symmetry_2
Cs0 O56 3.065888 1_655
Cs0 O5 3.065888 1_555
Cs0 O50 3.100612 1_555
Cs0 O40 3.100625 1_655
Cs0 O1 3.150301 1_545
Cs0 O55 3.150310 1_555
Cs0 O27 3.660679 1_656
Cs0 O37 3.660686 1_545
Cs1 O47 2.953126 1_555
Cs1 O8 2.953126 1_565
Cs1 O55 3.171488 1_565
Cs1 O1 3.171490 1_555
Cs1 O31 3.336693 1_555
Cs1 O24 3.336701 1_555
Cs2 O52 3.050393 1_555
Cs2 O1 3.050393 1_555
Cs2 O37 3.227715 1_555
Cs2 O46 3.227715 1_555
Cs2 O35 3.432436 1_555
Cs2 O44 3.506989 1_555
Cs2 O63 3.507001 1_555
Cs2 O12 3.567120 1_555
Cs2 O13 3.567128 1_555
Cs3 O25 2.953126 1_555
Cs3 O61 2.953126 1_555
Cs3 O45 3.171477 1_555
Cs3 O52 3.171490 1_555
Cs3 O17 3.336701 1_655
Cs3 O28 3.336703 1_555
Cs4 O15 3.065888 1_555
Cs4 O14 3.065888 1_555
Cs4 O24 3.100612 1_555
Cs4 O31 3.100615 1_555
Cs4 O39 3.150298 1_555
Cs4 O19 3.150301 1_555
Cs4 O33 3.660674 1_555
Cs4 O59 3.660686 1_555
Cs5 O10 3.065888 1_555
Cs5 O4 3.065888 1_555
Cs5 O21 3.100612 1_555
Cs5 O38 3.100615 1_555
Cs5 O45 3.150298 1_555
Cs5 O52 3.150301 1_555
Cs5 O22 3.660674 1_555
Cs5 O46 3.660686 1_555
Cs6 O27 3.118605 1_555
Cs6 O46 3.118612 1_555
Cs6 O41 3.227693 1_555
Cs6 O13 3.227702 1_555
Cs6 O4 3.364548 1_555
Cs6 O56 3.364548 1_554
Cs6 O30 3.393372 1_555
Cs6 O63 3.393385 1_555
Cs6 O6 3.429300 1_554
Cs7 O34 2.953126 1_555
Cs7 O0 2.953126 1_545
Cs7 O7 3.171488 1_545
Cs7 O9 3.171490 1_555
Cs7 O38 3.336693 1_555
Cs7 O21 3.336701 1_555
Cs8 O45 3.050400 1_555
Cs8 O55 3.050402 1_554
Cs8 O27 3.227707 1_655
Cs8 O22 3.227710 1_555
Cs8 O11 3.432436 1_554
Cs8 O20 3.506999 1_555
Cs8 O30 3.506999 1_655
Cs8 O41 3.567120 1_655
Cs8 O51 3.567132 1_555
Cs9 O32 3.065888 1_455
Cs9 O26 3.065888 1_555
Cs9 O17 3.100612 1_555
Cs9 O28 3.100625 1_455
Cs9 O9 3.150301 1_565
Cs9 O7 3.150310 1_555
Cs9 O49 3.660679 1_454
Cs9 O48 3.660686 1_565
Cs10 O39 3.050400 1_555
Cs10 O7 3.050402 1_556
Cs10 O49 3.227707 1_455
Cs10 O33 3.227710 1_555
Cs10 O62 3.432436 1_556
Cs10 O58 3.506999 1_455
Cs10 O57 3.506999 1_555
Cs10 O18 3.567120 1_455
Cs10 O16 3.567132 1_555
Cs11 O49 3.118605 1_555
Cs11 O59 3.118612 1_555
Cs11 O18 3.227693 1_555
Cs11 O23 3.227702 1_555
Cs11 O32 3.364548 1_556
Cs11 O15 3.364548 1_555
Cs11 O58 3.393372 1_555
Cs11 O53 3.393385 1_555
Cs11 O54 3.429300 1_556
Cs12 O48 3.118612 1_565
Cs12 O33 3.118618 1_555
Cs12 O16 3.227686 1_555
Cs12 O29 3.227693 1_565
Cs12 O26 3.364548 1_555
Cs12 O14 3.364548 1_555
Cs12 O57 3.393372 1_555
Cs12 O2 3.393381 1_565
Cs12 O42 3.429300 1_555
Cs13 O60 2.953126 1_555
Cs13 O36 2.953126 1_555
Cs13 O39 3.171477 1_555
Cs13 O19 3.171490 1_555
Cs13 O50 3.336701 1_455
Cs13 O40 3.336703 1_555
Cs14 O9 3.050393 1_555
Cs14 O19 3.050393 1_555
Cs14 O59 3.227715 1_555
Cs14 O48 3.227715 1_555
Cs14 O43 3.432436 1_555
Cs14 O2 3.506989 1_555
Cs14 O53 3.507001 1_555
Cs14 O29 3.567120 1_555
Cs14 O23 3.567128 1_555
Cs15 O37 3.118612 1_545
Cs15 O22 3.118618 1_555
Cs15 O51 3.227686 1_555
Cs15 O12 3.227693 1_545
Cs15 O5 3.364548 1_555
Cs15 O10 3.364548 1_555
Cs15 O20 3.393372 1_555
Cs15 O44 3.393381 1_545
Cs15 O3 3.429300 1_555
O0 Si2 1.631859 1_555
O0 U5 2.268783 1_565
O1 U1 1.873044 1_565
O2 Si10 1.660945 1_555
O2 Si1 1.665658 1_555
O3 Si6 1.632304 1_555
O3 Si11 1.632306 1_555
O4 Si10 1.633709 1_554
O4 U0 2.250137 1_555
O5 Si11 1.633709 1_555
O5 U1 2.250137 1_555
O6 Si14 1.632304 1_555
O6 Si10 1.632304 1_555
O7 U4 1.873035 1_565
O8 Si1 1.631859 1_555
O8 U5 2.268783 1_556
O9 U1 1.873044 1_555
O10 Si6 1.633697 1_555
O10 U3 2.250137 1_655
O11 Si8 1.655909 1_555
O11 Si1 1.655909 1_555
O12 Si2 1.626757 1_555
O12 U1 2.263341 1_565
O13 Si5 1.626761 1_555
O13 U0 2.263334 1_555
O14 Si0 1.633697 1_555
O14 U3 2.250137 1_555
O15 Si12 1.633709 1_556
O15 U0 2.250137 1_556
O16 Si13 1.626757 1_455
O16 U3 2.263341 1_555
O17 Si3 1.639243 1_555
O17 U7 2.272678 1_555
O18 Si7 1.626757 1_555
O18 U4 2.263341 1_666
O19 U0 1.873044 1_556
O20 Si9 1.660946 1_545
O20 Si4 1.665653 1_655
O21 Si6 1.639244 1_555
O21 U2 2.272678 1_555
O22 U5 1.861276 1_555
O23 Si8 1.626761 1_555
O23 U0 2.263334 1_556
O24 Si0 1.639244 1_555
O24 U2 2.272678 1_555
O25 Si8 1.631859 1_554
O25 U7 2.268783 1_655
O26 Si3 1.633709 1_555
O26 U1 2.250137 1_565
O27 U7 1.861287 1_555
O28 Si9 1.639230 1_555
O28 U6 2.272675 1_665
O29 Si1 1.626757 1_555
O29 U1 2.263341 1_555
O30 Si0 1.660947 1_555
O30 Si15 1.665653 1_555
O31 Si12 1.639229 1_556
O31 U5 2.272687 1_566
O32 Si9 1.633709 1_555
O32 U4 2.250137 1_665
O33 U5 1.861276 1_566
O34 Si15 1.631859 1_555
O34 U2 2.268783 1_555
O35 Si13 1.655909 1_555
O35 Si7 1.655909 1_555
O36 Si5 1.631859 1_556
O36 U7 2.268783 1_556
O37 U6 1.861274 1_665
O38 Si10 1.639229 1_554
O38 U5 2.272687 1_555
O39 U3 1.873049 1_555
O40 Si14 1.639230 1_555
O40 U6 2.272675 1_555
O41 Si15 1.626757 1_555
O41 U4 2.263341 1_555
O42 Si0 1.632304 1_555
O42 Si3 1.632306 1_555
O43 Si15 1.655909 1_555
O43 Si4 1.655909 1_555
O44 Si12 1.660945 1_555
O44 Si2 1.665658 1_555
O45 U3 1.873049 1_655
O46 U2 1.861274 1_555
O47 Si7 1.631859 1_555
O47 U2 2.268783 1_555
O48 U6 1.861274 1_555
O49 U7 1.861287 1_656
O50 Si11 1.639243 1_555
O50 U7 2.272678 1_656
O51 Si4 1.626757 1_655
O51 U3 2.263341 1_655
O52 U0 1.873044 1_555
O53 Si11 1.660930 1_555
O53 Si8 1.665649 1_555
O54 Si12 1.632304 1_555
O54 Si9 1.632304 1_555
O55 U4 1.873035 1_656
O56 Si14 1.633709 1_555
O56 U4 2.250137 1_556
O57 Si14 1.660946 1_565
O57 Si13 1.665653 1_455
O58 Si6 1.660947 1_555
O58 Si7 1.665653 1_555
O59 U2 1.861274 1_555
O60 Si4 1.631859 1_555
O60 U6 2.268783 1_555
O61 Si13 1.631859 1_555
O61 U6 2.268783 1_665
O62 Si2 1.655909 1_555
O62 Si5 1.655909 1_555
O63 Si3 1.660930 1_555
O63 Si5 1.665649 1_555
