# generated using pymatgen
data_InPt
_symmetry_space_group_name_H-M   'P 1'
_cell_length_a   4.44909660
_cell_length_b   6.98468176
_cell_length_c   7.21218567
_cell_angle_alpha   65.41130036
_cell_angle_beta   72.03969359
_cell_angle_gamma   71.42112362
_symmetry_Int_Tables_number   1
_chemical_formula_structural   InPt
_chemical_formula_sum   'In5 Pt5'
_cell_volume   189.11780783
_cell_formula_units_Z   5
loop_
 _symmetry_equiv_pos_site_id
 _symmetry_equiv_pos_as_xyz
  1  'x, y, z'
loop_
 _atom_site_type_symbol
 _atom_site_label
 _atom_site_symmetry_multiplicity
 _atom_site_fract_x
 _atom_site_fract_y
 _atom_site_fract_z
 _atom_site_occupancy
  In  In0  1  0.50000000  0.50000000  0.50000000  1
  In  In1  1  0.85145959  0.45413393  0.84360492  1
  In  In2  1  0.14854041  0.54586607  0.15639508  1
  In  In3  1  0.62889236  0.98581082  0.75653845  1
  In  In4  1  0.37110764  0.01418918  0.24346155  1
  Pt  Pt0  1  0.00000000  -0.00000000  0.00000000  1
  Pt  Pt1  1  0.74029619  0.25794675  0.26105217  1
  Pt  Pt2  1  0.25970381  0.74205325  0.73894783  1
  Pt  Pt3  1  0.89153007  0.77625853  0.44055004  1
  Pt  Pt4  1  0.10846993  0.22374147  0.55944996  1
loop_
_geom_bond_atom_site_label_1
_geom_bond_atom_site_label_2
_geom_bond_distance
_geom_bond_site_symmetry_2
In0 Pt1 2.666062 1_555
In0 Pt2 2.666062 1_555
In0 Pt4 2.816778 1_555
In0 Pt3 2.816778 1_555
In0 Pt3 2.816815 1_455
In0 Pt4 2.816815 1_655
In1 Pt1 2.695723 1_556
In1 Pt0 2.813705 1_656
In1 Pt3 2.834995 1_555
In1 Pt2 2.851628 1_655
In1 Pt2 2.852016 1_555
In1 Pt4 2.867720 1_655
In2 Pt2 2.695723 1_554
In2 Pt0 2.813705 1_565
In2 Pt4 2.834995 1_555
In2 Pt1 2.851628 1_455
In2 Pt1 2.852016 1_555
In2 Pt3 2.867720 1_455
In3 Pt2 2.775450 1_555
In3 Pt2 2.776118 1_655
In3 Pt4 2.784840 1_565
In3 Pt4 2.785343 1_665
In3 Pt0 2.802877 1_666
In3 Pt0 2.803568 1_566
In3 Pt3 2.957222 1_555
In4 Pt1 2.775450 1_555
In4 Pt1 2.776118 1_455
In4 Pt3 2.784840 1_545
In4 Pt3 2.785343 1_445
In4 Pt0 2.802877 1_555
In4 Pt0 2.803568 1_655
In4 Pt4 2.957222 1_555
