# generated using pymatgen
data_Li10Mg7Cl24
_symmetry_space_group_name_H-M   'P 1'
_cell_length_a   7.43471665
_cell_length_b   7.43471665
_cell_length_c   36.32991626
_cell_angle_alpha   89.91049480
_cell_angle_beta   89.91049480
_cell_angle_gamma   60.25396622
_symmetry_Int_Tables_number   1
_chemical_formula_structural   Li10Mg7Cl24
_chemical_formula_sum   'Li20 Mg14 Cl48'
_cell_volume   1743.52789879
_cell_formula_units_Z   2
loop_
 _symmetry_equiv_pos_site_id
 _symmetry_equiv_pos_as_xyz
  1  'x, y, z'
loop_
 _atom_site_type_symbol
 _atom_site_label
 _atom_site_symmetry_multiplicity
 _atom_site_fract_x
 _atom_site_fract_y
 _atom_site_fract_z
 _atom_site_occupancy
  Li  Li0  1  0.65922200  0.65922200  0.91752600  1
  Li  Li1  1  0.82563800  0.82563800  0.64366200  1
  Li  Li2  1  0.00022900  0.00022900  0.74932000  1
  Li  Li3  1  0.15925700  0.15925700  0.47729800  1
  Li  Li4  1  0.16694000  0.16694000  0.66674600  1
  Li  Li5  1  0.17387600  0.17387600  0.85396300  1
  Li  Li6  1  0.33329700  0.33329700  0.58339900  1
  Li  Li7  1  0.49990600  0.49990600  0.50004400  1
  Li  Li8  1  0.49238500  0.49238500  0.31065400  1
  Li  Li9  1  0.50738200  0.50738200  0.68980000  1
  Li  Li10  1  0.66665400  0.66665400  0.41661000  1
  Li  Li11  1  0.82522800  0.82522800  0.14550400  1
  Li  Li12  1  0.83339600  0.83339600  0.33325200  1
  Li  Li13  1  0.84092600  0.84092600  0.52273000  1
  Li  Li14  1  0.00008800  0.00008800  0.25019100  1
  Li  Li15  1  0.16684900  0.16684900  0.16791800  1
  Li  Li16  1  0.17389400  0.17389400  0.35600500  1
  Li  Li17  1  0.32655600  0.32655600  0.08400700  1
  Li  Li18  1  0.50758300  0.50758300  0.18941400  1
  Li  Li19  1  0.84148400  0.84148400  0.01950900  1
  Mg  Mg0  1  0.66008700  0.17830900  0.91732000  1
  Mg  Mg1  1  0.99724800  0.50259400  0.75010500  1
  Mg  Mg2  1  0.83121400  0.83121400  0.83086200  1
  Mg  Mg3  1  0.17830900  0.66008700  0.91732000  1
  Mg  Mg4  1  0.33355200  0.83346400  0.58334600  1
  Mg  Mg5  1  0.50259400  0.99724800  0.75010500  1
  Mg  Mg6  1  0.66668300  0.16667500  0.41655600  1
  Mg  Mg7  1  0.83346400  0.33355200  0.58334600  1
  Mg  Mg8  1  0.99964100  0.49962500  0.25019300  1
  Mg  Mg9  1  0.16667500  0.66668300  0.41655600  1
  Mg  Mg10  1  0.32911700  0.84249800  0.08394600  1
  Mg  Mg11  1  0.49962500  0.99964100  0.25019300  1
  Mg  Mg12  1  0.84249800  0.32911700  0.08394600  1
  Mg  Mg13  1  0.49923800  0.49923800  0.99727000  1
  Cl  Cl0  1  0.33899500  0.33899500  0.95747500  1
  Cl  Cl1  1  0.49478800  0.49478800  0.87906000  1
  Cl  Cl2  1  0.80870800  0.33831200  0.95759900  1
  Cl  Cl3  1  0.33831200  0.80870800  0.95759900  1
  Cl  Cl4  1  0.99163300  0.52642900  0.87608600  1
  Cl  Cl5  1  0.67431800  0.67431800  0.79020100  1
  Cl  Cl6  1  0.52642900  0.99163300  0.87608600  1
  Cl  Cl7  1  0.13762700  0.67463500  0.79050600  1
  Cl  Cl8  1  0.83032400  0.83032400  0.71085600  1
  Cl  Cl9  1  0.83688600  0.83688600  0.95366400  1
  Cl  Cl10  1  0.99101800  0.99101800  0.87618500  1
  Cl  Cl11  1  0.67463500  0.13762700  0.79050600  1
  Cl  Cl12  1  0.32888300  0.85559400  0.71083700  1
  Cl  Cl13  1  0.00696800  0.00696800  0.62283800  1
  Cl  Cl14  1  0.85559400  0.32888300  0.71083700  1
  Cl  Cl15  1  0.16332200  0.16332200  0.54461900  1
  Cl  Cl16  1  0.47760300  0.00512800  0.62279800  1
  Cl  Cl17  1  0.17013200  0.17013200  0.78848500  1
  Cl  Cl18  1  0.32718400  0.32718400  0.71142000  1
  Cl  Cl19  1  0.00512800  0.47760300  0.62279800  1
  Cl  Cl20  1  0.66237300  0.18918300  0.54373500  1
  Cl  Cl21  1  0.34034000  0.34034000  0.45605800  1
  Cl  Cl22  1  0.81161800  0.33799700  0.45592000  1
  Cl  Cl23  1  0.18918300  0.66237300  0.54373500  1
  Cl  Cl24  1  0.49664800  0.49664800  0.37792700  1
  Cl  Cl25  1  0.50362700  0.50362700  0.62207400  1
  Cl  Cl26  1  0.33799700  0.81161800  0.45592000  1
  Cl  Cl27  1  0.65990100  0.65990100  0.54377500  1
  Cl  Cl28  1  0.99565900  0.52199400  0.37703800  1
  Cl  Cl29  1  0.67329500  0.67329500  0.28950200  1
  Cl  Cl30  1  0.52199400  0.99565900  0.37703800  1
  Cl  Cl31  1  0.83008900  0.83008900  0.21168000  1
  Cl  Cl32  1  0.14460000  0.67054300  0.28944300  1
  Cl  Cl33  1  0.83685400  0.83685400  0.45519900  1
  Cl  Cl34  1  0.99294000  0.99294000  0.37696200  1
  Cl  Cl35  1  0.67054300  0.14460000  0.28944300  1
  Cl  Cl36  1  0.32880300  0.85540500  0.21039700  1
  Cl  Cl37  1  0.00417900  0.00417900  0.12329300  1
  Cl  Cl38  1  0.85540500  0.32880300  0.21039700  1
  Cl  Cl39  1  0.16145500  0.16145500  0.04662700  1
  Cl  Cl40  1  0.48129400  0.00411300  0.12324000  1
  Cl  Cl41  1  0.16970900  0.16970900  0.28853800  1
  Cl  Cl42  1  0.32650300  0.32650300  0.21032200  1
  Cl  Cl43  1  0.00411300  0.48129400  0.12324000  1
  Cl  Cl44  1  0.65810400  0.19373800  0.04240300  1
  Cl  Cl45  1  0.19373800  0.65810400  0.04240300  1
  Cl  Cl46  1  0.50499100  0.50499100  0.12071300  1
  Cl  Cl47  1  0.65815600  0.65815600  0.04224000  1
loop_
_geom_bond_atom_site_label_1
_geom_bond_atom_site_label_2
_geom_bond_distance
_geom_bond_site_symmetry_2
Cl0 Mg13 2.519537 1_555
Cl0 Mg0 2.533537 1_555
Cl0 Mg3 2.533537 1_555
Cl1 Mg3 2.470702 1_555
Cl1 Mg0 2.470702 1_555
Cl1 Li0 2.536881 1_555
Cl2 Mg13 2.462890 1_555
Cl2 Mg0 2.468234 1_555
Cl2 Li0 2.531804 1_555
Cl3 Mg13 2.462890 1_555
Cl3 Mg3 2.468234 1_555
Cl3 Li0 2.531804 1_555
Cl4 Li5 2.414782 1_655
Cl4 Mg3 2.556846 1_655
Cl4 Mg2 2.563056 1_555
Cl4 Li0 2.630750 1_555
Cl5 Mg2 2.502892 1_555
Cl5 Mg1 2.543503 1_555
Cl5 Mg5 2.543503 1_555
Cl6 Li5 2.414782 1_565
Cl6 Mg0 2.556846 1_565
Cl6 Mg2 2.563056 1_555
Cl6 Li0 2.630750 1_555
Cl7 Mg2 2.461246 1_455
Cl7 Mg1 2.492984 1_455
Cl7 Li2 2.584924 1_565
Cl8 Li1 2.442005 1_555
Cl8 Mg1 2.550364 1_555
Cl8 Mg5 2.550364 1_555
Cl8 Li2 2.595855 1_665
Cl9 Li19 2.392981 1_556
Cl9 Mg0 2.568770 1_565
Cl9 Mg3 2.568770 1_655
Cl9 Li0 2.637288 1_555
Cl10 Li5 2.485036 1_665
Cl10 Mg3 2.611724 1_655
Cl10 Mg0 2.611724 1_565
Cl10 Mg2 2.635778 1_555
Cl11 Mg2 2.461246 1_545
Cl11 Mg5 2.492984 1_545
Cl11 Li2 2.584924 1_655
Cl12 Li9 2.375129 1_555
Cl12 Mg5 2.484437 1_555
Cl12 Li2 2.543252 1_565
Cl12 Li4 2.569531 1_565
Cl13 Li1 2.450392 1_445
Cl13 Mg7 2.550456 1_455
Cl13 Mg4 2.550456 1_545
Cl13 Li4 2.605609 1_555
Cl14 Li9 2.375129 1_555
Cl14 Mg1 2.484437 1_555
Cl14 Li2 2.543252 1_655
Cl14 Li4 2.569531 1_655
Cl15 Li3 2.446419 1_555
Cl15 Mg4 2.551549 1_545
Cl15 Mg7 2.551549 1_455
Cl15 Li6 2.602827 1_555
Cl16 Li1 2.372180 1_545
Cl16 Mg4 2.489387 1_545
Cl16 Li6 2.559113 1_555
Cl16 Li4 2.562886 1_555
Cl17 Li5 2.379384 1_555
Cl17 Mg1 2.558924 1_455
Cl17 Mg5 2.558924 1_545
Cl17 Li2 2.609670 1_555
Cl18 Li9 2.445633 1_555
Cl18 Mg1 2.552180 1_455
Cl18 Mg5 2.552180 1_545
Cl18 Li4 2.625526 1_555
Cl19 Li1 2.372180 1_455
Cl19 Mg7 2.489387 1_455
Cl19 Li6 2.559113 1_555
Cl19 Li4 2.562886 1_555
Cl20 Li13 2.375034 1_545
Cl20 Mg7 2.491253 1_555
Cl20 Li7 2.557502 1_555
Cl20 Li6 2.569593 1_555
Cl21 Li3 2.452059 1_555
Cl21 Mg6 2.549448 1_555
Cl21 Mg9 2.549448 1_555
Cl21 Li7 2.603225 1_555
Cl22 Li3 2.375731 1_655
Cl22 Mg6 2.490207 1_555
Cl22 Li10 2.559755 1_555
Cl22 Li7 2.572089 1_555
Cl23 Li13 2.375034 1_455
Cl23 Mg4 2.491253 1_555
Cl23 Li7 2.557502 1_555
Cl23 Li6 2.569593 1_555
Cl24 Li8 2.444736 1_555
Cl24 Mg6 2.550173 1_555
Cl24 Mg9 2.550173 1_555
Cl24 Li10 2.601252 1_555
Cl25 Li9 2.461041 1_555
Cl25 Mg4 2.551435 1_555
Cl25 Mg7 2.551435 1_555
Cl25 Li6 2.604602 1_555
Cl26 Li3 2.375731 1_565
Cl26 Mg9 2.490207 1_555
Cl26 Li10 2.559755 1_555
Cl26 Li7 2.572089 1_555
Cl27 Li13 2.449142 1_555
Cl27 Mg4 2.550863 1_555
Cl27 Mg7 2.550863 1_555
Cl27 Li7 2.601902 1_555
Cl28 Li16 2.374372 1_655
Cl28 Mg9 2.490525 1_655
Cl28 Li12 2.562979 1_555
Cl28 Li10 2.567112 1_555
Cl29 Li8 2.448947 1_555
Cl29 Mg8 2.545529 1_555
Cl29 Mg11 2.545529 1_555
Cl29 Li12 2.603404 1_555
Cl30 Li16 2.374372 1_565
Cl30 Mg6 2.490525 1_565
Cl30 Li12 2.562979 1_555
Cl30 Li10 2.567112 1_555
Cl31 Li11 2.405094 1_555
Cl31 Mg11 2.550410 1_555
Cl31 Mg8 2.550410 1_555
Cl31 Li14 2.597796 1_665
Cl32 Li8 2.374553 1_555
Cl32 Mg8 2.485762 1_455
Cl32 Li12 2.562621 1_455
Cl32 Li14 2.563685 1_565
Cl33 Li13 2.454049 1_555
Cl33 Mg9 2.549664 1_655
Cl33 Mg6 2.549664 1_565
Cl33 Li10 2.601504 1_555
Cl34 Li16 2.447284 1_665
Cl34 Mg9 2.550900 1_655
Cl34 Mg6 2.550900 1_565
Cl34 Li12 2.596843 1_555
Cl35 Li8 2.374553 1_555
Cl35 Mg11 2.485762 1_545
Cl35 Li12 2.562621 1_545
Cl35 Li14 2.563685 1_655
Cl36 Li18 2.372178 1_555
Cl36 Mg11 2.493028 1_555
Cl36 Li15 2.533972 1_565
Cl36 Li14 2.570021 1_565
Cl37 Li11 2.437438 1_445
Cl37 Mg10 2.537218 1_545
Cl37 Mg12 2.537218 1_455
Cl37 Li15 2.649029 1_555
Cl38 Li18 2.372178 1_555
Cl38 Mg8 2.493028 1_555
Cl38 Li15 2.533972 1_655
Cl38 Li14 2.570021 1_655
Cl39 Mg12 2.465225 1_455
Cl39 Mg10 2.465225 1_545
Cl39 Li17 2.522528 1_555
Cl40 Li11 2.364321 1_545
Cl40 Mg10 2.474083 1_545
Cl40 Li17 2.521850 1_555
Cl40 Li15 2.598332 1_555
Cl41 Li16 2.451759 1_555
Cl41 Mg8 2.544218 1_455
Cl41 Mg11 2.544218 1_545
Cl41 Li14 2.590483 1_555
Cl42 Li18 2.448274 1_555
Cl42 Mg11 2.559566 1_545
Cl42 Mg8 2.559566 1_455
Cl42 Li15 2.569167 1_555
Cl43 Li11 2.364321 1_455
Cl43 Mg12 2.474083 1_455
Cl43 Li17 2.521850 1_555
Cl43 Li15 2.598332 1_555
Cl44 Li19 2.422688 1_545
Cl44 Mg12 2.559443 1_555
Cl44 Mg13 2.564132 1_554
Cl44 Li17 2.629325 1_555
Cl45 Li19 2.422688 1_455
Cl45 Mg10 2.559443 1_555
Cl45 Mg13 2.564132 1_554
Cl45 Li17 2.629325 1_555
Cl46 Li18 2.496184 1_555
Cl46 Mg10 2.555296 1_555
Cl46 Mg12 2.555296 1_555
Cl46 Li17 2.656224 1_555
Cl47 Li19 2.496777 1_555
Cl47 Mg12 2.612755 1_555
Cl47 Mg10 2.612755 1_555
Cl47 Mg13 2.618853 1_554
