# generated using pymatgen
data_NaZr2NiF11
_symmetry_space_group_name_H-M   'P 1'
_cell_length_a   5.61737775
_cell_length_b   5.61737775
_cell_length_c   7.74629080
_cell_angle_alpha   69.19241819
_cell_angle_beta   69.19241819
_cell_angle_gamma   72.72208102
_symmetry_Int_Tables_number   1
_chemical_formula_structural   NaZr2NiF11
_chemical_formula_sum   'Na1 Zr2 Ni1 F11'
_cell_volume   209.46799615
_cell_formula_units_Z   1
loop_
 _symmetry_equiv_pos_site_id
 _symmetry_equiv_pos_as_xyz
  1  'x, y, z'
loop_
 _atom_site_type_symbol
 _atom_site_label
 _atom_site_symmetry_multiplicity
 _atom_site_fract_x
 _atom_site_fract_y
 _atom_site_fract_z
 _atom_site_occupancy
  Na  Na0  1  -0.00000000  0.00000000  -0.00000000  1
  Zr  Zr0  1  0.50746722  0.50746722  0.76302156  1
  Zr  Zr1  1  0.49253278  0.49253278  0.23697844  1
  Ni  Ni0  1  -0.00000000  0.00000000  0.50000000  1
  F  F0  1  0.21927497  0.81604972  0.68553952  1
  F  F1  1  0.18395028  0.78072503  0.31446048  1
  F  F2  1  0.78072503  0.18395028  0.31446048  1
  F  F3  1  0.81604972  0.21927497  0.68553952  1
  F  F4  1  0.50000000  0.50000000  0.50000000  1
  F  F5  1  0.67337958  0.32662042  -0.00000000  1
  F  F6  1  0.32662042  0.67337958  -0.00000000  1
  F  F7  1  0.24325906  0.24325906  0.35147504  1
  F  F8  1  0.75674094  0.75674094  0.64852496  1
  F  F9  1  0.26652518  0.26652518  0.89100949  1
  F  F10  1  0.73347482  0.73347482  0.10899051  1
loop_
_geom_bond_atom_site_label_1
_geom_bond_atom_site_label_2
_geom_bond_distance
_geom_bond_site_symmetry_2
F0 Ni0 2.024151 1_565
F0 Zr0 2.066401 1_555
F0 Na0 2.723805 1_566
F1 Ni0 2.024151 1_565
F1 Zr1 2.066401 1_555
F1 Na0 2.723805 1_565
F2 Ni0 2.024151 1_655
F2 Zr1 2.066401 1_555
F2 Na0 2.723805 1_655
F3 Ni0 2.024151 1_655
F3 Zr0 2.066401 1_555
F3 Na0 2.723805 1_656
F4 Zr1 2.068132 1_555
F4 Zr0 2.068132 1_555
F5 Zr0 2.144439 1_554
F5 Zr1 2.144439 1_555
F5 Na0 2.175542 1_655
F6 Zr0 2.144439 1_554
F6 Zr1 2.144439 1_555
F6 Na0 2.175542 1_565
F7 Ni0 1.983301 1_555
F7 Zr1 2.026855 1_555
F8 Ni0 1.983301 1_665
F8 Zr0 2.026855 1_555
F9 Zr0 1.956559 1_555
F9 Na0 2.175148 1_556
F10 Zr1 1.956559 1_555
F10 Na0 2.175148 1_665
