# generated using pymatgen
data_DyBi2BrO4
_symmetry_space_group_name_H-M   'P 1'
_cell_length_a   3.91503800
_cell_length_b   3.91503800
_cell_length_c   9.31622100
_cell_angle_alpha   90.00000000
_cell_angle_beta   90.00000000
_cell_angle_gamma   90.00000000
_symmetry_Int_Tables_number   1
_chemical_formula_structural   DyBi2BrO4
_chemical_formula_sum   'Dy1 Bi2 Br1 O4'
_cell_volume   142.79458738
_cell_formula_units_Z   1
loop_
 _symmetry_equiv_pos_site_id
 _symmetry_equiv_pos_as_xyz
  1  'x, y, z'
loop_
 _atom_site_type_symbol
 _atom_site_label
 _atom_site_symmetry_multiplicity
 _atom_site_fract_x
 _atom_site_fract_y
 _atom_site_fract_z
 _atom_site_occupancy
  Dy  Dy0  1  0.00000000  0.00000000  0.00000000  1
  Bi  Bi0  1  0.50000000  0.50000000  0.26891300  1
  Bi  Bi1  1  0.50000000  0.50000000  0.73108700  1
  Br  Br0  1  0.00000000  0.00000000  0.50000000  1
  O  O0  1  0.00000000  0.50000000  0.85145200  1
  O  O1  1  0.00000000  0.50000000  0.14854800  1
  O  O2  1  0.50000000  0.00000000  0.85145200  1
  O  O3  1  0.50000000  0.00000000  0.14854800  1
loop_
_geom_bond_atom_site_label_1
_geom_bond_atom_site_label_2
_geom_bond_distance
_geom_bond_site_symmetry_2
Dy0 O1 2.397306 1_545
Dy0 O3 2.397306 1_555
Dy0 O1 2.397306 1_555
Dy0 O3 2.397306 1_455
Dy0 O0 2.397306 1_554
Dy0 O0 2.397306 1_544
Dy0 O2 2.397306 1_454
Dy0 O2 2.397306 1_554
Bi0 O3 2.255948 1_565
Bi0 O1 2.255948 1_655
Bi0 O3 2.255948 1_555
Bi0 O1 2.255948 1_555
Bi1 O0 2.255948 1_655
Bi1 O2 2.255948 1_555
Bi1 O0 2.255948 1_555
Bi1 O2 2.255948 1_565
