# generated using pymatgen
data_SiC
_symmetry_space_group_name_H-M   'P 1'
_cell_length_a   3.07613653
_cell_length_b   3.07613594
_cell_length_c   45.30955144
_cell_angle_alpha   90.00000000
_cell_angle_beta   90.00000000
_cell_angle_gamma   120.00001702
_symmetry_Int_Tables_number   1
_chemical_formula_structural   SiC
_chemical_formula_sum   'Si18 C18'
_cell_volume   371.30555824
_cell_formula_units_Z   18
loop_
 _symmetry_equiv_pos_site_id
 _symmetry_equiv_pos_as_xyz
  1  'x, y, z'
loop_
 _atom_site_type_symbol
 _atom_site_label
 _atom_site_symmetry_multiplicity
 _atom_site_fract_x
 _atom_site_fract_y
 _atom_site_fract_z
 _atom_site_occupancy
  Si  Si0  1  0.00000000  0.00000000  0.22221587  1
  Si  Si1  1  0.66666700  0.33333300  0.33332604  1
  Si  Si2  1  0.33333300  0.66666700  0.72223027  1
  Si  Si3  1  0.66666700  0.33333300  0.55553042  1
  Si  Si4  1  0.00000000  0.00000000  0.44442461  1
  Si  Si5  1  0.33333300  0.66666700  0.27776095  1
  Si  Si6  1  -0.00000000  0.00000000  0.66666575  1
  Si  Si7  1  0.33333300  0.66666700  0.05551307  1
  Si  Si8  1  0.33333300  0.66666700  0.61108353  1
  Si  Si9  1  0.66666700  0.33333300  0.88888740  1
  Si  Si10  1  -0.00000000  0.00000000  0.83331470  1
  Si  Si11  1  0.33333300  0.66666700  0.94437450  1
  Si  Si12  1  0.66666700  0.33333300  0.11108866  1
  Si  Si13  1  -0.00000000  0.00000000  0.99996245  1
  Si  Si14  1  0.33333300  0.66666700  0.16664110  1
  Si  Si15  1  0.66666700  0.33333300  0.77772667  1
  Si  Si16  1  0.33333300  0.66666700  0.38886122  1
  Si  Si17  1  0.33333300  0.66666700  0.49996560  1
  C  C0  1  0.33333300  0.66666700  0.54160782  1
  C  C1  1  0.66666700  0.33333300  0.93056151  1
  C  C2  1  -0.00000000  0.00000000  0.04174943  1
  C  C3  1  0.66666700  0.33333300  0.59731333  1
  C  C4  1  0.00000000  0.00000000  0.26399546  1
  C  C5  1  0.33333300  0.66666700  0.20828883  1
  C  C6  1  0.33333300  0.66666700  0.43050089  1
  C  C7  1  0.00000000  0.00000000  0.70845630  1
  C  C8  1  0.66666700  0.33333300  0.15287507  1
  C  C9  1  0.33333300  0.66666700  0.98604529  1
  C  C10  1  0.33333300  0.66666700  0.76391004  1
  C  C11  1  0.33333300  0.66666700  0.09716250  1
  C  C12  1  0.33333300  0.66666700  0.31940351  1
  C  C13  1  -0.00000000  0.00000000  0.48620139  1
  C  C14  1  0.66666700  0.33333300  0.81939961  1
  C  C15  1  0.33333300  0.66666700  0.65274251  1
  C  C16  1  0.00000000  -0.00000000  0.87511471  1
  C  C17  1  0.66666700  0.33333300  0.37510002  1
loop_
_geom_bond_atom_site_label_1
_geom_bond_atom_site_label_2
_geom_bond_distance
_geom_bond_site_symmetry_2
C0 Si3 1.884712 1_565
C0 Si3 1.884712 1_455
C0 Si3 1.884718 1_555
C0 Si17 1.886790 1_555
C1 Si11 1.883055 1_545
C1 Si11 1.883056 1_655
C1 Si11 1.883061 1_555
C1 Si9 1.888235 1_555
C2 Si7 1.882314 1_545
C2 Si7 1.882316 1_555
C2 Si7 1.882316 1_445
C2 Si13 1.893349 1_554
C3 Si8 1.882412 1_545
C3 Si8 1.882412 1_655
C3 Si8 1.882418 1_555
C3 Si3 1.893165 1_555
C4 Si5 1.882342 1_545
C4 Si5 1.882344 1_555
C4 Si5 1.882344 1_445
C4 Si0 1.893014 1_555
C5 Si0 1.884780 1_565
C5 Si0 1.884782 1_555
C5 Si0 1.884782 1_665
C5 Si14 1.887040 1_555
C6 Si4 1.884730 1_565
C6 Si4 1.884731 1_555
C6 Si4 1.884732 1_665
C6 Si16 1.886675 1_555
C7 Si2 1.882469 1_545
C7 Si2 1.882471 1_555
C7 Si2 1.882471 1_445
C7 Si6 1.893511 1_555
C8 Si14 1.882349 1_545
C8 Si14 1.882350 1_655
C8 Si14 1.882355 1_555
C8 Si12 1.893323 1_555
C9 Si13 1.884630 1_565
C9 Si13 1.884632 1_555
C9 Si13 1.884632 1_665
C9 Si11 1.888085 1_555
C10 Si15 1.883110 1_565
C10 Si15 1.883111 1_455
C10 Si15 1.883116 1_555
C10 Si2 1.888492 1_555
C11 Si12 1.884766 1_565
C11 Si12 1.884766 1_455
C11 Si12 1.884772 1_555
C11 Si7 1.887117 1_555
C12 Si1 1.884711 1_565
C12 Si1 1.884711 1_455
C12 Si1 1.884716 1_555
C12 Si5 1.886806 1_555
C13 Si17 1.882323 1_545
C13 Si17 1.882325 1_555
C13 Si17 1.882325 1_445
C13 Si4 1.892887 1_555
C14 Si10 1.884599 1_655
C14 Si10 1.884601 1_665
C14 Si10 1.884601 1_555
C14 Si15 1.888182 1_555
C15 Si6 1.884722 1_565
C15 Si6 1.884724 1_555
C15 Si6 1.884724 1_665
C15 Si8 1.887550 1_555
C16 Si9 1.882450 1_455
C16 Si9 1.882452 1_445
C16 Si9 1.882452 1_555
C16 Si10 1.893940 1_555
C17 Si16 1.882277 1_545
C17 Si16 1.882277 1_655
C17 Si16 1.882282 1_555
C17 Si1 1.892760 1_555
