# generated using pymatgen
data_Na4Cu(MoO4)3
_symmetry_space_group_name_H-M   'P 1'
_cell_length_a   9.57932200
_cell_length_b   10.44097271
_cell_length_c   13.28951310
_cell_angle_alpha   106.22996615
_cell_angle_beta   92.55040805
_cell_angle_gamma   107.09476960
_symmetry_Int_Tables_number   1
_chemical_formula_structural   Na4Cu(MoO4)3
_chemical_formula_sum   'Na16 Cu4 Mo12 O48'
_cell_volume   1208.15590967
_cell_formula_units_Z   4
loop_
 _symmetry_equiv_pos_site_id
 _symmetry_equiv_pos_as_xyz
  1  'x, y, z'
loop_
 _atom_site_type_symbol
 _atom_site_label
 _atom_site_symmetry_multiplicity
 _atom_site_fract_x
 _atom_site_fract_y
 _atom_site_fract_z
 _atom_site_occupancy
  Na  Na0  1  0.43835500  0.49649900  0.37490400  1
  Na  Na1  1  0.48629400  0.13579200  0.61003300  1
  Na  Na2  1  0.22664800  0.01444000  0.23828500  1
  Na  Na3  1  0.22662400  0.50921700  0.73822400  1
  Na  Na4  1  0.77335200  0.98556000  0.76171500  1
  Na  Na5  1  0.99302600  0.25128600  0.24881300  1
  Na  Na6  1  0.49605100  0.62092500  0.13140700  1
  Na  Na7  1  0.87920600  0.59263800  0.03419600  1
  Na  Na8  1  0.00697400  0.74871400  0.75118700  1
  Na  Na9  1  0.00000000  0.00000000  0.00000000  1
  Na  Na10  1  0.50394900  0.37907500  0.86859300  1
  Na  Na11  1  0.51370600  0.86420800  0.38996700  1
  Na  Na12  1  0.56164500  0.50350100  0.62509600  1
  Na  Na13  1  0.12079400  0.40736200  0.96580400  1
  Na  Na14  1  0.77337600  0.49078300  0.26177600  1
  Na  Na15  1  0.00000000  0.50000000  0.50000000  1
  Cu  Cu0  1  0.53517700  0.98706300  0.12621700  1
  Cu  Cu1  1  0.86048400  0.07626300  0.53750200  1
  Cu  Cu2  1  0.46482300  0.01293700  0.87378300  1
  Cu  Cu3  1  0.13951600  0.92373700  0.46249800  1
  Mo  Mo0  1  0.81079400  0.74978200  0.51467800  1
  Mo  Mo1  1  0.18920600  0.25021800  0.48532200  1
  Mo  Mo2  1  0.38570800  0.26917500  0.09468100  1
  Mo  Mo3  1  0.23420900  0.78726900  0.97579100  1
  Mo  Mo4  1  0.76579100  0.21273100  0.02420900  1
  Mo  Mo5  1  0.17045800  0.12416200  0.74120300  1
  Mo  Mo6  1  0.38151400  0.77866200  0.61681400  1
  Mo  Mo7  1  0.61848600  0.22133800  0.38318600  1
  Mo  Mo8  1  0.16530000  0.63910200  0.25701000  1
  Mo  Mo9  1  0.83470000  0.36089800  0.74299000  1
  Mo  Mo10  1  0.82954200  0.87583800  0.25879700  1
  Mo  Mo11  1  0.61429200  0.73082500  0.90531900  1
  O  O0  1  0.79722100  0.31784700  0.36208800  1
  O  O1  1  0.20277900  0.68215300  0.63791200  1
  O  O2  1  0.49765800  0.89046000  0.74182500  1
  O  O3  1  0.15911900  0.29620100  0.79352400  1
  O  O4  1  0.36608600  0.88833700  0.53553600  1
  O  O5  1  0.24249400  0.61432200  0.92028700  1
  O  O6  1  0.35410400  0.37902100  0.01895600  1
  O  O7  1  0.67099300  0.12557600  0.88711500  1
  O  O8  1  0.30903100  0.36015200  0.60351800  1
  O  O9  1  0.63391400  0.11166300  0.46446400  1
  O  O10  1  0.64589600  0.62097900  0.98104400  1
  O  O11  1  0.88898700  0.41143000  0.88157400  1
  O  O12  1  0.35258300  0.63788200  0.27995100  1
  O  O13  1  0.83801800  0.18216900  0.67914400  1
  O  O14  1  0.72528800  0.11471600  0.11958400  1
  O  O15  1  0.84088100  0.70379900  0.20647600  1
  O  O16  1  0.00191400  0.76753100  0.49392700  1
  O  O17  1  0.32900700  0.87442400  0.11288500  1
  O  O18  1  0.04566500  0.77501600  0.98244300  1
  O  O19  1  0.75750600  0.38567800  0.07971300  1
  O  O20  1  0.95662300  0.48636800  0.69221000  1
  O  O21  1  0.64037600  0.86397000  0.22662900  1
  O  O22  1  0.11101300  0.58857000  0.11842600  1
  O  O23  1  0.79097700  0.65763800  0.60993800  1
  O  O24  1  0.24139100  0.09159600  0.42485600  1
  O  O25  1  0.46555900  0.65564600  0.54790500  1
  O  O26  1  0.12513900  0.06268800  0.59608500  1
  O  O27  1  0.20902300  0.34236200  0.39006200  1
  O  O28  1  0.95433500  0.22498400  0.01755700  1
  O  O29  1  0.75860900  0.90840400  0.57514400  1
  O  O30  1  0.50234200  0.10954000  0.25817500  1
  O  O31  1  0.21544400  0.17098600  0.12597000  1
  O  O32  1  0.95342600  0.99536100  0.20379800  1
  O  O33  1  0.99808600  0.23246900  0.50607300  1
  O  O34  1  0.35962400  0.13603000  0.77337100  1
  O  O35  1  0.69096900  0.63984800  0.39648200  1
  O  O36  1  0.78455600  0.82901400  0.87403000  1
  O  O37  1  0.47317600  0.14684500  0.01591900  1
  O  O38  1  0.49674800  0.61354700  0.78804800  1
  O  O39  1  0.50325200  0.38645300  0.21195200  1
  O  O40  1  0.52682400  0.85315500  0.98408100  1
  O  O41  1  0.64741700  0.36211800  0.72004900  1
  O  O42  1  0.87486100  0.93731200  0.40391500  1
  O  O43  1  0.04657400  0.00463900  0.79620200  1
  O  O44  1  0.04337700  0.51363200  0.30779000  1
  O  O45  1  0.27471200  0.88528400  0.88041600  1
  O  O46  1  0.53444100  0.34435400  0.45209500  1
  O  O47  1  0.16198200  0.81783100  0.32085600  1
loop_
_geom_bond_atom_site_label_1
_geom_bond_atom_site_label_2
_geom_bond_distance
_geom_bond_site_symmetry_2
Na0 O39 2.354813 1_555
Na0 O27 2.366170 1_555
Na0 O25 2.381482 1_555
Na0 O35 2.397323 1_555
Na0 O12 2.471552 1_555
Na0 O46 2.471738 1_555
Na1 O4 2.387698 1_545
Na1 O41 2.414037 1_555
Na1 O9 2.446644 1_555
Na1 O34 2.533260 1_555
Na2 O17 2.345666 1_545
Na2 O24 2.366845 1_555
Na2 O30 2.505985 1_555
Na2 O31 2.522616 1_555
Na2 O47 2.524652 1_545
Na2 O32 2.575964 1_445
Na3 O5 2.338051 1_555
Na3 O8 2.353901 1_555
Na3 O3 2.452606 1_555
Na3 O38 2.471421 1_555
Na3 O20 2.556441 1_455
Na3 O1 2.578853 1_555
Na4 O7 2.345666 1_565
Na4 O29 2.366845 1_555
Na4 O2 2.505985 1_555
Na4 O36 2.522616 1_555
Na4 O13 2.524652 1_565
Na4 O43 2.575964 1_665
Na5 O32 2.476338 1_545
Na5 O27 2.491761 1_655
Na5 O44 2.517823 1_655
Na5 O0 2.588460 1_555
Na5 O14 2.765806 1_555
Na5 O31 2.915858 1_655
Na5 O28 3.004138 1_555
Na6 O21 2.437005 1_555
Na6 O12 2.450761 1_555
Na6 O6 2.480252 1_555
Na6 O10 2.511741 1_554
Na6 O39 2.949799 1_555
Na7 O15 2.358741 1_555
Na7 O11 2.382923 1_554
Na7 O18 2.384583 1_654
Na7 O19 2.388876 1_555
Na7 O10 2.438579 1_554
Na7 O22 2.458959 1_655
Na8 O43 2.476338 1_565
Na8 O23 2.491761 1_455
Na8 O20 2.517823 1_455
Na8 O1 2.588460 1_555
Na8 O45 2.765806 1_555
Na8 O36 2.915858 1_455
Na8 O18 3.004138 1_555
Na9 O28 2.463871 1_455
Na9 O18 2.463871 1_544
Na9 O31 2.470787 1_555
Na9 O36 2.470787 1_444
Na9 O32 2.775763 1_445
Na9 O43 2.775763 1_554
Na10 O34 2.437005 1_555
Na10 O41 2.450761 1_555
Na10 O10 2.480252 1_555
Na10 O6 2.511741 1_556
Na10 O38 2.949799 1_555
Na11 O9 2.387698 1_565
Na11 O12 2.414037 1_555
Na11 O4 2.446644 1_555
Na11 O21 2.533260 1_555
Na12 O38 2.354813 1_555
Na12 O23 2.366170 1_555
Na12 O46 2.381482 1_555
Na12 O8 2.397323 1_555
Na12 O41 2.471552 1_555
Na12 O25 2.471738 1_555
Na13 O3 2.358741 1_555
Na13 O22 2.382923 1_556
Na13 O28 2.384583 1_456
Na13 O5 2.388876 1_555
Na13 O6 2.438579 1_556
Na13 O11 2.458959 1_455
Na14 O19 2.338051 1_555
Na14 O35 2.353901 1_555
Na14 O15 2.452606 1_555
Na14 O39 2.471421 1_555
Na14 O44 2.556441 1_655
Na14 O0 2.578853 1_555
Na15 O1 2.512406 1_555
Na15 O0 2.512406 1_455
Na15 O44 2.642098 1_555
Na15 O20 2.642098 1_455
Na15 O16 2.811641 1_555
Na15 O33 2.811641 1_455
Cu0 O14 1.937442 1_565
Cu0 O17 1.949840 1_555
Cu0 O30 1.959983 1_565
Cu0 O40 1.993415 1_554
Cu0 O21 2.459352 1_555
Cu1 O33 1.933340 1_555
Cu1 O29 1.949937 1_545
Cu1 O13 1.955694 1_555
Cu1 O42 1.993730 1_545
Cu1 O9 2.504796 1_555
Cu1 O26 2.674099 1_655
Cu2 O45 1.937442 1_545
Cu2 O7 1.949840 1_555
Cu2 O2 1.959983 1_545
Cu2 O37 1.993415 1_556
Cu2 O34 2.459352 1_555
Cu3 O16 1.933340 1_555
Cu3 O24 1.949937 1_565
Cu3 O47 1.955694 1_555
Cu3 O26 1.993730 1_565
Cu3 O4 2.504796 1_555
Cu3 O42 2.674099 1_455
Mo0 O23 1.777387 1_555
Mo0 O35 1.777491 1_555
Mo0 O16 1.826542 1_655
Mo0 O29 1.848532 1_555
Mo1 O27 1.777387 1_555
Mo1 O8 1.777491 1_555
Mo1 O33 1.826542 1_455
Mo1 O24 1.848532 1_555
Mo2 O39 1.778367 1_555
Mo2 O31 1.788779 1_555
Mo2 O6 1.800544 1_555
Mo2 O37 1.840899 1_555
Mo3 O5 1.776509 1_555
Mo3 O18 1.780717 1_555
Mo3 O45 1.827499 1_555
Mo3 O17 1.847233 1_556
Mo4 O19 1.776509 1_555
Mo4 O28 1.780717 1_555
Mo4 O14 1.827499 1_555
Mo4 O7 1.847233 1_554
Mo5 O3 1.773434 1_555
Mo5 O43 1.793402 1_555
Mo5 O34 1.803105 1_555
Mo5 O26 1.841051 1_555
Mo6 O25 1.775547 1_555
Mo6 O1 1.792157 1_555
Mo6 O4 1.810120 1_555
Mo6 O2 1.829862 1_555
Mo7 O46 1.775547 1_555
Mo7 O0 1.792157 1_555
Mo7 O9 1.810120 1_555
Mo7 O30 1.829862 1_555
Mo8 O22 1.775107 1_555
Mo8 O44 1.788988 1_555
Mo8 O12 1.810700 1_555
Mo8 O47 1.831795 1_555
Mo9 O11 1.775107 1_555
Mo9 O20 1.788988 1_555
Mo9 O41 1.810700 1_555
Mo9 O13 1.831795 1_555
Mo10 O15 1.773434 1_555
Mo10 O32 1.793402 1_555
Mo10 O21 1.803105 1_555
Mo10 O42 1.841051 1_555
Mo11 O38 1.778367 1_555
Mo11 O36 1.788779 1_555
Mo11 O10 1.800544 1_555
Mo11 O40 1.840899 1_555
