# generated using pymatgen
data_Rb4NpS2ClO10
_symmetry_space_group_name_H-M   'P 1'
_cell_length_a   4.66814000
_cell_length_b   10.74418000
_cell_length_c   14.97333274
_cell_angle_alpha   77.19285569
_cell_angle_beta   90.00000000
_cell_angle_gamma   90.00000000
_symmetry_Int_Tables_number   1
_chemical_formula_structural   Rb4NpS2ClO10
_chemical_formula_sum   'Rb8 Np2 S4 Cl2 O20'
_cell_volume   732.30913949
_cell_formula_units_Z   2
loop_
 _symmetry_equiv_pos_site_id
 _symmetry_equiv_pos_as_xyz
  1  'x, y, z'
loop_
 _atom_site_type_symbol
 _atom_site_label
 _atom_site_symmetry_multiplicity
 _atom_site_fract_x
 _atom_site_fract_y
 _atom_site_fract_z
 _atom_site_occupancy
  Rb  Rb0  1  0.76518400  0.05919400  0.10551900  1
  Rb  Rb1  1  0.22947100  0.43585800  0.12932700  1
  Rb  Rb2  1  0.23481600  0.94080600  0.89448100  1
  Rb  Rb3  1  0.22947100  0.06414200  0.37067300  1
  Rb  Rb4  1  0.76518400  0.44080600  0.39448100  1
  Rb  Rb5  1  0.23481600  0.55919400  0.60551900  1
  Rb  Rb6  1  0.77052900  0.93585800  0.62932700  1
  Rb  Rb7  1  0.77052900  0.56414200  0.87067300  1
  Np  Np0  1  0.73814800  0.25000000  0.75000000  1
  Np  Np1  1  0.26185200  0.75000000  0.25000000  1
  S  S0  1  0.34440900  0.22684900  0.57430000  1
  S  S1  1  0.65559100  0.77315100  0.42570000  1
  S  S2  1  0.34440900  0.27315100  0.92570000  1
  S  S3  1  0.65559100  0.72684900  0.07430000  1
  Cl  Cl0  1  0.26822600  0.75000000  0.75000000  1
  Cl  Cl1  1  0.73177400  0.25000000  0.25000000  1
  O  O0  1  0.73808800  0.42646300  0.71569200  1
  O  O1  1  0.74468600  0.60110400  0.05966100  1
  O  O2  1  0.25531400  0.39889600  0.94033900  1
  O  O3  1  0.74164100  0.66784100  0.50236800  1
  O  O4  1  0.25835900  0.33215900  0.49763200  1
  O  O5  1  0.25531400  0.10110400  0.55966100  1
  O  O6  1  0.33538500  0.77063100  0.41294100  1
  O  O7  1  0.22815200  0.25059900  0.83552200  1
  O  O8  1  0.74164100  0.83215900  0.99763200  1
  O  O9  1  0.77184800  0.75059900  0.33552200  1
  O  O10  1  0.74468600  0.89889600  0.44033900  1
  O  O11  1  0.22815200  0.24940100  0.66447800  1
  O  O12  1  0.66461500  0.27063100  0.91294100  1
  O  O13  1  0.33538500  0.72936900  0.08705900  1
  O  O14  1  0.77184800  0.74940100  0.16447800  1
  O  O15  1  0.66461500  0.22936900  0.58705900  1
  O  O16  1  0.26191200  0.57353700  0.28430800  1
  O  O17  1  0.25835900  0.16784100  0.00236800  1
  O  O18  1  0.73808800  0.07353700  0.78430800  1
  O  O19  1  0.26191200  0.92646300  0.21569200  1
loop_
_geom_bond_atom_site_label_1
_geom_bond_atom_site_label_2
_geom_bond_distance
_geom_bond_site_symmetry_2
Np0 O0 1.851142 1_555
Np0 O18 1.851142 1_555
Np1 O19 1.851142 1_555
Np1 O16 1.851142 1_555
Cl0 Rb5 3.297484 1_555
Cl0 Rb2 3.297484 1_555
Cl0 Rb7 3.324238 1_455
Cl0 Rb6 3.324238 1_455
Cl0 Rb7 3.339301 1_555
Cl0 Rb6 3.339301 1_555
Cl1 Rb4 3.297484 1_555
Cl1 Rb0 3.297484 1_555
Cl1 Rb3 3.324238 1_655
Cl1 Rb1 3.324238 1_655
Cl1 Rb3 3.339301 1_555
Cl1 Rb1 3.339301 1_555
O0 Rb5 3.014784 1_655
O0 Rb7 3.019614 1_555
O0 Rb5 3.038343 1_555
O1 S3 1.475666 1_555
O1 Rb1 2.922428 1_655
O1 Rb7 2.945868 1_554
O1 Rb1 3.033760 1_555
O2 S2 1.475666 1_555
O2 Rb7 2.922428 1_455
O2 Rb1 2.945868 1_556
O2 Rb7 3.033760 1_555
O3 S1 1.477692 1_555
O3 Rb5 2.872111 1_655
O3 Rb5 2.923435 1_555
O3 Rb4 3.212302 1_555
O4 S0 1.477692 1_555
O4 Rb4 2.872111 1_455
O4 Rb4 2.923435 1_555
O4 Rb5 3.212302 1_555
O5 S0 1.475666 1_555
O5 Rb6 2.922428 1_445
O5 Rb3 2.945868 1_555
O5 Rb6 3.033760 1_545
O6 S1 1.507929 1_555
O6 Rb3 3.115277 1_565
O6 Rb5 3.285078 1_555
O7 S2 1.523648 1_555
O7 Rb2 3.249051 1_545
O8 S3 1.477692 1_556
O8 Rb2 2.872111 1_655
O8 Rb2 2.923435 1_555
O8 Rb0 3.212302 1_566
O9 S1 1.523648 1_555
O9 Rb4 3.249051 1_555
O10 S1 1.475666 1_555
O10 Rb3 2.922428 1_665
O10 Rb6 2.945868 1_555
O10 Rb3 3.033760 1_565
O11 S0 1.523648 1_555
O11 Rb5 3.249051 1_555
O12 S2 1.507929 1_555
O12 Rb7 3.115277 1_555
O12 Rb0 3.285078 1_556
O13 S3 1.507929 1_555
O13 Rb1 3.115277 1_555
O13 Rb2 3.285078 1_554
O14 S3 1.523648 1_555
O14 Rb0 3.249051 1_565
O15 S0 1.507929 1_555
O15 Rb6 3.115277 1_545
O15 Rb4 3.285078 1_555
O16 Rb4 3.014784 1_455
O16 Rb1 3.019614 1_555
O16 Rb4 3.038343 1_555
O17 S2 1.477692 1_554
O17 Rb0 2.872111 1_455
O17 Rb0 2.923435 1_555
O17 Rb2 3.212302 1_544
O18 Rb2 3.014784 1_645
O18 Rb6 3.019614 1_545
O18 Rb2 3.038343 1_545
O19 Rb0 3.014784 1_465
O19 Rb3 3.019614 1_565
O19 Rb0 3.038343 1_565
