# generated using pymatgen
data_Ba2TiO4
_symmetry_space_group_name_H-M   'P 1'
_cell_length_a   6.13491891
_cell_length_b   10.58913954
_cell_length_c   23.09852106
_cell_angle_alpha   90.00000000
_cell_angle_beta   90.00000000
_cell_angle_gamma   90.00000000
_symmetry_Int_Tables_number   1
_chemical_formula_structural   Ba2TiO4
_chemical_formula_sum   'Ba24 Ti12 O48'
_cell_volume   1500.56105941
_cell_formula_units_Z   12
loop_
 _symmetry_equiv_pos_site_id
 _symmetry_equiv_pos_as_xyz
  1  'x, y, z'
loop_
 _atom_site_type_symbol
 _atom_site_label
 _atom_site_symmetry_multiplicity
 _atom_site_fract_x
 _atom_site_fract_y
 _atom_site_fract_z
 _atom_site_occupancy
  Ba  Ba0  1  0.23487283  0.57770496  0.88929397  1
  Ba  Ba1  1  0.26426696  0.20069455  0.83530451  1
  Ba  Ba2  1  0.76426696  0.79930545  0.16469549  1
  Ba  Ba3  1  0.71841589  0.42676043  0.44564680  1
  Ba  Ba4  1  0.76043972  0.07447456  0.28039999  1
  Ba  Ba5  1  0.71219372  0.79910645  0.49773474  1
  Ba  Ba6  1  0.23487283  0.92229504  0.38929397  1
  Ba  Ba7  1  0.74693297  0.80136153  0.83040779  1
  Ba  Ba8  1  0.71219372  0.70089355  0.99773474  1
  Ba  Ba9  1  0.73487283  0.07770496  0.61070603  1
  Ba  Ba10  1  0.74693297  0.69863847  0.33040779  1
  Ba  Ba11  1  0.26426696  0.29930545  0.33530451  1
  Ba  Ba12  1  0.21841589  0.57323957  0.55435320  1
  Ba  Ba13  1  0.76043972  0.42552544  0.78039999  1
  Ba  Ba14  1  0.76426696  0.70069455  0.66469549  1
  Ba  Ba15  1  0.73487283  0.42229504  0.11070603  1
  Ba  Ba16  1  0.21219372  0.20089355  0.50226526  1
  Ba  Ba17  1  0.71841589  0.07323957  0.94564680  1
  Ba  Ba18  1  0.24693297  0.19863947  0.16959221  1
  Ba  Ba19  1  0.24693297  0.30136053  0.66959221  1
  Ba  Ba20  1  0.21841589  0.92676043  0.05435320  1
  Ba  Ba21  1  0.21219372  0.29910645  0.00226526  1
  Ba  Ba22  1  0.26043972  0.57447456  0.21960001  1
  Ba  Ba23  1  0.26043972  0.92552544  0.71960001  1
  Ti  Ti0  1  0.24367681  0.58555791  0.07228719  1
  Ti  Ti1  1  0.72085363  0.08594759  0.09502697  1
  Ti  Ti2  1  0.25138428  0.91343554  0.24009120  1
  Ti  Ti3  1  0.74367681  0.41444209  0.92771281  1
  Ti  Ti4  1  0.24367681  0.91444209  0.57228719  1
  Ti  Ti5  1  0.22085363  0.91405241  0.90497303  1
  Ti  Ti6  1  0.22085363  0.58594759  0.40497303  1
  Ti  Ti7  1  0.74367681  0.08555791  0.42771281  1
  Ti  Ti8  1  0.72085363  0.41405241  0.59502697  1
  Ti  Ti9  1  0.25138428  0.58656446  0.74009120  1
  Ti  Ti10  1  0.75138428  0.41343554  0.25990880  1
  Ti  Ti11  1  0.75138428  0.08656446  0.75990880  1
  O  O0  1  0.48791125  0.64753456  0.42496264  1
  O  O1  1  0.96510495  0.20363207  0.74842950  1
  O  O2  1  0.46510495  0.79636793  0.25157050  1
  O  O3  1  0.52806805  0.20281246  0.41960925  1
  O  O4  1  0.17467925  0.06120821  0.61024999  1
  O  O5  1  0.17996406  0.43673955  0.44431591  1
  O  O6  1  0.18941391  0.56156557  0.66456962  1
  O  O7  1  0.31940097  0.55408797  0.99797441  1
  O  O8  1  0.81940097  0.44591203  0.00202559  1
  O  O9  1  0.99736382  0.64059787  0.77274933  1
  O  O10  1  0.31690552  0.06231543  0.27711251  1
  O  O11  1  0.81940097  0.05408797  0.50202559  1
  O  O12  1  0.17467925  0.43879179  0.11024999  1
  O  O13  1  0.99359785  0.14268841  0.39351359  1
  O  O14  1  0.01338050  0.69900245  0.42674067  1
  O  O15  1  0.68887307  0.44334610  0.67133742  1
  O  O16  1  0.46510495  0.70363207  0.75157050  1
  O  O17  1  0.99736382  0.85940213  0.27274933  1
  O  O18  1  0.67996406  0.93673955  0.05568409  1
  O  O19  1  0.96510495  0.29636793  0.24842950  1
  O  O20  1  0.18941391  0.93843443  0.16456962  1
  O  O21  1  0.52806805  0.29718754  0.91960925  1
  O  O22  1  0.81690552  0.93768457  0.72288749  1
  O  O23  1  0.98791125  0.35246544  0.57503736  1
  O  O24  1  0.68887307  0.05665390  0.17133742  1
  O  O25  1  0.49736382  0.35940213  0.22725067  1
  O  O26  1  0.18887307  0.55665390  0.32866258  1
  O  O27  1  0.67467925  0.93879179  0.38975001  1
  O  O28  1  0.49359785  0.64268841  0.10648641  1
  O  O29  1  0.31690552  0.43768457  0.77711251  1
  O  O30  1  0.02806805  0.70281246  0.08039075  1
  O  O31  1  0.67467925  0.56120821  0.88975001  1
  O  O32  1  0.17996406  0.06326045  0.94431591  1
  O  O33  1  0.02806805  0.79718754  0.58039075  1
  O  O34  1  0.18887307  0.94334610  0.82866258  1
  O  O35  1  0.68941391  0.06156557  0.83543038  1
  O  O36  1  0.68941391  0.43843443  0.33543038  1
  O  O37  1  0.67996406  0.56326045  0.55568409  1
  O  O38  1  0.98791125  0.14753456  0.07503736  1
  O  O39  1  0.31940097  0.94591203  0.49797441  1
  O  O40  1  0.99359785  0.35731159  0.89351359  1
  O  O41  1  0.01338050  0.80099755  0.92674067  1
  O  O42  1  0.81690552  0.56231543  0.22288749  1
  O  O43  1  0.49736382  0.14059787  0.72725067  1
  O  O44  1  0.49359785  0.85731159  0.60648641  1
  O  O45  1  0.48791125  0.85246544  0.92496264  1
  O  O46  1  0.51338050  0.19900245  0.07325933  1
  O  O47  1  0.51338050  0.30099755  0.57325933  1
loop_
_geom_bond_atom_site_label_1
_geom_bond_atom_site_label_2
_geom_bond_distance
_geom_bond_site_symmetry_2
Ba0 O7 2.575530 1_555
Ba0 O31 2.703846 1_555
Ba0 O40 2.765323 1_455
Ba0 O41 2.861005 1_555
Ba0 O29 3.027559 1_555
Ba0 O9 3.132663 1_455
Ba1 O40 2.704735 1_455
Ba1 O1 2.719596 1_455
Ba1 O21 2.730435 1_555
Ba1 O34 2.768328 1_545
Ba1 O29 2.865086 1_555
Ba1 O43 2.946081 1_555
Ba1 O32 2.953937 1_555
Ba1 O35 2.995567 1_555
Ba2 O28 2.704735 1_555
Ba2 O2 2.719596 1_555
Ba2 O30 2.730435 1_655
Ba2 O24 2.768328 1_565
Ba2 O42 2.865086 1_555
Ba2 O17 2.946081 1_555
Ba2 O18 2.953937 1_555
Ba2 O20 2.995567 1_655
Ba3 O36 2.555038 1_555
Ba3 O3 2.710907 1_555
Ba3 O0 2.773692 1_555
Ba3 O5 2.833698 1_655
Ba3 O37 2.933447 1_555
Ba4 O24 2.564112 1_555
Ba4 O17 2.707511 1_545
Ba4 O10 2.725149 1_555
Ba4 O19 2.764559 1_555
Ba4 O27 2.953116 1_545
Ba4 O13 3.065015 1_555
Ba5 O14 2.688303 1_655
Ba5 O0 2.700897 1_555
Ba5 O33 2.720458 1_655
Ba5 O11 2.780754 1_565
Ba5 O37 2.840393 1_555
Ba5 O39 2.867672 1_555
Ba5 O27 2.909006 1_555
Ba5 O44 2.913503 1_555
Ba6 O39 2.575530 1_555
Ba6 O27 2.703846 1_555
Ba6 O13 2.765323 1_465
Ba6 O14 2.861005 1_555
Ba6 O10 3.027559 1_565
Ba6 O17 3.132663 1_455
Ba7 O9 2.651828 1_555
Ba7 O16 2.715972 1_555
Ba7 O45 2.754669 1_555
Ba7 O41 2.761037 1_655
Ba7 O35 2.780263 1_565
Ba7 O22 2.904508 1_555
Ba7 O31 2.922720 1_555
Ba7 O34 3.100498 1_655
Ba8 O41 2.688303 1_655
Ba8 O45 2.700897 1_555
Ba8 O30 2.720458 1_656
Ba8 O8 2.780754 1_556
Ba8 O18 2.840393 1_556
Ba8 O7 2.867672 1_555
Ba8 O31 2.909006 1_555
Ba8 O28 2.913503 1_556
Ba9 O11 2.575530 1_555
Ba9 O4 2.703846 1_655
Ba9 O44 2.765323 1_545
Ba9 O47 2.861005 1_555
Ba9 O22 3.027559 1_545
Ba9 O43 3.132663 1_555
Ba10 O17 2.651828 1_555
Ba10 O2 2.715972 1_555
Ba10 O0 2.754669 1_555
Ba10 O14 2.761037 1_655
Ba10 O36 2.780263 1_555
Ba10 O42 2.904508 1_555
Ba10 O27 2.922720 1_555
Ba10 O26 3.100498 1_655
Ba11 O13 2.704735 1_455
Ba11 O19 2.719596 1_455
Ba11 O3 2.730435 1_555
Ba11 O26 2.768328 1_555
Ba11 O10 2.865086 1_555
Ba11 O25 2.946081 1_555
Ba11 O5 2.953937 1_555
Ba11 O36 2.995567 1_555
Ba12 O6 2.555038 1_555
Ba12 O33 2.710907 1_555
Ba12 O23 2.773692 1_455
Ba12 O37 2.833698 1_555
Ba12 O5 2.933447 1_555
Ba13 O15 2.564112 1_555
Ba13 O9 2.707511 1_555
Ba13 O29 2.725149 1_555
Ba13 O1 2.764559 1_555
Ba13 O31 2.953116 1_555
Ba13 O40 3.065015 1_555
Ba14 O44 2.704735 1_555
Ba14 O16 2.719596 1_555
Ba14 O33 2.730435 1_655
Ba14 O15 2.768328 1_555
Ba14 O22 2.865086 1_555
Ba14 O9 2.946081 1_555
Ba14 O37 2.953937 1_555
Ba14 O6 2.995567 1_655
Ba15 O8 2.575530 1_555
Ba15 O12 2.703846 1_655
Ba15 O28 2.765323 1_555
Ba15 O46 2.861005 1_555
Ba15 O42 3.027559 1_555
Ba15 O25 3.132663 1_555
Ba16 O47 2.688303 1_555
Ba16 O23 2.700897 1_455
Ba16 O3 2.720458 1_555
Ba16 O39 2.780754 1_545
Ba16 O5 2.840393 1_555
Ba16 O11 2.867672 1_455
Ba16 O4 2.909006 1_555
Ba16 O13 2.913503 1_455
Ba17 O35 2.555038 1_555
Ba17 O21 2.710907 1_555
Ba17 O45 2.773692 1_545
Ba17 O32 2.833698 1_655
Ba17 O18 2.933447 1_546
Ba18 O25 2.651821 1_555
Ba18 O19 2.715968 1_455
Ba18 O38 2.754671 1_455
Ba18 O46 2.761036 1_555
Ba18 O20 2.780273 1_545
Ba18 O10 2.904513 1_555
Ba18 O12 2.922711 1_555
Ba18 O24 3.100503 1_555
Ba19 O43 2.651821 1_555
Ba19 O1 2.715968 1_455
Ba19 O23 2.754671 1_455
Ba19 O47 2.761036 1_555
Ba19 O6 2.780273 1_555
Ba19 O29 2.904513 1_555
Ba19 O4 2.922711 1_555
Ba19 O15 3.100503 1_555
Ba20 O20 2.555038 1_555
Ba20 O30 2.710907 1_555
Ba20 O38 2.773692 1_465
Ba20 O18 2.833698 1_555
Ba20 O32 2.933447 1_564
Ba21 O46 2.688303 1_555
Ba21 O38 2.700897 1_455
Ba21 O21 2.720458 1_554
Ba21 O7 2.780754 1_554
Ba21 O32 2.840393 1_554
Ba21 O8 2.867672 1_455
Ba21 O12 2.909006 1_555
Ba21 O40 2.913503 1_454
Ba22 O26 2.564112 1_555
Ba22 O25 2.707511 1_555
Ba22 O42 2.725149 1_455
Ba22 O2 2.764559 1_555
Ba22 O12 2.953116 1_555
Ba22 O28 3.065015 1_555
Ba23 O34 2.564112 1_555
Ba23 O43 2.707511 1_565
Ba23 O22 2.725149 1_455
Ba23 O16 2.764559 1_555
Ba23 O4 2.953116 1_565
Ba23 O44 3.065015 1_555
O0 Ti6 1.822849 1_555
O1 Ti11 1.823778 1_555
O2 Ti2 1.823778 1_555
O3 Ti7 1.823819 1_555
O4 Ti4 1.833962 1_545
O5 Ti6 1.839872 1_555
O6 Ti9 1.804903 1_555
O7 Ti0 1.809224 1_556
O8 Ti3 1.809224 1_554
O9 Ti9 1.823464 1_655
O10 Ti2 1.837994 1_545
O11 Ti7 1.809224 1_555
O12 Ti0 1.833962 1_555
O13 Ti7 1.827798 1_555
O14 Ti6 1.818264 1_555
O15 Ti8 1.800467 1_555
O16 Ti9 1.823778 1_555
O17 Ti2 1.823464 1_655
O18 Ti1 1.839872 1_565
O19 Ti10 1.823778 1_555
O20 Ti2 1.804903 1_555
O21 Ti3 1.823819 1_555
O22 Ti11 1.837994 1_565
O23 Ti8 1.822849 1_555
O24 Ti1 1.800467 1_555
O25 Ti10 1.823464 1_555
O26 Ti6 1.800467 1_555
O27 Ti7 1.833962 1_565
O28 Ti0 1.827798 1_555
O29 Ti9 1.837994 1_555
O30 Ti0 1.823819 1_555
O31 Ti3 1.833962 1_555
O32 Ti5 1.839872 1_545
O33 Ti4 1.823819 1_555
O34 Ti5 1.800467 1_555
O35 Ti11 1.804903 1_555
O36 Ti10 1.804903 1_555
O37 Ti8 1.839872 1_555
O38 Ti1 1.822849 1_555
O39 Ti4 1.809224 1_555
O40 Ti3 1.827798 1_555
O41 Ti5 1.818264 1_555
O42 Ti10 1.837994 1_555
O43 Ti11 1.823464 1_555
O44 Ti4 1.827798 1_555
O45 Ti5 1.822849 1_555
O46 Ti1 1.818264 1_555
O47 Ti8 1.818264 1_555
