# generated using pymatgen
data_KAlSiO4
_symmetry_space_group_name_H-M   'P 1'
_cell_length_a   8.51921653
_cell_length_b   9.02431912
_cell_length_c   15.63549055
_cell_angle_alpha   90.00000000
_cell_angle_beta   89.75099134
_cell_angle_gamma   90.00000000
_symmetry_Int_Tables_number   1
_chemical_formula_structural   KAlSiO4
_chemical_formula_sum   'K12 Al12 Si12 O48'
_cell_volume   1202.04717304
_cell_formula_units_Z   12
loop_
 _symmetry_equiv_pos_site_id
 _symmetry_equiv_pos_as_xyz
  1  'x, y, z'
loop_
 _atom_site_type_symbol
 _atom_site_label
 _atom_site_symmetry_multiplicity
 _atom_site_fract_x
 _atom_site_fract_y
 _atom_site_fract_z
 _atom_site_occupancy
  K  K0  1  0.24802699  0.99362857  0.94083586  1
  K  K1  1  0.74843138  0.00544784  0.54768040  1
  K  K2  1  0.74816265  0.98784406  0.89011198  1
  K  K3  1  0.75019699  0.97115556  0.29460755  1
  K  K4  1  0.24980301  0.47115556  0.70539245  1
  K  K5  1  0.24814216  0.01215954  0.60434248  1
  K  K6  1  0.25156862  0.50544784  0.45231960  1
  K  K7  1  0.74807255  0.52922012  0.79125106  1
  K  K8  1  0.75185784  0.51216054  0.39565752  1
  K  K9  1  0.75197301  0.49362857  0.05916414  1
  K  K10  1  0.25192745  0.02922012  0.20874894  1
  K  K11  1  0.25183735  0.48784406  0.10988802  1
  Al  Al0  1  0.56183714  0.34439456  0.56204731  1
  Al  Al1  1  0.43718533  0.33387606  0.88479758  1
  Al  Al2  1  0.94105779  0.16327807  0.05366835  1
  Al  Al3  1  0.56281467  0.83387606  0.11520242  1
  Al  Al4  1  0.06323363  0.65591449  0.27742923  1
  Al  Al5  1  0.05894221  0.66327807  0.94633165  1
  Al  Al6  1  0.43816286  0.84439456  0.43795269  1
  Al  Al7  1  0.43547795  0.82274701  0.77052550  1
  Al  Al8  1  0.93428612  0.67623869  0.60100235  1
  Al  Al9  1  0.06571388  0.17623869  0.39899765  1
  Al  Al10  1  0.93676637  0.15591449  0.72257077  1
  Al  Al11  1  0.56452205  0.32274701  0.22947450  1
  Si  Si0  1  0.05722608  0.82196538  0.77088143  1
  Si  Si1  1  0.44315646  0.17684085  0.39972967  1
  Si  Si2  1  0.05342268  0.33249841  0.88491721  1
  Si  Si3  1  0.55118602  0.16559092  0.05355717  1
  Si  Si4  1  0.05553614  0.84479008  0.43744054  1
  Si  Si5  1  0.94657732  0.83249841  0.11508279  1
  Si  Si6  1  0.94446386  0.34479008  0.56255946  1
  Si  Si7  1  0.94277392  0.32196538  0.22911857  1
  Si  Si8  1  0.55543124  0.15492945  0.72297448  1
  Si  Si9  1  0.44456876  0.65492945  0.27702552  1
  Si  Si10  1  0.44881398  0.66559092  0.94644283  1
  Si  Si11  1  0.55684354  0.67684085  0.60027033  1
  O  O0  1  0.23932511  0.77503749  0.75840438  1
  O  O1  1  0.03744598  0.99619851  0.75045032  1
  O  O2  1  0.97472801  0.70325016  0.04507977  1
  O  O3  1  0.47494173  0.51672440  0.58094876  1
  O  O4  1  0.73918158  0.16549823  0.03869021  1
  O  O5  1  0.53208855  0.70149170  0.03674814  1
  O  O6  1  0.26131937  0.17755705  0.42923807  1
  O  O7  1  0.02514533  0.50411705  0.58360398  1
  O  O8  1  0.53127855  0.30460770  0.45437998  1
  O  O9  1  0.26081842  0.66549823  0.96130979  1
  O  O10  1  0.50279545  0.29020290  0.12413266  1
  O  O11  1  0.53511301  0.29030383  0.79007984  1
  O  O12  1  0.23837733  0.34574750  0.86330875  1
  O  O13  1  0.02353843  0.81075090  0.53767221  1
  O  O14  1  0.00282335  0.79426770  0.86990397  1
  O  O15  1  0.26113511  0.60749026  0.28383089  1
  O  O16  1  0.46872145  0.80460770  0.54562002  1
  O  O17  1  0.99717665  0.29426770  0.13009603  1
  O  O18  1  0.49720455  0.79020290  0.87586734  1
  O  O19  1  0.01514373  0.21544204  0.62387618  1
  O  O20  1  0.24037474  0.85336409  0.41977545  1
  O  O21  1  0.46791145  0.20149170  0.96325186  1
  O  O22  1  0.48848772  0.20684727  0.62987864  1
  O  O23  1  0.03998236  0.79622497  0.20261395  1
  O  O24  1  0.73868063  0.67755705  0.57076193  1
  O  O25  1  0.96255402  0.49619851  0.24954968  1
  O  O26  1  0.75962526  0.35336409  0.58022455  1
  O  O27  1  0.46488699  0.79030383  0.20992016  1
  O  O28  1  0.97485467  0.00411705  0.41639602  1
  O  O29  1  0.51302471  0.50457931  0.91669947  1
  O  O30  1  0.52505827  0.01672440  0.41905124  1
  O  O31  1  0.04750367  0.21857976  0.29109774  1
  O  O32  1  0.54390952  0.51147959  0.24680715  1
  O  O33  1  0.76162267  0.84574750  0.13669125  1
  O  O34  1  0.02527199  0.20325016  0.95492023  1
  O  O35  1  0.98528187  0.48909257  0.92059097  1
  O  O36  1  0.45852901  0.20942636  0.29831126  1
  O  O37  1  0.54147099  0.70942636  0.70168874  1
  O  O38  1  0.76067489  0.27503749  0.24159562  1
  O  O39  1  0.95249633  0.71857976  0.70890226  1
  O  O40  1  0.51151228  0.70684727  0.37012136  1
  O  O41  1  0.98485627  0.71544204  0.37612382  1
  O  O42  1  0.73886589  0.10749026  0.71616911  1
  O  O43  1  0.01471813  0.98909257  0.07940903  1
  O  O44  1  0.45609048  0.01147959  0.75319285  1
  O  O45  1  0.96001764  0.29622497  0.79738605  1
  O  O46  1  0.97646157  0.31075090  0.46232779  1
  O  O47  1  0.48697529  0.00457931  0.08330053  1
loop_
_geom_bond_atom_site_label_1
_geom_bond_atom_site_label_2
_geom_bond_distance
_geom_bond_site_symmetry_2
K0 O21 2.675126 1_565
K0 O34 2.687865 1_565
K0 O43 2.934152 1_556
K0 O14 2.974991 1_555
K0 O9 2.980450 1_555
K0 O18 2.981524 1_555
K0 O47 3.025696 1_566
K1 O30 2.776642 1_555
K1 O42 2.791567 1_555
K1 O28 2.810717 1_555
K1 O13 2.932795 1_645
K1 O24 2.982031 1_545
K1 O16 2.994148 1_545
K1 O22 3.135983 1_555
K1 O26 3.182169 1_555
K1 O19 3.193258 1_655
K2 O18 2.793885 1_555
K2 O14 2.802193 1_655
K2 O4 2.823358 1_566
K2 O42 2.927563 1_565
K2 O34 3.224821 1_665
K2 O21 3.271326 1_565
K2 O1 3.286481 1_655
K2 O44 3.296374 1_565
K3 O33 2.717468 1_555
K3 O28 2.721996 1_565
K3 O30 2.757048 1_565
K3 O38 2.866131 1_565
K4 O12 2.717468 1_555
K4 O7 2.721996 1_555
K4 O3 2.757048 1_555
K4 O0 2.866131 1_555
K5 O19 2.719087 1_555
K5 O22 2.728698 1_555
K5 O16 2.804897 1_545
K5 O13 2.840571 1_545
K5 O1 2.902723 1_545
K5 O44 2.931013 1_555
K5 O6 3.119867 1_555
K5 O0 3.222665 1_545
K5 O20 3.222950 1_545
K6 O3 2.776642 1_555
K6 O15 2.791567 1_555
K6 O7 2.810717 1_555
K6 O46 2.932795 1_455
K6 O6 2.982031 1_555
K6 O8 2.994148 1_555
K6 O40 3.135983 1_555
K6 O20 3.182169 1_555
K6 O41 3.193258 1_455
K7 O39 2.755249 1_555
K7 O45 2.773435 1_555
K7 O37 2.779380 1_555
K7 O29 2.805759 1_555
K7 O11 2.817925 1_555
K7 O35 2.887925 1_555
K8 O41 2.719081 1_555
K8 O40 2.728692 1_555
K8 O8 2.804903 1_555
K8 O46 2.840577 1_555
K8 O25 2.902724 1_555
K8 O32 2.931013 1_555
K8 O24 3.119863 1_555
K8 O38 3.222671 1_555
K8 O26 3.222954 1_555
K9 O5 2.675126 1_555
K9 O2 2.687865 1_555
K9 O35 2.934152 1_554
K9 O17 2.974991 1_555
K9 O4 2.980450 1_555
K9 O10 2.981524 1_555
K9 O29 3.025696 1_554
K10 O31 2.755249 1_555
K10 O23 2.773435 1_545
K10 O36 2.779380 1_555
K10 O47 2.805759 1_555
K10 O27 2.817925 1_545
K10 O43 2.887925 1_545
K11 O10 2.793885 1_555
K11 O17 2.802193 1_455
K11 O9 2.823358 1_554
K11 O15 2.927563 1_555
K11 O2 3.224821 1_455
K11 O5 3.271326 1_555
K11 O25 3.286481 1_455
K11 O32 3.296374 1_555
Al0 O26 1.711933 1_555
Al0 O8 1.741965 1_555
Al0 O22 1.746508 1_555
Al0 O3 1.746990 1_555
Al1 O12 1.731442 1_555
Al1 O21 1.733000 1_555
Al1 O11 1.741584 1_555
Al1 O29 1.744167 1_555
Al2 O4 1.736823 1_555
Al2 O34 1.737547 1_654
Al2 O43 1.740361 1_645
Al2 O17 1.748961 1_555
Al3 O33 1.731442 1_555
Al3 O5 1.733000 1_555
Al3 O27 1.741584 1_555
Al3 O47 1.744167 1_565
Al4 O25 1.733887 1_455
Al4 O23 1.735771 1_555
Al4 O15 1.744973 1_555
Al4 O41 1.762595 1_455
Al5 O9 1.736823 1_555
Al5 O2 1.737547 1_456
Al5 O35 1.740361 1_455
Al5 O14 1.748961 1_555
Al6 O20 1.711933 1_555
Al6 O16 1.741965 1_555
Al6 O40 1.746508 1_555
Al6 O30 1.746990 1_565
Al7 O44 1.733407 1_565
Al7 O37 1.735261 1_555
Al7 O0 1.736810 1_555
Al7 O18 1.755892 1_555
Al8 O24 1.734203 1_555
Al8 O39 1.737395 1_555
Al8 O13 1.739426 1_655
Al8 O7 1.756133 1_655
Al9 O6 1.734203 1_555
Al9 O31 1.737395 1_555
Al9 O46 1.739426 1_455
Al9 O28 1.756133 1_455
Al10 O1 1.733887 1_645
Al10 O45 1.735771 1_555
Al10 O42 1.744965 1_555
Al10 O19 1.762595 1_655
Al11 O32 1.733407 1_555
Al11 O36 1.735261 1_555
Al11 O38 1.736810 1_555
Al11 O10 1.755892 1_555
O0 Si0 1.619084 1_555
O1 Si0 1.613428 1_555
O2 Si5 1.616684 1_555
O3 Si11 1.633339 1_555
O4 Si3 1.617356 1_555
O5 Si10 1.615741 1_554
O6 Si1 1.614447 1_555
O7 Si6 1.627880 1_455
O8 Si1 1.621341 1_555
O9 Si10 1.617356 1_555
O10 Si3 1.627346 1_555
O11 Si8 1.619171 1_555
O12 Si2 1.614481 1_555
O13 Si4 1.618944 1_555
O14 Si0 1.633453 1_555
O15 Si9 1.623335 1_555
O16 Si11 1.621341 1_555
O17 Si7 1.633453 1_555
O18 Si10 1.627346 1_555
O19 Si6 1.627656 1_455
O20 Si4 1.599410 1_555
O21 Si3 1.615741 1_556
O22 Si8 1.634242 1_555
O23 Si5 1.619526 1_455
O24 Si11 1.614447 1_555
O25 Si7 1.613428 1_555
O26 Si6 1.599410 1_555
O27 Si9 1.619171 1_555
O28 Si4 1.627880 1_645
O29 Si10 1.620051 1_555
O30 Si1 1.633339 1_555
O31 Si7 1.616518 1_455
O32 Si9 1.616113 1_555
O33 Si5 1.614481 1_555
O34 Si2 1.616684 1_555
O35 Si2 1.625514 1_655
O36 Si1 1.617513 1_555
O37 Si11 1.617513 1_555
O38 Si7 1.619084 1_555
O39 Si0 1.616518 1_655
O40 Si9 1.634242 1_555
O41 Si4 1.627656 1_655
O42 Si8 1.623343 1_555
O43 Si5 1.625514 1_455
O44 Si8 1.616113 1_555
O45 Si2 1.619526 1_655
O46 Si6 1.618944 1_555
O47 Si3 1.620051 1_555
