# generated using pymatgen
data_Li2V(PO4)2
_symmetry_space_group_name_H-M   'P 1'
_cell_length_a   8.34251300
_cell_length_b   5.04674900
_cell_length_c   7.00399347
_cell_angle_alpha   81.79545525
_cell_angle_beta   90.00000000
_cell_angle_gamma   90.00000000
_symmetry_Int_Tables_number   1
_chemical_formula_structural   Li2V(PO4)2
_chemical_formula_sum   'Li4 V2 P4 O16'
_cell_volume   291.86793477
_cell_formula_units_Z   2
loop_
 _symmetry_equiv_pos_site_id
 _symmetry_equiv_pos_as_xyz
  1  'x, y, z'
loop_
 _atom_site_type_symbol
 _atom_site_label
 _atom_site_symmetry_multiplicity
 _atom_site_fract_x
 _atom_site_fract_y
 _atom_site_fract_z
 _atom_site_occupancy
  Li  Li0  1  0.48827400  0.24990800  0.75027800  1
  Li  Li1  1  0.98827400  0.75009200  0.24972200  1
  Li  Li2  1  0.64849400  0.73574300  0.89072400  1
  Li  Li3  1  0.14849400  0.26425700  0.10927600  1
  V  V0  1  0.00145200  0.75886200  0.73759000  1
  V  V1  1  0.50145200  0.24113800  0.26241000  1
  P  P0  1  0.32240100  0.79471800  0.02214500  1
  P  P1  1  0.18023600  0.31246200  0.52053600  1
  P  P2  1  0.82240100  0.20528200  0.97785500  1
  P  P3  1  0.68023600  0.68753800  0.47946400  1
  O  O0  1  0.92906200  0.10443600  0.14639000  1
  O  O1  1  0.64636200  0.53768200  0.30398000  1
  O  O2  1  0.33556500  0.96972200  0.18891600  1
  O  O3  1  0.83556500  0.03027800  0.81108400  1
  O  O4  1  0.60397200  0.56294100  0.66513600  1
  O  O5  1  0.10397200  0.43705900  0.33486400  1
  O  O6  1  0.42906200  0.89556400  0.85361000  1
  O  O7  1  0.36444600  0.28614800  0.49523000  1
  O  O8  1  0.14636200  0.46231800  0.69602000  1
  O  O9  1  0.86444600  0.71385200  0.50477000  1
  O  O10  1  0.13984000  0.79547500  0.97041600  1
  O  O11  1  0.63984000  0.20452500  0.02958400  1
  O  O12  1  0.61438300  0.98168700  0.41626100  1
  O  O13  1  0.11438300  0.01831300  0.58373900  1
  O  O14  1  0.36767200  0.49304100  0.09542000  1
  O  O15  1  0.86767200  0.50695900  0.90458000  1
loop_
_geom_bond_atom_site_label_1
_geom_bond_atom_site_label_2
_geom_bond_distance
_geom_bond_site_symmetry_2
Li0 O4 1.874601 1_555
Li0 O6 1.896411 1_545
Li0 O7 2.049007 1_555
Li0 O11 2.313078 1_556
Li1 O5 1.874601 1_655
Li1 O0 1.896411 1_565
Li1 O9 2.049007 1_555
Li1 O10 2.313078 1_654
Li2 O4 1.946336 1_555
Li2 O6 2.002360 1_555
Li2 O15 2.157306 1_555
Li2 O3 2.172467 1_565
Li3 O5 1.946336 1_555
Li3 O0 2.002360 1_455
Li3 O14 2.157306 1_555
Li3 O2 2.172467 1_545
O0 P2 1.507556 1_554
O1 P3 1.558137 1_555
O1 V1 1.977466 1_555
O2 P0 1.565541 1_555
O2 V1 2.063419 1_565
O3 P2 1.565541 1_555
O3 V0 2.063419 1_645
O4 P3 1.502651 1_555
O5 P1 1.502651 1_555
O6 P0 1.507556 1_556
O7 P1 1.554813 1_555
O7 V1 2.030467 1_555
O8 P1 1.558137 1_555
O8 V0 1.977466 1_555
O9 P3 1.554813 1_555
O9 V0 2.030467 1_655
O10 P0 1.565398 1_556
O10 V0 2.027867 1_555
O11 P2 1.565398 1_554
O11 V1 2.027867 1_555
O12 P3 1.585543 1_555
O12 V1 1.833179 1_565
O13 P1 1.585543 1_555
O13 V0 1.833179 1_545
O14 P0 1.581451 1_555
O14 V1 1.950730 1_555
O15 P2 1.581451 1_555
O15 V0 1.950730 1_655
