# generated using pymatgen
data_VSnPO5
_symmetry_space_group_name_H-M   'P 1'
_cell_length_a   6.62775892
_cell_length_b   6.98336890
_cell_length_c   10.66062741
_cell_angle_alpha   83.43602268
_cell_angle_beta   74.29654611
_cell_angle_gamma   113.05919016
_symmetry_Int_Tables_number   1
_chemical_formula_structural   VSnPO5
_chemical_formula_sum   'V4 Sn4 P4 O20'
_cell_volume   423.31213068
_cell_formula_units_Z   4
loop_
 _symmetry_equiv_pos_site_id
 _symmetry_equiv_pos_as_xyz
  1  'x, y, z'
loop_
 _atom_site_type_symbol
 _atom_site_label
 _atom_site_symmetry_multiplicity
 _atom_site_fract_x
 _atom_site_fract_y
 _atom_site_fract_z
 _atom_site_occupancy
  V  V0  1  0.44571500  0.31927400  0.92039900  1
  V  V1  1  0.55430700  0.68072800  0.07958500  1
  V  V2  1  0.94561500  0.81934000  0.42021300  1
  V  V3  1  0.05438000  0.18065500  0.57979300  1
  Sn  Sn0  1  0.01925500  0.26023600  0.19982700  1
  Sn  Sn1  1  0.51976900  0.76065700  0.69983300  1
  Sn  Sn2  1  0.48022000  0.23933600  0.30017200  1
  Sn  Sn3  1  0.98076100  0.73976700  0.80014900  1
  P  P0  1  0.39576400  0.69133300  0.41160800  1
  P  P1  1  0.89580900  0.19163800  0.91173000  1
  P  P2  1  0.10417900  0.80836400  0.08828100  1
  P  P3  1  0.60423900  0.30865300  0.58839600  1
  O  O0  1  0.38778700  0.35229300  0.11173700  1
  O  O1  1  0.88876600  0.85311200  0.61186800  1
  O  O2  1  0.11124800  0.14688600  0.38812800  1
  O  O3  1  0.61226100  0.64775100  0.88820900  1
  O  O4  1  0.61301800  0.81658600  0.45142300  1
  O  O5  1  0.11311600  0.31704900  0.95148300  1
  O  O6  1  0.88684700  0.68293000  0.04855700  1
  O  O7  1  0.38698100  0.18342600  0.54858300  1
  O  O8  1  0.78817300  0.49933900  0.46788100  1
  O  O9  1  0.28854100  0.99925300  0.96794600  1
  O  O10  1  0.71139700  0.00077300  0.03207600  1
  O  O11  1  0.21181200  0.50066700  0.53213500  1
  O  O12  1  0.28663900  0.84409500  0.38118500  1
  O  O13  1  0.78673400  0.34448300  0.88134600  1
  O  O14  1  0.21330900  0.65554600  0.11861300  1
  O  O15  1  0.71337800  0.15590100  0.61880700  1
  O  O16  1  0.47585500  0.61070900  0.28582500  1
  O  O17  1  0.97596100  0.11073800  0.78606200  1
  O  O18  1  0.02403000  0.88923800  0.21395900  1
  O  O19  1  0.52413500  0.38924100  0.71419200  1
loop_
_geom_bond_atom_site_label_1
_geom_bond_atom_site_label_2
_geom_bond_distance
_geom_bond_site_symmetry_2
O0 V0 2.028360 1_554
O0 V1 2.056357 1_555
O0 Sn0 2.156719 1_555
O0 Sn2 2.390695 1_555
O1 V2 2.033508 1_555
O1 V3 2.050598 1_665
O1 Sn1 2.158820 1_555
O1 Sn3 2.388392 1_555
O2 V3 2.033600 1_555
O2 V2 2.050612 1_445
O2 Sn2 2.158669 1_555
O2 Sn0 2.388581 1_555
O3 V1 2.028656 1_556
O3 V0 2.056584 1_555
O3 Sn3 2.156555 1_555
O3 Sn1 2.390267 1_555
O4 P0 1.564502 1_555
O4 V2 2.130407 1_555
O4 Sn1 2.497195 1_555
O5 P1 1.564642 1_455
O5 V0 2.132121 1_555
O5 Sn0 2.495726 1_556
O6 P2 1.564627 1_655
O6 V1 2.131876 1_555
O6 Sn3 2.496346 1_554
O7 P3 1.564469 1_555
O7 V3 2.130385 1_555
O7 Sn2 2.497220 1_555
O8 P3 1.548987 1_555
O8 V2 1.991871 1_555
O9 P2 1.549285 1_556
O9 V0 1.991988 1_565
O10 P1 1.549344 1_554
O10 V1 1.992135 1_545
O11 P0 1.549016 1_555
O11 V3 1.991940 1_555
O12 P0 1.555192 1_555
O12 V2 2.116608 1_455
O12 Sn2 2.468063 1_565
O13 P1 1.555314 1_555
O13 V0 2.115412 1_555
O13 Sn3 2.468449 1_555
O14 P2 1.555301 1_555
O14 V1 2.115369 1_555
O14 Sn0 2.468621 1_555
O15 P3 1.555174 1_555
O15 V3 2.116482 1_655
O15 Sn1 2.468090 1_545
O16 P0 1.555081 1_555
O16 V1 2.068746 1_555
O16 Sn2 2.592415 1_555
O17 P1 1.555335 1_555
O17 V3 2.069061 1_655
O17 Sn3 2.590968 1_545
O18 P2 1.555308 1_555
O18 V2 2.068908 1_455
O18 Sn0 2.591061 1_565
O19 P3 1.555066 1_555
O19 V0 2.068427 1_555
O19 Sn1 2.592711 1_555
