# generated using pymatgen
data_CeGeRh
_symmetry_space_group_name_H-M   'P 1'
_cell_length_a   4.50899045
_cell_length_b   7.39810139
_cell_length_c   7.13480248
_cell_angle_alpha   90.00232157
_cell_angle_beta   90.00000000
_cell_angle_gamma   90.00000000
_symmetry_Int_Tables_number   1
_chemical_formula_structural   CeGeRh
_chemical_formula_sum   'Ce4 Ge4 Rh4'
_cell_volume   238.00251640
_cell_formula_units_Z   4
loop_
 _symmetry_equiv_pos_site_id
 _symmetry_equiv_pos_as_xyz
  1  'x, y, z'
loop_
 _atom_site_type_symbol
 _atom_site_label
 _atom_site_symmetry_multiplicity
 _atom_site_fract_x
 _atom_site_fract_y
 _atom_site_fract_z
 _atom_site_occupancy
  Ce  Ce0  1  0.25000000  0.19820687  0.97612135  1
  Ce  Ce1  1  0.75000000  0.80179313  0.02387865  1
  Ce  Ce2  1  0.75000000  0.69827889  0.52388393  1
  Ce  Ce3  1  0.25000000  0.30172111  0.47611607  1
  Ge  Ge0  1  0.25000000  0.58538724  0.82291351  1
  Ge  Ge1  1  0.75000000  0.41461276  0.17708649  1
  Ge  Ge2  1  0.75000000  0.08543224  0.67710796  1
  Ge  Ge3  1  0.25000000  0.91456776  0.32289204  1
  Rh  Rh0  1  0.25000000  0.58461214  0.20775713  1
  Rh  Rh1  1  0.75000000  0.41538786  0.79224287  1
  Rh  Rh2  1  0.75000000  0.08448552  0.29189027  1
  Rh  Rh3  1  0.25000000  0.91551448  0.70810973  1
loop_
_geom_bond_atom_site_label_1
_geom_bond_atom_site_label_2
_geom_bond_distance
_geom_bond_site_symmetry_2
Ce0 Rh3 2.833747 1_545
Ce0 Rh1 3.063604 1_455
Ce0 Rh1 3.063604 1_555
Ce0 Ge0 3.065929 1_555
Ce0 Ge1 3.114748 1_456
Ce0 Ge1 3.114748 1_556
Ce0 Ge2 3.214046 1_555
Ce0 Ge2 3.214046 1_455
Ce0 Ge3 3.244231 1_546
Ce0 Rh2 3.296438 1_556
Ce0 Rh2 3.296438 1_456
Ce0 Rh0 3.301957 1_556
Ce1 Rh2 2.833747 1_565
Ce1 Rh0 3.063604 1_655
Ce1 Rh0 3.063604 1_555
Ce1 Ge1 3.065929 1_555
Ce1 Ge0 3.114748 1_654
Ce1 Ge0 3.114748 1_554
Ce1 Ge3 3.214046 1_655
Ce1 Ge3 3.214046 1_555
Ce1 Ge2 3.244231 1_564
Ce1 Rh3 3.296438 1_654
Ce1 Rh3 3.296438 1_554
Ce1 Rh1 3.301957 1_554
Ce2 Rh1 2.836618 1_555
Ce2 Rh3 3.064822 1_655
Ce2 Rh3 3.064822 1_555
Ce2 Ge2 3.065701 1_565
Ce2 Ge3 3.114451 1_555
Ce2 Ge3 3.114451 1_655
Ce2 Ge0 3.214393 1_655
Ce2 Ge0 3.214393 1_555
Ce2 Ge1 3.244376 1_555
Ce2 Rh0 3.298034 1_655
Ce2 Rh0 3.298034 1_555
Ce2 Rh2 3.302080 1_565
Ce3 Rh0 2.836618 1_555
Ce3 Rh2 3.064822 1_555
Ce3 Rh2 3.064822 1_455
Ce3 Ge3 3.065701 1_545
Ce3 Ge2 3.114451 1_455
Ce3 Ge2 3.114451 1_555
Ce3 Ge1 3.214393 1_555
Ce3 Ge1 3.214393 1_455
Ce3 Ge0 3.244376 1_555
Ce3 Rh1 3.298034 1_555
Ce3 Rh1 3.298034 1_455
Ce3 Rh3 3.302080 1_545
Ge0 Rh3 2.576042 1_555
Ge0 Rh1 2.590821 1_455
Ge0 Rh1 2.590821 1_555
Ge0 Rh0 2.745789 1_556
Ge1 Rh2 2.576042 1_555
Ge1 Rh0 2.590821 1_555
Ge1 Rh0 2.590821 1_655
Ge1 Rh1 2.745789 1_554
Ge2 Rh1 2.575528 1_555
Ge2 Rh3 2.590737 1_545
Ge2 Rh3 2.590737 1_645
Ge2 Rh2 2.748461 1_555
Ge3 Rh0 2.575528 1_555
Ge3 Rh2 2.590737 1_465
Ge3 Rh2 2.590737 1_565
Ge3 Rh3 2.748461 1_555
