# generated using pymatgen
data_SiO2
_symmetry_space_group_name_H-M   'P 1'
_cell_length_a   14.15314952
_cell_length_b   14.15314952
_cell_length_c   14.15314952
_cell_angle_alpha   60.00000000
_cell_angle_beta   60.00000000
_cell_angle_gamma   60.00000000
_symmetry_Int_Tables_number   1
_chemical_formula_structural   SiO2
_chemical_formula_sum   'Si34 O68'
_cell_volume   2004.67644012
_cell_formula_units_Z   34
loop_
 _symmetry_equiv_pos_site_id
 _symmetry_equiv_pos_as_xyz
  1  'x, y, z'
loop_
 _atom_site_type_symbol
 _atom_site_label
 _atom_site_symmetry_multiplicity
 _atom_site_fract_x
 _atom_site_fract_y
 _atom_site_fract_z
 _atom_site_occupancy
  Si  Si0  1  0.36079400  0.75421700  0.75421700  1
  Si  Si1  1  0.49578300  0.88920600  0.11922800  1
  Si  Si2  1  0.75421700  0.75421700  0.36079400  1
  Si  Si3  1  0.75421700  0.36079400  0.13077200  1
  Si  Si4  1  0.11922800  0.88920600  0.49578300  1
  Si  Si5  1  0.90774000  0.27678000  0.90774000  1
  Si  Si6  1  0.49578300  0.11922800  0.49578300  1
  Si  Si7  1  0.13077200  0.36079400  0.75421700  1
  Si  Si8  1  0.36079400  0.75421700  0.13077200  1
  Si  Si9  1  0.49578300  0.49578300  0.11922800  1
  Si  Si10  1  0.11922800  0.49578300  0.49578300  1
  Si  Si11  1  0.49578300  0.88920600  0.49578300  1
  Si  Si12  1  0.34226000  0.97322000  0.34226000  1
  Si  Si13  1  0.75421700  0.75421700  0.13077200  1
  Si  Si14  1  0.75421700  0.36079400  0.75421700  1
  Si  Si15  1  0.88920600  0.49578300  0.49578300  1
  Si  Si16  1  0.90774000  0.90774000  0.27678000  1
  Si  Si17  1  0.97322000  0.34226000  0.34226000  1
  Si  Si18  1  0.75421700  0.13077200  0.75421700  1
  Si  Si19  1  0.11922800  0.49578300  0.88920600  1
  Si  Si20  1  0.34226000  0.34226000  0.97322000  1
  Si  Si21  1  0.25000000  0.25000000  0.25000000  1
  Si  Si22  1  0.75421700  0.13077200  0.36079400  1
  Si  Si23  1  0.27678000  0.90774000  0.90774000  1
  Si  Si24  1  0.88920600  0.49578300  0.11922800  1
  Si  Si25  1  0.13077200  0.75421700  0.75421700  1
  Si  Si26  1  0.34226000  0.34226000  0.34226000  1
  Si  Si27  1  0.13077200  0.75421700  0.36079400  1
  Si  Si28  1  0.00000000  0.00000000  0.00000000  1
  Si  Si29  1  0.49578300  0.49578300  0.88920600  1
  Si  Si30  1  0.90774000  0.90774000  0.90774000  1
  Si  Si31  1  0.36079400  0.13077200  0.75421700  1
  Si  Si32  1  0.88920600  0.11922800  0.49578300  1
  Si  Si33  1  0.49578300  0.11922800  0.88920600  1
  O  O0  1  0.00098600  0.49901400  0.00098600  1
  O  O1  1  0.41925100  0.23189700  0.41925100  1
  O  O2  1  0.95390500  0.95390500  0.95390500  1
  O  O3  1  0.83074900  0.01810300  0.83074900  1
  O  O4  1  0.24901400  0.75098600  0.24901400  1
  O  O5  1  0.41925100  0.92960000  0.41925100  1
  O  O6  1  0.32040000  0.83074900  0.83074900  1
  O  O7  1  0.62500000  0.81032400  0.12500000  1
  O  O8  1  0.92960000  0.23189700  0.41925100  1
  O  O9  1  0.29609500  0.29609500  0.11171500  1
  O  O10  1  0.12500000  0.43967600  0.62500000  1
  O  O11  1  0.92960000  0.41925100  0.23189700  1
  O  O12  1  0.41925100  0.92960000  0.23189700  1
  O  O13  1  0.23189700  0.41925100  0.92960000  1
  O  O14  1  0.49901400  0.00098600  0.00098600  1
  O  O15  1  0.41925100  0.41925100  0.23189700  1
  O  O16  1  0.75098600  0.24901400  0.75098600  1
  O  O17  1  0.12500000  0.43967600  0.81032400  1
  O  O18  1  0.23189700  0.41925100  0.41925100  1
  O  O19  1  0.83074900  0.83074900  0.01810300  1
  O  O20  1  0.32040000  0.83074900  0.01810300  1
  O  O21  1  0.29609500  0.29609500  0.29609500  1
  O  O22  1  0.00098600  0.00098600  0.49901400  1
  O  O23  1  0.95390500  0.95390500  0.13828500  1
  O  O24  1  0.41925100  0.23189700  0.92960000  1
  O  O25  1  0.62500000  0.43967600  0.12500000  1
  O  O26  1  0.83074900  0.01810300  0.32040000  1
  O  O27  1  0.81032400  0.43967600  0.12500000  1
  O  O28  1  0.00098600  0.49901400  0.49901400  1
  O  O29  1  0.13828500  0.95390500  0.95390500  1
  O  O30  1  0.92960000  0.41925100  0.41925100  1
  O  O31  1  0.43967600  0.62500000  0.12500000  1
  O  O32  1  0.23189700  0.92960000  0.41925100  1
  O  O33  1  0.83074900  0.32040000  0.01810300  1
  O  O34  1  0.43967600  0.12500000  0.81032400  1
  O  O35  1  0.81032400  0.43967600  0.62500000  1
  O  O36  1  0.75098600  0.24901400  0.24901400  1
  O  O37  1  0.81032400  0.62500000  0.43967600  1
  O  O38  1  0.24901400  0.24901400  0.75098600  1
  O  O39  1  0.01810300  0.83074900  0.83074900  1
  O  O40  1  0.62500000  0.43967600  0.81032400  1
  O  O41  1  0.12500000  0.81032400  0.62500000  1
  O  O42  1  0.01810300  0.83074900  0.32040000  1
  O  O43  1  0.81032400  0.12500000  0.43967600  1
  O  O44  1  0.12500000  0.62500000  0.43967600  1
  O  O45  1  0.32040000  0.01810300  0.83074900  1
  O  O46  1  0.75098600  0.75098600  0.24901400  1
  O  O47  1  0.43967600  0.81032400  0.62500000  1
  O  O48  1  0.24901400  0.75098600  0.75098600  1
  O  O49  1  0.81032400  0.62500000  0.12500000  1
  O  O50  1  0.01810300  0.32040000  0.83074900  1
  O  O51  1  0.62500000  0.81032400  0.43967600  1
  O  O52  1  0.12500000  0.62500000  0.81032400  1
  O  O53  1  0.49901400  0.49901400  0.00098600  1
  O  O54  1  0.43967600  0.12500000  0.62500000  1
  O  O55  1  0.11171500  0.29609500  0.29609500  1
  O  O56  1  0.43967600  0.81032400  0.12500000  1
  O  O57  1  0.43967600  0.62500000  0.81032400  1
  O  O58  1  0.41925100  0.41925100  0.92960000  1
  O  O59  1  0.62500000  0.12500000  0.81032400  1
  O  O60  1  0.95390500  0.13828500  0.95390500  1
  O  O61  1  0.49901400  0.00098600  0.49901400  1
  O  O62  1  0.29609500  0.11171500  0.29609500  1
  O  O63  1  0.83074900  0.32040000  0.83074900  1
  O  O64  1  0.62500000  0.12500000  0.43967600  1
  O  O65  1  0.83074900  0.83074900  0.32040000  1
  O  O66  1  0.12500000  0.81032400  0.43967600  1
  O  O67  1  0.81032400  0.12500000  0.62500000  1
loop_
_geom_bond_atom_site_label_1
_geom_bond_atom_site_label_2
_geom_bond_distance
_geom_bond_site_symmetry_2
O0 Si19 1.629052 1_554
O0 Si24 1.629052 1_455
O1 Si26 1.611777 1_555
O1 Si6 1.614959 1_555
O2 Si28 1.598021 1_666
O2 Si30 1.600448 1_555
O3 Si30 1.611777 1_545
O3 Si18 1.614959 1_555
O4 Si27 1.629052 1_555
O4 Si8 1.629052 1_555
O5 Si12 1.611773 1_555
O5 Si11 1.614964 1_555
O6 Si23 1.611773 1_555
O6 Si0 1.614964 1_555
O7 Si13 1.616830 1_555
O7 Si1 1.616830 1_555
O8 Si17 1.611785 1_555
O8 Si32 1.614952 1_555
O9 Si21 1.598021 1_555
O9 Si20 1.600448 1_554
O10 Si7 1.616830 1_555
O10 Si10 1.616830 1_555
O11 Si17 1.611785 1_555
O11 Si24 1.614952 1_555
O12 Si12 1.611785 1_555
O12 Si1 1.614952 1_555
O13 Si20 1.611785 1_555
O13 Si19 1.614952 1_555
O14 Si1 1.629052 1_545
O14 Si33 1.629052 1_554
O15 Si26 1.611777 1_555
O15 Si9 1.614959 1_555
O16 Si18 1.629052 1_555
O16 Si14 1.629052 1_555
O17 Si7 1.616830 1_555
O17 Si19 1.616830 1_555
O18 Si26 1.611777 1_555
O18 Si10 1.614959 1_555
O19 Si30 1.611777 1_554
O19 Si13 1.614959 1_555
O20 Si23 1.611785 1_554
O20 Si8 1.614952 1_555
O21 Si21 1.598021 1_555
O21 Si26 1.600448 1_555
O22 Si4 1.629052 1_545
O22 Si32 1.629052 1_455
O23 Si28 1.598021 1_665
O23 Si16 1.600448 1_555
O24 Si20 1.611785 1_555
O24 Si33 1.614952 1_555
O25 Si3 1.616830 1_555
O25 Si9 1.616830 1_555
O26 Si16 1.611785 1_545
O26 Si22 1.614952 1_555
O27 Si3 1.616830 1_555
O27 Si24 1.616830 1_555
O28 Si15 1.629052 1_455
O28 Si10 1.629052 1_555
O29 Si28 1.598021 1_566
O29 Si23 1.600448 1_555
O30 Si17 1.611773 1_555
O30 Si15 1.614964 1_555
O31 Si8 1.616830 1_555
O31 Si9 1.616830 1_555
O32 Si12 1.611785 1_555
O32 Si4 1.614952 1_555
O33 Si5 1.611785 1_554
O33 Si3 1.614952 1_555
O34 Si31 1.616830 1_555
O34 Si33 1.616830 1_555
O35 Si14 1.616830 1_555
O35 Si15 1.616830 1_555
O36 Si22 1.629052 1_555
O36 Si3 1.629052 1_555
O37 Si2 1.616830 1_555
O37 Si15 1.616830 1_555
O38 Si31 1.629052 1_555
O38 Si7 1.629052 1_555
O39 Si30 1.611777 1_455
O39 Si25 1.614959 1_555
O40 Si14 1.616830 1_555
O40 Si29 1.616830 1_555
O41 Si25 1.616830 1_555
O41 Si4 1.616830 1_555
O42 Si16 1.611785 1_455
O42 Si27 1.614952 1_555
O43 Si22 1.616830 1_555
O43 Si32 1.616830 1_555
O44 Si27 1.616830 1_555
O44 Si10 1.616830 1_555
O45 Si23 1.611785 1_545
O45 Si31 1.614952 1_555
O46 Si13 1.629052 1_555
O46 Si2 1.629052 1_555
O47 Si0 1.616830 1_555
O47 Si11 1.616830 1_555
O48 Si25 1.629052 1_555
O48 Si0 1.629052 1_555
O49 Si13 1.616830 1_555
O49 Si24 1.616830 1_555
O50 Si5 1.611785 1_455
O50 Si7 1.614952 1_555
O51 Si2 1.616830 1_555
O51 Si11 1.616830 1_555
O52 Si25 1.616830 1_555
O52 Si19 1.616830 1_555
O53 Si29 1.629052 1_554
O53 Si9 1.629052 1_555
O54 Si31 1.616830 1_555
O54 Si6 1.616830 1_555
O55 Si21 1.598021 1_555
O55 Si17 1.600448 1_455
O56 Si8 1.616830 1_555
O56 Si1 1.616830 1_555
O57 Si0 1.616830 1_555
O57 Si29 1.616830 1_555
O58 Si20 1.611773 1_555
O58 Si29 1.614964 1_555
O59 Si18 1.616830 1_555
O59 Si33 1.616830 1_555
O60 Si28 1.598021 1_656
O60 Si5 1.600448 1_555
O61 Si11 1.629052 1_545
O61 Si6 1.629052 1_555
O62 Si21 1.598021 1_555
O62 Si12 1.600448 1_545
O63 Si5 1.611773 1_555
O63 Si14 1.614964 1_555
O64 Si22 1.616830 1_555
O64 Si6 1.616830 1_555
O65 Si16 1.611773 1_555
O65 Si2 1.614964 1_555
O66 Si27 1.616830 1_555
O66 Si4 1.616830 1_555
O67 Si18 1.616830 1_555
O67 Si32 1.616830 1_555
