# generated using pymatgen
data_NdAg2
_symmetry_space_group_name_H-M   'P 1'
_cell_length_a   4.79521212
_cell_length_b   4.79521268
_cell_length_c   3.50922271
_cell_angle_alpha   90.00000000
_cell_angle_beta   90.00000000
_cell_angle_gamma   119.99999613
_symmetry_Int_Tables_number   1
_chemical_formula_structural   NdAg2
_chemical_formula_sum   'Nd1 Ag2'
_cell_volume   69.88070492
_cell_formula_units_Z   1
loop_
 _symmetry_equiv_pos_site_id
 _symmetry_equiv_pos_as_xyz
  1  'x, y, z'
loop_
 _atom_site_type_symbol
 _atom_site_label
 _atom_site_symmetry_multiplicity
 _atom_site_fract_x
 _atom_site_fract_y
 _atom_site_fract_z
 _atom_site_occupancy
  Nd  Nd0  1  0.00000000  0.00000000  -0.00000000  1
  Ag  Ag0  1  0.33333300  0.66666700  0.50000000  1
  Ag  Ag1  1  0.66666700  0.33333300  0.50000000  1
loop_
_geom_bond_atom_site_label_1
_geom_bond_atom_site_label_2
_geom_bond_distance
_geom_bond_site_symmetry_2
Ag0 Ag1 2.768514 1_455
Ag0 Ag1 2.768515 1_565
Ag0 Ag1 2.768523 1_555
Ag0 Nd0 3.277702 1_565
Ag0 Nd0 3.277702 1_566
Ag0 Nd0 3.277706 1_666
Ag0 Nd0 3.277706 1_665
Ag0 Nd0 3.277706 1_556
Ag0 Nd0 3.277706 1_555
Ag1 Nd0 3.277702 1_655
Ag1 Nd0 3.277702 1_656
Ag1 Nd0 3.277706 1_555
Ag1 Nd0 3.277706 1_556
Ag1 Nd0 3.277706 1_665
Ag1 Nd0 3.277706 1_666
