# generated using pymatgen
data_Pr4B10O21
_symmetry_space_group_name_H-M   'P 1'
_cell_length_a   19.68642500
_cell_length_b   7.22232100
_cell_length_c   11.67907375
_cell_angle_alpha   55.26907569
_cell_angle_beta   90.00000000
_cell_angle_gamma   90.00000000
_symmetry_Int_Tables_number   1
_chemical_formula_structural   Pr4B10O21
_chemical_formula_sum   'Pr16 B40 O84'
_cell_volume   1364.70114615
_cell_formula_units_Z   4
loop_
 _symmetry_equiv_pos_site_id
 _symmetry_equiv_pos_as_xyz
  1  'x, y, z'
loop_
 _atom_site_type_symbol
 _atom_site_label
 _atom_site_symmetry_multiplicity
 _atom_site_fract_x
 _atom_site_fract_y
 _atom_site_fract_z
 _atom_site_occupancy
  Pr  Pr0  1  0.91717300  0.46980700  0.66641600  1
  Pr  Pr1  1  0.70655800  0.92562200  0.17675600  1
  Pr  Pr2  1  0.91935100  0.99528800  0.15965100  1
  Pr  Pr3  1  0.70015600  0.46540600  0.66135400  1
  Pr  Pr4  1  0.58064900  0.99528800  0.65965100  1
  Pr  Pr5  1  0.79984400  0.46540600  0.16135400  1
  Pr  Pr6  1  0.20015600  0.53459400  0.83864600  1
  Pr  Pr7  1  0.29984400  0.53459400  0.33864600  1
  Pr  Pr8  1  0.41935100  0.00471200  0.34034900  1
  Pr  Pr9  1  0.41717300  0.53019300  0.83358400  1
  Pr  Pr10  1  0.08282700  0.53019300  0.33358400  1
  Pr  Pr11  1  0.79344200  0.92562200  0.67675600  1
  Pr  Pr12  1  0.58282700  0.46980700  0.16641600  1
  Pr  Pr13  1  0.08064900  0.00471200  0.84034900  1
  Pr  Pr14  1  0.29344200  0.07437800  0.82324400  1
  Pr  Pr15  1  0.20655800  0.07437800  0.32324400  1
  B  B0  1  0.18732100  0.00035900  0.04538600  1
  B  B1  1  0.32282300  0.52025000  0.04524300  1
  B  B2  1  0.92311800  0.93676500  0.86074500  1
  B  B3  1  0.81267900  0.99964100  0.95461400  1
  B  B4  1  0.59490300  0.53109900  0.44359200  1
  B  B5  1  0.97890900  0.09118200  0.60235400  1
  B  B6  1  0.52109100  0.09118200  0.10235400  1
  B  B7  1  0.20305500  0.05852800  0.61983300  1
  B  B8  1  0.57688200  0.93676500  0.36074500  1
  B  B9  1  0.02367900  0.39744500  0.89958100  1
  B  B10  1  0.09490300  0.46890100  0.05640800  1
  B  B11  1  0.57120700  0.43819600  0.86612700  1
  B  B12  1  0.31267900  0.00035900  0.54538600  1
  B  B13  1  0.79317500  0.41223100  0.87862500  1
  B  B14  1  0.29317500  0.58776900  0.62137500  1
  B  B15  1  0.17717700  0.52025000  0.54524300  1
  B  B16  1  0.07688200  0.06323500  0.13925500  1
  B  B17  1  0.67717700  0.47975000  0.95475700  1
  B  B18  1  0.40605100  0.95922400  0.05515000  1
  B  B19  1  0.70682500  0.41223100  0.37862500  1
  B  B20  1  0.07120700  0.56180400  0.63387300  1
  B  B21  1  0.90605100  0.04077600  0.44485000  1
  B  B22  1  0.70305500  0.94147200  0.88016700  1
  B  B23  1  0.90509700  0.53109900  0.94359200  1
  B  B24  1  0.59394900  0.04077600  0.94485000  1
  B  B25  1  0.29694500  0.05852800  0.11983300  1
  B  B26  1  0.79694500  0.94147200  0.38016700  1
  B  B27  1  0.20682500  0.58776900  0.12137500  1
  B  B28  1  0.47632100  0.39744500  0.39958100  1
  B  B29  1  0.97632100  0.60255500  0.10041900  1
  B  B30  1  0.42879300  0.56180400  0.13387300  1
  B  B31  1  0.09394900  0.95922400  0.55515000  1
  B  B32  1  0.52367900  0.60255500  0.60041900  1
  B  B33  1  0.92879300  0.43819600  0.36612700  1
  B  B34  1  0.68732100  0.99964100  0.45461400  1
  B  B35  1  0.82282300  0.47975000  0.45475700  1
  B  B36  1  0.40509700  0.46890100  0.55640800  1
  B  B37  1  0.02109100  0.90881800  0.39764600  1
  B  B38  1  0.42311800  0.06323500  0.63925500  1
  B  B39  1  0.47890900  0.90881800  0.89764600  1
  O  O0  1  0.27024500  0.45153100  0.13855500  1
  O  O1  1  0.37523300  0.91548400  0.62610700  1
  O  O2  1  0.82245300  0.84766900  0.10302200  1
  O  O3  1  0.38688400  0.41956300  0.09775000  1
  O  O4  1  0.23358100  0.81054100  0.07962200  1
  O  O5  1  0.07135000  0.03730600  0.41610600  1
  O  O6  1  0.31219400  0.93704800  0.25715700  1
  O  O7  1  0.01774400  0.67514800  0.52878800  1
  O  O8  1  0.81609200  0.54714100  0.73597800  1
  O  O9  1  0.96050900  0.10449000  0.72453700  1
  O  O10  1  0.47436100  0.16192200  0.52677600  1
  O  O11  1  0.54151200  0.60934500  0.72634500  1
  O  O12  1  0.18780600  0.93704800  0.75715700  1
  O  O13  1  0.61311600  0.58043700  0.90225000  1
  O  O14  1  0.68780600  0.06295200  0.74284300  1
  O  O15  1  0.18390800  0.45285900  0.26402200  1
  O  O16  1  0.57215700  0.46364200  0.58418000  1
  O  O17  1  0.15882200  0.60804200  0.01905600  1
  O  O18  1  0.04825400  0.99663600  0.63817800  1
  O  O19  1  0.98225600  0.32485200  0.47121200  1
  O  O20  1  0.45174600  0.99663600  0.13817800  1
  O  O21  1  0.26641900  0.81054100  0.57962200  1
  O  O22  1  0.52563900  0.83807800  0.47322400  1
  O  O23  1  0.54790100  0.46967800  0.37289600  1
  O  O24  1  0.68390800  0.54714100  0.23597800  1
  O  O25  1  0.73060400  0.85757300  0.41818700  1
  O  O26  1  0.17754700  0.15233100  0.89697800  1
  O  O27  1  0.88240400  0.28095200  0.36527800  1
  O  O28  1  0.95848800  0.60934500  0.22634500  1
  O  O29  1  0.68735700  0.33426100  0.09433000  1
  O  O30  1  0.95209900  0.46967800  0.87289600  1
  O  O31  1  0.84117800  0.39195800  0.98094400  1
  O  O32  1  0.22975500  0.45153100  0.63855500  1
  O  O33  1  0.84296100  0.89584600  0.48103800  1
  O  O34  1  0.76641900  0.18945900  0.92037800  1
  O  O35  1  0.23060400  0.14242700  0.08181300  1
  O  O36  1  0.11311600  0.41956300  0.59775000  1
  O  O37  1  0.61348800  0.76909800  0.35564200  1
  O  O38  1  0.62476700  0.08451600  0.37389300  1
  O  O39  1  0.34296100  0.10415400  0.01896200  1
  O  O40  1  0.18735700  0.66573900  0.40567000  1
  O  O41  1  0.02563900  0.16192200  0.02677600  1
  O  O42  1  0.87523300  0.08451600  0.87389300  1
  O  O43  1  0.32245300  0.15233100  0.39697800  1
  O  O44  1  0.31264300  0.66573900  0.90567000  1
  O  O45  1  0.38240400  0.71904800  0.13472200  1
  O  O46  1  0.53949100  0.10449000  0.22453700  1
  O  O47  1  0.61759600  0.28095200  0.86527800  1
  O  O48  1  0.45848800  0.39065500  0.27365500  1
  O  O49  1  0.51774400  0.32485200  0.97121200  1
  O  O50  1  0.88651200  0.76909800  0.85564200  1
  O  O51  1  0.03949100  0.89551000  0.27546300  1
  O  O52  1  0.76939600  0.85757300  0.91818700  1
  O  O53  1  0.48225600  0.67514800  0.02878800  1
  O  O54  1  0.57135000  0.96269400  0.08389400  1
  O  O55  1  0.38651200  0.23090200  0.64435800  1
  O  O56  1  0.42865000  0.03730600  0.91610600  1
  O  O57  1  0.65703900  0.89584600  0.98103800  1
  O  O58  1  0.11348800  0.23090200  0.14435800  1
  O  O59  1  0.04151200  0.39065500  0.77365500  1
  O  O60  1  0.12476700  0.91548400  0.12610700  1
  O  O61  1  0.54825400  0.00336400  0.86182200  1
  O  O62  1  0.81264300  0.33426100  0.59433000  1
  O  O63  1  0.97436100  0.83807800  0.97322400  1
  O  O64  1  0.92784300  0.46364200  0.08418000  1
  O  O65  1  0.15703900  0.10415400  0.51896200  1
  O  O66  1  0.73358100  0.18945900  0.42037800  1
  O  O67  1  0.95174600  0.00336400  0.36182200  1
  O  O68  1  0.11759600  0.71904800  0.63472200  1
  O  O69  1  0.72975500  0.54846900  0.86144500  1
  O  O70  1  0.42784300  0.53635800  0.41582000  1
  O  O71  1  0.26939600  0.14242700  0.58181300  1
  O  O72  1  0.65882200  0.39195800  0.48094400  1
  O  O73  1  0.04790100  0.53032200  0.12710400  1
  O  O74  1  0.34117800  0.60804200  0.51905600  1
  O  O75  1  0.88688400  0.58043700  0.40225000  1
  O  O76  1  0.46050900  0.89551000  0.77546300  1
  O  O77  1  0.31609200  0.45285900  0.76402200  1
  O  O78  1  0.92865000  0.96269400  0.58389400  1
  O  O79  1  0.07215700  0.53635800  0.91582000  1
  O  O80  1  0.81219400  0.06295200  0.24284300  1
  O  O81  1  0.45209900  0.53032200  0.62710400  1
  O  O82  1  0.77024500  0.54846900  0.36144500  1
  O  O83  1  0.67754700  0.84766900  0.60302200  1
loop_
_geom_bond_atom_site_label_1
_geom_bond_atom_site_label_2
_geom_bond_distance
_geom_bond_site_symmetry_2
B0 O26 1.441611 1_554
B0 O60 1.456899 1_545
B0 O4 1.498026 1_545
B0 O35 1.567558 1_555
B1 O44 1.360059 1_554
B1 O0 1.374430 1_555
B1 O3 1.409679 1_555
B2 O50 1.439270 1_555
B2 O63 1.477999 1_555
B2 O42 1.495880 1_565
B2 O9 1.531044 1_565
B3 O2 1.441611 1_556
B3 O42 1.456899 1_565
B3 O34 1.498026 1_565
B3 O52 1.567558 1_555
B4 O37 1.460055 1_555
B4 O23 1.466979 1_555
B4 O16 1.490751 1_555
B4 O72 1.511312 1_555
B5 O78 1.454150 1_545
B5 O18 1.476292 1_645
B5 O19 1.501019 1_555
B5 O9 1.527420 1_555
B6 O54 1.454150 1_545
B6 O20 1.476292 1_545
B6 O49 1.501019 1_554
B6 O46 1.527420 1_555
B7 O12 1.352318 1_545
B7 O65 1.369217 1_555
B7 O71 1.401227 1_555
B8 O37 1.439270 1_555
B8 O22 1.477999 1_555
B8 O38 1.495880 1_565
B8 O46 1.531044 1_565
B9 O30 1.473006 1_455
B9 O79 1.473140 1_555
B9 O41 1.490794 1_556
B9 O59 1.539737 1_555
B10 O58 1.460055 1_555
B10 O73 1.466979 1_555
B10 O79 1.490751 1_554
B10 O17 1.511312 1_555
B11 O47 1.461733 1_555
B11 O49 1.462651 1_555
B11 O11 1.495145 1_555
B11 O13 1.551735 1_555
B12 O43 1.441611 1_555
B12 O1 1.456899 1_545
B12 O21 1.498026 1_545
B12 O71 1.567558 1_555
B13 O8 1.441803 1_555
B13 O31 1.463938 1_555
B13 O34 1.486578 1_555
B13 O69 1.530442 1_555
B14 O77 1.441803 1_555
B14 O74 1.463938 1_555
B14 O21 1.486578 1_555
B14 O32 1.530442 1_555
B15 O40 1.360059 1_555
B15 O32 1.374430 1_555
B15 O36 1.409679 1_555
B16 O58 1.439270 1_555
B16 O41 1.477999 1_555
B16 O60 1.495880 1_545
B16 O51 1.531044 1_545
B17 O29 1.360059 1_556
B17 O69 1.374430 1_555
B17 O13 1.409679 1_555
B18 O56 1.452427 1_564
B18 O20 1.456394 1_555
B18 O45 1.500822 1_555
B18 O39 1.520787 1_565
B19 O24 1.441803 1_555
B19 O72 1.463938 1_555
B19 O66 1.486578 1_555
B19 O82 1.530442 1_555
B20 O68 1.461733 1_555
B20 O7 1.462651 1_555
B20 O59 1.495145 1_555
B20 O36 1.551735 1_555
B21 O78 1.452427 1_545
B21 O67 1.456394 1_555
B21 O27 1.500822 1_555
B21 O33 1.520787 1_545
B22 O14 1.352318 1_565
B22 O57 1.369217 1_555
B22 O52 1.401227 1_555
B23 O50 1.460055 1_555
B23 O30 1.466979 1_555
B23 O64 1.490751 1_556
B23 O31 1.511312 1_555
B24 O54 1.452427 1_546
B24 O61 1.456394 1_555
B24 O47 1.500822 1_555
B24 O57 1.520787 1_545
B25 O6 1.352318 1_545
B25 O39 1.369217 1_555
B25 O35 1.401227 1_555
B26 O80 1.352318 1_565
B26 O33 1.369217 1_555
B26 O25 1.401227 1_555
B27 O15 1.441803 1_555
B27 O17 1.463938 1_555
B27 O4 1.486578 1_555
B27 O0 1.530442 1_555
B28 O23 1.473006 1_555
B28 O70 1.473140 1_555
B28 O10 1.490794 1_555
B28 O48 1.539737 1_555
B29 O73 1.473006 1_655
B29 O64 1.473140 1_555
B29 O63 1.490794 1_554
B29 O28 1.539737 1_555
B30 O45 1.461733 1_555
B30 O53 1.462651 1_555
B30 O48 1.495145 1_555
B30 O3 1.551735 1_555
B31 O5 1.452427 1_565
B31 O18 1.456394 1_555
B31 O68 1.500822 1_555
B31 O65 1.520787 1_565
B32 O81 1.473006 1_555
B32 O16 1.473140 1_555
B32 O22 1.490794 1_555
B32 O11 1.539737 1_555
B33 O27 1.461733 1_555
B33 O19 1.462651 1_555
B33 O28 1.495145 1_555
B33 O75 1.551735 1_555
B34 O83 1.441611 1_555
B34 O38 1.456899 1_565
B34 O66 1.498026 1_565
B34 O25 1.567558 1_555
B35 O62 1.360059 1_555
B35 O82 1.374430 1_555
B35 O75 1.409679 1_555
B36 O55 1.460055 1_555
B36 O81 1.466979 1_555
B36 O70 1.490751 1_555
B36 O74 1.511312 1_555
B37 O5 1.454150 1_565
B37 O67 1.476292 1_465
B37 O7 1.501019 1_555
B37 O51 1.527420 1_555
B38 O55 1.439270 1_555
B38 O10 1.477999 1_555
B38 O1 1.495880 1_545
B38 O76 1.531044 1_545
B39 O56 1.454150 1_565
B39 O61 1.476292 1_565
B39 O53 1.501019 1_556
B39 O76 1.527420 1_555
O0 Pr15 2.636192 1_555
O0 Pr7 2.785287 1_555
O1 Pr9 2.571686 1_555
O2 Pr2 2.452833 1_555
O2 Pr5 2.478156 1_555
O2 Pr1 2.610839 1_555
O3 Pr9 2.775546 1_554
O3 Pr8 2.782167 1_555
O4 Pr14 2.735705 1_564
O4 Pr7 2.820535 1_555
O5 Pr15 2.828785 1_555
O5 Pr10 3.121336 1_555
O6 Pr8 2.484756 1_565
O6 Pr7 2.502287 1_555
O6 Pr15 2.603168 1_565
O7 Pr0 2.446788 1_455
O8 Pr0 2.334270 1_555
O8 Pr11 2.448469 1_555
O8 Pr3 2.627446 1_555
O9 Pr0 2.471687 1_555
O9 Pr13 2.613804 1_655
O10 Pr4 2.471200 1_545
O11 Pr4 2.548730 1_555
O11 Pr9 2.659190 1_555
O12 Pr13 2.484756 1_565
O12 Pr6 2.502287 1_555
O12 Pr14 2.603168 1_565
O13 Pr12 2.775546 1_556
O13 Pr4 2.782167 1_555
O14 Pr4 2.484756 1_545
O14 Pr3 2.502287 1_555
O14 Pr11 2.603168 1_545
O15 Pr10 2.334270 1_555
O15 Pr15 2.448469 1_555
O15 Pr7 2.627446 1_555
O16 Pr3 2.678663 1_555
O16 Pr4 2.974824 1_545
O17 Pr6 2.580045 1_554
O17 Pr13 2.849355 1_564
O18 Pr13 2.478339 1_565
O19 Pr10 2.446788 1_655
O20 Pr8 2.478339 1_565
O21 Pr15 2.735705 1_565
O21 Pr6 2.820535 1_555
O22 Pr8 2.471200 1_565
O23 Pr12 2.507090 1_555
O24 Pr12 2.334270 1_555
O24 Pr1 2.448469 1_555
O24 Pr5 2.627446 1_555
O25 Pr1 2.614813 1_555
O25 Pr3 2.698420 1_555
O26 Pr13 2.452833 1_555
O26 Pr6 2.478156 1_555
O26 Pr14 2.610839 1_555
O27 Pr5 2.544279 1_555
O28 Pr2 2.548730 1_555
O28 Pr10 2.659190 1_655
O29 Pr1 2.557850 1_545
O29 Pr12 2.615509 1_555
O29 Pr5 2.694170 1_555
O30 Pr0 2.507090 1_555
O31 Pr5 2.580045 1_556
O31 Pr2 2.849355 1_546
O32 Pr14 2.636192 1_555
O32 Pr6 2.785287 1_555
O33 Pr11 2.604151 1_555
O33 Pr0 2.949395 1_555
O34 Pr1 2.735705 1_546
O34 Pr3 2.820535 1_555
O35 Pr15 2.614813 1_555
O35 Pr6 2.698420 1_554
O36 Pr10 2.775546 1_555
O36 Pr13 2.782167 1_555
O37 Pr1 2.511709 1_555
O38 Pr12 2.571686 1_555
O39 Pr14 2.604151 1_554
O39 Pr9 2.949395 1_554
O40 Pr15 2.557850 1_565
O40 Pr10 2.615509 1_555
O40 Pr7 2.694170 1_555
O41 Pr2 2.471200 1_445
O42 Pr0 2.571686 1_555
O43 Pr8 2.452833 1_555
O43 Pr7 2.478156 1_555
O43 Pr15 2.610839 1_555
O44 Pr14 2.557850 1_565
O44 Pr9 2.615509 1_555
O44 Pr6 2.694170 1_555
O45 Pr7 2.544279 1_555
O46 Pr12 2.471687 1_555
O46 Pr8 2.613804 1_555
O47 Pr3 2.544279 1_555
O48 Pr8 2.548730 1_555
O48 Pr12 2.659190 1_555
O49 Pr9 2.446788 1_555
O50 Pr11 2.511709 1_555
O51 Pr10 2.471687 1_555
O51 Pr2 2.613804 1_455
O52 Pr11 2.614813 1_555
O52 Pr5 2.698420 1_556
O53 Pr12 2.446788 1_555
O54 Pr1 2.828785 1_555
O54 Pr12 3.121336 1_555
O55 Pr14 2.511709 1_555
O56 Pr14 2.828785 1_555
O56 Pr9 3.121336 1_555
O57 Pr1 2.604151 1_556
O57 Pr12 2.949395 1_556
O58 Pr15 2.511709 1_555
O59 Pr13 2.548730 1_555
O59 Pr0 2.659190 1_455
O60 Pr10 2.571686 1_555
O61 Pr4 2.478339 1_545
O62 Pr11 2.557850 1_545
O62 Pr0 2.615509 1_555
O62 Pr3 2.694170 1_555
O63 Pr13 2.471200 1_665
O64 Pr5 2.678663 1_555
O64 Pr2 2.974824 1_545
O65 Pr15 2.604151 1_555
O65 Pr10 2.949395 1_555
O66 Pr11 2.735705 1_545
O66 Pr5 2.820535 1_555
O67 Pr2 2.478339 1_545
O68 Pr6 2.544279 1_555
O69 Pr11 2.636192 1_555
O69 Pr3 2.785287 1_555
O70 Pr7 2.678663 1_555
O70 Pr8 2.974824 1_565
O71 Pr14 2.614813 1_555
O71 Pr7 2.698420 1_555
O72 Pr3 2.580045 1_555
O72 Pr4 2.849355 1_545
O73 Pr10 2.507090 1_555
O74 Pr7 2.580045 1_555
O74 Pr8 2.849355 1_565
O75 Pr0 2.775546 1_555
O75 Pr2 2.782167 1_555
O76 Pr9 2.471687 1_555
O76 Pr4 2.613804 1_555
O77 Pr9 2.334270 1_555
O77 Pr14 2.448469 1_555
O77 Pr6 2.627446 1_555
O78 Pr11 2.828785 1_555
O78 Pr0 3.121336 1_555
O79 Pr6 2.678663 1_555
O79 Pr13 2.974824 1_565
O80 Pr2 2.484756 1_545
O80 Pr5 2.502287 1_555
O80 Pr1 2.603168 1_545
O81 Pr9 2.507090 1_555
O82 Pr1 2.636192 1_555
O82 Pr5 2.785287 1_555
O83 Pr4 2.452833 1_555
O83 Pr3 2.478156 1_555
O83 Pr11 2.610839 1_555
