# generated using pymatgen
data_LiMo4P7O24
_symmetry_space_group_name_H-M   'P 1'
_cell_length_a   10.57889900
_cell_length_b   10.60302820
_cell_length_c   11.08308230
_cell_angle_alpha   108.36618081
_cell_angle_beta   111.60152507
_cell_angle_gamma   104.88540463
_symmetry_Int_Tables_number   1
_chemical_formula_structural   LiMo4P7O24
_chemical_formula_sum   'Li2 Mo8 P14 O48'
_cell_volume   994.22362236
_cell_formula_units_Z   2
loop_
 _symmetry_equiv_pos_site_id
 _symmetry_equiv_pos_as_xyz
  1  'x, y, z'
loop_
 _atom_site_type_symbol
 _atom_site_label
 _atom_site_symmetry_multiplicity
 _atom_site_fract_x
 _atom_site_fract_y
 _atom_site_fract_z
 _atom_site_occupancy
  Li  Li0  1  0.62232600  0.25155200  0.64774300  1
  Li  Li1  1  0.37767400  0.74844800  0.35225700  1
  Mo  Mo0  1  0.50128800  0.90149100  0.74589900  1
  Mo  Mo1  1  0.00286600  0.38195200  0.07557300  1
  Mo  Mo2  1  0.50967600  0.66147700  0.88627900  1
  Mo  Mo3  1  0.01665300  0.17521000  0.58764400  1
  Mo  Mo4  1  0.99713400  0.61804800  0.92442700  1
  Mo  Mo5  1  0.49871200  0.09850900  0.25410100  1
  Mo  Mo6  1  0.98334700  0.82479000  0.41235600  1
  Mo  Mo7  1  0.49032400  0.33852300  0.11372100  1
  P  P0  1  0.25114500  0.46442000  0.95227300  1
  P  P1  1  0.26266800  0.03901200  0.75629700  1
  P  P2  1  0.79812000  0.05594100  0.73459800  1
  P  P3  1  0.26428600  0.82462100  0.87624600  1
  P  P4  1  0.73733200  0.96098800  0.24370300  1
  P  P5  1  0.19540700  0.62574200  0.43306300  1
  P  P6  1  0.80459300  0.37425800  0.56693700  1
  P  P7  1  0.73571400  0.17537900  0.12375400  1
  P  P8  1  0.25522300  0.39408900  0.51721600  1
  P  P9  1  0.23268700  0.22079700  0.23208200  1
  P  P10  1  0.20188000  0.94405900  0.26540200  1
  P  P11  1  0.74477700  0.60591100  0.48278400  1
  P  P12  1  0.74885500  0.53558000  0.04772700  1
  P  P13  1  0.76731300  0.77920300  0.76791800  1
  O  O0  1  0.90816900  0.31184900  0.53565100  1
  O  O1  1  0.37494300  0.01087100  0.34585600  1
  O  O2  1  0.87861600  0.97372300  0.36934100  1
  O  O3  1  0.85210000  0.74202400  0.50013100  1
  O  O4  1  0.14440500  0.93178000  0.36833800  1
  O  O5  1  0.63568800  0.77800600  0.79725700  1
  O  O6  1  0.13049100  0.69231300  0.83534700  1
  O  O7  1  0.87185200  0.49968400  0.00956800  1
  O  O8  1  0.63013100  0.22076700  0.18171600  1
  O  O9  1  0.12814800  0.50031600  0.99043200  1
  O  O10  1  0.14790000  0.25797600  0.49986900  1
  O  O11  1  0.36045400  0.60005200  0.96262700  1
  O  O12  1  0.80750600  0.10098600  0.22131700  1
  O  O13  1  0.63576100  0.26898800  0.47483000  1
  O  O14  1  0.36431200  0.22199400  0.20274300  1
  O  O15  1  0.68741100  0.66021600  0.59921900  1
  O  O16  1  0.84742700  0.93554500  0.78267700  1
  O  O17  1  0.85559500  0.06822000  0.63166200  1
  O  O18  1  0.39357700  0.49297400  0.66203500  1
  O  O19  1  0.83401100  0.51589200  0.53607100  1
  O  O20  1  0.60642300  0.50702600  0.33796500  1
  O  O21  1  0.11908400  0.25312200  0.13561200  1
  O  O22  1  0.13847900  0.80460300  0.12856500  1
  O  O23  1  0.15257300  0.06445500  0.21732300  1
  O  O24  1  0.35461500  0.93638200  0.03456400  1
  O  O25  1  0.64538500  0.06361800  0.96543600  1
  O  O26  1  0.16954500  0.57403500  0.27618400  1
  O  O27  1  0.66243400  0.56804600  0.92388600  1
  O  O28  1  0.36986900  0.77923300  0.81828400  1
  O  O29  1  0.36423900  0.73101200  0.52517000  1
  O  O30  1  0.83031500  0.66314500  0.20008300  1
  O  O31  1  0.83045500  0.42596500  0.72381600  1
  O  O32  1  0.12138400  0.02627700  0.63065900  1
  O  O33  1  0.33756600  0.43195400  0.07611400  1
  O  O34  1  0.16968500  0.33685500  0.79991700  1
  O  O35  1  0.62505700  0.98912900  0.65414400  1
  O  O36  1  0.66772100  0.82581300  0.10240400  1
  O  O37  1  0.31258900  0.33978400  0.40078100  1
  O  O38  1  0.33227900  0.17418700  0.89759600  1
  O  O39  1  0.86152100  0.19539700  0.87143500  1
  O  O40  1  0.63954600  0.39994800  0.03737300  1
  O  O41  1  0.37062200  0.01554900  0.69950400  1
  O  O42  1  0.16598900  0.48410800  0.46392900  1
  O  O43  1  0.88091600  0.74687800  0.86438800  1
  O  O44  1  0.62937800  0.98445100  0.30049600  1
  O  O45  1  0.86950900  0.30768700  0.16465300  1
  O  O46  1  0.09183100  0.68815100  0.46434900  1
  O  O47  1  0.19249400  0.89901400  0.77868300  1
loop_
_geom_bond_atom_site_label_1
_geom_bond_atom_site_label_2
_geom_bond_distance
_geom_bond_site_symmetry_2
Li0 O13 2.034040 1_555
Li0 O31 2.130079 1_555
Li1 O29 2.034040 1_555
Li1 O26 2.130079 1_555
Mo0 O41 2.089287 1_565
Mo0 O25 2.117998 1_565
Mo0 O35 2.136062 1_555
Mo0 O29 2.146964 1_555
Mo0 O28 2.192604 1_555
Mo0 O5 2.211341 1_555
Mo1 O39 2.106319 1_454
Mo1 O45 2.128321 1_455
Mo1 O26 2.148321 1_555
Mo1 O21 2.157209 1_555
Mo1 O7 2.175370 1_455
Mo1 O9 2.243790 1_554
Mo2 O27 2.086474 1_555
Mo2 O11 2.105889 1_555
Mo2 O36 2.119767 1_556
Mo2 O18 2.168919 1_555
Mo2 O28 2.243954 1_555
Mo2 O5 2.273224 1_555
Mo3 O34 2.079033 1_555
Mo3 O17 2.096578 1_455
Mo3 O10 2.133260 1_555
Mo3 O0 2.154424 1_455
Mo3 O32 2.221013 1_555
Mo3 O2 2.255833 1_445
Mo4 O22 2.106319 1_656
Mo4 O6 2.128321 1_655
Mo4 O31 2.148321 1_555
Mo4 O43 2.157209 1_555
Mo4 O9 2.175370 1_655
Mo4 O7 2.243790 1_556
Mo5 O44 2.089287 1_545
Mo5 O24 2.117998 1_545
Mo5 O1 2.136062 1_555
Mo5 O13 2.146964 1_555
Mo5 O8 2.192604 1_555
Mo5 O14 2.211341 1_555
Mo6 O30 2.079033 1_555
Mo6 O4 2.096578 1_655
Mo6 O3 2.133260 1_555
Mo6 O46 2.154424 1_655
Mo6 O2 2.221013 1_555
Mo6 O32 2.255833 1_665
Mo7 O33 2.086474 1_555
Mo7 O40 2.105889 1_555
Mo7 O38 2.119767 1_554
Mo7 O20 2.168919 1_555
Mo7 O8 2.243954 1_555
Mo7 O14 2.273224 1_555
O0 P6 1.505452 1_555
O1 P10 1.543503 1_545
O2 P4 1.560935 1_555
O3 P11 1.493799 1_555
O4 P10 1.500616 1_555
O5 P13 1.540034 1_555
O6 P3 1.511152 1_555
O7 P12 1.604666 1_555
O8 P7 1.581620 1_555
O9 P0 1.604666 1_555
O10 P8 1.493799 1_555
O11 P0 1.537016 1_555
O12 P7 1.615184 1_555
O12 P4 1.617916 1_545
O13 P6 1.546999 1_555
O14 P9 1.540034 1_555
O15 P13 1.613667 1_555
O15 P11 1.628810 1_555
O16 P13 1.580582 1_555
O16 P2 1.658842 1_565
O17 P2 1.500616 1_555
O18 P8 1.496347 1_555
O19 P11 1.599562 1_555
O19 P6 1.622080 1_555
O20 P11 1.496347 1_555
O21 P9 1.483711 1_555
O22 P10 1.504866 1_555
O23 P9 1.580582 1_555
O23 P10 1.658842 1_545
O24 P3 1.506493 1_554
O25 P7 1.506493 1_556
O26 P5 1.539639 1_555
O27 P12 1.540684 1_556
O28 P3 1.581620 1_555
O29 P5 1.546999 1_555
O30 P12 1.521125 1_555
O31 P6 1.539639 1_555
O32 P1 1.560935 1_555
O33 P0 1.540684 1_554
O34 P0 1.521125 1_555
O35 P2 1.543503 1_565
O36 P4 1.497711 1_555
O37 P9 1.613667 1_555
O37 P8 1.628810 1_555
O38 P1 1.497711 1_555
O39 P2 1.504866 1_555
O40 P12 1.537016 1_555
O41 P1 1.529347 1_555
O42 P8 1.599562 1_555
O42 P5 1.622080 1_555
O43 P13 1.483711 1_555
O44 P4 1.529347 1_555
O45 P7 1.511152 1_555
O46 P5 1.505452 1_555
O47 P3 1.615184 1_555
O47 P1 1.617916 1_565
