# generated using pymatgen
data_CaTaNO2
_symmetry_space_group_name_H-M   'P 1'
_cell_length_a   5.59674400
_cell_length_b   5.71500800
_cell_length_c   7.85787600
_cell_angle_alpha   90.00000000
_cell_angle_beta   90.00000000
_cell_angle_gamma   90.00000000
_symmetry_Int_Tables_number   1
_chemical_formula_structural   CaTaNO2
_chemical_formula_sum   'Ca4 Ta4 N4 O8'
_cell_volume   251.33759566
_cell_formula_units_Z   4
loop_
 _symmetry_equiv_pos_site_id
 _symmetry_equiv_pos_as_xyz
  1  'x, y, z'
loop_
 _atom_site_type_symbol
 _atom_site_label
 _atom_site_symmetry_multiplicity
 _atom_site_fract_x
 _atom_site_fract_y
 _atom_site_fract_z
 _atom_site_occupancy
  Ca  Ca0  1  0.24227100  0.45072200  0.50000000  1
  Ca  Ca1  1  0.75772900  0.95072200  0.50000000  1
  Ca  Ca2  1  0.73211800  0.03748600  0.00000000  1
  Ca  Ca3  1  0.26788200  0.53748600  0.00000000  1
  Ta  Ta0  1  0.76538300  0.48804300  0.25405300  1
  Ta  Ta1  1  0.23461700  0.98804300  0.25405300  1
  Ta  Ta2  1  0.23461700  0.98804300  0.74594700  1
  Ta  Ta3  1  0.76538300  0.48804300  0.74594700  1
  N  N0  1  0.96430200  0.21632400  0.70403300  1
  N  N1  1  0.03569800  0.71632400  0.29596700  1
  N  N2  1  0.96430200  0.21632400  0.29596700  1
  N  N3  1  0.03569800  0.71632400  0.70403300  1
  O  O0  1  0.83204500  0.48195700  0.00000000  1
  O  O1  1  0.53764000  0.79611800  0.20198800  1
  O  O2  1  0.34674800  0.02906500  0.50000000  1
  O  O3  1  0.16795500  0.98195700  0.00000000  1
  O  O4  1  0.65325200  0.52906500  0.50000000  1
  O  O5  1  0.53764000  0.79611800  0.79801200  1
  O  O6  1  0.46236000  0.29611800  0.20198800  1
  O  O7  1  0.46236000  0.29611800  0.79801200  1
loop_
_geom_bond_atom_site_label_1
_geom_bond_atom_site_label_2
_geom_bond_distance
_geom_bond_site_symmetry_2
Ca0 O4 2.343326 1_555
Ca0 O2 2.479701 1_555
Ca0 N3 2.492225 1_555
Ca0 N1 2.492225 1_555
Ca0 N2 2.604846 1_455
Ca0 N0 2.604846 1_455
Ca0 O7 2.789574 1_555
Ca0 O6 2.789574 1_555
Ca1 O2 2.343326 1_565
Ca1 O4 2.479701 1_555
Ca1 N0 2.492225 1_565
Ca1 N2 2.492225 1_565
Ca1 N1 2.604846 1_655
Ca1 N3 2.604846 1_655
Ca1 O5 2.789574 1_555
Ca1 O1 2.789574 1_555
Ca2 O1 2.367848 1_545
Ca2 O5 2.367848 1_544
Ca2 O3 2.459825 1_645
Ca2 O0 2.600994 1_555
Ca2 O6 2.642597 1_555
Ca2 O7 2.642597 1_554
Ca2 N2 2.853418 1_555
Ca2 N0 2.853418 1_554
Ca3 O6 2.367848 1_555
Ca3 O7 2.367848 1_554
Ca3 O0 2.459825 1_455
Ca3 O3 2.600994 1_555
Ca3 O1 2.642597 1_555
Ca3 O5 2.642597 1_554
Ca3 N1 2.853418 1_555
Ca3 N3 2.853418 1_554
N0 Ta3 1.938900 1_555
N0 Ta2 2.024684 1_645
N1 Ta1 1.938900 1_555
N1 Ta0 2.024684 1_455
N2 Ta0 1.938900 1_555
N2 Ta1 2.024684 1_645
N3 Ta2 1.938900 1_555
N3 Ta3 2.024684 1_455
O0 Ta0 2.031179 1_555
O0 Ta3 2.031179 1_554
O1 Ta1 2.060749 1_555
O1 Ta0 2.211770 1_555
O2 Ta2 2.045441 1_545
O2 Ta1 2.045441 1_545
O3 Ta1 2.031179 1_555
O3 Ta2 2.031179 1_554
O4 Ta3 2.045441 1_555
O4 Ta0 2.045441 1_555
O5 Ta2 2.060749 1_555
O5 Ta3 2.211770 1_555
O6 Ta0 2.060749 1_555
O6 Ta1 2.211770 1_545
O7 Ta3 2.060749 1_555
O7 Ta2 2.211770 1_545
