# generated using pymatgen
data_CoAg(NO3)3
_symmetry_space_group_name_H-M   'P 1'
_cell_length_a   7.28487819
_cell_length_b   7.45309117
_cell_length_c   14.40291605
_cell_angle_alpha   61.61624126
_cell_angle_beta   90.00000000
_cell_angle_gamma   90.00000000
_symmetry_Int_Tables_number   1
_chemical_formula_structural   CoAg(NO3)3
_chemical_formula_sum   'Co4 Ag4 N12 O36'
_cell_volume   687.99439619
_cell_formula_units_Z   4
loop_
 _symmetry_equiv_pos_site_id
 _symmetry_equiv_pos_as_xyz
  1  'x, y, z'
loop_
 _atom_site_type_symbol
 _atom_site_label
 _atom_site_symmetry_multiplicity
 _atom_site_fract_x
 _atom_site_fract_y
 _atom_site_fract_z
 _atom_site_occupancy
  Co  Co0  1  0.89615801  0.49750417  0.82077701  1
  Co  Co1  1  0.39615801  0.50249583  0.67922299  1
  Co  Co2  1  0.10384199  0.50249583  0.17922299  1
  Co  Co3  1  0.60384199  0.49750417  0.32077701  1
  Ag  Ag0  1  0.49877641  0.79790083  0.92860451  1
  Ag  Ag1  1  0.99877641  0.20209917  0.57139549  1
  Ag  Ag2  1  0.00122359  0.79790083  0.42860451  1
  Ag  Ag3  1  0.50122359  0.20209917  0.07139549  1
  N  N0  1  0.30015970  0.12996572  0.74976731  1
  N  N1  1  0.26598528  0.49978449  0.36787817  1
  N  N2  1  0.30299071  0.87417713  0.56816451  1
  N  N3  1  0.73401472  0.50021551  0.63212183  1
  N  N4  1  0.69984030  0.87003428  0.25023269  1
  N  N5  1  0.69700929  0.12582287  0.43183549  1
  N  N6  1  0.19984030  0.12996572  0.24976731  1
  N  N7  1  0.80299071  0.12582287  0.93183549  1
  N  N8  1  0.23401472  0.49978449  0.86787817  1
  N  N9  1  0.80015970  0.87003428  0.75023269  1
  N  N10  1  0.19700929  0.87417713  0.06816451  1
  N  N11  1  0.76598528  0.50021551  0.13212183  1
  O  O0  1  0.18682645  0.49898859  0.78113921  1
  O  O1  1  0.57830325  0.81650729  0.20461678  1
  O  O2  1  0.74419709  0.27252535  0.94784412  1
  O  O3  1  0.24794218  0.95297227  0.78509962  1
  O  O4  1  0.60286271  0.50107538  0.10865565  1
  O  O5  1  0.25580291  0.72747465  0.05215588  1
  O  O6  1  0.92169675  0.81650729  0.70461678  1
  O  O7  1  0.92086795  0.17923827  0.85895918  1
  O  O8  1  0.73732574  0.72415343  0.83631521  1
  O  O9  1  0.39794415  0.50126914  0.42349954  1
  O  O10  1  0.26267426  0.27584657  0.16368479  1
  O  O11  1  0.60205585  0.49873086  0.57650046  1
  O  O12  1  0.07830325  0.18349271  0.29538322  1
  O  O13  1  0.25374534  0.04982816  0.01581182  1
  O  O14  1  0.25205782  0.95297227  0.28509962  1
  O  O15  1  0.23732574  0.27584657  0.66368479  1
  O  O16  1  0.42086795  0.82076173  0.64104082  1
  O  O17  1  0.31317355  0.49898859  0.28113921  1
  O  O18  1  0.75374534  0.95017184  0.48418818  1
  O  O19  1  0.75580291  0.27252535  0.44784412  1
  O  O20  1  0.10286271  0.49892462  0.39134435  1
  O  O21  1  0.68682645  0.50101141  0.71886079  1
  O  O22  1  0.75205782  0.04702773  0.21490038  1
  O  O23  1  0.07913205  0.82076173  0.14104082  1
  O  O24  1  0.57913205  0.17923827  0.35895918  1
  O  O25  1  0.74794218  0.04702773  0.71490038  1
  O  O26  1  0.89713729  0.50107538  0.60865565  1
  O  O27  1  0.81317355  0.50101141  0.21886079  1
  O  O28  1  0.24419709  0.72747465  0.55215588  1
  O  O29  1  0.39713729  0.49892462  0.89134435  1
  O  O30  1  0.42169675  0.18349271  0.79538322  1
  O  O31  1  0.89794415  0.49873086  0.07650046  1
  O  O32  1  0.10205585  0.50126914  0.92349954  1
  O  O33  1  0.74625466  0.95017184  0.98418818  1
  O  O34  1  0.76267426  0.72415343  0.33631521  1
  O  O35  1  0.24625466  0.04982816  0.51581182  1
loop_
_geom_bond_atom_site_label_1
_geom_bond_atom_site_label_2
_geom_bond_distance
_geom_bond_site_symmetry_2
Co0 O21 2.108173 1_555
Co0 O2 2.113975 1_555
Co0 O32 2.116368 1_655
Co0 O8 2.145193 1_555
Co0 O6 2.169015 1_555
Co0 O7 2.172853 1_555
Co0 O0 2.191753 1_655
Co1 O0 2.108173 1_555
Co1 O28 2.113975 1_555
Co1 O11 2.116368 1_555
Co1 O15 2.145193 1_555
Co1 O30 2.169015 1_555
Co1 O16 2.172853 1_555
Co1 O21 2.191753 1_555
Co2 O17 2.108173 1_555
Co2 O5 2.113975 1_555
Co2 O31 2.116368 1_455
Co2 O10 2.145193 1_555
Co2 O12 2.169015 1_555
Co2 O23 2.172853 1_555
Co2 O27 2.191753 1_455
Co3 O27 2.108173 1_555
Co3 O19 2.113975 1_555
Co3 O9 2.116368 1_555
Co3 O34 2.145193 1_555
Co3 O1 2.169015 1_555
Co3 O24 2.172853 1_555
Co3 O17 2.191753 1_555
Ag0 O5 2.384765 1_556
Ag0 O8 2.404904 1_555
Ag0 O33 2.458242 1_555
Ag0 O3 2.583728 1_555
Ag0 O4 2.596083 1_556
Ag0 O29 2.634098 1_555
Ag0 O30 2.648268 1_565
Ag1 O19 2.384765 1_555
Ag1 O15 2.404904 1_655
Ag1 O35 2.458242 1_655
Ag1 O25 2.583728 1_555
Ag1 O20 2.596083 1_655
Ag1 O26 2.634098 1_555
Ag1 O6 2.648268 1_545
Ag2 O28 2.384765 1_555
Ag2 O34 2.404904 1_455
Ag2 O18 2.458242 1_455
Ag2 O14 2.583728 1_555
Ag2 O26 2.596083 1_455
Ag2 O20 2.634098 1_555
Ag2 O12 2.648268 1_565
Ag3 O2 2.384765 1_554
Ag3 O10 2.404904 1_555
Ag3 O13 2.458242 1_555
Ag3 O22 2.583728 1_555
Ag3 O29 2.596083 1_554
Ag3 O4 2.634098 1_555
Ag3 O1 2.648268 1_545
N0 O3 1.227023 1_545
N0 O30 1.274325 1_555
N0 O15 1.283443 1_555
N1 O20 1.234640 1_555
N1 O9 1.254764 1_555
N1 O17 1.298456 1_555
N2 O35 1.230744 1_565
N2 O16 1.265042 1_555
N2 O28 1.292977 1_555
N3 O26 1.234640 1_555
N3 O11 1.254764 1_555
N3 O21 1.298456 1_555
N4 O22 1.227023 1_565
N4 O1 1.274325 1_555
N4 O34 1.283443 1_555
N5 O18 1.230744 1_545
N5 O24 1.265042 1_555
N5 O19 1.292977 1_555
N6 O14 1.227023 1_545
N6 O12 1.274325 1_555
N6 O10 1.283443 1_555
N7 O33 1.230744 1_545
N7 O7 1.265042 1_555
N7 O2 1.292977 1_555
N8 O29 1.234640 1_555
N8 O32 1.254764 1_555
N8 O0 1.298456 1_555
N9 O25 1.227023 1_565
N9 O6 1.274325 1_555
N9 O8 1.283443 1_555
N10 O13 1.230744 1_565
N10 O23 1.265042 1_555
N10 O5 1.292977 1_555
N11 O4 1.234640 1_555
N11 O31 1.254764 1_555
N11 O27 1.298456 1_555
