# generated using pymatgen
data_BaZr2F10
_symmetry_space_group_name_H-M   'P 1'
_cell_length_a   8.36889319
_cell_length_b   8.36889319
_cell_length_c   8.74717896
_cell_angle_alpha   83.95638410
_cell_angle_beta   83.95638410
_cell_angle_gamma   137.21583333
_symmetry_Int_Tables_number   1
_chemical_formula_structural   BaZr2F10
_chemical_formula_sum   'Ba2 Zr4 F20'
_cell_volume   398.41452814
_cell_formula_units_Z   2
loop_
 _symmetry_equiv_pos_site_id
 _symmetry_equiv_pos_as_xyz
  1  'x, y, z'
loop_
 _atom_site_type_symbol
 _atom_site_label
 _atom_site_symmetry_multiplicity
 _atom_site_fract_x
 _atom_site_fract_y
 _atom_site_fract_z
 _atom_site_occupancy
  Ba  Ba0  1  0.42965974  0.57034026  0.75000000  1
  Ba  Ba1  1  0.57034026  0.42965974  0.25000000  1
  Zr  Zr0  1  0.34190761  0.03112823  0.90161398  1
  Zr  Zr1  1  0.96887177  0.65809239  0.59838602  1
  Zr  Zr2  1  0.65809239  0.96887177  0.09838602  1
  Zr  Zr3  1  0.03112823  0.34190761  0.40161398  1
  F  F0  1  0.14303811  0.55544868  0.57065368  1
  F  F1  1  0.44455132  0.85696189  0.92934632  1
  F  F2  1  0.85696189  0.44455132  0.42934632  1
  F  F3  1  0.55544868  0.14303811  0.07065368  1
  F  F4  1  0.70085284  0.29914716  0.75000000  1
  F  F5  1  0.29914716  0.70085284  0.25000000  1
  F  F6  1  0.20312082  0.79687918  0.75000000  1
  F  F7  1  0.79687918  0.20312082  0.25000000  1
  F  F8  1  0.97035977  0.25022420  0.93431794  1
  F  F9  1  0.74977580  0.02964023  0.56568206  1
  F  F10  1  0.02964023  0.74977580  0.06568206  1
  F  F11  1  0.25022420  0.97035977  0.43431794  1
  F  F12  1  0.25223685  0.36062100  0.49632899  1
  F  F13  1  0.63937900  0.74776315  0.00367101  1
  F  F14  1  0.74776315  0.63937900  0.50367101  1
  F  F15  1  0.36062100  0.25223685  0.99632899  1
  F  F16  1  0.30646728  0.17055147  0.72978735  1
  F  F17  1  0.82944853  0.69353272  0.77021265  1
  F  F18  1  0.69353272  0.82944853  0.27021265  1
  F  F19  1  0.17055147  0.30646728  0.22978735  1
loop_
_geom_bond_atom_site_label_1
_geom_bond_atom_site_label_2
_geom_bond_distance
_geom_bond_site_symmetry_2
Ba0 F9 2.687336 1_565
Ba0 F8 2.687336 1_455
Ba0 F17 2.718126 1_555
Ba0 F16 2.718126 1_555
Ba0 F13 2.810209 1_556
Ba0 F12 2.810209 1_555
Ba0 F14 2.887196 1_555
Ba0 F15 2.887196 1_555
Ba0 F1 2.936857 1_555
Ba0 F0 2.936857 1_555
Ba1 F10 2.687336 1_655
Ba1 F11 2.687336 1_545
Ba1 F19 2.718126 1_555
Ba1 F18 2.718126 1_555
Ba1 F14 2.810209 1_555
Ba1 F15 2.810209 1_554
Ba1 F13 2.887196 1_555
Ba1 F12 2.887196 1_555
Ba1 F2 2.936857 1_555
Ba1 F3 2.936857 1_555
F0 Zr3 2.156030 1_555
F0 Zr1 2.174526 1_455
F1 Zr2 2.156030 1_556
F1 Zr0 2.174526 1_565
F2 Zr1 2.156030 1_555
F2 Zr3 2.174526 1_655
F3 Zr0 2.156030 1_554
F3 Zr2 2.174526 1_545
F4 Zr1 2.111466 1_555
F4 Zr0 2.111466 1_555
F5 Zr2 2.111466 1_555
F5 Zr3 2.111466 1_555
F6 Zr0 2.116744 1_565
F6 Zr1 2.116744 1_455
F7 Zr2 2.116744 1_545
F7 Zr3 2.116744 1_655
F8 Zr2 1.974805 1_546
F9 Zr3 1.974805 1_655
F10 Zr0 1.974805 1_564
F11 Zr1 1.974805 1_455
F12 Zr3 2.014893 1_555
F13 Zr2 2.014893 1_555
F14 Zr1 2.014893 1_555
F15 Zr0 2.014893 1_555
F16 Zr0 1.985196 1_555
F17 Zr1 1.985196 1_555
F18 Zr2 1.985196 1_555
F19 Zr3 1.985196 1_555
