# generated using pymatgen
data_K6Mo10O33
_symmetry_space_group_name_H-M   'P 1'
_cell_length_a   7.85670500
_cell_length_b   12.40418187
_cell_length_c   17.54814246
_cell_angle_alpha   86.52049700
_cell_angle_beta   77.39672352
_cell_angle_gamma   74.37229013
_symmetry_Int_Tables_number   1
_chemical_formula_structural   K6Mo10O33
_chemical_formula_sum   'K12 Mo20 O66'
_cell_volume   1607.26300105
_cell_formula_units_Z   2
loop_
 _symmetry_equiv_pos_site_id
 _symmetry_equiv_pos_as_xyz
  1  'x, y, z'
loop_
 _atom_site_type_symbol
 _atom_site_label
 _atom_site_symmetry_multiplicity
 _atom_site_fract_x
 _atom_site_fract_y
 _atom_site_fract_z
 _atom_site_occupancy
  K  K0  1  0.49301900  0.73758700  0.26788700  1
  K  K1  1  0.49785200  0.27138100  0.72915000  1
  K  K2  1  0.22715100  0.77230200  0.76167400  1
  K  K3  1  0.77290400  0.23622900  0.24028600  1
  K  K4  1  0.65589400  0.76000100  0.98876000  1
  K  K5  1  0.97419300  0.27343400  0.75214700  1
  K  K6  1  0.72871900  0.77166500  0.75509300  1
  K  K7  1  0.88506000  0.73917000  0.47539400  1
  K  K8  1  0.12786900  0.25492700  0.52003900  1
  K  K9  1  0.35226200  0.24349400  0.01693600  1
  K  K10  1  0.02117900  0.73253800  0.24642100  1
  K  K11  1  0.26070200  0.23725200  0.24791100  1
  Mo  Mo0  1  0.67206900  0.48122700  0.57778600  1
  Mo  Mo1  1  0.43878300  0.01000900  0.60738900  1
  Mo  Mo2  1  0.82379300  0.33285600  0.99359200  1
  Mo  Mo3  1  0.77541200  0.47326700  0.39019500  1
  Mo  Mo4  1  0.34627000  0.51570500  0.41238700  1
  Mo  Mo5  1  0.56169300  0.98950100  0.39262800  1
  Mo  Mo6  1  0.67960600  0.16990700  0.49085900  1
  Mo  Mo7  1  0.05963200  0.99405500  0.39402400  1
  Mo  Mo8  1  0.44852100  0.49580800  0.10707800  1
  Mo  Mo9  1  0.17791500  0.67296900  0.00538500  1
  Mo  Mo10  1  0.24758200  0.98310800  0.92092100  1
  Mo  Mo11  1  0.94083100  0.00652300  0.60596200  1
  Mo  Mo12  1  0.94391200  0.50022000  0.10663900  1
  Mo  Mo13  1  0.76480500  0.02420300  0.08783000  1
  Mo  Mo14  1  0.19497700  0.52633000  0.61732100  1
  Mo  Mo15  1  0.32034700  0.83019600  0.50904000  1
  Mo  Mo16  1  0.17536300  0.97577300  0.10895400  1
  Mo  Mo17  1  0.05677100  0.50580300  0.89268500  1
  Mo  Mo18  1  0.55223100  0.50919700  0.89208900  1
  Mo  Mo19  1  0.80718600  0.03252200  0.88312700  1
  O  O0  1  0.54108200  0.49419400  0.48177300  1
  O  O1  1  0.29986800  0.97439400  0.41437600  1
  O  O2  1  0.03087000  0.62049200  0.68164600  1
  O  O3  1  0.03473400  0.39111800  0.98823900  1
  O  O4  1  0.98114000  0.63419300  0.84769000  1
  O  O5  1  0.02611900  0.99862500  0.01700300  1
  O  O6  1  0.54831800  0.62115400  0.82676600  1
  O  O7  1  0.57362200  0.49570000  0.33713900  1
  O  O8  1  0.08730200  0.86722400  0.34834700  1
  O  O9  1  0.27646600  0.52479900  0.91644200  1
  O  O10  1  0.46910700  0.11138800  0.49960000  1
  O  O11  1  0.83708600  0.23647400  0.07076900  1
  O  O12  1  0.91595900  0.13409800  0.64997900  1
  O  O13  1  0.31257300  0.74878500  0.59355200  1
  O  O14  1  0.17779200  0.57175200  0.51549500  1
  O  O15  1  0.11460200  0.75973400  0.08714500  1
  O  O16  1  0.93952000  0.11040900  0.48865000  1
  O  O17  1  0.44969600  0.38360800  0.17195800  1
  O  O18  1  0.58907100  0.39286200  0.83365500  1
  O  O19  1  0.92131200  0.00241800  0.16235400  1
  O  O20  1  0.22085800  0.98908100  0.58265400  1
  O  O21  1  0.61081100  0.26934500  0.56624400  1
  O  O22  1  0.70843200  0.89757500  0.09388400  1
  O  O23  1  0.21329700  0.10426900  0.12394600  1
  O  O24  1  0.93826600  0.90958900  0.68221800  1
  O  O25  1  0.53260700  0.88677600  0.50051400  1
  O  O26  1  0.70699200  0.12235800  0.81591700  1
  O  O27  1  0.71256900  0.61018100  0.58703600  1
  O  O28  1  0.16131500  0.76901800  0.92821500  1
  O  O29  1  0.42019500  0.50810000  0.64153400  1
  O  O30  1  0.72519600  0.47998300  0.08277100  1
  O  O31  1  0.27627800  0.88078200  0.17399300  1
  O  O32  1  0.76878700  0.39500300  0.64789200  1
  O  O33  1  0.06486700  0.09251200  0.31916900  1
  O  O34  1  0.86190400  0.42404000  0.48700900  1
  O  O35  1  0.33556200  0.12544900  0.66896700  1
  O  O36  1  0.68124100  0.25227600  0.40691300  1
  O  O37  1  0.15366500  0.40902700  0.81686800  1
  O  O38  1  0.38604500  0.73216500  0.43294700  1
  O  O39  1  0.21410700  0.60797900  0.35559800  1
  O  O40  1  0.82763700  0.60179900  0.37224800  1
  O  O41  1  0.66400800  0.87398900  0.33103400  1
  O  O42  1  0.78014600  0.01111900  0.41672100  1
  O  O43  1  0.30262200  0.11054800  0.90825300  1
  O  O44  1  0.57998300  0.11918500  0.14355600  1
  O  O45  1  0.50892700  0.10312200  0.33046600  1
  O  O46  1  0.48865000  0.89615000  0.66974100  1
  O  O47  1  0.70021800  0.02562100  0.58680200  1
  O  O48  1  0.96785800  0.61315800  0.01073300  1
  O  O49  1  0.77595300  0.90038400  0.87278800  1
  O  O50  1  0.20873400  0.51770600  0.08629200  1
  O  O51  1  0.05683900  0.01240100  0.85747100  1
  O  O52  1  0.35173200  0.92570500  0.01151700  1
  O  O53  1  0.93807000  0.37443400  0.32763700  1
  O  O54  1  0.43835300  0.61472700  0.99686600  1
  O  O55  1  0.41178400  0.61177800  0.16577000  1
  O  O56  1  0.56265100  0.39201200  0.00197800  1
  O  O57  1  0.40879800  0.89174200  0.85291000  1
  O  O58  1  0.15261800  0.39431100  0.63132400  1
  O  O59  1  0.79260000  0.48845600  0.91251100  1
  O  O60  1  0.02048200  0.37329200  0.15339700  1
  O  O61  1  0.69261700  0.07911900  0.98500000  1
  O  O62  1  0.29579000  0.38857200  0.40907300  1
  O  O63  1  0.88298600  0.24827500  0.91093100  1
  O  O64  1  0.05891900  0.89093800  0.51137700  1
  O  O65  1  0.84691500  0.59964400  0.18046100  1
loop_
_geom_bond_atom_site_label_1
_geom_bond_atom_site_label_2
_geom_bond_distance
_geom_bond_site_symmetry_2
K0 O55 2.725619 1_555
K0 O41 2.827936 1_555
K0 O31 2.830035 1_555
K0 O38 2.836377 1_555
K0 O65 2.984331 1_555
K0 O7 3.122477 1_555
K0 O39 3.143471 1_555
K0 O8 3.207803 1_555
K1 O26 2.747537 1_555
K1 O18 2.763730 1_555
K1 O21 2.801775 1_555
K1 O35 2.842722 1_555
K1 O37 2.934638 1_555
K1 O32 3.014045 1_555
K1 O29 3.202219 1_555
K1 O12 3.301902 1_555
K2 O28 2.854355 1_555
K2 O13 2.893835 1_555
K2 O24 3.000991 1_455
K2 O46 3.022728 1_555
K2 O4 3.024226 1_455
K2 O57 3.036321 1_555
K2 O6 3.104184 1_555
K2 O2 3.275202 1_555
K2 O51 3.311390 1_565
K3 O36 2.860501 1_555
K3 O11 2.906596 1_555
K3 O60 3.028490 1_655
K3 O33 3.039563 1_655
K3 O53 3.059086 1_555
K3 O19 3.099154 1_555
K3 O45 3.102785 1_555
K3 O17 3.128824 1_555
K3 O44 3.145480 1_555
K4 O52 2.670535 1_556
K4 O48 2.719510 1_556
K4 O22 2.753082 1_556
K4 O49 2.771405 1_555
K4 O54 2.776837 1_555
K5 O63 2.741953 1_555
K5 O12 2.751546 1_555
K5 O32 2.804957 1_555
K5 O58 2.856239 1_655
K5 O37 2.883661 1_655
K5 O35 3.044640 1_655
K5 O18 3.057663 1_555
K5 O26 3.164016 1_555
K6 O2 2.715272 1_655
K6 O6 2.727462 1_555
K6 O46 2.751032 1_555
K6 O24 2.757892 1_555
K6 O57 2.809474 1_555
K6 O49 2.829592 1_555
K6 O4 2.954511 1_555
K7 O40 2.743751 1_555
K7 O64 2.777538 1_655
K7 O27 2.804253 1_555
K7 O25 2.836955 1_555
K7 O14 2.837784 1_655
K7 O8 3.066307 1_655
K7 O39 3.086706 1_655
K8 O34 2.668730 1_455
K8 O10 2.751840 1_555
K8 O58 2.756326 1_555
K8 O16 2.758897 1_455
K8 O62 2.818846 1_555
K8 O12 3.080667 1_455
K9 O23 2.725476 1_555
K9 O43 2.749876 1_554
K9 O56 2.754571 1_555
K9 O3 2.793824 1_554
K9 O61 2.858176 1_554
K9 O44 3.216876 1_555
K9 O60 3.256405 1_555
K10 O8 2.737880 1_555
K10 O15 2.754676 1_555
K10 O39 2.828690 1_555
K10 O65 2.840918 1_455
K10 O41 3.000510 1_455
K10 O40 3.040773 1_455
K10 O55 3.090303 1_555
K10 O31 3.099031 1_555
K11 O33 2.744183 1_555
K11 O17 2.751733 1_555
K11 O53 2.774106 1_455
K11 O45 2.804004 1_555
K11 O44 2.851732 1_555
K11 O60 2.910460 1_555
K11 O23 2.951614 1_555
Mo0 O27 1.736230 1_555
Mo0 O32 1.745043 1_555
Mo0 O34 1.948219 1_555
Mo0 O29 2.000590 1_555
Mo0 O0 2.135016 1_555
Mo1 O46 1.745491 1_545
Mo1 O35 1.748004 1_555
Mo1 O20 1.940307 1_545
Mo1 O47 2.066154 1_555
Mo1 O10 2.211769 1_555
Mo1 O25 2.352645 1_545
Mo2 O63 1.746012 1_555
Mo2 O11 1.752799 1_556
Mo2 O56 1.959553 1_556
Mo2 O3 1.961345 1_655
Mo2 O59 2.318128 1_555
Mo2 O30 2.331442 1_556
Mo3 O40 1.744867 1_555
Mo3 O53 1.745926 1_555
Mo3 O7 1.957750 1_555
Mo3 O34 1.968565 1_555
Mo3 O0 2.131063 1_555
Mo4 O62 1.733699 1_555
Mo4 O39 1.747616 1_555
Mo4 O7 1.941003 1_555
Mo4 O14 2.030007 1_555
Mo4 O0 2.109556 1_555
Mo5 O45 1.744721 1_565
Mo5 O41 1.748061 1_555
Mo5 O42 1.942886 1_565
Mo5 O1 2.066096 1_555
Mo5 O25 2.221558 1_555
Mo5 O10 2.344099 1_565
Mo6 O36 1.740750 1_555
Mo6 O21 1.757939 1_555
Mo6 O10 1.951447 1_555
Mo6 O16 1.968037 1_555
Mo6 O42 2.284800 1_555
Mo6 O47 2.379303 1_555
Mo7 O33 1.739951 1_565
Mo7 O8 1.748588 1_555
Mo7 O1 1.945543 1_555
Mo7 O42 2.098405 1_465
Mo7 O16 2.145727 1_465
Mo7 O64 2.357119 1_555
Mo8 O17 1.743162 1_555
Mo8 O55 1.743504 1_555
Mo8 O50 1.941184 1_555
Mo8 O30 2.078778 1_555
Mo8 O56 2.192651 1_555
Mo8 O54 2.362276 1_554
Mo9 O15 1.746929 1_555
Mo9 O28 1.751518 1_554
Mo9 O54 1.953029 1_554
Mo9 O48 1.966353 1_455
Mo9 O50 2.313088 1_555
Mo9 O9 2.338300 1_554
Mo10 O43 1.737527 1_565
Mo10 O57 1.744765 1_555
Mo10 O52 1.954584 1_556
Mo10 O51 2.000819 1_565
Mo10 O5 2.118027 1_556
Mo11 O24 1.744355 1_545
Mo11 O12 1.747827 1_555
Mo11 O47 1.941469 1_555
Mo11 O20 2.101448 1_645
Mo11 O64 2.138096 1_645
Mo11 O16 2.361910 1_555
Mo12 O65 1.742592 1_555
Mo12 O60 1.749945 1_655
Mo12 O30 1.936632 1_555
Mo12 O50 2.100735 1_655
Mo12 O48 2.132595 1_555
Mo12 O3 2.414854 1_654
Mo13 O22 1.734539 1_545
Mo13 O44 1.746814 1_555
Mo13 O19 1.942956 1_555
Mo13 O61 2.032508 1_554
Mo13 O5 2.108045 1_645
Mo14 O2 1.736181 1_555
Mo14 O58 1.749836 1_555
Mo14 O29 1.861064 1_555
Mo14 O14 1.862962 1_555
Mo15 O13 1.742065 1_555
Mo15 O38 1.756764 1_555
Mo15 O25 1.950643 1_555
Mo15 O64 1.980239 1_555
Mo15 O20 2.280856 1_555
Mo15 O1 2.363392 1_555
Mo16 O23 1.743436 1_565
Mo16 O31 1.745828 1_555
Mo16 O19 1.958902 1_465
Mo16 O52 1.964853 1_555
Mo16 O5 2.156373 1_555
Mo17 O37 1.746470 1_555
Mo17 O4 1.747876 1_455
Mo17 O9 1.937458 1_555
Mo17 O59 2.095592 1_455
Mo17 O3 2.140514 1_555
Mo17 O48 2.398883 1_456
Mo18 O18 1.744323 1_555
Mo18 O6 1.744326 1_555
Mo18 O59 1.945113 1_555
Mo18 O9 2.072276 1_555
Mo18 O54 2.199516 1_555
Mo18 O56 2.345778 1_556
Mo19 O26 1.739386 1_555
Mo19 O49 1.746965 1_545
Mo19 O51 1.864614 1_655
Mo19 O61 1.866283 1_555
