# generated using pymatgen
data_Ba4Na(RuO4)3
_symmetry_space_group_name_H-M   'P 1'
_cell_length_a   5.87708756
_cell_length_b   5.87708756
_cell_length_c   19.44966800
_cell_angle_alpha   90.00000000
_cell_angle_beta   90.00000000
_cell_angle_gamma   119.99999504
_symmetry_Int_Tables_number   1
_chemical_formula_structural   Ba4Na(RuO4)3
_chemical_formula_sum   'Ba8 Na2 Ru6 O24'
_cell_volume   581.79122690
_cell_formula_units_Z   2
loop_
 _symmetry_equiv_pos_site_id
 _symmetry_equiv_pos_as_xyz
  1  'x, y, z'
loop_
 _atom_site_type_symbol
 _atom_site_label
 _atom_site_symmetry_multiplicity
 _atom_site_fract_x
 _atom_site_fract_y
 _atom_site_fract_z
 _atom_site_occupancy
  Ba  Ba0  1  0.00000000  0.00000000  0.11732000  1
  Ba  Ba1  1  0.00000000  0.00000000  0.61732000  1
  Ba  Ba2  1  0.33333300  0.66666700  0.37263200  1
  Ba  Ba3  1  0.66666700  0.33333300  0.87263200  1
  Ba  Ba4  1  0.66666700  0.33333300  0.49720900  1
  Ba  Ba5  1  0.33333300  0.66666700  0.99720900  1
  Ba  Ba6  1  0.33333300  0.66666700  0.74580300  1
  Ba  Ba7  1  0.66666700  0.33333300  0.24580300  1
  Na  Na0  1  0.33333300  0.66666700  0.55971700  1
  Na  Na1  1  0.66666700  0.33333300  0.05971700  1
  Ru  Ru0  1  0.00000000  0.00000000  0.29905000  1
  Ru  Ru1  1  0.00000000  0.00000000  0.79905000  1
  Ru  Ru2  1  0.00000000  0.00000000  0.43591700  1
  Ru  Ru3  1  0.00000000  0.00000000  0.93591700  1
  Ru  Ru4  1  0.33333300  0.66666700  0.18332100  1
  Ru  Ru5  1  0.66666700  0.33333300  0.68332100  1
  O  O0  1  0.16537600  0.33075200  0.24450700  1
  O  O1  1  0.83462400  0.16537600  0.74450700  1
  O  O2  1  0.33075200  0.16537600  0.74450700  1
  O  O3  1  0.66924800  0.83462400  0.24450700  1
  O  O4  1  0.16537600  0.83462400  0.24450700  1
  O  O5  1  0.83462400  0.66924800  0.74450700  1
  O  O6  1  0.30446900  0.15223400  0.36431300  1
  O  O7  1  0.15223400  0.30446900  0.86431300  1
  O  O8  1  0.15223400  0.84776600  0.86431300  1
  O  O9  1  0.84776600  0.15223400  0.36431300  1
  O  O10  1  0.84776600  0.69553100  0.36431300  1
  O  O11  1  0.69553100  0.84776600  0.86431300  1
  O  O12  1  0.15639700  0.31279300  0.48844800  1
  O  O13  1  0.84360300  0.15639700  0.98844800  1
  O  O14  1  0.31279300  0.15639700  0.98844800  1
  O  O15  1  0.68720700  0.84360300  0.48844800  1
  O  O16  1  0.15639700  0.84360300  0.48844800  1
  O  O17  1  0.84360300  0.68720700  0.98844800  1
  O  O18  1  0.51348500  0.48651500  0.62840300  1
  O  O19  1  0.02697100  0.51348500  0.12840300  1
  O  O20  1  0.48651500  0.97302900  0.12840300  1
  O  O21  1  0.51348500  0.02697100  0.62840300  1
  O  O22  1  0.97302900  0.48651500  0.62840300  1
  O  O23  1  0.48651500  0.51348500  0.12840300  1
loop_
_geom_bond_atom_site_label_1
_geom_bond_atom_site_label_2
_geom_bond_distance
_geom_bond_site_symmetry_2
Ba0 O20 2.949633 1_445
Ba0 O19 2.949633 1_555
Ba0 O23 2.949636 1_555
Ba0 O23 2.949636 1_445
Ba0 O19 2.949639 1_545
Ba0 O20 2.949639 1_545
Ba0 O17 2.969373 1_444
Ba0 O14 2.969373 1_554
Ba0 O13 2.969375 1_454
Ba0 O4 2.992215 1_545
Ba0 O0 2.992215 1_555
Ba0 O3 2.992215 1_445
Ba1 O22 2.949633 1_445
Ba1 O21 2.949633 1_555
Ba1 O18 2.949636 1_445
Ba1 O18 2.949636 1_555
Ba1 O21 2.949639 1_455
Ba1 O22 2.949639 1_455
Ba1 O15 2.969373 1_445
Ba1 O12 2.969373 1_555
Ba1 O16 2.969375 1_545
Ba1 O1 2.992215 1_455
Ba1 O5 2.992215 1_445
Ba1 O2 2.992215 1_555
Ba2 O16 2.884113 1_555
Ba2 O12 2.884119 1_555
Ba2 O15 2.884119 1_555
Ba2 O6 2.946654 1_565
Ba2 O10 2.946654 1_455
Ba2 O9 2.946660 1_565
Ba2 O9 2.946660 1_455
Ba2 O10 2.946665 1_555
Ba2 O6 2.946665 1_555
Ba2 O4 3.022101 1_555
Ba2 O0 3.022104 1_555
Ba2 O3 3.022104 1_555
Ba3 O13 2.884113 1_555
Ba3 O14 2.884119 1_555
Ba3 O17 2.884119 1_555
Ba3 O7 2.946654 1_655
Ba3 O11 2.946654 1_545
Ba3 O8 2.946660 1_655
Ba3 O8 2.946660 1_545
Ba3 O11 2.946665 1_555
Ba3 O7 2.946665 1_555
Ba3 O1 3.022101 1_555
Ba3 O5 3.022104 1_555
Ba3 O2 3.022104 1_555
Ba4 O12 2.945336 1_655
Ba4 O15 2.945336 1_545
Ba4 O15 2.945336 1_555
Ba4 O12 2.945336 1_555
Ba4 O16 2.945336 1_655
Ba4 O16 2.945336 1_545
Ba4 O22 2.990395 1_555
Ba4 O21 2.990395 1_555
Ba4 O18 2.990401 1_555
Ba4 O9 3.174827 1_555
Ba4 O10 3.174827 1_555
Ba4 O6 3.174827 1_555
Ba5 O14 2.945336 1_565
Ba5 O17 2.945336 1_455
Ba5 O17 2.945336 1_555
Ba5 O14 2.945336 1_555
Ba5 O13 2.945336 1_565
Ba5 O13 2.945336 1_455
Ba5 O20 2.990395 1_556
Ba5 O19 2.990395 1_556
Ba5 O23 2.990401 1_556
Ba5 O8 3.174827 1_555
Ba5 O11 3.174827 1_555
Ba5 O7 3.174827 1_555
Ba6 O18 2.928626 1_555
Ba6 O21 2.928626 1_565
Ba6 O22 2.928626 1_455
Ba6 O2 2.938678 1_565
Ba6 O5 2.938678 1_455
Ba6 O1 2.938681 1_565
Ba6 O1 2.938681 1_455
Ba6 O5 2.938684 1_555
Ba6 O2 2.938684 1_555
Ba6 O8 2.951501 1_555
Ba6 O7 2.951501 1_555
Ba6 O11 2.951501 1_555
Ba7 O23 2.928626 1_555
Ba7 O19 2.928626 1_655
Ba7 O20 2.928626 1_545
Ba7 O0 2.938678 1_655
Ba7 O3 2.938678 1_545
Ba7 O4 2.938681 1_655
Ba7 O4 2.938681 1_545
Ba7 O3 2.938684 1_555
Ba7 O0 2.938684 1_555
Ba7 O9 2.951501 1_555
Ba7 O10 2.951501 1_555
Ba7 O6 2.951501 1_555
Na0 O18 2.268845 1_555
Na0 O21 2.268845 1_565
Na0 O22 2.268845 1_455
Na0 O16 2.272755 1_555
Na0 O15 2.272763 1_555
Na0 O12 2.272763 1_555
Na1 O23 2.268845 1_555
Na1 O19 2.268845 1_655
Na1 O20 2.268845 1_545
Na1 O13 2.272755 1_554
Na1 O17 2.272763 1_554
Na1 O14 2.272763 1_554
O0 Ru0 1.989806 1_555
O0 Ru4 2.083103 1_555
O1 Ru1 1.989806 1_655
O1 Ru5 2.083099 1_555
O2 Ru1 1.989806 1_555
O2 Ru5 2.083103 1_555
O3 Ru0 1.989806 1_665
O3 Ru4 2.083103 1_555
O4 Ru0 1.989806 1_565
O4 Ru4 2.083099 1_555
O5 Ru1 1.989806 1_665
O5 Ru5 2.083103 1_555
O6 Ru0 2.003166 1_555
O6 Ru2 2.083502 1_555
O7 Ru1 2.003166 1_555
O7 Ru3 2.083502 1_555
O8 Ru1 2.003162 1_565
O8 Ru3 2.083498 1_565
O9 Ru0 2.003162 1_655
O9 Ru2 2.083498 1_655
O10 Ru0 2.003166 1_665
O10 Ru2 2.083502 1_665
O11 Ru1 2.003166 1_665
O11 Ru3 2.083502 1_665
O12 Ru2 1.891675 1_555
O13 Ru3 1.891679 1_655
O14 Ru3 1.891675 1_555
O15 Ru2 1.891675 1_665
O16 Ru2 1.891679 1_565
O17 Ru3 1.891675 1_665
O18 Ru5 1.890064 1_555
O19 Ru4 1.890056 1_555
O20 Ru4 1.890056 1_555
O21 Ru5 1.890056 1_555
O22 Ru5 1.890056 1_555
O23 Ru4 1.890064 1_555
