# generated using pymatgen
data_Tl2SeO4
_symmetry_space_group_name_H-M   'P 1'
_cell_length_a   6.29741217
_cell_length_b   7.87774307
_cell_length_c   10.66121885
_cell_angle_alpha   90.00000000
_cell_angle_beta   90.00000000
_cell_angle_gamma   90.00000000
_symmetry_Int_Tables_number   1
_chemical_formula_structural   Tl2SeO4
_chemical_formula_sum   'Tl8 Se4 O16'
_cell_volume   528.89661798
_cell_formula_units_Z   4
loop_
 _symmetry_equiv_pos_site_id
 _symmetry_equiv_pos_as_xyz
  1  'x, y, z'
loop_
 _atom_site_type_symbol
 _atom_site_label
 _atom_site_symmetry_multiplicity
 _atom_site_fract_x
 _atom_site_fract_y
 _atom_site_fract_z
 _atom_site_occupancy
  Tl  Tl0  1  0.47473857  0.74515898  0.28515952  1
  Tl  Tl1  1  0.97473857  0.75484102  0.71484048  1
  Tl  Tl2  1  0.97469643  0.92168208  0.08089824  1
  Tl  Tl3  1  0.02526143  0.25484102  0.78515952  1
  Tl  Tl4  1  0.52530357  0.07831792  0.58089824  1
  Tl  Tl5  1  0.52526143  0.24515898  0.21484048  1
  Tl  Tl6  1  0.02530357  0.42168208  0.41910176  1
  Tl  Tl7  1  0.47469643  0.57831792  0.91910176  1
  Se  Se0  1  0.98919928  0.45534515  0.08329543  1
  Se  Se1  1  0.48919928  0.04465485  0.91670457  1
  Se  Se2  1  0.01080072  0.95534515  0.41670457  1
  Se  Se3  1  0.51080072  0.54465485  0.58329543  1
  O  O0  1  0.42558741  0.24473265  0.94649605  1
  O  O1  1  0.30159126  0.53069753  0.67784219  1
  O  O2  1  0.45258343  0.44770928  0.44869345  1
  O  O3  1  0.69840874  0.03069753  0.82215781  1
  O  O4  1  0.21587398  0.05024723  0.34863456  1
  O  O5  1  0.04741657  0.55229072  0.94869345  1
  O  O6  1  0.07441259  0.75526735  0.44649605  1
  O  O7  1  0.54741657  0.94770928  0.05130655  1
  O  O8  1  0.19840874  0.46930247  0.17784219  1
  O  O9  1  0.80159126  0.96930247  0.32215781  1
  O  O10  1  0.28412602  0.94975277  0.84863456  1
  O  O11  1  0.92558741  0.25526735  0.05350395  1
  O  O12  1  0.71587398  0.44975277  0.65136544  1
  O  O13  1  0.57441259  0.74473265  0.55350395  1
  O  O14  1  0.95258343  0.05229072  0.55130655  1
  O  O15  1  0.78412602  0.55024723  0.15136544  1
loop_
_geom_bond_atom_site_label_1
_geom_bond_atom_site_label_2
_geom_bond_distance
_geom_bond_site_symmetry_2
O0 Se1 1.656996 1_555
O0 Tl7 2.662103 1_555
O1 Se3 1.662489 1_555
O1 Tl1 2.740465 1_455
O1 Tl7 2.818668 1_555
O2 Se3 1.666419 1_555
O2 Tl6 2.716937 1_555
O3 Se1 1.662489 1_555
O3 Tl3 2.740465 1_655
O3 Tl4 2.818668 1_555
O4 Se2 1.659330 1_545
O5 Se0 1.666419 1_456
O5 Tl7 2.716937 1_555
O6 Se2 1.656996 1_555
O6 Tl6 2.662103 1_555
O7 Se1 1.666419 1_564
O7 Tl2 2.716937 1_555
O8 Se0 1.662489 1_455
O8 Tl5 2.740465 1_555
O8 Tl6 2.818668 1_555
O9 Se2 1.662489 1_655
O9 Tl0 2.740465 1_555
O9 Tl2 2.818668 1_555
O10 Se1 1.659330 1_565
O11 Se0 1.656996 1_555
O11 Tl2 2.662103 1_545
O12 Se3 1.659330 1_555
O13 Se3 1.656996 1_555
O13 Tl4 2.662103 1_565
O14 Se2 1.666419 1_645
O14 Tl4 2.716937 1_555
O15 Se0 1.659330 1_555
