# generated using pymatgen
data_Ce2SiTeO4
_symmetry_space_group_name_H-M   'P 1'
_cell_length_a   6.41112900
_cell_length_b   7.29058400
_cell_length_c   11.31500400
_cell_angle_alpha   90.00000000
_cell_angle_beta   90.00000000
_cell_angle_gamma   90.00000000
_symmetry_Int_Tables_number   1
_chemical_formula_structural   Ce2SiTeO4
_chemical_formula_sum   'Ce8 Si4 Te4 O16'
_cell_volume   528.87318204
_cell_formula_units_Z   4
loop_
 _symmetry_equiv_pos_site_id
 _symmetry_equiv_pos_as_xyz
  1  'x, y, z'
loop_
 _atom_site_type_symbol
 _atom_site_label
 _atom_site_symmetry_multiplicity
 _atom_site_fract_x
 _atom_site_fract_y
 _atom_site_fract_z
 _atom_site_occupancy
  Ce  Ce0  1  0.11216000  0.03924700  0.25000000  1
  Ce  Ce1  1  0.11216000  0.46075300  0.75000000  1
  Ce  Ce2  1  0.88784000  0.53924700  0.25000000  1
  Ce  Ce3  1  0.88784000  0.96075300  0.75000000  1
  Ce  Ce4  1  0.61008900  0.25000000  0.00000000  1
  Ce  Ce5  1  0.38991100  0.75000000  0.50000000  1
  Ce  Ce6  1  0.38991100  0.75000000  0.00000000  1
  Ce  Ce7  1  0.61008900  0.25000000  0.50000000  1
  Si  Si0  1  0.11365900  0.25000000  0.00000000  1
  Si  Si1  1  0.88634100  0.75000000  0.50000000  1
  Si  Si2  1  0.88634100  0.75000000  0.00000000  1
  Si  Si3  1  0.11365900  0.25000000  0.50000000  1
  Te  Te0  1  0.40200100  0.42887300  0.25000000  1
  Te  Te1  1  0.40200100  0.07112700  0.75000000  1
  Te  Te2  1  0.59799900  0.92887300  0.25000000  1
  Te  Te3  1  0.59799900  0.57112700  0.75000000  1
  O  O0  1  0.04665400  0.77040800  0.11497600  1
  O  O1  1  0.04665400  0.72959200  0.88502400  1
  O  O2  1  0.95334600  0.27040800  0.38502400  1
  O  O3  1  0.95334600  0.22959200  0.61497600  1
  O  O4  1  0.95334600  0.22959200  0.88502400  1
  O  O5  1  0.95334600  0.27040800  0.11497600  1
  O  O6  1  0.04665400  0.72959200  0.61497600  1
  O  O7  1  0.04665400  0.77040800  0.38502400  1
  O  O8  1  0.26761800  0.07810300  0.03589600  1
  O  O9  1  0.26761800  0.42189700  0.96410400  1
  O  O10  1  0.73238200  0.57810300  0.46410400  1
  O  O11  1  0.73238200  0.92189700  0.53589600  1
  O  O12  1  0.73238200  0.92189700  0.96410400  1
  O  O13  1  0.73238200  0.57810300  0.03589600  1
  O  O14  1  0.26761800  0.42189700  0.53589600  1
  O  O15  1  0.26761800  0.07810300  0.46410400  1
loop_
_geom_bond_atom_site_label_1
_geom_bond_atom_site_label_2
_geom_bond_distance
_geom_bond_site_symmetry_2
Ce0 O2 2.492204 1_455
Ce0 O5 2.492204 1_455
Ce0 O7 2.520339 1_545
Ce0 O0 2.520339 1_545
Ce0 O15 2.634865 1_555
Ce0 O8 2.634865 1_555
Ce0 Te2 3.217042 1_545
Ce0 Te2 3.393150 1_445
Ce0 Te0 3.394400 1_555
Ce1 O3 2.492204 1_455
Ce1 O4 2.492204 1_455
Ce1 O1 2.520339 1_555
Ce1 O6 2.520339 1_555
Ce1 O9 2.634865 1_555
Ce1 O14 2.634865 1_555
Ce1 Te3 3.217042 1_555
Ce1 Te3 3.393150 1_455
Ce1 Te1 3.394400 1_555
Ce2 O7 2.492204 1_655
Ce2 O0 2.492204 1_655
Ce2 O2 2.520339 1_555
Ce2 O5 2.520339 1_555
Ce2 O13 2.634865 1_555
Ce2 O10 2.634865 1_555
Ce2 Te0 3.217042 1_555
Ce2 Te0 3.393150 1_655
Ce2 Te2 3.394400 1_555
Ce3 O1 2.492204 1_655
Ce3 O6 2.492204 1_655
Ce3 O3 2.520339 1_565
Ce3 O4 2.520339 1_565
Ce3 O12 2.634865 1_555
Ce3 O11 2.634865 1_555
Ce3 Te1 3.217042 1_565
Ce3 Te1 3.393150 1_665
Ce3 Te3 3.394400 1_555
Ce4 O13 2.549832 1_555
Ce4 O12 2.549832 1_544
Ce4 O8 2.560532 1_555
Ce4 O9 2.560532 1_554
Ce4 O4 2.560770 1_554
Ce4 O5 2.560770 1_555
Ce4 Te1 3.388546 1_554
Ce4 Te0 3.388546 1_555
Ce4 Te2 3.672747 1_545
Ce4 Te3 3.672747 1_554
Ce5 O14 2.549832 1_555
Ce5 O15 2.549832 1_565
Ce5 O10 2.560532 1_555
Ce5 O11 2.560532 1_555
Ce5 O6 2.560770 1_555
Ce5 O7 2.560770 1_555
Ce5 Te2 3.388546 1_555
Ce5 Te3 3.388546 1_555
Ce5 Te1 3.672747 1_565
Ce5 Te0 3.672747 1_555
Ce6 O9 2.549832 1_554
Ce6 O8 2.549832 1_565
Ce6 O12 2.560532 1_554
Ce6 O13 2.560532 1_555
Ce6 O1 2.560770 1_554
Ce6 O0 2.560770 1_555
Ce6 Te2 3.388546 1_555
Ce6 Te3 3.388546 1_554
Ce6 Te1 3.672747 1_564
Ce6 Te0 3.672747 1_555
Ce7 O10 2.549832 1_555
Ce7 O11 2.549832 1_545
Ce7 O15 2.560532 1_555
Ce7 O14 2.560532 1_555
Ce7 O3 2.560770 1_555
Ce7 O2 2.560770 1_555
Ce7 Te0 3.388546 1_555
Ce7 Te1 3.388546 1_555
Ce7 Te2 3.672747 1_545
Ce7 Te3 3.672747 1_555
O0 Si2 1.664622 1_455
O1 Si2 1.664622 1_456
O2 Si3 1.664622 1_655
O3 Si3 1.664622 1_655
O4 Si0 1.664622 1_656
O5 Si0 1.664622 1_655
O6 Si1 1.664622 1_455
O7 Si1 1.664622 1_455
O8 Si0 1.646154 1_555
O9 Si0 1.646154 1_556
O10 Si1 1.646154 1_555
O11 Si1 1.646154 1_555
O12 Si2 1.646154 1_556
O13 Si2 1.646154 1_555
O14 Si3 1.646154 1_555
O15 Si3 1.646154 1_555
