# generated using pymatgen
data_Cd2Os2O7
_symmetry_space_group_name_H-M   'P 1'
_cell_length_a   7.28944784
_cell_length_b   7.28944784
_cell_length_c   7.28944784
_cell_angle_alpha   60.00000000
_cell_angle_beta   60.00000000
_cell_angle_gamma   60.00000000
_symmetry_Int_Tables_number   1
_chemical_formula_structural   Cd2Os2O7
_chemical_formula_sum   'Cd4 Os4 O14'
_cell_volume   273.88541173
_cell_formula_units_Z   2
loop_
 _symmetry_equiv_pos_site_id
 _symmetry_equiv_pos_as_xyz
  1  'x, y, z'
loop_
 _atom_site_type_symbol
 _atom_site_label
 _atom_site_symmetry_multiplicity
 _atom_site_fract_x
 _atom_site_fract_y
 _atom_site_fract_z
 _atom_site_occupancy
  Cd  Cd0  1  0.12500000  0.12500000  0.12500000  1
  Cd  Cd1  1  0.62500000  0.12500000  0.12500000  1
  Cd  Cd2  1  0.12500000  0.62500000  0.12500000  1
  Cd  Cd3  1  0.12500000  0.12500000  0.62500000  1
  Os  Os0  1  0.62500000  0.62500000  0.62500000  1
  Os  Os1  1  0.12500000  0.62500000  0.62500000  1
  Os  Os2  1  0.62500000  0.12500000  0.62500000  1
  Os  Os3  1  0.62500000  0.62500000  0.12500000  1
  O  O0  1  0.25000000  0.25000000  0.25000000  1
  O  O1  1  0.00000000  0.00000000  0.00000000  1
  O  O2  1  0.55764000  0.94236000  0.55764000  1
  O  O3  1  0.30764000  0.69236000  0.30764000  1
  O  O4  1  0.55764000  0.55764000  0.94236000  1
  O  O5  1  0.94236000  0.55764000  0.55764000  1
  O  O6  1  0.55764000  0.94236000  0.94236000  1
  O  O7  1  0.94236000  0.94236000  0.55764000  1
  O  O8  1  0.94236000  0.55764000  0.94236000  1
  O  O9  1  0.69236000  0.30764000  0.30764000  1
  O  O10  1  0.30764000  0.69236000  0.69236000  1
  O  O11  1  0.69236000  0.30764000  0.69236000  1
  O  O12  1  0.30764000  0.30764000  0.69236000  1
  O  O13  1  0.69236000  0.69236000  0.30764000  1
loop_
_geom_bond_atom_site_label_1
_geom_bond_atom_site_label_2
_geom_bond_distance
_geom_bond_site_symmetry_2
Cd0 O0 2.231928 1_555
Cd0 O1 2.231928 1_555
Cd0 O9 2.620298 1_455
Cd0 O7 2.620298 1_445
Cd0 O3 2.620298 1_545
Cd0 O12 2.620298 1_554
Cd0 O8 2.620298 1_454
Cd0 O6 2.620298 1_544
Cd1 O0 2.231928 1_555
Cd1 O1 2.231928 1_655
Cd1 O6 2.620298 1_544
Cd1 O11 2.620298 1_554
Cd1 O13 2.620298 1_545
Cd1 O2 2.620298 1_545
Cd1 O4 2.620298 1_554
Cd1 O9 2.620298 1_555
Cd2 O0 2.231928 1_555
Cd2 O1 2.231928 1_565
Cd2 O8 2.620298 1_454
Cd2 O13 2.620298 1_455
Cd2 O10 2.620298 1_554
Cd2 O5 2.620298 1_455
Cd2 O4 2.620298 1_554
Cd2 O3 2.620298 1_555
Cd3 O0 2.231928 1_555
Cd3 O1 2.231928 1_556
Cd3 O7 2.620298 1_445
Cd3 O11 2.620298 1_455
Cd3 O10 2.620298 1_545
Cd3 O2 2.620298 1_545
Cd3 O5 2.620298 1_455
Cd3 O12 2.620298 1_555
O2 Os2 1.950179 1_565
O2 Os0 1.950179 1_555
O3 Os1 1.950179 1_555
O3 Os3 1.950179 1_555
O4 Os3 1.950179 1_556
O4 Os0 1.950179 1_555
O5 Os1 1.950179 1_655
O5 Os0 1.950179 1_555
O6 Os3 1.950179 1_556
O6 Os2 1.950179 1_565
O7 Os1 1.950179 1_655
O7 Os2 1.950179 1_565
O8 Os3 1.950179 1_556
O8 Os1 1.950179 1_655
O9 Os2 1.950179 1_555
O9 Os3 1.950179 1_555
O10 Os0 1.950179 1_555
O10 Os1 1.950179 1_555
O11 Os0 1.950179 1_555
O11 Os2 1.950179 1_555
O12 Os1 1.950179 1_555
O12 Os2 1.950179 1_555
O13 Os0 1.950179 1_555
O13 Os3 1.950179 1_555
