# generated using pymatgen
data_YCu3Se2ClO8
_symmetry_space_group_name_H-M   'P 1'
_cell_length_a   6.37011600
_cell_length_b   7.06369700
_cell_length_c   9.56992200
_cell_angle_alpha   90.00000000
_cell_angle_beta   90.00000000
_cell_angle_gamma   90.00000000
_symmetry_Int_Tables_number   1
_chemical_formula_structural   YCu3Se2ClO8
_chemical_formula_sum   'Y2 Cu6 Se4 Cl2 O16'
_cell_volume   430.61365827
_cell_formula_units_Z   2
loop_
 _symmetry_equiv_pos_site_id
 _symmetry_equiv_pos_as_xyz
  1  'x, y, z'
loop_
 _atom_site_type_symbol
 _atom_site_label
 _atom_site_symmetry_multiplicity
 _atom_site_fract_x
 _atom_site_fract_y
 _atom_site_fract_z
 _atom_site_occupancy
  Y  Y0  1  0.00000000  0.73411300  0.00000000  1
  Y  Y1  1  0.50000000  0.26588700  0.50000000  1
  Cu  Cu0  1  0.25000000  0.00000000  0.75000000  1
  Cu  Cu1  1  0.25000000  0.00000000  0.25000000  1
  Cu  Cu2  1  0.75000000  0.00000000  0.75000000  1
  Cu  Cu3  1  0.50000000  0.79481200  0.50000000  1
  Cu  Cu4  1  0.00000000  0.20518800  0.00000000  1
  Cu  Cu5  1  0.75000000  0.00000000  0.25000000  1
  Se  Se0  1  0.50000000  0.59006100  0.81037300  1
  Se  Se1  1  0.00000000  0.40993900  0.68962700  1
  Se  Se2  1  0.50000000  0.59006100  0.18962700  1
  Se  Se3  1  0.00000000  0.40993900  0.31037300  1
  Cl  Cl0  1  0.00000000  0.85150800  0.50000000  1
  Cl  Cl1  1  0.50000000  0.14849200  0.00000000  1
  O  O0  1  0.00000000  0.00300300  0.86187100  1
  O  O1  1  0.00000000  0.42599500  0.87052500  1
  O  O2  1  0.50000000  0.57400500  0.37052500  1
  O  O3  1  0.28731900  0.73934100  0.83800600  1
  O  O4  1  0.21268100  0.26065900  0.33800600  1
  O  O5  1  0.78731900  0.26065900  0.33800600  1
  O  O6  1  0.50000000  0.99699700  0.63812900  1
  O  O7  1  0.71268100  0.73934100  0.83800600  1
  O  O8  1  0.71268100  0.73934100  0.16199400  1
  O  O9  1  0.78731900  0.26065900  0.66199400  1
  O  O10  1  0.00000000  0.00300300  0.13812900  1
  O  O11  1  0.50000000  0.99699700  0.36187100  1
  O  O12  1  0.21268100  0.26065900  0.66199400  1
  O  O13  1  0.28731900  0.73934100  0.16199400  1
  O  O14  1  0.50000000  0.57400500  0.62947500  1
  O  O15  1  0.00000000  0.42599500  0.12947500  1
loop_
_geom_bond_atom_site_label_1
_geom_bond_atom_site_label_2
_geom_bond_distance
_geom_bond_site_symmetry_2
Cu0 O0 1.919056 1_555
Cu0 O6 1.919056 1_545
Cu0 O3 2.038605 1_545
Cu0 O12 2.038605 1_555
Cu1 O10 1.919056 1_555
Cu1 O11 1.919056 1_545
Cu1 O13 2.038605 1_545
Cu1 O4 2.038605 1_555
Cu2 O6 1.919056 1_545
Cu2 O0 1.919056 1_655
Cu2 O9 2.038605 1_555
Cu2 O7 2.038605 1_545
Cu3 O6 1.946036 1_555
Cu3 O11 1.946036 1_555
Cu3 O2 1.991982 1_555
Cu3 O14 1.991982 1_555
Cu4 O0 1.946036 1_554
Cu4 O10 1.946036 1_555
Cu4 O1 1.991982 1_554
Cu4 O15 1.991982 1_555
Cu5 O11 1.919056 1_545
Cu5 O10 1.919056 1_655
Cu5 O5 2.038605 1_555
Cu5 O8 2.038605 1_545
Cl0 Cu5 3.059462 1_465
Cl0 Cu0 3.059462 1_565
Cl0 Cu1 3.059462 1_565
Cl0 Cu2 3.059462 1_465
Cl1 Cu5 3.059462 1_555
Cl1 Cu0 3.059462 1_554
Cl1 Cu1 3.059462 1_555
Cl1 Cu2 3.059462 1_554
O0 Y0 2.314073 1_546
O1 Se1 1.734891 1_555
O1 Y0 2.504442 1_556
O2 Se2 1.734891 1_555
O2 Y1 2.504442 1_555
O3 Se0 1.737045 1_555
O3 Y0 2.398861 1_556
O4 Se3 1.737045 1_555
O4 Y1 2.398861 1_555
O5 Se3 1.737045 1_655
O5 Y1 2.398861 1_555
O6 Y1 2.314073 1_565
O7 Se0 1.737045 1_555
O7 Y0 2.398861 1_656
O8 Se2 1.737045 1_555
O8 Y0 2.398861 1_655
O9 Se1 1.737045 1_655
O9 Y1 2.398861 1_555
O10 Y0 2.314073 1_545
O11 Y1 2.314073 1_565
O12 Se1 1.737045 1_555
O12 Y1 2.398861 1_555
O13 Se2 1.737045 1_555
O13 Y0 2.398861 1_555
O14 Se0 1.734891 1_555
O14 Y1 2.504442 1_555
O15 Se3 1.734891 1_555
O15 Y0 2.504442 1_555
