# generated using pymatgen
data_SiO2
_symmetry_space_group_name_H-M   'P 1'
_cell_length_a   8.33325882
_cell_length_b   8.33325273
_cell_length_c   8.33325974
_cell_angle_alpha   105.23885444
_cell_angle_beta   105.23891717
_cell_angle_gamma   118.31458474
_symmetry_Int_Tables_number   1
_chemical_formula_structural   SiO2
_chemical_formula_sum   'Si8 O16'
_cell_volume   437.40385752
_cell_formula_units_Z   8
loop_
 _symmetry_equiv_pos_site_id
 _symmetry_equiv_pos_as_xyz
  1  'x, y, z'
loop_
 _atom_site_type_symbol
 _atom_site_label
 _atom_site_symmetry_multiplicity
 _atom_site_fract_x
 _atom_site_fract_y
 _atom_site_fract_z
 _atom_site_occupancy
  Si  Si0  1  0.91796101  0.20755086  0.00048351  1
  Si  Si1  1  0.70706735  0.70755086  0.28958986  1
  Si  Si2  1  0.29244814  0.58203799  0.99951549  1
  Si  Si3  1  0.79244814  0.79293265  0.71041014  1
  Si  Si4  1  0.58252250  0.29293265  0.00048351  1
  Si  Si5  1  0.20706735  0.91747750  0.99951649  1
  Si  Si6  1  0.41796201  0.41747750  0.71041014  1
  Si  Si7  1  0.08252250  0.08203799  0.28958986  1
  O  O0  1  0.50078434  0.31534081  0.81539383  1
  O  O1  1  0.99994599  0.81534081  0.81455547  1
  O  O2  1  0.60600581  0.60600581  0.71201263  1
  O  O3  1  0.75061195  0.25061295  0.00122490  1
  O  O4  1  0.49994499  0.68539052  0.18460617  1
  O  O5  1  0.25061295  0.24938705  0.50000000  1
  O  O6  1  0.89399419  0.89399419  0.28798737  1
  O  O7  1  0.68465919  0.50005401  0.18544453  1
  O  O8  1  0.74938705  0.75061295  0.50000000  1
  O  O9  1  0.81460948  0.00005401  0.81539383  1
  O  O10  1  0.18465919  0.99921566  0.18460617  1
  O  O11  1  0.39399219  0.10600581  0.00000000  1
  O  O12  1  0.00078434  0.18539052  0.18544553  1
  O  O13  1  0.31460948  0.49921566  0.81455447  1
  O  O14  1  0.10600681  0.39399419  1.00000000  1
  O  O15  1  0.24938705  0.74938705  0.99877510  1
loop_
_geom_bond_atom_site_label_1
_geom_bond_atom_site_label_2
_geom_bond_distance
_geom_bond_site_symmetry_2
O0 Si6 1.611651 1_555
O0 Si4 1.611708 1_556
O1 Si5 1.611665 1_655
O1 Si3 1.611706 1_555
O2 Si6 1.602034 1_555
O2 Si3 1.602043 1_555
O3 Si4 1.597392 1_555
O3 Si0 1.597406 1_555
O4 Si1 1.611671 1_555
O4 Si2 1.611706 1_554
O5 Si7 1.597400 1_555
O5 Si6 1.597400 1_555
O6 Si7 1.602034 1_665
O6 Si1 1.602047 1_555
O7 Si4 1.611665 1_555
O7 Si1 1.611699 1_555
O8 Si1 1.597399 1_555
O8 Si3 1.597400 1_555
O9 Si3 1.611658 1_545
O9 Si0 1.611703 1_556
O10 Si7 1.611652 1_565
O10 Si5 1.611709 1_554
O11 Si5 1.602035 1_544
O11 Si4 1.602052 1_555
O12 Si0 1.611671 1_455
O12 Si7 1.611706 1_555
O13 Si2 1.611667 1_555
O13 Si6 1.611707 1_555
O14 Si2 1.602034 1_555
O14 Si0 1.602047 1_456
O15 Si2 1.597398 1_555
O15 Si5 1.597399 1_555
