# generated using pymatgen
data_K2MoO8
_symmetry_space_group_name_H-M   'P 1'
_cell_length_a   11.12987937
_cell_length_b   11.12987937
_cell_length_c   11.12987969
_cell_angle_alpha   64.39813681
_cell_angle_beta   64.39813681
_cell_angle_gamma   64.39814243
_symmetry_Int_Tables_number   1
_chemical_formula_structural   K2MoO8
_chemical_formula_sum   'K12 Mo6 O48'
_cell_volume   1069.00935009
_cell_formula_units_Z   6
loop_
 _symmetry_equiv_pos_site_id
 _symmetry_equiv_pos_as_xyz
  1  'x, y, z'
loop_
 _atom_site_type_symbol
 _atom_site_label
 _atom_site_symmetry_multiplicity
 _atom_site_fract_x
 _atom_site_fract_y
 _atom_site_fract_z
 _atom_site_occupancy
  K  K0  1  0.33365900  0.33365900  0.33365900  1
  K  K1  1  0.60480800  0.89519200  0.25000000  1
  K  K2  1  0.89519200  0.25000000  0.60480800  1
  K  K3  1  0.83365900  0.83365900  0.83365900  1
  K  K4  1  0.25000000  0.60480800  0.89519200  1
  K  K5  1  0.66634100  0.66634100  0.66634100  1
  K  K6  1  0.00000000  0.00000000  0.00000000  1
  K  K7  1  0.39519200  0.10480800  0.75000000  1
  K  K8  1  0.75000000  0.39519200  0.10480800  1
  K  K9  1  0.16634100  0.16634100  0.16634100  1
  K  K10  1  0.50000000  0.50000000  0.50000000  1
  K  K11  1  0.10480800  0.75000000  0.39519200  1
  Mo  Mo0  1  0.75000000  0.06822200  0.43177800  1
  Mo  Mo1  1  0.93177800  0.56822200  0.25000000  1
  Mo  Mo2  1  0.06822200  0.43177800  0.75000000  1
  Mo  Mo3  1  0.56822200  0.25000000  0.93177800  1
  Mo  Mo4  1  0.25000000  0.93177800  0.56822200  1
  Mo  Mo5  1  0.43177800  0.75000000  0.06822200  1
  O  O0  1  0.18472800  0.89780900  0.77532300  1
  O  O1  1  0.89780900  0.77532300  0.18472800  1
  O  O2  1  0.53534700  0.34493000  0.06539000  1
  O  O3  1  0.43461000  0.15507000  0.96465300  1
  O  O4  1  0.56539000  0.84493000  0.03534700  1
  O  O5  1  0.57069400  0.22301900  0.42413400  1
  O  O6  1  0.72467700  0.60219100  0.31527200  1
  O  O7  1  0.77532300  0.18472800  0.89780900  1
  O  O8  1  0.27532300  0.39780900  0.68472800  1
  O  O9  1  0.07586600  0.27698100  0.92930600  1
  O  O10  1  0.22301900  0.42413400  0.57069400  1
  O  O11  1  0.42413400  0.57069400  0.22301900  1
  O  O12  1  0.07069400  0.92413400  0.72301900  1
  O  O13  1  0.60219100  0.31527200  0.72467700  1
  O  O14  1  0.27698100  0.92930600  0.07586600  1
  O  O15  1  0.06539000  0.53534700  0.34493000  1
  O  O16  1  0.34493000  0.06539000  0.53534700  1
  O  O17  1  0.46465300  0.65507000  0.93461000  1
  O  O18  1  0.13649000  0.53557200  0.19727900  1
  O  O19  1  0.63649000  0.69727900  0.03557200  1
  O  O20  1  0.15507000  0.96465300  0.43461000  1
  O  O21  1  0.80272100  0.86351000  0.46442800  1
  O  O22  1  0.69727900  0.03557200  0.63649000  1
  O  O23  1  0.36351000  0.30272100  0.96442800  1
  O  O24  1  0.53557200  0.19727900  0.13649000  1
  O  O25  1  0.19727900  0.13649000  0.53557200  1
  O  O26  1  0.22467700  0.81527200  0.10219100  1
  O  O27  1  0.03557200  0.63649000  0.69727900  1
  O  O28  1  0.77698100  0.57586600  0.42930600  1
  O  O29  1  0.10219100  0.22467700  0.81527200  1
  O  O30  1  0.68472800  0.27532300  0.39780900  1
  O  O31  1  0.92930600  0.07586600  0.27698100  1
  O  O32  1  0.96465300  0.43461000  0.15507000  1
  O  O33  1  0.42930600  0.77698100  0.57586600  1
  O  O34  1  0.31527200  0.72467700  0.60219100  1
  O  O35  1  0.46442800  0.80272100  0.86351000  1
  O  O36  1  0.30272100  0.96442800  0.36351000  1
  O  O37  1  0.93461000  0.46465300  0.65507000  1
  O  O38  1  0.84493000  0.03534700  0.56539000  1
  O  O39  1  0.57586600  0.42930600  0.77698100  1
  O  O40  1  0.65507000  0.93461000  0.46465300  1
  O  O41  1  0.86351000  0.46442800  0.80272100  1
  O  O42  1  0.39780900  0.68472800  0.27532300  1
  O  O43  1  0.03534700  0.56539000  0.84493000  1
  O  O44  1  0.92413400  0.72301900  0.07069400  1
  O  O45  1  0.96442800  0.36351000  0.30272100  1
  O  O46  1  0.72301900  0.07069400  0.92413400  1
  O  O47  1  0.81527200  0.10219100  0.22467700  1
loop_
_geom_bond_atom_site_label_1
_geom_bond_atom_site_label_2
_geom_bond_distance
_geom_bond_site_symmetry_2
K0 O25 2.799756 1_555
K0 O24 2.799756 1_555
K0 O18 2.799756 1_555
K0 O11 2.811932 1_555
K0 O10 2.811933 1_555
K0 O5 2.811933 1_555
K0 O16 2.845512 1_555
K0 O2 2.845512 1_555
K0 O15 2.845512 1_555
K1 O6 2.823547 1_555
K1 O1 2.823547 1_555
K1 O36 2.902673 1_555
K1 O24 2.902673 1_565
K1 O40 2.913068 1_555
K1 O4 2.913068 1_555
K1 O33 3.267271 1_555
K1 O46 3.267271 1_564
K2 O7 2.823547 1_555
K2 O13 2.823547 1_555
K2 O45 2.902673 1_555
K2 O25 2.902673 1_655
K2 O38 2.913068 1_555
K2 O37 2.913068 1_555
K2 O28 3.267271 1_555
K2 O12 3.267271 1_645
K3 O19 2.799756 1_556
K3 O22 2.799756 1_565
K3 O27 2.799756 1_655
K3 O12 2.811932 1_655
K3 O44 2.811933 1_556
K3 O46 2.811933 1_565
K3 O4 2.845512 1_556
K3 O38 2.845512 1_565
K3 O43 2.845512 1_655
K4 O34 2.823547 1_555
K4 O0 2.823547 1_555
K4 O18 2.902673 1_556
K4 O23 2.902673 1_555
K4 O17 2.913068 1_555
K4 O43 2.913068 1_555
K4 O44 3.267271 1_456
K4 O39 3.267271 1_555
K5 O21 2.799756 1_555
K5 O35 2.799756 1_555
K5 O41 2.799756 1_555
K5 O39 2.811932 1_555
K5 O28 2.811933 1_555
K5 O33 2.811933 1_555
K5 O40 2.845512 1_555
K5 O17 2.845512 1_555
K5 O37 2.845512 1_555
K6 O29 2.787056 1_554
K6 O1 2.787056 1_445
K6 O47 2.787057 1_455
K6 O0 2.787057 1_544
K6 O26 2.787057 1_545
K6 O7 2.787057 1_454
K7 O29 2.823547 1_555
K7 O8 2.823547 1_555
K7 O35 2.902673 1_545
K7 O22 2.902673 1_555
K7 O16 2.913068 1_555
K7 O3 2.913068 1_555
K7 O14 3.267271 1_546
K7 O5 3.267271 1_555
K8 O30 2.823547 1_555
K8 O47 2.823547 1_555
K8 O41 2.902673 1_554
K8 O19 2.902673 1_555
K8 O2 2.913068 1_555
K8 O32 2.913068 1_555
K8 O9 3.267271 1_654
K8 O11 3.267271 1_555
K9 O23 2.799756 1_554
K9 O36 2.799756 1_545
K9 O45 2.799756 1_455
K9 O31 2.811932 1_455
K9 O9 2.811933 1_554
K9 O14 2.811933 1_545
K9 O3 2.845512 1_554
K9 O20 2.845512 1_545
K9 O32 2.845512 1_455
K10 O6 2.787056 1_555
K10 O8 2.787056 1_555
K10 O42 2.787057 1_555
K10 O13 2.787057 1_555
K10 O30 2.787057 1_555
K10 O34 2.787057 1_555
K11 O26 2.823547 1_555
K11 O42 2.823547 1_555
K11 O27 2.902673 1_555
K11 O21 2.902673 1_455
K11 O20 2.913068 1_555
K11 O15 2.913068 1_555
K11 O10 3.267271 1_555
K11 O31 3.267271 1_465
Mo0 O22 1.995214 1_555
Mo0 O21 1.995214 1_545
Mo0 O31 2.001693 1_555
Mo0 O5 2.001693 1_555
Mo0 O40 2.003784 1_545
Mo0 O38 2.003784 1_555
Mo0 O47 2.005198 1_555
Mo0 O30 2.005198 1_555
Mo1 O45 1.995214 1_555
Mo1 O18 1.995214 1_655
Mo1 O44 2.001693 1_555
Mo1 O28 2.001693 1_555
Mo1 O32 2.003784 1_555
Mo1 O15 2.003784 1_655
Mo1 O6 2.005198 1_555
Mo1 O1 2.005198 1_555
Mo2 O41 1.995214 1_455
Mo2 O27 1.995214 1_555
Mo2 O10 2.001693 1_555
Mo2 O9 2.001693 1_555
Mo2 O43 2.003784 1_555
Mo2 O37 2.003784 1_455
Mo2 O8 2.005198 1_555
Mo2 O29 2.005198 1_555
Mo3 O24 1.995214 1_556
Mo3 O23 1.995214 1_555
Mo3 O39 2.001693 1_555
Mo3 O46 2.001693 1_555
Mo3 O3 2.003784 1_555
Mo3 O2 2.003784 1_556
Mo3 O13 2.005198 1_555
Mo3 O7 2.005198 1_555
Mo4 O36 1.995214 1_555
Mo4 O25 1.995214 1_565
Mo4 O12 2.001693 1_555
Mo4 O33 2.001693 1_555
Mo4 O16 2.003784 1_565
Mo4 O20 2.003784 1_555
Mo4 O0 2.005198 1_555
Mo4 O34 2.005198 1_555
Mo5 O35 1.995214 1_554
Mo5 O19 1.995214 1_555
Mo5 O11 2.001693 1_555
Mo5 O14 2.001693 1_555
Mo5 O4 2.003784 1_555
Mo5 O17 2.003784 1_554
Mo5 O42 2.005198 1_555
Mo5 O26 2.005198 1_555
O0 O12 1.485027 1_555
O1 O44 1.485027 1_555
O2 O24 1.483597 1_555
O10 O8 1.485027 1_555
O11 O42 1.485027 1_555
O13 O39 1.485027 1_555
O14 O26 1.485027 1_555
O15 O18 1.483597 1_555
O16 O25 1.483597 1_555
O17 O35 1.483597 1_555
O19 O4 1.483597 1_555
O20 O36 1.483597 1_555
O21 O40 1.483597 1_555
O22 O38 1.483597 1_555
O23 O3 1.483597 1_555
O27 O43 1.483597 1_555
O28 O6 1.485027 1_555
O29 O9 1.485027 1_555
O30 O5 1.485027 1_555
O31 O47 1.485027 1_555
O32 O45 1.483597 1_555
O33 O34 1.485027 1_555
O37 O41 1.483597 1_555
O46 O7 1.485027 1_555
