# generated using pymatgen
data_BaCO3
_symmetry_space_group_name_H-M   'P 1'
_cell_length_a   5.51293856
_cell_length_b   5.51293856
_cell_length_c   5.69080200
_cell_angle_alpha   90.00000000
_cell_angle_beta   90.00000000
_cell_angle_gamma   120.00000668
_symmetry_Int_Tables_number   1
_chemical_formula_structural   BaCO3
_chemical_formula_sum   'Ba2 C2 O6'
_cell_volume   149.78570996
_cell_formula_units_Z   2
loop_
 _symmetry_equiv_pos_site_id
 _symmetry_equiv_pos_as_xyz
  1  'x, y, z'
loop_
 _atom_site_type_symbol
 _atom_site_label
 _atom_site_symmetry_multiplicity
 _atom_site_fract_x
 _atom_site_fract_y
 _atom_site_fract_z
 _atom_site_occupancy
  Ba  Ba0  1  0.66666700  0.33333300  0.25000000  1
  Ba  Ba1  1  0.33333300  0.66666700  0.75000000  1
  C  C0  1  0.00000000  0.00000000  0.25000000  1
  C  C1  1  0.00000000  0.00000000  0.75000000  1
  O  O0  1  0.72637200  0.86318600  0.25000000  1
  O  O1  1  0.13681400  0.86318600  0.25000000  1
  O  O2  1  0.86318600  0.13681400  0.75000000  1
  O  O3  1  0.86318600  0.72637200  0.75000000  1
  O  O4  1  0.27362800  0.13681400  0.75000000  1
  O  O5  1  0.13681400  0.27362800  0.25000000  1
loop_
_geom_bond_atom_site_label_1
_geom_bond_atom_site_label_2
_geom_bond_distance
_geom_bond_site_symmetry_2
Ba0 O0 2.771166 1_545
Ba0 O5 2.771166 1_655
Ba0 O1 2.771169 1_655
Ba0 O1 2.771169 1_545
Ba0 O5 2.771172 1_555
Ba0 O0 2.771172 1_555
Ba1 O3 2.771166 1_455
Ba1 O4 2.771166 1_565
Ba1 O2 2.771169 1_455
Ba1 O2 2.771169 1_565
Ba1 O3 2.771172 1_555
Ba1 O4 2.771172 1_555
C0 O5 1.306394 1_555
C0 O0 1.306394 1_445
C0 O1 1.306394 1_545
C1 O3 1.306394 1_445
C1 O4 1.306394 1_555
C1 O2 1.306394 1_455
