# generated using pymatgen
data_Mg3(BO3)2
_symmetry_space_group_name_H-M   'P 1'
_cell_length_a   4.49729460
_cell_length_b   5.38277231
_cell_length_c   8.40457550
_cell_angle_alpha   90.00000000
_cell_angle_beta   90.00000000
_cell_angle_gamma   90.00000000
_symmetry_Int_Tables_number   1
_chemical_formula_structural   Mg3(BO3)2
_chemical_formula_sum   'Mg6 B4 O12'
_cell_volume   203.45723118
_cell_formula_units_Z   2
loop_
 _symmetry_equiv_pos_site_id
 _symmetry_equiv_pos_as_xyz
  1  'x, y, z'
loop_
 _atom_site_type_symbol
 _atom_site_label
 _atom_site_symmetry_multiplicity
 _atom_site_fract_x
 _atom_site_fract_y
 _atom_site_fract_z
 _atom_site_occupancy
  Mg  Mg0  1  0.00000000  0.50000000  0.81333823  1
  Mg  Mg1  1  0.50000000  -0.00000000  0.68666177  1
  Mg  Mg2  1  0.00000000  0.50000000  0.18666177  1
  Mg  Mg3  1  0.50000000  -0.00000000  0.31333823  1
  Mg  Mg4  1  0.50000000  0.50000000  0.50000000  1
  Mg  Mg5  1  0.00000000  -0.00000000  -0.00000000  1
  B  B0  1  0.04592773  0.24395016  0.50000000  1
  B  B1  1  0.45407227  0.74395016  -0.00000000  1
  B  B2  1  0.95407227  0.75604984  0.50000000  1
  B  B3  1  0.54592773  0.25604984  -0.00000000  1
  O  O0  1  0.29806518  0.79566870  0.13935481  1
  O  O1  1  0.79806518  0.70433130  0.36064519  1
  O  O2  1  0.29806518  0.79566870  0.86064519  1
  O  O3  1  0.70193482  0.20433130  0.86064519  1
  O  O4  1  0.79806518  0.70433130  0.63935481  1
  O  O5  1  0.20193482  0.29566870  0.63935481  1
  O  O6  1  0.25032923  0.32164964  -0.00000000  1
  O  O7  1  0.75032923  0.17835036  0.50000000  1
  O  O8  1  0.24967077  0.82164964  0.50000000  1
  O  O9  1  0.74967077  0.67835036  -0.00000000  1
  O  O10  1  0.70193482  0.20433130  0.13935481  1
  O  O11  1  0.20193482  0.29566870  0.36064519  1
loop_
_geom_bond_atom_site_label_1
_geom_bond_atom_site_label_2
_geom_bond_distance
_geom_bond_site_symmetry_2
Mg0 O4 2.042709 1_455
Mg0 O5 2.042709 1_555
Mg0 O2 2.118470 1_555
Mg0 O3 2.118470 1_455
Mg0 O9 2.156443 1_456
Mg0 O6 2.156443 1_556
Mg1 O3 2.042709 1_555
Mg1 O2 2.042709 1_545
Mg1 O5 2.118470 1_555
Mg1 O4 2.118470 1_545
Mg1 O8 2.156443 1_545
Mg1 O7 2.156443 1_555
Mg2 O1 2.042709 1_455
Mg2 O11 2.042709 1_555
Mg2 O0 2.118470 1_555
Mg2 O10 2.118470 1_455
Mg2 O9 2.156443 1_455
Mg2 O6 2.156443 1_555
Mg3 O10 2.042709 1_555
Mg3 O0 2.042709 1_545
Mg3 O11 2.118470 1_555
Mg3 O1 2.118470 1_545
Mg3 O8 2.156443 1_545
Mg3 O7 2.156443 1_555
Mg4 O8 2.065204 1_555
Mg4 O7 2.065204 1_555
Mg4 O11 2.092455 1_555
Mg4 O1 2.092455 1_555
Mg4 O4 2.092455 1_555
Mg4 O5 2.092455 1_555
Mg5 O9 2.065204 1_445
Mg5 O6 2.065204 1_555
Mg5 O3 2.092455 1_454
Mg5 O2 2.092455 1_544
Mg5 O0 2.092455 1_545
Mg5 O10 2.092455 1_455
B0 O7 1.375490 1_455
B0 O11 1.393380 1_555
B0 O5 1.393380 1_555
B1 O9 1.375490 1_555
B1 O2 1.393380 1_554
B1 O0 1.393380 1_555
B2 O8 1.375490 1_655
B2 O1 1.393380 1_555
B2 O4 1.393380 1_555
B3 O6 1.375490 1_555
B3 O3 1.393380 1_554
B3 O10 1.393380 1_555
