# generated using pymatgen
data_Ba2CrO4
_symmetry_space_group_name_H-M   'P 1'
_cell_length_a   6.01695600
_cell_length_b   7.73225100
_cell_length_c   10.72422600
_cell_angle_alpha   90.00000000
_cell_angle_beta   90.00000000
_cell_angle_gamma   90.00000000
_symmetry_Int_Tables_number   1
_chemical_formula_structural   Ba2CrO4
_chemical_formula_sum   'Ba8 Cr4 O16'
_cell_volume   498.94047561
_cell_formula_units_Z   4
loop_
 _symmetry_equiv_pos_site_id
 _symmetry_equiv_pos_as_xyz
  1  'x, y, z'
loop_
 _atom_site_type_symbol
 _atom_site_label
 _atom_site_symmetry_multiplicity
 _atom_site_fract_x
 _atom_site_fract_y
 _atom_site_fract_z
 _atom_site_occupancy
  Ba  Ba0  1  0.24328000  0.99734700  0.19596900  1
  Ba  Ba1  1  0.74328000  0.00265300  0.80403100  1
  Ba  Ba2  1  0.74328000  0.50265300  0.69596900  1
  Ba  Ba3  1  0.24328000  0.49734700  0.30403100  1
  Ba  Ba4  1  0.23869300  0.65107600  0.93063000  1
  Ba  Ba5  1  0.73869300  0.34892400  0.06937000  1
  Ba  Ba6  1  0.23869300  0.15107600  0.56937000  1
  Ba  Ba7  1  0.73869300  0.84892400  0.43063000  1
  Cr  Cr0  1  0.23775900  0.21782100  0.92061000  1
  Cr  Cr1  1  0.73775900  0.78217900  0.07939000  1
  Cr  Cr2  1  0.23775900  0.71782100  0.57939000  1
  Cr  Cr3  1  0.73775900  0.28217900  0.42061000  1
  O  O0  1  0.48397600  0.80154200  0.65215600  1
  O  O1  1  0.98397600  0.69845800  0.15215600  1
  O  O2  1  0.48397600  0.30154200  0.84784400  1
  O  O3  1  0.98397600  0.19845800  0.34784400  1
  O  O4  1  0.49159600  0.18914400  0.35310700  1
  O  O5  1  0.99159600  0.81085600  0.64689300  1
  O  O6  1  0.49159600  0.68914400  0.14689300  1
  O  O7  1  0.99159600  0.31085600  0.85310700  1
  O  O8  1  0.72193600  0.51199500  0.42323500  1
  O  O9  1  0.22193600  0.98800500  0.92323500  1
  O  O10  1  0.22193600  0.48800500  0.57676500  1
  O  O11  1  0.72193600  0.01199500  0.07676500  1
  O  O12  1  0.74096000  0.68574900  0.92347100  1
  O  O13  1  0.24096000  0.31425100  0.07652900  1
  O  O14  1  0.24096000  0.81425100  0.42347100  1
  O  O15  1  0.74096000  0.18574900  0.57652900  1
loop_
_geom_bond_atom_site_label_1
_geom_bond_atom_site_label_2
_geom_bond_distance
_geom_bond_site_symmetry_2
Ba0 O4 2.696582 1_565
Ba0 O3 2.739569 1_465
Ba0 O13 2.765009 1_565
Ba0 O14 2.820827 1_555
Ba0 O1 2.827750 1_455
Ba0 O6 2.861560 1_555
Ba0 O9 2.928570 1_554
Ba0 O11 3.153056 1_565
Ba0 O11 3.389281 1_465
Ba1 O5 2.696582 1_545
Ba1 O0 2.739569 1_545
Ba1 O12 2.765009 1_545
Ba1 O15 2.820827 1_555
Ba1 O2 2.827750 1_555
Ba1 O7 2.861560 1_555
Ba1 O11 2.928570 1_556
Ba1 O9 3.153056 1_645
Ba1 O9 3.389281 1_545
Ba2 O7 2.696582 1_555
Ba2 O2 2.739569 1_555
Ba2 O15 2.765009 1_555
Ba2 O12 2.820827 1_555
Ba2 O0 2.827750 1_555
Ba2 O5 2.861560 1_555
Ba2 O8 2.928570 1_555
Ba2 O10 3.153056 1_655
Ba2 O10 3.389281 1_555
Ba3 O6 2.696582 1_555
Ba3 O1 2.739569 1_455
Ba3 O14 2.765009 1_555
Ba3 O13 2.820827 1_555
Ba3 O3 2.827750 1_455
Ba3 O4 2.861560 1_555
Ba3 O10 2.928570 1_555
Ba3 O8 3.153056 1_555
Ba3 O8 3.389281 1_455
Ba4 O9 2.608376 1_555
Ba4 O6 2.789475 1_556
Ba4 O1 2.850803 1_456
Ba4 O12 3.007794 1_455
Ba4 O12 3.034958 1_555
Ba4 O13 3.038307 1_556
Ba4 O7 3.134020 1_455
Ba4 O2 3.204821 1_555
Ba5 O11 2.608376 1_555
Ba5 O7 2.789475 1_554
Ba5 O2 2.850803 1_554
Ba5 O13 3.007794 1_555
Ba5 O13 3.034958 1_655
Ba5 O12 3.038307 1_554
Ba5 O6 3.134020 1_555
Ba5 O1 3.204821 1_555
Ba6 O10 2.608376 1_555
Ba6 O4 2.789475 1_555
Ba6 O3 2.850803 1_455
Ba6 O15 3.007794 1_455
Ba6 O15 3.034958 1_555
Ba6 O14 3.038307 1_545
Ba6 O5 3.134020 1_445
Ba6 O0 3.204821 1_545
Ba7 O8 2.608376 1_555
Ba7 O5 2.789475 1_555
Ba7 O0 2.850803 1_555
Ba7 O14 3.007794 1_555
Ba7 O14 3.034958 1_655
Ba7 O15 3.038307 1_565
Ba7 O4 3.134020 1_565
Ba7 O3 3.204821 1_565
Cr0 O9 1.779766 1_545
Cr0 O2 1.795215 1_555
Cr0 O7 1.798711 1_455
Cr0 O13 1.830922 1_556
Cr1 O11 1.779766 1_565
Cr1 O1 1.795215 1_555
Cr1 O6 1.798711 1_555
Cr1 O12 1.830922 1_554
Cr2 O10 1.779766 1_555
Cr2 O0 1.795215 1_555
Cr2 O5 1.798711 1_455
Cr2 O14 1.830922 1_555
Cr3 O8 1.779766 1_555
Cr3 O3 1.795215 1_555
Cr3 O4 1.798711 1_555
Cr3 O15 1.830922 1_555
