# generated using pymatgen
data_CsInS2
_symmetry_space_group_name_H-M   'P 1'
_cell_length_a   7.98597406
_cell_length_b   7.98597406
_cell_length_c   16.50064101
_cell_angle_alpha   83.03538476
_cell_angle_beta   83.03538476
_cell_angle_gamma   90.01002312
_symmetry_Int_Tables_number   1
_chemical_formula_structural   CsInS2
_chemical_formula_sum   'Cs8 In8 S16'
_cell_volume   1036.75038411
_cell_formula_units_Z   8
loop_
 _symmetry_equiv_pos_site_id
 _symmetry_equiv_pos_as_xyz
  1  'x, y, z'
loop_
 _atom_site_type_symbol
 _atom_site_label
 _atom_site_symmetry_multiplicity
 _atom_site_fract_x
 _atom_site_fract_y
 _atom_site_fract_z
 _atom_site_occupancy
  Cs  Cs0  1  0.72320179  0.34835870  0.10778883  1
  Cs  Cs1  1  0.72422527  0.84753671  0.10725888  1
  Cs  Cs2  1  0.27577473  0.15246329  0.89274112  1
  Cs  Cs3  1  0.15246329  0.27577473  0.39274112  1
  Cs  Cs4  1  0.65164130  0.27679821  0.39221117  1
  Cs  Cs5  1  0.27679821  0.65164130  0.89221117  1
  Cs  Cs6  1  0.34835870  0.72320179  0.60778883  1
  Cs  Cs7  1  0.84753671  0.72422527  0.60725888  1
  In  In0  1  0.20876601  0.08128413  0.16510541  1
  In  In1  1  0.79140214  0.41421230  0.83459068  1
  In  In2  1  0.91871587  0.79123399  0.33489459  1
  In  In3  1  0.58578770  0.20859786  0.66540932  1
  In  In4  1  0.79123399  0.91871587  0.83489459  1
  In  In5  1  0.08128413  0.20876601  0.66510541  1
  In  In6  1  0.41421230  0.79140214  0.33459068  1
  In  In7  1  0.20859786  0.58578770  0.16540932  1
  S  S0  1  0.93143644  0.06856356  0.25000000  1
  S  S1  1  0.23071302  0.85638264  0.07286162  1
  S  S2  1  0.14361736  0.76928698  0.42713838  1
  S  S3  1  0.06848847  0.44445852  0.74947180  1
  S  S4  1  0.85638264  0.23071302  0.57286162  1
  S  S5  1  0.23124725  0.35641103  0.07511015  1
  S  S6  1  0.76928698  0.14361736  0.92713838  1
  S  S7  1  0.76875275  0.64358897  0.92488985  1
  S  S8  1  0.55613214  0.44386786  0.75000000  1
  S  S9  1  0.35641103  0.23124725  0.57511015  1
  S  S10  1  0.44445852  0.06848847  0.24947180  1
  S  S11  1  0.55554148  0.93151153  0.75052820  1
  S  S12  1  0.06856356  0.93143644  0.75000000  1
  S  S13  1  0.44386786  0.55613214  0.25000000  1
  S  S14  1  0.93151153  0.55554148  0.25052820  1
  S  S15  1  0.64358897  0.76875275  0.42488985  1
loop_
_geom_bond_atom_site_label_1
_geom_bond_atom_site_label_2
_geom_bond_distance
_geom_bond_site_symmetry_2
Cs0 S6 3.551121 1_554
Cs0 S7 3.578685 1_554
Cs0 S10 3.589599 1_555
Cs0 S13 3.593320 1_555
Cs0 S0 3.597309 1_555
Cs0 S14 3.598149 1_555
Cs0 S5 4.027036 1_655
Cs0 S5 4.029304 1_555
Cs1 S6 3.548209 1_564
Cs1 S7 3.572645 1_554
Cs1 S10 3.653196 1_565
Cs1 S0 3.654295 1_565
Cs1 S13 3.655955 1_555
Cs1 S14 3.657878 1_555
Cs1 S1 4.015091 1_655
Cs1 S1 4.048809 1_555
Cs2 S1 3.548209 1_546
Cs2 S5 3.572645 1_556
Cs2 S11 3.653196 1_545
Cs2 S12 3.654295 1_545
Cs2 S8 3.655955 1_555
Cs2 S3 3.657878 1_555
Cs2 S6 4.015091 1_455
Cs2 S6 4.048809 1_555
Cs3 S4 3.548209 1_455
Cs3 S9 3.572645 1_555
Cs3 S14 3.653196 1_455
Cs3 S0 3.654295 1_455
Cs3 S13 3.655955 1_555
Cs3 S10 3.657878 1_555
Cs3 S2 4.015091 1_545
Cs3 S2 4.048809 1_555
Cs4 S4 3.551121 1_555
Cs4 S9 3.578685 1_555
Cs4 S14 3.589599 1_555
Cs4 S13 3.593320 1_555
Cs4 S0 3.597309 1_555
Cs4 S10 3.598149 1_555
Cs4 S15 4.027036 1_545
Cs4 S15 4.029304 1_555
Cs5 S1 3.551121 1_556
Cs5 S5 3.578685 1_556
Cs5 S11 3.589599 1_555
Cs5 S8 3.593320 1_555
Cs5 S12 3.597309 1_555
Cs5 S3 3.598149 1_555
Cs5 S7 4.027036 1_455
Cs5 S7 4.029304 1_555
Cs6 S2 3.551121 1_555
Cs6 S15 3.578685 1_555
Cs6 S3 3.589599 1_555
Cs6 S8 3.593320 1_555
Cs6 S12 3.597309 1_555
Cs6 S11 3.598149 1_555
Cs6 S9 4.027036 1_565
Cs6 S9 4.029304 1_555
Cs7 S2 3.548209 1_655
Cs7 S15 3.572645 1_555
Cs7 S3 3.653196 1_655
Cs7 S12 3.654295 1_655
Cs7 S8 3.655955 1_555
Cs7 S11 3.657878 1_555
Cs7 S4 4.015091 1_565
Cs7 S4 4.048809 1_555
In0 S0 2.467941 1_455
In0 S10 2.468239 1_555
In0 S1 2.484282 1_545
In0 S5 2.491755 1_555
In1 S8 2.467883 1_555
In1 S3 2.468064 1_655
In1 S6 2.483375 1_555
In1 S7 2.490972 1_555
In2 S0 2.467941 1_565
In2 S14 2.468239 1_555
In2 S2 2.484282 1_655
In2 S15 2.491755 1_555
In3 S8 2.467883 1_555
In3 S11 2.468064 1_545
In3 S4 2.483375 1_555
In3 S9 2.490972 1_555
In4 S12 2.467941 1_655
In4 S11 2.468239 1_555
In4 S6 2.484282 1_565
In4 S7 2.491755 1_555
In5 S12 2.467941 1_545
In5 S3 2.468239 1_555
In5 S4 2.484282 1_455
In5 S9 2.491755 1_555
In6 S13 2.467883 1_555
In6 S10 2.468064 1_565
In6 S2 2.483375 1_555
In6 S15 2.490972 1_555
In7 S13 2.467883 1_555
In7 S14 2.468064 1_455
In7 S1 2.483375 1_555
In7 S5 2.490972 1_555
