# generated using pymatgen
data_HgCN2
_symmetry_space_group_name_H-M   'P 1'
_cell_length_a   7.12657100
_cell_length_b   5.57972900
_cell_length_c   7.27617164
_cell_angle_alpha   66.88525061
_cell_angle_beta   90.00000000
_cell_angle_gamma   90.00000000
_symmetry_Int_Tables_number   1
_chemical_formula_structural   HgCN2
_chemical_formula_sum   'Hg4 C4 N8'
_cell_volume   266.10467864
_cell_formula_units_Z   4
loop_
 _symmetry_equiv_pos_site_id
 _symmetry_equiv_pos_as_xyz
  1  'x, y, z'
loop_
 _atom_site_type_symbol
 _atom_site_label
 _atom_site_symmetry_multiplicity
 _atom_site_fract_x
 _atom_site_fract_y
 _atom_site_fract_z
 _atom_site_occupancy
  Hg  Hg0  1  0.87484700  0.99215200  0.25598800  1
  Hg  Hg1  1  0.12515300  0.00784800  0.74401200  1
  Hg  Hg2  1  0.37484700  0.00784800  0.24401200  1
  Hg  Hg3  1  0.62515300  0.99215200  0.75598800  1
  C  C0  1  0.37297800  0.57097500  0.76959400  1
  C  C1  1  0.12702200  0.57097500  0.26959400  1
  C  C2  1  0.62702200  0.42902500  0.23040600  1
  C  C3  1  0.87297800  0.42902500  0.73040600  1
  N  N0  1  0.62675000  0.17889600  0.28737500  1
  N  N1  1  0.87488000  0.65971300  0.68364000  1
  N  N2  1  0.37488000  0.34028700  0.81636000  1
  N  N3  1  0.37325000  0.82110400  0.71262500  1
  N  N4  1  0.12512000  0.34028700  0.31636000  1
  N  N5  1  0.87325000  0.17889600  0.78737500  1
  N  N6  1  0.12675000  0.82110400  0.21262500  1
  N  N7  1  0.62512000  0.65971300  0.18364000  1
loop_
_geom_bond_atom_site_label_1
_geom_bond_atom_site_label_2
_geom_bond_distance
_geom_bond_site_symmetry_2
Hg0 N0 2.109699 1_565
Hg0 N6 2.114148 1_655
Hg1 N3 2.109699 1_545
Hg1 N5 2.114148 1_455
Hg2 N6 2.109699 1_545
Hg2 N0 2.114148 1_555
Hg3 N5 2.109699 1_565
Hg3 N3 2.114148 1_555
C0 N2 1.195367 1_555
C0 N3 1.290522 1_555
C1 N4 1.195367 1_555
C1 N6 1.290522 1_555
C2 N7 1.195367 1_555
C2 N0 1.290522 1_555
C3 N1 1.195367 1_555
C3 N5 1.290522 1_555
