# generated using pymatgen
data_V2Cu2O7
_symmetry_space_group_name_H-M   'P 1'
_cell_length_a   5.54139874
_cell_length_b   5.54139874
_cell_length_c   10.12823275
_cell_angle_alpha   76.42006354
_cell_angle_beta   76.42006354
_cell_angle_gamma   91.85150406
_symmetry_Int_Tables_number   1
_chemical_formula_structural   V2Cu2O7
_chemical_formula_sum   'V4 Cu4 O14'
_cell_volume   292.60111298
_cell_formula_units_Z   2
loop_
 _symmetry_equiv_pos_site_id
 _symmetry_equiv_pos_as_xyz
  1  'x, y, z'
loop_
 _atom_site_type_symbol
 _atom_site_label
 _atom_site_symmetry_multiplicity
 _atom_site_fract_x
 _atom_site_fract_y
 _atom_site_fract_z
 _atom_site_occupancy
  V  V0  1  0.44375771  0.00199074  0.71350062  1
  V  V1  1  0.99800926  0.55624229  0.78649938  1
  V  V2  1  0.55624229  0.99800926  0.28649938  1
  V  V3  1  0.00199074  0.44375771  0.21350062  1
  Cu  Cu0  1  0.23954237  0.38593103  0.48494144  1
  Cu  Cu1  1  0.61406897  0.76045763  0.01505856  1
  Cu  Cu2  1  0.76045763  0.61406897  0.51505856  1
  Cu  Cu3  1  0.38593103  0.23954237  0.98494144  1
  O  O0  1  0.86920164  0.13079836  0.25000000  1
  O  O1  1  0.13079836  0.86920164  0.75000000  1
  O  O2  1  0.36708724  0.17899499  0.36430849  1
  O  O3  1  0.82100501  0.63291276  0.13569151  1
  O  O4  1  0.63291276  0.82100501  0.63569151  1
  O  O5  1  0.17899499  0.36708724  0.86430849  1
  O  O6  1  0.46756464  0.28915086  0.60174763  1
  O  O7  1  0.71084914  0.53243536  0.89825237  1
  O  O8  1  0.53243536  0.71084914  0.39825237  1
  O  O9  1  0.28915086  0.46756464  0.10174763  1
  O  O10  1  0.48320659  0.98821539  0.12807442  1
  O  O11  1  0.01178461  0.51679341  0.37192558  1
  O  O12  1  0.51679341  0.01178461  0.87192558  1
  O  O13  1  0.98821539  0.48320659  0.62807442  1
loop_
_geom_bond_atom_site_label_1
_geom_bond_atom_site_label_2
_geom_bond_distance
_geom_bond_site_symmetry_2
Cu0 O2 1.900545 1_555
Cu0 O6 1.931739 1_555
Cu0 O11 1.943382 1_555
Cu0 O13 1.949136 1_455
Cu0 O8 2.246450 1_555
Cu1 O3 1.900545 1_555
Cu1 O7 1.931739 1_554
Cu1 O10 1.943382 1_555
Cu1 O12 1.949136 1_564
Cu1 O9 2.246450 1_555
Cu2 O4 1.900545 1_555
Cu2 O8 1.931739 1_555
Cu2 O13 1.943382 1_555
Cu2 O11 1.949136 1_655
Cu2 O6 2.246450 1_555
Cu3 O5 1.900545 1_555
Cu3 O9 1.931739 1_556
Cu3 O12 1.943382 1_555
Cu3 O10 1.949136 1_546
Cu3 O7 2.246450 1_555
O0 V2 1.781688 1_545
O0 V3 1.781688 1_655
O1 V1 1.781688 1_455
O1 V0 1.781688 1_565
O2 V2 1.666359 1_545
O3 V3 1.666359 1_655
O4 V0 1.666359 1_565
O5 V1 1.666359 1_455
O6 V0 1.703280 1_555
O7 V1 1.703280 1_555
O8 V2 1.703280 1_555
O9 V3 1.703280 1_555
O10 V2 1.756647 1_555
O11 V3 1.756647 1_555
O12 V0 1.756647 1_555
O13 V1 1.756647 1_555
