# generated using pymatgen
data_KAg3As2S5
_symmetry_space_group_name_H-M   'P 1'
_cell_length_a   6.44178700
_cell_length_b   17.04206400
_cell_length_c   19.72046800
_cell_angle_alpha   90.00000000
_cell_angle_beta   90.00000000
_cell_angle_gamma   90.00000000
_symmetry_Int_Tables_number   1
_chemical_formula_structural   KAg3As2S5
_chemical_formula_sum   'K8 Ag24 As16 S40'
_cell_volume   2164.93952727
_cell_formula_units_Z   8
loop_
 _symmetry_equiv_pos_site_id
 _symmetry_equiv_pos_as_xyz
  1  'x, y, z'
loop_
 _atom_site_type_symbol
 _atom_site_label
 _atom_site_symmetry_multiplicity
 _atom_site_fract_x
 _atom_site_fract_y
 _atom_site_fract_z
 _atom_site_occupancy
  K  K0  1  0.90973100  0.62397500  0.47888900  1
  K  K1  1  0.40973100  0.12397500  0.02111100  1
  K  K2  1  0.09026900  0.37602500  0.52111100  1
  K  K3  1  0.09026900  0.12397500  0.52111100  1
  K  K4  1  0.59026900  0.62397500  0.97888900  1
  K  K5  1  0.40973100  0.37602500  0.02111100  1
  K  K6  1  0.59026900  0.87602500  0.97888900  1
  K  K7  1  0.90973100  0.87602500  0.47888900  1
  Ag  Ag0  1  0.09629100  0.12600400  0.31465000  1
  Ag  Ag1  1  0.90931700  0.97615100  0.26537800  1
  Ag  Ag2  1  0.09068300  0.47615100  0.73462200  1
  Ag  Ag3  1  0.90931700  0.52384900  0.26537800  1
  Ag  Ag4  1  0.40931700  0.02384900  0.23462200  1
  Ag  Ag5  1  0.90370900  0.62600400  0.68535000  1
  Ag  Ag6  1  0.59068300  0.97615100  0.76537800  1
  Ag  Ag7  1  0.09629100  0.37399600  0.31465000  1
  Ag  Ag8  1  0.83978500  0.36815900  0.14063500  1
  Ag  Ag9  1  0.90370900  0.87399600  0.68535000  1
  Ag  Ag10  1  0.09068300  0.02384900  0.73462200  1
  Ag  Ag11  1  0.16021500  0.86815900  0.85936500  1
  Ag  Ag12  1  0.59068300  0.52384900  0.76537800  1
  Ag  Ag13  1  0.59629100  0.62600400  0.18535000  1
  Ag  Ag14  1  0.59629100  0.87399600  0.18535000  1
  Ag  Ag15  1  0.16021500  0.63184100  0.85936500  1
  Ag  Ag16  1  0.33978500  0.63184100  0.35936500  1
  Ag  Ag17  1  0.40370900  0.12600400  0.81465000  1
  Ag  Ag18  1  0.33978500  0.86815900  0.35936500  1
  Ag  Ag19  1  0.66021500  0.13184100  0.64063500  1
  Ag  Ag20  1  0.83978500  0.13184100  0.14063500  1
  Ag  Ag21  1  0.40370900  0.37399600  0.81465000  1
  Ag  Ag22  1  0.40931700  0.47615100  0.23462200  1
  Ag  Ag23  1  0.66021500  0.36815900  0.64063500  1
  As  As0  1  0.59565400  0.75000000  0.78734100  1
  As  As1  1  0.40693100  0.53914700  0.58900500  1
  As  As2  1  0.90434600  0.75000000  0.28734100  1
  As  As3  1  0.59306900  0.46085300  0.41099500  1
  As  As4  1  0.59306900  0.03914700  0.41099500  1
  As  As5  1  0.49097500  0.75000000  0.60903300  1
  As  As6  1  0.40693100  0.96085300  0.58900500  1
  As  As7  1  0.90693100  0.46085300  0.91099500  1
  As  As8  1  0.99097500  0.25000000  0.89096700  1
  As  As9  1  0.90693100  0.03914700  0.91099500  1
  As  As10  1  0.09565400  0.25000000  0.71265900  1
  As  As11  1  0.09306900  0.96085300  0.08900500  1
  As  As12  1  0.50902500  0.25000000  0.39096700  1
  As  As13  1  0.40434600  0.25000000  0.21265900  1
  As  As14  1  0.09306900  0.53914700  0.08900500  1
  As  As15  1  0.00902500  0.75000000  0.10903300  1
  S  S0  1  0.74634800  0.99163400  0.60623200  1
  S  S1  1  0.18844000  0.90982700  0.19129700  1
  S  S2  1  0.31156000  0.90982700  0.69129700  1
  S  S3  1  0.38076800  0.75000000  0.87938600  1
  S  S4  1  0.74634800  0.50836600  0.60623200  1
  S  S5  1  0.65851900  0.75000000  0.11111700  1
  S  S6  1  0.61923200  0.25000000  0.12061400  1
  S  S7  1  0.81156000  0.09017300  0.80870300  1
  S  S8  1  0.07581200  0.84554100  0.02596200  1
  S  S9  1  0.81156000  0.40982700  0.80870300  1
  S  S10  1  0.92418800  0.34554100  0.97403800  1
  S  S11  1  0.42418800  0.84554100  0.52596200  1
  S  S12  1  0.68844000  0.09017300  0.30870300  1
  S  S13  1  0.11923200  0.75000000  0.37938600  1
  S  S14  1  0.79512200  0.64325600  0.81395900  1
  S  S15  1  0.31156000  0.59017300  0.69129700  1
  S  S16  1  0.20487800  0.14325600  0.18604100  1
  S  S17  1  0.88076800  0.25000000  0.62061400  1
  S  S18  1  0.25365200  0.00836600  0.39376800  1
  S  S19  1  0.70487800  0.64325600  0.31395900  1
  S  S20  1  0.34148100  0.25000000  0.88888300  1
  S  S21  1  0.57581200  0.15445900  0.47403800  1
  S  S22  1  0.84148100  0.75000000  0.61111700  1
  S  S23  1  0.68844000  0.40982700  0.30870300  1
  S  S24  1  0.07581200  0.65445900  0.02596200  1
  S  S25  1  0.25365200  0.49163400  0.39376800  1
  S  S26  1  0.24634800  0.00836600  0.89376800  1
  S  S27  1  0.24634800  0.49163400  0.89376800  1
  S  S28  1  0.18844000  0.59017300  0.19129700  1
  S  S29  1  0.15851900  0.25000000  0.38888300  1
  S  S30  1  0.29512200  0.35674400  0.68604100  1
  S  S31  1  0.57581200  0.34554100  0.47403800  1
  S  S32  1  0.70487800  0.85674400  0.31395900  1
  S  S33  1  0.75365200  0.50836600  0.10623200  1
  S  S34  1  0.29512200  0.14325600  0.68604100  1
  S  S35  1  0.42418800  0.65445900  0.52596200  1
  S  S36  1  0.92418800  0.15445900  0.97403800  1
  S  S37  1  0.79512200  0.85674400  0.81395900  1
  S  S38  1  0.20487800  0.35674400  0.18604100  1
  S  S39  1  0.75365200  0.99163400  0.10623200  1
loop_
_geom_bond_atom_site_label_1
_geom_bond_atom_site_label_2
_geom_bond_distance
_geom_bond_site_symmetry_2
K0 S13 3.206938 1_655
K0 S35 3.303717 1_555
K0 S4 3.360938 1_555
K0 S22 3.406698 1_555
K0 S35 3.480572 1_655
K0 S19 3.525351 1_555
K0 S25 3.579489 1_655
K1 S6 3.206938 1_555
K1 S36 3.303717 1_454
K1 S26 3.360938 1_554
K1 S20 3.406698 1_554
K1 S36 3.480572 1_554
K1 S16 3.525351 1_555
K1 S39 3.579489 1_545
K2 S17 3.206938 1_455
K2 S31 3.303717 1_555
K2 S25 3.360938 1_555
K2 S29 3.406698 1_555
K2 S31 3.480572 1_455
K2 S30 3.525351 1_555
K2 S4 3.579489 1_455
K3 S17 3.206938 1_455
K3 S21 3.303717 1_555
K3 S18 3.360938 1_555
K3 S29 3.406698 1_555
K3 S21 3.480572 1_455
K3 S34 3.525351 1_555
K3 S0 3.579489 1_445
K4 S3 3.206938 1_555
K4 S24 3.303717 1_656
K4 S33 3.360938 1_556
K4 S5 3.406698 1_556
K4 S24 3.480572 1_556
K4 S14 3.525351 1_555
K4 S27 3.579489 1_555
K5 S6 3.206938 1_555
K5 S10 3.303717 1_454
K5 S27 3.360938 1_554
K5 S20 3.406698 1_554
K5 S10 3.480572 1_554
K5 S38 3.525351 1_555
K5 S33 3.579489 1_555
K6 S3 3.206938 1_555
K6 S8 3.303717 1_656
K6 S39 3.360938 1_556
K6 S5 3.406698 1_556
K6 S8 3.480572 1_556
K6 S37 3.525351 1_555
K6 S26 3.579489 1_565
K7 S13 3.206938 1_655
K7 S11 3.303717 1_555
K7 S0 3.360938 1_555
K7 S22 3.406698 1_555
K7 S11 3.480572 1_655
K7 S32 3.525351 1_555
K7 S18 3.579489 1_665
Ag0 S29 2.601752 1_555
Ag0 S16 2.647300 1_555
Ag0 S12 2.699866 1_455
Ag0 S18 2.735164 1_555
Ag1 S12 2.555459 1_565
Ag1 S1 2.577756 1_655
Ag1 S32 2.606375 1_555
Ag2 S15 2.555459 1_555
Ag2 S9 2.577756 1_455
Ag2 S30 2.606375 1_555
Ag3 S23 2.555459 1_555
Ag3 S28 2.577756 1_655
Ag3 S19 2.606375 1_555
Ag4 S1 2.555459 1_545
Ag4 S12 2.577756 1_555
Ag4 S16 2.606375 1_555
Ag5 S22 2.601752 1_555
Ag5 S14 2.647300 1_555
Ag5 S15 2.699866 1_655
Ag5 S4 2.735164 1_555
Ag6 S7 2.555459 1_565
Ag6 S2 2.577756 1_555
Ag6 S37 2.606375 1_555
Ag7 S29 2.601752 1_555
Ag7 S38 2.647300 1_555
Ag7 S23 2.699866 1_455
Ag7 S25 2.735164 1_555
Ag8 S6 2.495859 1_555
Ag8 S38 2.524052 1_655
Ag8 S33 2.545085 1_555
Ag9 S22 2.601752 1_555
Ag9 S37 2.647300 1_555
Ag9 S2 2.699866 1_655
Ag9 S0 2.735164 1_555
Ag10 S2 2.555459 1_545
Ag10 S7 2.577756 1_455
Ag10 S34 2.606375 1_555
Ag11 S3 2.495859 1_555
Ag11 S37 2.524052 1_455
Ag11 S26 2.545085 1_565
Ag12 S9 2.555459 1_555
Ag12 S15 2.577756 1_555
Ag12 S14 2.606375 1_555
Ag13 S5 2.601752 1_555
Ag13 S19 2.647300 1_555
Ag13 S28 2.699866 1_555
Ag13 S33 2.735164 1_555
Ag14 S5 2.601752 1_555
Ag14 S32 2.647300 1_555
Ag14 S1 2.699866 1_555
Ag14 S39 2.735164 1_555
Ag15 S3 2.495859 1_555
Ag15 S14 2.524052 1_455
Ag15 S27 2.545085 1_555
Ag16 S13 2.495859 1_555
Ag16 S19 2.524052 1_555
Ag16 S25 2.545085 1_555
Ag17 S20 2.601752 1_555
Ag17 S34 2.647300 1_555
Ag17 S7 2.699866 1_555
Ag17 S26 2.735164 1_555
Ag18 S13 2.495859 1_555
Ag18 S32 2.524052 1_555
Ag18 S18 2.545085 1_565
Ag19 S17 2.495859 1_555
Ag19 S34 2.524052 1_555
Ag19 S0 2.545085 1_545
Ag20 S6 2.495859 1_555
Ag20 S16 2.524052 1_655
Ag20 S39 2.545085 1_545
Ag21 S20 2.601752 1_555
Ag21 S30 2.647300 1_555
Ag21 S9 2.699866 1_555
Ag21 S27 2.735164 1_555
Ag22 S28 2.555459 1_555
Ag22 S23 2.577756 1_555
Ag22 S38 2.606375 1_555
Ag23 S17 2.495859 1_555
Ag23 S30 2.524052 1_555
Ag23 S4 2.545085 1_555
As0 S3 2.282760 1_555
As0 S37 2.288198 1_555
As0 S14 2.288198 1_555
As1 S4 2.274019 1_555
As1 S15 2.280987 1_555
As1 S35 2.328053 1_555
As1 K2 3.698887 1_555
As2 S13 2.282760 1_655
As2 S32 2.288198 1_555
As2 S19 2.288198 1_555
As3 S25 2.274019 1_555
As3 S23 2.280987 1_555
As3 S31 2.328053 1_555
As3 K0 3.698887 1_555
As4 S18 2.274019 1_555
As4 S12 2.280987 1_555
As4 S21 2.328053 1_555
As4 K7 3.698887 1_545
As5 S22 2.258259 1_555
As5 S11 2.349442 1_555
As5 S35 2.349442 1_555
As6 S0 2.274019 1_555
As6 S2 2.280987 1_555
As6 S11 2.328053 1_555
As6 K3 3.698887 1_565
As7 S27 2.274019 1_655
As7 S9 2.280987 1_555
As7 S10 2.328053 1_555
As7 K4 3.698887 1_555
As8 S20 2.258259 1_655
As8 S10 2.349442 1_555
As8 S36 2.349442 1_555
As9 S26 2.274019 1_655
As9 S7 2.280987 1_555
As9 S36 2.328053 1_555
As9 K6 3.698887 1_545
As10 S17 2.282760 1_455
As10 S34 2.288198 1_555
As10 S30 2.288198 1_555
As11 S39 2.274019 1_455
As11 S1 2.280987 1_555
As11 S8 2.328053 1_555
As11 K1 3.698887 1_565
As12 S29 2.258259 1_555
As12 S31 2.349442 1_555
As12 S21 2.349442 1_555
As13 S6 2.282760 1_555
As13 S16 2.288198 1_555
As13 S38 2.288198 1_555
As14 S33 2.274019 1_455
As14 S28 2.280987 1_555
As14 S24 2.328053 1_555
As14 K5 3.698887 1_555
As15 S5 2.258259 1_455
As15 S24 2.349442 1_555
As15 S8 2.349442 1_555
