# generated using pymatgen
data_KMnO2
_symmetry_space_group_name_H-M   'P 1'
_cell_length_a   11.32640702
_cell_length_b   6.22781615
_cell_length_c   10.09682281
_cell_angle_alpha   85.26638580
_cell_angle_beta   90.00000000
_cell_angle_gamma   90.00000000
_symmetry_Int_Tables_number   1
_chemical_formula_structural   KMnO2
_chemical_formula_sum   'K12 Mn12 O24'
_cell_volume   709.78829645
_cell_formula_units_Z   12
loop_
 _symmetry_equiv_pos_site_id
 _symmetry_equiv_pos_as_xyz
  1  'x, y, z'
loop_
 _atom_site_type_symbol
 _atom_site_label
 _atom_site_symmetry_multiplicity
 _atom_site_fract_x
 _atom_site_fract_y
 _atom_site_fract_z
 _atom_site_occupancy
  K  K0  1  0.75000000  0.82851070  0.42446931  1
  K  K1  1  0.46287245  0.81044122  0.41485168  1
  K  K2  1  0.53712755  0.18955878  0.58514832  1
  K  K3  1  0.75000000  0.07532371  0.82295876  1
  K  K4  1  0.10480162  0.06620499  0.88305119  1
  K  K5  1  0.60480162  0.93379501  0.11694881  1
  K  K6  1  0.25000000  0.92467629  0.17704124  1
  K  K7  1  0.96287245  0.18955878  0.58514832  1
  K  K8  1  0.39519838  0.06620499  0.88305119  1
  K  K9  1  0.89519838  0.93379501  0.11694881  1
  K  K10  1  0.03712755  0.81044122  0.41485168  1
  K  K11  1  0.25000000  0.17148930  0.57553069  1
  Mn  Mn0  1  0.50119232  0.36257294  0.27055301  1
  Mn  Mn1  1  0.75000000  0.35594208  0.28118186  1
  Mn  Mn2  1  0.25000000  0.37957265  0.27229543  1
  Mn  Mn3  1  0.87493764  0.48415863  0.98883133  1
  Mn  Mn4  1  0.25000000  0.64405792  0.71881814  1
  Mn  Mn5  1  0.75000000  0.62042735  0.72770457  1
  Mn  Mn6  1  0.00119232  0.63742706  0.72944699  1
  Mn  Mn7  1  0.37493764  0.51584137  0.01116867  1
  Mn  Mn8  1  0.49880768  0.63742706  0.72944699  1
  Mn  Mn9  1  0.62506236  0.48415863  0.98883133  1
  Mn  Mn10  1  0.99880768  0.36257294  0.27055301  1
  Mn  Mn11  1  0.12506236  0.51584137  0.01116867  1
  O  O0  1  0.25000000  0.31481546  0.05540609  1
  O  O1  1  0.62194467  0.42391404  0.77212103  1
  O  O2  1  0.12194467  0.57608596  0.22787897  1
  O  O3  1  0.37212516  0.19166291  0.34087531  1
  O  O4  1  0.62117944  0.16195581  0.33044084  1
  O  O5  1  0.37882056  0.83804419  0.66955916  1
  O  O6  1  0.75000000  0.68518454  0.94459391  1
  O  O7  1  0.87340842  0.56591612  0.26722934  1
  O  O8  1  0.25000000  0.70532368  0.94415066  1
  O  O9  1  0.12659158  0.43408388  0.73277066  1
  O  O10  1  0.12117944  0.83804419  0.66955916  1
  O  O11  1  0.75000000  0.29467632  0.05584934  1
  O  O12  1  0.00197294  0.30835104  0.05908565  1
  O  O13  1  0.87805533  0.42391404  0.77212103  1
  O  O14  1  0.49802706  0.30835104  0.05908565  1
  O  O15  1  0.99802706  0.69164896  0.94091435  1
  O  O16  1  0.12787484  0.19166291  0.34087531  1
  O  O17  1  0.62787484  0.80833709  0.65912469  1
  O  O18  1  0.62659158  0.56591612  0.26722934  1
  O  O19  1  0.87882056  0.16195581  0.33044084  1
  O  O20  1  0.37805533  0.57608596  0.22787897  1
  O  O21  1  0.50197294  0.69164896  0.94091435  1
  O  O22  1  0.87212516  0.80833709  0.65912469  1
  O  O23  1  0.37340842  0.43408388  0.73277066  1
loop_
_geom_bond_atom_site_label_1
_geom_bond_atom_site_label_2
_geom_bond_distance
_geom_bond_site_symmetry_2
K0 O19 2.649010 1_565
K0 O4 2.649010 1_565
K0 O17 2.737419 1_555
K0 O22 2.737419 1_555
K0 O7 2.752699 1_555
K0 O18 2.752699 1_555
K1 O3 2.637877 1_565
K1 O20 2.659277 1_555
K1 O5 2.760917 1_555
K1 O18 2.890325 1_555
K1 O4 2.902745 1_565
K1 O17 3.093639 1_555
K2 O17 2.637877 1_545
K2 O1 2.659277 1_555
K2 O4 2.760917 1_555
K2 O23 2.890325 1_555
K2 O5 2.902745 1_545
K2 O3 3.093639 1_555
K3 O13 2.626079 1_555
K3 O1 2.626079 1_555
K3 O6 2.630459 1_545
K3 O17 2.805070 1_545
K3 O22 2.805070 1_545
K3 O11 2.815264 1_556
K4 O15 2.649587 1_445
K4 O9 2.653031 1_555
K4 O10 2.684324 1_545
K4 O12 2.689268 1_556
K4 O8 2.812052 1_545
K4 O0 2.928309 1_556
K5 O14 2.649587 1_565
K5 O18 2.653031 1_555
K5 O4 2.684324 1_565
K5 O21 2.689268 1_554
K5 O11 2.812052 1_565
K5 O6 2.928309 1_554
K6 O20 2.626079 1_555
K6 O2 2.626079 1_555
K6 O0 2.630459 1_565
K6 O16 2.805070 1_565
K6 O3 2.805070 1_565
K6 O8 2.815264 1_554
K7 O22 2.637877 1_545
K7 O13 2.659277 1_555
K7 O19 2.760917 1_555
K7 O9 2.890325 1_655
K7 O10 2.902745 1_645
K7 O16 3.093639 1_655
K8 O21 2.649587 1_545
K8 O23 2.653031 1_555
K8 O5 2.684324 1_545
K8 O14 2.689268 1_556
K8 O8 2.812052 1_545
K8 O0 2.928309 1_556
K9 O12 2.649587 1_665
K9 O7 2.653031 1_555
K9 O19 2.684324 1_565
K9 O15 2.689268 1_554
K9 O11 2.812052 1_565
K9 O6 2.928309 1_554
K10 O16 2.637877 1_565
K10 O2 2.659277 1_555
K10 O10 2.760917 1_555
K10 O7 2.890325 1_455
K10 O19 2.902745 1_465
K10 O22 3.093639 1_455
K11 O10 2.649010 1_545
K11 O5 2.649010 1_545
K11 O16 2.737419 1_555
K11 O3 2.737419 1_555
K11 O23 2.752699 1_555
K11 O9 2.752699 1_555
Mn0 O18 1.901357 1_555
Mn0 O4 1.910210 1_555
Mn0 O3 1.910342 1_555
Mn0 O20 1.950495 1_555
Mn0 O14 2.189332 1_555
Mn1 O18 1.911345 1_555
Mn1 O7 1.911345 1_555
Mn1 O4 1.933035 1_555
Mn1 O19 1.933035 1_555
Mn1 O11 2.337762 1_555
Mn2 O3 1.904890 1_555
Mn2 O16 1.904890 1_555
Mn2 O2 1.926660 1_555
Mn2 O20 1.926660 1_555
Mn2 O0 2.259213 1_555
Mn3 O12 1.908949 1_656
Mn3 O6 1.917573 1_555
Mn3 O11 1.929022 1_556
Mn3 O15 1.935041 1_555
Mn3 O13 2.250606 1_555
Mn4 O9 1.911345 1_555
Mn4 O23 1.911345 1_555
Mn4 O10 1.933035 1_555
Mn4 O5 1.933035 1_555
Mn4 O8 2.337762 1_555
Mn5 O17 1.904890 1_555
Mn5 O22 1.904890 1_555
Mn5 O13 1.926660 1_555
Mn5 O1 1.926660 1_555
Mn5 O6 2.259213 1_555
Mn6 O9 1.901357 1_555
Mn6 O10 1.910210 1_555
Mn6 O22 1.910342 1_455
Mn6 O13 1.950495 1_455
Mn6 O15 2.189332 1_455
Mn7 O21 1.908949 1_554
Mn7 O0 1.917573 1_555
Mn7 O8 1.929022 1_554
Mn7 O14 1.935041 1_555
Mn7 O20 2.250606 1_555
Mn8 O23 1.901357 1_555
Mn8 O5 1.910210 1_555
Mn8 O17 1.910342 1_555
Mn8 O1 1.950495 1_555
Mn8 O21 2.189332 1_555
Mn9 O14 1.908949 1_556
Mn9 O6 1.917573 1_555
Mn9 O11 1.929022 1_556
Mn9 O21 1.935041 1_555
Mn9 O1 2.250606 1_555
Mn10 O7 1.901357 1_555
Mn10 O19 1.910210 1_555
Mn10 O16 1.910342 1_655
Mn10 O2 1.950495 1_655
Mn10 O12 2.189332 1_655
Mn11 O15 1.908949 1_454
Mn11 O0 1.917573 1_555
Mn11 O8 1.929022 1_554
Mn11 O12 1.935041 1_555
Mn11 O2 2.250606 1_555
