# generated using pymatgen
data_K3AlB8O15
_symmetry_space_group_name_H-M   'P 1'
_cell_length_a   11.60062500
_cell_length_b   10.32519600
_cell_length_c   12.91839359
_cell_angle_alpha   88.83451516
_cell_angle_beta   90.00000000
_cell_angle_gamma   90.00000000
_symmetry_Int_Tables_number   1
_chemical_formula_structural   K3AlB8O15
_chemical_formula_sum   'K12 Al4 B32 O60'
_cell_volume   1547.02861770
_cell_formula_units_Z   4
loop_
 _symmetry_equiv_pos_site_id
 _symmetry_equiv_pos_as_xyz
  1  'x, y, z'
loop_
 _atom_site_type_symbol
 _atom_site_label
 _atom_site_symmetry_multiplicity
 _atom_site_fract_x
 _atom_site_fract_y
 _atom_site_fract_z
 _atom_site_occupancy
  K  K0  1  0.87178600  0.11217900  0.93836700  1
  K  K1  1  0.37178600  0.88782100  0.56163300  1
  K  K2  1  0.62821400  0.11217900  0.43836700  1
  K  K3  1  0.40049600  0.10966100  0.89607600  1
  K  K4  1  0.63658500  0.52656000  0.22187300  1
  K  K5  1  0.13658500  0.47344000  0.27812700  1
  K  K6  1  0.12821400  0.88782100  0.06163300  1
  K  K7  1  0.59950400  0.89033900  0.10392400  1
  K  K8  1  0.90049600  0.89033900  0.60392400  1
  K  K9  1  0.36341500  0.47344000  0.77812700  1
  K  K10  1  0.09950400  0.10966100  0.39607600  1
  K  K11  1  0.86341500  0.52656000  0.72187300  1
  Al  Al0  1  0.33457000  0.25213000  0.53912500  1
  Al  Al1  1  0.16543000  0.25213000  0.03912500  1
  Al  Al2  1  0.66543000  0.74787000  0.46087500  1
  Al  Al3  1  0.83457000  0.74787000  0.96087500  1
  B  B0  1  0.09863900  0.65507000  0.47655300  1
  B  B1  1  0.30162200  0.49208100  0.08325000  1
  B  B2  1  0.83766900  0.86831800  0.35551500  1
  B  B3  1  0.61852800  0.77907000  0.68789100  1
  B  B4  1  0.66233100  0.86831800  0.85551500  1
  B  B5  1  0.90136100  0.34493000  0.52344700  1
  B  B6  1  0.94788800  0.22532600  0.16418900  1
  B  B7  1  0.55211200  0.22532600  0.66418900  1
  B  B8  1  0.44788800  0.77467400  0.33581100  1
  B  B9  1  0.25085500  0.82881100  0.28435600  1
  B  B10  1  0.87197800  0.30668000  0.33397200  1
  B  B11  1  0.03873800  0.80784000  0.31981200  1
  B  B12  1  0.69837800  0.50791900  0.91675000  1
  B  B13  1  0.80162200  0.50791900  0.41675000  1
  B  B14  1  0.24914500  0.82881100  0.78435600  1
  B  B15  1  0.59863900  0.34493000  0.02344700  1
  B  B16  1  0.75085500  0.17118900  0.21564400  1
  B  B17  1  0.12802200  0.69332000  0.66602800  1
  B  B18  1  0.96126200  0.19216000  0.68018800  1
  B  B19  1  0.40136100  0.65507000  0.97655300  1
  B  B20  1  0.33766900  0.13168200  0.14448500  1
  B  B21  1  0.88147200  0.77907000  0.18789100  1
  B  B22  1  0.11852800  0.22093000  0.81210900  1
  B  B23  1  0.38147200  0.22093000  0.31210900  1
  B  B24  1  0.05211200  0.77467400  0.83581100  1
  B  B25  1  0.74914500  0.17118900  0.71564400  1
  B  B26  1  0.37197800  0.69332000  0.16602800  1
  B  B27  1  0.53873800  0.19216000  0.18018800  1
  B  B28  1  0.46126200  0.80784000  0.81981200  1
  B  B29  1  0.62802200  0.30668000  0.83397200  1
  B  B30  1  0.19837800  0.49208100  0.58325000  1
  B  B31  1  0.16233100  0.13168200  0.64448500  1
  O  O0  1  0.84428000  0.46538500  0.51339100  1
  O  O1  1  0.84008300  0.16820900  0.14269900  1
  O  O2  1  0.56338600  0.31425500  0.12159300  1
  O  O3  1  0.03400700  0.71462600  0.74305200  1
  O  O4  1  0.15991700  0.83179100  0.85730100  1
  O  O5  1  0.74302300  0.88309600  0.93172200  1
  O  O6  1  0.27079100  0.77566300  0.19010600  1
  O  O7  1  0.22920900  0.77566300  0.69010600  1
  O  O8  1  0.46599300  0.71462600  0.24305200  1
  O  O9  1  0.24302300  0.11690400  0.56827800  1
  O  O10  1  0.14688800  0.88314900  0.30944800  1
  O  O11  1  0.77079100  0.22433700  0.30989400  1
  O  O12  1  0.22682900  0.39135100  0.09040700  1
  O  O13  1  0.30051000  0.17143000  0.24195000  1
  O  O14  1  0.45296300  0.11206700  0.12522200  1
  O  O15  1  0.65991700  0.16820900  0.64269900  1
  O  O16  1  0.96599300  0.28537400  0.25694800  1
  O  O17  1  0.54703700  0.88793300  0.87477800  1
  O  O18  1  0.08343100  0.73019600  0.56191500  1
  O  O19  1  0.35311200  0.88314900  0.80944800  1
  O  O20  1  0.02862100  0.21469100  0.08918800  1
  O  O21  1  0.15572000  0.53461500  0.48660900  1
  O  O22  1  0.34428000  0.53461500  0.98660900  1
  O  O23  1  0.65927400  0.74162100  0.59519200  1
  O  O24  1  0.85311200  0.11685100  0.69055200  1
  O  O25  1  0.41656900  0.73019600  0.06191500  1
  O  O26  1  0.95296300  0.88793300  0.37477800  1
  O  O27  1  0.99557400  0.77175400  0.21564100  1
  O  O28  1  0.53400700  0.28537400  0.75694800  1
  O  O29  1  0.49557400  0.22824600  0.28435900  1
  O  O30  1  0.93661400  0.31425500  0.62159300  1
  O  O31  1  0.04703700  0.11206700  0.62522200  1
  O  O32  1  0.64688800  0.11685100  0.19055200  1
  O  O33  1  0.06338600  0.68574500  0.37840700  1
  O  O34  1  0.00442600  0.22824600  0.78435900  1
  O  O35  1  0.50442600  0.77175400  0.71564100  1
  O  O36  1  0.16692700  0.55736900  0.67087000  1
  O  O37  1  0.91656900  0.26980400  0.43808500  1
  O  O38  1  0.69949000  0.82857000  0.75805000  1
  O  O39  1  0.34008300  0.83179100  0.35730100  1
  O  O40  1  0.34072600  0.25837900  0.40480800  1
  O  O41  1  0.97137900  0.78530900  0.91081200  1
  O  O42  1  0.75697700  0.88309600  0.43172200  1
  O  O43  1  0.43661400  0.68574500  0.87840700  1
  O  O44  1  0.52862100  0.78530900  0.41081200  1
  O  O45  1  0.19949000  0.17143000  0.74195000  1
  O  O46  1  0.58343100  0.26980400  0.93808500  1
  O  O47  1  0.72920900  0.22433700  0.80989400  1
  O  O48  1  0.84072600  0.74162100  0.09519200  1
  O  O49  1  0.25697700  0.11690400  0.06827800  1
  O  O50  1  0.83307300  0.44263100  0.32913000  1
  O  O51  1  0.15927400  0.25837900  0.90480800  1
  O  O52  1  0.65572000  0.46538500  0.01339100  1
  O  O53  1  0.66692700  0.44263100  0.82913000  1
  O  O54  1  0.47137900  0.21469100  0.58918800  1
  O  O55  1  0.77317100  0.60864900  0.90959300  1
  O  O56  1  0.72682900  0.60864900  0.40959300  1
  O  O57  1  0.80051000  0.82857000  0.25805000  1
  O  O58  1  0.33307300  0.55736900  0.17087000  1
  O  O59  1  0.27317100  0.39135100  0.59040700  1
loop_
_geom_bond_atom_site_label_1
_geom_bond_atom_site_label_2
_geom_bond_distance
_geom_bond_site_symmetry_2
K0 O47 2.598662 1_555
K0 O1 2.738571 1_556
K0 O34 2.768587 1_655
K0 O5 2.800292 1_545
K0 O20 2.882795 1_656
K1 O7 2.598662 1_555
K1 O39 2.738571 1_555
K1 O35 2.768587 1_555
K1 O9 2.800292 1_565
K1 O44 2.882795 1_555
K2 O11 2.598662 1_555
K2 O15 2.738571 1_555
K2 O29 2.768587 1_555
K2 O42 2.800292 1_545
K2 O54 2.882795 1_555
K3 O19 2.670373 1_545
K3 O46 2.751121 1_555
K3 O49 2.780829 1_556
K3 O17 2.869233 1_545
K3 O28 2.964468 1_555
K3 O14 3.022720 1_556
K3 O45 3.123570 1_555
K3 O51 3.195041 1_555
K4 O2 2.705560 1_555
K4 O52 2.787662 1_555
K4 O56 2.789052 1_555
K4 O8 2.789886 1_555
K4 O50 2.795991 1_555
K5 O33 2.705560 1_555
K5 O21 2.787662 1_555
K5 O12 2.789052 1_555
K5 O16 2.789886 1_455
K5 O58 2.795991 1_555
K6 O6 2.598662 1_555
K6 O4 2.738571 1_554
K6 O27 2.768587 1_455
K6 O49 2.800292 1_565
K6 O41 2.882795 1_454
K7 O32 2.670373 1_565
K7 O25 2.751121 1_555
K7 O5 2.780829 1_554
K7 O14 2.869233 1_565
K7 O8 2.964468 1_555
K7 O17 3.022720 1_554
K7 O57 3.123570 1_555
K7 O48 3.195041 1_555
K8 O24 2.670373 1_565
K8 O18 2.751121 1_655
K8 O42 2.780829 1_555
K8 O31 2.869233 1_665
K8 O3 2.964468 1_655
K8 O26 3.022720 1_555
K8 O38 3.123570 1_555
K8 O23 3.195041 1_555
K9 O43 2.705560 1_555
K9 O22 2.787662 1_555
K9 O59 2.789052 1_555
K9 O28 2.789886 1_555
K9 O36 2.795991 1_555
K10 O10 2.670373 1_545
K10 O37 2.751121 1_455
K10 O9 2.780829 1_555
K10 O26 2.869233 1_445
K10 O16 2.964468 1_455
K10 O31 3.022720 1_555
K10 O13 3.123570 1_555
K10 O40 3.195041 1_555
K11 O30 2.705560 1_555
K11 O0 2.787662 1_555
K11 O55 2.789052 1_555
K11 O3 2.789886 1_655
K11 O53 2.795991 1_555
Al0 O40 1.736516 1_555
Al0 O59 1.746799 1_555
Al0 O54 1.753943 1_555
Al0 O9 1.788230 1_555
Al1 O51 1.736516 1_554
Al1 O12 1.746799 1_555
Al1 O20 1.753943 1_555
Al1 O49 1.788230 1_555
Al2 O23 1.736516 1_555
Al2 O56 1.746799 1_555
Al2 O44 1.753943 1_555
Al2 O42 1.788230 1_555
Al3 O48 1.736516 1_556
Al3 O55 1.746799 1_555
Al3 O41 1.753943 1_555
Al3 O5 1.788230 1_555
B0 O33 1.363366 1_555
B0 O18 1.372463 1_555
B0 O21 1.412665 1_555
B1 O12 1.356158 1_555
B1 O58 1.378333 1_555
B1 O22 1.405017 1_554
B2 O42 1.369241 1_555
B2 O26 1.376173 1_555
B2 O57 1.400209 1_555
B3 O23 1.351234 1_555
B3 O35 1.373018 1_555
B3 O38 1.408416 1_555
B4 O5 1.369241 1_555
B4 O17 1.376173 1_555
B4 O38 1.400209 1_555
B5 O30 1.363366 1_555
B5 O37 1.372463 1_555
B5 O0 1.412665 1_555
B6 O20 1.353614 1_655
B6 O16 1.376467 1_555
B6 O1 1.412637 1_555
B7 O54 1.353614 1_555
B7 O28 1.376467 1_555
B7 O15 1.412637 1_555
B8 O44 1.353614 1_555
B8 O8 1.376467 1_555
B8 O39 1.412637 1_555
B9 O6 1.365378 1_555
B9 O10 1.371817 1_555
B9 O39 1.400553 1_555
B10 O50 1.474607 1_555
B10 O37 1.483467 1_555
B10 O11 1.486017 1_555
B10 O16 1.495613 1_555
B11 O10 1.480663 1_555
B11 O26 1.483945 1_455
B11 O33 1.484980 1_555
B11 O27 1.490276 1_455
B12 O55 1.356158 1_555
B12 O53 1.378333 1_555
B12 O52 1.405017 1_556
B13 O56 1.356158 1_555
B13 O50 1.378333 1_555
B13 O0 1.405017 1_555
B14 O7 1.365378 1_555
B14 O19 1.371817 1_555
B14 O4 1.400553 1_555
B15 O2 1.363366 1_555
B15 O46 1.372463 1_554
B15 O52 1.412665 1_555
B16 O11 1.365378 1_555
B16 O32 1.371817 1_555
B16 O1 1.400553 1_555
B17 O36 1.474607 1_555
B17 O18 1.483467 1_555
B17 O7 1.486017 1_555
B17 O3 1.495613 1_555
B18 O24 1.480663 1_555
B18 O31 1.483945 1_655
B18 O30 1.484980 1_555
B18 O34 1.490276 1_655
B19 O43 1.363366 1_555
B19 O25 1.372463 1_556
B19 O22 1.412665 1_555
B20 O49 1.369241 1_555
B20 O14 1.376173 1_555
B20 O13 1.400209 1_555
B21 O48 1.351234 1_555
B21 O27 1.373018 1_555
B21 O57 1.408416 1_555
B22 O51 1.351234 1_555
B22 O34 1.373018 1_555
B22 O45 1.408416 1_555
B23 O40 1.351234 1_555
B23 O29 1.373018 1_555
B23 O13 1.408416 1_555
B24 O41 1.353614 1_455
B24 O3 1.376467 1_555
B24 O4 1.412637 1_555
B25 O47 1.365378 1_555
B25 O24 1.371817 1_555
B25 O15 1.400553 1_555
B26 O58 1.474607 1_555
B26 O25 1.483467 1_555
B26 O6 1.486017 1_555
B26 O8 1.495613 1_555
B27 O32 1.480663 1_555
B27 O14 1.483945 1_555
B27 O2 1.484980 1_555
B27 O29 1.490276 1_555
B28 O19 1.480663 1_555
B28 O17 1.483945 1_555
B28 O43 1.484980 1_555
B28 O35 1.490276 1_555
B29 O53 1.474607 1_555
B29 O46 1.483467 1_555
B29 O47 1.486017 1_555
B29 O28 1.495613 1_555
B30 O59 1.356158 1_555
B30 O36 1.378333 1_555
B30 O21 1.405017 1_555
B31 O9 1.369241 1_555
B31 O31 1.376173 1_555
B31 O45 1.400209 1_555
