# generated using pymatgen
data_RbReCl4
_symmetry_space_group_name_H-M   'P 1'
_cell_length_a   9.18245007
_cell_length_b   9.18245007
_cell_length_c   12.27425722
_cell_angle_alpha   90.00000000
_cell_angle_beta   90.00000000
_cell_angle_gamma   109.46598287
_symmetry_Int_Tables_number   1
_chemical_formula_structural   RbReCl4
_chemical_formula_sum   'Rb6 Re6 Cl24'
_cell_volume   975.77602868
_cell_formula_units_Z   6
loop_
 _symmetry_equiv_pos_site_id
 _symmetry_equiv_pos_as_xyz
  1  'x, y, z'
loop_
 _atom_site_type_symbol
 _atom_site_label
 _atom_site_symmetry_multiplicity
 _atom_site_fract_x
 _atom_site_fract_y
 _atom_site_fract_z
 _atom_site_occupancy
  Rb  Rb0  1  0.24823865  0.24823865  -0.00000000  1
  Rb  Rb1  1  0.25269696  0.74730304  0.75000000  1
  Rb  Rb2  1  0.24823865  0.24823865  0.50000000  1
  Rb  Rb3  1  0.75176135  0.75176135  0.50000000  1
  Rb  Rb4  1  0.75176135  0.75176135  -0.00000000  1
  Rb  Rb5  1  0.74730304  0.25269696  0.25000000  1
  Re  Re0  1  0.78774282  0.21225718  0.65036407  1
  Re  Re1  1  0.78774282  0.21225718  0.84963593  1
  Re  Re2  1  0.21225718  0.78774282  0.34963593  1
  Re  Re3  1  0.64614135  0.35385865  0.75000000  1
  Re  Re4  1  0.21225718  0.78774282  0.15036407  1
  Re  Re5  1  0.35385865  0.64614135  0.25000000  1
  Cl  Cl0  1  0.87305207  0.12694793  0.46583380  1
  Cl  Cl1  1  0.47268888  0.52731112  0.75000000  1
  Cl  Cl2  1  0.01763104  0.41114976  0.87840401  1
  Cl  Cl3  1  0.35324760  0.64675240  0.44832644  1
  Cl  Cl4  1  0.41114976  0.01763104  0.37840401  1
  Cl  Cl5  1  0.98236896  0.58885024  0.12159599  1
  Cl  Cl6  1  0.35324760  0.64675240  0.05167356  1
  Cl  Cl7  1  0.41114976  0.01763104  0.12159599  1
  Cl  Cl8  1  0.58885024  0.98236896  0.62159599  1
  Cl  Cl9  1  0.12694793  0.87305207  0.53416620  1
  Cl  Cl10  1  0.40048953  0.16822649  0.75000000  1
  Cl  Cl11  1  0.52731112  0.47268888  0.25000000  1
  Cl  Cl12  1  0.98236896  0.58885024  0.37840401  1
  Cl  Cl13  1  0.87305207  0.12694793  0.03416620  1
  Cl  Cl14  1  0.07273752  0.92726248  0.25000000  1
  Cl  Cl15  1  0.58885024  0.98236896  0.87840401  1
  Cl  Cl16  1  0.83177351  0.59951047  0.75000000  1
  Cl  Cl17  1  0.12694793  0.87305207  0.96583380  1
  Cl  Cl18  1  0.01763104  0.41114976  0.62159599  1
  Cl  Cl19  1  0.16822649  0.40048953  0.25000000  1
  Cl  Cl20  1  0.92726248  0.07273752  0.75000000  1
  Cl  Cl21  1  0.59951047  0.83177351  0.25000000  1
  Cl  Cl22  1  0.64675240  0.35324760  0.55167356  1
  Cl  Cl23  1  0.64675240  0.35324760  0.94832644  1
loop_
_geom_bond_atom_site_label_1
_geom_bond_atom_site_label_2
_geom_bond_distance
_geom_bond_site_symmetry_2
Cl0 Re0 2.601221 1_555
Cl0 Rb5 3.251689 1_555
Cl0 Rb3 3.275346 1_545
Cl0 Rb2 3.275346 1_655
Cl1 Re3 2.600815 1_555
Cl1 Rb1 3.298645 1_555
Cl2 Re1 2.312291 1_455
Cl2 Rb0 3.325744 1_556
Cl2 Rb1 3.497172 1_555
Cl3 Re5 2.434327 1_555
Cl3 Re2 2.436524 1_555
Cl3 Rb3 3.517250 1_555
Cl3 Rb2 3.517250 1_555
Cl4 Re2 2.312291 1_545
Cl4 Rb2 3.325744 1_555
Cl4 Rb5 3.497172 1_555
Cl5 Re4 2.312291 1_655
Cl5 Rb4 3.325744 1_555
Cl5 Rb5 3.497172 1_555
Cl6 Re5 2.434327 1_555
Cl6 Re4 2.436524 1_555
Cl6 Rb4 3.517250 1_555
Cl6 Rb0 3.517250 1_555
Cl7 Re4 2.312291 1_545
Cl7 Rb0 3.325744 1_555
Cl7 Rb5 3.497172 1_555
Cl8 Re0 2.312291 1_565
Cl8 Rb3 3.325744 1_555
Cl8 Rb1 3.497172 1_555
Cl9 Re2 2.601221 1_555
Cl9 Rb1 3.251689 1_555
Cl9 Rb3 3.275346 1_455
Cl9 Rb2 3.275346 1_565
Cl10 Re3 2.330451 1_555
Cl10 Rb2 3.548940 1_555
Cl10 Rb0 3.548940 1_556
Cl10 Rb1 3.644831 1_545
Cl11 Re5 2.600815 1_555
Cl11 Rb5 3.298645 1_555
Cl12 Re2 2.312291 1_655
Cl12 Rb3 3.325744 1_555
Cl12 Rb5 3.497172 1_555
Cl13 Re1 2.601221 1_554
Cl13 Rb5 3.251689 1_555
Cl13 Rb4 3.275346 1_545
Cl13 Rb0 3.275346 1_655
Cl14 Re4 2.423250 1_555
Cl14 Re2 2.423250 1_555
Cl15 Re1 2.312291 1_565
Cl15 Rb4 3.325744 1_556
Cl15 Rb1 3.497172 1_555
Cl16 Re3 2.330451 1_555
Cl16 Rb3 3.548940 1_555
Cl16 Rb4 3.548940 1_556
Cl16 Rb1 3.644831 1_655
Cl17 Re4 2.601221 1_556
Cl17 Rb1 3.251689 1_555
Cl17 Rb4 3.275346 1_456
Cl17 Rb0 3.275346 1_566
Cl18 Re0 2.312291 1_455
Cl18 Rb2 3.325744 1_555
Cl18 Rb1 3.497172 1_555
Cl19 Re5 2.330451 1_555
Cl19 Rb0 3.548940 1_555
Cl19 Rb2 3.548940 1_555
Cl19 Rb5 3.644831 1_455
Cl20 Re1 2.423250 1_555
Cl20 Re0 2.423250 1_555
Cl21 Re5 2.330451 1_555
Cl21 Rb4 3.548940 1_555
Cl21 Rb3 3.548940 1_555
Cl21 Rb5 3.644831 1_565
Cl22 Re3 2.434327 1_555
Cl22 Re0 2.436524 1_555
Cl22 Rb3 3.517250 1_555
Cl22 Rb2 3.517250 1_555
Cl23 Re3 2.434327 1_555
Cl23 Re1 2.436524 1_555
Cl23 Rb4 3.517250 1_556
Cl23 Rb0 3.517250 1_556
