# generated using pymatgen
data_HoAlB14
_symmetry_space_group_name_H-M   'P 1'
_cell_length_a   7.28971867
_cell_length_b   7.28971867
_cell_length_c   7.28971867
_cell_angle_alpha   132.18915364
_cell_angle_beta   111.20439152
_cell_angle_gamma   88.09305252
_symmetry_Int_Tables_number   1
_chemical_formula_structural   HoAlB14
_chemical_formula_sum   'Ho2 Al2 B28'
_cell_volume   254.96695486
_cell_formula_units_Z   2
loop_
 _symmetry_equiv_pos_site_id
 _symmetry_equiv_pos_as_xyz
  1  'x, y, z'
loop_
 _atom_site_type_symbol
 _atom_site_label
 _atom_site_symmetry_multiplicity
 _atom_site_fract_x
 _atom_site_fract_y
 _atom_site_fract_z
 _atom_site_occupancy
  Ho  Ho0  1  0.40047900  0.75000000  0.65047900  1
  Ho  Ho1  1  0.59952100  0.25000000  0.34952100  1
  Al  Al0  1  0.00000000  0.50000000  0.00000000  1
  Al  Al1  1  0.00000000  0.00000000  0.50000000  1
  B  B0  1  0.98368400  0.35739800  0.62628600  1
  B  B1  1  0.62788500  0.33200100  0.80045200  1
  B  B2  1  0.79844800  0.83288500  0.96556300  1
  B  B3  1  0.63267700  0.66711500  0.96556300  1
  B  B4  1  0.20155200  0.16711500  0.03443700  1
  B  B5  1  0.77678100  0.77631500  0.67506500  1
  B  B6  1  0.96845100  0.67256700  0.80045200  1
  B  B7  1  0.01631600  0.64260200  0.37371400  1
  B  B8  1  0.96845100  0.16799900  0.29588400  1
  B  B9  1  0.03154900  0.83200100  0.70411600  1
  B  B10  1  0.36732300  0.33288500  0.03443700  1
  B  B11  1  0.07652800  0.90985400  0.16667400  1
  B  B12  1  0.62788500  0.82743300  0.29588400  1
  B  B13  1  0.39875000  0.72368500  0.00046600  1
  B  B14  1  0.24318000  0.40985400  0.83332600  1
  B  B15  1  0.22321900  0.22368500  0.32493500  1
  B  B16  1  0.23111100  0.85739800  0.37371400  1
  B  B17  1  0.92347200  0.09014600  0.83332600  1
  B  B18  1  0.39875000  0.39828400  0.67506500  1
  B  B19  1  0.22321900  0.89828400  0.99953400  1
  B  B20  1  0.77678100  0.10171600  0.00046600  1
  B  B21  1  0.60125000  0.27631500  0.99953400  1
  B  B22  1  0.60125000  0.60171600  0.32493500  1
  B  B23  1  0.03154900  0.32743300  0.19954800  1
  B  B24  1  0.75682000  0.59014600  0.16667400  1
  B  B25  1  0.76888900  0.14260200  0.62628600  1
  B  B26  1  0.37211500  0.17256700  0.70411600  1
  B  B27  1  0.37211500  0.66799900  0.19954800  1
loop_
_geom_bond_atom_site_label_1
_geom_bond_atom_site_label_2
_geom_bond_distance
_geom_bond_site_symmetry_2
Al0 B25 2.118127 1_454
Al0 B16 2.118127 1_555
Al0 B0 2.118130 1_454
Al0 B7 2.118130 1_555
Al0 B24 2.336392 1_455
Al0 B14 2.336392 1_554
Al0 B17 2.336392 1_454
Al0 B11 2.336392 1_555
Al0 B1 2.438843 1_454
Al0 B27 2.438843 1_555
Al0 B6 2.438843 1_454
Al0 B23 2.438843 1_555
Al1 B25 2.118123 1_455
Al1 B16 2.118123 1_545
Al1 B0 2.118130 1_455
Al1 B7 2.118130 1_545
Al1 B24 2.336392 1_445
Al1 B11 2.336392 1_545
Al1 B14 2.336392 1_555
Al1 B17 2.336392 1_455
Al1 B26 2.438843 1_555
Al1 B12 2.438843 1_445
Al1 B8 2.438843 1_455
Al1 B9 2.438843 1_545
B0 B8 1.752092 1_555
B0 B6 1.752092 1_555
B0 B14 1.791683 1_655
B0 B25 2.250916 1_555
B0 Ho1 2.542252 1_555
B1 B25 1.752098 1_555
B1 B24 1.762527 1_556
B1 B18 1.814935 1_555
B1 B21 1.819057 1_555
B1 B26 1.849605 1_555
B1 B3 1.855689 1_555
B1 Ho1 2.843029 1_555
B2 B3 1.737166 1_555
B2 B20 1.808002 1_566
B2 B5 1.808002 1_555
B2 B6 1.855688 1_555
B2 B8 1.855688 1_566
B2 Ho0 2.736666 1_555
B3 Ho0 2.736664 1_555
B4 B9 1.855688 1_544
B4 Ho1 2.736666 1_555
B5 B6 1.814935 1_555
B5 B9 1.819057 1_655
B5 Ho0 2.688291 1_555
B5 Ho1 2.811386 1_555
B6 B9 1.849605 1_655
B6 Ho1 2.843029 1_555
B7 B9 1.752092 1_555
B7 Ho0 2.542252 1_555
B8 Ho1 2.843029 1_555
B9 Ho0 2.843029 1_555
B10 B4 1.737166 1_555
B10 B21 1.807994 1_554
B10 B22 1.807998 1_555
B10 B14 1.842382 1_554
B10 B26 1.855685 1_554
B10 B27 1.855689 1_555
B10 Ho1 2.736664 1_555
B11 B6 1.762527 1_454
B11 B8 1.762527 1_465
B11 B16 1.791681 1_555
B11 B2 1.842381 1_454
B11 B15 1.852989 1_565
B11 B19 1.852989 1_554
B12 B25 1.752092 1_565
B12 B24 1.762527 1_555
B12 B13 1.814935 1_555
B12 B22 1.819057 1_555
B12 B27 1.849605 1_555
B12 B3 1.855685 1_554
B12 Ho1 2.843029 1_565
B13 B19 1.776021 1_554
B13 B3 1.807994 1_554
B13 B27 1.819057 1_555
B13 B14 1.852989 1_554
B13 B18 1.922468 1_554
B13 Ho0 2.688291 1_554
B13 Ho1 2.811386 1_565
B14 B26 1.762527 1_555
B14 B27 1.762527 1_556
B14 B18 1.852989 1_555
B15 B18 1.776021 1_555
B15 B4 1.808002 1_555
B15 B23 1.814935 1_555
B15 B8 1.819057 1_455
B15 B19 1.922468 1_544
B15 Ho1 2.688291 1_555
B15 Ho0 2.811386 1_555
B16 B26 1.752092 1_565
B16 B27 1.752098 1_555
B16 B7 2.250916 1_555
B16 Ho0 2.542254 1_555
B17 B23 1.762527 1_656
B17 B9 1.762527 1_645
B17 B25 1.791681 1_555
B17 B4 1.842381 1_656
B17 B5 1.852989 1_545
B17 B20 1.852989 1_556
B18 B3 1.807998 1_555
B18 B26 1.819057 1_555
B18 Ho0 2.688291 1_555
B18 Ho1 2.811386 1_555
B19 B4 1.808002 1_566
B19 B9 1.814935 1_555
B19 B6 1.819057 1_455
B19 Ho1 2.688291 1_566
B19 Ho0 2.811386 1_555
B20 B21 1.776021 1_554
B20 B8 1.814935 1_555
B20 B23 1.819057 1_655
B20 B5 1.922468 1_544
B20 Ho0 2.688291 1_544
B20 Ho1 2.811386 1_555
B21 B26 1.814935 1_555
B21 B24 1.852989 1_556
B21 B22 1.922468 1_556
B21 Ho1 2.688291 1_556
B21 Ho0 2.811386 1_545
B22 B5 1.776021 1_555
B22 B27 1.814935 1_555
B22 B24 1.852989 1_555
B22 Ho1 2.688291 1_555
B22 Ho0 2.811386 1_555
B23 B7 1.752092 1_555
B23 B8 1.849605 1_455
B23 B4 1.855688 1_555
B23 Ho0 2.843029 1_555
B24 B7 1.791683 1_655
B24 B3 1.842382 1_554
B25 Ho1 2.542254 1_555
B26 Ho0 2.843029 1_545
B27 Ho0 2.843029 1_555
