# generated using pymatgen
data_K4Zn(WO4)3
_symmetry_space_group_name_H-M   'P 1'
_cell_length_a   8.06523900
_cell_length_b   9.99924573
_cell_length_c   10.35824858
_cell_angle_alpha   95.58430957
_cell_angle_beta   106.53498893
_cell_angle_gamma   105.48435481
_symmetry_Int_Tables_number   1
_chemical_formula_structural   K4Zn(WO4)3
_chemical_formula_sum   'K8 Zn2 W6 O24'
_cell_volume   758.04438588
_cell_formula_units_Z   2
loop_
 _symmetry_equiv_pos_site_id
 _symmetry_equiv_pos_as_xyz
  1  'x, y, z'
loop_
 _atom_site_type_symbol
 _atom_site_label
 _atom_site_symmetry_multiplicity
 _atom_site_fract_x
 _atom_site_fract_y
 _atom_site_fract_z
 _atom_site_occupancy
  K  K0  1  0.78693400  0.77681900  0.24093600  1
  K  K1  1  0.74697200  0.47431900  0.52980800  1
  K  K2  1  0.00000000  0.00000000  0.00000000  1
  K  K3  1  0.35854500  0.11151700  0.43239900  1
  K  K4  1  0.64145500  0.88848300  0.56760100  1
  K  K5  1  0.50000000  0.00000000  0.00000000  1
  K  K6  1  0.25302800  0.52568100  0.47019200  1
  K  K7  1  0.21306600  0.22318100  0.75906400  1
  Zn  Zn0  1  0.83373900  0.43940300  0.14285700  1
  Zn  Zn1  1  0.16626100  0.56059700  0.85714300  1
  W  W0  1  0.77220000  0.27544600  0.82517100  1
  W  W1  1  0.22780000  0.72455400  0.17482900  1
  W  W2  1  0.87681000  0.18272700  0.36322300  1
  W  W3  1  0.38901600  0.39404800  0.15586200  1
  W  W4  1  0.61098400  0.60595200  0.84413800  1
  W  W5  1  0.12319000  0.81727300  0.63677700  1
  O  O0  1  0.76398200  0.27256000  0.00315100  1
  O  O1  1  0.61595500  0.49467300  0.15597400  1
  O  O2  1  0.77765100  0.51393000  0.90656200  1
  O  O3  1  0.02982600  0.61751400  0.21715500  1
  O  O4  1  0.70168000  0.12992400  0.44094500  1
  O  O5  1  0.88344200  0.35885500  0.32028000  1
  O  O6  1  0.90396800  0.79737500  0.51342100  1
  O  O7  1  0.68382700  0.77814600  0.95105000  1
  O  O8  1  0.29832000  0.87007600  0.55905500  1
  O  O9  1  0.97017400  0.38248600  0.78284500  1
  O  O10  1  0.40344000  0.37107000  0.32951400  1
  O  O11  1  0.16882600  0.94874500  0.78641100  1
  O  O12  1  0.23601800  0.72744000  0.99684900  1
  O  O13  1  0.44132300  0.73217200  0.29858300  1
  O  O14  1  0.38404500  0.50532700  0.84402600  1
  O  O15  1  0.31617300  0.22185400  0.04895000  1
  O  O16  1  0.11655800  0.64114500  0.67972000  1
  O  O17  1  0.83117400  0.05125500  0.21358900  1
  O  O18  1  0.09603200  0.20262500  0.48657900  1
  O  O19  1  0.22234900  0.48607000  0.09343800  1
  O  O20  1  0.20802700  0.89882900  0.20999300  1
  O  O21  1  0.55867700  0.26782800  0.70141700  1
  O  O22  1  0.59656000  0.62893000  0.67048600  1
  O  O23  1  0.79197300  0.10117100  0.79000700  1
loop_
_geom_bond_atom_site_label_1
_geom_bond_atom_site_label_2
_geom_bond_distance
_geom_bond_site_symmetry_2
K0 O6 2.677049 1_555
K0 O1 2.717395 1_555
K0 O17 2.724690 1_565
K0 O3 2.881011 1_655
K0 O7 2.881029 1_554
K0 O13 2.942870 1_555
K1 O22 2.748499 1_555
K1 O10 2.798336 1_555
K1 O16 2.878425 1_655
K1 O5 2.967392 1_555
K1 O9 3.101446 1_555
K1 O6 3.179953 1_555
K1 O21 3.210270 1_555
K1 O4 3.370418 1_555
K2 O15 2.775873 1_555
K2 O7 2.775873 1_444
K2 O23 2.797669 1_454
K2 O20 2.797669 1_545
K2 O11 2.979609 1_544
K2 O17 2.979609 1_455
K3 O18 2.689662 1_555
K3 O4 2.699257 1_555
K3 O20 2.716603 1_545
K3 O21 2.838717 1_555
K3 O8 2.852824 1_545
K3 O10 2.873807 1_555
K4 O6 2.689662 1_555
K4 O8 2.699257 1_555
K4 O23 2.716603 1_565
K4 O13 2.838717 1_555
K4 O4 2.852824 1_565
K4 O22 2.873807 1_555
K5 O17 2.824257 1_555
K5 O11 2.824257 1_544
K5 O12 2.967601 1_544
K5 O0 2.967601 1_555
K5 O15 3.056391 1_555
K5 O7 3.056391 1_544
K6 O10 2.748499 1_555
K6 O22 2.798336 1_555
K6 O5 2.878425 1_455
K6 O16 2.967392 1_555
K6 O3 3.101446 1_555
K6 O18 3.179953 1_555
K6 O13 3.210270 1_555
K6 O8 3.370418 1_555
K7 O18 2.677049 1_555
K7 O14 2.717395 1_555
K7 O11 2.724690 1_545
K7 O9 2.881011 1_455
K7 O15 2.881029 1_556
K7 O21 2.942870 1_555
O0 W0 1.866234 1_554
O0 Zn0 1.938930 1_555
O1 W3 1.837847 1_555
O1 Zn0 2.012129 1_555
O2 W4 1.831164 1_555
O2 W0 2.435355 1_555
O3 W1 1.861329 1_555
O3 Zn0 1.949822 1_455
O4 W2 1.803812 1_555
O5 W2 1.848801 1_555
O5 Zn0 2.056212 1_555
O6 W5 1.809724 1_655
O7 W4 1.804056 1_555
O8 W5 1.803812 1_555
O9 W0 1.861329 1_555
O9 Zn1 1.949822 1_655
O10 W3 1.810347 1_555
O11 W5 1.812842 1_555
O12 W1 1.866234 1_556
O12 Zn1 1.938930 1_555
O13 W1 1.808066 1_555
O14 W4 1.837847 1_555
O14 Zn1 2.012129 1_555
O15 W3 1.804056 1_555
O16 W5 1.848801 1_555
O16 Zn1 2.056212 1_555
O17 W2 1.812842 1_555
O18 W2 1.809724 1_455
O19 W3 1.831164 1_555
O19 W1 2.435355 1_555
O20 W1 1.803535 1_555
O21 W0 1.808066 1_555
O22 W4 1.810347 1_555
O23 W0 1.803535 1_555
