# generated using pymatgen
data_K3GaTe3
_symmetry_space_group_name_H-M   'P 1'
_cell_length_a   13.76438590
_cell_length_b   8.65401634
_cell_length_c   11.33210358
_cell_angle_alpha   52.48041264
_cell_angle_beta   90.00000000
_cell_angle_gamma   90.00000000
_symmetry_Int_Tables_number   1
_chemical_formula_structural   K3GaTe3
_chemical_formula_sum   'K12 Ga4 Te12'
_cell_volume   1070.62597537
_cell_formula_units_Z   4
loop_
 _symmetry_equiv_pos_site_id
 _symmetry_equiv_pos_as_xyz
  1  'x, y, z'
loop_
 _atom_site_type_symbol
 _atom_site_label
 _atom_site_symmetry_multiplicity
 _atom_site_fract_x
 _atom_site_fract_y
 _atom_site_fract_z
 _atom_site_occupancy
  K  K0  1  0.90579989  0.33530371  0.39956688  1
  K  K1  1  0.40579989  0.66469629  0.10043312  1
  K  K2  1  0.09420011  0.66469629  0.60043312  1
  K  K3  1  0.59420011  0.33530371  0.89956688  1
  K  K4  1  0.18989250  0.12251318  0.59056438  1
  K  K5  1  0.68989250  0.87748682  0.90943562  1
  K  K6  1  0.81010750  0.87748682  0.40943562  1
  K  K7  1  0.31010750  0.12251318  0.09056438  1
  K  K8  1  0.61450308  0.36250287  0.47516802  1
  K  K9  1  0.11450308  0.63749713  0.02483198  1
  K  K10  1  0.38549692  0.63749713  0.52483198  1
  K  K11  1  0.88549692  0.36250287  0.97516802  1
  Ga  Ga0  1  0.93558866  0.06526963  0.83481727  1
  Ga  Ga1  1  0.43558866  0.93473037  0.66518273  1
  Ga  Ga2  1  0.06441134  0.93473037  0.16518273  1
  Ga  Ga3  1  0.56441134  0.06526963  0.33481727  1
  Te  Te0  1  0.38997571  0.16450307  0.37147437  1
  Te  Te1  1  0.88997571  0.83549693  0.12852563  1
  Te  Te2  1  0.61002429  0.83549693  0.62852563  1
  Te  Te3  1  0.11002429  0.16450307  0.87147437  1
  Te  Te4  1  0.68689368  0.35631334  0.18468365  1
  Te  Te5  1  0.18689368  0.64368666  0.31531635  1
  Te  Te6  1  0.31310632  0.64368666  0.81531635  1
  Te  Te7  1  0.81310632  0.35631334  0.68468365  1
  Te  Te8  1  0.55528570  0.86771316  0.23179662  1
  Te  Te9  1  0.05528570  0.13228684  0.26820338  1
  Te  Te10  1  0.44471430  0.13228684  0.76820338  1
  Te  Te11  1  0.94471430  0.86771316  0.73179662  1
loop_
_geom_bond_atom_site_label_1
_geom_bond_atom_site_label_2
_geom_bond_distance
_geom_bond_site_symmetry_2
K0 Te1 3.467587 1_555
K0 Te11 3.504104 1_545
K0 Te9 3.566803 1_655
K0 Te7 3.579893 1_555
K0 Te4 3.808177 1_555
K1 Te0 3.467587 1_555
K1 Te10 3.504104 1_564
K1 Te8 3.566803 1_555
K1 Te6 3.579893 1_554
K1 Te5 3.808177 1_555
K2 Te3 3.467587 1_555
K2 Te9 3.504104 1_565
K2 Te11 3.566803 1_455
K2 Te5 3.579893 1_555
K2 Te6 3.808177 1_555
K3 Te2 3.467587 1_555
K3 Te8 3.504104 1_546
K3 Te10 3.566803 1_555
K3 Te4 3.579893 1_556
K3 Te7 3.808177 1_555
K4 Te0 3.575167 1_555
K4 Te3 3.589289 1_555
K4 Te5 3.596831 1_555
K4 Te6 3.698467 1_545
K4 Te11 3.809701 1_445
K4 Te9 4.050705 1_555
K4 Te10 4.070519 1_555
K5 Te1 3.575167 1_556
K5 Te2 3.589289 1_555
K5 Te4 3.596831 1_556
K5 Te7 3.698467 1_565
K5 Te10 3.809701 1_565
K5 Te8 4.050705 1_556
K5 Te11 4.070519 1_555
K6 Te2 3.575167 1_555
K6 Te1 3.589289 1_555
K6 Te7 3.596831 1_555
K6 Te4 3.698467 1_565
K6 Te9 3.809701 1_665
K6 Te11 4.050705 1_555
K6 Te8 4.070519 1_555
K7 Te3 3.575167 1_554
K7 Te0 3.589289 1_555
K7 Te6 3.596831 1_554
K7 Te5 3.698467 1_545
K7 Te8 3.809701 1_545
K7 Te10 4.050705 1_554
K7 Te9 4.070519 1_555
K8 Te4 3.470795 1_555
K8 Te10 3.521303 1_555
K8 Te8 3.563486 1_555
K8 Te7 3.599707 1_555
K8 Te2 3.764286 1_545
K8 Te0 4.039858 1_555
K9 Te5 3.470795 1_555
K9 Te11 3.521303 1_454
K9 Te9 3.563486 1_555
K9 Te6 3.599707 1_554
K9 Te3 3.764286 1_564
K9 Te1 4.039858 1_455
K10 Te6 3.470795 1_555
K10 Te8 3.521303 1_555
K10 Te10 3.563486 1_555
K10 Te5 3.599707 1_555
K10 Te0 3.764286 1_565
K10 Te2 4.039858 1_555
K11 Te7 3.470795 1_555
K11 Te9 3.521303 1_656
K11 Te11 3.563486 1_555
K11 Te4 3.599707 1_556
K11 Te1 3.764286 1_546
K11 Te3 4.039858 1_655
Ga0 Te11 2.594761 1_545
Ga0 Te7 2.619356 1_555
Ga0 Te3 2.666339 1_655
Ga0 Te1 2.713758 1_546
Ga0 K5 3.622023 1_545
Ga1 Te10 2.594761 1_565
Ga1 Te6 2.619356 1_555
Ga1 Te2 2.666339 1_555
Ga1 Te0 2.713758 1_565
Ga1 K4 3.622023 1_565
Ga2 Te9 2.594761 1_565
Ga2 Te5 2.619356 1_555
Ga2 Te1 2.666339 1_455
Ga2 Te3 2.713758 1_564
Ga2 K7 3.622023 1_565
Ga3 Te8 2.594761 1_545
Ga3 Te4 2.619356 1_555
Ga3 Te0 2.666339 1_555
Ga3 Te2 2.713758 1_545
Ga3 K6 3.622023 1_545
