# generated using pymatgen
data_FeP(H2O3)2
_symmetry_space_group_name_H-M   'P 1'
_cell_length_a   9.92120000
_cell_length_b   5.36373400
_cell_length_c   10.30067895
_cell_angle_alpha   59.06278090
_cell_angle_beta   90.00000000
_cell_angle_gamma   90.00000000
_symmetry_Int_Tables_number   1
_chemical_formula_structural   FeP(H2O3)2
_chemical_formula_sum   'Fe4 P4 H16 O24'
_cell_volume   470.16301274
_cell_formula_units_Z   4
loop_
 _symmetry_equiv_pos_site_id
 _symmetry_equiv_pos_as_xyz
  1  'x, y, z'
loop_
 _atom_site_type_symbol
 _atom_site_label
 _atom_site_symmetry_multiplicity
 _atom_site_fract_x
 _atom_site_fract_y
 _atom_site_fract_z
 _atom_site_occupancy
  Fe  Fe0  1  0.82638700  0.90161800  0.19074000  1
  Fe  Fe1  1  0.32638700  0.09838200  0.30926000  1
  Fe  Fe2  1  0.17361300  0.09838200  0.80926000  1
  Fe  Fe3  1  0.67361300  0.90161800  0.69074000  1
  P  P0  1  0.14909600  0.72713300  0.18449700  1
  P  P1  1  0.64909600  0.27286700  0.31550300  1
  P  P2  1  0.85090400  0.27286700  0.81550300  1
  P  P3  1  0.35090400  0.72713300  0.68449700  1
  H  H0  1  0.44940900  0.59770400  0.32790500  1
  H  H1  1  0.94940900  0.40229600  0.17209500  1
  H  H2  1  0.55059100  0.40229600  0.67209500  1
  H  H3  1  0.05059100  0.59770400  0.82790500  1
  H  H4  1  0.33137000  0.25593300  0.01221900  1
  H  H5  1  0.83137000  0.74406700  0.48778100  1
  H  H6  1  0.66863000  0.74406700  0.98778100  1
  H  H7  1  0.16863000  0.25593300  0.51221900  1
  H  H8  1  0.54427000  0.87714500  0.28248900  1
  H  H9  1  0.04427000  0.12285500  0.21751100  1
  H  H10  1  0.45573000  0.12285500  0.71751100  1
  H  H11  1  0.95573000  0.87714500  0.78248900  1
  H  H12  1  0.34763800  0.54225200  0.01761700  1
  H  H13  1  0.84763800  0.45774800  0.48238300  1
  H  H14  1  0.65236200  0.45774800  0.98238300  1
  H  H15  1  0.15236200  0.54225200  0.51761700  1
  O  O0  1  0.70629000  0.58331400  0.21649700  1
  O  O1  1  0.20629000  0.41668600  0.28350300  1
  O  O2  1  0.29371000  0.41668600  0.78350300  1
  O  O3  1  0.79371000  0.58331400  0.71649700  1
  O  O4  1  0.99380100  0.70909700  0.16860600  1
  O  O5  1  0.49380100  0.29090300  0.33139400  1
  O  O6  1  0.00619900  0.29090300  0.83139400  1
  O  O7  1  0.50619900  0.70909700  0.66860600  1
  O  O8  1  0.67412400  0.10021700  0.23343200  1
  O  O9  1  0.17412400  0.89978300  0.26656800  1
  O  O10  1  0.32587600  0.89978300  0.76656800  1
  O  O11  1  0.82587600  0.10021700  0.73343200  1
  O  O12  1  0.77961900  0.11936100  0.97149500  1
  O  O13  1  0.27961900  0.88063900  0.52850500  1
  O  O14  1  0.22038100  0.88063900  0.02850500  1
  O  O15  1  0.72038100  0.11936100  0.47149500  1
  O  O16  1  0.36617000  0.33253500  0.07449200  1
  O  O17  1  0.86617000  0.66746500  0.42550800  1
  O  O18  1  0.63383000  0.66746500  0.92550800  1
  O  O19  1  0.13383000  0.33253500  0.57449200  1
  O  O20  1  0.95314900  0.20970300  0.17892900  1
  O  O21  1  0.45314900  0.79029700  0.32107100  1
  O  O22  1  0.04685100  0.79029700  0.82107100  1
  O  O23  1  0.54685100  0.20970300  0.67892900  1
loop_
_geom_bond_atom_site_label_1
_geom_bond_atom_site_label_2
_geom_bond_distance
_geom_bond_site_symmetry_2
Fe0 O0 1.984742 1_555
Fe0 O12 1.991884 1_564
Fe0 O8 2.022811 1_565
Fe0 O4 2.029564 1_555
Fe0 O20 2.029885 1_565
Fe0 O17 2.111482 1_555
Fe1 O1 1.984742 1_555
Fe1 O13 1.991884 1_545
Fe1 O9 2.022811 1_545
Fe1 O5 2.029564 1_555
Fe1 O21 2.029885 1_545
Fe1 O16 2.111482 1_555
Fe2 O2 1.984742 1_555
Fe2 O14 1.991884 1_546
Fe2 O10 2.022811 1_545
Fe2 O6 2.029564 1_555
Fe2 O22 2.029885 1_545
Fe2 O19 2.111482 1_555
Fe3 O3 1.984742 1_555
Fe3 O15 1.991884 1_565
Fe3 O11 2.022811 1_565
Fe3 O7 2.029564 1_555
Fe3 O23 2.029885 1_565
Fe3 O18 2.111482 1_555
H0 O21 0.999344 1_555
H0 O5 1.685957 1_555
H1 O20 0.999344 1_555
H1 O4 1.685957 1_555
H2 O23 0.999344 1_555
H2 O7 1.685957 1_555
H3 O22 0.999344 1_555
H3 O6 1.685957 1_555
H4 O16 0.985125 1_555
H5 O17 0.985125 1_555
H6 O18 0.985125 1_555
H7 O19 0.985125 1_555
H8 O21 1.000929 1_555
H8 O8 1.650767 1_565
H9 O20 1.000929 1_455
H9 O9 1.650767 1_545
H10 O23 1.000929 1_555
H10 O10 1.650767 1_545
H11 O22 1.000929 1_655
H11 O11 1.650767 1_565
H12 O16 0.982224 1_555
H13 O17 0.982224 1_555
H14 O18 0.982224 1_555
H15 O19 0.982224 1_555
O0 P1 1.545547 1_555
O1 P0 1.545547 1_555
O2 P3 1.545547 1_555
O3 P2 1.545547 1_555
O4 P0 1.557636 1_655
O5 P1 1.557636 1_555
O6 P2 1.557636 1_455
O7 P3 1.557636 1_555
O8 P1 1.561681 1_555
O9 P0 1.561681 1_555
O10 P3 1.561681 1_555
O11 P2 1.561681 1_555
O12 P2 1.549091 1_555
O13 P3 1.549091 1_555
O14 P0 1.549091 1_555
O15 P1 1.549091 1_555
