# generated using pymatgen
data_Nd(CoP)2
_symmetry_space_group_name_H-M   'P 1'
_cell_length_a   3.88742664
_cell_length_b   3.88742623
_cell_length_c   5.60209005
_cell_angle_alpha   110.30161698
_cell_angle_beta   110.30161072
_cell_angle_gamma   90.00000445
_symmetry_Int_Tables_number   1
_chemical_formula_structural   Nd(CoP)2
_chemical_formula_sum   'Nd1 Co2 P2'
_cell_volume   73.76705689
_cell_formula_units_Z   1
loop_
 _symmetry_equiv_pos_site_id
 _symmetry_equiv_pos_as_xyz
  1  'x, y, z'
loop_
 _atom_site_type_symbol
 _atom_site_label
 _atom_site_symmetry_multiplicity
 _atom_site_fract_x
 _atom_site_fract_y
 _atom_site_fract_z
 _atom_site_occupancy
  Nd  Nd0  1  0.00000000  0.00000000  -0.00000000  1
  Co  Co0  1  0.25000000  0.75000000  0.50000000  1
  Co  Co1  1  0.75000000  0.25000000  0.50000000  1
  P  P0  1  0.63797869  0.63797869  0.27595638  1
  P  P1  1  0.36202131  0.36202131  0.72404362  1
loop_
_geom_bond_atom_site_label_1
_geom_bond_atom_site_label_2
_geom_bond_distance
_geom_bond_site_symmetry_2
Nd0 P1 3.061132 1_554
Nd0 P0 3.061132 1_445
Nd0 P1 3.061134 1_544
Nd0 P0 3.061134 1_455
Nd0 P1 3.061134 1_454
Nd0 P0 3.061134 1_545
Nd0 P0 3.061137 1_555
Nd0 P1 3.061137 1_444
Co0 P1 2.230256 1_565
Co0 P0 2.230256 1_455
Co0 P1 2.230259 1_555
Co0 P0 2.230259 1_555
Co0 Nd0 3.120074 1_566
Co0 Nd0 3.120074 1_555
Co0 Nd0 3.120074 1_565
Co0 Nd0 3.120075 1_666
Co1 P0 2.230256 1_545
Co1 P1 2.230256 1_655
Co1 P0 2.230259 1_555
Co1 P1 2.230259 1_555
Co1 Nd0 3.120074 1_655
Co1 Nd0 3.120074 1_666
Co1 Nd0 3.120074 1_656
Co1 Nd0 3.120075 1_555
