# generated using pymatgen
data_K3NdSi7O17
_symmetry_space_group_name_H-M   'P 1'
_cell_length_a   16.36775284
_cell_length_b   16.36775284
_cell_length_c   7.27978000
_cell_angle_alpha   90.00000000
_cell_angle_beta   90.00000000
_cell_angle_gamma   120.00000338
_symmetry_Int_Tables_number   1
_chemical_formula_structural   K3NdSi7O17
_chemical_formula_sum   'K12 Nd4 Si28 O68'
_cell_volume   1688.98965015
_cell_formula_units_Z   4
loop_
 _symmetry_equiv_pos_site_id
 _symmetry_equiv_pos_as_xyz
  1  'x, y, z'
loop_
 _atom_site_type_symbol
 _atom_site_label
 _atom_site_symmetry_multiplicity
 _atom_site_fract_x
 _atom_site_fract_y
 _atom_site_fract_z
 _atom_site_occupancy
  K  K0  1  0.36611300  0.90472700  0.46775100  1
  K  K1  1  0.24297400  0.00396400  0.12220100  1
  K  K2  1  0.75702600  0.99603600  0.87779900  1
  K  K3  1  0.90472700  0.53861400  0.53224900  1
  K  K4  1  0.23901000  0.24297400  0.87779900  1
  K  K5  1  0.76099000  0.75702600  0.12220100  1
  K  K6  1  0.99603600  0.23901000  0.12220100  1
  K  K7  1  0.09527300  0.46138600  0.46775100  1
  K  K8  1  0.63388700  0.09527300  0.53224900  1
  K  K9  1  0.53861400  0.63388700  0.46775100  1
  K  K10  1  0.46138600  0.36611300  0.53224900  1
  K  K11  1  0.00396400  0.76099000  0.87779900  1
  Nd  Nd0  1  0.00000000  0.00000000  0.00000000  1
  Nd  Nd1  1  0.00000000  0.50000000  0.00000000  1
  Nd  Nd2  1  0.50000000  0.00000000  0.00000000  1
  Nd  Nd3  1  0.50000000  0.50000000  0.00000000  1
  Si  Si0  1  0.61961000  0.90640000  0.30169400  1
  Si  Si1  1  0.74826100  0.20872700  0.97892900  1
  Si  Si2  1  0.20872700  0.46046600  0.02107100  1
  Si  Si3  1  0.09360000  0.71321000  0.30169400  1
  Si  Si4  1  0.71321000  0.61961000  0.69830600  1
  Si  Si5  1  0.53953400  0.74826100  0.02107100  1
  Si  Si6  1  0.69292500  0.52568100  0.32576500  1
  Si  Si7  1  0.30707500  0.47431900  0.67423500  1
  Si  Si8  1  0.99191000  0.15605400  0.62182100  1
  Si  Si9  1  0.79127300  0.53953400  0.97892900  1
  Si  Si10  1  0.33333300  0.66666700  0.13343000  1
  Si  Si11  1  0.52568100  0.83275600  0.67423500  1
  Si  Si12  1  0.28679000  0.38039000  0.30169400  1
  Si  Si13  1  0.66666700  0.33333300  0.42383600  1
  Si  Si14  1  0.84394600  0.83585600  0.62182100  1
  Si  Si15  1  0.83585600  0.99191000  0.37817900  1
  Si  Si16  1  0.16724400  0.69292500  0.67423500  1
  Si  Si17  1  0.15605400  0.16414400  0.37817900  1
  Si  Si18  1  0.46046600  0.25173900  0.97892900  1
  Si  Si19  1  0.33333300  0.66666700  0.57616400  1
  Si  Si20  1  0.83275600  0.30707500  0.32576500  1
  Si  Si21  1  0.47431900  0.16724400  0.32576500  1
  Si  Si22  1  0.25173900  0.79127300  0.02107100  1
  Si  Si23  1  0.90640000  0.28679000  0.69830600  1
  Si  Si24  1  0.66666700  0.33333300  0.86657000  1
  Si  Si25  1  0.38039000  0.09360000  0.69830600  1
  Si  Si26  1  0.16414400  0.00809000  0.62182100  1
  Si  Si27  1  0.00809000  0.84394600  0.37817900  1
  O  O0  1  0.59076300  0.22803600  0.35287300  1
  O  O1  1  0.37494000  0.15625300  0.87338100  1
  O  O2  1  0.36272700  0.59076300  0.64712700  1
  O  O3  1  0.07039900  0.18142100  0.45625600  1
  O  O4  1  0.25131800  0.27015700  0.36205300  1
  O  O5  1  0.74468300  0.30616400  0.93566300  1
  O  O6  1  0.34375200  0.88512600  0.08184600  1
  O  O7  1  0.57105500  0.83064500  0.47271300  1
  O  O8  1  0.01883900  0.74868200  0.36205300  1
  O  O9  1  0.81857900  0.88897800  0.45625600  1
  O  O10  1  0.11487400  0.45862600  0.08184600  1
  O  O11  1  0.25531700  0.69383600  0.06433700  1
  O  O12  1  0.84374700  0.21868700  0.87338100  1
  O  O13  1  0.11073400  0.98048200  0.81638600  1
  O  O14  1  0.93314700  0.37869300  0.24075300  1
  O  O15  1  0.56148100  0.25531700  0.93566300  1
  O  O16  1  0.55924900  0.77063000  0.79967400  1
  O  O17  1  0.44075100  0.22937000  0.20032600  1
  O  O18  1  0.92960100  0.81857900  0.54374400  1
  O  O19  1  0.86974800  0.88926600  0.81638600  1
  O  O20  1  0.21138100  0.44075100  0.79967400  1
  O  O21  1  0.03939200  0.60317000  0.25550300  1
  O  O22  1  0.27015700  0.01883900  0.63794700  1
  O  O23  1  0.11102200  0.92960100  0.45625600  1
  O  O24  1  0.44554600  0.06685300  0.24075300  1
  O  O25  1  0.78861900  0.55924900  0.20032600  1
  O  O26  1  0.65624800  0.11487400  0.91815400  1
  O  O27  1  0.77196400  0.36272700  0.35287300  1
  O  O28  1  0.88926600  0.01951800  0.18361400  1
  O  O29  1  0.74041000  0.57105500  0.52728700  1
  O  O30  1  0.43622200  0.03939200  0.74449700  1
  O  O31  1  0.30616400  0.56148100  0.06433700  1
  O  O32  1  0.45862600  0.34375200  0.91815400  1
  O  O33  1  0.42894500  0.16935500  0.52728700  1
  O  O34  1  0.22803600  0.63727300  0.64712700  1
  O  O35  1  0.83064500  0.25959000  0.52728700  1
  O  O36  1  0.06685300  0.62130700  0.75924700  1
  O  O37  1  0.96060800  0.39683000  0.74449700  1
  O  O38  1  0.22937000  0.78861900  0.79967400  1
  O  O39  1  0.55445400  0.93314700  0.75924700  1
  O  O40  1  0.21868700  0.37494000  0.12661900  1
  O  O41  1  0.18142100  0.11102200  0.54374400  1
  O  O42  1  0.16935500  0.74041000  0.47271300  1
  O  O43  1  0.63727300  0.40923700  0.35287300  1
  O  O44  1  0.98048200  0.86974800  0.18361400  1
  O  O45  1  0.54137400  0.65624800  0.08184600  1
  O  O46  1  0.25959000  0.42894500  0.47271300  1
  O  O47  1  0.39683000  0.43622200  0.25550300  1
  O  O48  1  0.01951800  0.13025200  0.81638600  1
  O  O49  1  0.88512600  0.54137400  0.91815400  1
  O  O50  1  0.72984300  0.98116100  0.36205300  1
  O  O51  1  0.77063000  0.21138100  0.20032600  1
  O  O52  1  0.37869300  0.44554600  0.75924700  1
  O  O53  1  0.43851900  0.74468300  0.06433700  1
  O  O54  1  0.33333300  0.66666700  0.35523100  1
  O  O55  1  0.40923700  0.77196400  0.64712700  1
  O  O56  1  0.15625300  0.78131300  0.12661900  1
  O  O57  1  0.78131300  0.62506000  0.87338100  1
  O  O58  1  0.13025200  0.11073400  0.18361400  1
  O  O59  1  0.56377800  0.96060800  0.25550300  1
  O  O60  1  0.66666700  0.33333300  0.64476900  1
  O  O61  1  0.62130700  0.55445400  0.24075300  1
  O  O62  1  0.62506000  0.84374700  0.12661900  1
  O  O63  1  0.69383600  0.43851900  0.93566300  1
  O  O64  1  0.98116100  0.25131800  0.63794700  1
  O  O65  1  0.88897800  0.07039900  0.54374400  1
  O  O66  1  0.60317000  0.56377800  0.74449700  1
  O  O67  1  0.74868200  0.72984300  0.63794700  1
loop_
_geom_bond_atom_site_label_1
_geom_bond_atom_site_label_2
_geom_bond_distance
_geom_bond_site_symmetry_2
K0 O30 2.775722 1_565
K0 O6 2.830486 1_555
K0 O24 2.830689 1_565
K0 O55 2.908481 1_555
K0 O42 2.990777 1_555
K0 O38 3.194714 1_555
K0 O22 3.228593 1_565
K0 O59 3.275997 1_555
K1 O1 2.962381 1_554
K1 O13 2.992827 1_544
K1 O24 3.063486 1_555
K1 O23 3.071016 1_545
K1 O6 3.130355 1_545
K1 O58 3.143609 1_555
K1 O56 3.181806 1_545
K2 O62 2.962381 1_556
K2 O28 2.992827 1_566
K2 O39 3.063486 1_555
K2 O65 3.071016 1_565
K2 O26 3.130355 1_565
K2 O19 3.143609 1_555
K2 O12 3.181806 1_565
K3 O21 2.775722 1_655
K3 O49 2.830486 1_555
K3 O36 2.830689 1_655
K3 O27 2.908481 1_555
K3 O29 2.990777 1_555
K3 O25 3.194714 1_555
K3 O8 3.228593 1_655
K3 O37 3.275997 1_555
K4 O40 2.962381 1_556
K4 O58 2.992827 1_556
K4 O52 3.063486 1_555
K4 O41 3.071016 1_555
K4 O32 3.130355 1_555
K4 O48 3.143609 1_555
K4 O1 3.181806 1_555
K5 O57 2.962381 1_554
K5 O19 2.992827 1_554
K5 O61 3.063486 1_555
K5 O9 3.071016 1_555
K5 O45 3.130355 1_555
K5 O44 3.143609 1_555
K5 O62 3.181806 1_555
K6 O12 2.962381 1_554
K6 O48 2.992827 1_654
K6 O14 3.063486 1_555
K6 O3 3.071016 1_655
K6 O10 3.130355 1_655
K6 O28 3.143609 1_555
K6 O40 3.181806 1_655
K7 O37 2.775722 1_455
K7 O10 2.830486 1_555
K7 O14 2.830689 1_455
K7 O34 2.908481 1_555
K7 O46 2.990777 1_555
K7 O20 3.194714 1_555
K7 O64 3.228593 1_455
K7 O21 3.275997 1_555
K8 O59 2.775722 1_545
K8 O26 2.830486 1_555
K8 O39 2.830689 1_545
K8 O0 2.908481 1_555
K8 O35 2.990777 1_555
K8 O51 3.194714 1_555
K8 O50 3.228593 1_545
K8 O30 3.275997 1_555
K9 O66 2.775722 1_555
K9 O45 2.830486 1_555
K9 O61 2.830689 1_555
K9 O2 2.908481 1_555
K9 O7 2.990777 1_555
K9 O16 3.194714 1_555
K9 O67 3.228593 1_555
K9 O47 3.275997 1_555
K10 O47 2.775722 1_555
K10 O32 2.830486 1_555
K10 O52 2.830689 1_555
K10 O43 2.908481 1_555
K10 O33 2.990777 1_555
K10 O17 3.194714 1_555
K10 O4 3.228593 1_555
K10 O66 3.275997 1_555
K11 O56 2.962381 1_556
K11 O44 2.992827 1_456
K11 O36 3.063486 1_555
K11 O18 3.071016 1_455
K11 O49 3.130355 1_455
K11 O13 3.143609 1_555
K11 O57 3.181806 1_455
Nd0 O58 2.398500 1_555
Nd0 O19 2.398500 1_444
Nd0 O44 2.398500 1_445
Nd0 O48 2.398500 1_554
Nd0 O28 2.398500 1_455
Nd0 O13 2.398500 1_544
Nd1 O10 2.371108 1_555
Nd1 O49 2.371108 1_454
Nd1 O21 2.374475 1_555
Nd1 O37 2.374475 1_454
Nd1 O14 2.457383 1_455
Nd1 O36 2.457383 1_554
Nd2 O6 2.371108 1_545
Nd2 O26 2.371108 1_554
Nd2 O59 2.374475 1_545
Nd2 O30 2.374475 1_554
Nd2 O24 2.457383 1_555
Nd2 O39 2.457383 1_544
Nd3 O32 2.371108 1_554
Nd3 O45 2.371108 1_555
Nd3 O47 2.374475 1_555
Nd3 O66 2.374475 1_554
Nd3 O52 2.457383 1_554
Nd3 O61 2.457383 1_555
O0 Si13 1.624664 1_555
O0 Si21 1.662868 1_555
O1 Si25 1.665963 1_555
O1 Si18 1.674755 1_555
O2 Si19 1.624675 1_555
O2 Si7 1.662868 1_555
O3 Si8 1.655930 1_455
O3 Si17 1.662839 1_555
O4 Si12 1.654688 1_555
O4 Si17 1.658418 1_555
O5 Si24 1.627633 1_555
O5 Si1 1.655143 1_555
O6 Si22 1.584355 1_555
O7 Si11 1.652455 1_555
O7 Si0 1.653362 1_555
O8 Si3 1.654688 1_555
O8 Si27 1.658418 1_555
O9 Si14 1.655930 1_555
O9 Si15 1.662839 1_555
O10 Si2 1.584355 1_555
O11 Si10 1.627633 1_555
O11 Si22 1.655143 1_555
O12 Si23 1.665963 1_555
O12 Si1 1.674755 1_555
O13 Si26 1.606098 1_565
O14 Si20 1.590900 1_555
O15 Si24 1.627644 1_555
O15 Si18 1.655143 1_555
O16 Si5 1.648539 1_556
O16 Si11 1.651805 1_555
O17 Si18 1.648539 1_554
O17 Si21 1.651805 1_555
O18 Si27 1.655930 1_655
O18 Si14 1.662839 1_555
O19 Si14 1.606098 1_555
O20 Si2 1.648539 1_556
O20 Si7 1.651805 1_555
O21 Si3 1.595694 1_555
O22 Si25 1.654688 1_555
O22 Si26 1.658418 1_555
O23 Si26 1.655930 1_565
O23 Si27 1.662839 1_555
O24 Si21 1.590900 1_555
O25 Si9 1.648539 1_554
O25 Si6 1.651805 1_555
O26 Si1 1.584355 1_555
O27 Si13 1.624660 1_555
O27 Si20 1.662868 1_555
O28 Si15 1.606098 1_545
O29 Si6 1.652455 1_555
O29 Si4 1.653362 1_555
O30 Si25 1.595694 1_555
O31 Si10 1.627648 1_555
O31 Si2 1.655143 1_555
O32 Si18 1.584355 1_555
O33 Si21 1.652455 1_555
O33 Si25 1.653362 1_555
O34 Si19 1.624660 1_555
O34 Si16 1.662868 1_555
O35 Si20 1.652455 1_555
O35 Si23 1.653362 1_555
O36 Si16 1.590900 1_555
O37 Si23 1.595694 1_555
O38 Si22 1.648539 1_556
O38 Si16 1.651805 1_555
O39 Si11 1.590900 1_555
O40 Si12 1.665963 1_555
O40 Si2 1.674755 1_555
O41 Si17 1.655930 1_555
O41 Si26 1.662839 1_555
O42 Si16 1.652455 1_555
O42 Si3 1.653362 1_555
O43 Si13 1.624675 1_555
O43 Si6 1.662868 1_555
O44 Si27 1.606098 1_655
O45 Si5 1.584355 1_555
O46 Si7 1.652455 1_555
O46 Si12 1.653362 1_555
O47 Si12 1.595694 1_555
O48 Si8 1.606098 1_455
O49 Si9 1.584355 1_555
O50 Si0 1.654688 1_555
O50 Si15 1.658418 1_555
O51 Si1 1.648539 1_554
O51 Si20 1.651805 1_555
O52 Si7 1.590900 1_555
O53 Si10 1.627644 1_555
O53 Si5 1.655143 1_555
O54 Si19 1.608344 1_555
O54 Si10 1.614662 1_555
O55 Si19 1.624664 1_555
O55 Si11 1.662868 1_555
O56 Si3 1.665963 1_555
O56 Si22 1.674755 1_555
O57 Si4 1.665963 1_555
O57 Si9 1.674755 1_555
O58 Si17 1.606098 1_555
O59 Si0 1.595694 1_555
O60 Si13 1.608344 1_555
O60 Si24 1.614662 1_555
O61 Si6 1.590900 1_555
O62 Si0 1.665963 1_555
O62 Si5 1.674755 1_555
O63 Si24 1.627648 1_555
O63 Si9 1.655143 1_555
O64 Si23 1.654688 1_555
O64 Si8 1.658418 1_555
O65 Si15 1.655930 1_545
O65 Si8 1.662839 1_555
O66 Si4 1.595694 1_555
O67 Si4 1.654688 1_555
O67 Si14 1.658418 1_555
