# generated using pymatgen
data_MgB2P2H8O13
_symmetry_space_group_name_H-M   'P 1'
_cell_length_a   14.82632600
_cell_length_b   7.80768400
_cell_length_c   8.34547817
_cell_angle_alpha   89.54671516
_cell_angle_beta   90.00000000
_cell_angle_gamma   90.00000000
_symmetry_Int_Tables_number   1
_chemical_formula_structural   MgB2P2H8O13
_chemical_formula_sum   'Mg4 B8 P8 H32 O52'
_cell_volume   966.03621363
_cell_formula_units_Z   4
loop_
 _symmetry_equiv_pos_site_id
 _symmetry_equiv_pos_as_xyz
  1  'x, y, z'
loop_
 _atom_site_type_symbol
 _atom_site_label
 _atom_site_symmetry_multiplicity
 _atom_site_fract_x
 _atom_site_fract_y
 _atom_site_fract_z
 _atom_site_occupancy
  Mg  Mg0  1  0.46431600  0.24920200  0.20004600  1
  Mg  Mg1  1  0.96431600  0.75079800  0.29995400  1
  Mg  Mg2  1  0.53568400  0.75079800  0.79995400  1
  Mg  Mg3  1  0.03568400  0.24920200  0.70004600  1
  B  B0  1  0.71731100  0.91642300  0.93923800  1
  B  B1  1  0.21731100  0.08357700  0.56076200  1
  B  B2  1  0.28268900  0.08357700  0.06076200  1
  B  B3  1  0.78268900  0.91642300  0.43923800  1
  B  B4  1  0.66433500  0.41668800  0.22669900  1
  B  B5  1  0.16433500  0.58331200  0.27330100  1
  B  B6  1  0.33566500  0.58331200  0.77330100  1
  B  B7  1  0.83566500  0.41668800  0.72669900  1
  P  P0  1  0.71304500  0.56667000  0.93394300  1
  P  P1  1  0.21304500  0.43333000  0.56605700  1
  P  P2  1  0.28695500  0.43333000  0.06605700  1
  P  P3  1  0.78695500  0.56667000  0.43394300  1
  P  P4  1  0.83903500  0.06536400  0.72521600  1
  P  P5  1  0.33903500  0.93463600  0.77478400  1
  P  P6  1  0.16096500  0.93463600  0.27478400  1
  P  P7  1  0.66096500  0.06536400  0.22521600  1
  H  H0  1  0.13285400  0.95916300  0.72469900  1
  H  H1  1  0.63285400  0.04083700  0.77530100  1
  H  H2  1  0.86714600  0.04083700  0.27530100  1
  H  H3  1  0.36714600  0.95916300  0.22469900  1
  H  H4  1  0.55029100  0.54805300  0.16386700  1
  H  H5  1  0.05029100  0.45194700  0.33613300  1
  H  H6  1  0.44970900  0.45194700  0.83613300  1
  H  H7  1  0.94970900  0.54805300  0.66386700  1
  H  H8  1  0.99281700  0.24496400  0.02070700  1
  H  H9  1  0.49281700  0.75503600  0.47929300  1
  H  H10  1  0.00718300  0.75503600  0.97929300  1
  H  H11  1  0.50718300  0.24496400  0.52070700  1
  H  H12  1  0.09806200  0.20974200  0.00906300  1
  H  H13  1  0.59806200  0.79025800  0.49093700  1
  H  H14  1  0.90193800  0.79025800  0.99093700  1
  H  H15  1  0.40193800  0.20974200  0.50906300  1
  H  H16  1  0.94883800  0.27649200  0.42007200  1
  H  H17  1  0.44883800  0.72350800  0.07992800  1
  H  H18  1  0.05116200  0.72350800  0.57992800  1
  H  H19  1  0.55116200  0.27649200  0.92007200  1
  H  H20  1  0.02780600  0.14583300  0.38334100  1
  H  H21  1  0.52780600  0.85416700  0.11665900  1
  H  H22  1  0.97219400  0.85416700  0.61665900  1
  H  H23  1  0.47219400  0.14583300  0.88334100  1
  H  H24  1  0.84212400  0.23046200  0.07199300  1
  H  H25  1  0.34212400  0.76953800  0.42800700  1
  H  H26  1  0.15787600  0.76953800  0.92800700  1
  H  H27  1  0.65787600  0.23046200  0.57199300  1
  H  H28  1  0.88271600  0.35870300  0.19353000  1
  H  H29  1  0.38271600  0.64129700  0.30647000  1
  H  H30  1  0.11728400  0.64129700  0.80647000  1
  H  H31  1  0.61728400  0.35870300  0.69353000  1
  O  O0  1  0.93956900  0.04410600  0.69812500  1
  O  O1  1  0.43956900  0.95589400  0.80187500  1
  O  O2  1  0.06043100  0.95589400  0.30187500  1
  O  O3  1  0.56043100  0.04410600  0.19812500  1
  O  O4  1  0.80315900  0.54533200  0.84140400  1
  O  O5  1  0.30315900  0.45466800  0.65859600  1
  O  O6  1  0.19684100  0.45466800  0.15859600  1
  O  O7  1  0.69684100  0.54533200  0.34140400  1
  O  O8  1  0.62914500  0.54893300  0.82994400  1
  O  O9  1  0.12914500  0.45106700  0.67005600  1
  O  O10  1  0.37085500  0.45106700  0.17005600  1
  O  O11  1  0.87085500  0.54893300  0.32994400  1
  O  O12  1  0.78216500  0.04664300  0.56904000  1
  O  O13  1  0.28216500  0.95335700  0.93096000  1
  O  O14  1  0.21783500  0.95335700  0.43096000  1
  O  O15  1  0.71783500  0.04664300  0.06904000  1
  O  O16  1  0.80616700  0.93560800  0.85525600  1
  O  O17  1  0.30616700  0.06439200  0.64474400  1
  O  O18  1  0.19383300  0.06439200  0.14474400  1
  O  O19  1  0.69383300  0.93560800  0.35525600  1
  O  O20  1  0.78445500  0.43305700  0.57295900  1
  O  O21  1  0.28445500  0.56694300  0.92704100  1
  O  O22  1  0.21554500  0.56694300  0.42704100  1
  O  O23  1  0.71554500  0.43305700  0.07295900  1
  O  O24  1  0.21750600  0.25390800  0.48495800  1
  O  O25  1  0.71750600  0.74609200  0.01504200  1
  O  O26  1  0.78249400  0.74609200  0.51504200  1
  O  O27  1  0.28249400  0.25390800  0.98495800  1
  O  O28  1  0.81508800  0.24522100  0.79366000  1
  O  O29  1  0.31508800  0.75477900  0.70634000  1
  O  O30  1  0.18491200  0.75477900  0.20634000  1
  O  O31  1  0.68491200  0.24522100  0.29366000  1
  O  O32  1  0.13882000  0.06848800  0.66548500  1
  O  O33  1  0.63882000  0.93151200  0.83451500  1
  O  O34  1  0.86118000  0.93151200  0.33451500  1
  O  O35  1  0.36118000  0.06848800  0.16548500  1
  O  O36  1  0.56758100  0.43325000  0.20466200  1
  O  O37  1  0.06758100  0.56675000  0.29533800  1
  O  O38  1  0.43241900  0.56675000  0.79533800  1
  O  O39  1  0.93241900  0.43325000  0.70466200  1
  O  O40  1  0.04501700  0.24193900  0.94627100  1
  O  O41  1  0.54501700  0.75806100  0.55372900  1
  O  O42  1  0.95498300  0.75806100  0.05372900  1
  O  O43  1  0.45498300  0.24193900  0.44627100  1
  O  O44  1  0.01302700  0.25657900  0.43824700  1
  O  O45  1  0.51302700  0.74342100  0.06175300  1
  O  O46  1  0.98697300  0.74342100  0.56175300  1
  O  O47  1  0.48697300  0.25657900  0.93824700  1
  O  O48  1  0.89298400  0.24425200  0.14597700  1
  O  O49  1  0.39298400  0.75574800  0.35402300  1
  O  O50  1  0.10701600  0.75574800  0.85402300  1
  O  O51  1  0.60701600  0.24425200  0.64597700  1
loop_
_geom_bond_atom_site_label_1
_geom_bond_atom_site_label_2
_geom_bond_distance
_geom_bond_site_symmetry_2
Mg0 O43 2.059852 1_555
Mg0 O36 2.100329 1_555
Mg0 O35 2.102062 1_555
Mg0 O10 2.112014 1_555
Mg0 O3 2.143740 1_555
Mg0 O47 2.210811 1_554
Mg1 O42 2.059852 1_555
Mg1 O37 2.100329 1_655
Mg1 O34 2.102062 1_555
Mg1 O11 2.112014 1_555
Mg1 O2 2.143740 1_655
Mg1 O46 2.210811 1_555
Mg2 O41 2.059852 1_555
Mg2 O38 2.100329 1_555
Mg2 O33 2.102062 1_555
Mg2 O8 2.112014 1_555
Mg2 O1 2.143740 1_555
Mg2 O45 2.210811 1_556
Mg3 O40 2.059852 1_555
Mg3 O39 2.100329 1_455
Mg3 O32 2.102062 1_555
Mg3 O9 2.112014 1_555
Mg3 O0 2.143740 1_455
Mg3 O44 2.210811 1_555
B0 O33 1.459567 1_555
B0 O25 1.468167 1_556
B0 O15 1.491526 1_566
B0 O16 1.499186 1_555
B1 O32 1.459567 1_555
B1 O24 1.468167 1_555
B1 O14 1.491526 1_545
B1 O17 1.499186 1_555
B2 O35 1.459567 1_555
B2 O27 1.468167 1_554
B2 O13 1.491526 1_544
B2 O18 1.499186 1_555
B3 O34 1.459567 1_555
B3 O26 1.468167 1_555
B3 O12 1.491526 1_565
B3 O19 1.499186 1_555
B4 O36 1.451887 1_555
B4 O7 1.474004 1_555
B4 O31 1.478444 1_555
B4 O23 1.495455 1_555
B5 O37 1.451887 1_555
B5 O6 1.474004 1_555
B5 O30 1.478444 1_555
B5 O22 1.495455 1_555
B6 O38 1.451887 1_555
B6 O5 1.474004 1_555
B6 O29 1.478444 1_555
B6 O21 1.495455 1_555
B7 O39 1.451887 1_555
B7 O4 1.474004 1_555
B7 O28 1.478444 1_555
B7 O20 1.495455 1_555
H0 O32 0.986886 1_565
H1 O33 0.986886 1_545
H2 O34 0.986886 1_545
H3 O35 0.986886 1_565
H4 O36 0.990065 1_555
H5 O37 0.990065 1_555
H6 O38 0.990065 1_555
H7 O39 0.990065 1_555
H8 O40 0.992803 1_654
H9 O41 0.992803 1_555
H10 O42 0.992803 1_456
H11 O43 0.992803 1_555
H12 O40 0.976852 1_554
H13 O41 0.976852 1_555
H14 O42 0.976852 1_556
H15 O43 0.976852 1_555
H16 O44 0.975968 1_655
H17 O45 0.975968 1_555
H18 O46 0.975968 1_455
H19 O47 0.975968 1_555
H20 O44 1.005932 1_555
H20 O2 1.706281 1_545
H21 O45 1.005932 1_555
H21 O3 1.706281 1_565
H22 O46 1.005932 1_555
H22 O0 1.706281 1_565
H23 O47 1.005932 1_555
H23 O1 1.706281 1_545
H24 O48 0.981062 1_555
H25 O49 0.981062 1_555
H26 O50 0.981062 1_555
H27 O51 0.981062 1_555
H28 O48 0.992368 1_555
H29 O49 0.992368 1_555
H30 O50 0.992368 1_555
H31 O51 0.992368 1_555
O0 P4 1.516903 1_555
O1 P5 1.516903 1_555
O2 P6 1.516903 1_555
O3 P7 1.516903 1_555
O4 P0 1.552825 1_555
O5 P1 1.552825 1_555
O6 P2 1.552825 1_555
O7 P3 1.552825 1_555
O8 P0 1.523721 1_555
O9 P1 1.523721 1_555
O10 P2 1.523721 1_555
O11 P3 1.523721 1_555
O12 P4 1.560153 1_555
O13 P5 1.560153 1_555
O14 P6 1.560153 1_555
O15 P7 1.560153 1_555
O16 P4 1.556983 1_565
O17 P5 1.556983 1_545
O18 P6 1.556983 1_545
O19 P7 1.556983 1_565
O20 P3 1.554499 1_555
O21 P2 1.554499 1_556
O22 P1 1.554499 1_555
O23 P0 1.554499 1_554
O24 P1 1.562013 1_555
O25 P0 1.562013 1_554
O26 P3 1.562013 1_555
O27 P2 1.562013 1_556
O28 P4 1.561083 1_555
O29 P5 1.561083 1_555
O30 P6 1.561083 1_555
O31 P7 1.561083 1_555
