# generated using pymatgen
data_Ba3As14
_symmetry_space_group_name_H-M   'P 1'
_cell_length_a   6.90955481
_cell_length_b   10.38614440
_cell_length_c   13.84195616
_cell_angle_alpha   90.00000000
_cell_angle_beta   90.00000000
_cell_angle_gamma   90.41373284
_symmetry_Int_Tables_number   1
_chemical_formula_structural   Ba3As14
_chemical_formula_sum   'Ba6 As28'
_cell_volume   993.32317838
_cell_formula_units_Z   2
loop_
 _symmetry_equiv_pos_site_id
 _symmetry_equiv_pos_as_xyz
  1  'x, y, z'
loop_
 _atom_site_type_symbol
 _atom_site_label
 _atom_site_symmetry_multiplicity
 _atom_site_fract_x
 _atom_site_fract_y
 _atom_site_fract_z
 _atom_site_occupancy
  Ba  Ba0  1  -0.00000000  0.00000000  0.00000000  1
  Ba  Ba1  1  0.50000000  0.50000000  0.50000000  1
  Ba  Ba2  1  0.81172053  0.61766062  0.15661894  1
  Ba  Ba3  1  0.68827947  0.88233938  0.65661894  1
  Ba  Ba4  1  0.18827947  0.38233938  0.84338106  1
  Ba  Ba5  1  0.31172053  0.11766062  0.34338106  1
  As  As0  1  0.10125783  0.81458291  0.49984756  1
  As  As1  1  0.39874217  0.68541709  -0.00015244  1
  As  As2  1  0.89874217  0.18541709  0.50015244  1
  As  As3  1  0.60125783  0.31458291  0.00015244  1
  As  As4  1  0.89895661  0.85657432  0.35359421  1
  As  As5  1  0.60104339  0.64342568  0.85359421  1
  As  As6  1  0.10104339  0.14342568  0.64640579  1
  As  As7  1  0.39895661  0.35657432  0.14640579  1
  As  As8  1  0.57233868  0.17911922  0.55934588  1
  As  As9  1  0.92766132  0.32088078  0.05934588  1
  As  As10  1  0.42766132  0.82088078  0.44065412  1
  As  As11  1  0.07233868  0.67911922  0.94065412  1
  As  As12  1  0.67590616  0.03379277  0.18489384  1
  As  As13  1  0.82409384  0.46620723  0.68489384  1
  As  As14  1  0.32409384  0.96620723  0.81510616  1
  As  As15  1  0.17590616  0.53379277  0.31510516  1
  As  As16  1  0.44258239  0.13032031  0.08108294  1
  As  As17  1  0.05741761  0.36967969  0.58108294  1
  As  As18  1  0.55741761  0.86967969  0.91891706  1
  As  As19  1  0.94258239  0.63032031  0.41891706  1
  As  As20  1  0.12399706  0.86480169  0.22115004  1
  As  As21  1  0.37600294  0.63519831  0.72115004  1
  As  As22  1  0.87600294  0.13519831  0.77884996  1
  As  As23  1  0.62399706  0.36480169  0.27884996  1
  As  As24  1  0.87471579  0.22346806  0.21791650  1
  As  As25  1  0.62528421  0.27653094  0.71791650  1
  As  As26  1  0.12528421  0.77653194  0.78208350  1
  As  As27  1  0.37471579  0.72346806  0.28208350  1
loop_
_geom_bond_atom_site_label_1
_geom_bond_atom_site_label_2
_geom_bond_distance
_geom_bond_site_symmetry_2
As0 As10 2.399975 1_555
As0 As19 2.467634 1_455
As0 As4 2.500243 1_455
As0 Ba3 3.657277 1_455
As1 As11 2.399975 1_554
As1 As18 2.467634 1_554
As1 As5 2.500243 1_554
As1 Ba2 3.657277 1_555
As2 As8 2.399975 1_555
As2 As6 2.500243 1_655
As2 Ba5 3.657277 1_655
As3 As9 2.399975 1_555
As3 As7 2.500243 1_555
As3 Ba4 3.657277 1_554
As4 Ba2 3.732688 1_555
As4 Ba5 3.923709 1_665
As5 Ba3 3.732688 1_555
As5 Ba4 3.923709 1_555
As6 Ba4 3.732688 1_555
As6 Ba3 3.923709 1_445
As7 Ba5 3.732688 1_555
As7 Ba2 3.923709 1_555
As8 Ba3 3.462878 1_545
As8 Ba1 3.472128 1_555
As8 Ba5 3.545411 1_555
As9 Ba2 3.462878 1_555
As9 Ba0 3.472128 1_655
As9 Ba4 3.545411 1_654
As10 As27 2.443321 1_555
As10 Ba5 3.462878 1_565
As10 Ba1 3.472128 1_555
As10 Ba3 3.545411 1_555
As11 As26 2.443321 1_555
As11 Ba4 3.462878 1_555
As11 Ba0 3.472128 1_566
As11 Ba2 3.545411 1_456
As12 As16 2.385861 1_555
As12 As24 2.436750 1_555
As12 Ba0 3.420406 1_655
As12 Ba5 3.454724 1_555
As13 As17 2.385861 1_655
As13 As25 2.436758 1_555
As13 Ba1 3.420406 1_555
As13 Ba4 3.454724 1_655
As14 As18 2.385861 1_555
As14 As26 2.436750 1_555
As14 Ba0 3.420406 1_566
As14 Ba3 3.454724 1_555
As15 As19 2.385869 1_455
As15 As27 2.436747 1_555
As15 Ba1 3.420416 1_555
As15 Ba2 3.454715 1_455
As16 As3 2.467634 1_555
As16 As7 2.537858 1_555
As16 Ba0 3.519030 1_555
As16 Ba5 3.743697 1_555
As17 As2 2.467634 1_455
As17 As6 2.537858 1_555
As17 Ba1 3.519030 1_555
As17 Ba4 3.743697 1_555
As18 As5 2.537858 1_555
As18 Ba0 3.519030 1_666
As18 Ba3 3.743697 1_555
As19 As4 2.537858 1_555
As19 Ba1 3.519030 1_555
As19 Ba2 3.743697 1_555
As20 As4 2.405021 1_455
As20 As27 2.429800 1_555
As20 Ba5 3.375337 1_565
As20 Ba2 3.458642 1_455
As20 Ba0 3.477614 1_565
As21 As5 2.405021 1_555
As21 As26 2.429800 1_555
As21 Ba4 3.375337 1_555
As21 Ba3 3.458642 1_555
As21 Ba1 3.477614 1_555
As22 As6 2.405021 1_655
As22 As25 2.429794 1_555
As22 Ba3 3.375337 1_545
As22 Ba4 3.458642 1_655
As22 Ba0 3.477614 1_656
As23 As7 2.405021 1_555
As23 As24 2.429800 1_555
As23 Ba2 3.375337 1_555
As23 Ba5 3.458642 1_555
As23 Ba1 3.477614 1_555
As24 As9 2.443321 1_555
As24 Ba5 3.659104 1_655
As25 As8 2.443316 1_555
As25 Ba4 3.659107 1_555
As26 Ba3 3.659104 1_455
As27 Ba2 3.659104 1_555
