# generated using pymatgen
data_Ba2Cu4Te4Cl4O11
_symmetry_space_group_name_H-M   'P 1'
_cell_length_a   9.38941910
_cell_length_b   9.40654181
_cell_length_c   12.38219641
_cell_angle_alpha   110.91210585
_cell_angle_beta   98.36329113
_cell_angle_gamma   108.20505961
_symmetry_Int_Tables_number   1
_chemical_formula_structural   Ba2Cu4Te4Cl4O11
_chemical_formula_sum   'Ba4 Cu8 Te8 Cl8 O22'
_cell_volume   928.86715249
_cell_formula_units_Z   2
loop_
 _symmetry_equiv_pos_site_id
 _symmetry_equiv_pos_as_xyz
  1  'x, y, z'
loop_
 _atom_site_type_symbol
 _atom_site_label
 _atom_site_symmetry_multiplicity
 _atom_site_fract_x
 _atom_site_fract_y
 _atom_site_fract_z
 _atom_site_occupancy
  Ba  Ba0  1  0.52140800  0.78402000  0.55823100  1
  Ba  Ba1  1  0.98122000  0.71975200  0.44880300  1
  Ba  Ba2  1  0.47859200  0.21598000  0.44176900  1
  Ba  Ba3  1  0.01878000  0.28024800  0.55119700  1
  Cu  Cu0  1  0.69057700  0.55429900  0.01736900  1
  Cu  Cu1  1  0.30942300  0.44570100  0.98263100  1
  Cu  Cu2  1  0.31406400  0.10059200  0.67070200  1
  Cu  Cu3  1  0.76722900  0.90553200  0.98497100  1
  Cu  Cu4  1  0.23277100  0.09446800  0.01502900  1
  Cu  Cu5  1  0.18759500  0.40064100  0.32939800  1
  Cu  Cu6  1  0.81240500  0.59935900  0.67060200  1
  Cu  Cu7  1  0.68593600  0.89940800  0.32929800  1
  Te  Te0  1  0.78176100  0.22142100  0.24121300  1
  Te  Te1  1  0.72858700  0.25480500  0.73884800  1
  Te  Te2  1  0.27141300  0.74519500  0.26115200  1
  Te  Te3  1  0.21823900  0.77857900  0.75878700  1
  Te  Te4  1  0.97436700  0.02475100  0.75791300  1
  Te  Te5  1  0.02563300  0.97524900  0.24208700  1
  Te  Te6  1  0.44850100  0.52353100  0.73638500  1
  Te  Te7  1  0.55149900  0.47646900  0.26361500  1
  Cl  Cl0  1  0.83762300  0.68555300  0.91849200  1
  Cl  Cl1  1  0.16237700  0.31444700  0.08150800  1
  Cl  Cl2  1  0.37170400  0.03929900  0.14155500  1
  Cl  Cl3  1  0.12939900  0.46286300  0.84752800  1
  Cl  Cl4  1  0.62829600  0.96070100  0.85844500  1
  Cl  Cl5  1  0.87060100  0.53713700  0.15247200  1
  Cl  Cl6  1  0.53072500  0.69935800  0.08262700  1
  Cl  Cl7  1  0.46927500  0.30064200  0.91737300  1
  O  O0  1  0.87275200  0.04966100  0.16187000  1
  O  O1  1  0.08750500  0.05471500  0.64643700  1
  O  O2  1  0.22865300  0.63557600  0.36247400  1
  O  O3  1  0.80618100  0.09257000  0.65503700  1
  O  O4  1  0.19381900  0.90743000  0.34496300  1
  O  O5  1  0.32922600  0.29508200  0.63446700  1
  O  O6  1  0.91249500  0.94528500  0.35356300  1
  O  O7  1  0.77134700  0.36442400  0.63752600  1
  O  O8  1  0.97887900  0.38148200  0.35290800  1
  O  O9  1  0.16574000  0.19573900  0.34987100  1
  O  O10  1  0.30829300  0.58987500  0.65459200  1
  O  O11  1  0.41680400  0.45208700  0.36225100  1
  O  O12  1  0.12724800  0.95033900  0.83813000  1
  O  O13  1  0.58319600  0.54791300  0.63774900  1
  O  O14  1  0.02112100  0.61851800  0.64709200  1
  O  O15  1  0.83426000  0.80426100  0.65012900  1
  O  O16  1  0.69170700  0.41012500  0.34540800  1
  O  O17  1  0.72285500  0.12867600  0.34992800  1
  O  O18  1  0.48012000  0.88493700  0.35973600  1
  O  O19  1  0.67077400  0.70491800  0.36553300  1
  O  O20  1  0.51988000  0.11506300  0.64026400  1
  O  O21  1  0.27714500  0.87132400  0.65007200  1
loop_
_geom_bond_atom_site_label_1
_geom_bond_atom_site_label_2
_geom_bond_distance
_geom_bond_site_symmetry_2
Ba0 O13 2.904935 1_555
Ba0 O15 2.912642 1_555
Ba0 O21 2.914893 1_555
Ba0 O20 2.915979 1_565
Ba0 O19 2.927753 1_555
Ba0 O11 2.929840 1_555
Ba0 O2 2.937398 1_555
Ba0 O18 2.951365 1_555
Ba0 O10 2.954581 1_555
Ba0 O3 2.957221 1_565
Ba0 Cl4 3.324147 1_555
Ba1 O19 2.889311 1_555
Ba1 O2 2.904261 1_655
Ba1 O14 2.949547 1_655
Ba1 O6 2.954285 1_555
Ba1 O1 2.955121 1_665
Ba1 O8 2.964243 1_555
Ba1 O16 2.981618 1_555
Ba1 O4 2.986578 1_655
Ba1 O21 2.989616 1_655
Ba1 O15 3.003611 1_555
Ba1 Cl5 3.281750 1_555
Ba2 O11 2.904935 1_555
Ba2 O9 2.912642 1_555
Ba2 O17 2.914893 1_555
Ba2 O18 2.915979 1_545
Ba2 O5 2.927753 1_555
Ba2 O13 2.929840 1_555
Ba2 O7 2.937398 1_555
Ba2 O20 2.951365 1_555
Ba2 O16 2.954581 1_555
Ba2 O4 2.957221 1_545
Ba2 Cl2 3.324147 1_555
Ba3 O5 2.889311 1_555
Ba3 O7 2.904261 1_455
Ba3 O8 2.949547 1_455
Ba3 O1 2.954285 1_555
Ba3 O6 2.955121 1_445
Ba3 O14 2.964243 1_555
Ba3 O10 2.981618 1_555
Ba3 O3 2.986578 1_455
Ba3 O17 2.989616 1_455
Ba3 O9 3.003611 1_555
Ba3 Cl3 3.281750 1_555
Cu2 O1 1.987369 1_555
Cu2 O21 1.987530 1_545
Cu2 O20 1.994801 1_555
Cu2 O5 2.002591 1_555
Cu3 O0 2.006740 1_566
Cu4 O12 2.006740 1_544
Cu5 O9 1.984468 1_555
Cu5 O8 1.985058 1_455
Cu5 O2 1.993929 1_555
Cu5 O11 1.996349 1_555
Cu6 O15 1.984468 1_555
Cu6 O14 1.985058 1_655
Cu6 O7 1.993929 1_555
Cu6 O13 1.996349 1_555
Cu7 O6 1.987369 1_555
Cu7 O17 1.987530 1_565
Cu7 O18 1.994801 1_555
Cu7 O19 2.002591 1_555
Cl0 Cu3 2.278842 1_555
Cl0 Cu0 2.331362 1_556
Cl0 Cu6 2.833169 1_555
Cl1 Cu4 2.278842 1_555
Cl1 Cu1 2.331362 1_554
Cl1 Cu5 2.833169 1_555
Cl2 Cu4 2.198717 1_555
Cl3 Cu1 2.285272 1_555
Cl4 Cu3 2.198717 1_555
Cl5 Cu0 2.285272 1_555
Cl6 Cu1 2.364014 1_554
Cl6 Cu0 2.369162 1_555
Cl6 Cu7 2.807568 1_555
Cl7 Cu0 2.364014 1_556
Cl7 Cu1 2.369162 1_555
Cl7 Cu2 2.807568 1_555
O0 Te5 2.060689 1_645
O0 Te0 2.068580 1_555
O1 Te4 1.905360 1_455
O2 Te2 1.899942 1_555
O3 Te1 1.928925 1_555
O3 Te4 2.268878 1_555
O4 Te2 1.928925 1_555
O4 Te5 2.268878 1_555
O5 Te6 1.901008 1_555
O6 Te5 1.905360 1_655
O7 Te1 1.899942 1_555
O8 Te0 1.906013 1_555
O9 Te5 1.903116 1_545
O10 Te6 1.930017 1_555
O10 Te3 2.269497 1_555
O11 Te7 1.900470 1_555
O12 Te4 2.060689 1_465
O12 Te3 2.068580 1_555
O13 Te6 1.900470 1_555
O14 Te3 1.906013 1_555
O15 Te4 1.903116 1_565
O16 Te7 1.930017 1_555
O16 Te0 2.269497 1_555
O17 Te0 1.905916 1_555
O18 Te2 1.899285 1_555
O19 Te7 1.901008 1_555
O20 Te1 1.899285 1_555
O21 Te3 1.905916 1_555
