# generated using pymatgen
data_Nd5Co21B4
_symmetry_space_group_name_H-M   'P 1'
_cell_length_a   5.08689140
_cell_length_b   5.08689140
_cell_length_c   17.61066800
_cell_angle_alpha   90.00000000
_cell_angle_beta   90.00000000
_cell_angle_gamma   119.99999213
_symmetry_Int_Tables_number   1
_chemical_formula_structural   Nd5Co21B4
_chemical_formula_sum   'Nd5 Co21 B4'
_cell_volume   394.64938196
_cell_formula_units_Z   1
loop_
 _symmetry_equiv_pos_site_id
 _symmetry_equiv_pos_as_xyz
  1  'x, y, z'
loop_
 _atom_site_type_symbol
 _atom_site_label
 _atom_site_symmetry_multiplicity
 _atom_site_fract_x
 _atom_site_fract_y
 _atom_site_fract_z
 _atom_site_occupancy
  Nd  Nd0  1  0.00000000  0.00000000  0.50000000  1
  Nd  Nd1  1  0.00000000  0.00000000  0.10839300  1
  Nd  Nd2  1  0.00000000  0.00000000  0.89160700  1
  Nd  Nd3  1  0.00000000  0.00000000  0.30492200  1
  Nd  Nd4  1  0.00000000  0.00000000  0.69507800  1
  Co  Co0  1  0.66666700  0.33333300  0.50000000  1
  Co  Co1  1  0.33333300  0.66666700  0.50000000  1
  Co  Co2  1  0.66666700  0.33333300  0.11101200  1
  Co  Co3  1  0.33333300  0.66666700  0.11101200  1
  Co  Co4  1  0.33333300  0.66666700  0.88898800  1
  Co  Co5  1  0.66666700  0.33333300  0.88898800  1
  Co  Co6  1  0.50000000  0.00000000  0.22343200  1
  Co  Co7  1  0.50000000  0.50000000  0.22343200  1
  Co  Co8  1  0.00000000  0.50000000  0.22343200  1
  Co  Co9  1  0.50000000  0.00000000  0.77656800  1
  Co  Co10  1  0.50000000  0.50000000  0.77656800  1
  Co  Co11  1  0.00000000  0.50000000  0.77656800  1
  Co  Co12  1  0.50000000  0.00000000  0.38761000  1
  Co  Co13  1  0.50000000  0.50000000  0.38761000  1
  Co  Co14  1  0.00000000  0.50000000  0.38761000  1
  Co  Co15  1  0.50000000  0.00000000  0.61239000  1
  Co  Co16  1  0.50000000  0.50000000  0.61239000  1
  Co  Co17  1  0.00000000  0.50000000  0.61239000  1
  Co  Co18  1  0.50000000  0.00000000  0.00000000  1
  Co  Co19  1  0.50000000  0.50000000  0.00000000  1
  Co  Co20  1  0.00000000  0.50000000  0.00000000  1
  B  B0  1  0.66666700  0.33333300  0.30546200  1
  B  B1  1  0.33333300  0.66666700  0.30546200  1
  B  B2  1  0.33333300  0.66666700  0.69453800  1
  B  B3  1  0.66666700  0.33333300  0.69453800  1
loop_
_geom_bond_atom_site_label_1
_geom_bond_atom_site_label_2
_geom_bond_distance
_geom_bond_site_symmetry_2
Co0 Co14 2.464518 1_655
Co0 Co15 2.464518 1_555
Co0 Co12 2.464518 1_555
Co0 Co17 2.464518 1_655
Co0 Co13 2.464521 1_555
Co0 Co16 2.464521 1_555
Co0 Nd0 2.936915 1_655
Co0 Nd0 2.936920 1_555
Co0 Nd0 2.936920 1_665
Co1 Co12 2.464518 1_565
Co1 Co15 2.464518 1_565
Co1 Co17 2.464518 1_555
Co1 Co14 2.464518 1_555
Co1 Co13 2.464521 1_555
Co1 Co16 2.464521 1_555
Co1 Nd0 2.936915 1_565
Co1 Nd0 2.936920 1_555
Co1 Nd0 2.936920 1_665
Co2 Co20 2.445072 1_655
Co2 Co8 2.464943 1_655
Co2 Co6 2.464943 1_555
Co2 Co7 2.464945 1_555
Co2 Nd1 2.937277 1_655
Co2 Nd1 2.937282 1_555
Co2 Nd1 2.937282 1_665
Co3 Co6 2.464943 1_565
Co3 Co8 2.464943 1_555
Co3 Co7 2.464945 1_555
Co3 Nd1 2.937277 1_565
Co3 Nd1 2.937282 1_555
Co3 Nd1 2.937282 1_665
Co4 Co9 2.464943 1_565
Co4 Nd2 2.937277 1_565
Co4 Nd2 2.937282 1_665
Co4 Nd2 2.937282 1_555
Co5 Co9 2.464943 1_555
Co5 Nd2 2.937277 1_655
Co5 Nd2 2.937282 1_665
Co5 Nd2 2.937282 1_555
Co6 Nd3 2.920378 1_655
Co6 Nd3 2.920378 1_555
Co6 Nd1 3.251683 1_555
Co6 Nd1 3.251683 1_655
Co7 Nd3 2.920378 1_555
Co7 Nd3 2.920378 1_665
Co7 Nd1 3.251683 1_665
Co7 Nd1 3.251683 1_555
Co8 Nd3 2.920378 1_555
Co8 Nd3 2.920378 1_565
Co8 Nd1 3.251683 1_555
Co8 Nd1 3.251683 1_565
Co9 Nd4 2.920378 1_655
Co9 Nd4 2.920378 1_555
Co9 Nd2 3.251683 1_555
Co9 Nd2 3.251683 1_655
Co10 Co4 2.464945 1_555
Co10 Co5 2.464945 1_555
Co10 Nd4 2.920378 1_665
Co10 Nd4 2.920378 1_555
Co10 Nd2 3.251683 1_555
Co10 Nd2 3.251683 1_665
Co11 Co5 2.464943 1_455
Co11 Co4 2.464943 1_555
Co11 Nd4 2.920378 1_555
Co11 Nd4 2.920378 1_565
Co11 Nd2 3.251683 1_555
Co11 Nd2 3.251683 1_565
Co12 Nd3 2.930803 1_655
Co12 Nd3 2.930803 1_555
Co12 Nd0 3.222825 1_555
Co12 Nd0 3.222825 1_655
Co13 Nd3 2.930804 1_555
Co13 Nd3 2.930804 1_665
Co13 Nd0 3.222825 1_665
Co13 Nd0 3.222825 1_555
Co14 Nd3 2.930803 1_565
Co14 Nd3 2.930803 1_555
Co14 Nd0 3.222825 1_555
Co14 Nd0 3.222825 1_565
Co15 Nd4 2.930803 1_555
Co15 Nd4 2.930803 1_655
Co15 Nd0 3.222825 1_555
Co15 Nd0 3.222825 1_655
Co16 Nd4 2.930804 1_555
Co16 Nd4 2.930804 1_665
Co16 Nd0 3.222825 1_665
Co16 Nd0 3.222825 1_555
Co17 Nd4 2.930803 1_555
Co17 Nd4 2.930803 1_565
Co17 Nd0 3.222825 1_555
Co17 Nd0 3.222825 1_565
Co18 Co4 2.445072 1_544
Co18 Co2 2.445072 1_555
Co18 Co5 2.445072 1_554
Co18 Co3 2.445072 1_545
Co18 Co19 2.543446 1_545
Co18 Co19 2.543446 1_555
Co18 Co20 2.543446 1_545
Co18 Co20 2.543446 1_655
Co18 Nd2 3.180081 1_654
Co18 Nd2 3.180081 1_554
Co18 Nd1 3.180081 1_655
Co18 Nd1 3.180081 1_555
Co19 Co4 2.445074 1_554
Co19 Co3 2.445074 1_555
Co19 Co5 2.445074 1_554
Co19 Co2 2.445074 1_555
Co19 Co20 2.543446 1_555
Co19 Co20 2.543446 1_655
Co19 Nd2 3.180081 1_554
Co19 Nd2 3.180081 1_664
Co19 Nd1 3.180081 1_555
Co19 Nd1 3.180081 1_665
Co20 Co4 2.445072 1_554
Co20 Co3 2.445072 1_555
Co20 Co5 2.445072 1_454
Co20 Nd2 3.180081 1_564
Co20 Nd2 3.180081 1_554
Co20 Nd1 3.180081 1_565
Co20 Nd1 3.180081 1_555
B0 Co8 2.059914 1_655
B0 Co6 2.059914 1_555
B0 Co7 2.059917 1_555
B0 Co12 2.061372 1_555
B0 Co14 2.061372 1_655
B0 Co13 2.061375 1_555
B0 Nd3 2.936930 1_655
B0 Nd3 2.936935 1_665
B0 Nd3 2.936935 1_555
B1 Co6 2.059914 1_565
B1 Co8 2.059914 1_555
B1 Co7 2.059917 1_555
B1 Co12 2.061372 1_565
B1 Co14 2.061372 1_555
B1 Co13 2.061375 1_555
B1 Nd3 2.936930 1_565
B1 Nd3 2.936935 1_665
B1 Nd3 2.936935 1_555
B2 Co11 2.059914 1_555
B2 Co9 2.059914 1_565
B2 Co10 2.059917 1_555
B2 Co15 2.061372 1_565
B2 Co17 2.061372 1_555
B2 Co16 2.061375 1_555
B2 Nd4 2.936930 1_565
B2 Nd4 2.936935 1_555
B2 Nd4 2.936935 1_665
B3 Co9 2.059914 1_555
B3 Co11 2.059914 1_655
B3 Co10 2.059917 1_555
B3 Co17 2.061372 1_655
B3 Co15 2.061372 1_555
B3 Co16 2.061375 1_555
B3 Nd4 2.936930 1_655
B3 Nd4 2.936935 1_555
B3 Nd4 2.936935 1_665
