# generated using pymatgen
data_Li2AgSn
_symmetry_space_group_name_H-M   'P 1'
_cell_length_a   4.62207342
_cell_length_b   4.62207334
_cell_length_c   4.62207369
_cell_angle_alpha   60.00000476
_cell_angle_beta   60.00000540
_cell_angle_gamma   60.00001580
_symmetry_Int_Tables_number   1
_chemical_formula_structural   Li2AgSn
_chemical_formula_sum   'Li2 Ag1 Sn1'
_cell_volume   69.82253691
_cell_formula_units_Z   1
loop_
 _symmetry_equiv_pos_site_id
 _symmetry_equiv_pos_as_xyz
  1  'x, y, z'
loop_
 _atom_site_type_symbol
 _atom_site_label
 _atom_site_symmetry_multiplicity
 _atom_site_fract_x
 _atom_site_fract_y
 _atom_site_fract_z
 _atom_site_occupancy
  Li  Li0  1  0.25000000  0.25000000  0.25000000  1
  Li  Li1  1  0.50000000  0.50000000  0.50000000  1
  Ag  Ag0  1  0.75000000  0.75000000  0.75000000  1
  Sn  Sn0  1  0.00000000  0.00000000  -0.00000000  1
loop_
_geom_bond_atom_site_label_1
_geom_bond_atom_site_label_2
_geom_bond_distance
_geom_bond_site_symmetry_2
Li0 Sn0 2.830430 1_555
Li0 Sn0 2.830431 1_556
Li0 Sn0 2.830431 1_565
Li0 Sn0 2.830431 1_655
Ag0 Sn0 2.830430 1_666
Ag0 Li1 2.830430 1_555
Ag0 Sn0 2.830431 1_665
Ag0 Li1 2.830431 1_556
Ag0 Sn0 2.830431 1_656
Ag0 Li1 2.830431 1_565
Ag0 Li1 2.830431 1_655
Ag0 Sn0 2.830431 1_566
Ag0 Li0 3.268299 1_665
Ag0 Li0 3.268299 1_556
Ag0 Li0 3.268300 1_565
Ag0 Li0 3.268300 1_656
Ag0 Li0 3.268300 1_655
Ag0 Li0 3.268300 1_566
