# generated using pymatgen
data_Dy3Ge5
_symmetry_space_group_name_H-M   'P 1'
_cell_length_a   5.74296167
_cell_length_b   7.43280470
_cell_length_c   9.09586038
_cell_angle_alpha   83.08067605
_cell_angle_beta   71.84290034
_cell_angle_gamma   67.25833865
_symmetry_Int_Tables_number   1
_chemical_formula_structural   Dy3Ge5
_chemical_formula_sum   'Dy6 Ge10'
_cell_volume   340.25311243
_cell_formula_units_Z   2
loop_
 _symmetry_equiv_pos_site_id
 _symmetry_equiv_pos_as_xyz
  1  'x, y, z'
loop_
 _atom_site_type_symbol
 _atom_site_label
 _atom_site_symmetry_multiplicity
 _atom_site_fract_x
 _atom_site_fract_y
 _atom_site_fract_z
 _atom_site_occupancy
  Dy  Dy0  1  0.99568388  0.00841454  0.00004658  1
  Dy  Dy1  1  0.24582422  0.50817129  0.50001425  1
  Dy  Dy2  1  0.57336188  0.49294675  0.83447542  1
  Dy  Dy3  1  0.93359223  0.49286415  0.16542010  1
  Dy  Dy4  1  0.34910839  0.99318828  0.33479762  1
  Dy  Dy5  1  0.65745590  0.99319573  0.66531874  1
  Ge  Ge0  1  0.44027097  0.11914580  0.00010623  1
  Ge  Ge1  1  0.68928772  0.62115762  0.49988644  1
  Ge  Ge2  1  0.90579916  0.69797899  0.87072072  1
  Ge  Ge3  1  0.39643652  0.69849677  0.12887862  1
  Ge  Ge4  1  0.77500934  0.19703026  0.37002090  1
  Ge  Ge5  1  0.02793129  0.19669056  0.63035776  1
  Ge  Ge6  1  0.17073727  0.33577874  0.82524613  1
  Ge  Ge7  1  0.49364538  0.33605868  0.17456851  1
  Ge  Ge8  1  0.92012708  0.83454262  0.32505084  1
  Ge  Ge9  1  0.24572977  0.83433920  0.67509114  1
loop_
_geom_bond_atom_site_label_1
_geom_bond_atom_site_label_2
_geom_bond_distance
_geom_bond_site_symmetry_2
Dy0 Ge0 2.970012 1_555
Dy0 Ge0 2.970214 1_655
Dy0 Ge3 2.984630 1_645
Dy0 Ge2 2.987923 1_544
Dy0 Ge8 3.051415 1_545
Dy0 Ge9 3.051596 1_644
Dy0 Ge7 3.068181 1_555
Dy0 Ge6 3.069560 1_654
Dy0 Ge5 3.460988 1_654
Dy0 Ge4 3.464300 1_555
Dy1 Ge1 2.973715 1_555
Dy1 Ge1 2.974488 1_455
Dy1 Ge4 2.994622 1_555
Dy1 Ge5 2.997572 1_555
Dy1 Ge6 3.049261 1_555
Dy1 Ge7 3.050238 1_555
Dy1 Ge8 3.054995 1_455
Dy1 Ge9 3.056480 1_555
Dy2 Ge3 2.937218 1_556
Dy2 Ge5 2.937822 1_655
Dy2 Ge2 2.973037 1_555
Dy2 Ge6 2.991873 1_555
Dy2 Ge1 3.023648 1_555
Dy2 Ge9 3.033694 1_555
Dy2 Ge7 3.130453 1_556
Dy2 Ge6 3.144359 1_655
Dy2 Ge0 3.238678 1_556
Dy2 Ge2 3.456183 1_455
Dy3 Ge2 2.937514 1_554
Dy3 Ge4 2.938347 1_555
Dy3 Ge3 2.972234 1_555
Dy3 Ge7 2.992566 1_655
Dy3 Ge1 3.022826 1_555
Dy3 Ge8 3.038190 1_555
Dy3 Ge6 3.131557 1_654
Dy3 Ge7 3.141874 1_555
Dy3 Ge0 3.236406 1_655
Dy3 Ge3 3.461229 1_655
Dy4 Ge3 2.930996 1_555
Dy4 Ge5 2.941033 1_565
Dy4 Ge4 2.977421 1_465
Dy4 Ge8 3.001107 1_555
Dy4 Ge0 3.019486 1_565
Dy4 Ge7 3.048695 1_565
Dy4 Ge9 3.137399 1_555
Dy4 Ge8 3.142474 1_455
Dy4 Ge1 3.220124 1_555
Dy4 Ge4 3.442585 1_565
Dy5 Ge2 2.931369 1_555
Dy5 Ge4 2.940384 1_565
Dy5 Ge5 2.977618 1_665
Dy5 Ge9 2.999226 1_555
Dy5 Ge0 3.020284 1_566
Dy5 Ge6 3.044417 1_565
Dy5 Ge8 3.136810 1_555
Dy5 Ge9 3.145408 1_655
Dy5 Ge1 3.222544 1_555
Dy5 Ge5 3.439815 1_565
Ge0 Ge6 2.551233 1_554
Ge0 Ge7 2.552114 1_555
Ge1 Ge9 2.548917 1_555
Ge1 Ge8 2.550687 1_555
Ge2 Ge6 2.538298 1_655
Ge2 Ge9 2.633425 1_655
Ge3 Ge7 2.540417 1_555
Ge3 Ge8 2.634978 1_455
Ge4 Ge8 2.537348 1_545
Ge4 Ge7 2.626065 1_555
Ge5 Ge9 2.536225 1_545
Ge5 Ge6 2.624300 1_555
