# generated using pymatgen
data_Eu3BWO9
_symmetry_space_group_name_H-M   'P 1'
_cell_length_a   8.82343041
_cell_length_b   8.82343041
_cell_length_c   5.53684300
_cell_angle_alpha   90.00000000
_cell_angle_beta   90.00000000
_cell_angle_gamma   120.00000306
_symmetry_Int_Tables_number   1
_chemical_formula_structural   Eu3BWO9
_chemical_formula_sum   'Eu6 B2 W2 O18'
_cell_volume   373.30839520
_cell_formula_units_Z   2
loop_
 _symmetry_equiv_pos_site_id
 _symmetry_equiv_pos_as_xyz
  1  'x, y, z'
loop_
 _atom_site_type_symbol
 _atom_site_label
 _atom_site_symmetry_multiplicity
 _atom_site_fract_x
 _atom_site_fract_y
 _atom_site_fract_z
 _atom_site_occupancy
  Eu  Eu0  1  0.71934400  0.07569000  0.20814500  1
  Eu  Eu1  1  0.35634600  0.28065600  0.20814500  1
  Eu  Eu2  1  0.07569000  0.35634600  0.70814500  1
  Eu  Eu3  1  0.28065600  0.92431000  0.70814500  1
  Eu  Eu4  1  0.64365400  0.71934400  0.70814500  1
  Eu  Eu5  1  0.92431000  0.64365400  0.20814500  1
  B  B0  1  0.00000000  0.00000000  0.87788300  1
  B  B1  1  0.00000000  0.00000000  0.37788300  1
  W  W0  1  0.66666700  0.33333300  0.74852600  1
  W  W1  1  0.33333300  0.66666700  0.24852600  1
  O  O0  1  0.79497700  0.26173700  0.54071000  1
  O  O1  1  0.13513000  0.61185000  0.46761500  1
  O  O2  1  0.05594800  0.17650500  0.37119400  1
  O  O3  1  0.73826300  0.53324000  0.54071000  1
  O  O4  1  0.94405200  0.82349500  0.87119400  1
  O  O5  1  0.87944300  0.05594800  0.87119400  1
  O  O6  1  0.38815000  0.52328000  0.46761500  1
  O  O7  1  0.53324000  0.79497700  0.04071000  1
  O  O8  1  0.20502300  0.73826300  0.04071000  1
  O  O9  1  0.17650500  0.12055700  0.87119400  1
  O  O10  1  0.46676000  0.20502300  0.54071000  1
  O  O11  1  0.47672000  0.86487000  0.46761500  1
  O  O12  1  0.52328000  0.13513000  0.96761500  1
  O  O13  1  0.86487000  0.38815000  0.96761500  1
  O  O14  1  0.26173700  0.46676000  0.04071000  1
  O  O15  1  0.61185000  0.47672000  0.96761500  1
  O  O16  1  0.12055700  0.94405200  0.37119400  1
  O  O17  1  0.82349500  0.87944300  0.37119400  1
loop_
_geom_bond_atom_site_label_1
_geom_bond_atom_site_label_2
_geom_bond_distance
_geom_bond_site_symmetry_2
Eu0 O0 2.331356 1_555
Eu0 O7 2.371386 1_545
Eu0 O5 2.398446 1_554
Eu0 O12 2.439005 1_554
Eu0 O11 2.474848 1_545
Eu0 O17 2.499822 1_545
Eu0 O13 2.735545 1_554
Eu0 O2 2.790210 1_655
Eu1 O10 2.331357 1_555
Eu1 O14 2.371386 1_555
Eu1 O9 2.398446 1_554
Eu1 O15 2.439005 1_554
Eu1 O6 2.474848 1_555
Eu1 O2 2.499822 1_555
Eu1 O12 2.735545 1_554
Eu1 O16 2.790210 1_545
Eu2 O14 2.331356 1_556
Eu2 O0 2.371386 1_455
Eu2 O2 2.398446 1_555
Eu2 O1 2.439005 1_555
Eu2 O13 2.474848 1_455
Eu2 O5 2.499822 1_455
Eu2 O6 2.735545 1_555
Eu2 O9 2.790210 1_555
Eu3 O8 2.331356 1_556
Eu3 O10 2.371386 1_565
Eu3 O16 2.398446 1_555
Eu3 O11 2.439005 1_555
Eu3 O12 2.474848 1_565
Eu3 O9 2.499822 1_565
Eu3 O1 2.735545 1_555
Eu3 O4 2.790210 1_455
Eu4 O7 2.331357 1_556
Eu4 O3 2.371386 1_555
Eu4 O17 2.398446 1_555
Eu4 O6 2.439005 1_555
Eu4 O15 2.474848 1_555
Eu4 O4 2.499822 1_555
Eu4 O11 2.735545 1_555
Eu4 O5 2.790210 1_565
Eu5 O3 2.331356 1_555
Eu5 O8 2.371386 1_655
Eu5 O4 2.398446 1_554
Eu5 O13 2.439005 1_554
Eu5 O1 2.474848 1_655
Eu5 O16 2.499822 1_655
Eu5 O15 2.735545 1_554
Eu5 O17 2.790210 1_555
B0 O9 1.379018 1_555
B0 O4 1.379018 1_445
B0 O5 1.379018 1_455
B1 O17 1.379018 1_445
B1 O2 1.379018 1_555
B1 O16 1.379018 1_545
O0 W0 1.928725 1_555
O1 W1 1.979394 1_555
O3 W0 1.928731 1_555
O6 W1 1.979401 1_555
O7 W1 1.928730 1_555
O8 W1 1.928725 1_555
O10 W0 1.928730 1_555
O11 W1 1.979396 1_555
O12 W0 1.979396 1_555
O13 W0 1.979394 1_555
O14 W1 1.928731 1_555
O15 W0 1.979401 1_555
