# generated using pymatgen
data_KRb2CoF6
_symmetry_space_group_name_H-M   'P 1'
_cell_length_a   6.12238220
_cell_length_b   6.12238220
_cell_length_c   6.12238220
_cell_angle_alpha   60.00000000
_cell_angle_beta   60.00000000
_cell_angle_gamma   60.00000000
_symmetry_Int_Tables_number   1
_chemical_formula_structural   KRb2CoF6
_chemical_formula_sum   'K1 Rb2 Co1 F6'
_cell_volume   162.27301860
_cell_formula_units_Z   1
loop_
 _symmetry_equiv_pos_site_id
 _symmetry_equiv_pos_as_xyz
  1  'x, y, z'
loop_
 _atom_site_type_symbol
 _atom_site_label
 _atom_site_symmetry_multiplicity
 _atom_site_fract_x
 _atom_site_fract_y
 _atom_site_fract_z
 _atom_site_occupancy
  K  K0  1  0.50000000  0.50000000  0.50000000  1
  Rb  Rb0  1  0.75000000  0.75000000  0.75000000  1
  Rb  Rb1  1  0.25000000  0.25000000  0.25000000  1
  Co  Co0  1  -0.00000000  0.00000000  -0.00000000  1
  F  F0  1  0.78672467  0.21327533  0.21327533  1
  F  F1  1  0.78672467  0.78672467  0.21327533  1
  F  F2  1  0.21327533  0.21327533  0.78672467  1
  F  F3  1  0.21327533  0.78672467  0.78672467  1
  F  F4  1  0.78672467  0.21327533  0.78672467  1
  F  F5  1  0.21327533  0.78672467  0.21327533  1
loop_
_geom_bond_atom_site_label_1
_geom_bond_atom_site_label_2
_geom_bond_distance
_geom_bond_site_symmetry_2
Co0 F4 1.846614 1_454
Co0 F3 1.846614 1_544
Co0 F1 1.846614 1_445
Co0 F2 1.846614 1_554
Co0 F0 1.846614 1_455
Co0 F5 1.846614 1_545
F0 K0 2.482564 1_555
F0 Rb1 3.077661 1_655
F0 Rb0 3.077661 1_545
F0 Rb0 3.077661 1_554
F0 Rb1 3.077661 1_555
F1 K0 2.482564 1_555
F1 Rb1 3.077661 1_565
F1 Rb1 3.077661 1_655
F1 Rb0 3.077661 1_555
F1 Rb0 3.077661 1_554
F2 K0 2.482564 1_555
F2 Rb1 3.077661 1_556
F2 Rb0 3.077661 1_545
F2 Rb1 3.077661 1_555
F2 Rb0 3.077661 1_455
F3 K0 2.482564 1_555
F3 Rb1 3.077661 1_556
F3 Rb1 3.077661 1_565
F3 Rb0 3.077661 1_455
F3 Rb0 3.077661 1_555
F4 K0 2.482564 1_555
F4 Rb0 3.077661 1_545
F4 Rb0 3.077661 1_555
F4 Rb1 3.077661 1_655
F4 Rb1 3.077661 1_556
F5 K0 2.482564 1_555
F5 Rb1 3.077661 1_565
F5 Rb0 3.077661 1_455
F5 Rb0 3.077661 1_554
F5 Rb1 3.077661 1_555
