# generated using pymatgen
data_Ca3V2O8
_symmetry_space_group_name_H-M   'P 1'
_cell_length_a   5.53271042
_cell_length_b   5.53271042
_cell_length_c   7.04140564
_cell_angle_alpha   67.28090852
_cell_angle_beta   67.28090852
_cell_angle_gamma   59.86687305
_symmetry_Int_Tables_number   1
_chemical_formula_structural   Ca3V2O8
_chemical_formula_sum   'Ca3 V2 O8'
_cell_volume   166.87926216
_cell_formula_units_Z   1
loop_
 _symmetry_equiv_pos_site_id
 _symmetry_equiv_pos_as_xyz
  1  'x, y, z'
loop_
 _atom_site_type_symbol
 _atom_site_label
 _atom_site_symmetry_multiplicity
 _atom_site_fract_x
 _atom_site_fract_y
 _atom_site_fract_z
 _atom_site_occupancy
  Ca  Ca0  1  0.80634027  0.80634027  0.58912913  1
  Ca  Ca1  1  0.19365973  0.19365973  0.41087087  1
  Ca  Ca2  1  -0.00000000  0.00000000  -0.00000000  1
  V  V0  1  0.59677298  0.59677298  0.21201611  1
  V  V1  1  0.40322702  0.40322702  0.78798389  1
  O  O0  1  0.73899388  0.22774003  0.30217689  1
  O  O1  1  0.68425503  0.68425503  0.94359769  1
  O  O2  1  0.26345432  0.26345432  0.69717725  1
  O  O3  1  0.22774003  0.73899388  0.30217689  1
  O  O4  1  0.26100612  0.77225997  0.69782311  1
  O  O5  1  0.77225997  0.26100612  0.69782311  1
  O  O6  1  0.31574497  0.31574497  0.05640231  1
  O  O7  1  0.73654568  0.73654568  0.30282275  1
loop_
_geom_bond_atom_site_label_1
_geom_bond_atom_site_label_2
_geom_bond_distance
_geom_bond_site_symmetry_2
Ca0 O1 2.235146 1_555
Ca0 O7 2.390573 1_555
Ca0 O3 2.393276 1_655
Ca0 O0 2.393276 1_565
Ca0 O4 2.801550 1_655
Ca0 O5 2.801550 1_565
Ca0 O2 2.844472 1_655
Ca0 O2 2.844472 1_565
Ca0 O4 2.898396 1_555
Ca0 O5 2.898396 1_555
Ca1 O6 2.235146 1_555
Ca1 O2 2.390573 1_555
Ca1 O5 2.393276 1_455
Ca1 O4 2.393276 1_545
Ca1 O0 2.801550 1_455
Ca1 O3 2.801550 1_545
Ca1 O7 2.844472 1_545
Ca1 O7 2.844472 1_455
Ca1 O3 2.898396 1_555
Ca1 O0 2.898396 1_555
Ca2 O3 2.463928 1_545
Ca2 O0 2.463928 1_455
Ca2 O5 2.463928 1_454
Ca2 O4 2.463928 1_544
Ca2 O7 2.475411 1_445
Ca2 O2 2.475411 1_554
O0 V0 1.721202 1_555
O1 V0 1.691972 1_556
O2 V1 1.723138 1_555
O3 V0 1.721202 1_555
O4 V1 1.721202 1_555
O5 V1 1.721202 1_555
O6 V1 1.691972 1_554
O7 V0 1.723138 1_555
