# generated using pymatgen
data_K4Mn3F12
_symmetry_space_group_name_H-M   'P 1'
_cell_length_a   10.02138318
_cell_length_b   10.02139844
_cell_length_c   10.02126368
_cell_angle_alpha   131.00338914
_cell_angle_beta   131.00328504
_cell_angle_gamma   71.80688665
_symmetry_Int_Tables_number   1
_chemical_formula_structural   K4Mn3F12
_chemical_formula_sum   'K8 Mn6 F24'
_cell_volume   560.69326570
_cell_formula_units_Z   2
loop_
 _symmetry_equiv_pos_site_id
 _symmetry_equiv_pos_as_xyz
  1  'x, y, z'
loop_
 _atom_site_type_symbol
 _atom_site_label
 _atom_site_symmetry_multiplicity
 _atom_site_fract_x
 _atom_site_fract_y
 _atom_site_fract_z
 _atom_site_occupancy
  K  K0  1  0.87502481  0.40253969  0.02751642  1
  K  K1  1  0.15247806  0.62498605  0.02751460  1
  K  K2  1  0.59748184  0.12497265  0.97250570  1
  K  K3  1  0.37502755  0.84750186  0.97247581  1
  K  K4  1  0.87502398  0.84751031  0.47248283  1
  K  K5  1  0.59747105  0.62497868  0.47250737  1
  K  K6  1  0.37501835  0.40251720  0.52748576  1
  K  K7  1  0.15247193  0.12497214  0.52749304  1
  Mn  Mn0  1  0.75000039  0.25000010  0.50000398  1
  Mn  Mn1  1  0.00000061  0.00000333  0.00000016  1
  Mn  Mn2  1  0.24427308  0.24426891  -0.00000136  1
  Mn  Mn3  1  0.99423144  0.49423444  0.50000181  1
  Mn  Mn4  1  0.50576857  0.00578566  0.50001498  1
  Mn  Mn5  1  0.75572200  0.75572675  -0.00000892  1
  F  F0  1  0.64061307  0.64061342  0.00000623  1
  F  F1  1  0.39066193  0.89066193  0.50000535  1
  F  F2  1  0.10933619  0.60933677  0.49999248  1
  F  F3  1  0.35938692  0.35938719  -0.00000435  1
  F  F4  1  0.87390779  0.87390827  -0.00000247  1
  F  F5  1  0.62400978  0.12400793  0.49999592  1
  F  F6  1  0.87599061  0.37599087  0.50000286  1
  F  F7  1  0.12609300  0.12609434  0.00000387  1
  F  F8  1  0.53519583  0.75714700  0.77804756  1
  F  F9  1  0.24285791  0.02089809  0.77804613  1
  F  F10  1  0.24285238  0.46481477  0.22196168  1
  F  F11  1  0.21471052  0.49282391  0.72188998  1
  F  F12  1  0.77093056  0.49283057  0.27810842  1
  F  F13  1  0.50717417  0.22905998  0.72188486  1
  F  F14  1  0.99176986  0.24497455  0.74679506  1
  F  F15  1  0.99471074  0.74793959  0.75322981  1
  F  F16  1  0.99470867  0.24148148  0.24677335  1
  F  F17  1  0.75851981  0.00529402  0.75323075  1
  F  F18  1  0.25206063  0.00529309  0.24677218  1
  F  F19  1  0.75502096  0.50181793  0.74679412  1
  F  F20  1  0.75502233  0.00822702  0.25320399  1
  F  F21  1  0.49818449  0.24497876  0.25320838  1
  F  F22  1  0.97911061  0.75714364  0.22196246  1
  F  F23  1  0.50717757  0.78527610  0.27809920  1
loop_
_geom_bond_atom_site_label_1
_geom_bond_atom_site_label_2
_geom_bond_distance
_geom_bond_site_symmetry_2
F0 Mn5 1.868927 1_555
F0 K3 2.792806 1_554
F0 K4 2.792833 1_555
F0 K0 2.792870 1_555
F0 K6 2.793102 1_554
F1 Mn4 1.868792 1_565
F1 K5 2.793057 1_555
F1 K1 2.793072 1_555
F1 K7 2.793092 1_565
F1 K2 2.793112 1_565
F2 Mn3 1.868757 1_455
F2 K0 2.792977 1_455
F2 K4 2.793018 1_455
F2 K3 2.793044 1_555
F2 K6 2.793105 1_555
F3 Mn2 1.868908 1_555
F3 K7 2.792983 1_554
F3 K2 2.793001 1_554
F3 K1 2.793003 1_555
F3 K5 2.793049 1_555
F4 Mn5 1.918633 1_555
F4 Mn1 2.047086 1_665
F4 K2 3.104187 1_564
F4 K1 3.104207 1_655
F4 K5 3.104217 1_554
F4 K7 3.104248 1_665
F5 Mn4 1.919621 1_555
F5 Mn0 2.045377 1_555
F5 K6 3.104242 1_555
F5 K4 3.104315 1_545
F5 K3 3.104393 1_544
F5 K0 3.104394 1_556
F6 Mn3 1.919645 1_555
F6 Mn0 2.045437 1_555
F6 K7 3.104239 1_655
F6 K2 3.104250 1_554
F6 K5 3.104284 1_555
F6 K1 3.104335 1_656
F7 Mn2 1.918625 1_555
F7 Mn1 2.047041 1_555
F7 K6 3.104165 1_555
F7 K0 3.104329 1_455
F7 K4 3.104402 1_444
F7 K3 3.104413 1_544
F8 Mn5 1.844734 1_556
F8 K3 2.841440 1_555
F8 K6 2.841709 1_555
F8 K5 2.861582 1_555
F8 K2 2.861712 1_565
F9 Mn2 1.844808 1_556
F9 K7 2.841602 1_555
F9 K2 2.841635 1_555
F9 K3 2.861708 1_545
F9 K4 2.861816 1_445
F10 Mn2 1.844897 1_555
F10 K1 2.841572 1_555
F10 K5 2.841611 1_555
F10 K6 2.861621 1_555
F10 K0 2.861748 1_455
F11 Mn3 1.844266 1_455
F11 K3 2.842569 1_555
F11 K6 2.842664 1_555
F11 K1 2.862038 1_556
F11 K7 2.862056 1_555
F12 Mn3 1.844319 1_555
F12 K0 2.842484 1_555
F12 K4 2.842528 1_555
F12 K5 2.862077 1_555
F12 K2 2.862122 1_554
F13 Mn4 1.844101 1_555
F13 K2 2.842631 1_555
F13 K7 2.842649 1_555
F13 K6 2.862050 1_555
F13 K0 2.862111 1_556
F14 Mn0 2.052723 1_555
F14 Mn2 2.104435 1_656
F14 K7 2.972615 1_655
F14 K1 2.972734 1_656
F14 K0 3.018676 1_556
F14 K4 3.018728 1_545
F15 Mn1 2.052728 1_666
F15 Mn3 2.104588 1_555
F15 K4 2.976269 1_555
F15 K3 2.976339 1_655
F15 K1 3.016349 1_656
F15 K5 3.016439 1_555
F16 Mn1 2.052721 1_655
F16 Mn3 2.104607 1_555
F16 K0 2.976259 1_555
F16 K6 2.976284 1_655
F16 K7 3.016279 1_655
F16 K2 3.016335 1_554
F17 Mn1 2.052711 1_656
F17 Mn4 2.104610 1_555
F17 K2 2.976234 1_555
F17 K5 2.976347 1_545
F17 K4 3.016426 1_545
F17 K0 3.016450 1_556
F18 Mn1 2.052720 1_555
F18 Mn4 2.104608 1_555
F18 K7 2.976202 1_555
F18 K1 2.976266 1_545
F18 K6 3.016321 1_555
F18 K3 3.016505 1_544
F19 Mn0 2.052730 1_555
F19 Mn5 2.104401 1_556
F19 K0 2.972593 1_556
F19 K6 2.972646 1_555
F19 K5 3.018555 1_555
F19 K1 3.018697 1_656
F20 Mn0 2.052758 1_555
F20 Mn5 2.104434 1_545
F20 K4 2.972562 1_545
F20 K3 2.972627 1_544
F20 K2 3.018543 1_554
F20 K7 3.018650 1_655
F21 Mn0 2.052741 1_555
F21 Mn2 2.104431 1_555
F21 K2 2.972563 1_554
F21 K5 2.972619 1_555
F21 K6 3.018540 1_555
F21 K3 3.018816 1_544
F22 Mn5 1.844956 1_555
F22 K4 2.841477 1_555
F22 K0 2.841539 1_555
F22 K1 2.861602 1_655
F22 K7 2.861750 1_665
F23 Mn4 1.844498 1_565
F23 K5 2.842648 1_555
F23 K1 2.842653 1_555
F23 K3 2.862017 1_554
F23 K4 2.862038 1_555
