# generated using pymatgen
data_ThP2O7
_symmetry_space_group_name_H-M   'P 1'
_cell_length_a   8.96738856
_cell_length_b   8.96738856
_cell_length_c   8.96738856
_cell_angle_alpha   90.00000000
_cell_angle_beta   90.00000000
_cell_angle_gamma   90.00000000
_symmetry_Int_Tables_number   1
_chemical_formula_structural   ThP2O7
_chemical_formula_sum   'Th4 P8 O28'
_cell_volume   721.10410006
_cell_formula_units_Z   4
loop_
 _symmetry_equiv_pos_site_id
 _symmetry_equiv_pos_as_xyz
  1  'x, y, z'
loop_
 _atom_site_type_symbol
 _atom_site_label
 _atom_site_symmetry_multiplicity
 _atom_site_fract_x
 _atom_site_fract_y
 _atom_site_fract_z
 _atom_site_occupancy
  Th  Th0  1  0.00000000  0.50000000  0.50000000  1
  Th  Th1  1  0.50000000  0.50000000  -0.00000000  1
  Th  Th2  1  0.50000000  0.00000000  0.50000000  1
  Th  Th3  1  0.00000000  0.00000000  -0.00000000  1
  P  P0  1  0.39894959  0.10105041  0.89894959  1
  P  P1  1  0.10105041  0.89894959  0.39894959  1
  P  P2  1  0.89894959  0.39894959  0.10105041  1
  P  P3  1  0.60105041  0.60105041  0.60105041  1
  P  P4  1  0.60105041  0.89894959  0.10105041  1
  P  P5  1  0.89894959  0.10105041  0.60105041  1
  P  P6  1  0.10105041  0.60105041  0.89894959  1
  P  P7  1  0.39894959  0.39894959  0.39894959  1
  O  O0  1  0.76058913  0.57054706  0.55576376  1
  O  O1  1  0.26058913  0.92945294  0.44423624  1
  O  O2  1  0.23941087  0.07054706  0.94423624  1
  O  O3  1  0.92945294  0.44423624  0.26058913  1
  O  O4  1  0.94423624  0.23941087  0.07054706  1
  O  O5  1  0.44423624  0.26058913  0.92945294  1
  O  O6  1  0.57054706  0.55576376  0.76058913  1
  O  O7  1  0.55576376  0.76058913  0.57054706  1
  O  O8  1  0.07054706  0.94423624  0.23941087  1
  O  O9  1  0.42945294  0.05576376  0.73941087  1
  O  O10  1  0.05576376  0.73941087  0.42945294  1
  O  O11  1  0.73941087  0.42945294  0.05576376  1
  O  O12  1  0.50000000  0.50000000  0.50000000  1
  O  O13  1  0.00000000  0.50000000  -0.00000000  1
  O  O14  1  0.00000000  0.00000000  0.50000000  1
  O  O15  1  0.50000000  0.00000000  -0.00000000  1
  O  O16  1  0.26058913  0.57054706  0.94423624  1
  O  O17  1  0.94423624  0.26058913  0.57054706  1
  O  O18  1  0.57054706  0.94423624  0.26058913  1
  O  O19  1  0.92945294  0.05576376  0.76058913  1
  O  O20  1  0.44423624  0.23941087  0.42945294  1
  O  O21  1  0.42945294  0.44423624  0.23941087  1
  O  O22  1  0.55576376  0.73941087  0.07054706  1
  O  O23  1  0.05576376  0.76058913  0.92945294  1
  O  O24  1  0.07054706  0.55576376  0.73941087  1
  O  O25  1  0.76058913  0.92945294  0.05576376  1
  O  O26  1  0.73941087  0.07054706  0.55576376  1
  O  O27  1  0.23941087  0.42945294  0.44423624  1
loop_
_geom_bond_atom_site_label_1
_geom_bond_atom_site_label_2
_geom_bond_distance
_geom_bond_site_symmetry_2
O0 P3 1.512114 1_555
O0 Th0 2.293339 1_655
O1 P1 1.512114 1_555
O1 Th2 2.293339 1_565
O2 P0 1.512114 1_555
O2 Th3 2.293339 1_556
O3 P2 1.512114 1_555
O3 Th0 2.293339 1_655
O4 P2 1.512114 1_555
O4 Th3 2.293339 1_655
O5 P0 1.512114 1_555
O5 Th1 2.293339 1_556
O6 P3 1.512114 1_555
O6 Th1 2.293339 1_556
O7 P3 1.512114 1_555
O7 Th2 2.293339 1_565
O8 P1 1.512114 1_555
O8 Th3 2.293339 1_565
O9 P0 1.512114 1_555
O9 Th2 2.293339 1_555
O10 P1 1.512114 1_555
O10 Th0 2.293339 1_555
O11 P2 1.512114 1_555
O11 Th1 2.293339 1_555
O12 P7 1.569512 1_555
O12 P3 1.569512 1_555
O13 P2 1.569512 1_455
O13 P6 1.569512 1_554
O14 P1 1.569512 1_545
O14 P5 1.569512 1_455
O15 P0 1.569512 1_554
O15 P4 1.569512 1_545
O16 P6 1.512114 1_555
O16 Th1 2.293339 1_556
O17 P5 1.512114 1_555
O17 Th0 2.293339 1_655
O18 P4 1.512114 1_555
O18 Th2 2.293339 1_565
O19 P5 1.512114 1_555
O19 Th3 2.293339 1_656
O20 P7 1.512114 1_555
O20 Th2 2.293339 1_555
O21 P7 1.512114 1_555
O21 Th1 2.293339 1_555
O22 P4 1.512114 1_555
O22 Th1 2.293339 1_555
O23 P6 1.512114 1_555
O23 Th3 2.293339 1_566
O24 P6 1.512114 1_555
O24 Th0 2.293339 1_555
O25 P4 1.512114 1_555
O25 Th3 2.293339 1_665
O26 P5 1.512114 1_555
O26 Th2 2.293339 1_555
O27 P7 1.512114 1_555
O27 Th0 2.293339 1_555
