# generated using pymatgen
data_La3Si2S8Br
_symmetry_space_group_name_H-M   'P 1'
_cell_length_a   8.90111319
_cell_length_b   8.90111319
_cell_length_c   11.04724530
_cell_angle_alpha   83.44763330
_cell_angle_beta   83.44763330
_cell_angle_gamma   52.59602478
_symmetry_Int_Tables_number   1
_chemical_formula_structural   La3Si2S8Br
_chemical_formula_sum   'La6 Si4 S16 Br2'
_cell_volume   689.63598840
_cell_formula_units_Z   2
loop_
 _symmetry_equiv_pos_site_id
 _symmetry_equiv_pos_as_xyz
  1  'x, y, z'
loop_
 _atom_site_type_symbol
 _atom_site_label
 _atom_site_symmetry_multiplicity
 _atom_site_fract_x
 _atom_site_fract_y
 _atom_site_fract_z
 _atom_site_occupancy
  La  La0  1  0.07442900  0.31398200  0.81677000  1
  La  La1  1  0.39276100  0.60723900  0.75000000  1
  La  La2  1  0.31398200  0.07442900  0.31677000  1
  La  La3  1  0.60723900  0.39276100  0.25000000  1
  La  La4  1  0.92557100  0.68601800  0.18323000  1
  La  La5  1  0.68601800  0.92557100  0.68323000  1
  Si  Si0  1  0.62627700  0.69379000  0.96979600  1
  Si  Si1  1  0.30621000  0.37372300  0.53020400  1
  Si  Si2  1  0.69379000  0.62627700  0.46979600  1
  Si  Si3  1  0.37372300  0.30621000  0.03020400  1
  S  S0  1  0.74384100  0.55439600  0.65864000  1
  S  S1  1  0.14562700  0.28961500  0.08494400  1
  S  S2  1  0.89132900  0.40097100  0.35519700  1
  S  S3  1  0.27950000  0.58672600  0.04806700  1
  S  S4  1  0.28961500  0.14562700  0.58494400  1
  S  S5  1  0.44560400  0.25615900  0.84136000  1
  S  S6  1  0.72050000  0.41327400  0.95193300  1
  S  S7  1  0.41327400  0.72050000  0.45193300  1
  S  S8  1  0.40097100  0.89132900  0.85519700  1
  S  S9  1  0.85437300  0.71038500  0.91505600  1
  S  S10  1  0.71038500  0.85437300  0.41505600  1
  S  S11  1  0.55439600  0.74384100  0.15864000  1
  S  S12  1  0.58672600  0.27950000  0.54806700  1
  S  S13  1  0.25615900  0.44560400  0.34136000  1
  S  S14  1  0.59902900  0.10867100  0.14480300  1
  S  S15  1  0.10867100  0.59902900  0.64480300  1
  Br  Br0  1  0.00520500  0.99479500  0.25000000  1
  Br  Br1  1  0.99479500  0.00520500  0.75000000  1
loop_
_geom_bond_atom_site_label_1
_geom_bond_atom_site_label_2
_geom_bond_distance
_geom_bond_site_symmetry_2
La0 S4 2.956794 1_555
La0 S6 2.963196 1_455
La0 S0 2.993317 1_455
La0 S1 3.056212 1_556
La0 S5 3.059632 1_555
La0 S8 3.068313 1_545
La0 S9 3.075408 1_455
La0 S15 3.137966 1_555
La1 S5 2.933999 1_555
La1 S0 2.933999 1_555
La1 S15 2.943616 1_555
La1 S8 2.943616 1_555
La1 S12 3.309837 1_555
La1 S6 3.309837 1_555
La1 S7 3.349799 1_555
La1 S3 3.349799 1_556
La2 S1 2.956794 1_555
La2 S7 2.963196 1_545
La2 S11 2.993317 1_545
La2 S4 3.056212 1_555
La2 S13 3.059632 1_555
La2 S2 3.068313 1_455
La2 S10 3.075408 1_545
La2 S14 3.137966 1_555
La3 S11 2.933999 1_555
La3 S13 2.933999 1_555
La3 S14 2.943616 1_555
La3 S2 2.943616 1_555
La3 S3 3.309837 1_555
La3 S7 3.309837 1_555
La3 S6 3.349799 1_554
La3 S12 3.349799 1_555
La4 S10 2.956794 1_555
La4 S3 2.963196 1_655
La4 S13 2.993317 1_655
La4 S9 3.056212 1_554
La4 S11 3.059632 1_555
La4 S14 3.068313 1_565
La4 S1 3.075408 1_655
La4 S2 3.137966 1_555
La5 S9 2.956794 1_555
La5 S12 2.963196 1_565
La5 S5 2.993317 1_565
La5 S10 3.056212 1_555
La5 S0 3.059632 1_555
La5 S15 3.068313 1_655
La5 S4 3.075408 1_565
La5 S8 3.137966 1_555
S0 Si2 2.126334 1_555
S1 Si3 2.138554 1_555
S2 Si2 2.122231 1_555
S3 Si3 2.123083 1_555
S4 Si1 2.138554 1_555
S5 Si3 2.126334 1_556
S6 Si0 2.123083 1_555
S7 Si2 2.123083 1_555
S8 Si0 2.122231 1_555
S9 Si0 2.138554 1_555
S10 Si2 2.138554 1_555
S11 Si0 2.126334 1_554
S12 Si1 2.123083 1_555
S13 Si1 2.126334 1_555
S14 Si3 2.122231 1_555
S15 Si1 2.122231 1_555
Br0 La3 3.138798 1_465
Br0 La4 3.398434 1_455
Br0 La2 3.398434 1_565
Br1 La1 3.138798 1_645
Br1 La5 3.398434 1_545
Br1 La0 3.398434 1_655
