# generated using pymatgen
data_Cs3KRe6C6(S4N3)2
_symmetry_space_group_name_H-M   'P 1'
_cell_length_a   15.65419899
_cell_length_b   15.65419899
_cell_length_c   15.65419899
_cell_angle_alpha   109.47122063
_cell_angle_beta   109.47122063
_cell_angle_gamma   109.47122063
_symmetry_Int_Tables_number   1
_chemical_formula_structural   Cs3KRe6C6(S4N3)2
_chemical_formula_sum   'Cs12 K4 Re24 C24 S32 N24'
_cell_volume   2953.04904178
_cell_formula_units_Z   4
loop_
 _symmetry_equiv_pos_site_id
 _symmetry_equiv_pos_as_xyz
  1  'x, y, z'
loop_
 _atom_site_type_symbol
 _atom_site_label
 _atom_site_symmetry_multiplicity
 _atom_site_fract_x
 _atom_site_fract_y
 _atom_site_fract_z
 _atom_site_occupancy
  Cs  Cs0  1  0.44853300  0.25000000  0.69853300  1
  Cs  Cs1  1  0.75000000  0.30146700  0.55146700  1
  Cs  Cs2  1  0.75000000  0.80146700  0.05146700  1
  Cs  Cs3  1  0.25000000  0.69853300  0.44853300  1
  Cs  Cs4  1  0.94853300  0.25000000  0.19853300  1
  Cs  Cs5  1  0.55146700  0.75000000  0.30146700  1
  Cs  Cs6  1  0.25000000  0.19853300  0.94853300  1
  Cs  Cs7  1  0.19853300  0.94853300  0.25000000  1
  Cs  Cs8  1  0.05146700  0.75000000  0.80146700  1
  Cs  Cs9  1  0.30146700  0.55146700  0.75000000  1
  Cs  Cs10  1  0.69853300  0.44853300  0.25000000  1
  Cs  Cs11  1  0.80146700  0.05146700  0.75000000  1
  K  K0  1  0.50000000  0.00000000  0.50000000  1
  K  K1  1  0.00000000  0.50000000  0.50000000  1
  K  K2  1  0.00000000  0.00000000  0.00000000  1
  K  K3  1  0.50000000  0.50000000  0.00000000  1
  Re  Re0  1  0.89332000  0.86255900  0.40040600  1
  Re  Re1  1  0.50708600  0.90040600  0.03784700  1
  Re  Re2  1  0.99291400  0.03076100  0.39332000  1
  Re  Re3  1  0.96215300  0.49291400  0.09959400  1
  Re  Re4  1  0.10668000  0.13744100  0.59959400  1
  Re  Re5  1  0.53784700  0.63744100  0.53076100  1
  Re  Re6  1  0.00708600  0.96923900  0.60668000  1
  Re  Re7  1  0.49291400  0.09959400  0.96215300  1
  Re  Re8  1  0.63744100  0.53076100  0.53784700  1
  Re  Re9  1  0.59959400  0.10668000  0.13744100  1
  Re  Re10  1  0.13744100  0.59959400  0.10668000  1
  Re  Re11  1  0.09959400  0.96215300  0.49291400  1
  Re  Re12  1  0.39332000  0.99291400  0.03076100  1
  Re  Re13  1  0.53076100  0.53784700  0.63744100  1
  Re  Re14  1  0.46923900  0.46215300  0.36255900  1
  Re  Re15  1  0.03784700  0.50708600  0.90040600  1
  Re  Re16  1  0.03076100  0.39332000  0.99291400  1
  Re  Re17  1  0.60668000  0.00708600  0.96923900  1
  Re  Re18  1  0.36255900  0.46923900  0.46215300  1
  Re  Re19  1  0.46215300  0.36255900  0.46923900  1
  Re  Re20  1  0.40040600  0.89332000  0.86255900  1
  Re  Re21  1  0.86255900  0.40040600  0.89332000  1
  Re  Re22  1  0.90040600  0.03784700  0.50708600  1
  Re  Re23  1  0.96923900  0.60668000  0.00708600  1
  C  C0  1  0.49010300  0.22044400  0.93256700  1
  C  C1  1  0.28787700  0.72044400  0.23034000  1
  C  C2  1  0.76966000  0.71212300  0.27955600  1
  C  C3  1  0.55753700  0.56743300  0.78787700  1
  C  C4  1  0.77955600  0.06743300  0.50989700  1
  C  C5  1  0.78787700  0.55753700  0.56743300  1
  C  C6  1  0.44246300  0.43256700  0.21212300  1
  C  C7  1  0.26966000  0.99010300  0.05753700  1
  C  C8  1  0.22044400  0.93256700  0.49010300  1
  C  C9  1  0.05753700  0.26966000  0.99010300  1
  C  C10  1  0.21212300  0.44246300  0.43256700  1
  C  C11  1  0.73034000  0.00989700  0.94246300  1
  C  C12  1  0.71212300  0.27955600  0.76966000  1
  C  C13  1  0.56743300  0.78787700  0.55753700  1
  C  C14  1  0.23034000  0.28787700  0.72044400  1
  C  C15  1  0.06743300  0.50989700  0.77955600  1
  C  C16  1  0.27955600  0.76966000  0.71212300  1
  C  C17  1  0.99010300  0.05753700  0.26966000  1
  C  C18  1  0.43256700  0.21212300  0.44246300  1
  C  C19  1  0.00989700  0.94246300  0.73034000  1
  C  C20  1  0.94246300  0.73034000  0.00989700  1
  C  C21  1  0.93256700  0.49010300  0.22044400  1
  C  C22  1  0.72044400  0.23034000  0.28787700  1
  C  C23  1  0.50989700  0.77955600  0.06743300  1
  S  S0  1  0.31020400  0.31020400  0.31020400  1
  S  S1  1  0.43812600  0.63371600  0.61990400  1
  S  S2  1  0.86628400  0.30441000  0.98618800  1
  S  S3  1  0.88009600  0.51381200  0.81822300  1
  S  S4  1  0.68177700  0.19559000  0.06187400  1
  S  S5  1  0.69559000  0.01381200  0.13371600  1
  S  S6  1  0.06187400  0.68177700  0.19559000  1
  S  S7  1  0.93812600  0.31822300  0.80441000  1
  S  S8  1  0.11990400  0.48618800  0.18177700  1
  S  S9  1  0.98618800  0.86628400  0.30441000  1
  S  S10  1  0.68979600  0.68979600  0.68979600  1
  S  S11  1  0.81020400  0.50000000  0.00000000  1
  S  S12  1  0.50000000  0.00000000  0.18979600  1
  S  S13  1  0.63371600  0.61990400  0.43812600  1
  S  S14  1  0.81822300  0.88009600  0.51381200  1
  S  S15  1  0.19559000  0.06187400  0.68177700  1
  S  S16  1  0.51381200  0.81822300  0.88009600  1
  S  S17  1  0.18177700  0.11990400  0.48618800  1
  S  S18  1  0.30441000  0.98618800  0.86628400  1
  S  S19  1  0.18979600  0.50000000  0.00000000  1
  S  S20  1  0.01381200  0.13371600  0.69559000  1
  S  S21  1  0.48618800  0.18177700  0.11990400  1
  S  S22  1  0.00000000  0.18979600  0.50000000  1
  S  S23  1  0.36628400  0.38009600  0.56187400  1
  S  S24  1  0.13371600  0.69559000  0.01381200  1
  S  S25  1  0.00000000  0.81020400  0.50000000  1
  S  S26  1  0.38009600  0.56187400  0.36628400  1
  S  S27  1  0.31822300  0.80441000  0.93812600  1
  S  S28  1  0.80441000  0.93812600  0.31822300  1
  S  S29  1  0.61990400  0.43812600  0.63371600  1
  S  S30  1  0.50000000  0.00000000  0.81020400  1
  S  S31  1  0.56187400  0.36628400  0.38009600  1
  N  N0  1  0.49045100  0.29283900  0.92471100  1
  N  N1  1  0.79283900  0.30238700  0.36812800  1
  N  N2  1  0.69761300  0.63187200  0.20716100  1
  N  N3  1  0.06574100  0.19761300  0.99045100  1
  N  N4  1  0.30238700  0.36812800  0.79283900  1
  N  N5  1  0.20716100  0.69761300  0.63187200  1
  N  N6  1  0.99045100  0.06574100  0.19761300  1
  N  N7  1  0.36812800  0.79283900  0.30238700  1
  N  N8  1  0.29283900  0.92471100  0.49045100  1
  N  N9  1  0.50954900  0.70716100  0.07528900  1
  N  N10  1  0.00954900  0.93425900  0.80238700  1
  N  N11  1  0.56574100  0.57528900  0.86812800  1
  N  N12  1  0.63187200  0.20716100  0.69761300  1
  N  N13  1  0.80238700  0.00954900  0.93425900  1
  N  N14  1  0.92471100  0.49045100  0.29283900  1
  N  N15  1  0.57528900  0.86812800  0.56574100  1
  N  N16  1  0.70716100  0.07528900  0.50954900  1
  N  N17  1  0.93425900  0.80238700  0.00954900  1
  N  N18  1  0.19761300  0.99045100  0.06574100  1
  N  N19  1  0.13187200  0.43425900  0.42471100  1
  N  N20  1  0.43425900  0.42471100  0.13187200  1
  N  N21  1  0.07528900  0.50954900  0.70716100  1
  N  N22  1  0.42471100  0.13187200  0.43425900  1
  N  N23  1  0.86812800  0.56574100  0.57528900  1
loop_
_geom_bond_atom_site_label_1
_geom_bond_atom_site_label_2
_geom_bond_distance
_geom_bond_site_symmetry_2
Cs0 N12 3.160886 1_555
Cs0 N0 3.160890 1_555
Cs0 S23 3.632928 1_555
Cs0 S17 3.632938 1_555
Cs0 S15 3.929230 1_555
Cs0 S29 3.929238 1_555
Cs1 N1 3.160886 1_555
Cs1 N16 3.160890 1_555
Cs1 S29 3.632928 1_555
Cs1 S3 3.632938 1_555
Cs1 S7 3.929230 1_555
Cs1 S31 3.929238 1_555
Cs2 N17 3.160878 1_555
Cs2 N11 3.160886 1_554
Cs2 S5 3.632928 1_565
Cs2 S28 3.632942 1_555
Cs2 S9 3.929238 1_555
Cs2 S16 3.929248 1_554
Cs3 N5 3.160886 1_555
Cs3 N8 3.160890 1_555
Cs3 S26 3.632928 1_555
Cs3 S8 3.632938 1_555
Cs3 S6 3.929230 1_555
Cs3 S1 3.929238 1_555
Cs4 N6 3.160878 1_555
Cs4 N19 3.160886 1_655
Cs4 S2 3.632928 1_554
Cs4 S4 3.632942 1_555
Cs4 S5 3.929238 1_555
Cs4 S8 3.929248 1_655
Cs5 N7 3.160886 1_555
Cs5 N9 3.160890 1_555
Cs5 S13 3.632928 1_555
Cs5 S14 3.632938 1_555
Cs5 S28 3.929230 1_555
Cs5 S26 3.929238 1_555
Cs6 N3 3.160878 1_555
Cs6 N20 3.160886 1_556
Cs6 S18 3.632928 1_545
Cs6 S15 3.632942 1_555
Cs6 S20 3.929238 1_555
Cs6 S21 3.929248 1_556
Cs7 N18 3.160878 1_555
Cs7 N22 3.160886 1_565
Cs7 S9 3.632928 1_455
Cs7 S6 3.632942 1_555
Cs7 S24 3.929238 1_555
Cs7 S17 3.929248 1_565
Cs8 N10 3.160878 1_555
Cs8 N23 3.160886 1_455
Cs8 S24 3.632928 1_556
Cs8 S27 3.632942 1_555
Cs8 S18 3.929238 1_555
Cs8 S3 3.929248 1_455
Cs9 N4 3.160886 1_555
Cs9 N21 3.160890 1_555
Cs9 S1 3.632928 1_555
Cs9 S16 3.632938 1_555
Cs9 S27 3.929230 1_555
Cs9 S23 3.929238 1_555
Cs10 N2 3.160886 1_555
Cs10 N14 3.160890 1_555
Cs10 S31 3.632928 1_555
Cs10 S21 3.632938 1_555
Cs10 S4 3.929230 1_555
Cs10 S13 3.929238 1_555
Cs11 N13 3.160878 1_555
Cs11 N15 3.160886 1_545
Cs11 S20 3.632928 1_655
Cs11 S7 3.632942 1_555
Cs11 S2 3.929238 1_555
Cs11 S14 3.929248 1_545
K0 N8 2.989881 1_545
K0 N16 2.989881 1_555
K0 N22 2.989888 1_555
K0 N7 2.989888 1_545
K0 N12 2.989888 1_555
K0 N15 2.989888 1_545
K1 N14 2.989881 1_455
K1 N21 2.989881 1_555
K1 N19 2.989888 1_555
K1 N1 2.989888 1_455
K1 N23 2.989888 1_455
K1 N5 2.989888 1_555
K2 N18 2.989895 1_545
K2 N3 2.989895 1_554
K2 N13 2.989895 1_454
K2 N10 2.989895 1_544
K2 N17 2.989895 1_445
K2 N6 2.989895 1_455
K3 N0 2.989881 1_554
K3 N9 2.989881 1_555
K3 N20 2.989888 1_555
K3 N4 2.989888 1_554
K3 N2 2.989888 1_555
K3 N11 2.989888 1_554
Re0 S9 2.415248 1_555
Re0 S14 2.427046 1_555
Re0 S28 2.431066 1_555
Re0 S25 2.433065 1_655
Re1 S27 2.415235 1_554
Re1 S5 2.427058 1_565
Re1 S16 2.431070 1_554
Re1 S12 2.433065 1_565
Re2 S17 2.415235 1_655
Re2 S28 2.427060 1_545
Re2 S9 2.431074 1_545
Re2 S22 2.433065 1_655
Re3 S6 2.415235 1_655
Re3 S2 2.427058 1_554
Re3 S8 2.431070 1_655
Re3 S11 2.433065 1_555
Re4 S20 2.415248 1_555
Re4 S17 2.427046 1_555
Re4 S15 2.431066 1_555
Re4 S22 2.433065 1_555
Re5 S1 2.415248 1_555
Re5 S13 2.427058 1_555
Re5 S26 2.431074 1_555
Re5 S10 2.433065 1_555
Re6 S14 2.415235 1_455
Re6 S15 2.427060 1_565
Re6 S20 2.431074 1_565
Re6 S25 2.433065 1_555
Re7 S4 2.415235 1_556
Re7 S18 2.427058 1_545
Re7 S21 2.431070 1_556
Re7 S30 2.433065 1_555
Re8 S13 2.415248 1_555
Re8 S29 2.427058 1_555
Re8 S31 2.431074 1_555
Re8 S10 2.433065 1_555
Re9 S5 2.415248 1_555
Re9 S21 2.427046 1_555
Re9 S4 2.431066 1_555
Re9 S12 2.433065 1_555
Re10 S24 2.415248 1_555
Re10 S8 2.427046 1_555
Re10 S6 2.431066 1_555
Re10 S19 2.433065 1_555
Re11 S15 2.415235 1_565
Re11 S9 2.427058 1_455
Re11 S17 2.431070 1_565
Re11 S25 2.433065 1_555
Re12 S21 2.415235 1_565
Re12 S27 2.427060 1_554
Re12 S18 2.431074 1_554
Re12 S12 2.433065 1_565
Re13 S29 2.415248 1_555
Re13 S1 2.427058 1_555
Re13 S23 2.431074 1_555
Re13 S10 2.433065 1_555
Re14 S26 2.415248 1_555
Re14 S31 2.427058 1_555
Re14 S13 2.431074 1_555
Re14 S0 2.433065 1_555
Re15 S7 2.415235 1_455
Re15 S24 2.427058 1_556
Re15 S3 2.431070 1_455
Re15 S19 2.433065 1_556
Re16 S8 2.415235 1_556
Re16 S7 2.427060 1_455
Re16 S2 2.431074 1_455
Re16 S19 2.433065 1_556
Re17 S16 2.415235 1_545
Re17 S4 2.427060 1_556
Re17 S5 2.431074 1_556
Re17 S30 2.433065 1_555
Re18 S23 2.415248 1_555
Re18 S26 2.427058 1_555
Re18 S1 2.431074 1_555
Re18 S0 2.433065 1_555
Re19 S31 2.415248 1_555
Re19 S23 2.427058 1_555
Re19 S29 2.431074 1_555
Re19 S0 2.433065 1_555
Re20 S18 2.415248 1_555
Re20 S16 2.427046 1_555
Re20 S27 2.431066 1_555
Re20 S30 2.433065 1_565
Re21 S2 2.415248 1_555
Re21 S3 2.427046 1_555
Re21 S7 2.431066 1_555
Re21 S11 2.433065 1_556
Re22 S28 2.415235 1_545
Re22 S20 2.427058 1_655
Re22 S14 2.431070 1_545
Re22 S22 2.433065 1_655
Re23 S3 2.415235 1_554
Re23 S6 2.427060 1_655
Re23 S24 2.431074 1_655
Re23 S11 2.433065 1_555
C0 N0 1.178446 1_555
C0 Re7 2.102717 1_555
C1 N7 1.178446 1_555
C1 Re10 2.102713 1_555
C2 N2 1.178446 1_555
C2 Re0 2.102713 1_555
C3 N11 1.178446 1_555
C3 Re13 2.102713 1_555
C4 N16 1.178446 1_555
C4 Re22 2.102717 1_555
C5 N23 1.178446 1_555
C5 Re8 2.102713 1_555
C6 N20 1.178446 1_555
C6 Re14 2.102713 1_555
C7 N18 1.178446 1_555
C7 Re12 2.102709 1_555
C8 N8 1.178446 1_555
C8 Re11 2.102717 1_555
C9 N3 1.178446 1_555
C9 Re16 2.102709 1_555
C10 N19 1.178446 1_555
C10 Re18 2.102713 1_555
C11 N13 1.178446 1_555
C11 Re17 2.102709 1_555
C12 N12 1.178446 1_555
C12 Re21 2.102713 1_555
C13 N15 1.178446 1_555
C13 Re5 2.102713 1_555
C14 N4 1.178446 1_555
C14 Re4 2.102713 1_555
C15 N21 1.178446 1_555
C15 Re15 2.102717 1_555
C16 N5 1.178446 1_555
C16 Re20 2.102713 1_555
C17 N6 1.178446 1_555
C17 Re2 2.102709 1_555
C18 N22 1.178446 1_555
C18 Re19 2.102713 1_555
C19 N10 1.178446 1_555
C19 Re6 2.102709 1_555
C20 N17 1.178446 1_555
C20 Re23 2.102709 1_555
C21 N14 1.178446 1_555
C21 Re3 2.102717 1_555
C22 N1 1.178446 1_555
C22 Re9 2.102713 1_555
C23 N9 1.178446 1_555
C23 Re1 2.102717 1_555
