# generated using pymatgen
data_BaBi4(IO2)2
_symmetry_space_group_name_H-M   'P 1'
_cell_length_a   17.28414793
_cell_length_b   17.28414793
_cell_length_c   17.28414793
_cell_angle_alpha   166.47842091
_cell_angle_beta   166.47842091
_cell_angle_gamma   19.16730846
_symmetry_Int_Tables_number   1
_chemical_formula_structural   BaBi4(IO2)2
_chemical_formula_sum   'Ba1 Bi4 I2 O4'
_cell_volume   282.24939358
_cell_formula_units_Z   1
loop_
 _symmetry_equiv_pos_site_id
 _symmetry_equiv_pos_as_xyz
  1  'x, y, z'
loop_
 _atom_site_type_symbol
 _atom_site_label
 _atom_site_symmetry_multiplicity
 _atom_site_fract_x
 _atom_site_fract_y
 _atom_site_fract_z
 _atom_site_occupancy
  Ba  Ba0  1  0.50000000  0.50000000  0.00000000  1
  Bi  Bi0  1  0.08216400  0.08216400  0.00000000  1
  Bi  Bi1  1  0.91783600  0.91783600  0.00000000  1
  Bi  Bi2  1  0.77589400  0.77589400  0.00000000  1
  Bi  Bi3  1  0.22410600  0.22410600  0.00000000  1
  I  I0  1  0.33493200  0.33493200  0.00000000  1
  I  I1  1  0.66506800  0.66506800  0.00000000  1
  O  O0  1  0.94528900  0.44528900  0.50000000  1
  O  O1  1  0.44528900  0.94528900  0.50000000  1
  O  O2  1  0.55471100  0.05471100  0.50000000  1
  O  O3  1  0.05471100  0.55471100  0.50000000  1
loop_
_geom_bond_atom_site_label_1
_geom_bond_atom_site_label_2
_geom_bond_distance
_geom_bond_site_symmetry_2
Ba0 O2 2.760075 1_565
Ba0 O3 2.760075 1_655
Ba0 O3 2.760075 1_554
Ba0 O2 2.760075 1_554
Ba0 O0 2.760075 1_555
Ba0 O1 2.760075 1_555
Ba0 O1 2.760075 1_544
Ba0 O0 2.760075 1_454
Bi0 O3 2.239624 1_544
Bi0 O2 2.239624 1_454
Bi0 O2 2.239624 1_555
Bi0 O3 2.239624 1_555
Bi1 O1 2.239624 1_554
Bi1 O0 2.239624 1_554
Bi1 O1 2.239624 1_655
Bi1 O0 2.239624 1_565
Bi2 Bi3 3.375887 1_554
Bi2 Bi3 3.375887 1_565
Bi2 Bi3 3.375887 1_655
Bi2 Bi3 3.375887 1_666
Bi2 I0 3.511430 1_565
Bi2 I0 3.511430 1_655
Bi2 I0 3.511430 1_666
Bi2 I0 3.511430 1_554
Bi3 I1 3.511430 1_444
Bi3 I1 3.511430 1_556
Bi3 I1 3.511430 1_455
Bi3 I1 3.511430 1_545
