# generated using pymatgen
data_CaNb2Bi2O9
_symmetry_space_group_name_H-M   'P 1'
_cell_length_a   13.83861243
_cell_length_b   13.83861243
_cell_length_c   13.83861243
_cell_angle_alpha   163.71843456
_cell_angle_beta   163.71843456
_cell_angle_gamma   23.10444018
_symmetry_Int_Tables_number   1
_chemical_formula_structural   CaNb2Bi2O9
_chemical_formula_sum   'Ca1 Nb2 Bi2 O9'
_cell_volume   208.26305822
_cell_formula_units_Z   1
loop_
 _symmetry_equiv_pos_site_id
 _symmetry_equiv_pos_as_xyz
  1  'x, y, z'
loop_
 _atom_site_type_symbol
 _atom_site_label
 _atom_site_symmetry_multiplicity
 _atom_site_fract_x
 _atom_site_fract_y
 _atom_site_fract_z
 _atom_site_occupancy
  Ca  Ca0  1  0.50000000  0.50000000  0.00000000  1
  Nb  Nb0  1  0.92753000  0.92753000  0.00000000  1
  Nb  Nb1  1  0.07247000  0.07247000  0.00000000  1
  Bi  Bi0  1  0.20323700  0.20323700  0.00000000  1
  Bi  Bi1  1  0.79676300  0.79676300  0.00000000  1
  O  O0  1  0.42994200  0.92994200  0.50000000  1
  O  O1  1  0.32909500  0.32909500  0.00000000  1
  O  O2  1  0.75000000  0.25000000  0.50000000  1
  O  O3  1  0.25000000  0.75000000  0.50000000  1
  O  O4  1  0.92994200  0.42994200  0.50000000  1
  O  O5  1  0.57005800  0.07005800  0.50000000  1
  O  O6  1  0.07005800  0.57005800  0.50000000  1
  O  O7  1  0.67090500  0.67090500  0.00000000  1
  O  O8  1  0.00000000  0.00000000  0.00000000  1
loop_
_geom_bond_atom_site_label_1
_geom_bond_atom_site_label_2
_geom_bond_distance
_geom_bond_site_symmetry_2
Ca0 O6 2.729309 1_655
Ca0 O5 2.729309 1_565
Ca0 O6 2.729309 1_554
Ca0 O5 2.729309 1_554
Ca0 O0 2.729309 1_555
Ca0 O4 2.729309 1_555
Ca0 O0 2.729309 1_544
Ca0 O4 2.729309 1_454
Ca0 O8 2.771334 1_655
Ca0 O8 2.771334 1_554
Ca0 O8 2.771334 1_666
Ca0 O8 2.771334 1_565
Nb0 O0 1.960720 1_554
Nb0 O4 1.960720 1_554
Nb0 O0 1.960720 1_655
Nb0 O4 1.960720 1_565
Nb0 O8 1.965137 1_665
Nb1 O5 1.960720 1_454
Nb1 O5 1.960720 1_555
Nb1 O6 1.960720 1_555
Nb1 O6 1.960720 1_544
Nb1 O8 1.965137 1_555
Bi0 O2 2.334117 1_555
Bi0 O3 2.334117 1_555
Bi0 O3 2.334117 1_544
Bi0 O2 2.334117 1_454
Bi0 O7 2.906708 1_545
Bi0 O7 2.906708 1_455
Bi0 O7 2.906708 1_556
Bi0 O7 2.906708 1_444
Bi1 O2 2.334117 1_554
Bi1 O3 2.334117 1_554
Bi1 O3 2.334117 1_655
Bi1 O2 2.334117 1_565
Bi1 O1 2.906708 1_554
Bi1 O1 2.906708 1_655
Bi1 O1 2.906708 1_565
Bi1 O1 2.906708 1_666
