# generated using pymatgen
data_Cu(SbO3)2
_symmetry_space_group_name_H-M   'P 1'
_cell_length_a   4.61864911
_cell_length_b   4.61864911
_cell_length_c   9.40854988
_cell_angle_alpha   90.00000000
_cell_angle_beta   90.00000000
_cell_angle_gamma   90.00038159
_symmetry_Int_Tables_number   1
_chemical_formula_structural   Cu(SbO3)2
_chemical_formula_sum   'Cu2 Sb4 O12'
_cell_volume   200.70242960
_cell_formula_units_Z   2
loop_
 _symmetry_equiv_pos_site_id
 _symmetry_equiv_pos_as_xyz
  1  'x, y, z'
loop_
 _atom_site_type_symbol
 _atom_site_label
 _atom_site_symmetry_multiplicity
 _atom_site_fract_x
 _atom_site_fract_y
 _atom_site_fract_z
 _atom_site_occupancy
  Cu  Cu0  1  -0.00000000  -0.00000000  -0.00000000  1
  Cu  Cu1  1  0.50000000  0.50000000  0.50000000  1
  Sb  Sb0  1  0.50000000  0.50000000  0.83234405  1
  Sb  Sb1  1  -0.00000000  -0.00000000  0.33233814  1
  Sb  Sb2  1  0.50000000  0.50000000  0.16765595  1
  Sb  Sb3  1  -0.00000000  -0.00000000  0.66766186  1
  O  O0  1  0.69933394  0.69933394  0.67360908  1
  O  O1  1  0.30066606  0.30066606  0.67360908  1
  O  O2  1  0.69933394  0.69933394  0.32639092  1
  O  O3  1  0.19932155  0.80067845  0.17359451  1
  O  O4  1  0.80067945  0.19932055  0.17359451  1
  O  O5  1  0.80067845  0.19932155  0.82640549  1
  O  O6  1  0.30654390  0.30654390  -0.00000000  1
  O  O7  1  0.19344050  0.80655950  0.50000000  1
  O  O8  1  0.80655950  0.19344050  0.50000000  1
  O  O9  1  0.69345610  0.69345610  -0.00000000  1
  O  O10  1  0.30066606  0.30066606  0.32639092  1
  O  O11  1  0.19932055  0.80067945  0.82640549  1
loop_
_geom_bond_atom_site_label_1
_geom_bond_atom_site_label_2
_geom_bond_distance
_geom_bond_site_symmetry_2
Cu0 O6 2.002263 1_555
Cu0 O9 2.002263 1_445
Cu0 O4 2.088676 1_455
Cu0 O11 2.088676 1_544
Cu0 O3 2.088680 1_545
Cu0 O5 2.088680 1_454
Cu1 O7 2.002379 1_555
Cu1 O8 2.002379 1_555
Cu1 O1 2.088833 1_555
Cu1 O0 2.088833 1_555
Cu1 O2 2.088833 1_555
Cu1 O10 2.088833 1_555
O0 Sb3 1.964668 1_665
O0 Sb0 1.981321 1_555
O1 Sb3 1.964668 1_555
O1 Sb0 1.981321 1_555
O2 Sb1 1.964668 1_665
O2 Sb2 1.981321 1_555
O3 Sb2 1.964759 1_555
O3 Sb1 1.981335 1_565
O4 Sb2 1.964766 1_555
O4 Sb1 1.981331 1_655
O5 Sb0 1.964759 1_555
O5 Sb3 1.981335 1_655
O6 Sb2 2.021109 1_555
O6 Sb0 2.021109 1_554
O7 Sb1 2.021094 1_565
O7 Sb3 2.021094 1_565
O8 Sb1 2.021094 1_655
O8 Sb3 2.021094 1_655
O9 Sb2 2.021109 1_555
O9 Sb0 2.021109 1_554
O10 Sb1 1.964668 1_555
O10 Sb2 1.981321 1_555
O11 Sb0 1.964766 1_555
O11 Sb3 1.981331 1_565
