# generated using pymatgen
data_Sr5In3
_symmetry_space_group_name_H-M   'P 1'
_cell_length_a   10.32955735
_cell_length_b   10.32955735
_cell_length_c   10.33106449
_cell_angle_alpha   129.76181058
_cell_angle_beta   129.76181058
_cell_angle_gamma   73.77670066
_symmetry_Int_Tables_number   1
_chemical_formula_structural   Sr5In3
_chemical_formula_sum   'Sr10 In6'
_cell_volume   635.49384168
_cell_formula_units_Z   2
loop_
 _symmetry_equiv_pos_site_id
 _symmetry_equiv_pos_as_xyz
  1  'x, y, z'
loop_
 _atom_site_type_symbol
 _atom_site_label
 _atom_site_symmetry_multiplicity
 _atom_site_fract_x
 _atom_site_fract_y
 _atom_site_fract_z
 _atom_site_occupancy
  Sr  Sr0  1  0.03170460  0.53170460  0.85306935  1
  Sr  Sr1  1  0.32136575  0.82136575  0.85306935  1
  Sr  Sr2  1  0.96829540  0.46829540  0.14693065  1
  Sr  Sr3  1  0.00000000  0.00000000  0.00000000  1
  Sr  Sr4  1  0.46812663  0.32150996  0.50000000  1
  Sr  Sr5  1  0.17849004  0.03187337  0.50000000  1
  Sr  Sr6  1  0.67863425  0.17863425  0.14693065  1
  Sr  Sr7  1  0.53187337  0.67849004  0.50000000  1
  Sr  Sr8  1  0.82150996  0.96812663  0.50000000  1
  Sr  Sr9  1  0.50000000  0.50000000  0.00000000  1
  In  In0  1  0.88651236  0.61348764  0.50000000  1
  In  In1  1  0.61345369  0.11345369  0.72690637  1
  In  In2  1  0.11348764  0.38651236  0.50000000  1
  In  In3  1  0.25000000  0.25000000  0.00000000  1
  In  In4  1  0.38654631  0.88654631  0.27309363  1
  In  In5  1  0.75000000  0.75000000  0.00000000  1
loop_
_geom_bond_atom_site_label_1
_geom_bond_atom_site_label_2
_geom_bond_distance
_geom_bond_site_symmetry_2
Sr0 Sr2 3.924504 1_456
Sr0 Sr9 4.021027 1_556
Sr0 Sr3 4.021027 1_566
Sr0 Sr6 4.380112 1_455
Sr1 Sr6 3.924475 1_566
Sr1 Sr9 4.021037 1_556
Sr1 Sr3 4.021037 1_566
Sr1 Sr2 4.380112 1_455
Sr2 Sr9 4.021027 1_555
Sr2 Sr3 4.021027 1_655
Sr3 Sr6 4.021037 1_455
Sr3 Sr5 4.021355 1_555
Sr3 Sr8 4.021355 1_444
Sr3 Sr4 4.021355 1_555
Sr3 Sr7 4.021355 1_444
Sr4 Sr7 3.922700 1_555
Sr4 Sr9 4.021355 1_556
Sr4 Sr8 4.382233 1_545
Sr5 Sr8 3.922700 1_445
Sr5 Sr9 4.021355 1_556
Sr5 Sr7 4.382233 1_545
Sr6 Sr9 4.021037 1_555
Sr7 Sr9 4.021355 1_555
Sr8 Sr9 4.021355 1_555
In0 In2 2.814673 1_655
In0 Sr9 3.533382 1_555
In0 Sr3 3.533382 1_666
In0 Sr8 3.534963 1_555
In0 Sr7 3.534963 1_555
In0 Sr2 3.536061 1_555
In0 Sr0 3.536061 1_655
In0 Sr1 3.536072 1_655
In0 Sr6 3.536072 1_555
In1 In4 2.814958 1_545
In1 Sr3 3.532814 1_656
In1 Sr9 3.532814 1_556
In1 Sr8 3.536637 1_545
In1 Sr4 3.536637 1_555
In1 Sr7 3.536649 1_545
In1 Sr5 3.536649 1_555
In1 Sr2 3.537613 1_556
In1 Sr6 3.537635 1_556
In2 Sr9 3.533382 1_556
In2 Sr3 3.533382 1_555
In2 Sr4 3.534963 1_555
In2 Sr5 3.534963 1_555
In2 Sr2 3.536061 1_455
In2 Sr0 3.536061 1_555
In2 Sr1 3.536072 1_555
In2 Sr6 3.536072 1_455
In3 Sr6 3.669006 1_555
In3 Sr1 3.669006 1_544
In3 Sr0 3.669013 1_554
In3 Sr2 3.669013 1_455
In3 Sr4 3.669592 1_555
In3 Sr7 3.669592 1_555
In3 Sr5 3.669592 1_554
In3 Sr8 3.669592 1_444
In4 Sr3 3.532814 1_565
In4 Sr9 3.532814 1_555
In4 Sr5 3.536637 1_565
In4 Sr7 3.536637 1_555
In4 Sr8 3.536649 1_555
In4 Sr4 3.536649 1_565
In4 Sr0 3.537613 1_554
In4 Sr1 3.537635 1_554
In5 Sr1 3.669006 1_554
In5 Sr6 3.669006 1_565
In5 Sr2 3.669013 1_555
In5 Sr0 3.669013 1_654
In5 Sr4 3.669592 1_554
In5 Sr8 3.669592 1_555
In5 Sr7 3.669592 1_554
In5 Sr5 3.669592 1_665
