# generated using pymatgen
data_Ge3(Te3As)2
_symmetry_space_group_name_H-M   'P 1'
_cell_length_a   20.58598818
_cell_length_b   20.58598818
_cell_length_c   20.58598780
_cell_angle_alpha   11.65284344
_cell_angle_beta   11.65284344
_cell_angle_gamma   11.65284307
_symmetry_Int_Tables_number   1
_chemical_formula_structural   Ge3(Te3As)2
_chemical_formula_sum   'Ge3 Te6 As2'
_cell_volume   309.28754640
_cell_formula_units_Z   1
loop_
 _symmetry_equiv_pos_site_id
 _symmetry_equiv_pos_as_xyz
  1  'x, y, z'
loop_
 _atom_site_type_symbol
 _atom_site_label
 _atom_site_symmetry_multiplicity
 _atom_site_fract_x
 _atom_site_fract_y
 _atom_site_fract_z
 _atom_site_occupancy
  Ge  Ge0  1  0.00000000  0.00000000  0.00000000  1
  Ge  Ge1  1  0.27474900  0.27474900  0.27474900  1
  Ge  Ge2  1  0.72525100  0.72525100  0.72525100  1
  Te  Te0  1  0.08604900  0.08604900  0.08604900  1
  Te  Te1  1  0.91395100  0.91395100  0.91395100  1
  Te  Te2  1  0.19184200  0.19184200  0.19184200  1
  Te  Te3  1  0.80815800  0.80815800  0.80815800  1
  Te  Te4  1  0.36194500  0.36194500  0.36194500  1
  Te  Te5  1  0.63805500  0.63805500  0.63805500  1
  As  As0  1  0.45039900  0.45039900  0.45039900  1
  As  As1  1  0.54960100  0.54960100  0.54960100  1
loop_
_geom_bond_atom_site_label_1
_geom_bond_atom_site_label_2
_geom_bond_distance
_geom_bond_site_symmetry_2
Ge0 Te5 2.983678 1_454
Ge0 Te5 2.983678 1_544
Ge0 Te4 2.983678 1_455
Ge0 Te4 2.983678 1_545
Ge0 Te5 2.983678 1_445
Ge0 Te4 2.983678 1_554
Ge1 Te1 2.942853 1_454
Ge1 Te1 2.942853 1_544
Ge1 Te1 2.942854 1_445
Ge1 Te5 3.033523 1_545
Ge1 Te5 3.033523 1_455
Ge1 Te5 3.033523 1_554
Ge2 Te0 2.942853 1_656
Ge2 Te0 2.942853 1_566
Ge2 Te0 2.942854 1_665
Ge2 Te4 3.033523 1_565
Ge2 Te4 3.033523 1_655
Ge2 Te4 3.033523 1_556
As0 Te3 2.840281 1_545
As0 Te3 2.840281 1_455
As0 Te3 2.840281 1_554
As0 Te0 3.072747 1_565
As0 Te0 3.072747 1_655
As0 Te0 3.072747 1_556
As1 Te2 2.840281 1_565
As1 Te2 2.840281 1_655
As1 Te2 2.840281 1_556
As1 Te1 3.072747 1_545
As1 Te1 3.072747 1_455
As1 Te1 3.072747 1_554
