# generated using pymatgen
data_Ba5Ru2Cl2O9
_symmetry_space_group_name_H-M   'P 1'
_cell_length_a   5.85008347
_cell_length_b   5.85008449
_cell_length_c   25.07120930
_cell_angle_alpha   90.00000000
_cell_angle_beta   90.00000000
_cell_angle_gamma   120.00018804
_symmetry_Int_Tables_number   1
_chemical_formula_structural   Ba5Ru2Cl2O9
_chemical_formula_sum   'Ba10 Ru4 Cl4 O18'
_cell_volume   743.06925455
_cell_formula_units_Z   2
loop_
 _symmetry_equiv_pos_site_id
 _symmetry_equiv_pos_as_xyz
  1  'x, y, z'
loop_
 _atom_site_type_symbol
 _atom_site_label
 _atom_site_symmetry_multiplicity
 _atom_site_fract_x
 _atom_site_fract_y
 _atom_site_fract_z
 _atom_site_occupancy
  Ba  Ba0  1  0.66666700  0.33333300  0.82910865  1
  Ba  Ba1  1  0.33333300  0.66666700  0.17089135  1
  Ba  Ba2  1  0.33333300  0.66666700  0.58222126  1
  Ba  Ba3  1  0.33333300  0.66666700  0.32910865  1
  Ba  Ba4  1  0.33333300  0.66666700  0.91777874  1
  Ba  Ba5  1  0.66666700  0.33333300  0.08222126  1
  Ba  Ba6  1  0.66666700  0.33333300  0.41777874  1
  Ba  Ba7  1  0.66666700  0.33333300  0.67089135  1
  Ba  Ba8  1  0.66666700  0.33333300  0.25000000  1
  Ba  Ba9  1  0.33333300  0.66666700  0.75000000  1
  Ru  Ru0  1  -0.00000000  -0.00000000  0.80623221  1
  Ru  Ru1  1  -0.00000000  -0.00000000  0.30623321  1
  Ru  Ru2  1  -0.00000000  -0.00000000  0.19376679  1
  Ru  Ru3  1  -0.00000000  -0.00000000  0.69376779  1
  Cl  Cl0  1  0.66666700  0.33333300  0.54590660  1
  Cl  Cl1  1  0.33333300  0.66666700  0.45409340  1
  Cl  Cl2  1  0.33333300  0.66666700  0.04590660  1
  Cl  Cl3  1  0.66666700  0.33333300  0.95409340  1
  O  O0  1  0.15043451  0.30086902  0.25000000  1
  O  O1  1  0.15965762  0.84034238  0.84399264  1
  O  O2  1  0.84034238  0.15965762  0.15600736  1
  O  O3  1  0.84034238  0.68068475  0.15600736  1
  O  O4  1  0.15965762  0.31931525  0.84399264  1
  O  O5  1  0.84034238  0.68068475  0.34399264  1
  O  O6  1  0.69913098  0.84956549  0.25000000  1
  O  O7  1  0.84956549  0.15043451  0.75000000  1
  O  O8  1  0.68068475  0.84034238  0.65600736  1
  O  O9  1  0.31931525  0.15965762  0.34399264  1
  O  O10  1  0.84956549  0.69913098  0.75000000  1
  O  O11  1  0.84034238  0.15965762  0.34399264  1
  O  O12  1  0.68068475  0.84034238  0.84399264  1
  O  O13  1  0.15965762  0.31931525  0.65600736  1
  O  O14  1  0.15965762  0.84034238  0.65600736  1
  O  O15  1  0.30086902  0.15043451  0.75000000  1
  O  O16  1  0.15043451  0.84956549  0.25000000  1
  O  O17  1  0.31931525  0.15965762  0.15600736  1
loop_
_geom_bond_atom_site_label_1
_geom_bond_atom_site_label_2
_geom_bond_distance
_geom_bond_site_symmetry_2
Ba0 O15 2.714442 1_555
Ba0 O10 2.714443 1_555
Ba0 O7 2.714443 1_555
Ba0 O1 2.949596 1_545
Ba0 O1 2.949596 1_655
Ba0 O4 2.949601 1_655
Ba0 O12 2.949601 1_545
Ba0 O4 2.949606 1_555
Ba0 O12 2.949607 1_555
Ba0 Cl3 3.133519 1_555
Ba1 O6 2.714442 1_555
Ba1 O0 2.714443 1_555
Ba1 O16 2.714443 1_555
Ba1 O2 2.949596 1_565
Ba1 O2 2.949596 1_455
Ba1 O3 2.949601 1_455
Ba1 O17 2.949601 1_565
Ba1 O3 2.949606 1_555
Ba1 O17 2.949607 1_555
Ba1 Cl2 3.133519 1_555
Ba2 O8 2.553238 1_555
Ba2 O14 2.553238 1_555
Ba2 O13 2.553238 1_555
Ba2 Cl1 3.212320 1_555
Ba2 Cl0 3.498097 1_455
Ba2 Cl0 3.498098 1_565
Ba2 Cl0 3.498116 1_555
Ba3 O6 2.714442 1_555
Ba3 O0 2.714443 1_555
Ba3 O16 2.714443 1_555
Ba3 O11 2.949596 1_565
Ba3 O11 2.949596 1_455
Ba3 O5 2.949601 1_455
Ba3 O9 2.949601 1_565
Ba3 O5 2.949606 1_555
Ba3 O9 2.949607 1_555
Ba3 Cl1 3.133519 1_555
Ba4 O12 2.553238 1_555
Ba4 O1 2.553238 1_555
Ba4 O4 2.553238 1_555
Ba4 Cl2 3.212320 1_556
Ba4 Cl3 3.498097 1_455
Ba4 Cl3 3.498098 1_565
Ba4 Cl3 3.498116 1_555
Ba5 O17 2.553238 1_555
Ba5 O2 2.553238 1_555
Ba5 O3 2.553238 1_555
Ba5 Cl3 3.212320 1_554
Ba5 Cl2 3.498097 1_655
Ba5 Cl2 3.498098 1_545
Ba5 Cl2 3.498116 1_555
Ba6 O9 2.553238 1_555
Ba6 O11 2.553238 1_555
Ba6 O5 2.553238 1_555
Ba6 Cl0 3.212320 1_555
Ba6 Cl1 3.498097 1_655
Ba6 Cl1 3.498098 1_545
Ba6 Cl1 3.498116 1_555
Ba7 O15 2.714442 1_555
Ba7 O10 2.714443 1_555
Ba7 O7 2.714443 1_555
Ba7 O14 2.949596 1_545
Ba7 O14 2.949596 1_655
Ba7 O13 2.949601 1_655
Ba7 O8 2.949601 1_545
Ba7 O13 2.949606 1_555
Ba7 O8 2.949607 1_555
Ba7 Cl0 3.133519 1_555
Ba8 O16 2.929654 1_545
Ba8 O16 2.929654 1_655
Ba8 O0 2.929660 1_655
Ba8 O6 2.929660 1_545
Ba8 O0 2.929665 1_555
Ba8 O6 2.929665 1_555
Ba8 O17 2.941089 1_555
Ba8 O9 2.941089 1_555
Ba8 O2 2.941089 1_555
Ba8 O11 2.941089 1_555
Ba8 O3 2.941089 1_555
Ba8 O5 2.941089 1_555
Ba9 O7 2.929654 1_565
Ba9 O7 2.929654 1_455
Ba9 O10 2.929660 1_455
Ba9 O15 2.929660 1_565
Ba9 O10 2.929665 1_555
Ba9 O15 2.929665 1_555
Ba9 O8 2.941089 1_555
Ba9 O12 2.941089 1_555
Ba9 O14 2.941089 1_555
Ba9 O1 2.941089 1_555
Ba9 O13 2.941089 1_555
Ba9 O4 2.941089 1_555
O0 Ru2 2.076322 1_555
O0 Ru1 2.076322 1_555
O1 Ru0 1.874399 1_565
O2 Ru2 1.874386 1_655
O3 Ru2 1.874383 1_665
O4 Ru0 1.874395 1_555
O5 Ru1 1.874383 1_665
O6 Ru2 2.076322 1_665
O6 Ru1 2.076322 1_665
O7 Ru3 2.076308 1_655
O7 Ru0 2.076308 1_655
O8 Ru3 1.874395 1_665
O9 Ru1 1.874382 1_555
O10 Ru3 2.076305 1_665
O10 Ru0 2.076305 1_665
O11 Ru1 1.874386 1_655
O12 Ru0 1.874395 1_665
O13 Ru3 1.874395 1_555
O14 Ru3 1.874399 1_565
O15 Ru3 2.076305 1_555
O15 Ru0 2.076305 1_555
O16 Ru2 2.076325 1_565
O16 Ru1 2.076325 1_565
O17 Ru2 1.874382 1_555
