# generated using pymatgen
data_Sb2MoO6
_symmetry_space_group_name_H-M   'P 1'
_cell_length_a   7.66509000
_cell_length_b   7.69932764
_cell_length_c   10.34122664
_cell_angle_alpha   110.19882751
_cell_angle_beta   109.76937250
_cell_angle_gamma   83.94007478
_symmetry_Int_Tables_number   1
_chemical_formula_structural   Sb2MoO6
_chemical_formula_sum   'Sb8 Mo4 O24'
_cell_volume   538.96368910
_cell_formula_units_Z   4
loop_
 _symmetry_equiv_pos_site_id
 _symmetry_equiv_pos_as_xyz
  1  'x, y, z'
loop_
 _atom_site_type_symbol
 _atom_site_label
 _atom_site_symmetry_multiplicity
 _atom_site_fract_x
 _atom_site_fract_y
 _atom_site_fract_z
 _atom_site_occupancy
  Sb  Sb0  1  0.44333400  0.37523400  0.67381200  1
  Sb  Sb1  1  0.07554500  0.13061800  0.33680600  1
  Sb  Sb2  1  0.12120000  0.57715600  0.33812400  1
  Sb  Sb3  1  0.63192200  0.05642400  0.32911400  1
  Sb  Sb4  1  0.92445500  0.86938200  0.66319400  1
  Sb  Sb5  1  0.55666600  0.62476600  0.32618800  1
  Sb  Sb6  1  0.87880000  0.42284400  0.66187600  1
  Sb  Sb7  1  0.36807800  0.94357600  0.67088600  1
  Mo  Mo0  1  0.77105300  0.27636000  0.00169600  1
  Mo  Mo1  1  0.27396600  0.22714200  0.01414500  1
  Mo  Mo2  1  0.72603400  0.77285800  0.98585500  1
  Mo  Mo3  1  0.22894700  0.72364000  0.99830400  1
  O  O0  1  0.73650100  0.58134200  0.81181600  1
  O  O1  1  0.11253300  0.80946700  0.55685300  1
  O  O2  1  0.58279700  0.22350500  0.81059400  1
  O  O3  1  0.22145000  0.09961500  0.81011200  1
  O  O4  1  0.62561400  0.29409500  0.56225900  1
  O  O5  1  0.03060800  0.74519400  0.05842300  1
  O  O6  1  0.75035100  0.96905500  0.93642700  1
  O  O7  1  0.88746700  0.19053300  0.44314700  1
  O  O8  1  0.30121600  0.12600500  0.56067500  1
  O  O9  1  0.19587300  0.38832800  0.44177800  1
  O  O10  1  0.25490400  0.47764900  0.94218600  1
  O  O11  1  0.41720300  0.77649500  0.18940600  1
  O  O12  1  0.52099800  0.24275500  0.05891700  1
  O  O13  1  0.24964900  0.03094500  0.06357300  1
  O  O14  1  0.26349900  0.41865800  0.18818400  1
  O  O15  1  0.69878400  0.87399500  0.43932500  1
  O  O16  1  0.80412700  0.61167200  0.55822200  1
  O  O17  1  0.77855000  0.90038500  0.18988800  1
  O  O18  1  0.37438600  0.70590500  0.43774100  1
  O  O19  1  0.96939200  0.25480600  0.94157700  1
  O  O20  1  0.74509600  0.52235100  0.05781400  1
  O  O21  1  0.47900200  0.75724500  0.94108300  1
  O  O22  1  0.10044700  0.73721700  0.81138900  1
  O  O23  1  0.89955300  0.26278300  0.18861100  1
loop_
_geom_bond_atom_site_label_1
_geom_bond_atom_site_label_2
_geom_bond_distance
_geom_bond_site_symmetry_2
Mo0 O20 1.789695 1_555
Mo0 O19 1.800053 1_554
Mo0 O23 1.883397 1_555
Mo0 O2 1.947529 1_554
Mo0 O6 2.232244 1_544
Mo0 O12 2.251328 1_555
Mo1 O12 1.797446 1_555
Mo1 O13 1.798604 1_555
Mo1 O3 1.912138 1_554
Mo1 O14 1.913107 1_555
Mo1 O19 2.208860 1_454
Mo1 O10 2.270065 1_554
Mo2 O21 1.797446 1_555
Mo2 O6 1.798604 1_555
Mo2 O17 1.912138 1_556
Mo2 O0 1.913107 1_555
Mo2 O5 2.208860 1_656
Mo2 O20 2.270065 1_556
Mo3 O10 1.789695 1_555
Mo3 O5 1.800053 1_556
Mo3 O22 1.883397 1_555
Mo3 O11 1.947529 1_556
Mo3 O13 2.232244 1_566
Mo3 O21 2.251328 1_555
O0 Sb6 2.153956 1_555
O0 Sb0 2.573752 1_555
O1 Sb4 2.020437 1_455
O1 Sb7 2.077788 1_555
O1 Sb2 2.366997 1_555
O2 Sb0 2.088733 1_555
O2 Sb7 2.536023 1_545
O3 Sb7 2.096318 1_545
O3 Sb4 2.699165 1_445
O4 Sb0 2.020291 1_555
O4 Sb6 2.039299 1_555
O4 Sb3 2.485425 1_555
O7 Sb1 2.020437 1_655
O7 Sb3 2.077788 1_555
O7 Sb6 2.366997 1_555
O8 Sb7 2.023068 1_545
O8 Sb0 2.065555 1_555
O8 Sb1 2.384920 1_555
O9 Sb2 2.018838 1_555
O9 Sb1 2.046411 1_555
O9 Sb0 2.532490 1_555
O11 Sb5 2.088733 1_555
O11 Sb3 2.536023 1_565
O14 Sb2 2.153956 1_555
O14 Sb5 2.573752 1_555
O15 Sb3 2.023068 1_565
O15 Sb5 2.065555 1_555
O15 Sb4 2.384920 1_555
O16 Sb6 2.018838 1_555
O16 Sb4 2.046411 1_555
O16 Sb5 2.532490 1_555
O17 Sb3 2.096318 1_565
O17 Sb1 2.699165 1_665
O18 Sb5 2.020291 1_555
O18 Sb2 2.039299 1_555
O18 Sb7 2.485425 1_555
O22 Sb4 2.142996 1_455
O23 Sb1 2.142996 1_655
