# generated using pymatgen
data_SiO2
_symmetry_space_group_name_H-M   'P 1'
_cell_length_a   8.19112739
_cell_length_b   8.19112739
_cell_length_c   14.16308800
_cell_angle_alpha   90.00000000
_cell_angle_beta   90.00000000
_cell_angle_gamma   101.98011592
_symmetry_Int_Tables_number   1
_chemical_formula_structural   SiO2
_chemical_formula_sum   'Si16 O32'
_cell_volume   929.56918168
_cell_formula_units_Z   16
loop_
 _symmetry_equiv_pos_site_id
 _symmetry_equiv_pos_as_xyz
  1  'x, y, z'
loop_
 _atom_site_type_symbol
 _atom_site_label
 _atom_site_symmetry_multiplicity
 _atom_site_fract_x
 _atom_site_fract_y
 _atom_site_fract_z
 _atom_site_occupancy
  Si  Si0  1  0.33743800  0.66256200  0.50000000  1
  Si  Si1  1  0.50000000  0.50000000  0.63657300  1
  Si  Si2  1  0.08973500  0.68656300  0.81627400  1
  Si  Si3  1  0.31343700  0.91026500  0.18372600  1
  Si  Si4  1  0.83743800  0.16256200  0.00000000  1
  Si  Si5  1  0.81343700  0.41026500  0.31627400  1
  Si  Si6  1  0.00000000  0.00000000  0.86342700  1
  Si  Si7  1  0.66256200  0.33743800  0.50000000  1
  Si  Si8  1  0.68656300  0.08973500  0.18372600  1
  Si  Si9  1  0.91026500  0.31343700  0.81627400  1
  Si  Si10  1  0.50000000  0.50000000  0.36342700  1
  Si  Si11  1  0.18656300  0.58973500  0.31627400  1
  Si  Si12  1  0.41026500  0.81343700  0.68372600  1
  Si  Si13  1  0.58973500  0.18656300  0.68372600  1
  Si  Si14  1  0.16256200  0.83743800  0.00000000  1
  Si  Si15  1  0.00000000  0.00000000  0.13657300  1
  O  O0  1  0.00044500  0.83360800  0.07143800  1
  O  O1  1  0.50000000  0.00000000  0.71699300  1
  O  O2  1  0.25000000  0.75000000  0.75000000  1
  O  O3  1  0.32397500  0.46802200  0.30408200  1
  O  O4  1  0.46802200  0.32397500  0.69591800  1
  O  O5  1  0.99955500  0.16639200  0.07143800  1
  O  O6  1  0.25000000  0.75000000  0.25000000  1
  O  O7  1  0.82397500  0.96802200  0.19591800  1
  O  O8  1  0.03197800  0.17602500  0.80408200  1
  O  O9  1  0.14075000  0.67819900  0.92909500  1
  O  O10  1  0.00000000  0.50000000  0.78300700  1
  O  O11  1  0.85925000  0.32180100  0.92909500  1
  O  O12  1  0.17819900  0.64075000  0.42909500  1
  O  O13  1  0.67602500  0.53197800  0.30408200  1
  O  O14  1  0.35925000  0.82180100  0.57090500  1
  O  O15  1  0.17602500  0.03197800  0.19591800  1
  O  O16  1  0.00000000  0.50000000  0.28300700  1
  O  O17  1  0.64075000  0.17819900  0.57090500  1
  O  O18  1  0.66639200  0.49955500  0.57143800  1
  O  O19  1  0.83360800  0.00044500  0.92856200  1
  O  O20  1  0.67819900  0.14075000  0.07090500  1
  O  O21  1  0.32180100  0.85925000  0.07090500  1
  O  O22  1  0.50044500  0.33360800  0.42856200  1
  O  O23  1  0.33360800  0.50044500  0.57143800  1
  O  O24  1  0.96802200  0.82397500  0.80408200  1
  O  O25  1  0.49955500  0.66639200  0.42856200  1
  O  O26  1  0.75000000  0.25000000  0.75000000  1
  O  O27  1  0.50000000  0.00000000  0.21699300  1
  O  O28  1  0.16639200  0.99955500  0.92856200  1
  O  O29  1  0.53197800  0.67602500  0.69591800  1
  O  O30  1  0.82180100  0.35925000  0.42909500  1
  O  O31  1  0.75000000  0.25000000  0.25000000  1
loop_
_geom_bond_atom_site_label_1
_geom_bond_atom_site_label_2
_geom_bond_distance
_geom_bond_site_symmetry_2
O0 Si15 1.646422 1_565
O0 Si14 1.664562 1_555
O1 Si13 1.622108 1_555
O1 Si12 1.622108 1_545
O2 Si12 1.609718 1_555
O2 Si2 1.609718 1_555
O3 Si10 1.642312 1_555
O3 Si11 1.660270 1_555
O4 Si1 1.642312 1_555
O4 Si13 1.660270 1_555
O5 Si15 1.646422 1_655
O5 Si4 1.664562 1_555
O6 Si11 1.609718 1_555
O6 Si3 1.609718 1_555
O7 Si15 1.642312 1_665
O7 Si8 1.660270 1_565
O8 Si6 1.642312 1_555
O8 Si9 1.660270 1_455
O9 Si14 1.626340 1_556
O9 Si2 1.656641 1_555
O10 Si9 1.622108 1_455
O10 Si2 1.622108 1_555
O11 Si4 1.626340 1_556
O11 Si9 1.656641 1_555
O12 Si0 1.626340 1_555
O12 Si11 1.656641 1_555
O13 Si10 1.642312 1_555
O13 Si5 1.660270 1_555
O14 Si0 1.626340 1_555
O14 Si12 1.656641 1_555
O15 Si15 1.642312 1_555
O15 Si3 1.660270 1_545
O16 Si11 1.622108 1_555
O16 Si5 1.622108 1_455
O17 Si7 1.626340 1_555
O17 Si13 1.656641 1_555
O18 Si1 1.646422 1_555
O18 Si7 1.664562 1_555
O19 Si6 1.646422 1_655
O19 Si4 1.664562 1_556
O20 Si4 1.626340 1_555
O20 Si8 1.656641 1_555
O21 Si14 1.626340 1_555
O21 Si3 1.656641 1_555
O22 Si10 1.646422 1_555
O22 Si7 1.664562 1_555
O23 Si1 1.646422 1_555
O23 Si0 1.664562 1_555
O24 Si6 1.642312 1_665
O24 Si2 1.660270 1_655
O25 Si10 1.646422 1_555
O25 Si0 1.664562 1_555
O26 Si13 1.609718 1_555
O26 Si9 1.609718 1_555
O27 Si3 1.622108 1_545
O27 Si8 1.622108 1_555
O28 Si6 1.646422 1_565
O28 Si14 1.664562 1_556
O29 Si1 1.642312 1_555
O29 Si12 1.660270 1_555
O30 Si7 1.626340 1_555
O30 Si5 1.656641 1_555
O31 Si5 1.609718 1_555
O31 Si8 1.609718 1_555
