# generated using pymatgen
data_K5LiGe2O7
_symmetry_space_group_name_H-M   'P 1'
_cell_length_a   16.10275000
_cell_length_b   6.32563000
_cell_length_c   10.73956482
_cell_angle_alpha   70.42337512
_cell_angle_beta   90.00000000
_cell_angle_gamma   90.00000000
_symmetry_Int_Tables_number   1
_chemical_formula_structural   K5LiGe2O7
_chemical_formula_sum   'K20 Li4 Ge8 O28'
_cell_volume   1030.69687556
_cell_formula_units_Z   4
loop_
 _symmetry_equiv_pos_site_id
 _symmetry_equiv_pos_as_xyz
  1  'x, y, z'
loop_
 _atom_site_type_symbol
 _atom_site_label
 _atom_site_symmetry_multiplicity
 _atom_site_fract_x
 _atom_site_fract_y
 _atom_site_fract_z
 _atom_site_occupancy
  K  K0  1  0.56768100  0.75303200  0.41715500  1
  K  K1  1  0.06768100  0.24696800  0.08284500  1
  K  K2  1  0.94343900  0.73976500  0.57954200  1
  K  K3  1  0.16458500  0.70024200  0.08610000  1
  K  K4  1  0.55656100  0.73976500  0.07954200  1
  K  K5  1  0.93231900  0.75303200  0.91715500  1
  K  K6  1  0.33541500  0.70024200  0.58610000  1
  K  K7  1  0.66458500  0.29975800  0.41390000  1
  K  K8  1  0.05656100  0.26023500  0.42045800  1
  K  K9  1  0.43231900  0.24696800  0.58284500  1
  K  K10  1  0.65362900  0.21927300  0.11024700  1
  K  K11  1  0.44343900  0.26023500  0.92045800  1
  K  K12  1  0.34637100  0.78072700  0.88975300  1
  K  K13  1  0.63176400  0.22920600  0.76613300  1
  K  K14  1  0.86823600  0.22920600  0.26613300  1
  K  K15  1  0.15362900  0.78072700  0.38975300  1
  K  K16  1  0.36823600  0.77079400  0.23386700  1
  K  K17  1  0.83541500  0.29975800  0.91390000  1
  K  K18  1  0.13176400  0.77079400  0.73386700  1
  K  K19  1  0.84637100  0.21927300  0.61024700  1
  Li  Li0  1  0.71984300  0.70355200  0.89625700  1
  Li  Li1  1  0.21984300  0.29644800  0.60374300  1
  Li  Li2  1  0.78015700  0.70355200  0.39625700  1
  Li  Li3  1  0.28015700  0.29644800  0.10374300  1
  Ge  Ge0  1  0.94615400  0.73521000  0.25545800  1
  Ge  Ge1  1  0.44615400  0.26479000  0.24454200  1
  Ge  Ge2  1  0.23459200  0.23044100  0.88695200  1
  Ge  Ge3  1  0.05384600  0.26479000  0.74454200  1
  Ge  Ge4  1  0.55384600  0.73521000  0.75545800  1
  Ge  Ge5  1  0.76540800  0.76955900  0.11304800  1
  Ge  Ge6  1  0.73459200  0.76955900  0.61304800  1
  Ge  Ge7  1  0.26540800  0.23044100  0.38695200  1
  O  O0  1  0.00033400  0.93810900  0.30479800  1
  O  O1  1  0.88892700  0.54951400  0.38915100  1
  O  O2  1  0.29761500  0.26595500  0.74756400  1
  O  O3  1  0.28065800  0.03311700  0.02959400  1
  O  O4  1  0.28190000  0.47656300  0.42806000  1
  O  O5  1  0.71810000  0.52343700  0.57194000  1
  O  O6  1  0.70238500  0.73404500  0.25243600  1
  O  O7  1  0.79761500  0.73404500  0.75243600  1
  O  O8  1  0.49966600  0.93810900  0.80479800  1
  O  O9  1  0.50033400  0.06189100  0.19520200  1
  O  O10  1  0.78065800  0.96688300  0.47040600  1
  O  O11  1  0.78190000  0.52343700  0.07194000  1
  O  O12  1  0.36644700  0.10126300  0.36781100  1
  O  O13  1  0.11107300  0.45048600  0.61084900  1
  O  O14  1  0.38892700  0.45048600  0.11084900  1
  O  O15  1  0.61107300  0.54951400  0.88915100  1
  O  O16  1  0.21810000  0.47656300  0.92806000  1
  O  O17  1  0.49124200  0.59073700  0.67488300  1
  O  O18  1  0.00875800  0.59073700  0.17488300  1
  O  O19  1  0.99966600  0.06189100  0.69520200  1
  O  O20  1  0.63355300  0.89873700  0.63218900  1
  O  O21  1  0.21934200  0.03311700  0.52959400  1
  O  O22  1  0.99124200  0.40926300  0.82511700  1
  O  O23  1  0.20238500  0.26595500  0.24756400  1
  O  O24  1  0.13355300  0.10126300  0.86781100  1
  O  O25  1  0.86644700  0.89873700  0.13218900  1
  O  O26  1  0.71934200  0.96688300  0.97040600  1
  O  O27  1  0.50875800  0.40926300  0.32511700  1
loop_
_geom_bond_atom_site_label_1
_geom_bond_atom_site_label_2
_geom_bond_distance
_geom_bond_site_symmetry_2
K0 O9 2.748490 1_565
K0 O6 2.826875 1_555
K0 O27 2.836617 1_555
K0 O17 2.885476 1_555
K0 O20 2.955366 1_555
K0 O5 3.020195 1_555
K1 O0 2.748490 1_545
K1 O23 2.826875 1_555
K1 O18 2.836617 1_555
K1 O22 2.885476 1_454
K1 O24 2.955366 1_554
K1 O16 3.020195 1_554
K2 O1 2.837026 1_555
K2 O19 2.865454 1_565
K2 O22 2.867756 1_555
K2 O0 2.939198 1_655
K2 O7 2.986286 1_555
K2 O10 3.029875 1_555
K2 O13 3.214929 1_655
K3 O16 2.689732 1_554
K3 O18 2.691219 1_555
K3 O3 2.727492 1_565
K3 O23 2.780629 1_555
K3 O24 2.862738 1_564
K4 O15 2.837026 1_554
K4 O9 2.865454 1_565
K4 O27 2.867756 1_555
K4 O8 2.939198 1_554
K4 O6 2.986286 1_555
K4 O26 3.029875 1_554
K4 O14 3.214929 1_555
K5 O19 2.748490 1_565
K5 O7 2.826875 1_555
K5 O22 2.836617 1_555
K5 O18 2.885476 1_656
K5 O25 2.955366 1_556
K5 O11 3.020195 1_556
K6 O4 2.689732 1_555
K6 O17 2.691219 1_555
K6 O21 2.727492 1_565
K6 O2 2.780629 1_555
K6 O12 2.862738 1_565
K7 O5 2.689732 1_555
K7 O27 2.691219 1_555
K7 O10 2.727492 1_545
K7 O6 2.780629 1_555
K7 O20 2.862738 1_545
K8 O13 2.837026 1_555
K8 O0 2.865454 1_545
K8 O18 2.867756 1_555
K8 O19 2.939198 1_455
K8 O23 2.986286 1_555
K8 O21 3.029875 1_555
K8 O1 3.214929 1_455
K9 O8 2.748490 1_545
K9 O2 2.826875 1_555
K9 O17 2.836617 1_555
K9 O27 2.885476 1_555
K9 O12 2.955366 1_555
K9 O4 3.020195 1_555
K10 O15 2.673490 1_554
K10 O9 2.703368 1_555
K10 O26 2.744246 1_544
K10 O11 2.758088 1_555
K10 O6 3.037819 1_545
K11 O14 2.837026 1_556
K11 O8 2.865454 1_545
K11 O17 2.867756 1_555
K11 O9 2.939198 1_556
K11 O2 2.986286 1_555
K11 O3 3.029875 1_556
K11 O15 3.214929 1_555
K12 O14 2.673490 1_556
K12 O8 2.703368 1_555
K12 O3 2.744246 1_566
K12 O16 2.758088 1_555
K12 O2 3.037819 1_565
K13 O26 2.667498 1_545
K13 O5 2.673041 1_555
K13 O8 2.752346 1_545
K13 O15 2.784891 1_555
K13 O20 2.907771 1_545
K13 O17 3.131883 1_555
K14 O10 2.667498 1_545
K14 O11 2.673041 1_555
K14 O0 2.752346 1_645
K14 O1 2.784891 1_555
K14 O25 2.907771 1_545
K14 O18 3.131883 1_655
K15 O13 2.673490 1_555
K15 O0 2.703368 1_555
K15 O21 2.744246 1_565
K15 O4 2.758088 1_555
K15 O23 3.037819 1_565
K16 O3 2.667498 1_565
K16 O4 2.673041 1_555
K16 O9 2.752346 1_565
K16 O14 2.784891 1_555
K16 O12 2.907771 1_565
K16 O27 3.131883 1_555
K17 O11 2.689732 1_556
K17 O22 2.691219 1_555
K17 O26 2.727492 1_545
K17 O7 2.780629 1_555
K17 O25 2.862738 1_546
K18 O21 2.667498 1_565
K18 O16 2.673041 1_555
K18 O19 2.752346 1_465
K18 O13 2.784891 1_555
K18 O24 2.907771 1_565
K18 O22 3.131883 1_455
K19 O1 2.673490 1_555
K19 O19 2.703368 1_555
K19 O10 2.744246 1_545
K19 O5 2.758088 1_555
K19 O7 3.037819 1_545
Li0 O7 1.947210 1_555
Li0 O15 2.018124 1_555
Li0 O26 2.073111 1_555
Li0 O11 2.101421 1_556
Li1 O2 1.947210 1_555
Li1 O13 2.018124 1_555
Li1 O21 2.073111 1_555
Li1 O4 2.101421 1_555
Li2 O6 1.947210 1_555
Li2 O1 2.018124 1_555
Li2 O10 2.073111 1_555
Li2 O5 2.101421 1_555
Li3 O23 1.947210 1_555
Li3 O14 2.018124 1_555
Li3 O3 2.073111 1_555
Li3 O16 2.101421 1_554
Ge0 O18 1.769240 1_655
Ge0 O0 1.773410 1_655
Ge0 O1 1.777720 1_555
Ge0 O25 1.884751 1_555
Ge1 O27 1.769240 1_555
Ge1 O9 1.773410 1_555
Ge1 O14 1.777720 1_555
Ge1 O12 1.884751 1_555
Ge2 O2 1.759523 1_555
Ge2 O16 1.774797 1_555
Ge2 O3 1.781467 1_556
Ge2 O24 1.862707 1_555
Ge3 O22 1.769240 1_455
Ge3 O19 1.773410 1_455
Ge3 O13 1.777720 1_555
Ge3 O24 1.884751 1_555
Ge4 O17 1.769240 1_555
Ge4 O8 1.773410 1_555
Ge4 O15 1.777720 1_555
Ge4 O20 1.884751 1_555
Ge5 O6 1.759523 1_555
Ge5 O11 1.774797 1_555
Ge5 O26 1.781467 1_554
Ge5 O25 1.862707 1_555
Ge6 O7 1.759523 1_555
Ge6 O5 1.774797 1_555
Ge6 O10 1.781467 1_555
Ge6 O20 1.862707 1_555
Ge7 O23 1.759523 1_555
Ge7 O4 1.774797 1_555
Ge7 O21 1.781467 1_555
Ge7 O12 1.862707 1_555
