# generated using pymatgen
data_Cs2Si2Se5
_symmetry_space_group_name_H-M   'P 1'
_cell_length_a   11.69649810
_cell_length_b   11.69649810
_cell_length_c   9.81314064
_cell_angle_alpha   80.82021074
_cell_angle_beta   80.82021074
_cell_angle_gamma   90.12533610
_symmetry_Int_Tables_number   1
_chemical_formula_structural   Cs2Si2Se5
_chemical_formula_sum   'Cs8 Si8 Se20'
_cell_volume   1307.82247106
_cell_formula_units_Z   4
loop_
 _symmetry_equiv_pos_site_id
 _symmetry_equiv_pos_as_xyz
  1  'x, y, z'
loop_
 _atom_site_type_symbol
 _atom_site_label
 _atom_site_symmetry_multiplicity
 _atom_site_fract_x
 _atom_site_fract_y
 _atom_site_fract_z
 _atom_site_occupancy
  Cs  Cs0  1  0.70867405  0.98068598  0.36675514  1
  Cs  Cs1  1  0.01931402  0.29132595  0.13324486  1
  Cs  Cs2  1  0.29132595  0.01931402  0.63324486  1
  Cs  Cs3  1  0.98068598  0.70867405  0.86675514  1
  Cs  Cs4  1  0.55173988  0.70783911  0.87344207  1
  Cs  Cs5  1  0.29216089  0.44826012  0.62655793  1
  Cs  Cs6  1  0.44826012  0.29216089  0.12655793  1
  Cs  Cs7  1  0.70783911  0.55173988  0.37344207  1
  Si  Si0  1  0.35905130  0.76861281  0.38292204  1
  Si  Si1  1  0.23138719  0.64094870  0.11707796  1
  Si  Si2  1  0.64094870  0.23138719  0.61707796  1
  Si  Si3  1  0.76861281  0.35905130  0.88292204  1
  Si  Si4  1  0.76685876  0.03656704  0.88824912  1
  Si  Si5  1  0.96343296  0.23314124  0.61175088  1
  Si  Si6  1  0.23314124  0.96343296  0.11175088  1
  Si  Si7  1  0.03656704  0.76685876  0.38824912  1
  Se  Se0  1  0.74673586  0.87077670  0.02765699  1
  Se  Se1  1  0.12922330  0.25326414  0.47234301  1
  Se  Se2  1  0.25326414  0.12922330  0.97234301  1
  Se  Se3  1  0.87077670  0.74673586  0.52765699  1
  Se  Se4  1  0.48910288  0.74767592  0.52164371  1
  Se  Se5  1  0.25232408  0.51089712  0.97835629  1
  Se  Se6  1  0.51089712  0.25232408  0.47835629  1
  Se  Se7  1  0.74767592  0.48910288  0.02164371  1
  Se  Se8  1  0.61886951  0.05265622  0.75473418  1
  Se  Se9  1  0.94734378  0.38113049  0.74526582  1
  Se  Se10  1  0.38113049  0.94734378  0.24526582  1
  Se  Se11  1  0.05265622  0.61886951  0.25473418  1
  Se  Se12  1  0.74682850  0.18141155  0.02557221  1
  Se  Se13  1  0.81858845  0.25317150  0.47442779  1
  Se  Se14  1  0.25317150  0.81858845  0.97442779  1
  Se  Se15  1  0.18141155  0.74682850  0.52557221  1
  Se  Se16  1  0.94614944  0.05385056  0.75000000  1
  Se  Se17  1  0.05385056  0.94614944  0.25000000  1
  Se  Se18  1  0.37901103  0.62098897  0.25000000  1
  Se  Se19  1  0.62098897  0.37901103  0.75000000  1
loop_
_geom_bond_atom_site_label_1
_geom_bond_atom_site_label_2
_geom_bond_distance
_geom_bond_site_symmetry_2
Cs0 Se3 3.629771 1_555
Cs0 Se4 3.706203 1_555
Cs0 Se0 3.717341 1_555
Cs0 Se12 3.732495 1_565
Cs0 Se13 3.796966 1_565
Cs0 Se8 4.007232 1_565
Cs0 Se17 4.056480 1_655
Cs0 Se6 4.120612 1_565
Cs0 Se10 4.224920 1_555
Cs1 Se2 3.629771 1_554
Cs1 Se5 3.706203 1_554
Cs1 Se1 3.717341 1_555
Cs1 Se13 3.732495 1_455
Cs1 Se12 3.796966 1_455
Cs1 Se9 4.007232 1_454
Cs1 Se17 4.056480 1_545
Cs1 Se7 4.120612 1_455
Cs1 Se11 4.224920 1_555
Cs2 Se1 3.629771 1_555
Cs2 Se6 3.706203 1_555
Cs2 Se2 3.717341 1_555
Cs2 Se14 3.732495 1_545
Cs2 Se15 3.796966 1_545
Cs2 Se10 4.007232 1_545
Cs2 Se16 4.056480 1_455
Cs2 Se4 4.120612 1_545
Cs2 Se8 4.224920 1_555
Cs3 Se0 3.629771 1_556
Cs3 Se7 3.706203 1_556
Cs3 Se3 3.717341 1_555
Cs3 Se15 3.732495 1_655
Cs3 Se14 3.796966 1_655
Cs3 Se11 4.007232 1_656
Cs3 Se16 4.056480 1_565
Cs3 Se5 4.120612 1_655
Cs3 Se9 4.224920 1_555
Cs4 Se4 3.600988 1_555
Cs4 Se0 3.623070 1_556
Cs4 Se7 3.716828 1_556
Cs4 Se14 3.765731 1_555
Cs4 Se18 3.896099 1_556
Cs4 Se8 4.054021 1_565
Cs4 Se5 4.085172 1_555
Cs4 Se19 4.254799 1_555
Cs5 Se5 3.600988 1_555
Cs5 Se1 3.623070 1_555
Cs5 Se6 3.716828 1_555
Cs5 Se15 3.765731 1_555
Cs5 Se18 3.896099 1_555
Cs5 Se9 4.054021 1_455
Cs5 Se4 4.085172 1_555
Cs5 Se19 4.254799 1_555
Cs6 Se6 3.600988 1_555
Cs6 Se2 3.623070 1_554
Cs6 Se5 3.716828 1_554
Cs6 Se12 3.765731 1_555
Cs6 Se19 3.896099 1_554
Cs6 Se10 4.054021 1_545
Cs6 Se7 4.085172 1_555
Cs6 Se18 4.254799 1_555
Cs7 Se7 3.600988 1_555
Cs7 Se3 3.623070 1_555
Cs7 Se4 3.716828 1_555
Cs7 Se13 3.765731 1_555
Cs7 Se19 3.896099 1_555
Cs7 Se11 4.054021 1_655
Cs7 Se6 4.085172 1_555
Cs7 Se18 4.254799 1_555
Se0 Si4 2.176259 1_564
Se1 Si5 2.176259 1_455
Se2 Si6 2.176259 1_546
Se3 Si7 2.176259 1_655
Se4 Si0 2.186996 1_555
Se5 Si1 2.186996 1_556
Se6 Si2 2.186996 1_555
Se7 Si3 2.186996 1_554
Se8 Si2 2.290646 1_555
Se8 Si4 2.322631 1_555
Se9 Si3 2.290646 1_555
Se9 Si5 2.322631 1_555
Se10 Si0 2.290646 1_555
Se10 Si6 2.322631 1_555
Se11 Si1 2.290646 1_555
Se11 Si7 2.322631 1_555
Se12 Si3 2.301619 1_554
Se12 Si4 2.317433 1_554
Se13 Si2 2.301619 1_555
Se13 Si5 2.317433 1_555
Se14 Si1 2.301619 1_556
Se14 Si6 2.317433 1_556
Se15 Si0 2.301619 1_555
Se15 Si7 2.317433 1_555
Se16 Si5 2.298260 1_555
Se16 Si4 2.298260 1_555
Se17 Si7 2.298260 1_555
Se17 Si6 2.298260 1_555
Se18 Si1 2.315290 1_555
Se18 Si0 2.315290 1_555
Se19 Si2 2.315290 1_555
Se19 Si3 2.315290 1_555
