# generated using pymatgen
data_Cu3P8(S2Cl)3
_symmetry_space_group_name_H-M   'P 1'
_cell_length_a   6.35491900
_cell_length_b   11.60933000
_cell_length_c   26.56046200
_cell_angle_alpha   90.00000000
_cell_angle_beta   90.00000000
_cell_angle_gamma   90.00000000
_symmetry_Int_Tables_number   1
_chemical_formula_structural   Cu3P8(S2Cl)3
_chemical_formula_sum   'Cu12 P32 S24 Cl12'
_cell_volume   1959.53398833
_cell_formula_units_Z   4
loop_
 _symmetry_equiv_pos_site_id
 _symmetry_equiv_pos_as_xyz
  1  'x, y, z'
loop_
 _atom_site_type_symbol
 _atom_site_label
 _atom_site_symmetry_multiplicity
 _atom_site_fract_x
 _atom_site_fract_y
 _atom_site_fract_z
 _atom_site_occupancy
  Cu  Cu0  1  0.69075500  0.85718200  0.25000000  1
  Cu  Cu1  1  0.27123400  0.35508400  0.50208500  1
  Cu  Cu2  1  0.30924500  0.14281800  0.75000000  1
  Cu  Cu3  1  0.77123400  0.14491600  0.50208500  1
  Cu  Cu4  1  0.22876600  0.85508400  0.49791500  1
  Cu  Cu5  1  0.72876600  0.64491600  0.49791500  1
  Cu  Cu6  1  0.27123400  0.35508400  0.99791500  1
  Cu  Cu7  1  0.80924500  0.35718200  0.75000000  1
  Cu  Cu8  1  0.72876600  0.64491600  0.00208500  1
  Cu  Cu9  1  0.77123400  0.14491600  0.99791500  1
  Cu  Cu10  1  0.19075500  0.64281800  0.25000000  1
  Cu  Cu11  1  0.22876600  0.85508400  0.00208500  1
  P  P0  1  0.14092100  0.45123700  0.57016200  1
  P  P1  1  0.40984300  0.05230900  0.82078300  1
  P  P2  1  0.33710500  0.13013800  0.39412800  1
  P  P3  1  0.83710500  0.36986200  0.10587200  1
  P  P4  1  0.63981200  0.06818900  0.43074100  1
  P  P5  1  0.85907900  0.54876300  0.42983800  1
  P  P6  1  0.86018800  0.56818900  0.56925900  1
  P  P7  1  0.86018800  0.56818900  0.93074100  1
  P  P8  1  0.64092100  0.04876300  0.57016200  1
  P  P9  1  0.85907900  0.54876300  0.07016200  1
  P  P10  1  0.13981200  0.43181100  0.43074100  1
  P  P11  1  0.66289500  0.86986200  0.89412800  1
  P  P12  1  0.33710500  0.13013800  0.10587200  1
  P  P13  1  0.14092100  0.45123700  0.92983800  1
  P  P14  1  0.35907900  0.95123700  0.07016200  1
  P  P15  1  0.66289500  0.86986200  0.60587200  1
  P  P16  1  0.09015700  0.55230900  0.32078300  1
  P  P17  1  0.09015700  0.55230900  0.17921700  1
  P  P18  1  0.90984300  0.44769100  0.82078300  1
  P  P19  1  0.40984300  0.05230900  0.67921700  1
  P  P20  1  0.36018800  0.93181100  0.93074100  1
  P  P21  1  0.64092100  0.04876300  0.92983800  1
  P  P22  1  0.16289500  0.63013800  0.60587200  1
  P  P23  1  0.36018800  0.93181100  0.56925900  1
  P  P24  1  0.90984300  0.44769100  0.67921700  1
  P  P25  1  0.59015700  0.94769100  0.32078300  1
  P  P26  1  0.16289500  0.63013800  0.89412800  1
  P  P27  1  0.83710500  0.36986200  0.39412800  1
  P  P28  1  0.63981200  0.06818900  0.06925900  1
  P  P29  1  0.35907900  0.95123700  0.42983800  1
  P  P30  1  0.59015700  0.94769100  0.17921700  1
  P  P31  1  0.13981200  0.43181100  0.06925900  1
  S  S0  1  0.67431200  0.51013800  0.62939600  1
  S  S1  1  0.17431200  0.98986200  0.87060400  1
  S  S2  1  0.60876800  0.90523000  0.68223900  1
  S  S3  1  0.91654800  0.65998000  0.36959100  1
  S  S4  1  0.60876800  0.90523000  0.81776100  1
  S  S5  1  0.39123200  0.09477000  0.31776100  1
  S  S6  1  0.32568800  0.48986200  0.12939600  1
  S  S7  1  0.41654800  0.84002000  0.13040900  1
  S  S8  1  0.10876800  0.59477000  0.81776100  1
  S  S9  1  0.67431200  0.51013800  0.87060400  1
  S  S10  1  0.58345200  0.15998000  0.86959100  1
  S  S11  1  0.58345200  0.15998000  0.63040900  1
  S  S12  1  0.17431200  0.98986200  0.62939600  1
  S  S13  1  0.82568800  0.01013800  0.12939600  1
  S  S14  1  0.41654800  0.84002000  0.36959100  1
  S  S15  1  0.08345200  0.34002000  0.63040900  1
  S  S16  1  0.82568800  0.01013800  0.37060400  1
  S  S17  1  0.32568800  0.48986200  0.37060400  1
  S  S18  1  0.10876800  0.59477000  0.68223900  1
  S  S19  1  0.89123200  0.40523000  0.31776100  1
  S  S20  1  0.39123200  0.09477000  0.18223900  1
  S  S21  1  0.91654800  0.65998000  0.13040900  1
  S  S22  1  0.89123200  0.40523000  0.18223900  1
  S  S23  1  0.08345200  0.34002000  0.86959100  1
  Cl  Cl0  1  0.63102200  0.33156900  0.99192800  1
  Cl  Cl1  1  0.13102200  0.16843100  0.50807200  1
  Cl  Cl2  1  0.44846800  0.32879500  0.75000000  1
  Cl  Cl3  1  0.36897800  0.66843100  0.00807200  1
  Cl  Cl4  1  0.86897800  0.83156900  0.49192800  1
  Cl  Cl5  1  0.05153200  0.82879500  0.25000000  1
  Cl  Cl6  1  0.86897800  0.83156900  0.00807200  1
  Cl  Cl7  1  0.55153200  0.67120500  0.25000000  1
  Cl  Cl8  1  0.36897800  0.66843100  0.49192800  1
  Cl  Cl9  1  0.13102200  0.16843100  0.99192800  1
  Cl  Cl10  1  0.63102200  0.33156900  0.50807200  1
  Cl  Cl11  1  0.94846800  0.17120500  0.75000000  1
loop_
_geom_bond_atom_site_label_1
_geom_bond_atom_site_label_2
_geom_bond_distance
_geom_bond_site_symmetry_2
Cu0 P25 2.246615 1_555
Cu0 P30 2.246615 1_555
Cu1 P10 2.254265 1_555
Cu1 P0 2.280634 1_555
Cu2 P19 2.246615 1_555
Cu2 P1 2.246615 1_555
Cu3 P4 2.254265 1_555
Cu3 P8 2.280634 1_555
Cu4 P23 2.254265 1_555
Cu4 P29 2.280634 1_555
Cu5 P6 2.254265 1_555
Cu5 P5 2.280634 1_555
Cu6 P31 2.254265 1_556
Cu6 P13 2.280634 1_555
Cu7 P18 2.246615 1_555
Cu7 P24 2.246615 1_555
Cu8 P7 2.254265 1_554
Cu8 P9 2.280634 1_555
Cu9 P28 2.254265 1_556
Cu9 P21 2.280634 1_555
Cu10 P16 2.246615 1_555
Cu10 P17 2.246615 1_555
Cu11 P20 2.254265 1_554
Cu11 P14 2.280634 1_555
P0 S15 2.088316 1_555
P0 P6 2.242053 1_455
P0 P22 2.287510 1_555
P1 S10 2.111927 1_555
P1 S1 2.125317 1_545
P1 S4 2.126039 1_545
P2 S5 2.097876 1_555
P2 P4 2.272321 1_555
P2 P29 2.287510 1_545
P3 S22 2.097876 1_555
P3 P31 2.272321 1_655
P3 P9 2.287510 1_555
P4 S16 2.097795 1_555
P5 S3 2.088316 1_555
P6 S0 2.097795 1_555
P7 S9 2.097795 1_555
P8 S11 2.088316 1_555
P9 S21 2.088316 1_555
P10 S17 2.097795 1_555
P10 P5 2.242053 1_455
P10 P27 2.272321 1_455
P11 S4 2.097876 1_555
P11 P20 2.272321 1_555
P11 P21 2.287510 1_565
P12 S20 2.097876 1_555
P12 P28 2.272321 1_555
P12 P14 2.287510 1_545
P13 S23 2.088316 1_555
P13 P7 2.242053 1_455
P13 P26 2.287510 1_555
P14 S7 2.088316 1_555
P14 P28 2.242053 1_565
P15 S2 2.097876 1_555
P15 P23 2.272321 1_555
P15 P8 2.287510 1_565
P16 S3 2.111927 1_455
P16 S17 2.125317 1_555
P16 S19 2.126039 1_455
P17 S21 2.111927 1_455
P17 S6 2.125317 1_555
P17 S22 2.126039 1_455
P18 S23 2.111927 1_655
P18 S9 2.125317 1_555
P18 S8 2.126039 1_655
P19 S11 2.111927 1_555
P19 S12 2.125317 1_545
P19 S2 2.126039 1_545
P20 S1 2.097795 1_555
P20 P21 2.242053 1_565
P21 S10 2.088316 1_555
P22 S18 2.097876 1_555
P22 P6 2.272321 1_455
P23 S12 2.097795 1_555
P23 P8 2.242053 1_565
P24 S15 2.111927 1_655
P24 S0 2.125317 1_555
P24 S18 2.126039 1_655
P25 S14 2.111927 1_555
P25 S16 2.125317 1_565
P25 S5 2.126039 1_565
P26 S8 2.097876 1_555
P26 P7 2.272321 1_455
P27 S19 2.097876 1_555
P27 P5 2.287510 1_555
P28 S13 2.097795 1_555
P29 S14 2.088316 1_555
P29 P4 2.242053 1_565
P30 S7 2.111927 1_555
P30 S13 2.125317 1_565
P30 S20 2.126039 1_565
P31 S6 2.097795 1_555
P31 P9 2.242053 1_455
Cl0 Cu6 2.308147 1_555
Cl0 Cu9 2.348352 1_555
Cl1 Cu3 2.308147 1_455
Cl1 Cu1 2.348352 1_555
Cl2 Cu7 2.316273 1_555
Cl2 Cu2 2.333315 1_555
Cl3 Cu8 2.308147 1_555
Cl3 Cu11 2.348352 1_555
Cl4 Cu4 2.308147 1_655
Cl4 Cu5 2.348352 1_555
Cl5 Cu0 2.316273 1_455
Cl5 Cu10 2.333315 1_555
Cl6 Cu11 2.308147 1_655
Cl6 Cu8 2.348352 1_555
Cl7 Cu10 2.316273 1_555
Cl7 Cu0 2.333315 1_555
Cl8 Cu5 2.308147 1_555
Cl8 Cu4 2.348352 1_555
Cl9 Cu9 2.308147 1_455
Cl9 Cu6 2.348352 1_555
Cl10 Cu1 2.308147 1_555
Cl10 Cu3 2.348352 1_555
Cl11 Cu2 2.316273 1_655
Cl11 Cu7 2.333315 1_555
