# generated using pymatgen
data_RbTa(GeO3)3
_symmetry_space_group_name_H-M   'P 1'
_cell_length_a   7.16004624
_cell_length_b   7.16004624
_cell_length_c   10.27798100
_cell_angle_alpha   90.00000000
_cell_angle_beta   90.00000000
_cell_angle_gamma   120.00000217
_symmetry_Int_Tables_number   1
_chemical_formula_structural   RbTa(GeO3)3
_chemical_formula_sum   'Rb2 Ta2 Ge6 O18'
_cell_volume   456.32061185
_cell_formula_units_Z   2
loop_
 _symmetry_equiv_pos_site_id
 _symmetry_equiv_pos_as_xyz
  1  'x, y, z'
loop_
 _atom_site_type_symbol
 _atom_site_label
 _atom_site_symmetry_multiplicity
 _atom_site_fract_x
 _atom_site_fract_y
 _atom_site_fract_z
 _atom_site_occupancy
  Rb  Rb0  1  0.66666700  0.33333300  0.00000000  1
  Rb  Rb1  1  0.66666700  0.33333300  0.50000000  1
  Ta  Ta0  1  0.33333300  0.66666700  0.00000000  1
  Ta  Ta1  1  0.33333300  0.66666700  0.50000000  1
  Ge  Ge0  1  0.07668300  0.28865400  0.25000000  1
  Ge  Ge1  1  0.21197200  0.92331700  0.25000000  1
  Ge  Ge2  1  0.71134600  0.78802800  0.25000000  1
  Ge  Ge3  1  0.71134600  0.92331700  0.75000000  1
  Ge  Ge4  1  0.21197200  0.28865400  0.75000000  1
  Ge  Ge5  1  0.07668300  0.78802800  0.75000000  1
  O  O0  1  0.26452100  0.19454400  0.25000000  1
  O  O1  1  0.93002300  0.73547900  0.25000000  1
  O  O2  1  0.80545600  0.06997700  0.25000000  1
  O  O3  1  0.80545600  0.73547900  0.75000000  1
  O  O4  1  0.93002300  0.19454400  0.75000000  1
  O  O5  1  0.26452100  0.06997700  0.75000000  1
  O  O6  1  0.10296700  0.43931800  0.11024300  1
  O  O7  1  0.33635100  0.89703300  0.38975700  1
  O  O8  1  0.56068200  0.66364900  0.38975700  1
  O  O9  1  0.56068200  0.66364900  0.11024300  1
  O  O10  1  0.33635100  0.89703300  0.11024300  1
  O  O11  1  0.56068200  0.89703300  0.88975700  1
  O  O12  1  0.33635100  0.43931800  0.88975700  1
  O  O13  1  0.10296700  0.66364900  0.88975700  1
  O  O14  1  0.33635100  0.43931800  0.61024300  1
  O  O15  1  0.10296700  0.66364900  0.61024300  1
  O  O16  1  0.10296700  0.43931800  0.38975700  1
  O  O17  1  0.56068200  0.89703300  0.61024300  1
loop_
_geom_bond_atom_site_label_1
_geom_bond_atom_site_label_2
_geom_bond_distance
_geom_bond_site_symmetry_2
Ge0 O16 1.749122 1_555
Ge0 O6 1.749122 1_555
Ge0 O0 1.780208 1_555
Ge0 O2 1.783881 1_455
Ge1 O10 1.749118 1_555
Ge1 O7 1.749118 1_555
Ge1 O1 1.780213 1_455
Ge1 O0 1.783883 1_565
Ge2 O8 1.749121 1_555
Ge2 O9 1.749121 1_555
Ge2 O2 1.780214 1_565
Ge2 O1 1.783876 1_555
Ge3 O11 1.749122 1_555
Ge3 O17 1.749122 1_555
Ge3 O3 1.780208 1_555
Ge3 O4 1.783881 1_565
Ge4 O12 1.749121 1_555
Ge4 O14 1.749121 1_555
Ge4 O4 1.780214 1_455
Ge4 O5 1.783876 1_555
Ge5 O15 1.749118 1_555
Ge5 O13 1.749118 1_555
Ge5 O5 1.780213 1_565
Ge5 O3 1.783883 1_455
O6 Ta0 1.992315 1_555
O6 Rb0 3.041058 1_455
O7 Ta1 1.992312 1_555
O7 Rb1 3.041060 1_565
O8 Ta1 1.992318 1_555
O8 Rb1 3.041065 1_555
O9 Ta0 1.992318 1_555
O9 Rb0 3.041065 1_555
O10 Ta0 1.992312 1_555
O10 Rb0 3.041060 1_565
O11 Ta0 1.992315 1_556
O11 Rb0 3.041058 1_566
O12 Ta0 1.992318 1_556
O12 Rb0 3.041065 1_556
O13 Ta0 1.992312 1_556
O13 Rb0 3.041060 1_456
O14 Ta1 1.992318 1_555
O14 Rb1 3.041065 1_555
O15 Ta1 1.992312 1_555
O15 Rb1 3.041060 1_455
O16 Ta1 1.992315 1_555
O16 Rb1 3.041058 1_455
O17 Ta1 1.992315 1_555
O17 Rb1 3.041058 1_565
