# generated using pymatgen
data_HoGeAu
_symmetry_space_group_name_H-M   'P 1'
_cell_length_a   4.41551648
_cell_length_b   4.41551673
_cell_length_c   7.30023943
_cell_angle_alpha   90.00000000
_cell_angle_beta   90.00000000
_cell_angle_gamma   119.99999813
_symmetry_Int_Tables_number   1
_chemical_formula_structural   HoGeAu
_chemical_formula_sum   'Ho2 Ge2 Au2'
_cell_volume   123.26244798
_cell_formula_units_Z   2
loop_
 _symmetry_equiv_pos_site_id
 _symmetry_equiv_pos_as_xyz
  1  'x, y, z'
loop_
 _atom_site_type_symbol
 _atom_site_label
 _atom_site_symmetry_multiplicity
 _atom_site_fract_x
 _atom_site_fract_y
 _atom_site_fract_z
 _atom_site_occupancy
  Ho  Ho0  1  0.00000000  -0.00000000  0.46065319  1
  Ho  Ho1  1  -0.00000000  0.00000000  0.96065319  1
  Ge  Ge0  1  0.33333300  0.66666700  0.75382848  1
  Ge  Ge1  1  0.66666700  0.33333300  0.25382848  1
  Au  Au0  1  0.66666700  0.33333300  0.66881834  1
  Au  Au1  1  0.33333300  0.66666700  0.16881834  1
loop_
_geom_bond_atom_site_label_1
_geom_bond_atom_site_label_2
_geom_bond_distance
_geom_bond_site_symmetry_2
Ge0 Ho1 2.962874 1_565
Ge0 Ho1 2.962877 1_665
Ge0 Ho1 2.962878 1_555
Ge0 Ho0 3.328601 1_565
Ge0 Ho0 3.328604 1_665
Ge0 Ho0 3.328604 1_555
Ge1 Ho0 2.962874 1_655
Ge1 Ho0 2.962877 1_555
Ge1 Ho0 2.962878 1_665
Ge1 Ho1 3.328601 1_654
Ge1 Ho1 3.328604 1_554
Ge1 Ho1 3.328604 1_664
Au0 Ge0 2.623748 1_655
Au0 Ge0 2.623748 1_545
Au0 Ge0 2.623755 1_555
Au0 Ho0 2.967873 1_655
Au0 Ho0 2.967876 1_555
Au0 Ho0 2.967876 1_665
Au0 Ge1 3.029525 1_555
Au0 Ho1 3.322318 1_655
Au0 Ho1 3.322320 1_555
Au0 Ho1 3.322321 1_665
Au1 Ge1 2.623748 1_455
Au1 Ge1 2.623748 1_565
Au1 Ge1 2.623755 1_555
Au1 Ho1 2.967873 1_564
Au1 Ho1 2.967876 1_664
Au1 Ho1 2.967876 1_554
Au1 Ge0 3.029525 1_554
Au1 Ho0 3.322318 1_565
Au1 Ho0 3.322320 1_665
Au1 Ho0 3.322321 1_555
