# generated using pymatgen
data_Pu3Pd5
_symmetry_space_group_name_H-M   'P 1'
_cell_length_a   5.86562358
_cell_length_b   5.86562358
_cell_length_c   9.80996200
_cell_angle_alpha   90.00000000
_cell_angle_beta   90.00000000
_cell_angle_gamma   103.78801319
_symmetry_Int_Tables_number   1
_chemical_formula_structural   Pu3Pd5
_chemical_formula_sum   'Pu6 Pd10'
_cell_volume   327.79120351
_cell_formula_units_Z   2
loop_
 _symmetry_equiv_pos_site_id
 _symmetry_equiv_pos_as_xyz
  1  'x, y, z'
loop_
 _atom_site_type_symbol
 _atom_site_label
 _atom_site_symmetry_multiplicity
 _atom_site_fract_x
 _atom_site_fract_y
 _atom_site_fract_z
 _atom_site_occupancy
  Pu  Pu0  1  0.79712600  0.20287400  0.00000000  1
  Pu  Pu1  1  0.20287400  0.79712600  0.50000000  1
  Pu  Pu2  1  0.20287400  0.79712600  0.00000000  1
  Pu  Pu3  1  0.62740300  0.62740300  0.25000000  1
  Pu  Pu4  1  0.37259700  0.37259700  0.75000000  1
  Pu  Pu5  1  0.79712600  0.20287400  0.50000000  1
  Pd  Pd0  1  0.93319200  0.48849200  0.75000000  1
  Pd  Pd1  1  0.06680800  0.51150800  0.25000000  1
  Pd  Pd2  1  0.68516200  0.68516200  0.54884900  1
  Pd  Pd3  1  0.97483600  0.97483600  0.75000000  1
  Pd  Pd4  1  0.31483800  0.31483800  0.04884900  1
  Pd  Pd5  1  0.48849200  0.93319200  0.75000000  1
  Pd  Pd6  1  0.51150800  0.06680800  0.25000000  1
  Pd  Pd7  1  0.02516400  0.02516400  0.25000000  1
  Pd  Pd8  1  0.68516200  0.68516200  0.95115100  1
  Pd  Pd9  1  0.31483800  0.31483800  0.45115100  1
loop_
_geom_bond_atom_site_label_1
_geom_bond_atom_site_label_2
_geom_bond_distance
_geom_bond_site_symmetry_2
Pd0 Pd3 2.804546 1_555
Pd0 Pu4 2.817834 1_655
Pd0 Pd8 2.853278 1_555
Pd0 Pd2 2.853278 1_555
Pd0 Pu5 2.970029 1_555
Pd0 Pu0 2.970029 1_556
Pd0 Pd3 3.080278 1_545
Pd0 Pu4 3.195175 1_555
Pd0 Pu2 3.229437 1_656
Pd0 Pu1 3.229437 1_655
Pd1 Pd7 2.804546 1_555
Pd1 Pu3 2.817834 1_455
Pd1 Pd4 2.853278 1_555
Pd1 Pd9 2.853278 1_555
Pd1 Pu1 2.970029 1_555
Pd1 Pu2 2.970029 1_555
Pd1 Pd7 3.080278 1_565
Pd1 Pu3 3.195175 1_555
Pd1 Pu5 3.229437 1_455
Pd1 Pu0 3.229437 1_455
Pd2 Pd9 2.847146 1_555
Pd2 Pd5 2.853278 1_555
Pd2 Pd3 2.879537 1_555
Pd2 Pu3 2.961368 1_555
Pd2 Pu1 2.988628 1_655
Pd2 Pu5 2.988628 1_565
Pd2 Pu4 3.002377 1_555
Pd2 Pu5 3.090194 1_555
Pd2 Pu1 3.090194 1_555
Pd3 Pd5 2.804546 1_555
Pd3 Pd8 2.879537 1_555
Pd3 Pu4 2.879617 1_665
Pd3 Pd5 3.080278 1_655
Pd3 Pu0 3.091115 1_566
Pd3 Pu1 3.091115 1_655
Pd3 Pu2 3.091115 1_656
Pd3 Pu5 3.091115 1_565
Pd4 Pd8 2.847146 1_554
Pd4 Pd6 2.853278 1_555
Pd4 Pd7 2.879537 1_555
Pd4 Pu4 2.961368 1_554
Pd4 Pu0 2.988628 1_455
Pd4 Pu2 2.988628 1_545
Pd4 Pu3 3.002377 1_555
Pd4 Pu2 3.090194 1_555
Pd4 Pu0 3.090194 1_555
Pd5 Pu4 2.817834 1_565
Pd5 Pd8 2.853278 1_555
Pd5 Pu1 2.970029 1_555
Pd5 Pu2 2.970029 1_556
Pd5 Pu4 3.195175 1_555
Pd5 Pu0 3.229437 1_566
Pd5 Pu5 3.229437 1_565
Pd6 Pd7 2.804546 1_555
Pd6 Pu3 2.817834 1_545
Pd6 Pd9 2.853278 1_555
Pd6 Pu5 2.970029 1_555
Pd6 Pu0 2.970029 1_555
Pd6 Pd7 3.080278 1_655
Pd6 Pu3 3.195175 1_555
Pd6 Pu2 3.229437 1_545
Pd6 Pu1 3.229437 1_545
Pd7 Pd9 2.879537 1_555
Pd7 Pu3 2.879617 1_445
Pd7 Pu1 3.091115 1_545
Pd7 Pu0 3.091115 1_455
Pd7 Pu5 3.091115 1_455
Pd7 Pu2 3.091115 1_545
Pd8 Pu3 2.961368 1_556
Pd8 Pu0 2.988628 1_566
Pd8 Pu2 2.988628 1_656
Pd8 Pu4 3.002377 1_555
Pd8 Pu0 3.090194 1_556
Pd8 Pu2 3.090194 1_556
Pd9 Pu4 2.961368 1_555
Pd9 Pu5 2.988628 1_455
Pd9 Pu1 2.988628 1_545
Pd9 Pu3 3.002377 1_555
Pd9 Pu5 3.090194 1_555
Pd9 Pu1 3.090194 1_555
