# generated using pymatgen
data_K4WS3O14
_symmetry_space_group_name_H-M   'P 1'
_cell_length_a   14.28317000
_cell_length_b   9.65999800
_cell_length_c   14.08842640
_cell_angle_alpha   47.93946875
_cell_angle_beta   90.00000000
_cell_angle_gamma   90.00000000
_symmetry_Int_Tables_number   1
_chemical_formula_structural   K4WS3O14
_chemical_formula_sum   'K16 W4 S12 O56'
_cell_volume   1443.19171092
_cell_formula_units_Z   4
loop_
 _symmetry_equiv_pos_site_id
 _symmetry_equiv_pos_as_xyz
  1  'x, y, z'
loop_
 _atom_site_type_symbol
 _atom_site_label
 _atom_site_symmetry_multiplicity
 _atom_site_fract_x
 _atom_site_fract_y
 _atom_site_fract_z
 _atom_site_occupancy
  K  K0  1  0.49468400  0.69385800  0.79986600  1
  K  K1  1  0.32593100  0.98694000  0.83453600  1
  K  K2  1  0.21973500  0.47665100  0.77126800  1
  K  K3  1  0.71973500  0.52334900  0.72873200  1
  K  K4  1  0.45860800  0.73370000  0.47467400  1
  K  K5  1  0.99468400  0.30614200  0.70013400  1
  K  K6  1  0.95860800  0.26630000  0.02532600  1
  K  K7  1  0.78026500  0.52334900  0.22873200  1
  K  K8  1  0.04139200  0.73370000  0.97467400  1
  K  K9  1  0.54139200  0.26630000  0.52532600  1
  K  K10  1  0.28026500  0.47665100  0.27126800  1
  K  K11  1  0.82593100  0.01306000  0.66546400  1
  K  K12  1  0.17406900  0.98694000  0.33453600  1
  K  K13  1  0.50531600  0.30614200  0.20013400  1
  K  K14  1  0.00531600  0.69385800  0.29986600  1
  K  K15  1  0.67406900  0.01306000  0.16546400  1
  W  W0  1  0.12211900  0.08255100  0.58379700  1
  W  W1  1  0.37788100  0.08255100  0.08379700  1
  W  W2  1  0.62211900  0.91744900  0.91620300  1
  W  W3  1  0.87788100  0.91744900  0.41620300  1
  S  S0  1  0.15581700  0.97858500  0.04713500  1
  S  S1  1  0.49726700  0.29266600  0.79361800  1
  S  S2  1  0.78050200  0.54482700  0.47798200  1
  S  S3  1  0.65581700  0.02141500  0.45286500  1
  S  S4  1  0.00273300  0.29266600  0.29361800  1
  S  S5  1  0.99726700  0.70733400  0.70638200  1
  S  S6  1  0.28050200  0.45517300  0.02201800  1
  S  S7  1  0.84418300  0.02141500  0.95286500  1
  S  S8  1  0.21949800  0.45517300  0.52201800  1
  S  S9  1  0.50273300  0.70733400  0.20638200  1
  S  S10  1  0.34418300  0.97858500  0.54713500  1
  S  S11  1  0.71949800  0.54482700  0.97798200  1
  O  O0  1  0.30409200  0.53954300  0.44395600  1
  O  O1  1  0.49278400  0.13875200  0.09608900  1
  O  O2  1  0.58604000  0.78657900  0.11849900  1
  O  O3  1  0.73972100  0.96002500  0.98614700  1
  O  O4  1  0.60732000  0.91122200  0.57662000  1
  O  O5  1  0.38042900  0.01708900  0.62571100  1
  O  O6  1  0.65388800  0.22374600  0.38178900  1
  O  O7  1  0.14430900  0.58952600  0.48141500  1
  O  O8  1  0.11957100  0.01708900  0.12571100  1
  O  O9  1  0.80409200  0.46045700  0.05604400  1
  O  O10  1  0.83359100  0.02683800  0.26382900  1
  O  O11  1  0.23603000  0.32826300  0.66004400  1
  O  O12  1  0.47600900  0.30059900  0.68886500  1
  O  O13  1  0.26027900  0.03997500  0.01385300  1
  O  O14  1  0.73603000  0.67173700  0.83995600  1
  O  O15  1  0.69590800  0.46045700  0.55604400  1
  O  O16  1  0.99278400  0.86124800  0.40391100  1
  O  O17  1  0.02569100  0.52752400  0.74926100  1
  O  O18  1  0.47430900  0.52752400  0.24926100  1
  O  O19  1  0.15388800  0.77625400  0.11821100  1
  O  O20  1  0.85569100  0.41047400  0.51858500  1
  O  O21  1  0.58104600  0.15906900  0.87323700  1
  O  O22  1  0.52399100  0.69940100  0.31113500  1
  O  O23  1  0.76397000  0.67173700  0.33995600  1
  O  O24  1  0.50721600  0.86124800  0.90391100  1
  O  O25  1  0.89268000  0.91122200  0.07662000  1
  O  O26  1  0.52569100  0.47247600  0.75073900  1
  O  O27  1  0.91396000  0.78657900  0.61849900  1
  O  O28  1  0.67864300  0.66672400  0.00839600  1
  O  O29  1  0.02399100  0.30059900  0.18886500  1
  O  O30  1  0.76027900  0.96002500  0.48614700  1
  O  O31  1  0.32135700  0.33327600  0.99160400  1
  O  O32  1  0.82135700  0.66672400  0.50839600  1
  O  O33  1  0.10732000  0.08877800  0.92338000  1
  O  O34  1  0.39268000  0.08877800  0.42338000  1
  O  O35  1  0.66640900  0.02683800  0.76382900  1
  O  O36  1  0.97430900  0.47247600  0.25073900  1
  O  O37  1  0.16640900  0.97316200  0.73617100  1
  O  O38  1  0.41895400  0.84093100  0.12676300  1
  O  O39  1  0.33359100  0.97316200  0.23617100  1
  O  O40  1  0.35569100  0.58952600  0.98141500  1
  O  O41  1  0.00721600  0.13875200  0.59608900  1
  O  O42  1  0.61957100  0.98291100  0.37428900  1
  O  O43  1  0.23972100  0.03997500  0.51385300  1
  O  O44  1  0.41396000  0.21342100  0.88150100  1
  O  O45  1  0.19590800  0.53954300  0.94395600  1
  O  O46  1  0.91895400  0.15906900  0.37323700  1
  O  O47  1  0.84611200  0.22374600  0.88178900  1
  O  O48  1  0.26397000  0.32826300  0.16004400  1
  O  O49  1  0.34611200  0.77625400  0.61821100  1
  O  O50  1  0.08104600  0.84093100  0.62676300  1
  O  O51  1  0.97600900  0.69940100  0.81113500  1
  O  O52  1  0.08604000  0.21342100  0.38150100  1
  O  O53  1  0.17864300  0.33327600  0.49160400  1
  O  O54  1  0.64430900  0.41047400  0.01858500  1
  O  O55  1  0.88042900  0.98291100  0.87428900  1
loop_
_geom_bond_atom_site_label_1
_geom_bond_atom_site_label_2
_geom_bond_distance
_geom_bond_site_symmetry_2
K0 O26 2.689183 1_555
K0 O24 2.823305 1_555
K0 O4 2.835665 1_555
K0 O40 2.836409 1_555
K0 O5 2.857991 1_565
K0 O49 2.992854 1_555
K0 O54 3.202233 1_556
K1 O37 2.716022 1_555
K1 O24 2.746655 1_555
K1 O11 2.775525 1_565
K1 O5 2.863247 1_565
K1 O40 2.925240 1_555
K1 O44 2.957145 1_565
K1 O13 3.042704 1_566
K1 O12 3.107400 1_565
K2 O11 2.752041 1_555
K2 O17 2.795542 1_555
K2 O31 2.810814 1_555
K2 O49 2.814716 1_555
K2 O45 2.895567 1_555
K2 O33 3.232839 1_555
K2 O13 3.239411 1_556
K2 O50 3.294403 1_555
K2 O44 3.358957 1_555
K3 O14 2.752041 1_555
K3 O26 2.795542 1_555
K3 O32 2.810814 1_555
K3 O47 2.814716 1_555
K3 O15 2.895567 1_555
K3 O4 3.232839 1_555
K3 O30 3.239411 1_555
K3 O21 3.294403 1_555
K3 O27 3.358957 1_555
K4 O22 2.704285 1_555
K4 O49 2.820263 1_555
K4 O42 2.918838 1_555
K4 O26 3.043503 1_555
K4 O39 3.068525 1_555
K4 O0 3.108580 1_555
K4 O12 3.123502 1_555
K4 O34 3.138969 1_565
K5 O17 2.689183 1_655
K5 O41 2.823305 1_655
K5 O33 2.835665 1_655
K5 O20 2.836409 1_555
K5 O55 2.857991 1_545
K5 O47 2.992854 1_555
K5 O7 3.202233 1_655
K6 O29 2.704285 1_655
K6 O47 2.820263 1_554
K6 O8 2.918838 1_655
K6 O17 3.043503 1_654
K6 O10 3.068525 1_555
K6 O9 3.108580 1_555
K6 O51 3.123502 1_554
K6 O25 3.138969 1_545
K7 O23 2.752041 1_555
K7 O36 2.795542 1_555
K7 O28 2.810814 1_555
K7 O6 2.814716 1_555
K7 O9 2.895567 1_555
K7 O25 3.232839 1_555
K7 O3 3.239411 1_554
K7 O46 3.294403 1_555
K7 O2 3.358957 1_555
K8 O51 2.704285 1_455
K8 O19 2.820263 1_556
K8 O55 2.918838 1_455
K8 O36 3.043503 1_456
K8 O37 3.068525 1_555
K8 O45 3.108580 1_555
K8 O29 3.123502 1_556
K8 O33 3.138969 1_565
K9 O12 2.704285 1_555
K9 O6 2.820263 1_555
K9 O5 2.918838 1_555
K9 O18 3.043503 1_555
K9 O35 3.068525 1_555
K9 O15 3.108580 1_555
K9 O22 3.123502 1_555
K9 O4 3.138969 1_545
K10 O48 2.752041 1_555
K10 O18 2.795542 1_555
K10 O53 2.810814 1_555
K10 O19 2.814716 1_555
K10 O0 2.895567 1_555
K10 O34 3.232839 1_555
K10 O43 3.239411 1_555
K10 O38 3.294403 1_555
K10 O52 3.358957 1_555
K11 O35 2.716022 1_555
K11 O41 2.746655 1_655
K11 O14 2.775525 1_545
K11 O55 2.863247 1_545
K11 O20 2.925240 1_555
K11 O27 2.957145 1_545
K11 O30 3.042704 1_545
K11 O51 3.107400 1_545
K12 O39 2.716022 1_555
K12 O16 2.746655 1_455
K12 O48 2.775525 1_565
K12 O8 2.863247 1_565
K12 O7 2.925240 1_555
K12 O52 2.957145 1_565
K12 O43 3.042704 1_565
K12 O29 3.107400 1_565
K13 O18 2.689183 1_555
K13 O1 2.823305 1_555
K13 O34 2.835665 1_555
K13 O54 2.836409 1_555
K13 O42 2.857991 1_545
K13 O6 2.992854 1_555
K13 O40 3.202233 1_554
K14 O36 2.689183 1_455
K14 O16 2.823305 1_455
K14 O25 2.835665 1_455
K14 O7 2.836409 1_555
K14 O8 2.857991 1_565
K14 O19 2.992854 1_555
K14 O20 3.202233 1_455
K15 O10 2.716022 1_555
K15 O1 2.746655 1_555
K15 O23 2.775525 1_545
K15 O42 2.863247 1_545
K15 O54 2.925240 1_555
K15 O2 2.957145 1_545
K15 O3 3.042704 1_544
K15 O22 3.107400 1_545
O0 S8 1.460388 1_555
O1 W1 1.773180 1_555
O2 S9 1.504964 1_555
O2 W2 2.271346 1_554
O3 S7 1.557302 1_565
O3 W2 2.122420 1_555
O4 S3 1.471782 1_565
O5 S10 1.477674 1_545
O6 S3 1.483692 1_555
O7 S8 1.473184 1_555
O8 S0 1.477674 1_545
O9 S11 1.460388 1_554
O10 W3 1.756660 1_545
O11 S8 1.464916 1_555
O12 S1 1.457579 1_555
O13 S0 1.557302 1_545
O13 W1 2.122420 1_555
O14 S11 1.464916 1_555
O15 S2 1.460388 1_555
O16 W3 1.773180 1_555
O17 S5 1.463189 1_455
O18 S9 1.463189 1_555
O19 S0 1.483692 1_555
O20 S2 1.473184 1_555
O21 S1 1.554381 1_555
O21 W2 2.065279 1_545
O22 S9 1.457579 1_555
O23 S2 1.464916 1_555
O24 W2 1.773180 1_555
O25 S7 1.471782 1_564
O26 S1 1.463189 1_555
O27 S5 1.504964 1_555
O27 W3 2.271346 1_555
O28 S11 1.608321 1_554
O28 W2 1.997509 1_554
O29 S4 1.457579 1_555
O30 S3 1.557302 1_565
O30 W3 2.122420 1_555
O31 S6 1.608321 1_556
O31 W1 1.997509 1_556
O32 S2 1.608321 1_555
O32 W3 1.997509 1_555
O33 S0 1.471782 1_546
O34 S10 1.471782 1_545
O35 W2 1.756660 1_545
O36 S4 1.463189 1_655
O37 W0 1.756660 1_565
O38 S9 1.554381 1_555
O38 W1 2.065279 1_565
O39 W1 1.756660 1_565
O40 S6 1.473184 1_556
O41 W0 1.773180 1_555
O42 S3 1.477674 1_565
O43 S10 1.557302 1_545
O43 W0 2.122420 1_555
O44 S1 1.504964 1_555
O44 W1 2.271346 1_556
O45 S6 1.460388 1_556
O46 S4 1.554381 1_655
O46 W3 2.065279 1_545
O47 S7 1.483692 1_555
O48 S6 1.464916 1_555
O49 S10 1.483692 1_555
O50 S5 1.554381 1_455
O50 W0 2.065279 1_565
O51 S5 1.457579 1_555
O52 S4 1.504964 1_555
O52 W0 2.271346 1_555
O53 S8 1.608321 1_555
O53 W0 1.997509 1_555
O54 S11 1.473184 1_554
O55 S7 1.477674 1_565
