# generated using pymatgen
data_Ag2BiO3
_symmetry_space_group_name_H-M   'P 1'
_cell_length_a   6.35944900
_cell_length_b   6.12362900
_cell_length_c   11.38458554
_cell_angle_alpha   59.24117374
_cell_angle_beta   90.00000000
_cell_angle_gamma   90.00000000
_symmetry_Int_Tables_number   1
_chemical_formula_structural   Ag2BiO3
_chemical_formula_sum   'Ag8 Bi4 O12'
_cell_volume   380.98191845
_cell_formula_units_Z   4
loop_
 _symmetry_equiv_pos_site_id
 _symmetry_equiv_pos_as_xyz
  1  'x, y, z'
loop_
 _atom_site_type_symbol
 _atom_site_label
 _atom_site_symmetry_multiplicity
 _atom_site_fract_x
 _atom_site_fract_y
 _atom_site_fract_z
 _atom_site_occupancy
  Ag  Ag0  1  0.23848000  0.22961600  0.51383000  1
  Ag  Ag1  1  0.50243300  0.23265700  0.74658000  1
  Ag  Ag2  1  0.99562000  0.28185700  0.25513700  1
  Ag  Ag3  1  0.24018400  0.75007500  0.49662900  1
  Ag  Ag4  1  0.75981600  0.75007500  0.99662900  1
  Ag  Ag5  1  0.00438000  0.28185700  0.75513700  1
  Ag  Ag6  1  0.49756700  0.23265700  0.24658000  1
  Ag  Ag7  1  0.76152000  0.22961600  0.01383000  1
  Bi  Bi0  1  0.26329300  0.60183000  0.89428900  1
  Bi  Bi1  1  0.73670700  0.60183000  0.39428900  1
  Bi  Bi2  1  0.74949200  0.89827300  0.60284600  1
  Bi  Bi3  1  0.25050800  0.89827300  0.10284600  1
  O  O0  1  0.55316200  0.84616700  0.77026000  1
  O  O1  1  0.08127200  0.88801100  0.93231400  1
  O  O2  1  0.56335400  0.62663100  0.56835700  1
  O  O3  1  0.99888600  0.66229600  0.73542900  1
  O  O4  1  0.44683800  0.84616700  0.27026000  1
  O  O5  1  0.44960200  0.22150500  0.95183800  1
  O  O6  1  0.91872800  0.88801100  0.43231400  1
  O  O7  1  0.92045000  0.24538200  0.56541200  1
  O  O8  1  0.55039800  0.22150500  0.45183800  1
  O  O9  1  0.07955000  0.24538200  0.06541200  1
  O  O10  1  0.43664600  0.62663100  0.06835700  1
  O  O11  1  0.00111400  0.66229600  0.23542900  1
loop_
_geom_bond_atom_site_label_1
_geom_bond_atom_site_label_2
_geom_bond_distance
_geom_bond_site_symmetry_2
Ag0 O8 2.114517 1_555
Ag0 O7 2.121945 1_455
Ag1 O2 2.253976 1_555
Ag1 O0 2.263958 1_545
Ag1 O5 2.326982 1_555
Ag2 O11 2.223570 1_655
Ag2 O6 2.269023 1_545
Ag2 O9 2.343840 1_655
Ag3 O6 2.189995 1_455
Ag3 O2 2.197871 1_555
Ag3 O4 2.676530 1_555
Ag4 O1 2.189995 1_655
Ag4 O10 2.197871 1_556
Ag4 O0 2.676530 1_555
Ag5 O3 2.223570 1_455
Ag5 O1 2.269023 1_545
Ag5 O7 2.343840 1_455
Ag6 O10 2.253976 1_555
Ag6 O4 2.263958 1_545
Ag6 O8 2.326982 1_555
Ag7 O5 2.114517 1_554
Ag7 O9 2.121945 1_655
Bi0 O1 2.318285 1_555
Bi0 O0 2.338732 1_555
Bi0 O10 2.339521 1_556
Bi0 O3 2.355928 1_455
Bi0 O9 2.361277 1_556
Bi0 O5 2.386715 1_555
Bi1 O6 2.318285 1_555
Bi1 O4 2.338732 1_555
Bi1 O2 2.339521 1_555
Bi1 O11 2.355928 1_655
Bi1 O7 2.361277 1_555
Bi1 O8 2.386715 1_555
Bi2 O3 2.156586 1_555
Bi2 O0 2.161308 1_555
Bi2 O7 2.226006 1_565
Bi2 O2 2.233937 1_555
Bi2 O8 2.235140 1_565
Bi2 O6 2.248604 1_555
Bi3 O11 2.156586 1_555
Bi3 O4 2.161308 1_555
Bi3 O9 2.226006 1_565
Bi3 O10 2.233937 1_555
Bi3 O5 2.235140 1_564
Bi3 O1 2.248604 1_554
