# generated using pymatgen
data_NaCoPO4
_symmetry_space_group_name_H-M   'P 1'
_cell_length_a   11.14787400
_cell_length_b   5.86134700
_cell_length_c   10.03430636
_cell_angle_alpha   87.18719744
_cell_angle_beta   90.00000000
_cell_angle_gamma   90.00000000
_symmetry_Int_Tables_number   1
_chemical_formula_structural   NaCoPO4
_chemical_formula_sum   'Na8 Co8 P8 O32'
_cell_volume   654.86727165
_cell_formula_units_Z   8
loop_
 _symmetry_equiv_pos_site_id
 _symmetry_equiv_pos_as_xyz
  1  'x, y, z'
loop_
 _atom_site_type_symbol
 _atom_site_label
 _atom_site_symmetry_multiplicity
 _atom_site_fract_x
 _atom_site_fract_y
 _atom_site_fract_z
 _atom_site_occupancy
  Na  Na0  1  0.63204800  0.12525200  0.62459300  1
  Na  Na1  1  0.36795200  0.87474800  0.37540700  1
  Na  Na2  1  0.15349300  0.37935400  0.86885900  1
  Na  Na3  1  0.34650700  0.37935400  0.36885900  1
  Na  Na4  1  0.65349300  0.62064600  0.63114100  1
  Na  Na5  1  0.86795200  0.12525200  0.12459300  1
  Na  Na6  1  0.84650700  0.62064600  0.13114100  1
  Na  Na7  1  0.13204800  0.87474800  0.87540700  1
  Co  Co0  1  0.62194700  0.34756600  0.00070200  1
  Co  Co1  1  0.37805300  0.65243400  0.99929800  1
  Co  Co2  1  0.10453400  0.11024100  0.26620700  1
  Co  Co3  1  0.39546600  0.11024100  0.76620700  1
  Co  Co4  1  0.87805300  0.34756600  0.50070200  1
  Co  Co5  1  0.12194700  0.65243400  0.49929800  1
  Co  Co6  1  0.60453400  0.88975900  0.23379300  1
  Co  Co7  1  0.89546600  0.88975900  0.73379300  1
  P  P0  1  0.63671100  0.87526700  0.91404600  1
  P  P1  1  0.13671100  0.12473300  0.58595400  1
  P  P2  1  0.61502700  0.37558300  0.32799700  1
  P  P3  1  0.36328900  0.12473300  0.08595400  1
  P  P4  1  0.38497300  0.62441700  0.67200300  1
  P  P5  1  0.88497300  0.37558300  0.82799700  1
  P  P6  1  0.86328900  0.87526700  0.41404600  1
  P  P7  1  0.11502700  0.62441700  0.17200300  1
  O  O0  1  0.79821800  0.38225000  0.94901100  1
  O  O1  1  0.43961000  0.90560700  0.12346800  1
  O  O2  1  0.53525500  0.15518500  0.34664700  1
  O  O3  1  0.44315600  0.34260400  0.07568600  1
  O  O4  1  0.06039000  0.90560700  0.62346800  1
  O  O5  1  0.22868700  0.15117000  0.69792100  1
  O  O6  1  0.80294300  0.91179800  0.55123000  1
  O  O7  1  0.94315600  0.65739600  0.42431400  1
  O  O8  1  0.18669100  0.63535400  0.30528200  1
  O  O9  1  0.53304000  0.59237000  0.32609100  1
  O  O10  1  0.19705700  0.08820200  0.44877000  1
  O  O11  1  0.31330900  0.63535400  0.80528200  1
  O  O12  1  0.81330900  0.36464600  0.69471800  1
  O  O13  1  0.56039000  0.09439300  0.87653200  1
  O  O14  1  0.20178200  0.61775000  0.05098900  1
  O  O15  1  0.77131300  0.84883000  0.30207900  1
  O  O16  1  0.96696000  0.59237000  0.82609100  1
  O  O17  1  0.68669100  0.36464600  0.19471800  1
  O  O18  1  0.70178200  0.38225000  0.44901100  1
  O  O19  1  0.69705700  0.91179800  0.05123000  1
  O  O20  1  0.46696000  0.40763000  0.67390900  1
  O  O21  1  0.93961000  0.09439300  0.37653200  1
  O  O22  1  0.30294300  0.08820200  0.94877000  1
  O  O23  1  0.03525500  0.84481500  0.15335300  1
  O  O24  1  0.29821800  0.61775000  0.55098900  1
  O  O25  1  0.46474500  0.84481500  0.65335300  1
  O  O26  1  0.03304000  0.40763000  0.17390900  1
  O  O27  1  0.27131300  0.15117000  0.19792100  1
  O  O28  1  0.05684400  0.34260400  0.57568600  1
  O  O29  1  0.96474500  0.15518500  0.84664700  1
  O  O30  1  0.55684400  0.65739600  0.92431400  1
  O  O31  1  0.72868700  0.84883000  0.80207900  1
loop_
_geom_bond_atom_site_label_1
_geom_bond_atom_site_label_2
_geom_bond_distance
_geom_bond_site_symmetry_2
Na0 O18 2.391035 1_555
Na0 O6 2.413937 1_545
Na0 O25 2.493411 1_545
Na0 O20 2.540014 1_555
Na0 O12 2.577606 1_555
Na0 O31 2.583459 1_545
Na0 O13 2.648948 1_555
Na1 O24 2.391035 1_555
Na1 O10 2.413937 1_565
Na1 O2 2.493411 1_565
Na1 O9 2.540014 1_555
Na1 O8 2.577606 1_555
Na1 O27 2.583459 1_565
Na1 O1 2.648948 1_555
Na2 O5 2.378802 1_555
Na2 O11 2.395553 1_555
Na2 O14 2.415132 1_556
Na2 O16 2.452464 1_455
Na2 O22 2.489312 1_555
Na2 O29 2.496445 1_455
Na3 O27 2.378802 1_555
Na3 O8 2.395553 1_555
Na3 O24 2.415132 1_555
Na3 O9 2.452464 1_555
Na3 O10 2.489312 1_555
Na3 O2 2.496445 1_555
Na4 O31 2.378802 1_555
Na4 O12 2.395553 1_555
Na4 O18 2.415132 1_555
Na4 O20 2.452464 1_555
Na4 O6 2.489312 1_555
Na4 O25 2.496445 1_555
Na5 O0 2.391035 1_554
Na5 O19 2.413937 1_545
Na5 O23 2.493411 1_645
Na5 O26 2.540014 1_655
Na5 O17 2.577606 1_555
Na5 O15 2.583459 1_545
Na5 O21 2.648948 1_555
Na6 O15 2.378802 1_555
Na6 O17 2.395553 1_555
Na6 O0 2.415132 1_554
Na6 O26 2.452464 1_655
Na6 O19 2.489312 1_555
Na6 O23 2.496445 1_655
Na7 O14 2.391035 1_556
Na7 O22 2.413937 1_565
Na7 O29 2.493411 1_465
Na7 O16 2.540014 1_455
Na7 O11 2.577606 1_555
Na7 O5 2.583459 1_565
Na7 O4 2.648948 1_555
Co0 O0 2.039956 1_554
Co0 O30 2.067744 1_554
Co0 O17 2.083309 1_555
Co0 O13 2.099251 1_554
Co0 O3 2.130124 1_555
Co1 O14 2.039956 1_556
Co1 O3 2.067744 1_556
Co1 O11 2.083309 1_555
Co1 O1 2.099251 1_556
Co1 O30 2.130124 1_555
Co2 O27 1.991899 1_555
Co2 O26 2.091153 1_555
Co2 O10 2.100750 1_555
Co2 O23 2.114735 1_545
Co2 O21 2.145772 1_455
Co3 O5 1.991899 1_555
Co3 O20 2.091153 1_555
Co3 O22 2.100750 1_555
Co3 O25 2.114735 1_545
Co3 O13 2.145772 1_555
Co4 O18 2.039956 1_555
Co4 O7 2.067744 1_555
Co4 O12 2.083309 1_555
Co4 O21 2.099251 1_555
Co4 O28 2.130124 1_655
Co5 O24 2.039956 1_555
Co5 O28 2.067744 1_555
Co5 O8 2.083309 1_555
Co5 O4 2.099251 1_555
Co5 O7 2.130124 1_455
Co6 O15 1.991899 1_555
Co6 O9 2.091153 1_555
Co6 O19 2.100750 1_555
Co6 O2 2.114735 1_565
Co6 O1 2.145772 1_555
Co7 O31 1.991899 1_555
Co7 O16 2.091153 1_555
Co7 O6 2.100750 1_555
Co7 O29 2.114735 1_565
Co7 O4 2.145772 1_655
O0 P5 1.554360 1_555
O1 P3 1.570908 1_565
O2 P2 1.571926 1_555
O3 P3 1.556019 1_555
O4 P1 1.570908 1_565
O5 P1 1.534500 1_555
O6 P6 1.556349 1_555
O7 P6 1.556019 1_555
O8 P7 1.561827 1_555
O9 P2 1.564586 1_555
O10 P1 1.556349 1_555
O11 P4 1.561827 1_555
O12 P5 1.561827 1_555
O13 P0 1.570908 1_545
O14 P7 1.554360 1_555
O15 P6 1.534500 1_555
O16 P5 1.564586 1_555
O17 P2 1.561827 1_555
O18 P2 1.554360 1_555
O19 P0 1.556349 1_554
O20 P4 1.564586 1_555
O21 P6 1.570908 1_545
O22 P3 1.556349 1_556
O23 P7 1.571926 1_555
O24 P4 1.554360 1_555
O25 P4 1.571926 1_555
O26 P7 1.564586 1_555
O27 P3 1.534500 1_555
O28 P1 1.556019 1_555
O29 P5 1.571926 1_555
O30 P0 1.556019 1_555
O31 P0 1.534500 1_555
