# generated using pymatgen
data_Nd7(S2Cl3)3
_symmetry_space_group_name_H-M   'P 1'
_cell_length_a   6.74277300
_cell_length_b   7.01849600
_cell_length_c   24.57485891
_cell_angle_alpha   82.24226473
_cell_angle_beta   90.00000000
_cell_angle_gamma   90.00000000
_symmetry_Int_Tables_number   1
_chemical_formula_structural   Nd7(S2Cl3)3
_chemical_formula_sum   'Nd14 S12 Cl18'
_cell_volume   1152.33970697
_cell_formula_units_Z   2
loop_
 _symmetry_equiv_pos_site_id
 _symmetry_equiv_pos_as_xyz
  1  'x, y, z'
loop_
 _atom_site_type_symbol
 _atom_site_label
 _atom_site_symmetry_multiplicity
 _atom_site_fract_x
 _atom_site_fract_y
 _atom_site_fract_z
 _atom_site_occupancy
  Nd  Nd0  1  0.71121000  0.75000000  0.00000000  1
  Nd  Nd1  1  0.30430600  0.87632500  0.85730400  1
  Nd  Nd2  1  0.71723200  0.50670700  0.57911000  1
  Nd  Nd3  1  0.28879000  0.25000000  0.00000000  1
  Nd  Nd4  1  0.69569400  0.37632500  0.85730400  1
  Nd  Nd5  1  0.69546400  0.63679500  0.28356600  1
  Nd  Nd6  1  0.28276800  0.00670700  0.57911000  1
  Nd  Nd7  1  0.30453600  0.36320500  0.71643400  1
  Nd  Nd8  1  0.69546400  0.86320500  0.71643400  1
  Nd  Nd9  1  0.30453600  0.13679500  0.28356600  1
  Nd  Nd10  1  0.71723200  0.99329300  0.42089000  1
  Nd  Nd11  1  0.69569400  0.12367500  0.14269600  1
  Nd  Nd12  1  0.28276800  0.49329300  0.42089000  1
  Nd  Nd13  1  0.30430600  0.62367500  0.14269600  1
  S  S0  1  0.44806700  0.61756200  0.78347500  1
  S  S1  1  0.46485300  0.92615300  0.07141400  1
  S  S2  1  0.55193300  0.38243800  0.21652500  1
  S  S3  1  0.46485300  0.57384700  0.92858600  1
  S  S4  1  0.53514700  0.42615300  0.07141400  1
  S  S5  1  0.44770700  0.81166000  0.35940000  1
  S  S6  1  0.55229300  0.18834000  0.64060000  1
  S  S7  1  0.53514700  0.07384700  0.92858600  1
  S  S8  1  0.55229300  0.31166000  0.35940000  1
  S  S9  1  0.55193300  0.11756200  0.78347500  1
  S  S10  1  0.44770700  0.68834000  0.64060000  1
  S  S11  1  0.44806700  0.88243800  0.21652500  1
  Cl  Cl0  1  0.93226800  0.73221800  0.81107000  1
  Cl  Cl1  1  0.06773200  0.26778200  0.18893000  1
  Cl  Cl2  1  0.89459100  0.62251200  0.44222500  1
  Cl  Cl3  1  0.08374300  0.03144300  0.68078300  1
  Cl  Cl4  1  0.08374300  0.46855700  0.31921700  1
  Cl  Cl5  1  0.95628500  0.43726000  0.94041300  1
  Cl  Cl6  1  0.55159800  0.25000000  0.50000000  1
  Cl  Cl7  1  0.10540900  0.37748800  0.55777500  1
  Cl  Cl8  1  0.04371500  0.56274000  0.05958700  1
  Cl  Cl9  1  0.89459100  0.87748800  0.55777500  1
  Cl  Cl10  1  0.91625700  0.53144300  0.68078300  1
  Cl  Cl11  1  0.44840200  0.75000000  0.50000000  1
  Cl  Cl12  1  0.10540900  0.12251200  0.44222500  1
  Cl  Cl13  1  0.91625700  0.96855700  0.31921700  1
  Cl  Cl14  1  0.95628500  0.06274000  0.05958700  1
  Cl  Cl15  1  0.93226800  0.76778200  0.18893000  1
  Cl  Cl16  1  0.04371500  0.93726000  0.94041300  1
  Cl  Cl17  1  0.06773200  0.23221800  0.81107000  1
loop_
_geom_bond_atom_site_label_1
_geom_bond_atom_site_label_2
_geom_bond_distance
_geom_bond_site_symmetry_2
Nd0 S1 2.820215 1_555
Nd0 S3 2.820215 1_554
Nd0 S4 2.928922 1_555
Nd0 S7 2.928922 1_564
Nd1 S3 2.782694 1_555
Nd1 S7 2.840561 1_565
Nd1 S9 2.849041 1_565
Nd1 S0 2.901610 1_555
Nd2 S6 2.757093 1_555
Nd2 S10 2.780529 1_555
Nd3 S4 2.820215 1_555
Nd3 S7 2.820215 1_554
Nd3 S1 2.928922 1_545
Nd3 S3 2.928922 1_554
Nd4 S7 2.782694 1_555
Nd4 S3 2.840561 1_555
Nd4 S0 2.849041 1_555
Nd4 S9 2.901610 1_555
Nd5 S2 2.762597 1_555
Nd5 S11 2.775344 1_555
Nd5 S5 2.896127 1_555
Nd5 S8 2.909334 1_555
Nd6 S10 2.757093 1_545
Nd6 S6 2.780529 1_555
Nd7 S0 2.762597 1_555
Nd7 S9 2.775344 1_555
Nd7 S6 2.896127 1_555
Nd7 S10 2.909334 1_555
Nd8 S9 2.762597 1_565
Nd8 S0 2.775344 1_555
Nd8 S10 2.896127 1_555
Nd8 S6 2.909334 1_565
Nd9 S11 2.762597 1_545
Nd9 S2 2.775344 1_555
Nd9 S8 2.896127 1_555
Nd9 S5 2.909334 1_545
Nd10 S8 2.757093 1_565
Nd10 S5 2.780529 1_555
Nd11 S4 2.782694 1_555
Nd11 S1 2.840561 1_545
Nd11 S11 2.849041 1_545
Nd11 S2 2.901610 1_555
Nd12 S5 2.757093 1_555
Nd12 S8 2.780529 1_555
Nd13 S1 2.782694 1_555
Nd13 S4 2.840561 1_555
Nd13 S2 2.849041 1_555
Nd13 S11 2.901610 1_555
Cl0 Nd8 2.868133 1_555
Cl0 Nd1 2.986143 1_655
Cl0 Nd4 3.050980 1_555
Cl1 Nd9 2.868133 1_555
Cl1 Nd11 2.986143 1_455
Cl1 Nd13 3.050980 1_555
Cl2 Nd12 2.841919 1_655
Cl2 Nd10 2.847595 1_555
Cl3 Nd6 2.862020 1_555
Cl3 Nd8 2.955819 1_445
Cl3 Nd7 2.992741 1_555
Cl4 Nd12 2.862020 1_555
Cl4 Nd5 2.955819 1_455
Cl4 Nd9 2.992741 1_555
Cl5 Nd4 2.770830 1_555
Cl5 Nd3 2.894591 1_656
Cl5 Nd0 3.249708 1_556
Cl6 Nd12 3.014108 1_555
Cl6 Nd6 3.014108 1_555
Cl6 Nd10 3.036222 1_545
Cl6 Nd2 3.036222 1_555
Cl7 Nd2 2.841919 1_455
Cl7 Nd6 2.847595 1_555
Cl8 Nd13 2.770830 1_555
Cl8 Nd0 2.894591 1_455
Cl8 Nd3 3.249708 1_555
Cl9 Nd6 2.841919 1_665
Cl9 Nd2 2.847595 1_555
Cl10 Nd2 2.862020 1_555
Cl10 Nd7 2.955819 1_655
Cl10 Nd8 2.992741 1_555
Cl11 Nd10 3.014108 1_555
Cl11 Nd2 3.014108 1_555
Cl11 Nd6 3.036222 1_565
Cl11 Nd12 3.036222 1_555
Cl12 Nd10 2.841919 1_445
Cl12 Nd12 2.847595 1_555
Cl13 Nd10 2.862020 1_555
Cl13 Nd9 2.955819 1_665
Cl13 Nd5 2.992741 1_555
Cl14 Nd11 2.770830 1_555
Cl14 Nd3 2.894591 1_655
Cl14 Nd0 3.249708 1_545
Cl15 Nd5 2.868133 1_555
Cl15 Nd13 2.986143 1_655
Cl15 Nd11 3.050980 1_565
Cl16 Nd1 2.770830 1_555
Cl16 Nd0 2.894591 1_456
Cl16 Nd3 3.249708 1_566
Cl17 Nd7 2.868133 1_555
Cl17 Nd4 2.986143 1_455
Cl17 Nd1 3.050980 1_545
