# generated using pymatgen
data_LiCaCrF6
_symmetry_space_group_name_H-M   'P 1'
_cell_length_a   5.19448254
_cell_length_b   5.19448254
_cell_length_c   9.91370100
_cell_angle_alpha   90.00000000
_cell_angle_beta   90.00000000
_cell_angle_gamma   120.00000693
_symmetry_Int_Tables_number   1
_chemical_formula_structural   LiCaCrF6
_chemical_formula_sum   'Li2 Ca2 Cr2 F12'
_cell_volume   231.65997229
_cell_formula_units_Z   2
loop_
 _symmetry_equiv_pos_site_id
 _symmetry_equiv_pos_as_xyz
  1  'x, y, z'
loop_
 _atom_site_type_symbol
 _atom_site_label
 _atom_site_symmetry_multiplicity
 _atom_site_fract_x
 _atom_site_fract_y
 _atom_site_fract_z
 _atom_site_occupancy
  Li  Li0  1  0.33333300  0.66666700  0.25000000  1
  Li  Li1  1  0.66666700  0.33333300  0.75000000  1
  Ca  Ca0  1  0.00000000  0.00000000  0.00000000  1
  Ca  Ca1  1  0.00000000  0.00000000  0.50000000  1
  Cr  Cr0  1  0.66666700  0.33333300  0.25000000  1
  Cr  Cr1  1  0.33333300  0.66666700  0.75000000  1
  F  F0  1  0.65365700  0.63744400  0.13973200  1
  F  F1  1  0.98378700  0.34634300  0.13973200  1
  F  F2  1  0.34634300  0.98378700  0.63973200  1
  F  F3  1  0.01621300  0.65365700  0.86026800  1
  F  F4  1  0.36255600  0.34634300  0.36026800  1
  F  F5  1  0.98378700  0.63744400  0.36026800  1
  F  F6  1  0.63744400  0.98378700  0.86026800  1
  F  F7  1  0.65365700  0.01621300  0.36026800  1
  F  F8  1  0.01621300  0.36255600  0.63973200  1
  F  F9  1  0.36255600  0.01621300  0.13973200  1
  F  F10  1  0.63744400  0.65365700  0.63973200  1
  F  F11  1  0.34634300  0.36255600  0.86026800  1
loop_
_geom_bond_atom_site_label_1
_geom_bond_atom_site_label_2
_geom_bond_distance
_geom_bond_site_symmetry_2
Ca0 F11 2.305259 1_554
Ca0 F0 2.305259 1_445
Ca0 F6 2.305259 1_444
Ca0 F9 2.305259 1_555
Ca0 F3 2.305259 1_544
Ca0 F1 2.305259 1_455
Ca1 F10 2.305259 1_445
Ca1 F4 2.305259 1_555
Ca1 F8 2.305259 1_555
Ca1 F5 2.305259 1_445
Ca1 F2 2.305259 1_545
Ca1 F7 2.305259 1_455
Cr0 F1 1.949811 1_555
Cr0 F7 1.949811 1_555
Cr0 F5 1.949813 1_555
Cr0 F9 1.949813 1_555
Cr0 F0 1.949816 1_555
Cr0 F4 1.949816 1_555
Cr1 F2 1.949811 1_555
Cr1 F3 1.949811 1_555
Cr1 F6 1.949813 1_555
Cr1 F8 1.949813 1_555
Cr1 F10 1.949816 1_555
Cr1 F11 1.949816 1_555
F0 Li0 2.058944 1_555
F1 Li0 2.058942 1_655
F2 Li1 2.058942 1_565
F3 Li1 2.058942 1_455
F4 Li0 2.058944 1_555
F5 Li0 2.058940 1_655
F6 Li1 2.058940 1_565
F7 Li0 2.058942 1_545
F8 Li1 2.058940 1_455
F9 Li0 2.058940 1_545
F10 Li1 2.058944 1_555
F11 Li1 2.058944 1_555
