# generated using pymatgen
data_Ce(NiP)2
_symmetry_space_group_name_H-M   'P 1'
_cell_length_a   3.93197206
_cell_length_b   3.93197275
_cell_length_c   5.43427827
_cell_angle_alpha   111.20925413
_cell_angle_beta   111.20926311
_cell_angle_gamma   89.99998638
_symmetry_Int_Tables_number   1
_chemical_formula_structural   Ce(NiP)2
_chemical_formula_sum   'Ce1 Ni2 P2'
_cell_volume   72.18730508
_cell_formula_units_Z   1
loop_
 _symmetry_equiv_pos_site_id
 _symmetry_equiv_pos_as_xyz
  1  'x, y, z'
loop_
 _atom_site_type_symbol
 _atom_site_label
 _atom_site_symmetry_multiplicity
 _atom_site_fract_x
 _atom_site_fract_y
 _atom_site_fract_z
 _atom_site_occupancy
  Ce  Ce0  1  -0.00000000  0.00000000  -0.00000000  1
  Ni  Ni0  1  0.75000000  0.25000000  0.50000000  1
  Ni  Ni1  1  0.25000000  0.75000000  0.50000000  1
  P  P0  1  0.37363579  0.37363579  0.74726959  1
  P  P1  1  0.62636421  0.62636421  0.25273041  1
loop_
_geom_bond_atom_site_label_1
_geom_bond_atom_site_label_2
_geom_bond_distance
_geom_bond_site_symmetry_2
Ce0 P1 3.020376 1_555
Ce0 P0 3.020376 1_444
Ce0 P0 3.020381 1_454
Ce0 P1 3.020381 1_545
Ce0 P0 3.020381 1_544
Ce0 P1 3.020381 1_455
Ce0 P1 3.020387 1_445
Ce0 P0 3.020387 1_554
Ce0 Ni0 3.052113 1_555
Ce0 Ni1 3.052113 1_444
Ce0 Ni0 3.052113 1_454
Ce0 Ni1 3.052113 1_545
Ce0 Ni0 3.052113 1_444
Ce0 Ni1 3.052113 1_555
Ce0 Ni1 3.052113 1_544
Ce0 Ni0 3.052113 1_455
Ni0 P0 2.279925 1_555
Ni0 P1 2.279925 1_555
Ni0 P0 2.279932 1_655
Ni0 P1 2.279932 1_545
Ni1 P1 2.279925 1_555
Ni1 P0 2.279925 1_555
Ni1 P1 2.279932 1_455
Ni1 P0 2.279932 1_565
P0 P1 2.360084 1_556
