# generated using pymatgen
data_MnSbRh
_symmetry_space_group_name_H-M   'P 1'
_cell_length_a   4.33379665
_cell_length_b   4.33379665
_cell_length_c   4.33379665
_cell_angle_alpha   60.00000000
_cell_angle_beta   60.00000000
_cell_angle_gamma   60.00000000
_symmetry_Int_Tables_number   1
_chemical_formula_structural   MnSbRh
_chemical_formula_sum   'Mn1 Sb1 Rh1'
_cell_volume   57.55599829
_cell_formula_units_Z   1
loop_
 _symmetry_equiv_pos_site_id
 _symmetry_equiv_pos_as_xyz
  1  'x, y, z'
loop_
 _atom_site_type_symbol
 _atom_site_label
 _atom_site_symmetry_multiplicity
 _atom_site_fract_x
 _atom_site_fract_y
 _atom_site_fract_z
 _atom_site_occupancy
  Mn  Mn0  1  0.00000000  0.00000000  0.00000000  1
  Sb  Sb0  1  0.75000000  0.75000000  0.75000000  1
  Rh  Rh0  1  0.50000000  0.50000000  0.50000000  1
loop_
_geom_bond_atom_site_label_1
_geom_bond_atom_site_label_2
_geom_bond_distance
_geom_bond_site_symmetry_2
Mn0 Sb0 2.653898 1_454
Mn0 Sb0 2.653898 1_444
Mn0 Sb0 2.653898 1_445
Mn0 Sb0 2.653898 1_544
Mn0 Rh0 3.064457 1_455
Mn0 Rh0 3.064457 1_545
Mn0 Rh0 3.064457 1_554
Mn0 Rh0 3.064457 1_445
Mn0 Rh0 3.064457 1_454
Mn0 Rh0 3.064457 1_544
Rh0 Sb0 2.653898 1_554
Rh0 Sb0 2.653898 1_455
Rh0 Sb0 2.653898 1_545
Rh0 Sb0 2.653898 1_555
