# generated using pymatgen
data_La20C20Cl13
_symmetry_space_group_name_H-M   'P 1'
_cell_length_a   6.94968457
_cell_length_b   7.82178727
_cell_length_c   43.17939703
_cell_angle_alpha   90.00000000
_cell_angle_beta   90.00000000
_cell_angle_gamma   104.23899752
_symmetry_Int_Tables_number   1
_chemical_formula_structural   La20C20Cl13
_chemical_formula_sum   'La40 C40 Cl26'
_cell_volume   2275.07697228
_cell_formula_units_Z   2
loop_
 _symmetry_equiv_pos_site_id
 _symmetry_equiv_pos_as_xyz
  1  'x, y, z'
loop_
 _atom_site_type_symbol
 _atom_site_label
 _atom_site_symmetry_multiplicity
 _atom_site_fract_x
 _atom_site_fract_y
 _atom_site_fract_z
 _atom_site_occupancy
  La  La0  1  0.39295030  0.85708856  0.77168143  1
  La  La1  1  0.36266787  0.83569630  0.17184767  1
  La  La2  1  0.89157054  0.70560864  0.92996078  1
  La  La3  1  0.87343563  0.91594139  0.42262566  1
  La  La4  1  0.11841586  0.22418874  0.48001927  1
  La  La5  1  0.88534057  0.78352666  0.82284622  1
  La  La6  1  0.37343563  0.91594139  0.07737434  1
  La  La7  1  0.10704970  0.14291144  0.27168143  1
  La  La8  1  0.12371726  0.15484359  0.97265562  1
  La  La9  1  0.63733213  0.16430370  0.82815233  1
  La  La10  1  0.13733213  0.16430370  0.67184767  1
  La  La11  1  0.12410088  0.23819013  0.78003896  1
  La  La12  1  0.62371726  0.15484359  0.52734438  1
  La  La13  1  0.11465943  0.21647334  0.17715378  1
  La  La14  1  0.37628274  0.84515641  0.47265562  1
  La  La15  1  0.39157054  0.70560864  0.57003922  1
  La  La16  1  0.60704970  0.14291144  0.22831857  1
  La  La17  1  0.38158414  0.77581126  0.98001927  1
  La  La18  1  0.60842946  0.29439136  0.42996078  1
  La  La19  1  0.88158414  0.77581126  0.51998073  1
  La  La20  1  0.89295030  0.85708856  0.72831857  1
  La  La21  1  0.38534057  0.78352666  0.67715378  1
  La  La22  1  0.60059517  0.29150249  0.13023316  1
  La  La23  1  0.39940483  0.70849751  0.86976684  1
  La  La24  1  0.62656437  0.08405861  0.92262566  1
  La  La25  1  0.12789398  0.08998924  0.87896965  1
  La  La26  1  0.89940483  0.70849751  0.63023316  1
  La  La27  1  0.87210602  0.91001076  0.12103035  1
  La  La28  1  0.87589912  0.76180987  0.21996104  1
  La  La29  1  0.61465943  0.21647334  0.32284622  1
  La  La30  1  0.37210602  0.91001076  0.37896965  1
  La  La31  1  0.10059517  0.29150249  0.36976684  1
  La  La32  1  0.62410088  0.23819013  0.71996104  1
  La  La33  1  0.12656437  0.08405861  0.57737434  1
  La  La34  1  0.87628274  0.84515641  0.02734438  1
  La  La35  1  0.62789398  0.08998924  0.62103035  1
  La  La36  1  0.61841586  0.22418874  0.01998073  1
  La  La37  1  0.10842946  0.29439136  0.07003922  1
  La  La38  1  0.86266787  0.83569630  0.32815233  1
  La  La39  1  0.37589912  0.76180987  0.28003896  1
  C  C0  1  0.71968681  0.02036837  0.98490338  1
  C  C1  1  0.71278738  0.01974435  0.28553590  1
  C  C2  1  0.21715319  0.14137698  0.11324016  1
  C  C3  1  0.76157170  0.91242919  0.26365123  1
  C  C4  1  0.21968681  0.02036837  0.51509662  1
  C  C5  1  0.26900894  0.04304128  0.43615070  1
  C  C6  1  0.26741261  0.96681892  0.31622981  1
  C  C7  1  0.21776548  0.14637365  0.41403424  1
  C  C8  1  0.78031319  0.97963163  0.48490338  1
  C  C9  1  0.23842830  0.08757081  0.73634877  1
  C  C10  1  0.23552787  0.96778252  0.63501817  1
  C  C11  1  0.78284681  0.85862302  0.88675984  1
  C  C12  1  0.73842830  0.08757081  0.76365123  1
  C  C13  1  0.28284681  0.85862302  0.61324016  1
  C  C14  1  0.72030793  0.09402905  0.46580544  1
  C  C15  1  0.28721262  0.98025565  0.71446410  1
  C  C16  1  0.26157170  0.91242919  0.23634877  1
  C  C17  1  0.28967527  0.91582728  0.83433173  1
  C  C18  1  0.71715319  0.14137698  0.38675984  1
  C  C19  1  0.73552787  0.96778252  0.86498183  1
  C  C20  1  0.76900894  0.04304128  0.06384930  1
  C  C21  1  0.28223452  0.85362635  0.91403424  1
  C  C22  1  0.77969207  0.90597095  0.96580544  1
  C  C23  1  0.23258739  0.03318108  0.81622981  1
  C  C24  1  0.22030793  0.09402905  0.03419456  1
  C  C25  1  0.78223452  0.85362635  0.58596576  1
  C  C26  1  0.28031319  0.97963163  0.01509662  1
  C  C27  1  0.73258739  0.03318108  0.68377019  1
  C  C28  1  0.71032473  0.08417272  0.16566827  1
  C  C29  1  0.27969207  0.90597095  0.53419456  1
  C  C30  1  0.21278738  0.01974435  0.21446410  1
  C  C31  1  0.21032473  0.08417272  0.33433173  1
  C  C32  1  0.26447213  0.03221748  0.13501817  1
  C  C33  1  0.73099106  0.95695872  0.56384930  1
  C  C34  1  0.76447213  0.03221748  0.36498183  1
  C  C35  1  0.78721262  0.98025565  0.78553590  1
  C  C36  1  0.71776548  0.14637365  0.08596576  1
  C  C37  1  0.78967527  0.91582728  0.66566827  1
  C  C38  1  0.23099106  0.95695872  0.93615070  1
  C  C39  1  0.76741261  0.96681892  0.18377019  1
  Cl  Cl0  1  -0.00008393  0.47670539  0.30828910  1
  Cl  Cl1  1  0.97631799  0.64231149  0.07947862  1
  Cl  Cl2  1  1.00008393  0.52329461  0.69171090  1
  Cl  Cl3  1  0.47631799  0.64231149  0.42052138  1
  Cl  Cl4  1  0.47729778  0.58530534  0.03809687  1
  Cl  Cl5  1  0.99597288  0.59019426  0.76914710  1
  Cl  Cl6  1  0.50008393  0.52329461  0.80828910  1
  Cl  Cl7  1  0.02368201  0.35768851  0.92052138  1
  Cl  Cl8  1  0.47636834  0.57803754  0.34262936  1
  Cl  Cl9  1  0.02270222  0.41469466  0.53809687  1
  Cl  Cl10  1  0.00000000  0.50000000  0.00000000  1
  Cl  Cl11  1  0.47384346  0.64214987  0.11738347  1
  Cl  Cl12  1  0.02363166  0.42196246  0.84262936  1
  Cl  Cl13  1  0.52615654  0.35785013  0.88261653  1
  Cl  Cl14  1  0.52368201  0.35768851  0.57947862  1
  Cl  Cl15  1  0.49597288  0.59019426  0.73085290  1
  Cl  Cl16  1  0.52270222  0.41469466  0.96190313  1
  Cl  Cl17  1  0.97636834  0.57803754  0.15737064  1
  Cl  Cl18  1  0.00402712  0.40980574  0.23085290  1
  Cl  Cl19  1  0.49991607  0.47670539  0.19171090  1
  Cl  Cl20  1  0.50402712  0.40980574  0.26914710  1
  Cl  Cl21  1  0.52363166  0.42196246  0.65737064  1
  Cl  Cl22  1  0.02615654  0.35785013  0.61738347  1
  Cl  Cl23  1  0.50000000  0.50000000  0.50000000  1
  Cl  Cl24  1  0.97384346  0.64214987  0.38261653  1
  Cl  Cl25  1  0.97729778  0.58530534  0.46190313  1
loop_
_geom_bond_atom_site_label_1
_geom_bond_atom_site_label_2
_geom_bond_distance
_geom_bond_site_symmetry_2
C0 C22 1.355783 1_545
C0 La36 2.425483 1_556
C0 La17 2.648318 1_545
C0 La34 2.674811 1_546
C0 La8 2.795954 1_655
C0 La24 2.838475 1_555
C1 C3 1.361062 1_545
C1 La29 2.438145 1_555
C1 La38 2.698369 1_545
C1 La39 2.698990 1_545
C1 La7 2.737706 1_655
C1 La16 2.814299 1_555
C2 C32 1.363657 1_555
C2 La37 2.434732 1_555
C2 La27 2.646434 1_445
C2 La22 2.734790 1_555
C2 La6 2.762136 1_545
C2 La13 2.945241 1_555
C3 La28 2.457369 1_555
C3 La7 2.646806 1_665
C3 La39 2.742135 1_555
C3 La16 2.771859 1_565
C3 La38 2.969542 1_555
C4 La4 2.425483 1_555
C4 La19 2.648318 1_445
C4 La14 2.674811 1_545
C4 La12 2.795954 1_555
C4 La33 2.838475 1_555
C5 C7 1.354126 1_555
C5 La14 2.450261 1_545
C5 La18 2.686912 1_555
C5 La4 2.724052 1_555
C5 La3 2.746366 1_445
C5 La30 2.838839 1_545
C6 La39 2.485264 1_555
C6 La29 2.720369 1_565
C6 La7 2.755798 1_565
C6 La38 2.794610 1_455
C6 La30 2.867911 1_555
C7 La31 2.461709 1_555
C7 La3 2.644022 1_445
C7 La18 2.763733 1_555
C7 La30 2.799361 1_545
C7 La4 3.028501 1_555
C8 La19 2.425483 1_555
C8 La4 2.648318 1_665
C8 La12 2.674811 1_565
C8 La14 2.795954 1_555
C8 La3 2.838475 1_555
C9 La11 2.457369 1_555
C9 La20 2.646806 1_445
C9 La32 2.742135 1_555
C9 La0 2.771859 1_545
C9 La10 2.969542 1_555
C10 C13 1.363657 1_555
C10 La10 2.423539 1_565
C10 La21 2.685036 1_555
C10 La26 2.698499 1_455
C10 La35 2.726136 1_565
C10 La33 2.816854 1_565
C11 C19 1.363657 1_555
C11 La2 2.434732 1_555
C11 La25 2.646434 1_665
C11 La23 2.734790 1_555
C11 La24 2.762136 1_565
C11 La5 2.945241 1_555
C12 C35 1.361062 1_545
C12 La32 2.457369 1_555
C12 La0 2.646806 1_545
C12 La11 2.742135 1_655
C12 La20 2.771859 1_545
C12 La9 2.969542 1_555
C13 La15 2.434732 1_555
C13 La35 2.646434 1_565
C13 La26 2.734790 1_455
C13 La33 2.762136 1_565
C13 La21 2.945241 1_555
C14 C8 1.355783 1_545
C14 La18 2.460811 1_555
C14 La3 2.697842 1_545
C14 La14 2.702512 1_545
C14 La4 2.771693 1_655
C14 La12 2.809759 1_555
C15 C9 1.361062 1_565
C15 La21 2.438145 1_555
C15 La10 2.698369 1_565
C15 La32 2.698990 1_565
C15 La20 2.737706 1_455
C15 La0 2.814299 1_555
C16 C30 1.361062 1_565
C16 La39 2.457369 1_555
C16 La16 2.646806 1_565
C16 La28 2.742135 1_455
C16 La7 2.771859 1_565
C16 La1 2.969542 1_555
C17 C23 1.337936 1_565
C17 La23 2.482112 1_555
C17 La9 2.715890 1_565
C17 La25 2.754694 1_565
C17 La5 2.789702 1_455
C17 La0 2.864709 1_555
C18 C34 1.363657 1_555
C18 La18 2.434732 1_555
C18 La30 2.646434 1_545
C18 La31 2.734790 1_655
C18 La3 2.762136 1_545
C18 La29 2.945241 1_555
C19 La9 2.423539 1_565
C19 La5 2.685036 1_555
C19 La23 2.698499 1_555
C19 La25 2.726136 1_665
C19 La24 2.816854 1_565
C20 C36 1.354126 1_555
C20 La34 2.450261 1_545
C20 La37 2.686912 1_655
C20 La36 2.724052 1_555
C20 La6 2.746366 1_545
C20 La27 2.838839 1_545
C21 C38 1.354126 1_555
C21 La23 2.461709 1_555
C21 La24 2.644022 1_565
C21 La2 2.763733 1_455
C21 La25 2.799361 1_565
C21 La17 3.028501 1_555
C22 La2 2.460811 1_555
C22 La24 2.697842 1_565
C22 La8 2.702512 1_665
C22 La17 2.771693 1_555
C22 La34 2.809759 1_556
C23 La11 2.485264 1_555
C23 La5 2.720369 1_445
C23 La0 2.755798 1_545
C23 La9 2.794610 1_555
C23 La25 2.867911 1_555
C24 C26 1.355783 1_545
C24 La37 2.460811 1_555
C24 La6 2.697842 1_545
C24 La34 2.702512 1_445
C24 La36 2.771693 1_555
C24 La8 2.809759 1_554
C25 C33 1.354126 1_555
C25 La26 2.461709 1_555
C25 La33 2.644022 1_665
C25 La15 2.763733 1_555
C25 La35 2.799361 1_565
C25 La19 3.028501 1_555
C26 La17 2.425483 1_554
C26 La36 2.648318 1_565
C26 La8 2.674811 1_564
C26 La34 2.795954 1_455
C26 La6 2.838475 1_555
C27 C37 1.337936 1_545
C27 La32 2.485264 1_555
C27 La21 2.720369 1_545
C27 La20 2.755798 1_545
C27 La10 2.794610 1_655
C27 La35 2.867911 1_555
C28 C39 1.337936 1_545
C28 La22 2.482112 1_555
C28 La1 2.715890 1_545
C28 La27 2.754694 1_545
C28 La13 2.789702 1_655
C28 La16 2.864709 1_555
C29 C4 1.355783 1_565
C29 La15 2.460811 1_555
C29 La33 2.697842 1_565
C29 La12 2.702512 1_565
C29 La19 2.771693 1_455
C29 La14 2.809759 1_555
C30 La13 2.438145 1_555
C30 La1 2.698369 1_545
C30 La28 2.698990 1_445
C30 La16 2.737706 1_555
C30 La7 2.814299 1_555
C31 C6 1.337936 1_545
C31 La31 2.482112 1_555
C31 La38 2.715890 1_445
C31 La30 2.754694 1_545
C31 La29 2.789702 1_555
C31 La7 2.864709 1_555
C32 La1 2.423539 1_545
C32 La13 2.685036 1_555
C32 La22 2.698499 1_555
C32 La27 2.726136 1_445
C32 La6 2.816854 1_545
C33 La12 2.450261 1_565
C33 La15 2.686912 1_555
C33 La19 2.724052 1_555
C33 La33 2.746366 1_665
C33 La35 2.838839 1_565
C34 La38 2.423539 1_545
C34 La29 2.685036 1_555
C34 La31 2.698499 1_655
C34 La30 2.726136 1_545
C34 La3 2.816854 1_545
C35 La5 2.438145 1_555
C35 La9 2.698369 1_565
C35 La11 2.698990 1_665
C35 La0 2.737706 1_555
C35 La20 2.814299 1_555
C36 La22 2.461709 1_555
C36 La6 2.644022 1_545
C36 La37 2.763733 1_655
C36 La27 2.799361 1_545
C36 La36 3.028501 1_555
C37 La26 2.482112 1_555
C37 La10 2.715890 1_665
C37 La35 2.754694 1_565
C37 La21 2.789702 1_555
C37 La20 2.864709 1_555
C38 La8 2.450261 1_565
C38 La2 2.686912 1_455
C38 La17 2.724052 1_555
C38 La24 2.746366 1_565
C38 La25 2.838839 1_565
C39 La28 2.485264 1_555
C39 La13 2.720369 1_665
C39 La16 2.755798 1_565
C39 La1 2.794610 1_555
C39 La27 2.867911 1_555
Cl0 La29 3.004307 1_455
Cl0 La31 3.183304 1_555
Cl0 La39 3.228324 1_555
Cl0 La7 3.290265 1_555
Cl0 La38 3.293562 1_455
Cl1 La34 2.934423 1_555
Cl1 La27 2.978921 1_555
Cl1 La6 3.049589 1_655
Cl1 La37 3.105481 1_655
Cl2 La21 3.004307 1_655
Cl2 La26 3.183304 1_555
Cl2 La32 3.228324 1_555
Cl2 La20 3.290265 1_555
Cl2 La10 3.293562 1_655
Cl3 La14 2.934423 1_555
Cl3 La30 2.978921 1_555
Cl3 La3 3.049589 1_555
Cl3 La18 3.105481 1_555
Cl4 La34 3.043472 1_555
Cl4 La17 3.072342 1_554
Cl4 La37 3.283620 1_555
Cl4 La36 3.303739 1_555
Cl4 La6 3.317213 1_555
Cl5 La20 2.951936 1_555
Cl5 La5 2.970895 1_555
Cl5 La0 3.024586 1_655
Cl5 La11 3.130626 1_655
Cl6 La5 3.004307 1_555
Cl6 La23 3.183304 1_555
Cl6 La11 3.228324 1_555
Cl6 La0 3.290265 1_555
Cl6 La9 3.293562 1_555
Cl7 La8 2.934423 1_555
Cl7 La25 2.978921 1_555
Cl7 La24 3.049589 1_455
Cl7 La2 3.105481 1_455
Cl8 La38 2.999696 1_555
Cl8 La31 3.215091 1_555
Cl8 La39 3.217388 1_555
Cl8 La30 3.264245 1_555
Cl8 La29 3.314888 1_555
Cl9 La12 3.043472 1_455
Cl9 La4 3.072342 1_555
Cl9 La15 3.283620 1_555
Cl9 La19 3.303739 1_455
Cl9 La33 3.317213 1_555
Cl10 La36 3.101065 1_455
Cl10 La17 3.101065 1_554
Cl10 La8 3.250203 1_554
Cl10 La34 3.250203 1_455
Cl10 La2 3.591169 1_454
Cl10 La37 3.591169 1_555
Cl11 La6 2.965257 1_555
Cl11 La1 2.999140 1_555
Cl11 La27 3.036850 1_555
Cl11 La22 3.129642 1_555
Cl12 La9 2.999696 1_455
Cl12 La23 3.215091 1_555
Cl12 La11 3.217388 1_555
Cl12 La25 3.264245 1_555
Cl12 La5 3.314888 1_455
Cl13 La24 2.965257 1_555
Cl13 La9 2.999140 1_555
Cl13 La25 3.036850 1_555
Cl13 La23 3.129642 1_555
Cl14 La12 2.934423 1_555
Cl14 La35 2.978921 1_555
Cl14 La33 3.049589 1_555
Cl14 La15 3.105481 1_555
Cl15 La0 2.951936 1_555
Cl15 La21 2.970895 1_555
Cl15 La20 3.024586 1_555
Cl15 La32 3.130626 1_555
Cl16 La8 3.043472 1_555
Cl16 La36 3.072342 1_556
Cl16 La2 3.283620 1_555
Cl16 La17 3.303739 1_555
Cl16 La24 3.317213 1_555
Cl17 La1 2.999696 1_655
Cl17 La22 3.215091 1_555
Cl17 La28 3.217388 1_555
Cl17 La27 3.264245 1_555
Cl17 La13 3.314888 1_655
Cl18 La7 2.951936 1_555
Cl18 La13 2.970895 1_555
Cl18 La16 3.024586 1_455
Cl18 La28 3.130626 1_455
Cl19 La13 3.004307 1_555
Cl19 La22 3.183304 1_555
Cl19 La28 3.228324 1_555
Cl19 La16 3.290265 1_555
Cl19 La1 3.293562 1_555
Cl20 La16 2.951936 1_555
Cl20 La29 2.970895 1_555
Cl20 La7 3.024586 1_555
Cl20 La39 3.130626 1_555
Cl21 La10 2.999696 1_555
Cl21 La26 3.215091 1_555
Cl21 La32 3.217388 1_555
Cl21 La35 3.264245 1_555
Cl21 La21 3.314888 1_555
Cl22 La33 2.965257 1_555
Cl22 La10 2.999140 1_555
Cl22 La35 3.036850 1_455
Cl22 La26 3.129642 1_455
Cl23 La4 3.101065 1_555
Cl23 La19 3.101065 1_555
Cl23 La14 3.250203 1_555
Cl23 La12 3.250203 1_555
Cl23 La15 3.591169 1_555
Cl23 La18 3.591169 1_555
Cl24 La3 2.965257 1_555
Cl24 La38 2.999140 1_555
Cl24 La30 3.036850 1_655
Cl24 La31 3.129642 1_655
Cl25 La14 3.043472 1_655
Cl25 La19 3.072342 1_555
Cl25 La18 3.283620 1_555
Cl25 La4 3.303739 1_655
Cl25 La3 3.317213 1_555
