# generated using pymatgen
data_TeOF2
_symmetry_space_group_name_H-M   'P 1'
_cell_length_a   5.27117916
_cell_length_b   5.56567584
_cell_length_c   8.21176812
_cell_angle_alpha   90.00000000
_cell_angle_beta   90.00000000
_cell_angle_gamma   97.31544831
_symmetry_Int_Tables_number   1
_chemical_formula_structural   TeOF2
_chemical_formula_sum   'Te4 O4 F8'
_cell_volume   238.95317430
_cell_formula_units_Z   4
loop_
 _symmetry_equiv_pos_site_id
 _symmetry_equiv_pos_as_xyz
  1  'x, y, z'
loop_
 _atom_site_type_symbol
 _atom_site_label
 _atom_site_symmetry_multiplicity
 _atom_site_fract_x
 _atom_site_fract_y
 _atom_site_fract_z
 _atom_site_occupancy
  Te  Te0  1  0.51688175  0.35378463  0.14461342  1
  Te  Te1  1  0.11966488  0.95465996  0.90938756  1
  Te  Te2  1  0.48311825  0.64621537  0.64461342  1
  Te  Te3  1  0.88033512  0.04534004  0.40938756  1
  O  O0  1  0.69579394  0.94789972  0.60440704  1
  O  O1  1  0.38605755  0.76041679  0.85223993  1
  O  O2  1  0.30420606  0.05210028  0.10440704  1
  O  O3  1  0.61394245  0.23958321  0.35223993  1
  F  F0  1  0.64281990  0.74229352  0.32818986  1
  F  F1  1  0.35718010  0.25770648  0.82818986  1
  F  F2  1  0.98962361  0.69302034  0.05322108  1
  F  F3  1  0.77973808  0.57421903  0.76776325  1
  F  F4  1  0.01037639  0.30697966  0.55322108  1
  F  F5  1  0.19392200  0.83770072  0.56867786  1
  F  F6  1  0.22026192  0.42578097  0.26776325  1
  F  F7  1  0.80607800  0.16229928  0.06867786  1
loop_
_geom_bond_atom_site_label_1
_geom_bond_atom_site_label_2
_geom_bond_distance
_geom_bond_site_symmetry_2
O0 Te3 1.915898 1_565
O0 Te2 1.925021 1_555
O1 Te2 1.911944 1_555
O1 Te1 1.935815 1_555
O2 Te1 1.915898 1_544
O2 Te0 1.925021 1_555
O3 Te0 1.911944 1_555
O3 Te3 1.935815 1_555
F0 Te3 2.078247 1_565
F1 Te1 2.078247 1_545
F2 Te1 1.931645 1_654
F3 Te2 1.946137 1_555
F4 Te3 1.931645 1_455
F5 Te2 2.064508 1_555
F5 Te3 2.503065 1_465
F6 Te0 1.946137 1_555
F7 Te0 2.064508 1_555
F7 Te1 2.503065 1_644
