# generated using pymatgen
data_Eu(MgSb)2
_symmetry_space_group_name_H-M   'P 1'
_cell_length_a   4.70728023
_cell_length_b   4.70728005
_cell_length_c   7.71639839
_cell_angle_alpha   90.00000000
_cell_angle_beta   90.00000000
_cell_angle_gamma   120.00000118
_symmetry_Int_Tables_number   1
_chemical_formula_structural   Eu(MgSb)2
_chemical_formula_sum   'Eu1 Mg2 Sb2'
_cell_volume   148.07623321
_cell_formula_units_Z   1
loop_
 _symmetry_equiv_pos_site_id
 _symmetry_equiv_pos_as_xyz
  1  'x, y, z'
loop_
 _atom_site_type_symbol
 _atom_site_label
 _atom_site_symmetry_multiplicity
 _atom_site_fract_x
 _atom_site_fract_y
 _atom_site_fract_z
 _atom_site_occupancy
  Eu  Eu0  1  -0.00000000  0.00000000  0.00000000  1
  Mg  Mg0  1  0.66666700  0.33333300  0.36914460  1
  Mg  Mg1  1  0.33333300  0.66666700  0.63085540  1
  Sb  Sb0  1  0.33333300  0.66666700  0.25300207  1
  Sb  Sb1  1  0.66666700  0.33333300  0.74699793  1
loop_
_geom_bond_atom_site_label_1
_geom_bond_atom_site_label_2
_geom_bond_distance
_geom_bond_site_symmetry_2
Eu0 Sb1 3.346264 1_454
Eu0 Sb0 3.346264 1_545
Eu0 Sb1 3.346268 1_444
Eu0 Sb0 3.346268 1_555
Eu0 Sb1 3.346268 1_554
Eu0 Sb0 3.346268 1_445
Mg0 Sb0 2.861700 1_545
Mg0 Sb0 2.861700 1_655
Mg0 Sb0 2.861708 1_555
Mg0 Sb1 2.915667 1_555
Mg1 Sb1 2.861700 1_565
Mg1 Sb1 2.861700 1_455
Mg1 Sb1 2.861708 1_555
Mg1 Sb0 2.915667 1_555
