# generated using pymatgen
data_Na2Be(GeO3)2
_symmetry_space_group_name_H-M   'P 1'
_cell_length_a   15.19616213
_cell_length_b   11.32824772
_cell_length_c   11.30759178
_cell_angle_alpha   84.33984388
_cell_angle_beta   47.88780041
_cell_angle_gamma   47.77235571
_symmetry_Int_Tables_number   1
_chemical_formula_structural   Na2Be(GeO3)2
_chemical_formula_sum   'Na12 Be6 Ge12 O36'
_cell_volume   820.79169789
_cell_formula_units_Z   6
loop_
 _symmetry_equiv_pos_site_id
 _symmetry_equiv_pos_as_xyz
  1  'x, y, z'
loop_
 _atom_site_type_symbol
 _atom_site_label
 _atom_site_symmetry_multiplicity
 _atom_site_fract_x
 _atom_site_fract_y
 _atom_site_fract_z
 _atom_site_occupancy
  Na  Na0  1  0.75804864  0.75804864  0.24195136  1
  Na  Na1  1  0.00804864  0.00804864  0.49195136  1
  Na  Na2  1  0.39156442  0.39156442  0.60843558  1
  Na  Na3  1  0.64156442  0.64156442  0.85843558  1
  Na  Na4  1  0.11608130  0.43551673  0.53960047  1
  Na  Na5  1  0.43551673  0.11608130  0.90880150  1
  Na  Na6  1  0.71039953  0.34119850  0.13391870  1
  Na  Na7  1  0.34119850  0.71039953  0.81448327  1
  Na  Na8  1  0.77160511  0.05713426  0.91237588  1
  Na  Na9  1  0.05713426  0.77160511  0.25888575  1
  Na  Na10  1  0.33762412  0.99111425  0.47839489  1
  Na  Na11  1  0.99111425  0.33762412  0.19286574  1
  Be  Be0  1  0.91910896  0.22505282  0.74344377  1
  Be  Be1  1  0.22505282  0.91910896  0.11239444  1
  Be  Be2  1  0.50655623  0.13760556  0.33089104  1
  Be  Be3  1  0.13760556  0.50655623  0.02494718  1
  Be  Be4  1  0.61630941  0.61630941  0.38369059  1
  Be  Be5  1  0.86630941  0.86630941  0.63369059  1
  Ge  Ge0  1  0.25024982  0.25024982  0.74975018  1
  Ge  Ge1  1  0.50024982  0.50024982  0.99975018  1
  Ge  Ge2  1  0.90401793  0.90401793  0.09598207  1
  Ge  Ge3  1  0.15401793  0.15401793  0.34598207  1
  Ge  Ge4  1  0.28661295  0.55708064  0.41596443  1
  Ge  Ge5  1  0.55708064  0.28661295  0.74034198  1
  Ge  Ge6  1  0.83403557  0.50965802  0.96338705  1
  Ge  Ge7  1  0.50965802  0.83403557  0.69291936  1
  Ge  Ge8  1  0.58444777  0.94159450  0.04570183  1
  Ge  Ge9  1  0.94159450  0.58444777  0.42825590  1
  Ge  Ge10  1  0.20429817  0.82174410  0.66555223  1
  Ge  Ge11  1  0.82174410  0.20429817  0.30840550  1
  O  O0  1  0.14596266  0.76154967  0.83676029  1
  O  O1  1  0.76154967  0.14596266  0.25572738  1
  O  O2  1  0.41323971  0.99427262  0.10403734  1
  O  O3  1  0.99427262  0.41323971  0.48845033  1
  O  O4  1  0.32721086  0.38782618  0.46163935  1
  O  O5  1  0.38782618  0.32721086  0.82332361  1
  O  O6  1  0.78836065  0.42667639  0.92278914  1
  O  O7  1  0.42667639  0.78836065  0.86217382  1
  O  O8  1  0.48684175  0.41241285  0.14355253  1
  O  O9  1  0.41241285  0.48684175  0.95719187  1
  O  O10  1  0.10644747  0.29280813  0.76315825  1
  O  O11  1  0.29280813  0.10644747  0.83758715  1
  O  O12  1  0.80089965  0.66722510  0.88952014  1
  O  O13  1  0.66722510  0.80089965  0.64235412  1
  O  O14  1  0.36047986  0.60764588  0.44910035  1
  O  O15  1  0.60764588  0.36047986  0.58277490  1
  O  O16  1  0.66030622  0.99563425  0.88213865  1
  O  O17  1  0.99563425  0.66030622  0.46191988  1
  O  O18  1  0.36786135  0.78808012  0.58969378  1
  O  O19  1  0.78808012  0.36786135  0.25436575  1
  O  O20  1  0.13497014  0.09093657  0.50034328  1
  O  O21  1  0.09093657  0.13497014  0.27375001  1
  O  O22  1  0.74965672  0.97624999  0.11502986  1
  O  O23  1  0.97624999  0.74965672  0.15906343  1
  O  O24  1  0.97101570  0.06350709  0.79500528  1
  O  O25  1  0.06350709  0.97101570  0.17047194  1
  O  O26  1  0.45499472  0.07952806  0.27898430  1
  O  O27  1  0.07952806  0.45499472  0.18649191  1
  O  O28  1  0.48054023  0.10211545  0.49095329  1
  O  O29  1  0.10211545  0.48054023  0.92639103  1
  O  O30  1  0.75904671  0.32360897  0.76945977  1
  O  O31  1  0.32360897  0.75904671  0.14788455  1
  O  O32  1  0.67688600  0.65253136  0.21295245  1
  O  O33  1  0.65253136  0.67688600  0.45763019  1
  O  O34  1  0.03704755  0.79236981  0.57311400  1
  O  O35  1  0.79236981  0.03704755  0.59746864  1
loop_
_geom_bond_atom_site_label_1
_geom_bond_atom_site_label_2
_geom_bond_distance
_geom_bond_site_symmetry_2
Na0 O28 2.247185 1_565
Na0 O29 2.247185 1_654
Na0 O33 2.378839 1_555
Na0 O32 2.378839 1_555
Na0 O23 2.703325 1_555
Na0 O22 2.703325 1_555
Na1 O31 2.247185 1_545
Na1 O30 2.247185 1_455
Na1 O35 2.378839 1_455
Na1 O34 2.378839 1_545
Na1 O20 2.703325 1_555
Na1 O21 2.703325 1_555
Na2 O4 2.441323 1_555
Na2 O5 2.441323 1_555
Na2 O0 2.519307 1_555
Na2 O1 2.519307 1_555
Na2 O29 2.614467 1_555
Na2 O28 2.614467 1_555
Na2 O14 2.859782 1_555
Na2 O15 2.859790 1_555
Na3 O6 2.441323 1_555
Na3 O7 2.441323 1_555
Na3 O3 2.519307 1_555
Na3 O2 2.519307 1_556
Na3 O30 2.614467 1_555
Na3 O31 2.614467 1_556
Na3 O12 2.859775 1_555
Na3 O13 2.859782 1_555
Na4 O12 2.284529 1_455
Na4 O4 2.309414 1_555
Na4 O26 2.354464 1_555
Na4 O3 2.432498 1_455
Na4 O17 2.460944 1_455
Na4 O10 2.835647 1_555
Na5 O13 2.284534 1_545
Na5 O5 2.309414 1_555
Na5 O27 2.354465 1_556
Na5 O2 2.432498 1_546
Na5 O16 2.460935 1_545
Na5 O11 2.835638 1_555
Na6 O14 2.284528 1_555
Na6 O6 2.309414 1_554
Na6 O24 2.354464 1_554
Na6 O1 2.432498 1_555
Na6 O19 2.460949 1_555
Na6 O8 2.835653 1_555
Na7 O15 2.284527 1_555
Na7 O7 2.309414 1_555
Na7 O25 2.354464 1_556
Na7 O0 2.432498 1_555
Na7 O18 2.460939 1_555
Na7 O9 2.835644 1_555
Na8 O22 2.274526 1_546
Na8 O34 2.288528 1_645
Na8 O8 2.291568 1_556
Na8 O24 2.414650 1_555
Na8 O16 2.422648 1_545
Na9 O23 2.274536 1_455
Na9 O35 2.288521 1_465
Na9 O9 2.291569 1_554
Na9 O25 2.414654 1_555
Na9 O17 2.422634 1_455
Na10 O20 2.274522 1_565
Na10 O32 2.288524 1_555
Na10 O10 2.291582 1_565
Na10 O26 2.414660 1_565
Na10 O18 2.422631 1_555
Na11 O21 2.274530 1_655
Na11 O33 2.288524 1_555
Na11 O11 2.291570 1_654
Na11 O27 2.414660 1_655
Na11 O19 2.422618 1_555
Be0 O20 1.629812 1_655
Be0 O6 1.639186 1_555
Be0 O30 1.644442 1_555
Be0 O24 1.666481 1_555
Be1 O21 1.629812 1_565
Be1 O7 1.639186 1_554
Be1 O31 1.644442 1_555
Be1 O25 1.666481 1_555
Be2 O22 1.629812 1_545
Be2 O4 1.639186 1_555
Be2 O28 1.644442 1_555
Be2 O26 1.666481 1_555
Be3 O23 1.629812 1_455
Be3 O5 1.639186 1_554
Be3 O29 1.644442 1_554
Be3 O27 1.666473 1_555
Be4 O18 1.640370 1_555
Be4 O19 1.640370 1_555
Be4 O32 1.646517 1_555
Be4 O33 1.646517 1_555
Be5 O16 1.640372 1_555
Be5 O17 1.640378 1_555
Be5 O34 1.646517 1_655
Be5 O35 1.646517 1_565
Ge0 O29 1.722381 1_555
Ge0 O28 1.722381 1_555
Ge0 O10 1.784565 1_555
Ge0 O11 1.784573 1_555
Ge1 O30 1.722381 1_555
Ge1 O31 1.722381 1_556
Ge1 O8 1.784571 1_556
Ge1 O9 1.784580 1_555
Ge2 O22 1.730735 1_555
Ge2 O23 1.730735 1_555
Ge2 O1 1.793818 1_565
Ge2 O0 1.793818 1_654
Ge3 O20 1.730735 1_555
Ge3 O21 1.730735 1_555
Ge3 O2 1.793818 1_545
Ge3 O3 1.793818 1_455
Ge4 O34 1.718547 1_555
Ge4 O4 1.722101 1_555
Ge4 O8 1.776301 1_555
Ge4 O14 1.788625 1_555
Ge5 O35 1.718547 1_555
Ge5 O5 1.722101 1_555
Ge5 O9 1.776294 1_555
Ge5 O15 1.788617 1_555
Ge6 O32 1.718547 1_556
Ge6 O6 1.722101 1_555
Ge6 O10 1.776302 1_655
Ge6 O12 1.788616 1_555
Ge7 O33 1.718547 1_555
Ge7 O7 1.722101 1_555
Ge7 O11 1.776300 1_565
Ge7 O13 1.788610 1_555
Ge8 O16 1.729186 1_554
Ge8 O26 1.729592 1_565
Ge8 O12 1.774438 1_554
Ge8 O2 1.802546 1_555
Ge9 O17 1.729180 1_555
Ge9 O27 1.729601 1_655
Ge9 O13 1.774438 1_555
Ge9 O3 1.802546 1_555
Ge10 O18 1.729194 1_555
Ge10 O24 1.729592 1_465
Ge10 O14 1.774431 1_555
Ge10 O0 1.802546 1_555
Ge11 O19 1.729189 1_555
Ge11 O25 1.729592 1_645
Ge11 O15 1.774438 1_555
Ge11 O1 1.802546 1_555
