# generated using pymatgen
data_SrFeP(O2F)2
_symmetry_space_group_name_H-M   'P 1'
_cell_length_a   12.44168400
_cell_length_b   5.26642400
_cell_length_c   7.83870127
_cell_angle_alpha   62.44052465
_cell_angle_beta   90.00000000
_cell_angle_gamma   90.00000000
_symmetry_Int_Tables_number   1
_chemical_formula_structural   SrFeP(O2F)2
_chemical_formula_sum   'Sr4 Fe4 P4 O16 F8'
_cell_volume   455.33711202
_cell_formula_units_Z   4
loop_
 _symmetry_equiv_pos_site_id
 _symmetry_equiv_pos_as_xyz
  1  'x, y, z'
loop_
 _atom_site_type_symbol
 _atom_site_label
 _atom_site_symmetry_multiplicity
 _atom_site_fract_x
 _atom_site_fract_y
 _atom_site_fract_z
 _atom_site_occupancy
  Sr  Sr0  1  0.79377200  0.85451000  0.68752900  1
  Sr  Sr1  1  0.20622800  0.14549000  0.31247100  1
  Sr  Sr2  1  0.29377200  0.14549000  0.81247100  1
  Sr  Sr3  1  0.70622800  0.85451000  0.18752900  1
  Fe  Fe0  1  0.00000000  0.00000000  0.00000000  1
  Fe  Fe1  1  0.50000000  0.00000000  0.50000000  1
  Fe  Fe2  1  0.50000000  0.50000000  0.00000000  1
  Fe  Fe3  1  0.00000000  0.50000000  0.50000000  1
  P  P0  1  0.61477300  0.37043900  0.69524600  1
  P  P1  1  0.11477300  0.62956100  0.80475400  1
  P  P2  1  0.38522700  0.62956100  0.30475400  1
  P  P3  1  0.88522700  0.37043900  0.19524600  1
  O  O0  1  0.87724100  0.70416800  0.05777300  1
  O  O1  1  0.71836100  0.26270200  0.81135700  1
  O  O2  1  0.28163900  0.73729800  0.18864300  1
  O  O3  1  0.62275900  0.70416800  0.55777300  1
  O  O4  1  0.39935600  0.77607500  0.43533100  1
  O  O5  1  0.51509100  0.31803400  0.82821700  1
  O  O6  1  0.01509100  0.68196600  0.67178300  1
  O  O7  1  0.10064400  0.77607500  0.93533100  1
  O  O8  1  0.78163900  0.26270200  0.31135700  1
  O  O9  1  0.12275900  0.29583200  0.94222700  1
  O  O10  1  0.98490900  0.31803400  0.32821700  1
  O  O11  1  0.60064400  0.22392500  0.56466900  1
  O  O12  1  0.48490900  0.68196600  0.17178300  1
  O  O13  1  0.37724100  0.29583200  0.44222700  1
  O  O14  1  0.21836100  0.73729800  0.68864300  1
  O  O15  1  0.89935600  0.22392500  0.06466900  1
  F  F0  1  0.85526500  0.66904500  0.44917500  1
  F  F1  1  0.35526500  0.33095500  0.05082500  1
  F  F2  1  0.44063500  0.83997300  0.77176200  1
  F  F3  1  0.64473500  0.66904500  0.94917500  1
  F  F4  1  0.14473500  0.33095500  0.55082500  1
  F  F5  1  0.05936500  0.83997300  0.27176200  1
  F  F6  1  0.94063500  0.16002700  0.72823800  1
  F  F7  1  0.55936500  0.16002700  0.22823800  1
loop_
_geom_bond_atom_site_label_1
_geom_bond_atom_site_label_2
_geom_bond_distance
_geom_bond_site_symmetry_2
Fe0 O15 1.941342 1_455
Fe0 O7 1.941342 1_544
Fe0 O0 2.076592 1_445
Fe0 O9 2.076592 1_554
Fe1 O11 1.941342 1_555
Fe1 O4 1.941342 1_545
Fe1 O3 2.076592 1_545
Fe1 O13 2.076592 1_555
Fe2 O12 1.990200 1_555
Fe2 O5 1.990200 1_554
Fe3 O6 1.990200 1_555
Fe3 O10 1.990200 1_455
O0 P3 1.583531 1_555
O0 Sr3 2.633188 1_555
O0 Sr0 2.828780 1_554
O1 P0 1.527577 1_555
O1 Sr3 2.733733 1_546
O1 Sr0 2.893881 1_545
O1 Sr0 2.955838 1_555
O2 P2 1.527577 1_555
O2 Sr2 2.733733 1_564
O2 Sr1 2.893881 1_565
O2 Sr1 2.955838 1_555
O3 P0 1.583531 1_555
O3 Sr0 2.633188 1_555
O3 Sr3 2.828780 1_555
O4 P2 1.550726 1_555
O4 Sr1 2.958433 1_565
O5 P0 1.560300 1_555
O5 Sr2 2.920093 1_555
O6 P1 1.560300 1_555
O6 Sr0 2.920093 1_455
O7 P1 1.550726 1_555
O7 Sr2 2.958433 1_565
O8 P3 1.527577 1_555
O8 Sr0 2.733733 1_545
O8 Sr3 2.893881 1_545
O8 Sr3 2.955838 1_555
O9 P1 1.583531 1_555
O9 Sr2 2.633188 1_555
O9 Sr1 2.828780 1_556
O10 P3 1.560300 1_555
O10 Sr1 2.920093 1_655
O11 P0 1.550726 1_555
O11 Sr0 2.958433 1_545
O12 P2 1.560300 1_555
O12 Sr3 2.920093 1_555
O13 P2 1.583531 1_555
O13 Sr1 2.633188 1_555
O13 Sr2 2.828780 1_555
O14 P1 1.527577 1_555
O14 Sr1 2.733733 1_565
O14 Sr2 2.893881 1_565
O14 Sr2 2.955838 1_555
O15 P3 1.550726 1_555
O15 Sr3 2.958433 1_545
F0 Fe3 1.966159 1_655
F0 Sr0 2.592083 1_555
F0 Sr3 2.597134 1_555
F1 Fe2 1.966159 1_555
F1 Sr2 2.592083 1_554
F1 Sr1 2.597134 1_555
F2 Fe2 1.996986 1_556
F2 Fe1 2.032862 1_565
F2 Sr2 2.550392 1_565
F3 Fe2 1.966159 1_556
F3 Sr3 2.592083 1_556
F3 Sr0 2.597134 1_555
F4 Fe3 1.966159 1_555
F4 Sr1 2.592083 1_555
F4 Sr2 2.597134 1_555
F5 Fe3 1.996986 1_555
F5 Fe0 2.032862 1_565
F5 Sr1 2.550392 1_565
F6 Fe3 1.996986 1_655
F6 Fe0 2.032862 1_656
F6 Sr0 2.550392 1_545
F7 Fe2 1.996986 1_555
F7 Fe1 2.032862 1_555
F7 Sr3 2.550392 1_545
