# generated using pymatgen
data_Al2NiO4
_symmetry_space_group_name_H-M   'P 1'
_cell_length_a   5.69425400
_cell_length_b   5.73836333
_cell_length_c   33.16002103
_cell_angle_alpha   85.09214719
_cell_angle_beta   85.21145264
_cell_angle_gamma   60.38187648
_symmetry_Int_Tables_number   1
_chemical_formula_structural   Al2NiO4
_chemical_formula_sum   'Al28 Ni14 O56'
_cell_volume   937.43601631
_cell_formula_units_Z   14
loop_
 _symmetry_equiv_pos_site_id
 _symmetry_equiv_pos_as_xyz
  1  'x, y, z'
loop_
 _atom_site_type_symbol
 _atom_site_label
 _atom_site_symmetry_multiplicity
 _atom_site_fract_x
 _atom_site_fract_y
 _atom_site_fract_z
 _atom_site_occupancy
  Al  Al0  1  0.35459600  0.86377100  0.92890700  1
  Al  Al1  1  0.35522800  0.35279900  0.92897800  1
  Al  Al2  1  0.07892400  0.56755100  0.78613400  1
  Al  Al3  1  0.22088000  0.71123100  0.85571800  1
  Al  Al4  1  0.26527100  0.77133100  0.69680200  1
  Al  Al5  1  0.07837000  0.06304400  0.78598100  1
  Al  Al6  1  0.97673600  0.49137400  0.55489300  1
  Al  Al7  1  0.88773600  0.36718700  0.87438900  1
  Al  Al8  1  0.93275300  0.42340600  0.71398800  1
  Al  Al9  1  0.78733000  0.78356400  0.64280500  1
  Al  Al10  1  0.69085800  0.20648800  0.41195100  1
  Al  Al11  1  0.60383900  0.07480200  0.73229200  1
  Al  Al12  1  0.64284600  0.14311300  0.57143400  1
  Al  Al13  1  0.49982100  0.50024600  0.49981100  1
  Al  Al14  1  0.35645300  0.85837500  0.42848900  1
  Al  Al15  1  0.40443200  0.92183100  0.26911000  1
  Al  Al16  1  0.30998300  0.79147700  0.58821700  1
  Al  Al17  1  0.21398300  0.21498300  0.35688200  1
  Al  Al18  1  0.11531700  0.64016200  0.12697800  1
  Al  Al19  1  0.07023500  0.57359400  0.28557200  1
  Al  Al20  1  0.02341400  0.50719100  0.44527100  1
  Al  Al21  1  0.92710600  0.93087600  0.21419700  1
  Al  Al22  1  0.73734500  0.22208400  0.30238300  1
  Al  Al23  1  0.78212700  0.29023000  0.14282300  1
  Al  Al24  1  0.63762700  0.64986100  0.07207200  1
  Al  Al25  1  0.49849500  0.00347200  0.99874100  1
  Al  Al26  1  0.45048400  0.93854500  0.15957200  1
  Al  Al27  1  0.16476700  0.65734200  0.01568000  1
  Ni  Ni0  1  0.82753900  0.34589400  0.98518900  1
  Ni  Ni1  1  0.85032200  0.86047500  0.92780700  1
  Ni  Ni2  1  0.55442600  0.05334900  0.84012900  1
  Ni  Ni3  1  0.57468800  0.56734900  0.78536600  1
  Ni  Ni4  1  0.28845400  0.28188900  0.64303500  1
  Ni  Ni5  1  0.99973300  0.99955600  0.50016600  1
  Ni  Ni6  1  0.50010200  0.99966000  0.50018500  1
  Ni  Ni7  1  0.78788000  0.28232000  0.64331900  1
  Ni  Ni8  1  0.71391000  0.71431100  0.35724800  1
  Ni  Ni9  1  0.21426700  0.71425000  0.35726300  1
  Ni  Ni10  1  0.42726700  0.43014600  0.21448900  1
  Ni  Ni11  1  0.92736500  0.42993400  0.21447900  1
  Ni  Ni12  1  0.13961800  0.14933200  0.07173200  1
  Ni  Ni13  1  0.63650600  0.14888700  0.07173000  1
  O  O0  1  0.64138300  0.71764600  0.96274300  1
  O  O1  1  0.50545300  0.04979900  0.89737300  1
  O  O2  1  0.64668400  0.17765400  0.96204300  1
  O  O3  1  0.19929500  0.16793300  0.96051100  1
  O  O4  1  0.52393300  0.54287600  0.89159600  1
  O  O5  1  0.36515700  0.42678400  0.81972600  1
  O  O6  1  0.05862300  0.53618100  0.89048800  1
  O  O7  1  0.36774000  0.88550200  0.81911600  1
  O  O8  1  0.23849300  0.75315000  0.75091800  1
  O  O9  1  0.19608500  0.67205100  0.95939500  1
  O  O10  1  0.93187600  0.87256900  0.81653500  1
  O  O11  1  0.05937600  0.01285900  0.89005800  1
  O  O12  1  0.24059900  0.25392400  0.75089200  1
  O  O13  1  0.10194600  0.12131500  0.68174500  1
  O  O14  1  0.91649400  0.37887500  0.81804700  1
  O  O15  1  0.95316800  0.48361700  0.60956400  1
  O  O16  1  0.09039000  0.60758000  0.67903300  1
  O  O17  1  0.77905700  0.24085900  0.74914000  1
  O  O18  1  0.62338900  0.60893500  0.67996300  1
  O  O19  1  0.78400500  0.72057800  0.74941700  1
  O  O20  1  0.81023800  0.84036300  0.53907200  1
  O  O21  1  0.95325000  0.95733700  0.60731100  1
  O  O22  1  0.66619100  0.20057200  0.46669400  1
  O  O23  1  0.80309400  0.32557200  0.53692000  1
  O  O24  1  0.62204200  0.07988600  0.67790500  1
  O  O25  1  0.48341800  0.95632200  0.60731300  1
  O  O26  1  0.33364300  0.32544000  0.53698200  1
  O  O27  1  0.47639900  0.44313900  0.60530600  1
  O  O28  1  0.66685300  0.67301400  0.46434200  1
  O  O29  1  0.52425700  0.55531800  0.39614100  1
  O  O30  1  0.33373200  0.79800700  0.53414600  1
  O  O31  1  0.51740600  0.04040400  0.39402400  1
  O  O32  1  0.19596800  0.67284900  0.46432600  1
  O  O33  1  0.38029200  0.91532800  0.32383600  1
  O  O34  1  0.18918200  0.15892200  0.46224400  1
  O  O35  1  0.04760200  0.04029000  0.39401400  1
  O  O36  1  0.38091400  0.38769900  0.32140400  1
  O  O37  1  0.23809700  0.27076600  0.25320500  1
  O  O38  1  0.04792100  0.51271300  0.39118700  1
  O  O39  1  0.91016600  0.38753600  0.32137100  1
  O  O40  1  0.22979800  0.75723600  0.25134300  1
  O  O41  1  0.09347700  0.63099200  0.18159900  1
  O  O42  1  0.76088200  0.75601600  0.25124900  1
  O  O43  1  0.90307700  0.87386900  0.31936800  1
  O  O44  1  0.09431900  0.10309700  0.17847400  1
  O  O45  1  0.94915800  0.98760200  0.11046000  1
  O  O46  1  0.79840000  0.35082800  0.04329400  1
  O  O47  1  0.76057300  0.22902800  0.24823500  1
  O  O48  1  0.62423800  0.10223100  0.17847400  1
  O  O49  1  0.94396700  0.47486000  0.10912400  1
  O  O50  1  0.46887100  0.47664900  0.10935200  1
  O  O51  1  0.61569500  0.59039200  0.17668100  1
  O  O52  1  0.80770300  0.81909000  0.03331700  1
  O  O53  1  0.33498700  0.82365000  0.03443200  1
  O  O54  1  0.47475500  0.94689700  0.10506100  1
  O  O55  1  0.32725000  0.30811700  0.03128200  1
loop_
_geom_bond_atom_site_label_1
_geom_bond_atom_site_label_2
_geom_bond_distance
_geom_bond_site_symmetry_2
Al0 O0 1.849392 1_555
Al0 O1 1.880507 1_565
Al0 O3 1.886615 1_565
Al0 O9 1.919891 1_555
Al0 O11 1.992198 1_565
Al0 O4 2.070489 1_555
Al1 O2 1.852887 1_555
Al1 O1 1.882880 1_555
Al1 O3 1.895612 1_555
Al1 O9 1.928035 1_555
Al1 O6 1.990542 1_555
Al1 O4 2.062680 1_555
Al2 O5 1.843265 1_555
Al2 O10 1.869037 1_455
Al2 O19 1.942810 1_455
Al2 O14 1.943686 1_455
Al2 O8 1.972343 1_555
Al2 O12 1.998683 1_555
Al3 O5 1.899422 1_555
Al3 O7 1.903150 1_555
Al3 O11 1.930624 1_565
Al3 O6 1.932189 1_555
Al3 O4 1.955736 1_555
Al3 O10 1.974525 1_455
Al4 O8 1.786709 1_555
Al4 O13 1.790922 1_565
Al4 O16 1.827404 1_555
Al4 O18 1.832809 1_555
Al5 O7 1.847083 1_545
Al5 O10 1.867531 1_445
Al5 O14 1.944160 1_455
Al5 O17 1.963111 1_455
Al5 O8 1.979803 1_545
Al5 O12 2.002396 1_555
Al6 O20 1.791977 1_555
Al6 O15 1.805005 1_555
Al6 O23 1.833941 1_555
Al6 O26 1.836357 1_655
Al7 O6 1.811162 1_655
Al7 O11 1.816351 1_655
Al7 O14 1.860162 1_555
Al7 O4 1.862840 1_555
Al8 O13 1.889642 1_655
Al8 O17 1.936204 1_555
Al8 O19 1.937680 1_555
Al8 O18 1.944789 1_555
Al8 O16 1.954631 1_655
Al8 O12 1.996402 1_655
Al9 O15 1.900938 1_555
Al9 O24 1.925037 1_565
Al9 O25 1.951252 1_555
Al9 O21 1.953718 1_555
Al9 O16 1.963928 1_655
Al9 O18 1.978684 1_555
Al10 O29 1.791131 1_555
Al10 O22 1.807683 1_555
Al10 O31 1.833736 1_555
Al10 O35 1.835831 1_655
Al11 O24 1.796355 1_555
Al11 O17 1.827432 1_555
Al11 O19 1.829000 1_545
Al11 O12 1.873280 1_555
Al12 O20 1.894663 1_545
Al12 O27 1.914218 1_555
Al12 O23 1.950303 1_555
Al12 O26 1.951995 1_555
Al12 O21 1.986839 1_545
Al12 O25 1.987925 1_545
Al13 O22 1.897303 1_555
Al13 O30 1.914700 1_555
Al13 O32 1.950858 1_555
Al13 O28 1.953614 1_555
Al13 O23 1.983417 1_555
Al13 O26 1.988171 1_555
Al14 O29 1.895653 1_555
Al14 O34 1.913927 1_565
Al14 O31 1.950466 1_565
Al14 O35 1.950995 1_565
Al14 O32 1.986091 1_555
Al14 O28 1.986217 1_555
Al15 O37 1.792392 1_565
Al15 O33 1.807018 1_555
Al15 O40 1.830147 1_555
Al15 O42 1.833758 1_555
Al16 O30 1.785373 1_555
Al16 O27 1.799506 1_555
Al16 O25 1.844285 1_555
Al16 O21 1.846736 1_455
Al17 O33 1.895779 1_545
Al17 O38 1.913949 1_555
Al17 O39 1.951259 1_455
Al17 O36 1.953166 1_555
Al17 O31 1.984691 1_555
Al17 O35 1.987810 1_555
Al18 O45 1.790339 1_455
Al18 O41 1.803151 1_555
Al18 O50 1.818054 1_555
Al18 O49 1.819243 1_455
Al19 O37 1.895093 1_555
Al19 O43 1.913669 1_455
Al19 O40 1.947796 1_555
Al19 O42 1.949977 1_455
Al19 O39 1.986021 1_455
Al19 O36 1.986991 1_555
Al20 O38 1.785979 1_555
Al20 O34 1.798158 1_555
Al20 O32 1.843367 1_555
Al20 O28 1.845711 1_455
Al21 O41 1.887632 1_655
Al21 O47 1.910097 1_565
Al21 O48 1.951910 1_565
Al21 O44 1.956518 1_665
Al21 O40 1.981865 1_655
Al21 O42 1.986444 1_555
Al22 O47 1.787846 1_555
Al22 O43 1.798006 1_545
Al22 O39 1.842696 1_555
Al22 O36 1.844617 1_555
Al23 O45 1.894177 1_545
Al23 O51 1.914479 1_555
Al23 O50 1.949183 1_555
Al23 O49 1.952187 1_555
Al23 O48 1.983109 1_555
Al23 O44 1.989394 1_655
Al24 O46 1.809653 1_555
Al24 O54 1.883942 1_555
Al24 O53 1.992387 1_555
Al24 O50 1.993755 1_555
Al24 O49 1.994019 1_555
Al24 O52 2.010154 1_555
Al25 O0 1.905481 1_545
Al25 O55 1.906161 1_556
Al25 O2 1.909462 1_555
Al25 O52 1.955050 1_546
Al25 O53 1.972067 1_546
Al25 O3 1.991735 1_555
Al26 O51 1.798791 1_555
Al26 O54 1.799661 1_555
Al26 O48 1.837635 1_565
Al26 O44 1.842226 1_565
Al27 O55 1.791500 1_555
Al27 O53 1.831226 1_555
Al27 O52 1.834805 1_455
Al27 O9 1.858702 1_554
Ni0 O46 1.921474 1_556
Ni0 O2 1.955292 1_555
Ni0 O0 1.962982 1_555
Ni0 O3 1.977543 1_655
Ni1 O2 1.998453 1_565
Ni1 O0 2.000150 1_555
Ni1 O1 2.022288 1_565
Ni1 O9 2.046706 1_655
Ni1 O11 2.083608 1_665
Ni1 O6 2.090103 1_655
Ni2 O1 1.895260 1_555
Ni2 O7 1.947768 1_545
Ni2 O5 1.949921 1_555
Ni2 O10 1.990483 1_545
Ni3 O5 1.984789 1_555
Ni3 O7 1.994281 1_555
Ni3 O14 2.050185 1_555
Ni3 O19 2.057702 1_555
Ni3 O8 2.060504 1_555
Ni3 O17 2.074607 1_555
Ni4 O27 2.030757 1_555
Ni4 O13 2.040075 1_555
Ni4 O15 2.041172 1_455
Ni4 O25 2.057892 1_545
Ni4 O24 2.061520 1_555
Ni4 O16 2.064780 1_555
Ni5 O34 2.033032 1_665
Ni5 O22 2.034002 1_565
Ni5 O30 2.045727 1_655
Ni5 O20 2.050233 1_555
Ni5 O32 2.065101 1_655
Ni5 O23 2.081056 1_565
Ni6 O34 2.031860 1_565
Ni6 O22 2.034774 1_565
Ni6 O30 2.046256 1_555
Ni6 O20 2.049389 1_555
Ni6 O28 2.064279 1_555
Ni6 O26 2.080350 1_565
Ni7 O27 2.035369 1_555
Ni7 O15 2.037276 1_555
Ni7 O13 2.054586 1_655
Ni7 O24 2.057176 1_555
Ni7 O21 2.060991 1_545
Ni7 O18 2.081115 1_555
Ni8 O43 2.031887 1_555
Ni8 O33 2.033162 1_555
Ni8 O38 2.045003 1_655
Ni8 O29 2.049874 1_555
Ni8 O39 2.066121 1_555
Ni8 O31 2.081774 1_565
Ni9 O43 2.031872 1_455
Ni9 O33 2.034261 1_555
Ni9 O38 2.045095 1_555
Ni9 O29 2.048685 1_555
Ni9 O36 2.064229 1_555
Ni9 O35 2.080433 1_565
Ni10 O41 2.023898 1_555
Ni10 O51 2.030267 1_555
Ni10 O47 2.038339 1_555
Ni10 O37 2.046207 1_555
Ni10 O48 2.073596 1_555
Ni10 O40 2.087526 1_555
Ni11 O41 2.026287 1_655
Ni11 O51 2.031537 1_555
Ni11 O47 2.041586 1_555
Ni11 O37 2.048238 1_655
Ni11 O44 2.068344 1_655
Ni11 O42 2.081040 1_555
Ni12 O46 1.974868 1_455
Ni12 O54 2.038124 1_545
Ni12 O45 2.060373 1_445
Ni12 O55 2.069967 1_555
Ni12 O53 2.090675 1_545
Ni12 O49 2.092043 1_455
Ni13 O46 1.950802 1_555
Ni13 O54 2.019775 1_545
Ni13 O45 2.055532 1_545
Ni13 O55 2.080654 1_555
Ni13 O50 2.105495 1_555
Ni13 O52 2.129782 1_545
