# generated using pymatgen
data_KIn9Co2
_symmetry_space_group_name_H-M   'P 1'
_cell_length_a   17.52029380
_cell_length_b   17.52028175
_cell_length_c   8.47651264
_cell_angle_alpha   90.00000000
_cell_angle_beta   90.00000000
_cell_angle_gamma   119.99998355
_symmetry_Int_Tables_number   1
_chemical_formula_structural   KIn9Co2
_chemical_formula_sum   'K8 In72 Co16'
_cell_volume   2253.35900062
_cell_formula_units_Z   8
loop_
 _symmetry_equiv_pos_site_id
 _symmetry_equiv_pos_as_xyz
  1  'x, y, z'
loop_
 _atom_site_type_symbol
 _atom_site_label
 _atom_site_symmetry_multiplicity
 _atom_site_fract_x
 _atom_site_fract_y
 _atom_site_fract_z
 _atom_site_occupancy
  K  K0_0  1  0.00000000  0.00000000  0.00000000  1
  K  K0_1  1  0.00000000  0.00000000  0.50000000  1
  K  K0_2  1  0.00000000  0.50000000  0.00000000  1
  K  K0_3  1  0.00000000  0.50000000  0.50000000  1
  K  K0_4  1  0.50000000  0.00000000  0.00000000  1
  K  K0_5  1  0.50000000  0.00000000  0.50000000  1
  K  K0_6  1  0.50000000  0.50000000  0.00000000  1
  K  K0_7  1  0.50000000  0.50000000  0.50000000  1
  In  In0_0  1  0.39504845  0.29009639  0.25000000  1
  In  In0_1  1  0.39504845  0.29009639  0.75000000  1
  In  In0_2  1  0.39504845  0.79009639  0.25000000  1
  In  In0_3  1  0.39504845  0.79009639  0.75000000  1
  In  In0_4  1  0.89504845  0.29009639  0.25000000  1
  In  In0_5  1  0.89504845  0.29009639  0.75000000  1
  In  In0_6  1  0.89504845  0.79009639  0.25000000  1
  In  In0_7  1  0.89504845  0.79009639  0.75000000  1
  In  In1_0  1  0.25000000  0.25000000  0.00000000  1
  In  In1_1  1  0.25000000  0.25000000  0.50000000  1
  In  In1_2  1  0.25000000  0.75000000  0.00000000  1
  In  In1_3  1  0.25000000  0.75000000  0.50000000  1
  In  In1_4  1  0.75000000  0.25000000  0.00000000  1
  In  In1_5  1  0.75000000  0.25000000  0.50000000  1
  In  In1_6  1  0.75000000  0.75000000  0.00000000  1
  In  In1_7  1  0.75000000  0.75000000  0.50000000  1
  In  In2_0  1  0.25000000  0.00000000  0.00000000  1
  In  In2_1  1  0.25000000  0.00000000  0.50000000  1
  In  In2_2  1  0.25000000  0.50000000  0.00000000  1
  In  In2_3  1  0.25000000  0.50000000  0.50000000  1
  In  In2_4  1  0.75000000  0.00000000  0.00000000  1
  In  In2_5  1  0.75000000  0.00000000  0.50000000  1
  In  In2_6  1  0.75000000  0.50000000  0.00000000  1
  In  In2_7  1  0.75000000  0.50000000  0.50000000  1
  In  In3_0  1  0.20990312  0.10495106  0.25000000  1
  In  In3_1  1  0.20990312  0.10495106  0.75000000  1
  In  In3_2  1  0.20990312  0.60495106  0.25000000  1
  In  In3_3  1  0.20990312  0.60495106  0.75000000  1
  In  In3_4  1  0.70990312  0.10495106  0.25000000  1
  In  In3_5  1  0.70990312  0.10495106  0.75000000  1
  In  In3_6  1  0.70990312  0.60495106  0.25000000  1
  In  In3_7  1  0.70990312  0.60495106  0.75000000  1
  In  In4_0  1  0.10495156  0.20990362  0.25000000  1
  In  In4_1  1  0.10495156  0.20990362  0.75000000  1
  In  In4_2  1  0.10495156  0.70990362  0.25000000  1
  In  In4_3  1  0.10495156  0.70990362  0.75000000  1
  In  In4_4  1  0.60495155  0.20990362  0.25000000  1
  In  In4_5  1  0.60495155  0.20990362  0.75000000  1
  In  In4_6  1  0.60495156  0.70990362  0.25000000  1
  In  In4_7  1  0.60495156  0.70990362  0.75000000  1
  In  In5_0  1  0.10495156  0.39504895  0.25000000  1
  In  In5_1  1  0.10495156  0.39504895  0.75000000  1
  In  In5_2  1  0.10495156  0.89504895  0.25000000  1
  In  In5_3  1  0.10495156  0.89504895  0.75000000  1
  In  In5_4  1  0.60495156  0.39504895  0.25000000  1
  In  In5_5  1  0.60495156  0.39504895  0.75000000  1
  In  In5_6  1  0.60495156  0.89504895  0.25000000  1
  In  In5_7  1  0.60495156  0.89504895  0.75000000  1
  In  In6_0  1  0.29009689  0.39504895  0.25000000  1
  In  In6_1  1  0.29009689  0.39504895  0.75000000  1
  In  In6_2  1  0.29009689  0.89504894  0.25000000  1
  In  In6_3  1  0.29009689  0.89504894  0.75000000  1
  In  In6_4  1  0.79009689  0.39504895  0.25000000  1
  In  In6_5  1  0.79009689  0.39504895  0.75000000  1
  In  In6_6  1  0.79009689  0.89504894  0.25000000  1
  In  In6_7  1  0.79009689  0.89504894  0.75000000  1
  In  In7_0  1  0.00000000  0.25000000  0.00000000  1
  In  In7_1  1  0.00000000  0.25000000  0.50000000  1
  In  In7_2  1  0.00000000  0.75000000  0.00000000  1
  In  In7_3  1  0.00000000  0.75000000  0.50000000  1
  In  In7_4  1  0.50000000  0.25000000  0.00000000  1
  In  In7_5  1  0.50000000  0.25000000  0.50000000  1
  In  In7_6  1  0.50000000  0.75000000  0.00000000  1
  In  In7_7  1  0.50000000  0.75000000  0.50000000  1
  In  In8_0  1  0.39504845  0.10495106  0.25000000  1
  In  In8_1  1  0.39504845  0.10495106  0.75000000  1
  In  In8_2  1  0.39504845  0.60495106  0.25000000  1
  In  In8_3  1  0.39504845  0.60495106  0.75000000  1
  In  In8_4  1  0.89504845  0.10495106  0.25000000  1
  In  In8_5  1  0.89504845  0.10495106  0.75000000  1
  In  In8_6  1  0.89504845  0.60495106  0.25000000  1
  In  In8_7  1  0.89504845  0.60495106  0.75000000  1
  Co  Co0_0  1  0.33333350  0.16666650  0.00000000  1
  Co  Co0_1  1  0.33333350  0.16666650  0.50000000  1
  Co  Co0_2  1  0.33333350  0.66666650  0.00000000  1
  Co  Co0_3  1  0.33333350  0.66666650  0.50000000  1
  Co  Co0_4  1  0.83333350  0.16666650  0.00000000  1
  Co  Co0_5  1  0.83333350  0.16666650  0.50000000  1
  Co  Co0_6  1  0.83333350  0.66666650  0.00000000  1
  Co  Co0_7  1  0.83333350  0.66666650  0.50000000  1
  Co  Co1_0  1  0.16666650  0.33333350  0.00000000  1
  Co  Co1_1  1  0.16666650  0.33333350  0.50000000  1
  Co  Co1_2  1  0.16666650  0.83333350  0.00000000  1
  Co  Co1_3  1  0.16666650  0.83333350  0.50000000  1
  Co  Co1_4  1  0.66666650  0.33333350  0.00000000  1
  Co  Co1_5  1  0.66666650  0.33333350  0.50000000  1
  Co  Co1_6  1  0.66666650  0.83333350  0.00000000  1
  Co  Co1_7  1  0.66666650  0.83333350  0.50000000  1
loop_
_geom_bond_atom_site_label_1
_geom_bond_atom_site_label_2
_geom_bond_distance
_geom_bond_site_symmetry_2
K0_0 K0_1 4.238256 1_554
K0_0 K0_1 4.238256 1_555
K0_2 K0_3 4.238256 1_555
K0_2 K0_3 4.238256 1_554
K0_4 K0_5 4.238256 1_554
K0_4 K0_5 4.238256 1_555
K0_6 K0_7 4.238256 1_554
K0_6 K0_7 4.238256 1_555
In0_0 In7_4 3.107583 1_555
In0_0 In7_5 3.107583 1_555
In0_0 In1_0 3.107590 1_555
In0_0 In1_1 3.107590 1_555
In0_0 In5_4 3.184865 1_555
In0_0 In6_0 3.184878 1_555
In0_0 In8_0 3.243798 1_555
In0_0 In3_0 3.243800 1_555
In0_0 K0_6 3.825454 1_555
In0_0 K0_7 3.825454 1_555
In0_1 In7_5 3.107583 1_555
In0_1 In7_4 3.107583 1_556
In0_1 In1_1 3.107590 1_555
In0_1 In1_0 3.107590 1_556
In0_1 In5_5 3.184865 1_555
In0_1 In6_1 3.184878 1_555
In0_1 In8_1 3.243798 1_555
In0_1 In3_1 3.243800 1_555
In0_1 K0_6 3.825454 1_556
In0_1 K0_7 3.825454 1_555
In0_2 In7_7 3.107583 1_555
In0_2 In7_6 3.107583 1_555
In0_2 In1_3 3.107590 1_555
In0_2 In1_2 3.107590 1_555
In0_2 In5_6 3.184865 1_555
In0_2 In6_2 3.184878 1_555
In0_2 In8_2 3.243798 1_555
In0_2 In3_2 3.243800 1_555
In0_2 K0_4 3.825454 1_565
In0_2 K0_5 3.825454 1_565
In0_3 In7_7 3.107583 1_555
In0_3 In7_6 3.107583 1_556
In0_3 In1_3 3.107590 1_555
In0_3 In1_2 3.107590 1_556
In0_3 In5_7 3.184865 1_555
In0_3 In6_3 3.184878 1_555
In0_3 In8_3 3.243798 1_555
In0_3 In3_3 3.243800 1_555
In0_3 K0_4 3.825454 1_566
In0_3 K0_5 3.825454 1_565
In0_4 In7_0 3.107583 1_655
In0_4 In7_1 3.107583 1_655
In0_4 In1_4 3.107590 1_555
In0_4 In1_5 3.107590 1_555
In0_4 In5_0 3.184865 1_655
In0_4 In6_4 3.184878 1_555
In0_4 In8_4 3.243798 1_555
In0_4 In3_4 3.243800 1_555
In0_4 K0_3 3.825454 1_655
In0_4 K0_2 3.825454 1_655
In0_5 In7_0 3.107583 1_656
In0_5 In7_1 3.107583 1_655
In0_5 In1_4 3.107590 1_556
In0_5 In1_5 3.107590 1_555
In0_5 In5_1 3.184865 1_655
In0_5 In6_5 3.184878 1_555
In0_5 In8_5 3.243798 1_555
In0_5 In3_5 3.243800 1_555
In0_5 K0_3 3.825454 1_655
In0_5 K0_2 3.825454 1_656
In0_6 In7_3 3.107583 1_655
In0_6 In7_2 3.107583 1_655
In0_6 In1_7 3.107590 1_555
In0_6 In1_6 3.107590 1_555
In0_6 In5_2 3.184865 1_655
In0_6 In6_6 3.184878 1_555
In0_6 In8_6 3.243798 1_555
In0_6 In3_6 3.243800 1_555
In0_6 K0_0 3.825454 1_665
In0_6 K0_1 3.825454 1_665
In0_7 In7_2 3.107583 1_656
In0_7 In7_3 3.107583 1_655
In0_7 In1_6 3.107590 1_556
In0_7 In1_7 3.107590 1_555
In0_7 In5_3 3.184865 1_655
In0_7 In6_7 3.184878 1_555
In0_7 In8_7 3.243798 1_555
In0_7 In3_7 3.243800 1_555
In0_7 K0_0 3.825454 1_666
In0_7 K0_1 3.825454 1_665
In1_0 In4_1 3.107590 1_554
In1_0 In4_0 3.107590 1_555
In1_0 In6_1 3.107593 1_554
In1_0 In6_0 3.107593 1_555
In1_0 In3_1 3.107593 1_554
In1_0 In3_0 3.107593 1_555
In1_1 In4_0 3.107590 1_555
In1_1 In4_1 3.107590 1_555
In1_1 In6_0 3.107593 1_555
In1_1 In6_1 3.107593 1_555
In1_1 In3_0 3.107593 1_555
In1_1 In3_1 3.107593 1_555
In1_2 In4_3 3.107590 1_554
In1_2 In4_2 3.107590 1_555
In1_2 In6_3 3.107593 1_554
In1_2 In6_2 3.107593 1_555
In1_2 In3_3 3.107593 1_554
In1_2 In3_2 3.107593 1_555
In1_3 In4_2 3.107590 1_555
In1_3 In4_3 3.107590 1_555
In1_3 In6_3 3.107593 1_555
In1_3 In6_2 3.107593 1_555
In1_3 In3_3 3.107593 1_555
In1_3 In3_2 3.107593 1_555
In1_4 In4_5 3.107590 1_554
In1_4 In4_4 3.107590 1_555
In1_4 In6_4 3.107593 1_555
In1_4 In6_5 3.107593 1_554
In1_4 In3_4 3.107593 1_555
In1_4 In3_5 3.107593 1_554
In1_5 In4_5 3.107590 1_555
In1_5 In4_4 3.107590 1_555
In1_5 In6_5 3.107593 1_555
In1_5 In6_4 3.107593 1_555
In1_5 In3_4 3.107593 1_555
In1_5 In3_5 3.107593 1_555
In1_6 In4_7 3.107590 1_554
In1_6 In4_6 3.107590 1_555
In1_6 In6_7 3.107593 1_554
In1_6 In6_6 3.107593 1_555
In1_6 In3_6 3.107593 1_555
In1_6 In3_7 3.107593 1_554
In1_7 In4_6 3.107590 1_555
In1_7 In4_7 3.107590 1_555
In1_7 In6_6 3.107593 1_555
In1_7 In6_7 3.107593 1_555
In1_7 In3_7 3.107593 1_555
In1_7 In3_6 3.107593 1_555
In2_0 In3_0 3.107581 1_555
In2_0 In3_1 3.107581 1_554
In2_0 In6_2 3.107581 1_545
In2_0 In6_3 3.107581 1_544
In2_0 In5_3 3.107587 1_544
In2_0 In5_2 3.107587 1_545
In2_0 In8_1 3.107587 1_554
In2_0 In8_0 3.107587 1_555
In2_1 In3_1 3.107581 1_555
In2_1 In3_0 3.107581 1_555
In2_1 In6_2 3.107581 1_545
In2_1 In6_3 3.107581 1_545
In2_1 In5_3 3.107587 1_545
In2_1 In5_2 3.107587 1_545
In2_1 In8_0 3.107587 1_555
In2_1 In8_1 3.107587 1_555
In2_2 In6_1 3.107581 1_554
In2_2 In6_0 3.107581 1_555
In2_2 In3_2 3.107581 1_555
In2_2 In3_3 3.107581 1_554
In2_2 In5_1 3.107587 1_554
In2_2 In8_3 3.107587 1_554
In2_2 In5_0 3.107587 1_555
In2_2 In8_2 3.107587 1_555
In2_3 In6_0 3.107581 1_555
In2_3 In6_1 3.107581 1_555
In2_3 In3_3 3.107581 1_555
In2_3 In3_2 3.107581 1_555
In2_3 In5_1 3.107587 1_555
In2_3 In8_3 3.107587 1_555
In2_3 In5_0 3.107587 1_555
In2_3 In8_2 3.107587 1_555
In2_4 In3_4 3.107581 1_555
In2_4 In3_5 3.107581 1_554
In2_4 In6_6 3.107581 1_545
In2_4 In6_7 3.107581 1_544
In2_4 In5_6 3.107587 1_545
In2_4 In5_7 3.107587 1_544
In2_4 In8_5 3.107587 1_554
In2_4 In8_4 3.107587 1_555
In2_5 In3_5 3.107581 1_555
In2_5 In3_4 3.107581 1_555
In2_5 In6_6 3.107581 1_545
In2_5 In6_7 3.107581 1_545
In2_5 In5_6 3.107587 1_545
In2_5 In5_7 3.107587 1_545
In2_5 In8_5 3.107587 1_555
In2_5 In8_4 3.107587 1_555
In2_6 In3_6 3.107581 1_555
In2_6 In3_7 3.107581 1_554
In2_6 In6_5 3.107581 1_554
In2_6 In6_4 3.107581 1_555
In2_6 In5_4 3.107587 1_555
In2_6 In5_5 3.107587 1_554
In2_6 In8_6 3.107587 1_555
In2_6 In8_7 3.107587 1_554
In2_7 In3_7 3.107581 1_555
In2_7 In3_6 3.107581 1_555
In2_7 In6_4 3.107581 1_555
In2_7 In6_5 3.107581 1_555
In2_7 In5_4 3.107587 1_555
In2_7 In5_5 3.107587 1_555
In2_7 In8_7 3.107587 1_555
In2_7 In8_6 3.107587 1_555
In3_0 In5_2 3.184847 1_545
In3_0 In4_0 3.184878 1_555
In3_0 In8_0 3.243801 1_555
In3_0 K0_0 3.825450 1_555
In3_0 K0_1 3.825450 1_555
In3_1 In5_3 3.184847 1_545
In3_1 In4_1 3.184878 1_555
In3_1 In8_1 3.243801 1_555
In3_1 K0_0 3.825450 1_556
In3_1 K0_1 3.825450 1_555
In3_2 In5_0 3.184847 1_555
In3_2 In4_2 3.184878 1_555
In3_2 In8_2 3.243801 1_555
In3_2 K0_2 3.825450 1_555
In3_2 K0_3 3.825450 1_555
In3_3 In5_1 3.184847 1_555
In3_3 In4_3 3.184878 1_555
In3_3 In8_3 3.243801 1_555
In3_3 K0_3 3.825450 1_555
In3_3 K0_2 3.825450 1_556
In3_4 In5_6 3.184847 1_545
In3_4 In4_4 3.184878 1_555
In3_4 In8_4 3.243801 1_555
In3_4 K0_4 3.825450 1_555
In3_4 K0_5 3.825450 1_555
In3_5 In5_7 3.184847 1_545
In3_5 In4_5 3.184878 1_555
In3_5 In8_5 3.243801 1_555
In3_5 K0_4 3.825450 1_556
In3_5 K0_5 3.825450 1_555
In3_6 In5_4 3.184847 1_555
In3_6 In4_6 3.184878 1_555
In3_6 In8_6 3.243801 1_555
In3_6 K0_7 3.825450 1_555
In3_6 K0_6 3.825450 1_555
In3_7 In5_5 3.184847 1_555
In3_7 In4_7 3.184878 1_555
In3_7 In8_7 3.243801 1_555
In3_7 K0_7 3.825450 1_555
In3_7 K0_6 3.825450 1_556
In4_0 In7_1 3.107583 1_555
In4_0 In7_0 3.107583 1_555
In4_0 In8_4 3.184865 1_455
In4_0 In5_0 3.243798 1_555
In4_0 In6_0 3.243800 1_555
In4_0 K0_1 3.825454 1_555
In4_0 K0_0 3.825454 1_555
In4_1 In7_1 3.107583 1_555
In4_1 In7_0 3.107583 1_556
In4_1 In8_5 3.184865 1_455
In4_1 In5_1 3.243798 1_555
In4_1 In6_1 3.243800 1_555
In4_1 K0_1 3.825454 1_555
In4_1 K0_0 3.825454 1_556
In4_2 In7_2 3.107583 1_555
In4_2 In7_3 3.107583 1_555
In4_2 In8_6 3.184865 1_455
In4_2 In5_2 3.243798 1_555
In4_2 In6_2 3.243800 1_555
In4_2 K0_2 3.825454 1_555
In4_2 K0_3 3.825454 1_555
In4_3 In7_2 3.107583 1_556
In4_3 In7_3 3.107583 1_555
In4_3 In8_7 3.184865 1_455
In4_3 In5_3 3.243798 1_555
In4_3 In6_3 3.243800 1_555
In4_3 K0_3 3.825454 1_555
In4_3 K0_2 3.825454 1_556
In4_4 In7_4 3.107583 1_555
In4_4 In7_5 3.107583 1_555
In4_4 In8_0 3.184865 1_555
In4_4 In5_4 3.243798 1_555
In4_4 In6_4 3.243800 1_555
In4_4 K0_5 3.825454 1_555
In4_4 K0_4 3.825454 1_555
In4_5 In7_5 3.107583 1_555
In4_5 In7_4 3.107583 1_556
In4_5 In8_1 3.184865 1_555
In4_5 In5_5 3.243798 1_555
In4_5 In6_5 3.243800 1_555
In4_5 K0_5 3.825454 1_555
In4_5 K0_4 3.825454 1_556
In4_6 In7_6 3.107583 1_555
In4_6 In7_7 3.107583 1_555
In4_6 In8_2 3.184865 1_555
In4_6 In5_6 3.243798 1_555
In4_6 In6_6 3.243800 1_555
In4_6 K0_7 3.825454 1_555
In4_6 K0_6 3.825454 1_555
In4_7 In7_7 3.107583 1_555
In4_7 In7_6 3.107583 1_556
In4_7 In8_3 3.184865 1_555
In4_7 In5_7 3.243798 1_555
In4_7 In6_7 3.243800 1_555
In4_7 K0_7 3.825454 1_555
In4_7 K0_6 3.825454 1_556
In5_0 In7_1 3.107592 1_555
In5_0 In7_0 3.107592 1_555
In5_0 In6_0 3.243801 1_555
In5_0 K0_3 3.825442 1_555
In5_0 K0_2 3.825442 1_555
In5_1 In7_1 3.107592 1_555
In5_1 In7_0 3.107592 1_556
In5_1 In6_1 3.243801 1_555
In5_1 K0_3 3.825442 1_555
In5_1 K0_2 3.825442 1_556
In5_2 In7_2 3.107592 1_555
In5_2 In7_3 3.107592 1_555
In5_2 In6_2 3.243801 1_555
In5_2 K0_0 3.825442 1_565
In5_2 K0_1 3.825442 1_565
In5_3 In7_3 3.107592 1_555
In5_3 In7_2 3.107592 1_556
In5_3 In6_3 3.243801 1_555
In5_3 K0_1 3.825442 1_565
In5_3 K0_0 3.825442 1_566
In5_4 In7_5 3.107592 1_555
In5_4 In7_4 3.107592 1_555
In5_4 In6_4 3.243801 1_555
In5_4 K0_6 3.825442 1_555
In5_4 K0_7 3.825442 1_555
In5_5 In7_5 3.107592 1_555
In5_5 In7_4 3.107592 1_556
In5_5 In6_5 3.243801 1_555
In5_5 K0_6 3.825442 1_556
In5_5 K0_7 3.825442 1_555
In5_6 In7_6 3.107592 1_555
In5_6 In7_7 3.107592 1_555
In5_6 In6_6 3.243801 1_555
In5_6 K0_4 3.825442 1_565
In5_6 K0_5 3.825442 1_565
In5_7 In7_6 3.107592 1_556
In5_7 In7_7 3.107592 1_555
In5_7 In6_7 3.243801 1_555
In5_7 K0_4 3.825442 1_566
In5_7 K0_5 3.825442 1_565
In6_0 In8_2 3.184847 1_555
In6_0 K0_7 3.825450 1_555
In6_0 K0_6 3.825450 1_555
In6_1 In8_3 3.184847 1_555
In6_1 K0_6 3.825450 1_556
In6_1 K0_7 3.825450 1_555
In6_2 In8_0 3.184847 1_565
In6_2 K0_4 3.825450 1_565
In6_2 K0_5 3.825450 1_565
In6_3 In8_1 3.184847 1_565
In6_3 K0_5 3.825450 1_565
In6_3 K0_4 3.825450 1_566
In6_4 In8_6 3.184847 1_555
In6_4 K0_3 3.825450 1_655
In6_4 K0_2 3.825450 1_655
In6_5 In8_7 3.184847 1_555
In6_5 K0_2 3.825450 1_656
In6_5 K0_3 3.825450 1_655
In6_6 In8_4 3.184847 1_565
In6_6 K0_0 3.825450 1_665
In6_6 K0_1 3.825450 1_665
In6_7 In8_5 3.184847 1_565
In6_7 K0_1 3.825450 1_665
In6_7 K0_0 3.825450 1_666
In7_0 In8_4 3.107592 1_455
In7_0 In8_5 3.107592 1_454
In7_1 In8_4 3.107592 1_455
In7_1 In8_5 3.107592 1_455
In7_2 In8_7 3.107592 1_454
In7_2 In8_6 3.107592 1_455
In7_3 In8_7 3.107592 1_455
In7_3 In8_6 3.107592 1_455
In7_4 In8_1 3.107592 1_554
In7_4 In8_0 3.107592 1_555
In7_5 In8_1 3.107592 1_555
In7_5 In8_0 3.107592 1_555
In7_6 In8_2 3.107592 1_555
In7_6 In8_3 3.107592 1_554
In7_7 In8_2 3.107592 1_555
In7_7 In8_3 3.107592 1_555
In8_0 K0_5 3.825442 1_555
In8_0 K0_4 3.825442 1_555
In8_1 K0_5 3.825442 1_555
In8_1 K0_4 3.825442 1_556
In8_2 K0_6 3.825442 1_555
In8_2 K0_7 3.825442 1_555
In8_3 K0_6 3.825442 1_556
In8_3 K0_7 3.825442 1_555
In8_4 K0_0 3.825442 1_655
In8_4 K0_1 3.825442 1_655
In8_5 K0_0 3.825442 1_656
In8_5 K0_1 3.825442 1_655
In8_6 K0_3 3.825442 1_655
In8_6 K0_2 3.825442 1_655
In8_7 K0_2 3.825442 1_656
In8_7 K0_3 3.825442 1_655
Co0_0 In2_0 2.528833 1_555
Co0_0 In7_4 2.528834 1_555
Co0_0 In1_0 2.528841 1_555
Co0_0 In0_1 2.828090 1_554
Co0_0 In0_0 2.828090 1_555
Co0_0 In8_0 2.828096 1_555
Co0_0 In8_1 2.828096 1_554
Co0_0 In3_1 2.828096 1_554
Co0_0 In3_0 2.828096 1_555
Co0_1 In2_1 2.528833 1_555
Co0_1 In7_5 2.528834 1_555
Co0_1 In1_1 2.528841 1_555
Co0_1 In0_1 2.828090 1_555
Co0_1 In0_0 2.828090 1_555
Co0_1 In8_0 2.828096 1_555
Co0_1 In8_1 2.828096 1_555
Co0_1 In3_1 2.828096 1_555
Co0_1 In3_0 2.828096 1_555
Co0_2 In2_2 2.528833 1_555
Co0_2 In7_6 2.528834 1_555
Co0_2 In1_2 2.528841 1_555
Co0_2 In0_2 2.828090 1_555
Co0_2 In0_3 2.828090 1_554
Co0_2 In8_2 2.828096 1_555
Co0_2 In8_3 2.828096 1_554
Co0_2 In3_3 2.828096 1_554
Co0_2 In3_2 2.828096 1_555
Co0_3 In2_3 2.528833 1_555
Co0_3 In7_7 2.528834 1_555
Co0_3 In1_3 2.528841 1_555
Co0_3 In0_2 2.828090 1_555
Co0_3 In0_3 2.828090 1_555
Co0_3 In8_2 2.828096 1_555
Co0_3 In8_3 2.828096 1_555
Co0_3 In3_2 2.828096 1_555
Co0_3 In3_3 2.828096 1_555
Co0_4 In2_4 2.528833 1_555
Co0_4 In7_0 2.528834 1_655
Co0_4 In1_4 2.528841 1_555
Co0_4 In0_4 2.828090 1_555
Co0_4 In0_5 2.828090 1_554
Co0_4 In8_5 2.828096 1_554
Co0_4 In8_4 2.828096 1_555
Co0_4 In3_4 2.828096 1_555
Co0_4 In3_5 2.828096 1_554
Co0_5 In2_5 2.528833 1_555
Co0_5 In7_1 2.528834 1_655
Co0_5 In1_5 2.528841 1_555
Co0_5 In0_4 2.828090 1_555
Co0_5 In0_5 2.828090 1_555
Co0_5 In8_4 2.828096 1_555
Co0_5 In8_5 2.828096 1_555
Co0_5 In3_4 2.828096 1_555
Co0_5 In3_5 2.828096 1_555
Co0_6 In2_6 2.528833 1_555
Co0_6 In7_2 2.528834 1_655
Co0_6 In1_6 2.528841 1_555
Co0_6 In0_6 2.828090 1_555
Co0_6 In0_7 2.828090 1_554
Co0_6 In8_7 2.828096 1_554
Co0_6 In8_6 2.828096 1_555
Co0_6 In3_7 2.828096 1_554
Co0_6 In3_6 2.828096 1_555
Co0_7 In2_7 2.528833 1_555
Co0_7 In7_3 2.528834 1_655
Co0_7 In1_7 2.528841 1_555
Co0_7 In0_6 2.828090 1_555
Co0_7 In0_7 2.828090 1_555
Co0_7 In8_6 2.828096 1_555
Co0_7 In8_7 2.828096 1_555
Co0_7 In3_7 2.828096 1_555
Co0_7 In3_6 2.828096 1_555
Co1_0 In2_2 2.528833 1_555
Co1_0 In7_0 2.528834 1_555
Co1_0 In1_0 2.528841 1_555
Co1_0 In4_1 2.828090 1_554
Co1_0 In4_0 2.828090 1_555
Co1_0 In5_0 2.828096 1_555
Co1_0 In5_1 2.828096 1_554
Co1_0 In6_0 2.828096 1_555
Co1_0 In6_1 2.828096 1_554
Co1_1 In2_3 2.528833 1_555
Co1_1 In7_1 2.528834 1_555
Co1_1 In1_1 2.528841 1_555
Co1_1 In4_0 2.828090 1_555
Co1_1 In4_1 2.828090 1_555
Co1_1 In5_0 2.828096 1_555
Co1_1 In5_1 2.828096 1_555
Co1_1 In6_0 2.828096 1_555
Co1_1 In6_1 2.828096 1_555
Co1_2 In2_0 2.528833 1_565
Co1_2 In7_2 2.528834 1_555
Co1_2 In1_2 2.528841 1_555
Co1_2 In4_2 2.828090 1_555
Co1_2 In4_3 2.828090 1_554
Co1_2 In5_3 2.828096 1_554
Co1_2 In5_2 2.828096 1_555
Co1_2 In6_3 2.828096 1_554
Co1_2 In6_2 2.828096 1_555
Co1_3 In2_1 2.528833 1_565
Co1_3 In7_3 2.528834 1_555
Co1_3 In1_3 2.528841 1_555
Co1_3 In4_2 2.828090 1_555
Co1_3 In4_3 2.828090 1_555
Co1_3 In5_3 2.828096 1_555
Co1_3 In5_2 2.828096 1_555
Co1_3 In6_3 2.828096 1_555
Co1_3 In6_2 2.828096 1_555
Co1_4 In2_6 2.528833 1_555
Co1_4 In7_4 2.528834 1_555
Co1_4 In1_4 2.528841 1_555
Co1_4 In4_5 2.828090 1_554
Co1_4 In4_4 2.828090 1_555
Co1_4 In5_4 2.828096 1_555
Co1_4 In5_5 2.828096 1_554
Co1_4 In6_5 2.828096 1_554
Co1_4 In6_4 2.828096 1_555
Co1_5 In2_7 2.528833 1_555
Co1_5 In7_5 2.528834 1_555
Co1_5 In1_5 2.528841 1_555
Co1_5 In4_5 2.828090 1_555
Co1_5 In4_4 2.828090 1_555
Co1_5 In5_4 2.828096 1_555
Co1_5 In5_5 2.828096 1_555
Co1_5 In6_4 2.828096 1_555
Co1_5 In6_5 2.828096 1_555
Co1_6 In2_4 2.528833 1_565
Co1_6 In7_6 2.528834 1_555
Co1_6 In1_6 2.528841 1_555
Co1_6 In4_7 2.828090 1_554
Co1_6 In4_6 2.828090 1_555
Co1_6 In5_6 2.828096 1_555
Co1_6 In5_7 2.828096 1_554
Co1_6 In6_6 2.828096 1_555
Co1_6 In6_7 2.828096 1_554
Co1_7 In2_5 2.528833 1_565
Co1_7 In7_7 2.528834 1_555
Co1_7 In1_7 2.528841 1_555
Co1_7 In4_6 2.828090 1_555
Co1_7 In4_7 2.828090 1_555
Co1_7 In5_6 2.828096 1_555
Co1_7 In5_7 2.828096 1_555
Co1_7 In6_6 2.828096 1_555
Co1_7 In6_7 2.828096 1_555
