# generated using pymatgen
data_SiO2
_symmetry_space_group_name_H-M   'P 1'
_cell_length_a   17.17723039
_cell_length_b   17.17723039
_cell_length_c   12.88105400
_cell_angle_alpha   90.00000000
_cell_angle_beta   90.00000000
_cell_angle_gamma   120.00000151
_symmetry_Int_Tables_number   1
_chemical_formula_structural   SiO2
_chemical_formula_sum   'Si54 O108'
_cell_volume   3291.45792205
_cell_formula_units_Z   54
loop_
 _symmetry_equiv_pos_site_id
 _symmetry_equiv_pos_as_xyz
  1  'x, y, z'
loop_
 _atom_site_type_symbol
 _atom_site_label
 _atom_site_symmetry_multiplicity
 _atom_site_fract_x
 _atom_site_fract_y
 _atom_site_fract_z
 _atom_site_occupancy
  Si  Si0  1  0.17914700  0.98456700  0.00000000  1
  Si  Si1  1  0.18005500  0.99058200  0.37956000  1
  Si  Si2  1  0.18005500  0.99058200  0.62044000  1
  Si  Si3  1  0.30231000  0.99881400  0.19504700  1
  Si  Si4  1  0.30231000  0.99881400  0.80495300  1
  Si  Si5  1  0.16296200  0.68408800  0.12339500  1
  Si  Si6  1  0.16296200  0.68408800  0.87660500  1
  Si  Si7  1  0.00118600  0.30349600  0.19504700  1
  Si  Si8  1  0.00118600  0.30349600  0.80495300  1
  Si  Si9  1  0.14472200  0.49674500  0.12344200  1
  Si  Si10  1  0.14472200  0.49674500  0.87655800  1
  Si  Si11  1  0.00941800  0.18947400  0.62044000  1
  Si  Si12  1  0.00941800  0.18947400  0.37956000  1
  Si  Si13  1  0.01543300  0.19458000  0.00000000  1
  Si  Si14  1  0.35202300  0.85527800  0.87655800  1
  Si  Si15  1  0.35202300  0.85527800  0.12344200  1
  Si  Si16  1  0.31591200  0.47887500  0.12339500  1
  Si  Si17  1  0.31591200  0.47887500  0.87660500  1
  Si  Si18  1  0.18947400  0.18005500  0.37956000  1
  Si  Si19  1  0.18947400  0.18005500  0.62044000  1
  Si  Si20  1  0.19458000  0.17914700  0.00000000  1
  Si  Si21  1  0.52112500  0.83703800  0.87660500  1
  Si  Si22  1  0.52112500  0.83703800  0.12339500  1
  Si  Si23  1  0.30349600  0.30231000  0.19504700  1
  Si  Si24  1  0.30349600  0.30231000  0.80495300  1
  Si  Si25  1  0.50325500  0.64797700  0.12344200  1
  Si  Si26  1  0.50325500  0.64797700  0.87655800  1
  Si  Si27  1  0.49674500  0.35202300  0.12344200  1
  Si  Si28  1  0.49674500  0.35202300  0.87655800  1
  Si  Si29  1  0.69650400  0.69769000  0.19504700  1
  Si  Si30  1  0.69650400  0.69769000  0.80495300  1
  Si  Si31  1  0.47887500  0.16296200  0.87660500  1
  Si  Si32  1  0.47887500  0.16296200  0.12339500  1
  Si  Si33  1  0.80542000  0.82085300  0.00000000  1
  Si  Si34  1  0.81052600  0.81994500  0.37956000  1
  Si  Si35  1  0.81052600  0.81994500  0.62044000  1
  Si  Si36  1  0.68408800  0.52112500  0.87660500  1
  Si  Si37  1  0.68408800  0.52112500  0.12339500  1
  Si  Si38  1  0.64797700  0.14472200  0.12344200  1
  Si  Si39  1  0.64797700  0.14472200  0.87655800  1
  Si  Si40  1  0.98456700  0.80542000  0.00000000  1
  Si  Si41  1  0.99058200  0.81052600  0.37956000  1
  Si  Si42  1  0.99058200  0.81052600  0.62044000  1
  Si  Si43  1  0.85527800  0.50325500  0.12344200  1
  Si  Si44  1  0.85527800  0.50325500  0.87655800  1
  Si  Si45  1  0.99881400  0.69650400  0.19504700  1
  Si  Si46  1  0.99881400  0.69650400  0.80495300  1
  Si  Si47  1  0.83703800  0.31591200  0.12339500  1
  Si  Si48  1  0.83703800  0.31591200  0.87660500  1
  Si  Si49  1  0.69769000  0.00118600  0.80495300  1
  Si  Si50  1  0.69769000  0.00118600  0.19504700  1
  Si  Si51  1  0.81994500  0.00941800  0.62044000  1
  Si  Si52  1  0.81994500  0.00941800  0.37956000  1
  Si  Si53  1  0.82085300  0.01543300  0.00000000  1
  O  O0  1  0.41084000  0.33993200  0.81148800  1
  O  O1  1  0.41084000  0.33993200  0.18851200  1
  O  O2  1  0.07090800  0.41084000  0.81148800  1
  O  O3  1  0.07090800  0.41084000  0.18851200  1
  O  O4  1  0.44434000  0.85963400  0.83867200  1
  O  O5  1  0.44434000  0.85963400  0.16132800  1
  O  O6  1  0.64272000  0.12144200  0.00000000  1
  O  O7  1  0.54145900  0.85902900  0.00000000  1
  O  O8  1  0.73152400  0.24539600  0.14550800  1
  O  O9  1  0.73152400  0.24539600  0.85449200  1
  O  O10  1  0.48612800  0.73152400  0.14550800  1
  O  O11  1  0.48612800  0.73152400  0.85449200  1
  O  O12  1  0.85963400  0.41529400  0.16132800  1
  O  O13  1  0.85963400  0.41529400  0.83867200  1
  O  O14  1  0.61393500  0.89842200  0.18675600  1
  O  O15  1  0.61393500  0.89842200  0.81324400  1
  O  O16  1  0.52127800  0.64272000  0.00000000  1
  O  O17  1  0.85902900  0.31757000  0.00000000  1
  O  O18  1  0.74519500  0.01350000  0.30717300  1
  O  O19  1  0.74519500  0.01350000  0.69282700  1
  O  O20  1  0.77025900  0.02180100  0.89677000  1
  O  O21  1  0.77025900  0.02180100  0.10323000  1
  O  O22  1  0.89842200  0.28448700  0.18675600  1
  O  O23  1  0.89842200  0.28448700  0.81324400  1
  O  O24  1  0.79244900  0.01116700  0.50000000  1
  O  O25  1  0.73169500  0.74519500  0.69282700  1
  O  O26  1  0.73169500  0.74519500  0.30717300  1
  O  O27  1  0.82393600  0.91868600  0.64500000  1
  O  O28  1  0.82393600  0.91868600  0.35500000  1
  O  O29  1  0.74845800  0.77025900  0.89677000  1
  O  O30  1  0.74845800  0.77025900  0.10323000  1
  O  O31  1  0.58470600  0.44434000  0.83867200  1
  O  O32  1  0.58470600  0.44434000  0.16132800  1
  O  O33  1  0.82409000  0.92295800  0.00000000  1
  O  O34  1  0.91868600  0.09475100  0.64500000  1
  O  O35  1  0.91868600  0.09475100  0.35500000  1
  O  O36  1  0.92295800  0.09886700  0.00000000  1
  O  O37  1  0.33993200  0.92909200  0.81148800  1
  O  O38  1  0.33993200  0.92909200  0.18851200  1
  O  O39  1  0.78128100  0.79244900  0.50000000  1
  O  O40  1  0.01350000  0.26830500  0.69282700  1
  O  O41  1  0.01350000  0.26830500  0.30717300  1
  O  O42  1  0.12144200  0.47872200  0.00000000  1
  O  O43  1  0.02180100  0.25154200  0.10323000  1
  O  O44  1  0.02180100  0.25154200  0.89677000  1
  O  O45  1  0.01116700  0.21871900  0.50000000  1
  O  O46  1  0.71551300  0.61393500  0.81324400  1
  O  O47  1  0.71551300  0.61393500  0.18675600  1
  O  O48  1  0.68243000  0.54145900  0.00000000  1
  O  O49  1  0.24539600  0.51387200  0.14550800  1
  O  O50  1  0.24539600  0.51387200  0.85449200  1
  O  O51  1  0.90113300  0.82409000  0.00000000  1
  O  O52  1  0.90524900  0.82393600  0.64500000  1
  O  O53  1  0.90524900  0.82393600  0.35500000  1
  O  O54  1  0.09475100  0.17606400  0.64500000  1
  O  O55  1  0.09475100  0.17606400  0.35500000  1
  O  O56  1  0.09886700  0.17591000  0.00000000  1
  O  O57  1  0.75460400  0.48612800  0.14550800  1
  O  O58  1  0.75460400  0.48612800  0.85449200  1
  O  O59  1  0.31757000  0.45854100  0.00000000  1
  O  O60  1  0.28448700  0.38606500  0.81324400  1
  O  O61  1  0.28448700  0.38606500  0.18675600  1
  O  O62  1  0.98883300  0.78128100  0.50000000  1
  O  O63  1  0.97819900  0.74845800  0.10323000  1
  O  O64  1  0.97819900  0.74845800  0.89677000  1
  O  O65  1  0.87855800  0.52127800  0.00000000  1
  O  O66  1  0.98650000  0.73169500  0.69282700  1
  O  O67  1  0.98650000  0.73169500  0.30717300  1
  O  O68  1  0.21871900  0.20755100  0.50000000  1
  O  O69  1  0.66006800  0.07090800  0.81148800  1
  O  O70  1  0.66006800  0.07090800  0.18851200  1
  O  O71  1  0.07704200  0.90113300  0.00000000  1
  O  O72  1  0.08131400  0.90524900  0.64500000  1
  O  O73  1  0.08131400  0.90524900  0.35500000  1
  O  O74  1  0.17591000  0.07704200  0.00000000  1
  O  O75  1  0.41529400  0.55566000  0.83867200  1
  O  O76  1  0.41529400  0.55566000  0.16132800  1
  O  O77  1  0.25154200  0.22974100  0.89677000  1
  O  O78  1  0.25154200  0.22974100  0.10323000  1
  O  O79  1  0.17606400  0.08131400  0.64500000  1
  O  O80  1  0.17606400  0.08131400  0.35500000  1
  O  O81  1  0.26830500  0.25480500  0.69282700  1
  O  O82  1  0.26830500  0.25480500  0.30717300  1
  O  O83  1  0.20755100  0.98883300  0.50000000  1
  O  O84  1  0.10157800  0.71551300  0.18675600  1
  O  O85  1  0.10157800  0.71551300  0.81324400  1
  O  O86  1  0.22974100  0.97819900  0.89677000  1
  O  O87  1  0.22974100  0.97819900  0.10323000  1
  O  O88  1  0.25480500  0.98650000  0.30717300  1
  O  O89  1  0.25480500  0.98650000  0.69282700  1
  O  O90  1  0.14097100  0.68243000  0.00000000  1
  O  O91  1  0.47872200  0.35728000  0.00000000  1
  O  O92  1  0.38606500  0.10157800  0.18675600  1
  O  O93  1  0.38606500  0.10157800  0.81324400  1
  O  O94  1  0.14036600  0.58470600  0.16132800  1
  O  O95  1  0.14036600  0.58470600  0.83867200  1
  O  O96  1  0.51387200  0.26847600  0.14550800  1
  O  O97  1  0.51387200  0.26847600  0.85449200  1
  O  O98  1  0.26847600  0.75460400  0.14550800  1
  O  O99  1  0.26847600  0.75460400  0.85449200  1
  O  O100  1  0.45854100  0.14097100  0.00000000  1
  O  O101  1  0.35728000  0.87855800  0.00000000  1
  O  O102  1  0.55566000  0.14036600  0.83867200  1
  O  O103  1  0.55566000  0.14036600  0.16132800  1
  O  O104  1  0.92909200  0.58916000  0.81148800  1
  O  O105  1  0.92909200  0.58916000  0.18851200  1
  O  O106  1  0.58916000  0.66006800  0.81148800  1
  O  O107  1  0.58916000  0.66006800  0.18851200  1
loop_
_geom_bond_atom_site_label_1
_geom_bond_atom_site_label_2
_geom_bond_distance
_geom_bond_site_symmetry_2
O0 Si28 1.617597 1_555
O0 Si24 1.622650 1_555
O1 Si27 1.617597 1_555
O1 Si23 1.622650 1_555
O2 Si10 1.617597 1_555
O2 Si8 1.622650 1_555
O3 Si9 1.617597 1_555
O3 Si7 1.622650 1_555
O4 Si14 1.624717 1_555
O4 Si21 1.625106 1_555
O5 Si15 1.624717 1_555
O5 Si22 1.625106 1_555
O6 Si38 1.631028 1_555
O6 Si39 1.631028 1_554
O7 Si22 1.630682 1_555
O7 Si21 1.630682 1_554
O8 Si47 1.624158 1_555
O8 Si38 1.627596 1_555
O9 Si48 1.624158 1_555
O9 Si39 1.627596 1_555
O10 Si22 1.624161 1_555
O10 Si25 1.627596 1_555
O11 Si21 1.624161 1_555
O11 Si26 1.627596 1_555
O12 Si43 1.624717 1_555
O12 Si47 1.625122 1_555
O13 Si44 1.624717 1_555
O13 Si48 1.625122 1_555
O14 Si22 1.624335 1_555
O14 Si50 1.630208 1_565
O15 Si21 1.624335 1_555
O15 Si49 1.630208 1_565
O16 Si25 1.631028 1_555
O16 Si26 1.631028 1_554
O17 Si47 1.630681 1_555
O17 Si48 1.630681 1_554
O18 Si52 1.616480 1_555
O18 Si50 1.619879 1_555
O19 Si51 1.616480 1_555
O19 Si49 1.619879 1_555
O20 Si53 1.621861 1_556
O20 Si49 1.623764 1_555
O21 Si53 1.621861 1_555
O21 Si50 1.623764 1_555
O22 Si47 1.624324 1_555
O22 Si7 1.630208 1_655
O23 Si48 1.624324 1_555
O23 Si8 1.630208 1_655
O24 Si52 1.626342 1_555
O24 Si51 1.626342 1_555
O25 Si35 1.616472 1_555
O25 Si30 1.619879 1_555
O26 Si34 1.616472 1_555
O26 Si29 1.619879 1_555
O27 Si35 1.624561 1_555
O27 Si51 1.625000 1_565
O28 Si34 1.624561 1_555
O28 Si52 1.625000 1_565
O29 Si33 1.621861 1_556
O29 Si30 1.623764 1_555
O30 Si33 1.621861 1_555
O30 Si29 1.623764 1_555
O31 Si28 1.624717 1_555
O31 Si36 1.625117 1_555
O32 Si27 1.624717 1_555
O32 Si37 1.625117 1_555
O33 Si53 1.616983 1_565
O33 Si33 1.617553 1_555
O34 Si51 1.624574 1_555
O34 Si11 1.625000 1_655
O35 Si52 1.624574 1_555
O35 Si12 1.625000 1_655
O36 Si13 1.616992 1_655
O36 Si53 1.617547 1_555
O37 Si14 1.617597 1_555
O37 Si4 1.622650 1_555
O38 Si15 1.617597 1_555
O38 Si3 1.622650 1_555
O39 Si34 1.626342 1_555
O39 Si35 1.626342 1_555
O40 Si11 1.616466 1_555
O40 Si8 1.619879 1_555
O41 Si12 1.616466 1_555
O41 Si7 1.619879 1_555
O42 Si9 1.631028 1_555
O42 Si10 1.631028 1_554
O43 Si13 1.621861 1_555
O43 Si7 1.623764 1_555
O44 Si13 1.621861 1_556
O44 Si8 1.623764 1_555
O45 Si12 1.626342 1_555
O45 Si11 1.626342 1_555
O46 Si36 1.624338 1_555
O46 Si30 1.630208 1_555
O47 Si37 1.624338 1_555
O47 Si29 1.630208 1_555
O48 Si37 1.630685 1_555
O48 Si36 1.630685 1_554
O49 Si16 1.624145 1_555
O49 Si9 1.627596 1_555
O50 Si17 1.624145 1_555
O50 Si10 1.627596 1_555
O51 Si33 1.617000 1_555
O51 Si40 1.617536 1_555
O52 Si42 1.624594 1_555
O52 Si35 1.625000 1_555
O53 Si41 1.624594 1_555
O53 Si34 1.625000 1_555
O54 Si11 1.624594 1_555
O54 Si19 1.625000 1_555
O55 Si12 1.624594 1_555
O55 Si18 1.625000 1_555
O56 Si20 1.617000 1_555
O56 Si13 1.617536 1_555
O57 Si37 1.624145 1_555
O57 Si43 1.627596 1_555
O58 Si36 1.624145 1_555
O58 Si44 1.627596 1_555
O59 Si16 1.630685 1_555
O59 Si17 1.630685 1_554
O60 Si17 1.624338 1_555
O60 Si24 1.630208 1_555
O61 Si16 1.624338 1_555
O61 Si23 1.630208 1_555
O62 Si41 1.626342 1_555
O62 Si42 1.626342 1_555
O63 Si40 1.621861 1_555
O63 Si45 1.623764 1_555
O64 Si40 1.621861 1_556
O64 Si46 1.623764 1_555
O65 Si43 1.631028 1_555
O65 Si44 1.631028 1_554
O66 Si42 1.616466 1_555
O66 Si46 1.619879 1_555
O67 Si41 1.616466 1_555
O67 Si45 1.619879 1_555
O68 Si18 1.626342 1_555
O68 Si19 1.626342 1_555
O69 Si39 1.617597 1_555
O69 Si49 1.622650 1_555
O70 Si38 1.617597 1_555
O70 Si50 1.622650 1_555
O71 Si40 1.616992 1_455
O71 Si0 1.617547 1_555
O72 Si2 1.624574 1_555
O72 Si42 1.625000 1_455
O73 Si1 1.624574 1_555
O73 Si41 1.625000 1_455
O74 Si0 1.616983 1_545
O74 Si20 1.617553 1_555
O75 Si26 1.624717 1_555
O75 Si17 1.625117 1_555
O76 Si25 1.624717 1_555
O76 Si16 1.625117 1_555
O77 Si20 1.621861 1_556
O77 Si24 1.623764 1_555
O78 Si20 1.621861 1_555
O78 Si23 1.623764 1_555
O79 Si19 1.624561 1_555
O79 Si2 1.625000 1_545
O80 Si18 1.624561 1_555
O80 Si1 1.625000 1_545
O81 Si19 1.616472 1_555
O81 Si24 1.619879 1_555
O82 Si18 1.616472 1_555
O82 Si23 1.619879 1_555
O83 Si1 1.626342 1_555
O83 Si2 1.626342 1_555
O84 Si5 1.624324 1_555
O84 Si45 1.630208 1_455
O85 Si6 1.624324 1_555
O85 Si46 1.630208 1_455
O86 Si0 1.621861 1_556
O86 Si4 1.623764 1_555
O87 Si0 1.621861 1_555
O87 Si3 1.623764 1_555
O88 Si1 1.616480 1_555
O88 Si3 1.619879 1_555
O89 Si2 1.616480 1_555
O89 Si4 1.619879 1_555
O90 Si5 1.630681 1_555
O90 Si6 1.630681 1_554
O91 Si27 1.631028 1_555
O91 Si28 1.631028 1_554
O92 Si32 1.624335 1_555
O92 Si3 1.630208 1_545
O93 Si31 1.624335 1_555
O93 Si4 1.630208 1_545
O94 Si9 1.624717 1_555
O94 Si5 1.625122 1_555
O95 Si10 1.624717 1_555
O95 Si6 1.625122 1_555
O96 Si32 1.624161 1_555
O96 Si27 1.627596 1_555
O97 Si31 1.624161 1_555
O97 Si28 1.627596 1_555
O98 Si5 1.624158 1_555
O98 Si15 1.627596 1_555
O99 Si6 1.624158 1_555
O99 Si14 1.627596 1_555
O100 Si32 1.630682 1_555
O100 Si31 1.630682 1_554
O101 Si15 1.631028 1_555
O101 Si14 1.631028 1_554
O102 Si39 1.624717 1_555
O102 Si31 1.625106 1_555
O103 Si38 1.624717 1_555
O103 Si32 1.625106 1_555
O104 Si44 1.617597 1_555
O104 Si46 1.622650 1_555
O105 Si43 1.617597 1_555
O105 Si45 1.622650 1_555
O106 Si26 1.617597 1_555
O106 Si30 1.622650 1_555
O107 Si25 1.617597 1_555
O107 Si29 1.622650 1_555
