# generated using pymatgen
data_U2Zn17
_symmetry_space_group_name_H-M   'P 1'
_cell_length_a   8.86878981
_cell_length_b   8.87738914
_cell_length_c   8.61601749
_cell_angle_alpha   90.04959712
_cell_angle_beta   89.54665864
_cell_angle_gamma   120.04577634
_symmetry_Int_Tables_number   1
_chemical_formula_structural   U2Zn17
_chemical_formula_sum   'U4 Zn34'
_cell_volume   587.17822050
_cell_formula_units_Z   2
loop_
 _symmetry_equiv_pos_site_id
 _symmetry_equiv_pos_as_xyz
  1  'x, y, z'
loop_
 _atom_site_type_symbol
 _atom_site_label
 _atom_site_symmetry_multiplicity
 _atom_site_fract_x
 _atom_site_fract_y
 _atom_site_fract_z
 _atom_site_occupancy
  U  U0  1  0.99987236  0.99985671  0.25001826  1
  U  U1  1  0.00031470  0.00023482  0.74997632  1
  U  U2  1  0.66649647  0.33334202  0.74999661  1
  U  U3  1  0.33336809  0.66665705  0.25009400  1
  Zn  Zn0  1  0.37226290  0.32988029  0.25089441  1
  Zn  Zn1  1  0.37215003  0.04210977  0.25075485  1
  Zn  Zn2  1  0.50079414  0.00217596  0.99929121  1
  Zn  Zn3  1  0.50165052  0.49947382  0.50053419  1
  Zn  Zn4  1  0.67511389  0.83812110  0.02083364  1
  Zn  Zn5  1  0.16166116  0.32401585  0.02089102  1
  Zn  Zn6  1  0.83768213  0.16223277  0.97829677  1
  Zn  Zn7  1  0.32434564  0.16234837  0.97917955  1
  Zn  Zn8  1  0.62784427  0.95773125  0.74894420  1
  Zn  Zn9  1  0.67593464  0.83741285  0.47883914  1
  Zn  Zn10  1  0.33326393  0.66683952  0.89811599  1
  Zn  Zn11  1  0.32970889  0.37230515  0.75027856  1
  Zn  Zn12  1  0.95784792  0.62773021  0.24994590  1
  Zn  Zn13  1  0.16282806  0.32516896  0.47874224  1
  Zn  Zn14  1  0.32997572  0.95773953  0.75004892  1
  Zn  Zn15  1  0.67058197  0.62775802  0.24934173  1
  Zn  Zn16  1  0.66648130  0.33269145  0.39807493  1
  Zn  Zn17  1  0.32520232  0.16242193  0.52107604  1
  Zn  Zn18  1  0.16236430  0.83793020  0.02140684  1
  Zn  Zn19  1  0.99945438  0.49917296  0.99945398  1
  Zn  Zn20  1  0.04234224  0.67007626  0.75087362  1
  Zn  Zn21  1  0.33357157  0.66661175  0.60186823  1
  Zn  Zn22  1  0.67034658  0.04263101  0.24906459  1
  Zn  Zn23  1  0.66678529  0.33388879  0.10189307  1
  Zn  Zn24  1  0.83752149  0.67569015  0.97918285  1
  Zn  Zn25  1  0.95802166  0.33033371  0.24978507  1
  Zn  Zn26  1  0.83801572  0.16201417  0.52057184  1
  Zn  Zn27  1  0.04247786  0.37221670  0.74926075  1
  Zn  Zn28  1  0.83776401  0.67541787  0.52165896  1
  Zn  Zn29  1  0.49825464  0.50039877  0.00082557  1
  Zn  Zn30  1  0.62788457  0.67032426  0.75073181  1
  Zn  Zn31  1  0.16193853  0.83761579  0.47927438  1
  Zn  Zn32  1  0.49949261  0.99778437  0.49922857  1
  Zn  Zn33  1  0.99838353  0.49964784  0.50075038  1
loop_
_geom_bond_atom_site_label_1
_geom_bond_atom_site_label_2
_geom_bond_distance
_geom_bond_site_symmetry_2
U0 Zn15 3.127360 1_555
U0 Zn22 3.129999 1_565
U0 Zn1 3.130786 1_665
U0 Zn0 3.130819 1_665
U0 Zn12 3.133554 1_555
U0 Zn25 3.136118 1_565
U0 Zn9 3.160193 1_555
U0 Zn18 3.169789 1_655
U0 Zn5 3.172924 1_665
U0 Zn31 3.188243 1_655
U0 Zn13 3.188752 1_665
U0 Zn4 3.193805 1_555
U0 Zn7 3.398544 1_664
U0 Zn26 3.402551 1_565
U0 Zn28 3.413501 1_555
U0 Zn24 3.419391 1_554
U0 Zn6 3.429784 1_564
U0 Zn17 3.434087 1_665
U1 Zn11 3.127560 1_555
U1 Zn14 3.129667 1_545
U1 Zn30 3.130508 1_445
U1 Zn8 3.131606 1_445
U1 Zn27 3.131780 1_555
U1 Zn20 3.134245 1_545
U1 Zn17 3.166313 1_555
U1 Zn6 3.169518 1_455
U1 Zn24 3.175626 1_445
U1 Zn28 3.183578 1_445
U1 Zn26 3.187672 1_455
U1 Zn7 3.189508 1_555
U1 Zn4 3.402715 1_446
U1 Zn31 3.404723 1_545
U1 Zn13 3.413874 1_555
U1 Zn5 3.417665 1_556
U1 Zn18 3.426871 1_546
U1 Zn9 3.429214 1_445
U2 Zn23 3.031965 1_556
U2 Zn16 3.032165 1_555
U2 Zn14 3.171771 1_545
U2 Zn20 3.173207 1_655
U2 Zn11 3.174218 1_555
U2 Zn27 3.175744 1_655
U2 Zn8 3.176709 1_545
U2 Zn30 3.176835 1_555
U2 Zn7 3.272491 1_555
U2 Zn28 3.277732 1_555
U2 Zn26 3.286138 1_555
U2 Zn6 3.292925 1_555
U2 Zn17 3.293128 1_555
U2 Zn24 3.295046 1_555
U2 Zn33 3.318002 1_555
U2 Zn2 3.324276 1_555
U2 Zn3 3.338658 1_555
U2 Zn19 3.353869 1_555
U2 Zn29 3.354937 1_556
U2 Zn32 3.370019 1_545
U3 Zn21 3.030908 1_555
U3 Zn10 3.032658 1_554
U3 Zn25 3.169082 1_455
U3 Zn12 3.171535 1_455
U3 Zn1 3.174824 1_565
U3 Zn22 3.175325 1_565
U3 Zn0 3.176497 1_555
U3 Zn15 3.177627 1_555
U3 Zn4 3.270416 1_555
U3 Zn13 3.275744 1_555
U3 Zn31 3.282057 1_555
U3 Zn18 3.294816 1_555
U3 Zn5 3.296955 1_555
U3 Zn9 3.300050 1_555
U3 Zn29 3.321987 1_555
U3 Zn32 3.334893 1_555
U3 Zn33 3.343916 1_455
U3 Zn2 3.358212 1_564
U3 Zn19 3.366092 1_454
U3 Zn3 3.370585 1_555
Zn0 Zn29 2.540880 1_555
Zn0 Zn3 2.552109 1_555
Zn0 Zn1 2.554149 1_555
Zn0 Zn15 2.643162 1_555
Zn0 Zn13 2.677756 1_555
Zn0 Zn17 2.678157 1_555
Zn0 Zn7 2.692593 1_554
Zn0 Zn5 2.716529 1_555
Zn0 Zn23 2.885512 1_555
Zn0 Zn16 2.899067 1_555
Zn1 Zn2 2.546795 1_554
Zn1 Zn32 2.549179 1_545
Zn1 Zn22 2.642254 1_555
Zn1 Zn17 2.676649 1_555
Zn1 Zn31 2.684573 1_545
Zn1 Zn7 2.695814 1_554
Zn1 Zn18 2.706814 1_545
Zn1 Zn23 2.890910 1_555
Zn1 Zn16 2.895385 1_555
Zn2 Zn8 2.546210 1_545
Zn2 Zn22 2.555499 1_556
Zn2 Zn6 2.592148 1_555
Zn2 Zn7 2.594928 1_555
Zn2 Zn4 2.608700 1_546
Zn2 Zn23 2.700966 1_556
Zn3 Zn30 2.555975 1_555
Zn3 Zn9 2.603283 1_555
Zn4 Zn6 2.516157 1_564
Zn4 Zn8 2.693812 1_554
Zn5 Zn7 2.516963 1_554
Zn5 Zn6 2.517270 1_454
Zn6 Zn8 2.707938 1_545
Zn8 Zn9 2.678609 1_555
Zn10 Zn21 2.552456 1_555
Zn10 Zn19 2.700191 1_455
Zn10 Zn29 2.700977 1_556
Zn10 Zn2 2.723289 1_565
Zn10 Zn18 2.830113 1_556
Zn10 Zn5 2.835369 1_556
Zn10 Zn4 2.837849 1_556
Zn10 Zn30 2.882278 1_555
Zn10 Zn8 2.888373 1_555
Zn10 Zn11 2.893516 1_555
Zn10 Zn14 2.894659 1_555
Zn10 Zn20 2.897139 1_555
Zn10 Zn27 2.903199 1_555
Zn11 Zn3 2.541352 1_555
Zn11 Zn27 2.547083 1_555
Zn11 Zn29 2.555823 1_556
Zn11 Zn30 2.643245 1_555
Zn11 Zn5 2.673635 1_556
Zn11 Zn13 2.696677 1_555
Zn11 Zn7 2.698518 1_555
Zn11 Zn17 2.700622 1_555
Zn11 Zn21 2.894442 1_555
Zn12 Zn15 2.547871 1_555
Zn12 Zn19 2.549797 1_554
Zn12 Zn33 2.552963 1_555
Zn12 Zn25 2.640875 1_555
Zn12 Zn28 2.684107 1_555
Zn12 Zn18 2.685117 1_655
Zn12 Zn24 2.694177 1_554
Zn12 Zn31 2.706489 1_655
Zn12 Zn16 2.888337 1_555
Zn12 Zn23 2.898037 1_555
Zn13 Zn26 2.516436 1_455
Zn13 Zn17 2.527220 1_555
Zn13 Zn3 2.609892 1_555
Zn13 Zn33 2.611383 1_455
Zn13 Zn27 2.674257 1_555
Zn13 Zn25 2.707979 1_455
Zn13 Zn21 2.833671 1_555
Zn14 Zn32 2.543929 1_555
Zn14 Zn20 2.550525 1_555
Zn14 Zn2 2.552238 1_565
Zn14 Zn8 2.641712 1_555
Zn14 Zn18 2.678317 1_556
Zn14 Zn31 2.694495 1_555
Zn14 Zn17 2.698162 1_565
Zn14 Zn7 2.698568 1_565
Zn14 Zn21 2.895968 1_555
Zn15 Zn3 2.543633 1_555
Zn15 Zn29 2.552678 1_555
Zn15 Zn24 2.666002 1_554
Zn15 Zn9 2.698673 1_555
Zn15 Zn4 2.700985 1_555
Zn15 Zn28 2.703263 1_555
Zn15 Zn23 2.885805 1_555
Zn15 Zn16 2.900789 1_555
Zn16 Zn23 2.551914 1_555
Zn16 Zn3 2.693175 1_555
Zn16 Zn33 2.704455 1_555
Zn16 Zn32 2.714236 1_545
Zn16 Zn17 2.817738 1_555
Zn16 Zn26 2.839091 1_555
Zn16 Zn28 2.844306 1_555
Zn16 Zn25 2.884462 1_555
Zn16 Zn22 2.891713 1_555
Zn17 Zn31 2.523106 1_545
Zn17 Zn3 2.596304 1_555
Zn17 Zn32 2.611153 1_545
Zn18 Zn7 2.518123 1_564
Zn18 Zn24 2.523341 1_454
Zn18 Zn2 2.603861 1_564
Zn18 Zn19 2.611391 1_454
Zn18 Zn20 2.689156 1_554
Zn19 Zn20 2.539399 1_655
Zn19 Zn25 2.544630 1_556
Zn19 Zn27 2.544825 1_655
Zn19 Zn6 2.597002 1_555
Zn19 Zn5 2.601182 1_656
Zn19 Zn24 2.608941 1_555
Zn19 Zn23 2.694929 1_556
Zn20 Zn33 2.549968 1_455
Zn20 Zn27 2.644842 1_555
Zn20 Zn31 2.683324 1_555
Zn20 Zn24 2.684341 1_455
Zn20 Zn28 2.708777 1_455
Zn20 Zn21 2.889170 1_555
Zn21 Zn32 2.691183 1_555
Zn21 Zn3 2.716219 1_555
Zn21 Zn33 2.723872 1_455
Zn21 Zn9 2.825540 1_555
Zn21 Zn31 2.842438 1_555
Zn21 Zn27 2.881895 1_555
Zn21 Zn8 2.896313 1_555
Zn21 Zn30 2.902772 1_555
Zn22 Zn32 2.538911 1_545
Zn22 Zn25 2.550975 1_555
Zn22 Zn6 2.672823 1_554
Zn22 Zn4 2.689636 1_545
Zn22 Zn26 2.698041 1_555
Zn22 Zn9 2.709059 1_545
Zn22 Zn23 2.895231 1_555
Zn23 Zn29 2.722602 1_555
Zn23 Zn24 2.827888 1_554
Zn23 Zn6 2.835108 1_554
Zn23 Zn7 2.842037 1_554
Zn23 Zn25 2.903431 1_555
Zn24 Zn4 2.520598 1_556
Zn24 Zn29 2.610103 1_556
Zn24 Zn30 2.702296 1_555
Zn25 Zn33 2.555547 1_555
Zn25 Zn26 2.680127 1_555
Zn25 Zn5 2.683130 1_655
Zn25 Zn6 2.697444 1_554
Zn26 Zn9 2.521453 1_545
Zn26 Zn33 2.600774 1_555
Zn26 Zn32 2.607338 1_545
Zn26 Zn8 2.682908 1_545
Zn26 Zn27 2.704527 1_655
Zn27 Zn33 2.545138 1_455
Zn27 Zn6 2.688352 1_455
Zn27 Zn5 2.696573 1_556
Zn28 Zn31 2.512232 1_655
Zn28 Zn9 2.517987 1_555
Zn28 Zn3 2.589266 1_555
Zn28 Zn33 2.591858 1_555
Zn28 Zn30 2.687001 1_555
Zn29 Zn30 2.543671 1_554
Zn29 Zn5 2.589314 1_555
Zn29 Zn4 2.602469 1_555
Zn29 Zn7 2.605425 1_554
Zn30 Zn8 2.551662 1_555
Zn30 Zn4 2.682320 1_556
Zn30 Zn9 2.688303 1_555
Zn31 Zn32 2.599745 1_555
Zn31 Zn33 2.603578 1_455
Zn32 Zn8 2.548879 1_555
Zn32 Zn9 2.594711 1_555
