# generated using pymatgen
data_NaIO3
_symmetry_space_group_name_H-M   'P 1'
_cell_length_a   5.56622400
_cell_length_b   7.42127800
_cell_length_c   8.59996000
_cell_angle_alpha   90.00000000
_cell_angle_beta   90.00000000
_cell_angle_gamma   90.00000000
_symmetry_Int_Tables_number   1
_chemical_formula_structural   NaIO3
_chemical_formula_sum   'Na4 I4 O12'
_cell_volume   355.25141080
_cell_formula_units_Z   4
loop_
 _symmetry_equiv_pos_site_id
 _symmetry_equiv_pos_as_xyz
  1  'x, y, z'
loop_
 _atom_site_type_symbol
 _atom_site_label
 _atom_site_symmetry_multiplicity
 _atom_site_fract_x
 _atom_site_fract_y
 _atom_site_fract_z
 _atom_site_occupancy
  Na  Na0  1  0.99711600  0.48614200  0.49614000  1
  Na  Na1  1  0.49711600  0.01385800  0.49614000  1
  Na  Na2  1  0.50288400  0.98614200  0.99614000  1
  Na  Na3  1  0.00288400  0.51385800  0.99614000  1
  I  I0  1  0.02475100  0.99570100  0.75155600  1
  I  I1  1  0.52475100  0.50429900  0.75155600  1
  I  I2  1  0.47524900  0.49570100  0.25155600  1
  I  I3  1  0.97524900  0.00429900  0.25155600  1
  O  O0  1  0.19696300  0.47722700  0.74635200  1
  O  O1  1  0.59901700  0.65356700  0.91358500  1
  O  O2  1  0.11145600  0.85901900  0.58416700  1
  O  O3  1  0.61145600  0.64098100  0.58416700  1
  O  O4  1  0.90098300  0.15356700  0.41358500  1
  O  O5  1  0.09901700  0.84643300  0.91358500  1
  O  O6  1  0.40098300  0.34643300  0.41358500  1
  O  O7  1  0.30303700  0.97722700  0.24635200  1
  O  O8  1  0.80303700  0.52277300  0.24635200  1
  O  O9  1  0.69696300  0.02277300  0.74635200  1
  O  O10  1  0.88854400  0.14098100  0.08416700  1
  O  O11  1  0.38854400  0.35901900  0.08416700  1
loop_
_geom_bond_atom_site_label_1
_geom_bond_atom_site_label_2
_geom_bond_distance
_geom_bond_site_symmetry_2
Na0 O8 2.419823 1_555
Na0 O0 2.423241 1_655
Na0 O3 2.549848 1_555
Na0 O6 2.575387 1_655
Na0 O4 2.623368 1_555
Na0 O2 2.938653 1_655
Na1 O7 2.419823 1_545
Na1 O9 2.423241 1_555
Na1 O2 2.549848 1_545
Na1 O4 2.575387 1_555
Na1 O6 2.623368 1_555
Na1 O3 2.938653 1_545
Na2 O9 2.419823 1_565
Na2 O7 2.423241 1_556
Na2 O10 2.549848 1_566
Na2 O5 2.575387 1_555
Na2 O1 2.623368 1_555
Na2 O11 2.938653 1_566
Na3 O0 2.419823 1_555
Na3 O8 2.423241 1_456
Na3 O11 2.549848 1_556
Na3 O1 2.575387 1_455
Na3 O5 2.623368 1_555
Na3 O10 2.938653 1_456
I0 O2 1.825954 1_555
I0 O5 1.827484 1_555
I0 O9 1.836115 1_465
I1 O3 1.825954 1_555
I1 O1 1.827484 1_555
I1 O0 1.836115 1_555
I2 O11 1.825954 1_555
I2 O6 1.827484 1_555
I2 O8 1.836115 1_555
I3 O10 1.825954 1_555
I3 O4 1.827484 1_555
I3 O7 1.836115 1_645
