# generated using pymatgen
data_KMnF3
_symmetry_space_group_name_H-M   'P 1'
_cell_length_a   5.87593249
_cell_length_b   5.87593281
_cell_length_c   5.91420643
_cell_angle_alpha   119.78643448
_cell_angle_beta   119.78643462
_cell_angle_gamma   89.99948856
_symmetry_Int_Tables_number   1
_chemical_formula_structural   KMnF3
_chemical_formula_sum   'K2 Mn2 F6'
_cell_volume   145.31715903
_cell_formula_units_Z   2
loop_
 _symmetry_equiv_pos_site_id
 _symmetry_equiv_pos_as_xyz
  1  'x, y, z'
loop_
 _atom_site_type_symbol
 _atom_site_label
 _atom_site_symmetry_multiplicity
 _atom_site_fract_x
 _atom_site_fract_y
 _atom_site_fract_z
 _atom_site_occupancy
  K  K0  1  0.75000266  0.25000266  0.50000633  1
  K  K1  1  0.24999734  0.74999734  0.49999367  1
  Mn  Mn0  1  0.50000000  0.50000000  0.00000000  1
  Mn  Mn1  1  -0.00000000  -0.00000000  0.00000000  1
  F  F0  1  0.75000000  0.75000000  0.50000000  1
  F  F1  1  0.25000000  0.25000000  0.50000000  1
  F  F2  1  0.78556487  0.28556487  0.00000000  1
  F  F3  1  0.71443466  0.78556534  0.00000000  1
  F  F4  1  0.21443513  0.71443513  -0.00000000  1
  F  F5  1  0.28556534  0.21443466  -0.00000000  1
loop_
_geom_bond_atom_site_label_1
_geom_bond_atom_site_label_2
_geom_bond_distance
_geom_bond_site_symmetry_2
F0 Mn0 2.104424 1_555
F0 Mn1 2.104424 1_666
F0 K1 2.937963 1_555
F0 K0 2.937963 1_565
F0 K1 2.937969 1_655
F0 K0 2.937969 1_555
F1 Mn0 2.104424 1_556
F1 Mn1 2.104424 1_555
F1 K0 2.937963 1_555
F1 K1 2.937963 1_545
F1 K0 2.937969 1_455
F1 K1 2.937969 1_555
F2 Mn0 2.098363 1_555
F2 Mn1 2.098363 1_655
F2 K0 2.757486 1_554
F2 K1 2.757493 1_655
F2 K1 3.171726 1_544
F2 K0 3.171731 1_555
F3 Mn1 2.098382 1_665
F3 Mn0 2.098382 1_555
F3 K1 2.757518 1_554
F3 K0 2.757518 1_565
F3 K1 3.171680 1_655
F3 K0 3.171680 1_554
F4 Mn0 2.098363 1_555
F4 Mn1 2.098363 1_565
F4 K1 2.757486 1_555
F4 K0 2.757493 1_454
F4 K0 3.171726 1_565
F4 K1 3.171731 1_554
F5 Mn1 2.098382 1_555
F5 Mn0 2.098382 1_555
F5 K0 2.757518 1_555
F5 K1 2.757518 1_544
F5 K0 3.171680 1_454
F5 K1 3.171680 1_555
