# generated using pymatgen
data_ZrTe
_symmetry_space_group_name_H-M   'P 1'
_cell_length_a   3.76174154
_cell_length_b   3.76174188
_cell_length_c   7.87981508
_cell_angle_alpha   90.00000000
_cell_angle_beta   90.00000000
_cell_angle_gamma   119.99999700
_symmetry_Int_Tables_number   1
_chemical_formula_structural   ZrTe
_chemical_formula_sum   'Zr2 Te2'
_cell_volume   96.56608307
_cell_formula_units_Z   2
loop_
 _symmetry_equiv_pos_site_id
 _symmetry_equiv_pos_as_xyz
  1  'x, y, z'
loop_
 _atom_site_type_symbol
 _atom_site_label
 _atom_site_symmetry_multiplicity
 _atom_site_fract_x
 _atom_site_fract_y
 _atom_site_fract_z
 _atom_site_occupancy
  Zr  Zr0  1  -0.00000000  -0.00000000  0.00000000  1
  Zr  Zr1  1  -0.00000000  -0.00000000  0.50000000  1
  Te  Te0  1  0.33333300  0.66666700  0.25000000  1
  Te  Te1  1  0.66666700  0.33333300  0.75000000  1
loop_
_geom_bond_atom_site_label_1
_geom_bond_atom_site_label_2
_geom_bond_distance
_geom_bond_site_symmetry_2
Te0 Zr0 2.932168 1_565
Te0 Zr1 2.932168 1_565
Te0 Zr1 2.932170 1_665
Te0 Zr0 2.932170 1_665
Te0 Zr1 2.932170 1_555
Te0 Zr0 2.932170 1_555
Te1 Zr0 2.932168 1_656
Te1 Zr1 2.932168 1_655
Te1 Zr0 2.932170 1_556
Te1 Zr1 2.932170 1_555
Te1 Zr0 2.932170 1_666
Te1 Zr1 2.932170 1_665
