# generated using pymatgen
data_BiPd
_symmetry_space_group_name_H-M   'P 1'
_cell_length_a   5.76524489
_cell_length_b   5.76524489
_cell_length_c   10.79936800
_cell_angle_alpha   90.00000000
_cell_angle_beta   90.00000000
_cell_angle_gamma   101.54178363
_symmetry_Int_Tables_number   1
_chemical_formula_structural   BiPd
_chemical_formula_sum   'Bi8 Pd8'
_cell_volume   351.69161111
_cell_formula_units_Z   8
loop_
 _symmetry_equiv_pos_site_id
 _symmetry_equiv_pos_as_xyz
  1  'x, y, z'
loop_
 _atom_site_type_symbol
 _atom_site_label
 _atom_site_symmetry_multiplicity
 _atom_site_fract_x
 _atom_site_fract_y
 _atom_site_fract_z
 _atom_site_occupancy
  Bi  Bi0  1  0.39250800  0.85343000  0.27927000  1
  Bi  Bi1  1  0.12272500  0.12272500  0.99366300  1
  Bi  Bi2  1  0.85343000  0.39250800  0.27927000  1
  Bi  Bi3  1  0.14657000  0.60749200  0.77927000  1
  Bi  Bi4  1  0.36703300  0.36703300  0.49868200  1
  Bi  Bi5  1  0.63296700  0.63296700  0.99868200  1
  Bi  Bi6  1  0.60749200  0.14657000  0.77927000  1
  Bi  Bi7  1  0.87727500  0.87727500  0.49366300  1
  Pd  Pd0  1  0.09063200  0.09063200  0.72112000  1
  Pd  Pd1  1  0.33218300  0.33218300  0.22800000  1
  Pd  Pd2  1  0.13206000  0.62325400  0.05599700  1
  Pd  Pd3  1  0.66781700  0.66781700  0.72800000  1
  Pd  Pd4  1  0.37674600  0.86794000  0.55599700  1
  Pd  Pd5  1  0.86794000  0.37674600  0.55599700  1
  Pd  Pd6  1  0.62325400  0.13206000  0.05599700  1
  Pd  Pd7  1  0.90936800  0.90936800  0.22112000  1
loop_
_geom_bond_atom_site_label_1
_geom_bond_atom_site_label_2
_geom_bond_distance
_geom_bond_site_symmetry_2
Bi0 Pd1 2.903440 1_565
Bi0 Pd7 2.935370 1_455
Bi0 Pd4 2.991536 1_555
Bi0 Pd7 2.998861 1_555
Bi0 Pd2 3.005359 1_555
Bi0 Pd1 3.006662 1_555
Bi0 Pd6 3.051053 1_565
Bi1 Pd7 2.907657 1_446
Bi1 Pd0 2.952581 1_555
Bi1 Pd2 2.953135 1_556
Bi1 Pd6 2.953135 1_556
Bi1 Pd1 2.955900 1_556
Bi1 Pd6 2.968165 1_456
Bi1 Pd2 2.968165 1_546
Bi2 Pd1 2.903440 1_655
Bi2 Pd7 2.935370 1_545
Bi2 Pd5 2.991536 1_555
Bi2 Pd7 2.998861 1_555
Bi2 Pd6 3.005359 1_555
Bi2 Pd1 3.006662 1_555
Bi2 Pd2 3.051053 1_655
Bi3 Pd3 2.903440 1_455
Bi3 Pd0 2.935370 1_565
Bi3 Pd2 2.991536 1_556
Bi3 Pd0 2.998861 1_555
Bi3 Pd4 3.005359 1_555
Bi3 Pd3 3.006662 1_555
Bi3 Pd5 3.051053 1_455
Bi4 Pd1 2.934220 1_555
Bi4 Pd5 2.942997 1_555
Bi4 Pd4 2.942997 1_555
Bi4 Pd4 2.954678 1_545
Bi4 Pd5 2.954678 1_455
Bi4 Pd0 3.135759 1_555
Bi4 Pd3 3.308146 1_555
Bi5 Pd3 2.934220 1_555
Bi5 Pd2 2.942997 1_556
Bi5 Pd6 2.942997 1_556
Bi5 Pd6 2.954678 1_566
Bi5 Pd2 2.954678 1_656
Bi5 Pd7 3.135759 1_556
Bi5 Pd1 3.308146 1_556
Bi6 Pd3 2.903440 1_545
Bi6 Pd0 2.935370 1_655
Bi6 Pd6 2.991536 1_556
Bi6 Pd0 2.998861 1_555
Bi6 Pd5 3.005359 1_555
Bi6 Pd3 3.006662 1_555
Bi6 Pd4 3.051053 1_545
Bi7 Pd0 2.907657 1_665
Bi7 Pd7 2.952581 1_555
Bi7 Pd4 2.953135 1_555
Bi7 Pd5 2.953135 1_555
Bi7 Pd3 2.955900 1_555
Bi7 Pd4 2.968165 1_655
Bi7 Pd5 2.968165 1_565
Pd0 Pd5 2.897686 1_455
Pd0 Pd4 2.897686 1_545
Pd0 Pd3 3.084124 1_445
Pd1 Pd6 2.893497 1_555
Pd1 Pd2 2.893497 1_555
Pd1 Pd7 3.084124 1_445
Pd2 Pd7 2.897686 1_455
Pd3 Pd5 2.893497 1_555
Pd3 Pd4 2.893497 1_555
Pd6 Pd7 2.897686 1_545
