# generated using pymatgen
data_Ba2BN2Cl
_symmetry_space_group_name_H-M   'P 1'
_cell_length_a   12.88779515
_cell_length_b   12.88779515
_cell_length_c   12.88779515
_cell_angle_alpha   109.47122063
_cell_angle_beta   109.47122063
_cell_angle_gamma   109.47122063
_symmetry_Int_Tables_number   1
_chemical_formula_structural   Ba2BN2Cl
_chemical_formula_sum   'Ba24 B12 N24 Cl12'
_cell_volume   1647.83598496
_cell_formula_units_Z   12
loop_
 _symmetry_equiv_pos_site_id
 _symmetry_equiv_pos_as_xyz
  1  'x, y, z'
loop_
 _atom_site_type_symbol
 _atom_site_label
 _atom_site_symmetry_multiplicity
 _atom_site_fract_x
 _atom_site_fract_y
 _atom_site_fract_z
 _atom_site_occupancy
  Ba  Ba0  1  0.84088000  0.09088000  0.75000000  1
  Ba  Ba1  1  0.50000000  0.00000000  0.43742700  1
  Ba  Ba2  1  0.40912000  0.65912000  0.75000000  1
  Ba  Ba3  1  0.75000000  0.40912000  0.65912000  1
  Ba  Ba4  1  0.43742700  0.50000000  0.00000000  1
  Ba  Ba5  1  0.43742700  0.43742700  0.43742700  1
  Ba  Ba6  1  0.09088000  0.84088000  0.25000000  1
  Ba  Ba7  1  0.65912000  0.40912000  0.25000000  1
  Ba  Ba8  1  0.65912000  0.75000000  0.40912000  1
  Ba  Ba9  1  0.00000000  0.43742700  0.50000000  1
  Ba  Ba10  1  0.09088000  0.75000000  0.84088000  1
  Ba  Ba11  1  0.84088000  0.25000000  0.09088000  1
  Ba  Ba12  1  0.50000000  0.00000000  0.06257300  1
  Ba  Ba13  1  0.75000000  0.50000000  0.00000000  1
  Ba  Ba14  1  0.25000000  0.65912000  0.40912000  1
  Ba  Ba15  1  0.06257300  0.06257300  0.06257300  1
  Ba  Ba16  1  0.75000000  0.84088000  0.09088000  1
  Ba  Ba17  1  0.00000000  0.06257300  0.50000000  1
  Ba  Ba18  1  0.25000000  0.09088000  0.84088000  1
  Ba  Ba19  1  0.40912000  0.25000000  0.65912000  1
  Ba  Ba20  1  0.06257300  0.50000000  0.00000000  1
  Ba  Ba21  1  0.50000000  0.00000000  0.75000000  1
  Ba  Ba22  1  0.00000000  0.75000000  0.50000000  1
  Ba  Ba23  1  0.75000000  0.75000000  0.75000000  1
  B  B0  1  0.53905700  0.25000000  0.96094300  1
  B  B1  1  0.78905700  0.57811400  0.53905700  1
  B  B2  1  0.25000000  0.78905700  0.71094300  1
  B  B3  1  0.25000000  0.96094300  0.53905700  1
  B  B4  1  0.57811400  0.53905700  0.78905700  1
  B  B5  1  0.96094300  0.92188600  0.71094300  1
  B  B6  1  0.71094300  0.96094300  0.92188600  1
  B  B7  1  0.53905700  0.78905700  0.57811400  1
  B  B8  1  0.71094300  0.25000000  0.78905700  1
  B  B9  1  0.78905700  0.71094300  0.25000000  1
  B  B10  1  0.92188600  0.71094300  0.96094300  1
  B  B11  1  0.96094300  0.53905700  0.25000000  1
  N  N0  1  0.60300300  0.19713200  0.67916300  1
  N  N1  1  0.82083700  0.30286800  0.89699700  1
  N  N2  1  0.19713200  0.67916300  0.60300300  1
  N  N3  1  0.89699700  0.57616000  0.59412900  1
  N  N4  1  0.60300300  0.90587100  0.92384000  1
  N  N5  1  0.30286800  0.90587100  0.48203100  1
  N  N6  1  0.90587100  0.92384000  0.60300300  1
  N  N7  1  0.30286800  0.89699700  0.82083700  1
  N  N8  1  0.57616000  0.59412900  0.89699700  1
  N  N9  1  0.59412900  0.19713200  0.01796900  1
  N  N10  1  0.67916300  0.57616000  0.48203100  1
  N  N11  1  0.59412900  0.89699700  0.57616000  1
  N  N12  1  0.01796900  0.92384000  0.82083700  1
  N  N13  1  0.92384000  0.60300300  0.90587100  1
  N  N14  1  0.82083700  0.01796900  0.92384000  1
  N  N15  1  0.89699700  0.82083700  0.30286800  1
  N  N16  1  0.48203100  0.67916300  0.57616000  1
  N  N17  1  0.90587100  0.48203100  0.30286800  1
  N  N18  1  0.19713200  0.01796900  0.59412900  1
  N  N19  1  0.57616000  0.48203100  0.67916300  1
  N  N20  1  0.01796900  0.59412900  0.19713200  1
  N  N21  1  0.67916300  0.60300300  0.19713200  1
  N  N22  1  0.48203100  0.30286800  0.90587100  1
  N  N23  1  0.92384000  0.82083700  0.01796900  1
  Cl  Cl0  1  0.60915200  0.89084800  0.25000000  1
  Cl  Cl1  1  0.89084800  0.14084800  0.28169700  1
  Cl  Cl2  1  0.60915200  0.21830300  0.35915200  1
  Cl  Cl3  1  0.21830300  0.35915200  0.60915200  1
  Cl  Cl4  1  0.14084800  0.35915200  0.25000000  1
  Cl  Cl5  1  0.35915200  0.25000000  0.14084800  1
  Cl  Cl6  1  0.35915200  0.60915200  0.21830300  1
  Cl  Cl7  1  0.25000000  0.14084800  0.35915200  1
  Cl  Cl8  1  0.89084800  0.25000000  0.60915200  1
  Cl  Cl9  1  0.25000000  0.60915200  0.89084800  1
  Cl  Cl10  1  0.14084800  0.28169700  0.89084800  1
  Cl  Cl11  1  0.28169700  0.89084800  0.14084800  1
loop_
_geom_bond_atom_site_label_1
_geom_bond_atom_site_label_2
_geom_bond_distance
_geom_bond_site_symmetry_2
Ba0 N11 2.756199 1_545
Ba0 N14 2.756199 1_555
Ba0 N1 2.909649 1_555
Ba0 N6 2.909649 1_545
Ba0 Cl8 3.208689 1_555
Ba0 Cl10 3.208691 1_655
Ba1 N0 2.764160 1_555
Ba1 N11 2.764160 1_545
Ba1 N5 2.764160 1_545
Ba1 Cl2 3.333422 1_555
Ba1 Cl11 3.333428 1_545
Ba1 Cl0 3.333432 1_545
Ba2 N16 2.756199 1_555
Ba2 N4 2.756199 1_555
Ba2 N8 2.909649 1_555
Ba2 N2 2.909649 1_555
Ba2 Cl9 3.208689 1_555
Ba2 Cl3 3.208691 1_555
Ba3 N19 2.756199 1_555
Ba3 N13 2.756199 1_555
Ba3 N3 2.909649 1_555
Ba3 N0 2.909649 1_555
Ba3 Cl8 3.208689 1_555
Ba3 Cl2 3.208691 1_555
Ba4 N21 2.764160 1_555
Ba4 N8 2.764160 1_554
Ba4 N22 2.764160 1_554
Ba4 Cl6 3.333422 1_555
Ba4 Cl10 3.333428 1_554
Ba4 Cl9 3.333432 1_554
Ba5 N10 2.764160 1_555
Ba5 N16 2.764160 1_555
Ba5 N19 2.764160 1_555
Ba5 Cl7 3.333432 1_555
Ba5 Cl4 3.333432 1_555
Ba5 Cl5 3.333432 1_555
Ba6 N20 2.756199 1_555
Ba6 N15 2.756199 1_455
Ba6 N23 2.909649 1_455
Ba6 N5 2.909649 1_555
Ba6 Cl7 3.208689 1_565
Ba6 Cl11 3.208700 1_555
Ba7 N21 2.756199 1_555
Ba7 N17 2.756199 1_555
Ba7 N10 2.909649 1_555
Ba7 N9 2.909649 1_555
Ba7 Cl5 3.208689 1_555
Ba7 Cl2 3.208700 1_555
Ba8 N10 2.756199 1_555
Ba8 N6 2.756199 1_555
Ba8 N11 2.909649 1_555
Ba8 N21 2.909649 1_555
Ba8 Cl0 3.208689 1_555
Ba8 Cl6 3.208691 1_555
Ba9 N2 2.764160 1_555
Ba9 N17 2.764160 1_455
Ba9 N3 2.764160 1_455
Ba9 Cl3 3.333422 1_555
Ba9 Cl1 3.333428 1_455
Ba9 Cl8 3.333432 1_455
Ba10 N3 2.756199 1_455
Ba10 N12 2.756199 1_555
Ba10 N7 2.909649 1_555
Ba10 N13 2.909649 1_455
Ba10 Cl9 3.208689 1_555
Ba10 Cl11 3.208691 1_556
Ba11 N9 2.756199 1_555
Ba11 N1 2.756199 1_554
Ba11 N14 2.909649 1_554
Ba11 N17 2.909649 1_555
Ba11 Cl4 3.208689 1_655
Ba11 Cl1 3.208700 1_555
Ba12 N4 2.764160 1_544
Ba12 N9 2.764160 1_555
Ba12 N7 2.764160 1_544
Ba12 Cl11 3.333422 1_545
Ba12 Cl2 3.333428 1_555
Ba12 Cl0 3.333432 1_545
Ba13 N20 3.025902 1_655
Ba13 N13 3.025902 1_554
Ba13 N21 3.025902 1_555
Ba13 N22 3.025902 1_554
Ba13 N1 3.025902 1_554
Ba13 N8 3.025902 1_554
Ba14 N2 2.756199 1_555
Ba14 N5 2.756199 1_555
Ba14 N20 2.909649 1_555
Ba14 N16 2.909649 1_555
Ba14 Cl4 3.208689 1_555
Ba14 Cl6 3.208700 1_555
Ba15 N14 2.764160 1_454
Ba15 N12 2.764160 1_544
Ba15 N23 2.764160 1_445
Ba15 Cl7 3.333432 1_555
Ba15 Cl4 3.333432 1_555
Ba15 Cl5 3.333432 1_555
Ba16 N8 2.756199 1_554
Ba16 N23 2.756199 1_555
Ba16 N15 2.909649 1_555
Ba16 N4 2.909649 1_554
Ba16 Cl0 3.208689 1_555
Ba16 Cl1 3.208691 1_565
Ba17 N6 2.764160 1_445
Ba17 N18 2.764160 1_555
Ba17 N15 2.764160 1_445
Ba17 Cl1 3.333422 1_455
Ba17 Cl3 3.333428 1_555
Ba17 Cl8 3.333432 1_455
Ba18 N18 2.756199 1_555
Ba18 N7 2.756199 1_545
Ba18 N12 2.909649 1_545
Ba18 N22 2.909649 1_555
Ba18 Cl5 3.208689 1_556
Ba18 Cl10 3.208700 1_555
Ba19 N0 2.756199 1_555
Ba19 N22 2.756199 1_555
Ba19 N19 2.909649 1_555
Ba19 N18 2.909649 1_555
Ba19 Cl7 3.208689 1_555
Ba19 Cl3 3.208700 1_555
Ba20 N13 2.764160 1_454
Ba20 N20 2.764160 1_555
Ba20 N1 2.764160 1_454
Ba20 Cl10 3.333422 1_554
Ba20 Cl6 3.333428 1_555
Ba20 Cl9 3.333432 1_554
Ba21 N9 3.025902 1_556
Ba21 N0 3.025902 1_555
Ba21 N4 3.025902 1_545
Ba21 N7 3.025902 1_545
Ba21 N11 3.025902 1_545
Ba21 N5 3.025902 1_545
Ba22 N18 3.025902 1_565
Ba22 N2 3.025902 1_555
Ba22 N6 3.025902 1_455
Ba22 N3 3.025902 1_455
Ba22 N15 3.025902 1_455
Ba22 N17 3.025902 1_455
Ba23 N10 3.025902 1_555
Ba23 N16 3.025902 1_555
Ba23 N19 3.025902 1_555
Ba23 N14 3.025902 1_565
Ba23 N12 3.025902 1_655
Ba23 N23 3.025902 1_556
B0 N22 1.347817 1_555
B0 N9 1.347817 1_556
B0 Ba18 3.070221 1_555
B0 Ba7 3.070221 1_556
B0 Ba13 3.192513 1_556
B0 Ba21 3.192513 1_555
B1 N3 1.347817 1_555
B1 N10 1.347817 1_555
B1 Ba3 3.070221 1_555
B1 Ba7 3.070221 1_555
B1 Ba22 3.192513 1_655
B1 Ba23 3.192513 1_555
B2 N7 1.347817 1_555
B2 N2 1.347817 1_555
B2 Ba2 3.070221 1_555
B2 Ba10 3.070221 1_555
B2 Ba21 3.192513 1_565
B2 Ba22 3.192513 1_555
B3 N5 1.347817 1_555
B3 N18 1.347817 1_565
B3 Ba6 3.070221 1_555
B3 Ba19 3.070221 1_565
B3 Ba22 3.192513 1_555
B3 Ba21 3.192513 1_565
B4 N8 1.347817 1_555
B4 N19 1.347817 1_555
B4 Ba2 3.070221 1_555
B4 Ba19 3.070221 1_555
B4 Ba13 3.192513 1_556
B4 Ba23 3.192513 1_555
B5 N12 1.347817 1_655
B5 N6 1.347817 1_555
B5 Ba18 3.070221 1_665
B5 Ba0 3.070221 1_565
B5 Ba23 3.192513 1_555
B5 Ba22 3.192513 1_655
B6 N14 1.347817 1_565
B6 N4 1.347817 1_555
B6 Ba11 3.070221 1_566
B6 Ba16 3.070221 1_556
B6 Ba21 3.192513 1_565
B6 Ba23 3.192513 1_555
B7 N11 1.347817 1_555
B7 N16 1.347817 1_555
B7 Ba8 3.070221 1_555
B7 Ba14 3.070221 1_555
B7 Ba23 3.192513 1_555
B7 Ba21 3.192513 1_565
B8 N1 1.347817 1_555
B8 N0 1.347817 1_555
B8 Ba3 3.070221 1_555
B8 Ba0 3.070221 1_555
B8 Ba21 3.192513 1_555
B8 Ba13 3.192513 1_556
B9 N15 1.347817 1_555
B9 N21 1.347817 1_555
B9 Ba8 3.070221 1_555
B9 Ba16 3.070221 1_555
B9 Ba22 3.192513 1_655
B9 Ba13 3.192513 1_555
B10 N23 1.347817 1_556
B10 N13 1.347817 1_555
B10 Ba10 3.070221 1_655
B10 Ba6 3.070221 1_656
B10 Ba23 3.192513 1_555
B10 Ba13 3.192513 1_556
B11 N17 1.347817 1_555
B11 N20 1.347817 1_655
B11 Ba14 3.070221 1_655
B11 Ba11 3.070221 1_555
B11 Ba22 3.192513 1_655
B11 Ba13 3.192513 1_555
