# generated using pymatgen
data_Sr5B3ClO9
_symmetry_space_group_name_H-M   'P 1'
_cell_length_a   8.79787207
_cell_length_b   8.79787207
_cell_length_c   7.48775300
_cell_angle_alpha   90.00000000
_cell_angle_beta   90.00000000
_cell_angle_gamma   109.99575621
_symmetry_Int_Tables_number   1
_chemical_formula_structural   Sr5B3ClO9
_chemical_formula_sum   'Sr10 B6 Cl2 O18'
_cell_volume   544.63345821
_cell_formula_units_Z   2
loop_
 _symmetry_equiv_pos_site_id
 _symmetry_equiv_pos_as_xyz
  1  'x, y, z'
loop_
 _atom_site_type_symbol
 _atom_site_label
 _atom_site_symmetry_multiplicity
 _atom_site_fract_x
 _atom_site_fract_y
 _atom_site_fract_z
 _atom_site_occupancy
  Sr  Sr0  1  0.76126400  0.76126400  0.00000000  1
  Sr  Sr1  1  0.26211300  0.00464200  0.93623400  1
  Sr  Sr2  1  0.23873600  0.23873600  0.50000000  1
  Sr  Sr3  1  0.63496000  0.36504000  0.75000000  1
  Sr  Sr4  1  0.36504000  0.63496000  0.25000000  1
  Sr  Sr5  1  0.36230200  0.63769800  0.75000000  1
  Sr  Sr6  1  0.73788700  0.99535800  0.43623400  1
  Sr  Sr7  1  0.63769800  0.36230200  0.25000000  1
  Sr  Sr8  1  0.99535800  0.73788700  0.56376600  1
  Sr  Sr9  1  0.00464200  0.26211300  0.06376600  1
  B  B0  1  0.98527800  0.40929600  0.47061600  1
  B  B1  1  0.59070400  0.01472200  0.02938400  1
  B  B2  1  0.37016000  0.37016000  0.00000000  1
  B  B3  1  0.40929600  0.98527800  0.52938400  1
  B  B4  1  0.62984000  0.62984000  0.50000000  1
  B  B5  1  0.01472200  0.59070400  0.97061600  1
  Cl  Cl0  1  0.94674800  0.05325200  0.75000000  1
  Cl  Cl1  1  0.05325200  0.94674800  0.25000000  1
  O  O0  1  0.49083700  0.49083700  0.50000000  1
  O  O1  1  0.44477600  0.84696100  0.48748000  1
  O  O2  1  0.50916300  0.50916300  0.00000000  1
  O  O3  1  0.30335600  0.30484200  0.16224300  1
  O  O4  1  0.84696100  0.44477600  0.51252000  1
  O  O5  1  0.02859500  0.73466800  0.88567900  1
  O  O6  1  0.97140500  0.26533200  0.38567900  1
  O  O7  1  0.69664400  0.69515800  0.66224300  1
  O  O8  1  0.30484200  0.30335600  0.83775700  1
  O  O9  1  0.15303900  0.55522400  0.01252000  1
  O  O10  1  0.52124500  0.13920600  0.49023400  1
  O  O11  1  0.73466800  0.02859500  0.11432100  1
  O  O12  1  0.69515800  0.69664400  0.33775700  1
  O  O13  1  0.47875500  0.86079400  0.99023400  1
  O  O14  1  0.55522400  0.15303900  0.98748000  1
  O  O15  1  0.86079400  0.47875500  0.00976600  1
  O  O16  1  0.26533200  0.97140500  0.61432100  1
  O  O17  1  0.13920600  0.52124500  0.50976600  1
loop_
_geom_bond_atom_site_label_1
_geom_bond_atom_site_label_2
_geom_bond_distance
_geom_bond_site_symmetry_2
B0 O6 1.384872 1_555
B0 O4 1.391582 1_555
B0 O17 1.406328 1_655
B1 O11 1.384872 1_555
B1 O14 1.391582 1_554
B1 O13 1.406328 1_544
B2 O3 1.385822 1_555
B2 O8 1.385822 1_554
B2 O2 1.402963 1_555
B3 O16 1.384872 1_555
B3 O1 1.391582 1_555
B3 O10 1.406328 1_565
B4 O7 1.385822 1_555
B4 O12 1.385822 1_555
B4 O0 1.402963 1_555
B5 O5 1.384872 1_555
B5 O9 1.391582 1_556
B5 O15 1.406328 1_456
Cl0 Sr9 2.918143 1_656
Cl0 Sr6 2.918143 1_545
Cl0 Sr2 3.146314 1_655
Cl0 Sr0 3.146314 1_546
Cl0 Sr8 3.261446 1_545
Cl0 Sr1 3.261446 1_655
Cl1 Sr8 2.918143 1_455
Cl1 Sr1 2.918143 1_564
Cl1 Sr2 3.146314 1_565
Cl1 Sr0 3.146314 1_455
Cl1 Sr6 3.261446 1_455
Cl1 Sr9 3.261446 1_565
O0 Sr2 2.544465 1_555
O0 Sr4 2.701211 1_555
O0 Sr3 2.701211 1_555
O0 Sr7 2.729766 1_555
O0 Sr5 2.729766 1_555
O1 Sr6 2.489821 1_555
O1 Sr4 2.497611 1_555
O1 Sr5 2.620370 1_555
O2 Sr0 2.544465 1_555
O2 Sr3 2.701211 1_554
O2 Sr4 2.701211 1_555
O2 Sr7 2.729766 1_555
O2 Sr5 2.729766 1_554
O3 Sr2 2.613691 1_555
O3 Sr9 2.629831 1_555
O3 Sr4 2.843155 1_555
O3 Sr7 2.884924 1_555
O3 Sr1 3.052156 1_554
O4 Sr8 2.489821 1_555
O4 Sr3 2.497611 1_555
O4 Sr7 2.620370 1_555
O5 Sr8 2.429408 1_455
O5 Sr1 2.582325 1_565
O5 Sr0 2.587568 1_456
O6 Sr9 2.429408 1_655
O6 Sr6 2.582325 1_545
O6 Sr2 2.587568 1_655
O7 Sr0 2.613691 1_556
O7 Sr8 2.629831 1_555
O7 Sr3 2.843155 1_555
O7 Sr5 2.884924 1_555
O7 Sr6 3.052156 1_555
O8 Sr2 2.613691 1_555
O8 Sr1 2.629831 1_555
O8 Sr3 2.843155 1_555
O8 Sr5 2.884924 1_555
O8 Sr9 3.052156 1_556
O9 Sr9 2.489821 1_555
O9 Sr4 2.497611 1_555
O9 Sr5 2.620370 1_554
O10 Sr7 2.600499 1_555
O10 Sr6 2.654727 1_545
O10 Sr3 2.715208 1_555
O10 Sr2 2.904852 1_555
O11 Sr6 2.429408 1_545
O11 Sr9 2.582325 1_655
O11 Sr0 2.587568 1_545
O12 Sr0 2.613691 1_555
O12 Sr6 2.629831 1_555
O12 Sr4 2.843155 1_555
O12 Sr7 2.884924 1_555
O12 Sr8 3.052156 1_555
O13 Sr5 2.600499 1_555
O13 Sr1 2.654727 1_565
O13 Sr4 2.715208 1_556
O13 Sr0 2.904852 1_556
O14 Sr1 2.489821 1_555
O14 Sr3 2.497611 1_555
O14 Sr7 2.620370 1_556
O15 Sr7 2.600499 1_555
O15 Sr9 2.654727 1_655
O15 Sr3 2.715208 1_554
O15 Sr0 2.904852 1_555
O16 Sr1 2.429408 1_565
O16 Sr8 2.582325 1_455
O16 Sr2 2.587568 1_565
O17 Sr5 2.600499 1_555
O17 Sr8 2.654727 1_455
O17 Sr4 2.715208 1_555
O17 Sr2 2.904852 1_555
