# generated using pymatgen
data_FeP(H2O3)2
_symmetry_space_group_name_H-M   'P 1'
_cell_length_a   8.78468200
_cell_length_b   9.96134700
_cell_length_c   10.35889400
_cell_angle_alpha   90.00000000
_cell_angle_beta   90.00000000
_cell_angle_gamma   90.00000000
_symmetry_Int_Tables_number   1
_chemical_formula_structural   FeP(H2O3)2
_chemical_formula_sum   'Fe8 P8 H32 O48'
_cell_volume   906.47848948
_cell_formula_units_Z   8
loop_
 _symmetry_equiv_pos_site_id
 _symmetry_equiv_pos_as_xyz
  1  'x, y, z'
loop_
 _atom_site_type_symbol
 _atom_site_label
 _atom_site_symmetry_multiplicity
 _atom_site_fract_x
 _atom_site_fract_y
 _atom_site_fract_z
 _atom_site_occupancy
  Fe  Fe0  1  0.15192900  0.32825600  0.13274900  1
  Fe  Fe1  1  0.65192900  0.17174400  0.86725100  1
  Fe  Fe2  1  0.84807100  0.82825600  0.36725100  1
  Fe  Fe3  1  0.34807100  0.67174400  0.63274900  1
  Fe  Fe4  1  0.84807100  0.67174400  0.86725100  1
  Fe  Fe5  1  0.34807100  0.82825600  0.13274900  1
  Fe  Fe6  1  0.15192900  0.17174400  0.63274900  1
  Fe  Fe7  1  0.65192900  0.32825600  0.36725100  1
  P  P0  1  0.02848200  0.64438600  0.14752300  1
  P  P1  1  0.52848200  0.85561400  0.85247700  1
  P  P2  1  0.97151800  0.14438600  0.35247700  1
  P  P3  1  0.47151800  0.35561400  0.64752300  1
  P  P4  1  0.97151800  0.35561400  0.85247700  1
  P  P5  1  0.47151800  0.14438600  0.14752300  1
  P  P6  1  0.02848200  0.85561400  0.64752300  1
  P  P7  1  0.52848200  0.64438600  0.35247700  1
  H  H0  1  0.15955500  0.91705300  0.32418800  1
  H  H1  1  0.65955500  0.58294700  0.67581200  1
  H  H2  1  0.84044500  0.41705300  0.17581200  1
  H  H3  1  0.34044500  0.08294700  0.82418800  1
  H  H4  1  0.84044500  0.08294700  0.67581200  1
  H  H5  1  0.34044500  0.41705300  0.32418800  1
  H  H6  1  0.15955500  0.58294700  0.82418800  1
  H  H7  1  0.65955500  0.91705300  0.17581200  1
  H  H8  1  0.35717800  0.43621100  0.97161200  1
  H  H9  1  0.85717800  0.06378900  0.02838800  1
  H  H10  1  0.64282200  0.93621100  0.52838800  1
  H  H11  1  0.14282200  0.56378900  0.47161200  1
  H  H12  1  0.64282200  0.56378900  0.02838800  1
  H  H13  1  0.14282200  0.93621100  0.97161200  1
  H  H14  1  0.35717800  0.06378900  0.47161200  1
  H  H15  1  0.85717800  0.43621100  0.52838800  1
  H  H16  1  0.30069600  0.82217900  0.37727300  1
  H  H17  1  0.80069600  0.67782100  0.62272700  1
  H  H18  1  0.69930400  0.32217900  0.12272700  1
  H  H19  1  0.19930400  0.17782100  0.87727300  1
  H  H20  1  0.69930400  0.17782100  0.62272700  1
  H  H21  1  0.19930400  0.32217900  0.37727300  1
  H  H22  1  0.30069600  0.67782100  0.87727300  1
  H  H23  1  0.80069600  0.82217900  0.12272700  1
  H  H24  1  0.29378500  0.54458300  0.07321400  1
  H  H25  1  0.79378500  0.95541700  0.92678600  1
  H  H26  1  0.70621500  0.04458300  0.42678600  1
  H  H27  1  0.20621500  0.45541700  0.57321400  1
  H  H28  1  0.70621500  0.45541700  0.92678600  1
  H  H29  1  0.20621500  0.04458300  0.07321400  1
  H  H30  1  0.29378500  0.95541700  0.57321400  1
  H  H31  1  0.79378500  0.54458300  0.42678600  1
  O  O0  1  0.00799900  0.20367700  0.21820100  1
  O  O1  1  0.50799900  0.29632300  0.78179900  1
  O  O2  1  0.99200100  0.70367700  0.28179900  1
  O  O3  1  0.49200100  0.79632300  0.71820100  1
  O  O4  1  0.99200100  0.79632300  0.78179900  1
  O  O5  1  0.49200100  0.70367700  0.21820100  1
  O  O6  1  0.00799900  0.29632300  0.71820100  1
  O  O7  1  0.50799900  0.20367700  0.28179900  1
  O  O8  1  0.01011300  0.48919200  0.14641100  1
  O  O9  1  0.51011300  0.01080800  0.85358900  1
  O  O10  1  0.98988700  0.98919200  0.35358900  1
  O  O11  1  0.48988700  0.51080800  0.64641100  1
  O  O12  1  0.98988700  0.51080800  0.85358900  1
  O  O13  1  0.48988700  0.98919200  0.14641100  1
  O  O14  1  0.01011300  0.01080800  0.64641100  1
  O  O15  1  0.51011300  0.48919200  0.35358900  1
  O  O16  1  0.30338400  0.17619200  0.11054300  1
  O  O17  1  0.80338400  0.32380800  0.88945700  1
  O  O18  1  0.69661600  0.67619200  0.38945700  1
  O  O19  1  0.19661600  0.82380800  0.61054300  1
  O  O20  1  0.69661600  0.82380800  0.88945700  1
  O  O21  1  0.19661600  0.67619200  0.11054300  1
  O  O22  1  0.30338400  0.32380800  0.61054300  1
  O  O23  1  0.80338400  0.17619200  0.38945700  1
  O  O24  1  0.08339100  0.29197800  0.95220900  1
  O  O25  1  0.58339100  0.20802200  0.04779100  1
  O  O26  1  0.91660900  0.79197800  0.54779100  1
  O  O27  1  0.41660900  0.70802200  0.45220900  1
  O  O28  1  0.91660900  0.70802200  0.04779100  1
  O  O29  1  0.41660900  0.79197800  0.95220900  1
  O  O30  1  0.08339100  0.20802200  0.45220900  1
  O  O31  1  0.58339100  0.29197800  0.54779100  1
  O  O32  1  0.26794600  0.88893300  0.31093100  1
  O  O33  1  0.76794600  0.61106700  0.68906900  1
  O  O34  1  0.73205400  0.38893300  0.18906900  1
  O  O35  1  0.23205400  0.11106700  0.81093100  1
  O  O36  1  0.73205400  0.11106700  0.68906900  1
  O  O37  1  0.23205400  0.38893300  0.31093100  1
  O  O38  1  0.26794600  0.61106700  0.81093100  1
  O  O39  1  0.76794600  0.88893300  0.18906900  1
  O  O40  1  0.33042800  0.44918900  0.06237600  1
  O  O41  1  0.83042800  0.05081100  0.93762400  1
  O  O42  1  0.66957200  0.94918900  0.43762400  1
  O  O43  1  0.16957200  0.55081100  0.56237600  1
  O  O44  1  0.66957200  0.55081100  0.93762400  1
  O  O45  1  0.16957200  0.94918900  0.06237600  1
  O  O46  1  0.33042800  0.05081100  0.56237600  1
  O  O47  1  0.83042800  0.44918900  0.43762400  1
loop_
_geom_bond_atom_site_label_1
_geom_bond_atom_site_label_2
_geom_bond_distance
_geom_bond_site_symmetry_2
Fe0 O0 1.980462 1_555
Fe0 O24 1.997681 1_554
Fe0 O16 2.029189 1_555
Fe0 O8 2.035221 1_555
Fe0 O37 2.065824 1_555
Fe0 O40 2.107467 1_555
Fe1 O1 1.980462 1_555
Fe1 O25 1.997681 1_556
Fe1 O17 2.029189 1_555
Fe1 O9 2.035221 1_555
Fe1 O36 2.065824 1_555
Fe1 O41 2.107467 1_555
Fe2 O2 1.980462 1_555
Fe2 O26 1.997681 1_555
Fe2 O18 2.029189 1_555
Fe2 O10 2.035221 1_555
Fe2 O39 2.065824 1_555
Fe2 O42 2.107467 1_555
Fe3 O3 1.980462 1_555
Fe3 O27 1.997681 1_555
Fe3 O19 2.029189 1_555
Fe3 O11 2.035221 1_555
Fe3 O38 2.065824 1_555
Fe3 O43 2.107467 1_555
Fe4 O4 1.980462 1_555
Fe4 O28 1.997681 1_556
Fe4 O20 2.029189 1_555
Fe4 O12 2.035221 1_555
Fe4 O33 2.065824 1_555
Fe4 O44 2.107467 1_555
Fe5 O5 1.980462 1_555
Fe5 O29 1.997681 1_554
Fe5 O21 2.029189 1_555
Fe5 O13 2.035221 1_555
Fe5 O32 2.065824 1_555
Fe5 O45 2.107467 1_555
Fe6 O6 1.980462 1_555
Fe6 O30 1.997681 1_555
Fe6 O22 2.029189 1_555
Fe6 O14 2.035221 1_555
Fe6 O35 2.065824 1_555
Fe6 O46 2.107467 1_555
Fe7 O7 1.980462 1_555
Fe7 O31 1.997681 1_555
Fe7 O23 2.029189 1_555
Fe7 O15 2.035221 1_555
Fe7 O34 2.065824 1_555
Fe7 O47 2.107467 1_555
H0 O32 1.001983 1_555
H0 O10 1.682461 1_455
H1 O33 1.001983 1_555
H1 O11 1.682461 1_555
H2 O34 1.001983 1_555
H2 O8 1.682461 1_655
H3 O35 1.001983 1_555
H3 O9 1.682461 1_555
H4 O36 1.001983 1_555
H4 O14 1.682461 1_655
H5 O37 1.001983 1_555
H5 O15 1.682461 1_555
H6 O38 1.001983 1_555
H6 O12 1.682461 1_455
H7 O39 1.001983 1_555
H7 O13 1.682461 1_555
H8 O40 0.977720 1_556
H9 O41 0.977720 1_554
H10 O42 0.977720 1_555
H11 O43 0.977720 1_555
H12 O44 0.977720 1_554
H13 O45 0.977720 1_556
H14 O46 0.977720 1_555
H15 O47 0.977720 1_555
H16 O32 0.998612 1_555
H16 O27 1.712469 1_555
H17 O33 0.998612 1_555
H17 O26 1.712469 1_555
H18 O34 0.998612 1_555
H18 O25 1.712469 1_555
H19 O35 0.998612 1_555
H19 O24 1.712469 1_555
H20 O36 0.998612 1_555
H20 O31 1.712469 1_555
H21 O37 0.998612 1_555
H21 O30 1.712469 1_555
H22 O38 0.998612 1_555
H22 O29 1.712469 1_555
H23 O39 0.998612 1_555
H23 O28 1.712469 1_555
H24 O40 1.009556 1_555
H24 O21 1.611486 1_555
H25 O41 1.009556 1_565
H25 O20 1.611486 1_555
H26 O42 1.009556 1_545
H26 O23 1.611486 1_555
H27 O43 1.009556 1_555
H27 O22 1.611486 1_555
H28 O44 1.009556 1_555
H28 O17 1.611486 1_555
H29 O45 1.009556 1_545
H29 O16 1.611486 1_555
H30 O46 1.009556 1_565
H30 O19 1.611486 1_555
H31 O47 1.009556 1_555
H31 O18 1.611486 1_555
O0 P2 1.544758 1_455
O1 P3 1.544758 1_555
O2 P0 1.544758 1_655
O3 P1 1.544758 1_555
O4 P6 1.544758 1_655
O5 P7 1.544758 1_555
O6 P4 1.544758 1_455
O7 P5 1.544758 1_555
O8 P0 1.554383 1_555
O9 P1 1.554383 1_545
O10 P2 1.554383 1_565
O11 P3 1.554383 1_555
O12 P4 1.554383 1_555
O13 P5 1.554383 1_565
O14 P6 1.554383 1_545
O15 P7 1.554383 1_555
O16 P5 1.558418 1_555
O17 P4 1.558418 1_555
O18 P7 1.558418 1_555
O19 P6 1.558418 1_555
O20 P1 1.558418 1_555
O21 P0 1.558418 1_555
O22 P3 1.558418 1_555
O23 P2 1.558418 1_555
O24 P4 1.560444 1_455
O25 P5 1.560444 1_555
O26 P6 1.560444 1_655
O27 P7 1.560444 1_555
O28 P0 1.560444 1_655
O29 P1 1.560444 1_555
O30 P2 1.560444 1_455
O31 P3 1.560444 1_555
