# generated using pymatgen
data_CsGd(PO3)4
_symmetry_space_group_name_H-M   'P 1'
_cell_length_a   9.04457300
_cell_length_b   10.51286800
_cell_length_c   13.06428308
_cell_angle_alpha   56.25647061
_cell_angle_beta   90.00000000
_cell_angle_gamma   90.00000000
_symmetry_Int_Tables_number   1
_chemical_formula_structural   CsGd(PO3)4
_chemical_formula_sum   'Cs4 Gd4 P16 O48'
_cell_volume   1032.93742120
_cell_formula_units_Z   4
loop_
 _symmetry_equiv_pos_site_id
 _symmetry_equiv_pos_as_xyz
  1  'x, y, z'
loop_
 _atom_site_type_symbol
 _atom_site_label
 _atom_site_symmetry_multiplicity
 _atom_site_fract_x
 _atom_site_fract_y
 _atom_site_fract_z
 _atom_site_occupancy
  Cs  Cs0  1  0.43494000  0.77825200  0.53929700  1
  Cs  Cs1  1  0.56506000  0.22174800  0.46070300  1
  Cs  Cs2  1  0.06506000  0.77825200  0.03929700  1
  Cs  Cs3  1  0.93494000  0.22174800  0.96070300  1
  Gd  Gd0  1  0.77408400  0.68363900  0.31888000  1
  Gd  Gd1  1  0.22591600  0.31636100  0.68112000  1
  Gd  Gd2  1  0.72591600  0.68363900  0.81888000  1
  Gd  Gd3  1  0.27408400  0.31636100  0.18112000  1
  P  P0  1  0.32611200  0.67287800  0.86686100  1
  P  P1  1  0.89235700  0.79951300  0.52635900  1
  P  P2  1  0.82611200  0.32712200  0.63313900  1
  P  P3  1  0.02877700  0.96755100  0.28626700  1
  P  P4  1  0.39235700  0.20048700  0.97364100  1
  P  P5  1  0.59108200  0.38833400  0.75751100  1
  P  P6  1  0.17388800  0.67287800  0.36686100  1
  P  P7  1  0.10764300  0.20048700  0.47364100  1
  P  P8  1  0.67388800  0.32712200  0.13313900  1
  P  P9  1  0.90891800  0.38833400  0.25751100  1
  P  P10  1  0.97122300  0.03244900  0.71373300  1
  P  P11  1  0.40891800  0.61166600  0.24248900  1
  P  P12  1  0.09108200  0.61166600  0.74248900  1
  P  P13  1  0.52877700  0.03244900  0.21373300  1
  P  P14  1  0.47122300  0.96755100  0.78626700  1
  P  P15  1  0.60764300  0.79951300  0.02635900  1
  O  O0  1  0.95917500  0.57747100  0.82359500  1
  O  O1  1  0.79312700  0.28146500  0.24205000  1
  O  O2  1  0.65996000  0.16005700  0.15342700  1
  O  O3  1  0.78943900  0.83645000  0.59662700  1
  O  O4  1  0.46815900  0.63050000  0.83395400  1
  O  O5  1  0.24388900  0.56941200  0.49043400  1
  O  O6  1  0.41769100  0.07788000  0.27383500  1
  O  O7  1  0.95770200  0.95516400  0.40607900  1
  O  O8  1  0.66543700  0.70169600  0.98469700  1
  O  O9  1  0.28943900  0.16355000  0.90337300  1
  O  O10  1  0.34004000  0.83994300  0.84657300  1
  O  O11  1  0.54082500  0.57747100  0.32359500  1
  O  O12  1  0.84004000  0.16005700  0.65342700  1
  O  O13  1  0.54748900  0.26849600  0.89982400  1
  O  O14  1  0.33456300  0.29830400  0.01530300  1
  O  O15  1  0.17467500  0.48134200  0.75401200  1
  O  O16  1  0.29312700  0.71853500  0.25795000  1
  O  O17  1  0.83456300  0.70169600  0.48469700  1
  O  O18  1  0.09669800  0.12300800  0.20757200  1
  O  O19  1  0.90330200  0.87699200  0.79242800  1
  O  O20  1  0.20687300  0.71853500  0.75795000  1
  O  O21  1  0.45251100  0.73150400  0.10017600  1
  O  O22  1  0.45917500  0.42252900  0.67640500  1
  O  O23  1  0.15996000  0.83994300  0.34657300  1
  O  O24  1  0.53184100  0.36950000  0.16604600  1
  O  O25  1  0.04229800  0.04483600  0.59392100  1
  O  O26  1  0.95251100  0.26849600  0.39982400  1
  O  O27  1  0.04082500  0.42252900  0.17640500  1
  O  O28  1  0.96815900  0.36950000  0.66604600  1
  O  O29  1  0.08230900  0.07788000  0.77383500  1
  O  O30  1  0.75611100  0.43058800  0.50956600  1
  O  O31  1  0.59669800  0.87699200  0.29242800  1
  O  O32  1  0.21056100  0.16355000  0.40337300  1
  O  O33  1  0.16543700  0.29830400  0.51530300  1
  O  O34  1  0.82532500  0.51865800  0.24598800  1
  O  O35  1  0.91769100  0.92212000  0.22616500  1
  O  O36  1  0.25611100  0.56941200  0.99043400  1
  O  O37  1  0.74388900  0.43058800  0.00956600  1
  O  O38  1  0.70687300  0.28146500  0.74205000  1
  O  O39  1  0.71056100  0.83645000  0.09662700  1
  O  O40  1  0.04748900  0.73150400  0.60017600  1
  O  O41  1  0.32532500  0.48134200  0.25401200  1
  O  O42  1  0.45770200  0.04483600  0.09392100  1
  O  O43  1  0.54229800  0.95516400  0.90607900  1
  O  O44  1  0.67467500  0.51865800  0.74598800  1
  O  O45  1  0.58230900  0.92212000  0.72616500  1
  O  O46  1  0.03184100  0.63050000  0.33395400  1
  O  O47  1  0.40330200  0.12300800  0.70757200  1
loop_
_geom_bond_atom_site_label_1
_geom_bond_atom_site_label_2
_geom_bond_distance
_geom_bond_site_symmetry_2
Cs0 O5 3.125809 1_555
Cs0 O22 3.130471 1_555
Cs0 O6 3.136513 1_565
Cs0 O31 3.146487 1_555
Cs0 O4 3.267828 1_555
Cs0 O20 3.288873 1_555
Cs0 O23 3.336374 1_555
Cs0 O44 3.354693 1_555
Cs0 O3 3.424134 1_555
Cs1 O30 3.125809 1_555
Cs1 O11 3.130471 1_555
Cs1 O45 3.136513 1_545
Cs1 O47 3.146487 1_555
Cs1 O24 3.267828 1_555
Cs1 O1 3.288873 1_555
Cs1 O12 3.336374 1_555
Cs1 O41 3.354693 1_555
Cs1 O32 3.424134 1_555
Cs2 O36 3.125809 1_554
Cs2 O27 3.130471 1_555
Cs2 O29 3.136513 1_564
Cs2 O19 3.146487 1_454
Cs2 O46 3.267828 1_555
Cs2 O16 3.288873 1_555
Cs2 O10 3.336374 1_554
Cs2 O34 3.354693 1_455
Cs2 O39 3.424134 1_455
Cs3 O37 3.125809 1_556
Cs3 O0 3.130471 1_555
Cs3 O35 3.136513 1_546
Cs3 O18 3.146487 1_656
Cs3 O28 3.267828 1_555
Cs3 O38 3.288873 1_555
Cs3 O2 3.336374 1_556
Cs3 O15 3.354693 1_655
Cs3 O9 3.424134 1_655
Gd0 O17 2.341981 1_555
Gd0 O11 2.371521 1_555
Gd0 O46 2.379835 1_655
Gd0 O30 2.438641 1_555
Gd0 O34 2.442288 1_555
Gd0 O31 2.458641 1_555
Gd0 O35 2.462953 1_555
Gd0 O39 2.481843 1_555
Gd1 O33 2.341981 1_555
Gd1 O22 2.371521 1_555
Gd1 O28 2.379835 1_455
Gd1 O5 2.438641 1_555
Gd1 O15 2.442288 1_555
Gd1 O47 2.458641 1_555
Gd1 O29 2.462953 1_555
Gd1 O9 2.481843 1_555
Gd2 O8 2.341981 1_555
Gd2 O0 2.371521 1_555
Gd2 O4 2.379835 1_555
Gd2 O37 2.438641 1_556
Gd2 O44 2.442288 1_555
Gd2 O19 2.458641 1_555
Gd2 O45 2.462953 1_555
Gd2 O3 2.481843 1_555
Gd3 O14 2.341981 1_555
Gd3 O27 2.371521 1_555
Gd3 O24 2.379835 1_555
Gd3 O36 2.438641 1_554
Gd3 O41 2.442288 1_555
Gd3 O18 2.458641 1_555
Gd3 O6 2.462953 1_555
Gd3 O32 2.481843 1_555
O0 P12 1.500714 1_655
O1 P9 1.628483 1_555
O1 P8 1.630718 1_555
O2 P8 1.629006 1_555
O2 P13 1.629104 1_555
O3 P1 1.502005 1_555
O4 P0 1.498892 1_555
O5 P6 1.496466 1_555
O6 P13 1.506894 1_555
O7 P1 1.624662 1_555
O7 P3 1.629045 1_655
O8 P15 1.499590 1_556
O9 P4 1.502005 1_555
O10 P0 1.629006 1_555
O10 P14 1.629104 1_555
O11 P11 1.500714 1_555
O12 P2 1.629006 1_555
O12 P10 1.629104 1_555
O13 P5 1.611565 1_555
O13 P4 1.626003 1_555
O14 P4 1.499590 1_554
O15 P12 1.497423 1_555
O16 P11 1.628483 1_555
O16 P6 1.630718 1_555
O17 P1 1.499590 1_555
O18 P3 1.496215 1_545
O19 P10 1.496215 1_565
O20 P12 1.628483 1_555
O20 P0 1.630718 1_555
O21 P11 1.611565 1_555
O21 P15 1.626003 1_555
O22 P5 1.500714 1_555
O23 P6 1.629006 1_555
O23 P3 1.629104 1_555
O24 P8 1.498892 1_555
O25 P7 1.624662 1_555
O25 P10 1.629045 1_455
O26 P9 1.611565 1_555
O26 P7 1.626003 1_655
O27 P9 1.500714 1_455
O28 P2 1.498892 1_555
O29 P10 1.506894 1_455
O30 P2 1.496466 1_555
O31 P13 1.496215 1_565
O32 P7 1.502005 1_555
O33 P7 1.499590 1_555
O34 P9 1.497423 1_555
O35 P3 1.506894 1_655
O36 P0 1.496466 1_555
O37 P8 1.496466 1_555
O38 P5 1.628483 1_555
O38 P2 1.630718 1_555
O39 P15 1.502005 1_555
O40 P12 1.611565 1_555
O40 P1 1.626003 1_455
O41 P11 1.497423 1_555
O42 P4 1.624662 1_554
O42 P13 1.629045 1_555
O43 P15 1.624662 1_556
O43 P14 1.629045 1_555
O44 P5 1.497423 1_555
O45 P14 1.506894 1_555
O46 P6 1.498892 1_555
O47 P14 1.496215 1_545
