# generated using pymatgen
data_K2PO4
_symmetry_space_group_name_H-M   'P 1'
_cell_length_a   10.38388200
_cell_length_b   5.97723000
_cell_length_c   7.49120263
_cell_angle_alpha   80.87542242
_cell_angle_beta   90.00000000
_cell_angle_gamma   90.00000000
_symmetry_Int_Tables_number   1
_chemical_formula_structural   K2PO4
_chemical_formula_sum   'K8 P4 O16'
_cell_volume   459.07175332
_cell_formula_units_Z   4
loop_
 _symmetry_equiv_pos_site_id
 _symmetry_equiv_pos_as_xyz
  1  'x, y, z'
loop_
 _atom_site_type_symbol
 _atom_site_label
 _atom_site_symmetry_multiplicity
 _atom_site_fract_x
 _atom_site_fract_y
 _atom_site_fract_z
 _atom_site_occupancy
  K  K0  1  0.91550500  0.74823500  0.82781700  1
  K  K1  1  0.41550500  0.25176500  0.67218300  1
  K  K2  1  0.08449500  0.25176500  0.17218300  1
  K  K3  1  0.58449500  0.74823500  0.32781700  1
  K  K4  1  0.76857700  0.23700600  0.52605800  1
  K  K5  1  0.26857700  0.76299400  0.97394200  1
  K  K6  1  0.23142300  0.76299400  0.47394200  1
  K  K7  1  0.73142300  0.23700600  0.02605800  1
  P  P0  1  0.92497200  0.72094200  0.28043900  1
  P  P1  1  0.07502800  0.27905800  0.71956100  1
  P  P2  1  0.57502800  0.72094200  0.78043900  1
  P  P3  1  0.42497200  0.27905800  0.21956100  1
  O  O0  1  0.15403000  0.45787800  0.79540700  1
  O  O1  1  0.34597000  0.45787800  0.29540700  1
  O  O2  1  0.05278400  0.77494000  0.18138300  1
  O  O3  1  0.53822300  0.61001800  0.99804100  1
  O  O4  1  0.03822300  0.38998200  0.50195900  1
  O  O5  1  0.55278400  0.22506000  0.31861700  1
  O  O6  1  0.15074000  0.07288900  0.68092400  1
  O  O7  1  0.34926000  0.07288900  0.18092400  1
  O  O8  1  0.84597000  0.54212200  0.20459300  1
  O  O9  1  0.65074000  0.92711100  0.81907600  1
  O  O10  1  0.96177700  0.61001800  0.49804100  1
  O  O11  1  0.46177700  0.38998200  0.00195900  1
  O  O12  1  0.65403000  0.54212200  0.70459300  1
  O  O13  1  0.94721600  0.22506000  0.81861700  1
  O  O14  1  0.84926000  0.92711100  0.31907600  1
  O  O15  1  0.44721600  0.77494000  0.68138300  1
loop_
_geom_bond_atom_site_label_1
_geom_bond_atom_site_label_2
_geom_bond_distance
_geom_bond_site_symmetry_2
K0 O10 2.768335 1_555
K0 O13 2.859004 1_565
K0 O9 2.946833 1_555
K0 O8 2.983757 1_556
K0 O2 3.034280 1_656
K0 O0 3.056022 1_655
K0 O13 3.156029 1_555
K0 O12 3.178441 1_555
K0 O6 3.204036 1_665
K1 O11 2.768335 1_556
K1 O15 2.859004 1_545
K1 O6 2.946833 1_555
K1 O1 2.983757 1_555
K1 O5 3.034280 1_555
K1 O12 3.056022 1_555
K1 O15 3.156029 1_555
K1 O0 3.178441 1_555
K1 O9 3.204036 1_545
K2 O4 2.768335 1_555
K2 O2 2.859004 1_545
K2 O7 2.946833 1_555
K2 O0 2.983757 1_554
K2 O13 3.034280 1_454
K2 O8 3.056022 1_455
K2 O2 3.156029 1_555
K2 O1 3.178441 1_555
K2 O14 3.204036 1_445
K3 O3 2.768335 1_554
K3 O5 2.859004 1_565
K3 O14 2.946833 1_555
K3 O12 2.983757 1_555
K3 O15 3.034280 1_555
K3 O1 3.056022 1_555
K3 O5 3.156029 1_555
K3 O8 3.178441 1_555
K3 O7 3.204036 1_565
K4 O12 2.702442 1_555
K4 O14 2.729119 1_545
K4 O5 2.734264 1_555
K4 O13 2.863487 1_555
K4 O8 2.894510 1_555
K4 O9 2.908090 1_545
K4 O4 2.942135 1_655
K4 O10 2.981838 1_555
K5 O0 2.702442 1_555
K5 O7 2.729119 1_566
K5 O2 2.734264 1_556
K5 O15 2.863487 1_555
K5 O1 2.894510 1_556
K5 O6 2.908090 1_565
K5 O3 2.942135 1_555
K5 O11 2.981838 1_556
K6 O1 2.702442 1_555
K6 O6 2.729119 1_565
K6 O15 2.734264 1_555
K6 O2 2.863487 1_555
K6 O0 2.894510 1_555
K6 O7 2.908090 1_565
K6 O10 2.942135 1_455
K6 O4 2.981838 1_555
K7 O8 2.702442 1_555
K7 O9 2.729119 1_544
K7 O13 2.734264 1_554
K7 O5 2.863487 1_555
K7 O12 2.894510 1_554
K7 O14 2.908090 1_545
K7 O11 2.942135 1_555
K7 O3 2.981838 1_554
O0 P1 1.526710 1_555
O1 P3 1.526710 1_555
O2 P0 1.529793 1_455
O3 P2 1.702967 1_555
O4 P1 1.702967 1_555
O5 P3 1.529793 1_555
O6 P1 1.527612 1_555
O7 P3 1.527612 1_555
O8 P0 1.526710 1_555
O9 P2 1.527612 1_555
O10 P0 1.702967 1_555
O11 P3 1.702967 1_555
O12 P2 1.526710 1_555
O13 P1 1.529793 1_655
O14 P0 1.527612 1_555
O15 P2 1.529793 1_555
