# generated using pymatgen
data_Bi2B8O15
_symmetry_space_group_name_H-M   'P 1'
_cell_length_a   22.19585830
_cell_length_b   4.31144573
_cell_length_c   6.46988909
_cell_angle_alpha   74.79295843
_cell_angle_beta   90.00000000
_cell_angle_gamma   90.00000000
_symmetry_Int_Tables_number   1
_chemical_formula_structural   Bi2B8O15
_chemical_formula_sum   'Bi4 B16 O30'
_cell_volume   597.46426520
_cell_formula_units_Z   2
loop_
 _symmetry_equiv_pos_site_id
 _symmetry_equiv_pos_as_xyz
  1  'x, y, z'
loop_
 _atom_site_type_symbol
 _atom_site_label
 _atom_site_symmetry_multiplicity
 _atom_site_fract_x
 _atom_site_fract_y
 _atom_site_fract_z
 _atom_site_occupancy
  Bi  Bi0  1  0.35439949  0.82297100  0.33154476  1
  Bi  Bi1  1  0.85439949  0.17702900  0.66845524  1
  Bi  Bi2  1  0.21602360  0.60606583  0.10775925  1
  Bi  Bi3  1  0.71602360  0.39393417  0.89224075  1
  B  B0  1  0.01100558  0.43763641  0.43108219  1
  B  B1  1  0.51100558  0.56236359  0.56891781  1
  B  B2  1  0.03750196  0.46184862  0.78217246  1
  B  B3  1  0.53750196  0.53815138  0.21782754  1
  B  B4  1  0.10287222  0.69592051  0.48745557  1
  B  B5  1  0.60287222  0.30407949  0.51254443  1
  B  B6  1  0.21313835  0.86615761  0.51659482  1
  B  B7  1  0.71313835  0.13384239  0.48340518  1
  B  B8  1  0.21453850  0.28572819  0.73515279  1
  B  B9  1  0.71453850  0.71427181  0.26484721  1
  B  B10  1  0.85482092  0.43736924  0.08248580  1
  B  B11  1  0.35482092  0.56263076  0.91751420  1
  B  B12  1  0.85247218  0.85761498  0.29946396  1
  B  B13  1  0.35247218  0.14238502  0.70053604  1
  B  B14  1  0.96791978  0.38992873  0.08861123  1
  B  B15  1  0.46791978  0.61007127  0.91138877  1
  O  O0  1  0.00110615  0.34105528  0.64901591  1
  O  O1  1  0.50110615  0.65894472  0.35098409  1
  O  O2  1  0.06041615  0.61952946  0.35096301  1
  O  O3  1  0.56041615  0.38047054  0.64903699  1
  O  O4  1  0.08900504  0.62857622  0.70405983  1
  O  O5  1  0.58900504  0.37142378  0.29594017  1
  O  O6  1  0.15487072  0.82900117  0.40545916  1
  O  O7  1  0.65487072  0.17099883  0.59454084  1
  O  O8  1  0.21468080  0.18312470  0.55346287  1
  O  O9  1  0.71468080  0.81687530  0.44653713  1
  O  O10  1  0.25774334  0.83952150  0.35533862  1
  O  O11  1  0.75774334  0.16047850  0.64466138  1
  O  O12  1  0.20994933  0.10696989  0.94099960  1
  O  O13  1  0.70994933  0.89303011  0.05900040  1
  O  O14  1  0.21874708  0.61358297  0.71802413  1
  O  O15  1  0.71874708  0.38641703  0.28197587  1
  O  O16  1  0.84701865  0.18431856  0.28337507  1
  O  O17  1  0.34701865  0.81568144  0.71662493  1
  O  O18  1  0.85955234  0.68027118  0.50509696  1
  O  O19  1  0.35955234  0.31972882  0.49490304  1
  O  O20  1  0.81252294  0.40900342  0.91599960  1
  O  O21  1  0.31252294  0.59099658  0.08400040  1
  O  O22  1  0.85078629  0.75397340  0.11898237  1
  O  O23  1  0.35078629  0.24602660  0.88101763  1
  O  O24  1  0.91531249  0.40394999  0.98426698  1
  O  O25  1  0.41531249  0.59605001  0.01573302  1
  O  O26  1  0.96863724  0.34801033  0.30803828  1
  O  O27  1  0.46863724  0.65198967  0.69196172  1
  O  O28  1  0.02313988  0.41899457  0.99006300  1
  O  O29  1  0.52313988  0.58100543  0.00993700  1
loop_
_geom_bond_atom_site_label_1
_geom_bond_atom_site_label_2
_geom_bond_distance
_geom_bond_site_symmetry_2
Bi0 O19 2.152837 1_555
Bi0 O10 2.153404 1_555
Bi0 O21 2.295571 1_555
Bi0 O17 2.488765 1_555
Bi0 O19 2.627688 1_565
Bi1 O18 2.152837 1_555
Bi1 O11 2.153404 1_555
Bi1 O20 2.295571 1_555
Bi1 O16 2.488765 1_555
Bi1 O18 2.627688 1_545
Bi2 O21 2.149596 1_555
Bi2 O12 2.150307 1_564
Bi2 O10 2.298307 1_555
Bi2 O14 2.513963 1_554
Bi2 O12 2.651520 1_554
Bi2 O6 2.728966 1_555
Bi3 O20 2.149596 1_555
Bi3 O13 2.150307 1_546
Bi3 O11 2.298307 1_555
Bi3 O15 2.513963 1_556
Bi3 O13 2.651520 1_556
Bi3 O7 2.728966 1_555
B0 O26 1.352331 1_455
B0 O2 1.368654 1_555
B0 O0 1.379048 1_555
B1 O27 1.352331 1_555
B1 O3 1.368654 1_555
B1 O1 1.379048 1_555
B2 O28 1.347029 1_555
B2 O4 1.374174 1_555
B2 O0 1.378913 1_555
B3 O29 1.347029 1_555
B3 O5 1.374174 1_555
B3 O1 1.378913 1_555
B4 O6 1.335301 1_555
B4 O2 1.388860 1_555
B4 O4 1.389069 1_555
B5 O7 1.335301 1_555
B5 O3 1.388860 1_555
B5 O5 1.389069 1_555
B6 O8 1.447978 1_565
B6 O10 1.464490 1_555
B6 O14 1.468066 1_555
B6 O6 1.508552 1_555
B7 O9 1.447978 1_545
B7 O11 1.464490 1_555
B7 O15 1.468066 1_555
B7 O7 1.508552 1_555
B8 O12 1.356315 1_555
B8 O8 1.360272 1_555
B8 O14 1.391722 1_555
B9 O13 1.356315 1_555
B9 O9 1.360272 1_555
B9 O15 1.391722 1_555
B10 O22 1.447810 1_555
B10 O20 1.457989 1_554
B10 O16 1.471627 1_555
B10 O24 1.508427 1_554
B11 O23 1.447810 1_555
B11 O21 1.457989 1_556
B11 O17 1.471627 1_555
B11 O25 1.508427 1_556
B12 O22 1.355846 1_555
B12 O18 1.358558 1_555
B12 O16 1.390188 1_565
B13 O23 1.355846 1_555
B13 O19 1.358558 1_555
B13 O17 1.390188 1_545
B14 O24 1.342177 1_554
B14 O28 1.372061 1_654
B14 O26 1.383392 1_555
B15 O25 1.342177 1_556
B15 O29 1.372061 1_556
B15 O27 1.383392 1_555
