# generated using pymatgen
data_KNd(CO3)2
_symmetry_space_group_name_H-M   'P 1'
_cell_length_a   6.49085764
_cell_length_b   8.49547253
_cell_length_c   9.75491279
_cell_angle_alpha   90.00000000
_cell_angle_beta   90.00000000
_cell_angle_gamma   90.00000000
_symmetry_Int_Tables_number   1
_chemical_formula_structural   KNd(CO3)2
_chemical_formula_sum   'K4 Nd4 C8 O24'
_cell_volume   537.91420757
_cell_formula_units_Z   4
loop_
 _symmetry_equiv_pos_site_id
 _symmetry_equiv_pos_as_xyz
  1  'x, y, z'
loop_
 _atom_site_type_symbol
 _atom_site_label
 _atom_site_symmetry_multiplicity
 _atom_site_fract_x
 _atom_site_fract_y
 _atom_site_fract_z
 _atom_site_occupancy
  K  K0  1  0.45479220  0.68752510  0.23793040  1
  K  K1  1  0.45479220  0.68752510  0.76206960  1
  K  K2  1  0.54520780  0.18752510  0.26206960  1
  K  K3  1  0.54520780  0.18752510  0.73793040  1
  Nd  Nd0  1  0.96785537  0.95273955  0.00000000  1
  Nd  Nd1  1  0.03695375  0.45459111  0.00000000  1
  Nd  Nd2  1  0.03214463  0.45273955  0.50000000  1
  Nd  Nd3  1  0.96304625  0.95459111  0.50000000  1
  C  C0  1  0.96097279  0.76154300  0.75051584  1
  C  C1  1  0.03902721  0.26154300  0.74948416  1
  C  C2  1  0.47387488  0.44224852  0.50000000  1
  C  C3  1  0.03902721  0.26154300  0.25051584  1
  C  C4  1  0.40561306  0.95664098  0.50000000  1
  C  C5  1  0.96097279  0.76154300  0.24948416  1
  C  C6  1  0.59438694  0.45664098  0.00000000  1
  C  C7  1  0.52612512  0.94224852  0.00000000  1
  O  O0  1  0.39770981  0.47374646  0.00000000  1
  O  O1  1  0.36704365  0.31341563  0.50000000  1
  O  O2  1  0.32915985  0.93751412  0.00000000  1
  O  O3  1  0.02997337  0.19416359  0.13332754  1
  O  O4  1  0.03620373  0.70311153  0.86140172  1
  O  O5  1  0.87933009  0.90088800  0.75499090  1
  O  O6  1  0.97002663  0.69416359  0.36667246  1
  O  O7  1  0.60229019  0.97374646  0.50000000  1
  O  O8  1  0.69610999  0.44959580  0.88581495  1
  O  O9  1  0.12066991  0.40088800  0.74500910  1
  O  O10  1  0.96379627  0.20311153  0.63859828  1
  O  O11  1  0.63295635  0.81341563  0.00000000  1
  O  O12  1  0.12066991  0.40088800  0.25499090  1
  O  O13  1  0.96379627  0.20311153  0.36140172  1
  O  O14  1  0.62408361  0.07564959  0.00000000  1
  O  O15  1  0.87933009  0.90088800  0.24500910  1
  O  O16  1  0.69610999  0.44959580  0.11418505  1
  O  O17  1  0.97002663  0.69416359  0.63332754  1
  O  O18  1  0.37591639  0.57564959  0.50000000  1
  O  O19  1  0.30389001  0.94959580  0.38581495  1
  O  O20  1  0.03620373  0.70311153  0.13859828  1
  O  O21  1  0.02997337  0.19416359  0.86667246  1
  O  O22  1  0.30389001  0.94959580  0.61418505  1
  O  O23  1  0.67084015  0.43751412  0.50000000  1
loop_
_geom_bond_atom_site_label_1
_geom_bond_atom_site_label_2
_geom_bond_distance
_geom_bond_site_symmetry_2
K0 O18 2.775061 1_555
K0 O11 2.805027 1_555
K0 O16 2.827786 1_555
K0 O19 2.827969 1_555
K0 O20 2.887651 1_555
K0 O0 2.970300 1_555
K1 O18 2.775061 1_555
K1 O11 2.805027 1_556
K1 O8 2.827786 1_555
K1 O22 2.827969 1_555
K1 O4 2.887651 1_555
K1 O0 2.970300 1_556
K2 O14 2.775061 1_555
K2 O1 2.805027 1_555
K2 O19 2.827786 1_545
K2 O16 2.827969 1_555
K2 O13 2.887651 1_555
K2 O7 2.970300 1_545
K3 O14 2.775061 1_556
K3 O1 2.805027 1_555
K3 O22 2.827786 1_545
K3 O8 2.827969 1_555
K3 O10 2.887651 1_555
K3 O7 2.970300 1_545
Nd0 O2 2.348740 1_655
Nd0 O3 2.461864 1_665
Nd0 O21 2.461864 1_664
Nd0 O14 2.463603 1_565
Nd0 O11 2.475134 1_555
Nd0 O15 2.497302 1_555
Nd0 O5 2.497302 1_554
Nd0 O4 2.553852 1_654
Nd0 O20 2.553852 1_655
Nd1 O0 2.347264 1_555
Nd1 O16 2.477311 1_455
Nd1 O8 2.477311 1_454
Nd1 O4 2.507099 1_554
Nd1 O20 2.507099 1_555
Nd1 O3 2.566820 1_555
Nd1 O21 2.566820 1_554
Nd1 O12 2.586629 1_555
Nd1 O9 2.586629 1_554
Nd2 O23 2.348740 1_455
Nd2 O6 2.461864 1_455
Nd2 O17 2.461864 1_455
Nd2 O18 2.463603 1_555
Nd2 O1 2.475134 1_555
Nd2 O9 2.497302 1_555
Nd2 O12 2.497302 1_555
Nd2 O10 2.553852 1_455
Nd2 O13 2.553852 1_455
Nd3 O7 2.347264 1_555
Nd3 O22 2.477311 1_655
Nd3 O19 2.477311 1_655
Nd3 O10 2.507099 1_565
Nd3 O13 2.507099 1_565
Nd3 O6 2.566820 1_555
Nd3 O17 2.566820 1_555
Nd3 O5 2.586629 1_555
Nd3 O15 2.586629 1_555
C0 O17 1.279819 1_555
C0 O4 1.286430 1_655
C0 O5 1.297736 1_555
C1 O21 1.279819 1_555
C1 O10 1.286430 1_455
C1 O9 1.297736 1_555
C2 O23 1.279106 1_555
C2 O1 1.295671 1_555
C2 O18 1.299487 1_555
C3 O3 1.279819 1_555
C3 O13 1.286430 1_455
C3 O12 1.297736 1_555
C4 O7 1.284848 1_555
C4 O22 1.296238 1_555
C4 O19 1.296238 1_555
C5 O6 1.279819 1_555
C5 O20 1.286430 1_655
C5 O15 1.297736 1_555
C6 O0 1.284848 1_555
C6 O8 1.296238 1_554
C6 O16 1.296238 1_555
C7 O2 1.279106 1_555
C7 O11 1.295671 1_555
C7 O14 1.299487 1_565
