# generated using pymatgen
data_Ta4S9Br8
_symmetry_space_group_name_H-M   'P 1'
_cell_length_a   9.93409080
_cell_length_b   9.93425561
_cell_length_c   9.93414157
_cell_angle_alpha   97.45467881
_cell_angle_beta   97.45401500
_cell_angle_gamma   137.77717026
_symmetry_Int_Tables_number   1
_chemical_formula_structural   Ta4S9Br8
_chemical_formula_sum   'Ta4 S9 Br8'
_cell_volume   614.60705747
_cell_formula_units_Z   1
loop_
 _symmetry_equiv_pos_site_id
 _symmetry_equiv_pos_as_xyz
  1  'x, y, z'
loop_
 _atom_site_type_symbol
 _atom_site_label
 _atom_site_symmetry_multiplicity
 _atom_site_fract_x
 _atom_site_fract_y
 _atom_site_fract_z
 _atom_site_occupancy
  Ta  Ta0  1  0.24487084  0.06581071  0.17905192  1
  Ta  Ta1  1  0.06580164  0.88674732  0.82095591  1
  Ta  Ta2  1  0.88674145  0.06579613  0.82093389  1
  Ta  Ta3  1  0.06581975  0.24488151  0.17906416  1
  S  S0  1  0.87774320  0.87773863  0.61554779  1
  S  S1  1  0.26219009  0.87773235  0.00000299  1
  S  S2  1  0.26221722  0.26221316  0.38444995  1
  S  S3  1  0.69573218  0.96102648  0.00000551  1
  S  S4  1  0.17151745  0.17152100  -0.00000075  1
  S  S5  1  0.69572065  0.69572082  0.73470704  1
  S  S6  1  0.96103336  0.96103630  0.26529633  1
  S  S7  1  0.87774650  0.26219425  -0.00000769  1
  S  S8  1  0.96101703  0.69572576  0.00001155  1
  Br  Br0  1  0.17507061  0.40282337  0.77224671  1
  Br  Br1  1  0.63057581  0.40285460  0.22773333  1
  Br  Br2  1  0.28143430  0.92816961  0.35325907  1
  Br  Br3  1  0.40287077  0.63057734  0.22771629  1
  Br  Br4  1  0.92806103  0.57481964  0.64675734  1
  Br  Br5  1  0.57481199  0.92806329  0.64674219  1
  Br  Br6  1  0.40282128  0.17507352  0.77225491  1
  Br  Br7  1  0.92816186  0.28143322  0.35327056  1
loop_
_geom_bond_atom_site_label_1
_geom_bond_atom_site_label_2
_geom_bond_distance
_geom_bond_site_symmetry_2
S0 S5 2.051524 1_555
S0 Ta2 2.525355 1_565
S0 Ta1 2.525448 1_655
S1 S8 2.051496 1_455
S1 Ta0 2.525373 1_565
S1 Ta1 2.525399 1_554
S2 S6 2.051495 1_445
S2 Ta3 2.525388 1_555
S2 Ta0 2.525420 1_555
S3 S7 2.051498 1_565
S3 Ta3 2.505862 1_665
S3 Ta2 2.505911 1_564
S4 Ta1 2.465602 1_544
S4 Ta2 2.465656 1_454
S4 Ta0 2.465665 1_555
S4 Ta3 2.465678 1_555
S5 Ta1 2.505823 1_655
S5 Ta2 2.505842 1_565
S6 Ta0 2.505873 1_665
S6 Ta3 2.505882 1_665
S7 Ta2 2.525402 1_554
S7 Ta3 2.525430 1_655
S8 Ta0 2.505809 1_665
S8 Ta1 2.505858 1_654
Br0 Ta2 2.494825 1_455
Br1 Ta0 2.494803 1_555
Br2 Ta0 2.486585 1_565
Br3 Ta3 2.494843 1_555
Br4 Ta1 2.486678 1_655
Br5 Ta2 2.486660 1_565
Br6 Ta1 2.494830 1_545
Br7 Ta3 2.486622 1_655
