# generated using pymatgen
data_Zn2SiO4
_symmetry_space_group_name_H-M   'P 1'
_cell_length_a   5.83625148
_cell_length_b   5.83625148
_cell_length_c   5.83625148
_cell_angle_alpha   60.00000000
_cell_angle_beta   60.00000000
_cell_angle_gamma   60.00000000
_symmetry_Int_Tables_number   1
_chemical_formula_structural   Zn2SiO4
_chemical_formula_sum   'Zn4 Si2 O8'
_cell_volume   140.56817096
_cell_formula_units_Z   2
loop_
 _symmetry_equiv_pos_site_id
 _symmetry_equiv_pos_as_xyz
  1  'x, y, z'
loop_
 _atom_site_type_symbol
 _atom_site_label
 _atom_site_symmetry_multiplicity
 _atom_site_fract_x
 _atom_site_fract_y
 _atom_site_fract_z
 _atom_site_occupancy
  Zn  Zn0  1  0.62500000  0.62500000  0.12500000  1
  Zn  Zn1  1  0.62500000  0.12500000  0.62500000  1
  Zn  Zn2  1  0.62500000  0.62500000  0.62500000  1
  Zn  Zn3  1  0.12500000  0.62500000  0.62500000  1
  Si  Si0  1  0.00000000  0.00000000  0.00000000  1
  Si  Si1  1  0.25000000  0.25000000  0.25000000  1
  O  O0  1  0.89817900  0.36727400  0.36727400  1
  O  O1  1  0.36727400  0.89817900  0.36727400  1
  O  O2  1  0.88272600  0.88272600  0.35182100  1
  O  O3  1  0.36727400  0.36727400  0.36727400  1
  O  O4  1  0.35182100  0.88272600  0.88272600  1
  O  O5  1  0.36727400  0.36727400  0.89817900  1
  O  O6  1  0.88272600  0.35182100  0.88272600  1
  O  O7  1  0.88272600  0.88272600  0.88272600  1
loop_
_geom_bond_atom_site_label_1
_geom_bond_atom_site_label_2
_geom_bond_distance
_geom_bond_site_symmetry_2
O0 Si1 1.676525 1_655
O0 Zn2 2.129106 1_555
O0 Zn0 2.129110 1_555
O0 Zn1 2.129110 1_555
O1 Si1 1.676525 1_565
O1 Zn2 2.129106 1_555
O1 Zn0 2.129110 1_555
O1 Zn3 2.129110 1_555
O2 Si0 1.676525 1_665
O2 Zn2 2.129106 1_555
O2 Zn1 2.129110 1_565
O2 Zn3 2.129110 1_655
O3 Si1 1.676530 1_555
O3 Zn1 2.129105 1_555
O3 Zn3 2.129105 1_555
O3 Zn0 2.129105 1_555
O4 Si0 1.676525 1_566
O4 Zn2 2.129106 1_555
O4 Zn0 2.129110 1_556
O4 Zn1 2.129110 1_565
O5 Si1 1.676525 1_556
O5 Zn2 2.129106 1_555
O5 Zn3 2.129110 1_555
O5 Zn1 2.129110 1_555
O6 Si0 1.676525 1_656
O6 Zn2 2.129106 1_555
O6 Zn0 2.129110 1_556
O6 Zn3 2.129110 1_655
O7 Si0 1.676530 1_666
O7 Zn1 2.129105 1_565
O7 Zn3 2.129105 1_655
O7 Zn0 2.129105 1_556
