# generated using pymatgen
data_K4WO5
_symmetry_space_group_name_H-M   'P 1'
_cell_length_a   6.26725952
_cell_length_b   10.20826622
_cell_length_c   16.89991286
_cell_angle_alpha   94.31288593
_cell_angle_beta   92.52781143
_cell_angle_gamma   96.15798509
_symmetry_Int_Tables_number   1
_chemical_formula_structural   K4WO5
_chemical_formula_sum   'K24 W6 O30'
_cell_volume   1070.45207888
_cell_formula_units_Z   6
loop_
 _symmetry_equiv_pos_site_id
 _symmetry_equiv_pos_as_xyz
  1  'x, y, z'
loop_
 _atom_site_type_symbol
 _atom_site_label
 _atom_site_symmetry_multiplicity
 _atom_site_fract_x
 _atom_site_fract_y
 _atom_site_fract_z
 _atom_site_occupancy
  K  K0  1  0.44240832  0.41996590  0.08336365  1
  K  K1  1  0.55759168  0.58003410  0.91663635  1
  K  K2  1  0.72962200  0.53718744  0.55778586  1
  K  K3  1  0.27037800  0.46281256  0.44221414  1
  K  K4  1  0.95851296  0.29794191  0.99626766  1
  K  K5  1  0.04148704  0.70205809  0.00373234  1
  K  K6  1  0.50965657  0.01042594  0.67836105  1
  K  K7  1  0.49034343  0.98957406  0.32163895  1
  K  K8  1  0.42334426  0.80780677  0.49617515  1
  K  K9  1  0.57665574  0.19219323  0.50382485  1
  K  K10  1  0.94633911  0.49936717  0.17882728  1
  K  K11  1  0.05366089  0.50063283  0.82117272  1
  K  K12  1  0.06854642  0.08913329  0.40592548  1
  K  K13  1  0.93145358  0.91086671  0.59407452  1
  K  K14  1  0.23196110  0.59453164  0.64779424  1
  K  K15  1  0.76803890  0.40546836  0.35220576  1
  K  K16  1  0.94415984  0.16283582  0.78996590  1
  K  K17  1  0.05584016  0.83716418  0.21003410  1
  K  K18  1  0.74603807  0.95454929  0.92832782  1
  K  K19  1  0.25396193  0.04545071  0.07167218  1
  K  K20  1  0.77995244  0.11362630  0.15374605  1
  K  K21  1  0.22004756  0.88637370  0.84625395  1
  K  K22  1  0.42271674  0.64954857  0.28131219  1
  K  K23  1  0.57728326  0.35045143  0.71868781  1
  W  W0  1  0.71735201  0.73286762  0.74900882  1
  W  W1  1  0.28264799  0.26713238  0.25099118  1
  W  W2  1  0.10115641  0.25707489  0.59719545  1
  W  W3  1  0.89884359  0.74292511  0.40280455  1
  W  W4  1  0.56323433  0.77471967  0.09221190  1
  W  W5  1  0.43676567  0.22528033  0.90778810  1
  O  O0  1  0.15914585  0.84082476  0.37517713  1
  O  O1  1  0.84085415  0.15917524  0.62482287  1
  O  O2  1  0.31517239  0.66228413  0.11960154  1
  O  O3  1  0.68482761  0.33771587  0.88039846  1
  O  O4  1  0.63887048  0.63456076  0.42392186  1
  O  O5  1  0.36112952  0.36543924  0.57607814  1
  O  O6  1  0.42759045  0.81904545  0.00082982  1
  O  O7  1  0.57240955  0.18095455  0.99917018  1
  O  O8  1  0.71278763  0.62695450  0.08087576  1
  O  O9  1  0.28721237  0.37304550  0.91912424  1
  O  O10  1  0.58874469  0.75902619  0.64579819  1
  O  O11  1  0.41125531  0.24097381  0.35420181  1
  O  O12  1  0.85825175  0.71800638  0.85102183  1
  O  O13  1  0.14174825  0.28199362  0.14897817  1
  O  O14  1  0.82502718  0.88248451  0.07285192  1
  O  O15  1  0.17497282  0.11751549  0.92714808  1
  O  O16  1  0.12849598  0.34024338  0.69888475  1
  O  O17  1  0.87150402  0.65975662  0.30111525  1
  O  O18  1  0.84201127  0.59121407  0.70592362  1
  O  O19  1  0.15798873  0.40878593  0.29407638  1
  O  O20  1  0.04109270  0.67921785  0.48823968  1
  O  O21  1  0.95890730  0.32078215  0.51176032  1
  O  O22  1  0.77160310  0.89611057  0.42665791  1
  O  O23  1  0.22839690  0.10388943  0.57334209  1
  O  O24  1  0.85355760  0.90459479  0.75225025  1
  O  O25  1  0.14644240  0.09540521  0.24774975  1
  O  O26  1  0.46079404  0.11867795  0.81553555  1
  O  O27  1  0.53920596  0.88132205  0.18446445  1
  O  O28  1  0.44865040  0.69254236  0.78747813  1
  O  O29  1  0.55134960  0.30745764  0.21252187  1
loop_
_geom_bond_atom_site_label_1
_geom_bond_atom_site_label_2
_geom_bond_distance
_geom_bond_site_symmetry_2
K0 O8 2.566991 1_555
K0 O13 2.571738 1_555
K0 O29 2.638852 1_555
K0 O2 2.714459 1_555
K0 O9 2.888175 1_554
K0 O7 2.940751 1_554
K1 O9 2.566991 1_555
K1 O12 2.571738 1_555
K1 O28 2.638852 1_555
K1 O3 2.714459 1_555
K1 O8 2.888175 1_556
K1 O6 2.940751 1_556
K2 O18 2.573196 1_555
K2 O4 2.602984 1_555
K2 O20 2.673124 1_655
K2 O5 2.789045 1_555
K2 O21 2.841019 1_555
K2 O10 2.856299 1_555
K3 O19 2.573196 1_555
K3 O5 2.602984 1_555
K3 O21 2.673124 1_455
K3 O4 2.789045 1_555
K3 O20 2.841019 1_555
K3 O11 2.856299 1_555
K4 O9 2.565083 1_655
K4 O7 2.585225 1_555
K4 O3 2.629477 1_555
K4 O15 2.636193 1_655
K4 O13 2.801369 1_656
K5 O8 2.565083 1_455
K5 O6 2.585225 1_555
K5 O2 2.629477 1_555
K5 O14 2.636193 1_455
K5 O12 2.801369 1_454
K6 O26 2.537535 1_555
K6 O1 2.670025 1_555
K6 O10 2.686868 1_545
K6 O23 2.739894 1_555
K6 O24 2.799450 1_545
K7 O27 2.537535 1_555
K7 O0 2.670025 1_555
K7 O11 2.686868 1_565
K7 O22 2.739894 1_555
K7 O25 2.799450 1_565
K8 O20 2.598236 1_555
K8 O4 2.603172 1_555
K8 O22 2.630598 1_555
K8 O0 2.638457 1_555
K8 O10 2.790223 1_555
K9 O21 2.598236 1_555
K9 O5 2.603172 1_555
K9 O23 2.630598 1_555
K9 O1 2.638457 1_555
K9 O11 2.790223 1_555
K10 O19 2.591177 1_655
K10 O17 2.629277 1_555
K10 O8 2.664334 1_555
K10 O13 2.673474 1_655
K10 O2 2.956480 1_655
K10 O29 3.089009 1_555
K11 O18 2.591177 1_455
K11 O16 2.629277 1_555
K11 O9 2.664334 1_555
K11 O12 2.673474 1_455
K11 O3 2.956480 1_455
K11 O28 3.089009 1_555
K12 O22 2.615985 1_445
K12 O0 2.674761 1_545
K12 O11 2.726732 1_555
K12 O25 2.742690 1_555
K12 O23 2.947020 1_555
K12 O21 3.013980 1_455
K13 O23 2.615985 1_665
K13 O1 2.674761 1_565
K13 O10 2.726732 1_555
K13 O24 2.742690 1_555
K13 O22 2.947020 1_555
K13 O20 3.013980 1_655
K14 O10 2.651495 1_555
K14 O18 2.671699 1_455
K14 O28 2.736503 1_555
K14 O5 2.767652 1_555
K14 O16 2.815980 1_555
K14 O20 3.120440 1_555
K15 O11 2.651495 1_555
K15 O19 2.671699 1_655
K15 O29 2.736503 1_555
K15 O4 2.767652 1_555
K15 O17 2.815980 1_555
K15 O21 3.120440 1_555
K16 O24 2.659401 1_545
K16 O16 2.666661 1_655
K16 O15 2.773173 1_655
K16 O1 2.833629 1_555
K16 O3 2.931821 1_555
K16 O26 3.069017 1_555
K16 O26 3.330588 1_655
K17 O25 2.659401 1_565
K17 O17 2.666661 1_455
K17 O14 2.773173 1_455
K17 O0 2.833629 1_555
K17 O2 2.931821 1_555
K17 O27 3.069017 1_555
K17 O27 3.330588 1_455
K18 O14 2.644527 1_556
K18 O6 2.697452 1_556
K18 O12 2.828970 1_555
K18 O7 2.863121 1_565
K18 O15 3.007472 1_665
K18 O24 3.096975 1_555
K18 O26 3.234031 1_565
K19 O15 2.644527 1_554
K19 O7 2.697452 1_554
K19 O13 2.828970 1_555
K19 O6 2.863121 1_545
K19 O14 3.007472 1_445
K19 O25 3.096975 1_555
K19 O27 3.234031 1_545
K20 O14 2.684806 1_545
K20 O13 2.702371 1_655
K20 O29 2.718938 1_555
K20 O25 2.765565 1_655
K20 O27 2.767004 1_545
K20 O7 3.024997 1_554
K21 O15 2.684806 1_565
K21 O12 2.702371 1_455
K21 O28 2.718938 1_555
K21 O24 2.765565 1_455
K21 O26 2.767004 1_565
K21 O6 3.024997 1_556
K22 O4 2.734789 1_555
K22 O2 2.801726 1_555
K22 O17 2.807632 1_555
K22 O19 2.841885 1_555
K22 O27 3.021107 1_555
K22 O0 3.084629 1_555
K23 O5 2.734789 1_555
K23 O3 2.801726 1_555
K23 O16 2.807632 1_555
K23 O18 2.841885 1_555
K23 O26 3.021107 1_555
K23 O1 3.084629 1_555
O0 W3 1.914618 1_455
O1 W2 1.914618 1_655
O2 W4 1.925927 1_555
O3 W5 1.925927 1_555
O4 W3 1.931253 1_555
O5 W2 1.931253 1_555
O6 W4 1.839642 1_555
O7 W5 1.839642 1_555
O8 W4 1.861790 1_555
O9 W5 1.861790 1_555
O10 W0 1.937936 1_555
O11 W1 1.937936 1_555
O12 W0 1.925826 1_555
O13 W1 1.925826 1_555
O14 W4 1.929632 1_555
O15 W5 1.929632 1_555
O16 W2 1.851193 1_555
O17 W3 1.851193 1_555
O18 W0 1.834607 1_555
O19 W1 1.834607 1_555
O20 W3 1.858630 1_455
O21 W2 1.858630 1_655
O22 W3 1.856030 1_555
O23 W2 1.856030 1_555
O24 W0 1.861508 1_555
O25 W1 1.861508 1_555
O26 W5 1.854257 1_555
O27 W4 1.854257 1_555
O28 W0 1.848284 1_555
O29 W1 1.848284 1_555
