# generated using pymatgen
data_AlPO4
_symmetry_space_group_name_H-M   'P 1'
_cell_length_a   8.68817800
_cell_length_b   9.95573600
_cell_length_c   19.64401500
_cell_angle_alpha   90.00000000
_cell_angle_beta   90.00000000
_cell_angle_gamma   90.00000000
_symmetry_Int_Tables_number   1
_chemical_formula_structural   AlPO4
_chemical_formula_sum   'Al16 P16 O64'
_cell_volume   1699.15242173
_cell_formula_units_Z   16
loop_
 _symmetry_equiv_pos_site_id
 _symmetry_equiv_pos_as_xyz
  1  'x, y, z'
loop_
 _atom_site_type_symbol
 _atom_site_label
 _atom_site_symmetry_multiplicity
 _atom_site_fract_x
 _atom_site_fract_y
 _atom_site_fract_z
 _atom_site_occupancy
  Al  Al0  1  0.92148000  0.12931300  0.03317400  1
  Al  Al1  1  0.07852000  0.62931300  0.96682600  1
  Al  Al2  1  0.41778800  0.87875400  0.42388800  1
  Al  Al3  1  0.07886800  0.33001400  0.72213300  1
  Al  Al4  1  0.41778800  0.37875400  0.07611200  1
  Al  Al5  1  0.92113200  0.83001400  0.27786700  1
  Al  Al6  1  0.42646800  0.52681500  0.32081500  1
  Al  Al7  1  0.58221200  0.37875400  0.57611200  1
  Al  Al8  1  0.07886800  0.83001400  0.77786700  1
  Al  Al9  1  0.07852000  0.12931300  0.53317400  1
  Al  Al10  1  0.57353200  0.52681500  0.82081500  1
  Al  Al11  1  0.92113200  0.33001400  0.22213300  1
  Al  Al12  1  0.58221200  0.87875400  0.92388800  1
  Al  Al13  1  0.92148000  0.62931300  0.46682600  1
  Al  Al14  1  0.42646800  0.02681500  0.17918500  1
  Al  Al15  1  0.57353200  0.02681500  0.67918500  1
  P  P0  1  0.05592200  0.04704800  0.17813300  1
  P  P1  1  0.05592200  0.54704800  0.32186700  1
  P  P2  1  0.55361800  0.30771700  0.22366600  1
  P  P3  1  0.95252900  0.40921800  0.57641000  1
  P  P4  1  0.44638200  0.80771700  0.77633400  1
  P  P5  1  0.04747100  0.90921800  0.42359000  1
  P  P6  1  0.45161400  0.10092300  0.53333000  1
  P  P7  1  0.55361800  0.80771700  0.27633400  1
  P  P8  1  0.95252900  0.90921800  0.92359000  1
  P  P9  1  0.45161400  0.60092300  0.96667000  1
  P  P10  1  0.94407800  0.54704800  0.82186700  1
  P  P11  1  0.04747100  0.40921800  0.07641000  1
  P  P12  1  0.54838600  0.60092300  0.46667000  1
  P  P13  1  0.54838600  0.10092300  0.03333000  1
  P  P14  1  0.94407800  0.04704800  0.67813300  1
  P  P15  1  0.44638200  0.30771700  0.72366600  1
  O  O0  1  0.01735800  0.16240800  0.71911300  1
  O  O1  1  0.98385700  0.41221300  0.78843100  1
  O  O2  1  0.72097200  0.63277900  0.46065700  1
  O  O3  1  0.98956000  0.29485500  0.03003000  1
  O  O4  1  0.98956000  0.79485500  0.46997000  1
  O  O5  1  0.72407000  0.83338400  0.26132600  1
  O  O6  1  0.45639300  0.23264000  0.02891600  1
  O  O7  1  0.27902800  0.13277900  0.53934300  1
  O  O8  1  0.49736800  0.01826400  0.09569200  1
  O  O9  1  0.23102800  0.06572200  0.17705300  1
  O  O10  1  0.98264200  0.66240800  0.28088700  1
  O  O11  1  0.48322400  0.01988400  0.46829100  1
  O  O12  1  0.27902800  0.63277900  0.96065700  1
  O  O13  1  0.01735800  0.66240800  0.78088700  1
  O  O14  1  0.95870200  0.40968400  0.14401300  1
  O  O15  1  0.54381400  0.87313900  0.72001300  1
  O  O16  1  0.21999700  0.38988400  0.09094200  1
  O  O17  1  0.00484300  0.04647600  0.60470400  1
  O  O18  1  0.49736800  0.51826400  0.40430800  1
  O  O19  1  0.01614300  0.41221300  0.28843100  1
  O  O20  1  0.98264200  0.16240800  0.21911300  1
  O  O21  1  0.51677600  0.01988400  0.96829100  1
  O  O22  1  0.76897200  0.56572200  0.82294700  1
  O  O23  1  0.54381400  0.37313900  0.77998700  1
  O  O24  1  0.99515700  0.54647600  0.39529600  1
  O  O25  1  0.54360700  0.73264000  0.97108400  1
  O  O26  1  0.97968400  0.54443600  0.54060200  1
  O  O27  1  0.51237800  0.86978200  0.34574600  1
  O  O28  1  0.27593000  0.83338400  0.76132600  1
  O  O29  1  0.48322400  0.51988400  0.03170900  1
  O  O30  1  0.51237800  0.36978200  0.15425400  1
  O  O31  1  0.78000300  0.88988400  0.90905800  1
  O  O32  1  0.50263200  0.51826400  0.90430800  1
  O  O33  1  0.45639300  0.73264000  0.47108400  1
  O  O34  1  0.04129800  0.90968400  0.85598700  1
  O  O35  1  0.78000300  0.38988400  0.59094200  1
  O  O36  1  0.47804500  0.65564700  0.77640100  1
  O  O37  1  0.52195500  0.65564700  0.27640100  1
  O  O38  1  0.23102800  0.56572200  0.32294700  1
  O  O39  1  0.48762200  0.86978200  0.84574600  1
  O  O40  1  0.04129800  0.40968400  0.64401300  1
  O  O41  1  0.76897200  0.06572200  0.67705300  1
  O  O42  1  0.95870200  0.90968400  0.35598700  1
  O  O43  1  0.01614300  0.91221300  0.21156900  1
  O  O44  1  0.21999700  0.88988400  0.40905800  1
  O  O45  1  0.97968400  0.04443600  0.95939800  1
  O  O46  1  0.02031600  0.54443600  0.04060200  1
  O  O47  1  0.48762200  0.36978200  0.65425400  1
  O  O48  1  0.72097200  0.13277900  0.03934300  1
  O  O49  1  0.52195500  0.15564700  0.22359900  1
  O  O50  1  0.01044000  0.29485500  0.53003000  1
  O  O51  1  0.45618600  0.37313900  0.27998700  1
  O  O52  1  0.02031600  0.04443600  0.45939800  1
  O  O53  1  0.01044000  0.79485500  0.96997000  1
  O  O54  1  0.72407000  0.33338400  0.23867400  1
  O  O55  1  0.00484300  0.54647600  0.89529600  1
  O  O56  1  0.50263200  0.01826400  0.59569200  1
  O  O57  1  0.47804500  0.15564700  0.72359900  1
  O  O58  1  0.98385700  0.91221300  0.71156900  1
  O  O59  1  0.27593000  0.33338400  0.73867400  1
  O  O60  1  0.54360700  0.23264000  0.52891600  1
  O  O61  1  0.99515700  0.04647600  0.10470400  1
  O  O62  1  0.51677600  0.51988400  0.53170900  1
  O  O63  1  0.45618600  0.87313900  0.22001300  1
loop_
_geom_bond_atom_site_label_1
_geom_bond_atom_site_label_2
_geom_bond_distance
_geom_bond_site_symmetry_2
Al0 O48 1.746600 1_555
Al0 O61 1.750513 1_555
Al0 O3 1.752109 1_555
Al0 O45 1.752173 1_554
Al1 O12 1.746600 1_555
Al1 O55 1.750513 1_555
Al1 O53 1.752109 1_555
Al1 O46 1.752173 1_556
Al2 O27 1.743460 1_555
Al2 O44 1.746480 1_555
Al2 O11 1.748775 1_565
Al2 O33 1.757305 1_555
Al3 O59 1.742993 1_555
Al3 O1 1.745635 1_455
Al3 O0 1.753133 1_555
Al3 O40 1.758021 1_555
Al4 O30 1.743460 1_555
Al4 O16 1.746480 1_555
Al4 O29 1.748775 1_555
Al4 O6 1.757305 1_555
Al5 O5 1.742993 1_555
Al5 O43 1.745635 1_655
Al5 O10 1.753133 1_555
Al5 O42 1.758021 1_555
Al6 O38 1.742141 1_555
Al6 O51 1.746620 1_555
Al6 O18 1.754065 1_555
Al6 O37 1.759136 1_555
Al7 O47 1.743460 1_555
Al7 O35 1.746480 1_555
Al7 O62 1.748775 1_555
Al7 O60 1.757305 1_555
Al8 O28 1.742993 1_555
Al8 O58 1.745635 1_455
Al8 O13 1.753133 1_555
Al8 O34 1.758021 1_555
Al9 O7 1.746600 1_555
Al9 O17 1.750513 1_555
Al9 O50 1.752109 1_555
Al9 O52 1.752173 1_555
Al10 O22 1.742141 1_555
Al10 O23 1.746620 1_555
Al10 O32 1.754065 1_555
Al10 O36 1.759136 1_555
Al11 O54 1.742993 1_555
Al11 O19 1.745635 1_655
Al11 O20 1.753133 1_555
Al11 O14 1.758021 1_555
Al12 O39 1.743460 1_555
Al12 O31 1.746480 1_555
Al12 O21 1.748775 1_565
Al12 O25 1.757305 1_555
Al13 O2 1.746600 1_555
Al13 O24 1.750513 1_555
Al13 O4 1.752109 1_555
Al13 O26 1.752173 1_555
Al14 O9 1.742141 1_555
Al14 O63 1.746620 1_545
Al14 O8 1.754065 1_555
Al14 O49 1.759136 1_555
Al15 O41 1.742141 1_555
Al15 O15 1.746620 1_545
Al15 O56 1.754065 1_555
Al15 O57 1.759136 1_555
O0 P14 1.540269 1_455
O1 P10 1.533898 1_555
O2 P12 1.537176 1_555
O3 P11 1.542586 1_655
O4 P5 1.542586 1_655
O5 P7 1.531447 1_555
O6 P13 1.538159 1_555
O7 P6 1.537176 1_555
O8 P13 1.540913 1_555
O9 P0 1.532816 1_555
O10 P1 1.540269 1_655
O11 P6 1.535801 1_555
O12 P9 1.537176 1_555
O13 P10 1.540269 1_455
O14 P11 1.535709 1_655
O15 P4 1.537808 1_555
O16 P11 1.537970 1_555
O17 P14 1.536029 1_455
O18 P12 1.540913 1_555
O19 P1 1.533898 1_555
O20 P0 1.540269 1_655
O21 P13 1.535801 1_556
O22 P10 1.532816 1_555
O23 P15 1.537808 1_555
O24 P1 1.536029 1_655
O25 P9 1.538159 1_555
O26 P3 1.537105 1_555
O27 P7 1.539285 1_555
O28 P4 1.531447 1_555
O29 P9 1.535801 1_554
O30 P2 1.539285 1_555
O31 P8 1.537970 1_555
O32 P9 1.540913 1_555
O33 P12 1.538159 1_555
O34 P8 1.535709 1_455
O35 P3 1.537970 1_555
O36 P4 1.538759 1_555
O37 P7 1.538759 1_555
O38 P1 1.532816 1_555
O39 P4 1.539285 1_555
O40 P3 1.535709 1_455
O41 P14 1.532816 1_555
O42 P5 1.535709 1_655
O43 P0 1.533898 1_565
O44 P5 1.537970 1_555
O45 P8 1.537105 1_545
O46 P11 1.537105 1_555
O47 P15 1.539285 1_555
O48 P13 1.537176 1_555
O49 P2 1.538759 1_555
O50 P3 1.542586 1_455
O51 P2 1.537808 1_555
O52 P5 1.537105 1_545
O53 P8 1.542586 1_455
O54 P2 1.531447 1_555
O55 P10 1.536029 1_455
O56 P6 1.540913 1_555
O57 P15 1.538759 1_555
O58 P14 1.533898 1_565
O59 P15 1.531447 1_555
O60 P6 1.538159 1_555
O61 P0 1.536029 1_655
O62 P12 1.535801 1_555
O63 P7 1.537808 1_555
