# generated using pymatgen
data_CsAu2F7
_symmetry_space_group_name_H-M   'P 1'
_cell_length_a   7.84273578
_cell_length_b   7.84284721
_cell_length_c   7.38546231
_cell_angle_alpha   65.32492740
_cell_angle_beta   65.32272617
_cell_angle_gamma   86.67978643
_symmetry_Int_Tables_number   1
_chemical_formula_structural   CsAu2F7
_chemical_formula_sum   'Cs2 Au4 F14'
_cell_volume   371.35169810
_cell_formula_units_Z   2
loop_
 _symmetry_equiv_pos_site_id
 _symmetry_equiv_pos_as_xyz
  1  'x, y, z'
loop_
 _atom_site_type_symbol
 _atom_site_label
 _atom_site_symmetry_multiplicity
 _atom_site_fract_x
 _atom_site_fract_y
 _atom_site_fract_z
 _atom_site_occupancy
  Cs  Cs0  1  0.30615640  0.69382589  0.25001281  1
  Cs  Cs1  1  0.69385642  0.30615178  0.74999203  1
  Au  Au0  1  0.08623529  0.28828219  0.14518417  1
  Au  Au1  1  0.71170702  0.91376857  0.35481225  1
  Au  Au2  1  0.91374921  0.71170192  0.85482288  1
  Au  Au3  1  0.28830047  0.08627030  0.64516295  1
  F  F0  1  0.90639642  0.81347809  0.44963444  1
  F  F1  1  0.66305175  0.59876878  0.95377040  1
  F  F2  1  0.81343331  0.90640061  0.94959872  1
  F  F3  1  0.51400527  0.01530945  0.26391935  1
  F  F4  1  0.18650038  0.09359801  0.05037874  1
  F  F5  1  0.48598366  0.98466641  0.73608972  1
  F  F6  1  0.81646081  0.18356812  0.24995479  1
  F  F7  1  0.98469952  0.48600553  0.23607568  1
  F  F8  1  0.01534060  0.51402233  0.76390744  1
  F  F9  1  0.33695441  0.40113344  0.04629042  1
  F  F10  1  0.09359638  0.18658709  0.55039554  1
  F  F11  1  0.40124387  0.33694616  0.54623738  1
  F  F12  1  0.18351494  0.81647310  0.75000879  1
  F  F13  1  0.59881185  0.66304221  0.45375150  1
loop_
_geom_bond_atom_site_label_1
_geom_bond_atom_site_label_2
_geom_bond_distance
_geom_bond_site_symmetry_2
Cs0 F1 3.030482 1_554
Cs0 F11 3.030576 1_555
Cs0 F0 3.136631 1_455
Cs0 F4 3.136831 1_565
Cs0 F7 3.139406 1_455
Cs0 F3 3.139597 1_565
Cs0 F13 3.179115 1_555
Cs0 F9 3.179261 1_555
Cs0 F8 3.204827 1_555
Cs0 F5 3.205064 1_554
Cs1 F9 3.030403 1_556
Cs1 F13 3.030512 1_555
Cs1 F10 3.136174 1_655
Cs1 F2 3.136394 1_545
Cs1 F5 3.139699 1_545
Cs1 F8 3.139722 1_655
Cs1 F11 3.178881 1_555
Cs1 F1 3.179018 1_555
Cs1 F7 3.204987 1_555
Cs1 F3 3.205087 1_556
Au0 F9 1.909418 1_555
Au0 F4 1.932296 1_555
Au0 F7 1.941441 1_455
Au0 F6 2.013289 1_455
Au1 F13 1.909548 1_555
Au1 F0 1.932452 1_555
Au1 F3 1.941310 1_565
Au1 F6 2.013462 1_565
Au2 F1 1.909403 1_555
Au2 F2 1.932370 1_555
Au2 F8 1.941312 1_655
Au2 F12 2.013292 1_655
Au3 F11 1.909355 1_555
Au3 F10 1.932390 1_555
Au3 F5 1.941412 1_545
Au3 F12 2.013541 1_545
