# generated using pymatgen
data_Ba4Ag3Ge20
_symmetry_space_group_name_H-M   'P 1'
_cell_length_a   11.01999400
_cell_length_b   11.01999400
_cell_length_c   11.01999400
_cell_angle_alpha   90.00000000
_cell_angle_beta   90.00000000
_cell_angle_gamma   90.00000000
_symmetry_Int_Tables_number   1
_chemical_formula_structural   Ba4Ag3Ge20
_chemical_formula_sum   'Ba8 Ag6 Ge40'
_cell_volume   1338.27102207
_cell_formula_units_Z   2
loop_
 _symmetry_equiv_pos_site_id
 _symmetry_equiv_pos_as_xyz
  1  'x, y, z'
loop_
 _atom_site_type_symbol
 _atom_site_label
 _atom_site_symmetry_multiplicity
 _atom_site_fract_x
 _atom_site_fract_y
 _atom_site_fract_z
 _atom_site_occupancy
  Ba  Ba0  1  0.75000000  0.50000000  0.00000000  1
  Ba  Ba1  1  0.50000000  0.50000000  0.50000000  1
  Ba  Ba2  1  0.00000000  0.00000000  0.00000000  1
  Ba  Ba3  1  0.25000000  0.50000000  0.00000000  1
  Ba  Ba4  1  0.50000000  0.00000000  0.25000000  1
  Ba  Ba5  1  0.00000000  0.75000000  0.50000000  1
  Ba  Ba6  1  0.50000000  0.00000000  0.75000000  1
  Ba  Ba7  1  0.00000000  0.25000000  0.50000000  1
  Ag  Ag0  1  0.00000000  0.50000000  0.25000000  1
  Ag  Ag1  1  0.25000000  0.00000000  0.50000000  1
  Ag  Ag2  1  0.50000000  0.75000000  0.00000000  1
  Ag  Ag3  1  0.50000000  0.25000000  0.00000000  1
  Ag  Ag4  1  0.00000000  0.50000000  0.75000000  1
  Ag  Ag5  1  0.75000000  0.00000000  0.50000000  1
  Ge  Ge0  1  0.30726300  0.11522900  0.00000000  1
  Ge  Ge1  1  0.38477100  0.80726300  0.50000000  1
  Ge  Ge2  1  0.81709500  0.18290500  0.18290500  1
  Ge  Ge3  1  0.18290500  0.81709500  0.18290500  1
  Ge  Ge4  1  0.00000000  0.69273700  0.11522900  1
  Ge  Ge5  1  0.61522900  0.80726300  0.50000000  1
  Ge  Ge6  1  0.88477100  0.00000000  0.30726300  1
  Ge  Ge7  1  0.81709500  0.81709500  0.18290500  1
  Ge  Ge8  1  0.00000000  0.30726300  0.11522900  1
  Ge  Ge9  1  0.81709500  0.18290500  0.81709500  1
  Ge  Ge10  1  0.68290500  0.31709500  0.68290500  1
  Ge  Ge11  1  0.19273700  0.50000000  0.61522900  1
  Ge  Ge12  1  0.00000000  0.30726300  0.88477100  1
  Ge  Ge13  1  0.11522900  0.00000000  0.30726300  1
  Ge  Ge14  1  0.31709500  0.68290500  0.31709500  1
  Ge  Ge15  1  0.88477100  0.00000000  0.69273700  1
  Ge  Ge16  1  0.80726300  0.50000000  0.38477100  1
  Ge  Ge17  1  0.68290500  0.68290500  0.31709500  1
  Ge  Ge18  1  0.00000000  0.69273700  0.88477100  1
  Ge  Ge19  1  0.61522900  0.19273700  0.50000000  1
  Ge  Ge20  1  0.18290500  0.18290500  0.18290500  1
  Ge  Ge21  1  0.81709500  0.81709500  0.81709500  1
  Ge  Ge22  1  0.50000000  0.38477100  0.19273700  1
  Ge  Ge23  1  0.69273700  0.88477100  0.00000000  1
  Ge  Ge24  1  0.80726300  0.50000000  0.61522900  1
  Ge  Ge25  1  0.11522900  0.00000000  0.69273700  1
  Ge  Ge26  1  0.30726300  0.88477100  0.00000000  1
  Ge  Ge27  1  0.50000000  0.61522900  0.80726300  1
  Ge  Ge28  1  0.19273700  0.50000000  0.38477100  1
  Ge  Ge29  1  0.68290500  0.68290500  0.68290500  1
  Ge  Ge30  1  0.18290500  0.18290500  0.81709500  1
  Ge  Ge31  1  0.18290500  0.81709500  0.81709500  1
  Ge  Ge32  1  0.31709500  0.31709500  0.31709500  1
  Ge  Ge33  1  0.31709500  0.31709500  0.68290500  1
  Ge  Ge34  1  0.38477100  0.19273700  0.50000000  1
  Ge  Ge35  1  0.68290500  0.31709500  0.31709500  1
  Ge  Ge36  1  0.50000000  0.38477100  0.80726300  1
  Ge  Ge37  1  0.50000000  0.61522900  0.19273700  1
  Ge  Ge38  1  0.31709500  0.68290500  0.68290500  1
  Ge  Ge39  1  0.69273700  0.11522900  0.00000000  1
loop_
_geom_bond_atom_site_label_1
_geom_bond_atom_site_label_2
_geom_bond_distance
_geom_bond_site_symmetry_2
Ba0 Ge37 3.703198 1_555
Ba0 Ge8 3.703198 1_655
Ba0 Ge22 3.703198 1_555
Ba0 Ge27 3.703198 1_554
Ba0 Ge36 3.703198 1_554
Ba0 Ge12 3.703198 1_654
Ba0 Ge18 3.703198 1_654
Ba0 Ge4 3.703198 1_655
Ba1 Ge14 3.491142 1_555
Ba1 Ge38 3.491142 1_555
Ba1 Ge10 3.491142 1_555
Ba1 Ge35 3.491142 1_555
Ba1 Ge29 3.491142 1_555
Ba1 Ge32 3.491142 1_555
Ba1 Ge17 3.491142 1_555
Ba1 Ge33 3.491142 1_555
Ba1 Ge5 3.616309 1_555
Ba1 Ge24 3.616309 1_555
Ba1 Ge36 3.616309 1_555
Ba1 Ge27 3.616309 1_555
Ba1 Ge1 3.616309 1_555
Ba1 Ge16 3.616309 1_555
Ba1 Ge11 3.616309 1_555
Ba1 Ge22 3.616309 1_555
Ba1 Ge34 3.616309 1_555
Ba1 Ge37 3.616309 1_555
Ba1 Ge19 3.616309 1_555
Ba1 Ge28 3.616309 1_555
Ba2 Ge21 3.491142 1_444
Ba2 Ge3 3.491142 1_545
Ba2 Ge2 3.491142 1_455
Ba2 Ge30 3.491142 1_554
Ba2 Ge7 3.491142 1_445
Ba2 Ge9 3.491142 1_454
Ba2 Ge31 3.491142 1_544
Ba2 Ge20 3.491142 1_555
Ba2 Ge15 3.616309 1_454
Ba2 Ge18 3.616309 1_544
Ba2 Ge4 3.616309 1_545
Ba2 Ge23 3.616309 1_445
Ba2 Ge25 3.616309 1_554
Ba2 Ge39 3.616309 1_455
Ba2 Ge8 3.616309 1_555
Ba2 Ge6 3.616309 1_455
Ba2 Ge26 3.616309 1_545
Ba2 Ge0 3.616309 1_555
Ba2 Ge13 3.616309 1_555
Ba2 Ge12 3.616309 1_554
Ba3 Ge12 3.703198 1_554
Ba3 Ge37 3.703198 1_555
Ba3 Ge22 3.703198 1_555
Ba3 Ge36 3.703198 1_554
Ba3 Ge8 3.703198 1_555
Ba3 Ge27 3.703198 1_554
Ba3 Ge18 3.703198 1_554
Ba3 Ge4 3.703198 1_555
Ba4 Ge26 3.703198 1_545
Ba4 Ge19 3.703198 1_555
Ba4 Ge0 3.703198 1_555
Ba4 Ge34 3.703198 1_555
Ba4 Ge39 3.703198 1_555
Ba4 Ge1 3.703198 1_545
Ba4 Ge23 3.703198 1_545
Ba4 Ge5 3.703198 1_545
Ba5 Ge28 3.703198 1_555
Ba5 Ge11 3.703198 1_555
Ba5 Ge25 3.703198 1_565
Ba5 Ge13 3.703198 1_565
Ba5 Ge15 3.703198 1_465
Ba5 Ge6 3.703198 1_465
Ba5 Ge24 3.703198 1_455
Ba5 Ge16 3.703198 1_455
Ba6 Ge19 3.703198 1_555
Ba6 Ge0 3.703198 1_556
Ba6 Ge34 3.703198 1_555
Ba6 Ge26 3.703198 1_546
Ba6 Ge39 3.703198 1_556
Ba6 Ge23 3.703198 1_546
Ba6 Ge1 3.703198 1_545
Ba6 Ge5 3.703198 1_545
Ba7 Ge25 3.703198 1_555
Ba7 Ge28 3.703198 1_555
Ba7 Ge6 3.703198 1_455
Ba7 Ge11 3.703198 1_555
Ba7 Ge13 3.703198 1_555
Ba7 Ge15 3.703198 1_455
Ba7 Ge24 3.703198 1_455
Ba7 Ge16 3.703198 1_455
Ag0 Ge28 2.591709 1_555
Ag0 Ge16 2.591709 1_455
Ag0 Ge8 2.591709 1_555
Ag0 Ge4 2.591709 1_555
Ag0 Ba7 3.896156 1_555
Ag0 Ba5 3.896156 1_555
Ag0 Ba3 3.896156 1_555
Ag0 Ba0 3.896156 1_455
Ag1 Ge13 2.591709 1_555
Ag1 Ge34 2.591709 1_555
Ag1 Ge1 2.591709 1_545
Ag1 Ge25 2.591709 1_555
Ag1 Ba4 3.896156 1_555
Ag1 Ba5 3.896156 1_545
Ag1 Ba6 3.896156 1_555
Ag1 Ba7 3.896156 1_555
Ag2 Ge37 2.591709 1_555
Ag2 Ge26 2.591709 1_555
Ag2 Ge23 2.591709 1_555
Ag2 Ge27 2.591709 1_554
Ag2 Ba6 3.896156 1_564
Ag2 Ba4 3.896156 1_565
Ag2 Ba3 3.896156 1_555
Ag2 Ba0 3.896156 1_555
Ag3 Ge22 2.591709 1_555
Ag3 Ge0 2.591709 1_555
Ag3 Ge36 2.591709 1_554
Ag3 Ge39 2.591709 1_555
Ag3 Ba4 3.896156 1_555
Ag3 Ba6 3.896156 1_554
Ag3 Ba3 3.896156 1_555
Ag3 Ba0 3.896156 1_555
Ag4 Ge11 2.591709 1_555
Ag4 Ge12 2.591709 1_555
Ag4 Ge18 2.591709 1_555
Ag4 Ge24 2.591709 1_455
Ag4 Ba0 3.896156 1_456
Ag4 Ba5 3.896156 1_555
Ag4 Ba3 3.896156 1_556
Ag4 Ba7 3.896156 1_555
Ag5 Ge19 2.591709 1_555
Ag5 Ge6 2.591709 1_555
Ag5 Ge15 2.591709 1_555
Ag5 Ge5 2.591709 1_545
Ag5 Ba5 3.896156 1_645
Ag5 Ba4 3.896156 1_555
Ag5 Ba6 3.896156 1_555
Ag5 Ba7 3.896156 1_655
Ge0 Ge26 2.539646 1_545
Ge0 Ge30 2.548913 1_554
Ge0 Ge20 2.548913 1_555
Ge1 Ge5 2.539646 1_555
Ge1 Ge38 2.548913 1_555
Ge1 Ge14 2.548913 1_555
Ge2 Ge8 2.548913 1_655
Ge2 Ge6 2.548913 1_555
Ge2 Ge39 2.548913 1_555
Ge2 Ge35 2.561310 1_555
Ge3 Ge4 2.548913 1_555
Ge4 Ge7 2.548913 1_455
Ge6 Ge7 2.548913 1_545
Ge10 Ge19 2.548913 1_555
Ge10 Ge36 2.548913 1_555
Ge10 Ge24 2.548913 1_555
Ge10 Ge9 2.561310 1_555
Ge11 Ge28 2.539646 1_555
Ge11 Ge38 2.548913 1_555
Ge11 Ge33 2.548913 1_555
Ge12 Ge8 2.539646 1_556
Ge12 Ge9 2.548913 1_455
Ge12 Ge30 2.548913 1_555
Ge13 Ge6 2.539646 1_455
Ge13 Ge3 2.548913 1_545
Ge13 Ge20 2.548913 1_555
Ge14 Ge37 2.548913 1_555
Ge14 Ge28 2.548913 1_555
Ge14 Ge3 2.561310 1_555
Ge15 Ge25 2.539646 1_655
Ge15 Ge21 2.548913 1_545
Ge15 Ge9 2.548913 1_555
Ge16 Ge24 2.539646 1_555
Ge16 Ge35 2.548913 1_555
Ge16 Ge17 2.548913 1_555
Ge17 Ge37 2.548913 1_555
Ge17 Ge5 2.548913 1_555
Ge17 Ge7 2.561310 1_555
Ge18 Ge4 2.539646 1_556
Ge18 Ge31 2.548913 1_555
Ge18 Ge21 2.548913 1_455
Ge19 Ge34 2.539646 1_555
Ge19 Ge35 2.548913 1_555
Ge20 Ge8 2.548913 1_555
Ge20 Ge32 2.561310 1_555
Ge21 Ge23 2.548913 1_556
Ge21 Ge29 2.561310 1_555
Ge22 Ge37 2.539646 1_555
Ge22 Ge35 2.548913 1_555
Ge22 Ge32 2.548913 1_555
Ge23 Ge39 2.539646 1_565
Ge23 Ge7 2.548913 1_555
Ge24 Ge29 2.548913 1_555
Ge25 Ge31 2.548913 1_545
Ge25 Ge30 2.548913 1_555
Ge26 Ge31 2.548913 1_554
Ge26 Ge3 2.548913 1_555
Ge27 Ge36 2.539646 1_555
Ge27 Ge38 2.548913 1_555
Ge27 Ge29 2.548913 1_555
Ge28 Ge32 2.548913 1_555
Ge29 Ge5 2.548913 1_555
Ge30 Ge33 2.561310 1_555
Ge31 Ge38 2.561310 1_555
Ge32 Ge34 2.548913 1_555
Ge33 Ge36 2.548913 1_555
Ge33 Ge34 2.548913 1_555
Ge39 Ge9 2.548913 1_554
