# generated using pymatgen
data_K3Nb3Si2O13
_symmetry_space_group_name_H-M   'P 1'
_cell_length_a   9.24658208
_cell_length_b   9.24658208
_cell_length_c   7.96645600
_cell_angle_alpha   90.00000000
_cell_angle_beta   90.00000000
_cell_angle_gamma   120.00000056
_symmetry_Int_Tables_number   1
_chemical_formula_structural   K3Nb3Si2O13
_chemical_formula_sum   'K6 Nb6 Si4 O26'
_cell_volume   589.87263508
_cell_formula_units_Z   2
loop_
 _symmetry_equiv_pos_site_id
 _symmetry_equiv_pos_as_xyz
  1  'x, y, z'
loop_
 _atom_site_type_symbol
 _atom_site_label
 _atom_site_symmetry_multiplicity
 _atom_site_fract_x
 _atom_site_fract_y
 _atom_site_fract_z
 _atom_site_occupancy
  K  K0  1  0.38383100  0.96771600  0.25000000  1
  K  K1  1  0.61616900  0.58388500  0.75000000  1
  K  K2  1  0.03228400  0.41611500  0.25000000  1
  K  K3  1  0.58388500  0.61616900  0.25000000  1
  K  K4  1  0.41611500  0.03228400  0.75000000  1
  K  K5  1  0.96771600  0.38383100  0.75000000  1
  Nb  Nb0  1  0.76180000  0.00000000  0.50000000  1
  Nb  Nb1  1  0.76180000  0.00000000  0.00000000  1
  Nb  Nb2  1  0.23820000  0.23820000  0.00000000  1
  Nb  Nb3  1  0.23820000  0.23820000  0.50000000  1
  Nb  Nb4  1  0.00000000  0.76180000  0.50000000  1
  Nb  Nb5  1  0.00000000  0.76180000  0.00000000  1
  Si  Si0  1  0.33333300  0.66666700  0.95531500  1
  Si  Si1  1  0.66666700  0.33333300  0.04468500  1
  Si  Si2  1  0.66666700  0.33333300  0.45531500  1
  Si  Si3  1  0.33333300  0.66666700  0.54468500  1
  O  O0  1  0.48835400  0.30743700  0.98028400  1
  O  O1  1  0.98879800  0.74308000  0.25000000  1
  O  O2  1  0.01120200  0.75428100  0.75000000  1
  O  O3  1  0.74308000  0.98879800  0.75000000  1
  O  O4  1  0.75428100  0.01120200  0.25000000  1
  O  O5  1  0.51164600  0.81908300  0.48028400  1
  O  O6  1  0.18091700  0.69256300  0.01971600  1
  O  O7  1  0.24571900  0.25692000  0.75000000  1
  O  O8  1  0.81908300  0.51164600  0.98028400  1
  O  O9  1  0.69256300  0.18091700  0.51971600  1
  O  O10  1  0.82476100  0.82476100  0.50000000  1
  O  O11  1  0.82476100  0.82476100  0.00000000  1
  O  O12  1  0.69256300  0.18091700  0.98028400  1
  O  O13  1  0.25692000  0.24571900  0.25000000  1
  O  O14  1  0.81908300  0.51164600  0.51971600  1
  O  O15  1  0.30743700  0.48835400  0.01971600  1
  O  O16  1  0.51164600  0.81908300  0.01971600  1
  O  O17  1  0.30743700  0.48835400  0.48028400  1
  O  O18  1  0.17523900  0.00000000  0.50000000  1
  O  O19  1  0.18091700  0.69256300  0.48028400  1
  O  O20  1  0.66666700  0.33333300  0.25000000  1
  O  O21  1  0.00000000  0.17523900  0.50000000  1
  O  O22  1  0.48835400  0.30743700  0.51971600  1
  O  O23  1  0.00000000  0.17523900  0.00000000  1
  O  O24  1  0.17523900  0.00000000  0.00000000  1
  O  O25  1  0.33333300  0.66666700  0.75000000  1
loop_
_geom_bond_atom_site_label_1
_geom_bond_atom_site_label_2
_geom_bond_distance
_geom_bond_site_symmetry_2
K0 O5 2.876707 1_555
K0 O16 2.876707 1_555
K0 O24 2.889902 1_565
K0 O18 2.889902 1_565
K0 O19 2.930080 1_555
K0 O6 2.930080 1_555
K0 O20 3.070399 1_565
K0 O1 3.173259 1_455
K0 O4 3.243097 1_565
K0 O13 3.316852 1_565
K0 O9 3.320368 1_565
K0 O12 3.320368 1_564
K1 O0 2.876707 1_555
K1 O22 2.876707 1_555
K1 O11 2.889902 1_556
K1 O10 2.889902 1_555
K1 O8 2.930080 1_555
K1 O14 2.930080 1_555
K1 O25 3.070405 1_555
K1 O2 3.173260 1_655
K1 O7 3.243101 1_555
K1 O3 3.316844 1_555
K1 O15 3.320368 1_556
K1 O17 3.320368 1_555
K2 O19 2.876707 1_555
K2 O6 2.876707 1_555
K2 O23 2.889902 1_555
K2 O21 2.889902 1_555
K2 O17 2.930080 1_555
K2 O15 2.930080 1_555
K2 O20 3.070396 1_455
K2 O13 3.173251 1_555
K2 O1 3.243107 1_455
K2 O4 3.316845 1_455
K2 O14 3.320368 1_455
K2 O8 3.320368 1_454
K3 O17 2.876707 1_555
K3 O15 2.876707 1_555
K3 O11 2.889902 1_555
K3 O10 2.889902 1_555
K3 O5 2.930080 1_555
K3 O16 2.930080 1_555
K3 O20 3.070405 1_555
K3 O4 3.173260 1_565
K3 O13 3.243101 1_555
K3 O1 3.316844 1_555
K3 O22 3.320368 1_555
K3 O0 3.320368 1_554
K4 O12 2.876707 1_555
K4 O9 2.876707 1_555
K4 O18 2.889902 1_555
K4 O24 2.889902 1_556
K4 O0 2.930080 1_555
K4 O22 2.930080 1_555
K4 O25 3.070396 1_545
K4 O7 3.173251 1_555
K4 O3 3.243107 1_545
K4 O2 3.316845 1_545
K4 O16 3.320368 1_546
K4 O5 3.320368 1_545
K5 O8 2.876707 1_555
K5 O14 2.876707 1_555
K5 O21 2.889902 1_655
K5 O23 2.889902 1_656
K5 O12 2.930080 1_555
K5 O9 2.930080 1_555
K5 O25 3.070399 1_655
K5 O3 3.173259 1_545
K5 O2 3.243097 1_655
K5 O7 3.316852 1_655
K5 O6 3.320368 1_656
K5 O19 3.320368 1_655
Nb0 O21 1.976824 1_655
Nb0 O10 1.976824 1_545
Nb0 O3 1.997320 1_545
Nb0 O4 1.997321 1_555
Nb0 O5 2.074604 1_545
Nb0 O9 2.074604 1_555
Nb1 O23 1.976824 1_655
Nb1 O11 1.976824 1_545
Nb1 O3 1.997320 1_544
Nb1 O4 1.997321 1_555
Nb1 O16 2.074604 1_545
Nb1 O12 2.074604 1_554
Nb2 O24 1.976824 1_555
Nb2 O23 1.976824 1_555
Nb2 O13 1.997320 1_555
Nb2 O7 1.997320 1_554
Nb2 O15 2.074604 1_555
Nb2 O0 2.074604 1_554
Nb3 O18 1.976824 1_555
Nb3 O21 1.976824 1_555
Nb3 O13 1.997320 1_555
Nb3 O7 1.997320 1_555
Nb3 O22 2.074604 1_555
Nb3 O17 2.074604 1_555
Nb4 O18 1.976824 1_565
Nb4 O10 1.976824 1_455
Nb4 O1 1.997320 1_455
Nb4 O2 1.997321 1_555
Nb4 O14 2.074604 1_455
Nb4 O19 2.074604 1_555
Nb5 O24 1.976824 1_565
Nb5 O11 1.976824 1_455
Nb5 O1 1.997320 1_455
Nb5 O2 1.997321 1_554
Nb5 O8 2.074604 1_454
Nb5 O6 2.074604 1_555
O0 Si1 1.626114 1_556
O5 Si3 1.626111 1_555
O6 Si0 1.626106 1_554
O8 Si1 1.626111 1_556
O9 Si2 1.626106 1_555
O12 Si1 1.626106 1_556
O14 Si2 1.626111 1_555
O15 Si0 1.626114 1_554
O16 Si0 1.626111 1_554
O17 Si3 1.626114 1_555
O19 Si3 1.626106 1_555
O20 Si2 1.635633 1_555
O20 Si1 1.635633 1_555
O22 Si2 1.626114 1_555
O25 Si0 1.635633 1_555
O25 Si3 1.635633 1_555
