# generated using pymatgen
data_Lu2O3
_symmetry_space_group_name_H-M   'P 1'
_cell_length_a   3.35881532
_cell_length_b   7.00720579
_cell_length_c   8.33315582
_cell_angle_alpha   100.00612454
_cell_angle_beta   90.00000000
_cell_angle_gamma   103.86699406
_symmetry_Int_Tables_number   1
_chemical_formula_structural   Lu2O3
_chemical_formula_sum   'Lu6 O9'
_cell_volume   187.33790790
_cell_formula_units_Z   3
loop_
 _symmetry_equiv_pos_site_id
 _symmetry_equiv_pos_as_xyz
  1  'x, y, z'
loop_
 _atom_site_type_symbol
 _atom_site_label
 _atom_site_symmetry_multiplicity
 _atom_site_fract_x
 _atom_site_fract_y
 _atom_site_fract_z
 _atom_site_occupancy
  Lu  Lu0  1  0.36474084  0.72947967  0.51286545  1
  Lu  Lu1  1  0.69128824  0.38257548  0.13702608  1
  Lu  Lu2  1  0.96761250  0.93522500  0.18581821  1
  Lu  Lu3  1  0.63525916  0.27052033  0.48713455  1
  Lu  Lu4  1  0.03238750  0.06477500  0.81418179  1
  Lu  Lu5  1  0.30871176  0.61742452  0.86297392  1
  O  O0  1  0.79262467  0.58525033  0.37746181  1
  O  O1  1  0.87286546  0.74572991  0.71907872  1
  O  O2  1  0.82571397  0.65142694  0.03192520  1
  O  O3  1  0.53040358  0.06080717  0.65701784  1
  O  O4  1  0.17428603  0.34857306  0.96807480  1
  O  O5  1  0.12713454  0.25427009  0.28092128  1
  O  O6  1  0.20737533  0.41474967  0.62253819  1
  O  O7  1  0.50000000  0.00000000  -0.00000000  1
  O  O8  1  0.46959642  0.93919283  0.34298216  1
loop_
_geom_bond_atom_site_label_1
_geom_bond_atom_site_label_2
_geom_bond_distance
_geom_bond_site_symmetry_2
Lu0 O0 2.158702 1_555
Lu0 O0 2.158710 1_455
Lu0 O8 2.182299 1_555
Lu0 O3 2.356778 1_565
Lu0 O1 2.391140 1_555
Lu0 O1 2.391143 1_455
Lu0 O6 2.473859 1_555
Lu1 O2 2.164635 1_555
Lu1 O4 2.177042 1_654
Lu1 O4 2.177047 1_554
Lu1 O0 2.219598 1_555
Lu1 O5 2.322662 1_655
Lu1 O5 2.322667 1_555
Lu1 O7 2.648377 1_555
Lu2 O2 2.117983 1_555
Lu2 O8 2.126905 1_555
Lu2 O8 2.126905 1_655
Lu2 O5 2.173306 1_665
Lu2 O7 2.378347 1_665
Lu2 O7 2.378347 1_565
Lu3 O6 2.158702 1_555
Lu3 O6 2.158710 1_655
Lu3 O3 2.182299 1_555
Lu3 O8 2.356778 1_545
Lu3 O5 2.391140 1_555
Lu3 O5 2.391143 1_655
Lu3 O0 2.473859 1_555
Lu4 O4 2.117983 1_555
Lu4 O3 2.126905 1_555
Lu4 O3 2.126905 1_455
Lu4 O1 2.173306 1_445
Lu4 O7 2.378347 1_456
Lu4 O7 2.378347 1_556
Lu5 O4 2.164635 1_555
Lu5 O2 2.177042 1_456
Lu5 O2 2.177047 1_556
Lu5 O6 2.219598 1_555
Lu5 O1 2.322662 1_455
Lu5 O1 2.322667 1_555
Lu5 O7 2.648377 1_566
