# generated using pymatgen
data_Ag5P(S2Cl)2
_symmetry_space_group_name_H-M   'P 1'
_cell_length_a   6.33350800
_cell_length_b   6.45252596
_cell_length_c   7.48753600
_cell_angle_alpha   90.00000000
_cell_angle_beta   90.00000000
_cell_angle_gamma   119.39169153
_symmetry_Int_Tables_number   1
_chemical_formula_structural   Ag5P(S2Cl)2
_chemical_formula_sum   'Ag5 P1 S4 Cl2'
_cell_volume   266.60803775
_cell_formula_units_Z   1
loop_
 _symmetry_equiv_pos_site_id
 _symmetry_equiv_pos_as_xyz
  1  'x, y, z'
loop_
 _atom_site_type_symbol
 _atom_site_label
 _atom_site_symmetry_multiplicity
 _atom_site_fract_x
 _atom_site_fract_y
 _atom_site_fract_z
 _atom_site_occupancy
  Ag  Ag0  1  0.93816600  0.61805400  0.78127500  1
  Ag  Ag1  1  0.59532000  0.00000000  0.50000000  1
  Ag  Ag2  1  0.93816600  0.61805400  0.21872600  1
  Ag  Ag3  1  0.32011200  0.38194600  0.21872600  1
  Ag  Ag4  1  0.32011200  0.38194600  0.78127400  1
  P  P0  1  0.53888300  0.00000000  0.00000000  1
  S  S0  1  0.34997800  0.00000000  0.77218900  1
  S  S1  1  0.34997800  0.00000000  0.22781100  1
  S  S2  1  0.58930500  0.70403900  0.00000000  1
  S  S3  1  0.88526600  0.29596100  0.00000000  1
  Cl  Cl0  1  0.05651900  0.34451300  0.50000000  1
  Cl  Cl1  1  0.71200600  0.65548700  0.50000000  1
loop_
_geom_bond_atom_site_label_1
_geom_bond_atom_site_label_2
_geom_bond_distance
_geom_bond_site_symmetry_2
Ag0 S3 2.535796 1_556
Ag0 S0 2.563558 1_665
Ag0 Cl1 2.623955 1_555
Ag0 S2 3.012499 1_556
Ag0 Cl0 3.067790 1_655
Ag1 S0 2.562826 1_555
Ag1 S1 2.562826 1_555
Ag1 Cl1 2.664649 1_545
Ag1 Cl0 2.664649 1_655
Ag2 S3 2.535800 1_555
Ag2 S1 2.563558 1_665
Ag2 Cl1 2.623949 1_555
Ag2 S2 3.012503 1_555
Ag2 Cl0 3.067785 1_655
Ag3 S2 2.535800 1_555
Ag3 S1 2.563558 1_555
Ag3 Cl0 2.623949 1_555
Ag3 S3 3.012503 1_455
Ag3 Cl1 3.067785 1_555
Ag4 S2 2.535800 1_556
Ag4 S0 2.563558 1_555
Ag4 Cl0 2.623949 1_555
Ag4 S3 3.012503 1_456
Ag4 Cl1 3.067785 1_555
P0 S0 2.083508 1_554
P0 S1 2.083508 1_555
P0 S3 2.085073 1_555
P0 S2 2.085073 1_545
