# generated using pymatgen
data_BaTlVO4
_symmetry_space_group_name_H-M   'P 1'
_cell_length_a   6.01378700
_cell_length_b   8.02223400
_cell_length_c   10.63140900
_cell_angle_alpha   90.00000000
_cell_angle_beta   90.00000000
_cell_angle_gamma   90.00000000
_symmetry_Int_Tables_number   1
_chemical_formula_structural   BaTlVO4
_chemical_formula_sum   'Ba4 Tl4 V4 O16'
_cell_volume   512.90176533
_cell_formula_units_Z   4
loop_
 _symmetry_equiv_pos_site_id
 _symmetry_equiv_pos_as_xyz
  1  'x, y, z'
loop_
 _atom_site_type_symbol
 _atom_site_label
 _atom_site_symmetry_multiplicity
 _atom_site_fract_x
 _atom_site_fract_y
 _atom_site_fract_z
 _atom_site_occupancy
  Ba  Ba0  1  0.75000000  0.49591100  0.70215200  1
  Ba  Ba1  1  0.25000000  0.50408900  0.29784800  1
  Ba  Ba2  1  0.75000000  0.99591100  0.79784800  1
  Ba  Ba3  1  0.25000000  0.00408900  0.20215200  1
  Tl  Tl0  1  0.75000000  0.67139700  0.07262500  1
  Tl  Tl1  1  0.25000000  0.32860300  0.92737500  1
  Tl  Tl2  1  0.75000000  0.17139700  0.42737500  1
  Tl  Tl3  1  0.25000000  0.82860300  0.57262500  1
  V  V0  1  0.75000000  0.22223800  0.08026100  1
  V  V1  1  0.25000000  0.77776200  0.91973900  1
  V  V2  1  0.75000000  0.72223800  0.41973900  1
  V  V3  1  0.25000000  0.27776200  0.58026100  1
  O  O0  1  0.75000000  0.79499700  0.57548500  1
  O  O1  1  0.25000000  0.20500300  0.42451500  1
  O  O2  1  0.75000000  0.29499700  0.92451500  1
  O  O3  1  0.25000000  0.70500300  0.07548500  1
  O  O4  1  0.75000000  0.50557800  0.42680500  1
  O  O5  1  0.25000000  0.49442200  0.57319500  1
  O  O6  1  0.75000000  0.00557800  0.07319500  1
  O  O7  1  0.25000000  0.99442200  0.92680500  1
  O  O8  1  0.50721900  0.78772000  0.34376700  1
  O  O9  1  0.00721900  0.21228000  0.65623300  1
  O  O10  1  0.99278100  0.28772000  0.15623300  1
  O  O11  1  0.49278100  0.71228000  0.84376700  1
  O  O12  1  0.49278100  0.21228000  0.65623300  1
  O  O13  1  0.99278100  0.78772000  0.34376700  1
  O  O14  1  0.00721900  0.71228000  0.84376700  1
  O  O15  1  0.50721900  0.28772000  0.15623300  1
loop_
_geom_bond_atom_site_label_1
_geom_bond_atom_site_label_2
_geom_bond_distance
_geom_bond_site_symmetry_2
Ba0 O0 2.751415 1_555
Ba0 O14 2.769906 1_655
Ba0 O11 2.769906 1_555
Ba0 O12 2.794340 1_555
Ba0 O9 2.794340 1_655
Ba0 O2 2.861202 1_555
Ba0 O4 2.928354 1_555
Ba0 O5 3.304720 1_655
Ba0 O5 3.304720 1_555
Ba1 O1 2.751415 1_555
Ba1 O10 2.769906 1_455
Ba1 O15 2.769906 1_555
Ba1 O8 2.794340 1_555
Ba1 O13 2.794340 1_455
Ba1 O3 2.861202 1_555
Ba1 O5 2.928354 1_555
Ba1 O4 3.304720 1_455
Ba1 O4 3.304720 1_555
Ba2 O2 2.751415 1_565
Ba2 O9 2.769906 1_665
Ba2 O12 2.769906 1_565
Ba2 O11 2.794340 1_555
Ba2 O14 2.794340 1_655
Ba2 O0 2.861202 1_555
Ba2 O6 2.928354 1_566
Ba2 O7 3.304720 1_655
Ba2 O7 3.304720 1_555
Ba3 O3 2.751415 1_545
Ba3 O8 2.769906 1_545
Ba3 O13 2.769906 1_445
Ba3 O15 2.794340 1_555
Ba3 O10 2.794340 1_455
Ba3 O1 2.861202 1_555
Ba3 O7 2.928354 1_544
Ba3 O6 3.304720 1_555
Ba3 O6 3.304720 1_455
O0 V2 1.755667 1_555
O1 V3 1.755667 1_555
O2 V0 1.755667 1_556
O3 V1 1.755667 1_554
O4 V2 1.739720 1_555
O4 Tl2 2.680885 1_555
O5 V3 1.739720 1_555
O5 Tl3 2.680885 1_555
O6 V0 1.739720 1_555
O6 Tl0 2.680885 1_545
O7 V1 1.739720 1_555
O7 Tl1 2.680885 1_565
O8 V2 1.749289 1_555
O9 V3 1.749289 1_555
O10 V0 1.749289 1_555
O11 V1 1.749289 1_555
O12 V3 1.749289 1_555
O13 V2 1.749289 1_555
O14 V1 1.749289 1_555
O15 V0 1.749289 1_555
