# generated using pymatgen
data_Ba7Al10
_symmetry_space_group_name_H-M   'P 1'
_cell_length_a   6.06708516
_cell_length_b   6.06708516
_cell_length_c   16.88867744
_cell_angle_alpha   79.65237796
_cell_angle_beta   79.65237796
_cell_angle_gamma   59.99999937
_symmetry_Int_Tables_number   1
_chemical_formula_structural   Ba7Al10
_chemical_formula_sum   'Ba7 Al10'
_cell_volume   526.66977086
_cell_formula_units_Z   1
loop_
 _symmetry_equiv_pos_site_id
 _symmetry_equiv_pos_as_xyz
  1  'x, y, z'
loop_
 _atom_site_type_symbol
 _atom_site_label
 _atom_site_symmetry_multiplicity
 _atom_site_fract_x
 _atom_site_fract_y
 _atom_site_fract_z
 _atom_site_occupancy
  Ba  Ba0  1  0.12926567  0.12926567  0.61220200  1
  Ba  Ba1  1  0.87073433  0.87073433  0.38779800  1
  Ba  Ba2  1  0.05306288  0.05306288  0.84081436  1
  Ba  Ba3  1  0.94693812  0.94693812  0.15918564  1
  Ba  Ba4  1  0.50000000  0.50000000  0.50000000  1
  Ba  Ba5  1  0.35985564  0.35985564  0.92043209  1
  Ba  Ba6  1  0.64014436  0.64014436  0.07956791  1
  Al  Al0  1  0.28315219  0.28315219  0.15054044  1
  Al  Al1  1  0.71684781  0.71684781  0.84945956  1
  Al  Al2  1  0.20152835  0.20152835  0.39541594  1
  Al  Al3  1  0.79847165  0.79847165  0.60458406  1
  Al  Al4  1  0.10750102  0.58323032  0.72604034  1
  Al  Al5  1  0.58323032  0.58323032  0.72604034  1
  Al  Al6  1  0.58323032  0.10750102  0.72604034  1
  Al  Al7  1  0.89249898  0.41676968  0.27395966  1
  Al  Al8  1  0.41676968  0.41676968  0.27395966  1
  Al  Al9  1  0.41676968  0.89249898  0.27395966  1
loop_
_geom_bond_atom_site_label_1
_geom_bond_atom_site_label_2
_geom_bond_distance
_geom_bond_site_symmetry_2
Ba0 Ba2 3.777003 1_555
Ba0 Ba4 3.963101 1_455
Ba0 Ba4 3.963101 1_545
Ba0 Ba4 3.963106 1_555
Ba1 Ba3 3.777003 1_555
Ba1 Ba4 3.963101 1_565
Ba1 Ba4 3.963101 1_655
Ba1 Ba4 3.963106 1_555
Ba2 Ba5 3.741660 1_555
Ba2 Ba5 3.741679 1_545
Ba2 Ba5 3.741679 1_455
Ba3 Ba6 3.741669 1_555
Ba3 Ba6 3.741674 1_565
Ba3 Ba6 3.741674 1_655
Ba5 Ba6 4.379755 1_456
Ba5 Ba6 4.379755 1_546
Ba5 Ba6 4.379763 1_556
Al0 Al7 2.744130 1_455
Al0 Al9 2.744130 1_545
Al0 Al8 2.744134 1_555
Al0 Ba3 3.505734 1_445
Al0 Ba3 3.505749 1_455
Al0 Ba3 3.505749 1_545
Al0 Ba6 3.693874 1_545
Al0 Ba6 3.693874 1_455
Al0 Ba6 3.693894 1_555
Al0 Ba5 3.801719 1_554
Al1 Al6 2.744130 1_565
Al1 Al4 2.744130 1_655
Al1 Al5 2.744134 1_555
Al1 Ba2 3.505744 1_655
Al1 Ba2 3.505744 1_565
Al1 Ba2 3.505744 1_665
Al1 Ba5 3.693874 1_655
Al1 Ba5 3.693874 1_565
Al1 Ba5 3.693894 1_555
Al1 Ba6 3.801719 1_556
Al2 Al8 2.720113 1_555
Al2 Al9 2.720124 1_545
Al2 Al7 2.720124 1_455
Al2 Ba1 3.505094 1_455
Al2 Ba1 3.505094 1_545
Al2 Ba1 3.505094 1_445
Al2 Ba0 3.581615 1_555
Al2 Ba4 3.905814 1_555
Al2 Ba4 3.905818 1_455
Al2 Ba4 3.905818 1_545
Al3 Al5 2.720113 1_555
Al3 Al6 2.720124 1_565
Al3 Al4 2.720124 1_655
Al3 Ba0 3.505094 1_565
Al3 Ba0 3.505094 1_655
Al3 Ba0 3.505094 1_665
Al3 Ba1 3.581615 1_555
Al3 Ba4 3.905814 1_555
Al3 Ba4 3.905818 1_655
Al3 Ba4 3.905818 1_565
Al4 Al6 2.886290 1_555
Al4 Al5 2.886290 1_555
Al4 Ba0 3.570274 1_565
Al4 Ba0 3.570290 1_555
Al4 Ba2 3.578447 1_555
Al4 Ba2 3.578452 1_565
Al4 Ba5 3.618209 1_555
Al5 Al6 2.886290 1_555
Al5 Ba0 3.570281 1_655
Al5 Ba0 3.570281 1_565
Al5 Ba2 3.578449 1_655
Al5 Ba2 3.578449 1_565
Al5 Ba5 3.618216 1_555
Al6 Ba0 3.570274 1_655
Al6 Ba0 3.570290 1_555
Al6 Ba2 3.578447 1_555
Al6 Ba2 3.578452 1_655
Al6 Ba5 3.618209 1_555
Al7 Al9 2.886290 1_555
Al7 Al8 2.886290 1_555
Al7 Ba1 3.570274 1_545
Al7 Ba1 3.570290 1_555
Al7 Ba3 3.578444 1_545
Al7 Ba3 3.578454 1_555
Al7 Ba6 3.618209 1_555
Al8 Al9 2.886290 1_555
Al8 Ba1 3.570281 1_545
Al8 Ba1 3.570281 1_455
Al8 Ba3 3.578449 1_455
Al8 Ba3 3.578449 1_545
Al8 Ba6 3.618216 1_555
Al9 Ba1 3.570274 1_455
Al9 Ba1 3.570290 1_555
Al9 Ba3 3.578444 1_455
Al9 Ba3 3.578454 1_555
Al9 Ba6 3.618209 1_555
