# generated using pymatgen
data_LiLa2S2O8F3
_symmetry_space_group_name_H-M   'P 1'
_cell_length_a   8.66106104
_cell_length_b   8.66106104
_cell_length_c   8.33305697
_cell_angle_alpha   65.72542348
_cell_angle_beta   65.72542348
_cell_angle_gamma   47.82632487
_symmetry_Int_Tables_number   1
_chemical_formula_structural   LiLa2S2O8F3
_chemical_formula_sum   'Li2 La4 S4 O16 F6'
_cell_volume   413.77737454
_cell_formula_units_Z   2
loop_
 _symmetry_equiv_pos_site_id
 _symmetry_equiv_pos_as_xyz
  1  'x, y, z'
loop_
 _atom_site_type_symbol
 _atom_site_label
 _atom_site_symmetry_multiplicity
 _atom_site_fract_x
 _atom_site_fract_y
 _atom_site_fract_z
 _atom_site_occupancy
  Li  Li0  1  0.59300300  0.40699700  0.25000000  1
  Li  Li1  1  0.40699700  0.59300300  0.75000000  1
  La  La0  1  0.78660200  0.97330200  0.96573600  1
  La  La1  1  0.97330200  0.78660200  0.46573600  1
  La  La2  1  0.02669800  0.21339800  0.53426400  1
  La  La3  1  0.21339800  0.02669800  0.03426400  1
  S  S0  1  0.24186100  0.41094700  0.15525400  1
  S  S1  1  0.75813900  0.58905300  0.84474600  1
  S  S2  1  0.41094700  0.24186100  0.65525400  1
  S  S3  1  0.58905300  0.75813900  0.34474600  1
  O  O0  1  0.18158900  0.27935000  0.17011500  1
  O  O1  1  0.27935000  0.18158900  0.67011500  1
  O  O2  1  0.60407600  0.15497800  0.51096300  1
  O  O3  1  0.39592400  0.84502200  0.48903700  1
  O  O4  1  0.15497800  0.60407600  0.01096300  1
  O  O5  1  0.71017100  0.52411900  0.38023000  1
  O  O6  1  0.84502200  0.39592400  0.98903600  1
  O  O7  1  0.47588100  0.28982900  0.11977000  1
  O  O8  1  0.28982900  0.47588100  0.61977000  1
  O  O9  1  0.14837700  0.46633000  0.33733700  1
  O  O10  1  0.46633000  0.14837700  0.83733700  1
  O  O11  1  0.81841100  0.72065000  0.82988500  1
  O  O12  1  0.53367000  0.85162300  0.16266300  1
  O  O13  1  0.72065000  0.81841100  0.32988500  1
  O  O14  1  0.52411900  0.71017100  0.88023000  1
  O  O15  1  0.85162300  0.53367000  0.66266300  1
  F  F0  1  0.00562100  0.08924100  0.33570800  1
  F  F1  1  0.08924100  0.00562100  0.83570800  1
  F  F2  1  0.99437900  0.91075900  0.66429200  1
  F  F3  1  0.91075900  0.99437900  0.16429200  1
  F  F4  1  0.30626800  0.69373200  0.25000000  1
  F  F5  1  0.69373200  0.30626800  0.75000000  1
loop_
_geom_bond_atom_site_label_1
_geom_bond_atom_site_label_2
_geom_bond_distance
_geom_bond_site_symmetry_2
Li0 O2 2.343112 1_555
Li0 O6 2.343116 1_554
Li0 O7 2.535625 1_555
Li0 O5 2.535625 1_555
Li1 O4 2.343112 1_556
Li1 O3 2.343112 1_555
Li1 O8 2.535625 1_555
Li1 O14 2.535625 1_555
La0 O7 2.559709 1_566
La0 O10 2.568470 1_565
La0 O4 2.616409 1_656
La0 O11 2.667713 1_555
La0 O12 2.706433 1_556
La0 O13 2.755116 1_556
La1 O8 2.559709 1_655
La1 O9 2.568470 1_655
La1 O2 2.616409 1_565
La1 O13 2.667713 1_555
La1 O15 2.706433 1_555
La1 O11 2.755116 1_555
La2 O5 2.559709 1_455
La2 O15 2.568470 1_455
La2 O3 2.616409 1_545
La2 O1 2.667713 1_555
La2 O9 2.706433 1_555
La2 O0 2.755116 1_555
La3 O14 2.559709 1_544
La3 O12 2.568470 1_545
La3 O6 2.616410 1_454
La3 O0 2.667713 1_555
La3 O10 2.706433 1_554
La3 O1 2.755116 1_554
O0 S0 1.488834 1_555
O1 S2 1.488834 1_555
O2 S2 1.486620 1_555
O3 S3 1.486620 1_555
O4 S0 1.486620 1_555
O5 S3 1.484355 1_555
O6 S1 1.486616 1_555
O7 S0 1.484355 1_555
O8 S2 1.484355 1_555
O9 S0 1.501562 1_555
O10 S2 1.501562 1_555
O11 S1 1.488834 1_555
O12 S3 1.501562 1_555
O13 S3 1.488834 1_555
O14 S1 1.484355 1_555
O15 S1 1.501562 1_555
F0 La2 2.429430 1_555
F0 La3 2.436153 1_555
F0 La1 2.554127 1_445
F1 La3 2.429430 1_556
F1 La2 2.436153 1_555
F1 La0 2.554127 1_445
F2 La1 2.429430 1_555
F2 La0 2.436153 1_555
F2 La2 2.554127 1_665
F3 La0 2.429430 1_554
F3 La1 2.436153 1_555
F3 La3 2.554127 1_665
F4 Li0 2.013324 1_555
F4 La1 2.450901 1_455
F4 La3 2.450901 1_565
F5 Li1 2.013324 1_555
F5 La0 2.450901 1_545
F5 La2 2.450901 1_655
