# generated using pymatgen
data_CaFeSbAs2O7
_symmetry_space_group_name_H-M   'P 1'
_cell_length_a   12.84812526
_cell_length_b   12.84812526
_cell_length_c   12.84812526
_cell_angle_alpha   100.40021591
_cell_angle_beta   100.40021591
_cell_angle_gamma   129.71388816
_symmetry_Int_Tables_number   1
_chemical_formula_structural   CaFeSbAs2O7
_chemical_formula_sum   'Ca8 Fe8 Sb8 As16 O56'
_cell_volume   1476.90384723
_cell_formula_units_Z   8
loop_
 _symmetry_equiv_pos_site_id
 _symmetry_equiv_pos_as_xyz
  1  'x, y, z'
loop_
 _atom_site_type_symbol
 _atom_site_label
 _atom_site_symmetry_multiplicity
 _atom_site_fract_x
 _atom_site_fract_y
 _atom_site_fract_z
 _atom_site_occupancy
  Ca  Ca0  1  0.79823500  0.45831900  0.96063900  1
  Ca  Ca1  1  0.70831900  0.24768000  0.16008400  1
  Ca  Ca2  1  0.16240400  0.20176500  0.66008400  1
  Ca  Ca3  1  0.54168100  0.50232000  0.33991600  1
  Ca  Ca4  1  0.45176500  0.29168100  0.53936100  1
  Ca  Ca5  1  0.75232000  0.91240400  0.46063900  1
  Ca  Ca6  1  0.08759600  0.54823500  0.83991600  1
  Ca  Ca7  1  0.49768000  0.83759600  0.03936100  1
  Fe  Fe0  1  0.35971700  0.10507600  0.72838200  1
  Fe  Fe1  1  0.37669400  0.63133500  0.27161800  1
  Fe  Fe2  1  0.36866500  0.64028300  0.74535900  1
  Fe  Fe3  1  0.35507600  0.12669400  0.24535900  1
  Fe  Fe4  1  0.88133500  0.10971700  0.75464100  1
  Fe  Fe5  1  0.89028300  0.64492400  0.77161800  1
  Fe  Fe6  1  0.89492400  0.62330600  0.25464100  1
  Fe  Fe7  1  0.87330600  0.11866500  0.22838200  1
  Sb  Sb0  1  0.93512300  0.78623400  0.50099200  1
  Sb  Sb1  1  0.28524200  0.43413200  0.49900800  1
  Sb  Sb2  1  0.31487700  0.96376600  0.99900800  1
  Sb  Sb3  1  0.56586800  0.06487700  0.85111000  1
  Sb  Sb4  1  0.96475800  0.31586800  0.00099200  1
  Sb  Sb5  1  0.68413200  0.68512300  0.64889000  1
  Sb  Sb6  1  0.21376600  0.71475800  0.14889000  1
  Sb  Sb7  1  0.03623400  0.03524200  0.35111000  1
  As  As0  1  0.26981600  0.93619300  0.43102300  1
  As  As1  1  0.52691000  0.35854900  0.03882700  1
  As  As2  1  0.93027800  0.26191700  0.53882700  1
  As  As3  1  0.08879300  0.01981600  0.83362300  1
  As  As4  1  0.73808300  0.27691000  0.66836100  1
  As  As5  1  0.50517000  0.83879300  0.56897700  1
  As  As6  1  0.06380700  0.49483000  0.33362300  1
  As  As7  1  0.51191700  0.47309000  0.83163900  1
  As  As8  1  0.18619300  0.25517000  0.16637700  1
  As  As9  1  0.74483000  0.91120700  0.93102300  1
  As  As10  1  0.72309000  0.39145100  0.46117300  1
  As  As11  1  0.60854900  0.06972200  0.33163900  1
  As  As12  1  0.98018400  0.81380700  0.06897700  1
  As  As13  1  0.31972200  0.48808300  0.96117300  1
  As  As14  1  0.64145100  0.68027800  0.16836100  1
  As  As15  1  0.16120700  0.73018400  0.66637700  1
  O  O0  1  0.58279000  0.70244700  0.27784500  1
  O  O1  1  0.73016400  0.09400800  0.45642000  1
  O  O2  1  0.29775700  0.45161500  0.66105700  1
  O  O3  1  0.75596500  0.98639700  0.06992900  1
  O  O4  1  0.70161500  0.54055800  0.65385800  1
  O  O5  1  0.36330000  0.70224300  0.15385800  1
  O  O6  1  0.07297500  0.81348700  0.39264300  1
  O  O7  1  0.33353200  0.06396400  0.56992900  1
  O  O8  1  0.74130000  0.72685700  0.51579000  1
  O  O9  1  0.93603600  0.50596500  0.26956800  1
  O  O10  1  0.27314300  0.78893300  0.01444300  1
  O  O11  1  0.01360300  0.08353200  0.76956800  1
  O  O12  1  0.51983600  0.65599200  0.04358000  1
  O  O13  1  0.88670000  0.04775700  0.34614200  1
  O  O14  1  0.55494600  0.33279000  0.38034300  1
  O  O15  1  0.69626900  0.93451200  0.63445500  1
  O  O16  1  0.61241200  0.47625600  0.95642000  1
  O  O17  1  0.82915600  0.06966800  0.89264300  1
  O  O18  1  0.69505400  0.41721000  0.11965700  1
  O  O19  1  0.66721000  0.04755300  0.22215500  1
  O  O20  1  0.18651300  0.57915600  0.25948800  1
  O  O21  1  0.63758800  0.27374400  0.54358000  1
  O  O22  1  0.49403500  0.76360300  0.43007100  1
  O  O23  1  0.82539800  0.44505400  0.77784500  1
  O  O24  1  0.94994300  0.68818600  0.13445500  1
  O  O25  1  0.97685700  0.96106700  0.48555700  1
  O  O26  1  0.21106700  0.22551000  0.48421000  1
  O  O27  1  0.18451200  0.05005700  0.73824300  1
  O  O28  1  0.77449000  0.25870000  0.98555700  1
  O  O29  1  0.52374400  0.48016400  0.13615500  1
  O  O30  1  0.50870000  0.02314300  0.98421000  1
  O  O31  1  0.06348700  0.17084400  0.24051200  1
  O  O32  1  0.06548800  0.69994300  0.76175700  1
  O  O33  1  0.34400800  0.38758800  0.86384500  1
  O  O34  1  0.23639700  0.66646800  0.73043200  1
  O  O35  1  0.31966800  0.92702500  0.74051200  1
  O  O36  1  0.95224300  0.29838500  0.83894300  1
  O  O37  1  0.93818600  0.30373100  0.23824300  1
  O  O38  1  0.31181400  0.44626900  0.26175700  1
  O  O39  1  0.45944200  0.11330000  0.16105700  1
  O  O40  1  0.17702500  0.93651300  0.10735700  1
  O  O41  1  0.79055800  0.63670000  0.33894300  1
  O  O42  1  0.47551000  0.49130000  0.51444300  1
  O  O43  1  0.93033200  0.82297500  0.75948800  1
  O  O44  1  0.55373100  0.81548800  0.86554500  1
  O  O45  1  0.42460200  0.30494600  0.72215500  1
  O  O46  1  0.30005700  0.06181400  0.36554500  1
  O  O47  1  0.90599200  0.36241200  0.63615500  1
  O  O48  1  0.91646800  0.68603600  0.93007100  1
  O  O49  1  0.42084400  0.68033200  0.60735700  1
  O  O50  1  0.95244700  0.17460200  0.61965700  1
  O  O51  1  0.29755300  0.57539800  0.88034300  1
  O  O52  1  0.54838500  0.20944200  0.84614200  1
  O  O53  1  0.72625600  0.26983600  0.36384500  1
  O  O54  1  0.03893300  0.52449000  0.01579000  1
  O  O55  1  0.31396400  0.24403500  0.23043200  1
loop_
_geom_bond_atom_site_label_1
_geom_bond_atom_site_label_2
_geom_bond_distance
_geom_bond_site_symmetry_2
Ca0 O23 2.427756 1_555
Ca0 O48 2.443866 1_555
Ca0 O28 2.470877 1_555
Ca0 O52 2.484538 1_555
Ca0 O24 2.489891 1_556
Ca0 O16 2.533180 1_555
Ca0 O54 2.533780 1_656
Ca0 O18 2.585208 1_556
Ca1 O18 2.427764 1_555
Ca1 O9 2.443866 1_555
Ca1 O30 2.470877 1_554
Ca1 O39 2.484538 1_555
Ca1 O37 2.489891 1_555
Ca1 O53 2.533193 1_555
Ca1 O28 2.533780 1_554
Ca1 O19 2.585201 1_555
Ca2 O50 2.427756 1_455
Ca2 O11 2.443866 1_555
Ca2 O26 2.470877 1_555
Ca2 O2 2.484538 1_555
Ca2 O27 2.489891 1_555
Ca2 O33 2.533189 1_555
Ca2 O25 2.533780 1_445
Ca2 O45 2.585197 1_555
Ca3 O14 2.427764 1_555
Ca3 O55 2.443866 1_555
Ca3 O8 2.470877 1_555
Ca3 O41 2.484538 1_555
Ca3 O38 2.489891 1_555
Ca3 O29 2.533193 1_555
Ca3 O42 2.533780 1_555
Ca3 O0 2.585201 1_555
Ca4 O45 2.427756 1_555
Ca4 O7 2.443866 1_555
Ca4 O42 2.470877 1_555
Ca4 O4 2.484538 1_555
Ca4 O46 2.489891 1_555
Ca4 O21 2.533180 1_555
Ca4 O26 2.533780 1_555
Ca4 O14 2.585208 1_555
Ca5 O0 2.427756 1_555
Ca5 O22 2.443866 1_555
Ca5 O25 2.470877 1_555
Ca5 O13 2.484538 1_565
Ca5 O15 2.489891 1_555
Ca5 O1 2.533180 1_565
Ca5 O8 2.533780 1_555
Ca5 O50 2.585201 1_565
Ca6 O51 2.427756 1_555
Ca6 O34 2.443866 1_555
Ca6 O54 2.470877 1_556
Ca6 O36 2.484538 1_455
Ca6 O32 2.489891 1_555
Ca6 O47 2.533189 1_455
Ca6 O10 2.533780 1_556
Ca6 O23 2.585197 1_455
Ca7 O19 2.427756 1_565
Ca7 O3 2.443866 1_555
Ca7 O10 2.470877 1_555
Ca7 O5 2.484538 1_555
Ca7 O44 2.489891 1_554
Ca7 O12 2.533180 1_555
Ca7 O30 2.533780 1_564
Ca7 O51 2.585201 1_554
Fe0 O7 1.916807 1_555
Fe0 O27 1.919591 1_555
Fe0 O52 1.937204 1_555
Fe0 O35 2.043455 1_545
Fe0 O45 2.158311 1_555
Fe1 O22 1.916807 1_555
Fe1 O38 1.919591 1_555
Fe1 O5 1.937204 1_555
Fe1 O20 2.043455 1_555
Fe1 O0 2.158299 1_555
Fe2 O34 1.916807 1_555
Fe2 O44 1.919591 1_555
Fe2 O2 1.937204 1_555
Fe2 O49 2.043455 1_555
Fe2 O51 2.158299 1_555
Fe3 O55 1.916807 1_555
Fe3 O46 1.919591 1_555
Fe3 O39 1.937204 1_555
Fe3 O40 2.043455 1_545
Fe3 O14 2.158302 1_555
Fe4 O11 1.916807 1_655
Fe4 O15 1.919591 1_545
Fe4 O36 1.937204 1_555
Fe4 O17 2.043455 1_555
Fe4 O50 2.158299 1_555
Fe5 O48 1.916807 1_555
Fe5 O32 1.919591 1_655
Fe5 O4 1.937204 1_555
Fe5 O43 2.043455 1_555
Fe5 O23 2.158311 1_555
Fe6 O9 1.916807 1_555
Fe6 O24 1.919591 1_555
Fe6 O41 1.937204 1_555
Fe6 O6 2.043455 1_655
Fe6 O18 2.158302 1_555
Fe7 O3 1.916807 1_545
Fe7 O37 1.919591 1_555
Fe7 O13 1.937204 1_555
Fe7 O31 2.043455 1_655
Fe7 O19 2.158299 1_555
As0 O7 1.802092 1_565
As0 O46 1.808464 1_565
As0 O6 1.816189 1_555
As1 O18 1.772084 1_555
As1 O29 1.844175 1_555
As1 O16 1.868126 1_554
As2 O50 1.772095 1_555
As2 O47 1.844174 1_555
As2 O1 1.868126 1_555
As3 O11 1.802092 1_555
As3 O27 1.808464 1_555
As3 O43 1.816189 1_445
As4 O23 1.772086 1_555
As4 O21 1.844182 1_555
As4 O47 1.868133 1_555
As5 O22 1.802092 1_555
As5 O15 1.808464 1_555
As5 O49 1.816189 1_555
As6 O9 1.802092 1_455
As6 O37 1.808464 1_455
As6 O20 1.816189 1_555
As7 O45 1.772086 1_555
As7 O16 1.844182 1_555
As7 O33 1.868133 1_555
As8 O55 1.802092 1_555
As8 O38 1.808464 1_555
As8 O31 1.816189 1_555
As9 O3 1.802092 1_556
As9 O44 1.808464 1_555
As9 O17 1.816189 1_565
As10 O14 1.772084 1_555
As10 O53 1.844175 1_555
As10 O21 1.868126 1_555
As11 O19 1.772095 1_555
As11 O1 1.844182 1_555
As11 O53 1.868124 1_555
As12 O48 1.802092 1_554
As12 O24 1.808464 1_555
As12 O40 1.816189 1_655
As13 O51 1.772095 1_555
As13 O33 1.844174 1_555
As13 O12 1.868126 1_556
As14 O0 1.772095 1_555
As14 O12 1.844182 1_555
As14 O29 1.868124 1_555
As15 O34 1.802092 1_555
As15 O32 1.808464 1_555
As15 O35 1.816189 1_555
O2 Sb1 2.018729 1_555
O4 Sb5 2.018716 1_555
O5 Sb6 2.018729 1_555
O6 Sb0 2.339036 1_455
O8 Sb5 2.008149 1_555
O8 Sb0 2.148281 1_555
O10 Sb2 2.008141 1_554
O10 Sb6 2.148293 1_555
O13 Sb7 2.018729 1_655
O17 Sb4 2.339026 1_556
O20 Sb6 2.339026 1_555
O25 Sb0 2.008141 1_555
O25 Sb7 2.148293 1_665
O26 Sb7 2.008147 1_555
O26 Sb1 2.148293 1_555
O28 Sb4 2.008147 1_556
O28 Sb3 2.148290 1_555
O30 Sb3 2.008149 1_555
O30 Sb2 2.148281 1_545
O31 Sb7 2.339026 1_555
O35 Sb3 2.339023 1_565
O36 Sb4 2.018729 1_556
O39 Sb2 2.018727 1_544
O40 Sb2 2.339036 1_554
O41 Sb0 2.018727 1_555
O42 Sb1 2.008147 1_555
O42 Sb5 2.148290 1_555
O43 Sb5 2.339023 1_555
O49 Sb1 2.339026 1_555
O52 Sb3 2.018716 1_555
O54 Sb6 2.008147 1_555
O54 Sb4 2.148293 1_455
