# generated using pymatgen
data_MgSiO3
_symmetry_space_group_name_H-M   'P 1'
_cell_length_a   5.19847528
_cell_length_b   8.82304323
_cell_length_c   9.15181430
_cell_angle_alpha   90.00000000
_cell_angle_beta   90.00000000
_cell_angle_gamma   90.00000000
_symmetry_Int_Tables_number   1
_chemical_formula_structural   MgSiO3
_chemical_formula_sum   'Mg8 Si8 O24'
_cell_volume   419.76052031
_cell_formula_units_Z   8
loop_
 _symmetry_equiv_pos_site_id
 _symmetry_equiv_pos_as_xyz
  1  'x, y, z'
loop_
 _atom_site_type_symbol
 _atom_site_label
 _atom_site_symmetry_multiplicity
 _atom_site_fract_x
 _atom_site_fract_y
 _atom_site_fract_z
 _atom_site_occupancy
  Mg  Mg0  1  0.78138644  0.84699126  0.00254355  1
  Mg  Mg1  1  0.21861356  0.15300874  0.50254355  1
  Mg  Mg2  1  0.71861356  0.34699126  0.50254355  1
  Mg  Mg3  1  0.28138644  0.65300874  0.00254355  1
  Mg  Mg4  1  0.28128126  0.00858102  0.99698936  1
  Mg  Mg5  1  0.71871874  0.99141898  0.49698936  1
  Mg  Mg6  1  0.21871874  0.50858102  0.49698936  1
  Mg  Mg7  1  0.78128126  0.49141898  0.99698936  1
  Si  Si0  1  0.62877251  0.66069890  0.29858827  1
  Si  Si1  1  0.37122749  0.33930110  0.79858827  1
  Si  Si2  1  0.87122749  0.16069890  0.79858827  1
  Si  Si3  1  0.12877251  0.83930110  0.29858827  1
  Si  Si4  1  0.43132743  0.83833785  0.70327504  1
  Si  Si5  1  0.56867257  0.16166215  0.20327504  1
  Si  Si6  1  0.06867257  0.33833785  0.20327504  1
  Si  Si7  1  0.93132743  0.66166215  0.70327504  1
  O  O0  1  0.61805813  0.65890622  0.12147589  1
  O  O1  1  0.38194187  0.34109378  0.62147589  1
  O  O2  1  0.88194187  0.15890622  0.62147589  1
  O  O3  1  0.11805813  0.84109378  0.12147589  1
  O  O4  1  0.44034638  0.83660435  0.87962365  1
  O  O5  1  0.55965362  0.16339565  0.37962365  1
  O  O6  1  0.05965362  0.33660435  0.37962365  1
  O  O7  1  0.94034638  0.66339565  0.87962365  1
  O  O8  1  0.53903022  0.50890966  0.37922744  1
  O  O9  1  0.46096978  0.49109034  0.87922744  1
  O  O10  1  0.96096978  0.00890966  0.87922744  1
  O  O11  1  0.03903022  0.99109034  0.37922744  1
  O  O12  1  0.39810394  0.99643256  0.62286627  1
  O  O13  1  0.60189606  0.00356744  0.12286627  1
  O  O14  1  0.10189606  0.49643256  0.12286627  1
  O  O15  1  0.89810394  0.50356744  0.62286627  1
  O  O16  1  0.92380987  0.70547727  0.35353666  1
  O  O17  1  0.07619013  0.29452273  0.85353666  1
  O  O18  1  0.57619013  0.20547727  0.85353666  1
  O  O19  1  0.42380987  0.79452273  0.35353666  1
  O  O20  1  0.22169094  0.71220698  0.64287286  1
  O  O21  1  0.77830906  0.28779302  0.14287286  1
  O  O22  1  0.27830906  0.21220698  0.14287286  1
  O  O23  1  0.72169094  0.78779302  0.64287286  1
loop_
_geom_bond_atom_site_label_1
_geom_bond_atom_site_label_2
_geom_bond_distance
_geom_bond_site_symmetry_2
Mg0 O13 1.997922 1_565
Mg0 O10 2.046003 1_564
Mg0 O3 2.061687 1_655
Mg0 O4 2.101671 1_554
Mg0 O7 2.138300 1_554
Mg0 O0 2.158587 1_555
Mg1 O12 1.997922 1_545
Mg1 O11 2.046003 1_545
Mg1 O2 2.061687 1_455
Mg1 O5 2.101671 1_555
Mg1 O6 2.138300 1_555
Mg1 O1 2.158587 1_555
Mg2 O15 1.997922 1_555
Mg2 O8 2.046003 1_555
Mg2 O1 2.061687 1_555
Mg2 O6 2.101671 1_655
Mg2 O5 2.138300 1_555
Mg2 O2 2.158587 1_555
Mg3 O14 1.997922 1_555
Mg3 O9 2.046003 1_554
Mg3 O0 2.061687 1_555
Mg3 O7 2.101671 1_454
Mg3 O4 2.138300 1_554
Mg3 O3 2.158587 1_555
Mg4 O10 1.983478 1_455
Mg4 O13 2.026569 1_556
Mg4 O4 2.034660 1_545
Mg4 O3 2.049796 1_546
Mg4 O22 2.238415 1_556
Mg4 O18 2.663053 1_555
Mg5 O11 1.983478 1_655
Mg5 O12 2.026569 1_555
Mg5 O5 2.034660 1_565
Mg5 O2 2.049796 1_565
Mg5 O23 2.238415 1_555
Mg5 O19 2.663053 1_555
Mg6 O8 1.983478 1_555
Mg6 O15 2.026569 1_455
Mg6 O6 2.034660 1_555
Mg6 O1 2.049796 1_555
Mg6 O20 2.238415 1_555
Mg6 O16 2.663053 1_455
Mg7 O9 1.983478 1_555
Mg7 O14 2.026569 1_656
Mg7 O7 2.034660 1_555
Mg7 O0 2.049796 1_556
Mg7 O21 2.238415 1_556
Mg7 O17 2.663053 1_655
O0 Si0 1.621933 1_555
O1 Si1 1.621933 1_555
O2 Si2 1.621933 1_555
O3 Si3 1.621933 1_555
O4 Si4 1.614663 1_555
O5 Si5 1.614663 1_555
O6 Si6 1.614663 1_555
O7 Si7 1.614663 1_555
O8 Si0 1.598703 1_555
O9 Si1 1.598703 1_555
O10 Si2 1.598703 1_555
O11 Si3 1.598703 1_555
O12 Si4 1.586518 1_555
O13 Si5 1.586518 1_555
O14 Si6 1.586518 1_555
O15 Si7 1.586518 1_555
O16 Si0 1.661730 1_555
O16 Si3 1.668021 1_655
O17 Si1 1.661730 1_555
O17 Si2 1.668021 1_455
O18 Si2 1.661730 1_555
O18 Si1 1.668021 1_555
O19 Si3 1.661730 1_555
O19 Si0 1.668021 1_555
O20 Si4 1.652777 1_555
O20 Si7 1.668199 1_455
O21 Si5 1.652777 1_555
O21 Si6 1.668199 1_655
O22 Si6 1.652777 1_555
O22 Si5 1.668199 1_555
O23 Si7 1.652777 1_555
O23 Si4 1.668199 1_555
