# generated using pymatgen
data_Dy2CdSe4
_symmetry_space_group_name_H-M   'P 1'
_cell_length_a   8.28732726
_cell_length_b   8.28732813
_cell_length_c   8.28732821
_cell_angle_alpha   59.99999971
_cell_angle_beta   59.99999623
_cell_angle_gamma   59.99999620
_symmetry_Int_Tables_number   1
_chemical_formula_structural   Dy2CdSe4
_chemical_formula_sum   'Dy4 Cd2 Se8'
_cell_volume   402.46538965
_cell_formula_units_Z   2
loop_
 _symmetry_equiv_pos_site_id
 _symmetry_equiv_pos_as_xyz
  1  'x, y, z'
loop_
 _atom_site_type_symbol
 _atom_site_label
 _atom_site_symmetry_multiplicity
 _atom_site_fract_x
 _atom_site_fract_y
 _atom_site_fract_z
 _atom_site_occupancy
  Dy  Dy0  1  0.50000000  0.50000000  0.00000000  1
  Dy  Dy1  1  -0.00000000  0.50000000  0.50000000  1
  Dy  Dy2  1  0.50000000  -0.00000000  0.50000000  1
  Dy  Dy3  1  0.50000000  0.50000000  0.50000000  1
  Cd  Cd0  1  0.12500000  0.12500000  0.12500000  1
  Cd  Cd1  1  0.87500000  0.87500000  0.87500000  1
  Se  Se0  1  0.26969570  0.74343510  0.74343510  1
  Se  Se1  1  0.25656490  0.25656490  0.73030430  1
  Se  Se2  1  0.25656490  0.73030430  0.25656490  1
  Se  Se3  1  0.74343510  0.74343510  0.74343510  1
  Se  Se4  1  0.25656490  0.25656490  0.25656490  1
  Se  Se5  1  0.74343510  0.74343510  0.26969570  1
  Se  Se6  1  0.73030430  0.25656490  0.25656490  1
  Se  Se7  1  0.74343510  0.26969570  0.74343510  1
loop_
_geom_bond_atom_site_label_1
_geom_bond_atom_site_label_2
_geom_bond_distance
_geom_bond_site_symmetry_2
Dy0 Se7 2.855140 1_554
Dy0 Se2 2.855140 1_555
Dy0 Se0 2.855140 1_554
Dy0 Se6 2.855140 1_555
Dy0 Se3 2.855146 1_554
Dy0 Se4 2.855146 1_555
Dy1 Se2 2.855140 1_555
Dy1 Se7 2.855140 1_455
Dy1 Se5 2.855140 1_455
Dy1 Se1 2.855140 1_555
Dy1 Se4 2.855146 1_555
Dy1 Se3 2.855146 1_455
Dy2 Se5 2.855140 1_545
Dy2 Se1 2.855140 1_555
Dy2 Se6 2.855140 1_555
Dy2 Se0 2.855140 1_545
Dy2 Se4 2.855146 1_555
Dy2 Se3 2.855146 1_545
Dy3 Se1 2.855146 1_555
Dy3 Se5 2.855146 1_555
Dy3 Se7 2.855146 1_555
Dy3 Se2 2.855146 1_555
Dy3 Se0 2.855146 1_555
Dy3 Se6 2.855146 1_555
Cd0 Se4 2.670731 1_555
Cd0 Se6 2.670738 1_455
Cd0 Se2 2.670738 1_545
Cd0 Se1 2.670738 1_554
Cd1 Se3 2.670731 1_555
Cd1 Se0 2.670738 1_655
Cd1 Se7 2.670738 1_565
Cd1 Se5 2.670738 1_556
