# generated using pymatgen
data_CsUAgSe3
_symmetry_space_group_name_H-M   'P 1'
_cell_length_a   8.30008084
_cell_length_b   8.30008084
_cell_length_c   10.94223400
_cell_angle_alpha   90.00000000
_cell_angle_beta   90.00000000
_cell_angle_gamma   150.05764018
_symmetry_Int_Tables_number   1
_chemical_formula_structural   CsUAgSe3
_chemical_formula_sum   'Cs2 U2 Ag2 Se6'
_cell_volume   376.25564602
_cell_formula_units_Z   2
loop_
 _symmetry_equiv_pos_site_id
 _symmetry_equiv_pos_as_xyz
  1  'x, y, z'
loop_
 _atom_site_type_symbol
 _atom_site_label
 _atom_site_symmetry_multiplicity
 _atom_site_fract_x
 _atom_site_fract_y
 _atom_site_fract_z
 _atom_site_occupancy
  Cs  Cs0  1  0.25518100  0.74481900  0.75000000  1
  Cs  Cs1  1  0.74481900  0.25518100  0.25000000  1
  U  U0  1  0.00000000  0.00000000  0.00000000  1
  U  U1  1  0.00000000  0.00000000  0.50000000  1
  Ag  Ag0  1  0.54136300  0.45863700  0.75000000  1
  Ag  Ag1  1  0.45863700  0.54136300  0.25000000  1
  Se  Se0  1  0.94146900  0.05853100  0.75000000  1
  Se  Se1  1  0.05853100  0.94146900  0.25000000  1
  Se  Se2  1  0.61713800  0.38286200  0.96160900  1
  Se  Se3  1  0.38286200  0.61713800  0.03839100  1
  Se  Se4  1  0.38286200  0.61713800  0.46160900  1
  Se  Se5  1  0.61713800  0.38286200  0.53839100  1
loop_
_geom_bond_atom_site_label_1
_geom_bond_atom_site_label_2
_geom_bond_distance
_geom_bond_site_symmetry_2
Cs0 Se0 3.677274 1_455
Cs0 Se0 3.677274 1_565
Cs0 Se4 3.761736 1_555
Cs0 Se3 3.761736 1_556
Cs0 Se2 3.854823 1_455
Cs0 Se5 3.854823 1_455
Cs0 Se5 3.854823 1_565
Cs0 Se2 3.854823 1_565
Cs1 Se1 3.677274 1_545
Cs1 Se1 3.677274 1_655
Cs1 Se5 3.761736 1_555
Cs1 Se2 3.761736 1_554
Cs1 Se4 3.854823 1_545
Cs1 Se4 3.854823 1_655
Cs1 Se3 3.854823 1_545
Cs1 Se3 3.854823 1_655
Ag0 Se5 2.614974 1_555
Ag0 Se2 2.614974 1_555
Ag0 Se0 2.676534 1_565
Ag0 Se0 2.676534 1_455
Ag1 Se4 2.614974 1_555
Ag1 Se3 2.614974 1_555
Ag1 Se1 2.676534 1_655
Ag1 Se1 2.676534 1_545
Se0 U0 2.892115 1_656
Se0 U1 2.892115 1_655
Se1 U0 2.892115 1_565
Se1 U1 2.892115 1_565
Se2 U0 2.881455 1_666
Se2 U0 2.881455 1_556
Se3 U0 2.881455 1_555
Se3 U0 2.881455 1_665
Se4 U1 2.881455 1_555
Se4 U1 2.881455 1_665
Se5 U1 2.881455 1_665
Se5 U1 2.881455 1_555
