# generated using pymatgen
data_Gd(Al3Ni)3
_symmetry_space_group_name_H-M   'P 1'
_cell_length_a   10.01121256
_cell_length_b   10.01121256
_cell_length_c   10.01121108
_cell_angle_alpha   42.44124238
_cell_angle_beta   42.44124238
_cell_angle_gamma   42.44124581
_symmetry_Int_Tables_number   1
_chemical_formula_structural   Gd(Al3Ni)3
_chemical_formula_sum   'Gd2 Al18 Ni6'
_cell_volume   413.69608392
_cell_formula_units_Z   2
loop_
 _symmetry_equiv_pos_site_id
 _symmetry_equiv_pos_as_xyz
  1  'x, y, z'
loop_
 _atom_site_type_symbol
 _atom_site_label
 _atom_site_symmetry_multiplicity
 _atom_site_fract_x
 _atom_site_fract_y
 _atom_site_fract_z
 _atom_site_occupancy
  Gd  Gd0  1  0.16685698  0.16685698  0.16685698  1
  Gd  Gd1  1  0.83314302  0.83314302  0.83314302  1
  Al  Al0  1  0.05185633  0.05185633  0.05185633  1
  Al  Al1  1  0.70755294  0.50000000  0.29244706  1
  Al  Al2  1  0.66587200  0.33412800  0.00000000  1
  Al  Al3  1  0.10303463  0.43188918  0.76085389  1
  Al  Al4  1  0.43188918  0.76085389  0.10303463  1
  Al  Al5  1  0.38680285  0.38680285  0.38680285  1
  Al  Al6  1  0.33412800  -0.00000000  0.66587200  1
  Al  Al7  1  0.61319715  0.61319715  0.61319715  1
  Al  Al8  1  0.23914611  0.56811082  0.89696537  1
  Al  Al9  1  0.56811082  0.89696537  0.23914611  1
  Al  Al10  1  0.50000000  0.29244706  0.70755294  1
  Al  Al11  1  0.76085389  0.10303463  0.43188918  1
  Al  Al12  1  0.94814367  0.94814367  0.94814367  1
  Al  Al13  1  0.29244706  0.70755294  0.50000000  1
  Al  Al14  1  0.00000000  0.66587200  0.33412800  1
  Al  Al15  1  0.71812483  0.71812483  0.71812483  1
  Al  Al16  1  0.28187517  0.28187517  0.28187517  1
  Al  Al17  1  0.89696537  0.23914611  0.56811082  1
  Ni  Ni0  1  0.24258072  0.92152772  0.58202831  1
  Ni  Ni1  1  0.92152772  0.58202831  0.24258072  1
  Ni  Ni2  1  0.75741928  0.41797169  0.07847228  1
  Ni  Ni3  1  0.07847228  0.75741928  0.41797169  1
  Ni  Ni4  1  0.41797169  0.07847228  0.75741928  1
  Ni  Ni5  1  0.58202831  0.24258072  0.92152772  1
loop_
_geom_bond_atom_site_label_1
_geom_bond_atom_site_label_2
_geom_bond_distance
_geom_bond_site_symmetry_2
Gd0 Ni0 3.273835 1_545
Gd0 Ni1 3.273836 1_455
Gd0 Ni5 3.273836 1_554
Gd0 Ni4 3.281067 1_554
Gd0 Ni2 3.281068 1_455
Gd0 Ni3 3.281068 1_545
Gd1 Ni3 3.273835 1_655
Gd1 Ni4 3.273836 1_565
Gd1 Ni2 3.273836 1_556
Gd1 Ni1 3.281067 1_556
Gd1 Ni5 3.281068 1_565
Gd1 Ni0 3.281068 1_655
Al0 Ni3 2.555402 1_545
Al0 Ni4 2.555402 1_554
Al0 Ni2 2.555402 1_455
Al0 Al11 2.745824 1_455
Al0 Al3 2.745825 1_554
Al0 Al4 2.745825 1_545
Al0 Al6 2.804585 1_554
Al0 Al14 2.804585 1_545
Al0 Al2 2.804585 1_455
Al0 Al12 2.829757 1_444
Al0 Gd0 3.137745 1_555
Al1 Ni2 2.434195 1_555
Al1 Ni1 2.434196 1_555
Al1 Al10 2.605355 1_555
Al1 Al13 2.605355 1_555
Al1 Al11 2.794345 1_555
Al1 Al9 2.794345 1_555
Al1 Al17 2.794559 1_555
Al1 Al4 2.794559 1_555
Al1 Gd1 2.978102 1_554
Al1 Gd0 2.978103 1_655
Al2 Ni5 2.309342 1_554
Al2 Ni2 2.309342 1_555
Al2 Al5 2.819654 1_555
Al2 Al7 2.819654 1_554
Al3 Ni2 2.433378 1_456
Al3 Ni4 2.452597 1_555
Al3 Ni3 2.452814 1_555
Al3 Al5 2.682881 1_555
Al3 Gd1 3.057119 1_455
Al3 Gd0 3.063107 1_556
Al4 Ni4 2.433378 1_564
Al4 Ni3 2.452596 1_555
Al4 Ni2 2.452814 1_555
Al4 Al5 2.682881 1_555
Al4 Gd1 3.057119 1_554
Al4 Gd0 3.063107 1_565
Al5 Ni4 2.602954 1_555
Al5 Ni2 2.602954 1_555
Al5 Ni3 2.602954 1_555
Al5 Al6 2.819654 1_555
Al6 Ni4 2.309342 1_555
Al6 Ni0 2.309342 1_545
Al6 Al7 2.819654 1_545
Al7 Ni1 2.602954 1_555
Al7 Ni5 2.602954 1_555
Al7 Ni0 2.602954 1_555
Al7 Al9 2.682881 1_555
Al7 Al8 2.682881 1_555
Al8 Ni1 2.433378 1_456
Al8 Ni0 2.452596 1_555
Al8 Ni5 2.452814 1_555
Al8 Gd0 3.057119 1_556
Al8 Gd1 3.063107 1_455
Al9 Ni5 2.433378 1_564
Al9 Ni1 2.452597 1_555
Al9 Ni0 2.452814 1_555
Al9 Gd0 3.057119 1_565
Al9 Gd1 3.063107 1_554
Al10 Ni5 2.434195 1_555
Al10 Ni4 2.434196 1_555
Al10 Al13 2.605355 1_555
Al10 Al17 2.794345 1_555
Al10 Al3 2.794345 1_555
Al10 Al11 2.794559 1_555
Al10 Al8 2.794559 1_555
Al10 Gd0 2.978102 1_556
Al10 Gd1 2.978103 1_545
Al11 Ni3 2.433378 1_645
Al11 Ni2 2.452596 1_555
Al11 Ni4 2.452814 1_555
Al11 Al5 2.682881 1_555
Al11 Al15 2.751237 1_545
Al11 Gd1 3.057118 1_545
Al11 Gd0 3.063107 1_655
Al12 Ni0 2.555402 1_655
Al12 Ni1 2.555402 1_556
Al12 Ni5 2.555402 1_565
Al12 Al17 2.745824 1_565
Al12 Al9 2.745825 1_556
Al12 Al8 2.745825 1_655
Al12 Al14 2.804585 1_656
Al12 Al6 2.804585 1_665
Al12 Al2 2.804585 1_566
Al12 Gd1 3.137745 1_555
Al13 Ni3 2.434196 1_555
Al13 Ni0 2.434196 1_555
Al13 Al4 2.794344 1_555
Al13 Al8 2.794344 1_555
Al13 Al9 2.794559 1_555
Al13 Al3 2.794559 1_555
Al13 Gd0 2.978102 1_565
Al13 Gd1 2.978102 1_455
Al14 Ni1 2.309342 1_455
Al14 Ni3 2.309342 1_555
Al14 Al15 2.791654 1_455
Al14 Al16 2.791655 1_555
Al14 Al7 2.819654 1_455
Al14 Al5 2.819654 1_555
Al15 Ni2 2.559045 1_556
Al15 Ni3 2.559045 1_655
Al15 Ni4 2.559046 1_565
Al15 Al4 2.751237 1_556
Al15 Al3 2.751237 1_655
Al15 Al2 2.791655 1_556
Al15 Al6 2.791655 1_565
Al15 Al7 2.862908 1_555
Al15 Gd1 3.138223 1_555
Al16 Ni5 2.559045 1_554
Al16 Ni0 2.559045 1_545
Al16 Ni1 2.559046 1_455
Al16 Al8 2.751237 1_554
Al16 Al17 2.751237 1_455
Al16 Al9 2.751237 1_545
Al16 Al6 2.791654 1_555
Al16 Al2 2.791655 1_555
Al16 Al5 2.862908 1_555
Al16 Gd0 3.138223 1_555
Al17 Ni0 2.433378 1_645
Al17 Ni5 2.452596 1_555
Al17 Ni1 2.452814 1_555
Al17 Al7 2.682881 1_555
Al17 Gd0 3.057118 1_655
Al17 Gd1 3.063107 1_545
