# generated using pymatgen
data_Ti3Al2NiN
_symmetry_space_group_name_H-M   'P 1'
_cell_length_a   8.04283618
_cell_length_b   8.04283618
_cell_length_c   8.04283618
_cell_angle_alpha   60.00000000
_cell_angle_beta   60.00000000
_cell_angle_gamma   60.00000000
_symmetry_Int_Tables_number   1
_chemical_formula_structural   Ti3Al2NiN
_chemical_formula_sum   'Ti12 Al8 Ni4 N4'
_cell_volume   367.88549957
_cell_formula_units_Z   4
loop_
 _symmetry_equiv_pos_site_id
 _symmetry_equiv_pos_as_xyz
  1  'x, y, z'
loop_
 _atom_site_type_symbol
 _atom_site_label
 _atom_site_symmetry_multiplicity
 _atom_site_fract_x
 _atom_site_fract_y
 _atom_site_fract_z
 _atom_site_occupancy
  Ti  Ti0  1  0.81461500  0.81461500  0.18538500  1
  Ti  Ti1  1  0.06461500  0.43538500  0.43538500  1
  Ti  Ti2  1  0.43538500  0.06461500  0.06461500  1
  Ti  Ti3  1  0.06461500  0.06461500  0.43538500  1
  Ti  Ti4  1  0.06461500  0.43538500  0.06461500  1
  Ti  Ti5  1  0.43538500  0.06461500  0.43538500  1
  Ti  Ti6  1  0.18538500  0.81461500  0.18538500  1
  Ti  Ti7  1  0.18538500  0.81461500  0.81461500  1
  Ti  Ti8  1  0.81461500  0.18538500  0.18538500  1
  Ti  Ti9  1  0.81461500  0.18538500  0.81461500  1
  Ti  Ti10  1  0.43538500  0.43538500  0.06461500  1
  Ti  Ti11  1  0.18538500  0.18538500  0.81461500  1
  Al  Al0  1  0.41717400  0.74847700  0.41717400  1
  Al  Al1  1  0.83282600  0.83282600  0.50152300  1
  Al  Al2  1  0.50152300  0.83282600  0.83282600  1
  Al  Al3  1  0.83282600  0.83282600  0.83282600  1
  Al  Al4  1  0.74847700  0.41717400  0.41717400  1
  Al  Al5  1  0.41717400  0.41717400  0.41717400  1
  Al  Al6  1  0.41717400  0.41717400  0.74847700  1
  Al  Al7  1  0.83282600  0.50152300  0.83282600  1
  Ni  Ni0  1  0.62500000  0.12500000  0.62500000  1
  Ni  Ni1  1  0.62500000  0.62500000  0.12500000  1
  Ni  Ni2  1  0.12500000  0.62500000  0.62500000  1
  Ni  Ni3  1  0.62500000  0.62500000  0.62500000  1
  N  N0  1  0.12500000  0.62500000  0.12500000  1
  N  N1  1  0.12500000  0.12500000  0.62500000  1
  N  N2  1  0.62500000  0.12500000  0.12500000  1
  N  N3  1  0.12500000  0.12500000  0.12500000  1
loop_
_geom_bond_atom_site_label_1
_geom_bond_atom_site_label_2
_geom_bond_distance
_geom_bond_site_symmetry_2
Al0 Ni2 2.459288 1_555
Al0 Ni1 2.459288 1_555
Al0 Ni3 2.459294 1_555
Al0 Al5 2.664616 1_555
Al0 Al4 2.664616 1_555
Al0 Al6 2.664616 1_555
Al0 Ti2 2.697076 1_565
Al0 Ti3 2.697076 1_565
Al0 Ti5 2.697080 1_565
Al0 Ti6 2.953950 1_555
Al0 Ti7 2.953957 1_555
Al0 Ti0 2.953957 1_555
Al1 Ni0 2.459288 1_565
Al1 Ni2 2.459288 1_655
Al1 Ni3 2.459294 1_555
Al1 Al2 2.664616 1_555
Al1 Al7 2.664616 1_555
Al1 Al3 2.664616 1_555
Al1 Ti6 2.697076 1_655
Al1 Ti8 2.697076 1_565
Al1 Ti0 2.697080 1_555
Al1 Ti3 2.953950 1_665
Al1 Ti5 2.953957 1_565
Al1 Ti1 2.953957 1_655
Al2 Ni1 2.459288 1_556
Al2 Ni0 2.459288 1_565
Al2 Ni3 2.459294 1_555
Al2 Al7 2.664616 1_555
Al2 Al3 2.664616 1_555
Al2 Ti11 2.697076 1_565
Al2 Ti6 2.697076 1_556
Al2 Ti7 2.697080 1_555
Al2 Ti2 2.953950 1_566
Al2 Ti5 2.953957 1_565
Al2 Ti10 2.953957 1_556
Al3 Ni0 2.459292 1_565
Al3 Ni1 2.459292 1_556
Al3 Ni2 2.459292 1_655
Al3 Al7 2.664616 1_555
Al3 Ti0 2.697072 1_556
Al3 Ti9 2.697072 1_565
Al3 Ti7 2.697072 1_655
Al3 Ti4 2.953954 1_656
Al3 Ti2 2.953954 1_566
Al3 Ti3 2.953954 1_665
Al4 Ni0 2.459288 1_555
Al4 Ni1 2.459288 1_555
Al4 Ni3 2.459294 1_555
Al4 Al5 2.664616 1_555
Al4 Al6 2.664616 1_555
Al4 Ti4 2.697076 1_655
Al4 Ti3 2.697076 1_655
Al4 Ti1 2.697080 1_655
Al4 Ti8 2.953950 1_555
Al4 Ti9 2.953957 1_555
Al4 Ti0 2.953957 1_555
Al5 Ni0 2.459292 1_555
Al5 Ni1 2.459292 1_555
Al5 Ni2 2.459292 1_555
Al5 Al6 2.664616 1_555
Al5 Ti1 2.697072 1_555
Al5 Ti5 2.697072 1_555
Al5 Ti10 2.697072 1_555
Al5 Ti6 2.953954 1_555
Al5 Ti11 2.953954 1_555
Al5 Ti8 2.953954 1_555
Al6 Ni2 2.459288 1_555
Al6 Ni0 2.459288 1_555
Al6 Ni3 2.459294 1_555
Al6 Ti2 2.697076 1_556
Al6 Ti4 2.697076 1_556
Al6 Ti10 2.697080 1_556
Al6 Ti11 2.953950 1_555
Al6 Ti7 2.953957 1_555
Al6 Ti9 2.953957 1_555
Al7 Ni1 2.459288 1_556
Al7 Ni2 2.459288 1_655
Al7 Ni3 2.459294 1_555
Al7 Ti8 2.697076 1_556
Al7 Ti11 2.697076 1_655
Al7 Ti9 2.697080 1_555
Al7 Ti4 2.953950 1_656
Al7 Ti1 2.953957 1_655
Al7 Ti10 2.953957 1_556
Ni0 Ti5 2.948637 1_555
Ni0 Ti9 2.948637 1_555
Ni0 Ti8 2.948637 1_555
Ni0 Ti11 2.948637 1_555
Ni0 Ti3 2.948637 1_655
Ni0 Ti2 2.948637 1_556
Ni1 Ti10 2.948637 1_555
Ni1 Ti0 2.948637 1_555
Ni1 Ti8 2.948637 1_555
Ni1 Ti6 2.948637 1_555
Ni1 Ti4 2.948637 1_655
Ni1 Ti2 2.948637 1_565
Ni2 Ti7 2.948637 1_555
Ni2 Ti1 2.948637 1_555
Ni2 Ti6 2.948637 1_555
Ni2 Ti11 2.948637 1_555
Ni2 Ti4 2.948637 1_556
Ni2 Ti3 2.948637 1_565
Ni3 Ti0 2.948637 1_555
Ni3 Ti9 2.948637 1_555
Ni3 Ti7 2.948637 1_555
Ni3 Ti1 2.948637 1_655
Ni3 Ti5 2.948637 1_565
Ni3 Ti10 2.948637 1_556
N0 Ti4 2.124781 1_555
N0 Ti6 2.124781 1_555
N0 Ti10 2.124781 1_555
N0 Ti1 2.124781 1_555
N0 Ti0 2.124781 1_455
N0 Ti7 2.124781 1_554
N1 Ti11 2.124781 1_555
N1 Ti3 2.124781 1_555
N1 Ti1 2.124781 1_555
N1 Ti7 2.124781 1_545
N1 Ti5 2.124781 1_555
N1 Ti9 2.124781 1_455
N2 Ti8 2.124781 1_555
N2 Ti2 2.124781 1_555
N2 Ti0 2.124781 1_545
N2 Ti10 2.124781 1_555
N2 Ti9 2.124781 1_554
N2 Ti5 2.124781 1_555
N3 Ti4 2.124781 1_555
N3 Ti6 2.124781 1_545
N3 Ti8 2.124781 1_455
N3 Ti2 2.124781 1_555
N3 Ti11 2.124781 1_554
N3 Ti3 2.124781 1_555
