# generated using pymatgen
data_CeSn2Rh
_symmetry_space_group_name_H-M   'P 1'
_cell_length_a   8.91768507
_cell_length_b   8.91768507
_cell_length_c   9.65164000
_cell_angle_alpha   90.00000000
_cell_angle_beta   90.00000000
_cell_angle_gamma   150.05812759
_symmetry_Int_Tables_number   1
_chemical_formula_structural   CeSn2Rh
_chemical_formula_sum   'Ce4 Sn8 Rh4'
_cell_volume   383.09928862
_cell_formula_units_Z   4
loop_
 _symmetry_equiv_pos_site_id
 _symmetry_equiv_pos_as_xyz
  1  'x, y, z'
loop_
 _atom_site_type_symbol
 _atom_site_label
 _atom_site_symmetry_multiplicity
 _atom_site_fract_x
 _atom_site_fract_y
 _atom_site_fract_z
 _atom_site_occupancy
  Ce  Ce0  1  0.70440400  0.29559600  0.75000000  1
  Ce  Ce1  1  0.29559600  0.70440400  0.25000000  1
  Ce  Ce2  1  0.50000000  0.50000000  0.50000000  1
  Ce  Ce3  1  0.50000000  0.50000000  0.00000000  1
  Sn  Sn0  1  0.69847800  0.30152200  0.41028900  1
  Sn  Sn1  1  0.30152200  0.69847800  0.58971100  1
  Sn  Sn2  1  0.30152200  0.69847800  0.91028900  1
  Sn  Sn3  1  0.69847800  0.30152200  0.08971100  1
  Sn  Sn4  1  0.90978500  0.09021500  0.75000000  1
  Sn  Sn5  1  0.09021500  0.90978500  0.25000000  1
  Sn  Sn6  1  0.07391400  0.92608600  0.75000000  1
  Sn  Sn7  1  0.92608600  0.07391400  0.25000000  1
  Rh  Rh0  1  0.85369000  0.14631000  0.49386500  1
  Rh  Rh1  1  0.14631000  0.85369000  0.50613500  1
  Rh  Rh2  1  0.14631000  0.85369000  0.99386500  1
  Rh  Rh3  1  0.85369000  0.14631000  0.00613500  1
loop_
_geom_bond_atom_site_label_1
_geom_bond_atom_site_label_2
_geom_bond_distance
_geom_bond_site_symmetry_2
Ce0 Sn6 3.219015 1_545
Ce0 Sn6 3.219015 1_655
Ce0 Sn2 3.240441 1_545
Ce0 Sn2 3.240441 1_655
Ce0 Sn1 3.240441 1_545
Ce0 Sn1 3.240441 1_655
Ce0 Sn3 3.280358 1_556
Ce0 Sn0 3.280358 1_555
Ce0 Rh1 3.442213 1_545
Ce0 Rh2 3.442213 1_545
Ce0 Rh1 3.442213 1_655
Ce0 Rh2 3.442213 1_655
Ce0 Sn4 3.538711 1_555
Ce0 Rh3 3.567573 1_556
Ce0 Rh0 3.567573 1_555
Ce1 Sn7 3.219015 1_455
Ce1 Sn7 3.219015 1_565
Ce1 Sn0 3.240441 1_455
Ce1 Sn0 3.240441 1_565
Ce1 Sn3 3.240441 1_455
Ce1 Sn3 3.240441 1_565
Ce1 Sn1 3.280358 1_555
Ce1 Sn2 3.280358 1_554
Ce1 Rh0 3.442213 1_455
Ce1 Rh3 3.442213 1_455
Ce1 Rh0 3.442213 1_565
Ce1 Rh3 3.442213 1_565
Ce1 Sn5 3.538711 1_555
Ce1 Rh2 3.567573 1_554
Ce1 Rh1 3.567573 1_555
Ce2 Rh0 3.415488 1_565
Ce2 Rh1 3.415488 1_655
Ce2 Rh0 3.415488 1_455
Ce2 Rh1 3.415488 1_545
Ce2 Sn1 3.527684 1_555
Ce2 Sn0 3.527684 1_555
Ce2 Sn7 3.570861 1_455
Ce2 Sn7 3.570861 1_565
Ce2 Sn6 3.570861 1_655
Ce2 Sn6 3.570861 1_545
Ce2 Sn4 3.680397 1_565
Ce2 Sn5 3.680397 1_655
Ce2 Sn5 3.680397 1_545
Ce2 Sn4 3.680397 1_455
Ce3 Rh3 3.415488 1_565
Ce3 Rh2 3.415488 1_654
Ce3 Rh3 3.415488 1_455
Ce3 Rh2 3.415488 1_544
Ce3 Sn3 3.527684 1_555
Ce3 Sn2 3.527684 1_554
Ce3 Sn7 3.570861 1_455
Ce3 Sn7 3.570861 1_565
Ce3 Sn6 3.570861 1_654
Ce3 Sn6 3.570861 1_544
Ce3 Sn4 3.680397 1_564
Ce3 Sn5 3.680397 1_655
Ce3 Sn5 3.680397 1_545
Ce3 Sn4 3.680397 1_454
Sn4 Sn6 2.827940 1_645
Sn5 Sn7 2.827940 1_465
Rh0 Sn1 2.640211 1_655
Rh0 Sn1 2.640211 1_545
Rh0 Sn4 2.654344 1_555
Rh0 Sn7 2.663804 1_555
Rh0 Sn0 2.793306 1_555
Rh1 Sn0 2.640211 1_565
Rh1 Sn0 2.640211 1_455
Rh1 Sn5 2.654344 1_555
Rh1 Sn6 2.663804 1_555
Rh1 Sn1 2.793306 1_555
Rh2 Sn3 2.640211 1_566
Rh2 Sn3 2.640211 1_456
Rh2 Sn5 2.654344 1_556
Rh2 Sn6 2.663804 1_555
Rh2 Sn2 2.793306 1_555
Rh3 Sn2 2.640211 1_654
Rh3 Sn2 2.640211 1_544
Rh3 Sn4 2.654344 1_554
Rh3 Sn7 2.663804 1_555
Rh3 Sn3 2.793306 1_555
