# generated using pymatgen
data_Ca2GeS4
_symmetry_space_group_name_H-M   'P 1'
_cell_length_a   6.32883526
_cell_length_b   8.22427351
_cell_length_c   13.73188832
_cell_angle_alpha   90.00000000
_cell_angle_beta   90.00000000
_cell_angle_gamma   90.00000000
_symmetry_Int_Tables_number   1
_chemical_formula_structural   Ca2GeS4
_chemical_formula_sum   'Ca8 Ge4 S16'
_cell_volume   714.74577820
_cell_formula_units_Z   4
loop_
 _symmetry_equiv_pos_site_id
 _symmetry_equiv_pos_as_xyz
  1  'x, y, z'
loop_
 _atom_site_type_symbol
 _atom_site_label
 _atom_site_symmetry_multiplicity
 _atom_site_fract_x
 _atom_site_fract_y
 _atom_site_fract_z
 _atom_site_occupancy
  Ca  Ca0  1  0.00000000  0.00000000  -0.00000000  1
  Ca  Ca1  1  0.50000000  0.00000000  0.50000000  1
  Ca  Ca2  1  0.00000000  0.50000000  -0.00000000  1
  Ca  Ca3  1  0.50000000  0.50000000  0.50000000  1
  Ca  Ca4  1  0.48330933  0.75000000  0.22663926  1
  Ca  Ca5  1  0.98330933  0.25000000  0.27336074  1
  Ca  Ca6  1  0.51669067  0.25000000  0.77336074  1
  Ca  Ca7  1  0.01669067  0.75000000  0.72663926  1
  Ge  Ge0  1  0.90813823  0.75000000  0.40686956  1
  Ge  Ge1  1  0.40813823  0.25000000  0.09313044  1
  Ge  Ge2  1  0.09186177  0.25000000  0.59313044  1
  Ge  Ge3  1  0.59186177  0.75000000  0.90686956  1
  S  S0  1  0.77193337  0.75000000  0.55691211  1
  S  S1  1  0.27193337  0.25000000  0.94308789  1
  S  S2  1  0.22806663  0.25000000  0.44308789  1
  S  S3  1  0.72806663  0.75000000  0.05691211  1
  S  S4  1  0.25536853  0.75000000  0.40691290  1
  S  S5  1  0.75536853  0.25000000  0.09308710  1
  S  S6  1  0.74463147  0.25000000  0.59308710  1
  S  S7  1  0.24463147  0.75000000  0.90691290  1
  S  S8  1  0.76081090  0.96182981  0.33167948  1
  S  S9  1  0.26081090  0.03817019  0.16832052  1
  S  S10  1  0.23918910  0.46182981  0.66832052  1
  S  S11  1  0.73918910  0.53817019  0.83167948  1
  S  S12  1  0.23918910  0.03817019  0.66832052  1
  S  S13  1  0.73918910  0.96182981  0.83167948  1
  S  S14  1  0.76081090  0.53817019  0.33167948  1
  S  S15  1  0.26081090  0.46182981  0.16832052  1
loop_
_geom_bond_atom_site_label_1
_geom_bond_atom_site_label_2
_geom_bond_distance
_geom_bond_site_symmetry_2
Ca0 S3 2.792864 1_445
Ca0 S1 2.792864 1_554
Ca0 S13 2.857534 1_444
Ca0 S9 2.857534 1_555
Ca0 S5 2.873742 1_455
Ca0 S7 2.873742 1_544
Ca1 S0 2.792864 1_545
Ca1 S2 2.792864 1_555
Ca1 S8 2.857534 1_545
Ca1 S12 2.857534 1_555
Ca1 S6 2.873742 1_555
Ca1 S4 2.873742 1_545
Ca2 S3 2.792864 1_455
Ca2 S1 2.792864 1_554
Ca2 S11 2.857534 1_454
Ca2 S15 2.857534 1_555
Ca2 S7 2.873742 1_554
Ca2 S5 2.873742 1_455
Ca3 S0 2.792864 1_555
Ca3 S2 2.792864 1_555
Ca3 S14 2.857534 1_555
Ca3 S10 2.857534 1_555
Ca3 S6 2.873742 1_555
Ca3 S4 2.873742 1_555
Ca4 S3 2.798487 1_555
Ca4 S14 2.863573 1_555
Ca4 S8 2.863573 1_555
Ca4 S4 2.865167 1_555
Ca4 S9 2.870728 1_565
Ca4 S15 2.870728 1_555
Ca5 S2 2.798487 1_655
Ca5 S9 2.863573 1_655
Ca5 S15 2.863573 1_655
Ca5 S5 2.865167 1_555
Ca5 S14 2.870728 1_555
Ca5 S8 2.870728 1_545
Ca6 S1 2.798487 1_555
Ca6 S10 2.863573 1_555
Ca6 S12 2.863573 1_555
Ca6 S6 2.865167 1_555
Ca6 S13 2.870728 1_545
Ca6 S11 2.870728 1_555
Ca7 S0 2.798487 1_455
Ca7 S11 2.863573 1_455
Ca7 S13 2.863573 1_455
Ca7 S7 2.865167 1_555
Ca7 S12 2.870728 1_565
Ca7 S10 2.870728 1_555
Ge0 S4 2.197563 1_655
Ge0 S14 2.229467 1_555
Ge0 S8 2.229467 1_555
Ge0 S0 2.233426 1_555
Ge1 S5 2.197563 1_555
Ge1 S9 2.229467 1_555
Ge1 S15 2.229467 1_555
Ge1 S1 2.233426 1_554
Ge2 S6 2.197563 1_455
Ge2 S10 2.229467 1_555
Ge2 S12 2.229467 1_555
Ge2 S2 2.233426 1_555
Ge3 S7 2.197563 1_555
Ge3 S13 2.229467 1_555
Ge3 S11 2.229467 1_555
Ge3 S3 2.233426 1_556
