# generated using pymatgen
data_Cs2LiVO4
_symmetry_space_group_name_H-M   'P 1'
_cell_length_a   6.97662676
_cell_length_b   6.97662676
_cell_length_c   8.33379700
_cell_angle_alpha   90.00000000
_cell_angle_beta   90.00000000
_cell_angle_gamma   127.86032020
_symmetry_Int_Tables_number   1
_chemical_formula_structural   Cs2LiVO4
_chemical_formula_sum   'Cs4 Li2 V2 O8'
_cell_volume   320.25148647
_cell_formula_units_Z   2
loop_
 _symmetry_equiv_pos_site_id
 _symmetry_equiv_pos_as_xyz
  1  'x, y, z'
loop_
 _atom_site_type_symbol
 _atom_site_label
 _atom_site_symmetry_multiplicity
 _atom_site_fract_x
 _atom_site_fract_y
 _atom_site_fract_z
 _atom_site_occupancy
  Cs  Cs0  1  0.39310100  0.60689900  0.54247400  1
  Cs  Cs1  1  0.60689900  0.39310100  0.04247400  1
  Cs  Cs2  1  0.07218000  0.92782000  0.41183200  1
  Cs  Cs3  1  0.92782000  0.07218000  0.91183200  1
  Li  Li0  1  0.20420200  0.79579800  0.82326100  1
  Li  Li1  1  0.79579800  0.20420200  0.32326100  1
  V  V0  1  0.70012000  0.29988000  0.60452000  1
  V  V1  1  0.29988000  0.70012000  0.10452000  1
  O  O0  1  0.10103000  0.42922000  0.21039400  1
  O  O1  1  0.89897000  0.57078000  0.71039400  1
  O  O2  1  0.36047100  0.63952900  0.91560700  1
  O  O3  1  0.63952900  0.36047100  0.41560700  1
  O  O4  1  0.57078000  0.89897000  0.21039400  1
  O  O5  1  0.42922000  0.10103000  0.71039400  1
  O  O6  1  0.83704900  0.16295100  0.56051800  1
  O  O7  1  0.16295100  0.83704900  0.06051800  1
loop_
_geom_bond_atom_site_label_1
_geom_bond_atom_site_label_2
_geom_bond_distance
_geom_bond_site_symmetry_2
Cs0 O2 3.136393 1_555
Cs0 O6 3.149045 1_565
Cs0 O6 3.149045 1_455
Cs0 O0 3.201127 1_555
Cs0 O4 3.201127 1_555
Cs0 O3 3.264589 1_555
Cs1 O3 3.136393 1_555
Cs1 O7 3.149045 1_655
Cs1 O7 3.149045 1_545
Cs1 O1 3.201127 1_554
Cs1 O5 3.201127 1_554
Cs1 O2 3.264589 1_554
Cs2 O7 3.141056 1_555
Cs2 O3 3.180229 1_565
Cs2 O3 3.180229 1_455
Cs2 O1 3.187652 1_455
Cs2 O5 3.187652 1_565
Cs2 O6 3.196951 1_465
Cs3 O6 3.141056 1_555
Cs3 O2 3.180229 1_655
Cs3 O2 3.180229 1_545
Cs3 O0 3.187652 1_656
Cs3 O4 3.187652 1_546
Cs3 O7 3.196951 1_646
Li0 O1 1.944346 1_455
Li0 O5 1.944346 1_565
Li0 O7 2.043732 1_556
Li0 O2 2.104391 1_555
Li1 O4 1.944346 1_545
Li1 O0 1.944346 1_655
Li1 O6 2.043732 1_555
Li1 O3 2.104391 1_555
O0 V1 1.748344 1_555
O1 V0 1.748344 1_555
O2 V1 1.747954 1_556
O3 V0 1.747954 1_555
O4 V1 1.748344 1_555
O5 V0 1.748344 1_555
O6 V0 1.754958 1_555
O7 V1 1.754958 1_555
