# generated using pymatgen
data_CdI2
_symmetry_space_group_name_H-M   'P 1'
_cell_length_a   4.28870281
_cell_length_b   4.28870354
_cell_length_c   21.84684629
_cell_angle_alpha   90.00000000
_cell_angle_beta   90.00000000
_cell_angle_gamma   120.00000244
_symmetry_Int_Tables_number   1
_chemical_formula_structural   CdI2
_chemical_formula_sum   'Cd3 I6'
_cell_volume   347.99367704
_cell_formula_units_Z   3
loop_
 _symmetry_equiv_pos_site_id
 _symmetry_equiv_pos_as_xyz
  1  'x, y, z'
loop_
 _atom_site_type_symbol
 _atom_site_label
 _atom_site_symmetry_multiplicity
 _atom_site_fract_x
 _atom_site_fract_y
 _atom_site_fract_z
 _atom_site_occupancy
  Cd  Cd0  1  0.66666700  0.33333300  0.33312024  1
  Cd  Cd1  1  0.33333300  0.66666700  0.66687976  1
  Cd  Cd2  1  -0.00000000  -0.00000000  0.00000000  1
  I  I0  1  0.33333300  0.66666700  0.07886680  1
  I  I1  1  0.33333300  0.66666700  0.41169574  1
  I  I2  1  0.66666700  0.33333300  0.92113320  1
  I  I3  1  0.66666700  0.33333300  0.58830426  1
  I  I4  1  -0.00000000  -0.00000000  0.25439532  1
  I  I5  1  -0.00000000  0.00000000  0.74560468  1
loop_
_geom_bond_atom_site_label_1
_geom_bond_atom_site_label_2
_geom_bond_distance
_geom_bond_site_symmetry_2
Cd0 I1 3.012936 1_655
Cd0 I1 3.012937 1_545
Cd0 I1 3.012943 1_555
Cd0 I4 3.014798 1_655
Cd0 I4 3.014801 1_555
Cd0 I4 3.014801 1_665
Cd1 I3 3.012936 1_455
Cd1 I3 3.012937 1_565
Cd1 I3 3.012943 1_555
Cd1 I5 3.014798 1_565
Cd1 I5 3.014801 1_665
Cd1 I5 3.014801 1_555
Cd2 I0 3.016567 1_545
Cd2 I2 3.016567 1_454
Cd2 I0 3.016570 1_445
Cd2 I2 3.016570 1_554
Cd2 I0 3.016570 1_555
Cd2 I2 3.016570 1_444
