# generated using pymatgen
data_Na5Li3(TiS4)2
_symmetry_space_group_name_H-M   'P 1'
_cell_length_a   10.09720047
_cell_length_b   10.09720047
_cell_length_c   12.17683231
_cell_angle_alpha   52.95637746
_cell_angle_beta   52.95637746
_cell_angle_gamma   57.47672668
_symmetry_Int_Tables_number   1
_chemical_formula_structural   Na5Li3(TiS4)2
_chemical_formula_sum   'Na10 Li6 Ti4 S16'
_cell_volume   760.59604074
_cell_formula_units_Z   2
loop_
 _symmetry_equiv_pos_site_id
 _symmetry_equiv_pos_as_xyz
  1  'x, y, z'
loop_
 _atom_site_type_symbol
 _atom_site_label
 _atom_site_symmetry_multiplicity
 _atom_site_fract_x
 _atom_site_fract_y
 _atom_site_fract_z
 _atom_site_occupancy
  Na  Na0  1  0.41378200  0.38672800  0.73445800  1
  Na  Na1  1  0.00814500  0.99185500  0.25000000  1
  Na  Na2  1  0.39238700  0.90049400  0.48402500  1
  Na  Na3  1  0.60761300  0.09950600  0.51597500  1
  Na  Na4  1  0.58621800  0.61327200  0.26554200  1
  Na  Na5  1  0.99185500  0.00814500  0.75000000  1
  Na  Na6  1  0.90049400  0.39238700  0.98402500  1
  Na  Na7  1  0.09950600  0.60761300  0.01597500  1
  Na  Na8  1  0.38672800  0.41378200  0.23445800  1
  Na  Na9  1  0.61327200  0.58621800  0.76554200  1
  Li  Li0  1  0.80609000  0.80851900  0.75815800  1
  Li  Li1  1  0.19148100  0.19391000  0.74184200  1
  Li  Li2  1  0.80851900  0.80609000  0.25815800  1
  Li  Li3  1  0.50000000  0.00000000  0.00000000  1
  Li  Li4  1  0.00000000  0.50000000  0.50000000  1
  Li  Li5  1  0.19391000  0.19148100  0.24184200  1
  Ti  Ti0  1  0.84853500  0.31884300  0.46774500  1
  Ti  Ti1  1  0.15146500  0.68115700  0.53225500  1
  Ti  Ti2  1  0.31884300  0.84853500  0.96774500  1
  Ti  Ti3  1  0.68115700  0.15146500  0.03225500  1
  S  S0  1  0.42527800  0.31654200  0.00812700  1
  S  S1  1  0.11807100  0.71033600  0.17667500  1
  S  S2  1  0.57472200  0.68345800  0.99187300  1
  S  S3  1  0.75817800  0.88444800  0.04967500  1
  S  S4  1  0.10508100  0.66638200  0.74781600  1
  S  S5  1  0.68345800  0.57472200  0.49187300  1
  S  S6  1  0.24182200  0.11555200  0.95032500  1
  S  S7  1  0.28966400  0.88192900  0.32332500  1
  S  S8  1  0.33361800  0.89491900  0.75218400  1
  S  S9  1  0.66638200  0.10508100  0.24781600  1
  S  S10  1  0.88444800  0.75817800  0.54967500  1
  S  S11  1  0.11555200  0.24182200  0.45032500  1
  S  S12  1  0.88192900  0.28966400  0.82332500  1
  S  S13  1  0.71033600  0.11807100  0.67667500  1
  S  S14  1  0.31654200  0.42527800  0.50812700  1
  S  S15  1  0.89491900  0.33361800  0.25218400  1
loop_
_geom_bond_atom_site_label_1
_geom_bond_atom_site_label_2
_geom_bond_distance
_geom_bond_site_symmetry_2
Na0 S13 2.801227 1_555
Na0 S4 2.862510 1_555
Na0 S6 2.891883 1_555
Na0 S5 2.975645 1_555
Na0 S0 3.025383 1_556
Na0 S14 3.204352 1_555
Na1 S10 2.783317 1_455
Na1 S6 2.783317 1_564
Na1 S7 2.929262 1_555
Na1 S1 2.929262 1_555
Na1 S15 3.007958 1_465
Na1 S9 3.007958 1_465
Na2 S7 2.834874 1_555
Na2 S8 2.915054 1_555
Na2 S5 3.005205 1_555
Na2 S11 3.029680 1_565
Na2 S9 3.097307 1_565
Na2 S4 3.364460 1_555
Na3 S13 2.834874 1_555
Na3 S9 2.915054 1_555
Na3 S14 3.005205 1_555
Na3 S10 3.029680 1_545
Na3 S8 3.097307 1_545
Na3 S15 3.364460 1_555
Na4 S7 2.801227 1_555
Na4 S15 2.862510 1_555
Na4 S3 2.891883 1_555
Na4 S14 2.975645 1_555
Na4 S2 3.025383 1_554
Na4 S5 3.204352 1_555
Na5 S3 2.783317 1_546
Na5 S11 2.783317 1_655
Na5 S12 2.929262 1_555
Na5 S13 2.929262 1_555
Na5 S8 3.007958 1_645
Na5 S4 3.007958 1_645
Na6 S12 2.834874 1_555
Na6 S15 2.915054 1_556
Na6 S2 3.005205 1_555
Na6 S6 3.029680 1_655
Na6 S4 3.097307 1_655
Na6 S9 3.364460 1_556
Na7 S1 2.834874 1_555
Na7 S4 2.915054 1_554
Na7 S0 3.005205 1_555
Na7 S3 3.029680 1_455
Na7 S15 3.097307 1_455
Na7 S8 3.364460 1_554
Na8 S1 2.801227 1_555
Na8 S9 2.862510 1_555
Na8 S11 2.891883 1_555
Na8 S2 2.975645 1_554
Na8 S14 3.025383 1_555
Na8 S0 3.204352 1_555
Na9 S12 2.801227 1_555
Na9 S8 2.862510 1_555
Na9 S10 2.891883 1_555
Na9 S0 2.975645 1_556
Na9 S5 3.025383 1_555
Na9 S2 3.204352 1_555
Li0 S13 2.420434 1_565
Li0 S2 2.446071 1_555
Li0 S10 2.455899 1_555
Li0 S4 2.508092 1_655
Li1 S12 2.420434 1_455
Li1 S14 2.446071 1_555
Li1 S6 2.455899 1_555
Li1 S8 2.508092 1_545
Li2 S1 2.420434 1_655
Li2 S5 2.446071 1_555
Li2 S3 2.455899 1_555
Li2 S9 2.508092 1_565
Li3 S3 2.510375 1_545
Li3 S6 2.510375 1_554
Li3 S13 2.902649 1_554
Li3 S7 2.902649 1_545
Li3 S0 2.914236 1_555
Li3 S2 2.914236 1_544
Li4 S11 2.510375 1_555
Li4 S10 2.510375 1_455
Li4 S1 2.902649 1_555
Li4 S12 2.902649 1_455
Li4 S14 2.914236 1_555
Li4 S5 2.914236 1_455
Li5 S7 2.420434 1_545
Li5 S0 2.446071 1_555
Li5 S11 2.455899 1_555
Li5 S15 2.508092 1_455
S0 Ti3 2.287740 1_555
S1 Ti2 2.253854 1_554
S2 Ti2 2.287740 1_555
S3 Ti3 2.274637 1_565
S4 Ti1 2.292073 1_555
S5 Ti0 2.287740 1_555
S6 Ti2 2.274637 1_545
S7 Ti1 2.253854 1_555
S8 Ti2 2.292073 1_555
S9 Ti3 2.292073 1_555
S10 Ti1 2.274637 1_655
S11 Ti0 2.274637 1_455
S12 Ti3 2.253854 1_556
S13 Ti0 2.253854 1_555
S14 Ti1 2.287740 1_555
S15 Ti0 2.292073 1_555
