# generated using pymatgen
data_Yb2Ag7
_symmetry_space_group_name_H-M   'P 1'
_cell_length_a   5.51268538
_cell_length_b   5.51268538
_cell_length_c   14.17867300
_cell_angle_alpha   90.00000000
_cell_angle_beta   90.00000000
_cell_angle_gamma   119.66941666
_symmetry_Int_Tables_number   1
_chemical_formula_structural   Yb2Ag7
_chemical_formula_sum   'Yb4 Ag14'
_cell_volume   374.39473042
_cell_formula_units_Z   2
loop_
 _symmetry_equiv_pos_site_id
 _symmetry_equiv_pos_as_xyz
  1  'x, y, z'
loop_
 _atom_site_type_symbol
 _atom_site_label
 _atom_site_symmetry_multiplicity
 _atom_site_fract_x
 _atom_site_fract_y
 _atom_site_fract_z
 _atom_site_occupancy
  Yb  Yb0  1  0.82093400  0.82093400  0.11551600  1
  Yb  Yb1  1  0.17906600  0.17906600  0.88448400  1
  Yb  Yb2  1  0.82093400  0.82093400  0.38448400  1
  Yb  Yb3  1  0.17906600  0.17906600  0.61551600  1
  Ag  Ag0  1  0.16396300  0.49071800  0.07579500  1
  Ag  Ag1  1  0.50928200  0.83603700  0.92420500  1
  Ag  Ag2  1  0.17033800  0.67281500  0.75000000  1
  Ag  Ag3  1  0.49071800  0.16396300  0.07579500  1
  Ag  Ag4  1  0.83603700  0.50928200  0.57579500  1
  Ag  Ag5  1  0.49071800  0.16396300  0.42420500  1
  Ag  Ag6  1  0.83603700  0.50928200  0.92420500  1
  Ag  Ag7  1  0.67281500  0.17033800  0.75000000  1
  Ag  Ag8  1  0.67043900  0.67043900  0.75000000  1
  Ag  Ag9  1  0.32718500  0.82966200  0.25000000  1
  Ag  Ag10  1  0.82966200  0.32718500  0.25000000  1
  Ag  Ag11  1  0.50928200  0.83603700  0.57579500  1
  Ag  Ag12  1  0.16396300  0.49071800  0.42420500  1
  Ag  Ag13  1  0.32956100  0.32956100  0.25000000  1
loop_
_geom_bond_atom_site_label_1
_geom_bond_atom_site_label_2
_geom_bond_distance
_geom_bond_site_symmetry_2
Ag0 Ag6 2.842759 1_454
Ag0 Ag1 2.877462 1_554
Ag0 Ag13 2.920003 1_555
Ag0 Ag10 2.943655 1_455
Ag0 Ag9 2.955899 1_555
Ag0 Ag3 3.114729 1_555
Ag0 Yb0 3.196977 1_555
Ag0 Ag3 3.225008 1_455
Ag0 Ag3 3.225008 1_565
Ag0 Yb1 3.233891 1_554
Ag0 Yb0 3.257905 1_445
Ag0 Yb0 3.258032 1_455
Ag1 Ag3 2.842759 1_566
Ag1 Ag8 2.920003 1_555
Ag1 Ag7 2.943655 1_565
Ag1 Ag2 2.955899 1_555
Ag1 Ag6 3.114729 1_555
Ag1 Yb1 3.196977 1_555
Ag1 Ag6 3.225008 1_565
Ag1 Ag6 3.225008 1_455
Ag1 Yb0 3.233891 1_556
Ag1 Yb1 3.257905 1_665
Ag1 Yb1 3.258032 1_565
Ag2 Ag8 2.749326 1_455
Ag2 Ag8 2.763406 1_555
Ag2 Ag7 2.770205 1_455
Ag2 Ag7 2.770205 1_565
Ag2 Ag6 2.943655 1_455
Ag2 Ag4 2.943655 1_455
Ag2 Yb3 3.343130 1_555
Ag2 Yb1 3.343130 1_555
Ag2 Yb3 3.360634 1_565
Ag2 Yb1 3.360634 1_565
Ag3 Ag6 2.877462 1_554
Ag3 Ag9 2.943655 1_545
Ag3 Yb0 3.196977 1_555
Ag3 Yb1 3.233891 1_554
Ag3 Yb0 3.257905 1_445
Ag3 Yb0 3.258032 1_545
Ag4 Ag5 2.877462 1_555
Ag4 Ag8 2.920003 1_555
Ag4 Ag7 2.955899 1_555
Ag4 Yb3 3.196977 1_555
Ag4 Yb2 3.233891 1_555
Ag4 Yb3 3.257905 1_665
Ag4 Yb3 3.258032 1_655
Ag5 Ag9 2.943655 1_545
Ag5 Yb2 3.196977 1_555
Ag5 Yb3 3.233891 1_555
Ag5 Yb2 3.257905 1_445
Ag5 Yb2 3.258032 1_545
Ag6 Ag8 2.920003 1_555
Ag6 Ag7 2.955899 1_555
Ag6 Yb1 3.196977 1_555
Ag6 Yb0 3.233891 1_556
Ag6 Yb1 3.257905 1_665
Ag6 Yb1 3.258032 1_655
Ag7 Ag8 2.749326 1_545
Ag7 Ag8 2.763406 1_555
Ag7 Yb3 3.343130 1_555
Ag7 Yb1 3.343130 1_555
Ag7 Yb3 3.360634 1_655
Ag7 Yb1 3.360634 1_655
Ag8 Yb1 3.323683 1_555
Ag8 Yb3 3.323683 1_555
Ag8 Yb3 3.402420 1_665
Ag8 Yb1 3.402420 1_665
Ag9 Yb2 3.343130 1_555
Ag9 Yb0 3.343130 1_555
Ag9 Yb2 3.360634 1_455
Ag9 Yb0 3.360634 1_455
Ag10 Ag13 2.749326 1_655
Ag10 Ag13 2.763406 1_555
Ag10 Ag9 2.770205 1_545
Ag10 Ag9 2.770205 1_655
Ag10 Ag12 2.943655 1_655
Ag10 Ag3 2.955899 1_555
Ag10 Ag5 2.955899 1_555
Ag10 Yb0 3.343130 1_555
Ag10 Yb2 3.343130 1_555
Ag10 Yb0 3.360634 1_545
Ag10 Yb2 3.360634 1_545
Ag11 Ag5 2.842759 1_565
Ag11 Ag12 2.877462 1_555
Ag11 Ag8 2.920003 1_555
Ag11 Ag7 2.943655 1_565
Ag11 Ag2 2.955899 1_555
Ag11 Ag4 3.114729 1_555
Ag11 Yb3 3.196977 1_555
Ag11 Ag4 3.225008 1_565
Ag11 Ag4 3.225008 1_455
Ag11 Yb2 3.233891 1_555
Ag11 Yb3 3.257905 1_665
Ag11 Yb3 3.258032 1_565
Ag12 Ag4 2.842759 1_455
Ag12 Ag13 2.920003 1_555
Ag12 Ag9 2.955899 1_555
Ag12 Ag5 3.114729 1_555
Ag12 Yb2 3.196977 1_555
Ag12 Ag5 3.225008 1_455
Ag12 Ag5 3.225008 1_565
Ag12 Yb3 3.233891 1_555
Ag12 Yb2 3.257905 1_445
Ag12 Yb2 3.258032 1_455
Ag13 Ag9 2.749326 1_545
Ag13 Ag9 2.763406 1_555
Ag13 Ag3 2.920003 1_555
Ag13 Ag5 2.920003 1_555
Ag13 Yb0 3.323683 1_555
Ag13 Yb2 3.323683 1_555
Ag13 Yb2 3.402420 1_445
Ag13 Yb0 3.402420 1_445
