# generated using pymatgen
data_AuS3(O3F)3
_symmetry_space_group_name_H-M   'P 1'
_cell_length_a   9.67534600
_cell_length_b   10.02400800
_cell_length_c   11.14127347
_cell_angle_alpha   85.86636548
_cell_angle_beta   90.00000000
_cell_angle_gamma   90.00000000
_symmetry_Int_Tables_number   1
_chemical_formula_structural   AuS3(O3F)3
_chemical_formula_sum   'Au4 S12 O36 F12'
_cell_volume   1077.73382915
_cell_formula_units_Z   4
loop_
 _symmetry_equiv_pos_site_id
 _symmetry_equiv_pos_as_xyz
  1  'x, y, z'
loop_
 _atom_site_type_symbol
 _atom_site_label
 _atom_site_symmetry_multiplicity
 _atom_site_fract_x
 _atom_site_fract_y
 _atom_site_fract_z
 _atom_site_occupancy
  Au  Au0  1  0.99630000  0.35065700  0.16987300  1
  Au  Au1  1  0.00370000  0.64934300  0.83012700  1
  Au  Au2  1  0.50370000  0.85065700  0.16987300  1
  Au  Au3  1  0.49630000  0.14934300  0.83012700  1
  S  S0  1  0.37928000  0.81121100  0.42487800  1
  S  S1  1  0.60083300  0.85107500  0.89019700  1
  S  S2  1  0.10083300  0.64892500  0.10980300  1
  S  S3  1  0.60829000  0.55235400  0.19126300  1
  S  S4  1  0.12072000  0.31121100  0.42487800  1
  S  S5  1  0.39171000  0.44764600  0.80873700  1
  S  S6  1  0.89916700  0.35107500  0.89019700  1
  S  S7  1  0.87928000  0.68878900  0.57512200  1
  S  S8  1  0.62072000  0.18878900  0.57512200  1
  S  S9  1  0.39916700  0.14892500  0.10980300  1
  S  S10  1  0.89171000  0.05235400  0.19126300  1
  S  S11  1  0.10829000  0.94764600  0.80873700  1
  O  O0  1  0.48870900  0.84586800  0.98279400  1
  O  O1  1  0.49024900  0.14240800  0.64928100  1
  O  O2  1  0.85304300  0.20225100  0.18327700  1
  O  O3  1  0.57595700  0.21029900  0.45323600  1
  O  O4  1  0.98870900  0.65413200  0.01720600  1
  O  O5  1  0.97355100  0.97399500  0.85313700  1
  O  O6  1  0.22798000  0.01681300  0.84797400  1
  O  O7  1  0.79891400  0.78372400  0.63439700  1
  O  O8  1  0.63707500  0.99204500  0.84714100  1
  O  O9  1  0.42404300  0.78970100  0.54676400  1
  O  O10  1  0.27202000  0.51681300  0.84797400  1
  O  O11  1  0.99024900  0.35759200  0.35071900  1
  O  O12  1  0.13707500  0.50795500  0.15285900  1
  O  O13  1  0.01129100  0.34586800  0.98279400  1
  O  O14  1  0.52644900  0.47399500  0.85313700  1
  O  O15  1  0.07595700  0.28970100  0.54676400  1
  O  O16  1  0.70108600  0.28372400  0.63439700  1
  O  O17  1  0.21929700  0.72991700  0.08731300  1
  O  O18  1  0.86292500  0.49204500  0.84714100  1
  O  O19  1  0.71929700  0.77008300  0.91268700  1
  O  O20  1  0.20108600  0.21627600  0.36560300  1
  O  O21  1  0.36292500  0.00795500  0.15285900  1
  O  O22  1  0.78070300  0.27008300  0.91268700  1
  O  O23  1  0.77202000  0.98318700  0.15202600  1
  O  O24  1  0.14695700  0.79774900  0.81672300  1
  O  O25  1  0.92404300  0.71029900  0.45323600  1
  O  O26  1  0.64695700  0.70225100  0.18327700  1
  O  O27  1  0.51129100  0.15413200  0.01720600  1
  O  O28  1  0.02644900  0.02600500  0.14686300  1
  O  O29  1  0.47355100  0.52600500  0.14686300  1
  O  O30  1  0.29891400  0.71627600  0.36560300  1
  O  O31  1  0.00975100  0.64240800  0.64928100  1
  O  O32  1  0.28070300  0.22991700  0.08731300  1
  O  O33  1  0.72798000  0.48318700  0.15202600  1
  O  O34  1  0.50975100  0.85759200  0.35071900  1
  O  O35  1  0.35304300  0.29774900  0.81672300  1
  F  F0  1  0.89780500  0.02085800  0.33314700  1
  F  F1  1  0.20889200  0.44527700  0.41819100  1
  F  F2  1  0.79110800  0.55472300  0.58180900  1
  F  F3  1  0.29110800  0.94527700  0.41819100  1
  F  F4  1  0.51713000  0.79872900  0.78319400  1
  F  F5  1  0.10219500  0.97914200  0.66685300  1
  F  F6  1  0.70889200  0.05472300  0.58180900  1
  F  F7  1  0.98287000  0.29872900  0.78319400  1
  F  F8  1  0.39780500  0.47914200  0.66685300  1
  F  F9  1  0.48287000  0.20127100  0.21680600  1
  F  F10  1  0.60219500  0.52085800  0.33314700  1
  F  F11  1  0.01713000  0.70127100  0.21680600  1
loop_
_geom_bond_atom_site_label_1
_geom_bond_atom_site_label_2
_geom_bond_distance
_geom_bond_site_symmetry_2
Au0 O11 2.021903 1_555
Au0 O2 2.030877 1_555
Au0 O12 2.081868 1_655
Au0 O13 2.093339 1_654
Au1 O31 2.021903 1_555
Au1 O24 2.030877 1_555
Au1 O18 2.081868 1_455
Au1 O4 2.093339 1_456
Au2 O34 2.021903 1_555
Au2 O26 2.030877 1_555
Au2 O21 2.081868 1_565
Au2 O0 2.093339 1_554
Au3 O1 2.021903 1_555
Au3 O35 2.030877 1_555
Au3 O8 2.081868 1_545
Au3 O27 2.093339 1_556
O0 S1 1.495371 1_555
O1 S8 1.561076 1_555
O2 S10 1.544771 1_555
O3 S8 1.426857 1_555
O4 S2 1.495371 1_655
O5 S11 1.425760 1_655
O6 S11 1.434073 1_545
O7 S7 1.427214 1_555
O8 S1 1.500717 1_555
O9 S0 1.426857 1_555
O10 S5 1.434073 1_555
O11 S4 1.561076 1_655
O12 S2 1.500717 1_555
O13 S6 1.495371 1_455
O14 S5 1.425760 1_555
O15 S4 1.426857 1_555
O16 S8 1.427214 1_555
O17 S2 1.416443 1_555
O18 S6 1.500717 1_555
O19 S1 1.416443 1_555
O20 S4 1.427214 1_555
O21 S9 1.500717 1_555
O22 S6 1.416443 1_555
O23 S10 1.434073 1_565
O24 S11 1.544771 1_555
O25 S7 1.426857 1_555
O26 S3 1.544771 1_555
O27 S9 1.495371 1_555
O28 S10 1.425760 1_455
O29 S3 1.425760 1_555
O30 S0 1.427214 1_555
O31 S7 1.561076 1_455
O32 S9 1.416443 1_555
O33 S3 1.434073 1_555
O34 S0 1.561076 1_555
O35 S5 1.544771 1_555
F0 S10 1.590608 1_555
F1 S4 1.588992 1_555
F2 S7 1.588992 1_555
F3 S0 1.588992 1_555
F4 S1 1.562881 1_555
F5 S11 1.590608 1_555
F6 S8 1.588992 1_555
F7 S6 1.562881 1_555
F8 S5 1.590608 1_555
F9 S9 1.562881 1_555
F10 S3 1.590608 1_555
F11 S2 1.562881 1_555
