# generated using pymatgen
data_CaH6C2O7
_symmetry_space_group_name_H-M   'P 1'
_cell_length_a   6.23017600
_cell_length_b   7.21848869
_cell_length_c   8.48109629
_cell_angle_alpha   75.04788500
_cell_angle_beta   69.90179098
_cell_angle_gamma   69.23114586
_symmetry_Int_Tables_number   1
_chemical_formula_structural   CaH6C2O7
_chemical_formula_sum   'Ca2 H12 C4 O14'
_cell_volume   330.86265019
_cell_formula_units_Z   2
loop_
 _symmetry_equiv_pos_site_id
 _symmetry_equiv_pos_as_xyz
  1  'x, y, z'
loop_
 _atom_site_type_symbol
 _atom_site_label
 _atom_site_symmetry_multiplicity
 _atom_site_fract_x
 _atom_site_fract_y
 _atom_site_fract_z
 _atom_site_occupancy
  Ca  Ca0  1  0.09982300  0.27184600  0.69406100  1
  Ca  Ca1  1  0.90017700  0.72815400  0.30593900  1
  H  H0  1  0.76033500  0.01255100  0.57496300  1
  H  H1  1  0.30764700  0.85503200  0.87284400  1
  H  H2  1  0.79723600  0.99571300  0.91818400  1
  H  H3  1  0.14603600  0.21760600  0.33897000  1
  H  H4  1  0.85396400  0.78239400  0.66103000  1
  H  H5  1  0.47755400  0.87720700  0.68627600  1
  H  H6  1  0.64246100  0.18797900  0.81962200  1
  H  H7  1  0.69235300  0.14496800  0.12715600  1
  H  H8  1  0.52244600  0.12279300  0.31372400  1
  H  H9  1  0.20276400  0.00428700  0.08181600  1
  H  H10  1  0.35753900  0.81202100  0.18037800  1
  H  H11  1  0.23966500  0.98744900  0.42503700  1
  C  C0  1  0.57972800  0.42708400  0.55718100  1
  C  C1  1  0.05643200  0.39933300  0.05199600  1
  C  C2  1  0.94356800  0.60066700  0.94800400  1
  C  C3  1  0.42027200  0.57291600  0.44281900  1
  O  O0  1  0.78828200  0.87313900  0.56543100  1
  O  O1  1  0.76400100  0.14447300  0.88323300  1
  O  O2  1  0.21171800  0.12686100  0.43456900  1
  O  O3  1  0.30755600  0.90815800  0.75355700  1
  O  O4  1  0.06133100  0.40912600  0.19781300  1
  O  O5  1  0.23451900  0.53414900  0.44974200  1
  O  O6  1  0.49082500  0.72169300  0.35053300  1
  O  O7  1  0.93866900  0.59087400  0.80218700  1
  O  O8  1  0.50917500  0.27830700  0.64946700  1
  O  O9  1  0.86639900  0.75597600  0.01729300  1
  O  O10  1  0.76548100  0.46585100  0.55025800  1
  O  O11  1  0.13360100  0.24402400  0.98270700  1
  O  O12  1  0.23599900  0.85552700  0.11676700  1
  O  O13  1  0.69244400  0.09184200  0.24644300  1
loop_
_geom_bond_atom_site_label_1
_geom_bond_atom_site_label_2
_geom_bond_distance
_geom_bond_site_symmetry_2
Ca0 O7 2.443266 1_455
Ca0 O2 2.457931 1_555
Ca0 O8 2.462068 1_555
Ca0 O1 2.468392 1_455
Ca0 O11 2.479491 1_555
Ca0 O3 2.485419 1_545
Ca0 O5 2.547576 1_555
Ca0 O10 2.565806 1_455
Ca1 O4 2.443266 1_655
Ca1 O0 2.457931 1_555
Ca1 O6 2.462068 1_555
Ca1 O12 2.468392 1_655
Ca1 O9 2.479491 1_555
Ca1 O13 2.485419 1_565
Ca1 O10 2.547576 1_555
Ca1 O5 2.565806 1_655
H0 O0 0.978581 1_545
H1 O3 0.985195 1_555
H2 O1 1.002036 1_565
H2 O9 1.690100 1_556
H3 O2 1.008844 1_555
H3 O4 1.638810 1_555
H4 O0 1.008844 1_555
H4 O7 1.638810 1_555
H5 O3 0.989886 1_555
H6 O1 0.993846 1_555
H7 O13 0.985195 1_555
H8 O13 0.989886 1_555
H9 O12 1.002036 1_545
H9 O11 1.690100 1_554
H10 O12 0.993846 1_555
H11 O2 0.978581 1_565
C0 O10 1.263146 1_555
C0 O8 1.274268 1_555
C1 O11 1.263672 1_554
C1 O4 1.268034 1_555
C2 O9 1.263672 1_556
C2 O7 1.268034 1_555
C3 O5 1.263146 1_555
C3 O6 1.274268 1_555
