# generated using pymatgen
data_Ta6Co16Si7
_symmetry_space_group_name_H-M   'P 1'
_cell_length_a   7.82742959
_cell_length_b   7.82744642
_cell_length_c   7.82741321
_cell_angle_alpha   59.99976129
_cell_angle_beta   59.99959153
_cell_angle_gamma   59.99964263
_symmetry_Int_Tables_number   1
_chemical_formula_structural   Ta6Co16Si7
_chemical_formula_sum   'Ta6 Co16 Si7'
_cell_volume   339.10893980
_cell_formula_units_Z   1
loop_
 _symmetry_equiv_pos_site_id
 _symmetry_equiv_pos_as_xyz
  1  'x, y, z'
loop_
 _atom_site_type_symbol
 _atom_site_label
 _atom_site_symmetry_multiplicity
 _atom_site_fract_x
 _atom_site_fract_y
 _atom_site_fract_z
 _atom_site_occupancy
  Ta  Ta0  1  0.20299742  0.79700990  0.79699374  1
  Ta  Ta1  1  0.20299790  0.79700098  0.20299991  1
  Ta  Ta2  1  0.79699367  0.20299863  0.20299825  1
  Ta  Ta3  1  0.79700698  0.20299873  0.79699656  1
  Ta  Ta4  1  0.79699937  0.79700392  0.20300402  1
  Ta  Ta5  1  0.20300200  0.20299566  0.79698768  1
  Co  Co0  1  0.38143953  0.38143374  0.38145280  1
  Co  Co1  1  0.49979100  0.83340531  0.83338606  1
  Co  Co2  1  0.61853265  0.61853533  0.14438534  1
  Co  Co3  1  0.16661559  0.16660843  0.50018022  1
  Co  Co4  1  0.83339520  0.83340161  0.49978902  1
  Co  Co5  1  0.16660753  0.16660002  0.16662114  1
  Co  Co6  1  0.83340435  0.83341059  0.83339131  1
  Co  Co7  1  0.38145543  0.38144991  0.85565802  1
  Co  Co8  1  0.83340098  0.49979129  0.83338805  1
  Co  Co9  1  0.61854727  0.61854976  0.61853590  1
  Co  Co10  1  0.38144566  0.85566817  0.38145906  1
  Co  Co11  1  0.14437740  0.61854133  0.61852779  1
  Co  Co12  1  0.61854119  0.14437322  0.61853003  1
  Co  Co13  1  0.16661095  0.50017404  0.16662459  1
  Co  Co14  1  0.85566401  0.38144333  0.38146212  1
  Co  Co15  1  0.50017555  0.16660548  0.16662652  1
  Si  Si0  1  0.00001092  0.00000822  0.49999093  1
  Si  Si1  1  0.49998854  0.00001148  0.49998927  1
  Si  Si2  1  0.49999994  0.50000008  0.50000029  1
  Si  Si3  1  0.00000749  0.49999227  0.00000919  1
  Si  Si4  1  0.49998983  0.49999023  0.00001250  1
  Si  Si5  1  0.49999063  0.00000728  0.00001204  1
  Si  Si6  1  0.00001102  0.49999007  0.49999066  1
loop_
_geom_bond_atom_site_label_1
_geom_bond_atom_site_label_2
_geom_bond_distance
_geom_bond_site_symmetry_2
Co0 Si2 2.273145 1_555
Co0 Si1 2.440479 1_555
Co0 Si6 2.440508 1_555
Co0 Si4 2.440579 1_555
Co0 Co3 2.494166 1_555
Co0 Co15 2.494173 1_555
Co0 Co13 2.494179 1_555
Co0 Co12 2.624492 1_555
Co0 Co11 2.624509 1_555
Co0 Co2 2.624584 1_555
Co0 Ta5 2.710299 1_555
Co0 Ta2 2.710421 1_555
Co0 Ta1 2.710509 1_555
Co1 Si1 2.259558 1_565
Co1 Si4 2.259689 1_556
Co1 Si5 2.259775 1_566
Co1 Co9 2.494456 1_555
Co1 Co12 2.494553 1_565
Co1 Co2 2.494713 1_556
Co1 Co4 2.611217 1_555
Co1 Co8 2.611313 1_555
Co1 Co6 2.611376 1_555
Co1 Ta0 2.638937 1_555
Co1 Ta5 2.638953 1_565
Co1 Ta1 2.639067 1_556
Co2 Si2 2.272746 1_555
Co2 Si4 2.440741 1_555
Co2 Si5 2.440802 1_565
Co2 Si3 2.440811 1_655
Co2 Co8 2.494704 1_554
Co2 Co6 2.494724 1_554
Co2 Ta1 2.710364 1_555
Co2 Ta2 2.710388 1_555
Co2 Ta4 2.710507 1_555
Co3 Si1 2.259414 1_555
Co3 Si6 2.259480 1_555
Co3 Si0 2.259576 1_555
Co3 Co5 2.610969 1_555
Co3 Ta5 2.638973 1_555
Co3 Ta0 2.639068 1_545
Co3 Ta3 2.639113 1_455
Co4 Si1 2.259621 1_565
Co4 Si6 2.259656 1_655
Co4 Si0 2.259751 1_665
Co4 Co9 2.494446 1_555
Co4 Co8 2.611258 1_555
Co4 Co6 2.611314 1_555
Co4 Ta4 2.638893 1_555
Co4 Ta2 2.638992 1_565
Co4 Ta1 2.639003 1_655
Co5 Si0 2.259409 1_555
Co5 Si5 2.259498 1_555
Co5 Si3 2.259570 1_555
Co5 Co7 2.494449 1_554
Co5 Ta1 2.639131 1_545
Co5 Ta2 2.639219 1_455
Co5 Ta5 2.639321 1_554
Co6 Si0 2.259583 1_665
Co6 Si5 2.259671 1_566
Co6 Si3 2.259708 1_656
Co6 Co8 2.611413 1_555
Co6 Ta3 2.638977 1_565
Co6 Ta0 2.638990 1_655
Co6 Ta4 2.639096 1_556
Co7 Si2 2.273019 1_555
Co7 Si4 2.440537 1_556
Co7 Si5 2.440612 1_556
Co7 Si3 2.440634 1_556
Co7 Co9 2.624567 1_555
Co7 Ta3 2.710414 1_555
Co7 Ta0 2.710474 1_555
Co7 Ta5 2.710599 1_555
Co8 Si6 2.259556 1_655
Co8 Si4 2.259653 1_556
Co8 Si3 2.259779 1_656
Co8 Co9 2.494453 1_555
Co8 Ta3 2.638923 1_555
Co8 Ta5 2.639020 1_655
Co8 Ta2 2.639056 1_556
Co9 Si2 2.272879 1_555
Co9 Si1 2.440733 1_565
Co9 Si6 2.440737 1_655
Co9 Si4 2.440816 1_556
Co9 Ta4 2.710325 1_555
Co9 Ta0 2.710437 1_555
Co9 Ta3 2.710457 1_555
Co10 Si2 2.273096 1_555
Co10 Si1 2.440454 1_565
Co10 Si0 2.440548 1_565
Co10 Si5 2.440623 1_565
Co10 Co3 2.494250 1_565
Co10 Co15 2.494272 1_565
Co10 Co5 2.494288 1_565
Co10 Co9 2.624490 1_555
Co10 Co11 2.624586 1_555
Co10 Co2 2.624642 1_555
Co10 Ta0 2.710299 1_555
Co10 Ta4 2.710423 1_555
Co10 Ta1 2.710573 1_555
Co11 Si2 2.272797 1_555
Co11 Si6 2.440702 1_555
Co11 Si0 2.440768 1_565
Co11 Si3 2.440848 1_556
Co11 Co4 2.494592 1_455
Co11 Co8 2.494601 1_455
Co11 Co6 2.494611 1_455
Co11 Co7 2.624655 1_555
Co11 Ta1 2.710307 1_555
Co11 Ta5 2.710434 1_555
Co11 Ta0 2.710507 1_555
Co12 Si2 2.272833 1_555
Co12 Si1 2.440703 1_555
Co12 Si0 2.440776 1_655
Co12 Si5 2.440851 1_556
Co12 Co4 2.494533 1_545
Co12 Co6 2.494559 1_545
Co12 Co14 2.624574 1_555
Co12 Co7 2.624631 1_555
Co12 Ta2 2.710324 1_555
Co12 Ta5 2.710382 1_555
Co12 Ta3 2.710521 1_555
Co13 Si6 2.259377 1_555
Co13 Si4 2.259469 1_555
Co13 Si3 2.259632 1_555
Co13 Co14 2.494332 1_455
Co13 Co7 2.494424 1_554
Co13 Co3 2.610913 1_555
Co13 Co15 2.610958 1_555
Co13 Co5 2.611060 1_555
Co13 Ta1 2.639079 1_555
Co13 Ta4 2.639174 1_455
Co13 Ta0 2.639284 1_554
Co14 Si2 2.273062 1_555
Co14 Si6 2.440491 1_655
Co14 Si0 2.440562 1_655
Co14 Si3 2.440661 1_655
Co14 Co3 2.494310 1_655
Co14 Co5 2.494342 1_655
Co14 Co9 2.624496 1_555
Co14 Co2 2.624654 1_555
Co14 Ta3 2.710302 1_555
Co14 Ta4 2.710480 1_555
Co14 Ta2 2.710602 1_555
Co15 Si1 2.259351 1_555
Co15 Si4 2.259513 1_555
Co15 Si5 2.259605 1_555
Co15 Co7 2.494426 1_554
Co15 Co3 2.610874 1_555
Co15 Co5 2.611023 1_555
Co15 Ta2 2.639019 1_555
Co15 Ta4 2.639111 1_545
Co15 Ta3 2.639259 1_554
Si0 Ta0 2.815836 1_545
Si0 Ta3 2.815866 1_455
Si0 Ta1 2.815880 1_545
Si0 Ta2 2.815946 1_455
Si1 Ta5 2.815787 1_555
Si1 Ta4 2.815844 1_545
Si1 Ta2 2.815849 1_555
Si1 Ta0 2.815850 1_545
Si3 Ta4 2.815928 1_455
Si3 Ta0 2.815940 1_554
Si3 Ta2 2.815942 1_455
Si3 Ta5 2.815990 1_554
Si4 Ta2 2.815836 1_555
Si4 Ta1 2.815878 1_555
Si4 Ta3 2.815925 1_554
Si4 Ta0 2.815949 1_554
Si5 Ta1 2.815894 1_545
Si5 Ta4 2.815900 1_545
Si5 Ta3 2.815937 1_554
Si5 Ta5 2.815961 1_554
Si6 Ta5 2.815825 1_555
Si6 Ta3 2.815867 1_455
Si6 Ta4 2.815880 1_455
Si6 Ta1 2.815882 1_555
