# generated using pymatgen
data_Cu3SbS4
_symmetry_space_group_name_H-M   'P 1'
_cell_length_a   5.36543423
_cell_length_b   5.36543340
_cell_length_c   6.57445597
_cell_angle_alpha   114.08575390
_cell_angle_beta   114.08574476
_cell_angle_gamma   89.99786591
_symmetry_Int_Tables_number   1
_chemical_formula_structural   Cu3SbS4
_chemical_formula_sum   'Cu3 Sb1 S4'
_cell_volume   154.56279073
_cell_formula_units_Z   1
loop_
 _symmetry_equiv_pos_site_id
 _symmetry_equiv_pos_as_xyz
  1  'x, y, z'
loop_
 _atom_site_type_symbol
 _atom_site_label
 _atom_site_symmetry_multiplicity
 _atom_site_fract_x
 _atom_site_fract_y
 _atom_site_fract_z
 _atom_site_occupancy
  Cu  Cu0  1  0.74993843  0.25000424  0.49994209  1
  Cu  Cu1  1  0.25000423  0.74993845  0.49994203  1
  Cu  Cu2  1  0.49997700  0.49997693  -0.00004946  1
  Sb  Sb0  1  0.00003866  0.00003869  0.00002030  1
  S  S0  1  0.13024889  0.13024898  0.73691551  1
  S  S1  1  0.39340600  0.86975406  0.26316493  1
  S  S2  1  0.86975405  0.39340591  0.26316496  1
  S  S3  1  0.60663374  0.60663373  0.73689964  1
loop_
_geom_bond_atom_site_label_1
_geom_bond_atom_site_label_2
_geom_bond_distance
_geom_bond_site_symmetry_2
Cu0 S1 2.285300 1_545
Cu0 S2 2.285379 1_555
Cu0 S3 2.285613 1_555
Cu0 S0 2.286061 1_655
Cu1 S2 2.285300 1_455
Cu1 S1 2.285379 1_555
Cu1 S3 2.285614 1_555
Cu1 S0 2.286061 1_565
Cu2 S0 2.293756 1_554
Cu2 S3 2.293780 1_554
Cu2 S1 2.294148 1_555
Cu2 S2 2.294149 1_555
S0 Sb0 2.437429 1_556
S1 Sb0 2.437811 1_565
S2 Sb0 2.437811 1_655
S3 Sb0 2.437839 1_666
