# generated using pymatgen
data_GdH3
_symmetry_space_group_name_H-M   'P 1'
_cell_length_a   6.43081116
_cell_length_b   6.43080887
_cell_length_c   6.69282354
_cell_angle_alpha   90.00000000
_cell_angle_beta   90.00000000
_cell_angle_gamma   120.00000645
_symmetry_Int_Tables_number   1
_chemical_formula_structural   GdH3
_chemical_formula_sum   'Gd6 H18'
_cell_volume   239.70182300
_cell_formula_units_Z   6
loop_
 _symmetry_equiv_pos_site_id
 _symmetry_equiv_pos_as_xyz
  1  'x, y, z'
loop_
 _atom_site_type_symbol
 _atom_site_label
 _atom_site_symmetry_multiplicity
 _atom_site_fract_x
 _atom_site_fract_y
 _atom_site_fract_z
 _atom_site_occupancy
  Gd  Gd0  1  0.33644477  1.00000000  0.25000000  1
  Gd  Gd1  1  0.00000000  0.33644477  0.25000000  1
  Gd  Gd2  1  0.66355523  0.66355523  0.25000000  1
  Gd  Gd3  1  0.66355523  0.00000000  0.75000000  1
  Gd  Gd4  1  1.00000000  0.66355523  0.75000000  1
  Gd  Gd5  1  0.33644477  0.33644477  0.75000000  1
  H  H0  1  -0.00000000  -0.00000000  0.25000000  1
  H  H1  1  -0.00000000  -0.00000000  0.75000000  1
  H  H2  1  0.33333300  0.66666700  0.18818800  1
  H  H3  1  0.66666700  0.33333300  0.31181200  1
  H  H4  1  0.66666700  0.33333300  0.81181200  1
  H  H5  1  0.33333300  0.66666700  0.68818800  1
  H  H6  1  0.34908684  0.32177633  0.09179520  1
  H  H7  1  0.67822367  0.02730951  0.09179520  1
  H  H8  1  0.97269049  0.65091316  0.09179520  1
  H  H9  1  0.02730951  0.67822367  0.40820480  1
  H  H10  1  0.65091316  0.97269049  0.40820480  1
  H  H11  1  0.32177633  0.34908684  0.40820480  1
  H  H12  1  0.65091316  0.67822367  0.90820480  1
  H  H13  1  0.32177633  0.97269049  0.90820480  1
  H  H14  1  0.02730951  0.34908684  0.90820480  1
  H  H15  1  0.97269049  0.32177633  0.59179520  1
  H  H16  1  0.34908684  0.02730951  0.59179520  1
  H  H17  1  0.67822367  0.65091316  0.59179520  1
loop_
_geom_bond_atom_site_label_1
_geom_bond_atom_site_label_2
_geom_bond_distance
_geom_bond_site_symmetry_2
Gd0 H0 2.163613 1_565
Gd0 H2 2.173401 1_555
Gd0 H3 2.173405 1_565
Gd0 H6 2.289420 1_565
Gd0 H9 2.289423 1_555
Gd0 H16 2.292635 1_565
Gd0 H13 2.292635 1_554
Gd0 H10 2.365752 1_555
Gd0 H7 2.365757 1_565
Gd0 H8 2.526144 1_455
Gd0 H11 2.526147 1_565
Gd1 H0 2.163612 1_555
Gd1 H3 2.173402 1_455
Gd1 H2 2.173405 1_555
Gd1 H11 2.289420 1_555
Gd1 H7 2.289423 1_455
Gd1 H14 2.292635 1_554
Gd1 H15 2.292635 1_455
Gd1 H8 2.365751 1_455
Gd1 H9 2.365757 1_555
Gd1 H10 2.526144 1_445
Gd1 H6 2.526148 1_555
Gd2 H0 2.163612 1_665
Gd2 H3 2.173408 1_555
Gd2 H2 2.173409 1_555
Gd2 H10 2.289426 1_555
Gd2 H8 2.289426 1_555
Gd2 H12 2.292635 1_554
Gd2 H17 2.292635 1_555
Gd2 H6 2.365754 1_555
Gd2 H11 2.365754 1_555
Gd2 H7 2.526141 1_565
Gd2 H9 2.526142 1_655
Gd3 H1 2.163613 1_655
Gd3 H4 2.173401 1_555
Gd3 H5 2.173405 1_545
Gd3 H12 2.289420 1_545
Gd3 H15 2.289423 1_555
Gd3 H10 2.292635 1_545
Gd3 H7 2.292635 1_556
Gd3 H16 2.365752 1_555
Gd3 H13 2.365757 1_545
Gd3 H14 2.526144 1_655
Gd3 H17 2.526147 1_545
Gd4 H1 2.163612 1_665
Gd4 H5 2.173402 1_655
Gd4 H4 2.173405 1_555
Gd4 H17 2.289420 1_555
Gd4 H13 2.289423 1_655
Gd4 H8 2.292635 1_556
Gd4 H9 2.292635 1_655
Gd4 H14 2.365751 1_655
Gd4 H15 2.365757 1_555
Gd4 H16 2.526144 1_665
Gd4 H12 2.526148 1_555
Gd5 H1 2.163612 1_555
Gd5 H5 2.173408 1_555
Gd5 H4 2.173409 1_555
Gd5 H16 2.289426 1_555
Gd5 H14 2.289426 1_555
Gd5 H6 2.292635 1_556
Gd5 H11 2.292635 1_555
Gd5 H12 2.365754 1_555
Gd5 H17 2.365754 1_555
Gd5 H13 2.526141 1_545
Gd5 H15 2.526142 1_455
