# generated using pymatgen
data_KCrCuF6
_symmetry_space_group_name_H-M   'P 1'
_cell_length_a   10.18761800
_cell_length_b   6.84503700
_cell_length_c   7.42913205
_cell_angle_alpha   85.87866651
_cell_angle_beta   90.00000000
_cell_angle_gamma   90.00000000
_symmetry_Int_Tables_number   1
_chemical_formula_structural   KCrCuF6
_chemical_formula_sum   'K4 Cr4 Cu4 F24'
_cell_volume   516.72804111
_cell_formula_units_Z   4
loop_
 _symmetry_equiv_pos_site_id
 _symmetry_equiv_pos_as_xyz
  1  'x, y, z'
loop_
 _atom_site_type_symbol
 _atom_site_label
 _atom_site_symmetry_multiplicity
 _atom_site_fract_x
 _atom_site_fract_y
 _atom_site_fract_z
 _atom_site_occupancy
  K  K0  1  0.11529900  0.50186700  0.24269600  1
  K  K1  1  0.61529900  0.99813300  0.75730400  1
  K  K2  1  0.88470100  0.49813300  0.75730400  1
  K  K3  1  0.38470100  0.00186700  0.24269600  1
  Cr  Cr0  1  0.00000000  0.00000000  0.50000000  1
  Cr  Cr1  1  0.50000000  0.50000000  0.50000000  1
  Cr  Cr2  1  0.00000000  0.00000000  0.00000000  1
  Cr  Cr3  1  0.50000000  0.50000000  0.00000000  1
  Cu  Cu0  1  0.73276300  0.18124100  0.25497800  1
  Cu  Cu1  1  0.23276300  0.31875900  0.74502200  1
  Cu  Cu2  1  0.26723700  0.81875900  0.74502200  1
  Cu  Cu3  1  0.76723700  0.68124100  0.25497800  1
  F  F0  1  0.83497900  0.13520000  0.97316300  1
  F  F1  1  0.33497900  0.36480000  0.02683700  1
  F  F2  1  0.16502100  0.86480000  0.02683700  1
  F  F3  1  0.66502100  0.63520000  0.97316300  1
  F  F4  1  0.18051600  0.90077100  0.51197000  1
  F  F5  1  0.68051600  0.59922900  0.48803000  1
  F  F6  1  0.81948400  0.09922900  0.48803000  1
  F  F7  1  0.31948400  0.40077100  0.51197000  1
  F  F8  1  0.66952700  0.92000700  0.24413700  1
  F  F9  1  0.16952700  0.57999300  0.75586300  1
  F  F10  1  0.33047300  0.07999300  0.75586300  1
  F  F11  1  0.83047300  0.42000700  0.24413700  1
  F  F12  1  0.97743200  0.91328500  0.75504600  1
  F  F13  1  0.47743200  0.58671500  0.24495400  1
  F  F14  1  0.02256800  0.08671500  0.24495400  1
  F  F15  1  0.52256800  0.41328500  0.75504600  1
  F  F16  1  0.91061600  0.75559700  0.07708600  1
  F  F17  1  0.41061600  0.74440300  0.92291400  1
  F  F18  1  0.08938400  0.24440300  0.92291400  1
  F  F19  1  0.58938400  0.25559700  0.07708600  1
  F  F20  1  0.44171100  0.75659100  0.55403300  1
  F  F21  1  0.94171100  0.74340900  0.44596700  1
  F  F22  1  0.55828900  0.24340900  0.44596700  1
  F  F23  1  0.05828900  0.25659100  0.55403300  1
loop_
_geom_bond_atom_site_label_1
_geom_bond_atom_site_label_2
_geom_bond_distance
_geom_bond_site_symmetry_2
Cr0 F23 1.923528 1_555
Cr0 F21 1.923528 1_445
Cr0 F12 1.957978 1_445
Cr0 F14 1.957978 1_555
Cr0 F4 1.960255 1_545
Cr0 F6 1.960255 1_455
Cr1 F22 1.923528 1_555
Cr1 F20 1.923528 1_555
Cr1 F15 1.957978 1_555
Cr1 F13 1.957978 1_555
Cr1 F7 1.960255 1_555
Cr1 F5 1.960255 1_555
Cr2 F2 1.922504 1_545
Cr2 F0 1.922504 1_454
Cr2 F18 1.954026 1_554
Cr2 F16 1.954026 1_445
Cr2 F14 1.967765 1_555
Cr2 F12 1.967765 1_444
Cr3 F3 1.922504 1_554
Cr3 F1 1.922504 1_555
Cr3 F17 1.954026 1_554
Cr3 F19 1.954026 1_555
Cr3 F13 1.967765 1_555
Cr3 F15 1.967765 1_554
Cu0 F8 1.907804 1_545
Cu0 F11 1.910390 1_555
Cu0 F6 1.988374 1_555
Cu0 F19 2.010613 1_555
Cu0 F22 2.332492 1_555
Cu0 F0 2.379470 1_554
Cu1 F9 1.907804 1_555
Cu1 F10 1.910390 1_555
Cu1 F7 1.988374 1_555
Cu1 F18 2.010613 1_555
Cu1 F23 2.332492 1_555
Cu1 F1 2.379470 1_556
Cu2 F10 1.907804 1_565
Cu2 F9 1.910390 1_555
Cu2 F4 1.988374 1_555
Cu2 F17 2.010613 1_555
Cu2 F20 2.332492 1_555
Cu2 F2 2.379470 1_556
Cu3 F11 1.907804 1_555
Cu3 F8 1.910390 1_555
Cu3 F5 1.988374 1_555
Cu3 F16 2.010613 1_555
Cu3 F21 2.332492 1_555
Cu3 F3 2.379470 1_554
F0 K2 2.902986 1_555
F0 K1 2.945663 1_545
F1 K3 2.902986 1_555
F1 K0 2.945663 1_555
F2 K0 2.902986 1_555
F2 K3 2.945663 1_565
F3 K1 2.902986 1_555
F3 K2 2.945663 1_555
F4 K3 2.934082 1_565
F5 K2 2.934082 1_555
F6 K1 2.934082 1_545
F7 K0 2.934082 1_555
F8 K3 2.955179 1_565
F9 K2 2.955179 1_455
F10 K1 2.955179 1_545
F11 K0 2.955179 1_655
F12 K2 2.993549 1_555
F13 K3 2.993549 1_565
F14 K0 2.993549 1_555
F15 K1 2.993549 1_545
F16 K0 2.927666 1_655
F16 K2 3.069422 1_554
F17 K1 2.927666 1_555
F17 K3 3.069422 1_566
F18 K2 2.927666 1_455
F18 K0 3.069422 1_556
F19 K3 2.927666 1_555
F19 K1 3.069422 1_544
F20 K3 2.819173 1_565
F20 K1 2.915542 1_555
F21 K2 2.819173 1_555
F21 K0 2.915542 1_655
F22 K1 2.819173 1_545
F22 K3 2.915542 1_555
F23 K0 2.819173 1_555
F23 K2 2.915542 1_455
