# generated using pymatgen
data_Cr(MoS2)2
_symmetry_space_group_name_H-M   'P 1'
_cell_length_a   6.84879029
_cell_length_b   6.84879029
_cell_length_c   12.99364439
_cell_angle_alpha   68.82013888
_cell_angle_beta   68.82013888
_cell_angle_gamma   57.55802012
_symmetry_Int_Tables_number   1
_chemical_formula_structural   Cr(MoS2)2
_chemical_formula_sum   'Cr4 Mo8 S16'
_cell_volume   468.62782851
_cell_formula_units_Z   4
loop_
 _symmetry_equiv_pos_site_id
 _symmetry_equiv_pos_as_xyz
  1  'x, y, z'
loop_
 _atom_site_type_symbol
 _atom_site_label
 _atom_site_symmetry_multiplicity
 _atom_site_fract_x
 _atom_site_fract_y
 _atom_site_fract_z
 _atom_site_occupancy
  Cr  Cr0  1  0.86446000  0.61715000  0.25195200  1
  Cr  Cr1  1  0.61715000  0.86446000  0.75195200  1
  Cr  Cr2  1  0.13554000  0.38285000  0.74804800  1
  Cr  Cr3  1  0.38285000  0.13554000  0.24804800  1
  Mo  Mo0  1  0.20079100  0.99595300  0.50614500  1
  Mo  Mo1  1  0.99595300  0.20079100  0.00614500  1
  Mo  Mo2  1  0.79920900  0.00404700  0.49385500  1
  Mo  Mo3  1  0.00404700  0.79920900  0.99385500  1
  Mo  Mo4  1  0.26344200  0.55713700  0.49211700  1
  Mo  Mo5  1  0.55713700  0.26344200  0.99211700  1
  Mo  Mo6  1  0.73655800  0.44286300  0.50788300  1
  Mo  Mo7  1  0.44286300  0.73655800  0.00788300  1
  S  S0  1  0.15727900  0.91463300  0.35258800  1
  S  S1  1  0.91463300  0.15727900  0.85258800  1
  S  S2  1  0.84272100  0.08536700  0.64741200  1
  S  S3  1  0.08536700  0.84272100  0.14741200  1
  S  S4  1  0.37025500  0.12625900  0.60516500  1
  S  S5  1  0.12625900  0.37025500  0.10516500  1
  S  S6  1  0.62974500  0.87374100  0.39483500  1
  S  S7  1  0.87374100  0.62974500  0.89483500  1
  S  S8  1  0.87004200  0.60254800  0.61277200  1
  S  S9  1  0.60254800  0.87004200  0.11277200  1
  S  S10  1  0.12995800  0.39745200  0.38722800  1
  S  S11  1  0.39745200  0.12995800  0.88722800  1
  S  S12  1  0.64729400  0.38427500  0.36455600  1
  S  S13  1  0.38427500  0.64729400  0.86455600  1
  S  S14  1  0.35270600  0.61572500  0.63544400  1
  S  S15  1  0.61572500  0.35270600  0.13544400  1
loop_
_geom_bond_atom_site_label_1
_geom_bond_atom_site_label_2
_geom_bond_distance
_geom_bond_site_symmetry_2
Cr0 S3 2.455022 1_655
Cr0 S10 2.474464 1_655
Cr0 S12 2.486564 1_555
Cr0 S9 2.497085 1_555
Cr0 S6 2.507854 1_555
Cr0 S5 2.513640 1_655
Cr1 S2 2.455022 1_565
Cr1 S11 2.474464 1_565
Cr1 S13 2.486564 1_555
Cr1 S8 2.497085 1_555
Cr1 S7 2.507854 1_555
Cr1 S4 2.513640 1_565
Cr2 S1 2.455022 1_455
Cr2 S8 2.474464 1_455
Cr2 S14 2.486564 1_555
Cr2 S11 2.497085 1_555
Cr2 S4 2.507854 1_555
Cr2 S7 2.513640 1_455
Cr3 S0 2.455022 1_545
Cr3 S9 2.474464 1_545
Cr3 S15 2.486564 1_555
Cr3 S10 2.497085 1_555
Cr3 S5 2.507854 1_555
Cr3 S6 2.513640 1_545
Mo0 S2 2.388854 1_465
Mo0 S0 2.406404 1_555
Mo0 S14 2.425136 1_555
Mo0 S10 2.494878 1_565
Mo0 S6 2.566987 1_555
Mo0 S4 2.611312 1_565
Mo1 S3 2.388854 1_645
Mo1 S1 2.406404 1_554
Mo1 S15 2.425136 1_555
Mo1 S11 2.494878 1_654
Mo1 S7 2.566987 1_554
Mo1 S5 2.611312 1_655
Mo2 S0 2.388854 1_645
Mo2 S2 2.406404 1_555
Mo2 S12 2.425136 1_555
Mo2 S8 2.494878 1_545
Mo2 S4 2.566987 1_555
Mo2 S6 2.611312 1_545
Mo3 S1 2.388854 1_465
Mo3 S3 2.406404 1_556
Mo3 S13 2.425136 1_555
Mo3 S9 2.494878 1_456
Mo3 S5 2.566987 1_556
Mo3 S7 2.611312 1_455
Mo4 S14 2.372538 1_555
Mo4 S0 2.375988 1_555
Mo4 S12 2.447482 1_555
Mo4 S8 2.492978 1_455
Mo4 S4 2.594088 1_555
Mo4 S10 2.634268 1_555
Mo5 S15 2.372538 1_556
Mo5 S1 2.375988 1_555
Mo5 S13 2.447482 1_555
Mo5 S9 2.492978 1_546
Mo5 S5 2.594088 1_556
Mo5 S11 2.634268 1_555
Mo6 S12 2.372538 1_555
Mo6 S2 2.375988 1_555
Mo6 S14 2.447482 1_555
Mo6 S10 2.492978 1_655
Mo6 S6 2.594088 1_555
Mo6 S8 2.634268 1_555
Mo7 S13 2.372538 1_554
Mo7 S3 2.375988 1_555
Mo7 S15 2.447482 1_555
Mo7 S11 2.492978 1_564
Mo7 S7 2.594088 1_554
Mo7 S9 2.634268 1_555
