# generated using pymatgen
data_V4As3
_symmetry_space_group_name_H-M   'P 1'
_cell_length_a   7.05459169
_cell_length_b   7.05459169
_cell_length_c   18.02025200
_cell_angle_alpha   90.00000000
_cell_angle_beta   90.00000000
_cell_angle_gamma   152.15963274
_symmetry_Int_Tables_number   1
_chemical_formula_structural   V4As3
_chemical_formula_sum   'V16 As12'
_cell_volume   418.82304603
_cell_formula_units_Z   4
loop_
 _symmetry_equiv_pos_site_id
 _symmetry_equiv_pos_as_xyz
  1  'x, y, z'
loop_
 _atom_site_type_symbol
 _atom_site_label
 _atom_site_symmetry_multiplicity
 _atom_site_fract_x
 _atom_site_fract_y
 _atom_site_fract_z
 _atom_site_occupancy
  V  V0  1  0.00000000  0.00000000  0.00000000  1
  V  V1  1  0.00000000  0.00000000  0.50000000  1
  V  V2  1  0.05841300  0.94158700  0.75000000  1
  V  V3  1  0.94158700  0.05841300  0.25000000  1
  V  V4  1  0.73349000  0.26651000  0.16322400  1
  V  V5  1  0.26651000  0.73349000  0.83677600  1
  V  V6  1  0.26651000  0.73349000  0.66322400  1
  V  V7  1  0.73349000  0.26651000  0.33677600  1
  V  V8  1  0.53476900  0.46523100  0.11657200  1
  V  V9  1  0.46523100  0.53476900  0.88342800  1
  V  V10  1  0.46523100  0.53476900  0.61657200  1
  V  V11  1  0.53476900  0.46523100  0.38342800  1
  V  V12  1  0.66352600  0.33647400  0.97204100  1
  V  V13  1  0.33647400  0.66352600  0.02795900  1
  V  V14  1  0.33647400  0.66352600  0.47204100  1
  V  V15  1  0.66352600  0.33647400  0.52795900  1
  As  As0  1  0.41861900  0.58138100  0.75000000  1
  As  As1  1  0.58138100  0.41861900  0.25000000  1
  As  As2  1  0.69704000  0.30296000  0.75000000  1
  As  As3  1  0.30296000  0.69704000  0.25000000  1
  As  As4  1  0.90193800  0.09806200  0.11763200  1
  As  As5  1  0.09806200  0.90193800  0.88236800  1
  As  As6  1  0.09806200  0.90193800  0.61763200  1
  As  As7  1  0.90193800  0.09806200  0.38236800  1
  As  As8  1  0.83996500  0.16003500  0.92432700  1
  As  As9  1  0.16003500  0.83996500  0.07567300  1
  As  As10  1  0.16003500  0.83996500  0.42432700  1
  As  As11  1  0.83996500  0.16003500  0.57567300  1
loop_
_geom_bond_atom_site_label_1
_geom_bond_atom_site_label_2
_geom_bond_distance
_geom_bond_site_symmetry_2
As0 V9 2.487700 1_555
As0 V10 2.487700 1_555
As0 V2 2.558390 1_545
As0 V2 2.558390 1_655
As0 V5 2.604720 1_555
As0 V6 2.604720 1_555
As1 V8 2.487700 1_555
As1 V11 2.487700 1_555
As1 V3 2.558390 1_455
As1 V3 2.558390 1_565
As1 V7 2.604720 1_555
As1 V4 2.604720 1_555
As2 V5 2.496114 1_655
As2 V5 2.496114 1_545
As2 V6 2.496114 1_655
As2 V6 2.496114 1_545
As2 V2 2.546453 1_545
As2 V2 2.546453 1_655
As3 V7 2.496114 1_565
As3 V7 2.496114 1_455
As3 V4 2.496114 1_455
As3 V4 2.496114 1_565
As3 V3 2.546453 1_565
As3 V3 2.546453 1_455
As4 V3 2.446326 1_555
As4 V4 2.448800 1_555
As4 V8 2.487912 1_655
As4 V8 2.487912 1_545
As4 V13 2.509024 1_545
As4 V13 2.509024 1_655
As4 V0 2.509356 1_655
As5 V2 2.446326 1_555
As5 V5 2.448800 1_555
As5 V9 2.487912 1_565
As5 V9 2.487912 1_455
As5 V12 2.509024 1_455
As5 V12 2.509024 1_565
As5 V0 2.509356 1_566
As6 V2 2.446326 1_555
As6 V6 2.448800 1_555
As6 V10 2.487912 1_565
As6 V10 2.487912 1_455
As6 V15 2.509024 1_455
As6 V15 2.509024 1_565
As6 V1 2.509356 1_565
As7 V3 2.446326 1_555
As7 V7 2.448800 1_555
As7 V11 2.487912 1_655
As7 V11 2.487912 1_545
As7 V14 2.509024 1_545
As7 V14 2.509024 1_655
As7 V1 2.509356 1_655
As8 V9 2.523160 1_655
As8 V9 2.523160 1_545
As8 V13 2.523881 1_546
As8 V13 2.523881 1_656
As8 V5 2.526119 1_545
As8 V5 2.526119 1_655
As8 V12 2.564722 1_555
As8 V0 2.581253 1_656
As9 V8 2.523160 1_565
As9 V8 2.523160 1_455
As9 V12 2.523881 1_454
As9 V12 2.523881 1_564
As9 V4 2.526119 1_455
As9 V4 2.526119 1_565
As9 V13 2.564722 1_555
As9 V0 2.581253 1_565
As10 V11 2.523160 1_455
As10 V11 2.523160 1_565
As10 V15 2.523881 1_455
As10 V15 2.523881 1_565
As10 V7 2.526119 1_455
As10 V7 2.526119 1_565
As10 V14 2.564722 1_555
As10 V1 2.581253 1_565
As11 V10 2.523160 1_545
As11 V10 2.523160 1_655
As11 V14 2.523881 1_545
As11 V14 2.523881 1_655
As11 V6 2.526119 1_545
As11 V6 2.526119 1_655
As11 V15 2.564722 1_555
As11 V1 2.581253 1_655
