# generated using pymatgen
data_Ba3SiI2
_symmetry_space_group_name_H-M   'P 1'
_cell_length_a   16.53391742
_cell_length_b   15.76920426
_cell_length_c   8.74439196
_cell_angle_alpha   79.18161732
_cell_angle_beta   69.52867325
_cell_angle_gamma   31.27633716
_symmetry_Int_Tables_number   1
_chemical_formula_structural   Ba3SiI2
_chemical_formula_sum   'Ba12 Si4 I8'
_cell_volume   1079.51606458
_cell_formula_units_Z   4
loop_
 _symmetry_equiv_pos_site_id
 _symmetry_equiv_pos_as_xyz
  1  'x, y, z'
loop_
 _atom_site_type_symbol
 _atom_site_label
 _atom_site_symmetry_multiplicity
 _atom_site_fract_x
 _atom_site_fract_y
 _atom_site_fract_z
 _atom_site_occupancy
  Ba  Ba0  1  0.37348573  0.94416558  0.58813764  1
  Ba  Ba1  1  0.58816991  0.09416818  0.37354154  1
  Ba  Ba2  1  0.30577243  0.87649500  0.15591391  1
  Ba  Ba3  1  0.94423630  0.37351215  0.09408068  1
  Ba  Ba4  1  0.45798102  0.04201943  0.04200464  1
  Ba  Ba5  1  0.87651402  0.30585082  0.66186287  1
  Ba  Ba6  1  0.09409370  0.58818168  0.94423372  1
  Ba  Ba7  1  0.66182534  0.15582326  0.87646415  1
  Ba  Ba8  1  0.79200961  0.20799166  0.20800825  1
  Ba  Ba9  1  0.20799293  0.79200524  0.79200283  1
  Ba  Ba10  1  0.15589508  0.66181753  0.30577871  1
  Ba  Ba11  1  0.04201297  0.45799017  0.45799343  1
  Si  Si0  1  0.08411285  0.08417885  0.91589506  1
  Si  Si1  1  0.91588776  0.91581585  0.08412427  1
  Si  Si2  1  0.16588933  0.16583078  0.33410351  1
  Si  Si3  1  0.33410420  0.33418392  0.16588126  1
  I  I0  1  0.67283156  0.67249616  0.82729799  1
  I  I1  1  0.74586070  0.74647943  0.25419226  1
  I  I2  1  0.25413730  0.25350620  0.74581025  1
  I  I3  1  0.57716022  0.57751787  0.42271066  1
  I  I4  1  0.99587032  0.99647152  0.50418558  1
  I  I5  1  0.82721786  0.82746282  0.67273143  1
  I  I6  1  0.42278617  0.42252643  0.57725724  1
  I  I7  1  0.50415269  0.50350846  0.99578913  1
loop_
_geom_bond_atom_site_label_1
_geom_bond_atom_site_label_2
_geom_bond_distance
_geom_bond_site_symmetry_2
Ba0 Si0 3.272176 1_565
Ba0 Si2 3.293036 1_565
Ba0 I3 3.648598 1_555
Ba0 I2 3.709185 1_565
Ba0 I1 3.766376 1_555
Ba0 I0 3.854329 1_555
Ba1 Si1 3.271914 1_545
Ba1 Si3 3.293470 1_555
Ba1 I6 3.648929 1_555
Ba1 I1 3.709101 1_545
Ba1 I2 3.766510 1_555
Ba1 I5 3.852618 1_545
Ba2 Si2 3.271774 1_565
Ba2 Si0 3.293278 1_564
Ba2 I0 3.652049 1_554
Ba2 I4 3.712919 1_455
Ba2 I7 3.770380 1_554
Ba2 I3 3.851840 1_555
Ba3 Si0 3.271793 1_654
Ba3 Si2 3.293258 1_655
Ba3 I3 3.652230 1_555
Ba3 I2 3.712663 1_654
Ba3 I1 3.770116 1_555
Ba3 I0 3.851849 1_554
Ba4 Si2 3.284134 1_555
Ba4 Si3 3.284250 1_555
Ba4 I1 3.582092 1_545
Ba4 I2 3.583281 1_554
Ba4 I5 3.761584 1_544
Ba4 I0 3.762674 1_544
Ba5 Si2 3.272164 1_655
Ba5 Si0 3.293042 1_655
Ba5 I0 3.648516 1_555
Ba5 I4 3.709677 1_545
Ba5 I7 3.766359 1_555
Ba5 I3 3.854346 1_555
Ba6 Si1 3.271256 1_456
Ba6 Si3 3.292923 1_556
Ba6 I6 3.652073 1_555
Ba6 I1 3.712770 1_456
Ba6 I2 3.770932 1_555
Ba6 I5 3.853450 1_455
Ba7 Si3 3.271895 1_556
Ba7 Si1 3.293448 1_546
Ba7 I5 3.648940 1_545
Ba7 I7 3.709180 1_555
Ba7 I4 3.766581 1_545
Ba7 I6 3.852691 1_555
Ba8 Si0 3.284301 1_654
Ba8 Si1 3.284425 1_545
Ba8 I7 3.582121 1_554
Ba8 I4 3.583258 1_545
Ba8 I6 3.761476 1_555
Ba8 I3 3.762706 1_555
Ba9 Si1 3.284368 1_456
Ba9 Si0 3.284398 1_565
Ba9 I4 3.581764 1_455
Ba9 I7 3.582062 1_555
Ba9 I3 3.761380 1_555
Ba9 I6 3.762769 1_555
Ba10 Si3 3.271240 1_555
Ba10 Si1 3.292952 1_455
Ba10 I5 3.651888 1_455
Ba10 I7 3.713056 1_554
Ba10 I4 3.770766 1_455
Ba10 I6 3.853391 1_555
Ba11 Si3 3.284214 1_555
Ba11 Si2 3.284224 1_555
Ba11 I2 3.581755 1_555
Ba11 I1 3.582100 1_455
Ba11 I0 3.761463 1_455
Ba11 I5 3.762641 1_455
