# generated using pymatgen
data_Cs3P7
_symmetry_space_group_name_H-M   'P 1'
_cell_length_a   9.16169133
_cell_length_b   9.16169133
_cell_length_c   16.84814048
_cell_angle_alpha   90.00000000
_cell_angle_beta   90.00000000
_cell_angle_gamma   90.00000000
_symmetry_Int_Tables_number   1
_chemical_formula_structural   Cs3P7
_chemical_formula_sum   'Cs12 P28'
_cell_volume   1414.17542648
_cell_formula_units_Z   4
loop_
 _symmetry_equiv_pos_site_id
 _symmetry_equiv_pos_as_xyz
  1  'x, y, z'
loop_
 _atom_site_type_symbol
 _atom_site_label
 _atom_site_symmetry_multiplicity
 _atom_site_fract_x
 _atom_site_fract_y
 _atom_site_fract_z
 _atom_site_occupancy
  Cs  Cs0  1  0.74290033  0.37874664  0.00034377  1
  Cs  Cs1  1  0.62125336  0.74290033  0.25034377  1
  Cs  Cs2  1  0.37874664  0.25709967  0.75034377  1
  Cs  Cs3  1  0.25709967  0.62125336  0.50034377  1
  Cs  Cs4  1  0.41393516  0.73378898  0.83755764  1
  Cs  Cs5  1  0.26621102  0.41393516  0.08755764  1
  Cs  Cs6  1  0.73378898  0.58606484  0.58755764  1
  Cs  Cs7  1  0.58606484  0.26621102  0.33755764  1
  Cs  Cs8  1  0.01929635  0.83020912  0.99795717  1
  Cs  Cs9  1  0.16979088  0.01929635  0.24795717  1
  Cs  Cs10  1  0.83020912  0.98070365  0.74795717  1
  Cs  Cs11  1  0.98070365  0.16979088  0.49795717  1
  P  P0  1  0.78902506  0.60286247  0.81063649  1
  P  P1  1  0.39713753  0.78902506  0.06063649  1
  P  P2  1  0.60286247  0.21097494  0.56063649  1
  P  P3  1  0.21097494  0.39713753  0.31063649  1
  P  P4  1  0.44231146  0.09236943  0.94451431  1
  P  P5  1  0.90763057  0.44231146  0.19451431  1
  P  P6  1  0.09236943  0.55768854  0.69451431  1
  P  P7  1  0.55768854  0.90763057  0.44451431  1
  P  P8  1  0.10509082  0.47960976  0.89037746  1
  P  P9  1  0.52039024  0.10509082  0.14037746  1
  P  P10  1  0.47960976  0.89490918  0.64037746  1
  P  P11  1  0.89490918  0.52039024  0.39037746  1
  P  P12  1  0.35454164  0.02339623  0.05853933  1
  P  P13  1  0.97660377  0.35454164  0.30853933  1
  P  P14  1  0.02339623  0.64545836  0.80853933  1
  P  P15  1  0.64545836  0.97660377  0.55853933  1
  P  P16  1  0.62240771  0.79453337  0.03215507  1
  P  P17  1  0.20546663  0.62240771  0.28215607  1
  P  P18  1  0.79453337  0.37759229  0.78215507  1
  P  P19  1  0.37759229  0.20546663  0.53215507  1
  P  P20  1  0.99613762  0.34742330  0.70507407  1
  P  P21  1  0.65257670  0.99613762  0.95507407  1
  P  P22  1  0.34742330  0.00386338  0.45507407  1
  P  P23  1  0.00386338  0.65257670  0.20507407  1
  P  P24  1  0.00658372  0.29339478  0.83804269  1
  P  P25  1  0.70660522  0.00658372  0.08804269  1
  P  P26  1  0.29339478  0.99341628  0.58804269  1
  P  P27  1  0.99341628  0.70660522  0.33804269  1
loop_
_geom_bond_atom_site_label_1
_geom_bond_atom_site_label_2
_geom_bond_distance
_geom_bond_site_symmetry_2
Cs0 P5 3.649519 1_555
Cs0 P21 3.681570 1_544
Cs0 P18 3.706400 1_554
Cs0 P25 3.730874 1_555
Cs0 P24 3.731599 1_654
Cs0 P0 3.822345 1_554
Cs0 P8 3.911200 1_654
Cs0 P4 3.918233 1_554
Cs0 P9 4.000987 1_555
Cs0 P16 4.002090 1_555
Cs1 P7 3.649519 1_555
Cs1 P23 3.681579 1_655
Cs1 P16 3.706400 1_555
Cs1 P27 3.730874 1_555
Cs1 P25 3.731599 1_565
Cs1 P1 3.822345 1_555
Cs1 P9 3.911200 1_565
Cs1 P5 3.918233 1_555
Cs1 P11 4.000987 1_555
Cs1 P17 4.002092 1_555
Cs2 P4 3.649519 1_555
Cs2 P20 3.681570 1_455
Cs2 P19 3.706400 1_555
Cs2 P24 3.730874 1_555
Cs2 P26 3.731599 1_545
Cs2 P2 3.822345 1_555
Cs2 P10 3.911200 1_545
Cs2 P6 3.918233 1_555
Cs2 P8 4.000987 1_555
Cs2 P18 4.002090 1_555
Cs3 P6 3.649519 1_555
Cs3 P22 3.681579 1_565
Cs3 P17 3.706384 1_555
Cs3 P26 3.730874 1_555
Cs3 P27 3.731599 1_455
Cs3 P3 3.822345 1_555
Cs3 P11 3.911200 1_455
Cs3 P7 3.918233 1_555
Cs3 P10 4.000987 1_555
Cs3 P19 4.002090 1_555
Cs4 P0 3.667941 1_555
Cs4 P10 3.684763 1_555
Cs4 P14 3.700809 1_555
Cs4 P4 3.755986 1_565
Cs4 P8 3.771091 1_555
Cs4 P1 3.795501 1_556
Cs4 P21 3.804917 1_555
Cs4 P16 3.834960 1_556
Cs4 P6 4.134075 1_555
Cs5 P1 3.667941 1_555
Cs5 P8 3.684763 1_554
Cs5 P12 3.700809 1_555
Cs5 P5 3.755986 1_455
Cs5 P9 3.771091 1_555
Cs5 P3 3.795501 1_555
Cs5 P23 3.804911 1_555
Cs5 P17 3.834974 1_555
Cs5 P4 4.134075 1_554
Cs6 P2 3.667941 1_555
Cs6 P11 3.684763 1_555
Cs6 P15 3.700809 1_555
Cs6 P6 3.755986 1_655
Cs6 P10 3.771091 1_555
Cs6 P0 3.795501 1_555
Cs6 P20 3.804917 1_555
Cs6 P18 3.834960 1_555
Cs6 P7 4.134075 1_555
Cs7 P3 3.667941 1_555
Cs7 P9 3.684763 1_555
Cs7 P13 3.700809 1_555
Cs7 P7 3.755986 1_545
Cs7 P11 3.771091 1_555
Cs7 P2 3.795501 1_555
Cs7 P22 3.804911 1_555
Cs7 P19 3.834960 1_555
Cs7 P5 4.134075 1_555
Cs8 P14 3.612623 1_555
Cs8 P25 3.622388 1_466
Cs8 P1 3.638775 1_556
Cs8 P12 3.688906 1_566
Cs8 P16 3.696017 1_456
Cs8 P21 3.757797 1_455
Cs8 P8 3.771012 1_555
Cs8 P23 3.852962 1_556
Cs9 P12 3.612623 1_555
Cs9 P27 3.622388 1_445
Cs9 P3 3.638775 1_555
Cs9 P13 3.688906 1_455
Cs9 P17 3.696020 1_545
Cs9 P23 3.757794 1_545
Cs9 P9 3.771012 1_555
Cs9 P22 3.852962 1_555
Cs10 P15 3.612623 1_555
Cs10 P24 3.622388 1_665
Cs10 P0 3.638775 1_555
Cs10 P14 3.688906 1_655
Cs10 P18 3.696017 1_565
Cs10 P20 3.757797 1_565
Cs10 P10 3.771012 1_555
Cs10 P21 3.852963 1_555
Cs11 P13 3.612623 1_555
Cs11 P26 3.622388 1_645
Cs11 P2 3.638775 1_555
Cs11 P15 3.688906 1_545
Cs11 P19 3.696017 1_655
Cs11 P22 3.757794 1_655
Cs11 P11 3.771012 1_555
Cs11 P20 3.852963 1_555
P0 P18 2.119508 1_555
P0 P14 2.182697 1_655
P1 P16 2.119508 1_555
P1 P12 2.182697 1_565
P10 P26 2.121921 1_555
P10 P15 2.184051 1_555
P11 P27 2.121921 1_555
P11 P13 2.184051 1_555
P12 P4 2.176369 1_554
P12 P9 2.184051 1_555
P13 P5 2.176369 1_555
P13 P3 2.182697 1_655
P14 P6 2.176369 1_555
P14 P8 2.184051 1_555
P15 P7 2.176369 1_555
P15 P2 2.182697 1_565
P16 P21 2.274750 1_554
P16 P25 2.292575 1_565
P17 P3 2.119504 1_555
P17 P23 2.274752 1_555
P17 P27 2.292568 1_455
P18 P20 2.274750 1_555
P18 P24 2.292575 1_655
P19 P2 2.119508 1_555
P19 P22 2.274742 1_555
P19 P26 2.292575 1_545
P20 P6 2.126009 1_655
P20 P24 2.296302 1_655
P21 P4 2.126009 1_565
P21 P25 2.296302 1_566
P22 P7 2.126012 1_545
P22 P26 2.296303 1_545
P23 P5 2.126012 1_455
P23 P27 2.296303 1_455
P24 P8 2.121921 1_555
P25 P9 2.121921 1_555
