# generated using pymatgen
data_LaSbMo2O9
_symmetry_space_group_name_H-M   'P 1'
_cell_length_a   10.00851726
_cell_length_b   10.00851726
_cell_length_c   11.14819788
_cell_angle_alpha   68.49468780
_cell_angle_beta   68.49468780
_cell_angle_gamma   96.18990337
_symmetry_Int_Tables_number   1
_chemical_formula_structural   LaSbMo2O9
_chemical_formula_sum   'La4 Sb4 Mo8 O36'
_cell_volume   928.03431616
_cell_formula_units_Z   4
loop_
 _symmetry_equiv_pos_site_id
 _symmetry_equiv_pos_as_xyz
  1  'x, y, z'
loop_
 _atom_site_type_symbol
 _atom_site_label
 _atom_site_symmetry_multiplicity
 _atom_site_fract_x
 _atom_site_fract_y
 _atom_site_fract_z
 _atom_site_occupancy
  La  La0  1  0.87633000  0.12367000  0.25000000  1
  La  La1  1  0.12367000  0.87633000  0.75000000  1
  La  La2  1  0.67666000  0.32334000  0.75000000  1
  La  La3  1  0.32334000  0.67666000  0.25000000  1
  Sb  Sb0  1  0.62280700  0.64438800  0.46147000  1
  Sb  Sb1  1  0.37719300  0.35561200  0.53853000  1
  Sb  Sb2  1  0.35561200  0.37719300  0.03853000  1
  Sb  Sb3  1  0.64438800  0.62280700  0.96147000  1
  Mo  Mo0  1  0.06316100  0.43523800  0.80393800  1
  Mo  Mo1  1  0.95006000  0.74059900  0.52680400  1
  Mo  Mo2  1  0.25940100  0.04994000  0.97319600  1
  Mo  Mo3  1  0.93683900  0.56476200  0.19606200  1
  Mo  Mo4  1  0.74059900  0.95006000  0.02680400  1
  Mo  Mo5  1  0.56476200  0.93683900  0.69606200  1
  Mo  Mo6  1  0.04994000  0.25940100  0.47319600  1
  Mo  Mo7  1  0.43523800  0.06316100  0.30393800  1
  O  O0  1  0.40268100  0.21745300  0.92591600  1
  O  O1  1  0.87834500  0.29664300  0.55939300  1
  O  O2  1  0.37747700  0.21597500  0.19747000  1
  O  O3  1  0.86105100  0.38346100  0.22071100  1
  O  O4  1  0.59731900  0.78254700  0.07408400  1
  O  O5  1  0.09637500  0.06193600  0.09844800  1
  O  O6  1  0.78254700  0.59731900  0.57408400  1
  O  O7  1  0.38346100  0.86105100  0.72071100  1
  O  O8  1  0.21745300  0.40268100  0.42591600  1
  O  O9  1  0.12165500  0.70335700  0.44060700  1
  O  O10  1  0.13894900  0.61653900  0.77928800  1
  O  O11  1  0.42465400  0.54053000  0.09688300  1
  O  O12  1  0.94638200  0.77090700  0.67713000  1
  O  O13  1  0.01081900  0.69256700  0.01208900  1
  O  O14  1  0.78402500  0.62252300  0.30253000  1
  O  O15  1  0.98918100  0.30743300  0.98791100  1
  O  O16  1  0.57534600  0.45947000  0.90311700  1
  O  O17  1  0.56052000  0.08426600  0.74966700  1
  O  O18  1  0.08426600  0.56052000  0.24966700  1
  O  O19  1  0.62252300  0.78402500  0.80253000  1
  O  O20  1  0.90362500  0.93806400  0.90155200  1
  O  O21  1  0.30743300  0.98918100  0.48791100  1
  O  O22  1  0.29664300  0.87834500  0.05939300  1
  O  O23  1  0.05361800  0.22909300  0.32287000  1
  O  O24  1  0.91573400  0.43948000  0.75033300  1
  O  O25  1  0.21597500  0.37747700  0.69747000  1
  O  O26  1  0.61653900  0.13894900  0.27928900  1
  O  O27  1  0.06193600  0.09637500  0.59844800  1
  O  O28  1  0.22909300  0.05361800  0.82287000  1
  O  O29  1  0.45947000  0.57534600  0.40311700  1
  O  O30  1  0.54053000  0.42465400  0.59688300  1
  O  O31  1  0.43948000  0.91573400  0.25033300  1
  O  O32  1  0.93806400  0.90362500  0.40155200  1
  O  O33  1  0.77090700  0.94638200  0.17713000  1
  O  O34  1  0.69256700  0.01081900  0.51208900  1
  O  O35  1  0.70335700  0.12165500  0.94060700  1
loop_
_geom_bond_atom_site_label_1
_geom_bond_atom_site_label_2
_geom_bond_distance
_geom_bond_site_symmetry_2
La0 O23 2.490632 1_655
La0 O33 2.490632 1_545
La0 O15 2.527432 1_554
La0 O34 2.527432 1_555
La0 O3 2.527950 1_555
La0 O26 2.527950 1_555
La0 O32 2.533228 1_545
La0 O5 2.533228 1_655
La1 O28 2.490632 1_565
La1 O12 2.490632 1_455
La1 O13 2.527432 1_556
La1 O21 2.527432 1_555
La1 O7 2.527950 1_555
La1 O10 2.527953 1_555
La1 O20 2.533228 1_455
La1 O27 2.533228 1_565
La2 O1 2.459490 1_555
La2 O35 2.459490 1_555
La2 O6 2.528867 1_555
La2 O0 2.528867 1_555
La2 O24 2.546846 1_555
La2 O17 2.546846 1_555
La2 O16 2.555836 1_555
La2 O30 2.555836 1_555
La3 O9 2.459490 1_555
La3 O22 2.459490 1_555
La3 O4 2.528867 1_555
La3 O8 2.528867 1_555
La3 O31 2.546846 1_555
La3 O18 2.546846 1_555
La3 O11 2.555836 1_555
La3 O29 2.555836 1_555
Mo0 O10 1.768686 1_555
Mo0 O15 1.774766 1_455
Mo0 O24 1.782556 1_455
Mo0 O25 1.856065 1_555
Mo1 O32 1.766689 1_555
Mo1 O9 1.789557 1_655
Mo1 O12 1.797715 1_555
Mo1 O6 1.850551 1_555
Mo2 O5 1.766689 1_556
Mo2 O22 1.789557 1_546
Mo2 O28 1.797715 1_555
Mo2 O0 1.850551 1_555
Mo3 O3 1.768690 1_555
Mo3 O13 1.774766 1_655
Mo3 O18 1.782556 1_655
Mo3 O14 1.856065 1_555
Mo4 O20 1.766689 1_554
Mo4 O35 1.789557 1_564
Mo4 O33 1.797715 1_555
Mo4 O4 1.850551 1_555
Mo5 O7 1.768690 1_555
Mo5 O34 1.774766 1_565
Mo5 O17 1.782556 1_565
Mo5 O19 1.856065 1_555
Mo6 O27 1.766689 1_555
Mo6 O1 1.789557 1_455
Mo6 O23 1.797715 1_555
Mo6 O8 1.850551 1_555
Mo7 O26 1.768690 1_555
Mo7 O21 1.774766 1_545
Mo7 O31 1.782556 1_545
Mo7 O2 1.856065 1_555
O0 Sb2 2.356797 1_556
O2 Sb2 2.013780 1_555
O4 Sb3 2.356797 1_554
O6 Sb0 2.356797 1_555
O8 Sb1 2.356797 1_555
O11 Sb3 2.014322 1_554
O11 Sb2 2.106847 1_555
O14 Sb0 2.013780 1_555
O16 Sb2 2.014322 1_556
O16 Sb3 2.106847 1_555
O19 Sb3 2.013780 1_555
O25 Sb1 2.013780 1_555
O29 Sb1 2.014322 1_555
O29 Sb0 2.106847 1_555
O30 Sb0 2.014322 1_555
O30 Sb1 2.106847 1_555
