# generated using pymatgen
data_Rb3Er3(PS4)4
_symmetry_space_group_name_H-M   'P 1'
_cell_length_a   16.34075300
_cell_length_b   9.29594300
_cell_length_c   19.98991614
_cell_angle_alpha   67.72207661
_cell_angle_beta   90.00000000
_cell_angle_gamma   90.00000000
_symmetry_Int_Tables_number   1
_chemical_formula_structural   Rb3Er3(PS4)4
_chemical_formula_sum   'Rb12 Er12 P16 S64'
_cell_volume   2809.86379401
_cell_formula_units_Z   4
loop_
 _symmetry_equiv_pos_site_id
 _symmetry_equiv_pos_as_xyz
  1  'x, y, z'
loop_
 _atom_site_type_symbol
 _atom_site_label
 _atom_site_symmetry_multiplicity
 _atom_site_fract_x
 _atom_site_fract_y
 _atom_site_fract_z
 _atom_site_occupancy
  Rb  Rb0  1  0.03299400  0.17144600  0.73060000  1
  Rb  Rb1  1  0.89471400  0.28041200  0.93290400  1
  Rb  Rb2  1  0.49405800  0.71284400  0.08220900  1
  Rb  Rb3  1  0.39471400  0.71958800  0.56709600  1
  Rb  Rb4  1  0.96700600  0.82855400  0.26940000  1
  Rb  Rb5  1  0.10528600  0.71958800  0.06709600  1
  Rb  Rb6  1  0.46700600  0.17144600  0.23060000  1
  Rb  Rb7  1  0.60528600  0.28041200  0.43290400  1
  Rb  Rb8  1  0.53299400  0.82855400  0.76940000  1
  Rb  Rb9  1  0.00594200  0.71284400  0.58220900  1
  Rb  Rb10  1  0.50594200  0.28715600  0.91779100  1
  Rb  Rb11  1  0.99405800  0.28715600  0.41779100  1
  Er  Er0  1  0.76078800  0.50485400  0.18264000  1
  Er  Er1  1  0.77234000  0.04765100  0.66368100  1
  Er  Er2  1  0.72509200  0.77154800  0.41406800  1
  Er  Er3  1  0.73921200  0.50485400  0.68264000  1
  Er  Er4  1  0.27490800  0.22845200  0.58593200  1
  Er  Er5  1  0.26078800  0.49514600  0.31736000  1
  Er  Er6  1  0.72766000  0.04765100  0.16368100  1
  Er  Er7  1  0.23921200  0.49514600  0.81736000  1
  Er  Er8  1  0.22509200  0.22845200  0.08593200  1
  Er  Er9  1  0.27234000  0.95234900  0.83631900  1
  Er  Er10  1  0.77490800  0.77154800  0.91406800  1
  Er  Er11  1  0.22766000  0.95234900  0.33631900  1
  P  P0  1  0.35612000  0.16272300  0.41763900  1
  P  P1  1  0.18998600  0.59170300  0.46822200  1
  P  P2  1  0.64388000  0.83727700  0.58236100  1
  P  P3  1  0.85612000  0.83727700  0.08236100  1
  P  P4  1  0.81001400  0.40829700  0.53177800  1
  P  P5  1  0.70472500  0.15313000  0.81047600  1
  P  P6  1  0.20472500  0.84687000  0.68952400  1
  P  P7  1  0.31001400  0.59170300  0.96822200  1
  P  P8  1  0.79527500  0.15313000  0.31047600  1
  P  P9  1  0.62481400  0.71732000  0.26808300  1
  P  P10  1  0.14388000  0.16272300  0.91763900  1
  P  P11  1  0.68998600  0.40829700  0.03177800  1
  P  P12  1  0.87518600  0.71732000  0.76808300  1
  P  P13  1  0.29527500  0.84687000  0.18952400  1
  P  P14  1  0.37518600  0.28268000  0.73191700  1
  P  P15  1  0.12481400  0.28268000  0.23191700  1
  S  S0  1  0.75183900  0.74552400  0.27416900  1
  S  S1  1  0.70503800  0.35451100  0.82809900  1
  S  S2  1  0.69035100  0.20295800  0.01768800  1
  S  S3  1  0.61815700  0.02072900  0.61164700  1
  S  S4  1  0.73008000  0.80965500  0.08985200  1
  S  S5  1  0.37040000  0.41343700  0.04602800  1
  S  S6  1  0.89598900  0.87902100  0.97994900  1
  S  S7  1  0.18005000  0.93336300  0.19567500  1
  S  S8  1  0.11815700  0.97927100  0.88835300  1
  S  S9  1  0.87040000  0.58656300  0.45397200  1
  S  S10  1  0.14409200  0.02606600  0.61204900  1
  S  S11  1  0.39598900  0.12097900  0.52005100  1
  S  S12  1  0.12960000  0.41343700  0.54602800  1
  S  S13  1  0.76992000  0.80965500  0.58985200  1
  S  S14  1  0.68005000  0.06663700  0.30432500  1
  S  S15  1  0.81995000  0.06663700  0.80432500  1
  S  S16  1  0.62960000  0.58656300  0.95397200  1
  S  S17  1  0.39400800  0.46648700  0.76243600  1
  S  S18  1  0.58945600  0.64046500  0.65515600  1
  S  S19  1  0.30482500  0.50463200  0.46235800  1
  S  S20  1  0.85800900  0.34509100  0.63524500  1
  S  S21  1  0.85590800  0.97393400  0.38795100  1
  S  S22  1  0.34488600  0.78289000  0.29169500  1
  S  S23  1  0.65511400  0.21711000  0.70830500  1
  S  S24  1  0.19035100  0.79704200  0.48231200  1
  S  S25  1  0.92331300  0.91210800  0.68857000  1
  S  S26  1  0.80482500  0.49536800  0.03764200  1
  S  S27  1  0.15511400  0.78289000  0.79169500  1
  S  S28  1  0.60401100  0.87902100  0.47994900  1
  S  S29  1  0.24816100  0.25447600  0.72583100  1
  S  S30  1  0.23008000  0.19034500  0.41014800  1
  S  S31  1  0.84488600  0.21711000  0.20830500  1
  S  S32  1  0.31995000  0.93336300  0.69567500  1
  S  S33  1  0.10599200  0.46648700  0.26243600  1
  S  S34  1  0.35590800  0.02606600  0.11204900  1
  S  S35  1  0.80964900  0.20295800  0.51768800  1
  S  S36  1  0.19517500  0.50463200  0.96235800  1
  S  S37  1  0.89400800  0.53351300  0.73756400  1
  S  S38  1  0.30964900  0.79704200  0.98231200  1
  S  S39  1  0.58077300  0.68512100  0.36755500  1
  S  S40  1  0.79496200  0.35451100  0.32809900  1
  S  S41  1  0.64199100  0.34509100  0.13524500  1
  S  S42  1  0.10401100  0.12097900  0.02005100  1
  S  S43  1  0.07668700  0.08789200  0.31143000  1
  S  S44  1  0.69517500  0.49536800  0.53764200  1
  S  S45  1  0.14199100  0.65490900  0.36475500  1
  S  S46  1  0.41922700  0.31487900  0.63244500  1
  S  S47  1  0.25183900  0.25447600  0.22583100  1
  S  S48  1  0.08077300  0.31487900  0.13244500  1
  S  S49  1  0.57668700  0.91210800  0.18857000  1
  S  S50  1  0.08945600  0.35953500  0.84484400  1
  S  S51  1  0.91922700  0.68512100  0.86755500  1
  S  S52  1  0.88184300  0.02072900  0.11164700  1
  S  S53  1  0.91054400  0.64046500  0.15515600  1
  S  S54  1  0.42331300  0.08789200  0.81143000  1
  S  S55  1  0.60599200  0.53351300  0.23756400  1
  S  S56  1  0.64409200  0.97393400  0.88795100  1
  S  S57  1  0.38184300  0.97927100  0.38835300  1
  S  S58  1  0.26992000  0.19034500  0.91014800  1
  S  S59  1  0.35800900  0.65490900  0.86475500  1
  S  S60  1  0.29496200  0.64548900  0.17190100  1
  S  S61  1  0.74816100  0.74552400  0.77416900  1
  S  S62  1  0.20503800  0.64548900  0.67190100  1
  S  S63  1  0.41054400  0.35953500  0.34484400  1
loop_
_geom_bond_atom_site_label_1
_geom_bond_atom_site_label_2
_geom_bond_distance
_geom_bond_site_symmetry_2
Rb0 S8 3.286498 1_545
Rb0 S25 3.356452 1_445
Rb0 S20 3.475945 1_455
Rb0 S50 3.485871 1_555
Rb0 S29 3.593220 1_555
Rb0 S10 3.628569 1_555
Rb0 S15 3.761912 1_455
Rb0 S12 3.856487 1_555
Rb0 S27 3.895583 1_545
Rb1 S52 3.478308 1_556
Rb1 S6 3.485249 1_545
Rb1 S51 3.506349 1_555
Rb1 S50 3.575557 1_655
Rb1 S1 3.657335 1_555
Rb1 S2 3.690192 1_556
Rb1 S26 3.702171 1_556
Rb1 S37 3.717221 1_555
Rb1 S42 3.869192 1_656
Rb1 S15 3.990080 1_555
Rb2 S55 3.441466 1_555
Rb2 S38 3.534935 1_554
Rb2 S49 3.572233 1_555
Rb2 S60 3.652392 1_555
Rb2 S5 3.725459 1_555
Rb2 S16 3.890565 1_554
Rb2 S34 3.904718 1_565
Rb2 S4 3.976460 1_555
Rb2 S41 3.988286 1_555
Rb3 S57 3.478308 1_555
Rb3 S11 3.485249 1_565
Rb3 S46 3.506349 1_555
Rb3 S18 3.575557 1_555
Rb3 S62 3.657335 1_555
Rb3 S24 3.690192 1_555
Rb3 S19 3.702171 1_555
Rb3 S17 3.717221 1_555
Rb3 S28 3.869192 1_555
Rb3 S32 3.990080 1_555
Rb4 S52 3.286498 1_565
Rb4 S43 3.356452 1_665
Rb4 S45 3.475945 1_655
Rb4 S53 3.485871 1_555
Rb4 S0 3.593220 1_555
Rb4 S21 3.628569 1_555
Rb4 S7 3.761912 1_655
Rb4 S9 3.856487 1_555
Rb4 S31 3.895583 1_565
Rb5 S8 3.478308 1_554
Rb5 S42 3.485249 1_565
Rb5 S48 3.506349 1_555
Rb5 S53 3.575557 1_455
Rb5 S60 3.657335 1_555
Rb5 S38 3.690192 1_554
Rb5 S36 3.702171 1_554
Rb5 S33 3.717221 1_555
Rb5 S6 3.869192 1_454
Rb5 S7 3.990080 1_555
Rb6 S57 3.286498 1_545
Rb6 S49 3.356452 1_545
Rb6 S41 3.475945 1_555
Rb6 S63 3.485871 1_555
Rb6 S47 3.593220 1_555
Rb6 S34 3.628569 1_555
Rb6 S14 3.761912 1_555
Rb6 S5 3.856487 1_555
Rb6 S22 3.895583 1_545
Rb7 S3 3.478308 1_555
Rb7 S28 3.485249 1_545
Rb7 S39 3.506349 1_555
Rb7 S63 3.575557 1_555
Rb7 S40 3.657335 1_555
Rb7 S35 3.690192 1_555
Rb7 S44 3.702171 1_555
Rb7 S55 3.717221 1_555
Rb7 S11 3.869192 1_555
Rb7 S14 3.990080 1_555
Rb8 S3 3.286498 1_565
Rb8 S54 3.356452 1_565
Rb8 S59 3.475945 1_555
Rb8 S18 3.485871 1_555
Rb8 S61 3.593220 1_555
Rb8 S56 3.628569 1_555
Rb8 S32 3.761912 1_555
Rb8 S16 3.856487 1_555
Rb8 S23 3.895583 1_565
Rb9 S37 3.441466 1_455
Rb9 S24 3.534935 1_555
Rb9 S25 3.572233 1_455
Rb9 S62 3.652392 1_555
Rb9 S12 3.725459 1_555
Rb9 S9 3.890565 1_455
Rb9 S10 3.904718 1_565
Rb9 S13 3.976460 1_455
Rb9 S20 3.988286 1_455
Rb10 S17 3.441466 1_555
Rb10 S2 3.534935 1_556
Rb10 S54 3.572233 1_555
Rb10 S1 3.652392 1_555
Rb10 S16 3.725459 1_555
Rb10 S5 3.890565 1_556
Rb10 S56 3.904718 1_545
Rb10 S58 3.976460 1_555
Rb10 S59 3.988286 1_555
Rb11 S33 3.441466 1_655
Rb11 S35 3.534935 1_555
Rb11 S43 3.572233 1_655
Rb11 S40 3.652392 1_555
Rb11 S9 3.725459 1_555
Rb11 S12 3.890565 1_655
Rb11 S21 3.904718 1_545
Rb11 S30 3.976460 1_655
Rb11 S45 3.988286 1_655
Er0 S53 2.711888 1_555
Er0 S40 2.763825 1_555
Er0 S4 2.781311 1_555
Er0 S55 2.810067 1_555
Er0 S41 2.817532 1_555
Er0 S31 2.875074 1_555
Er0 S26 3.020046 1_555
Er0 S0 3.387913 1_555
Er1 S25 2.728732 1_545
Er1 S3 2.773019 1_555
Er1 S35 2.788988 1_555
Er1 S23 2.830552 1_555
Er1 S61 2.866883 1_545
Er1 S20 2.955723 1_555
Er1 S15 2.986125 1_555
Er1 S13 3.090304 1_545
Er2 S21 2.763488 1_555
Er2 S39 2.763670 1_555
Er2 S28 2.764915 1_555
Er2 S44 2.850242 1_555
Er2 S9 2.862046 1_555
Er2 S14 2.883815 1_565
Er2 S0 2.929727 1_555
Er3 S18 2.711888 1_555
Er3 S1 2.763825 1_555
Er3 S13 2.781311 1_555
Er3 S37 2.810067 1_555
Er3 S20 2.817532 1_555
Er3 S23 2.875074 1_555
Er3 S44 3.020046 1_555
Er3 S61 3.387913 1_555
Er4 S10 2.763488 1_555
Er4 S46 2.763670 1_555
Er4 S11 2.764915 1_555
Er4 S19 2.850242 1_555
Er4 S12 2.862046 1_555
Er4 S32 2.883815 1_545
Er4 S29 2.929727 1_555
Er5 S63 2.711888 1_555
Er5 S60 2.763825 1_555
Er5 S30 2.781311 1_555
Er5 S33 2.810067 1_555
Er5 S45 2.817532 1_555
Er5 S22 2.875074 1_555
Er5 S19 3.020046 1_555
Er5 S47 3.387913 1_555
Er6 S49 2.728732 1_545
Er6 S52 2.773019 1_555
Er6 S2 2.788988 1_555
Er6 S31 2.830552 1_555
Er6 S0 2.866883 1_545
Er6 S41 2.955723 1_555
Er6 S14 2.986125 1_555
Er6 S4 3.090304 1_545
Er7 S50 2.711888 1_555
Er7 S62 2.763825 1_555
Er7 S58 2.781311 1_555
Er7 S17 2.810067 1_555
Er7 S59 2.817532 1_555
Er7 S27 2.875074 1_555
Er7 S36 3.020046 1_555
Er7 S29 3.387913 1_555
Er8 S34 2.763488 1_555
Er8 S48 2.763670 1_555
Er8 S42 2.764915 1_555
Er8 S36 2.850242 1_554
Er8 S5 2.862046 1_555
Er8 S7 2.883815 1_545
Er8 S47 2.929727 1_555
Er9 S54 2.728732 1_565
Er9 S8 2.773019 1_555
Er9 S38 2.788988 1_555
Er9 S27 2.830552 1_555
Er9 S29 2.866883 1_565
Er9 S59 2.955723 1_555
Er9 S32 2.986125 1_555
Er9 S58 3.090304 1_565
Er10 S56 2.763488 1_555
Er10 S51 2.763670 1_555
Er10 S6 2.764915 1_555
Er10 S26 2.850242 1_556
Er10 S16 2.862046 1_555
Er10 S15 2.883815 1_565
Er10 S61 2.929727 1_555
Er11 S43 2.728732 1_565
Er11 S57 2.773019 1_555
Er11 S24 2.788988 1_555
Er11 S22 2.830552 1_555
Er11 S47 2.866883 1_565
Er11 S45 2.955723 1_555
Er11 S7 2.986125 1_555
Er11 S30 3.090304 1_565
P0 S11 2.040527 1_555
P0 S57 2.045631 1_545
P0 S63 2.058427 1_555
P0 S30 2.073911 1_555
P1 S24 2.032386 1_555
P1 S12 2.045653 1_555
P1 S19 2.064529 1_555
P1 S45 2.077682 1_555
P2 S28 2.040527 1_555
P2 S3 2.045631 1_565
P2 S18 2.058427 1_555
P2 S13 2.073911 1_555
P3 S6 2.040527 1_554
P3 S52 2.045631 1_565
P3 S53 2.058427 1_555
P3 S4 2.073911 1_555
P4 S35 2.032386 1_555
P4 S9 2.045653 1_555
P4 S44 2.064529 1_555
P4 S20 2.077682 1_555
P5 S1 2.031903 1_555
P5 S56 2.049153 1_545
P5 S23 2.064290 1_555
P5 S15 2.069232 1_555
P6 S62 2.031903 1_555
P6 S10 2.049153 1_565
P6 S27 2.064290 1_555
P6 S32 2.069232 1_555
P7 S38 2.032386 1_555
P7 S5 2.045653 1_556
P7 S36 2.064529 1_555
P7 S59 2.077682 1_555
P8 S40 2.031903 1_555
P8 S21 2.049153 1_545
P8 S31 2.064290 1_555
P8 S14 2.069232 1_555
P9 S39 2.027344 1_555
P9 S55 2.043686 1_555
P9 S49 2.059480 1_555
P9 S0 2.101473 1_555
P10 S42 2.040527 1_556
P10 S8 2.045631 1_545
P10 S50 2.058427 1_555
P10 S58 2.073911 1_555
P11 S2 2.032386 1_555
P11 S16 2.045653 1_554
P11 S26 2.064529 1_555
P11 S41 2.077682 1_555
P12 S51 2.027344 1_555
P12 S37 2.043686 1_555
P12 S25 2.059480 1_555
P12 S61 2.101473 1_555
P13 S60 2.031903 1_555
P13 S34 2.049153 1_565
P13 S22 2.064290 1_555
P13 S7 2.069232 1_555
P14 S46 2.027344 1_555
P14 S17 2.043686 1_555
P14 S54 2.059480 1_555
P14 S29 2.101473 1_555
P15 S48 2.027344 1_555
P15 S33 2.043686 1_555
P15 S43 2.059480 1_555
P15 S47 2.101473 1_555
