# generated using pymatgen
data_K2MoC2O9
_symmetry_space_group_name_H-M   'P 1'
_cell_length_a   9.01512600
_cell_length_b   7.19207100
_cell_length_c   15.48957484
_cell_angle_alpha   64.38817662
_cell_angle_beta   90.00000000
_cell_angle_gamma   90.00000000
_symmetry_Int_Tables_number   1
_chemical_formula_structural   K2MoC2O9
_chemical_formula_sum   'K8 Mo4 C8 O36'
_cell_volume   905.62459670
_cell_formula_units_Z   4
loop_
 _symmetry_equiv_pos_site_id
 _symmetry_equiv_pos_as_xyz
  1  'x, y, z'
loop_
 _atom_site_type_symbol
 _atom_site_label
 _atom_site_symmetry_multiplicity
 _atom_site_fract_x
 _atom_site_fract_y
 _atom_site_fract_z
 _atom_site_occupancy
  K  K0  1  0.92897000  0.51361800  0.72710400  1
  K  K1  1  0.65069400  0.78743100  0.47584700  1
  K  K2  1  0.42897000  0.48638200  0.77289600  1
  K  K3  1  0.07103000  0.48638200  0.27289600  1
  K  K4  1  0.34930600  0.21256900  0.52415300  1
  K  K5  1  0.57103000  0.51361800  0.22710400  1
  K  K6  1  0.84930600  0.78743100  0.97584700  1
  K  K7  1  0.15069400  0.21256900  0.02415300  1
  Mo  Mo0  1  0.29861300  0.90801900  0.33230100  1
  Mo  Mo1  1  0.20138700  0.90801900  0.83230100  1
  Mo  Mo2  1  0.79861300  0.09198100  0.16769900  1
  Mo  Mo3  1  0.70138700  0.09198100  0.66769900  1
  C  C0  1  0.71407900  0.29597800  0.95451600  1
  C  C1  1  0.21407900  0.70402200  0.54548400  1
  C  C2  1  0.78592100  0.29597800  0.45451600  1
  C  C3  1  0.43146600  0.75233300  0.98487800  1
  C  C4  1  0.06853400  0.75233300  0.48487800  1
  C  C5  1  0.56853400  0.24766700  0.01512200  1
  C  C6  1  0.28592100  0.70402200  0.04548400  1
  C  C7  1  0.93146600  0.24766700  0.51512200  1
  O  O0  1  0.46331600  0.72483000  0.33470800  1
  O  O1  1  0.76457500  0.99545000  0.78417700  1
  O  O2  1  0.53668400  0.27517000  0.66529200  1
  O  O3  1  0.91208300  0.16463700  0.60795300  1
  O  O4  1  0.70569300  0.38677600  0.86578300  1
  O  O5  1  0.67704700  0.39088300  0.63717400  1
  O  O6  1  0.44536400  0.28632700  0.97624200  1
  O  O7  1  0.41208300  0.83536300  0.89204700  1
  O  O8  1  0.26457500  0.00455000  0.71582300  1
  O  O9  1  0.96331600  0.27517000  0.16529200  1
  O  O10  1  0.70827300  0.84053200  0.64367700  1
  O  O11  1  0.55463600  0.71367300  0.02375800  1
  O  O12  1  0.79430700  0.38677600  0.36578300  1
  O  O13  1  0.32295300  0.60911700  0.36282600  1
  O  O14  1  0.73542500  0.99545000  0.28417700  1
  O  O15  1  0.16661900  0.76670800  0.99515600  1
  O  O16  1  0.05841800  0.11636200  0.83148000  1
  O  O17  1  0.58791700  0.16463700  0.10795300  1
  O  O18  1  0.94158200  0.88363800  0.16852000  1
  O  O19  1  0.33338100  0.76670800  0.49515600  1
  O  O20  1  0.05463600  0.28632700  0.47624200  1
  O  O21  1  0.83338100  0.23329200  0.00484400  1
  O  O22  1  0.20827300  0.15946800  0.85632300  1
  O  O23  1  0.94536400  0.71367300  0.52375800  1
  O  O24  1  0.82295300  0.39088300  0.13717400  1
  O  O25  1  0.08791700  0.83536300  0.39204700  1
  O  O26  1  0.03668400  0.72483000  0.83470800  1
  O  O27  1  0.29172700  0.15946800  0.35632300  1
  O  O28  1  0.23542500  0.00455000  0.21582300  1
  O  O29  1  0.55841800  0.88363800  0.66852000  1
  O  O30  1  0.20569300  0.61322400  0.63421700  1
  O  O31  1  0.29430700  0.61322400  0.13421700  1
  O  O32  1  0.44158200  0.11636200  0.33148000  1
  O  O33  1  0.66661900  0.23329200  0.50484400  1
  O  O34  1  0.79172700  0.84053200  0.14367700  1
  O  O35  1  0.17704700  0.60911700  0.86282600  1
loop_
_geom_bond_atom_site_label_1
_geom_bond_atom_site_label_2
_geom_bond_distance
_geom_bond_site_symmetry_2
K0 O4 2.793554 1_555
K0 O30 2.813482 1_655
K0 O23 2.845152 1_555
K0 O16 2.853982 1_655
K0 O26 2.866600 1_655
K0 O10 2.920580 1_555
K0 O5 2.990084 1_555
K1 O23 2.747493 1_555
K1 O14 2.792131 1_555
K1 O10 2.834012 1_555
K1 O19 2.873370 1_555
K1 O5 2.876340 1_555
K1 O0 2.947301 1_555
K1 O32 3.094730 1_565
K2 O30 2.793554 1_555
K2 O4 2.813482 1_555
K2 O6 2.845152 1_555
K2 O29 2.853982 1_555
K2 O2 2.866600 1_555
K2 O22 2.920580 1_555
K2 O35 2.990084 1_555
K3 O31 2.793554 1_555
K3 O12 2.813482 1_455
K3 O20 2.845152 1_555
K3 O18 2.853982 1_455
K3 O9 2.866600 1_455
K3 O27 2.920580 1_555
K3 O13 2.990084 1_555
K4 O20 2.747493 1_555
K4 O8 2.792131 1_555
K4 O27 2.834012 1_555
K4 O33 2.873370 1_555
K4 O13 2.876340 1_555
K4 O2 2.947301 1_555
K4 O29 3.094730 1_545
K5 O12 2.793554 1_555
K5 O31 2.813482 1_555
K5 O11 2.845152 1_555
K5 O32 2.853982 1_555
K5 O0 2.866600 1_555
K5 O34 2.920580 1_555
K5 O24 2.990084 1_555
K6 O11 2.747493 1_556
K6 O1 2.792131 1_555
K6 O34 2.834012 1_556
K6 O15 2.873370 1_655
K6 O24 2.876340 1_556
K6 O26 2.947301 1_655
K6 O16 3.094730 1_665
K7 O6 2.747493 1_554
K7 O28 2.792131 1_555
K7 O22 2.834012 1_554
K7 O21 2.873370 1_455
K7 O35 2.876340 1_554
K7 O9 2.947301 1_455
K7 O18 3.094730 1_445
Mo0 O28 1.725892 1_565
Mo0 O32 1.972350 1_565
Mo0 O0 1.974699 1_555
Mo0 O27 1.998627 1_565
Mo0 O13 2.003565 1_555
Mo0 O25 2.078299 1_555
Mo0 O19 2.297386 1_555
Mo1 O8 1.725892 1_565
Mo1 O16 1.972350 1_565
Mo1 O26 1.974699 1_555
Mo1 O22 1.998627 1_565
Mo1 O35 2.003565 1_555
Mo1 O7 2.078299 1_555
Mo1 O15 2.297386 1_555
Mo2 O14 1.725892 1_545
Mo2 O18 1.972350 1_545
Mo2 O9 1.974699 1_555
Mo2 O34 1.998627 1_545
Mo2 O24 2.003565 1_555
Mo2 O17 2.078299 1_555
Mo2 O21 2.297386 1_555
Mo3 O1 1.725892 1_545
Mo3 O29 1.972350 1_545
Mo3 O2 1.974699 1_555
Mo3 O10 1.998627 1_545
Mo3 O5 2.003565 1_555
Mo3 O3 2.078299 1_555
Mo3 O33 2.297386 1_555
C0 O4 1.243089 1_555
C0 O21 1.289911 1_556
C1 O30 1.243089 1_555
C1 O19 1.289911 1_555
C2 O12 1.243089 1_555
C2 O33 1.289911 1_555
C3 O11 1.236205 1_556
C3 O7 1.308577 1_555
C4 O23 1.236205 1_455
C4 O25 1.308577 1_555
C5 O6 1.236205 1_554
C5 O17 1.308577 1_555
C6 O31 1.243089 1_555
C6 O15 1.289911 1_554
C7 O20 1.236205 1_655
C7 O3 1.308577 1_555
O0 O13 1.473134 1_555
O2 O5 1.473134 1_555
O10 O29 1.473915 1_555
O16 O22 1.473915 1_555
O18 O34 1.473915 1_555
O24 O9 1.473134 1_555
O26 O35 1.473134 1_555
O27 O32 1.473915 1_555
