# generated using pymatgen
data_Ta3Si
_symmetry_space_group_name_H-M   'P 1'
_cell_length_a   5.19595151
_cell_length_b   10.17438924
_cell_length_c   10.17438924
_cell_angle_alpha   90.00000000
_cell_angle_beta   90.00000000
_cell_angle_gamma   90.00000000
_symmetry_Int_Tables_number   1
_chemical_formula_structural   Ta3Si
_chemical_formula_sum   'Ta24 Si8'
_cell_volume   537.87552895
_cell_formula_units_Z   8
loop_
 _symmetry_equiv_pos_site_id
 _symmetry_equiv_pos_as_xyz
  1  'x, y, z'
loop_
 _atom_site_type_symbol
 _atom_site_label
 _atom_site_symmetry_multiplicity
 _atom_site_fract_x
 _atom_site_fract_y
 _atom_site_fract_z
 _atom_site_occupancy
  Ta  Ta0  1  0.52416167  0.89602046  0.76861610  1
  Ta  Ta1  1  0.28127079  0.33596587  0.64953393  1
  Ta  Ta2  1  0.76447498  0.06292215  0.96360889  1
  Ta  Ta3  1  0.71872921  0.83596587  0.14953393  1
  Ta  Ta4  1  0.02416167  0.26861610  0.10397954  1
  Ta  Ta5  1  0.47583833  0.39602046  0.26861610  1
  Ta  Ta6  1  0.23552502  0.93707785  0.03639111  1
  Ta  Ta7  1  0.76447498  0.43707785  0.53639111  1
  Ta  Ta8  1  0.26447498  0.46360889  0.93707785  1
  Ta  Ta9  1  0.78127079  0.14953393  0.66403413  1
  Ta  Ta10  1  0.73552502  0.53639111  0.06292215  1
  Ta  Ta11  1  0.97583833  0.76861610  0.60397954  1
  Ta  Ta12  1  0.97583833  0.73138390  0.89602046  1
  Ta  Ta13  1  0.02416167  0.23138390  0.39602046  1
  Ta  Ta14  1  0.23552502  0.56292215  0.46360889  1
  Ta  Ta15  1  0.21872921  0.64953393  0.16403413  1
  Ta  Ta16  1  0.26447498  0.03639111  0.56292215  1
  Ta  Ta17  1  0.28127079  0.16403413  0.85046607  1
  Ta  Ta18  1  0.21872921  0.85046607  0.33596587  1
  Ta  Ta19  1  0.71872921  0.66403413  0.35046607  1
  Ta  Ta20  1  0.47583833  0.10397954  0.23138390  1
  Ta  Ta21  1  0.73552502  0.96360889  0.43707785  1
  Ta  Ta22  1  0.52416167  0.60397954  0.73138390  1
  Ta  Ta23  1  0.78127079  0.35046607  0.83596587  1
  Si  Si0  1  0.96923901  0.04497470  0.21978414  1
  Si  Si1  1  0.53076099  0.21978414  0.45502530  1
  Si  Si2  1  0.53076099  0.28021586  0.04497470  1
  Si  Si3  1  0.03076099  0.54497470  0.71978414  1
  Si  Si4  1  0.46923901  0.78021586  0.54497470  1
  Si  Si5  1  0.96923901  0.45502530  0.28021586  1
  Si  Si6  1  0.46923901  0.71978414  0.95502530  1
  Si  Si7  1  0.03076099  0.95502530  0.78021586  1
loop_
_geom_bond_atom_site_label_1
_geom_bond_atom_site_label_2
_geom_bond_distance
_geom_bond_site_symmetry_2
Si0 Ta6 2.569267 1_645
Si0 Ta4 2.578217 1_655
Si0 Ta3 2.593702 1_545
Si0 Ta13 2.625591 1_655
Si0 Ta20 2.635682 1_555
Si0 Ta18 2.644668 1_645
Si0 Ta21 2.654767 1_545
Si0 Ta20 2.702435 1_655
Si0 Ta2 2.821131 1_554
Si1 Ta16 2.569267 1_555
Si1 Ta20 2.578217 1_555
Si1 Ta9 2.593702 1_555
Si1 Ta5 2.625591 1_555
Si1 Ta13 2.635682 1_655
Si1 Ta1 2.644668 1_555
Si1 Ta7 2.654767 1_555
Si1 Ta13 2.702435 1_555
Si1 Ta21 2.821131 1_545
Si2 Ta8 2.569267 1_554
Si2 Ta5 2.578217 1_555
Si2 Ta23 2.593702 1_554
Si2 Ta20 2.625591 1_555
Si2 Ta4 2.635682 1_655
Si2 Ta17 2.644668 1_554
Si2 Ta2 2.654767 1_554
Si2 Ta4 2.702435 1_555
Si2 Ta10 2.821131 1_555
Si3 Ta7 2.569267 1_455
Si3 Ta11 2.578217 1_455
Si3 Ta1 2.593702 1_555
Si3 Ta12 2.625591 1_455
Si3 Ta22 2.635682 1_555
Si3 Ta23 2.644668 1_455
Si3 Ta8 2.654767 1_555
Si3 Ta22 2.702435 1_455
Si3 Ta14 2.821131 1_555
Si4 Ta21 2.569267 1_555
Si4 Ta0 2.578217 1_555
Si4 Ta18 2.593702 1_555
Si4 Ta22 2.625591 1_555
Si4 Ta11 2.635682 1_455
Si4 Ta19 2.644668 1_555
Si4 Ta14 2.654767 1_555
Si4 Ta11 2.702435 1_555
Si4 Ta16 2.821131 1_565
Si5 Ta14 2.569267 1_655
Si5 Ta13 2.578217 1_655
Si5 Ta19 2.593702 1_555
Si5 Ta4 2.625591 1_655
Si5 Ta5 2.635682 1_555
Si5 Ta15 2.644668 1_655
Si5 Ta10 2.654767 1_555
Si5 Ta5 2.702435 1_655
Si5 Ta7 2.821131 1_555
Si6 Ta10 2.569267 1_556
Si6 Ta22 2.578217 1_555
Si6 Ta15 2.593702 1_556
Si6 Ta0 2.625591 1_555
Si6 Ta12 2.635682 1_455
Si6 Ta3 2.644668 1_556
Si6 Ta6 2.654767 1_556
Si6 Ta12 2.702435 1_555
Si6 Ta8 2.821131 1_555
Si7 Ta2 2.569267 1_465
Si7 Ta12 2.578217 1_455
Si7 Ta17 2.593702 1_565
Si7 Ta11 2.625591 1_455
Si7 Ta0 2.635682 1_555
Si7 Ta9 2.644668 1_465
Si7 Ta16 2.654767 1_565
Si7 Ta0 2.702435 1_455
Si7 Ta6 2.821131 1_556
