# generated using pymatgen
data_Te10Mo3I10
_symmetry_space_group_name_H-M   'P 1'
_cell_length_a   11.00912794
_cell_length_b   11.02589667
_cell_length_c   17.88197874
_cell_angle_alpha   84.27788142
_cell_angle_beta   76.17616128
_cell_angle_gamma   67.22970743
_symmetry_Int_Tables_number   1
_chemical_formula_structural   Te10Mo3I10
_chemical_formula_sum   'Te20 Mo6 I20'
_cell_volume   1943.40883186
_cell_formula_units_Z   2
loop_
 _symmetry_equiv_pos_site_id
 _symmetry_equiv_pos_as_xyz
  1  'x, y, z'
loop_
 _atom_site_type_symbol
 _atom_site_label
 _atom_site_symmetry_multiplicity
 _atom_site_fract_x
 _atom_site_fract_y
 _atom_site_fract_z
 _atom_site_occupancy
  Te  Te0  1  0.94216108  0.76320825  0.72547925  1
  Te  Te1  1  0.05783892  0.23679175  0.27452075  1
  Te  Te2  1  0.71934836  0.48819857  0.71856857  1
  Te  Te3  1  0.28065164  0.51180143  0.28143143  1
  Te  Te4  1  0.87673390  0.57127237  0.59994499  1
  Te  Te5  1  0.12326610  0.42872763  0.40005501  1
  Te  Te6  1  0.82328441  0.47041400  0.89987263  1
  Te  Te7  1  0.17671559  0.52958600  0.10012737  1
  Te  Te8  1  0.05078784  0.52649951  0.87349602  1
  Te  Te9  1  0.94921216  0.47350049  0.12650398  1
  Te  Te10  1  0.53423324  0.74997107  0.85979505  1
  Te  Te11  1  0.46576676  0.25002893  0.14020495  1
  Te  Te12  1  0.60374697  0.96317298  0.82151408  1
  Te  Te13  1  0.39625303  0.03682702  0.17848592  1
  Te  Te14  1  0.66212852  0.96862405  0.62730775  1
  Te  Te15  1  0.33787148  0.03137595  0.37269225  1
  Te  Te16  1  0.18495503  0.43338559  0.64461958  1
  Te  Te17  1  0.81504497  0.56661441  0.35538042  1
  Te  Te18  1  0.92506215  0.84450728  0.92827407  1
  Te  Te19  1  0.07493785  0.15549272  0.07172593  1
  Mo  Mo0  1  0.71071035  0.74232831  0.72081193  1
  Mo  Mo1  1  0.28928965  0.25767169  0.27918807  1
  Mo  Mo2  1  0.93610174  0.52281059  0.75036596  1
  Mo  Mo3  1  0.06389826  0.47718941  0.24963404  1
  Mo  Mo4  1  0.79411483  0.72550662  0.86070152  1
  Mo  Mo5  1  0.20588517  0.27449338  0.13929848  1
  I  I0  1  0.47897222  0.81672018  0.64985171  1
  I  I1  1  0.52102778  0.18327982  0.35014829  1
  I  I2  1  0.79611667  0.89821551  0.47571898  1
  I  I3  1  0.20388333  0.10178449  0.52428102  1
  I  I4  1  0.82254561  0.10783579  0.65119510  1
  I  I5  1  0.17745439  0.89216421  0.34880490  1
  I  I6  1  0.07445124  0.23706148  0.73643755  1
  I  I7  1  0.92554876  0.76293852  0.26356245  1
  I  I8  1  0.39108181  0.38194729  0.72272010  1
  I  I9  1  0.60891819  0.61805271  0.27727990  1
  I  I10  1  0.22790000  0.64689976  0.55468174  1
  I  I11  1  0.77210000  0.35310024  0.44531826  1
  I  I12  1  0.68864724  0.78334061  0.02496103  1
  I  I13  1  0.31135276  0.21665939  0.97503897  1
  I  I14  1  0.78229304  0.11633121  0.92665174  1
  I  I15  1  0.21770696  0.88366879  0.07334826  1
  I  I16  1  0.16370967  0.84637615  0.82210346  1
  I  I17  1  0.83629033  0.15362385  0.17789654  1
  I  I18  1  0.53800541  0.44457561  0.88661455  1
  I  I19  1  0.46199459  0.55542439  0.11338545  1
loop_
_geom_bond_atom_site_label_1
_geom_bond_atom_site_label_2
_geom_bond_distance
_geom_bond_site_symmetry_2
Te2 Te4 2.724966 1_555
Te3 Te5 2.724966 1_555
Te6 Te8 2.730237 1_655
Te7 Te9 2.730237 1_455
Te10 Te12 2.720583 1_555
Te11 Te13 2.720583 1_555
Te12 Te14 3.376187 1_555
Te13 Te15 3.376187 1_555
Mo0 Te0 2.666866 1_555
Mo0 Te10 2.750647 1_555
Mo0 Te2 2.770601 1_555
Mo0 Te4 2.797485 1_555
Mo0 Te14 2.805317 1_555
Mo0 Mo4 2.829897 1_555
Mo0 Mo2 2.831487 1_555
Mo0 Te12 2.863584 1_555
Mo1 Te1 2.666866 1_555
Mo1 Te11 2.750647 1_555
Mo1 Te3 2.770601 1_555
Mo1 Te5 2.797485 1_555
Mo1 Te15 2.805317 1_555
Mo1 Mo5 2.829897 1_555
Mo1 Mo3 2.831487 1_555
Mo1 Te13 2.863584 1_555
Mo2 Te0 2.667516 1_555
Mo2 Te2 2.749509 1_555
Mo2 Te6 2.772092 1_555
Mo2 Te8 2.798189 1_655
Mo2 Te16 2.803345 1_655
Mo2 Mo4 2.834128 1_555
Mo2 Te4 2.868978 1_555
Mo3 Te1 2.667516 1_555
Mo3 Te3 2.749509 1_555
Mo3 Te7 2.772092 1_555
Mo3 Te9 2.798189 1_455
Mo3 Te17 2.803345 1_455
Mo3 Mo5 2.834128 1_555
Mo3 Te5 2.868978 1_555
Mo4 Te0 2.667742 1_555
Mo4 Te6 2.742279 1_555
Mo4 Te10 2.771757 1_555
Mo4 Te12 2.799062 1_555
Mo4 Te18 2.805827 1_555
Mo4 Te8 2.874222 1_655
Mo5 Te1 2.667742 1_555
Mo5 Te7 2.742279 1_555
Mo5 Te11 2.771757 1_555
Mo5 Te13 2.799062 1_555
Mo5 Te19 2.805827 1_555
Mo5 Te9 2.874222 1_455
I0 Mo0 2.917421 1_555
I0 Te14 3.020709 1_555
I1 Mo1 2.917421 1_555
I1 Te15 3.020709 1_555
I2 Te14 2.783684 1_555
I3 Te15 2.783684 1_555
I4 Te14 2.871760 1_545
I5 Te15 2.871760 1_565
I6 Mo2 2.927288 1_455
I6 Te16 3.039195 1_555
I7 Mo3 2.927288 1_655
I7 Te17 3.039195 1_555
I8 Te16 2.789632 1_555
I9 Te17 2.789632 1_555
I10 Te16 2.845251 1_555
I11 Te17 2.845251 1_555
I12 Mo4 2.924553 1_554
I12 Te18 3.032175 1_554
I13 Mo5 2.924553 1_556
I13 Te19 3.032175 1_556
I14 Te18 2.794977 1_545
I15 Te19 2.794977 1_565
I16 Te18 2.856228 1_455
I17 Te19 2.856228 1_655
I18 Te2 3.291695 1_555
I18 Te6 3.326123 1_555
I18 Te10 3.339073 1_555
I19 Te3 3.291695 1_555
I19 Te7 3.326123 1_555
I19 Te11 3.339073 1_555
