# generated using pymatgen
data_HgAs4(S2I)2
_symmetry_space_group_name_H-M   'P 1'
_cell_length_a   15.89930400
_cell_length_b   10.09952500
_cell_length_c   12.51349208
_cell_angle_alpha   51.75416999
_cell_angle_beta   90.00000000
_cell_angle_gamma   90.00000000
_symmetry_Int_Tables_number   1
_chemical_formula_structural   HgAs4(S2I)2
_chemical_formula_sum   'Hg4 As16 S16 I8'
_cell_volume   1578.07435229
_cell_formula_units_Z   4
loop_
 _symmetry_equiv_pos_site_id
 _symmetry_equiv_pos_as_xyz
  1  'x, y, z'
loop_
 _atom_site_type_symbol
 _atom_site_label
 _atom_site_symmetry_multiplicity
 _atom_site_fract_x
 _atom_site_fract_y
 _atom_site_fract_z
 _atom_site_occupancy
  Hg  Hg0  1  0.95444400  0.21104800  0.50031800  1
  Hg  Hg1  1  0.04555600  0.78895200  0.49968200  1
  Hg  Hg2  1  0.54555600  0.21104800  0.00031800  1
  Hg  Hg3  1  0.45444400  0.78895200  0.99968200  1
  As  As0  1  0.04782600  0.13290800  0.08980900  1
  As  As1  1  0.15378100  0.28495800  0.78606300  1
  As  As2  1  0.53256900  0.38619800  0.37615700  1
  As  As3  1  0.03256900  0.61380200  0.12384300  1
  As  As4  1  0.54782600  0.86709200  0.41019100  1
  As  As5  1  0.31474200  0.46904700  0.36439400  1
  As  As6  1  0.45217400  0.13290800  0.58980900  1
  As  As7  1  0.68525800  0.53095300  0.63560600  1
  As  As8  1  0.81474200  0.53095300  0.13560600  1
  As  As9  1  0.18525800  0.46904700  0.86439400  1
  As  As10  1  0.84621900  0.71504200  0.21393700  1
  As  As11  1  0.46743100  0.61380200  0.62384300  1
  As  As12  1  0.95217400  0.86709200  0.91019100  1
  As  As13  1  0.65378100  0.71504200  0.71393700  1
  As  As14  1  0.96743100  0.38619800  0.87615700  1
  As  As15  1  0.34621900  0.28495800  0.28606300  1
  S  S0  1  0.55752200  0.40255900  0.68445500  1
  S  S1  1  0.87854300  0.95800700  0.00857200  1
  S  S2  1  0.94247800  0.40255900  0.18445500  1
  S  S3  1  0.44247800  0.59744100  0.31554500  1
  S  S4  1  0.65686600  0.72237500  0.41196700  1
  S  S5  1  0.84313400  0.72237500  0.91196700  1
  S  S6  1  0.98225300  0.63754000  0.28016400  1
  S  S7  1  0.01774700  0.36246000  0.71983600  1
  S  S8  1  0.05752200  0.59744100  0.81554500  1
  S  S9  1  0.15686600  0.27762500  0.08803300  1
  S  S10  1  0.37854300  0.04199300  0.49142800  1
  S  S11  1  0.48225300  0.36246000  0.21983600  1
  S  S12  1  0.34313400  0.27762500  0.58803300  1
  S  S13  1  0.62145700  0.95800700  0.50857200  1
  S  S14  1  0.12145700  0.04199300  0.99142800  1
  S  S15  1  0.51774700  0.63754000  0.78016400  1
  I  I0  1  0.61575300  0.87426900  0.97121400  1
  I  I1  1  0.88424700  0.87426900  0.47121400  1
  I  I2  1  0.11575300  0.12573100  0.52878600  1
  I  I3  1  0.38424700  0.12573100  0.02878600  1
  I  I4  1  0.20437400  0.74469000  0.46180000  1
  I  I5  1  0.29562600  0.74469000  0.96180000  1
  I  I6  1  0.70437400  0.25531000  0.03820000  1
  I  I7  1  0.79562600  0.25531000  0.53820000  1
loop_
_geom_bond_atom_site_label_1
_geom_bond_atom_site_label_2
_geom_bond_distance
_geom_bond_site_symmetry_2
Hg0 I7 2.657631 1_555
Hg0 I2 2.658387 1_655
Hg1 I4 2.657631 1_555
Hg1 I1 2.658387 1_455
Hg2 I6 2.657631 1_555
Hg2 I3 2.658387 1_555
Hg3 I5 2.657631 1_555
Hg3 I0 2.658387 1_555
As0 S9 2.258772 1_555
As0 S14 2.264656 1_554
As1 S14 2.254382 1_555
As1 S7 2.274700 1_555
As2 S11 2.259311 1_555
As2 S3 2.274913 1_555
As3 S6 2.259311 1_455
As3 S2 2.274913 1_455
As4 S4 2.258772 1_555
As4 S13 2.264656 1_555
As5 S12 2.252694 1_555
As5 S3 2.279997 1_555
As6 S12 2.258772 1_555
As6 S10 2.264656 1_555
As7 S4 2.252694 1_555
As7 S0 2.279997 1_555
As8 S5 2.252694 1_554
As8 S2 2.279997 1_555
As9 S9 2.252694 1_556
As9 S8 2.279997 1_555
As10 S1 2.254382 1_555
As10 S6 2.274700 1_555
As11 S15 2.259311 1_555
As11 S0 2.274913 1_555
As12 S5 2.258772 1_555
As12 S1 2.264656 1_556
As13 S13 2.254382 1_555
As13 S15 2.274700 1_555
As14 S7 2.259311 1_655
As14 S8 2.274913 1_655
As15 S10 2.254382 1_555
As15 S11 2.274700 1_555
