# generated using pymatgen
data_Yb(NiP)2
_symmetry_space_group_name_H-M   'P 1'
_cell_length_a   5.36787597
_cell_length_b   5.36787597
_cell_length_c   5.36787597
_cell_angle_alpha   137.65032020
_cell_angle_beta   137.65032020
_cell_angle_gamma   61.43897358
_symmetry_Int_Tables_number   1
_chemical_formula_structural   Yb(NiP)2
_chemical_formula_sum   'Yb1 Ni2 P2'
_cell_volume   69.39614954
_cell_formula_units_Z   1
loop_
 _symmetry_equiv_pos_site_id
 _symmetry_equiv_pos_as_xyz
  1  'x, y, z'
loop_
 _atom_site_type_symbol
 _atom_site_label
 _atom_site_symmetry_multiplicity
 _atom_site_fract_x
 _atom_site_fract_y
 _atom_site_fract_z
 _atom_site_occupancy
  Yb  Yb0  1  0.00000000  0.00000000  0.00000000  1
  Ni  Ni0  1  0.25000000  0.75000000  0.50000000  1
  Ni  Ni1  1  0.75000000  0.25000000  0.50000000  1
  P  P0  1  0.37770900  0.37770900  0.00000000  1
  P  P1  1  0.62229100  0.62229100  0.00000000  1
loop_
_geom_bond_atom_site_label_1
_geom_bond_atom_site_label_2
_geom_bond_distance
_geom_bond_site_symmetry_2
Ni0 P1 2.269098 1_556
Ni0 P1 2.269098 1_455
Ni0 P0 2.269098 1_555
Ni0 P0 2.269098 1_566
Ni0 Yb0 3.013852 1_565
Ni0 Yb0 3.013852 1_555
Ni0 Yb0 3.013852 1_566
Ni0 Yb0 3.013852 1_666
Ni1 P1 2.269098 1_556
Ni1 P0 2.269098 1_555
Ni1 P1 2.269098 1_545
Ni1 P0 2.269098 1_656
Ni1 Yb0 3.013852 1_655
Ni1 Yb0 3.013852 1_656
Ni1 Yb0 3.013852 1_555
Ni1 Yb0 3.013852 1_666
P0 P1 2.257320 1_555
P0 Yb0 2.965298 1_655
P0 Yb0 2.965298 1_565
P0 Yb0 2.965298 1_554
P0 Yb0 2.965298 1_666
P1 Yb0 2.965298 1_554
P1 Yb0 2.965298 1_666
P1 Yb0 2.965298 1_655
P1 Yb0 2.965298 1_565
