# generated using pymatgen
data_CoAu2(CN)4
_symmetry_space_group_name_H-M   'P 1'
_cell_length_a   8.65421248
_cell_length_b   8.65421248
_cell_length_c   20.22403900
_cell_angle_alpha   90.00000000
_cell_angle_beta   90.00000000
_cell_angle_gamma   120.00000370
_symmetry_Int_Tables_number   1
_chemical_formula_structural   CoAu2(CN)4
_chemical_formula_sum   'Co6 Au12 C24 N24'
_cell_volume   1311.75768655
_cell_formula_units_Z   6
loop_
 _symmetry_equiv_pos_site_id
 _symmetry_equiv_pos_as_xyz
  1  'x, y, z'
loop_
 _atom_site_type_symbol
 _atom_site_label
 _atom_site_symmetry_multiplicity
 _atom_site_fract_x
 _atom_site_fract_y
 _atom_site_fract_z
 _atom_site_occupancy
  Co  Co0  1  0.50000000  0.50000000  0.29238400  1
  Co  Co1  1  0.00000000  0.50000000  0.70761600  1
  Co  Co2  1  0.50000000  0.00000000  0.37428300  1
  Co  Co3  1  0.00000000  0.50000000  0.95905000  1
  Co  Co4  1  0.50000000  0.50000000  0.04095000  1
  Co  Co5  1  0.50000000  0.00000000  0.62571700  1
  Au  Au0  1  0.99845800  0.68291700  0.45971000  1
  Au  Au1  1  0.68445900  0.68291700  0.54029000  1
  Au  Au2  1  0.99845800  0.31554100  0.20695700  1
  Au  Au3  1  0.68291700  0.68445900  0.79304300  1
  Au  Au4  1  0.68445900  0.00154200  0.12637700  1
  Au  Au5  1  0.00154200  0.68445900  0.20695700  1
  Au  Au6  1  0.00154200  0.31708300  0.45971000  1
  Au  Au7  1  0.31554100  0.31708300  0.54029000  1
  Au  Au8  1  0.68291700  0.99845800  0.87362300  1
  Au  Au9  1  0.31554100  0.99845800  0.12637700  1
  Au  Au10  1  0.31708300  0.00154200  0.87362300  1
  Au  Au11  1  0.31708300  0.31554100  0.79304300  1
  C  C0  1  0.81493900  0.60308900  0.38863900  1
  C  C1  1  0.21429600  0.81338200  0.80415900  1
  C  C2  1  0.81338200  0.59908600  0.13749300  1
  C  C3  1  0.81338200  0.21429600  0.52917400  1
  C  C4  1  0.60308900  0.78815100  0.72197200  1
  C  C5  1  0.78815100  0.18506100  0.05530600  1
  C  C6  1  0.18661800  0.40091400  0.13749300  1
  C  C7  1  0.21184900  0.39691100  0.61136100  1
  C  C8  1  0.39691100  0.18506100  0.94469400  1
  C  C9  1  0.18506100  0.78815100  0.27802800  1
  C  C10  1  0.78570400  0.59908600  0.86250700  1
  C  C11  1  0.59908600  0.78570400  0.47082600  1
  C  C12  1  0.60308900  0.81493900  0.94469400  1
  C  C13  1  0.40091400  0.21429600  0.47082600  1
  C  C14  1  0.59908600  0.81338200  0.19584100  1
  C  C15  1  0.78815100  0.60308900  0.61136100  1
  C  C16  1  0.21429600  0.40091400  0.86250700  1
  C  C17  1  0.40091400  0.18661800  0.19584100  1
  C  C18  1  0.81493900  0.21184900  0.27802800  1
  C  C19  1  0.78570400  0.18661800  0.80415900  1
  C  C20  1  0.21184900  0.81493900  0.05530600  1
  C  C21  1  0.18506100  0.39691100  0.38863900  1
  C  C22  1  0.18661800  0.78570400  0.52917400  1
  C  C23  1  0.39691100  0.21184900  0.72197200  1
  N  N0  1  0.56128700  0.85927800  0.68237200  1
  N  N1  1  0.43871300  0.14072200  0.68237200  1
  N  N2  1  0.85927800  0.56128700  0.65096200  1
  N  N3  1  0.29898000  0.44387900  0.09759100  1
  N  N4  1  0.70102000  0.14489900  0.56907600  1
  N  N5  1  0.70102000  0.55612100  0.09759100  1
  N  N6  1  0.14072200  0.43871300  0.65096200  1
  N  N7  1  0.55612100  0.85510100  0.43092400  1
  N  N8  1  0.14072200  0.70201000  0.01570500  1
  N  N9  1  0.44387900  0.29898000  0.23574300  1
  N  N10  1  0.85510100  0.55612100  0.90240900  1
  N  N11  1  0.14489900  0.44387900  0.90240900  1
  N  N12  1  0.55612100  0.70102000  0.23574300  1
  N  N13  1  0.70201000  0.14072200  0.31762800  1
  N  N14  1  0.29799000  0.43871300  0.34903800  1
  N  N15  1  0.44387900  0.14489900  0.43092400  1
  N  N16  1  0.85510100  0.29898000  0.76425700  1
  N  N17  1  0.70201000  0.56128700  0.34903800  1
  N  N18  1  0.85927800  0.29799000  0.01570500  1
  N  N19  1  0.43871300  0.29799000  0.98429500  1
  N  N20  1  0.29898000  0.85510100  0.56907600  1
  N  N21  1  0.56128700  0.70201000  0.98429500  1
  N  N22  1  0.14489900  0.70102000  0.76425700  1
  N  N23  1  0.29799000  0.85927800  0.31762800  1
loop_
_geom_bond_atom_site_label_1
_geom_bond_atom_site_label_2
_geom_bond_distance
_geom_bond_site_symmetry_2
Co0 N17 1.929558 1_555
Co0 N14 1.929558 1_555
Co0 N9 1.931218 1_555
Co0 N12 1.931218 1_555
Co1 N6 1.929552 1_555
Co1 N2 1.929552 1_455
Co1 N22 1.931218 1_555
Co1 N16 1.931218 1_455
Co2 N13 1.929569 1_555
Co2 N23 1.929569 1_545
Co2 N7 1.931218 1_545
Co2 N15 1.931218 1_555
Co3 N8 1.929569 1_556
Co3 N18 1.929569 1_456
Co3 N10 1.931218 1_455
Co3 N11 1.931218 1_555
Co4 N19 1.929570 1_554
Co4 N21 1.929570 1_554
Co4 N5 1.931218 1_555
Co4 N3 1.931218 1_555
Co5 N0 1.929564 1_545
Co5 N1 1.929564 1_555
Co5 N4 1.931218 1_555
Co5 N20 1.931218 1_545
Au0 C22 1.991976 1_655
Au0 C0 1.992092 1_555
Au1 C11 1.991976 1_555
Au1 C15 1.992097 1_555
Au2 C6 1.991976 1_655
Au2 C18 1.992092 1_555
Au3 C10 1.991976 1_555
Au3 C4 1.992097 1_555
Au4 C14 1.991976 1_545
Au4 C5 1.992092 1_555
Au5 C2 1.991976 1_455
Au5 C9 1.992092 1_555
Au6 C3 1.991976 1_455
Au6 C21 1.992092 1_555
Au7 C13 1.991976 1_555
Au7 C7 1.992097 1_555
Au8 C19 1.991976 1_565
Au8 C12 1.992092 1_555
Au9 C17 1.991976 1_565
Au9 C20 1.992092 1_555
Au10 C1 1.991976 1_545
Au10 C8 1.992092 1_555
Au11 C16 1.991976 1_555
Au11 C23 1.992097 1_555
C0 N17 1.172128 1_555
C1 N22 1.171954 1_555
C2 N5 1.171954 1_555
C3 N4 1.171954 1_555
C4 N0 1.172114 1_555
C5 N18 1.172128 1_555
C6 N3 1.171954 1_555
C7 N6 1.172128 1_555
C8 N19 1.172128 1_555
C9 N23 1.172114 1_555
C10 N10 1.171954 1_555
C11 N7 1.171954 1_555
C12 N21 1.172128 1_555
C13 N15 1.171954 1_555
C14 N12 1.171954 1_555
C15 N2 1.172128 1_555
C16 N11 1.171954 1_555
C17 N9 1.171954 1_555
C18 N13 1.172114 1_555
C19 N16 1.171954 1_555
C20 N8 1.172128 1_555
C21 N14 1.172128 1_555
C22 N20 1.171954 1_555
C23 N1 1.172114 1_555
