# generated using pymatgen
data_Ca2MnSbO6
_symmetry_space_group_name_H-M   'P 1'
_cell_length_a   5.68607388
_cell_length_b   7.71830200
_cell_length_c   11.18897982
_cell_angle_alpha   89.99998282
_cell_angle_beta   93.86079458
_cell_angle_gamma   89.99997534
_symmetry_Int_Tables_number   1
_chemical_formula_structural   Ca2MnSbO6
_chemical_formula_sum   'Ca8 Mn4 Sb4 O24'
_cell_volume   489.93452213
_cell_formula_units_Z   4
loop_
 _symmetry_equiv_pos_site_id
 _symmetry_equiv_pos_as_xyz
  1  'x, y, z'
loop_
 _atom_site_type_symbol
 _atom_site_label
 _atom_site_symmetry_multiplicity
 _atom_site_fract_x
 _atom_site_fract_y
 _atom_site_fract_z
 _atom_site_occupancy
  Ca  Ca0  1  0.56051000  0.75000000  0.26064800  1
  Ca  Ca1  1  0.56051000  0.75000000  0.76064900  1
  Ca  Ca2  1  0.43948800  0.25000000  0.23935100  1
  Ca  Ca3  1  0.43948800  0.25000000  0.73935000  1
  Ca  Ca4  1  0.03846500  0.75000000  0.00396400  1
  Ca  Ca5  1  0.03847400  0.75000000  0.50397900  1
  Ca  Ca6  1  0.96153400  0.25000000  0.49603500  1
  Ca  Ca7  1  0.96152400  0.25000000  0.99601900  1
  Mn  Mn0  1  0.00002800  0.50000500  0.75001600  1
  Mn  Mn1  1  0.00001000  0.00000000  0.75000900  1
  Mn  Mn2  1  0.99999500  0.50000400  0.24999800  1
  Mn  Mn3  1  0.99999900  0.99998500  0.25000200  1
  Sb  Sb0  1  0.50000000  0.50000200  0.99999700  1
  Sb  Sb1  1  0.49999800  0.49999900  0.50000100  1
  Sb  Sb2  1  0.50000000  0.99999900  0.99999700  1
  Sb  Sb3  1  0.49999800  0.00000200  0.50000200  1
  O  O0  1  0.54078300  0.25000000  0.44744600  1
  O  O1  1  0.54078300  0.25000000  0.94744600  1
  O  O2  1  0.45921500  0.75000000  0.05255200  1
  O  O3  1  0.45921500  0.75000000  0.55255300  1
  O  O4  1  0.96318000  0.75000000  0.20841000  1
  O  O5  1  0.96318600  0.75000000  0.70841100  1
  O  O6  1  0.03681700  0.25000000  0.29158800  1
  O  O7  1  0.03681300  0.25000000  0.79158800  1
  O  O8  1  0.70284000  0.45096500  0.15122100  1
  O  O9  1  0.70284200  0.45096400  0.65122500  1
  O  O10  1  0.29715800  0.95096600  0.34877800  1
  O  O11  1  0.29715600  0.95096400  0.84877400  1
  O  O12  1  0.70284000  0.04903500  0.15122100  1
  O  O13  1  0.70284100  0.04903600  0.65122500  1
  O  O14  1  0.29715900  0.54903500  0.34877800  1
  O  O15  1  0.29715700  0.54903600  0.84877400  1
  O  O16  1  0.22072300  0.05127400  0.09020300  1
  O  O17  1  0.22071900  0.05127500  0.59020300  1
  O  O18  1  0.77927500  0.55127400  0.40979600  1
  O  O19  1  0.77928000  0.55127500  0.90979500  1
  O  O20  1  0.22072300  0.44872600  0.09020300  1
  O  O21  1  0.22071900  0.44872600  0.59020300  1
  O  O22  1  0.77927500  0.94872600  0.40979600  1
  O  O23  1  0.77927900  0.94872600  0.90979500  1
loop_
_geom_bond_atom_site_label_1
_geom_bond_atom_site_label_2
_geom_bond_distance
_geom_bond_site_symmetry_2
Ca0 O2 2.360616 1_555
Ca0 O4 2.400868 1_555
Ca0 O14 2.412355 1_555
Ca0 O10 2.412363 1_555
Ca0 O18 2.530877 1_555
Ca0 O22 2.530878 1_555
Ca0 O12 2.759449 1_565
Ca0 O8 2.759449 1_555
Ca1 O3 2.360616 1_555
Ca1 O5 2.400901 1_555
Ca1 O15 2.412332 1_555
Ca1 O11 2.412335 1_555
Ca1 O19 2.530871 1_555
Ca1 O23 2.530874 1_555
Ca1 O13 2.759442 1_565
Ca1 O9 2.759444 1_555
Ca2 O0 2.360605 1_555
Ca2 O6 2.400870 1_555
Ca2 O12 2.412358 1_555
Ca2 O8 2.412358 1_555
Ca2 O20 2.530877 1_555
Ca2 O16 2.530878 1_555
Ca2 O10 2.759443 1_545
Ca2 O14 2.759447 1_555
Ca3 O1 2.360616 1_555
Ca3 O7 2.400895 1_555
Ca3 O13 2.412331 1_555
Ca3 O9 2.412335 1_555
Ca3 O17 2.530877 1_555
Ca3 O21 2.530880 1_555
Ca3 O15 2.759442 1_555
Ca3 O11 2.759444 1_545
Ca4 O19 2.329293 1_454
Ca4 O23 2.329301 1_454
Ca4 O4 2.355413 1_455
Ca4 O2 2.417449 1_555
Ca4 O20 2.697690 1_555
Ca4 O16 2.697691 1_565
Ca4 O11 2.815789 1_554
Ca4 O15 2.815793 1_554
Ca5 O22 2.329409 1_455
Ca5 O18 2.329411 1_455
Ca5 O5 2.355263 1_455
Ca5 O3 2.417374 1_555
Ca5 O21 2.697608 1_555
Ca5 O17 2.697616 1_565
Ca5 O14 2.815855 1_555
Ca5 O10 2.815856 1_555
Ca6 O17 2.329288 1_655
Ca6 O21 2.329294 1_655
Ca6 O6 2.355421 1_655
Ca6 O0 2.417456 1_555
Ca6 O18 2.697692 1_555
Ca6 O22 2.697693 1_545
Ca6 O9 2.815793 1_555
Ca6 O13 2.815796 1_555
Ca7 O16 2.329414 1_656
Ca7 O20 2.329415 1_656
Ca7 O7 2.355253 1_655
Ca7 O1 2.417372 1_555
Ca7 O23 2.697609 1_545
Ca7 O19 2.697612 1_555
Ca7 O8 2.815859 1_556
Ca7 O12 2.815859 1_556
Mn0 O15 1.991793 1_555
Mn0 O9 1.992254 1_455
Mn0 O7 1.992591 1_555
Mn0 O5 1.992629 1_455
Mn0 O19 2.287002 1_455
Mn0 O21 2.287131 1_555
Mn1 O11 1.991917 1_545
Mn1 O13 1.992129 1_455
Mn1 O7 1.992581 1_555
Mn1 O5 1.992640 1_445
Mn1 O23 2.287014 1_445
Mn1 O17 2.287123 1_555
Mn2 O8 1.992030 1_555
Mn2 O14 1.992077 1_655
Mn2 O4 1.992580 1_555
Mn2 O6 1.992648 1_655
Mn2 O18 2.287081 1_555
Mn2 O20 2.287091 1_655
Mn3 O10 1.992013 1_655
Mn3 O12 1.992087 1_565
Mn3 O4 1.992510 1_555
Mn3 O6 1.992719 1_665
Mn3 O22 2.287043 1_555
Mn3 O16 2.287129 1_665
O0 Sb3 2.034981 1_555
O0 Sb1 2.034985 1_555
O1 Sb2 2.034985 1_545
O1 Sb0 2.034992 1_555
O2 Sb0 2.034978 1_554
O2 Sb2 2.034985 1_554
O3 Sb1 2.034988 1_555
O3 Sb3 2.034992 1_565
O8 Sb0 2.018340 1_554
O9 Sb1 2.018349 1_555
O10 Sb3 2.018339 1_565
O11 Sb2 2.018341 1_555
O12 Sb2 2.018339 1_544
O13 Sb3 2.018336 1_555
O14 Sb1 2.018327 1_555
O15 Sb0 2.018336 1_555
O16 Sb2 1.978101 1_544
O17 Sb3 1.978076 1_555
O18 Sb1 1.978095 1_555
O19 Sb0 1.978087 1_555
O20 Sb0 1.978103 1_554
O21 Sb1 1.978083 1_555
O22 Sb3 1.978103 1_565
O23 Sb2 1.978083 1_555
