# generated using pymatgen
data_Cd2Ru2O7
_symmetry_space_group_name_H-M   'P 1'
_cell_length_a   7.17497088
_cell_length_b   7.17510604
_cell_length_c   7.18165261
_cell_angle_alpha   59.96983732
_cell_angle_beta   59.96919305
_cell_angle_gamma   60.06300123
_symmetry_Int_Tables_number   1
_chemical_formula_structural   Cd2Ru2O7
_chemical_formula_sum   'Cd4 Ru4 O14'
_cell_volume   261.43501829
_cell_formula_units_Z   2
loop_
 _symmetry_equiv_pos_site_id
 _symmetry_equiv_pos_as_xyz
  1  'x, y, z'
loop_
 _atom_site_type_symbol
 _atom_site_label
 _atom_site_symmetry_multiplicity
 _atom_site_fract_x
 _atom_site_fract_y
 _atom_site_fract_z
 _atom_site_occupancy
  Cd  Cd0  1  0.12499975  0.62499985  0.12499996  1
  Cd  Cd1  1  0.12499931  0.12500056  0.62500002  1
  Cd  Cd2  1  0.62499990  0.12500016  0.12499950  1
  Cd  Cd3  1  0.12499972  0.12500042  0.12499964  1
  Ru  Ru0  1  0.62499845  0.12500305  0.62500071  1
  Ru  Ru1  1  0.62500163  0.62499950  0.12499896  1
  Ru  Ru2  1  0.12499971  0.62499753  0.62500269  1
  Ru  Ru3  1  0.62500056  0.62499711  0.62500059  1
  O  O0  1  0.70030331  0.70030342  0.29969650  1
  O  O1  1  0.94255013  0.55745296  0.55745791  1
  O  O2  1  0.55745253  0.94256504  0.94252369  1
  O  O3  1  0.95028832  0.95031508  0.54969772  1
  O  O4  1  0.94255034  0.55745245  0.94253864  1
  O  O5  1  0.55745329  0.94256518  0.55745789  1
  O  O6  1  0.30744951  0.69254829  0.30746048  1
  O  O7  1  0.30744922  0.69254753  0.69254189  1
  O  O8  1  0.69254994  0.30743568  0.30747652  1
  O  O9  1  0.69254620  0.30743479  0.69254169  1
  O  O10  1  0.54969641  0.54969659  0.95030363  1
  O  O11  1  0.29971187  0.29968526  0.70030117  1
  O  O12  1  0.24999728  0.24999566  0.25000443  1
  O  O13  1  0.00000266  0.00000390  -0.00000424  1
loop_
_geom_bond_atom_site_label_1
_geom_bond_atom_site_label_2
_geom_bond_distance
_geom_bond_site_symmetry_2
Cd0 O13 2.197658 1_565
Cd0 O12 2.197659 1_555
Cd0 O0 2.521891 1_455
Cd0 O10 2.521893 1_554
Cd0 O7 2.579052 1_554
Cd0 O1 2.579053 1_455
Cd0 O4 2.579053 1_454
Cd0 O6 2.579055 1_555
Cd1 O12 2.197537 1_555
Cd1 O13 2.197538 1_556
Cd1 O11 2.521900 1_555
Cd1 O3 2.521901 1_445
Cd1 O9 2.579060 1_455
Cd1 O5 2.579065 1_545
Cd1 O1 2.579113 1_455
Cd1 O7 2.579117 1_545
Cd2 O12 2.197594 1_555
Cd2 O13 2.197595 1_655
Cd2 O10 2.521959 1_554
Cd2 O0 2.521961 1_545
Cd2 O9 2.579064 1_554
Cd2 O2 2.579065 1_544
Cd2 O5 2.579067 1_545
Cd2 O8 2.579088 1_555
Cd3 O13 2.197547 1_555
Cd3 O12 2.197548 1_555
Cd3 O3 2.521899 1_445
Cd3 O11 2.521901 1_554
Cd3 O8 2.579044 1_455
Cd3 O2 2.579058 1_544
Cd3 O4 2.579112 1_454
Cd3 O6 2.579113 1_545
O0 Ru1 1.950967 1_555
O0 Ru3 1.950969 1_555
O1 Ru2 1.920409 1_655
O1 Ru3 1.920494 1_555
O2 Ru0 1.920323 1_565
O2 Ru1 1.920645 1_556
O3 Ru0 1.950915 1_565
O3 Ru2 1.951130 1_655
O4 Ru2 1.920393 1_655
O4 Ru1 1.920486 1_556
O5 Ru0 1.920337 1_565
O5 Ru3 1.920662 1_555
O6 Ru2 1.920426 1_555
O6 Ru1 1.920505 1_555
O7 Ru2 1.920407 1_555
O7 Ru3 1.920499 1_555
O8 Ru0 1.920321 1_555
O8 Ru1 1.920640 1_555
O9 Ru0 1.920300 1_555
O9 Ru3 1.920629 1_555
O10 Ru1 1.950966 1_556
O10 Ru3 1.950968 1_555
O11 Ru0 1.950890 1_555
O11 Ru2 1.951103 1_555
