# generated using pymatgen
data_Pt(OF3)2
_symmetry_space_group_name_H-M   'P 1'
_cell_length_a   8.73705135
_cell_length_b   8.73705135
_cell_length_c   8.73705135
_cell_angle_alpha   109.47122063
_cell_angle_beta   109.47122063
_cell_angle_gamma   109.47122063
_symmetry_Int_Tables_number   1
_chemical_formula_structural   Pt(OF3)2
_chemical_formula_sum   'Pt4 O8 F24'
_cell_volume   513.41999022
_cell_formula_units_Z   4
loop_
 _symmetry_equiv_pos_site_id
 _symmetry_equiv_pos_as_xyz
  1  'x, y, z'
loop_
 _atom_site_type_symbol
 _atom_site_label
 _atom_site_symmetry_multiplicity
 _atom_site_fract_x
 _atom_site_fract_y
 _atom_site_fract_z
 _atom_site_occupancy
  Pt  Pt0  1  0.00000000  0.00000000  0.00000000  1
  Pt  Pt1  1  0.50000000  0.50000000  0.00000000  1
  Pt  Pt2  1  0.00000000  0.50000000  0.50000000  1
  Pt  Pt3  1  0.50000000  0.00000000  0.50000000  1
  O  O0  1  0.56760614  0.56760614  0.56760614  1
  O  O1  1  0.93239386  0.50000000  -0.00000000  1
  O  O2  1  0.00000000  0.93239386  0.50000000  1
  O  O3  1  0.50000000  -0.00000000  0.93239386  1
  O  O4  1  0.43239386  0.43239386  0.43239386  1
  O  O5  1  0.06760614  0.50000000  0.00000000  1
  O  O6  1  0.00000000  0.06760614  0.50000000  1
  O  O7  1  0.50000000  -0.00000000  0.06760614  1
  F  F0  1  0.09111556  0.03828087  0.24554231  1
  F  F1  1  0.46171913  0.55283469  0.20726144  1
  F  F2  1  0.94716531  0.40888444  0.65442675  1
  F  F3  1  0.84557325  0.25445769  0.29273856  1
  F  F4  1  0.55283469  0.20726144  0.46171913  1
  F  F5  1  0.65442675  0.94716531  0.40888444  1
  F  F6  1  0.25445769  0.29273856  0.84557325  1
  F  F7  1  0.24554231  0.09111556  0.03828087  1
  F  F8  1  0.03828087  0.24554231  0.09111556  1
  F  F9  1  0.20726144  0.46171913  0.55283469  1
  F  F10  1  0.40888444  0.65442675  0.94716531  1
  F  F11  1  0.29273856  0.84557325  0.25445769  1
  F  F12  1  0.90888444  0.96171913  0.75445769  1
  F  F13  1  0.53828087  0.44716531  0.79273856  1
  F  F14  1  0.05283469  0.59111556  0.34557325  1
  F  F15  1  0.15442675  0.74554231  0.70726144  1
  F  F16  1  0.44716531  0.79273856  0.53828087  1
  F  F17  1  0.34557325  0.05283469  0.59111556  1
  F  F18  1  0.74554231  0.70726144  0.15442675  1
  F  F19  1  0.75445769  0.90888444  0.96171913  1
  F  F20  1  0.96171913  0.75445769  0.90888444  1
  F  F21  1  0.79273856  0.53828087  0.44716531  1
  F  F22  1  0.59111556  0.34557325  0.05283469  1
  F  F23  1  0.70726144  0.15442675  0.74554231  1
loop_
_geom_bond_atom_site_label_1
_geom_bond_atom_site_label_2
_geom_bond_distance
_geom_bond_site_symmetry_2
O0 O4 1.181357 1_555
O1 O5 1.181357 1_655
O2 O6 1.181357 1_565
O3 O7 1.181357 1_556
F0 Pt0 1.885091 1_555
F1 Pt1 1.885091 1_555
F2 Pt2 1.885091 1_655
F3 Pt2 1.885091 1_655
F4 Pt3 1.885091 1_555
F5 Pt3 1.885091 1_565
F6 Pt1 1.885091 1_556
F7 Pt0 1.885091 1_555
F8 Pt0 1.885091 1_555
F9 Pt2 1.885091 1_555
F10 Pt1 1.885091 1_556
F11 Pt3 1.885091 1_565
F12 Pt0 1.885091 1_666
F13 Pt1 1.885091 1_556
F14 Pt2 1.885091 1_555
F15 Pt2 1.885091 1_555
F16 Pt3 1.885091 1_565
F17 Pt3 1.885091 1_555
F18 Pt1 1.885091 1_555
F19 Pt0 1.885091 1_666
F20 Pt0 1.885091 1_666
F21 Pt2 1.885091 1_655
F22 Pt1 1.885091 1_555
F23 Pt3 1.885091 1_555
