# generated using pymatgen
data_Sm6Si4S17
_symmetry_space_group_name_H-M   'P 1'
_cell_length_a   8.91505533
_cell_length_b   9.85175942
_cell_length_c   14.13150903
_cell_angle_alpha   82.02944206
_cell_angle_beta   87.43544028
_cell_angle_gamma   88.98169587
_symmetry_Int_Tables_number   1
_chemical_formula_structural   Sm6Si4S17
_chemical_formula_sum   'Sm12 Si8 S34'
_cell_volume   1227.85076713
_cell_formula_units_Z   2
loop_
 _symmetry_equiv_pos_site_id
 _symmetry_equiv_pos_as_xyz
  1  'x, y, z'
loop_
 _atom_site_type_symbol
 _atom_site_label
 _atom_site_symmetry_multiplicity
 _atom_site_fract_x
 _atom_site_fract_y
 _atom_site_fract_z
 _atom_site_occupancy
  Sm  Sm0  1  0.91214778  0.91911370  0.83456152  1
  Sm  Sm1  1  0.66360136  0.59090935  0.65801543  1
  Sm  Sm2  1  0.08785222  0.08088630  0.16543848  1
  Sm  Sm3  1  0.01143253  0.76560409  0.46523737  1
  Sm  Sm4  1  0.36253586  0.05959514  0.67812276  1
  Sm  Sm5  1  0.44940151  0.73751882  0.00231375  1
  Sm  Sm6  1  0.10590539  0.38391302  0.81415961  1
  Sm  Sm7  1  0.63746414  0.94040486  0.32187724  1
  Sm  Sm8  1  0.98856747  0.23439591  0.53476263  1
  Sm  Sm9  1  0.55059849  0.26248118  0.99768625  1
  Sm  Sm10  1  0.89409461  0.61608698  0.18584039  1
  Sm  Sm11  1  0.33639864  0.40909065  0.34198457  1
  Si  Si0  1  0.76767552  0.55986905  0.90063933  1
  Si  Si1  1  0.24876181  0.05921740  0.92254910  1
  Si  Si2  1  0.23232448  0.44013095  0.09936067  1
  Si  Si3  1  0.71977608  0.94489530  0.60809496  1
  Si  Si4  1  0.74964899  0.49908817  0.41682084  1
  Si  Si5  1  0.25035101  0.50091183  0.58317916  1
  Si  Si6  1  0.75123819  0.94078260  0.07745090  1
  Si  Si7  1  0.28022392  0.05510470  0.39190504  1
  S  S0  1  0.48681688  0.15323197  0.39803333  1
  S  S1  1  0.69936758  0.69427565  0.45842617  1
  S  S2  1  0.69707639  0.36573419  0.54183914  1
  S  S3  1  0.65933035  0.00073527  0.94282499  1
  S  S4  1  0.99013963  0.62460892  0.88340436  1
  S  S5  1  0.11088166  0.20164170  0.34240364  1
  S  S6  1  0.00986037  0.37539108  0.11659564  1
  S  S7  1  0.98456572  0.50724540  0.37790710  1
  S  S8  1  0.64520586  0.46623081  0.29256147  1
  S  S9  1  0.34066965  -0.00073527  0.05717501  1
  S  S10  1  0.32102550  0.48357967  0.95594154  1
  S  S11  1  0.81551113  0.02235178  0.47026684  1
  S  S12  1  0.68392536  0.08651497  0.70391599  1
  S  S13  1  0.74850568  0.38354575  0.83057792  1
  S  S14  1  0.37081967  0.28115163  0.16583451  1
  S  S15  1  0.74535737  0.11889471  0.14857866  1
  S  S16  1  0.51318312  0.84676803  0.60196667  1
  S  S17  1  0.67897450  0.51642033  0.04405846  1
  S  S18  1  0.30063242  0.30572435  0.54157383  1
  S  S19  1  0.93909178  0.85847196  0.28082459  1
  S  S20  1  0.03942122  0.15127117  0.95209483  1
  S  S21  1  0.62046213  0.78699535  0.16249626  1
  S  S22  1  0.96057878  0.84872883  0.04790517  1
  S  S23  1  0.25149432  0.61645425  0.16942208  1
  S  S24  1  0.01543428  0.49275460  0.62209290  1
  S  S25  1  0.62918033  0.71884837  0.83416549  1
  S  S26  1  0.25464263  0.88110529  0.85142134  1
  S  S27  1  0.37953787  0.21300465  0.83750374  1
  S  S28  1  0.31607464  0.91348503  0.29608401  1
  S  S29  1  0.88911834  0.79835830  0.65759636  1
  S  S30  1  0.35479414  0.53376919  0.70743853  1
  S  S31  1  0.18448887  0.97764822  0.52973316  1
  S  S32  1  0.06090822  0.14152804  0.71917541  1
  S  S33  1  0.30292361  0.63426581  0.45816086  1
loop_
_geom_bond_atom_site_label_1
_geom_bond_atom_site_label_2
_geom_bond_distance
_geom_bond_site_symmetry_2
S0 Si7 2.105948 1_555
S0 Sm7 2.784695 1_545
S0 Sm11 2.863657 1_555
S1 Si4 2.122178 1_555
S1 Sm1 2.868519 1_555
S1 Sm3 2.890541 1_655
S1 Sm7 2.942428 1_555
S2 Si4 2.090689 1_555
S2 Sm8 2.886236 1_555
S2 Sm1 2.940785 1_555
S3 Si6 2.109565 1_546
S3 Sm0 2.834684 1_545
S3 Sm9 2.930612 1_555
S3 Sm5 3.218830 1_546
S4 Si0 2.087621 1_555
S4 Sm6 2.848118 1_655
S4 Sm0 2.965431 1_555
S5 Si7 2.142339 1_555
S5 Sm11 2.891473 1_555
S5 Sm2 2.931049 1_555
S5 Sm8 2.940740 1_455
S6 Si2 2.087621 1_555
S6 Sm10 2.848118 1_455
S6 Sm2 2.965431 1_555
S7 Si4 2.141401 1_555
S7 Sm10 2.919794 1_555
S7 Sm3 2.996354 1_655
S7 Sm8 3.239053 1_555
S7 Sm11 3.304079 1_655
S8 Si4 2.090423 1_555
S8 Sm11 2.856196 1_555
S8 Sm10 2.928630 1_555
S9 Si1 2.109565 1_554
S9 Sm2 2.834684 1_555
S9 Sm5 2.930612 1_545
S9 Sm9 3.218830 1_554
S10 Si2 2.131711 1_556
S10 Sm5 2.936247 1_556
S10 Sm9 2.979032 1_555
S10 Sm6 3.100463 1_555
S11 Si3 2.136946 1_545
S11 Sm8 2.888480 1_555
S11 Sm7 2.895078 1_545
S11 Sm3 3.055405 1_645
S12 Si3 2.086068 1_545
S12 Sm4 2.925726 1_555
S12 Sm0 3.104919 1_545
S13 Si0 2.128288 1_555
S13 Sm9 3.005486 1_555
S13 Sm1 3.069466 1_555
S13 Sm6 3.184333 1_655
S14 Si2 2.118251 1_555
S14 Sm9 2.831747 1_554
S14 Sm11 2.944028 1_555
S14 Sm2 3.230747 1_555
S15 Si6 2.138514 1_545
S15 Sm7 2.944453 1_545
S15 Sm9 2.995011 1_554
S15 Sm2 3.085403 1_655
S16 Si3 2.105948 1_555
S16 Sm4 2.784695 1_565
S16 Sm1 2.863657 1_555
S17 Si0 2.131711 1_554
S17 Sm9 2.936247 1_554
S17 Sm5 2.979032 1_555
S17 Sm10 3.100463 1_555
S18 Si5 2.122178 1_555
S18 Sm11 2.868519 1_555
S18 Sm8 2.890541 1_455
S18 Sm4 2.942428 1_555
S19 Sm3 2.740910 1_655
S19 Sm7 2.851681 1_555
S19 Sm2 2.852676 1_665
S19 Sm10 2.938691 1_555
S20 Si1 2.110666 1_555
S20 Sm6 2.847752 1_555
S20 Sm2 3.046761 1_556
S20 Sm0 3.254474 1_445
S21 Si6 2.128734 1_555
S21 Sm5 2.885927 1_555
S21 Sm7 2.891836 1_555
S21 Sm10 2.943930 1_555
S22 Si6 2.110666 1_555
S22 Sm10 2.847752 1_555
S22 Sm0 3.046761 1_554
S22 Sm2 3.254474 1_665
S23 Si2 2.128288 1_555
S23 Sm5 3.005486 1_555
S23 Sm11 3.069466 1_555
S23 Sm10 3.184333 1_455
S24 Si5 2.141401 1_555
S24 Sm6 2.919794 1_555
S24 Sm8 2.996354 1_455
S24 Sm3 3.239053 1_555
S24 Sm1 3.304079 1_455
S25 Si0 2.118251 1_555
S25 Sm5 2.831747 1_556
S25 Sm1 2.944028 1_555
S25 Sm0 3.230747 1_555
S26 Si1 2.138514 1_565
S26 Sm4 2.944453 1_565
S26 Sm5 2.995011 1_556
S26 Sm0 3.085403 1_455
S27 Si1 2.128734 1_555
S27 Sm9 2.885927 1_555
S27 Sm4 2.891836 1_555
S27 Sm6 2.943930 1_555
S28 Si7 2.086068 1_565
S28 Sm7 2.925726 1_555
S28 Sm2 3.104919 1_565
S29 Si3 2.142339 1_555
S29 Sm1 2.891473 1_555
S29 Sm0 2.931049 1_555
S29 Sm3 2.940740 1_655
S30 Si5 2.090423 1_555
S30 Sm1 2.856196 1_555
S30 Sm6 2.928630 1_555
S31 Si7 2.136946 1_565
S31 Sm3 2.888480 1_555
S31 Sm4 2.895078 1_565
S31 Sm8 3.055405 1_465
S32 Sm8 2.740910 1_455
S32 Sm4 2.851681 1_555
S32 Sm0 2.852676 1_445
S32 Sm6 2.938691 1_555
S33 Si5 2.090689 1_555
S33 Sm3 2.886236 1_555
S33 Sm11 2.940785 1_555
