# generated using pymatgen
data_AlSeS2N2Cl5
_symmetry_space_group_name_H-M   'P 1'
_cell_length_a   11.06822100
_cell_length_b   9.59414700
_cell_length_c   14.88642782
_cell_angle_alpha   51.90727744
_cell_angle_beta   90.00000000
_cell_angle_gamma   90.00000000
_symmetry_Int_Tables_number   1
_chemical_formula_structural   AlSeS2N2Cl5
_chemical_formula_sum   'Al4 Se4 S8 N8 Cl20'
_cell_volume   1244.10434546
_cell_formula_units_Z   4
loop_
 _symmetry_equiv_pos_site_id
 _symmetry_equiv_pos_as_xyz
  1  'x, y, z'
loop_
 _atom_site_type_symbol
 _atom_site_label
 _atom_site_symmetry_multiplicity
 _atom_site_fract_x
 _atom_site_fract_y
 _atom_site_fract_z
 _atom_site_occupancy
  Al  Al0  1  0.63984200  0.71657200  0.80869100  1
  Al  Al1  1  0.13984200  0.28342800  0.69130900  1
  Al  Al2  1  0.86015800  0.71657200  0.30869100  1
  Al  Al3  1  0.36015800  0.28342800  0.19130900  1
  Se  Se0  1  0.28242000  0.82584400  0.61112600  1
  Se  Se1  1  0.78242000  0.17415600  0.88887400  1
  Se  Se2  1  0.21758000  0.82584400  0.11112600  1
  Se  Se3  1  0.71758000  0.17415600  0.38887400  1
  S  S0  1  0.46171200  0.82147700  0.18680600  1
  S  S1  1  0.24843800  0.65196000  0.80909100  1
  S  S2  1  0.75156200  0.34804000  0.19090900  1
  S  S3  1  0.53828800  0.17852300  0.81319400  1
  S  S4  1  0.74843800  0.34804000  0.69090900  1
  S  S5  1  0.25156200  0.65196000  0.30909100  1
  S  S6  1  0.03828800  0.82147700  0.68680600  1
  S  S7  1  0.96171200  0.17852300  0.31319400  1
  N  N0  1  0.12575300  0.87593000  0.58464000  1
  N  N1  1  0.60923300  0.29851000  0.69772000  1
  N  N2  1  0.10923300  0.70149000  0.80228000  1
  N  N3  1  0.37424700  0.87593000  0.08464000  1
  N  N4  1  0.89076700  0.29851000  0.19772000  1
  N  N5  1  0.62575300  0.12407000  0.91536000  1
  N  N6  1  0.39076700  0.70149000  0.30228000  1
  N  N7  1  0.87424700  0.12407000  0.41536000  1
  Cl  Cl0  1  0.63366700  0.93035400  0.42457500  1
  Cl  Cl1  1  0.28692800  0.47027000  0.60269600  1
  Cl  Cl2  1  0.47842000  0.38372600  0.25772900  1
  Cl  Cl3  1  0.28747600  0.02989400  0.33169500  1
  Cl  Cl4  1  0.78747600  0.97010600  0.16830500  1
  Cl  Cl5  1  0.02158000  0.38372600  0.75772900  1
  Cl  Cl6  1  0.97842000  0.61627400  0.24227100  1
  Cl  Cl7  1  0.03911700  0.25467100  0.58066200  1
  Cl  Cl8  1  0.21307200  0.47027000  0.10269600  1
  Cl  Cl9  1  0.13366700  0.06964600  0.07542500  1
  Cl  Cl10  1  0.71252400  0.97010600  0.66830500  1
  Cl  Cl11  1  0.96088300  0.74532900  0.41933800  1
  Cl  Cl12  1  0.86633300  0.93035400  0.92457500  1
  Cl  Cl13  1  0.52158000  0.61627400  0.74227100  1
  Cl  Cl14  1  0.36633300  0.06964600  0.57542500  1
  Cl  Cl15  1  0.53911700  0.74532900  0.91933800  1
  Cl  Cl16  1  0.71307200  0.52973000  0.39730400  1
  Cl  Cl17  1  0.46088300  0.25467100  0.08066200  1
  Cl  Cl18  1  0.21252400  0.02989400  0.83169500  1
  Cl  Cl19  1  0.78692800  0.52973000  0.89730400  1
loop_
_geom_bond_atom_site_label_1
_geom_bond_atom_site_label_2
_geom_bond_distance
_geom_bond_site_symmetry_2
Al0 Cl15 2.143080 1_555
Al0 Cl10 2.158492 1_555
Al0 Cl19 2.164744 1_555
Al0 Cl13 2.188820 1_555
Al1 Cl7 2.143080 1_555
Al1 Cl18 2.158492 1_555
Al1 Cl1 2.164744 1_555
Al1 Cl5 2.188820 1_555
Al2 Cl11 2.143080 1_555
Al2 Cl4 2.158492 1_555
Al2 Cl16 2.164744 1_555
Al2 Cl6 2.188820 1_555
Al3 Cl17 2.143080 1_555
Al3 Cl3 2.158492 1_555
Al3 Cl8 2.164744 1_555
Al3 Cl2 2.188820 1_555
S1 Se0 2.354394 1_555
S2 Se3 2.354394 1_555
S4 Se1 2.354394 1_555
S5 Se2 2.354394 1_555
N0 S6 1.594626 1_555
N0 Se0 1.777480 1_555
N1 S3 1.566869 1_555
N1 S4 1.597047 1_555
N2 S6 1.566869 1_555
N2 S1 1.597047 1_555
N3 S0 1.594626 1_555
N3 Se2 1.777480 1_555
N4 S7 1.566869 1_555
N4 S2 1.597047 1_555
N5 S3 1.594626 1_555
N5 Se1 1.777480 1_555
N6 S0 1.566869 1_555
N6 S5 1.597047 1_555
N7 S7 1.594626 1_555
N7 Se3 1.777480 1_555
Cl0 Se3 2.254432 1_565
Cl9 Se2 2.254432 1_545
Cl12 Se1 2.254432 1_565
Cl14 Se0 2.254432 1_545
