# generated using pymatgen
data_Li2Mo(PO3)5
_symmetry_space_group_name_H-M   'P 1'
_cell_length_a   13.55315100
_cell_length_b   5.33560200
_cell_length_c   8.96104087
_cell_angle_alpha   77.66522239
_cell_angle_beta   90.00000000
_cell_angle_gamma   90.00000000
_symmetry_Int_Tables_number   1
_chemical_formula_structural   Li2Mo(PO3)5
_chemical_formula_sum   'Li4 Mo2 P10 O30'
_cell_volume   633.05205635
_cell_formula_units_Z   2
loop_
 _symmetry_equiv_pos_site_id
 _symmetry_equiv_pos_as_xyz
  1  'x, y, z'
loop_
 _atom_site_type_symbol
 _atom_site_label
 _atom_site_symmetry_multiplicity
 _atom_site_fract_x
 _atom_site_fract_y
 _atom_site_fract_z
 _atom_site_occupancy
  Li  Li0  1  0.37715900  0.05556900  0.92031400  1
  Li  Li1  1  0.62284100  0.94443100  0.07968600  1
  Li  Li2  1  0.12284100  0.05556900  0.92031400  1
  Li  Li3  1  0.87715900  0.94443100  0.07968600  1
  Mo  Mo0  1  0.00000000  0.50000000  0.50000000  1
  Mo  Mo1  1  0.50000000  0.50000000  0.50000000  1
  P  P0  1  0.85780800  0.99364200  0.51685200  1
  P  P1  1  0.64219200  0.99364200  0.51685200  1
  P  P2  1  0.25000000  0.54256300  0.98474000  1
  P  P3  1  0.14219200  0.00635800  0.48314800  1
  P  P4  1  0.42279700  0.33702400  0.18103300  1
  P  P5  1  0.07720300  0.33702400  0.18103300  1
  P  P6  1  0.75000000  0.45743700  0.01526000  1
  P  P7  1  0.57720300  0.66297600  0.81896700  1
  P  P8  1  0.35780800  0.00635800  0.48314800  1
  P  P9  1  0.92279700  0.66297600  0.81896700  1
  O  O0  1  0.50704000  0.52114000  0.73524700  1
  O  O1  1  0.07305200  0.13786500  0.57456100  1
  O  O2  1  0.03699600  0.18871300  0.07135000  1
  O  O3  1  0.57305200  0.86213500  0.42543900  1
  O  O4  1  0.00704000  0.47886000  0.26475300  1
  O  O5  1  0.75000000  0.93245500  0.46238100  1
  O  O6  1  0.13200700  0.72234100  0.49565600  1
  O  O7  1  0.92694800  0.86213500  0.42543900  1
  O  O8  1  0.34235200  0.54479200  0.10221100  1
  O  O9  1  0.14446700  0.14600500  0.30686700  1
  O  O10  1  0.36799300  0.72234100  0.49565600  1
  O  O11  1  0.53699600  0.81128700  0.92865000  1
  O  O12  1  0.25000000  0.80553100  0.88297800  1
  O  O13  1  0.85553300  0.85399500  0.69313300  1
  O  O14  1  0.35553300  0.14600500  0.30686700  1
  O  O15  1  0.75000000  0.70157600  0.07275300  1
  O  O16  1  0.25000000  0.29842400  0.92724700  1
  O  O17  1  0.25000000  0.06754500  0.53761900  1
  O  O18  1  0.15764800  0.54479200  0.10221100  1
  O  O19  1  0.86799300  0.27765900  0.50434400  1
  O  O20  1  0.96300400  0.81128700  0.92865000  1
  O  O21  1  0.64446700  0.85399500  0.69313300  1
  O  O22  1  0.46300400  0.18871300  0.07135000  1
  O  O23  1  0.65764800  0.45520800  0.89778900  1
  O  O24  1  0.63200700  0.27765900  0.50434400  1
  O  O25  1  0.84235200  0.45520800  0.89778900  1
  O  O26  1  0.49296000  0.47886000  0.26475300  1
  O  O27  1  0.75000000  0.19446900  0.11702200  1
  O  O28  1  0.42694800  0.13786500  0.57456100  1
  O  O29  1  0.99296000  0.52114000  0.73524700  1
loop_
_geom_bond_atom_site_label_1
_geom_bond_atom_site_label_2
_geom_bond_distance
_geom_bond_site_symmetry_2
Li0 O22 2.025075 1_556
Li0 O16 2.165045 1_555
Li0 O12 2.247798 1_545
Li0 O11 2.521041 1_545
Li1 O11 2.025075 1_554
Li1 O15 2.165045 1_555
Li1 O27 2.247798 1_565
Li1 O22 2.521041 1_565
Li2 O2 2.025075 1_556
Li2 O16 2.165045 1_555
Li2 O12 2.247798 1_545
Li2 O20 2.521041 1_445
Li3 O20 2.025075 1_554
Li3 O15 2.165045 1_555
Li3 O27 2.247798 1_565
Li3 O2 2.521041 1_665
Mo0 O4 2.137130 1_555
Mo0 O29 2.137130 1_455
Mo0 O19 2.142444 1_455
Mo0 O6 2.142444 1_555
Mo0 O7 2.146751 1_455
Mo0 O1 2.146751 1_555
Mo1 O26 2.137130 1_555
Mo1 O0 2.137130 1_555
Mo1 O10 2.142444 1_555
Mo1 O24 2.142444 1_555
Mo1 O3 2.146751 1_555
Mo1 O28 2.146751 1_555
O0 P7 1.510755 1_555
O1 P3 1.512289 1_555
O2 P5 1.490468 1_555
O3 P1 1.512289 1_555
O4 P5 1.510755 1_555
O5 P1 1.596198 1_555
O5 P0 1.596198 1_555
O6 P3 1.501829 1_565
O7 P0 1.512289 1_555
O8 P4 1.606860 1_555
O8 P2 1.637145 1_554
O9 P3 1.596428 1_555
O9 P5 1.627984 1_555
O10 P8 1.501829 1_565
O11 P7 1.490468 1_555
O12 P2 1.501189 1_555
O13 P0 1.596428 1_555
O13 P9 1.627984 1_555
O14 P8 1.596428 1_555
O14 P4 1.627984 1_555
O15 P6 1.499666 1_555
O16 P2 1.499666 1_555
O17 P3 1.596198 1_555
O17 P8 1.596198 1_555
O18 P5 1.606860 1_555
O18 P2 1.637145 1_554
O19 P0 1.501829 1_545
O20 P9 1.490468 1_555
O21 P1 1.596428 1_555
O21 P7 1.627984 1_555
O22 P4 1.490468 1_555
O23 P7 1.606860 1_555
O23 P6 1.637145 1_556
O24 P1 1.501829 1_545
O25 P9 1.606860 1_555
O25 P6 1.637145 1_556
O26 P4 1.510755 1_555
O27 P6 1.501189 1_555
O28 P8 1.512289 1_555
O29 P9 1.510755 1_555
