# generated using pymatgen
data_Rb3As7
_symmetry_space_group_name_H-M   'P 1'
_cell_length_a   13.39777000
_cell_length_b   7.79722000
_cell_length_c   27.57310561
_cell_angle_alpha   88.17569064
_cell_angle_beta   90.00000000
_cell_angle_gamma   90.00000000
_symmetry_Int_Tables_number   1
_chemical_formula_structural   Rb3As7
_chemical_formula_sum   'Rb24 As56'
_cell_volume   2878.97444223
_cell_formula_units_Z   8
loop_
 _symmetry_equiv_pos_site_id
 _symmetry_equiv_pos_as_xyz
  1  'x, y, z'
loop_
 _atom_site_type_symbol
 _atom_site_label
 _atom_site_symmetry_multiplicity
 _atom_site_fract_x
 _atom_site_fract_y
 _atom_site_fract_z
 _atom_site_occupancy
  Rb  Rb0  1  0.95061100  0.10492600  0.09954100  1
  Rb  Rb1  1  0.10503700  0.18539200  0.26418800  1
  Rb  Rb2  1  0.55188500  0.18711100  0.95175900  1
  Rb  Rb3  1  0.94811500  0.18711100  0.45175900  1
  Rb  Rb4  1  0.97860400  0.29034600  0.62673900  1
  Rb  Rb5  1  0.62143800  0.58669200  0.70483400  1
  Rb  Rb6  1  0.89496300  0.81460800  0.73581200  1
  Rb  Rb7  1  0.84130900  0.39039700  0.93416900  1
  Rb  Rb8  1  0.45061100  0.89507400  0.40045900  1
  Rb  Rb9  1  0.60503700  0.81460800  0.23581200  1
  Rb  Rb10  1  0.05188500  0.81288900  0.54824100  1
  Rb  Rb11  1  0.54938900  0.10492600  0.59954100  1
  Rb  Rb12  1  0.04938900  0.89507400  0.90045900  1
  Rb  Rb13  1  0.15869100  0.60960300  0.06583100  1
  Rb  Rb14  1  0.02139600  0.70965400  0.37326100  1
  Rb  Rb15  1  0.12143800  0.41330800  0.79516600  1
  Rb  Rb16  1  0.34130900  0.60960300  0.56583100  1
  Rb  Rb17  1  0.44811500  0.81288900  0.04824100  1
  Rb  Rb18  1  0.87856200  0.58669200  0.20483400  1
  Rb  Rb19  1  0.52139600  0.29034600  0.12673900  1
  Rb  Rb20  1  0.39496300  0.18539200  0.76418800  1
  Rb  Rb21  1  0.37856200  0.41330800  0.29516600  1
  Rb  Rb22  1  0.65869100  0.39039700  0.43416900  1
  Rb  Rb23  1  0.47860400  0.70965400  0.87326100  1
  As  As0  1  0.39292500  0.81058500  0.68827700  1
  As  As1  1  0.80240200  0.98301600  0.57898600  1
  As  As2  1  0.84115100  0.72136200  0.46783700  1
  As  As3  1  0.68756500  0.26054800  0.22941600  1
  As  As4  1  0.89292500  0.18941500  0.81172300  1
  As  As5  1  0.19626500  0.30622200  0.39067400  1
  As  As6  1  0.80373500  0.69377800  0.60932600  1
  As  As7  1  0.28333500  0.54415900  0.69822600  1
  As  As8  1  0.18756500  0.73945200  0.27058400  1
  As  As9  1  0.15826500  0.45241100  0.93256800  1
  As  As10  1  0.34115100  0.27863800  0.03216300  1
  As  As11  1  0.86806800  0.05992600  0.31375300  1
  As  As12  1  0.33172100  0.91997400  0.27348100  1
  As  As13  1  0.79101700  0.97748800  0.85059000  1
  As  As14  1  0.12477800  0.63487800  0.66777100  1
  As  As15  1  0.58289400  0.76536000  0.51714700  1
  As  As16  1  0.71666500  0.45584100  0.30177400  1
  As  As17  1  0.10707500  0.81058500  0.18827700  1
  As  As18  1  0.30240200  0.01698400  0.92101400  1
  As  As19  1  0.30373500  0.30622200  0.89067400  1
  As  As20  1  0.91710600  0.76536000  0.01714700  1
  As  As21  1  0.77033300  0.94321300  0.99852200  1
  As  As22  1  0.70898300  0.97748800  0.35059000  1
  As  As23  1  0.20898300  0.02251200  0.14941000  1
  As  As24  1  0.69626500  0.69377800  0.10932600  1
  As  As25  1  0.13193200  0.94007400  0.68624700  1
  As  As26  1  0.63193200  0.05992600  0.81375300  1
  As  As27  1  0.84173500  0.54758900  0.06743200  1
  As  As28  1  0.29101700  0.02251200  0.64941000  1
  As  As29  1  0.60707500  0.18941500  0.31172300  1
  As  As30  1  0.83172100  0.08002600  0.22651900  1
  As  As31  1  0.87522200  0.36512200  0.33222900  1
  As  As32  1  0.81243500  0.26054800  0.72941600  1
  As  As33  1  0.66827900  0.08002600  0.72651900  1
  As  As34  1  0.34173500  0.45241100  0.43256800  1
  As  As35  1  0.62477800  0.36512200  0.83222900  1
  As  As36  1  0.41710600  0.23464000  0.48285300  1
  As  As37  1  0.65826500  0.54758900  0.56743200  1
  As  As38  1  0.37522200  0.63487800  0.16777100  1
  As  As39  1  0.08289400  0.23464000  0.98285300  1
  As  As40  1  0.22966700  0.05678700  0.00147800  1
  As  As41  1  0.33495800  0.48398800  0.96676900  1
  As  As42  1  0.19759800  0.01698400  0.42101400  1
  As  As43  1  0.21666500  0.54415900  0.19822600  1
  As  As44  1  0.16827900  0.91997400  0.77348100  1
  As  As45  1  0.31243500  0.73945200  0.77058400  1
  As  As46  1  0.66504200  0.51601200  0.03323100  1
  As  As47  1  0.65884900  0.72136200  0.96783700  1
  As  As48  1  0.27033300  0.05678700  0.50147800  1
  As  As49  1  0.15884900  0.27863800  0.53216300  1
  As  As50  1  0.72966700  0.94321300  0.49852200  1
  As  As51  1  0.69759800  0.98301600  0.07898600  1
  As  As52  1  0.36806800  0.94007400  0.18624700  1
  As  As53  1  0.16504200  0.48398800  0.46676900  1
  As  As54  1  0.83495800  0.51601200  0.53323100  1
  As  As55  1  0.78333500  0.45584100  0.80177400  1
loop_
_geom_bond_atom_site_label_1
_geom_bond_atom_site_label_2
_geom_bond_distance
_geom_bond_site_symmetry_2
As0 As28 2.372861 1_565
As0 As7 2.551525 1_555
As0 As45 2.557508 1_555
As0 Rb5 3.546614 1_555
As0 Rb20 3.648564 1_565
As0 Rb16 3.830109 1_555
As0 Rb11 3.910308 1_565
As1 As6 2.380379 1_555
As1 As50 2.451970 1_555
As1 Rb11 3.570700 1_565
As1 Rb4 3.640042 1_565
As1 Rb10 3.704364 1_655
As2 As54 2.374448 1_555
As2 As50 2.456068 1_555
As2 Rb14 3.557460 1_655
As2 Rb10 3.673754 1_655
As2 Rb22 3.694553 1_555
As2 Rb3 3.916105 1_565
As3 As30 2.392693 1_555
As3 Rb19 3.603297 1_555
As3 Rb9 3.647572 1_545
As3 Rb18 3.655783 1_555
As4 As55 2.551525 1_555
As4 Rb15 3.546614 1_655
As4 Rb6 3.648564 1_545
As4 Rb7 3.830109 1_555
As4 Rb12 3.910308 1_645
As5 As53 2.585289 1_555
As5 Rb21 3.668438 1_555
As5 Rb3 3.827946 1_455
As5 Rb1 3.841115 1_555
As5 Rb14 3.939344 1_555
As6 Rb5 3.668438 1_555
As6 Rb10 3.827946 1_655
As6 Rb6 3.841115 1_555
As6 Rb4 3.939344 1_555
As7 Rb15 3.566053 1_555
As7 Rb20 3.611938 1_555
As7 Rb16 3.751204 1_555
As8 Rb14 3.603297 1_555
As8 Rb1 3.647572 1_565
As8 Rb21 3.655783 1_555
As9 Rb12 3.824944 1_555
As9 Rb15 3.842322 1_555
As9 Rb13 3.910344 1_556
As10 As41 2.374448 1_554
As10 As40 2.456068 1_555
As10 Rb19 3.557460 1_555
As10 Rb2 3.673754 1_554
As10 Rb13 3.694553 1_555
As10 Rb17 3.916105 1_545
As11 As22 2.438457 1_545
As11 As31 2.451282 1_555
As11 As30 2.454226 1_555
As11 Rb1 3.580418 1_655
As11 Rb14 3.753144 1_645
As12 As8 2.392693 1_555
As12 As52 2.454226 1_555
As12 Rb1 3.679477 1_565
As12 Rb8 3.845760 1_555
As12 Rb9 3.900904 1_555
As12 Rb21 3.961613 1_565
As12 Rb21 4.025927 1_555
As13 As4 2.372861 1_565
As13 As26 2.438457 1_565
As13 Rb6 3.718086 1_555
As13 Rb12 3.772288 1_655
As13 Rb7 4.074645 1_565
As14 As7 2.383357 1_555
As14 As25 2.451282 1_555
As14 Rb4 3.539151 1_455
As14 Rb10 3.667615 1_555
As14 Rb15 3.865128 1_555
As14 Rb6 3.889904 1_455
As14 Rb16 4.048544 1_555
As15 As37 2.382322 1_555
As15 As50 2.451192 1_555
As15 Rb11 3.571553 1_565
As15 Rb16 3.694499 1_555
As15 Rb8 3.782695 1_555
As15 Rb22 3.903815 1_555
As16 As31 2.383357 1_555
As16 As29 2.551525 1_555
As16 As3 2.577740 1_555
As16 Rb18 3.566053 1_555
As16 Rb9 3.611938 1_555
As16 Rb22 3.751204 1_555
As17 As23 2.372861 1_565
As17 As43 2.551525 1_555
As17 As8 2.557508 1_555
As17 Rb18 3.546614 1_455
As17 Rb1 3.648564 1_565
As17 Rb13 3.830109 1_555
As17 Rb0 3.910308 1_465
As18 As19 2.380379 1_555
As18 As40 2.451970 1_556
As18 Rb12 3.570700 1_545
As18 Rb23 3.640042 1_545
As18 Rb2 3.704364 1_555
As19 As9 2.552645 1_555
As19 As41 2.585289 1_555
As19 Rb15 3.668438 1_555
As19 Rb2 3.827946 1_555
As19 Rb20 3.841115 1_555
As19 Rb23 3.939344 1_555
As20 As27 2.382322 1_555
As20 As21 2.451192 1_554
As20 Rb0 3.571553 1_565
As20 Rb13 3.694499 1_655
As20 Rb12 3.782695 1_654
As20 Rb7 3.903815 1_554
As21 As51 2.451970 1_556
As21 As47 2.456068 1_555
As21 Rb2 3.699819 1_565
As21 Rb0 3.925022 1_566
As21 Rb7 3.977007 1_565
As22 As29 2.372861 1_565
As22 Rb9 3.718086 1_555
As22 Rb8 3.772288 1_555
As22 Rb22 4.074645 1_565
As23 As52 2.438457 1_545
As23 Rb1 3.718086 1_555
As23 Rb0 3.772288 1_455
As23 Rb13 4.074645 1_545
As24 As51 2.380379 1_555
As24 As27 2.552645 1_555
As24 As46 2.585289 1_555
As24 Rb18 3.668438 1_555
As24 Rb17 3.827946 1_555
As24 Rb9 3.841115 1_555
As24 Rb19 3.939344 1_555
As25 As28 2.438457 1_565
As25 As44 2.454226 1_555
As25 Rb6 3.580418 1_455
As25 Rb4 3.753144 1_465
As26 As35 2.451282 1_555
As26 As33 2.454226 1_555
As26 Rb20 3.580418 1_555
As26 Rb23 3.753144 1_545
As27 As46 2.562963 1_555
As27 Rb0 3.824944 1_555
As27 Rb18 3.842322 1_555
As27 Rb7 3.910344 1_554
As28 Rb20 3.718086 1_555
As28 Rb11 3.772288 1_555
As28 Rb16 4.074645 1_545
As29 As3 2.557508 1_555
As29 Rb21 3.546614 1_555
As29 Rb9 3.648564 1_545
As29 Rb22 3.830109 1_555
As29 Rb8 3.910308 1_545
As30 Rb9 3.679477 1_545
As30 Rb0 3.845760 1_555
As30 Rb1 3.900904 1_655
As30 Rb18 3.961613 1_545
As30 Rb18 4.025927 1_555
As31 Rb14 3.539151 1_655
As31 Rb3 3.667615 1_555
As31 Rb18 3.865128 1_555
As31 Rb1 3.889904 1_655
As31 Rb22 4.048544 1_555
As32 As33 2.392693 1_555
As32 As4 2.557508 1_555
As32 As55 2.577740 1_555
As32 Rb4 3.603297 1_555
As32 Rb6 3.647572 1_545
As32 Rb5 3.655783 1_555
As33 Rb6 3.679477 1_545
As33 Rb11 3.845760 1_555
As33 Rb20 3.900904 1_555
As33 Rb5 3.961613 1_545
As33 Rb5 4.025927 1_555
As34 As36 2.382322 1_555
As34 As5 2.552645 1_555
As34 As53 2.562963 1_555
As34 Rb8 3.824944 1_555
As34 Rb21 3.842322 1_555
As34 Rb16 3.910344 1_555
As35 As55 2.383357 1_555
As35 Rb23 3.539151 1_555
As35 Rb2 3.667615 1_555
As35 Rb5 3.865128 1_555
As35 Rb20 3.889904 1_555
As35 Rb7 4.048544 1_555
As36 As48 2.451192 1_555
As36 Rb8 3.571553 1_545
As36 Rb22 3.694499 1_555
As36 Rb11 3.782695 1_555
As36 Rb16 3.903815 1_555
As37 As6 2.552645 1_555
As37 As54 2.562963 1_555
As37 Rb11 3.824944 1_555
As37 Rb5 3.842322 1_555
As37 Rb22 3.910344 1_555
As38 As43 2.383357 1_555
As38 As52 2.451282 1_555
As38 Rb19 3.539151 1_555
As38 Rb17 3.667615 1_555
As38 Rb21 3.865128 1_555
As38 Rb9 3.889904 1_555
As38 Rb13 4.048544 1_555
As39 As9 2.382322 1_555
As39 As40 2.451192 1_556
As39 Rb12 3.571553 1_545
As39 Rb7 3.694499 1_455
As39 Rb0 3.782695 1_456
As39 Rb13 3.903815 1_556
As40 Rb17 3.699819 1_545
As40 Rb12 3.925022 1_544
As40 Rb13 3.977007 1_545
As41 As9 2.562963 1_555
As41 Rb23 3.627496 1_555
As41 Rb2 3.746660 1_555
As41 Rb13 3.763979 1_556
As41 Rb17 3.780002 1_556
As42 As5 2.380379 1_555
As42 As48 2.451970 1_555
As42 Rb8 3.570700 1_545
As42 Rb14 3.640042 1_545
As42 Rb3 3.704364 1_455
As43 As8 2.577740 1_555
As43 Rb21 3.566053 1_555
As43 Rb1 3.611938 1_555
As43 Rb13 3.751204 1_555
As44 As45 2.392693 1_555
As44 Rb20 3.679477 1_565
As44 Rb12 3.845760 1_555
As44 Rb6 3.900904 1_455
As44 Rb15 3.961613 1_565
As44 Rb15 4.025927 1_555
As45 As7 2.577740 1_555
As45 Rb23 3.603297 1_555
As45 Rb20 3.647572 1_565
As45 Rb15 3.655783 1_555
As46 As47 2.374448 1_554
As46 Rb19 3.627496 1_555
As46 Rb17 3.746660 1_555
As46 Rb7 3.763979 1_554
As46 Rb2 3.780002 1_554
As47 Rb23 3.557460 1_555
As47 Rb17 3.673754 1_556
As47 Rb7 3.694553 1_555
As47 Rb2 3.916105 1_565
As48 As49 2.456068 1_555
As48 Rb10 3.699819 1_545
As48 Rb8 3.925022 1_545
As48 Rb16 3.977007 1_545
As49 As53 2.374448 1_555
As49 Rb4 3.557460 1_455
As49 Rb3 3.673754 1_455
As49 Rb16 3.694553 1_555
As49 Rb10 3.916105 1_545
As50 Rb3 3.699819 1_565
As50 Rb11 3.925022 1_565
As50 Rb22 3.977007 1_565
As51 Rb0 3.570700 1_565
As51 Rb19 3.640042 1_565
As51 Rb17 3.704364 1_555
As52 Rb9 3.580418 1_555
As52 Rb19 3.753144 1_565
As53 Rb14 3.627496 1_555
As53 Rb3 3.746660 1_455
As53 Rb16 3.763979 1_555
As53 Rb10 3.780002 1_555
As54 As6 2.585289 1_555
As54 Rb4 3.627496 1_555
As54 Rb10 3.746660 1_655
As54 Rb22 3.763979 1_555
As54 Rb3 3.780002 1_555
As55 Rb5 3.566053 1_555
As55 Rb6 3.611938 1_555
As55 Rb7 3.751204 1_555
