# generated using pymatgen
data_Ag4TeO5
_symmetry_space_group_name_H-M   'P 1'
_cell_length_a   8.59164387
_cell_length_b   8.59164387
_cell_length_c   11.32175845
_cell_angle_alpha   75.99719643
_cell_angle_beta   75.99719643
_cell_angle_gamma   42.68573994
_symmetry_Int_Tables_number   1
_chemical_formula_structural   Ag4TeO5
_chemical_formula_sum   'Ag16 Te4 O20'
_cell_volume   547.15237180
_cell_formula_units_Z   4
loop_
 _symmetry_equiv_pos_site_id
 _symmetry_equiv_pos_as_xyz
  1  'x, y, z'
loop_
 _atom_site_type_symbol
 _atom_site_label
 _atom_site_symmetry_multiplicity
 _atom_site_fract_x
 _atom_site_fract_y
 _atom_site_fract_z
 _atom_site_occupancy
  Ag  Ag0  1  0.16794037  0.70603193  0.52838140  1
  Ag  Ag1  1  0.91714274  0.08285726  0.25000000  1
  Ag  Ag2  1  0.08285726  0.91714274  0.75000000  1
  Ag  Ag3  1  0.72557667  0.45718423  0.74538171  1
  Ag  Ag4  1  0.54281577  0.27442333  0.75461829  1
  Ag  Ag5  1  0.27442333  0.54281577  0.25461829  1
  Ag  Ag6  1  0.10256069  0.30083934  0.26960259  1
  Ag  Ag7  1  0.45718423  0.72557667  0.24538171  1
  Ag  Ag8  1  0.69916066  0.89743931  0.23039741  1
  Ag  Ag9  1  0.50000000  0.00000000  0.00000000  1
  Ag  Ag10  1  0.70603193  0.16794037  0.02838140  1
  Ag  Ag11  1  0.30083934  0.10256069  0.76960259  1
  Ag  Ag12  1  0.29396807  0.83205963  0.97161860  1
  Ag  Ag13  1  0.89743931  0.69916066  0.73039741  1
  Ag  Ag14  1  -0.00000000  0.50000000  0.50000000  1
  Ag  Ag15  1  0.83205963  0.29396807  0.47161860  1
  Te  Te0  1  0.42679171  0.87295922  0.50527581  1
  Te  Te1  1  0.57320829  0.12704078  0.49472419  1
  Te  Te2  1  0.12704078  0.57320829  0.99472419  1
  Te  Te3  1  0.87295922  0.42679171  0.00527581  1
  O  O0  1  0.87023333  0.60919093  0.09334976  1
  O  O1  1  0.90976252  0.84280694  0.88863711  1
  O  O2  1  0.49494616  0.62164608  0.60722091  1
  O  O3  1  0.69988969  0.66317112  0.39723051  1
  O  O4  1  0.39080907  0.12976667  0.40665024  1
  O  O5  1  0.60919093  0.87023333  0.59334976  1
  O  O6  1  0.84280694  0.90976252  0.38863711  1
  O  O7  1  0.50505384  0.37835392  0.39277909  1
  O  O8  1  0.12976667  0.39080907  0.90665024  1
  O  O9  1  0.37835392  0.50505384  0.89277909  1
  O  O10  1  0.93682589  0.23864061  0.89978632  1
  O  O11  1  0.06317411  0.76135939  0.10021368  1
  O  O12  1  0.33682888  0.30011031  0.10276949  1
  O  O13  1  0.30011031  0.33682888  0.60276949  1
  O  O14  1  0.62164608  0.49494616  0.10722091  1
  O  O15  1  0.76135939  0.06317411  0.60021368  1
  O  O16  1  0.66317112  0.69988969  0.89723051  1
  O  O17  1  0.23864061  0.93682589  0.39978632  1
  O  O18  1  0.09023748  0.15719306  0.11136289  1
  O  O19  1  0.15719306  0.09023748  0.61136289  1
loop_
_geom_bond_atom_site_label_1
_geom_bond_atom_site_label_2
_geom_bond_distance
_geom_bond_site_symmetry_2
Ag0 O13 2.436210 1_555
Ag0 O15 2.520666 1_465
Ag0 O17 2.523146 1_555
Ag0 O7 2.573649 1_555
Ag0 O6 2.642052 1_455
Ag0 O2 2.668626 1_555
Ag1 O6 2.205641 1_545
Ag1 O18 2.205641 1_655
Ag2 O19 2.205641 1_565
Ag2 O1 2.205641 1_455
Ag3 O2 2.164205 1_555
Ag3 O10 2.193738 1_555
Ag3 O16 2.690063 1_555
Ag4 O9 2.164205 1_555
Ag4 O15 2.193738 1_555
Ag4 O13 2.690063 1_555
Ag5 O7 2.164205 1_555
Ag5 O11 2.193738 1_555
Ag5 O12 2.690063 1_555
Ag6 O12 2.401312 1_555
Ag6 O18 2.469398 1_555
Ag6 O4 2.470944 1_555
Ag6 O17 2.558893 1_545
Ag6 O0 2.565086 1_455
Ag6 O3 2.769825 1_455
Ag7 O14 2.164205 1_555
Ag7 O17 2.193738 1_555
Ag7 O3 2.690063 1_555
Ag8 O3 2.401312 1_555
Ag8 O6 2.469398 1_555
Ag8 O0 2.470944 1_555
Ag8 O11 2.558893 1_655
Ag8 O4 2.565086 1_565
Ag8 O12 2.769825 1_565
Ag9 O16 2.305585 1_544
Ag9 O12 2.305585 1_555
Ag9 O0 2.591667 1_545
Ag9 O8 2.591667 1_554
Ag9 O18 2.737453 1_555
Ag9 O1 2.737453 1_544
Ag10 O12 2.436210 1_555
Ag10 O11 2.520666 1_645
Ag10 O10 2.523146 1_554
Ag10 O9 2.573649 1_554
Ag10 O1 2.642052 1_544
Ag10 O14 2.668626 1_555
Ag11 O13 2.401312 1_555
Ag11 O19 2.469398 1_555
Ag11 O8 2.470944 1_555
Ag11 O10 2.558893 1_455
Ag11 O5 2.565086 1_545
Ag11 O16 2.769825 1_545
Ag12 O16 2.436210 1_555
Ag12 O10 2.520666 1_465
Ag12 O11 2.523146 1_556
Ag12 O14 2.573649 1_556
Ag12 O18 2.642052 1_566
Ag12 O9 2.668626 1_555
Ag13 O16 2.401312 1_555
Ag13 O1 2.469398 1_555
Ag13 O5 2.470944 1_555
Ag13 O15 2.558893 1_565
Ag13 O8 2.565086 1_655
Ag13 O13 2.769825 1_655
Ag14 O13 2.305585 1_555
Ag14 O3 2.305585 1_455
Ag14 O5 2.591667 1_455
Ag14 O4 2.591667 1_555
Ag14 O6 2.737453 1_455
Ag14 O19 2.737453 1_555
Ag15 O3 2.436210 1_555
Ag15 O17 2.520666 1_645
Ag15 O15 2.523146 1_555
Ag15 O2 2.573649 1_555
Ag15 O19 2.642052 1_655
Ag15 O7 2.668626 1_555
O0 Te3 2.035106 1_555
O0 Te2 2.045131 1_654
O1 Te2 1.916875 1_655
O2 Te0 1.897212 1_555
O3 Te0 1.926389 1_555
O4 Te1 2.035106 1_555
O4 Te0 2.045131 1_545
O5 Te0 2.035106 1_555
O5 Te1 2.045131 1_565
O6 Te1 1.916875 1_565
O7 Te1 1.897212 1_555
O8 Te2 2.035106 1_555
O8 Te3 2.045131 1_456
O9 Te2 1.897212 1_555
O10 Te3 1.911485 1_556
O11 Te2 1.911485 1_554
O12 Te2 1.926389 1_554
O13 Te1 1.926389 1_555
O14 Te3 1.897212 1_555
O15 Te1 1.911485 1_555
O16 Te3 1.926389 1_556
O17 Te0 1.911485 1_555
O18 Te3 1.916875 1_455
O19 Te0 1.916875 1_545
