# generated using pymatgen
data_La7C3I10
_symmetry_space_group_name_H-M   'P 1'
_cell_length_a   9.86717896
_cell_length_b   11.92068045
_cell_length_c   14.19128835
_cell_angle_alpha   79.48098749
_cell_angle_beta   71.30565348
_cell_angle_gamma   65.88475221
_symmetry_Int_Tables_number   1
_chemical_formula_structural   La7C3I10
_chemical_formula_sum   'La14 C6 I20'
_cell_volume   1440.59501186
_cell_formula_units_Z   2
loop_
 _symmetry_equiv_pos_site_id
 _symmetry_equiv_pos_as_xyz
  1  'x, y, z'
loop_
 _atom_site_type_symbol
 _atom_site_label
 _atom_site_symmetry_multiplicity
 _atom_site_fract_x
 _atom_site_fract_y
 _atom_site_fract_z
 _atom_site_occupancy
  La  La0  1  0.04402442  0.42042955  0.83471413  1
  La  La1  1  0.83079905  0.24290219  0.09992245  1
  La  La2  1  0.04987718  0.88478317  0.17513230  1
  La  La3  1  0.37751839  0.92796820  0.64149491  1
  La  La4  1  0.74629336  0.95058826  0.07864540  1
  La  La5  1  0.25370664  0.04941174  0.92135460  1
  La  La6  1  0.86813688  0.72305791  0.41405267  1
  La  La7  1  0.13186312  0.27694209  0.58594733  1
  La  La8  1  0.95012282  0.11521683  0.82486770  1
  La  La9  1  0.54021872  0.79325003  0.30782241  1
  La  La10  1  0.95597558  0.57957045  0.16528587  1
  La  La11  1  0.45978128  0.20674997  0.69217759  1
  La  La12  1  0.62248161  0.07203180  0.35850509  1
  La  La13  1  0.16920095  0.75709781  0.90007755  1
  C  C0  1  0.16805741  0.22635689  0.76886820  1
  C  C1  1  0.96147921  0.05659151  0.02263389  1
  C  C2  1  0.75476414  0.88707499  0.27627452  1
  C  C3  1  0.24523586  0.11292501  0.72372548  1
  C  C4  1  0.03852079  0.94340849  0.97736611  1
  C  C5  1  0.83194259  0.77364311  0.23113180  1
  I  I0  1  0.04395531  0.43319673  0.36353529  1
  I  I1  1  0.14369753  0.30485528  0.04215893  1
  I  I2  1  0.60474455  0.07906574  0.87826683  1
  I  I3  1  0.64718805  0.52272729  0.22426333  1
  I  I4  1  0.43548368  0.34358427  0.47817760  1
  I  I5  1  0.56451632  0.65641573  0.52182240  1
  I  I6  1  0.28234755  0.04681383  0.43134761  1
  I  I7  1  0.39525545  0.92093426  0.12173317  1
  I  I8  1  0.85630247  0.69514472  0.95784107  1
  I  I9  1  0.18827837  0.75308965  0.37475872  1
  I  I10  1  0.71426892  0.39258538  0.90809830  1
  I  I11  1  0.35281195  0.47727271  0.77573667  1
  I  I12  1  0.28573108  0.60741462  0.09190170  1
  I  I13  1  0.92962445  0.13236389  0.30353789  1
  I  I14  1  0.07037555  0.86763611  0.69646211  1
  I  I15  1  0.49862362  0.21997083  0.16889569  1
  I  I16  1  0.71765245  0.95318617  0.56865239  1
  I  I17  1  0.95604469  0.56680327  0.63646471  1
  I  I18  1  0.81172163  0.24691035  0.62524128  1
  I  I19  1  0.50137638  0.78002917  0.83110431  1
loop_
_geom_bond_atom_site_label_1
_geom_bond_atom_site_label_2
_geom_bond_distance
_geom_bond_site_symmetry_2
C0 C3 1.407429 1_555
C0 La0 2.337897 1_555
C0 La11 2.657011 1_555
C0 La7 2.660178 1_555
C0 La8 2.803420 1_455
C0 La5 2.809854 1_555
C1 C4 1.405798 1_644
C1 La1 2.332593 1_555
C1 La4 2.735084 1_545
C1 La5 2.752093 1_654
C1 La2 2.787632 1_645
C1 La8 2.792701 1_554
C2 C5 1.407429 1_555
C2 La12 2.353311 1_565
C2 La9 2.660317 1_555
C2 La6 2.667627 1_555
C2 La4 2.787348 1_555
C2 La2 2.794694 1_655
C3 La3 2.353311 1_545
C3 La11 2.660317 1_555
C3 La7 2.667627 1_555
C3 La5 2.787348 1_555
C3 La8 2.794694 1_455
C4 La13 2.332593 1_555
C4 La5 2.735084 1_565
C4 La4 2.752093 1_456
C4 La8 2.787632 1_465
C4 La2 2.792701 1_556
C5 La10 2.337897 1_555
C5 La9 2.657011 1_555
C5 La6 2.660178 1_555
C5 La2 2.803420 1_655
C5 La4 2.809854 1_555
I0 La10 3.201402 1_455
I0 La6 3.266780 1_455
I0 La7 3.531626 1_555
I1 La1 3.281669 1_455
I1 La0 3.286315 1_554
I1 La5 3.376673 1_554
I1 La10 3.502317 1_455
I2 La11 3.242153 1_555
I2 La4 3.404477 1_546
I2 La8 3.434992 1_555
I2 La5 3.472801 1_555
I3 La10 3.207538 1_555
I3 La9 3.276001 1_555
I3 La1 3.561518 1_555
I4 La11 3.206181 1_555
I4 La7 3.241828 1_555
I4 La12 3.447513 1_555
I5 La9 3.206181 1_555
I5 La6 3.241828 1_555
I5 La3 3.447513 1_555
I6 La12 3.302994 1_555
I6 La3 3.308821 1_545
I6 La7 3.365203 1_555
I6 La9 3.387380 1_545
I7 La9 3.242153 1_555
I7 La5 3.404477 1_564
I7 La2 3.434992 1_555
I7 La4 3.472801 1_555
I8 La13 3.281669 1_655
I8 La10 3.286315 1_556
I8 La4 3.376673 1_556
I8 La0 3.502317 1_655
I9 La6 3.184296 1_455
I9 La2 3.385177 1_555
I9 La9 3.502675 1_555
I10 La0 3.219593 1_655
I10 La1 3.236190 1_556
I10 La8 3.334605 1_555
I11 La0 3.207538 1_555
I11 La11 3.276001 1_555
I11 La13 3.561518 1_555
I12 La10 3.219593 1_455
I12 La13 3.236190 1_554
I12 La2 3.334605 1_555
I13 La12 3.220443 1_555
I13 La1 3.225342 1_555
I13 La2 3.339887 1_645
I14 La3 3.220443 1_555
I14 La13 3.225342 1_555
I14 La8 3.339887 1_465
I15 La1 3.217693 1_555
I15 La12 3.233934 1_555
I15 La4 3.317700 1_545
I16 La3 3.302994 1_555
I16 La12 3.308821 1_565
I16 La6 3.365203 1_555
I16 La11 3.387380 1_565
I17 La0 3.201402 1_655
I17 La7 3.266780 1_655
I17 La6 3.531626 1_555
I18 La7 3.184296 1_655
I18 La8 3.385177 1_555
I18 La11 3.502675 1_555
I19 La13 3.217693 1_555
I19 La3 3.233934 1_555
I19 La5 3.317700 1_565
