# generated using pymatgen
data_Mo4O5
_symmetry_space_group_name_H-M   'P 1'
_cell_length_a   13.45288299
_cell_length_b   13.45288299
_cell_length_c   13.45288299
_cell_angle_alpha   153.43759332
_cell_angle_beta   153.43759332
_cell_angle_gamma   37.91757112
_symmetry_Int_Tables_number   1
_chemical_formula_structural   Mo4O5
_chemical_formula_sum   'Mo16 O20'
_cell_volume   486.09455728
_cell_formula_units_Z   4
loop_
 _symmetry_equiv_pos_site_id
 _symmetry_equiv_pos_as_xyz
  1  'x, y, z'
loop_
 _atom_site_type_symbol
 _atom_site_label
 _atom_site_symmetry_multiplicity
 _atom_site_fract_x
 _atom_site_fract_y
 _atom_site_fract_z
 _atom_site_occupancy
  Mo  Mo0  1  0.49892400  0.75419700  0.74472600  1
  Mo  Mo1  1  0.99938600  0.23962800  0.24024200  1
  Mo  Mo2  1  0.50419700  0.74892400  0.24472600  1
  Mo  Mo3  1  0.50419700  0.25947100  0.75527400  1
  Mo  Mo4  1  0.98962800  0.24938600  0.74024200  1
  Mo  Mo5  1  0.00947100  0.75419700  0.25527400  1
  Mo  Mo6  1  0.50914500  0.24938600  0.25975800  1
  Mo  Mo7  1  0.99938600  0.75914500  0.75975800  1
  Mo  Mo8  1  0.65331300  0.92318200  0.73013000  1
  Mo  Mo9  1  0.67318200  0.44305200  0.76987000  1
  Mo  Mo10  1  0.67318200  0.90331300  0.23013000  1
  Mo  Mo11  1  0.19305200  0.92318200  0.26987000  1
  Mo  Mo12  1  0.82962200  0.08091100  0.25128900  1
  Mo  Mo13  1  0.83091100  0.07962200  0.75128900  1
  Mo  Mo14  1  0.82962200  0.57833400  0.74871100  1
  Mo  Mo15  1  0.32833400  0.07962200  0.24871100  1
  O  O0  1  0.60227900  0.83944200  0.76283800  1
  O  O1  1  0.58944200  0.85227900  0.26283800  1
  O  O2  1  0.07802700  0.30520600  0.22717900  1
  O  O3  1  0.91498100  0.13364300  0.21866200  1
  O  O4  1  0.58944200  0.32660400  0.73716200  1
  O  O5  1  0.43288400  0.67166500  0.76121900  1
  O  O6  1  0.88364300  0.16498100  0.71866200  1
  O  O7  1  0.05520600  0.32802700  0.72717900  1
  O  O8  1  0.07660400  0.83944200  0.23716200  1
  O  O9  1  0.24411100  0.50072700  0.74338400  1
  O  O10  1  0.75734300  0.50072700  0.25661600  1
  O  O11  1  0.60084700  0.32802700  0.27282100  1
  O  O12  1  0.91044500  0.67166500  0.23878100  1
  O  O13  1  0.91498100  0.69631900  0.78133800  1
  O  O14  1  0.07802700  0.85084700  0.77282100  1
  O  O15  1  0.42166500  0.16044500  0.73878100  1
  O  O16  1  0.42166500  0.68288400  0.26121900  1
  O  O17  1  0.25072700  0.00734300  0.75661600  1
  O  O18  1  0.25072700  0.49411100  0.24338400  1
  O  O19  1  0.44631900  0.16498100  0.28133800  1
loop_
_geom_bond_atom_site_label_1
_geom_bond_atom_site_label_2
_geom_bond_distance
_geom_bond_site_symmetry_2
Mo0 O5 2.102611 1_555
Mo0 O0 2.172022 1_555
Mo0 O18 2.193600 1_555
Mo0 O17 2.193604 1_565
Mo1 O2 2.002743 1_655
Mo1 O3 2.151924 1_555
Mo1 O10 2.200501 1_555
Mo1 O9 2.200501 1_655
Mo2 O16 2.102611 1_555
Mo2 O1 2.172022 1_555
Mo2 O9 2.193600 1_554
Mo2 O10 2.193604 1_555
Mo3 O15 2.102611 1_555
Mo3 O4 2.172048 1_555
Mo3 O9 2.193599 1_555
Mo3 O10 2.193599 1_556
Mo4 O7 2.002743 1_655
Mo4 O6 2.151924 1_555
Mo4 O17 2.200501 1_655
Mo4 O18 2.200501 1_656
Mo5 O12 2.102611 1_455
Mo5 O8 2.172048 1_555
Mo5 O17 2.193599 1_565
Mo5 O18 2.193599 1_555
Mo6 O11 2.002717 1_555
Mo6 O19 2.151937 1_555
Mo6 O17 2.200501 1_554
Mo6 O18 2.200505 1_555
Mo7 O14 2.002717 1_655
Mo7 O13 2.151937 1_555
Mo7 O10 2.200501 1_555
Mo7 O9 2.200505 1_655
Mo8 O16 2.050172 1_555
Mo8 O15 2.050172 1_565
Mo8 O0 2.140458 1_555
Mo8 O13 2.157030 1_555
Mo8 O3 2.157034 1_566
Mo9 O5 2.050172 1_555
Mo9 O12 2.050172 1_556
Mo9 O4 2.140434 1_555
Mo9 O6 2.157033 1_555
Mo9 O19 2.157033 1_555
Mo10 O5 2.050172 1_554
Mo10 O12 2.050172 1_555
Mo10 O1 2.140458 1_555
Mo10 O19 2.157030 1_565
Mo10 O6 2.157034 1_565
Mo11 O16 2.050172 1_555
Mo11 O15 2.050172 1_565
Mo11 O8 2.140434 1_555
Mo11 O13 2.157033 1_454
Mo11 O3 2.157033 1_465
Mo12 O7 2.082486 1_655
Mo12 O11 2.082491 1_555
Mo12 O0 2.150322 1_544
Mo12 O8 2.150324 1_645
Mo12 O3 2.181404 1_555
Mo13 O2 2.082486 1_656
Mo13 O14 2.082491 1_645
Mo13 O1 2.150322 1_545
Mo13 O4 2.150324 1_555
Mo13 O6 2.181404 1_555
Mo14 O11 2.082487 1_555
Mo14 O7 2.082491 1_655
Mo14 O0 2.150321 1_555
Mo14 O8 2.150322 1_656
Mo14 O13 2.181391 1_555
Mo15 O14 2.082487 1_544
Mo15 O2 2.082491 1_555
Mo15 O1 2.150321 1_545
Mo15 O4 2.150322 1_555
Mo15 O19 2.181391 1_555
