# generated using pymatgen
data_RbP2WO8
_symmetry_space_group_name_H-M   'P 1'
_cell_length_a   11.96874402
_cell_length_b   5.09769718
_cell_length_c   12.76799230
_cell_angle_alpha   66.92874924
_cell_angle_beta   90.00000000
_cell_angle_gamma   90.00000000
_symmetry_Int_Tables_number   1
_chemical_formula_structural   RbP2WO8
_chemical_formula_sum   'Rb4 P8 W4 O32'
_cell_volume   716.70702928
_cell_formula_units_Z   4
loop_
 _symmetry_equiv_pos_site_id
 _symmetry_equiv_pos_as_xyz
  1  'x, y, z'
loop_
 _atom_site_type_symbol
 _atom_site_label
 _atom_site_symmetry_multiplicity
 _atom_site_fract_x
 _atom_site_fract_y
 _atom_site_fract_z
 _atom_site_occupancy
  Rb  Rb0  1  0.12389780  0.29919465  0.46236473  1
  Rb  Rb1  1  0.62389780  0.70080535  0.03763527  1
  Rb  Rb2  1  0.87610220  0.70080535  0.53763527  1
  Rb  Rb3  1  0.37610220  0.29919465  0.96236473  1
  P  P0  1  0.42880229  0.38234517  0.37381240  1
  P  P1  1  0.92880229  0.61765483  0.12618760  1
  P  P2  1  0.57119771  0.61765483  0.62618760  1
  P  P3  1  0.07119771  0.38234517  0.87381240  1
  P  P4  1  0.29540855  0.60261509  0.16512177  1
  P  P5  1  0.79540855  0.39738491  0.33487823  1
  P  P6  1  0.70459145  0.39738491  0.83487823  1
  P  P7  1  0.20459145  0.60261509  0.66512177  1
  W  W0  1  0.10779229  0.08522282  0.17323601  1
  W  W1  1  0.60779229  0.91477718  0.32676399  1
  W  W2  1  0.89220771  0.91477718  0.82676399  1
  W  W3  1  0.39220771  0.08522282  0.67323601  1
  O  O0  1  0.10630088  0.97752783  0.31861534  1
  O  O1  1  0.60630088  0.02247217  0.18138466  1
  O  O2  1  0.89369912  0.02247217  0.68138466  1
  O  O3  1  0.39369912  0.97752783  0.81861534  1
  O  O4  1  0.24999161  0.88733352  0.16149270  1
  O  O5  1  0.74999161  0.11266648  0.33850730  1
  O  O6  1  0.75000839  0.11266648  0.83850730  1
  O  O7  1  0.25000839  0.88733352  0.66149270  1
  O  O8  1  0.20309731  0.43671095  0.13598122  1
  O  O9  1  0.70309731  0.56328905  0.36401878  1
  O  O10  1  0.79690269  0.56328905  0.86401878  1
  O  O11  1  0.29690269  0.43671095  0.63598122  1
  O  O12  1  0.01648572  0.75405886  0.17345012  1
  O  O13  1  0.51648572  0.24594114  0.32654988  1
  O  O14  1  0.98351428  0.24594114  0.82654988  1
  O  O15  1  0.48351428  0.75405886  0.67345012  1
  O  O16  1  0.96510769  0.31908690  0.14058655  1
  O  O17  1  0.46510769  0.68091310  0.35941345  1
  O  O18  1  0.03489231  0.68091310  0.85941345  1
  O  O19  1  0.53489231  0.31908690  0.64058655  1
  O  O20  1  0.10994160  0.20452078  0.99214710  1
  O  O21  1  0.60994160  0.79547922  0.50785290  1
  O  O22  1  0.89005840  0.79547922  0.00785290  1
  O  O23  1  0.39005840  0.20452078  0.49214710  1
  O  O24  1  0.31842159  0.41899178  0.29889721  1
  O  O25  1  0.81842159  0.58100822  0.20110279  1
  O  O26  1  0.68157841  0.58100822  0.70110279  1
  O  O27  1  0.18157841  0.41899178  0.79889721  1
  O  O28  1  0.39862105  0.64109344  0.09728717  1
  O  O29  1  0.89862105  0.35890656  0.40271283  1
  O  O30  1  0.60137895  0.35890656  0.90271283  1
  O  O31  1  0.10137895  0.64109344  0.59728717  1
loop_
_geom_bond_atom_site_label_1
_geom_bond_atom_site_label_2
_geom_bond_distance
_geom_bond_site_symmetry_2
O0 W0 1.717126 1_565
O0 Rb0 2.908713 1_565
O0 Rb0 3.224305 1_555
O1 W1 1.717126 1_545
O1 Rb1 2.908713 1_545
O1 Rb1 3.224305 1_555
O2 W2 1.717126 1_545
O2 Rb2 2.908713 1_545
O2 Rb2 3.224305 1_555
O3 W3 1.717126 1_565
O3 Rb3 2.908713 1_565
O3 Rb3 3.224305 1_555
O4 P4 1.533463 1_555
O4 W0 2.013775 1_565
O4 Rb3 2.994458 1_564
O5 P5 1.533463 1_555
O5 W1 2.013775 1_545
O5 Rb2 2.994458 1_545
O6 P6 1.533463 1_555
O6 W2 2.013775 1_545
O6 Rb1 2.994458 1_546
O7 P7 1.533463 1_555
O7 W3 2.013775 1_565
O7 Rb0 2.994458 1_565
O8 P4 1.523484 1_555
O8 W0 2.017400 1_555
O8 Rb3 3.303158 1_554
O9 P5 1.523484 1_555
O9 W1 2.017400 1_555
O9 Rb2 3.303158 1_555
O10 P6 1.523484 1_555
O10 W2 2.017400 1_555
O10 Rb1 3.303158 1_556
O11 P7 1.523484 1_555
O11 W3 2.017400 1_555
O11 Rb0 3.303158 1_555
O12 P1 1.509268 1_455
O12 W0 2.010121 1_565
O13 P0 1.509268 1_555
O13 W1 2.010121 1_545
O14 P3 1.509268 1_655
O14 W2 2.010121 1_545
O15 P2 1.509268 1_555
O15 W3 2.010121 1_565
O16 P1 1.523096 1_555
O16 W0 2.030263 1_655
O17 P0 1.523096 1_555
O17 W1 2.030263 1_555
O18 P3 1.523096 1_555
O18 W2 2.030263 1_455
O19 P2 1.523096 1_555
O19 W3 2.030263 1_555
O20 P3 1.498710 1_555
O20 W0 2.148128 1_556
O20 Rb3 3.222077 1_555
O21 P2 1.498710 1_555
O21 W1 2.148128 1_555
O21 Rb2 3.222077 1_555
O22 P1 1.498710 1_555
O22 W2 2.148128 1_554
O22 Rb1 3.222077 1_555
O23 P0 1.498710 1_555
O23 W3 2.148128 1_555
O23 Rb0 3.222077 1_555
O24 P0 1.598477 1_555
O24 P4 1.617529 1_555
O24 Rb0 3.025015 1_555
O25 P1 1.598477 1_555
O25 P5 1.617529 1_555
O25 Rb1 3.025015 1_555
O26 P2 1.598477 1_555
O26 P6 1.617529 1_555
O26 Rb2 3.025015 1_555
O27 P3 1.598477 1_555
O27 P7 1.617529 1_555
O27 Rb3 3.025015 1_555
O28 P4 1.476990 1_555
O28 Rb1 2.785851 1_555
O28 Rb3 2.903648 1_554
O28 Rb3 3.124975 1_564
O29 P5 1.476990 1_555
O29 Rb0 2.785851 1_655
O29 Rb2 2.903648 1_555
O29 Rb2 3.124975 1_545
O30 P6 1.476990 1_555
O30 Rb3 2.785851 1_555
O30 Rb1 2.903648 1_556
O30 Rb1 3.124975 1_546
O31 P7 1.476990 1_555
O31 Rb2 2.785851 1_455
O31 Rb0 2.903648 1_555
O31 Rb0 3.124975 1_565
