# generated using pymatgen
data_ZnS
_symmetry_space_group_name_H-M   'P 1'
_cell_length_a   3.80800408
_cell_length_b   3.80800486
_cell_length_c   56.04510797
_cell_angle_alpha   90.00000000
_cell_angle_beta   90.00000000
_cell_angle_gamma   120.00000206
_symmetry_Int_Tables_number   1
_chemical_formula_structural   ZnS
_chemical_formula_sum   'Zn18 S18'
_cell_volume   703.82263896
_cell_formula_units_Z   18
loop_
 _symmetry_equiv_pos_site_id
 _symmetry_equiv_pos_as_xyz
  1  'x, y, z'
loop_
 _atom_site_type_symbol
 _atom_site_label
 _atom_site_symmetry_multiplicity
 _atom_site_fract_x
 _atom_site_fract_y
 _atom_site_fract_z
 _atom_site_occupancy
  Zn  Zn0  1  -0.00000000  0.00000000  0.16667559  1
  Zn  Zn1  1  0.33333300  0.66666700  0.22223347  1
  Zn  Zn2  1  0.33333300  0.66666700  0.72221655  1
  Zn  Zn3  1  0.66666700  0.33333300  0.27776595  1
  Zn  Zn4  1  0.66666700  0.33333300  0.77778574  1
  Zn  Zn5  1  0.33333300  0.66666700  0.55560589  1
  Zn  Zn6  1  0.00000000  0.00000000  0.66667763  1
  Zn  Zn7  1  0.33333300  0.66666700  0.05557597  1
  Zn  Zn8  1  0.66666700  0.33333300  0.61112656  1
  Zn  Zn9  1  0.66666700  0.33333300  0.11112126  1
  Zn  Zn10  1  0.33333300  0.66666700  0.44444006  1
  Zn  Zn11  1  0.66666700  0.33333300  0.38894099  1
  Zn  Zn12  1  0.66666700  0.33333300  0.94445671  1
  Zn  Zn13  1  0.00000000  0.00000000  0.33334012  1
  Zn  Zn14  1  0.33333300  0.66666700  0.83338422  1
  Zn  Zn15  1  -0.00000000  0.00000000  0.00004525  1
  Zn  Zn16  1  0.00000000  0.00000000  0.88888722  1
  Zn  Zn17  1  -0.00000000  -0.00000000  0.50001049  1
  S  S0  1  0.66666700  0.33333300  0.98613613  1
  S  S1  1  -0.00000000  0.00000000  0.04166560  1
  S  S2  1  0.66666700  0.33333300  0.15275947  1
  S  S3  1  0.33333300  0.66666700  0.09721205  1
  S  S4  1  0.33333300  0.66666700  0.76382847  1
  S  S5  1  -0.00000000  0.00000000  0.54169834  1
  S  S6  1  -0.00000000  0.00000000  0.70831731  1
  S  S7  1  0.66666700  0.33333300  0.81947039  1
  S  S8  1  -0.00000000  0.00000000  0.37503073  1
  S  S9  1  0.66666700  0.33333300  0.31937837  1
  S  S10  1  0.00000000  0.00000000  0.93048932  1
  S  S11  1  0.33333300  0.66666700  0.59722150  1
  S  S12  1  0.66666700  0.33333300  0.65276351  1
  S  S13  1  0.33333300  0.66666700  0.26386794  1
  S  S14  1  0.66666700  0.33333300  0.43055345  1
  S  S15  1  -0.00000000  0.00000000  0.20831876  1
  S  S16  1  0.33333300  0.66666700  0.87499149  1
  S  S17  1  0.33333300  0.66666700  0.48605353  1
loop_
_geom_bond_atom_site_label_1
_geom_bond_atom_site_label_2
_geom_bond_distance
_geom_bond_site_symmetry_2
S0 Zn15 2.332660 1_656
S0 Zn15 2.332663 1_556
S0 Zn15 2.332663 1_666
S0 Zn12 2.335928 1_555
S1 Zn15 2.332617 1_555
S1 Zn7 2.332683 1_545
S1 Zn7 2.332686 1_445
S1 Zn7 2.332687 1_555
S2 Zn0 2.332791 1_655
S2 Zn0 2.332794 1_555
S2 Zn0 2.332794 1_665
S2 Zn9 2.333618 1_555
S3 Zn9 2.332661 1_455
S3 Zn9 2.332662 1_565
S3 Zn9 2.332668 1_555
S3 Zn7 2.333499 1_555
S4 Zn2 2.332145 1_555
S4 Zn4 2.333563 1_455
S4 Zn4 2.333563 1_565
S4 Zn4 2.333569 1_555
S5 Zn5 2.332631 1_545
S5 Zn5 2.332633 1_445
S5 Zn5 2.332634 1_555
S5 Zn17 2.336400 1_555
S6 Zn2 2.332475 1_545
S6 Zn2 2.332478 1_445
S6 Zn2 2.332478 1_555
S6 Zn6 2.333700 1_555
S7 Zn14 2.332748 1_655
S7 Zn14 2.332748 1_545
S7 Zn14 2.332754 1_555
S7 Zn4 2.336221 1_555
S8 Zn11 2.332681 1_455
S8 Zn11 2.332684 1_555
S8 Zn11 2.332685 1_445
S8 Zn13 2.336555 1_555
S9 Zn3 2.332173 1_555
S9 Zn13 2.333647 1_655
S9 Zn13 2.333650 1_555
S9 Zn13 2.333651 1_665
S10 Zn16 2.331594 1_555
S10 Zn12 2.333753 1_455
S10 Zn12 2.333756 1_555
S10 Zn12 2.333757 1_445
S11 Zn5 2.332351 1_555
S11 Zn8 2.332584 1_455
S11 Zn8 2.332584 1_565
S11 Zn8 2.332590 1_555
S12 Zn6 2.332754 1_655
S12 Zn6 2.332757 1_555
S12 Zn6 2.332757 1_665
S12 Zn8 2.333547 1_555
S13 Zn3 2.332452 1_455
S13 Zn3 2.332452 1_565
S13 Zn3 2.332458 1_555
S13 Zn1 2.333408 1_555
S14 Zn11 2.332175 1_555
S14 Zn10 2.332238 1_655
S14 Zn10 2.332239 1_545
S14 Zn10 2.332245 1_555
S15 Zn1 2.332765 1_545
S15 Zn1 2.332768 1_445
S15 Zn1 2.332768 1_555
S15 Zn0 2.333896 1_555
S16 Zn14 2.331884 1_555
S16 Zn16 2.332409 1_565
S16 Zn16 2.332412 1_665
S16 Zn16 2.332413 1_555
S17 Zn10 2.332231 1_555
S17 Zn17 2.333557 1_565
S17 Zn17 2.333560 1_665
S17 Zn17 2.333561 1_555
