# generated using pymatgen
data_Mo2P2PbO12
_symmetry_space_group_name_H-M   'P 1'
_cell_length_a   12.58086000
_cell_length_b   6.43462000
_cell_length_c   12.07097444
_cell_angle_alpha   88.31599094
_cell_angle_beta   90.00000000
_cell_angle_gamma   90.00000000
_symmetry_Int_Tables_number   1
_chemical_formula_structural   Mo2P2PbO12
_chemical_formula_sum   'Mo8 P8 Pb4 O48'
_cell_volume   976.76019422
_cell_formula_units_Z   4
loop_
 _symmetry_equiv_pos_site_id
 _symmetry_equiv_pos_as_xyz
  1  'x, y, z'
loop_
 _atom_site_type_symbol
 _atom_site_label
 _atom_site_symmetry_multiplicity
 _atom_site_fract_x
 _atom_site_fract_y
 _atom_site_fract_z
 _atom_site_occupancy
  Mo  Mo0  1  0.87118000  0.24887100  0.90445700  1
  Mo  Mo1  1  0.37118000  0.75112900  0.59554300  1
  Mo  Mo2  1  0.38482500  0.25268100  0.90186100  1
  Mo  Mo3  1  0.62882000  0.24887100  0.40445700  1
  Mo  Mo4  1  0.61517500  0.74731900  0.09813900  1
  Mo  Mo5  1  0.12882000  0.75112900  0.09554300  1
  Mo  Mo6  1  0.88482500  0.74731900  0.59813900  1
  Mo  Mo7  1  0.11517500  0.25268100  0.40186100  1
  P  P0  1  0.43643800  0.24417800  0.61231500  1
  P  P1  1  0.37548200  0.75580400  0.96019000  1
  P  P2  1  0.06356200  0.24417800  0.11231500  1
  P  P3  1  0.93643800  0.75582200  0.88768500  1
  P  P4  1  0.62451800  0.24419600  0.03981000  1
  P  P5  1  0.12451800  0.75580400  0.46019000  1
  P  P6  1  0.87548200  0.24419600  0.53981000  1
  P  P7  1  0.56356200  0.75582200  0.38768500  1
  Pb  Pb0  1  0.62277800  0.00977800  0.76832800  1
  Pb  Pb1  1  0.87722200  0.00977800  0.26832800  1
  Pb  Pb2  1  0.37722200  0.99022200  0.23167200  1
  Pb  Pb3  1  0.12277800  0.99022200  0.73167200  1
  O  O0  1  0.99043700  0.23600500  0.83099200  1
  O  O1  1  0.90821000  0.44397400  0.60178500  1
  O  O2  1  0.74493500  0.23671700  0.02451000  1
  O  O3  1  0.35716300  0.06680300  0.58626400  1
  O  O4  1  0.36503500  0.21880800  0.04447300  1
  O  O5  1  0.49043700  0.76399500  0.66900800  1
  O  O6  1  0.25754700  0.24430700  0.84681400  1
  O  O7  1  0.54634800  0.20582000  0.56118400  1
  O  O8  1  0.45365200  0.79418000  0.43881600  1
  O  O9  1  0.38278900  0.44650000  0.56806100  1
  O  O10  1  0.86503500  0.78119200  0.45552700  1
  O  O11  1  0.64283700  0.93319700  0.41373600  1
  O  O12  1  0.72495900  0.26792000  0.29965000  1
  O  O13  1  0.88278900  0.55350000  0.93193900  1
  O  O14  1  0.95365200  0.20582000  0.06118400  1
  O  O15  1  0.40821000  0.55602600  0.89821500  1
  O  O16  1  0.25506500  0.76328300  0.97549000  1
  O  O17  1  0.04208600  0.25095700  0.23910200  1
  O  O18  1  0.59179000  0.44397400  0.10178500  1
  O  O19  1  0.58729500  0.05895300  0.11727400  1
  O  O20  1  0.56402300  0.23807500  0.92809100  1
  O  O21  1  0.91270500  0.05895300  0.61727400  1
  O  O22  1  0.00956300  0.76399500  0.16900800  1
  O  O23  1  0.85716300  0.93319700  0.91373600  1
  O  O24  1  0.93597700  0.23807500  0.42809100  1
  O  O25  1  0.45791400  0.25095700  0.73910200  1
  O  O26  1  0.24493500  0.76328300  0.47549000  1
  O  O27  1  0.77504100  0.26792000  0.79965000  1
  O  O28  1  0.22495900  0.73208000  0.20035000  1
  O  O29  1  0.14283700  0.06680300  0.08626400  1
  O  O30  1  0.09179000  0.55602600  0.39821500  1
  O  O31  1  0.43597700  0.76192500  0.07190900  1
  O  O32  1  0.04634800  0.79418000  0.93881600  1
  O  O33  1  0.11721100  0.44650000  0.06806100  1
  O  O34  1  0.63496500  0.78119200  0.95552700  1
  O  O35  1  0.06402300  0.76192500  0.57190900  1
  O  O36  1  0.74245300  0.75569300  0.15318600  1
  O  O37  1  0.95791400  0.74904300  0.76089800  1
  O  O38  1  0.75754700  0.75569300  0.65318600  1
  O  O39  1  0.61721100  0.55350000  0.43193900  1
  O  O40  1  0.27504100  0.73208000  0.70035000  1
  O  O41  1  0.50956300  0.23600500  0.33099200  1
  O  O42  1  0.75506500  0.23671700  0.52451000  1
  O  O43  1  0.13496500  0.21880800  0.54447300  1
  O  O44  1  0.54208600  0.74904300  0.26089800  1
  O  O45  1  0.24245300  0.24430700  0.34681400  1
  O  O46  1  0.41270500  0.94104700  0.88272600  1
  O  O47  1  0.08729500  0.94104700  0.38272600  1
loop_
_geom_bond_atom_site_label_1
_geom_bond_atom_site_label_2
_geom_bond_distance
_geom_bond_site_symmetry_2
Mo0 O0 1.746035 1_555
Mo0 O27 1.751960 1_555
Mo0 O13 2.002966 1_555
Mo0 O23 2.038680 1_545
Mo0 O2 2.149910 1_556
Mo0 O14 2.168311 1_556
Mo1 O5 1.746035 1_555
Mo1 O40 1.751960 1_555
Mo1 O9 2.002966 1_555
Mo1 O3 2.038680 1_565
Mo1 O26 2.149910 1_555
Mo1 O8 2.168311 1_555
Mo2 O6 1.735104 1_555
Mo2 O4 1.746679 1_556
Mo2 O15 1.973169 1_555
Mo2 O46 2.055387 1_545
Mo2 O25 2.169519 1_555
Mo2 O20 2.278145 1_555
Mo3 O41 1.746035 1_555
Mo3 O12 1.751960 1_555
Mo3 O39 2.002966 1_555
Mo3 O11 2.038680 1_545
Mo3 O42 2.149910 1_555
Mo3 O7 2.168311 1_555
Mo4 O36 1.735104 1_555
Mo4 O34 1.746679 1_554
Mo4 O18 1.973169 1_555
Mo4 O19 2.055387 1_565
Mo4 O44 2.169519 1_555
Mo4 O31 2.278145 1_555
Mo5 O22 1.746035 1_555
Mo5 O28 1.751960 1_555
Mo5 O33 2.002966 1_555
Mo5 O29 2.038680 1_565
Mo5 O16 2.149910 1_554
Mo5 O32 2.168311 1_554
Mo6 O38 1.735104 1_555
Mo6 O10 1.746679 1_555
Mo6 O1 1.973169 1_555
Mo6 O21 2.055387 1_565
Mo6 O37 2.169519 1_555
Mo6 O35 2.278145 1_655
Mo7 O45 1.735104 1_555
Mo7 O43 1.746679 1_555
Mo7 O30 1.973169 1_555
Mo7 O47 2.055387 1_545
Mo7 O17 2.169519 1_555
Mo7 O24 2.278145 1_455
O0 Pb3 2.611912 1_645
O1 P6 1.561476 1_555
O2 P4 1.527095 1_555
O3 P0 1.554780 1_555
O4 Pb2 2.664156 1_545
O5 Pb0 2.611912 1_565
O6 Pb3 2.759184 1_545
O7 P0 1.537154 1_555
O8 P7 1.537154 1_555
O9 P0 1.547545 1_555
O10 Pb1 2.664156 1_565
O11 P7 1.554780 1_555
O12 Pb1 2.570692 1_555
O13 P3 1.547545 1_555
O14 P2 1.537154 1_655
O15 P1 1.561476 1_555
O16 P1 1.527095 1_555
O17 P2 1.555983 1_555
O17 Pb1 2.608194 1_455
O18 P4 1.561476 1_555
O19 P4 1.564906 1_555
O20 P4 1.550007 1_556
O20 Pb0 2.567094 1_555
O21 P6 1.564906 1_555
O22 Pb1 2.611912 1_465
O23 P3 1.554780 1_555
O24 P6 1.550007 1_555
O24 Pb1 2.567094 1_555
O25 P0 1.555983 1_555
O25 Pb0 2.608194 1_555
O26 P5 1.527095 1_555
O27 Pb0 2.570692 1_555
O28 Pb2 2.570692 1_555
O29 P2 1.554780 1_555
O30 P5 1.561476 1_555
O31 P1 1.550007 1_554
O31 Pb2 2.567094 1_555
O32 P3 1.537154 1_455
O33 P2 1.547545 1_555
O34 Pb0 2.664156 1_565
O35 P5 1.550007 1_555
O35 Pb3 2.567094 1_555
O36 Pb1 2.759184 1_565
O37 P3 1.555983 1_555
O37 Pb3 2.608194 1_655
O38 Pb0 2.759184 1_565
O39 P7 1.547545 1_555
O40 Pb3 2.570692 1_555
O41 Pb2 2.611912 1_545
O42 P6 1.527095 1_555
O43 Pb3 2.664156 1_545
O44 P7 1.555983 1_555
O44 Pb2 2.608194 1_555
O45 Pb2 2.759184 1_545
O46 P1 1.564906 1_555
O47 P5 1.564906 1_555
