# generated using pymatgen
data_Dy2(TeO3)3
_symmetry_space_group_name_H-M   'P 1'
_cell_length_a   5.43060100
_cell_length_b   13.92158800
_cell_length_c   22.85488673
_cell_angle_alpha   81.38477266
_cell_angle_beta   90.00000000
_cell_angle_gamma   90.00000000
_symmetry_Int_Tables_number   1
_chemical_formula_structural   Dy2(TeO3)3
_chemical_formula_sum   'Dy16 Te24 O72'
_cell_volume   1708.39217339
_cell_formula_units_Z   8
loop_
 _symmetry_equiv_pos_site_id
 _symmetry_equiv_pos_as_xyz
  1  'x, y, z'
loop_
 _atom_site_type_symbol
 _atom_site_label
 _atom_site_symmetry_multiplicity
 _atom_site_fract_x
 _atom_site_fract_y
 _atom_site_fract_z
 _atom_site_occupancy
  Dy  Dy0  1  0.29517900  0.69997500  0.29473400  1
  Dy  Dy1  1  0.28006500  0.31937500  0.33314800  1
  Dy  Dy2  1  0.75311300  0.49021600  0.06044400  1
  Dy  Dy3  1  0.70482100  0.30002500  0.70526600  1
  Dy  Dy4  1  0.71993500  0.68062500  0.66685200  1
  Dy  Dy5  1  0.73868500  0.12255700  0.85842000  1
  Dy  Dy6  1  0.74688700  0.49021600  0.56044400  1
  Dy  Dy7  1  0.25311300  0.50978400  0.43955600  1
  Dy  Dy8  1  0.76131500  0.12255700  0.35842000  1
  Dy  Dy9  1  0.26131500  0.87744300  0.14158000  1
  Dy  Dy10  1  0.79517900  0.30002500  0.20526600  1
  Dy  Dy11  1  0.24688700  0.50978400  0.93955600  1
  Dy  Dy12  1  0.20482100  0.69997500  0.79473400  1
  Dy  Dy13  1  0.21993500  0.31937500  0.83314800  1
  Dy  Dy14  1  0.23868500  0.87744300  0.64158000  1
  Dy  Dy15  1  0.78006500  0.68062500  0.16685200  1
  Te  Te0  1  0.26187600  0.11267800  0.47475600  1
  Te  Te1  1  0.21922600  0.13203000  0.74086800  1
  Te  Te2  1  0.29210300  0.68553400  0.04660600  1
  Te  Te3  1  0.20276600  0.91989700  0.87541000  1
  Te  Te4  1  0.78866100  0.49724500  0.80591800  1
  Te  Te5  1  0.78077400  0.86797000  0.25913200  1
  Te  Te6  1  0.30889900  0.30596000  0.08748800  1
  Te  Te7  1  0.71133900  0.49724500  0.30591800  1
  Te  Te8  1  0.70789700  0.31446600  0.95339400  1
  Te  Te9  1  0.80889900  0.69404000  0.41251200  1
  Te  Te10  1  0.70276600  0.08010300  0.62459000  1
  Te  Te11  1  0.76187600  0.88732200  0.02524400  1
  Te  Te12  1  0.23812400  0.11267800  0.97475600  1
  Te  Te13  1  0.69110100  0.69404000  0.91251200  1
  Te  Te14  1  0.73812400  0.88732200  0.52524400  1
  Te  Te15  1  0.20789700  0.68553400  0.54660600  1
  Te  Te16  1  0.79723400  0.08010300  0.12459000  1
  Te  Te17  1  0.21133900  0.50275500  0.19408200  1
  Te  Te18  1  0.79210300  0.31446600  0.45339400  1
  Te  Te19  1  0.19110100  0.30596000  0.58748800  1
  Te  Te20  1  0.28077400  0.13203000  0.24086800  1
  Te  Te21  1  0.71922600  0.86797000  0.75913200  1
  Te  Te22  1  0.28866100  0.50275500  0.69408200  1
  Te  Te23  1  0.29723400  0.91989700  0.37541000  1
  O  O0  1  0.34859000  0.84914900  0.81799200  1
  O  O1  1  0.88842700  0.81160500  0.59403700  1
  O  O2  1  0.99488900  0.21066900  0.77972300  1
  O  O3  1  0.00064900  0.63877900  0.89853900  1
  O  O4  1  0.59110400  0.39972900  0.26221900  1
  O  O5  1  0.01553700  0.99488700  0.38394700  1
  O  O6  1  0.01632700  0.62698000  0.36277300  1
  O  O7  1  0.00511100  0.78933100  0.22027700  1
  O  O8  1  0.90501700  0.52504100  0.15158500  1
  O  O9  1  0.98367300  0.37302000  0.63722700  1
  O  O10  1  0.50064900  0.36122100  0.60146100  1
  O  O11  1  0.98069100  0.81104400  0.71448600  1
  O  O12  1  0.62795200  0.27205100  0.38559700  1
  O  O13  1  0.09110400  0.60027100  0.23778100  1
  O  O14  1  0.98026100  0.60886000  0.60038600  1
  O  O15  1  0.09498300  0.47495900  0.84841500  1
  O  O16  1  0.57729400  0.59476900  0.97783800  1
  O  O17  1  0.92623800  0.78776400  0.99430500  1
  O  O18  1  0.91536400  0.60751200  0.75291400  1
  O  O19  1  0.53268000  0.05803700  0.43885900  1
  O  O20  1  0.07376200  0.21223600  0.00569500  1
  O  O21  1  0.65141000  0.15085100  0.18200800  1
  O  O22  1  0.61157300  0.81160500  0.09403700  1
  O  O23  1  0.03268000  0.94196300  0.06114100  1
  O  O24  1  0.59498300  0.52504100  0.65158500  1
  O  O25  1  0.50556300  0.99195200  0.67666800  1
  O  O26  1  0.42270600  0.40523100  0.02216200  1
  O  O27  1  0.15829500  0.22146700  0.17567000  1
  O  O28  1  0.40501700  0.47495900  0.34841500  1
  O  O29  1  0.51973900  0.60886000  0.10038600  1
  O  O30  1  0.42623800  0.21223600  0.50569500  1
  O  O31  1  0.99443700  0.99195200  0.17666800  1
  O  O32  1  0.48446300  0.99488700  0.88394700  1
  O  O33  1  0.40321800  0.57944000  0.52978000  1
  O  O34  1  0.57376200  0.78776400  0.49430500  1
  O  O35  1  0.38842700  0.18839500  0.90596300  1
  O  O36  1  0.01973900  0.39114000  0.39961400  1
  O  O37  1  0.15141000  0.84914900  0.31799200  1
  O  O38  1  0.40889600  0.60027100  0.73778100  1
  O  O39  1  0.01930900  0.18895600  0.28551400  1
  O  O40  1  0.49935100  0.63877900  0.39853900  1
  O  O41  1  0.65829500  0.77853300  0.32433000  1
  O  O42  1  0.12795200  0.72794900  0.11440300  1
  O  O43  1  0.51632700  0.37302000  0.13722700  1
  O  O44  1  0.37204800  0.72794900  0.61440300  1
  O  O45  1  0.49488900  0.78933100  0.72027700  1
  O  O46  1  0.11157300  0.18839500  0.40596300  1
  O  O47  1  0.51930900  0.81104400  0.21448600  1
  O  O48  1  0.41536400  0.39248800  0.74708600  1
  O  O49  1  0.48026100  0.39114000  0.89961400  1
  O  O50  1  0.98446300  0.00511300  0.61605300  1
  O  O51  1  0.84859000  0.15085100  0.68200800  1
  O  O52  1  0.87204800  0.27205100  0.88559700  1
  O  O53  1  0.84170500  0.77853300  0.82433000  1
  O  O54  1  0.92270600  0.59476900  0.47783800  1
  O  O55  1  0.00556300  0.00804800  0.82333200  1
  O  O56  1  0.51553700  0.00511300  0.11605300  1
  O  O57  1  0.34170500  0.22146700  0.67567000  1
  O  O58  1  0.09678200  0.57944000  0.02978000  1
  O  O59  1  0.48367300  0.62698000  0.86277300  1
  O  O60  1  0.58463600  0.60751200  0.25291400  1
  O  O61  1  0.90889600  0.39972900  0.76221900  1
  O  O62  1  0.08463600  0.39248800  0.24708600  1
  O  O63  1  0.48069100  0.18895600  0.78551400  1
  O  O64  1  0.90321800  0.42056000  0.97022000  1
  O  O65  1  0.96732000  0.05803700  0.93885900  1
  O  O66  1  0.59678200  0.42056000  0.47022000  1
  O  O67  1  0.99935100  0.36122100  0.10146100  1
  O  O68  1  0.46732000  0.94196300  0.56114100  1
  O  O69  1  0.50511100  0.21066900  0.27972300  1
  O  O70  1  0.07729400  0.40523100  0.52216200  1
  O  O71  1  0.49443700  0.00804800  0.32333200  1
loop_
_geom_bond_atom_site_label_1
_geom_bond_atom_site_label_2
_geom_bond_distance
_geom_bond_site_symmetry_2
Dy0 O6 2.295768 1_555
Dy0 O13 2.321738 1_555
Dy0 O60 2.325952 1_555
Dy0 O37 2.352807 1_555
Dy0 O41 2.400787 1_555
Dy0 O7 2.508080 1_555
Dy0 O47 2.527158 1_555
Dy0 O40 2.641624 1_555
Dy1 O12 2.281135 1_555
Dy1 O62 2.330537 1_555
Dy1 O28 2.345224 1_555
Dy1 O36 2.399805 1_555
Dy1 O69 2.414203 1_555
Dy1 O46 2.454092 1_555
Dy1 O4 2.487797 1_555
Dy1 O39 2.660671 1_555
Dy2 O58 2.292694 1_655
Dy2 O67 2.321108 1_555
Dy2 O8 2.357346 1_555
Dy2 O29 2.370532 1_555
Dy2 O26 2.386412 1_555
Dy2 O16 2.402358 1_554
Dy2 O64 2.540869 1_554
Dy2 O43 2.556804 1_555
Dy3 O9 2.295768 1_555
Dy3 O61 2.321738 1_555
Dy3 O48 2.325952 1_555
Dy3 O51 2.352807 1_555
Dy3 O57 2.400787 1_555
Dy3 O2 2.508080 1_555
Dy3 O63 2.527158 1_555
Dy3 O10 2.641624 1_555
Dy4 O44 2.281135 1_555
Dy4 O18 2.330537 1_555
Dy4 O24 2.345224 1_555
Dy4 O14 2.399805 1_555
Dy4 O45 2.414203 1_555
Dy4 O1 2.454092 1_555
Dy4 O38 2.487797 1_555
Dy4 O11 2.660671 1_555
Dy5 O32 2.257155 1_545
Dy5 O63 2.265484 1_555
Dy5 O65 2.287687 1_555
Dy5 O52 2.372546 1_555
Dy5 O55 2.380735 1_655
Dy5 O35 2.436634 1_555
Dy5 O2 2.452454 1_555
Dy6 O33 2.292694 1_555
Dy6 O10 2.321108 1_555
Dy6 O24 2.357346 1_555
Dy6 O14 2.370532 1_555
Dy6 O70 2.386412 1_655
Dy6 O54 2.402358 1_555
Dy6 O66 2.540869 1_555
Dy6 O9 2.556804 1_555
Dy7 O66 2.292694 1_555
Dy7 O40 2.321108 1_555
Dy7 O28 2.357346 1_555
Dy7 O36 2.370532 1_555
Dy7 O54 2.386412 1_455
Dy7 O70 2.402358 1_555
Dy7 O33 2.540869 1_555
Dy7 O6 2.556804 1_555
Dy8 O5 2.257155 1_645
Dy8 O39 2.265484 1_655
Dy8 O19 2.287687 1_555
Dy8 O12 2.372546 1_555
Dy8 O71 2.380735 1_555
Dy8 O46 2.436634 1_655
Dy8 O69 2.452454 1_555
Dy9 O56 2.257155 1_565
Dy9 O47 2.265484 1_555
Dy9 O23 2.287687 1_555
Dy9 O42 2.372546 1_555
Dy9 O31 2.380735 1_455
Dy9 O22 2.436634 1_555
Dy9 O7 2.452454 1_555
Dy10 O43 2.295768 1_555
Dy10 O4 2.321738 1_555
Dy10 O62 2.325952 1_655
Dy10 O21 2.352807 1_555
Dy10 O27 2.400787 1_655
Dy10 O69 2.508080 1_555
Dy10 O39 2.527158 1_655
Dy10 O67 2.641624 1_555
Dy11 O64 2.292694 1_455
Dy11 O3 2.321108 1_555
Dy11 O15 2.357346 1_555
Dy11 O49 2.370532 1_555
Dy11 O16 2.386412 1_555
Dy11 O26 2.402358 1_556
Dy11 O58 2.540869 1_556
Dy11 O59 2.556804 1_555
Dy12 O59 2.295768 1_555
Dy12 O38 2.321738 1_555
Dy12 O18 2.325952 1_455
Dy12 O0 2.352807 1_555
Dy12 O53 2.400787 1_455
Dy12 O45 2.508080 1_555
Dy12 O11 2.527158 1_455
Dy12 O3 2.641624 1_555
Dy13 O52 2.281135 1_455
Dy13 O48 2.330537 1_555
Dy13 O15 2.345224 1_555
Dy13 O49 2.399805 1_555
Dy13 O2 2.414203 1_455
Dy13 O35 2.454092 1_555
Dy13 O61 2.487797 1_455
Dy13 O63 2.660671 1_555
Dy14 O50 2.257155 1_465
Dy14 O11 2.265484 1_455
Dy14 O68 2.287687 1_555
Dy14 O44 2.372546 1_555
Dy14 O25 2.380735 1_555
Dy14 O1 2.436634 1_455
Dy14 O45 2.452454 1_555
Dy15 O42 2.281135 1_655
Dy15 O60 2.330537 1_555
Dy15 O8 2.345224 1_555
Dy15 O29 2.399805 1_555
Dy15 O7 2.414203 1_655
Dy15 O22 2.454092 1_555
Dy15 O13 2.487797 1_655
Dy15 O47 2.660671 1_555
O0 Te3 1.925230 1_555
O0 Te21 2.413294 1_555
O1 Te14 1.937223 1_555
O2 Te1 1.939747 1_655
O3 Te13 1.895604 1_455
O4 Te7 1.916518 1_555
O5 Te23 1.878624 1_555
O6 Te9 1.936674 1_455
O7 Te5 1.939747 1_455
O8 Te17 1.927850 1_655
O9 Te19 1.936674 1_655
O10 Te19 1.895604 1_555
O11 Te21 1.981830 1_555
O12 Te18 1.954067 1_555
O13 Te17 1.916518 1_555
O14 Te15 1.945581 1_655
O15 Te4 1.927850 1_455
O16 Te13 1.975564 1_555
O16 Te2 2.657161 1_556
O17 Te11 1.873857 1_556
O18 Te4 1.933988 1_555
O19 Te0 1.897752 1_555
O20 Te12 1.873857 1_554
O21 Te16 1.925230 1_555
O21 Te20 2.413294 1_555
O22 Te11 1.937223 1_555
O23 Te11 1.897752 1_455
O24 Te22 1.927850 1_555
O25 Te10 1.905773 1_565
O25 Te21 2.627360 1_555
O26 Te6 1.975564 1_555
O26 Te8 2.657161 1_554
O27 Te20 1.912386 1_555
O27 Te6 2.324671 1_555
O28 Te7 1.927850 1_555
O29 Te2 1.945581 1_555
O30 Te0 1.873857 1_555
O31 Te16 1.905773 1_565
O31 Te5 2.627360 1_555
O32 Te3 1.878624 1_555
O33 Te15 1.903859 1_555
O34 Te14 1.873857 1_555
O35 Te12 1.937223 1_555
O36 Te18 1.945581 1_455
O37 Te23 1.925230 1_555
O37 Te5 2.413294 1_455
O38 Te22 1.916518 1_555
O39 Te20 1.981830 1_555
O40 Te9 1.895604 1_555
O41 Te5 1.912386 1_555
O41 Te9 2.324671 1_555
O42 Te2 1.954067 1_555
O43 Te6 1.936674 1_555
O44 Te15 1.954067 1_555
O45 Te21 1.939747 1_555
O46 Te0 1.937223 1_555
O47 Te5 1.981830 1_555
O48 Te22 1.933988 1_555
O49 Te8 1.945581 1_555
O50 Te10 1.878624 1_555
O51 Te10 1.925230 1_555
O51 Te1 2.413294 1_655
O52 Te8 1.954067 1_555
O53 Te21 1.912386 1_555
O53 Te13 2.324671 1_555
O54 Te9 1.975564 1_555
O54 Te15 2.657161 1_655
O55 Te3 1.905773 1_545
O55 Te1 2.627360 1_555
O56 Te16 1.878624 1_555
O57 Te1 1.912386 1_555
O57 Te19 2.324671 1_555
O58 Te2 1.903859 1_555
O59 Te13 1.936674 1_555
O60 Te7 1.933988 1_555
O61 Te4 1.916518 1_555
O62 Te17 1.933988 1_555
O63 Te1 1.981830 1_555
O64 Te8 1.903859 1_555
O65 Te12 1.897752 1_655
O66 Te18 1.903859 1_555
O67 Te6 1.895604 1_655
O68 Te14 1.897752 1_555
O69 Te20 1.939747 1_555
O70 Te19 1.975564 1_555
O70 Te18 2.657161 1_455
O71 Te23 1.905773 1_545
O71 Te20 2.627360 1_555
