# generated using pymatgen
data_DySiRu2C
_symmetry_space_group_name_H-M   'P 1'
_cell_length_a   5.88487901
_cell_length_b   5.88487901
_cell_length_c   7.16159800
_cell_angle_alpha   90.00000000
_cell_angle_beta   90.00000000
_cell_angle_gamma   142.22039219
_symmetry_Int_Tables_number   1
_chemical_formula_structural   DySiRu2C
_chemical_formula_sum   'Dy2 Si2 Ru4 C2'
_cell_volume   151.94285805
_cell_formula_units_Z   2
loop_
 _symmetry_equiv_pos_site_id
 _symmetry_equiv_pos_as_xyz
  1  'x, y, z'
loop_
 _atom_site_type_symbol
 _atom_site_label
 _atom_site_symmetry_multiplicity
 _atom_site_fract_x
 _atom_site_fract_y
 _atom_site_fract_z
 _atom_site_occupancy
  Dy  Dy0  1  0.95249600  0.04750400  0.75000000  1
  Dy  Dy1  1  0.04750400  0.95249600  0.25000000  1
  Si  Si0  1  0.76896900  0.23103100  0.25000000  1
  Si  Si1  1  0.23103100  0.76896900  0.75000000  1
  Ru  Ru0  1  0.66390500  0.33609500  0.94305000  1
  Ru  Ru1  1  0.66390500  0.33609500  0.55695000  1
  Ru  Ru2  1  0.33609500  0.66390500  0.05695000  1
  Ru  Ru3  1  0.33609500  0.66390500  0.44305000  1
  C  C0  1  0.50000000  0.50000000  0.00000000  1
  C  C1  1  0.50000000  0.50000000  0.50000000  1
loop_
_geom_bond_atom_site_label_1
_geom_bond_atom_site_label_2
_geom_bond_distance
_geom_bond_site_symmetry_2
Dy0 Si1 3.101731 1_645
Dy0 Si1 3.116417 1_545
Dy0 Si1 3.116417 1_655
Dy1 Si0 3.101731 1_465
Dy1 Si0 3.116417 1_455
Dy1 Si0 3.116417 1_565
Ru0 Si1 2.469834 1_545
Ru0 Si1 2.469834 1_655
Ru0 Si0 2.490214 1_556
Ru1 Si1 2.469834 1_655
Ru1 Si1 2.469834 1_545
Ru1 Si0 2.490214 1_555
Ru2 Si0 2.469834 1_455
Ru2 Si0 2.469834 1_565
Ru2 Si1 2.490214 1_554
Ru3 Si0 2.469834 1_455
Ru3 Si0 2.469834 1_565
Ru3 Si1 2.490214 1_555
C0 Ru0 1.870238 1_554
C0 Ru2 1.870238 1_555
C0 Dy0 2.667442 1_454
C0 Dy1 2.667442 1_655
C0 Dy1 2.667442 1_545
C0 Dy0 2.667442 1_564
C1 Ru1 1.870238 1_555
C1 Ru3 1.870238 1_555
C1 Dy0 2.667442 1_455
C1 Dy0 2.667442 1_565
C1 Dy1 2.667442 1_655
C1 Dy1 2.667442 1_545
