# generated using pymatgen
data_NaP(HO2)2
_symmetry_space_group_name_H-M   'P 1'
_cell_length_a   12.52176900
_cell_length_b   6.23752700
_cell_length_c   9.79048079
_cell_angle_alpha   88.57290061
_cell_angle_beta   90.00000000
_cell_angle_gamma   90.00000000
_symmetry_Int_Tables_number   1
_chemical_formula_structural   NaP(HO2)2
_chemical_formula_sum   'Na8 P8 H16 O32'
_cell_volume   764.44706303
_cell_formula_units_Z   8
loop_
 _symmetry_equiv_pos_site_id
 _symmetry_equiv_pos_as_xyz
  1  'x, y, z'
loop_
 _atom_site_type_symbol
 _atom_site_label
 _atom_site_symmetry_multiplicity
 _atom_site_fract_x
 _atom_site_fract_y
 _atom_site_fract_z
 _atom_site_occupancy
  Na  Na0  1  0.12608600  0.06175200  0.07193900  1
  Na  Na1  1  0.62608600  0.93824800  0.42806100  1
  Na  Na2  1  0.87391400  0.93824800  0.92806100  1
  Na  Na3  1  0.37391400  0.06175200  0.57193900  1
  Na  Na4  1  0.06226100  0.25874300  0.47023000  1
  Na  Na5  1  0.56226100  0.74125700  0.02977000  1
  Na  Na6  1  0.93773900  0.74125700  0.52977000  1
  Na  Na7  1  0.43773900  0.25874300  0.97023000  1
  P  P0  1  0.99682500  0.60071700  0.18812900  1
  P  P1  1  0.49682500  0.39928300  0.31187100  1
  P  P2  1  0.00317500  0.39928300  0.81187100  1
  P  P3  1  0.50317500  0.60071700  0.68812900  1
  P  P4  1  0.32164700  0.54390200  0.48973900  1
  P  P5  1  0.82164700  0.45609800  0.01026100  1
  P  P6  1  0.67835300  0.45609800  0.51026100  1
  P  P7  1  0.17835300  0.54390200  0.98973900  1
  H  H0  1  0.42133900  0.99246600  0.21211100  1
  H  H1  1  0.92133900  0.00753400  0.28788900  1
  H  H2  1  0.57866100  0.00753400  0.78788900  1
  H  H3  1  0.07866100  0.99246600  0.71211100  1
  H  H4  1  0.34870400  0.86601400  0.10896600  1
  H  H5  1  0.84870400  0.13398600  0.39103400  1
  H  H6  1  0.65129600  0.13398600  0.89103400  1
  H  H7  1  0.15129600  0.86601400  0.60896600  1
  H  H8  1  0.20189200  0.92394900  0.35250800  1
  H  H9  1  0.70189200  0.07605100  0.14749200  1
  H  H10  1  0.79810800  0.07605100  0.64749200  1
  H  H11  1  0.29810800  0.92394900  0.85250800  1
  H  H12  1  0.22484100  0.16707300  0.33897200  1
  H  H13  1  0.72484100  0.83292700  0.16102800  1
  H  H14  1  0.77515900  0.83292700  0.66102800  1
  H  H15  1  0.27515900  0.16707300  0.83897200  1
  O  O0  1  0.10064600  0.48564400  0.11928400  1
  O  O1  1  0.60064600  0.51435600  0.38071600  1
  O  O2  1  0.89935400  0.51435600  0.88071600  1
  O  O3  1  0.39935400  0.48564400  0.61928400  1
  O  O4  1  0.40396800  0.56429300  0.36177600  1
  O  O5  1  0.90396800  0.43570700  0.13822400  1
  O  O6  1  0.59603200  0.43570700  0.63822400  1
  O  O7  1  0.09603200  0.56429300  0.86177600  1
  O  O8  1  0.50789800  0.43179400  0.16123300  1
  O  O9  1  0.00789800  0.56820600  0.33876700  1
  O  O10  1  0.49210200  0.56820600  0.83876700  1
  O  O11  1  0.99210200  0.43179400  0.66123300  1
  O  O12  1  0.47953600  0.17923800  0.37492600  1
  O  O13  1  0.97953600  0.82076200  0.12507400  1
  O  O14  1  0.52046400  0.82076200  0.62507400  1
  O  O15  1  0.02046400  0.17923800  0.87492600  1
  O  O16  1  0.25300900  0.34830400  0.47677800  1
  O  O17  1  0.75300900  0.65169600  0.02322200  1
  O  O18  1  0.74699100  0.65169600  0.52322200  1
  O  O19  1  0.24699100  0.34830400  0.97677800  1
  O  O20  1  0.27238500  0.76149400  0.50396700  1
  O  O21  1  0.77238500  0.23850600  0.99603300  1
  O  O22  1  0.72761500  0.23850600  0.49603300  1
  O  O23  1  0.22761500  0.76149400  0.00396700  1
  O  O24  1  0.41612800  0.94496000  0.11775600  1
  O  O25  1  0.91612800  0.05504000  0.38224400  1
  O  O26  1  0.58387200  0.05504000  0.88224400  1
  O  O27  1  0.08387200  0.94496000  0.61775600  1
  O  O28  1  0.18290200  0.05195500  0.29729900  1
  O  O29  1  0.68290200  0.94804500  0.20270100  1
  O  O30  1  0.81709800  0.94804500  0.70270100  1
  O  O31  1  0.31709800  0.05195500  0.79729900  1
loop_
_geom_bond_atom_site_label_1
_geom_bond_atom_site_label_2
_geom_bond_distance
_geom_bond_site_symmetry_2
Na0 O28 2.317603 1_555
Na0 O23 2.372517 1_545
Na0 O13 2.420474 1_445
Na0 O15 2.436451 1_554
Na0 O19 2.504358 1_554
Na0 O0 2.714465 1_555
Na1 O29 2.317603 1_555
Na1 O22 2.372517 1_565
Na1 O12 2.420474 1_565
Na1 O14 2.436451 1_555
Na1 O18 2.504358 1_555
Na1 O1 2.714465 1_555
Na2 O30 2.317603 1_555
Na2 O21 2.372517 1_565
Na2 O15 2.420474 1_665
Na2 O13 2.436451 1_556
Na2 O17 2.504358 1_556
Na2 O2 2.714465 1_555
Na3 O31 2.317603 1_555
Na3 O20 2.372517 1_545
Na3 O14 2.420474 1_545
Na3 O12 2.436451 1_555
Na3 O16 2.504358 1_555
Na3 O3 2.714465 1_555
Na4 O11 2.352530 1_455
Na4 O9 2.392116 1_555
Na4 O25 2.399861 1_455
Na4 O27 2.418536 1_545
Na4 O16 2.454163 1_555
Na4 O28 2.630783 1_555
Na5 O10 2.352530 1_554
Na5 O8 2.392116 1_555
Na5 O24 2.399861 1_555
Na5 O26 2.418536 1_564
Na5 O17 2.454163 1_555
Na5 O29 2.630783 1_555
Na6 O9 2.352530 1_655
Na6 O11 2.392116 1_555
Na6 O27 2.399861 1_655
Na6 O25 2.418536 1_565
Na6 O18 2.454163 1_555
Na6 O30 2.630783 1_555
Na7 O8 2.352530 1_556
Na7 O10 2.392116 1_555
Na7 O26 2.399861 1_555
Na7 O24 2.418536 1_546
Na7 O19 2.454163 1_555
Na7 O31 2.630783 1_555
H0 O24 0.979321 1_555
H1 O25 0.979321 1_555
H2 O26 0.979321 1_555
H3 O27 0.979321 1_555
H4 O24 0.982237 1_555
H5 O25 0.982237 1_555
H6 O26 0.982237 1_555
H7 O27 0.982237 1_555
H8 O28 0.982201 1_565
H9 O29 0.982201 1_545
H10 O30 0.982201 1_545
H11 O31 0.982201 1_565
H12 O28 0.986122 1_555
H12 Na4 2.481817 1_555
H13 O29 0.986122 1_555
H13 Na5 2.481817 1_555
H14 O30 0.986122 1_555
H14 Na6 2.481817 1_555
H15 O31 0.986122 1_555
H15 Na7 2.481817 1_555
O0 P7 1.632324 1_554
O0 P0 1.638189 1_455
O1 P6 1.632324 1_555
O1 P1 1.638189 1_555
O2 P5 1.632324 1_556
O2 P2 1.638189 1_655
O3 P4 1.632324 1_555
O3 P3 1.638189 1_555
O4 P4 1.624917 1_555
O4 P1 1.635569 1_555
O5 P5 1.624917 1_555
O5 P0 1.635569 1_555
O6 P6 1.624917 1_555
O6 P3 1.635569 1_555
O7 P7 1.624917 1_555
O7 P2 1.635569 1_555
O8 P1 1.490148 1_555
O9 P0 1.490148 1_455
O10 P3 1.490148 1_555
O11 P2 1.490148 1_655
O12 P1 1.506528 1_555
O13 P0 1.506528 1_555
O14 P3 1.506528 1_555
O15 P2 1.506528 1_555
O16 P4 1.500339 1_555
O17 P5 1.500339 1_555
O18 P6 1.500339 1_555
O19 P7 1.500339 1_555
O20 P4 1.500470 1_555
O21 P5 1.500470 1_556
O22 P6 1.500470 1_555
O23 P7 1.500470 1_554
