# generated using pymatgen
data_Sm3Re2O9
_symmetry_space_group_name_H-M   'P 1'
_cell_length_a   5.52084104
_cell_length_b   6.82511823
_cell_length_c   10.87607822
_cell_angle_alpha   76.75139199
_cell_angle_beta   75.46767988
_cell_angle_gamma   68.54988056
_symmetry_Int_Tables_number   1
_chemical_formula_structural   Sm3Re2O9
_chemical_formula_sum   'Sm6 Re4 O18'
_cell_volume   364.90635808
_cell_formula_units_Z   2
loop_
 _symmetry_equiv_pos_site_id
 _symmetry_equiv_pos_as_xyz
  1  'x, y, z'
loop_
 _atom_site_type_symbol
 _atom_site_label
 _atom_site_symmetry_multiplicity
 _atom_site_fract_x
 _atom_site_fract_y
 _atom_site_fract_z
 _atom_site_occupancy
  Sm  Sm0  1  0.01236554  0.21089343  0.26945872  1
  Sm  Sm1  1  0.98763446  0.78910657  0.73054128  1
  Sm  Sm2  1  0.23075206  0.15518096  0.88391498  1
  Sm  Sm3  1  0.76924794  0.84481904  0.11608502  1
  Sm  Sm4  1  0.29896981  0.60500685  0.37032572  1
  Sm  Sm5  1  0.70103019  0.39499315  0.62967428  1
  Re  Re0  1  0.34559414  0.12576384  0.56791145  1
  Re  Re1  1  0.65440586  0.87423616  0.43208855  1
  Re  Re2  1  0.51912502  0.38674657  0.09303016  1
  Re  Re3  1  0.48087498  0.61325343  0.90696984  1
  O  O0  1  0.05809699  0.11533792  0.72120038  1
  O  O1  1  0.94190301  0.88466208  0.27879962  1
  O  O2  1  0.07023748  0.20529927  0.47546184  1
  O  O3  1  0.92976252  0.79470073  0.52453816  1
  O  O4  1  0.18502974  0.49572607  0.20129300  1
  O  O5  1  0.81497026  0.50427393  0.79870700  1
  O  O6  1  0.28600613  0.42249295  0.57792591  1
  O  O7  1  0.71399387  0.57750705  0.42207409  1
  O  O8  1  0.39419839  0.16733505  0.07305620  1
  O  O9  1  0.60580161  0.83266495  0.92694380  1
  O  O10  1  0.58598584  0.07604143  0.68819316  1
  O  O11  1  0.41401416  0.92395857  0.31180684  1
  O  O12  1  0.59275099  0.19290666  0.40154291  1
  O  O13  1  0.40724901  0.80709334  0.59845709  1
  O  O14  1  0.65794704  0.52661393  0.18156680  1
  O  O15  1  0.34205296  0.47338607  0.81843320  1
  O  O16  1  0.87196297  0.18724576  0.06057760  1
  O  O17  1  0.12803703  0.81275424  0.93942240  1
loop_
_geom_bond_atom_site_label_1
_geom_bond_atom_site_label_2
_geom_bond_distance
_geom_bond_site_symmetry_2
O0 Re0 2.001019 1_555
O0 Sm2 2.317561 1_555
O0 Sm1 2.372601 1_445
O0 Sm5 2.425297 1_455
O1 Re1 2.001019 1_555
O1 Sm3 2.317561 1_555
O1 Sm0 2.372601 1_665
O1 Sm4 2.425297 1_655
O2 Re0 1.878846 1_555
O2 Sm0 2.331206 1_555
O2 Sm5 2.448180 1_455
O3 Re1 1.878846 1_555
O3 Sm1 2.331206 1_555
O3 Sm4 2.448180 1_655
O4 Re2 1.910471 1_555
O4 Sm0 2.361696 1_555
O4 Sm4 2.425646 1_555
O4 Sm3 2.803611 1_455
O5 Re3 1.910471 1_555
O5 Sm1 2.361696 1_555
O5 Sm5 2.425646 1_555
O5 Sm2 2.803611 1_655
O6 Re0 1.953820 1_555
O6 Sm4 2.312961 1_555
O6 Sm5 2.426148 1_555
O7 Re1 1.953820 1_555
O7 Sm5 2.312961 1_555
O7 Sm4 2.426148 1_555
O8 Re2 1.935229 1_555
O8 Sm3 2.456076 1_545
O8 Sm2 2.473335 1_554
O8 Sm0 2.582243 1_555
O9 Re3 1.935229 1_555
O9 Sm2 2.456076 1_565
O9 Sm3 2.473335 1_556
O9 Sm1 2.582243 1_555
O10 Re0 1.981494 1_555
O10 Sm5 2.391782 1_555
O10 Sm1 2.426399 1_545
O10 Sm2 2.515243 1_555
O11 Re1 1.981494 1_555
O11 Sm4 2.391782 1_555
O11 Sm0 2.426399 1_565
O11 Sm3 2.515243 1_555
O12 Re1 2.034895 1_545
O12 Re0 2.045521 1_555
O12 Sm0 2.429515 1_655
O12 Sm4 2.675628 1_555
O13 Re0 2.034895 1_565
O13 Re1 2.045521 1_555
O13 Sm1 2.429515 1_455
O13 Sm5 2.675628 1_555
O14 Re2 1.937191 1_555
O14 Sm3 2.376746 1_555
O14 Sm4 2.472794 1_555
O14 Sm0 2.509283 1_655
O15 Re3 1.937191 1_555
O15 Sm2 2.376746 1_555
O15 Sm5 2.472794 1_555
O15 Sm1 2.509283 1_455
O16 Re2 1.925738 1_555
O16 Sm2 2.372543 1_654
O16 Sm3 2.509757 1_545
O16 Sm0 2.632738 1_655
O17 Re3 1.925738 1_555
O17 Sm3 2.372543 1_456
O17 Sm2 2.509757 1_565
O17 Sm1 2.632738 1_455
