# generated using pymatgen
data_LaFeSi
_symmetry_space_group_name_H-M   'P 1'
_cell_length_a   4.14043192
_cell_length_b   4.14043192
_cell_length_c   7.30625330
_cell_angle_alpha   90.00000000
_cell_angle_beta   90.00000000
_cell_angle_gamma   90.00000000
_symmetry_Int_Tables_number   1
_chemical_formula_structural   LaFeSi
_chemical_formula_sum   'La2 Fe2 Si2'
_cell_volume   125.25238976
_cell_formula_units_Z   2
loop_
 _symmetry_equiv_pos_site_id
 _symmetry_equiv_pos_as_xyz
  1  'x, y, z'
loop_
 _atom_site_type_symbol
 _atom_site_label
 _atom_site_symmetry_multiplicity
 _atom_site_fract_x
 _atom_site_fract_y
 _atom_site_fract_z
 _atom_site_occupancy
  La  La0  1  0.25000000  0.25000000  0.68813424  1
  La  La1  1  0.75000000  0.75000000  0.31186576  1
  Fe  Fe0  1  0.75000000  0.25000000  -0.00000000  1
  Fe  Fe1  1  0.25000000  0.75000000  -0.00000000  1
  Si  Si0  1  0.25000000  0.25000000  0.16567438  1
  Si  Si1  1  0.75000000  0.75000000  0.83432562  1
loop_
_geom_bond_atom_site_label_1
_geom_bond_atom_site_label_2
_geom_bond_distance
_geom_bond_site_symmetry_2
La0 Si1 3.116480 1_455
La0 Si1 3.116480 1_445
La0 Si1 3.116480 1_545
La0 Si1 3.116480 1_555
La0 Si0 3.817224 1_555
La1 Si0 3.116480 1_555
La1 Si0 3.116480 1_655
La1 Si0 3.116480 1_565
La1 Si0 3.116480 1_665
La1 Si1 3.817224 1_555
Fe0 Si0 2.398125 1_555
Fe0 Si0 2.398125 1_655
Fe0 Si1 2.398125 1_544
Fe0 Si1 2.398125 1_554
Fe0 La1 3.078584 1_545
Fe0 La0 3.078584 1_654
Fe0 La0 3.078584 1_554
Fe0 La1 3.078584 1_555
Fe1 Si0 2.398125 1_555
Fe1 Si1 2.398125 1_454
Fe1 Si0 2.398125 1_565
Fe1 Si1 2.398125 1_554
Fe1 La0 3.078584 1_564
Fe1 La1 3.078584 1_455
Fe1 La0 3.078584 1_554
Fe1 La1 3.078584 1_555
