# generated using pymatgen
data_Mg17(As3O16)2
_symmetry_space_group_name_H-M   'P 1'
_cell_length_a   12.18876900
_cell_length_b   9.96081700
_cell_length_c   10.60938001
_cell_angle_alpha   69.24904281
_cell_angle_beta   90.00000000
_cell_angle_gamma   90.00000000
_symmetry_Int_Tables_number   1
_chemical_formula_structural   Mg17(As3O16)2
_chemical_formula_sum   'Mg34 As12 O64'
_cell_volume   1204.52681718
_cell_formula_units_Z   2
loop_
 _symmetry_equiv_pos_site_id
 _symmetry_equiv_pos_as_xyz
  1  'x, y, z'
loop_
 _atom_site_type_symbol
 _atom_site_label
 _atom_site_symmetry_multiplicity
 _atom_site_fract_x
 _atom_site_fract_y
 _atom_site_fract_z
 _atom_site_occupancy
  Mg  Mg0  1  0.99998000  0.74432300  0.24584600  1
  Mg  Mg1  1  0.87936700  0.74513700  0.00530800  1
  Mg  Mg2  1  0.00060100  0.26563400  0.24713100  1
  Mg  Mg3  1  0.00000000  0.00000000  0.50000000  1
  Mg  Mg4  1  0.25831300  0.99885300  0.50167600  1
  Mg  Mg5  1  0.87900400  0.00168500  0.23991700  1
  Mg  Mg6  1  0.99939900  0.73436600  0.75286900  1
  Mg  Mg7  1  0.24827900  0.73450600  0.75619200  1
  Mg  Mg8  1  0.12480600  0.73514500  0.50538700  1
  Mg  Mg9  1  0.12063300  0.25486300  0.99469200  1
  Mg  Mg10  1  0.00002000  0.25567700  0.75415400  1
  Mg  Mg11  1  0.24947000  0.26854900  0.74388400  1
  Mg  Mg12  1  0.24168700  0.99885300  0.00167600  1
  Mg  Mg13  1  0.50000000  0.00000000  0.00000000  1
  Mg  Mg14  1  0.12099600  0.99831500  0.76008300  1
  Mg  Mg15  1  0.25172100  0.73450600  0.25619200  1
  Mg  Mg16  1  0.50060100  0.73436600  0.25286900  1
  Mg  Mg17  1  0.37519400  0.73514500  0.00538700  1
  Mg  Mg18  1  0.37936700  0.25486300  0.49469200  1
  Mg  Mg19  1  0.25053000  0.26854900  0.24388400  1
  Mg  Mg20  1  0.49998000  0.25567700  0.25415400  1
  Mg  Mg21  1  0.62099600  0.00168500  0.73991700  1
  Mg  Mg22  1  0.74168700  0.00114700  0.49832400  1
  Mg  Mg23  1  0.37900400  0.99831500  0.26008300  1
  Mg  Mg24  1  0.50002000  0.74432300  0.74584600  1
  Mg  Mg25  1  0.74947000  0.73145100  0.75611600  1
  Mg  Mg26  1  0.62063300  0.74513700  0.50530800  1
  Mg  Mg27  1  0.62480600  0.26485500  0.99461300  1
  Mg  Mg28  1  0.49939900  0.26563400  0.74713100  1
  Mg  Mg29  1  0.74827900  0.26549400  0.74380800  1
  Mg  Mg30  1  0.75831300  0.00114700  0.99832400  1
  Mg  Mg31  1  0.75053000  0.73145100  0.25611600  1
  Mg  Mg32  1  0.87519400  0.26485500  0.49461300  1
  Mg  Mg33  1  0.75172100  0.26549400  0.24380800  1
  As  As0  1  0.87387500  0.99942300  0.74891100  1
  As  As1  1  0.12612500  0.00057700  0.25108900  1
  As  As2  1  0.12480200  0.42334200  0.44333900  1
  As  As3  1  0.37387500  0.00057700  0.75108900  1
  As  As4  1  0.87519800  0.57665800  0.55666100  1
  As  As5  1  0.37519800  0.42334200  0.94333900  1
  As  As6  1  0.62612500  0.99942300  0.24891100  1
  As  As7  1  0.12528900  0.57777500  0.05702700  1
  As  As8  1  0.62528900  0.42222500  0.44297300  1
  As  As9  1  0.37471100  0.57777500  0.55702700  1
  As  As10  1  0.87471100  0.42222500  0.94297300  1
  As  As11  1  0.62480200  0.57665800  0.05666100  1
  O  O0  1  0.01934000  0.12064200  0.14909600  1
  O  O1  1  0.86760200  0.12102700  0.84424900  1
  O  O2  1  0.12465400  0.61224800  0.37936900  1
  O  O3  1  0.00987100  0.63357900  0.11546600  1
  O  O4  1  0.00928300  0.36712400  0.38388200  1
  O  O5  1  0.87542200  0.36650800  0.11520800  1
  O  O6  1  0.98359100  0.11601500  0.63662200  1
  O  O7  1  0.26510700  0.11586400  0.63947500  1
  O  O8  1  0.87582600  0.13429000  0.37175200  1
  O  O9  1  0.12708700  0.11456700  0.36165000  1
  O  O10  1  0.12417400  0.86571000  0.62824800  1
  O  O11  1  0.01640900  0.88398500  0.36337800  1
  O  O12  1  0.12457800  0.63349200  0.88479200  1
  O  O13  1  0.37534600  0.61224800  0.87936900  1
  O  O14  1  0.99071700  0.63287600  0.61611800  1
  O  O15  1  0.25867300  0.63256300  0.61612900  1
  O  O16  1  0.99012900  0.36642100  0.88453400  1
  O  O17  1  0.25897500  0.36816400  0.88554000  1
  O  O18  1  0.87534600  0.38775200  0.62063100  1
  O  O19  1  0.12264600  0.36814600  0.61516000  1
  O  O20  1  0.23489300  0.11586400  0.13947500  1
  O  O21  1  0.51640900  0.11601500  0.13662200  1
  O  O22  1  0.13286800  0.14219900  0.86362600  1
  O  O23  1  0.37291300  0.11456700  0.86165000  1
  O  O24  1  0.13239800  0.87897300  0.15575100  1
  O  O25  1  0.37582600  0.86571000  0.12824800  1
  O  O26  1  0.98066000  0.87935800  0.85090400  1
  O  O27  1  0.26276100  0.88482300  0.86722200  1
  O  O28  1  0.37542200  0.63349200  0.38479200  1
  O  O29  1  0.62504500  0.61066600  0.38040200  1
  O  O30  1  0.24132700  0.63256300  0.11612900  1
  O  O31  1  0.50928300  0.63287600  0.11611800  1
  O  O32  1  0.24102500  0.36816400  0.38554000  1
  O  O33  1  0.50987100  0.36642100  0.38453400  1
  O  O34  1  0.12504500  0.38933400  0.11959800  1
  O  O35  1  0.37735400  0.36814600  0.11516000  1
  O  O36  1  0.48066000  0.12064200  0.64909600  1
  O  O37  1  0.76276100  0.11517700  0.63277800  1
  O  O38  1  0.36713200  0.14219900  0.36362600  1
  O  O39  1  0.63239800  0.12102700  0.34424900  1
  O  O40  1  0.36760200  0.87897300  0.65575100  1
  O  O41  1  0.63286800  0.85780100  0.63637400  1
  O  O42  1  0.23723900  0.88482300  0.36722200  1
  O  O43  1  0.51934000  0.87935800  0.35090400  1
  O  O44  1  0.62264600  0.63185400  0.88484000  1
  O  O45  1  0.87495500  0.61066600  0.88040200  1
  O  O46  1  0.49012900  0.63357900  0.61546600  1
  O  O47  1  0.75897500  0.63183600  0.61446000  1
  O  O48  1  0.49071700  0.36712400  0.88388200  1
  O  O49  1  0.75867300  0.36743700  0.88387100  1
  O  O50  1  0.37495500  0.38933400  0.61959800  1
  O  O51  1  0.62457800  0.36650800  0.61520800  1
  O  O52  1  0.73723900  0.11517700  0.13277800  1
  O  O53  1  0.62417400  0.13429000  0.87175200  1
  O  O54  1  0.62708700  0.88543300  0.13835000  1
  O  O55  1  0.86713200  0.85780100  0.13637400  1
  O  O56  1  0.48359100  0.88398500  0.86337800  1
  O  O57  1  0.76510700  0.88413600  0.86052500  1
  O  O58  1  0.87735400  0.63185400  0.38484000  1
  O  O59  1  0.74102500  0.63183600  0.11446000  1
  O  O60  1  0.74132700  0.36743700  0.38387100  1
  O  O61  1  0.62465400  0.38775200  0.12063100  1
  O  O62  1  0.87291300  0.88543300  0.63835000  1
  O  O63  1  0.73489300  0.88413600  0.36052500  1
loop_
_geom_bond_atom_site_label_1
_geom_bond_atom_site_label_2
_geom_bond_distance
_geom_bond_site_symmetry_2
Mg0 O3 2.055723 1_655
Mg0 O55 2.078049 1_555
Mg0 O24 2.099791 1_655
Mg0 O58 2.119662 1_555
Mg0 O2 2.173968 1_655
Mg0 O11 2.181621 1_655
Mg1 O3 2.051993 1_655
Mg1 O55 2.078697 1_555
Mg1 O26 2.107915 1_554
Mg1 O59 2.128837 1_555
Mg1 O57 2.170019 1_554
Mg1 O45 2.193369 1_554
Mg2 O4 2.043876 1_555
Mg2 O0 2.069835 1_555
Mg2 O5 2.073643 1_455
Mg2 O34 2.113836 1_555
Mg2 O8 2.132365 1_455
Mg2 O9 2.195858 1_555
Mg3 O10 2.154452 1_545
Mg3 O8 2.154452 1_455
Mg3 O6 2.159477 1_455
Mg3 O11 2.159477 1_545
Mg3 O9 2.160858 1_555
Mg3 O62 2.160858 1_445
Mg4 O38 2.112162 1_565
Mg4 O40 2.118786 1_555
Mg4 O42 2.130503 1_555
Mg4 O7 2.170273 1_565
Mg4 O9 2.209177 1_565
Mg4 O10 2.230091 1_555
Mg5 O55 2.097002 1_545
Mg5 O0 2.109335 1_655
Mg5 O52 2.155279 1_555
Mg5 O11 2.192477 1_645
Mg5 O8 2.238665 1_555
Mg5 O63 2.243219 1_545
Mg6 O14 2.043876 1_555
Mg6 O26 2.069835 1_555
Mg6 O12 2.073643 1_655
Mg6 O45 2.113836 1_555
Mg6 O10 2.132365 1_655
Mg6 O62 2.195858 1_555
Mg7 O12 2.043150 1_555
Mg7 O40 2.057901 1_555
Mg7 O15 2.079553 1_555
Mg7 O13 2.112310 1_555
Mg7 O10 2.140487 1_555
Mg7 O27 2.215942 1_555
Mg8 O15 2.058187 1_555
Mg8 O14 2.059372 1_455
Mg8 O2 2.108510 1_555
Mg8 O10 2.142839 1_555
Mg8 O11 2.151920 1_555
Mg8 O42 2.168165 1_555
Mg9 O16 2.051993 1_455
Mg9 O22 2.078697 1_555
Mg9 O0 2.107915 1_556
Mg9 O17 2.128837 1_555
Mg9 O20 2.170019 1_556
Mg9 O34 2.193369 1_556
Mg10 O16 2.055723 1_455
Mg10 O22 2.078049 1_555
Mg10 O1 2.099791 1_455
Mg10 O19 2.119662 1_555
Mg10 O18 2.173968 1_455
Mg10 O6 2.181621 1_455
Mg11 O22 2.021083 1_555
Mg11 O19 2.068528 1_555
Mg11 O17 2.076857 1_555
Mg11 O50 2.097956 1_555
Mg11 O7 2.184076 1_555
Mg11 O23 2.195333 1_555
Mg12 O22 2.112162 1_564
Mg12 O24 2.118786 1_555
Mg12 O27 2.130503 1_554
Mg12 O20 2.170273 1_565
Mg12 O23 2.209177 1_564
Mg12 O25 2.230091 1_555
Mg13 O25 2.154452 1_545
Mg13 O53 2.154452 1_554
Mg13 O21 2.159477 1_555
Mg13 O56 2.159477 1_544
Mg13 O23 2.160858 1_554
Mg13 O54 2.160858 1_545
Mg14 O22 2.097002 1_565
Mg14 O26 2.109335 1_455
Mg14 O27 2.155279 1_555
Mg14 O6 2.192477 1_465
Mg14 O10 2.238665 1_555
Mg14 O7 2.243219 1_565
Mg15 O28 2.043150 1_555
Mg15 O24 2.057901 1_555
Mg15 O30 2.079553 1_555
Mg15 O2 2.112310 1_555
Mg15 O25 2.140487 1_555
Mg15 O42 2.215942 1_555
Mg16 O31 2.043876 1_555
Mg16 O43 2.069835 1_555
Mg16 O28 2.073643 1_555
Mg16 O29 2.113836 1_555
Mg16 O25 2.132365 1_555
Mg16 O54 2.195858 1_555
Mg17 O30 2.058187 1_555
Mg17 O31 2.059372 1_555
Mg17 O13 2.108510 1_554
Mg17 O25 2.142839 1_555
Mg17 O56 2.151920 1_554
Mg17 O27 2.168165 1_554
Mg18 O33 2.051993 1_555
Mg18 O38 2.078697 1_555
Mg18 O36 2.107915 1_555
Mg18 O32 2.128837 1_555
Mg18 O7 2.170019 1_555
Mg18 O50 2.193369 1_555
Mg19 O38 2.021083 1_555
Mg19 O35 2.068528 1_555
Mg19 O32 2.076857 1_555
Mg19 O34 2.097956 1_555
Mg19 O20 2.184076 1_555
Mg19 O9 2.195333 1_555
Mg20 O33 2.055723 1_555
Mg20 O38 2.078049 1_555
Mg20 O39 2.099791 1_555
Mg20 O35 2.119662 1_555
Mg20 O61 2.173968 1_555
Mg20 O21 2.181621 1_555
Mg21 O41 2.097002 1_545
Mg21 O36 2.109335 1_555
Mg21 O37 2.155279 1_555
Mg21 O56 2.192477 1_545
Mg21 O53 2.238665 1_555
Mg21 O57 2.243219 1_545
Mg22 O41 2.112162 1_545
Mg22 O39 2.118786 1_555
Mg22 O37 2.130503 1_555
Mg22 O63 2.170273 1_545
Mg22 O62 2.209177 1_545
Mg22 O8 2.230091 1_555
Mg23 O38 2.097002 1_565
Mg23 O43 2.109335 1_555
Mg23 O42 2.155279 1_555
Mg23 O21 2.192477 1_565
Mg23 O25 2.238665 1_555
Mg23 O20 2.243219 1_565
Mg24 O46 2.055723 1_555
Mg24 O41 2.078049 1_555
Mg24 O40 2.099791 1_555
Mg24 O44 2.119662 1_555
Mg24 O13 2.173968 1_555
Mg24 O56 2.181621 1_555
Mg25 O41 2.021083 1_555
Mg25 O44 2.068528 1_555
Mg25 O47 2.076857 1_555
Mg25 O45 2.097956 1_555
Mg25 O57 2.184076 1_555
Mg25 O62 2.195333 1_555
Mg26 O46 2.051993 1_555
Mg26 O41 2.078697 1_555
Mg26 O43 2.107915 1_555
Mg26 O47 2.128837 1_555
Mg26 O63 2.170019 1_555
Mg26 O29 2.193369 1_555
Mg27 O49 2.058187 1_555
Mg27 O48 2.059372 1_555
Mg27 O61 2.108510 1_556
Mg27 O53 2.142839 1_555
Mg27 O21 2.151920 1_556
Mg27 O52 2.168165 1_556
Mg28 O48 2.043876 1_555
Mg28 O36 2.069835 1_555
Mg28 O51 2.073643 1_555
Mg28 O50 2.113836 1_555
Mg28 O53 2.132365 1_555
Mg28 O23 2.195858 1_555
Mg29 O51 2.043150 1_555
Mg29 O1 2.057901 1_555
Mg29 O49 2.079553 1_555
Mg29 O18 2.112310 1_555
Mg29 O53 2.140487 1_555
Mg29 O37 2.215942 1_555
Mg30 O55 2.112162 1_546
Mg30 O1 2.118786 1_555
Mg30 O52 2.130503 1_556
Mg30 O57 2.170273 1_545
Mg30 O54 2.209177 1_546
Mg30 O53 2.230091 1_555
Mg31 O55 2.021083 1_555
Mg31 O58 2.068528 1_555
Mg31 O59 2.076857 1_555
Mg31 O29 2.097956 1_555
Mg31 O63 2.184076 1_555
Mg31 O54 2.195333 1_555
Mg32 O60 2.058187 1_555
Mg32 O4 2.059372 1_655
Mg32 O18 2.108510 1_555
Mg32 O8 2.142839 1_555
Mg32 O6 2.151920 1_555
Mg32 O37 2.168165 1_555
Mg33 O5 2.043150 1_555
Mg33 O39 2.057901 1_555
Mg33 O60 2.079553 1_555
Mg33 O61 2.112310 1_555
Mg33 O8 2.140487 1_555
Mg33 O52 2.215942 1_555
As0 O1 1.834202 1_565
As0 O26 1.838006 1_555
As0 O57 1.874821 1_555
As0 O6 1.891021 1_565
As0 O62 1.899737 1_555
As0 O37 1.917046 1_565
As1 O24 1.834202 1_545
As1 O0 1.838006 1_555
As1 O20 1.874821 1_555
As1 O11 1.891021 1_545
As1 O9 1.899737 1_555
As1 O42 1.917046 1_545
As2 O19 1.707568 1_555
As2 O32 1.709893 1_555
As2 O4 1.715912 1_555
As2 O2 1.759635 1_555
As3 O40 1.834202 1_545
As3 O36 1.838006 1_555
As3 O7 1.874821 1_555
As3 O56 1.891021 1_545
As3 O23 1.899737 1_555
As3 O27 1.917046 1_545
As4 O58 1.707568 1_555
As4 O47 1.709893 1_555
As4 O14 1.715912 1_555
As4 O18 1.759635 1_555
As5 O35 1.707568 1_556
As5 O17 1.709893 1_555
As5 O48 1.715912 1_555
As5 O13 1.759635 1_555
As6 O39 1.834202 1_565
As6 O43 1.838006 1_555
As6 O63 1.874821 1_555
As6 O21 1.891021 1_565
As6 O54 1.899737 1_555
As6 O52 1.917046 1_565
As7 O3 1.707829 1_555
As7 O12 1.711288 1_554
As7 O30 1.712862 1_555
As7 O34 1.755265 1_555
As8 O33 1.707829 1_555
As8 O51 1.711288 1_555
As8 O60 1.712862 1_555
As8 O29 1.755265 1_555
As9 O46 1.707829 1_555
As9 O28 1.711288 1_555
As9 O15 1.712862 1_555
As9 O50 1.755265 1_555
As10 O16 1.707829 1_555
As10 O5 1.711288 1_556
As10 O49 1.712862 1_555
As10 O45 1.755265 1_555
As11 O44 1.707568 1_554
As11 O59 1.709893 1_555
As11 O31 1.715912 1_555
As11 O61 1.759635 1_555
