# generated using pymatgen
data_Rb2Te(WO4)3
_symmetry_space_group_name_H-M   'P 1'
_cell_length_a   7.40718000
_cell_length_b   7.40717996
_cell_length_c   12.49513700
_cell_angle_alpha   90.00000000
_cell_angle_beta   90.00000000
_cell_angle_gamma   120.00000019
_symmetry_Int_Tables_number   1
_chemical_formula_structural   Rb2Te(WO4)3
_chemical_formula_sum   'Rb4 Te2 W6 O24'
_cell_volume   593.71421537
_cell_formula_units_Z   2
loop_
 _symmetry_equiv_pos_site_id
 _symmetry_equiv_pos_as_xyz
  1  'x, y, z'
loop_
 _atom_site_type_symbol
 _atom_site_label
 _atom_site_symmetry_multiplicity
 _atom_site_fract_x
 _atom_site_fract_y
 _atom_site_fract_z
 _atom_site_occupancy
  Rb  Rb0  1  0.33333300  0.66666700  0.87465600  1
  Rb  Rb1  1  0.66666700  0.33333300  0.37465600  1
  Rb  Rb2  1  0.66666700  0.33333300  0.99622400  1
  Rb  Rb3  1  0.33333300  0.66666700  0.49622400  1
  Te  Te0  1  0.00000000  0.00000000  0.43285400  1
  Te  Te1  1  0.00000000  0.00000000  0.93285400  1
  W  W0  1  0.66168300  0.80750500  0.17081300  1
  W  W1  1  0.33831700  0.14582200  0.67081300  1
  W  W2  1  0.19249500  0.85417800  0.17081300  1
  W  W3  1  0.14582200  0.33831700  0.17081300  1
  W  W4  1  0.85417800  0.19249500  0.67081300  1
  W  W5  1  0.80750500  0.66168300  0.67081300  1
  O  O0  1  0.19634600  0.80787800  0.30967600  1
  O  O1  1  0.12990500  0.86622000  0.00462700  1
  O  O2  1  0.91170100  0.46014400  0.63380300  1
  O  O3  1  0.24711300  0.12670300  0.18025900  1
  O  O4  1  0.13378000  0.26368600  0.00462700  1
  O  O5  1  0.12670300  0.24711300  0.68025900  1
  O  O6  1  0.80787800  0.19634600  0.80967600  1
  O  O7  1  0.80365400  0.61153200  0.80967600  1
  O  O8  1  0.87329700  0.12041000  0.18025900  1
  O  O9  1  0.12041000  0.87329700  0.68025900  1
  O  O10  1  0.38846800  0.19212200  0.80967600  1
  O  O11  1  0.45155700  0.53985600  0.13380300  1
  O  O12  1  0.19212200  0.38846800  0.30967600  1
  O  O13  1  0.08829900  0.54844300  0.13380300  1
  O  O14  1  0.54844300  0.08829900  0.63380300  1
  O  O15  1  0.53985600  0.45155700  0.63380300  1
  O  O16  1  0.61153200  0.80365400  0.30967600  1
  O  O17  1  0.86622000  0.12990500  0.50462700  1
  O  O18  1  0.87009500  0.73631400  0.50462700  1
  O  O19  1  0.26368600  0.13378000  0.50462700  1
  O  O20  1  0.73631400  0.87009500  0.00462700  1
  O  O21  1  0.87959000  0.75288700  0.18025900  1
  O  O22  1  0.75288700  0.87959000  0.68025900  1
  O  O23  1  0.46014400  0.91170100  0.13380300  1
loop_
_geom_bond_atom_site_label_1
_geom_bond_atom_site_label_2
_geom_bond_distance
_geom_bond_site_symmetry_2
O0 W2 1.771674 1_555
O0 Rb3 2.935692 1_555
O1 Te1 1.914579 1_564
O1 W2 2.139199 1_555
O1 Rb0 3.052877 1_554
O2 W4 1.865766 1_555
O2 W5 2.047011 1_555
O2 Rb3 3.204925 1_655
O3 W2 1.853603 1_545
O3 W3 2.051787 1_555
O4 Te1 1.914585 1_554
O4 W3 2.139197 1_555
O4 Rb0 3.052877 1_554
O5 W4 1.853603 1_455
O5 W1 2.051787 1_555
O6 W4 1.771674 1_555
O6 Rb2 2.935692 1_555
O7 W5 1.771674 1_555
O7 Rb2 2.935696 1_555
O8 W3 1.853603 1_655
O8 W0 2.051787 1_545
O9 W1 1.853603 1_565
O9 W5 2.051787 1_455
O10 W1 1.771674 1_555
O10 Rb2 2.935696 1_555
O11 W0 1.865766 1_555
O11 W3 2.047011 1_555
O11 Rb2 3.204930 1_554
O12 W3 1.771674 1_555
O12 Rb3 2.935696 1_555
O13 W3 1.865766 1_555
O13 W2 2.047011 1_555
O13 Rb2 3.204925 1_454
O14 W1 1.865767 1_555
O14 W4 2.047011 1_555
O14 Rb3 3.204925 1_545
O15 W5 1.865766 1_555
O15 W1 2.047011 1_555
O15 Rb3 3.204930 1_555
O16 W0 1.771674 1_555
O16 Rb3 2.935696 1_555
O17 Te0 1.914579 1_655
O17 W4 2.139199 1_555
O17 Rb1 3.052877 1_555
O18 Te0 1.914585 1_665
O18 W5 2.139198 1_555
O18 Rb1 3.052877 1_555
O19 Te0 1.914585 1_555
O19 W1 2.139197 1_555
O19 Rb1 3.052877 1_555
O20 Te1 1.914585 1_664
O20 W0 2.139198 1_555
O20 Rb0 3.052877 1_554
O21 W0 1.853603 1_555
O21 W2 2.051787 1_655
O22 W5 1.853603 1_555
O22 W4 2.051787 1_565
O23 W2 1.865767 1_555
O23 W0 2.047011 1_555
O23 Rb2 3.204925 1_564
