# generated using pymatgen
data_CsScP2(HO4)2
_symmetry_space_group_name_H-M   'P 1'
_cell_length_a   9.32447900
_cell_length_b   5.42667700
_cell_length_c   14.93989576
_cell_angle_alpha   85.59359677
_cell_angle_beta   90.00000000
_cell_angle_gamma   90.00000000
_symmetry_Int_Tables_number   1
_chemical_formula_structural   CsScP2(HO4)2
_chemical_formula_sum   'Cs4 Sc4 P8 H8 O32'
_cell_volume   753.73817993
_cell_formula_units_Z   4
loop_
 _symmetry_equiv_pos_site_id
 _symmetry_equiv_pos_as_xyz
  1  'x, y, z'
loop_
 _atom_site_type_symbol
 _atom_site_label
 _atom_site_symmetry_multiplicity
 _atom_site_fract_x
 _atom_site_fract_y
 _atom_site_fract_z
 _atom_site_occupancy
  Cs  Cs0  1  0.50371500  0.73146700  0.11159200  1
  Cs  Cs1  1  0.00371500  0.26853300  0.38840800  1
  Cs  Cs2  1  0.49628500  0.26853300  0.88840800  1
  Cs  Cs3  1  0.99628500  0.73146700  0.61159200  1
  Sc  Sc0  1  0.96400500  0.74833000  0.15059600  1
  Sc  Sc1  1  0.46400500  0.25167000  0.34940400  1
  Sc  Sc2  1  0.03599500  0.25167000  0.84940400  1
  Sc  Sc3  1  0.53599500  0.74833000  0.65059600  1
  P  P0  1  0.15143000  0.27825000  0.06116000  1
  P  P1  1  0.65143000  0.72175000  0.43884000  1
  P  P2  1  0.84857000  0.72175000  0.93884000  1
  P  P3  1  0.34857000  0.27825000  0.56116000  1
  P  P4  1  0.24547600  0.77320100  0.30690300  1
  P  P5  1  0.74547600  0.22679900  0.19309700  1
  P  P6  1  0.75452400  0.22679900  0.69309700  1
  P  P7  1  0.25452400  0.77320100  0.80690300  1
  H  H0  1  0.80219300  0.83392200  0.32968200  1
  H  H1  1  0.30219300  0.16607800  0.17031800  1
  H  H2  1  0.19780700  0.16607800  0.67031800  1
  H  H3  1  0.69780700  0.83392200  0.82968200  1
  H  H4  1  0.28962000  0.74603900  0.45205500  1
  H  H5  1  0.78962000  0.25396100  0.04794500  1
  H  H6  1  0.71038000  0.25396100  0.54794500  1
  H  H7  1  0.21038000  0.74603900  0.95205500  1
  O  O0  1  0.04502100  0.08855400  0.10282700  1
  O  O1  1  0.54502100  0.91144600  0.39717300  1
  O  O2  1  0.95497900  0.91144600  0.89717300  1
  O  O3  1  0.45497900  0.08855400  0.60282700  1
  O  O4  1  0.17429700  0.25671500  0.96048300  1
  O  O5  1  0.67429700  0.74328500  0.53951700  1
  O  O6  1  0.82570300  0.74328500  0.03951700  1
  O  O7  1  0.32570300  0.25671500  0.46048300  1
  O  O8  1  0.11396800  0.54529200  0.08107600  1
  O  O9  1  0.61396800  0.45470800  0.41892400  1
  O  O10  1  0.88603200  0.45470800  0.91892400  1
  O  O11  1  0.38603200  0.54529200  0.58107600  1
  O  O12  1  0.80774400  0.78303400  0.39571900  1
  O  O13  1  0.30774400  0.21696600  0.10428100  1
  O  O14  1  0.19225600  0.21696600  0.60428100  1
  O  O15  1  0.69225600  0.78303400  0.89571900  1
  O  O16  1  0.09883900  0.73841100  0.26383800  1
  O  O17  1  0.59883900  0.26158900  0.23616200  1
  O  O18  1  0.90116100  0.26158900  0.73616200  1
  O  O19  1  0.40116100  0.73841100  0.76383800  1
  O  O20  1  0.35125700  0.56490500  0.29150700  1
  O  O21  1  0.85125700  0.43509500  0.20849300  1
  O  O22  1  0.64874300  0.43509500  0.70849300  1
  O  O23  1  0.14874300  0.56490500  0.79150700  1
  O  O24  1  0.30830100  0.03179700  0.27913400  1
  O  O25  1  0.80830100  0.96820300  0.22086600  1
  O  O26  1  0.69169900  0.96820300  0.72086600  1
  O  O27  1  0.19169900  0.03179700  0.77913400  1
  O  O28  1  0.20487200  0.76275100  0.41287600  1
  O  O29  1  0.70487200  0.23724900  0.08712400  1
  O  O30  1  0.79512800  0.23724900  0.58712400  1
  O  O31  1  0.29512800  0.76275100  0.91287600  1
loop_
_geom_bond_atom_site_label_1
_geom_bond_atom_site_label_2
_geom_bond_distance
_geom_bond_site_symmetry_2
Cs0 O20 3.112790 1_555
Cs0 O17 3.165907 1_555
Cs0 O6 3.188607 1_555
Cs0 H1 3.190797 1_565
Cs0 O13 3.201281 1_565
Cs0 O29 3.315929 1_555
Cs0 O29 3.321311 1_565
Cs0 O13 3.345647 1_555
Cs0 O31 3.542318 1_554
Cs0 O25 3.564281 1_555
Cs0 O17 3.653623 1_565
Cs0 O15 3.664936 1_554
Cs1 O21 3.112790 1_455
Cs1 O16 3.165907 1_555
Cs1 O7 3.188607 1_555
Cs1 H0 3.190797 1_445
Cs1 O12 3.201281 1_445
Cs1 O28 3.315929 1_555
Cs1 O28 3.321311 1_545
Cs1 O12 3.345647 1_455
Cs1 O30 3.542318 1_455
Cs1 O24 3.564281 1_555
Cs1 O16 3.653623 1_545
Cs1 O14 3.664936 1_555
Cs2 O22 3.112790 1_555
Cs2 O19 3.165907 1_555
Cs2 O4 3.188607 1_555
Cs2 H3 3.190797 1_545
Cs2 O15 3.201281 1_545
Cs2 O31 3.315929 1_555
Cs2 O31 3.321311 1_545
Cs2 O15 3.345647 1_555
Cs2 O29 3.542318 1_556
Cs2 O27 3.564281 1_555
Cs2 O19 3.653623 1_545
Cs2 O13 3.664936 1_556
Cs3 O23 3.112790 1_655
Cs3 O18 3.165907 1_555
Cs3 O5 3.188607 1_555
Cs3 H2 3.190797 1_665
Cs3 O14 3.201281 1_665
Cs3 O30 3.315929 1_555
Cs3 O30 3.321311 1_565
Cs3 O14 3.345647 1_655
Cs3 O28 3.542318 1_655
Cs3 O26 3.564281 1_555
Cs3 O18 3.653623 1_565
Cs3 O12 3.664936 1_555
H0 O12 1.005200 1_555
H1 O13 1.005200 1_555
H2 O14 1.005200 1_555
H3 O15 1.005200 1_555
H4 O28 0.983435 1_555
H5 O29 0.983435 1_555
H6 O30 0.983435 1_555
H7 O31 0.983435 1_555
O0 P0 1.527488 1_555
O0 Sc0 2.070337 1_445
O1 P1 1.527488 1_555
O1 Sc1 2.070337 1_565
O2 P2 1.527488 1_555
O2 Sc2 2.070337 1_665
O3 P3 1.527488 1_555
O3 Sc3 2.070337 1_545
O4 P0 1.532468 1_556
O4 Sc2 2.103510 1_555
O5 P1 1.532468 1_555
O5 Sc3 2.103510 1_555
O6 P2 1.532468 1_554
O6 Sc0 2.103510 1_555
O7 P3 1.532468 1_555
O7 Sc1 2.103510 1_555
O8 P0 1.541702 1_555
O8 Sc0 2.103309 1_455
O9 P1 1.541702 1_555
O9 Sc1 2.103309 1_555
O10 P2 1.541702 1_555
O10 Sc2 2.103309 1_655
O11 P3 1.541702 1_555
O11 Sc3 2.103309 1_555
O12 P1 1.617760 1_555
O13 P0 1.617760 1_555
O14 P3 1.617760 1_555
O15 P2 1.617760 1_555
O16 P4 1.528987 1_555
O16 Sc0 2.105200 1_455
O17 P5 1.528987 1_555
O17 Sc1 2.105200 1_555
O18 P6 1.528987 1_555
O18 Sc2 2.105200 1_655
O19 P7 1.528987 1_555
O19 Sc3 2.105200 1_555
O20 P4 1.530834 1_555
O20 Sc1 2.125306 1_555
O21 P5 1.530834 1_555
O21 Sc0 2.125306 1_555
O22 P6 1.530834 1_555
O22 Sc3 2.125306 1_555
O23 P7 1.530834 1_555
O23 Sc2 2.125306 1_555
O24 P4 1.547620 1_545
O24 Sc1 2.196859 1_555
O25 P5 1.547620 1_565
O25 Sc0 2.196859 1_555
O26 P6 1.547620 1_565
O26 Sc3 2.196859 1_555
O27 P7 1.547620 1_545
O27 Sc2 2.196859 1_555
O28 P4 1.624614 1_555
O29 P5 1.624614 1_555
O30 P6 1.624614 1_555
O31 P7 1.624614 1_555
