# generated using pymatgen
data_CsMnF3
_symmetry_space_group_name_H-M   'P 1'
_cell_length_a   6.21865967
_cell_length_b   6.21865968
_cell_length_c   15.07914490
_cell_angle_alpha   90.00000275
_cell_angle_beta   89.99999592
_cell_angle_gamma   119.99962630
_symmetry_Int_Tables_number   1
_chemical_formula_structural   CsMnF3
_chemical_formula_sum   'Cs6 Mn6 F18'
_cell_volume   505.01300437
_cell_formula_units_Z   6
loop_
 _symmetry_equiv_pos_site_id
 _symmetry_equiv_pos_as_xyz
  1  'x, y, z'
loop_
 _atom_site_type_symbol
 _atom_site_label
 _atom_site_symmetry_multiplicity
 _atom_site_fract_x
 _atom_site_fract_y
 _atom_site_fract_z
 _atom_site_occupancy
  Cs  Cs0  1  0.00000015  -0.00000010  0.25000097  1
  Cs  Cs1  1  0.00000004  0.00000003  0.74999896  1
  Cs  Cs2  1  0.33333319  0.66666697  0.09725367  1
  Cs  Cs3  1  0.66666686  0.33333308  0.59725258  1
  Cs  Cs4  1  0.66666689  0.33333298  0.90274396  1
  Cs  Cs5  1  0.33333313  0.66666683  0.40274970  1
  Mn  Mn0  1  0.00000007  0.00000004  0.99999873  1
  Mn  Mn1  1  0.33333293  0.66666679  0.65161511  1
  Mn  Mn2  1  0.66666700  0.33333299  0.15161367  1
  Mn  Mn3  1  0.66666710  0.33333312  0.34838568  1
  Mn  Mn4  1  0.33333316  0.66666698  0.84838534  1
  Mn  Mn5  1  0.00000003  -0.00000014  0.50000108  1
  F  F0  1  0.33082680  0.16541376  0.07918829  1
  F  F1  1  0.83458696  0.16541296  0.42081186  1
  F  F2  1  0.83458644  0.66917284  0.42081188  1
  F  F3  1  0.33082713  0.16541341  0.42081187  1
  F  F4  1  0.66917382  0.83458690  0.92080900  1
  F  F5  1  0.16541398  0.33082670  0.57919021  1
  F  F6  1  0.52186572  0.04373009  0.25000020  1
  F  F7  1  0.47813480  0.52186529  0.74999970  1
  F  F8  1  0.04372877  0.52186490  0.74999973  1
  F  F9  1  0.95627004  0.47813439  0.25000017  1
  F  F10  1  0.52186594  0.47813399  0.25000022  1
  F  F11  1  0.47813508  0.95627124  0.74999968  1
  F  F12  1  0.83458632  0.66917326  0.07918827  1
  F  F13  1  0.16541326  0.83458681  0.57919013  1
  F  F14  1  0.66917285  0.83458617  0.57919017  1
  F  F15  1  0.16541384  0.33082634  0.92080900  1
  F  F16  1  0.83458702  0.16541310  0.07918823  1
  F  F17  1  0.16541266  0.83458729  0.92080894  1
loop_
_geom_bond_atom_site_label_1
_geom_bond_atom_site_label_2
_geom_bond_distance
_geom_bond_site_symmetry_2
Cs0 F6 3.118232 1_455
Cs0 F9 3.118232 1_455
Cs0 F9 3.118241 1_445
Cs0 F6 3.118241 1_555
Cs0 F10 3.118254 1_555
Cs0 F10 3.118255 1_445
Cs0 F1 3.131849 1_455
Cs0 F3 3.131857 1_555
Cs0 F2 3.131857 1_445
Cs0 F16 3.131872 1_455
Cs0 F0 3.131878 1_555
Cs0 F12 3.131878 1_445
Cs1 F11 3.118231 1_545
Cs1 F8 3.118231 1_545
Cs1 F8 3.118240 1_555
Cs1 F11 3.118241 1_445
Cs1 F7 3.118254 1_445
Cs1 F7 3.118254 1_555
Cs1 F13 3.131824 1_545
Cs1 F5 3.131829 1_555
Cs1 F14 3.131831 1_445
Cs1 F17 3.131835 1_545
Cs1 F4 3.131844 1_445
Cs1 F15 3.131844 1_555
Cs2 F9 3.070639 1_455
Cs2 F6 3.070639 1_565
Cs2 F10 3.070641 1_555
Cs2 F0 3.121269 1_565
Cs2 F12 3.121269 1_555
Cs2 F12 3.121269 1_455
Cs2 F0 3.121269 1_555
Cs2 F16 3.121287 1_565
Cs2 F16 3.121287 1_455
Cs2 F17 3.217185 1_554
Cs2 F4 3.217190 1_554
Cs2 F15 3.217190 1_554
Cs3 F11 3.070641 1_545
Cs3 F8 3.070642 1_655
Cs3 F7 3.070642 1_555
Cs3 F5 3.121263 1_555
Cs3 F14 3.121265 1_545
Cs3 F14 3.121266 1_555
Cs3 F5 3.121267 1_655
Cs3 F13 3.121283 1_545
Cs3 F13 3.121283 1_655
Cs3 F1 3.217133 1_555
Cs3 F2 3.217137 1_555
Cs3 F3 3.217138 1_555
Cs4 F8 3.070608 1_655
Cs4 F11 3.070609 1_545
Cs4 F7 3.070610 1_555
Cs4 F4 3.121266 1_545
Cs4 F15 3.121267 1_555
Cs4 F15 3.121270 1_655
Cs4 F4 3.121272 1_555
Cs4 F17 3.121286 1_545
Cs4 F17 3.121287 1_655
Cs4 F16 3.217177 1_556
Cs4 F0 3.217184 1_556
Cs4 F12 3.217184 1_556
Cs5 F9 3.070673 1_455
Cs5 F6 3.070673 1_565
Cs5 F10 3.070674 1_555
Cs5 F3 3.121262 1_565
Cs5 F2 3.121263 1_455
Cs5 F2 3.121267 1_555
Cs5 F3 3.121268 1_555
Cs5 F1 3.121282 1_565
Cs5 F1 3.121283 1_455
Cs5 F13 3.217129 1_555
Cs5 F14 3.217135 1_555
Cs5 F5 3.217136 1_555
F0 Mn2 2.112826 1_555
F0 Mn0 2.144827 1_554
F1 Mn3 2.112823 1_555
F1 Mn5 2.144814 1_655
F2 Mn3 2.112830 1_555
F2 Mn5 2.144825 1_665
F3 Mn3 2.112831 1_555
F3 Mn5 2.144826 1_555
F4 Mn4 2.112815 1_555
F4 Mn0 2.144826 1_665
F5 Mn1 2.112822 1_555
F5 Mn5 2.144824 1_555
F6 Mn3 2.152566 1_555
F6 Mn2 2.152577 1_555
F7 Mn1 2.152552 1_555
F7 Mn4 2.152563 1_555
F8 Mn1 2.152562 1_555
F8 Mn4 2.152573 1_555
F9 Mn3 2.152566 1_555
F9 Mn2 2.152577 1_555
F10 Mn3 2.152556 1_555
F10 Mn2 2.152567 1_555
F11 Mn1 2.152562 1_555
F11 Mn4 2.152573 1_555
F12 Mn2 2.112826 1_555
F12 Mn0 2.144827 1_664
F13 Mn1 2.112812 1_555
F13 Mn5 2.144813 1_565
F14 Mn1 2.112821 1_555
F14 Mn5 2.144825 1_665
F15 Mn4 2.112815 1_555
F15 Mn0 2.144827 1_555
F16 Mn2 2.112816 1_555
F16 Mn0 2.144815 1_654
F17 Mn4 2.112806 1_555
F17 Mn0 2.144814 1_565
