# generated using pymatgen
data_GdCuS2
_symmetry_space_group_name_H-M   'P 1'
_cell_length_a   7.04559082
_cell_length_b   6.40357568
_cell_length_c   6.77000102
_cell_angle_alpha   82.52477709
_cell_angle_beta   89.99982577
_cell_angle_gamma   90.00089561
_symmetry_Int_Tables_number   1
_chemical_formula_structural   GdCuS2
_chemical_formula_sum   'Gd4 Cu4 S8'
_cell_volume   302.84607453
_cell_formula_units_Z   4
loop_
 _symmetry_equiv_pos_site_id
 _symmetry_equiv_pos_as_xyz
  1  'x, y, z'
loop_
 _atom_site_type_symbol
 _atom_site_label
 _atom_site_symmetry_multiplicity
 _atom_site_fract_x
 _atom_site_fract_y
 _atom_site_fract_z
 _atom_site_occupancy
  Gd  Gd0  1  0.94912593  0.80820715  0.80128661  1
  Gd  Gd1  1  0.44912954  0.19179127  0.69870210  1
  Gd  Gd2  1  0.05087009  0.19178064  0.19869753  1
  Gd  Gd3  1  0.55085705  0.80821699  0.30129864  1
  Cu  Cu0  1  0.83888437  0.42174640  0.55082775  1
  Cu  Cu1  1  0.33889524  0.57825515  0.94918597  1
  Cu  Cu2  1  0.16111401  0.57825221  0.44917191  1
  Cu  Cu3  1  0.66111032  0.42173400  0.05082387  1
  S  S0  1  0.38549563  0.41075614  0.27860379  1
  S  S1  1  0.88553062  0.58923745  0.22141255  1
  S  S2  1  0.61449869  0.58922869  0.72141257  1
  S  S3  1  0.11448897  0.41076375  0.77857642  1
  S  S4  1  0.77306162  0.07953783  0.50242626  1
  S  S5  1  0.27304409  0.92047831  0.99757182  1
  S  S6  1  0.22694781  0.92047505  0.49755566  1
  S  S7  1  0.72694604  0.07953898  0.00244654  1
loop_
_geom_bond_atom_site_label_1
_geom_bond_atom_site_label_2
_geom_bond_distance
_geom_bond_site_symmetry_2
Gd0 S4 2.781494 1_565
Gd0 S5 2.782027 1_655
Gd0 S7 2.817751 1_566
Gd0 S3 2.821397 1_655
Gd0 S2 2.830971 1_555
Gd0 S6 2.862136 1_655
Gd0 S1 3.036271 1_556
Gd1 S5 2.781512 1_545
Gd1 S4 2.782051 1_555
Gd1 S6 2.817613 1_545
Gd1 S2 2.821348 1_555
Gd1 S3 2.831063 1_555
Gd1 S7 2.862181 1_556
Gd1 S0 3.036146 1_555
Gd2 S6 2.781442 1_545
Gd2 S7 2.781882 1_455
Gd2 S5 2.817469 1_544
Gd2 S1 2.821412 1_455
Gd2 S0 2.831007 1_555
Gd2 S4 2.862036 1_455
Gd2 S3 3.036296 1_554
Gd3 S7 2.781477 1_565
Gd3 S6 2.781863 1_555
Gd3 S4 2.817650 1_565
Gd3 S0 2.821443 1_555
Gd3 S1 2.831301 1_555
Gd3 S5 2.862091 1_554
Gd3 S2 3.036297 1_555
Cu0 S2 2.303384 1_555
Cu0 S4 2.304626 1_555
Cu0 S1 2.368440 1_555
Cu0 S3 2.474805 1_655
Cu1 S3 2.303590 1_555
Cu1 S5 2.304743 1_555
Cu1 S0 2.368434 1_556
Cu1 S2 2.474896 1_555
Cu2 S0 2.303347 1_555
Cu2 S6 2.304699 1_555
Cu2 S3 2.368349 1_555
Cu2 S1 2.474732 1_455
Cu3 S1 2.303619 1_555
Cu3 S7 2.304531 1_555
Cu3 S2 2.368397 1_554
Cu3 S0 2.474984 1_555
