# generated using pymatgen
data_K2HgBr2(NO6)2
_symmetry_space_group_name_H-M   'P 1'
_cell_length_a   5.74322500
_cell_length_b   7.43096900
_cell_length_c   14.49496200
_cell_angle_alpha   90.00000000
_cell_angle_beta   90.00000000
_cell_angle_gamma   90.00000000
_symmetry_Int_Tables_number   1
_chemical_formula_structural   K2HgBr2(NO6)2
_chemical_formula_sum   'K4 Hg2 Br4 N4 O24'
_cell_volume   618.61203017
_cell_formula_units_Z   2
loop_
 _symmetry_equiv_pos_site_id
 _symmetry_equiv_pos_as_xyz
  1  'x, y, z'
loop_
 _atom_site_type_symbol
 _atom_site_label
 _atom_site_symmetry_multiplicity
 _atom_site_fract_x
 _atom_site_fract_y
 _atom_site_fract_z
 _atom_site_occupancy
  K  K0  1  0.00000000  0.75645900  0.72006000  1
  K  K1  1  0.00000000  0.24354100  0.27994000  1
  K  K2  1  0.50000000  0.25645900  0.77994000  1
  K  K3  1  0.50000000  0.74354100  0.22006000  1
  Hg  Hg0  1  0.00000000  0.00000000  0.00000000  1
  Hg  Hg1  1  0.50000000  0.50000000  0.50000000  1
  Br  Br0  1  0.00000000  0.73035000  0.38461900  1
  Br  Br1  1  0.50000000  0.76965000  0.88461900  1
  Br  Br2  1  0.00000000  0.26965000  0.61538100  1
  Br  Br3  1  0.50000000  0.23035000  0.11538100  1
  N  N0  1  0.00000000  0.36980800  0.91182000  1
  N  N1  1  0.50000000  0.13019200  0.41182000  1
  N  N2  1  0.50000000  0.86980800  0.58818000  1
  N  N3  1  0.00000000  0.63019200  0.08818000  1
  O  O0  1  0.69120800  0.79124000  0.56756300  1
  O  O1  1  0.50000000  0.98072500  0.37243000  1
  O  O2  1  0.23082900  0.58693700  0.37517900  1
  O  O3  1  0.19120800  0.70876000  0.06756300  1
  O  O4  1  0.26917100  0.91306300  0.87517900  1
  O  O5  1  0.73082900  0.91306300  0.87517900  1
  O  O6  1  0.00000000  0.83973700  0.28416500  1
  O  O7  1  0.69120800  0.20876000  0.43243700  1
  O  O8  1  0.30879200  0.20876000  0.43243700  1
  O  O9  1  0.80879200  0.29124000  0.93243700  1
  O  O10  1  0.50000000  0.01927500  0.62757000  1
  O  O11  1  0.19120800  0.29124000  0.93243700  1
  O  O12  1  0.00000000  0.51927500  0.87243000  1
  O  O13  1  0.76917100  0.41306300  0.62482100  1
  O  O14  1  0.26917100  0.08693700  0.12482100  1
  O  O15  1  0.80879200  0.70876000  0.06756300  1
  O  O16  1  0.23082900  0.41306300  0.62482100  1
  O  O17  1  0.73082900  0.08693700  0.12482100  1
  O  O18  1  0.00000000  0.16026300  0.71583500  1
  O  O19  1  0.50000000  0.33973700  0.21583500  1
  O  O20  1  0.00000000  0.48072500  0.12757000  1
  O  O21  1  0.50000000  0.66026300  0.78416500  1
  O  O22  1  0.76917100  0.58693700  0.37517900  1
  O  O23  1  0.30879200  0.79124000  0.56756300  1
loop_
_geom_bond_atom_site_label_1
_geom_bond_atom_site_label_2
_geom_bond_distance
_geom_bond_site_symmetry_2
K0 O12 2.825656 1_555
K0 O23 2.845699 1_555
K0 O0 2.845699 1_455
K0 O4 2.966409 1_555
K0 O5 2.966409 1_455
K0 O18 3.001280 1_565
K0 O21 3.101701 1_455
K0 O21 3.101701 1_555
K0 O16 3.189786 1_555
K0 O13 3.189786 1_455
K1 O20 2.825656 1_555
K1 O8 2.845699 1_555
K1 O7 2.845699 1_455
K1 O14 2.966409 1_555
K1 O17 2.966409 1_455
K1 O6 3.001280 1_545
K1 O19 3.101701 1_455
K1 O19 3.101701 1_555
K1 O2 3.189786 1_555
K1 O22 3.189786 1_455
K2 O10 2.825656 1_555
K2 O9 2.845699 1_555
K2 O11 2.845699 1_555
K2 O13 2.966409 1_555
K2 O16 2.966409 1_555
K2 O21 3.001280 1_555
K2 O18 3.101701 1_655
K2 O18 3.101701 1_555
K2 O4 3.189786 1_545
K2 O5 3.189786 1_545
K3 O1 2.825656 1_555
K3 O3 2.845699 1_555
K3 O15 2.845699 1_555
K3 O22 2.966409 1_555
K3 O2 2.966409 1_555
K3 O19 3.001280 1_555
K3 O6 3.101701 1_555
K3 O6 3.101701 1_655
K3 O17 3.189786 1_565
K3 O14 3.189786 1_565
Hg0 O17 2.465900 1_455
Hg0 O14 2.465900 1_555
Hg0 O4 2.465900 1_544
Hg0 O5 2.465900 1_444
Hg0 O15 2.617012 1_445
Hg0 O3 2.617012 1_545
Hg0 O11 2.617012 1_554
Hg0 O9 2.617012 1_454
Hg1 O22 2.465900 1_555
Hg1 O13 2.465900 1_555
Hg1 O2 2.465900 1_555
Hg1 O16 2.465900 1_555
Hg1 O0 2.617012 1_555
Hg1 O23 2.617012 1_555
Hg1 O7 2.617012 1_555
Hg1 O8 2.617012 1_555
Br0 O6 1.667599 1_555
Br0 O2 1.706436 1_555
Br0 O22 1.706436 1_455
Br1 O21 1.667599 1_555
Br1 O5 1.706436 1_555
Br1 O4 1.706436 1_555
Br2 O18 1.667599 1_555
Br2 O16 1.706436 1_555
Br2 O13 1.706436 1_455
Br3 O19 1.667599 1_555
Br3 O17 1.706436 1_555
Br3 O14 1.706436 1_555
N0 O12 1.248844 1_555
N0 O11 1.279104 1_555
N0 O9 1.279104 1_455
N1 O1 1.248844 1_545
N1 O7 1.279104 1_555
N1 O8 1.279104 1_555
N2 O10 1.248844 1_565
N2 O0 1.279104 1_555
N2 O23 1.279104 1_555
N3 O20 1.248844 1_555
N3 O3 1.279104 1_555
N3 O15 1.279104 1_455
