# generated using pymatgen
data_Tm2Pd2Pb
_symmetry_space_group_name_H-M   'P 1'
_cell_length_a   7.76522766
_cell_length_b   7.76522766
_cell_length_c   3.57227944
_cell_angle_alpha   90.00000000
_cell_angle_beta   90.00000000
_cell_angle_gamma   90.00000000
_symmetry_Int_Tables_number   1
_chemical_formula_structural   Tm2Pd2Pb
_chemical_formula_sum   'Tm4 Pd4 Pb2'
_cell_volume   215.40402279
_cell_formula_units_Z   2
loop_
 _symmetry_equiv_pos_site_id
 _symmetry_equiv_pos_as_xyz
  1  'x, y, z'
loop_
 _atom_site_type_symbol
 _atom_site_label
 _atom_site_symmetry_multiplicity
 _atom_site_fract_x
 _atom_site_fract_y
 _atom_site_fract_z
 _atom_site_occupancy
  Tm  Tm0  1  0.32984609  0.82984609  0.50000000  1
  Tm  Tm1  1  0.67015391  0.17015391  0.50000000  1
  Tm  Tm2  1  0.17015391  0.32984609  0.50000000  1
  Tm  Tm3  1  0.82984609  0.67015391  0.50000000  1
  Pd  Pd0  1  0.87407324  0.37407324  -0.00000000  1
  Pd  Pd1  1  0.62592676  0.87407324  0.00000000  1
  Pd  Pd2  1  0.37407324  0.12592676  -0.00000000  1
  Pd  Pd3  1  0.12592676  0.62592676  0.00000000  1
  Pb  Pb0  1  0.50000000  0.50000000  0.00000000  1
  Pb  Pb1  1  -0.00000000  -0.00000000  0.00000000  1
loop_
_geom_bond_atom_site_label_1
_geom_bond_atom_site_label_2
_geom_bond_distance
_geom_bond_site_symmetry_2
Pd0 Pd3 2.765777 1_655
Pd0 Tm1 2.864457 1_555
Pd0 Tm1 2.864457 1_554
Pd0 Tm3 2.931597 1_555
Pd0 Tm2 2.931597 1_654
Pd0 Tm3 2.931597 1_554
Pd0 Tm2 2.931597 1_655
Pd1 Pd2 2.765777 1_565
Pd1 Tm3 2.864457 1_555
Pd1 Tm3 2.864457 1_554
Pd1 Tm1 2.931597 1_564
Pd1 Tm1 2.931597 1_565
Pd1 Tm0 2.931597 1_555
Pd1 Tm0 2.931597 1_554
Pd2 Tm2 2.864457 1_555
Pd2 Tm2 2.864457 1_554
Pd2 Tm0 2.931597 1_545
Pd2 Tm1 2.931597 1_554
Pd2 Tm1 2.931597 1_555
Pd2 Tm0 2.931597 1_544
Pd3 Tm0 2.864457 1_555
Pd3 Tm0 2.864457 1_554
Pd3 Tm3 2.931597 1_454
Pd3 Tm2 2.931597 1_554
Pd3 Tm3 2.931597 1_455
Pd3 Tm2 2.931597 1_555
Pb0 Pd1 3.064938 1_555
Pb0 Pd0 3.064938 1_555
Pb0 Pd2 3.064938 1_555
Pb0 Pd3 3.064938 1_555
Pb0 Tm3 3.390649 1_555
Pb0 Tm2 3.390649 1_554
Pb0 Tm1 3.390649 1_555
Pb0 Tm0 3.390649 1_555
Pb0 Tm2 3.390649 1_555
Pb0 Tm0 3.390649 1_554
Pb0 Tm3 3.390649 1_554
Pb0 Tm1 3.390649 1_554
Pb1 Pd1 3.064938 1_445
Pb1 Pd2 3.064938 1_555
Pb1 Pd3 3.064938 1_545
Pb1 Pd0 3.064938 1_455
Pb1 Tm0 3.390649 1_545
Pb1 Tm1 3.390649 1_454
Pb1 Tm2 3.390649 1_554
Pb1 Tm2 3.390649 1_555
Pb1 Tm3 3.390649 1_444
Pb1 Tm1 3.390649 1_455
Pb1 Tm3 3.390649 1_445
Pb1 Tm0 3.390649 1_544
