# generated using pymatgen
data_Fe2(Se2O5)3
_symmetry_space_group_name_H-M   'P 1'
_cell_length_a   11.38723664
_cell_length_b   11.59170692
_cell_length_c   11.93601135
_cell_angle_alpha   102.86025186
_cell_angle_beta   90.00000000
_cell_angle_gamma   90.00000000
_symmetry_Int_Tables_number   1
_chemical_formula_structural   Fe2(Se2O5)3
_chemical_formula_sum   'Fe8 Se24 O60'
_cell_volume   1536.00307799
_cell_formula_units_Z   4
loop_
 _symmetry_equiv_pos_site_id
 _symmetry_equiv_pos_as_xyz
  1  'x, y, z'
loop_
 _atom_site_type_symbol
 _atom_site_label
 _atom_site_symmetry_multiplicity
 _atom_site_fract_x
 _atom_site_fract_y
 _atom_site_fract_z
 _atom_site_occupancy
  Fe  Fe0  1  0.26143625  0.75840680  0.76945990  1
  Fe  Fe1  1  0.24137386  0.75915065  0.27340487  1
  Fe  Fe2  1  0.23856375  0.25840680  0.26945990  1
  Fe  Fe3  1  0.25862614  0.25915065  0.77340487  1
  Fe  Fe4  1  0.75862614  0.24084935  0.72659513  1
  Fe  Fe5  1  0.73856375  0.24159320  0.23054010  1
  Fe  Fe6  1  0.74137386  0.74084935  0.22659513  1
  Fe  Fe7  1  0.76143625  0.74159320  0.73054010  1
  Se  Se0  1  0.48495321  0.10813960  0.21043739  1
  Se  Se1  1  0.83882022  0.86016972  0.00796070  1
  Se  Se2  1  0.98138876  0.67142307  0.33714232  1
  Se  Se3  1  0.66117978  0.36016972  0.50796070  1
  Se  Se4  1  0.67223563  0.52193495  0.87345607  1
  Se  Se5  1  0.16117978  0.13983028  0.99203930  1
  Se  Se6  1  0.51861124  0.17142307  0.83714232  1
  Se  Se7  1  0.10148243  0.74849542  0.01077543  1
  Se  Se8  1  0.01861124  0.32857693  0.66285768  1
  Se  Se9  1  0.17223563  0.97806505  0.62654393  1
  Se  Se10  1  0.98495321  0.39186040  0.28956261  1
  Se  Se11  1  0.32776437  0.47806505  0.12654393  1
  Se  Se12  1  0.59819957  0.48888045  0.21272554  1
  Se  Se13  1  0.82776437  0.02193495  0.37345607  1
  Se  Se14  1  0.89851757  0.25150458  0.98922457  1
  Se  Se15  1  0.51504679  0.89186040  0.78956261  1
  Se  Se16  1  0.01504679  0.60813960  0.71043739  1
  Se  Se17  1  0.90180043  0.98888045  0.71272554  1
  Se  Se18  1  0.39851757  0.24849542  0.51077543  1
  Se  Se19  1  0.09819957  0.01111955  0.28727446  1
  Se  Se20  1  0.40180043  0.51111955  0.78727446  1
  Se  Se21  1  0.33882022  0.63983028  0.49203930  1
  Se  Se22  1  0.60148243  0.75150458  0.48922457  1
  Se  Se23  1  0.48138876  0.82857693  0.16285768  1
  O  O0  1  0.22100123  0.91659639  0.73413020  1
  O  O1  1  0.29766034  0.29925050  0.61407759  1
  O  O2  1  0.29698937  0.61384705  0.83850972  1
  O  O3  1  0.14683919  0.80657621  0.89983599  1
  O  O4  1  0.35316081  0.30657621  0.39983599  1
  O  O5  1  0.11897321  0.36374646  0.77150834  1
  O  O6  1  0.13742107  0.66645175  0.66173666  1
  O  O7  1  0.88102679  0.63625354  0.22849166  1
  O  O8  1  0.36161764  0.39724727  0.84829948  1
  O  O9  1  0.63742107  0.83354825  0.83826334  1
  O  O10  1  0.62904869  0.29142490  0.36885703  1
  O  O11  1  0.87095131  0.79142490  0.86885703  1
  O  O12  1  0.84918823  0.87806471  0.30106456  1
  O  O13  1  0.20301063  0.11384705  0.33850972  1
  O  O14  1  0.59494687  0.16586349  0.14463412  1
  O  O15  1  0.98076655  0.07223404  0.39287620  1
  O  O16  1  0.38102679  0.86374646  0.27150834  1
  O  O17  1  0.63838236  0.60275273  0.15170052  1
  O  O18  1  0.10707857  0.64568200  0.25598965  1
  O  O19  1  0.48871167  0.63542106  0.43382811  1
  O  O20  1  0.89292143  0.35431800  0.74401035  1
  O  O21  1  0.86161764  0.10275273  0.65170052  1
  O  O22  1  0.01128833  0.13542106  0.93382811  1
  O  O23  1  0.51923345  0.57223404  0.89287620  1
  O  O24  1  0.12904869  0.20857510  0.13114297  1
  O  O25  1  0.22336542  0.25056109  0.94002352  1
  O  O26  1  0.39292143  0.14568200  0.75598965  1
  O  O27  1  0.20233966  0.79925050  0.11407759  1
  O  O28  1  0.01923345  0.92776596  0.60712380  1
  O  O29  1  0.40505313  0.83413651  0.85536588  1
  O  O30  1  0.36257893  0.16645175  0.16173666  1
  O  O31  1  0.77663458  0.74943891  0.05997648  1
  O  O32  1  0.61897321  0.13625354  0.72849166  1
  O  O33  1  0.70233966  0.70074950  0.38592241  1
  O  O34  1  0.60707857  0.85431800  0.24401035  1
  O  O35  1  0.97763348  0.53759245  0.39198162  1
  O  O36  1  0.13838236  0.89724727  0.34829948  1
  O  O37  1  0.51128833  0.36457894  0.56617189  1
  O  O38  1  0.86257893  0.33354825  0.33826334  1
  O  O39  1  0.27899877  0.41659639  0.23413020  1
  O  O40  1  0.48076655  0.42776596  0.10712380  1
  O  O41  1  0.77899877  0.08340361  0.26586980  1
  O  O42  1  0.64683919  0.69342379  0.60016401  1
  O  O43  1  0.90505313  0.66586349  0.64463412  1
  O  O44  1  0.37095131  0.70857510  0.63114297  1
  O  O45  1  0.79698937  0.88615295  0.66149028  1
  O  O46  1  0.72336542  0.24943891  0.55997648  1
  O  O47  1  0.34918823  0.62193529  0.19893544  1
  O  O48  1  0.15081177  0.12193529  0.69893544  1
  O  O49  1  0.09494687  0.33413651  0.35536588  1
  O  O50  1  0.52236652  0.03759245  0.89198162  1
  O  O51  1  0.72100123  0.58340361  0.76586980  1
  O  O52  1  0.79766034  0.20074950  0.88592241  1
  O  O53  1  0.70301063  0.38615295  0.16149028  1
  O  O54  1  0.27663458  0.75056109  0.44002352  1
  O  O55  1  0.65081177  0.37806471  0.80106456  1
  O  O56  1  0.02236652  0.46240755  0.60801838  1
  O  O57  1  0.47763348  0.96240755  0.10801838  1
  O  O58  1  0.98871167  0.86457894  0.06617189  1
  O  O59  1  0.85316081  0.19342379  0.10016401  1
loop_
_geom_bond_atom_site_label_1
_geom_bond_atom_site_label_2
_geom_bond_distance
_geom_bond_site_symmetry_2
Fe0 O3 2.012343 1_555
Fe0 O29 2.023818 1_555
Fe0 O0 2.023971 1_555
Fe0 O6 2.042942 1_555
Fe0 O44 2.046945 1_555
Fe0 O2 2.065408 1_555
Fe1 O18 1.997528 1_555
Fe1 O16 2.002918 1_555
Fe1 O36 2.024856 1_555
Fe1 O47 2.048874 1_555
Fe1 O54 2.052914 1_555
Fe1 O27 2.103264 1_555
Fe2 O4 2.012343 1_555
Fe2 O49 2.023818 1_555
Fe2 O39 2.023971 1_555
Fe2 O30 2.042942 1_555
Fe2 O24 2.046945 1_555
Fe2 O13 2.065408 1_555
Fe3 O26 1.997528 1_555
Fe3 O5 2.002918 1_555
Fe3 O8 2.024856 1_555
Fe3 O48 2.048874 1_555
Fe3 O25 2.052914 1_555
Fe3 O1 2.103264 1_555
Fe4 O20 1.997528 1_555
Fe4 O32 2.002918 1_555
Fe4 O21 2.024856 1_555
Fe4 O55 2.048874 1_555
Fe4 O46 2.052914 1_555
Fe4 O52 2.103264 1_555
Fe5 O59 2.012343 1_555
Fe5 O14 2.023818 1_555
Fe5 O41 2.023971 1_555
Fe5 O38 2.042942 1_555
Fe5 O10 2.046945 1_555
Fe5 O53 2.065408 1_555
Fe6 O34 1.997528 1_555
Fe6 O7 2.002918 1_555
Fe6 O17 2.024856 1_555
Fe6 O12 2.048874 1_555
Fe6 O31 2.052914 1_555
Fe6 O33 2.103264 1_555
Fe7 O42 2.012343 1_555
Fe7 O43 2.023818 1_555
Fe7 O51 2.023971 1_555
Fe7 O9 2.042942 1_555
Fe7 O11 2.046945 1_555
Fe7 O45 2.065408 1_555
O0 Se9 1.694818 1_555
O1 Se18 1.691911 1_555
O2 Se20 1.700664 1_555
O3 Se7 1.694203 1_556
O4 Se18 1.694203 1_555
O5 Se8 1.708444 1_555
O6 Se16 1.706328 1_555
O7 Se2 1.708444 1_555
O8 Se20 1.705947 1_555
O9 Se15 1.706328 1_555
O10 Se3 1.713665 1_555
O11 Se1 1.713665 1_556
O12 Se13 1.716361 1_565
O13 Se19 1.700664 1_555
O14 Se0 1.693334 1_555
O15 Se13 1.835492 1_555
O15 Se19 1.865836 1_655
O16 Se23 1.708444 1_555
O17 Se12 1.705947 1_555
O18 Se2 1.716723 1_455
O19 Se21 1.839266 1_555
O19 Se22 1.871051 1_555
O20 Se8 1.716723 1_655
O21 Se17 1.705947 1_545
O22 Se5 1.839266 1_555
O22 Se14 1.871051 1_455
O23 Se4 1.835492 1_555
O23 Se20 1.865836 1_555
O24 Se5 1.713665 1_554
O25 Se5 1.699757 1_555
O26 Se6 1.716723 1_555
O27 Se7 1.691911 1_555
O28 Se9 1.835492 1_555
O28 Se17 1.865836 1_455
O29 Se15 1.693334 1_555
O30 Se0 1.706328 1_555
O31 Se1 1.699757 1_555
O32 Se6 1.708444 1_555
O33 Se22 1.691911 1_555
O34 Se23 1.716723 1_555
O35 Se2 1.813536 1_555
O35 Se10 1.853589 1_555
O36 Se19 1.705947 1_565
O37 Se3 1.839266 1_555
O37 Se18 1.871051 1_555
O38 Se10 1.706328 1_555
O39 Se11 1.694818 1_555
O40 Se11 1.835492 1_555
O40 Se12 1.865836 1_555
O41 Se13 1.694818 1_555
O42 Se22 1.694203 1_555
O43 Se16 1.693334 1_655
O44 Se21 1.713665 1_555
O45 Se17 1.700664 1_555
O46 Se3 1.699757 1_555
O47 Se11 1.716361 1_555
O48 Se9 1.716361 1_545
O49 Se10 1.693334 1_455
O50 Se6 1.813536 1_555
O50 Se15 1.853589 1_545
O51 Se4 1.694818 1_555
O52 Se14 1.691911 1_555
O53 Se12 1.700664 1_555
O54 Se21 1.699757 1_555
O55 Se4 1.716361 1_555
O56 Se8 1.813536 1_555
O56 Se16 1.853589 1_555
O57 Se23 1.813536 1_555
O57 Se0 1.853589 1_565
O58 Se1 1.839266 1_555
O58 Se7 1.871051 1_655
O59 Se14 1.694203 1_554
