# generated using pymatgen
data_Ba3Nb2(P2O9)2
_symmetry_space_group_name_H-M   'P 1'
_cell_length_a   4.97169400
_cell_length_b   9.19303973
_cell_length_c   9.68435108
_cell_angle_alpha   88.41670094
_cell_angle_beta   101.19710113
_cell_angle_gamma   101.62483816
_symmetry_Int_Tables_number   1
_chemical_formula_structural   Ba3Nb2(P2O9)2
_chemical_formula_sum   'Ba3 Nb2 P4 O18'
_cell_volume   425.26101547
_cell_formula_units_Z   1
loop_
 _symmetry_equiv_pos_site_id
 _symmetry_equiv_pos_as_xyz
  1  'x, y, z'
loop_
 _atom_site_type_symbol
 _atom_site_label
 _atom_site_symmetry_multiplicity
 _atom_site_fract_x
 _atom_site_fract_y
 _atom_site_fract_z
 _atom_site_occupancy
  Ba  Ba0  1  0.04783000  0.28281100  0.91054200  1
  Ba  Ba1  1  0.50000000  0.50000000  0.50000000  1
  Ba  Ba2  1  0.95217000  0.71718900  0.08945800  1
  Nb  Nb0  1  0.74357200  0.89165500  0.72853300  1
  Nb  Nb1  1  0.25642800  0.10834500  0.27146700  1
  P  P0  1  0.80825200  0.36629400  0.21745700  1
  P  P1  1  0.69059900  0.86543600  0.35948200  1
  P  P2  1  0.30940100  0.13456400  0.64051800  1
  P  P3  1  0.19174800  0.63370600  0.78254300  1
  O  O0  1  0.55763700  0.00471400  0.36280600  1
  O  O1  1  0.01107800  0.50627300  0.68717700  1
  O  O2  1  0.73765300  0.93787600  0.90516600  1
  O  O3  1  0.24229300  0.19184000  0.48954900  1
  O  O4  1  0.96164600  0.23343900  0.21071400  1
  O  O5  1  0.97042900  0.92244900  0.30314700  1
  O  O6  1  0.45635600  0.69466600  0.71506500  1
  O  O7  1  0.27775600  0.58637600  0.93506100  1
  O  O8  1  0.26234700  0.06212400  0.09483400  1
  O  O9  1  0.44236300  0.99528600  0.63719400  1
  O  O10  1  0.49010000  0.25683500  0.74118100  1
  O  O11  1  0.75770700  0.80816000  0.51045100  1
  O  O12  1  0.03835400  0.76656100  0.78928600  1
  O  O13  1  0.02957100  0.07755100  0.69685300  1
  O  O14  1  0.72224400  0.41362400  0.06493900  1
  O  O15  1  0.98892200  0.49372700  0.31282300  1
  O  O16  1  0.50990000  0.74316500  0.25881900  1
  O  O17  1  0.54364400  0.30533400  0.28493500  1
loop_
_geom_bond_atom_site_label_1
_geom_bond_atom_site_label_2
_geom_bond_distance
_geom_bond_site_symmetry_2
Ba0 O7 2.792241 1_555
Ba0 O13 2.815182 1_555
Ba0 O14 2.850612 1_456
Ba0 O8 2.893337 1_556
Ba0 O10 2.902483 1_455
Ba0 O1 2.947018 1_555
Ba0 O4 3.028620 1_456
Ba0 O10 3.035762 1_555
Ba0 O2 3.231608 1_445
Ba0 O14 3.384030 1_556
Ba1 O1 2.811296 1_655
Ba1 O15 2.811296 1_455
Ba1 O6 2.850533 1_555
Ba1 O17 2.850533 1_555
Ba1 O11 2.860071 1_555
Ba1 O3 2.860071 1_555
Ba1 O16 3.188532 1_555
Ba1 O10 3.188532 1_555
Ba1 O15 3.312299 1_555
Ba1 O1 3.312299 1_555
Ba2 O14 2.792241 1_555
Ba2 O5 2.815182 1_555
Ba2 O7 2.850612 1_654
Ba2 O2 2.893337 1_554
Ba2 O16 2.902483 1_655
Ba2 O15 2.947018 1_555
Ba2 O12 3.028620 1_654
Ba2 O16 3.035762 1_555
Ba2 O8 3.231608 1_665
Ba2 O7 3.384030 1_554
Nb0 O2 1.781078 1_555
Nb0 O9 1.986592 1_555
Nb0 O12 2.030636 1_655
Nb0 O13 2.048804 1_665
Nb0 O6 2.057692 1_555
Nb0 O11 2.285507 1_555
Nb1 O8 1.781078 1_555
Nb1 O0 1.986592 1_555
Nb1 O4 2.030636 1_455
Nb1 O5 2.048804 1_445
Nb1 O17 2.057692 1_555
Nb1 O3 2.285507 1_555
O0 P1 1.558543 1_545
O1 P3 1.531576 1_555
O3 P2 1.537831 1_555
O4 P0 1.573741 1_555
O5 P1 1.578918 1_555
O6 P3 1.577432 1_555
O7 P3 1.532312 1_555
O9 P2 1.558543 1_565
O10 P2 1.527862 1_555
O11 P1 1.537831 1_555
O12 P3 1.573741 1_555
O13 P2 1.578918 1_555
O14 P0 1.532312 1_555
O15 P0 1.531576 1_555
O16 P1 1.527862 1_555
O17 P0 1.577432 1_555
