# generated using pymatgen
data_Y3CuGeS7
_symmetry_space_group_name_H-M   'P 1'
_cell_length_a   9.89241415
_cell_length_b   9.89241415
_cell_length_c   5.82526600
_cell_angle_alpha   90.00000000
_cell_angle_beta   90.00000000
_cell_angle_gamma   120.00000099
_symmetry_Int_Tables_number   1
_chemical_formula_structural   Y3CuGeS7
_chemical_formula_sum   'Y6 Cu2 Ge2 S14'
_cell_volume   493.68617843
_cell_formula_units_Z   2
loop_
 _symmetry_equiv_pos_site_id
 _symmetry_equiv_pos_as_xyz
  1  'x, y, z'
loop_
 _atom_site_type_symbol
 _atom_site_label
 _atom_site_symmetry_multiplicity
 _atom_site_fract_x
 _atom_site_fract_y
 _atom_site_fract_z
 _atom_site_occupancy
  Y  Y0  1  0.13379600  0.77633500  0.75138500  1
  Y  Y1  1  0.77633500  0.64253900  0.25138500  1
  Y  Y2  1  0.35746100  0.13379600  0.25138500  1
  Y  Y3  1  0.64253900  0.86620400  0.75138500  1
  Y  Y4  1  0.86620400  0.22366500  0.25138500  1
  Y  Y5  1  0.22366500  0.35746100  0.75138500  1
  Cu  Cu0  1  0.00000000  0.00000000  0.19306200  1
  Cu  Cu1  1  0.00000000  0.00000000  0.69306200  1
  Ge  Ge0  1  0.66666700  0.33333300  0.83262300  1
  Ge  Ge1  1  0.33333300  0.66666700  0.33262300  1
  S  S0  1  0.47985200  0.57779300  0.49401700  1
  S  S1  1  0.90205900  0.47985200  0.99401700  1
  S  S2  1  0.90035200  0.15953600  0.71534900  1
  S  S3  1  0.09964800  0.84046400  0.21534900  1
  S  S4  1  0.09794100  0.52014800  0.49401700  1
  S  S5  1  0.33333300  0.66666700  0.95366300  1
  S  S6  1  0.74081600  0.90035200  0.21534900  1
  S  S7  1  0.66666700  0.33333300  0.45366300  1
  S  S8  1  0.57779300  0.09794100  0.99401700  1
  S  S9  1  0.25918400  0.09964800  0.71534900  1
  S  S10  1  0.15953600  0.25918400  0.21534900  1
  S  S11  1  0.42220700  0.90205900  0.49401700  1
  S  S12  1  0.84046400  0.74081600  0.71534900  1
  S  S13  1  0.52014800  0.42220700  0.99401700  1
loop_
_geom_bond_atom_site_label_1
_geom_bond_atom_site_label_2
_geom_bond_distance
_geom_bond_site_symmetry_2
Cu0 S10 2.243881 1_555
Cu0 S6 2.243881 1_445
Cu0 S3 2.243881 1_545
Cu0 Y1 3.113085 1_445
Cu0 Y2 3.113085 1_555
Cu0 Y4 3.113085 1_455
Cu1 S12 2.243881 1_445
Cu1 S9 2.243881 1_555
Cu1 S2 2.243881 1_455
Cu1 Y5 3.113085 1_555
Cu1 Y3 3.113085 1_445
Cu1 Y0 3.113085 1_545
Ge0 S7 2.207543 1_555
Ge0 S8 2.243204 1_555
Ge0 S1 2.243206 1_555
Ge0 S13 2.243213 1_555
Ge1 S5 2.207543 1_554
Ge1 S11 2.243204 1_555
Ge1 S4 2.243206 1_555
Ge1 S0 2.243213 1_555
S0 Y5 2.810220 1_555
S0 Y3 2.895892 1_555
S0 Y1 3.021835 1_555
S1 Y4 2.810220 1_556
S1 Y1 2.895892 1_556
S1 Y0 3.021835 1_655
S2 Y3 2.751029 1_545
S2 Y5 2.800867 1_655
S2 Y4 2.834701 1_555
S2 Y4 3.237468 1_556
S3 Y2 2.751029 1_565
S3 Y1 2.800867 1_455
S3 Y0 2.834701 1_554
S3 Y0 3.237468 1_555
S4 Y0 2.810220 1_555
S4 Y5 2.895892 1_555
S4 Y4 3.021835 1_455
S5 Y0 2.933113 1_555
S5 Y3 2.933120 1_555
S5 Y5 2.933122 1_555
S6 Y1 2.751029 1_555
S6 Y4 2.800867 1_565
S6 Y3 2.834701 1_554
S6 Y3 3.237468 1_555
S7 Y4 2.933113 1_555
S7 Y2 2.933120 1_555
S7 Y1 2.933122 1_555
S8 Y2 2.810220 1_556
S8 Y4 2.895892 1_556
S8 Y3 3.021835 1_545
S9 Y5 2.751029 1_555
S9 Y0 2.800867 1_545
S9 Y2 2.834701 1_555
S9 Y2 3.237468 1_556
S10 Y4 2.751029 1_455
S10 Y2 2.800867 1_555
S10 Y5 2.834701 1_554
S10 Y5 3.237468 1_555
S11 Y3 2.810220 1_555
S11 Y0 2.895892 1_555
S11 Y2 3.021835 1_565
S12 Y0 2.751029 1_655
S12 Y3 2.800867 1_555
S12 Y1 2.834701 1_555
S12 Y1 3.237468 1_556
S13 Y1 2.810220 1_556
S13 Y2 2.895892 1_556
S13 Y5 3.021835 1_555
