# generated using pymatgen
data_CaTa2O6
_symmetry_space_group_name_H-M   'P 1'
_cell_length_a   7.85686800
_cell_length_b   7.85686800
_cell_length_c   7.85686800
_cell_angle_alpha   90.00000000
_cell_angle_beta   90.00000000
_cell_angle_gamma   90.00000000
_symmetry_Int_Tables_number   1
_chemical_formula_structural   CaTa2O6
_chemical_formula_sum   'Ca4 Ta8 O24'
_cell_volume   485.00740615
_cell_formula_units_Z   4
loop_
 _symmetry_equiv_pos_site_id
 _symmetry_equiv_pos_as_xyz
  1  'x, y, z'
loop_
 _atom_site_type_symbol
 _atom_site_label
 _atom_site_symmetry_multiplicity
 _atom_site_fract_x
 _atom_site_fract_y
 _atom_site_fract_z
 _atom_site_occupancy
  Ca  Ca0  1  0.50000000  0.00000000  0.00000000  1
  Ca  Ca1  1  0.50000000  0.50000000  0.50000000  1
  Ca  Ca2  1  0.00000000  0.50000000  0.00000000  1
  Ca  Ca3  1  0.00000000  0.00000000  0.50000000  1
  Ta  Ta0  1  0.75066500  0.24933500  0.75066500  1
  Ta  Ta1  1  0.24933500  0.24933500  0.24933500  1
  Ta  Ta2  1  0.75066500  0.75066500  0.75066500  1
  Ta  Ta3  1  0.75066500  0.75066500  0.24933500  1
  Ta  Ta4  1  0.24933500  0.24933500  0.75066500  1
  Ta  Ta5  1  0.75066500  0.24933500  0.24933500  1
  Ta  Ta6  1  0.24933500  0.75066500  0.24933500  1
  Ta  Ta7  1  0.24933500  0.75066500  0.75066500  1
  O  O0  1  0.28263400  0.78866400  0.00000000  1
  O  O1  1  0.77298800  0.27631200  0.50000000  1
  O  O2  1  0.00000000  0.28263400  0.78866400  1
  O  O3  1  0.71736600  0.78866400  0.00000000  1
  O  O4  1  0.22701200  0.27631200  0.50000000  1
  O  O5  1  0.78866400  0.00000000  0.28263400  1
  O  O6  1  0.50000000  0.22701200  0.72368800  1
  O  O7  1  0.50000000  0.77298800  0.72368800  1
  O  O8  1  0.27631200  0.50000000  0.22701200  1
  O  O9  1  0.28263400  0.21133600  0.00000000  1
  O  O10  1  0.71736600  0.21133600  0.00000000  1
  O  O11  1  0.78866400  0.00000000  0.71736600  1
  O  O12  1  0.21133600  0.00000000  0.28263400  1
  O  O13  1  0.22701200  0.72368800  0.50000000  1
  O  O14  1  0.50000000  0.22701200  0.27631200  1
  O  O15  1  0.72368800  0.50000000  0.22701200  1
  O  O16  1  0.00000000  0.71736600  0.78866400  1
  O  O17  1  0.50000000  0.77298800  0.27631200  1
  O  O18  1  0.00000000  0.28263400  0.21133600  1
  O  O19  1  0.77298800  0.72368800  0.50000000  1
  O  O20  1  0.27631200  0.50000000  0.77298800  1
  O  O21  1  0.00000000  0.71736600  0.21133600  1
  O  O22  1  0.21133600  0.00000000  0.71736600  1
  O  O23  1  0.72368800  0.50000000  0.77298800  1
loop_
_geom_bond_atom_site_label_1
_geom_bond_atom_site_label_2
_geom_bond_distance
_geom_bond_site_symmetry_2
Ca0 O10 2.381952 1_555
Ca0 O9 2.381952 1_555
Ca0 O3 2.381952 1_545
Ca0 O0 2.381952 1_545
Ca0 O6 2.809671 1_554
Ca0 O17 2.809671 1_545
Ca0 O14 2.809671 1_555
Ca0 O7 2.809671 1_544
Ca1 O4 2.772915 1_555
Ca1 O23 2.772915 1_555
Ca1 O13 2.772915 1_555
Ca1 O7 2.772915 1_555
Ca1 O20 2.772915 1_555
Ca1 O1 2.772915 1_555
Ca1 O6 2.772915 1_555
Ca1 O15 2.772915 1_555
Ca1 O8 2.772915 1_555
Ca1 O19 2.772915 1_555
Ca1 O17 2.772915 1_555
Ca1 O14 2.772915 1_555
Ca2 O21 2.381952 1_555
Ca2 O18 2.381952 1_555
Ca2 O16 2.381952 1_554
Ca2 O2 2.381952 1_554
Ca2 O23 2.809671 1_454
Ca2 O20 2.809671 1_554
Ca2 O15 2.809671 1_455
Ca2 O8 2.809671 1_555
Ca3 O22 2.381952 1_555
Ca3 O12 2.381952 1_555
Ca3 O5 2.381952 1_455
Ca3 O11 2.381952 1_455
Ca3 O1 2.809671 1_455
Ca3 O19 2.809671 1_445
Ca3 O4 2.809671 1_555
Ca3 O13 2.809671 1_545
O0 Ta6 1.998808 1_555
O0 Ta7 1.998808 1_554
O1 Ta0 1.988564 1_555
O1 Ta5 1.988564 1_555
O2 Ta4 1.998808 1_555
O2 Ta0 1.998808 1_455
O3 Ta3 1.998808 1_555
O3 Ta2 1.998808 1_554
O4 Ta4 1.988564 1_555
O4 Ta1 1.988564 1_555
O5 Ta5 1.998808 1_555
O5 Ta3 1.998808 1_545
O6 Ta0 1.988564 1_555
O6 Ta4 1.988564 1_555
O7 Ta2 1.988564 1_555
O7 Ta7 1.988564 1_555
O8 Ta6 1.988564 1_555
O8 Ta1 1.988564 1_555
O9 Ta1 1.998808 1_555
O9 Ta4 1.998808 1_554
O10 Ta5 1.998808 1_555
O10 Ta0 1.998808 1_554
O11 Ta0 1.998808 1_555
O11 Ta2 1.998808 1_545
O12 Ta1 1.998808 1_555
O12 Ta6 1.998808 1_545
O13 Ta7 1.988564 1_555
O13 Ta6 1.988564 1_555
O14 Ta5 1.988564 1_555
O14 Ta1 1.988564 1_555
O15 Ta3 1.988564 1_555
O15 Ta5 1.988564 1_555
O16 Ta7 1.998808 1_555
O16 Ta2 1.998808 1_455
O17 Ta3 1.988564 1_555
O17 Ta6 1.988564 1_555
O18 Ta1 1.998808 1_555
O18 Ta5 1.998808 1_455
O19 Ta2 1.988564 1_555
O19 Ta3 1.988564 1_555
O20 Ta7 1.988564 1_555
O20 Ta4 1.988564 1_555
O21 Ta6 1.998808 1_555
O21 Ta3 1.998808 1_455
O22 Ta4 1.998808 1_555
O22 Ta7 1.998808 1_545
O23 Ta2 1.988564 1_555
O23 Ta0 1.988564 1_555
