# generated using pymatgen
data_Cs3Cu2Cl5
_symmetry_space_group_name_H-M   'P 1'
_cell_length_a   9.30738442
_cell_length_b   10.53864909
_cell_length_c   13.08529749
_cell_angle_alpha   90.00000000
_cell_angle_beta   90.00000000
_cell_angle_gamma   90.00000000
_symmetry_Int_Tables_number   1
_chemical_formula_structural   Cs3Cu2Cl5
_chemical_formula_sum   'Cs12 Cu8 Cl20'
_cell_volume   1283.50095546
_cell_formula_units_Z   4
loop_
 _symmetry_equiv_pos_site_id
 _symmetry_equiv_pos_as_xyz
  1  'x, y, z'
loop_
 _atom_site_type_symbol
 _atom_site_label
 _atom_site_symmetry_multiplicity
 _atom_site_fract_x
 _atom_site_fract_y
 _atom_site_fract_z
 _atom_site_occupancy
  Cs  Cs0  1  0.53836621  0.51093555  0.82018084  1
  Cs  Cs1  1  0.46163379  0.48906445  0.17981916  1
  Cs  Cs2  1  0.96163379  0.01093555  0.32018084  1
  Cs  Cs3  1  0.03836621  0.98906445  0.67981916  1
  Cs  Cs4  1  0.39465040  0.75000000  0.45291246  1
  Cs  Cs5  1  0.03836621  0.51093555  0.67981916  1
  Cs  Cs6  1  0.60534960  0.25000000  0.54708754  1
  Cs  Cs7  1  0.46163379  0.01093555  0.17981916  1
  Cs  Cs8  1  0.89465040  0.75000000  0.04708754  1
  Cs  Cs9  1  0.96163379  0.48906445  0.32018084  1
  Cs  Cs10  1  0.10534960  0.25000000  0.95291246  1
  Cs  Cs11  1  0.53836621  0.98906445  0.82018084  1
  Cu  Cu0  1  0.26544673  0.25000000  0.36378880  1
  Cu  Cu1  1  0.29292017  0.75000000  0.04865703  1
  Cu  Cu2  1  0.23455327  0.75000000  0.86378880  1
  Cu  Cu3  1  0.79292017  0.75000000  0.45134297  1
  Cu  Cu4  1  0.73455327  0.75000000  0.63621120  1
  Cu  Cu5  1  0.70707983  0.25000000  0.95134297  1
  Cu  Cu6  1  0.76544673  0.25000000  0.13621120  1
  Cu  Cu7  1  0.20707983  0.25000000  0.54865703  1
  Cl  Cl0  1  0.67884835  0.25000000  0.29296654  1
  Cl  Cl1  1  0.81180289  0.06645558  0.05567502  1
  Cl  Cl2  1  0.79960638  0.25000000  0.79392636  1
  Cl  Cl3  1  0.82115165  0.75000000  0.79296654  1
  Cl  Cl4  1  0.02739639  0.75000000  0.49003231  1
  Cl  Cl5  1  0.70039362  0.75000000  0.29392636  1
  Cl  Cl6  1  0.68819711  0.56645558  0.55567502  1
  Cl  Cl7  1  0.17884835  0.25000000  0.20703346  1
  Cl  Cl8  1  0.32115165  0.75000000  0.70703346  1
  Cl  Cl9  1  0.20039362  0.75000000  0.20607364  1
  Cl  Cl10  1  0.31180289  0.43354442  0.44432498  1
  Cl  Cl11  1  0.47260361  0.25000000  0.99003231  1
  Cl  Cl12  1  0.18819711  0.93354442  0.94432498  1
  Cl  Cl13  1  0.81180289  0.43354442  0.05567502  1
  Cl  Cl14  1  0.31180289  0.06645558  0.44432498  1
  Cl  Cl15  1  0.52739639  0.75000000  0.00996769  1
  Cl  Cl16  1  0.97260361  0.25000000  0.50996769  1
  Cl  Cl17  1  0.18819711  0.56645558  0.94432498  1
  Cl  Cl18  1  0.68819711  0.93354442  0.55567502  1
  Cl  Cl19  1  0.29960638  0.25000000  0.70607364  1
loop_
_geom_bond_atom_site_label_1
_geom_bond_atom_site_label_2
_geom_bond_distance
_geom_bond_site_symmetry_2
Cl0 Cu6 2.203866 1_555
Cl0 Cs6 3.394885 1_555
Cl0 Cs1 3.553422 1_555
Cl0 Cs7 3.553422 1_555
Cl0 Cs2 3.660827 1_555
Cl0 Cs9 3.660827 1_555
Cl1 Cu6 2.244613 1_555
Cl1 Cu5 2.560353 1_554
Cl1 Cs8 3.424841 1_545
Cl1 Cs10 3.607544 1_654
Cl1 Cs7 3.688271 1_555
Cl1 Cs2 3.777108 1_555
Cl2 Cu5 2.232618 1_555
Cl2 Cs10 3.525027 1_655
Cl2 Cs0 3.686737 1_555
Cl2 Cs11 3.686737 1_545
Cl2 Cs6 3.701565 1_555
Cl2 Cs5 3.837933 1_655
Cl2 Cs3 3.837933 1_645
Cl3 Cu4 2.203866 1_555
Cl3 Cs8 3.394885 1_556
Cl3 Cs5 3.553422 1_655
Cl3 Cs3 3.553422 1_655
Cl3 Cs0 3.660827 1_555
Cl3 Cs11 3.660827 1_555
Cl4 Cu3 2.240312 1_455
Cl4 Cs4 3.452513 1_555
Cl4 Cs3 3.539102 1_555
Cl4 Cs5 3.539102 1_555
Cl4 Cs2 3.588369 1_465
Cl4 Cs9 3.588369 1_455
Cl5 Cu3 2.232618 1_555
Cl5 Cs4 3.525027 1_555
Cl5 Cs2 3.686737 1_565
Cl5 Cs9 3.686737 1_555
Cl5 Cs8 3.701565 1_555
Cl5 Cs7 3.837933 1_565
Cl5 Cs1 3.837933 1_555
Cl6 Cu4 2.244613 1_555
Cl6 Cu3 2.560353 1_555
Cl6 Cs6 3.424841 1_555
Cl6 Cs4 3.607544 1_555
Cl6 Cs5 3.688271 1_655
Cl6 Cs0 3.777108 1_555
Cl7 Cu0 2.203866 1_555
Cl7 Cs10 3.394885 1_554
Cl7 Cs9 3.553422 1_455
Cl7 Cs2 3.553422 1_455
Cl7 Cs1 3.660827 1_555
Cl7 Cs7 3.660827 1_555
Cl8 Cu2 2.203866 1_555
Cl8 Cs4 3.394885 1_555
Cl8 Cs0 3.553422 1_555
Cl8 Cs11 3.553422 1_555
Cl8 Cs5 3.660827 1_555
Cl8 Cs3 3.660827 1_555
Cl9 Cu1 2.232618 1_555
Cl9 Cs8 3.525027 1_455
Cl9 Cs7 3.686737 1_565
Cl9 Cs1 3.686737 1_555
Cl9 Cs4 3.701565 1_555
Cl9 Cs2 3.837933 1_465
Cl9 Cs9 3.837933 1_455
Cl10 Cu0 2.244613 1_555
Cl10 Cu7 2.560353 1_555
Cl10 Cs4 3.424841 1_555
Cl10 Cs6 3.607544 1_555
Cl10 Cs9 3.688271 1_455
Cl10 Cs1 3.777108 1_555
Cl11 Cu5 2.240312 1_555
Cl11 Cs10 3.452513 1_555
Cl11 Cs1 3.539102 1_556
Cl11 Cs7 3.539102 1_556
Cl11 Cs0 3.588369 1_555
Cl11 Cs11 3.588369 1_545
Cl12 Cu2 2.244613 1_555
Cl12 Cu1 2.560353 1_556
Cl12 Cs10 3.424841 1_565
Cl12 Cs8 3.607544 1_456
Cl12 Cs11 3.688271 1_555
Cl12 Cs3 3.777108 1_555
Cl13 Cu6 2.244613 1_555
Cl13 Cu5 2.560353 1_554
Cl13 Cs8 3.424841 1_555
Cl13 Cs10 3.607544 1_654
Cl13 Cs1 3.688271 1_555
Cl13 Cs9 3.777108 1_555
Cl14 Cu0 2.244613 1_555
Cl14 Cu7 2.560353 1_555
Cl14 Cs4 3.424841 1_545
Cl14 Cs6 3.607544 1_555
Cl14 Cs2 3.688271 1_455
Cl14 Cs7 3.777108 1_555
Cl15 Cu1 2.240312 1_555
Cl15 Cs8 3.452513 1_555
Cl15 Cs0 3.539102 1_554
Cl15 Cs11 3.539102 1_554
Cl15 Cs7 3.588369 1_565
Cl15 Cs1 3.588369 1_555
Cl16 Cu7 2.240312 1_655
Cl16 Cs6 3.452513 1_555
Cl16 Cs9 3.539102 1_555
Cl16 Cs2 3.539102 1_555
Cl16 Cs3 3.588369 1_645
Cl16 Cs5 3.588369 1_655
Cl17 Cu2 2.244613 1_555
Cl17 Cu1 2.560353 1_556
Cl17 Cs10 3.424841 1_555
Cl17 Cs8 3.607544 1_456
Cl17 Cs0 3.688271 1_555
Cl17 Cs5 3.777108 1_555
Cl18 Cu4 2.244613 1_555
Cl18 Cu3 2.560353 1_555
Cl18 Cs6 3.424841 1_565
Cl18 Cs4 3.607544 1_555
Cl18 Cs3 3.688271 1_655
Cl18 Cs11 3.777108 1_555
Cl19 Cu7 2.232618 1_555
Cl19 Cs6 3.525027 1_555
Cl19 Cs5 3.686737 1_555
Cl19 Cs3 3.686737 1_545
Cl19 Cs10 3.701565 1_555
Cl19 Cs0 3.837933 1_555
Cl19 Cs11 3.837933 1_545
