# generated using pymatgen
data_ZnBi2B2O7
_symmetry_space_group_name_H-M   'P 1'
_cell_length_a   4.90135368
_cell_length_b   10.82195796
_cell_length_c   10.97143572
_cell_angle_alpha   90.00000000
_cell_angle_beta   90.00000000
_cell_angle_gamma   90.00000000
_symmetry_Int_Tables_number   1
_chemical_formula_structural   ZnBi2B2O7
_chemical_formula_sum   'Zn4 Bi8 B8 O28'
_cell_volume   581.94956470
_cell_formula_units_Z   4
loop_
 _symmetry_equiv_pos_site_id
 _symmetry_equiv_pos_as_xyz
  1  'x, y, z'
loop_
 _atom_site_type_symbol
 _atom_site_label
 _atom_site_symmetry_multiplicity
 _atom_site_fract_x
 _atom_site_fract_y
 _atom_site_fract_z
 _atom_site_occupancy
  Zn  Zn0  1  0.06960299  0.74182013  0.24108100  1
  Zn  Zn1  1  0.06960299  0.24182013  0.25891900  1
  Zn  Zn2  1  0.06960299  0.25817987  0.75891900  1
  Zn  Zn3  1  0.06960299  0.75817987  0.74108100  1
  Bi  Bi0  1  0.58160914  0.32103019  0.03083446  1
  Bi  Bi1  1  0.57814260  0.51442346  0.31402817  1
  Bi  Bi2  1  0.57814260  0.48557654  0.68597183  1
  Bi  Bi3  1  0.58160914  0.67896981  0.96916554  1
  Bi  Bi4  1  0.57814260  0.98557654  0.81402817  1
  Bi  Bi5  1  0.58160914  0.17896981  0.53083446  1
  Bi  Bi6  1  0.58160914  0.82103019  0.46916554  1
  Bi  Bi7  1  0.57814260  0.01442346  0.18597183  1
  B  B0  1  0.12501175  0.51425114  0.87243325  1
  B  B1  1  0.08026949  0.38366091  0.48027181  1
  B  B2  1  0.12501175  0.98574886  0.37243325  1
  B  B3  1  0.08026949  0.88366091  0.01972819  1
  B  B4  1  0.12501175  0.01425114  0.62756675  1
  B  B5  1  0.08026949  0.11633909  0.98027181  1
  B  B6  1  0.08026949  0.61633909  0.51972819  1
  B  B7  1  0.12501175  0.48574886  0.12756675  1
  O  O0  1  0.95611505  0.50000000  0.50000000  1
  O  O1  1  0.21540861  0.50000000  -0.00000000  1
  O  O2  1  0.93031579  0.19839424  0.91581767  1
  O  O3  1  0.93031579  0.69839424  0.58418233  1
  O  O4  1  0.73776466  0.19998034  0.17351012  1
  O  O5  1  0.95611505  0.00000000  -0.00000000  1
  O  O6  1  0.82842186  0.47883507  0.14101414  1
  O  O7  1  0.24863340  0.08750526  0.29833384  1
  O  O8  1  0.82842186  0.52116493  0.85898586  1
  O  O9  1  0.21540861  0.00000000  0.50000000  1
  O  O10  1  0.73776466  0.30001966  0.67351012  1
  O  O11  1  0.93031579  0.80160576  0.08418233  1
  O  O12  1  0.93031579  0.30160576  0.41581767  1
  O  O13  1  0.26839231  0.87088650  0.32628887  1
  O  O14  1  0.26839231  0.12911350  0.67371113  1
  O  O15  1  0.33702467  0.63492766  0.47798844  1
  O  O16  1  0.33702467  0.86507234  0.97798844  1
  O  O17  1  0.33702467  0.13492766  0.02201156  1
  O  O18  1  0.24863340  0.58750526  0.20166616  1
  O  O19  1  0.24863340  0.91249474  0.70166616  1
  O  O20  1  0.82842186  0.97883507  0.35898586  1
  O  O21  1  0.33702467  0.36507234  0.52201156  1
  O  O22  1  0.73776466  0.69998034  0.32648988  1
  O  O23  1  0.24863340  0.41249474  0.79833384  1
  O  O24  1  0.82842186  0.02116493  0.64101414  1
  O  O25  1  0.73776466  0.80001966  0.82648988  1
  O  O26  1  0.26839231  0.37088650  0.17371113  1
  O  O27  1  0.26839231  0.62911350  0.82628887  1
loop_
_geom_bond_atom_site_label_1
_geom_bond_atom_site_label_2
_geom_bond_distance
_geom_bond_site_symmetry_2
Bi0 O4 2.179961 1_555
Bi0 O26 2.259459 1_555
Bi0 O17 2.345773 1_555
Bi0 O6 2.416841 1_555
Bi0 O2 2.504973 1_554
Bi0 O1 2.662188 1_555
Bi1 O22 2.159446 1_555
Bi1 O18 2.180273 1_555
Bi1 O6 2.292673 1_555
Bi1 O15 2.516602 1_555
Bi1 O26 2.662295 1_555
Bi1 O0 2.760353 1_555
Bi2 O10 2.159446 1_555
Bi2 O23 2.180273 1_555
Bi2 O8 2.292673 1_555
Bi2 O21 2.516602 1_555
Bi2 O27 2.662295 1_555
Bi2 O0 2.760353 1_555
Bi3 O25 2.179961 1_555
Bi3 O27 2.259459 1_555
Bi3 O16 2.345773 1_555
Bi3 O8 2.416841 1_555
Bi3 O11 2.504973 1_556
Bi3 O1 2.662188 1_556
Bi4 O25 2.159446 1_555
Bi4 O19 2.180273 1_555
Bi4 O24 2.292673 1_565
Bi4 O16 2.516602 1_555
Bi4 O14 2.662295 1_565
Bi4 O5 2.760353 1_566
Bi5 O10 2.179961 1_555
Bi5 O14 2.259459 1_555
Bi5 O21 2.345773 1_555
Bi5 O24 2.416841 1_555
Bi5 O12 2.504973 1_555
Bi5 O9 2.662188 1_555
Bi6 O22 2.179961 1_555
Bi6 O13 2.259459 1_555
Bi6 O15 2.345773 1_555
Bi6 O20 2.416841 1_555
Bi6 O3 2.504973 1_555
Bi6 O9 2.662188 1_565
Bi7 O4 2.159446 1_555
Bi7 O7 2.180273 1_555
Bi7 O20 2.292673 1_545
Bi7 O17 2.516602 1_555
Bi7 O13 2.662295 1_545
Bi7 O5 2.760353 1_555
B0 O8 1.463074 1_455
B0 O1 1.476126 1_556
B0 O23 1.496901 1_555
B0 O27 1.515030 1_555
B1 O12 1.352330 1_455
B1 O21 1.354205 1_555
B1 O0 1.415018 1_455
B2 O20 1.463074 1_455
B2 O9 1.476126 1_565
B2 O7 1.496901 1_565
B2 O13 1.515030 1_555
B3 O11 1.352330 1_455
B3 O16 1.354205 1_554
B3 O5 1.415018 1_465
B4 O24 1.463074 1_455
B4 O9 1.476126 1_555
B4 O19 1.496901 1_545
B4 O14 1.515030 1_555
B5 O2 1.352330 1_455
B5 O17 1.354205 1_556
B5 O5 1.415018 1_456
B6 O3 1.352330 1_455
B6 O15 1.354205 1_555
B6 O0 1.415018 1_455
B7 O6 1.463074 1_455
B7 O1 1.476126 1_555
B7 O18 1.496901 1_555
B7 O26 1.515030 1_555
O2 Zn2 1.961609 1_655
O3 Zn3 1.961609 1_655
O4 Zn1 1.930921 1_655
O7 Zn1 1.935422 1_555
O10 Zn2 1.930921 1_655
O11 Zn0 1.961609 1_655
O12 Zn1 1.961609 1_655
O13 Zn0 1.942729 1_555
O14 Zn2 1.942729 1_555
O18 Zn0 1.935422 1_555
O19 Zn3 1.935422 1_555
O22 Zn0 1.930921 1_655
O23 Zn2 1.935422 1_555
O25 Zn3 1.930921 1_655
O26 Zn1 1.942729 1_555
O27 Zn3 1.942729 1_555
