# generated using pymatgen
data_Nd2Fe14B
_symmetry_space_group_name_H-M   'P 1'
_cell_length_a   8.77600400
_cell_length_b   8.77600400
_cell_length_c   12.11943200
_cell_angle_alpha   90.00000000
_cell_angle_beta   90.00000000
_cell_angle_gamma   90.00000000
_symmetry_Int_Tables_number   1
_chemical_formula_structural   Nd2Fe14B
_chemical_formula_sum   'Nd8 Fe56 B4'
_cell_volume   933.41739768
_cell_formula_units_Z   4
loop_
 _symmetry_equiv_pos_site_id
 _symmetry_equiv_pos_as_xyz
  1  'x, y, z'
loop_
 _atom_site_type_symbol
 _atom_site_label
 _atom_site_symmetry_multiplicity
 _atom_site_fract_x
 _atom_site_fract_y
 _atom_site_fract_z
 _atom_site_occupancy
  Nd  Nd0  1  0.85727500  0.14272500  0.00000000  1
  Nd  Nd1  1  0.35727500  0.35727500  0.50000000  1
  Nd  Nd2  1  0.64272500  0.64272500  0.50000000  1
  Nd  Nd3  1  0.14272500  0.85727500  0.00000000  1
  Nd  Nd4  1  0.73157500  0.73157500  0.00000000  1
  Nd  Nd5  1  0.76842500  0.23157500  0.50000000  1
  Nd  Nd6  1  0.23157500  0.76842500  0.50000000  1
  Nd  Nd7  1  0.26842500  0.26842500  0.00000000  1
  Fe  Fe0  1  0.56734500  0.22482500  0.12730000  1
  Fe  Fe1  1  0.43265500  0.77517500  0.12730000  1
  Fe  Fe2  1  0.22482500  0.56734500  0.87270000  1
  Fe  Fe3  1  0.72482500  0.93265500  0.62730000  1
  Fe  Fe4  1  0.27517500  0.06734500  0.62730000  1
  Fe  Fe5  1  0.93265500  0.72482500  0.37270000  1
  Fe  Fe6  1  0.06734500  0.27517500  0.37270000  1
  Fe  Fe7  1  0.77517500  0.43265500  0.87270000  1
  Fe  Fe8  1  0.43265500  0.77517500  0.87270000  1
  Fe  Fe9  1  0.56734500  0.22482500  0.87270000  1
  Fe  Fe10  1  0.77517500  0.43265500  0.12730000  1
  Fe  Fe11  1  0.27517500  0.06734500  0.37270000  1
  Fe  Fe12  1  0.72482500  0.93265500  0.37270000  1
  Fe  Fe13  1  0.06734500  0.27517500  0.62730000  1
  Fe  Fe14  1  0.93265500  0.72482500  0.62730000  1
  Fe  Fe15  1  0.22482500  0.56734500  0.12730000  1
  Fe  Fe16  1  0.36021700  0.03678500  0.17630600  1
  Fe  Fe17  1  0.63978300  0.96321500  0.17630600  1
  Fe  Fe18  1  0.03678500  0.36021700  0.82369400  1
  Fe  Fe19  1  0.53678500  0.13978300  0.67630600  1
  Fe  Fe20  1  0.46321500  0.86021700  0.67630600  1
  Fe  Fe21  1  0.13978300  0.53678500  0.32369400  1
  Fe  Fe22  1  0.86021700  0.46321500  0.32369400  1
  Fe  Fe23  1  0.96321500  0.63978300  0.82369400  1
  Fe  Fe24  1  0.63978300  0.96321500  0.82369400  1
  Fe  Fe25  1  0.36021700  0.03678500  0.82369400  1
  Fe  Fe26  1  0.96321500  0.63978300  0.17630600  1
  Fe  Fe27  1  0.46321500  0.86021700  0.32369400  1
  Fe  Fe28  1  0.53678500  0.13978300  0.32369400  1
  Fe  Fe29  1  0.86021700  0.46321500  0.67630600  1
  Fe  Fe30  1  0.13978300  0.53678500  0.67630600  1
  Fe  Fe31  1  0.03678500  0.36021700  0.17630600  1
  Fe  Fe32  1  0.90205600  0.90205600  0.79537900  1
  Fe  Fe33  1  0.09794400  0.09794400  0.79537900  1
  Fe  Fe34  1  0.90205600  0.90205600  0.20462100  1
  Fe  Fe35  1  0.40205600  0.59794400  0.29537900  1
  Fe  Fe36  1  0.59794400  0.40205600  0.29537900  1
  Fe  Fe37  1  0.59794400  0.40205600  0.70462100  1
  Fe  Fe38  1  0.40205600  0.59794400  0.70462100  1
  Fe  Fe39  1  0.09794400  0.09794400  0.20462100  1
  Fe  Fe40  1  0.68218100  0.68218100  0.75432000  1
  Fe  Fe41  1  0.31781900  0.31781900  0.75432000  1
  Fe  Fe42  1  0.68218100  0.68218100  0.24568000  1
  Fe  Fe43  1  0.18218100  0.81781900  0.25432000  1
  Fe  Fe44  1  0.81781900  0.18218100  0.25432000  1
  Fe  Fe45  1  0.81781900  0.18218100  0.74568000  1
  Fe  Fe46  1  0.18218100  0.81781900  0.74568000  1
  Fe  Fe47  1  0.31781900  0.31781900  0.24568000  1
  Fe  Fe48  1  0.00000000  0.00000000  0.61507900  1
  Fe  Fe49  1  0.50000000  0.50000000  0.11507900  1
  Fe  Fe50  1  0.50000000  0.50000000  0.88492100  1
  Fe  Fe51  1  0.00000000  0.00000000  0.38492100  1
  Fe  Fe52  1  0.50000000  0.00000000  0.00000000  1
  Fe  Fe53  1  0.50000000  0.00000000  0.50000000  1
  Fe  Fe54  1  0.00000000  0.50000000  0.50000000  1
  Fe  Fe55  1  0.00000000  0.50000000  0.00000000  1
  B  B0  1  0.62318100  0.37681900  0.00000000  1
  B  B1  1  0.12318100  0.12318100  0.50000000  1
  B  B2  1  0.87681900  0.87681900  0.50000000  1
  B  B3  1  0.37681900  0.62318100  0.00000000  1
loop_
_geom_bond_atom_site_label_1
_geom_bond_atom_site_label_2
_geom_bond_distance
_geom_bond_site_symmetry_2
Fe0 Fe17 2.455197 1_545
Fe0 Fe28 2.508826 1_555
Fe0 Fe16 2.525921 1_555
Fe0 Fe52 2.573428 1_555
Fe0 Fe36 2.576971 1_555
Fe0 Fe44 2.709567 1_555
Fe0 Fe47 2.742227 1_555
Fe0 Nd0 3.061615 1_555
Fe0 Nd7 3.067324 1_555
Fe1 Fe16 2.455197 1_565
Fe1 Fe27 2.508826 1_555
Fe1 Fe17 2.525921 1_555
Fe1 Fe52 2.573428 1_565
Fe1 Fe35 2.576971 1_555
Fe1 Fe43 2.709567 1_555
Fe1 Fe42 2.742227 1_555
Fe1 Nd3 3.061615 1_555
Fe1 Nd4 3.067324 1_555
Fe2 Fe23 2.455197 1_455
Fe2 Fe30 2.508826 1_555
Fe2 Fe55 2.573428 1_556
Fe2 Fe38 2.576971 1_555
Fe2 Fe46 2.709567 1_555
Fe2 Fe41 2.742227 1_555
Fe2 Nd3 3.061615 1_556
Fe2 Nd7 3.067324 1_556
Fe3 Fe53 2.573428 1_565
Fe3 Fe32 2.576971 1_555
Fe3 Fe40 2.709567 1_555
Fe3 Fe45 2.742227 1_565
Fe3 Nd2 3.061615 1_555
Fe3 Nd5 3.067324 1_565
Fe4 Fe53 2.573428 1_555
Fe4 Fe41 2.709567 1_555
Fe4 Fe46 2.742227 1_545
Fe4 Nd1 3.061615 1_555
Fe4 Nd6 3.067324 1_545
Fe5 Fe54 2.573428 1_655
Fe5 Nd2 3.061615 1_555
Fe5 Nd6 3.067324 1_655
Fe6 Nd1 3.061615 1_555
Fe6 Nd5 3.067324 1_455
Fe7 Nd0 3.061615 1_556
Fe7 Nd4 3.067324 1_556
Fe8 Nd3 3.061615 1_556
Fe8 Nd4 3.067324 1_556
Fe9 Nd0 3.061615 1_556
Fe9 Nd7 3.067324 1_556
Fe10 Fe31 2.455197 1_655
Fe10 Fe22 2.508826 1_555
Fe10 Fe26 2.525921 1_555
Fe10 Fe55 2.573428 1_655
Fe10 Fe36 2.576971 1_555
Fe10 Fe44 2.709567 1_555
Fe10 Fe42 2.742227 1_555
Fe10 Nd0 3.061615 1_555
Fe10 Nd4 3.067324 1_555
Fe11 Fe28 2.455197 1_555
Fe11 Fe16 2.508826 1_555
Fe11 Fe27 2.525921 1_545
Fe11 Fe53 2.573428 1_555
Fe11 Fe39 2.576971 1_555
Fe11 Fe47 2.709567 1_555
Fe11 Fe43 2.742227 1_545
Fe11 Nd1 3.061615 1_555
Fe11 Nd6 3.067324 1_545
Fe12 Fe27 2.455197 1_555
Fe12 Fe17 2.508826 1_555
Fe12 Fe28 2.525921 1_565
Fe12 Fe53 2.573428 1_565
Fe12 Fe34 2.576971 1_555
Fe12 Fe42 2.709567 1_555
Fe12 Fe44 2.742227 1_565
Fe12 Nd2 3.061615 1_555
Fe12 Nd5 3.067324 1_565
Fe13 Fe30 2.455197 1_555
Fe13 Fe18 2.508826 1_555
Fe13 Fe29 2.525921 1_455
Fe13 Fe54 2.573428 1_555
Fe13 Fe33 2.576971 1_555
Fe13 Fe41 2.709567 1_555
Fe13 Fe45 2.742227 1_455
Fe13 Nd1 3.061615 1_555
Fe13 Nd5 3.067324 1_455
Fe14 Fe29 2.455197 1_555
Fe14 Fe23 2.508826 1_555
Fe14 Fe30 2.525921 1_655
Fe14 Fe54 2.573428 1_655
Fe14 Fe32 2.576971 1_555
Fe14 Fe40 2.709567 1_555
Fe14 Fe46 2.742227 1_655
Fe14 Nd2 3.061615 1_555
Fe14 Nd6 3.067324 1_655
Fe15 Fe26 2.455197 1_455
Fe15 Fe21 2.508826 1_555
Fe15 Fe31 2.525921 1_555
Fe15 Fe55 2.573428 1_555
Fe15 Fe35 2.576971 1_555
Fe15 Fe43 2.709567 1_555
Fe15 Fe47 2.742227 1_555
Fe15 Nd3 3.061615 1_555
Fe15 Nd7 3.067324 1_555
Fe16 Fe39 2.388243 1_555
Fe16 Fe52 2.484896 1_555
Fe16 Fe28 2.531584 1_555
Fe16 Fe27 2.531584 1_545
Fe16 Fe17 2.537004 1_545
Fe16 Fe47 2.632158 1_555
Fe16 Fe43 2.651019 1_545
Fe16 Nd7 3.057306 1_555
Fe16 Nd3 3.269650 1_545
Fe17 Fe34 2.388243 1_555
Fe17 Fe52 2.484896 1_565
Fe17 Fe27 2.531584 1_555
Fe17 Fe28 2.531584 1_565
Fe17 Fe42 2.632158 1_555
Fe17 Fe44 2.651019 1_565
Fe17 Nd4 3.057306 1_555
Fe17 Nd0 3.269650 1_565
Fe18 Fe33 2.388243 1_555
Fe18 Fe7 2.455197 1_455
Fe18 Fe55 2.484896 1_556
Fe18 Fe2 2.525921 1_555
Fe18 Fe30 2.531584 1_555
Fe18 Fe29 2.531584 1_455
Fe18 Fe23 2.537004 1_455
Fe18 Fe41 2.632158 1_555
Fe18 Fe45 2.651019 1_455
Fe18 Nd7 3.057306 1_556
Fe18 Nd0 3.269650 1_456
Fe19 Fe37 2.388243 1_555
Fe19 Fe4 2.455197 1_555
Fe19 Fe53 2.484896 1_555
Fe19 Fe9 2.508826 1_555
Fe19 Fe3 2.525921 1_545
Fe19 Fe25 2.531584 1_555
Fe19 Fe24 2.531584 1_545
Fe19 Fe20 2.537004 1_545
Fe19 Fe45 2.632158 1_555
Fe19 Fe41 2.651019 1_555
Fe19 Nd5 3.057306 1_555
Fe19 Nd1 3.269650 1_555
Fe20 Fe38 2.388243 1_555
Fe20 Fe3 2.455197 1_555
Fe20 Fe53 2.484896 1_565
Fe20 Fe8 2.508826 1_555
Fe20 Fe4 2.525921 1_565
Fe20 Fe24 2.531584 1_555
Fe20 Fe25 2.531584 1_565
Fe20 Fe46 2.632158 1_555
Fe20 Fe40 2.651019 1_555
Fe20 Nd6 3.057306 1_555
Fe20 Nd2 3.269650 1_555
Fe21 Fe35 2.388243 1_555
Fe21 Fe6 2.455197 1_555
Fe21 Fe54 2.484896 1_555
Fe21 Fe5 2.525921 1_455
Fe21 Fe31 2.531584 1_555
Fe21 Fe26 2.531584 1_455
Fe21 Fe22 2.537004 1_455
Fe21 Fe43 2.632158 1_555
Fe21 Fe47 2.651019 1_555
Fe21 Nd6 3.057306 1_555
Fe21 Nd1 3.269650 1_555
Fe22 Fe36 2.388243 1_555
Fe22 Fe5 2.455197 1_555
Fe22 Fe54 2.484896 1_655
Fe22 Fe6 2.525921 1_655
Fe22 Fe26 2.531584 1_555
Fe22 Fe31 2.531584 1_655
Fe22 Fe44 2.632158 1_555
Fe22 Fe42 2.651019 1_555
Fe22 Nd5 3.057306 1_555
Fe22 Nd2 3.269650 1_555
Fe23 Fe32 2.388243 1_555
Fe23 Fe55 2.484896 1_656
Fe23 Fe7 2.525921 1_555
Fe23 Fe29 2.531584 1_555
Fe23 Fe30 2.531584 1_655
Fe23 Fe40 2.632158 1_555
Fe23 Fe46 2.651019 1_655
Fe23 Nd4 3.057306 1_556
Fe23 Nd3 3.269650 1_656
Fe24 Fe32 2.388243 1_555
Fe24 Fe9 2.455197 1_565
Fe24 Fe52 2.484896 1_566
Fe24 Fe3 2.508826 1_555
Fe24 Fe8 2.525921 1_555
Fe24 Fe25 2.537004 1_565
Fe24 Fe40 2.632158 1_555
Fe24 Fe45 2.651019 1_565
Fe24 Nd4 3.057306 1_556
Fe24 Nd0 3.269650 1_566
Fe25 Fe33 2.388243 1_555
Fe25 Fe8 2.455197 1_545
Fe25 Fe52 2.484896 1_556
Fe25 Fe4 2.508826 1_555
Fe25 Fe9 2.525921 1_555
Fe25 Fe41 2.632158 1_555
Fe25 Fe46 2.651019 1_545
Fe25 Nd7 3.057306 1_556
Fe25 Nd3 3.269650 1_546
Fe26 Fe34 2.388243 1_555
Fe26 Fe55 2.484896 1_655
Fe26 Fe5 2.508826 1_555
Fe26 Fe31 2.537004 1_655
Fe26 Fe42 2.632158 1_555
Fe26 Fe43 2.651019 1_655
Fe26 Nd4 3.057306 1_555
Fe26 Nd3 3.269650 1_655
Fe27 Fe35 2.388243 1_555
Fe27 Fe53 2.484896 1_565
Fe27 Fe28 2.537004 1_565
Fe27 Fe43 2.632158 1_555
Fe27 Fe42 2.651019 1_555
Fe27 Nd6 3.057306 1_555
Fe27 Nd2 3.269650 1_555
Fe28 Fe36 2.388243 1_555
Fe28 Fe53 2.484896 1_555
Fe28 Fe44 2.632158 1_555
Fe28 Fe47 2.651019 1_555
Fe28 Nd5 3.057306 1_555
Fe28 Nd1 3.269650 1_555
Fe29 Fe37 2.388243 1_555
Fe29 Fe54 2.484896 1_655
Fe29 Fe7 2.508826 1_555
Fe29 Fe30 2.537004 1_655
Fe29 Fe45 2.632158 1_555
Fe29 Fe40 2.651019 1_555
Fe29 Nd5 3.057306 1_555
Fe29 Nd2 3.269650 1_555
Fe30 Fe38 2.388243 1_555
Fe30 Fe54 2.484896 1_555
Fe30 Fe46 2.632158 1_555
Fe30 Fe41 2.651019 1_555
Fe30 Nd6 3.057306 1_555
Fe30 Nd1 3.269650 1_555
Fe31 Fe39 2.388243 1_555
Fe31 Fe55 2.484896 1_555
Fe31 Fe6 2.508826 1_555
Fe31 Fe47 2.632158 1_555
Fe31 Fe44 2.651019 1_455
Fe31 Nd7 3.057306 1_555
Fe31 Nd0 3.269650 1_455
Fe32 Fe33 2.431194 1_665
Fe32 Fe48 2.500497 1_665
Fe32 Fe46 2.636841 1_655
Fe32 Fe45 2.636841 1_565
Fe32 Fe40 2.773899 1_555
Fe32 Nd4 3.259868 1_556
Fe32 Nd3 3.281055 1_656
Fe32 Nd0 3.281055 1_566
Fe33 Fe48 2.500497 1_555
Fe33 Fe4 2.576971 1_555
Fe33 Fe45 2.636841 1_455
Fe33 Fe46 2.636841 1_545
Fe33 Fe41 2.773899 1_555
Fe33 Nd7 3.259868 1_556
Fe33 Nd3 3.281055 1_546
Fe33 Nd0 3.281055 1_456
Fe34 Fe39 2.431194 1_665
Fe34 Fe51 2.500497 1_665
Fe34 Fe5 2.576971 1_555
Fe34 Fe44 2.636841 1_565
Fe34 Fe43 2.636841 1_655
Fe34 Fe42 2.773899 1_555
Fe34 Nd4 3.259868 1_555
Fe34 Nd0 3.281055 1_565
Fe34 Nd3 3.281055 1_655
Fe35 Fe36 2.431194 1_555
Fe35 Fe49 2.500497 1_555
Fe35 Fe42 2.636841 1_555
Fe35 Fe47 2.636841 1_555
Fe35 Fe43 2.773899 1_555
Fe35 Nd6 3.259868 1_555
Fe35 Nd1 3.281055 1_555
Fe35 Nd2 3.281055 1_555
Fe36 Fe49 2.500497 1_555
Fe36 Fe42 2.636841 1_555
Fe36 Fe47 2.636841 1_555
Fe36 Fe44 2.773899 1_555
Fe36 Nd5 3.259868 1_555
Fe36 Nd1 3.281055 1_555
Fe36 Nd2 3.281055 1_555
Fe37 Fe38 2.431194 1_555
Fe37 Fe50 2.500497 1_555
Fe37 Fe9 2.576971 1_555
Fe37 Fe7 2.576971 1_555
Fe37 Fe40 2.636841 1_555
Fe37 Fe41 2.636841 1_555
Fe37 Fe45 2.773899 1_555
Fe37 Nd5 3.259868 1_555
Fe37 Nd1 3.281055 1_555
Fe37 Nd2 3.281055 1_555
Fe38 Fe50 2.500497 1_555
Fe38 Fe8 2.576971 1_555
Fe38 Fe40 2.636841 1_555
Fe38 Fe41 2.636841 1_555
Fe38 Fe46 2.773899 1_555
Fe38 Nd6 3.259868 1_555
Fe38 Nd1 3.281055 1_555
Fe38 Nd2 3.281055 1_555
Fe39 Fe51 2.500497 1_555
Fe39 Fe6 2.576971 1_555
Fe39 Fe44 2.636841 1_455
Fe39 Fe43 2.636841 1_545
Fe39 Fe47 2.773899 1_555
Fe39 Nd7 3.259868 1_555
Fe39 Nd3 3.281055 1_545
Fe39 Nd0 3.281055 1_455
Fe40 Fe7 2.742227 1_555
Fe40 Fe8 2.742227 1_555
Fe40 Fe50 2.760026 1_555
Fe40 Nd4 3.039956 1_556
Fe40 Nd2 3.120872 1_555
Fe41 Fe9 2.742227 1_555
Fe41 Fe50 2.760026 1_555
Fe41 Nd7 3.039956 1_556
Fe41 Nd1 3.120872 1_555
Fe42 Fe5 2.709567 1_555
Fe42 Fe49 2.760026 1_555
Fe42 Nd4 3.039956 1_555
Fe42 Nd2 3.120872 1_555
Fe43 Fe5 2.742227 1_455
Fe43 Fe51 2.760026 1_565
Fe43 Nd6 3.039956 1_555
Fe43 Nd3 3.120872 1_555
Fe44 Fe6 2.742227 1_655
Fe44 Fe51 2.760026 1_655
Fe44 Nd5 3.039956 1_555
Fe44 Nd0 3.120872 1_555
Fe45 Fe7 2.709567 1_555
Fe45 Fe9 2.709567 1_555
Fe45 Fe48 2.760026 1_655
Fe45 Nd5 3.039956 1_555
Fe45 Nd0 3.120872 1_556
Fe46 Fe8 2.709567 1_555
Fe46 Fe48 2.760026 1_565
Fe46 Nd6 3.039956 1_555
Fe46 Nd3 3.120872 1_556
Fe47 Fe6 2.709567 1_555
Fe47 Fe49 2.760026 1_555
Fe47 Nd7 3.039956 1_555
Fe47 Nd1 3.120872 1_555
Fe48 Nd5 3.194633 1_455
Fe48 Nd6 3.194633 1_545
Fe49 Nd4 3.194633 1_555
Fe49 Nd7 3.194633 1_555
Fe50 Nd4 3.194633 1_556
Fe50 Nd7 3.194633 1_556
Fe51 Nd5 3.194633 1_455
Fe51 Nd6 3.194633 1_545
Fe52 Fe9 2.573428 1_554
Fe52 Fe8 2.573428 1_544
Fe52 Nd7 3.111201 1_555
Fe52 Nd4 3.111201 1_545
Fe52 Nd3 3.376377 1_545
Fe52 Nd0 3.376377 1_555
Fe53 Nd5 3.111201 1_555
Fe53 Nd6 3.111201 1_545
Fe53 Nd1 3.376377 1_555
Fe53 Nd2 3.376377 1_545
Fe54 Fe6 2.573428 1_555
Fe54 Nd6 3.111201 1_555
Fe54 Nd5 3.111201 1_455
Fe54 Nd1 3.376377 1_555
Fe54 Nd2 3.376377 1_455
Fe55 Fe7 2.573428 1_454
Fe55 Nd7 3.111201 1_555
Fe55 Nd4 3.111201 1_455
Fe55 Nd0 3.376377 1_455
Fe55 Nd3 3.376377 1_555
B0 Fe49 2.069408 1_555
B0 Fe50 2.069408 1_554
B0 Fe9 2.097534 1_554
B0 Fe0 2.097534 1_555
B0 Fe7 2.097534 1_554
B0 Fe10 2.097534 1_555
B0 Nd0 2.905374 1_555
B0 Nd7 3.255425 1_555
B0 Nd4 3.255425 1_555
B1 Fe48 2.069408 1_555
B1 Fe51 2.069408 1_555
B1 Fe6 2.097534 1_555
B1 Fe11 2.097534 1_555
B1 Fe4 2.097534 1_555
B1 Fe13 2.097534 1_555
B1 Nd1 2.905374 1_555
B1 Nd6 3.255425 1_545
B1 Nd5 3.255425 1_455
B2 Fe48 2.069408 1_665
B2 Fe51 2.069408 1_665
B2 Fe12 2.097534 1_555
B2 Fe5 2.097534 1_555
B2 Fe3 2.097534 1_555
B2 Fe14 2.097534 1_555
B2 Nd2 2.905374 1_555
B2 Nd5 3.255425 1_565
B2 Nd6 3.255425 1_655
B3 Fe49 2.069408 1_555
B3 Fe50 2.069408 1_554
B3 Fe2 2.097534 1_554
B3 Fe15 2.097534 1_555
B3 Fe8 2.097534 1_554
B3 Fe1 2.097534 1_555
B3 Nd3 2.905374 1_555
B3 Nd7 3.255425 1_555
B3 Nd4 3.255425 1_555
