# generated using pymatgen
data_Ba38Na58Li26N
_symmetry_space_group_name_H-M   'P 1'
_cell_length_a   19.30775126
_cell_length_b   19.30775130
_cell_length_c   19.30775102
_cell_angle_alpha   59.99999881
_cell_angle_beta   59.99999874
_cell_angle_gamma   60.00000022
_symmetry_Int_Tables_number   1
_chemical_formula_structural   Ba38Na58Li26N
_chemical_formula_sum   'Ba38 Na58 Li26 N1'
_cell_volume   5089.55809615
_cell_formula_units_Z   1
loop_
 _symmetry_equiv_pos_site_id
 _symmetry_equiv_pos_as_xyz
  1  'x, y, z'
loop_
 _atom_site_type_symbol
 _atom_site_label
 _atom_site_symmetry_multiplicity
 _atom_site_fract_x
 _atom_site_fract_y
 _atom_site_fract_z
 _atom_site_occupancy
  Ba  Ba0  1  0.53272230  0.15575923  0.15575923  1
  Ba  Ba1  1  0.37951336  0.62665920  0.99691372  1
  Ba  Ba2  1  0.90567951  0.28296147  0.90567951  1
  Ba  Ba3  1  0.77357101  0.54456538  0.54456538  1
  Ba  Ba4  1  0.54456538  0.13729824  0.54456538  1
  Ba  Ba5  1  0.99691372  0.99691372  0.37951336  1
  Ba  Ba6  1  0.99691372  0.99691372  0.62665920  1
  Ba  Ba7  1  0.37951336  0.99691372  0.62665920  1
  Ba  Ba8  1  0.90567951  0.90567951  0.90567951  1
  Ba  Ba9  1  0.54456538  0.77357101  0.13729824  1
  Ba  Ba10  1  0.99691372  0.62665920  0.37951336  1
  Ba  Ba11  1  0.77357101  0.13729824  0.54456538  1
  Ba  Ba12  1  0.40691197  0.40691197  0.77926410  1
  Ba  Ba13  1  0.25000000  0.25000000  0.25000000  1
  Ba  Ba14  1  0.62665920  0.99691372  0.99691372  1
  Ba  Ba15  1  0.54456538  0.54456538  0.77357101  1
  Ba  Ba16  1  0.15575923  0.53272230  0.15575923  1
  Ba  Ba17  1  0.90567951  0.90567951  0.28296147  1
  Ba  Ba18  1  0.40691197  0.40691197  0.40691197  1
  Ba  Ba19  1  0.15575923  0.15575923  0.53272230  1
  Ba  Ba20  1  0.54456538  0.54456538  0.13729824  1
  Ba  Ba21  1  0.28296147  0.90567951  0.90567951  1
  Ba  Ba22  1  0.40691197  0.77926410  0.40691197  1
  Ba  Ba23  1  0.13729824  0.54456538  0.77357101  1
  Ba  Ba24  1  0.54456538  0.13729824  0.77357101  1
  Ba  Ba25  1  0.99691372  0.62665920  0.99691372  1
  Ba  Ba26  1  0.77357101  0.54456538  0.13729824  1
  Ba  Ba27  1  0.99691372  0.37951336  0.99691372  1
  Ba  Ba28  1  0.15575923  0.15575923  0.15575923  1
  Ba  Ba29  1  0.77926410  0.40691197  0.40691197  1
  Ba  Ba30  1  0.62665920  0.37951336  0.99691372  1
  Ba  Ba31  1  0.62665920  0.99691372  0.37951336  1
  Ba  Ba32  1  0.00000000  0.00000000  0.00000000  1
  Ba  Ba33  1  0.99691372  0.37951336  0.62665920  1
  Ba  Ba34  1  0.54456538  0.77357101  0.54456538  1
  Ba  Ba35  1  0.37951336  0.99691372  0.99691372  1
  Ba  Ba36  1  0.13729824  0.54456538  0.54456538  1
  Ba  Ba37  1  0.13729824  0.77357101  0.54456538  1
  Na  Na0  1  0.13925308  0.95503653  0.76645731  1
  Na  Na1  1  0.19860126  0.01238816  0.39450529  1
  Na  Na2  1  0.89307306  0.58114635  0.26289030  1
  Na  Na3  1  0.54984305  0.54984305  0.54984305  1
  Na  Na4  1  0.95503653  0.13925308  0.13925308  1
  Na  Na5  1  0.13199442  0.76764591  0.76764591  1
  Na  Na6  1  0.76764591  0.13199442  0.76764591  1
  Na  Na7  1  0.26289030  0.89307306  0.26289030  1
  Na  Na8  1  0.39450529  0.01238816  0.39450529  1
  Na  Na9  1  0.26289030  0.26289030  0.89307306  1
  Na  Na10  1  0.19860126  0.39450529  0.01238816  1
  Na  Na11  1  0.13199442  0.76764591  0.33271376  1
  Na  Na12  1  0.39450529  0.39450529  0.19860126  1
  Na  Na13  1  0.76764591  0.13199442  0.33271376  1
  Na  Na14  1  0.58114635  0.26289030  0.26289030  1
  Na  Na15  1  0.65968567  0.34031433  0.34031433  1
  Na  Na16  1  0.34031433  0.65968567  0.34031433  1
  Na  Na17  1  0.26289030  0.26289030  0.58114635  1
  Na  Na18  1  0.19860126  0.39450529  0.39450529  1
  Na  Na19  1  0.95503653  0.13925308  0.76645731  1
  Na  Na20  1  0.39450529  0.39450529  0.01238816  1
  Na  Na21  1  0.39450529  0.19860126  0.01238816  1
  Na  Na22  1  0.26289030  0.58114635  0.26289030  1
  Na  Na23  1  0.34031433  0.34031433  0.65968567  1
  Na  Na24  1  0.35047086  0.54984305  0.54984305  1
  Na  Na25  1  0.33271376  0.76764591  0.76764591  1
  Na  Na26  1  0.13925308  0.13925308  0.95503653  1
  Na  Na27  1  0.76764591  0.33271376  0.13199442  1
  Na  Na28  1  0.65968567  0.34031433  0.65968567  1
  Na  Na29  1  0.76764591  0.76764591  0.13199442  1
  Na  Na30  1  0.58114635  0.26289030  0.89307306  1
  Na  Na31  1  0.76764591  0.76764591  0.33271376  1
  Na  Na32  1  0.33271376  0.76764591  0.13199442  1
  Na  Na33  1  0.01238816  0.39450529  0.19860126  1
  Na  Na34  1  0.39450529  0.19860126  0.39450529  1
  Na  Na35  1  0.76645731  0.13925308  0.95503653  1
  Na  Na36  1  0.76645731  0.95503653  0.13925308  1
  Na  Na37  1  0.26289030  0.58114635  0.89307306  1
  Na  Na38  1  0.54984305  0.54984305  0.35047086  1
  Na  Na39  1  0.95503653  0.76645731  0.13925308  1
  Na  Na40  1  0.76764591  0.33271376  0.76764591  1
  Na  Na41  1  0.13925308  0.76645731  0.13925308  1
  Na  Na42  1  0.34031433  0.65968567  0.65968567  1
  Na  Na43  1  0.26289030  0.89307306  0.58114635  1
  Na  Na44  1  0.01238816  0.19860126  0.39450529  1
  Na  Na45  1  0.13925308  0.76645731  0.95503653  1
  Na  Na46  1  0.13199442  0.33271376  0.76764591  1
  Na  Na47  1  0.65968567  0.65968567  0.34031433  1
  Na  Na48  1  0.58114635  0.89307306  0.26289030  1
  Na  Na49  1  0.54984305  0.35047086  0.54984305  1
  Na  Na50  1  0.13925308  0.13925308  0.76645731  1
  Na  Na51  1  0.33271376  0.13199442  0.76764591  1
  Na  Na52  1  0.89307306  0.26289030  0.26289030  1
  Na  Na53  1  0.39450529  0.01238816  0.19860126  1
  Na  Na54  1  0.89307306  0.26289030  0.58114635  1
  Na  Na55  1  0.01238816  0.39450529  0.39450529  1
  Na  Na56  1  0.76645731  0.13925308  0.13925308  1
  Na  Na57  1  0.13925308  0.95503653  0.13925308  1
  Li  Li0  1  0.63092599  0.78969134  0.78969134  1
  Li  Li1  1  0.77598726  0.95478225  0.77598726  1
  Li  Li2  1  0.78969134  0.78969134  0.63092599  1
  Li  Li3  1  0.69207156  0.92378531  0.69207156  1
  Li  Li4  1  0.77598726  0.77598726  0.95478225  1
  Li  Li5  1  0.61061850  0.61061850  0.88938150  1
  Li  Li6  1  0.95478225  0.49324324  0.77598726  1
  Li  Li7  1  0.95478225  0.77598726  0.49324324  1
  Li  Li8  1  0.77598726  0.95478225  0.49324324  1
  Li  Li9  1  0.88938150  0.61061850  0.88938150  1
  Li  Li10  1  0.88938150  0.61061850  0.61061850  1
  Li  Li11  1  0.77598726  0.49324324  0.77598726  1
  Li  Li12  1  0.77598726  0.49324324  0.95478225  1
  Li  Li13  1  0.69207156  0.69207156  0.69207156  1
  Li  Li14  1  0.78969134  0.63092599  0.78969134  1
  Li  Li15  1  0.61061850  0.88938150  0.61061850  1
  Li  Li16  1  0.69207156  0.69207156  0.92378531  1
  Li  Li17  1  0.95478225  0.77598726  0.77598726  1
  Li  Li18  1  0.49324324  0.77598726  0.77598726  1
  Li  Li19  1  0.78969134  0.78969134  0.78969134  1
  Li  Li20  1  0.49324324  0.77598726  0.95478225  1
  Li  Li21  1  0.49324324  0.95478225  0.77598726  1
  Li  Li22  1  0.92378531  0.69207156  0.69207156  1
  Li  Li23  1  0.77598726  0.77598726  0.49324324  1
  Li  Li24  1  0.88938150  0.88938150  0.61061850  1
  Li  Li25  1  0.61061850  0.88938150  0.88938150  1
  N  N0  1  0.75000000  0.75000000  0.75000000  1
loop_
_geom_bond_atom_site_label_1
_geom_bond_atom_site_label_2
_geom_bond_distance
_geom_bond_site_symmetry_2
Ba0 Na30 4.192562 1_554
Ba0 Na48 4.192562 1_545
Ba0 Na14 4.192563 1_555
Ba0 Na35 4.218347 1_554
Ba0 Na36 4.218347 1_545
Ba0 Na56 4.218347 1_555
Ba0 Na8 4.284718 1_555
Ba0 Na53 4.284718 1_555
Ba0 Na21 4.284718 1_555
Ba0 Na20 4.284719 1_555
Ba0 Na34 4.284719 1_555
Ba0 Na12 4.284719 1_555
Ba0 Ba13 4.457036 1_555
Ba0 Ba14 4.514750 1_544
Ba0 Ba30 4.514750 1_554
Ba0 Ba31 4.514750 1_545
Ba1 Li5 3.783365 1_555
Ba1 Li18 3.999476 1_555
Ba1 Li20 3.999477 1_555
Ba1 Na25 4.160764 1_555
Ba1 Na32 4.160764 1_556
Ba1 Na12 4.208858 1_556
Ba1 Na20 4.208858 1_556
Ba1 Na37 4.256446 1_555
Ba1 Na22 4.256446 1_556
Ba1 Na41 4.301833 1_556
Ba1 Na45 4.301833 1_555
Ba1 Ba15 4.393762 1_555
Ba1 Ba20 4.393762 1_556
Ba1 Ba21 4.399074 1_555
Ba1 Ba16 4.514750 1_556
Ba1 Ba30 4.771830 1_555
Ba2 Li11 3.868053 1_555
Ba2 Li6 3.868053 1_555
Ba2 Li12 3.868053 1_555
Ba2 Na27 4.136554 1_556
Ba2 Na46 4.136554 1_655
Ba2 Na40 4.136554 1_555
Ba2 Na56 4.252697 1_556
Ba2 Na4 4.252697 1_556
Ba2 Na50 4.252697 1_655
Ba2 Na35 4.252697 1_555
Ba2 Na19 4.252697 1_555
Ba2 Na26 4.252697 1_655
Ba2 Ba33 4.399074 1_555
Ba2 Ba30 4.399074 1_555
Ba2 Ba27 4.399074 1_555
Ba2 Ba32 4.460806 1_656
Ba3 Li10 3.947498 1_555
Ba3 Li11 4.084581 1_555
Ba3 Li23 4.084581 1_555
Ba3 Na40 4.201583 1_555
Ba3 Na31 4.201583 1_555
Ba3 Na3 4.220245 1_555
Ba3 Li13 4.224518 1_555
Ba3 Ba33 4.393762 1_555
Ba3 Ba34 4.421584 1_555
Ba3 Na55 4.441365 1_655
Ba3 Na28 4.510676 1_555
Ba3 Na47 4.510676 1_555
Ba3 Na2 4.543133 1_555
Ba3 Na54 4.543133 1_555
Ba4 Li15 3.947498 1_545
Ba4 Li21 4.084581 1_545
Ba4 Li8 4.084581 1_545
Ba4 Na51 4.201583 1_555
Ba4 Na13 4.201583 1_555
Ba4 Na49 4.220245 1_555
Ba4 Li3 4.224518 1_545
Ba4 Ba7 4.393762 1_545
Ba4 Na34 4.441365 1_555
Ba4 Na15 4.510676 1_555
Ba4 Na23 4.510676 1_555
Ba4 Na14 4.543133 1_555
Ba4 Na17 4.543133 1_555
Ba5 Li24 3.783365 1_555
Ba5 Li8 3.999476 1_555
Ba5 Li7 3.999476 1_555
Ba5 Na13 4.160764 1_565
Ba5 Na11 4.160764 1_655
Ba5 Na1 4.208858 1_665
Ba5 Na44 4.208858 1_665
Ba5 Na7 4.256446 1_655
Ba5 Na52 4.256446 1_565
Ba5 Na57 4.301832 1_655
Ba5 Na4 4.301832 1_565
Ba5 Ba6 4.771830 1_555
Ba6 Li24 3.783365 1_555
Ba6 Li1 3.999476 1_555
Ba6 Li17 3.999476 1_555
Ba6 Na6 4.160764 1_565
Ba6 Na5 4.160764 1_655
Ba6 Na1 4.208858 1_665
Ba6 Na44 4.208858 1_665
Ba6 Na43 4.256446 1_655
Ba6 Na54 4.256446 1_565
Ba6 Na0 4.301833 1_655
Ba6 Na19 4.301833 1_565
Ba6 Ba8 4.399074 1_555
Ba7 Li15 3.783365 1_555
Ba7 Li18 3.999477 1_555
Ba7 Li21 3.999477 1_555
Ba7 Na25 4.160764 1_555
Ba7 Na51 4.160764 1_565
Ba7 Na34 4.208858 1_565
Ba7 Na8 4.208858 1_565
Ba7 Na43 4.256446 1_555
Ba7 Na17 4.256446 1_565
Ba7 Na0 4.301832 1_555
Ba7 Na50 4.301833 1_565
Ba8 Li4 3.868053 1_555
Ba8 Li1 3.868053 1_555
Ba8 Li17 3.868053 1_555
Ba8 Na29 4.136554 1_556
Ba8 Na5 4.136554 1_655
Ba8 Na6 4.136554 1_565
Ba8 Na36 4.252697 1_556
Ba8 Na39 4.252697 1_556
Ba8 Na0 4.252697 1_655
Ba8 Na19 4.252697 1_565
Ba8 Na45 4.252697 1_655
Ba8 Na35 4.252697 1_565
Ba9 Li25 3.947498 1_554
Ba9 Li4 4.084581 1_554
Ba9 Li20 4.084581 1_554
Ba9 Na29 4.201583 1_555
Ba9 Na32 4.201583 1_555
Ba9 Na38 4.220245 1_555
Ba9 Li16 4.224518 1_554
Ba9 Na53 4.441365 1_565
Ba9 Na47 4.510676 1_555
Ba9 Na16 4.510676 1_555
Ba9 Na7 4.543133 1_555
Ba9 Na48 4.543133 1_555
Ba10 Li10 3.783365 1_555
Ba10 Li23 3.999477 1_555
Ba10 Li7 3.999477 1_555
Ba10 Na11 4.160764 1_655
Ba10 Na31 4.160764 1_555
Ba10 Na55 4.208858 1_655
Ba10 Na18 4.208858 1_655
Ba10 Na2 4.256446 1_555
Ba10 Na22 4.256446 1_655
Ba10 Na41 4.301832 1_655
Ba10 Na39 4.301832 1_555
Ba10 Ba3 4.393762 1_555
Ba10 Ba36 4.393762 1_655
Ba10 Ba17 4.399074 1_555
Ba10 Ba16 4.514750 1_655
Ba10 Ba33 4.771830 1_555
Ba11 Li24 3.947498 1_545
Ba11 Li1 4.084581 1_545
Ba11 Li8 4.084581 1_545
Ba11 Na6 4.201583 1_555
Ba11 Na13 4.201583 1_555
Ba11 Na49 4.220245 1_555
Ba11 Li3 4.224518 1_545
Ba11 Ba6 4.393762 1_545
Ba11 Ba5 4.393762 1_545
Ba11 Ba24 4.421584 1_555
Ba11 Ba4 4.421584 1_555
Ba11 Na44 4.441365 1_655
Ba11 Na28 4.510676 1_555
Ba11 Na15 4.510676 1_555
Ba11 Ba29 4.540830 1_555
Ba11 Na52 4.543133 1_555
Ba11 Na54 4.543133 1_555
Ba12 Na9 3.975582 1_555
Ba12 Na30 3.975582 1_555
Ba12 Na37 3.975582 1_555
Ba12 Na28 4.028432 1_555
Ba12 Na42 4.028432 1_555
Ba12 Na23 4.028433 1_555
Ba12 Na3 4.245032 1_555
Ba12 Na49 4.245032 1_555
Ba12 Na24 4.245032 1_555
Ba12 Na20 4.275000 1_556
Ba12 Na10 4.275000 1_556
Ba12 Na21 4.275000 1_556
Ba12 Ba15 4.540830 1_555
Ba12 Ba23 4.540830 1_555
Ba12 Ba24 4.540830 1_555
Ba13 Na20 4.335972 1_555
Ba13 Na21 4.335972 1_555
Ba13 Na10 4.335972 1_555
Ba13 Na44 4.335972 1_555
Ba13 Na1 4.335972 1_555
Ba13 Na55 4.335972 1_555
Ba13 Na8 4.335972 1_555
Ba13 Na12 4.335972 1_555
Ba13 Na34 4.335972 1_555
Ba13 Na18 4.335972 1_555
Ba13 Na33 4.335972 1_555
Ba13 Na53 4.335972 1_555
Ba13 Ba19 4.457036 1_555
Ba13 Ba16 4.457036 1_555
Ba13 Ba28 4.457036 1_555
Ba14 Li25 3.783365 1_555
Ba14 Li1 3.999476 1_555
Ba14 Li4 3.999476 1_555
Ba14 Na6 4.160764 1_565
Ba14 Na29 4.160764 1_556
Ba14 Na53 4.208858 1_566
Ba14 Na21 4.208858 1_566
Ba14 Na48 4.256446 1_556
Ba14 Na30 4.256446 1_565
Ba14 Na35 4.301833 1_565
Ba14 Na36 4.301833 1_556
Ba14 Ba9 4.393762 1_556
Ba14 Ba24 4.393762 1_565
Ba14 Ba8 4.399074 1_555
Ba14 Ba35 4.771830 1_555
Ba15 Li5 3.947498 1_555
Ba15 Li11 4.084581 1_555
Ba15 Li18 4.084581 1_555
Ba15 Na40 4.201583 1_555
Ba15 Na25 4.201583 1_555
Ba15 Na3 4.220245 1_555
Ba15 Li13 4.224518 1_555
Ba15 Ba30 4.393762 1_555
Ba15 Ba3 4.421584 1_555
Ba15 Ba34 4.421584 1_555
Ba15 Na20 4.441365 1_556
Ba15 Na42 4.510676 1_555
Ba15 Na28 4.510676 1_555
Ba15 Na37 4.543133 1_555
Ba15 Na30 4.543133 1_555
Ba16 Na37 4.192562 1_554
Ba16 Na2 4.192562 1_455
Ba16 Na22 4.192563 1_555
Ba16 Na45 4.218347 1_554
Ba16 Na39 4.218347 1_455
Ba16 Na41 4.218347 1_555
Ba16 Na55 4.284718 1_555
Ba16 Na33 4.284718 1_555
Ba16 Na10 4.284718 1_555
Ba16 Na20 4.284719 1_555
Ba16 Na18 4.284719 1_555
Ba16 Na12 4.284719 1_555
Ba16 Ba25 4.514750 1_454
Ba17 Li23 3.868053 1_555
Ba17 Li8 3.868053 1_555
Ba17 Li7 3.868053 1_555
Ba17 Na31 4.136554 1_555
Ba17 Na11 4.136554 1_655
Ba17 Na13 4.136554 1_565
Ba17 Na57 4.252697 1_655
Ba17 Na4 4.252697 1_565
Ba17 Na41 4.252697 1_655
Ba17 Na56 4.252697 1_565
Ba17 Na36 4.252697 1_555
Ba17 Na39 4.252697 1_555
Ba17 Ba31 4.399074 1_555
Ba17 Ba5 4.399074 1_555
Ba17 Ba32 4.460806 1_665
Ba18 Na17 3.975582 1_555
Ba18 Na14 3.975582 1_555
Ba18 Na22 3.975582 1_555
Ba18 Na23 4.028432 1_555
Ba18 Na15 4.028432 1_555
Ba18 Na16 4.028432 1_555
Ba18 Na38 4.245032 1_555
Ba18 Na49 4.245032 1_555
Ba18 Na24 4.245032 1_555
Ba18 Na12 4.275000 1_555
Ba18 Na18 4.275000 1_555
Ba18 Na34 4.275000 1_555
Ba18 Ba20 4.540830 1_555
Ba18 Ba36 4.540830 1_555
Ba18 Ba4 4.540830 1_555
Ba19 Na54 4.192562 1_455
Ba19 Na43 4.192563 1_545
Ba19 Na17 4.192563 1_555
Ba19 Na19 4.218347 1_455
Ba19 Na0 4.218347 1_545
Ba19 Na50 4.218347 1_555
Ba19 Na44 4.284718 1_555
Ba19 Na1 4.284718 1_555
Ba19 Na8 4.284719 1_555
Ba19 Na55 4.284719 1_555
Ba19 Na34 4.284719 1_555
Ba19 Na18 4.284719 1_555
Ba19 Ba6 4.514750 1_445
Ba19 Ba7 4.514750 1_545
Ba19 Ba33 4.514750 1_455
Ba20 Li5 3.947498 1_554
Ba20 Li12 4.084581 1_554
Ba20 Li20 4.084581 1_554
Ba20 Na27 4.201583 1_555
Ba20 Na32 4.201583 1_555
Ba20 Na38 4.220245 1_555
Ba20 Li16 4.224518 1_554
Ba20 Ba30 4.393762 1_554
Ba20 Ba26 4.421584 1_555
Ba20 Ba9 4.421584 1_555
Ba20 Na12 4.441365 1_555
Ba20 Na16 4.510676 1_555
Ba20 Na15 4.510676 1_555
Ba20 Na22 4.543133 1_555
Ba20 Na14 4.543133 1_555
Ba21 Li18 3.868053 1_555
Ba21 Li21 3.868053 1_555
Ba21 Li20 3.868053 1_555
Ba21 Na32 4.136554 1_556
Ba21 Na51 4.136554 1_565
Ba21 Na25 4.136554 1_555
Ba21 Na41 4.252697 1_556
Ba21 Na57 4.252697 1_556
Ba21 Na45 4.252697 1_555
Ba21 Na50 4.252697 1_565
Ba21 Na0 4.252697 1_555
Ba21 Na26 4.252697 1_565
Ba21 Ba7 4.399074 1_555
Ba21 Ba35 4.399074 1_555
Ba21 Ba32 4.460806 1_566
Ba22 Na48 3.975582 1_555
Ba22 Na43 3.975582 1_555
Ba22 Na7 3.975582 1_555
Ba22 Na42 4.028432 1_555
Ba22 Na47 4.028432 1_555
Ba22 Na16 4.028433 1_555
Ba22 Na24 4.245032 1_555
Ba22 Na3 4.245032 1_555
Ba22 Na38 4.245032 1_555
Ba22 Na53 4.275000 1_565
Ba22 Na8 4.275000 1_565
Ba22 Na1 4.275000 1_565
Ba22 Ba9 4.540830 1_555
Ba22 Ba37 4.540830 1_555
Ba22 Ba34 4.540830 1_555
Ba23 Li9 3.947498 1_455
Ba23 Li6 4.084581 1_455
Ba23 Li17 4.084581 1_455
Ba23 Na5 4.201583 1_555
Ba23 Na46 4.201583 1_555
Ba23 Na24 4.220245 1_555
Ba23 Li22 4.224518 1_455
Ba23 Ba25 4.393762 1_455
Ba23 Ba27 4.393762 1_455
Ba23 Ba37 4.421584 1_555
Ba23 Ba36 4.421584 1_555
Ba23 Na10 4.441365 1_556
Ba23 Na42 4.510676 1_555
Ba23 Na23 4.510676 1_555
Ba23 Na9 4.543133 1_555
Ba23 Na37 4.543133 1_555
Ba24 Li25 3.947498 1_545
Ba24 Li21 4.084581 1_545
Ba24 Li1 4.084581 1_545
Ba24 Na6 4.201583 1_555
Ba24 Na51 4.201583 1_555
Ba24 Na49 4.220245 1_555
Ba24 Li3 4.224518 1_545
Ba24 Ba35 4.393762 1_545
Ba24 Ba4 4.421584 1_555
Ba24 Na21 4.441365 1_556
Ba24 Na28 4.510676 1_555
Ba24 Na23 4.510676 1_555
Ba24 Na9 4.543133 1_555
Ba24 Na30 4.543133 1_555
Ba25 Li9 3.783365 1_555
Ba25 Li17 3.999476 1_555
Ba25 Li4 3.999476 1_555
Ba25 Na5 4.160764 1_655
Ba25 Na29 4.160764 1_556
Ba25 Na33 4.208858 1_656
Ba25 Na10 4.208858 1_656
Ba25 Na2 4.256446 1_556
Ba25 Na37 4.256446 1_655
Ba25 Na45 4.301833 1_655
Ba25 Na39 4.301833 1_556
Ba25 Ba26 4.393762 1_556
Ba25 Ba8 4.399074 1_555
Ba25 Ba27 4.771830 1_555
Ba26 Li9 3.947498 1_554
Ba26 Li4 4.084581 1_554
Ba26 Li12 4.084581 1_554
Ba26 Na29 4.201583 1_555
Ba26 Na27 4.201583 1_555
Ba26 Na38 4.220245 1_555
Ba26 Li16 4.224518 1_554
Ba26 Ba27 4.393762 1_554
Ba26 Ba9 4.421584 1_555
Ba26 Na33 4.441365 1_655
Ba26 Na47 4.510676 1_555
Ba26 Na15 4.510676 1_555
Ba26 Ba29 4.540830 1_555
Ba26 Na52 4.543133 1_555
Ba26 Na2 4.543133 1_555
Ba27 Li9 3.783365 1_555
Ba27 Li6 3.999476 1_555
Ba27 Li12 3.999476 1_555
Ba27 Na46 4.160764 1_655
Ba27 Na27 4.160764 1_556
Ba27 Na33 4.208858 1_656
Ba27 Na10 4.208858 1_656
Ba27 Na52 4.256446 1_556
Ba27 Na9 4.256446 1_655
Ba27 Na4 4.301832 1_556
Ba27 Na26 4.301833 1_655
Ba27 Ba28 4.514750 1_656
Ba28 Na9 4.192562 1_554
Ba28 Na52 4.192563 1_455
Ba28 Na7 4.192563 1_545
Ba28 Na26 4.218347 1_554
Ba28 Na4 4.218347 1_455
Ba28 Na57 4.218347 1_545
Ba28 Na44 4.284719 1_555
Ba28 Na1 4.284719 1_555
Ba28 Na21 4.284719 1_555
Ba28 Na10 4.284719 1_555
Ba28 Na53 4.284719 1_555
Ba28 Na33 4.284719 1_555
Ba28 Ba5 4.514750 1_445
Ba28 Ba35 4.514750 1_544
Ba29 Na2 3.975582 1_555
Ba29 Na54 3.975582 1_555
Ba29 Na52 3.975582 1_555
Ba29 Na28 4.028432 1_555
Ba29 Na47 4.028433 1_555
Ba29 Na15 4.028433 1_555
Ba29 Na49 4.245032 1_555
Ba29 Na3 4.245032 1_555
Ba29 Na38 4.245032 1_555
Ba29 Na33 4.275000 1_655
Ba29 Na55 4.275000 1_655
Ba29 Na44 4.275000 1_655
Ba29 Ba3 4.540830 1_555
Ba30 Li5 3.783365 1_555
Ba30 Li11 3.999476 1_555
Ba30 Li12 3.999477 1_555
Ba30 Na40 4.160764 1_555
Ba30 Na27 4.160764 1_556
Ba30 Na12 4.208858 1_556
Ba30 Na20 4.208858 1_556
Ba30 Na30 4.256446 1_555
Ba30 Na14 4.256446 1_556
Ba30 Na56 4.301833 1_556
Ba30 Na35 4.301833 1_555
Ba31 Li15 3.783365 1_555
Ba31 Li23 3.999477 1_555
Ba31 Li8 3.999477 1_555
Ba31 Na13 4.160764 1_565
Ba31 Na31 4.160764 1_555
Ba31 Na8 4.208858 1_565
Ba31 Na34 4.208858 1_565
Ba31 Na48 4.256446 1_555
Ba31 Na14 4.256446 1_565
Ba31 Na56 4.301832 1_565
Ba31 Na36 4.301832 1_555
Ba31 Ba34 4.393762 1_555
Ba31 Ba4 4.393762 1_565
Ba31 Ba7 4.771830 1_555
Ba32 Na50 4.215699 1_554
Ba32 Na0 4.215699 1_544
Ba32 Na19 4.215699 1_454
Ba32 Na36 4.215699 1_445
Ba32 Na39 4.215699 1_445
Ba32 Na56 4.215699 1_455
Ba32 Na41 4.215699 1_545
Ba32 Na26 4.215699 1_554
Ba32 Na57 4.215699 1_545
Ba32 Na4 4.215699 1_455
Ba32 Na35 4.215699 1_454
Ba32 Na45 4.215699 1_544
Ba32 Ba8 4.460806 1_444
Ba33 Li10 3.783365 1_555
Ba33 Li11 3.999476 1_555
Ba33 Li6 3.999477 1_555
Ba33 Na40 4.160764 1_555
Ba33 Na46 4.160764 1_655
Ba33 Na18 4.208858 1_655
Ba33 Na55 4.208858 1_655
Ba33 Na54 4.256446 1_555
Ba33 Na17 4.256446 1_655
Ba33 Na19 4.301832 1_555
Ba33 Na50 4.301833 1_655
Ba33 Ba36 4.393762 1_655
Ba34 Li15 3.947498 1_555
Ba34 Li18 4.084581 1_555
Ba34 Li23 4.084581 1_555
Ba34 Na25 4.201583 1_555
Ba34 Na31 4.201583 1_555
Ba34 Na3 4.220245 1_555
Ba34 Li13 4.224518 1_555
Ba34 Ba7 4.393762 1_555
Ba34 Na8 4.441365 1_565
Ba34 Na42 4.510676 1_555
Ba34 Na47 4.510676 1_555
Ba34 Na48 4.543133 1_555
Ba34 Na43 4.543133 1_555
Ba35 Li25 3.783365 1_555
Ba35 Li21 3.999476 1_555
Ba35 Li20 3.999476 1_555
Ba35 Na51 4.160764 1_565
Ba35 Na32 4.160764 1_556
Ba35 Na53 4.208858 1_566
Ba35 Na21 4.208858 1_566
Ba35 Na7 4.256446 1_556
Ba35 Na9 4.256446 1_565
Ba35 Na57 4.301832 1_556
Ba35 Na26 4.301833 1_565
Ba35 Ba9 4.393762 1_556
Ba36 Li10 3.947498 1_455
Ba36 Li6 4.084581 1_455
Ba36 Li7 4.084581 1_455
Ba36 Na46 4.201583 1_555
Ba36 Na11 4.201583 1_555
Ba36 Na24 4.220245 1_555
Ba36 Li22 4.224518 1_455
Ba36 Ba37 4.421584 1_555
Ba36 Na18 4.441365 1_555
Ba36 Na16 4.510676 1_555
Ba36 Na23 4.510676 1_555
Ba36 Na22 4.543133 1_555
Ba36 Na17 4.543133 1_555
Ba37 Li24 3.947498 1_455
Ba37 Li17 4.084581 1_455
Ba37 Li7 4.084581 1_455
Ba37 Na5 4.201583 1_555
Ba37 Na11 4.201583 1_555
Ba37 Na24 4.220245 1_555
Ba37 Li22 4.224518 1_455
Ba37 Ba6 4.393762 1_455
Ba37 Ba5 4.393762 1_455
Ba37 Na1 4.441365 1_565
Ba37 Na42 4.510676 1_555
Ba37 Na16 4.510676 1_555
Ba37 Na7 4.543133 1_555
Ba37 Na43 4.543133 1_555
Na0 Na50 3.556807 1_565
Na0 Na19 3.556807 1_465
Na0 Na43 3.579803 1_555
Na0 Na45 3.641041 1_555
Na0 Na5 3.678529 1_555
Na0 Na25 3.678529 1_555
Na1 Na44 3.595356 1_555
Na1 Na7 3.625710 1_545
Na1 Na43 3.625710 1_545
Na1 Na53 3.782466 1_555
Na1 Na8 3.782466 1_555
Na2 Na39 3.579803 1_555
Na2 Na55 3.625710 1_655
Na2 Na33 3.625710 1_655
Na2 Na31 3.676672 1_555
Na2 Na29 3.676672 1_555
Na2 Na47 3.679306 1_555
Na3 Na47 3.563738 1_555
Na3 Na42 3.563738 1_555
Na3 Na38 3.849429 1_555
Na3 Na49 3.849429 1_555
Na4 Na57 3.556807 1_645
Na4 Na52 3.579804 1_555
Na4 Na56 3.641041 1_555
Na10 Na33 3.595356 1_555
Na10 Na9 3.625710 1_554
Na10 Na37 3.625710 1_554
Na10 Na20 3.782466 1_555
Na10 Na21 3.782466 1_555
Na11 Na16 3.527716 1_555
Na11 Na22 3.676672 1_555
Na11 Na7 3.676672 1_555
Na11 Na57 3.678529 1_555
Na11 Na41 3.678529 1_555
Na12 Na20 3.595356 1_555
Na12 Na14 3.625710 1_555
Na12 Na22 3.625710 1_555
Na12 Na18 3.782466 1_555
Na12 Na34 3.782466 1_555
Na13 Na15 3.527716 1_555
Na13 Na14 3.676672 1_555
Na13 Na52 3.676672 1_555
Na13 Na4 3.678529 1_555
Na13 Na56 3.678529 1_555
Na14 Na56 3.579804 1_555
Na14 Na34 3.625710 1_555
Na14 Na27 3.676672 1_555
Na14 Na15 3.679306 1_555
Na15 Na27 3.527716 1_555
Na15 Na49 3.563738 1_555
Na15 Na38 3.563738 1_555
Na15 Na52 3.679306 1_555
Na16 Na32 3.527716 1_555
Na16 Na24 3.563738 1_555
Na16 Na38 3.563738 1_555
Na16 Na22 3.679306 1_555
Na16 Na7 3.679306 1_555
Na17 Na50 3.579804 1_555
Na17 Na34 3.625710 1_555
Na17 Na18 3.625710 1_555
Na17 Na46 3.676672 1_555
Na17 Na51 3.676672 1_555
Na17 Na23 3.679306 1_555
Na18 Na55 3.595356 1_555
Na18 Na22 3.625710 1_555
Na18 Na34 3.782466 1_555
Na19 Na50 3.556807 1_655
Na19 Na54 3.579803 1_555
Na19 Na35 3.641041 1_555
Na19 Na6 3.678529 1_555
Na19 Na40 3.678529 1_555
Na20 Na30 3.625710 1_554
Na20 Na37 3.625710 1_554
Na20 Na21 3.782466 1_555
Na21 Na53 3.595356 1_555
Na21 Na9 3.625710 1_554
Na21 Na30 3.625710 1_554
Na22 Na41 3.579804 1_555
Na22 Na32 3.676672 1_555
Na23 Na46 3.527716 1_555
Na23 Na51 3.527716 1_555
Na23 Na49 3.563738 1_555
Na23 Na24 3.563738 1_555
Na23 Na9 3.679306 1_555
Na24 Na42 3.563738 1_555
Na24 Na38 3.849429 1_555
Na24 Na3 3.849429 1_555
Na24 Na49 3.849429 1_555
Na25 Na42 3.527716 1_555
Na25 Na37 3.676672 1_555
Na25 Na43 3.676672 1_555
Na25 Na45 3.678529 1_555
Na26 Na4 3.556807 1_456
Na26 Na57 3.556807 1_546
Na26 Na9 3.579804 1_555
Na26 Na50 3.641041 1_555
Na26 Na51 3.678529 1_555
Na26 Na46 3.678529 1_555
Na27 Na52 3.676672 1_555
Na27 Na56 3.678529 1_555
Na27 Na4 3.678529 1_555
Na28 Na6 3.527716 1_555
Na28 Na40 3.527716 1_555
Na28 Na49 3.563738 1_555
Na28 Na3 3.563738 1_555
Na28 Na30 3.679306 1_555
Na28 Na54 3.679306 1_555
Na29 Na47 3.527716 1_555
Na29 Na48 3.676672 1_555
Na29 Na39 3.678529 1_555
Na29 Na36 3.678529 1_555
Na30 Na35 3.579804 1_555
Na30 Na40 3.676672 1_555
Na30 Na6 3.676672 1_555
Na31 Na47 3.527716 1_555
Na31 Na48 3.676672 1_555
Na31 Na39 3.678529 1_555
Na31 Na36 3.678529 1_555
Na32 Na7 3.676672 1_555
Na32 Na41 3.678529 1_555
Na32 Na57 3.678529 1_555
Na33 Na52 3.625710 1_455
Na33 Na44 3.782466 1_555
Na33 Na55 3.782466 1_555
Na34 Na8 3.595356 1_555
Na35 Na36 3.556807 1_546
Na35 Na56 3.556807 1_556
Na35 Na40 3.678529 1_555
Na35 Na6 3.678529 1_555
Na36 Na56 3.556807 1_565
Na36 Na48 3.579803 1_555
Na36 Na39 3.641041 1_555
Na37 Na45 3.579804 1_555
Na37 Na5 3.676672 1_555
Na37 Na42 3.679306 1_555
Na38 Na47 3.563738 1_555
Na38 Na49 3.849429 1_555
Na39 Na45 3.556807 1_654
Na39 Na41 3.556807 1_655
Na40 Na54 3.676672 1_555
Na41 Na45 3.556807 1_554
Na41 Na57 3.641041 1_555
Na42 Na5 3.527716 1_555
Na42 Na43 3.679306 1_555
Na43 Na8 3.625710 1_565
Na43 Na5 3.676672 1_555
Na44 Na52 3.625710 1_455
Na44 Na54 3.625710 1_455
Na44 Na55 3.782466 1_555
Na45 Na5 3.678529 1_555
Na46 Na9 3.676672 1_555
Na46 Na50 3.678529 1_555
Na47 Na48 3.679306 1_555
Na48 Na8 3.625710 1_565
Na48 Na53 3.625710 1_565
Na50 Na51 3.678529 1_555
Na51 Na9 3.676672 1_555
Na53 Na7 3.625710 1_545
Na53 Na8 3.782466 1_555
Na54 Na55 3.625710 1_655
Na54 Na6 3.676672 1_555
Na57 Na7 3.579804 1_555
Li0 N0 1.877168 1_555
Li0 Li20 2.946794 1_555
Li0 Li18 2.946794 1_555
Li0 Li21 2.946794 1_555
Li0 Li25 3.123912 1_555
Li0 Li15 3.123912 1_555
Li0 Li5 3.123912 1_555
Li1 Li19 2.946794 1_555
Li1 Li3 3.189498 1_555
Li1 Na6 3.268461 1_565
Li1 Li25 3.295333 1_555
Li1 Li24 3.295333 1_555
Li2 N0 1.877168 1_555
Li2 Li7 2.946794 1_555
Li2 Li8 2.946794 1_555
Li2 Li23 2.946794 1_555
Li2 Li24 3.123912 1_555
Li3 Li8 3.189498 1_555
Li4 Na29 3.268461 1_556
Li4 Li9 3.295333 1_555
Li6 Na46 3.268461 1_655
Li6 Li9 3.295333 1_555
Li7 Na11 3.268461 1_655
Li8 Na13 3.268461 1_565
Li10 Li14 3.123912 1_555
Li10 Li2 3.123912 1_555
Li10 Li22 3.154441 1_555
Li10 Li13 3.154441 1_555
Li10 Li11 3.295333 1_555
Li10 Li23 3.295333 1_555
Li10 Li7 3.295333 1_555
Li10 Li6 3.295333 1_555
Li11 Li14 2.946794 1_555
Li11 Li13 3.189498 1_555
Li11 Na40 3.268461 1_555
Li11 Li5 3.295333 1_555
Li12 Li14 2.946794 1_555
Li12 Li16 3.189498 1_555
Li12 Na27 3.268461 1_556
Li12 Li9 3.295333 1_555
Li12 Li5 3.295333 1_555
Li13 Li5 3.154441 1_555
Li13 Li15 3.154441 1_555
Li13 Li23 3.189498 1_555
Li13 Li18 3.189498 1_555
Li14 N0 1.877168 1_555
Li14 Li6 2.946794 1_555
Li14 Li9 3.123912 1_555
Li14 Li5 3.123912 1_555
Li15 Li2 3.123912 1_555
Li15 Li3 3.154441 1_555
Li15 Li18 3.295333 1_555
Li15 Li23 3.295333 1_555
Li15 Li8 3.295333 1_555
Li15 Li21 3.295333 1_555
Li16 Li5 3.154441 1_555
Li16 Li9 3.154441 1_555
Li16 Li25 3.154441 1_555
Li16 Li20 3.189498 1_555
Li16 Li4 3.189498 1_555
Li17 Li19 2.946794 1_555
Li17 Li22 3.189498 1_555
Li17 Na5 3.268461 1_655
Li17 Li9 3.295333 1_555
Li17 Li24 3.295333 1_555
Li18 Na25 3.268461 1_555
Li18 Li5 3.295333 1_555
Li19 N0 1.877168 1_555
Li19 Li4 2.946794 1_555
Li19 Li24 3.123912 1_555
Li19 Li25 3.123912 1_555
Li19 Li9 3.123912 1_555
Li20 Na32 3.268461 1_556
Li20 Li25 3.295333 1_555
Li20 Li5 3.295333 1_555
Li21 Li3 3.189498 1_555
Li21 Na51 3.268461 1_565
Li21 Li25 3.295333 1_555
Li22 Li9 3.154441 1_555
Li22 Li24 3.154441 1_555
Li22 Li7 3.189498 1_555
Li22 Li6 3.189498 1_555
Li23 Na31 3.268461 1_555
Li24 Li3 3.154441 1_555
Li24 Li8 3.295333 1_555
Li24 Li7 3.295333 1_555
Li25 Li3 3.154441 1_555
Li25 Li4 3.295333 1_555
