# generated using pymatgen
data_CsCeCdSe3
_symmetry_space_group_name_H-M   'P 1'
_cell_length_a   8.39333794
_cell_length_b   8.39333794
_cell_length_c   11.56323600
_cell_angle_alpha   90.00000000
_cell_angle_beta   90.00000000
_cell_angle_gamma   149.27857603
_symmetry_Int_Tables_number   1
_chemical_formula_structural   CsCeCdSe3
_chemical_formula_sum   'Cs2 Ce2 Cd2 Se6'
_cell_volume   416.15435637
_cell_formula_units_Z   2
loop_
 _symmetry_equiv_pos_site_id
 _symmetry_equiv_pos_as_xyz
  1  'x, y, z'
loop_
 _atom_site_type_symbol
 _atom_site_label
 _atom_site_symmetry_multiplicity
 _atom_site_fract_x
 _atom_site_fract_y
 _atom_site_fract_z
 _atom_site_occupancy
  Cs  Cs0  1  0.74243100  0.25756900  0.25000000  1
  Cs  Cs1  1  0.25756900  0.74243100  0.75000000  1
  Ce  Ce0  1  0.00000000  0.00000000  0.00000000  1
  Ce  Ce1  1  0.00000000  0.00000000  0.50000000  1
  Cd  Cd0  1  0.46066000  0.53934000  0.25000000  1
  Cd  Cd1  1  0.53934000  0.46066000  0.75000000  1
  Se  Se0  1  0.05968700  0.94031300  0.25000000  1
  Se  Se1  1  0.37956400  0.62043600  0.44739300  1
  Se  Se2  1  0.62043600  0.37956400  0.94739300  1
  Se  Se3  1  0.62043600  0.37956400  0.55260700  1
  Se  Se4  1  0.37956400  0.62043600  0.05260700  1
  Se  Se5  1  0.94031300  0.05968700  0.75000000  1
loop_
_geom_bond_atom_site_label_1
_geom_bond_atom_site_label_2
_geom_bond_distance
_geom_bond_site_symmetry_2
Cs0 Se0 3.700477 1_545
Cs0 Se0 3.700477 1_655
Cs0 Se4 3.883363 1_655
Cs0 Se1 3.883363 1_655
Cs0 Se4 3.883363 1_545
Cs0 Se1 3.883363 1_545
Cs0 Se3 4.017884 1_555
Cs0 Se2 4.017884 1_554
Cs1 Se5 3.700477 1_455
Cs1 Se5 3.700477 1_565
Cs1 Se2 3.883363 1_565
Cs1 Se2 3.883363 1_455
Cs1 Se3 3.883363 1_565
Cs1 Se3 3.883363 1_455
Cs1 Se4 4.017884 1_556
Cs1 Se1 4.017884 1_555
Ce0 Se4 3.018921 1_555
Ce0 Se2 3.018921 1_554
Ce0 Se4 3.018921 1_445
Ce0 Se2 3.018921 1_444
Ce0 Se5 3.047988 1_454
Ce0 Se0 3.047988 1_545
Ce1 Se3 3.018921 1_555
Ce1 Se1 3.018921 1_555
Ce1 Se3 3.018921 1_445
Ce1 Se1 3.018921 1_445
Ce1 Se5 3.047988 1_455
Ce1 Se0 3.047988 1_545
Cd0 Se4 2.633059 1_555
Cd0 Se1 2.633059 1_555
Cd0 Se0 2.740940 1_655
Cd0 Se0 2.740940 1_545
Cd1 Se2 2.633059 1_555
Cd1 Se3 2.633059 1_555
Cd1 Se5 2.740940 1_565
Cd1 Se5 2.740940 1_455
