# generated using pymatgen
data_Rb2RuO4
_symmetry_space_group_name_H-M   'P 1'
_cell_length_a   6.21530360
_cell_length_b   8.10398622
_cell_length_c   11.00791393
_cell_angle_alpha   90.00000000
_cell_angle_beta   90.00000000
_cell_angle_gamma   90.00000000
_symmetry_Int_Tables_number   1
_chemical_formula_structural   Rb2RuO4
_chemical_formula_sum   'Rb8 Ru4 O16'
_cell_volume   554.45469664
_cell_formula_units_Z   4
loop_
 _symmetry_equiv_pos_site_id
 _symmetry_equiv_pos_as_xyz
  1  'x, y, z'
loop_
 _atom_site_type_symbol
 _atom_site_label
 _atom_site_symmetry_multiplicity
 _atom_site_fract_x
 _atom_site_fract_y
 _atom_site_fract_z
 _atom_site_occupancy
  Rb  Rb0  1  0.75000000  0.84173217  0.08001331  1
  Rb  Rb1  1  0.25000000  0.15826783  0.91998669  1
  Rb  Rb2  1  0.75000000  0.34173217  0.41998669  1
  Rb  Rb3  1  0.25000000  0.65826783  0.58001331  1
  Rb  Rb4  1  0.75000000  0.00703722  0.70390095  1
  Rb  Rb5  1  0.25000000  0.99296278  0.29609905  1
  Rb  Rb6  1  0.75000000  0.50703722  0.79609905  1
  Rb  Rb7  1  0.25000000  0.49296278  0.20390095  1
  Ru  Ru0  1  0.75000000  0.28040805  0.07840680  1
  Ru  Ru1  1  0.25000000  0.71959195  0.92159320  1
  Ru  Ru2  1  0.75000000  0.78040805  0.42159320  1
  Ru  Ru3  1  0.25000000  0.21959195  0.57840680  1
  O  O0  1  0.75000000  0.19369575  0.92927667  1
  O  O1  1  0.25000000  0.80630425  0.07072333  1
  O  O2  1  0.75000000  0.69369575  0.57072333  1
  O  O3  1  0.25000000  0.30630425  0.42927667  1
  O  O4  1  0.75000000  0.99818122  0.42436562  1
  O  O5  1  0.25000000  0.00181878  0.57563438  1
  O  O6  1  0.75000000  0.49818122  0.07563438  1
  O  O7  1  0.25000000  0.50181878  0.92436562  1
  O  O8  1  0.98230874  0.20218526  0.15277935  1
  O  O9  1  0.48230874  0.79781474  0.84722065  1
  O  O10  1  0.51769126  0.70218526  0.34722065  1
  O  O11  1  0.01769126  0.29781474  0.65277935  1
  O  O12  1  0.01769126  0.79781474  0.84722065  1
  O  O13  1  0.51769126  0.20218526  0.15277935  1
  O  O14  1  0.48230874  0.29781474  0.65277935  1
  O  O15  1  0.98230874  0.70218526  0.34722065  1
loop_
_geom_bond_atom_site_label_1
_geom_bond_atom_site_label_2
_geom_bond_distance
_geom_bond_site_symmetry_2
O0 Ru0 1.785692 1_556
O0 Rb4 2.905709 1_555
O0 Rb6 2.932115 1_555
O0 Rb1 3.122561 1_555
O0 Rb1 3.122561 1_655
O0 Rb0 3.299837 1_546
O1 Ru1 1.785692 1_554
O1 Rb5 2.905709 1_555
O1 Rb7 2.932115 1_555
O1 Rb0 3.122561 1_455
O1 Rb0 3.122561 1_555
O1 Rb1 3.299837 1_564
O2 Ru2 1.785692 1_555
O2 Rb6 2.905709 1_555
O2 Rb4 2.932115 1_565
O2 Rb3 3.122561 1_555
O2 Rb3 3.122561 1_655
O2 Rb2 3.299837 1_555
O3 Ru3 1.785692 1_555
O3 Rb7 2.905709 1_555
O3 Rb5 2.932115 1_545
O3 Rb2 3.122561 1_555
O3 Rb2 3.122561 1_455
O3 Rb3 3.299837 1_555
O4 Ru2 1.765095 1_555
O4 Rb2 2.784549 1_565
O4 Rb4 3.077938 1_565
O4 Rb5 3.413632 1_555
O4 Rb5 3.413632 1_655
O5 Ru3 1.765095 1_555
O5 Rb3 2.784549 1_545
O5 Rb5 3.077938 1_545
O5 Rb4 3.413632 1_555
O5 Rb4 3.413632 1_455
O6 Ru0 1.765095 1_555
O6 Rb0 2.784549 1_555
O6 Rb6 3.077938 1_554
O6 Rb7 3.413632 1_555
O6 Rb7 3.413632 1_655
O7 Ru1 1.765095 1_555
O7 Rb1 2.784549 1_555
O7 Rb7 3.077938 1_556
O7 Rb6 3.413632 1_555
O7 Rb6 3.413632 1_455
O8 Ru0 1.776754 1_555
O8 Rb5 2.851666 1_645
O8 Rb7 2.939003 1_655
O8 Rb1 3.075965 1_654
O8 Rb0 3.355477 1_545
O8 Rb2 3.466334 1_555
O9 Ru1 1.776754 1_555
O9 Rb4 2.851666 1_565
O9 Rb6 2.939003 1_555
O9 Rb0 3.075965 1_556
O9 Rb1 3.355477 1_565
O9 Rb3 3.466334 1_555
O10 Ru2 1.776754 1_555
O10 Rb7 2.851666 1_555
O10 Rb5 2.939003 1_555
O10 Rb3 3.075965 1_555
O10 Rb2 3.355477 1_555
O10 Rb0 3.466334 1_555
O11 Ru3 1.776754 1_555
O11 Rb6 2.851666 1_455
O11 Rb4 2.939003 1_455
O11 Rb2 3.075965 1_455
O11 Rb3 3.355477 1_555
O11 Rb1 3.466334 1_555
O12 Ru1 1.776754 1_555
O12 Rb4 2.851666 1_465
O12 Rb6 2.939003 1_455
O12 Rb0 3.075965 1_456
O12 Rb1 3.355477 1_565
O12 Rb3 3.466334 1_555
O13 Ru0 1.776754 1_555
O13 Rb5 2.851666 1_545
O13 Rb7 2.939003 1_555
O13 Rb1 3.075965 1_554
O13 Rb0 3.355477 1_545
O13 Rb2 3.466334 1_555
O14 Ru3 1.776754 1_555
O14 Rb6 2.851666 1_555
O14 Rb4 2.939003 1_555
O14 Rb2 3.075965 1_555
O14 Rb3 3.355477 1_555
O14 Rb1 3.466334 1_555
O15 Ru2 1.776754 1_555
O15 Rb7 2.851666 1_655
O15 Rb5 2.939003 1_655
O15 Rb3 3.075965 1_655
O15 Rb2 3.355477 1_555
O15 Rb0 3.466334 1_555
