# generated using pymatgen
data_Sr9TmV7O28
_symmetry_space_group_name_H-M   'P 1'
_cell_length_a   14.91568957
_cell_length_b   14.91568957
_cell_length_c   14.91569024
_cell_angle_alpha   44.81317245
_cell_angle_beta   44.81317245
_cell_angle_gamma   44.81317572
_symmetry_Int_Tables_number   1
_chemical_formula_structural   Sr9TmV7O28
_chemical_formula_sum   'Sr18 Tm2 V14 O56'
_cell_volume   1499.73376153
_cell_formula_units_Z   2
loop_
 _symmetry_equiv_pos_site_id
 _symmetry_equiv_pos_as_xyz
  1  'x, y, z'
loop_
 _atom_site_type_symbol
 _atom_site_label
 _atom_site_symmetry_multiplicity
 _atom_site_fract_x
 _atom_site_fract_y
 _atom_site_fract_z
 _atom_site_occupancy
  Sr  Sr0  1  0.42254900  0.84653000  0.43292500  1
  Sr  Sr1  1  0.94746400  0.54657000  0.53033500  1
  Sr  Sr2  1  0.59213900  0.14687400  0.56430200  1
  Sr  Sr3  1  0.53033500  0.94746400  0.54657000  1
  Sr  Sr4  1  0.04657000  0.44746400  0.03033500  1
  Sr  Sr5  1  0.03033500  0.04657000  0.44746400  1
  Sr  Sr6  1  0.84653000  0.43292500  0.42254900  1
  Sr  Sr7  1  0.56430200  0.59213900  0.14687400  1
  Sr  Sr8  1  0.43292500  0.42254900  0.84653000  1
  Sr  Sr9  1  0.34653000  0.92254900  0.93292500  1
  Sr  Sr10  1  0.06430200  0.64687400  0.09213900  1
  Sr  Sr11  1  0.14687400  0.56430200  0.59213900  1
  Sr  Sr12  1  0.92254900  0.93292500  0.34653000  1
  Sr  Sr13  1  0.93292500  0.34653000  0.92254900  1
  Sr  Sr14  1  0.54657000  0.53033500  0.94746400  1
  Sr  Sr15  1  0.09213900  0.06430200  0.64687400  1
  Sr  Sr16  1  0.44746400  0.03033500  0.04657000  1
  Sr  Sr17  1  0.64687400  0.09213900  0.06430200  1
  Tm  Tm0  1  0.50007000  0.50007000  0.50007000  1
  Tm  Tm1  1  0.00007000  0.00007000  0.00007000  1
  V  V0  1  0.19166900  0.67959200  0.22323200  1
  V  V1  1  0.81300400  0.31142000  0.28013600  1
  V  V2  1  0.22323200  0.19166900  0.67959200  1
  V  V3  1  0.22951800  0.22951800  0.22951800  1
  V  V4  1  0.72323200  0.17959200  0.69166900  1
  V  V5  1  0.17959200  0.69166900  0.72323200  1
  V  V6  1  0.69166900  0.72323200  0.17959200  1
  V  V7  1  0.72951800  0.72951800  0.72951800  1
  V  V8  1  0.31142000  0.28013600  0.81300400  1
  V  V9  1  0.81142000  0.31300400  0.78013600  1
  V  V10  1  0.78013600  0.81142000  0.31300400  1
  V  V11  1  0.28013600  0.81300400  0.31142000  1
  V  V12  1  0.67959200  0.22323200  0.19166900  1
  V  V13  1  0.31300400  0.78013600  0.81142000  1
  O  O0  1  0.72638200  0.89639700  0.60086500  1
  O  O1  1  0.23295100  0.14245800  0.59795900  1
  O  O2  1  0.12293300  0.11986100  0.86436600  1
  O  O3  1  0.39272200  0.10632000  0.66320400  1
  O  O4  1  0.31305100  0.89307800  0.32361800  1
  O  O5  1  0.85761900  0.40483700  0.10157100  1
  O  O6  1  0.36436600  0.61986100  0.62293300  1
  O  O7  1  0.66320400  0.39272200  0.10632000  1
  O  O8  1  0.90483700  0.35761900  0.60157100  1
  O  O9  1  0.12912000  0.86905000  0.88828000  1
  O  O10  1  0.68628300  0.68628300  0.68628300  1
  O  O11  1  0.32361800  0.31305100  0.89307800  1
  O  O12  1  0.63571800  0.36504200  0.84551300  1
  O  O13  1  0.88828000  0.12912000  0.86905000  1
  O  O14  1  0.10157100  0.85761900  0.40483700  1
  O  O15  1  0.73295100  0.09795900  0.64245800  1
  O  O16  1  0.14148900  0.37146500  0.62520900  1
  O  O17  1  0.37146500  0.62520900  0.14148900  1
  O  O18  1  0.40483700  0.10157100  0.85761900  1
  O  O19  1  0.89639700  0.60086500  0.72638200  1
  O  O20  1  0.82361800  0.39307800  0.81305100  1
  O  O21  1  0.12520900  0.87146500  0.64148900  1
  O  O22  1  0.64148900  0.12520900  0.87146500  1
  O  O23  1  0.89307800  0.32361800  0.31305100  1
  O  O24  1  0.10086500  0.39639700  0.22638200  1
  O  O25  1  0.60632000  0.89272200  0.16320400  1
  O  O26  1  0.39639700  0.22638200  0.10086500  1
  O  O27  1  0.36504200  0.84551300  0.63571800  1
  O  O28  1  0.62520900  0.14148900  0.37146500  1
  O  O29  1  0.39307800  0.81305100  0.82361800  1
  O  O30  1  0.61986100  0.62293300  0.36436600  1
  O  O31  1  0.81305100  0.82361800  0.39307800  1
  O  O32  1  0.11986100  0.86436600  0.12293300  1
  O  O33  1  0.64245800  0.73295100  0.09795900  1
  O  O34  1  0.18628300  0.18628300  0.18628300  1
  O  O35  1  0.22638200  0.10086500  0.39639700  1
  O  O36  1  0.89272200  0.16320400  0.60632000  1
  O  O37  1  0.86504200  0.13571800  0.34551300  1
  O  O38  1  0.09795900  0.64245800  0.73295100  1
  O  O39  1  0.87146500  0.64148900  0.12520900  1
  O  O40  1  0.36905000  0.62912000  0.38828000  1
  O  O41  1  0.86436600  0.12293300  0.11986100  1
  O  O42  1  0.62912000  0.38828000  0.36905000  1
  O  O43  1  0.59795900  0.23295100  0.14245800  1
  O  O44  1  0.14245800  0.59795900  0.23295100  1
  O  O45  1  0.13571800  0.34551300  0.86504200  1
  O  O46  1  0.62293300  0.36436600  0.61986100  1
  O  O47  1  0.38828000  0.36905000  0.62912000  1
  O  O48  1  0.10632000  0.66320400  0.39272200  1
  O  O49  1  0.86905000  0.88828000  0.12912000  1
  O  O50  1  0.60157100  0.90483700  0.35761900  1
  O  O51  1  0.84551300  0.63571800  0.36504200  1
  O  O52  1  0.35761900  0.60157100  0.90483700  1
  O  O53  1  0.60086500  0.72638200  0.89639700  1
  O  O54  1  0.16320400  0.60632000  0.89272200  1
  O  O55  1  0.34551300  0.86504200  0.13571800  1
loop_
_geom_bond_atom_site_label_1
_geom_bond_atom_site_label_2
_geom_bond_distance
_geom_bond_site_symmetry_2
O0 V7 1.750842 1_555
O0 Sr2 2.511846 1_565
O0 Sr12 2.613423 1_555
O0 Sr3 3.018508 1_555
O1 V2 1.705587 1_555
O1 Sr15 2.528941 1_555
O1 Sr3 2.959207 1_545
O2 V2 1.793406 1_555
O2 Tm1 2.213478 1_556
O2 Sr13 2.700795 1_455
O2 Sr9 2.733639 1_545
O3 V2 1.752142 1_555
O3 Sr2 2.539784 1_555
O3 Sr3 2.595293 1_545
O3 Sr9 2.697041 1_545
O4 V11 1.722681 1_555
O4 Sr0 2.524044 1_555
O4 Sr16 2.711609 1_565
O4 Sr5 2.772486 1_565
O5 V1 1.735963 1_555
O5 Sr13 2.607986 1_554
O5 Sr4 2.609865 1_655
O5 Sr7 2.923124 1_555
O6 V5 1.793406 1_555
O6 Tm0 2.213478 1_555
O6 Sr0 2.700794 1_555
O6 Sr8 2.733639 1_555
O7 V12 1.752142 1_555
O7 Sr7 2.539784 1_555
O7 Sr14 2.595293 1_554
O7 Sr13 2.697041 1_554
O8 V9 1.735963 1_555
O8 Sr6 2.607986 1_555
O8 Sr1 2.609865 1_555
O8 Sr15 2.923124 1_655
O9 V13 1.769413 1_555
O9 Tm1 2.244306 1_566
O9 Sr10 2.690811 1_556
O9 Sr15 2.722410 1_565
O10 V7 1.737165 1_555
O10 Sr14 2.726170 1_555
O10 Sr1 2.726171 1_555
O10 Sr3 2.726171 1_555
O11 V8 1.722681 1_555
O11 Sr8 2.524044 1_555
O11 Sr4 2.711609 1_556
O11 Sr16 2.772486 1_556
O12 V9 1.727258 1_555
O12 Sr8 2.481443 1_555
O12 Sr14 2.821017 1_555
O12 Sr17 2.865117 1_556
O13 V9 1.769413 1_555
O13 Tm1 2.244306 1_656
O13 Sr15 2.690811 1_655
O13 Sr17 2.722409 1_556
O14 V11 1.735963 1_555
O14 Sr12 2.607986 1_455
O14 Sr5 2.609865 1_565
O14 Sr11 2.923123 1_555
O15 V4 1.705587 1_555
O15 Sr2 2.528941 1_555
O15 Sr5 2.959206 1_655
O16 V2 1.736115 1_555
O16 Sr11 2.604120 1_555
O16 Sr1 2.653626 1_455
O16 Sr13 3.035037 1_455
O17 V0 1.736115 1_555
O17 Sr7 2.604120 1_555
O17 Sr14 2.653626 1_554
O17 Sr9 3.035037 1_554
O18 V8 1.735963 1_555
O18 Sr9 2.607986 1_545
O18 Sr16 2.609865 1_556
O18 Sr2 2.923124 1_555
O19 V7 1.750842 1_555
O19 Sr11 2.511846 1_655
O19 Sr13 2.613423 1_555
O19 Sr1 3.018508 1_555
O20 V9 1.722681 1_555
O20 Sr13 2.524044 1_555
O20 Sr14 2.711609 1_555
O20 Sr1 2.772486 1_555
O21 V5 1.736115 1_555
O21 Sr15 2.604120 1_565
O21 Sr5 2.653626 1_565
O21 Sr0 3.035037 1_555
O22 V4 1.736115 1_555
O22 Sr17 2.604120 1_556
O22 Sr16 2.653625 1_556
O22 Sr8 3.035037 1_555
O23 V1 1.722681 1_555
O23 Sr6 2.524044 1_555
O23 Sr5 2.711609 1_655
O23 Sr4 2.772486 1_655
O24 V3 1.750842 1_555
O24 Sr10 2.511846 1_555
O24 Sr6 2.613423 1_455
O24 Sr4 3.018508 1_555
O25 V6 1.752142 1_555
O25 Sr17 2.539784 1_565
O25 Sr16 2.595293 1_565
O25 Sr0 2.697041 1_555
O26 V3 1.750842 1_555
O26 Sr17 2.511846 1_555
O26 Sr8 2.613423 1_554
O26 Sr16 3.018508 1_555
O27 V13 1.727258 1_555
O27 Sr0 2.481443 1_555
O27 Sr3 2.821017 1_555
O27 Sr15 2.865117 1_565
O28 V12 1.736115 1_555
O28 Sr2 2.604120 1_555
O28 Sr3 2.653625 1_545
O28 Sr12 3.035037 1_545
O29 V13 1.722681 1_555
O29 Sr9 2.524044 1_555
O29 Sr3 2.711609 1_555
O29 Sr14 2.772486 1_555
O30 V6 1.793406 1_555
O30 Tm0 2.213478 1_555
O30 Sr6 2.700795 1_555
O30 Sr0 2.733639 1_555
O31 V10 1.722681 1_555
O31 Sr12 2.524044 1_555
O31 Sr1 2.711609 1_555
O31 Sr3 2.772486 1_555
O32 V0 1.793406 1_555
O32 Tm1 2.213478 1_565
O32 Sr9 2.700794 1_554
O32 Sr12 2.733639 1_455
O33 V6 1.705587 1_555
O33 Sr7 2.528941 1_555
O33 Sr16 2.959207 1_565
O34 V3 1.737165 1_555
O34 Sr5 2.726170 1_555
O34 Sr4 2.726171 1_555
O34 Sr16 2.726171 1_555
O35 V3 1.750842 1_555
O35 Sr15 2.511846 1_555
O35 Sr0 2.613423 1_545
O35 Sr5 3.018508 1_555
O36 V4 1.752142 1_555
O36 Sr15 2.539784 1_655
O36 Sr5 2.595293 1_655
O36 Sr6 2.697041 1_555
O37 V1 1.727258 1_555
O37 Sr12 2.481443 1_545
O37 Sr5 2.821017 1_655
O37 Sr2 2.865117 1_555
O38 V5 1.705587 1_555
O38 Sr11 2.528941 1_555
O38 Sr4 2.959206 1_556
O39 V6 1.736115 1_555
O39 Sr10 2.604120 1_655
O39 Sr4 2.653626 1_655
O39 Sr6 3.035037 1_555
O40 V11 1.769413 1_555
O40 Tm0 2.244306 1_555
O40 Sr11 2.690811 1_555
O40 Sr7 2.722410 1_555
O41 V12 1.793406 1_555
O41 Tm1 2.213478 1_655
O41 Sr12 2.700795 1_545
O41 Sr13 2.733638 1_554
O42 V1 1.769413 1_555
O42 Tm0 2.244306 1_555
O42 Sr7 2.690811 1_555
O42 Sr2 2.722409 1_555
O43 V12 1.705587 1_555
O43 Sr17 2.528941 1_555
O43 Sr14 2.959206 1_554
O44 V0 1.705587 1_555
O44 Sr10 2.528941 1_555
O44 Sr1 2.959206 1_455
O45 V8 1.727258 1_555
O45 Sr13 2.481443 1_455
O45 Sr4 2.821017 1_556
O45 Sr11 2.865117 1_555
O46 V4 1.793406 1_555
O46 Tm0 2.213478 1_555
O46 Sr8 2.700795 1_555
O46 Sr6 2.733638 1_555
O47 V8 1.769412 1_555
O47 Tm0 2.244306 1_555
O47 Sr2 2.690811 1_555
O47 Sr11 2.722410 1_555
O48 V0 1.752142 1_555
O48 Sr11 2.539784 1_555
O48 Sr1 2.595292 1_455
O48 Sr12 2.697041 1_455
O49 V10 1.769412 1_555
O49 Tm1 2.244306 1_665
O49 Sr17 2.690811 1_565
O49 Sr10 2.722410 1_655
O50 V10 1.735963 1_555
O50 Sr0 2.607986 1_555
O50 Sr3 2.609865 1_555
O50 Sr17 2.923124 1_565
O51 V10 1.727258 1_555
O51 Sr6 2.481443 1_555
O51 Sr1 2.821017 1_555
O51 Sr10 2.865117 1_655
O52 V13 1.735963 1_555
O52 Sr8 2.607986 1_555
O52 Sr14 2.609865 1_555
O52 Sr10 2.923123 1_556
O53 V7 1.750842 1_555
O53 Sr7 2.511846 1_556
O53 Sr9 2.613423 1_555
O53 Sr14 3.018508 1_555
O54 V5 1.752142 1_555
O54 Sr10 2.539784 1_556
O54 Sr4 2.595292 1_556
O54 Sr8 2.697041 1_555
O55 V11 1.727258 1_555
O55 Sr9 2.481443 1_554
O55 Sr16 2.821017 1_565
O55 Sr7 2.865117 1_555
