# generated using pymatgen
data_Na2Th(PO4)2
_symmetry_space_group_name_H-M   'P 1'
_cell_length_a   6.99375038
_cell_length_b   9.04246469
_cell_length_c   11.40557482
_cell_angle_alpha   83.61875118
_cell_angle_beta   72.13926562
_cell_angle_gamma   68.81077704
_symmetry_Int_Tables_number   1
_chemical_formula_structural   Na2Th(PO4)2
_chemical_formula_sum   'Na8 Th4 P8 O32'
_cell_volume   640.11860442
_cell_formula_units_Z   4
loop_
 _symmetry_equiv_pos_site_id
 _symmetry_equiv_pos_as_xyz
  1  'x, y, z'
loop_
 _atom_site_type_symbol
 _atom_site_label
 _atom_site_symmetry_multiplicity
 _atom_site_fract_x
 _atom_site_fract_y
 _atom_site_fract_z
 _atom_site_occupancy
  Na  Na0  1  0.70347467  0.45659040  0.37886251  1
  Na  Na1  1  0.31067388  0.99773950  0.12506737  1
  Na  Na2  1  0.91583718  0.04443777  0.37854273  1
  Na  Na3  1  0.56384916  0.50236085  0.12486061  1
  Na  Na4  1  0.68932650  0.00225981  0.87493275  1
  Na  Na5  1  0.08416304  0.95556249  0.62145720  1
  Na  Na6  1  0.29652526  0.54340974  0.62113745  1
  Na  Na7  1  0.43615237  0.49763833  0.87513898  1
  Th  Th0  1  0.92686524  0.74997055  0.14621366  1
  Th  Th1  1  0.07313533  0.25002930  0.85378603  1
  Th  Th2  1  0.29627398  0.24998601  0.40710681  1
  Th  Th3  1  0.70372683  0.75001293  0.59289318  1
  P  P0  1  0.11971056  0.37490660  0.13204135  1
  P  P1  1  0.74799945  0.12505170  0.13199539  1
  P  P2  1  0.88028943  0.62509309  0.86795862  1
  P  P3  1  0.13305925  0.64955689  0.37838737  1
  P  P4  1  0.86694062  0.35044346  0.62161235  1
  P  P5  1  0.51154040  0.14958838  0.62152988  1
  P  P6  1  0.25200094  0.87494848  0.86800441  1
  P  P7  1  0.48845953  0.85041173  0.37847031  1
  O  O0  1  0.75667184  0.50937063  0.89443389  1
  O  O1  1  0.21309621  0.76618697  0.97806604  1
  O  O2  1  0.11691311  0.51798553  0.83803732  1
  O  O3  1  0.45015955  0.74709132  0.49409652  1
  O  O4  1  0.42442152  0.24861483  0.73778763  1
  O  O5  1  0.04517625  0.98210062  0.83819821  1
  O  O6  1  0.33644651  0.50828646  0.37854304  1
  O  O7  1  0.39900372  0.76816042  0.75620593  1
  O  O8  1  0.16226866  0.74853508  0.26205798  1
  O  O9  1  0.05112850  0.41351943  0.61108358  1
  O  O10  1  0.34915450  0.99066625  0.89441599  1
  O  O11  1  0.24332719  0.49062982  0.10556623  1
  O  O12  1  0.60099656  0.23183987  0.24379379  1
  O  O13  1  0.54984105  0.25290831  0.50590336  1
  O  O14  1  0.88308647  0.48201424  0.16196269  1
  O  O15  1  0.33785915  0.08649604  0.61107424  1
  O  O16  1  0.66355254  0.49171313  0.62145730  1
  O  O17  1  0.66213849  0.91350632  0.38892686  1
  O  O18  1  0.83773206  0.25146512  0.73794166  1
  O  O19  1  0.57557903  0.75138558  0.26221245  1
  O  O20  1  0.28485644  0.99162399  0.37865923  1
  O  O21  1  0.94402593  0.24722721  0.50602455  1
  O  O22  1  0.94887118  0.58648132  0.38891611  1
  O  O23  1  0.15525920  0.26789986  0.24371592  1
  O  O24  1  0.71514291  0.00837538  0.62134128  1
  O  O25  1  0.95482343  0.01789866  0.16180219  1
  O  O26  1  0.19082869  0.26630777  0.02193207  1
  O  O27  1  0.05597408  0.75277301  0.49397522  1
  O  O28  1  0.80917140  0.73369212  0.97806783  1
  O  O29  1  0.65084517  0.00933449  0.10558408  1
  O  O30  1  0.84474100  0.73209998  0.75628410  1
  O  O31  1  0.78690403  0.23381329  0.02193375  1
loop_
_geom_bond_atom_site_label_1
_geom_bond_atom_site_label_2
_geom_bond_distance
_geom_bond_site_symmetry_2
Na0 O14 2.434530 1_555
Na0 O6 2.438331 1_555
Na0 O22 2.438448 1_555
Na0 O13 2.555105 1_555
Na0 O21 2.664935 1_555
Na0 O16 2.737169 1_555
Na0 O3 2.782320 1_555
Na0 O19 2.809627 1_555
Na1 O25 2.334941 1_465
Na1 O29 2.360341 1_565
Na1 O26 2.546030 1_565
Na1 O10 2.566678 1_554
Na1 O23 2.625577 1_565
Na1 O20 2.837732 1_555
Na1 O8 2.917153 1_555
Na1 O19 2.976780 1_555
Na2 O25 2.431888 1_555
Na2 O17 2.433600 1_545
Na2 O20 2.449434 1_645
Na2 O21 2.558387 1_555
Na2 O13 2.656198 1_555
Na2 O24 2.736985 1_555
Na2 O27 2.792979 1_645
Na2 O8 2.819007 1_645
Na3 O14 2.337309 1_555
Na3 O11 2.358890 1_555
Na3 O31 2.545654 1_555
Na3 O0 2.565249 1_554
Na3 O12 2.628789 1_555
Na3 O6 2.837980 1_555
Na3 O19 2.920274 1_555
Na3 O8 2.975021 1_555
Na4 O5 2.334937 1_645
Na4 O10 2.360341 1_545
Na4 O28 2.546025 1_545
Na4 O29 2.566677 1_556
Na4 O30 2.625573 1_545
Na4 O24 2.837730 1_555
Na4 O18 2.917163 1_555
Na4 O4 2.976784 1_555
Na5 O5 2.431891 1_555
Na5 O15 2.433601 1_565
Na5 O24 2.449439 1_465
Na5 O27 2.558389 1_555
Na5 O3 2.656202 1_555
Na5 O20 2.736976 1_555
Na5 O21 2.792980 1_465
Na5 O18 2.819005 1_465
Na6 O2 2.434532 1_555
Na6 O16 2.438326 1_555
Na6 O9 2.438446 1_555
Na6 O3 2.555104 1_555
Na6 O27 2.664936 1_555
Na6 O6 2.737167 1_555
Na6 O13 2.782325 1_555
Na6 O4 2.809626 1_555
Na7 O2 2.337319 1_555
Na7 O0 2.358880 1_555
Na7 O1 2.545664 1_555
Na7 O11 2.565257 1_556
Na7 O7 2.628796 1_555
Na7 O16 2.837969 1_555
Na7 O4 2.920264 1_555
Na7 O18 2.975014 1_555
O0 P2 1.535328 1_555
O0 Th1 2.544230 1_655
O1 P6 1.525309 1_555
O1 Th0 2.345543 1_456
O2 P2 1.536727 1_455
O2 Th1 2.530348 1_555
O3 P7 1.540825 1_555
O3 Th3 2.383614 1_555
O4 P5 1.518303 1_555
O4 Th1 2.402848 1_555
O5 P6 1.536861 1_555
O5 Th1 2.529630 1_565
O6 P3 1.530575 1_555
O6 Th2 2.426836 1_555
O7 P6 1.538589 1_555
O7 Th3 2.327753 1_555
O8 P3 1.518263 1_555
O8 Th0 2.402390 1_455
O9 P4 1.555672 1_455
O9 Th2 2.650262 1_555
O10 P6 1.535221 1_555
O10 Th1 2.544780 1_565
O11 P0 1.535329 1_555
O11 Th0 2.544221 1_455
O12 P1 1.538589 1_555
O12 Th2 2.327754 1_555
O13 P5 1.540826 1_555
O13 Th2 2.383614 1_555
O14 P0 1.536729 1_655
O14 Th0 2.530352 1_555
O15 P5 1.555666 1_555
O15 Th2 2.649870 1_555
O16 P4 1.530574 1_555
O16 Th3 2.426835 1_555
O17 P7 1.555668 1_555
O17 Th3 2.649876 1_555
O18 P4 1.518262 1_555
O18 Th1 2.402388 1_655
O19 P7 1.518302 1_555
O19 Th0 2.402848 1_555
O20 P7 1.530505 1_555
O20 Th2 2.426699 1_565
O21 P4 1.540643 1_555
O21 Th2 2.382385 1_655
O22 P3 1.555671 1_655
O22 Th3 2.650256 1_555
O23 P0 1.538441 1_555
O23 Th2 2.327348 1_555
O24 P5 1.530507 1_555
O24 Th3 2.426700 1_545
O25 P1 1.536862 1_555
O25 Th0 2.529624 1_545
O26 P0 1.525382 1_555
O26 Th1 2.344314 1_554
O27 P3 1.540643 1_555
O27 Th3 2.382384 1_455
O28 P2 1.525382 1_555
O28 Th0 2.344313 1_556
O29 P1 1.535220 1_555
O29 Th0 2.544786 1_545
O30 P2 1.538440 1_555
O30 Th3 2.327346 1_555
O31 P1 1.525309 1_555
O31 Th1 2.345544 1_654
