# generated using pymatgen
data_Pr30Ti24Se58I8O25
_symmetry_space_group_name_H-M   'P 1'
_cell_length_a   16.68215591
_cell_length_b   16.68215643
_cell_length_c   16.68215657
_cell_angle_alpha   60.00000180
_cell_angle_beta   60.00000078
_cell_angle_gamma   60.00000275
_symmetry_Int_Tables_number   1
_chemical_formula_structural   Pr30Ti24Se58I8O25
_chemical_formula_sum   'Pr30 Ti24 Se58 I8 O25'
_cell_volume   3282.77847924
_cell_formula_units_Z   1
loop_
 _symmetry_equiv_pos_site_id
 _symmetry_equiv_pos_as_xyz
  1  'x, y, z'
loop_
 _atom_site_type_symbol
 _atom_site_label
 _atom_site_symmetry_multiplicity
 _atom_site_fract_x
 _atom_site_fract_y
 _atom_site_fract_z
 _atom_site_occupancy
  Pr  Pr0  1  0.06671539  0.76295088  0.40738285  1
  Pr  Pr1  1  0.40738285  0.76295088  0.06671539  1
  Pr  Pr2  1  0.64510072  0.35489928  0.35489928  1
  Pr  Pr3  1  0.76295088  0.06671539  0.40738285  1
  Pr  Pr4  1  0.23704912  0.23704912  0.93328461  1
  Pr  Pr5  1  0.59261715  0.23704912  0.23704912  1
  Pr  Pr6  1  0.35489928  0.64510072  0.35489928  1
  Pr  Pr7  1  0.06671539  0.76295088  0.76295088  1
  Pr  Pr8  1  0.76295088  0.76295088  0.40738285  1
  Pr  Pr9  1  0.06671539  0.40738285  0.76295088  1
  Pr  Pr10  1  0.35489928  0.64510072  0.64510072  1
  Pr  Pr11  1  0.76295088  0.40738285  0.06671539  1
  Pr  Pr12  1  0.59261715  0.93328461  0.23704912  1
  Pr  Pr13  1  0.76295088  0.76295088  0.06671539  1
  Pr  Pr14  1  0.23704912  0.59261715  0.23704912  1
  Pr  Pr15  1  0.93328461  0.59261715  0.23704912  1
  Pr  Pr16  1  0.23704912  0.93328461  0.23704912  1
  Pr  Pr17  1  0.76295088  0.40738285  0.76295088  1
  Pr  Pr18  1  0.93328461  0.23704912  0.23704912  1
  Pr  Pr19  1  0.23704912  0.23704912  0.59261715  1
  Pr  Pr20  1  0.64510072  0.64510072  0.35489928  1
  Pr  Pr21  1  0.40738285  0.06671539  0.76295088  1
  Pr  Pr22  1  0.59261715  0.23704912  0.93328461  1
  Pr  Pr23  1  0.93328461  0.23704912  0.59261715  1
  Pr  Pr24  1  0.23704912  0.93328461  0.59261715  1
  Pr  Pr25  1  0.76295088  0.06671539  0.76295088  1
  Pr  Pr26  1  0.40738285  0.76295088  0.76295088  1
  Pr  Pr27  1  0.23704912  0.59261715  0.93328461  1
  Pr  Pr28  1  0.64510072  0.35489928  0.64510072  1
  Pr  Pr29  1  0.35489928  0.35489928  0.64510072  1
  Ti  Ti0  1  0.19535571  0.50000000  0.50000000  1
  Ti  Ti1  1  0.19535571  0.50000000  0.80464429  1
  Ti  Ti2  1  0.50000000  0.80464429  0.50000000  1
  Ti  Ti3  1  0.08950193  0.91049807  0.08950193  1
  Ti  Ti4  1  0.80464429  0.50000000  0.50000000  1
  Ti  Ti5  1  0.08950193  0.08950193  0.91049807  1
  Ti  Ti6  1  0.50000000  0.50000000  0.80464429  1
  Ti  Ti7  1  0.50000000  0.00000000  0.50000000  1
  Ti  Ti8  1  0.00000000  0.50000000  0.50000000  1
  Ti  Ti9  1  0.19535571  0.80464429  0.50000000  1
  Ti  Ti10  1  0.50000000  0.80464429  0.19535571  1
  Ti  Ti11  1  0.50000000  0.19535571  0.50000000  1
  Ti  Ti12  1  0.50000000  0.19535571  0.80464429  1
  Ti  Ti13  1  0.80464429  0.19535571  0.50000000  1
  Ti  Ti14  1  0.50000000  0.50000000  0.00000000  1
  Ti  Ti15  1  0.08950193  0.91049807  0.91049807  1
  Ti  Ti16  1  0.00000000  0.00000000  0.50000000  1
  Ti  Ti17  1  0.50000000  0.00000000  0.00000000  1
  Ti  Ti18  1  0.50000000  0.50000000  0.19535571  1
  Ti  Ti19  1  0.80464429  0.50000000  0.19535571  1
  Ti  Ti20  1  0.91049807  0.08950193  0.91049807  1
  Ti  Ti21  1  0.00000000  0.50000000  0.00000000  1
  Ti  Ti22  1  0.91049807  0.08950193  0.08950193  1
  Ti  Ti23  1  0.91049807  0.91049807  0.08950193  1
  Se  Se0  1  0.58264168  0.02224914  0.58264168  1
  Se  Se1  1  0.58254144  0.58254144  0.25237568  1
  Se  Se2  1  0.80590053  0.80590053  0.19409947  1
  Se  Se3  1  0.81246749  0.02224914  0.58264168  1
  Se  Se4  1  0.41745856  0.41745856  0.74762432  1
  Se  Se5  1  0.65555398  1.00000000  0.34444602  1
  Se  Se6  1  0.41735832  0.97775086  0.41735832  1
  Se  Se7  1  0.18753251  0.41735832  0.97775086  1
  Se  Se8  1  0.34444602  0.00000000  1.00000000  1
  Se  Se9  1  0.07782417  0.76652750  0.07782417  1
  Se  Se10  1  0.81246749  0.58264168  0.58264168  1
  Se  Se11  1  0.19409947  0.80590053  0.19409947  1
  Se  Se12  1  0.23347250  0.92217583  0.92217583  1
  Se  Se13  1  0.41735832  0.18753251  0.97775086  1
  Se  Se14  1  0.07782417  0.07782417  0.07782417  1
  Se  Se15  1  0.41735832  0.18753251  0.41735832  1
  Se  Se16  1  0.58264168  0.81246749  0.02224914  1
  Se  Se17  1  0.65555398  0.34444602  0.00000000  1
  Se  Se18  1  0.97775086  0.41735832  0.41735832  1
  Se  Se19  1  0.92217583  0.23347250  0.92217583  1
  Se  Se20  1  0.58264168  0.58264168  0.81246749  1
  Se  Se21  1  0.58264168  0.58264168  0.02224914  1
  Se  Se22  1  0.02224914  0.58264168  0.81246749  1
  Se  Se23  1  0.92217583  0.92217583  0.92217583  1
  Se  Se24  1  0.58254144  0.58254144  0.58254144  1
  Se  Se25  1  0.80590053  0.19409947  0.19409947  1
  Se  Se26  1  0.80590053  0.19409947  0.80590053  1
  Se  Se27  1  0.41735832  0.41735832  0.18753251  1
  Se  Se28  1  0.65555398  1.00000000  0.00000000  1
  Se  Se29  1  0.18753251  0.97775086  0.41735832  1
  Se  Se30  1  1.00000000  0.65555398  0.34444602  1
  Se  Se31  1  0.34444602  0.65555398  1.00000000  1
  Se  Se32  1  0.81246749  0.58264168  0.02224914  1
  Se  Se33  1  0.58264168  0.02224914  0.81246749  1
  Se  Se34  1  0.41735832  0.41735832  0.97775086  1
  Se  Se35  1  0.97775086  0.18753251  0.41735832  1
  Se  Se36  1  0.19409947  0.19409947  0.80590053  1
  Se  Se37  1  0.76652750  0.07782417  0.07782417  1
  Se  Se38  1  0.58264168  0.81246749  0.58264168  1
  Se  Se39  1  0.92217583  0.92217583  0.23347250  1
  Se  Se40  1  0.97775086  0.41735832  0.18753251  1
  Se  Se41  1  0.25237568  0.58254144  0.58254144  1
  Se  Se42  1  0.00000000  0.00000000  0.34444602  1
  Se  Se43  1  1.00000000  0.65555398  1.00000000  1
  Se  Se44  1  0.41745856  0.74762432  0.41745856  1
  Se  Se45  1  0.34444602  0.00000000  0.65555398  1
  Se  Se46  1  0.18753251  0.41735832  0.41735832  1
  Se  Se47  1  0.41745856  0.41745856  0.41745856  1
  Se  Se48  1  0.00000000  0.34444602  0.65555398  1
  Se  Se49  1  0.58254144  0.25237568  0.58254144  1
  Se  Se50  1  0.41735832  0.97775086  0.18753251  1
  Se  Se51  1  0.02224914  0.58264168  0.58264168  1
  Se  Se52  1  0.00000000  0.34444602  0.00000000  1
  Se  Se53  1  0.19409947  0.80590053  0.80590053  1
  Se  Se54  1  1.00000000  1.00000000  0.65555398  1
  Se  Se55  1  0.02224914  0.81246749  0.58264168  1
  Se  Se56  1  0.74762432  0.41745856  0.41745856  1
  Se  Se57  1  0.07782417  0.07782417  0.76652750  1
  I  I0  1  0.17333288  0.17333288  0.48000137  1
  I  I1  1  0.17333288  0.17333288  0.17333288  1
  I  I2  1  0.51999863  0.82666712  0.82666712  1
  I  I3  1  0.48000137  0.17333288  0.17333288  1
  I  I4  1  0.82666712  0.51999863  0.82666712  1
  I  I5  1  0.82666712  0.82666712  0.82666712  1
  I  I6  1  0.82666712  0.82666712  0.51999863  1
  I  I7  1  0.17333288  0.48000137  0.17333288  1
  O  O0  1  0.21107875  0.38618483  0.78892125  1
  O  O1  1  0.38618483  0.21107875  0.61381517  1
  O  O2  1  0.61381517  0.38618483  0.21107875  1
  O  O3  1  0.21107875  0.78892125  0.38618483  1
  O  O4  1  0.78892125  0.61381517  0.21107875  1
  O  O5  1  0.61381517  0.21107875  0.38618483  1
  O  O6  1  0.78892125  0.21107875  0.61381517  1
  O  O7  1  0.38618483  0.78892125  0.61381517  1
  O  O8  1  0.38618483  0.78892125  0.21107875  1
  O  O9  1  0.21107875  0.78892125  0.61381517  1
  O  O10  1  0.78892125  0.38618483  0.61381517  1
  O  O11  1  0.21107875  0.61381517  0.78892125  1
  O  O12  1  0.38618483  0.21107875  0.78892125  1
  O  O13  1  0.00000000  0.00000000  0.00000000  1
  O  O14  1  0.61381517  0.21107875  0.78892125  1
  O  O15  1  0.38618483  0.61381517  0.78892125  1
  O  O16  1  0.78892125  0.61381517  0.38618483  1
  O  O17  1  0.21107875  0.38618483  0.61381517  1
  O  O18  1  0.61381517  0.78892125  0.21107875  1
  O  O19  1  0.21107875  0.61381517  0.38618483  1
  O  O20  1  0.61381517  0.38618483  0.78892125  1
  O  O21  1  0.61381517  0.78892125  0.38618483  1
  O  O22  1  0.38618483  0.61381517  0.21107875  1
  O  O23  1  0.78892125  0.38618483  0.21107875  1
  O  O24  1  0.78892125  0.21107875  0.38618483  1
loop_
_geom_bond_atom_site_label_1
_geom_bond_atom_site_label_2
_geom_bond_distance
_geom_bond_site_symmetry_2
Pr0 Se11 3.016793 1_555
Pr0 Se55 3.068252 1_555
Pr0 Se51 3.068252 1_555
Pr0 Se30 3.254910 1_455
Pr0 Se42 3.254910 1_565
Pr1 Se11 3.016793 1_555
Pr1 Se16 3.068252 1_555
Pr1 Se21 3.068252 1_555
Pr1 Se31 3.254910 1_554
Pr1 Se8 3.254910 1_564
Pr2 Se56 3.124496 1_555
Pr2 Se47 3.124496 1_555
Pr2 Se49 3.124496 1_555
Pr2 Se1 3.124496 1_555
Pr3 Se25 3.016793 1_555
Pr3 Se3 3.068252 1_555
Pr3 Se0 3.068252 1_555
Pr3 Se5 3.254910 1_545
Pr3 Se42 3.254910 1_655
Pr4 Se36 3.016793 1_555
Pr4 Se13 3.068252 1_555
Pr4 Se7 3.068252 1_555
Pr4 Se52 3.254910 1_556
Pr4 Se8 3.254910 1_555
Pr5 Se25 3.016793 1_555
Pr5 Se15 3.068252 1_555
Pr5 Se27 3.068252 1_555
Pr5 Se17 3.254910 1_555
Pr5 Se5 3.254910 1_545
Pr6 Se44 3.124496 1_555
Pr6 Se1 3.124496 1_555
Pr6 Se41 3.124496 1_555
Pr6 Se47 3.124496 1_555
Pr7 Se53 3.016793 1_555
Pr7 Se22 3.068252 1_555
Pr7 Se55 3.068252 1_555
Pr7 Se43 3.254910 1_455
Pr7 Se54 3.254910 1_455
Pr8 Se2 3.016793 1_555
Pr8 Se38 3.068252 1_555
Pr8 Se10 3.068252 1_555
Pr8 Se30 3.254910 1_555
Pr8 Se5 3.254910 1_555
Pr9 Se36 3.016793 1_555
Pr9 Se22 3.068252 1_555
Pr9 Se51 3.068252 1_555
Pr9 Se48 3.254910 1_555
Pr9 Se52 3.254910 1_556
Pr10 Se41 3.124496 1_555
Pr10 Se24 3.124496 1_555
Pr10 Se44 3.124496 1_555
Pr10 Se4 3.124496 1_555
Pr11 Se25 3.016793 1_555
Pr11 Se32 3.068252 1_555
Pr11 Se21 3.068252 1_555
Pr11 Se17 3.254910 1_555
Pr11 Se52 3.254910 1_655
Pr12 Se2 3.016793 1_555
Pr12 Se50 3.068252 1_555
Pr12 Se6 3.068252 1_555
Pr12 Se5 3.254910 1_555
Pr12 Se28 3.254910 1_555
Pr13 Se2 3.016793 1_555
Pr13 Se16 3.068252 1_555
Pr13 Se32 3.068252 1_555
Pr13 Se43 3.254910 1_554
Pr13 Se28 3.254910 1_555
Pr14 Se11 3.016793 1_555
Pr14 Se46 3.068252 1_555
Pr14 Se27 3.068252 1_555
Pr14 Se30 3.254910 1_455
Pr14 Se31 3.254910 1_554
Pr15 Se2 3.016793 1_555
Pr15 Se40 3.068252 1_555
Pr15 Se18 3.068252 1_555
Pr15 Se30 3.254910 1_555
Pr15 Se43 3.254910 1_554
Pr16 Se11 3.016793 1_555
Pr16 Se50 3.068252 1_555
Pr16 Se29 3.068252 1_555
Pr16 Se42 3.254910 1_565
Pr16 Se8 3.254910 1_564
Pr17 Se26 3.016793 1_555
Pr17 Se10 3.068252 1_555
Pr17 Se20 3.068252 1_555
Pr17 Se48 3.254910 1_655
Pr17 Se17 3.254910 1_556
Pr18 Se25 3.016793 1_555
Pr18 Se40 3.068252 1_555
Pr18 Se35 3.068252 1_555
Pr18 Se52 3.254910 1_655
Pr18 Se42 3.254910 1_655
Pr19 Se36 3.016793 1_555
Pr19 Se15 3.068252 1_555
Pr19 Se46 3.068252 1_555
Pr19 Se48 3.254910 1_555
Pr19 Se45 3.254910 1_555
Pr20 Se1 3.124496 1_555
Pr20 Se44 3.124496 1_555
Pr20 Se24 3.124496 1_555
Pr20 Se56 3.124496 1_555
Pr21 Se36 3.016793 1_555
Pr21 Se33 3.068252 1_555
Pr21 Se0 3.068252 1_555
Pr21 Se45 3.254910 1_555
Pr21 Se8 3.254910 1_555
Pr22 Se26 3.016793 1_555
Pr22 Se13 3.068252 1_555
Pr22 Se34 3.068252 1_555
Pr22 Se17 3.254910 1_556
Pr22 Se28 3.254910 1_546
Pr23 Se26 3.016793 1_555
Pr23 Se35 3.068252 1_555
Pr23 Se18 3.068252 1_555
Pr23 Se48 3.254910 1_655
Pr23 Se54 3.254910 1_545
Pr24 Se53 3.016793 1_555
Pr24 Se29 3.068252 1_555
Pr24 Se6 3.068252 1_555
Pr24 Se45 3.254910 1_565
Pr24 Se54 3.254910 1_455
Pr25 Se26 3.016793 1_555
Pr25 Se33 3.068252 1_555
Pr25 Se3 3.068252 1_555
Pr25 Se54 3.254910 1_545
Pr25 Se28 3.254910 1_546
Pr26 Se53 3.016793 1_555
Pr26 Se38 3.068252 1_555
Pr26 Se20 3.068252 1_555
Pr26 Se31 3.254910 1_555
Pr26 Se45 3.254910 1_565
Pr27 Se53 3.016793 1_555
Pr27 Se7 3.068252 1_555
Pr27 Se34 3.068252 1_555
Pr27 Se31 3.254910 1_555
Pr27 Se43 3.254910 1_455
Pr28 Se49 3.124496 1_555
Pr28 Se4 3.124496 1_555
Pr28 Se56 3.124496 1_555
Pr28 Se24 3.124496 1_555
Pr29 Se4 3.124496 1_555
Pr29 Se49 3.124496 1_555
Pr29 Se47 3.124496 1_555
Pr29 Se41 3.124496 1_555
Se0 Ti11 2.465530 1_555
Se0 Ti7 2.619756 1_555
Se1 Ti18 3.035216 1_555
Se1 Ti19 3.035216 1_555
Se1 Ti10 3.035216 1_555
Se2 Ti23 2.467679 1_555
Se3 Ti13 2.465530 1_555
Se3 Ti16 2.619756 1_655
Se4 Ti6 3.035216 1_555
Se4 Ti1 3.035216 1_555
Se4 Ti12 3.035216 1_555
Se5 Ti7 2.594976 1_565
Se6 Ti2 2.465530 1_555
Se6 Ti7 2.619756 1_565
Se7 Ti1 2.465530 1_555
Se7 Ti21 2.619756 1_556
Se8 Ti17 2.594976 1_556
Se9 Ti3 2.611125 1_555
Se9 Ti23 2.611125 1_455
Se9 Ti15 2.611125 1_554
Se10 Ti4 2.465530 1_555
Se10 Ti8 2.619756 1_655
Se11 Ti3 2.467679 1_555
Se12 Ti15 2.611125 1_555
Se12 Ti3 2.611125 1_556
Se12 Ti5 2.611125 1_565
Se13 Ti12 2.465530 1_555
Se13 Ti17 2.619756 1_556
Se14 Ti22 2.611125 1_455
Se14 Ti3 2.611125 1_545
Se14 Ti5 2.611125 1_554
Se15 Ti11 2.465530 1_555
Se15 Ti7 2.619756 1_555
Se16 Ti10 2.465530 1_555
Se16 Ti17 2.619756 1_565
Se17 Ti14 2.594976 1_555
Se18 Ti4 2.465530 1_555
Se18 Ti8 2.619756 1_655
Se19 Ti20 2.611125 1_555
Se19 Ti5 2.611125 1_655
Se19 Ti22 2.611125 1_556
Se20 Ti6 2.465529 1_555
Se20 Ti14 2.619756 1_556
Se21 Ti18 2.465530 1_555
Se21 Ti14 2.619756 1_555
Se22 Ti1 2.465530 1_555
Se22 Ti21 2.619756 1_556
Se23 Ti15 2.611125 1_655
Se23 Ti20 2.611125 1_565
Se23 Ti23 2.611125 1_556
Se24 Ti4 3.035216 1_555
Se24 Ti6 3.035216 1_555
Se24 Ti2 3.035216 1_555
Se25 Ti22 2.467679 1_555
Se26 Ti20 2.467679 1_555
Se27 Ti18 2.465529 1_555
Se27 Ti14 2.619756 1_555
Se28 Ti17 2.594976 1_565
Se29 Ti9 2.465530 1_555
Se29 Ti16 2.619756 1_565
Se30 Ti8 2.594976 1_655
Se31 Ti14 2.594976 1_556
Se32 Ti19 2.465530 1_555
Se32 Ti21 2.619756 1_655
Se33 Ti12 2.465530 1_555
Se33 Ti17 2.619756 1_556
Se34 Ti6 2.465530 1_555
Se34 Ti14 2.619756 1_556
Se35 Ti13 2.465530 1_555
Se35 Ti16 2.619756 1_655
Se36 Ti5 2.467679 1_555
Se37 Ti22 2.611125 1_555
Se37 Ti20 2.611125 1_554
Se37 Ti23 2.611125 1_545
Se38 Ti2 2.465530 1_555
Se38 Ti7 2.619756 1_565
Se39 Ti23 2.611125 1_555
Se39 Ti3 2.611125 1_655
Se39 Ti22 2.611125 1_565
Se40 Ti19 2.465530 1_555
Se40 Ti21 2.619756 1_655
Se41 Ti0 3.035216 1_555
Se41 Ti1 3.035216 1_555
Se41 Ti9 3.035216 1_555
Se42 Ti16 2.594976 1_555
Se43 Ti21 2.594976 1_656
Se44 Ti2 3.035216 1_555
Se44 Ti9 3.035216 1_555
Se44 Ti10 3.035216 1_555
Se45 Ti7 2.594976 1_555
Se46 Ti0 2.465530 1_555
Se46 Ti8 2.619756 1_555
Se47 Ti0 3.035216 1_555
Se47 Ti18 3.035216 1_555
Se47 Ti11 3.035216 1_555
Se48 Ti8 2.594976 1_555
Se49 Ti11 3.035216 1_555
Se49 Ti13 3.035216 1_555
Se49 Ti12 3.035216 1_555
Se50 Ti10 2.465530 1_555
Se50 Ti17 2.619756 1_565
Se51 Ti0 2.465530 1_555
Se51 Ti8 2.619756 1_555
Se52 Ti21 2.594976 1_555
Se53 Ti15 2.467679 1_555
Se54 Ti16 2.594976 1_665
Se55 Ti9 2.465530 1_555
Se55 Ti16 2.619756 1_565
Se56 Ti4 3.035216 1_555
Se56 Ti19 3.035216 1_555
Se56 Ti13 3.035216 1_555
Se57 Ti5 2.611125 1_555
Se57 Ti20 2.611125 1_455
Se57 Ti15 2.611125 1_545
I0 Pr19 3.303425 1_555
I0 Pr23 3.303425 1_455
I0 Pr24 3.303425 1_545
I1 Pr18 3.303425 1_455
I1 Pr4 3.303425 1_554
I1 Pr16 3.303425 1_545
I2 Pr26 3.303425 1_555
I2 Pr1 3.303425 1_556
I2 Pr21 3.303425 1_565
I3 Pr5 3.303425 1_555
I3 Pr22 3.303425 1_554
I3 Pr12 3.303425 1_545
I4 Pr17 3.303425 1_555
I4 Pr9 3.303425 1_655
I4 Pr11 3.303425 1_556
I5 Pr7 3.303425 1_655
I5 Pr13 3.303425 1_556
I5 Pr25 3.303425 1_565
I6 Pr8 3.303425 1_555
I6 Pr0 3.303425 1_655
I6 Pr3 3.303425 1_565
I7 Pr14 3.303425 1_555
I7 Pr15 3.303425 1_455
I7 Pr27 3.303425 1_554
O0 Ti1 1.916714 1_555
O0 Pr29 2.455347 1_555
O0 Pr9 2.480151 1_555
O0 Pr4 2.480151 1_555
O1 Ti11 1.916714 1_555
O1 Pr29 2.455347 1_555
O1 Pr19 2.480151 1_555
O1 Pr21 2.480151 1_555
O2 Ti18 1.916714 1_555
O2 Pr2 2.455347 1_555
O2 Pr11 2.480151 1_555
O2 Pr5 2.480151 1_555
O3 Ti9 1.916714 1_555
O3 Pr6 2.455347 1_555
O3 Pr0 2.480151 1_555
O3 Pr16 2.480151 1_555
O4 Ti19 1.916714 1_555
O4 Pr20 2.455347 1_555
O4 Pr15 2.480151 1_555
O4 Pr13 2.480151 1_555
O5 Ti11 1.916714 1_555
O5 Pr2 2.455347 1_555
O5 Pr5 2.480151 1_555
O5 Pr3 2.480151 1_555
O6 Ti13 1.916714 1_555
O6 Pr28 2.455347 1_555
O6 Pr23 2.480151 1_555
O6 Pr25 2.480151 1_555
O7 Ti2 1.916714 1_555
O7 Pr10 2.455347 1_555
O7 Pr26 2.480151 1_555
O7 Pr24 2.480151 1_555
O8 Ti10 1.916714 1_555
O8 Pr6 2.455347 1_555
O8 Pr1 2.480151 1_555
O8 Pr16 2.480151 1_555
O9 Ti9 1.916714 1_555
O9 Pr10 2.455347 1_555
O9 Pr24 2.480151 1_555
O9 Pr7 2.480151 1_555
O10 Ti4 1.916714 1_555
O10 Pr28 2.455346 1_555
O10 Pr17 2.480151 1_555
O10 Pr23 2.480151 1_555
O11 Ti1 1.916714 1_555
O11 Pr10 2.455347 1_555
O11 Pr27 2.480151 1_555
O11 Pr7 2.480151 1_555
O12 Ti12 1.916714 1_555
O12 Pr29 2.455347 1_555
O12 Pr21 2.480151 1_555
O12 Pr4 2.480151 1_555
O13 Ti23 2.111541 1_445
O13 Ti5 2.111541 1_554
O13 Ti15 2.111541 1_544
O13 Ti22 2.111541 1_455
O13 Ti20 2.111541 1_454
O13 Ti3 2.111541 1_545
O14 Ti12 1.916714 1_555
O14 Pr28 2.455347 1_555
O14 Pr22 2.480151 1_555
O14 Pr25 2.480151 1_555
O15 Ti6 1.916714 1_555
O15 Pr10 2.455347 1_555
O15 Pr27 2.480151 1_555
O15 Pr26 2.480151 1_555
O16 Ti4 1.916714 1_555
O16 Pr20 2.455346 1_555
O16 Pr15 2.480151 1_555
O16 Pr8 2.480151 1_555
O17 Ti0 1.916714 1_555
O17 Pr29 2.455346 1_555
O17 Pr9 2.480151 1_555
O17 Pr19 2.480151 1_555
O18 Ti10 1.916714 1_555
O18 Pr20 2.455347 1_555
O18 Pr12 2.480151 1_555
O18 Pr13 2.480151 1_555
O19 Ti0 1.916714 1_555
O19 Pr6 2.455346 1_555
O19 Pr14 2.480151 1_555
O19 Pr0 2.480151 1_555
O20 Ti6 1.916714 1_555
O20 Pr28 2.455347 1_555
O20 Pr17 2.480151 1_555
O20 Pr22 2.480151 1_555
O21 Ti2 1.916714 1_555
O21 Pr20 2.455347 1_555
O21 Pr8 2.480151 1_555
O21 Pr12 2.480151 1_555
O22 Ti18 1.916714 1_555
O22 Pr6 2.455347 1_555
O22 Pr14 2.480151 1_555
O22 Pr1 2.480151 1_555
O23 Ti19 1.916714 1_555
O23 Pr2 2.455347 1_555
O23 Pr11 2.480151 1_555
O23 Pr18 2.480151 1_555
O24 Ti13 1.916714 1_555
O24 Pr2 2.455347 1_555
O24 Pr3 2.480151 1_555
O24 Pr18 2.480151 1_555
