# generated using pymatgen
data_ZnS
_symmetry_space_group_name_H-M   'P 1'
_cell_length_a   3.80720601
_cell_length_b   3.80720557
_cell_length_c   62.28774208
_cell_angle_alpha   90.00000000
_cell_angle_beta   90.00000000
_cell_angle_gamma   120.00000371
_symmetry_Int_Tables_number   1
_chemical_formula_structural   ZnS
_chemical_formula_sum   'Zn20 S20'
_cell_volume   781.89044937
_cell_formula_units_Z   20
loop_
 _symmetry_equiv_pos_site_id
 _symmetry_equiv_pos_as_xyz
  1  'x, y, z'
loop_
 _atom_site_type_symbol
 _atom_site_label
 _atom_site_symmetry_multiplicity
 _atom_site_fract_x
 _atom_site_fract_y
 _atom_site_fract_z
 _atom_site_occupancy
  Zn  Zn0  1  0.00000000  -0.00000000  0.55001837  1
  Zn  Zn1  1  0.33333300  0.66666700  0.69999496  1
  Zn  Zn2  1  0.33333300  0.66666700  0.19998851  1
  Zn  Zn3  1  0.66666700  0.33333300  0.40000617  1
  Zn  Zn4  1  0.66666700  0.33333300  0.90001234  1
  Zn  Zn5  1  0.00000000  -0.00000000  0.85001357  1
  Zn  Zn6  1  0.33333300  0.66666700  0.94999836  1
  Zn  Zn7  1  0.66666700  0.33333300  0.75001764  1
  Zn  Zn8  1  0.66666700  0.33333300  0.10002039  1
  Zn  Zn9  1  0.00000000  -0.00000000  0.65003820  1
  Zn  Zn10  1  0.33333300  0.66666700  0.80004981  1
  Zn  Zn11  1  0.66666700  0.33333300  0.60001158  1
  Zn  Zn12  1  0.00000000  0.00000000  0.00000991  1
  Zn  Zn13  1  0.00000000  -0.00000000  0.45001801  1
  Zn  Zn14  1  0.33333300  0.66666700  0.05004155  1
  Zn  Zn15  1  -0.00000000  0.00000000  0.15000800  1
  Zn  Zn16  1  0.33333300  0.66666700  0.30004196  1
  Zn  Zn17  1  -0.00000000  0.00000000  0.34998822  1
  Zn  Zn18  1  0.66666700  0.33333300  0.25001180  1
  Zn  Zn19  1  0.33333300  0.66666700  0.50000879  1
  S  S0  1  0.33333300  0.66666700  0.33748552  1
  S  S1  1  0.00000000  -0.00000000  0.58744581  1
  S  S2  1  0.33333300  0.66666700  0.83749787  1
  S  S3  1  0.00000000  -0.00000000  0.03752243  1
  S  S4  1  0.33333300  0.66666700  0.73744572  1
  S  S5  1  0.33333300  0.66666700  0.08749457  1
  S  S6  1  0.66666700  0.33333300  0.28752427  1
  S  S7  1  0.66666700  0.33333300  0.43752122  1
  S  S8  1  0.00000000  -0.00000000  0.88748622  1
  S  S9  1  0.33333300  0.66666700  0.98744191  1
  S  S10  1  0.66666700  0.33333300  0.63752975  1
  S  S11  1  0.00000000  -0.00000000  0.48744376  1
  S  S12  1  0.66666700  0.33333300  0.93748237  1
  S  S13  1  0.33333300  0.66666700  0.23743742  1
  S  S14  1  0.00000000  -0.00000000  0.38743452  1
  S  S15  1  0.66666700  0.33333300  0.78753257  1
  S  S16  1  0.00000000  -0.00000000  0.18747573  1
  S  S17  1  0.33333300  0.66666700  0.53752248  1
  S  S18  1  0.66666700  0.33333300  0.13748669  1
  S  S19  1  0.00000000  -0.00000000  0.68748804  1
loop_
_geom_bond_atom_site_label_1
_geom_bond_atom_site_label_2
_geom_bond_distance
_geom_bond_site_symmetry_2
S0 Zn17 2.331967 1_565
S0 Zn17 2.331970 1_555
S0 Zn17 2.331970 1_665
S0 Zn16 2.332275 1_555
S1 Zn0 2.331271 1_555
S1 Zn11 2.333282 1_455
S1 Zn11 2.333285 1_445
S1 Zn11 2.333285 1_555
S2 Zn5 2.332238 1_565
S2 Zn5 2.332241 1_555
S2 Zn5 2.332241 1_665
S2 Zn10 2.332555 1_555
S3 Zn14 2.332309 1_545
S3 Zn14 2.332312 1_555
S3 Zn14 2.332312 1_445
S3 Zn12 2.336570 1_555
S4 Zn1 2.332723 1_555
S4 Zn7 2.333410 1_565
S4 Zn7 2.333411 1_455
S4 Zn7 2.333417 1_555
S5 Zn8 2.332448 1_565
S5 Zn8 2.332448 1_455
S5 Zn8 2.332455 1_555
S5 Zn14 2.332864 1_555
S6 Zn16 2.332279 1_545
S6 Zn16 2.332279 1_655
S6 Zn16 2.332285 1_555
S6 Zn18 2.336567 1_555
S7 Zn13 2.331844 1_655
S7 Zn13 2.331847 1_665
S7 Zn13 2.331847 1_555
S7 Zn3 2.336728 1_555
S8 Zn4 2.332455 1_455
S8 Zn4 2.332458 1_445
S8 Zn4 2.332458 1_555
S8 Zn5 2.334087 1_555
S9 Zn6 2.332274 1_555
S9 Zn12 2.333329 1_566
S9 Zn12 2.333331 1_556
S9 Zn12 2.333332 1_666
S10 Zn9 2.332087 1_655
S10 Zn9 2.332090 1_665
S10 Zn9 2.332090 1_555
S10 Zn11 2.336922 1_555
S11 Zn13 2.331165 1_555
S11 Zn19 2.333267 1_545
S11 Zn19 2.333269 1_555
S11 Zn19 2.333270 1_445
S12 Zn6 2.332243 1_545
S12 Zn6 2.332244 1_655
S12 Zn6 2.332250 1_555
S12 Zn4 2.333924 1_555
S13 Zn2 2.332608 1_555
S13 Zn18 2.333462 1_565
S13 Zn18 2.333462 1_455
S13 Zn18 2.333468 1_555
S14 Zn17 2.332445 1_555
S14 Zn3 2.333405 1_455
S14 Zn3 2.333408 1_445
S14 Zn3 2.333408 1_555
S15 Zn10 2.332269 1_545
S15 Zn10 2.332270 1_655
S15 Zn10 2.332276 1_555
S15 Zn7 2.336720 1_555
S16 Zn2 2.332177 1_545
S16 Zn2 2.332180 1_555
S16 Zn2 2.332180 1_445
S16 Zn15 2.333780 1_555
S17 Zn0 2.331826 1_565
S17 Zn0 2.331828 1_555
S17 Zn0 2.331829 1_665
S17 Zn19 2.336643 1_555
S18 Zn15 2.332354 1_655
S18 Zn15 2.332357 1_665
S18 Zn15 2.332358 1_555
S18 Zn8 2.333691 1_555
S19 Zn1 2.332055 1_545
S19 Zn1 2.332058 1_555
S19 Zn1 2.332058 1_445
S19 Zn9 2.332666 1_555
