# generated using pymatgen
data_Co2SiO4
_symmetry_space_group_name_H-M   'P 1'
_cell_length_a   10.41288000
_cell_length_b   4.81870800
_cell_length_c   7.70292131
_cell_angle_alpha   51.66899157
_cell_angle_beta   90.00000000
_cell_angle_gamma   90.00000000
_symmetry_Int_Tables_number   1
_chemical_formula_structural   Co2SiO4
_chemical_formula_sum   'Co8 Si4 O16'
_cell_volume   303.19157318
_cell_formula_units_Z   4
loop_
 _symmetry_equiv_pos_site_id
 _symmetry_equiv_pos_as_xyz
  1  'x, y, z'
loop_
 _atom_site_type_symbol
 _atom_site_label
 _atom_site_symmetry_multiplicity
 _atom_site_fract_x
 _atom_site_fract_y
 _atom_site_fract_z
 _atom_site_occupancy
  Co  Co0  1  0.72505700  0.75503900  0.75077600  1
  Co  Co1  1  0.50000000  0.00000000  0.00000000  1
  Co  Co2  1  0.77494300  0.75503900  0.25077600  1
  Co  Co3  1  0.22505700  0.24496100  0.74922400  1
  Co  Co4  1  0.00000000  0.00000000  0.50000000  1
  Co  Co5  1  0.27494300  0.24496100  0.24922400  1
  Co  Co6  1  0.50000000  0.50000000  0.50000000  1
  Co  Co7  1  0.00000000  0.50000000  0.00000000  1
  Si  Si0  1  0.40589200  0.67821900  0.74902300  1
  Si  Si1  1  0.59410800  0.32178100  0.25097700  1
  Si  Si2  1  0.09410800  0.67821900  0.24902300  1
  Si  Si3  1  0.90589200  0.32178100  0.75097700  1
  O  O0  1  0.90800400  0.98434300  0.74845900  1
  O  O1  1  0.16556700  0.74453700  0.03252600  1
  O  O2  1  0.94870600  0.53444600  0.23953600  1
  O  O3  1  0.05129400  0.46555400  0.76046400  1
  O  O4  1  0.83443300  0.25546300  0.96747400  1
  O  O5  1  0.55129400  0.53444600  0.73953600  1
  O  O6  1  0.83750300  0.68374500  0.53031200  1
  O  O7  1  0.16249700  0.31625500  0.46968800  1
  O  O8  1  0.40800400  0.01565700  0.75154100  1
  O  O9  1  0.33750300  0.31625500  0.96968800  1
  O  O10  1  0.66249700  0.68374500  0.03031200  1
  O  O11  1  0.44870600  0.46555400  0.26046400  1
  O  O12  1  0.33443300  0.74453700  0.53252600  1
  O  O13  1  0.09199600  0.01565700  0.25154100  1
  O  O14  1  0.59199600  0.98434300  0.24845900  1
  O  O15  1  0.66556700  0.25546300  0.46747400  1
loop_
_geom_bond_atom_site_label_1
_geom_bond_atom_site_label_2
_geom_bond_distance
_geom_bond_site_symmetry_2
Co0 O10 2.064284 1_556
Co0 O15 2.105571 1_565
Co0 O5 2.127298 1_555
Co0 O0 2.196773 1_555
Co0 O4 2.212285 1_555
Co0 O6 2.257567 1_555
Co1 O14 2.099310 1_545
Co1 O8 2.099310 1_554
Co1 O5 2.129286 1_554
Co1 O11 2.129286 1_545
Co1 O9 2.190574 1_554
Co1 O10 2.190574 1_545
Co2 O6 2.064284 1_555
Co2 O4 2.105571 1_564
Co2 O2 2.127298 1_555
Co2 O14 2.196773 1_555
Co2 O15 2.212285 1_555
Co2 O10 2.257567 1_555
Co3 O7 2.064284 1_555
Co3 O1 2.105571 1_546
Co3 O3 2.127298 1_555
Co3 O8 2.196773 1_555
Co3 O12 2.212285 1_555
Co3 O9 2.257567 1_555
Co4 O13 2.099310 1_555
Co4 O0 2.099310 1_445
Co4 O3 2.129286 1_545
Co4 O2 2.129286 1_455
Co4 O7 2.190574 1_555
Co4 O6 2.190574 1_445
Co5 O9 2.064284 1_554
Co5 O12 2.105571 1_545
Co5 O11 2.127298 1_555
Co5 O13 2.196773 1_555
Co5 O1 2.212285 1_555
Co5 O7 2.257567 1_555
Co6 O5 2.024159 1_555
Co6 O11 2.024159 1_555
Co6 O8 2.123612 1_555
Co6 O14 2.123612 1_555
Co6 O12 2.188554 1_555
Co6 O15 2.188554 1_555
Co7 O2 2.024159 1_455
Co7 O3 2.024159 1_554
Co7 O13 2.123612 1_555
Co7 O0 2.123612 1_454
Co7 O1 2.188554 1_555
Co7 O4 2.188554 1_454
O0 Si3 1.638263 1_565
O1 Si2 1.666085 1_555
O2 Si2 1.685369 1_655
O3 Si3 1.685369 1_455
O4 Si3 1.666085 1_555
O5 Si0 1.685369 1_555
O6 Si3 1.661651 1_555
O7 Si2 1.661651 1_555
O8 Si0 1.638263 1_545
O9 Si0 1.661651 1_555
O10 Si1 1.661651 1_555
O11 Si1 1.685369 1_555
O12 Si0 1.666085 1_555
O13 Si2 1.638263 1_545
O14 Si1 1.638263 1_565
O15 Si1 1.666085 1_555
