# generated using pymatgen
data_KNd2NbO6
_symmetry_space_group_name_H-M   'P 1'
_cell_length_a   6.96699848
_cell_length_b   6.96699848
_cell_length_c   8.84191322
_cell_angle_alpha   75.58935716
_cell_angle_beta   75.58935716
_cell_angle_gamma   48.85283483
_symmetry_Int_Tables_number   1
_chemical_formula_structural   KNd2NbO6
_chemical_formula_sum   'K2 Nd4 Nb2 O12'
_cell_volume   310.87355276
_cell_formula_units_Z   2
loop_
 _symmetry_equiv_pos_site_id
 _symmetry_equiv_pos_as_xyz
  1  'x, y, z'
loop_
 _atom_site_type_symbol
 _atom_site_label
 _atom_site_symmetry_multiplicity
 _atom_site_fract_x
 _atom_site_fract_y
 _atom_site_fract_z
 _atom_site_occupancy
  K  K0  1  0.88434300  0.88434300  0.47874400  1
  K  K1  1  0.11565700  0.11565700  0.52125600  1
  Nd  Nd0  1  0.87069500  0.87069500  0.92974600  1
  Nd  Nd1  1  0.41198200  0.41198200  0.20244300  1
  Nd  Nd2  1  0.58801800  0.58801800  0.79755700  1
  Nd  Nd3  1  0.12930500  0.12930500  0.07025400  1
  Nb  Nb0  1  0.34115100  0.34115100  0.70253600  1
  Nb  Nb1  1  0.65884900  0.65884900  0.29746400  1
  O  O0  1  0.46943700  0.00049800  0.83321800  1
  O  O1  1  0.31401400  0.78139000  0.29113100  1
  O  O2  1  0.25060400  0.74939600  0.00000000  1
  O  O3  1  0.68598600  0.21861000  0.70886900  1
  O  O4  1  0.78139000  0.31401400  0.29113100  1
  O  O5  1  0.74939600  0.25060400  0.00000000  1
  O  O6  1  0.21861000  0.68598600  0.70886900  1
  O  O7  1  0.53056300  0.99950200  0.16678200  1
  O  O8  1  0.32563500  0.32563500  0.49885300  1
  O  O9  1  0.67436500  0.67436500  0.50114700  1
  O  O10  1  0.99950200  0.53056300  0.16678200  1
  O  O11  1  0.00049800  0.46943700  0.83321800  1
loop_
_geom_bond_atom_site_label_1
_geom_bond_atom_site_label_2
_geom_bond_distance
_geom_bond_site_symmetry_2
K0 O9 2.616753 1_555
K0 O4 2.742687 1_565
K0 O1 2.742687 1_655
K0 O3 2.863064 1_565
K0 O6 2.863064 1_655
K0 O8 2.968883 1_655
K0 O8 2.968883 1_565
K1 O8 2.616753 1_555
K1 O6 2.742687 1_545
K1 O3 2.742687 1_455
K1 O1 2.863064 1_545
K1 O4 2.863064 1_455
K1 O9 2.968883 1_545
K1 O9 2.968883 1_455
Nd0 O5 2.391481 1_566
Nd0 O2 2.391481 1_656
Nd0 O3 2.476957 1_565
Nd0 O6 2.476957 1_655
Nd0 O10 2.545381 1_556
Nd0 O7 2.545381 1_556
Nd0 O11 2.614934 1_655
Nd0 O0 2.614934 1_565
Nd1 O5 2.328809 1_555
Nd1 O2 2.328809 1_555
Nd1 O1 2.476076 1_555
Nd1 O4 2.476076 1_555
Nd1 O7 2.497471 1_545
Nd1 O10 2.497471 1_455
Nd1 O8 2.549372 1_555
Nd2 O5 2.328809 1_556
Nd2 O2 2.328809 1_556
Nd2 O3 2.476076 1_555
Nd2 O6 2.476076 1_555
Nd2 O0 2.497471 1_565
Nd2 O11 2.497471 1_655
Nd2 O9 2.549372 1_555
Nd3 O2 2.391481 1_545
Nd3 O5 2.391481 1_455
Nd3 O1 2.476957 1_545
Nd3 O4 2.476957 1_455
Nd3 O0 2.545381 1_554
Nd3 O11 2.545381 1_554
Nd3 O7 2.614934 1_545
Nd3 O10 2.614934 1_455
Nb0 O8 1.864393 1_555
Nb0 O3 1.961582 1_555
Nb0 O6 1.961582 1_555
Nb0 O11 2.030817 1_555
Nb0 O0 2.030817 1_555
Nb1 O9 1.864393 1_555
Nb1 O1 1.961582 1_555
Nb1 O4 1.961582 1_555
Nb1 O7 2.030817 1_555
Nb1 O10 2.030817 1_555
