# generated using pymatgen
data_Ti4As3
_symmetry_space_group_name_H-M   'P 1'
_cell_length_a   6.64147377
_cell_length_b   6.64147269
_cell_length_c   6.64147672
_cell_angle_alpha   109.47135786
_cell_angle_beta   109.47135680
_cell_angle_gamma   109.47132402
_symmetry_Int_Tables_number   1
_chemical_formula_structural   Ti4As3
_chemical_formula_sum   'Ti8 As6'
_cell_volume   225.51196944
_cell_formula_units_Z   2
loop_
 _symmetry_equiv_pos_site_id
 _symmetry_equiv_pos_as_xyz
  1  'x, y, z'
loop_
 _atom_site_type_symbol
 _atom_site_label
 _atom_site_symmetry_multiplicity
 _atom_site_fract_x
 _atom_site_fract_y
 _atom_site_fract_z
 _atom_site_occupancy
  Ti  Ti0  1  -0.00000965  0.35038492  0.49999096  1
  Ti  Ti1  1  0.50000440  0.00001254  0.35039377  1
  Ti  Ti2  1  0.85042068  0.49999571  0.99999392  1
  Ti  Ti3  1  0.14960840  0.14960910  0.14961904  1
  Ti  Ti4  1  0.50001225  0.00000673  0.85042505  1
  Ti  Ti5  1  0.64958053  0.64957424  0.64958576  1
  Ti  Ti6  1  -0.00000091  0.85041623  0.49999306  1
  Ti  Ti7  1  0.35038589  0.50000228  -0.00000191  1
  As  As0  1  0.74999935  0.87501097  0.12501606  1
  As  As1  1  0.87501450  0.12500735  0.74999802  1
  As  As2  1  0.62498015  0.37498703  0.24999744  1
  As  As3  1  0.25000245  0.62499008  0.37498612  1
  As  As4  1  0.12501777  0.75000281  0.87501304  1
  As  As5  1  0.37498418  0.25000001  0.62498966  1
loop_
_geom_bond_atom_site_label_1
_geom_bond_atom_site_label_2
_geom_bond_distance
_geom_bond_site_symmetry_2
As0 Ti6 2.584750 1_655
As0 Ti4 2.584790 1_564
As0 Ti3 2.584920 1_665
As0 Ti7 2.584926 1_555
As0 Ti0 2.726446 1_665
As0 Ti1 2.726500 1_565
As0 Ti5 2.726775 1_554
As0 Ti2 2.726815 1_554
As1 Ti6 2.584794 1_645
As1 Ti2 2.584795 1_555
As1 Ti1 2.584947 1_555
As1 Ti3 2.584975 1_656
As1 Ti7 2.726473 1_656
As1 Ti0 2.726517 1_655
As1 Ti4 2.726752 1_555
As1 Ti5 2.726803 1_545
As2 Ti4 2.584779 1_554
As2 Ti5 2.584797 1_555
As2 Ti0 2.584935 1_655
As2 Ti7 2.584944 1_555
As2 Ti1 2.726441 1_555
As2 Ti3 2.726482 1_555
As2 Ti6 2.726777 1_655
As2 Ti2 2.726839 1_554
As3 Ti2 2.584797 1_454
As3 Ti5 2.584828 1_555
As3 Ti1 2.584978 1_565
As3 Ti0 2.584979 1_555
As3 Ti7 2.726473 1_555
As3 Ti3 2.726497 1_555
As3 Ti6 2.726770 1_555
As3 Ti4 2.726807 1_565
As4 Ti2 2.584807 1_455
As4 Ti4 2.584822 1_565
As4 Ti3 2.584965 1_566
As4 Ti0 2.584967 1_555
As4 Ti7 2.726456 1_556
As4 Ti1 2.726491 1_566
As4 Ti5 2.726789 1_455
As4 Ti6 2.726808 1_555
As5 Ti5 2.584761 1_555
As5 Ti6 2.584776 1_545
As5 Ti7 2.584931 1_556
As5 Ti1 2.584936 1_555
As5 Ti3 2.726448 1_555
As5 Ti0 2.726518 1_555
As5 Ti2 2.726777 1_555
As5 Ti4 2.726796 1_555
