# generated using pymatgen
data_K6Nb4S25
_symmetry_space_group_name_H-M   'P 1'
_cell_length_a   13.41419600
_cell_length_b   16.10554100
_cell_length_c   18.65549986
_cell_angle_alpha   75.27414071
_cell_angle_beta   90.00000000
_cell_angle_gamma   90.00000000
_symmetry_Int_Tables_number   1
_chemical_formula_structural   K6Nb4S25
_chemical_formula_sum   'K24 Nb16 S100'
_cell_volume   3898.00233809
_cell_formula_units_Z   4
loop_
 _symmetry_equiv_pos_site_id
 _symmetry_equiv_pos_as_xyz
  1  'x, y, z'
loop_
 _atom_site_type_symbol
 _atom_site_label
 _atom_site_symmetry_multiplicity
 _atom_site_fract_x
 _atom_site_fract_y
 _atom_site_fract_z
 _atom_site_occupancy
  K  K0  1  0.98236700  0.38368900  0.73346300  1
  K  K1  1  0.49188900  0.60487700  0.79207400  1
  K  K2  1  0.80496400  0.45693900  0.06437300  1
  K  K3  1  0.36461500  0.18511500  0.08925500  1
  K  K4  1  0.80897200  0.96058900  0.07847600  1
  K  K5  1  0.87835700  0.77472300  0.41267200  1
  K  K6  1  0.19102800  0.03941100  0.92152400  1
  K  K7  1  0.12164300  0.22527700  0.58732800  1
  K  K8  1  0.99188900  0.89512300  0.70792600  1
  K  K9  1  0.63538500  0.81488500  0.91074500  1
  K  K10  1  0.69102800  0.46058900  0.57847600  1
  K  K11  1  0.13538500  0.68511500  0.58925500  1
  K  K12  1  0.30897200  0.53941100  0.42152400  1
  K  K13  1  0.19503600  0.54306100  0.93562700  1
  K  K14  1  0.30496400  0.04306100  0.43562700  1
  K  K15  1  0.37835700  0.72527700  0.08732800  1
  K  K16  1  0.69503600  0.95693900  0.56437300  1
  K  K17  1  0.48236700  0.11631100  0.76653700  1
  K  K18  1  0.51763300  0.88368900  0.23346300  1
  K  K19  1  0.01763300  0.61631100  0.26653700  1
  K  K20  1  0.86461500  0.31488500  0.41074500  1
  K  K21  1  0.62164300  0.27472300  0.91267200  1
  K  K22  1  0.50811100  0.39512300  0.20792600  1
  K  K23  1  0.00811100  0.10487700  0.29207400  1
  Nb  Nb0  1  0.79573800  0.55481900  0.83375800  1
  Nb  Nb1  1  0.29573800  0.94518100  0.66624200  1
  Nb  Nb2  1  0.77867600  0.07308900  0.82440000  1
  Nb  Nb3  1  0.17135000  0.30809600  0.35426400  1
  Nb  Nb4  1  0.27867600  0.42691100  0.67560000  1
  Nb  Nb5  1  0.67135000  0.19190400  0.14573600  1
  Nb  Nb6  1  0.72132400  0.57308900  0.32440000  1
  Nb  Nb7  1  0.82865000  0.69190400  0.64573600  1
  Nb  Nb8  1  0.20426200  0.44518100  0.16624200  1
  Nb  Nb9  1  0.18469200  0.80200600  0.36563000  1
  Nb  Nb10  1  0.22132400  0.92691100  0.17560000  1
  Nb  Nb11  1  0.81530800  0.19799400  0.63437000  1
  Nb  Nb12  1  0.68469200  0.69799400  0.13437000  1
  Nb  Nb13  1  0.70426200  0.05481900  0.33375800  1
  Nb  Nb14  1  0.32865000  0.80809600  0.85426400  1
  Nb  Nb15  1  0.31530800  0.30200600  0.86563000  1
  S  S0  1  0.41230500  0.69076500  0.91646800  1
  S  S1  1  0.75546600  0.22748100  0.75686400  1
  S  S2  1  0.17875600  0.94026000  0.58208700  1
  S  S3  1  0.40672500  0.24858300  0.46996300  1
  S  S4  1  0.80101100  0.71884100  0.77165300  1
  S  S5  1  0.07098300  0.53761000  0.09847100  1
  S  S6  1  0.80186400  0.54782400  0.21290900  1
  S  S7  1  0.57098300  0.96239000  0.40152900  1
  S  S8  1  0.13562600  0.27383300  0.88432300  1
  S  S9  1  0.63562600  0.22616700  0.61567700  1
  S  S10  1  0.36437400  0.77383300  0.38432300  1
  S  S11  1  0.22351400  0.05672900  0.22247500  1
  S  S12  1  0.75211100  0.43617800  0.77748700  1
  S  S13  1  0.98427300  0.80469300  0.89484700  1
  S  S14  1  0.95496600  0.59142100  0.71209600  1
  S  S15  1  0.54711000  0.09363100  0.38443600  1
  S  S16  1  0.34509000  0.94416200  0.09321900  1
  S  S17  1  0.24788900  0.56382200  0.22251300  1
  S  S18  1  0.94748700  0.11809800  0.71484000  1
  S  S19  1  0.95289000  0.59363100  0.88443600  1
  S  S20  1  0.69402000  0.55557500  0.72309200  1
  S  S21  1  0.78305600  0.17226100  0.04160300  1
  S  S22  1  0.21694400  0.82773900  0.95839700  1
  S  S23  1  0.04503400  0.40857900  0.28790400  1
  S  S24  1  0.74453400  0.72748100  0.25686400  1
  S  S25  1  0.61212800  0.37608700  0.44127100  1
  S  S26  1  0.41125200  0.92875800  0.89014900  1
  S  S27  1  0.69813600  0.04782400  0.71290900  1
  S  S28  1  0.19402000  0.94442500  0.77690800  1
  S  S29  1  0.58874800  0.07124200  0.10985100  1
  S  S30  1  0.81747400  0.25137300  0.19732300  1
  S  S31  1  0.58769500  0.30923500  0.08353200  1
  S  S32  1  0.01572700  0.19530700  0.10515300  1
  S  S33  1  0.74788900  0.93617800  0.27748700  1
  S  S34  1  0.80598000  0.05557500  0.22309200  1
  S  S35  1  0.57040600  0.58740300  0.11304700  1
  S  S36  1  0.07040600  0.91259700  0.38695300  1
  S  S37  1  0.55251300  0.61809800  0.21484000  1
  S  S38  1  0.07792500  0.99408300  0.09246100  1
  S  S39  1  0.63310300  0.70585500  0.33688300  1
  S  S40  1  0.44748700  0.38190200  0.78516000  1
  S  S41  1  0.20348800  0.32401900  0.96414500  1
  S  S42  1  0.11212800  0.12391300  0.05872900  1
  S  S43  1  0.36689700  0.29414500  0.66311700  1
  S  S44  1  0.30186400  0.95217600  0.28709100  1
  S  S45  1  0.09327500  0.74858300  0.96996300  1
  S  S46  1  0.92901700  0.46239000  0.90152900  1
  S  S47  1  0.42207500  0.49408300  0.59246100  1
  S  S48  1  0.38945000  0.17461000  0.91583500  1
  S  S49  1  0.24453400  0.77251900  0.24313600  1
  S  S50  1  0.28305600  0.32773900  0.45839700  1
  S  S51  1  0.84509000  0.55583800  0.40678100  1
  S  S52  1  0.71694400  0.67226100  0.54160300  1
  S  S53  1  0.38787200  0.62391300  0.55872900  1
  S  S54  1  0.88945000  0.32539000  0.58416500  1
  S  S55  1  0.15491000  0.44416200  0.59321900  1
  S  S56  1  0.86689700  0.20585500  0.83688300  1
  S  S57  1  0.61055000  0.82539000  0.08416500  1
  S  S58  1  0.88787200  0.87608700  0.94127100  1
  S  S59  1  0.32124400  0.44026000  0.08208700  1
  S  S60  1  0.25546600  0.27251900  0.74313600  1
  S  S61  1  0.04711000  0.40636900  0.11556400  1
  S  S62  1  0.51572700  0.30469300  0.39484700  1
  S  S63  1  0.29651200  0.82401900  0.46414500  1
  S  S64  1  0.08874800  0.42875800  0.39014900  1
  S  S65  1  0.59327500  0.75141700  0.53003700  1
  S  S66  1  0.77648600  0.94327100  0.77752500  1
  S  S67  1  0.45496600  0.90857900  0.78790400  1
  S  S68  1  0.79651200  0.67598100  0.03585500  1
  S  S69  1  0.42901700  0.03761000  0.59847100  1
  S  S70  1  0.31747400  0.24862700  0.30267700  1
  S  S71  1  0.18252600  0.74862700  0.80267700  1
  S  S72  1  0.65491000  0.05583800  0.90678100  1
  S  S73  1  0.13310300  0.79414500  0.16311700  1
  S  S74  1  0.19813600  0.45217600  0.78709100  1
  S  S75  1  0.42959400  0.41259700  0.88695300  1
  S  S76  1  0.48427300  0.69530700  0.60515300  1
  S  S77  1  0.91125200  0.57124200  0.60985100  1
  S  S78  1  0.82124400  0.05974000  0.41791300  1
  S  S79  1  0.68252600  0.75137300  0.69732300  1
  S  S80  1  0.05251300  0.88190200  0.28516000  1
  S  S81  1  0.57792500  0.50591700  0.40753900  1
  S  S82  1  0.92207500  0.00591700  0.90753900  1
  S  S83  1  0.30598000  0.44442500  0.27690800  1
  S  S84  1  0.72351400  0.44327100  0.27752500  1
  S  S85  1  0.91230500  0.80923500  0.58353200  1
  S  S86  1  0.11055000  0.67461000  0.41583500  1
  S  S87  1  0.30101100  0.78115900  0.72834700  1
  S  S88  1  0.69898900  0.21884100  0.27165300  1
  S  S89  1  0.08769500  0.19076500  0.41646800  1
  S  S90  1  0.70348800  0.17598100  0.53585500  1
  S  S91  1  0.67875600  0.55974000  0.91791300  1
  S  S92  1  0.27648600  0.55672900  0.72247500  1
  S  S93  1  0.90672500  0.25141700  0.03003700  1
  S  S94  1  0.54503400  0.09142100  0.21209600  1
  S  S95  1  0.45289000  0.90636900  0.61556400  1
  S  S96  1  0.86437400  0.72616700  0.11567700  1
  S  S97  1  0.25211100  0.06382200  0.72251300  1
  S  S98  1  0.19898900  0.28115900  0.22834700  1
  S  S99  1  0.92959400  0.08740300  0.61304700  1
loop_
_geom_bond_atom_site_label_1
_geom_bond_atom_site_label_2
_geom_bond_distance
_geom_bond_site_symmetry_2
K0 S14 3.287747 1_555
K0 S74 3.340053 1_655
K0 S12 3.358897 1_555
K0 S56 3.393442 1_555
K0 S54 3.394429 1_555
K0 S77 3.436690 1_555
K0 S55 3.443151 1_655
K0 S8 3.570164 1_655
K0 S46 3.737596 1_555
K1 S0 3.173392 1_555
K1 S20 3.187147 1_555
K1 S75 3.261073 1_555
K1 S92 3.338864 1_555
K1 S91 3.384586 1_555
K1 S76 3.421922 1_555
K1 S79 3.620842 1_555
K1 S40 3.674659 1_555
K1 S87 3.783389 1_555
K2 S91 3.282219 1_554
K2 S61 3.425010 1_655
K2 S68 3.433225 1_555
K2 S46 3.445331 1_554
K2 S6 3.447445 1_555
K2 S30 3.600867 1_555
K2 S31 3.721381 1_555
K2 S93 3.782586 1_555
K3 S48 3.299188 1_554
K3 S11 3.379661 1_555
K3 S94 3.409979 1_555
K3 S29 3.491750 1_555
K3 S41 3.531192 1_554
K3 S31 3.585201 1_555
K3 S42 3.612814 1_555
K4 S21 3.320203 1_565
K4 S58 3.360809 1_554
K4 S34 3.423261 1_565
K4 S57 3.423386 1_555
K4 S82 3.438087 1_564
K4 S29 3.574318 1_565
K4 S38 3.666981 1_655
K4 S33 3.723930 1_555
K4 S96 3.735801 1_555
K4 S72 3.792852 1_564
K5 S52 3.343474 1_555
K5 S36 3.355005 1_655
K5 S85 3.402509 1_555
K5 S80 3.465324 1_655
K5 S86 3.500873 1_655
K5 S51 3.582687 1_555
K5 S33 3.584809 1_555
K5 S24 3.657115 1_555
K6 S22 3.320203 1_545
K6 S42 3.360809 1_556
K6 S28 3.423261 1_545
K6 S48 3.423386 1_555
K6 S38 3.438087 1_546
K6 S26 3.574318 1_545
K6 S82 3.666981 1_455
K6 S97 3.723930 1_555
K6 S8 3.735801 1_555
K6 S16 3.792852 1_546
K7 S50 3.343474 1_555
K7 S99 3.355005 1_455
K7 S89 3.402509 1_555
K7 S18 3.465324 1_455
K7 S54 3.500873 1_455
K7 S55 3.582687 1_555
K7 S97 3.584809 1_555
K7 S60 3.657115 1_555
K8 S85 3.173392 1_555
K8 S28 3.187147 1_655
K8 S99 3.261073 1_565
K8 S66 3.338864 1_555
K8 S2 3.384586 1_655
K8 S13 3.421922 1_555
K8 S71 3.620842 1_655
K8 S18 3.674659 1_565
K8 S4 3.783389 1_555
K9 S57 3.299188 1_556
K9 S66 3.379661 1_555
K9 S67 3.409979 1_555
K9 S26 3.491750 1_555
K9 S68 3.531192 1_556
K9 S0 3.585201 1_555
K9 S58 3.612814 1_555
K10 S52 3.320203 1_555
K10 S25 3.360809 1_555
K10 S20 3.423261 1_555
K10 S54 3.423386 1_555
K10 S81 3.438087 1_555
K10 S77 3.574318 1_555
K10 S47 3.666981 1_555
K10 S12 3.723930 1_555
K10 S9 3.735801 1_555
K10 S51 3.792852 1_555
K11 S86 3.299188 1_555
K11 S92 3.379661 1_555
K11 S14 3.409979 1_455
K11 S77 3.491750 1_455
K11 S63 3.531192 1_555
K11 S85 3.585201 1_455
K11 S53 3.612814 1_555
K12 S50 3.320203 1_555
K12 S53 3.360809 1_555
K12 S83 3.423261 1_555
K12 S86 3.423386 1_555
K12 S47 3.438087 1_555
K12 S64 3.574318 1_555
K12 S81 3.666981 1_555
K12 S17 3.723930 1_555
K12 S10 3.735801 1_555
K12 S55 3.792852 1_555
K13 S59 3.282219 1_556
K13 S19 3.425010 1_455
K13 S41 3.433225 1_555
K13 S5 3.445331 1_556
K13 S74 3.447445 1_555
K13 S71 3.600867 1_555
K13 S0 3.721381 1_555
K13 S45 3.782586 1_555
K14 S2 3.282219 1_545
K14 S15 3.425010 1_555
K14 S63 3.433225 1_545
K14 S69 3.445331 1_555
K14 S44 3.447445 1_545
K14 S70 3.600867 1_555
K14 S89 3.721381 1_555
K14 S3 3.782586 1_555
K15 S22 3.343474 1_554
K15 S35 3.355005 1_555
K15 S0 3.402509 1_554
K15 S37 3.465324 1_555
K15 S57 3.500873 1_555
K15 S16 3.582687 1_555
K15 S17 3.584809 1_555
K15 S49 3.657115 1_555
K16 S78 3.282219 1_565
K16 S95 3.425010 1_555
K16 S90 3.433225 1_565
K16 S7 3.445331 1_555
K16 S27 3.447445 1_565
K16 S79 3.600867 1_555
K16 S85 3.721381 1_555
K16 S65 3.782586 1_555
K17 S67 3.287747 1_545
K17 S27 3.340053 1_555
K17 S97 3.358897 1_555
K17 S43 3.393442 1_555
K17 S48 3.394429 1_555
K17 S26 3.436690 1_545
K17 S72 3.443151 1_555
K17 S9 3.570164 1_555
K17 S69 3.737596 1_555
K18 S94 3.287747 1_565
K18 S44 3.340053 1_555
K18 S33 3.358897 1_555
K18 S39 3.393442 1_555
K18 S57 3.394429 1_555
K18 S29 3.436690 1_565
K18 S16 3.443151 1_555
K18 S10 3.570164 1_555
K18 S7 3.737596 1_555
K19 S23 3.287747 1_555
K19 S6 3.340053 1_455
K19 S17 3.358897 1_555
K19 S73 3.393442 1_555
K19 S86 3.394429 1_555
K19 S64 3.436690 1_555
K19 S51 3.443151 1_455
K19 S96 3.570164 1_455
K19 S5 3.737596 1_555
K20 S54 3.299188 1_555
K20 S84 3.379661 1_555
K20 S23 3.409979 1_655
K20 S64 3.491750 1_655
K20 S90 3.531192 1_555
K20 S89 3.585201 1_655
K20 S25 3.612814 1_555
K21 S21 3.343474 1_556
K21 S75 3.355005 1_555
K21 S31 3.402509 1_556
K21 S40 3.465324 1_555
K21 S48 3.500873 1_555
K21 S72 3.582687 1_555
K21 S12 3.584809 1_555
K21 S1 3.657115 1_555
K22 S31 3.173392 1_555
K22 S83 3.187147 1_555
K22 S35 3.261073 1_555
K22 S84 3.338864 1_555
K22 S59 3.384586 1_555
K22 S62 3.421922 1_555
K22 S70 3.620842 1_555
K22 S37 3.674659 1_555
K22 S88 3.783389 1_555
K23 S89 3.173392 1_555
K23 S34 3.187147 1_455
K23 S36 3.261073 1_545
K23 S11 3.338864 1_555
K23 S78 3.384586 1_455
K23 S32 3.421922 1_555
K23 S30 3.620842 1_455
K23 S80 3.674659 1_545
K23 S98 3.783389 1_555
Nb0 S91 2.235340 1_555
Nb0 S19 2.455393 1_555
Nb0 S46 2.460480 1_555
Nb0 S20 2.472128 1_555
Nb0 S12 2.472917 1_555
Nb0 S4 2.601874 1_555
Nb0 S14 3.062812 1_555
Nb1 S2 2.235340 1_555
Nb1 S95 2.455393 1_555
Nb1 S69 2.460480 1_565
Nb1 S28 2.472128 1_555
Nb1 S97 2.472917 1_565
Nb1 S87 2.601874 1_555
Nb1 S67 3.062812 1_555
Nb2 S72 2.231229 1_555
Nb2 S66 2.463023 1_545
Nb2 S27 2.467616 1_555
Nb2 S1 2.504920 1_555
Nb2 S56 2.506002 1_555
Nb2 S82 2.534385 1_555
Nb2 S18 3.012897 1_555
Nb3 S89 2.249877 1_555
Nb3 S23 2.450335 1_555
Nb3 S64 2.472617 1_555
Nb3 S70 2.480778 1_555
Nb3 S98 2.522257 1_555
Nb3 S50 2.536094 1_555
Nb3 S83 2.924734 1_555
Nb4 S55 2.231229 1_555
Nb4 S92 2.463023 1_555
Nb4 S74 2.467616 1_555
Nb4 S60 2.504920 1_555
Nb4 S43 2.506002 1_555
Nb4 S47 2.534385 1_555
Nb4 S40 3.012897 1_555
Nb5 S31 2.249877 1_555
Nb5 S94 2.450335 1_555
Nb5 S29 2.472617 1_555
Nb5 S30 2.480778 1_555
Nb5 S88 2.522257 1_555
Nb5 S21 2.536094 1_555
Nb5 S34 2.924734 1_555
Nb6 S51 2.231229 1_555
Nb6 S84 2.463023 1_555
Nb6 S6 2.467616 1_555
Nb6 S24 2.504920 1_555
Nb6 S39 2.506002 1_555
Nb6 S81 2.534385 1_555
Nb6 S37 3.012897 1_555
Nb7 S85 2.249877 1_555
Nb7 S14 2.450335 1_555
Nb7 S77 2.472617 1_555
Nb7 S79 2.480778 1_555
Nb7 S4 2.522257 1_555
Nb7 S52 2.536094 1_555
Nb7 S20 2.924734 1_555
Nb8 S59 2.235340 1_555
Nb8 S61 2.455393 1_555
Nb8 S5 2.460480 1_555
Nb8 S83 2.472128 1_555
Nb8 S17 2.472917 1_555
Nb8 S98 2.601874 1_555
Nb8 S23 3.062812 1_555
Nb9 S86 2.258140 1_555
Nb9 S36 2.457868 1_555
Nb9 S10 2.461005 1_555
Nb9 S80 2.463967 1_555
Nb9 S63 2.466688 1_555
Nb9 S49 2.577541 1_555
Nb9 S44 2.943662 1_555
Nb10 S16 2.231229 1_555
Nb10 S11 2.463023 1_565
Nb10 S44 2.467616 1_555
Nb10 S49 2.504920 1_555
Nb10 S73 2.506002 1_555
Nb10 S38 2.534385 1_555
Nb10 S80 3.012897 1_555
Nb11 S54 2.258140 1_555
Nb11 S99 2.457868 1_555
Nb11 S9 2.461005 1_555
Nb11 S18 2.463967 1_555
Nb11 S90 2.466688 1_555
Nb11 S1 2.577541 1_555
Nb11 S27 2.943662 1_555
Nb12 S57 2.258140 1_555
Nb12 S35 2.457868 1_555
Nb12 S96 2.461005 1_555
Nb12 S37 2.463967 1_555
Nb12 S68 2.466688 1_555
Nb12 S24 2.577541 1_555
Nb12 S6 2.943662 1_555
Nb13 S78 2.235340 1_555
Nb13 S15 2.455393 1_555
Nb13 S7 2.460480 1_545
Nb13 S34 2.472128 1_555
Nb13 S33 2.472917 1_545
Nb13 S88 2.601874 1_555
Nb13 S94 3.062812 1_555
Nb14 S0 2.249877 1_555
Nb14 S67 2.450335 1_555
Nb14 S26 2.472617 1_555
Nb14 S71 2.480778 1_555
Nb14 S87 2.522257 1_555
Nb14 S22 2.536094 1_555
Nb14 S28 2.924734 1_555
Nb15 S48 2.258140 1_555
Nb15 S75 2.457868 1_555
Nb15 S8 2.461005 1_555
Nb15 S40 2.463967 1_555
Nb15 S41 2.466688 1_555
Nb15 S60 2.577541 1_555
Nb15 S74 2.943662 1_555
S1 S56 2.078393 1_555
S3 S62 2.067489 1_555
S3 S50 2.069776 1_555
S4 S79 2.086654 1_555
S5 S61 2.080705 1_555
S6 S84 2.088353 1_555
S9 S90 2.076381 1_555
S10 S63 2.076381 1_555
S11 S44 2.088353 1_545
S12 S20 2.083909 1_555
S13 S58 2.061718 1_555
S13 S45 2.067489 1_655
S14 S77 2.098313 1_555
S15 S7 2.080705 1_545
S17 S83 2.083909 1_555
S18 S99 2.094151 1_555
S19 S46 2.080705 1_555
S21 S93 2.069776 1_555
S22 S45 2.069776 1_555
S23 S64 2.098313 1_555
S24 S39 2.078393 1_555
S25 S62 2.061718 1_555
S25 S81 2.075996 1_555
S26 S67 2.098313 1_555
S27 S66 2.088353 1_545
S28 S97 2.083909 1_565
S29 S94 2.098313 1_555
S30 S88 2.086654 1_555
S32 S42 2.061718 1_555
S32 S93 2.067489 1_455
S33 S34 2.083909 1_565
S35 S37 2.094151 1_555
S36 S80 2.094151 1_555
S38 S42 2.075996 1_565
S40 S75 2.094151 1_555
S41 S8 2.076381 1_555
S43 S60 2.078393 1_555
S47 S53 2.075996 1_555
S49 S73 2.078393 1_555
S52 S65 2.069776 1_555
S53 S76 2.061718 1_555
S58 S82 2.075996 1_565
S65 S76 2.067489 1_555
S68 S96 2.076381 1_555
S69 S95 2.080705 1_545
S70 S98 2.086654 1_555
S71 S87 2.086654 1_555
S74 S92 2.088353 1_555
