# generated using pymatgen
data_Na2UCl6
_symmetry_space_group_name_H-M   'P 1'
_cell_length_a   12.11616552
_cell_length_b   12.11616552
_cell_length_c   6.26608800
_cell_angle_alpha   90.00000000
_cell_angle_beta   90.00000000
_cell_angle_gamma   119.99999739
_symmetry_Int_Tables_number   1
_chemical_formula_structural   Na2UCl6
_chemical_formula_sum   'Na6 U3 Cl18'
_cell_volume   796.63159759
_cell_formula_units_Z   3
loop_
 _symmetry_equiv_pos_site_id
 _symmetry_equiv_pos_as_xyz
  1  'x, y, z'
loop_
 _atom_site_type_symbol
 _atom_site_label
 _atom_site_symmetry_multiplicity
 _atom_site_fract_x
 _atom_site_fract_y
 _atom_site_fract_z
 _atom_site_occupancy
  Na  Na0  1  0.66044100  0.00000000  0.00000000  1
  Na  Na1  1  0.33955900  0.00000000  0.00000000  1
  Na  Na2  1  0.00000000  0.66044100  0.00000000  1
  Na  Na3  1  0.66044100  0.66044100  0.00000000  1
  Na  Na4  1  0.33955900  0.33955900  0.00000000  1
  Na  Na5  1  0.00000000  0.33955900  0.00000000  1
  U  U0  1  0.66666700  0.33333300  0.50516200  1
  U  U1  1  0.33333300  0.66666700  0.49483800  1
  U  U2  1  0.00000000  0.00000000  0.00000000  1
  Cl  Cl0  1  0.56367800  0.12735600  0.75028200  1
  Cl  Cl1  1  0.77021000  0.22979000  0.26724200  1
  Cl  Cl2  1  0.78917100  0.89458500  0.22744200  1
  Cl  Cl3  1  0.43632200  0.56367800  0.24971800  1
  Cl  Cl4  1  0.77021000  0.54041900  0.26724200  1
  Cl  Cl5  1  0.10541500  0.21082900  0.22744200  1
  Cl  Cl6  1  0.22979000  0.77021000  0.73275800  1
  Cl  Cl7  1  0.56367800  0.43632200  0.75028200  1
  Cl  Cl8  1  0.22979000  0.45958100  0.73275800  1
  Cl  Cl9  1  0.12735600  0.56367800  0.24971800  1
  Cl  Cl10  1  0.21082900  0.10541500  0.77255800  1
  Cl  Cl11  1  0.10541500  0.89458500  0.22744200  1
  Cl  Cl12  1  0.54041900  0.77021000  0.73275800  1
  Cl  Cl13  1  0.43632200  0.87264400  0.24971800  1
  Cl  Cl14  1  0.89458500  0.10541500  0.77255800  1
  Cl  Cl15  1  0.87264400  0.43632200  0.75028200  1
  Cl  Cl16  1  0.45958100  0.22979000  0.26724200  1
  Cl  Cl17  1  0.89458500  0.78917100  0.77255800  1
loop_
_geom_bond_atom_site_label_1
_geom_bond_atom_site_label_2
_geom_bond_distance
_geom_bond_site_symmetry_2
Cl0 U0 2.651477 1_555
Cl0 Na0 2.830744 1_556
Cl0 Na1 2.830744 1_556
Cl1 U0 2.635187 1_555
Cl1 Na5 2.936279 1_655
Cl1 Na0 2.936279 1_555
Cl2 U2 2.631536 1_665
Cl2 Na3 2.843797 1_555
Cl2 Na0 2.843806 1_565
Cl3 U1 2.651485 1_555
Cl3 Na3 2.830744 1_555
Cl3 Na4 2.830744 1_555
Cl4 U0 2.635187 1_555
Cl4 Na2 2.936279 1_655
Cl4 Na3 2.936287 1_555
Cl5 U2 2.631536 1_555
Cl5 Na4 2.843797 1_555
Cl5 Na5 2.843806 1_555
Cl6 U1 2.635187 1_555
Cl6 Na1 2.936279 1_566
Cl6 Na2 2.936279 1_556
Cl7 U0 2.651485 1_555
Cl7 Na3 2.830744 1_556
Cl7 Na4 2.830744 1_556
Cl8 U1 2.635187 1_555
Cl8 Na5 2.936279 1_556
Cl8 Na4 2.936287 1_556
Cl9 U1 2.651477 1_555
Cl9 Na2 2.830744 1_555
Cl9 Na5 2.830744 1_555
Cl10 U2 2.631536 1_556
Cl10 Na4 2.843797 1_556
Cl10 Na1 2.843806 1_556
Cl11 U2 2.631545 1_565
Cl11 Na2 2.843797 1_555
Cl11 Na1 2.843797 1_565
Cl12 U1 2.635187 1_555
Cl12 Na0 2.936279 1_566
Cl12 Na3 2.936287 1_556
Cl13 U1 2.651477 1_555
Cl13 Na1 2.830744 1_565
Cl13 Na0 2.830744 1_565
Cl14 U2 2.631545 1_656
Cl14 Na0 2.843797 1_556
Cl14 Na5 2.843797 1_656
Cl15 U0 2.651477 1_555
Cl15 Na5 2.830744 1_656
Cl15 Na2 2.830744 1_656
Cl16 U0 2.635187 1_555
Cl16 Na1 2.936279 1_555
Cl16 Na4 2.936287 1_555
Cl17 U2 2.631536 1_666
Cl17 Na3 2.843797 1_556
Cl17 Na2 2.843806 1_656
