# generated using pymatgen
data_EuI2
_symmetry_space_group_name_H-M   'P 1'
_cell_length_a   7.89723313
_cell_length_b   8.22808141
_cell_length_c   15.23624735
_cell_angle_alpha   90.00023250
_cell_angle_beta   90.00018316
_cell_angle_gamma   90.00085541
_symmetry_Int_Tables_number   1
_chemical_formula_structural   EuI2
_chemical_formula_sum   'Eu8 I16'
_cell_volume   990.03729132
_cell_formula_units_Z   8
loop_
 _symmetry_equiv_pos_site_id
 _symmetry_equiv_pos_as_xyz
  1  'x, y, z'
loop_
 _atom_site_type_symbol
 _atom_site_label
 _atom_site_symmetry_multiplicity
 _atom_site_fract_x
 _atom_site_fract_y
 _atom_site_fract_z
 _atom_site_occupancy
  Eu  Eu0  1  0.22355205  0.44828858  0.60926844  1
  Eu  Eu1  1  0.27644554  0.94828638  0.39073272  1
  Eu  Eu2  1  0.77644854  0.55171220  0.39073157  1
  Eu  Eu3  1  0.22355433  0.94828696  0.89073098  1
  Eu  Eu4  1  0.72355495  0.05171305  0.60926750  1
  Eu  Eu5  1  0.72355234  0.55171186  0.89073324  1
  Eu  Eu6  1  0.27644718  0.44828772  0.10926651  1
  Eu  Eu7  1  0.77644509  0.05171363  0.10926910  1
  I  I0  1  0.66217883  0.39377692  0.20262248  1
  I  I1  1  0.99391943  0.23132287  0.46584696  1
  I  I2  1  0.50607386  0.23129536  0.96584626  1
  I  I3  1  0.50607376  0.73130244  0.53415452  1
  I  I4  1  0.16219773  0.10623180  0.20263754  1
  I  I5  1  0.16219007  0.60621434  0.29736579  1
  I  I6  1  0.83781064  0.39378712  0.70263389  1
  I  I7  1  0.99392107  0.73133293  0.03415478  1
  I  I8  1  0.49392675  0.26869775  0.46584572  1
  I  I9  1  0.49392565  0.76870420  0.03415348  1
  I  I10  1  0.33781236  0.10623975  0.70262809  1
  I  I11  1  0.66218732  0.89376023  0.29737201  1
  I  I12  1  0.00608016  0.76867637  0.53415315  1
  I  I13  1  0.00607869  0.26866716  0.96584559  1
  I  I14  1  0.33782091  0.60622315  0.79737721  1
  I  I15  1  0.83780275  0.89376723  0.79736245  1
loop_
_geom_bond_atom_site_label_1
_geom_bond_atom_site_label_2
_geom_bond_distance
_geom_bond_site_symmetry_2
Eu0 I14 3.273732 1_555
Eu0 I10 3.280025 1_555
Eu0 I12 3.347977 1_555
Eu0 I1 3.354190 1_455
Eu0 I6 3.391842 1_455
Eu0 I8 3.393817 1_555
Eu0 I3 3.422032 1_555
Eu1 I4 3.273560 1_565
Eu1 I5 3.280193 1_555
Eu1 I8 3.348108 1_565
Eu1 I3 3.354293 1_555
Eu1 I11 3.391852 1_555
Eu1 I12 3.393797 1_555
Eu1 I1 3.422222 1_465
Eu2 I0 3.273741 1_555
Eu2 I11 3.280021 1_555
Eu2 I1 3.347984 1_555
Eu2 I12 3.354180 1_655
Eu2 I5 3.391846 1_655
Eu2 I3 3.393818 1_555
Eu2 I8 3.422037 1_555
Eu3 I10 3.273704 1_565
Eu3 I14 3.280098 1_555
Eu3 I13 3.347936 1_565
Eu3 I7 3.354182 1_456
Eu3 I15 3.391944 1_455
Eu3 I9 3.393768 1_556
Eu3 I2 3.421986 1_565
Eu4 I15 3.273559 1_545
Eu4 I6 3.280205 1_555
Eu4 I3 3.348103 1_545
Eu4 I8 3.354296 1_555
Eu4 I10 3.391857 1_555
Eu4 I1 3.393793 1_555
Eu4 I12 3.422219 1_645
Eu5 I6 3.273567 1_555
Eu5 I15 3.280103 1_555
Eu5 I2 3.348141 1_555
Eu5 I9 3.354306 1_556
Eu5 I14 3.391726 1_555
Eu5 I7 3.393848 1_556
Eu5 I13 3.422262 1_655
Eu6 I5 3.273570 1_555
Eu6 I4 3.280106 1_555
Eu6 I9 3.348141 1_555
Eu6 I2 3.354306 1_554
Eu6 I0 3.391726 1_555
Eu6 I13 3.393838 1_554
Eu6 I7 3.422260 1_455
Eu7 I11 3.273706 1_545
Eu7 I0 3.280091 1_555
Eu7 I7 3.347939 1_545
Eu7 I13 3.354178 1_654
Eu7 I4 3.391949 1_655
Eu7 I2 3.393767 1_554
Eu7 I9 3.421993 1_545
