# generated using pymatgen
data_Fe12PbO19
_symmetry_space_group_name_H-M   'P 1'
_cell_length_a   6.00795058
_cell_length_b   6.00795058
_cell_length_c   23.35515800
_cell_angle_alpha   90.00000000
_cell_angle_beta   90.00000000
_cell_angle_gamma   120.00000644
_symmetry_Int_Tables_number   1
_chemical_formula_structural   Fe12PbO19
_chemical_formula_sum   'Fe24 Pb2 O38'
_cell_volume   730.07271373
_cell_formula_units_Z   2
loop_
 _symmetry_equiv_pos_site_id
 _symmetry_equiv_pos_as_xyz
  1  'x, y, z'
loop_
 _atom_site_type_symbol
 _atom_site_label
 _atom_site_symmetry_multiplicity
 _atom_site_fract_x
 _atom_site_fract_y
 _atom_site_fract_z
 _atom_site_occupancy
  Fe  Fe0  1  0.33621200  0.16810600  0.39077400  1
  Fe  Fe1  1  0.66666700  0.33333300  0.69091100  1
  Fe  Fe2  1  0.66378800  0.83189400  0.60922600  1
  Fe  Fe3  1  0.83189400  0.16810600  0.10922600  1
  Fe  Fe4  1  0.83189400  0.66378800  0.39077400  1
  Fe  Fe5  1  0.66666700  0.33333300  0.97207100  1
  Fe  Fe6  1  0.16810600  0.83189400  0.60922600  1
  Fe  Fe7  1  0.33333300  0.66666700  0.47207100  1
  Fe  Fe8  1  0.16810600  0.33621200  0.60922600  1
  Fe  Fe9  1  0.33621200  0.16810600  0.10922600  1
  Fe  Fe10  1  0.33333300  0.66666700  0.30908900  1
  Fe  Fe11  1  0.66666700  0.33333300  0.80908900  1
  Fe  Fe12  1  0.16810600  0.33621200  0.89077400  1
  Fe  Fe13  1  0.00000000  0.00000000  0.50000000  1
  Fe  Fe14  1  0.66666700  0.33333300  0.52792900  1
  Fe  Fe15  1  0.33333300  0.66666700  0.02792900  1
  Fe  Fe16  1  0.83189400  0.16810600  0.39077400  1
  Fe  Fe17  1  0.83189400  0.66378800  0.10922600  1
  Fe  Fe18  1  0.66378800  0.83189400  0.89077400  1
  Fe  Fe19  1  0.00000000  0.00000000  0.75000000  1
  Fe  Fe20  1  0.16810600  0.83189400  0.89077400  1
  Fe  Fe21  1  0.33333300  0.66666700  0.19091100  1
  Fe  Fe22  1  0.00000000  0.00000000  0.00000000  1
  Fe  Fe23  1  0.00000000  0.00000000  0.25000000  1
  Pb  Pb0  1  0.66666700  0.33333300  0.25000000  1
  Pb  Pb1  1  0.33333300  0.66666700  0.75000000  1
  O  O0  1  0.84472400  0.68944800  0.55291600  1
  O  O1  1  0.00989300  0.50494700  0.65057400  1
  O  O2  1  0.49505300  0.50494700  0.84942600  1
  O  O3  1  0.84472400  0.15527600  0.55291600  1
  O  O4  1  0.66666700  0.33333300  0.05519600  1
  O  O5  1  0.50494700  0.49505300  0.34942600  1
  O  O6  1  0.63384700  0.81692400  0.25000000  1
  O  O7  1  0.49505300  0.99010700  0.65057400  1
  O  O8  1  0.36615300  0.18307600  0.75000000  1
  O  O9  1  0.31055200  0.15527600  0.94708400  1
  O  O10  1  0.31055200  0.15527600  0.55291600  1
  O  O11  1  0.68944800  0.84472400  0.05291600  1
  O  O12  1  0.15527600  0.31055200  0.05291600  1
  O  O13  1  0.50494700  0.00989300  0.34942600  1
  O  O14  1  0.33333300  0.66666700  0.55519600  1
  O  O15  1  0.18307600  0.36615300  0.25000000  1
  O  O16  1  0.00000000  0.00000000  0.84792200  1
  O  O17  1  0.18307600  0.81692400  0.25000000  1
  O  O18  1  0.00000000  0.00000000  0.34792200  1
  O  O19  1  0.84472400  0.15527600  0.94708400  1
  O  O20  1  0.50494700  0.00989300  0.15057400  1
  O  O21  1  0.00989300  0.50494700  0.84942600  1
  O  O22  1  0.81692400  0.18307600  0.75000000  1
  O  O23  1  0.00000000  0.00000000  0.65207800  1
  O  O24  1  0.66666700  0.33333300  0.44480400  1
  O  O25  1  0.33333300  0.66666700  0.94480400  1
  O  O26  1  0.50494700  0.49505300  0.15057400  1
  O  O27  1  0.49505300  0.50494700  0.65057400  1
  O  O28  1  0.81692400  0.63384700  0.75000000  1
  O  O29  1  0.99010700  0.49505300  0.15057400  1
  O  O30  1  0.68944800  0.84472400  0.44708400  1
  O  O31  1  0.49505300  0.99010700  0.84942600  1
  O  O32  1  0.15527600  0.84472400  0.44708400  1
  O  O33  1  0.15527600  0.31055200  0.44708400  1
  O  O34  1  0.15527600  0.84472400  0.05291600  1
  O  O35  1  0.00000000  0.00000000  0.15207800  1
  O  O36  1  0.99010700  0.49505300  0.34942600  1
  O  O37  1  0.84472400  0.68944800  0.94708400  1
loop_
_geom_bond_atom_site_label_1
_geom_bond_atom_site_label_2
_geom_bond_distance
_geom_bond_site_symmetry_2
Fe0 O5 1.956363 1_555
Fe0 O13 1.956367 1_555
Fe0 O18 2.015382 1_555
Fe0 O24 2.132738 1_555
Fe0 O32 2.138684 1_545
Fe0 O33 2.138684 1_555
Fe1 O1 2.019073 1_655
Fe1 O7 2.019073 1_545
Fe1 O27 2.019082 1_555
Fe1 O28 2.085495 1_555
Fe1 O8 2.085495 1_555
Fe1 O22 2.085495 1_555
Fe2 O27 1.956363 1_555
Fe2 O7 1.956367 1_555
Fe2 O23 2.015382 1_665
Fe2 O14 2.132738 1_555
Fe2 O3 2.138684 1_565
Fe2 O0 2.138684 1_555
Fe3 O29 1.956363 1_555
Fe3 O20 1.956363 1_555
Fe3 O35 2.015382 1_655
Fe3 O4 2.132734 1_555
Fe3 O12 2.138684 1_655
Fe3 O11 2.138684 1_545
Fe4 O5 1.956363 1_555
Fe4 O36 1.956367 1_555
Fe4 O18 2.015382 1_665
Fe4 O24 2.132738 1_555
Fe4 O32 2.138684 1_655
Fe4 O30 2.138684 1_555
Fe5 O4 1.941398 1_556
Fe5 O19 1.942603 1_555
Fe5 O37 1.942607 1_555
Fe5 O9 1.942607 1_555
Fe6 O7 1.956363 1_555
Fe6 O1 1.956363 1_555
Fe6 O23 2.015382 1_565
Fe6 O14 2.132734 1_555
Fe6 O10 2.138684 1_565
Fe6 O0 2.138684 1_455
Fe7 O14 1.941398 1_555
Fe7 O32 1.942603 1_555
Fe7 O30 1.942607 1_555
Fe7 O33 1.942607 1_555
Fe8 O27 1.956363 1_555
Fe8 O1 1.956367 1_555
Fe8 O23 2.015382 1_555
Fe8 O14 2.132738 1_555
Fe8 O3 2.138684 1_455
Fe8 O10 2.138684 1_555
Fe9 O26 1.956363 1_555
Fe9 O20 1.956367 1_555
Fe9 O35 2.015382 1_555
Fe9 O4 2.132738 1_555
Fe9 O34 2.138684 1_545
Fe9 O12 2.138684 1_555
Fe10 O13 2.019073 1_565
Fe10 O36 2.019073 1_455
Fe10 O5 2.019082 1_555
Fe10 O6 2.085495 1_555
Fe10 O15 2.085495 1_555
Fe10 O17 2.085495 1_555
Fe11 O21 2.019073 1_655
Fe11 O31 2.019073 1_545
Fe11 O2 2.019082 1_555
Fe11 O28 2.085495 1_555
Fe11 O8 2.085495 1_555
Fe11 O22 2.085495 1_555
Fe12 O2 1.956363 1_555
Fe12 O21 1.956367 1_555
Fe12 O16 2.015382 1_555
Fe12 O25 2.132738 1_555
Fe12 O19 2.138684 1_455
Fe12 O9 2.138684 1_555
Fe13 O10 2.034259 1_555
Fe13 O0 2.034259 1_445
Fe13 O30 2.034259 1_445
Fe13 O33 2.034259 1_555
Fe13 O3 2.034259 1_455
Fe13 O32 2.034259 1_545
Fe14 O24 1.941398 1_555
Fe14 O3 1.942603 1_555
Fe14 O0 1.942607 1_555
Fe14 O10 1.942607 1_555
Fe15 O25 1.941398 1_554
Fe15 O34 1.942603 1_555
Fe15 O11 1.942607 1_555
Fe15 O12 1.942607 1_555
Fe16 O36 1.956363 1_555
Fe16 O13 1.956363 1_555
Fe16 O18 2.015382 1_655
Fe16 O24 2.132734 1_555
Fe16 O30 2.138684 1_545
Fe16 O33 2.138684 1_655
Fe17 O26 1.956363 1_555
Fe17 O29 1.956367 1_555
Fe17 O35 2.015382 1_665
Fe17 O4 2.132738 1_555
Fe17 O34 2.138684 1_655
Fe17 O11 2.138684 1_555
Fe18 O2 1.956363 1_555
Fe18 O31 1.956367 1_555
Fe18 O16 2.015382 1_665
Fe18 O25 2.132738 1_555
Fe18 O19 2.138684 1_565
Fe18 O37 2.138684 1_555
Fe19 O22 1.905103 1_455
Fe19 O8 1.905108 1_555
Fe19 O28 1.905108 1_445
Fe19 O16 2.286984 1_555
Fe19 O23 2.286984 1_555
Fe20 O31 1.956363 1_555
Fe20 O21 1.956363 1_555
Fe20 O16 2.015382 1_565
Fe20 O25 2.132734 1_555
Fe20 O9 2.138684 1_565
Fe20 O37 2.138684 1_455
Fe21 O20 2.019073 1_565
Fe21 O29 2.019073 1_455
Fe21 O26 2.019082 1_555
Fe21 O6 2.085495 1_555
Fe21 O15 2.085495 1_555
Fe21 O17 2.085495 1_555
Fe22 O11 2.034259 1_445
Fe22 O12 2.034259 1_555
Fe22 O37 2.034259 1_444
Fe22 O9 2.034259 1_554
Fe22 O34 2.034259 1_545
Fe22 O19 2.034259 1_454
Fe23 O17 1.905103 1_545
Fe23 O15 1.905108 1_555
Fe23 O6 1.905108 1_445
Fe23 O18 2.286984 1_555
Fe23 O35 2.286984 1_555
O1 Pb1 2.867795 1_555
O2 Pb1 2.867795 1_555
O5 Pb0 2.867795 1_555
O7 Pb1 2.867795 1_555
O13 Pb0 2.867795 1_555
O20 Pb0 2.867795 1_555
O21 Pb1 2.867795 1_555
O26 Pb0 2.867795 1_555
O27 Pb1 2.867795 1_555
O29 Pb0 2.867795 1_555
O31 Pb1 2.867795 1_555
O36 Pb0 2.867795 1_555
