# generated using pymatgen
data_K2VPO6
_symmetry_space_group_name_H-M   'P 1'
_cell_length_a   13.63017300
_cell_length_b   7.01653100
_cell_length_c   8.30956206
_cell_angle_alpha   59.58528917
_cell_angle_beta   90.00000000
_cell_angle_gamma   90.00000000
_symmetry_Int_Tables_number   1
_chemical_formula_structural   K2VPO6
_chemical_formula_sum   'K8 V4 P4 O24'
_cell_volume   685.33434867
_cell_formula_units_Z   4
loop_
 _symmetry_equiv_pos_site_id
 _symmetry_equiv_pos_as_xyz
  1  'x, y, z'
loop_
 _atom_site_type_symbol
 _atom_site_label
 _atom_site_symmetry_multiplicity
 _atom_site_fract_x
 _atom_site_fract_y
 _atom_site_fract_z
 _atom_site_occupancy
  K  K0  1  0.58155100  0.28325600  0.41466600  1
  K  K1  1  0.63315200  0.08800400  0.05206300  1
  K  K2  1  0.41844900  0.71674400  0.58533400  1
  K  K3  1  0.08155100  0.71674400  0.08533400  1
  K  K4  1  0.91844900  0.28325600  0.91466600  1
  K  K5  1  0.36684800  0.91199600  0.94793700  1
  K  K6  1  0.86684800  0.08800400  0.55206300  1
  K  K7  1  0.13315200  0.91199600  0.44793700  1
  V  V0  1  0.20082000  0.39647000  0.89969200  1
  V  V1  1  0.79918000  0.60353000  0.10030800  1
  V  V2  1  0.70082000  0.60353000  0.60030800  1
  V  V3  1  0.29918000  0.39647000  0.39969200  1
  P  P0  1  0.62246300  0.77180100  0.80193300  1
  P  P1  1  0.87753700  0.77180100  0.30193300  1
  P  P2  1  0.37753700  0.22819900  0.19806700  1
  P  P3  1  0.12246300  0.22819900  0.69806700  1
  O  O0  1  0.52977500  0.90539000  0.76751300  1
  O  O1  1  0.97022500  0.90539000  0.26751300  1
  O  O2  1  0.67368400  0.73417600  0.98400900  1
  O  O3  1  0.76251600  0.33861900  0.20650400  1
  O  O4  1  0.17368400  0.26582400  0.51599100  1
  O  O5  1  0.32631600  0.26582400  0.01599100  1
  O  O6  1  0.37306700  0.34967100  0.57510000  1
  O  O7  1  0.39440900  0.45535100  0.19170900  1
  O  O8  1  0.82631600  0.73417600  0.48400900  1
  O  O9  1  0.30374600  0.12288900  0.36623200  1
  O  O10  1  0.87306700  0.65032900  0.92490000  1
  O  O11  1  0.60559100  0.54464900  0.80829100  1
  O  O12  1  0.26251600  0.66138100  0.29349600  1
  O  O13  1  0.23748400  0.66138100  0.79349600  1
  O  O14  1  0.19625400  0.12288900  0.86623200  1
  O  O15  1  0.80374600  0.87711100  0.13376800  1
  O  O16  1  0.69625400  0.87711100  0.63376800  1
  O  O17  1  0.89440900  0.54464900  0.30829100  1
  O  O18  1  0.10559100  0.45535100  0.69170900  1
  O  O19  1  0.02977500  0.09461000  0.73248700  1
  O  O20  1  0.12693300  0.34967100  0.07510000  1
  O  O21  1  0.62693300  0.65032900  0.42490000  1
  O  O22  1  0.47022500  0.09461000  0.23248700  1
  O  O23  1  0.73748400  0.33861900  0.70650400  1
loop_
_geom_bond_atom_site_label_1
_geom_bond_atom_site_label_2
_geom_bond_distance
_geom_bond_site_symmetry_2
K0 O21 2.691696 1_555
K0 O0 2.872842 1_545
K0 O22 2.893961 1_555
K0 O3 2.923455 1_555
K0 O16 2.937130 1_545
K0 O7 3.021894 1_555
K0 O6 3.270861 1_555
K1 O15 2.653307 1_545
K1 O22 2.692927 1_555
K1 O11 2.817603 1_554
K1 O2 2.865314 1_544
K1 O23 2.871783 1_554
K1 O21 3.066443 1_545
K1 O3 3.183248 1_555
K2 O6 2.691696 1_555
K2 O22 2.872842 1_565
K2 O0 2.893961 1_555
K2 O13 2.923455 1_555
K2 O9 2.937130 1_565
K2 O11 3.021894 1_555
K2 O21 3.270861 1_555
K3 O20 2.691696 1_555
K3 O19 2.872842 1_564
K3 O1 2.893961 1_455
K3 O12 2.923455 1_555
K3 O14 2.937130 1_564
K3 O17 3.021894 1_455
K3 O10 3.270861 1_454
K4 O10 2.691696 1_555
K4 O1 2.872842 1_546
K4 O19 2.893961 1_655
K4 O23 2.923455 1_555
K4 O15 2.937130 1_546
K4 O18 3.021894 1_655
K4 O20 3.270861 1_656
K5 O14 2.653307 1_565
K5 O0 2.692927 1_555
K5 O7 2.817603 1_556
K5 O5 2.865314 1_566
K5 O12 2.871783 1_556
K5 O6 3.066443 1_565
K5 O13 3.183248 1_555
K6 O16 2.653307 1_545
K6 O19 2.692927 1_655
K6 O17 2.817603 1_555
K6 O8 2.865314 1_545
K6 O3 2.871783 1_555
K6 O10 3.066443 1_545
K6 O23 3.183248 1_555
K7 O9 2.653307 1_565
K7 O1 2.692927 1_455
K7 O18 2.817603 1_555
K7 O4 2.865314 1_565
K7 O13 2.871783 1_555
K7 O20 3.066443 1_565
K7 O12 3.183248 1_555
O0 P0 1.511626 1_555
O1 P1 1.511626 1_555
O2 P0 1.562618 1_555
O2 V1 1.950176 1_556
O3 V1 1.680075 1_555
O4 P3 1.562618 1_555
O4 V3 1.950176 1_555
O5 P2 1.562618 1_555
O5 V0 1.950176 1_554
O6 V3 1.661911 1_555
O7 P2 1.584512 1_555
O7 V3 2.029620 1_555
O8 P1 1.562618 1_555
O8 V2 1.950176 1_555
O9 P2 1.569968 1_555
O9 V3 2.075186 1_555
O10 V1 1.661911 1_556
O11 P0 1.584512 1_555
O11 V2 2.029620 1_555
O12 V3 1.680075 1_555
O13 V0 1.680075 1_555
O14 P3 1.569968 1_555
O14 V0 2.075186 1_555
O15 P1 1.569968 1_555
O15 V1 2.075186 1_555
O16 P0 1.569968 1_555
O16 V2 2.075186 1_555
O17 P1 1.584512 1_555
O17 V1 2.029620 1_555
O18 P3 1.584512 1_555
O18 V0 2.029620 1_555
O19 P3 1.511626 1_555
O20 V0 1.661911 1_554
O21 V2 1.661911 1_555
O22 P2 1.511626 1_555
O23 V2 1.680075 1_555
