# generated using pymatgen
data_Dy12Co7
_symmetry_space_group_name_H-M   'P 1'
_cell_length_a   11.28076955
_cell_length_b   8.20328714
_cell_length_c   11.16987440
_cell_angle_alpha   54.73806553
_cell_angle_beta   90.00000000
_cell_angle_gamma   90.00000000
_symmetry_Int_Tables_number   1
_chemical_formula_structural   Dy12Co7
_chemical_formula_sum   'Dy24 Co14'
_cell_volume   844.00002600
_cell_formula_units_Z   2
loop_
 _symmetry_equiv_pos_site_id
 _symmetry_equiv_pos_as_xyz
  1  'x, y, z'
loop_
 _atom_site_type_symbol
 _atom_site_label
 _atom_site_symmetry_multiplicity
 _atom_site_fract_x
 _atom_site_fract_y
 _atom_site_fract_z
 _atom_site_occupancy
  Dy  Dy0  1  0.83968350  0.49869817  0.66166612  1
  Dy  Dy1  1  0.49737224  0.83390095  0.85950327  1
  Dy  Dy2  1  0.66031650  0.49869817  0.16166612  1
  Dy  Dy3  1  0.80003608  0.75072193  0.82846280  1
  Dy  Dy4  1  0.57039184  0.76909506  0.58698679  1
  Dy  Dy5  1  0.93179589  0.26729121  0.30471080  1
  Dy  Dy6  1  0.56820411  0.26729121  0.80471080  1
  Dy  Dy7  1  0.29366715  0.76493821  0.46249716  1
  Dy  Dy8  1  0.30003608  0.24927807  0.67153720  1
  Dy  Dy9  1  0.43179589  0.73270879  0.19528920  1
  Dy  Dy10  1  0.42960816  0.23090494  0.41301321  1
  Dy  Dy11  1  0.50262776  0.16609905  0.14049673  1
  Dy  Dy12  1  0.33968350  0.50130183  0.83833388  1
  Dy  Dy13  1  0.00262776  0.83390095  0.35950327  1
  Dy  Dy14  1  0.06820411  0.73270879  0.69528920  1
  Dy  Dy15  1  0.92960816  0.76909506  0.08698679  1
  Dy  Dy16  1  0.20633285  0.76493821  0.96249716  1
  Dy  Dy17  1  0.79366715  0.23506179  0.03750284  1
  Dy  Dy18  1  0.70633285  0.23506179  0.53750284  1
  Dy  Dy19  1  0.99737224  0.16609905  0.64049673  1
  Dy  Dy20  1  0.69996392  0.75072193  0.32846280  1
  Dy  Dy21  1  0.19996392  0.24927807  0.17153720  1
  Dy  Dy22  1  0.16031650  0.50130183  0.33833388  1
  Dy  Dy23  1  0.07039184  0.23090494  0.91301321  1
  Co  Co0  1  0.50000000  0.50000000  0.50000000  1
  Co  Co1  1  0.32800533  0.08837254  0.97737115  1
  Co  Co2  1  0.19095147  0.90949091  0.15049700  1
  Co  Co3  1  0.82800533  0.91162746  0.52262885  1
  Co  Co4  1  0.39927816  0.49315934  0.10147399  1
  Co  Co5  1  0.10072184  0.49315934  0.60147399  1
  Co  Co6  1  0.67199467  0.91162746  0.02262885  1
  Co  Co7  1  0.60072184  0.50684066  0.89852601  1
  Co  Co8  1  -0.00000000  0.50000000  -0.00000000  1
  Co  Co9  1  0.69095147  0.09050909  0.34950300  1
  Co  Co10  1  0.17199467  0.08837254  0.47737115  1
  Co  Co11  1  0.30904853  0.90949091  0.65049700  1
  Co  Co12  1  0.89927816  0.50684066  0.39852601  1
  Co  Co13  1  0.80904853  0.09050909  0.84950300  1
loop_
_geom_bond_atom_site_label_1
_geom_bond_atom_site_label_2
_geom_bond_distance
_geom_bond_site_symmetry_2
Co0 Dy6 2.884177 1_555
Co0 Dy9 2.884177 1_555
Co0 Dy20 2.905106 1_555
Co0 Dy8 2.905106 1_555
Co0 Dy10 2.987310 1_555
Co0 Dy4 2.987310 1_555
Co0 Dy18 3.043924 1_555
Co0 Dy7 3.043924 1_555
Co1 Co2 2.237574 1_546
Co1 Dy9 2.758311 1_546
Co1 Dy12 2.798110 1_555
Co1 Dy8 2.881904 1_555
Co1 Dy11 2.991390 1_556
Co1 Dy23 3.059195 1_555
Co1 Dy16 3.075726 1_545
Co1 Dy6 3.153953 1_555
Co2 Dy22 2.760803 1_555
Co2 Dy23 2.786129 1_564
Co2 Dy21 2.931106 1_565
Co2 Dy13 2.945588 1_555
Co2 Dy16 2.953157 1_554
Co2 Dy9 2.982822 1_555
Co2 Dy7 3.181578 1_555
Co2 Dy15 3.385949 1_455
Co3 Co9 2.237574 1_565
Co3 Dy5 2.758311 1_565
Co3 Dy0 2.798110 1_555
Co3 Dy3 2.881904 1_555
Co3 Dy13 2.991390 1_655
Co3 Dy4 3.059195 1_555
Co3 Dy18 3.075726 1_565
Co3 Dy14 3.153953 1_655
Co4 Dy11 2.719792 1_555
Co4 Dy9 2.733478 1_555
Co4 Dy1 2.760375 1_554
Co4 Dy21 2.804027 1_555
Co4 Dy16 2.849866 1_554
Co4 Dy10 2.865440 1_555
Co4 Dy12 2.978065 1_554
Co4 Dy2 3.026667 1_555
Co5 Dy19 2.719792 1_455
Co5 Dy14 2.733478 1_555
Co5 Dy13 2.760375 1_555
Co5 Dy8 2.804027 1_555
Co5 Dy7 2.849866 1_555
Co5 Dy23 2.865440 1_555
Co5 Dy22 2.978065 1_555
Co5 Dy0 3.026667 1_455
Co6 Dy6 2.758311 1_564
Co6 Dy2 2.798110 1_555
Co6 Dy20 2.881904 1_555
Co6 Dy1 2.991390 1_554
Co6 Dy15 3.059195 1_555
Co6 Dy17 3.075726 1_565
Co6 Dy9 3.153953 1_555
Co7 Dy1 2.719792 1_555
Co7 Dy6 2.733478 1_555
Co7 Dy11 2.760375 1_556
Co7 Dy3 2.804027 1_555
Co7 Dy17 2.849866 1_556
Co7 Dy4 2.865440 1_555
Co7 Dy2 2.978065 1_556
Co7 Dy12 3.026667 1_555
Co8 Dy14 2.884177 1_554
Co8 Dy5 2.884177 1_455
Co8 Dy3 2.905106 1_454
Co8 Dy21 2.905106 1_555
Co8 Dy23 2.987310 1_554
Co8 Dy15 2.987310 1_455
Co8 Dy16 3.043924 1_554
Co8 Dy17 3.043924 1_455
Co9 Dy2 2.760803 1_555
Co9 Dy4 2.786129 1_545
Co9 Dy20 2.931106 1_545
Co9 Dy11 2.945588 1_555
Co9 Dy18 2.953157 1_555
Co9 Dy5 2.982822 1_555
Co9 Dy17 3.181578 1_555
Co9 Dy10 3.385949 1_555
Co10 Co11 2.237574 1_545
Co10 Dy14 2.758311 1_545
Co10 Dy22 2.798110 1_555
Co10 Dy21 2.881904 1_555
Co10 Dy19 2.991390 1_455
Co10 Dy10 3.059195 1_555
Co10 Dy7 3.075726 1_545
Co10 Dy5 3.153953 1_455
Co11 Dy12 2.760803 1_555
Co11 Dy10 2.786129 1_565
Co11 Dy8 2.931106 1_565
Co11 Dy1 2.945588 1_555
Co11 Dy7 2.953157 1_555
Co11 Dy14 2.982822 1_555
Co11 Dy16 3.181578 1_555
Co11 Dy4 3.385949 1_555
Co12 Dy13 2.719792 1_655
Co12 Dy5 2.733478 1_555
Co12 Dy19 2.760375 1_555
Co12 Dy20 2.804027 1_555
Co12 Dy18 2.849866 1_555
Co12 Dy15 2.865440 1_555
Co12 Dy0 2.978065 1_555
Co12 Dy22 3.026667 1_655
Co13 Co6 2.237574 1_546
Co13 Dy0 2.760803 1_555
Co13 Dy15 2.786129 1_546
Co13 Dy3 2.931106 1_545
Co13 Dy19 2.945588 1_555
Co13 Dy17 2.953157 1_556
Co13 Dy6 2.982822 1_555
Co13 Dy18 3.181578 1_555
Co13 Dy23 3.385949 1_655
