# generated using pymatgen
data_Sr(ReO3)3
_symmetry_space_group_name_H-M   'P 1'
_cell_length_a   9.30350200
_cell_length_b   9.33391900
_cell_length_c   9.37132400
_cell_angle_alpha   90.00000000
_cell_angle_beta   90.00000000
_cell_angle_gamma   90.00000000
_symmetry_Int_Tables_number   1
_chemical_formula_structural   Sr(ReO3)3
_chemical_formula_sum   'Sr4 Re12 O36'
_cell_volume   813.78829006
_cell_formula_units_Z   4
loop_
 _symmetry_equiv_pos_site_id
 _symmetry_equiv_pos_as_xyz
  1  'x, y, z'
loop_
 _atom_site_type_symbol
 _atom_site_label
 _atom_site_symmetry_multiplicity
 _atom_site_fract_x
 _atom_site_fract_y
 _atom_site_fract_z
 _atom_site_occupancy
  Sr  Sr0  1  0.17657400  0.82064700  0.82167400  1
  Sr  Sr1  1  0.67657400  0.67935300  0.32167400  1
  Sr  Sr2  1  0.17657400  0.17935300  0.17832600  1
  Sr  Sr3  1  0.67657400  0.32064700  0.67832600  1
  Re  Re0  1  0.86316400  0.00000000  0.50000000  1
  Re  Re1  1  0.50228000  0.00523200  0.36026300  1
  Re  Re2  1  0.50240300  0.86241400  0.00131300  1
  Re  Re3  1  0.00240300  0.63758600  0.50131300  1
  Re  Re4  1  0.36316400  0.50000000  0.00000000  1
  Re  Re5  1  0.00228000  0.50523200  0.13973700  1
  Re  Re6  1  0.00228000  0.49476800  0.86026300  1
  Re  Re7  1  0.63921700  0.50000000  0.00000000  1
  Re  Re8  1  0.00240300  0.36241400  0.49868700  1
  Re  Re9  1  0.50240300  0.13758600  0.99868700  1
  Re  Re10  1  0.50228000  0.99476800  0.63973700  1
  Re  Re11  1  0.13921700  0.00000000  0.50000000  1
  O  O0  1  0.66136700  0.00000000  0.00000000  1
  O  O1  1  0.49384000  0.86243800  0.79745400  1
  O  O2  1  0.29578600  0.99442900  0.63936300  1
  O  O3  1  0.50738200  0.83838500  0.49528200  1
  O  O4  1  0.00180300  0.99538400  0.66320300  1
  O  O5  1  0.29578600  0.00557100  0.36063700  1
  O  O6  1  0.50219300  0.86224700  0.20623000  1
  O  O7  1  0.13775800  0.79627300  0.50459200  1
  O  O8  1  0.63775800  0.70372700  0.00459200  1
  O  O9  1  0.16136700  0.50000000  0.50000000  1
  O  O10  1  0.86013800  0.79458900  0.49621700  1
  O  O11  1  0.36013800  0.70541100  0.99621700  1
  O  O12  1  0.99384000  0.63756200  0.29745400  1
  O  O13  1  0.20538500  0.49772800  0.13775800  1
  O  O14  1  0.50180300  0.49538400  0.83679700  1
  O  O15  1  0.83156900  0.50000000  0.50000000  1
  O  O16  1  0.00738200  0.66161500  0.99528200  1
  O  O17  1  0.00219300  0.36224700  0.29377000  1
  O  O18  1  0.20538500  0.50227200  0.86224200  1
  O  O19  1  0.79578600  0.50557100  0.13936300  1
  O  O20  1  0.00219300  0.63775300  0.70623000  1
  O  O21  1  0.00738200  0.33838500  0.00471800  1
  O  O22  1  0.50180300  0.50461600  0.16320300  1
  O  O23  1  0.79578600  0.49442900  0.86063700  1
  O  O24  1  0.99384000  0.36243800  0.70254600  1
  O  O25  1  0.63775800  0.29627300  0.99540800  1
  O  O26  1  0.13775800  0.20372700  0.49540800  1
  O  O27  1  0.36013800  0.29458900  0.00378300  1
  O  O28  1  0.86013800  0.20541100  0.50378300  1
  O  O29  1  0.50219300  0.13775300  0.79377000  1
  O  O30  1  0.70538500  0.00227200  0.63775800  1
  O  O31  1  0.33156900  0.00000000  0.00000000  1
  O  O32  1  0.00180300  0.00461600  0.33679700  1
  O  O33  1  0.50738200  0.16161500  0.50471800  1
  O  O34  1  0.70538500  0.99772800  0.36224200  1
  O  O35  1  0.49384000  0.13756200  0.20254600  1
loop_
_geom_bond_atom_site_label_1
_geom_bond_atom_site_label_2
_geom_bond_distance
_geom_bond_site_symmetry_2
O0 Re9 1.958717 1_554
O0 Re2 1.958717 1_545
O1 Re2 1.912089 1_556
O1 Re10 1.927774 1_555
O1 Sr0 2.985987 1_555
O2 Re10 1.921123 1_555
O2 Re11 1.957085 1_565
O2 Sr0 2.603870 1_555
O3 Re10 1.991350 1_555
O3 Re1 2.007125 1_565
O3 Sr1 2.707040 1_555
O4 Re11 1.993839 1_565
O4 Re0 2.001166 1_465
O4 Sr0 2.740327 1_555
O5 Re1 1.921123 1_555
O5 Re11 1.957085 1_555
O5 Sr2 2.603870 1_555
O6 Re2 1.920345 1_555
O6 Re1 1.965924 1_565
O6 Sr1 2.591662 1_555
O7 Re11 1.902107 1_565
O7 Re3 1.944374 1_555
O7 Sr0 3.001975 1_555
O8 Re7 1.902107 1_555
O8 Re2 1.944374 1_555
O8 Sr1 3.001975 1_555
O9 Re3 1.958717 1_555
O9 Re8 1.958717 1_555
O10 Re0 1.917824 1_565
O10 Re3 1.975260 1_655
O10 Sr1 2.597879 1_555
O11 Re4 1.917824 1_556
O11 Re2 1.975260 1_556
O11 Sr0 2.597879 1_555
O12 Re3 1.912089 1_655
O12 Re5 1.927774 1_655
O12 Sr1 2.985987 1_555
O13 Re5 1.890976 1_555
O13 Re4 1.954939 1_555
O13 Sr2 3.007873 1_555
O14 Re7 1.993839 1_556
O14 Re4 2.001166 1_556
O14 Sr3 2.740327 1_555
O15 Re3 2.043382 1_655
O15 Re8 2.043382 1_655
O15 Sr3 2.770306 1_555
O15 Sr1 2.770306 1_555
O16 Re5 1.991350 1_556
O16 Re6 2.007125 1_555
O16 Sr0 2.707040 1_555
O17 Re8 1.920345 1_555
O17 Re5 1.965924 1_555
O17 Sr2 2.591662 1_555
O18 Re6 1.890976 1_555
O18 Re4 1.954939 1_556
O18 Sr0 3.007873 1_555
O19 Re5 1.921123 1_655
O19 Re7 1.957085 1_555
O19 Sr1 2.603870 1_555
O20 Re3 1.920345 1_555
O20 Re6 1.965924 1_555
O20 Sr0 2.591662 1_555
O21 Re6 1.991350 1_554
O21 Re5 2.007125 1_555
O21 Sr2 2.707040 1_555
O22 Re7 1.993839 1_555
O22 Re4 2.001166 1_555
O22 Sr1 2.740327 1_555
O23 Re6 1.921123 1_655
O23 Re7 1.957085 1_556
O23 Sr3 2.603870 1_555
O24 Re8 1.912089 1_655
O24 Re6 1.927774 1_655
O24 Sr3 2.985987 1_555
O25 Re7 1.902107 1_556
O25 Re9 1.944374 1_555
O25 Sr3 3.001975 1_555
O26 Re11 1.902107 1_555
O26 Re8 1.944374 1_555
O26 Sr2 3.001975 1_555
O27 Re4 1.917824 1_555
O27 Re9 1.975260 1_554
O27 Sr2 2.597879 1_555
O28 Re0 1.917824 1_555
O28 Re8 1.975260 1_655
O28 Sr3 2.597879 1_555
O29 Re9 1.920345 1_555
O29 Re10 1.965924 1_545
O29 Sr3 2.591662 1_555
O30 Re10 1.890976 1_545
O30 Re0 1.954939 1_555
O30 Sr3 3.007873 1_555
O31 Re9 2.043382 1_554
O31 Re2 2.043382 1_545
O31 Sr2 2.770306 1_555
O31 Sr0 2.770306 1_544
O32 Re11 1.993839 1_555
O32 Re0 2.001166 1_455
O32 Sr2 2.740327 1_555
O33 Re1 1.991350 1_555
O33 Re10 2.007125 1_545
O33 Sr3 2.707040 1_555
O34 Re1 1.890976 1_565
O34 Re0 1.954939 1_565
O34 Sr1 3.007873 1_555
O35 Re9 1.912089 1_554
O35 Re1 1.927774 1_555
O35 Sr2 2.985987 1_555
