# generated using pymatgen
data_Te3Pt2
_symmetry_space_group_name_H-M   'P 1'
_cell_length_a   4.05948343
_cell_length_b   4.05948343
_cell_length_c   17.72989378
_cell_angle_alpha   83.64836496
_cell_angle_beta   83.64836496
_cell_angle_gamma   59.97113214
_symmetry_Int_Tables_number   1
_chemical_formula_structural   Te3Pt2
_chemical_formula_sum   'Te6 Pt4'
_cell_volume   250.88816086
_cell_formula_units_Z   2
loop_
 _symmetry_equiv_pos_site_id
 _symmetry_equiv_pos_as_xyz
  1  'x, y, z'
loop_
 _atom_site_type_symbol
 _atom_site_label
 _atom_site_symmetry_multiplicity
 _atom_site_fract_x
 _atom_site_fract_y
 _atom_site_fract_z
 _atom_site_occupancy
  Te  Te0  1  0.76548400  0.76548400  0.72925600  1
  Te  Te1  1  0.03616200  0.03616200  0.88880800  1
  Te  Te2  1  0.14880400  0.14880400  0.57291300  1
  Te  Te3  1  0.23451600  0.23451600  0.27074400  1
  Te  Te4  1  0.96383800  0.96383800  0.11119200  1
  Te  Te5  1  0.85119600  0.85119600  0.42708700  1
  Pt  Pt0  1  0.45768300  0.45768300  0.65012000  1
  Pt  Pt1  1  0.54231700  0.54231700  0.34988000  1
  Pt  Pt2  1  0.65295800  0.65295800  0.04206500  1
  Pt  Pt3  1  0.34704200  0.34704200  0.95793500  1
loop_
_geom_bond_atom_site_label_1
_geom_bond_atom_site_label_2
_geom_bond_distance
_geom_bond_site_symmetry_2
Pt0 Te2 2.706743 1_655
Pt0 Te2 2.706743 1_565
Pt0 Te2 2.711355 1_555
Pt0 Te0 2.725296 1_545
Pt0 Te0 2.725296 1_455
Pt0 Te0 2.725735 1_555
Pt1 Te5 2.706743 1_545
Pt1 Te5 2.706743 1_455
Pt1 Te5 2.711355 1_555
Pt1 Te3 2.725296 1_565
Pt1 Te3 2.725296 1_655
Pt1 Te3 2.725735 1_555
Pt2 Te4 2.639320 1_555
Pt2 Te4 2.640216 1_545
Pt2 Te4 2.640216 1_455
Pt2 Pt3 2.769952 1_554
Pt2 Pt3 2.771990 1_654
Pt2 Pt3 2.771990 1_564
Pt3 Te1 2.639320 1_555
Pt3 Te1 2.640216 1_565
Pt3 Te1 2.640216 1_655
