# generated using pymatgen
data_Ta2Pt3S8
_symmetry_space_group_name_H-M   'P 1'
_cell_length_a   3.46291391
_cell_length_b   10.57723422
_cell_length_c   14.64145029
_cell_angle_alpha   90.00000000
_cell_angle_beta   90.00000000
_cell_angle_gamma   90.00000000
_symmetry_Int_Tables_number   1
_chemical_formula_structural   Ta2Pt3S8
_chemical_formula_sum   'Ta4 Pt6 S16'
_cell_volume   536.28779540
_cell_formula_units_Z   2
loop_
 _symmetry_equiv_pos_site_id
 _symmetry_equiv_pos_as_xyz
  1  'x, y, z'
loop_
 _atom_site_type_symbol
 _atom_site_label
 _atom_site_symmetry_multiplicity
 _atom_site_fract_x
 _atom_site_fract_y
 _atom_site_fract_z
 _atom_site_occupancy
  Ta  Ta0  1  0.50000000  0.20084760  0.12283902  1
  Ta  Ta1  1  0.50000000  0.29915240  0.62283902  1
  Ta  Ta2  1  0.50000000  0.79915240  0.87716098  1
  Ta  Ta3  1  0.50000000  0.70084760  0.37716098  1
  Pt  Pt0  1  0.00000000  0.86137433  0.27625686  1
  Pt  Pt1  1  -0.00000000  0.13862567  0.72374314  1
  Pt  Pt2  1  0.00000000  0.36137433  0.22374314  1
  Pt  Pt3  1  0.00000000  0.63862567  0.77625686  1
  Pt  Pt4  1  -0.00000000  0.50000000  0.50000000  1
  Pt  Pt5  1  -0.00000000  0.00000000  -0.00000000  1
  S  S0  1  0.50000000  0.06738366  0.62693093  1
  S  S1  1  -0.00000000  0.22135797  0.00062186  1
  S  S2  1  0.50000000  0.43261634  0.12693093  1
  S  S3  1  -0.00000000  0.46626807  0.65706409  1
  S  S4  1  -0.00000000  0.27864203  0.50062186  1
  S  S5  1  -0.00000000  0.96626807  0.84293591  1
  S  S6  1  0.00000000  0.72135797  0.49937814  1
  S  S7  1  0.00000000  0.03373193  0.15706409  1
  S  S8  1  0.50000000  0.73882542  0.21200578  1
  S  S9  1  -0.00000000  0.53373193  0.34293591  1
  S  S10  1  0.50000000  0.56738366  0.87306907  1
  S  S11  1  0.50000000  0.23882542  0.28799422  1
  S  S12  1  0.00000000  0.77864203  -0.00062186  1
  S  S13  1  0.50000000  0.26117458  0.78799422  1
  S  S14  1  0.50000000  0.76117458  0.71200578  1
  S  S15  1  0.50000000  0.93261634  0.37306907  1
loop_
_geom_bond_atom_site_label_1
_geom_bond_atom_site_label_2
_geom_bond_distance
_geom_bond_site_symmetry_2
Pt0 S8 2.358627 1_455
Pt0 S8 2.358627 1_555
Pt0 S15 2.361143 1_455
Pt0 S15 2.361143 1_555
Pt0 S7 2.523715 1_565
Pt0 Ta3 2.839642 1_455
Pt0 Ta3 2.839642 1_555
Pt1 S13 2.358627 1_455
Pt1 S13 2.358627 1_555
Pt1 S0 2.361143 1_555
Pt1 S0 2.361143 1_455
Pt1 S5 2.523715 1_545
Pt1 Ta1 2.839642 1_555
Pt1 Ta1 2.839642 1_455
Pt2 S11 2.358627 1_455
Pt2 S11 2.358627 1_555
Pt2 S2 2.361143 1_455
Pt2 S2 2.361143 1_555
Pt2 S9 2.523715 1_555
Pt2 Ta0 2.839642 1_455
Pt2 Ta0 2.839642 1_555
Pt3 S14 2.358627 1_455
Pt3 S14 2.358627 1_555
Pt3 S10 2.361143 1_455
Pt3 S10 2.361143 1_555
Pt3 S3 2.523715 1_555
Pt3 Ta2 2.839642 1_455
Pt3 Ta2 2.839642 1_555
Pt4 S9 2.327160 1_555
Pt4 S3 2.327160 1_555
Pt4 S6 2.341373 1_555
Pt4 S4 2.341373 1_555
Pt5 S7 2.327160 1_555
Pt5 S5 2.327160 1_544
Pt5 S1 2.341373 1_555
Pt5 S12 2.341373 1_545
S0 Ta1 2.452204 1_555
S1 Ta0 2.499418 1_455
S1 Ta0 2.499418 1_555
S2 Ta0 2.452204 1_555
S3 Ta1 2.524586 1_455
S3 Ta1 2.524586 1_555
S4 Ta1 2.499418 1_555
S4 Ta1 2.499418 1_455
S5 Ta2 2.524586 1_455
S5 Ta2 2.524586 1_555
S6 Ta3 2.499418 1_455
S6 Ta3 2.499418 1_555
S7 Ta0 2.524586 1_555
S7 Ta0 2.524586 1_455
S8 Ta3 2.451250 1_555
S9 Ta3 2.524586 1_455
S9 Ta3 2.524586 1_555
S10 Ta2 2.452204 1_555
S11 Ta0 2.451250 1_555
S12 Ta2 2.499418 1_554
S12 Ta2 2.499418 1_454
S13 Ta1 2.451250 1_555
S14 Ta2 2.451250 1_555
S15 Ta3 2.452204 1_555
