# generated using pymatgen
data_B
_symmetry_space_group_name_H-M   'P 1'
_cell_length_a   5.00641416
_cell_length_b   8.59448361
_cell_length_c   8.59448361
_cell_angle_alpha   90.00000000
_cell_angle_beta   90.00000000
_cell_angle_gamma   90.00000000
_symmetry_Int_Tables_number   1
_chemical_formula_structural   B
_chemical_formula_sum   B48
_cell_volume   369.79952549
_cell_formula_units_Z   48
loop_
 _symmetry_equiv_pos_site_id
 _symmetry_equiv_pos_as_xyz
  1  'x, y, z'
loop_
 _atom_site_type_symbol
 _atom_site_label
 _atom_site_symmetry_multiplicity
 _atom_site_fract_x
 _atom_site_fract_y
 _atom_site_fract_z
 _atom_site_occupancy
  B  B0  1  0.90387701  0.41667886  0.82901929  1
  B  B1  1  0.40849269  0.72697027  0.58291706  1
  B  B2  1  0.59150731  0.27302973  0.58291706  1
  B  B3  1  0.61784446  0.87425494  0.12574506  1
  B  B4  1  0.88215554  0.62574506  0.37425494  1
  B  B5  1  0.90387701  0.17098071  0.58332114  1
  B  B6  1  0.59150731  0.72697027  0.41708294  1
  B  B7  1  0.40849269  0.41708294  0.27302973  1
  B  B8  1  0.09612299  0.17098071  0.41667886  1
  B  B9  1  0.40849269  0.27302973  0.41708294  1
  B  B10  1  0.58199038  0.75508536  0.75508536  1
  B  B11  1  0.91800962  0.25508536  0.25508536  1
  B  B12  1  0.40387701  0.08332114  0.32901929  1
  B  B13  1  0.90387701  0.58332114  0.17098071  1
  B  B14  1  0.41800962  0.75508536  0.24491464  1
  B  B15  1  0.90387701  0.82901929  0.41667886  1
  B  B16  1  0.09150731  0.91708294  0.77302973  1
  B  B17  1  0.08199038  0.74491464  0.25508536  1
  B  B18  1  0.90849269  0.77302973  0.08291706  1
  B  B19  1  0.59612299  0.08332114  0.67098071  1
  B  B20  1  0.09150731  0.08291706  0.22697027  1
  B  B21  1  0.40849269  0.58291706  0.72697027  1
  B  B22  1  0.40387701  0.67098071  0.91667886  1
  B  B23  1  0.58199038  0.24491464  0.24491464  1
  B  B24  1  0.90849269  0.22697027  0.91708294  1
  B  B25  1  0.09612299  0.58332114  0.82901929  1
  B  B26  1  0.59612299  0.67098071  0.08332114  1
  B  B27  1  0.88215554  0.37425494  0.62574506  1
  B  B28  1  0.59612299  0.32901929  0.91667886  1
  B  B29  1  0.08199038  0.25508536  0.74491464  1
  B  B30  1  0.38215554  0.12574506  0.12574506  1
  B  B31  1  0.91800962  0.74491464  0.74491464  1
  B  B32  1  0.90849269  0.91708294  0.22697027  1
  B  B33  1  0.90849269  0.08291706  0.77302973  1
  B  B34  1  0.59150731  0.58291706  0.27302973  1
  B  B35  1  0.09150731  0.77302973  0.91708294  1
  B  B36  1  0.09150731  0.22697027  0.08291706  1
  B  B37  1  0.59150731  0.41708294  0.72697027  1
  B  B38  1  0.40387701  0.91667886  0.67098071  1
  B  B39  1  0.09612299  0.82901929  0.58332114  1
  B  B40  1  0.11784446  0.62574506  0.62574506  1
  B  B41  1  0.09612299  0.41667886  0.17098071  1
  B  B42  1  0.41800962  0.24491464  0.75508536  1
  B  B43  1  0.61784446  0.12574506  0.87425494  1
  B  B44  1  0.40387701  0.32901929  0.08332114  1
  B  B45  1  0.11784446  0.37425494  0.37425494  1
  B  B46  1  0.38215554  0.87425494  0.87425494  1
  B  B47  1  0.59612299  0.91667886  0.32901929  1
loop_
_geom_bond_atom_site_label_1
_geom_bond_atom_site_label_2
_geom_bond_distance
_geom_bond_site_symmetry_2
B0 B25 1.725556 1_655
B0 B27 1.787989 1_555
B0 B37 1.793008 1_555
B0 B24 1.797702 1_555
B0 B29 1.801787 1_655
B0 B28 1.873254 1_555
B1 B6 1.694364 1_555
B1 B10 1.732732 1_555
B1 B40 1.734843 1_555
B1 B21 1.750885 1_555
B1 B39 1.793008 1_555
B1 B38 1.797702 1_555
B2 B9 1.694364 1_555
B2 B42 1.732732 1_555
B2 B27 1.734843 1_555
B2 B37 1.750885 1_555
B2 B5 1.793008 1_555
B3 B32 1.734843 1_555
B3 B47 1.787989 1_555
B4 B6 1.734843 1_555
B5 B8 1.725556 1_655
B7 B9 1.750885 1_555
B8 B9 1.793008 1_555
B10 B31 1.686787 1_555
B10 B21 1.732732 1_555
B10 B46 1.760366 1_555
B10 B38 1.801787 1_555
B10 B22 1.801787 1_555
B11 B23 1.686787 1_555
B11 B20 1.732732 1_655
B11 B36 1.732732 1_655
B11 B45 1.760366 1_655
B11 B8 1.801787 1_655
B11 B41 1.801787 1_655
B12 B47 1.725556 1_545
B12 B30 1.787989 1_555
B12 B20 1.793008 1_555
B12 B9 1.797702 1_555
B12 B23 1.801787 1_555
B12 B8 1.873254 1_555
B13 B41 1.725556 1_655
B13 B4 1.787989 1_555
B13 B34 1.793008 1_555
B13 B18 1.797702 1_555
B13 B17 1.801787 1_655
B13 B26 1.873254 1_555
B14 B17 1.686787 1_555
B14 B6 1.732732 1_555
B14 B34 1.732732 1_555
B14 B3 1.760366 1_555
B14 B47 1.801787 1_555
B14 B26 1.801787 1_555
B15 B39 1.725556 1_655
B15 B4 1.787989 1_555
B15 B6 1.793008 1_555
B15 B32 1.797702 1_555
B15 B17 1.801787 1_655
B15 B47 1.873254 1_555
B16 B33 1.694364 1_465
B16 B31 1.732732 1_455
B16 B46 1.734843 1_555
B16 B35 1.750885 1_555
B16 B38 1.793008 1_555
B16 B39 1.797702 1_555
B17 B18 1.732732 1_455
B17 B32 1.732732 1_455
B17 B4 1.760366 1_455
B18 B35 1.694364 1_654
B18 B3 1.734843 1_555
B18 B32 1.750885 1_555
B18 B26 1.793008 1_555
B19 B38 1.725556 1_545
B19 B43 1.787989 1_555
B19 B33 1.793008 1_555
B19 B2 1.797702 1_555
B19 B42 1.801787 1_555
B19 B5 1.873254 1_555
B20 B32 1.694364 1_445
B20 B30 1.734843 1_555
B20 B36 1.750885 1_555
B20 B8 1.797702 1_555
B21 B37 1.694364 1_555
B21 B40 1.734843 1_555
B21 B25 1.793008 1_555
B21 B22 1.797702 1_555
B22 B26 1.725556 1_556
B22 B46 1.787989 1_555
B22 B35 1.793008 1_555
B22 B25 1.873254 1_555
B23 B7 1.732732 1_555
B23 B9 1.732732 1_555
B23 B30 1.760366 1_555
B23 B44 1.801787 1_555
B24 B36 1.694364 1_656
B24 B29 1.732732 1_655
B24 B43 1.734843 1_555
B24 B33 1.750885 1_555
B24 B28 1.793008 1_555
B25 B40 1.787989 1_555
B25 B35 1.797702 1_555
B25 B31 1.801787 1_455
B26 B3 1.787989 1_555
B26 B34 1.797702 1_555
B27 B37 1.734843 1_555
B27 B29 1.760366 1_655
B27 B5 1.787989 1_555
B28 B44 1.725556 1_556
B28 B43 1.787989 1_555
B28 B37 1.797702 1_555
B28 B42 1.801787 1_555
B29 B42 1.686787 1_555
B29 B33 1.732732 1_455
B29 B5 1.801787 1_455
B30 B36 1.734843 1_555
B30 B44 1.787989 1_555
B31 B35 1.732732 1_655
B31 B40 1.760366 1_655
B31 B39 1.801787 1_655
B32 B47 1.793008 1_555
B33 B43 1.734843 1_555
B33 B5 1.797702 1_555
B34 B7 1.694364 1_555
B34 B4 1.734843 1_555
B34 B6 1.750885 1_555
B35 B46 1.734843 1_555
B36 B44 1.793008 1_555
B36 B41 1.797702 1_555
B37 B42 1.732732 1_555
B38 B46 1.787989 1_555
B38 B39 1.873254 1_555
B39 B40 1.787989 1_555
B41 B45 1.787989 1_555
B41 B7 1.793008 1_555
B41 B44 1.873254 1_555
B42 B43 1.760366 1_555
B44 B7 1.797702 1_555
B45 B7 1.734843 1_555
B45 B9 1.734843 1_555
B45 B8 1.787989 1_555
B47 B6 1.797702 1_555
