# generated using pymatgen
data_Ce5Co19
_symmetry_space_group_name_H-M   'P 1'
_cell_length_a   4.88739272
_cell_length_b   4.88739578
_cell_length_c   16.61203790
_cell_angle_alpha   81.54067267
_cell_angle_beta   81.54068395
_cell_angle_gamma   60.00054837
_symmetry_Int_Tables_number   1
_chemical_formula_structural   Ce5Co19
_chemical_formula_sum   'Ce5 Co19'
_cell_volume   338.65142750
_cell_formula_units_Z   1
loop_
 _symmetry_equiv_pos_site_id
 _symmetry_equiv_pos_as_xyz
  1  'x, y, z'
loop_
 _atom_site_type_symbol
 _atom_site_label
 _atom_site_symmetry_multiplicity
 _atom_site_fract_x
 _atom_site_fract_y
 _atom_site_fract_z
 _atom_site_occupancy
  Ce  Ce0  1  -0.00000000  0.00000000  0.00000000  1
  Ce  Ce1  1  0.07911576  0.07911581  0.76265394  1
  Ce  Ce2  1  0.92088424  0.92088419  0.23734606  1
  Ce  Ce3  1  0.15190615  0.15190621  0.54428520  1
  Ce  Ce4  1  0.84809385  0.84809379  0.45571480  1
  Co  Co0  1  0.50000000  0.50000000  0.50000000  1
  Co  Co1  1  0.25029996  0.25030080  0.24910224  1
  Co  Co2  1  0.74970004  0.74969920  0.75089776  1
  Co  Co3  1  0.33352482  0.33352709  0.99941669  1
  Co  Co4  1  0.66647518  0.66647291  0.00058331  1
  Co  Co5  1  0.41550302  0.41550393  0.75349400  1
  Co  Co6  1  0.58449698  0.58449607  0.24650600  1
  Co  Co7  1  0.12495157  0.62206346  0.63093202  1
  Co  Co8  1  0.62206248  0.62206259  0.63093129  1
  Co  Co9  1  0.62206331  0.12495167  0.63093213  1
  Co  Co10  1  0.87504843  0.37793654  0.36906798  1
  Co  Co11  1  0.37793752  0.37793741  0.36906871  1
  Co  Co12  1  0.37793669  0.87504833  0.36906787  1
  Co  Co13  1  0.03978065  0.54154690  0.87712654  1
  Co  Co14  1  0.54154742  0.54154744  0.87712694  1
  Co  Co15  1  0.54154684  0.03978065  0.87712663  1
  Co  Co16  1  0.96021935  0.45845310  0.12287346  1
  Co  Co17  1  0.45845258  0.45845256  0.12287306  1
  Co  Co18  1  0.45845316  0.96021935  0.12287337  1
loop_
_geom_bond_atom_site_label_1
_geom_bond_atom_site_label_2
_geom_bond_distance
_geom_bond_site_symmetry_2
Ce0 Co3 2.821731 1_554
Ce0 Co4 2.821731 1_445
Ce0 Co4 2.821774 1_455
Ce0 Co3 2.821774 1_544
Ce0 Co3 2.821782 1_454
Ce0 Co4 2.821782 1_545
Ce0 Co15 3.165096 1_554
Ce0 Co18 3.165096 1_445
Ce0 Co13 3.165098 1_554
Ce0 Co16 3.165098 1_445
Ce0 Co18 3.165105 1_545
Ce0 Co15 3.165105 1_454
Ce0 Co16 3.165107 1_455
Ce0 Co13 3.165107 1_544
Ce0 Co14 3.165113 1_454
Ce0 Co17 3.165113 1_545
Ce0 Co14 3.165114 1_544
Ce0 Co17 3.165114 1_455
Ce1 Co5 2.825720 1_555
Ce1 Co5 2.825731 1_545
Ce1 Co5 2.825732 1_455
Ce1 Co2 2.828300 1_445
Ce1 Co2 2.828301 1_455
Ce1 Co2 2.828304 1_545
Ce1 Co15 3.079526 1_455
Ce1 Co13 3.079526 1_545
Ce1 Co15 3.079536 1_555
Ce1 Co13 3.079537 1_555
Ce1 Co14 3.079551 1_545
Ce1 Co14 3.079551 1_455
Ce1 Co9 3.259076 1_455
Ce1 Co7 3.259078 1_545
Ce1 Co9 3.259096 1_555
Ce1 Co7 3.259098 1_555
Ce1 Co8 3.259110 1_455
Ce1 Co8 3.259111 1_545
Ce2 Co6 2.825720 1_555
Ce2 Co6 2.825731 1_565
Ce2 Co6 2.825732 1_655
Ce2 Co1 2.828300 1_665
Ce2 Co1 2.828301 1_655
Ce2 Co1 2.828304 1_565
Ce2 Co18 3.079526 1_655
Ce2 Co16 3.079526 1_565
Ce2 Co18 3.079536 1_555
Ce2 Co16 3.079537 1_555
Ce2 Co17 3.079551 1_565
Ce2 Co17 3.079551 1_655
Ce2 Co12 3.259076 1_655
Ce2 Co10 3.259078 1_565
Ce2 Co12 3.259096 1_555
Ce2 Co10 3.259098 1_555
Ce2 Co11 3.259110 1_655
Ce2 Co11 3.259111 1_565
Ce3 Co9 2.825536 1_455
Ce3 Co7 2.825536 1_545
Ce3 Co8 2.825565 1_545
Ce3 Co8 2.825566 1_455
Ce3 Co9 2.825574 1_555
Ce3 Co7 2.825574 1_555
Ce3 Co0 2.913361 1_555
Ce3 Co0 2.913403 1_455
Ce3 Co0 2.913406 1_545
Ce3 Co11 3.200189 1_555
Ce3 Co10 3.200236 1_455
Ce3 Co12 3.200239 1_545
Ce4 Co12 2.825536 1_655
Ce4 Co10 2.825536 1_565
Ce4 Co11 2.825565 1_565
Ce4 Co11 2.825566 1_655
Ce4 Co12 2.825574 1_555
Ce4 Co10 2.825574 1_555
Ce4 Co0 2.913361 1_555
Ce4 Co0 2.913403 1_655
Ce4 Co0 2.913406 1_565
Ce4 Co8 3.200189 1_555
Ce4 Co7 3.200236 1_655
Ce4 Co9 3.200239 1_565
Co0 Co10 2.561624 1_555
Co0 Co7 2.561624 1_555
Co0 Co12 2.561625 1_555
Co0 Co9 2.561625 1_555
Co0 Co11 2.561635 1_555
Co0 Co8 2.561635 1_555
Co1 Co11 2.422922 1_555
Co1 Co10 2.422938 1_455
Co1 Co12 2.422939 1_545
Co1 Co17 2.499328 1_555
Co1 Co16 2.499349 1_455
Co1 Co18 2.499354 1_545
Co1 Co6 2.822028 1_555
Co1 Co6 2.822081 1_455
Co1 Co6 2.822090 1_545
Co2 Co8 2.422922 1_555
Co2 Co7 2.422938 1_655
Co2 Co9 2.422939 1_565
Co2 Co5 2.822028 1_555
Co2 Co5 2.822081 1_655
Co2 Co5 2.822090 1_565
Co3 Co4 2.821793 1_456
Co3 Co4 2.821814 1_546
Co3 Co4 2.821826 1_556
Co5 Co7 2.448128 1_555
Co5 Co9 2.448129 1_555
Co5 Co8 2.448133 1_555
Co7 Co8 2.429572 1_555
Co7 Co9 2.429601 1_555
Co7 Co8 2.457820 1_455
Co7 Co9 2.457833 1_465
Co8 Co9 2.429574 1_555
Co8 Co9 2.457822 1_565
Co10 Co11 2.429572 1_555
Co10 Co12 2.429601 1_555
Co10 Co6 2.448128 1_555
Co10 Co11 2.457820 1_655
Co10 Co12 2.457833 1_645
Co11 Co12 2.429574 1_555
Co11 Co6 2.448133 1_555
Co11 Co12 2.457822 1_545
Co12 Co6 2.448129 1_555
Co13 Co14 2.435059 1_455
Co13 Co15 2.435085 1_465
Co13 Co3 2.452040 1_555
Co13 Co14 2.452334 1_555
Co13 Co15 2.452350 1_555
Co13 Co4 2.461948 1_456
Co13 Co5 2.470019 1_555
Co13 Co2 2.499349 1_455
Co14 Co15 2.435061 1_565
Co14 Co3 2.452042 1_555
Co14 Co15 2.452335 1_555
Co14 Co4 2.461955 1_556
Co14 Co5 2.470022 1_555
Co14 Co2 2.499328 1_555
Co15 Co3 2.452045 1_555
Co15 Co4 2.461953 1_546
Co15 Co5 2.470023 1_555
Co15 Co2 2.499354 1_545
Co16 Co17 2.435059 1_655
Co16 Co18 2.435085 1_645
Co16 Co4 2.452040 1_555
Co16 Co17 2.452334 1_555
Co16 Co18 2.452350 1_555
Co16 Co3 2.461948 1_654
Co16 Co6 2.470019 1_555
Co17 Co18 2.435061 1_545
Co17 Co4 2.452042 1_555
Co17 Co18 2.452335 1_555
Co17 Co3 2.461955 1_554
Co17 Co6 2.470022 1_555
Co18 Co4 2.452045 1_555
Co18 Co3 2.461953 1_564
Co18 Co6 2.470023 1_555
