# generated using pymatgen
data_La3CuSiSe7
_symmetry_space_group_name_H-M   'P 1'
_cell_length_a   10.78520567
_cell_length_b   10.78520567
_cell_length_c   6.15494800
_cell_angle_alpha   90.00000000
_cell_angle_beta   90.00000000
_cell_angle_gamma   119.99999798
_symmetry_Int_Tables_number   1
_chemical_formula_structural   La3CuSiSe7
_chemical_formula_sum   'La6 Cu2 Si2 Se14'
_cell_volume   620.02884099
_cell_formula_units_Z   2
loop_
 _symmetry_equiv_pos_site_id
 _symmetry_equiv_pos_as_xyz
  1  'x, y, z'
loop_
 _atom_site_type_symbol
 _atom_site_label
 _atom_site_symmetry_multiplicity
 _atom_site_fract_x
 _atom_site_fract_y
 _atom_site_fract_z
 _atom_site_occupancy
  La  La0  1  0.22891900  0.87345600  0.73677100  1
  La  La1  1  0.64453700  0.77108100  0.73677100  1
  La  La2  1  0.12654400  0.35546300  0.73677100  1
  La  La3  1  0.77108100  0.12654400  0.23677100  1
  La  La4  1  0.35546300  0.22891900  0.23677100  1
  La  La5  1  0.87345600  0.64453700  0.23677100  1
  Cu  Cu0  1  0.00000000  0.00000000  0.69561100  1
  Cu  Cu1  1  0.00000000  0.00000000  0.19561100  1
  Si  Si0  1  0.66666700  0.33333300  0.82463800  1
  Si  Si1  1  0.33333300  0.66666700  0.32463800  1
  Se  Se0  1  0.91047300  0.74773500  0.71894100  1
  Se  Se1  1  0.16273900  0.91047300  0.21894100  1
  Se  Se2  1  0.10838200  0.58518800  0.46988700  1
  Se  Se3  1  0.33333300  0.66666700  0.95555200  1
  Se  Se4  1  0.47680600  0.89161800  0.46988700  1
  Se  Se5  1  0.89161800  0.41481200  0.96988700  1
  Se  Se6  1  0.66666700  0.33333300  0.45555200  1
  Se  Se7  1  0.83726100  0.08952700  0.71894100  1
  Se  Se8  1  0.08952700  0.25226500  0.21894100  1
  Se  Se9  1  0.25226500  0.16273900  0.71894100  1
  Se  Se10  1  0.41481200  0.52319400  0.46988700  1
  Se  Se11  1  0.58518800  0.47680600  0.96988700  1
  Se  Se12  1  0.74773500  0.83726100  0.21894100  1
  Se  Se13  1  0.52319400  0.10838200  0.96988700  1
loop_
_geom_bond_atom_site_label_1
_geom_bond_atom_site_label_2
_geom_bond_distance
_geom_bond_site_symmetry_2
La0 Se0 2.998245 1_455
La0 Se9 3.004016 1_565
La0 Se4 3.059521 1_555
La0 Se1 3.124298 1_556
La0 Se2 3.164276 1_555
La0 Se13 3.241912 1_565
La0 Se3 3.250704 1_555
La0 Se1 3.333491 1_555
La1 Se7 2.998244 1_565
La1 Se0 3.004005 1_555
La1 Se10 3.059521 1_555
La1 Se12 3.124301 1_556
La1 Se4 3.164276 1_555
La1 Se11 3.241912 1_555
La1 Se3 3.250714 1_555
La1 Se12 3.333493 1_555
La2 Se9 2.998235 1_555
La2 Se7 3.004012 1_455
La2 Se2 3.059521 1_555
La2 Se8 3.124301 1_556
La2 Se10 3.164276 1_555
La2 Se5 3.241912 1_455
La2 Se3 3.250712 1_555
La2 Se8 3.333494 1_555
La3 Se8 2.998245 1_655
La3 Se12 3.004016 1_545
La3 Se13 3.059521 1_554
La3 Se7 3.124298 1_555
La3 Se5 3.164276 1_554
La3 Se4 3.241912 1_545
La3 Se6 3.250704 1_555
La3 Se7 3.333491 1_554
La4 Se1 2.998244 1_545
La4 Se8 3.004005 1_555
La4 Se11 3.059521 1_554
La4 Se9 3.124301 1_555
La4 Se13 3.164276 1_554
La4 Se10 3.241912 1_555
La4 Se6 3.250714 1_555
La4 Se9 3.333493 1_554
La5 Se12 2.998235 1_555
La5 Se1 3.004012 1_655
La5 Se5 3.059521 1_554
La5 Se0 3.124301 1_555
La5 Se11 3.164276 1_554
La5 Se2 3.241912 1_655
La5 Se6 3.250712 1_555
La5 Se0 3.333494 1_554
Cu0 Se0 2.393379 1_445
Cu0 Se9 2.393381 1_555
Cu0 Se7 2.393389 1_455
Cu1 Se8 2.393379 1_555
Cu1 Se12 2.393381 1_445
Cu1 Se1 2.393389 1_545
Se2 Si1 2.307731 1_555
Se3 Si1 2.271705 1_556
Se4 Si1 2.307732 1_555
Se5 Si0 2.307731 1_555
Se6 Si0 2.271705 1_555
Se10 Si1 2.307740 1_555
Se11 Si0 2.307740 1_555
Se13 Si0 2.307732 1_555
