# generated using pymatgen
data_ReH8(Br3N)2
_symmetry_space_group_name_H-M   'P 1'
_cell_length_a   7.39211975
_cell_length_b   7.39211975
_cell_length_c   7.39211975
_cell_angle_alpha   60.00000000
_cell_angle_beta   60.00000000
_cell_angle_gamma   60.00000000
_symmetry_Int_Tables_number   1
_chemical_formula_structural   ReH8(Br3N)2
_chemical_formula_sum   'Re1 H8 Br6 N2'
_cell_volume   285.62221490
_cell_formula_units_Z   1
loop_
 _symmetry_equiv_pos_site_id
 _symmetry_equiv_pos_as_xyz
  1  'x, y, z'
loop_
 _atom_site_type_symbol
 _atom_site_label
 _atom_site_symmetry_multiplicity
 _atom_site_fract_x
 _atom_site_fract_y
 _atom_site_fract_z
 _atom_site_occupancy
  Re  Re0  1  0.00000000  0.00000000  0.00000000  1
  H  H0  1  0.07867600  0.30710800  0.30710800  1
  H  H1  1  0.69289200  0.69289200  0.92132400  1
  H  H2  1  0.69289200  0.69289200  0.69289200  1
  H  H3  1  0.69289200  0.92132400  0.69289200  1
  H  H4  1  0.30710800  0.07867600  0.30710800  1
  H  H5  1  0.30710800  0.30710800  0.07867600  1
  H  H6  1  0.30710800  0.30710800  0.30710800  1
  H  H7  1  0.92132400  0.69289200  0.69289200  1
  Br  Br0  1  0.75900500  0.75900500  0.24099500  1
  Br  Br1  1  0.24099500  0.75900500  0.75900500  1
  Br  Br2  1  0.75900500  0.24099500  0.24099500  1
  Br  Br3  1  0.75900500  0.24099500  0.75900500  1
  Br  Br4  1  0.24099500  0.75900500  0.24099500  1
  Br  Br5  1  0.24099500  0.24099500  0.75900500  1
  N  N0  1  0.25000000  0.25000000  0.25000000  1
  N  N1  1  0.75000000  0.75000000  0.75000000  1
loop_
_geom_bond_atom_site_label_1
_geom_bond_atom_site_label_2
_geom_bond_distance
_geom_bond_site_symmetry_2
H0 N0 1.034050 1_555
H1 N1 1.034050 1_555
H2 N1 1.034050 1_555
H3 N1 1.034050 1_555
H4 N0 1.034050 1_555
H5 N0 1.034050 1_555
H6 N0 1.034050 1_555
H7 N1 1.034050 1_555
Br0 Re0 2.519370 1_665
Br1 Re0 2.519370 1_566
Br2 Re0 2.519370 1_655
Br3 Re0 2.519370 1_656
Br4 Re0 2.519370 1_565
Br5 Re0 2.519370 1_556
