# generated using pymatgen
data_AsSXe2(OF3)3
_symmetry_space_group_name_H-M   'P 1'
_cell_length_a   9.04619600
_cell_length_b   11.46513300
_cell_length_c   16.37718137
_cell_angle_alpha   46.90473623
_cell_angle_beta   90.00000000
_cell_angle_gamma   90.00000000
_symmetry_Int_Tables_number   1
_chemical_formula_structural   AsSXe2(OF3)3
_chemical_formula_sum   'As4 S4 Xe8 O12 F36'
_cell_volume   1240.32995527
_cell_formula_units_Z   4
loop_
 _symmetry_equiv_pos_site_id
 _symmetry_equiv_pos_as_xyz
  1  'x, y, z'
loop_
 _atom_site_type_symbol
 _atom_site_label
 _atom_site_symmetry_multiplicity
 _atom_site_fract_x
 _atom_site_fract_y
 _atom_site_fract_z
 _atom_site_occupancy
  As  As0  1  0.18833200  0.74473000  0.56231200  1
  As  As1  1  0.31166800  0.74473000  0.06231200  1
  As  As2  1  0.81166800  0.25527000  0.43768800  1
  As  As3  1  0.68833200  0.25527000  0.93768800  1
  S  S0  1  0.90663100  0.82415100  0.26851500  1
  S  S1  1  0.09336900  0.17584900  0.73148500  1
  S  S2  1  0.40663100  0.17584900  0.23148500  1
  S  S3  1  0.59336900  0.82415100  0.76851500  1
  Xe  Xe0  1  0.41791500  0.83001000  0.29221200  1
  Xe  Xe1  1  0.08208500  0.83001000  0.79221200  1
  Xe  Xe2  1  0.82409600  0.73976000  0.11318500  1
  Xe  Xe3  1  0.91791500  0.16999000  0.20778800  1
  Xe  Xe4  1  0.17590400  0.26024000  0.88681500  1
  Xe  Xe5  1  0.58208500  0.16999000  0.70778800  1
  Xe  Xe6  1  0.67590400  0.73976000  0.61318500  1
  Xe  Xe7  1  0.32409600  0.26024000  0.38681500  1
  O  O0  1  0.45646900  0.87877900  0.71014600  1
  O  O1  1  0.78843200  0.77376900  0.23398300  1
  O  O2  1  0.66977500  0.92477000  0.78286200  1
  O  O3  1  0.21156800  0.22623100  0.76601700  1
  O  O4  1  0.54353100  0.12122100  0.28985400  1
  O  O5  1  0.95646900  0.12122100  0.78985400  1
  O  O6  1  0.83022500  0.92477000  0.28286200  1
  O  O7  1  0.33022500  0.07523000  0.21713800  1
  O  O8  1  0.16977500  0.07523000  0.71713800  1
  O  O9  1  0.28843200  0.22623100  0.26601700  1
  O  O10  1  0.71156800  0.77376900  0.73398300  1
  O  O11  1  0.04353100  0.87877900  0.21014600  1
  F  F0  1  0.43612400  0.33421900  0.10718000  1
  F  F1  1  0.65891000  0.71064400  0.50526800  1
  F  F2  1  0.61611100  0.12486200  0.92461400  1
  F  F3  1  0.26301600  0.61730300  0.54750900  1
  F  F4  1  0.76301600  0.38269700  0.95249100  1
  F  F5  1  0.88388900  0.12486200  0.42461400  1
  F  F6  1  0.34397800  0.87500500  0.48761500  1
  F  F7  1  0.03430200  0.61570700  0.63544500  1
  F  F8  1  0.53430200  0.38429300  0.86455500  1
  F  F9  1  0.23698400  0.61730300  0.04750900  1
  F  F10  1  0.90678100  0.14518700  0.56715700  1
  F  F11  1  0.59321900  0.14518700  0.06715700  1
  F  F12  1  0.38388900  0.87513800  0.07538600  1
  F  F13  1  0.15602200  0.87500500  0.98761500  1
  F  F14  1  0.11611100  0.87513800  0.57538600  1
  F  F15  1  0.96569800  0.38429300  0.36455500  1
  F  F16  1  0.84109000  0.71064400  0.00526800  1
  F  F17  1  0.28574800  0.63879100  0.68991800  1
  F  F18  1  0.21425200  0.63879100  0.18991800  1
  F  F19  1  0.06387600  0.33421900  0.60718000  1
  F  F20  1  0.51486800  0.38414600  0.64586200  1
  F  F21  1  0.78574800  0.36120900  0.81008200  1
  F  F22  1  0.65602200  0.12499500  0.51238500  1
  F  F23  1  0.48513200  0.61585400  0.35413800  1
  F  F24  1  0.34109000  0.28935600  0.49473200  1
  F  F25  1  0.46569800  0.61570700  0.13544500  1
  F  F26  1  0.09321900  0.85481300  0.43284300  1
  F  F27  1  0.15891000  0.28935600  0.99473200  1
  F  F28  1  0.01486800  0.61585400  0.85413800  1
  F  F29  1  0.73698400  0.38269700  0.45249100  1
  F  F30  1  0.93612400  0.66578100  0.39282000  1
  F  F31  1  0.56387600  0.66578100  0.89282000  1
  F  F32  1  0.98513200  0.38414600  0.14586200  1
  F  F33  1  0.71425200  0.36120900  0.31008200  1
  F  F34  1  0.84397800  0.12499500  0.01238500  1
  F  F35  1  0.40678100  0.85481300  0.93284300  1
loop_
_geom_bond_atom_site_label_1
_geom_bond_atom_site_label_2
_geom_bond_distance
_geom_bond_site_symmetry_2
As0 F3 1.770200 1_555
As0 F7 1.772941 1_555
As0 F14 1.773577 1_555
As0 F17 1.775053 1_555
As0 F26 1.781113 1_555
As0 F6 1.792537 1_555
As1 F9 1.770200 1_555
As1 F25 1.772941 1_555
As1 F12 1.773577 1_555
As1 F18 1.775053 1_555
As1 F35 1.781113 1_554
As1 F13 1.792537 1_554
As2 F29 1.770200 1_555
As2 F15 1.772941 1_555
As2 F5 1.773577 1_555
As2 F33 1.775053 1_555
As2 F10 1.781113 1_555
As2 F22 1.792537 1_555
As3 F4 1.770200 1_555
As3 F8 1.772941 1_555
As3 F2 1.773577 1_555
As3 F21 1.775053 1_555
As3 F11 1.781113 1_556
As3 F34 1.792537 1_556
O0 S3 1.421850 1_555
O1 S0 1.497722 1_555
O1 Xe2 2.285598 1_555
O2 S3 1.494703 1_555
O2 Xe5 2.306947 1_565
O3 S1 1.497722 1_555
O3 Xe4 2.285598 1_555
O4 S2 1.421850 1_555
O5 S1 1.421850 1_655
O6 S0 1.494703 1_555
O6 Xe3 2.306947 1_565
O7 S2 1.494703 1_555
O7 Xe0 2.306947 1_545
O8 S1 1.494703 1_555
O8 Xe1 2.306947 1_545
O9 S2 1.497722 1_555
O9 Xe7 2.285598 1_555
O10 S3 1.497722 1_555
O10 Xe6 2.285598 1_555
O11 S0 1.421850 1_455
F0 S2 1.568930 1_555
F1 Xe6 2.016149 1_555
F16 Xe2 2.016149 1_555
F19 S1 1.568930 1_555
F20 Xe5 2.006075 1_555
F23 Xe0 2.006075 1_555
F24 Xe7 2.016149 1_555
F27 Xe4 2.016149 1_555
F28 Xe1 2.006075 1_555
F30 S0 1.568930 1_555
F31 S3 1.568930 1_555
F32 Xe3 2.006075 1_555
