# generated using pymatgen
data_La2WO6
_symmetry_space_group_name_H-M   'P 1'
_cell_length_a   7.56026500
_cell_length_b   10.53587400
_cell_length_c   12.89918400
_cell_angle_alpha   90.00000000
_cell_angle_beta   90.00000000
_cell_angle_gamma   90.00000000
_symmetry_Int_Tables_number   1
_chemical_formula_structural   La2WO6
_chemical_formula_sum   'La16 W8 O48'
_cell_volume   1027.47159520
_cell_formula_units_Z   8
loop_
 _symmetry_equiv_pos_site_id
 _symmetry_equiv_pos_as_xyz
  1  'x, y, z'
loop_
 _atom_site_type_symbol
 _atom_site_label
 _atom_site_symmetry_multiplicity
 _atom_site_fract_x
 _atom_site_fract_y
 _atom_site_fract_z
 _atom_site_occupancy
  La  La0  1  0.26242100  0.55314600  0.63443500  1
  La  La1  1  0.26229900  0.04411500  0.82547100  1
  La  La2  1  0.56822800  0.58415200  0.41632300  1
  La  La3  1  0.06822800  0.91584800  0.58367700  1
  La  La4  1  0.51959000  0.72473700  0.91535300  1
  La  La5  1  0.23770100  0.95588500  0.32547100  1
  La  La6  1  0.98041000  0.27526300  0.41535300  1
  La  La7  1  0.48041000  0.22473700  0.58464700  1
  La  La8  1  0.76229900  0.45588500  0.17452900  1
  La  La9  1  0.23757900  0.44685400  0.13443500  1
  La  La10  1  0.43177200  0.08415200  0.08367700  1
  La  La11  1  0.73757900  0.05314600  0.86556500  1
  La  La12  1  0.76242100  0.94685400  0.36556500  1
  La  La13  1  0.01959000  0.77526300  0.08464700  1
  La  La14  1  0.73770100  0.54411500  0.67452900  1
  La  La15  1  0.93177200  0.41584800  0.91632300  1
  W  W0  1  0.94313700  0.77190100  0.81679100  1
  W  W1  1  0.03540600  0.62161600  0.37031500  1
  W  W2  1  0.53540600  0.87838400  0.62968500  1
  W  W3  1  0.96459400  0.12161600  0.12968500  1
  W  W4  1  0.05686300  0.27190100  0.68320900  1
  W  W5  1  0.55686300  0.22809900  0.31679100  1
  W  W6  1  0.46459400  0.37838400  0.87031500  1
  W  W7  1  0.44313700  0.72809900  0.18320900  1
  O  O0  1  0.74828000  0.09088900  0.05310900  1
  O  O1  1  0.47743700  0.55542700  0.23106500  1
  O  O2  1  0.44897700  0.54581400  0.79499600  1
  O  O3  1  0.31927400  0.85316600  0.70565400  1
  O  O4  1  0.00320400  0.70654200  0.68151800  1
  O  O5  1  0.85066600  0.25338700  0.61030600  1
  O  O6  1  0.99679600  0.20654200  0.81848200  1
  O  O7  1  0.32138100  0.88417800  0.14889300  1
  O  O8  1  0.97213100  0.29869600  0.08235900  1
  O  O9  1  0.97126800  0.55680600  0.07165200  1
  O  O10  1  0.97743700  0.94457300  0.76893500  1
  O  O11  1  0.50320400  0.79345800  0.31848200  1
  O  O12  1  0.35066600  0.24661300  0.38969400  1
  O  O13  1  0.47126800  0.94319400  0.92834800  1
  O  O14  1  0.25172000  0.59088900  0.44689100  1
  O  O15  1  0.39828600  0.94539600  0.51646400  1
  O  O16  1  0.68072600  0.35316600  0.79434600  1
  O  O17  1  0.55102300  0.04581400  0.70500400  1
  O  O18  1  0.32391900  0.65615900  0.06277100  1
  O  O19  1  0.67608100  0.15615900  0.43722900  1
  O  O20  1  0.89828600  0.55460400  0.48353600  1
  O  O21  1  0.32343000  0.30514600  0.74922600  1
  O  O22  1  0.05102300  0.45418600  0.29499600  1
  O  O23  1  0.02873200  0.05680600  0.42834800  1
  O  O24  1  0.17861900  0.11582200  0.64889300  1
  O  O25  1  0.17608100  0.34384100  0.56277100  1
  O  O26  1  0.17657000  0.69485400  0.24922600  1
  O  O27  1  0.75172000  0.90911100  0.55310900  1
  O  O28  1  0.60171400  0.44539600  0.98353600  1
  O  O29  1  0.14933400  0.75338700  0.88969400  1
  O  O30  1  0.94897700  0.95418600  0.20500400  1
  O  O31  1  0.49679600  0.29345800  0.18151800  1
  O  O32  1  0.82138100  0.61582200  0.85110700  1
  O  O33  1  0.52786900  0.70130400  0.58235900  1
  O  O34  1  0.47213100  0.20130400  0.91764100  1
  O  O35  1  0.81927400  0.64683400  0.29434600  1
  O  O36  1  0.18072600  0.14683400  0.20565400  1
  O  O37  1  0.10171400  0.05460400  0.01646400  1
  O  O38  1  0.64933400  0.74661300  0.11030600  1
  O  O39  1  0.24828000  0.40911100  0.94689100  1
  O  O40  1  0.02256300  0.44457300  0.73106500  1
  O  O41  1  0.67657000  0.80514600  0.75077400  1
  O  O42  1  0.82343000  0.19485400  0.25077400  1
  O  O43  1  0.52873200  0.44319400  0.57165200  1
  O  O44  1  0.52256300  0.05542700  0.26893500  1
  O  O45  1  0.02786900  0.79869600  0.41764100  1
  O  O46  1  0.82391900  0.84384100  0.93722900  1
  O  O47  1  0.67861900  0.38417800  0.35110700  1
loop_
_geom_bond_atom_site_label_1
_geom_bond_atom_site_label_2
_geom_bond_distance
_geom_bond_site_symmetry_2
La0 O14 2.452964 1_555
La0 O43 2.459989 1_555
La0 O25 2.478623 1_555
La0 O40 2.480030 1_555
La0 O2 2.506933 1_555
La0 O4 2.611790 1_555
La0 O33 2.629705 1_555
La1 O13 2.321111 1_545
La1 O24 2.481730 1_555
La1 O10 2.503970 1_445
La1 O3 2.573255 1_545
La1 O34 2.583194 1_555
La1 O6 2.639291 1_455
La1 O17 2.679506 1_555
La1 O37 2.748774 1_556
La2 O47 2.417279 1_555
La2 O14 2.426192 1_555
La2 O33 2.490702 1_555
La2 O1 2.504656 1_555
La2 O43 2.511815 1_555
La2 O35 2.552263 1_555
La2 O11 2.587951 1_555
La2 O20 2.659933 1_555
La3 O24 2.417279 1_565
La3 O27 2.426192 1_455
La3 O45 2.490702 1_555
La3 O10 2.504656 1_455
La3 O23 2.511815 1_565
La3 O3 2.552263 1_555
La3 O4 2.587951 1_555
La3 O15 2.659933 1_555
La4 O13 2.336469 1_555
La4 O2 2.499784 1_555
La4 O18 2.515239 1_556
La4 O41 2.575477 1_555
La4 O46 2.635911 1_555
La4 O32 2.685025 1_555
La4 O38 2.709091 1_556
La4 O29 2.834849 1_555
La5 O23 2.321111 1_565
La5 O7 2.481730 1_555
La5 O44 2.503970 1_565
La5 O36 2.573255 1_565
La5 O45 2.583194 1_555
La5 O11 2.639291 1_555
La5 O30 2.679506 1_455
La5 O15 2.748774 1_555
La6 O23 2.336469 1_655
La6 O22 2.499784 1_655
La6 O25 2.515239 1_655
La6 O42 2.575477 1_555
La6 O19 2.635911 1_555
La6 O47 2.685025 1_555
La6 O5 2.709091 1_555
La6 O12 2.834849 1_655
La7 O43 2.336469 1_555
La7 O17 2.499784 1_555
La7 O19 2.515239 1_555
La7 O21 2.575477 1_555
La7 O25 2.635911 1_555
La7 O24 2.685025 1_555
La7 O12 2.709091 1_555
La7 O5 2.834849 1_555
La8 O9 2.321111 1_555
La8 O47 2.481730 1_555
La8 O1 2.503970 1_555
La8 O35 2.573255 1_555
La8 O8 2.583194 1_555
La8 O31 2.639291 1_555
La8 O22 2.679506 1_655
La8 O28 2.748774 1_554
La9 O39 2.452964 1_554
La9 O9 2.459989 1_455
La9 O18 2.478623 1_555
La9 O1 2.480030 1_555
La9 O22 2.506933 1_555
La9 O31 2.611790 1_555
La9 O8 2.629705 1_455
La10 O7 2.417279 1_545
La10 O0 2.426192 1_555
La10 O34 2.490702 1_554
La10 O44 2.504656 1_555
La10 O13 2.511815 1_544
La10 O36 2.552263 1_555
La10 O31 2.587951 1_555
La10 O37 2.659933 1_555
La11 O0 2.452964 1_556
La11 O13 2.459989 1_545
La11 O46 2.478623 1_545
La11 O10 2.480030 1_545
La11 O17 2.506933 1_555
La11 O6 2.611790 1_555
La11 O34 2.629705 1_555
La12 O27 2.452964 1_555
La12 O23 2.459989 1_665
La12 O19 2.478623 1_565
La12 O44 2.480030 1_565
La12 O30 2.506933 1_555
La12 O11 2.611790 1_555
La12 O45 2.629705 1_655
La13 O9 2.336469 1_455
La13 O30 2.499784 1_455
La13 O46 2.515239 1_454
La13 O26 2.575477 1_555
La13 O18 2.635911 1_555
La13 O7 2.685025 1_555
La13 O29 2.709091 1_554
La13 O38 2.834849 1_455
La14 O43 2.321111 1_555
La14 O32 2.481730 1_555
La14 O40 2.503970 1_655
La14 O16 2.573255 1_555
La14 O33 2.583194 1_555
La14 O4 2.639291 1_655
La14 O2 2.679506 1_555
La14 O20 2.748774 1_555
La15 O32 2.417279 1_555
La15 O39 2.426192 1_655
La15 O8 2.490702 1_556
La15 O40 2.504656 1_655
La15 O9 2.511815 1_556
La15 O16 2.552263 1_555
La15 O6 2.587951 1_555
La15 O28 2.659933 1_555
O0 W3 1.937781 1_555
O1 W7 1.938551 1_555
O2 W6 2.017332 1_555
O3 W2 1.923766 1_555
O4 W0 1.930060 1_455
O5 W4 1.831000 1_655
O6 W4 1.930060 1_655
O7 W7 1.935825 1_555
O8 W3 1.963855 1_555
O10 W0 1.938551 1_555
O11 W7 1.930060 1_555
O12 W5 1.831000 1_555
O14 W1 1.937781 1_555
O15 W2 1.925120 1_555
O16 W6 1.923766 1_555
O17 W2 2.017332 1_545
O18 W7 1.949459 1_555
O19 W5 1.949459 1_555
O20 W1 1.925120 1_655
O21 W6 2.043059 1_555
O21 W4 2.215706 1_555
O22 W1 2.017332 1_555
O24 W4 1.935825 1_555
O25 W4 1.949459 1_555
O26 W1 2.043059 1_555
O26 W7 2.215706 1_555
O27 W2 1.937781 1_555
O28 W6 1.925120 1_555
O29 W0 1.831000 1_455
O30 W3 2.017332 1_565
O31 W5 1.930060 1_555
O32 W0 1.935825 1_555
O33 W2 1.963855 1_555
O34 W6 1.963855 1_555
O35 W1 1.923766 1_655
O36 W3 1.923766 1_455
O37 W3 1.925120 1_455
O38 W7 1.831000 1_555
O39 W6 1.937781 1_555
O40 W4 1.938551 1_555
O41 W2 2.043059 1_555
O41 W0 2.215706 1_555
O42 W3 2.043059 1_555
O42 W5 2.215706 1_555
O44 W5 1.938551 1_555
O45 W1 1.963855 1_555
O46 W0 1.949459 1_555
O47 W5 1.935825 1_555
