# generated using pymatgen
data_Te2MoCl12
_symmetry_space_group_name_H-M   'P 1'
_cell_length_a   14.13781946
_cell_length_b   14.13781946
_cell_length_c   14.13781988
_cell_angle_alpha   48.06195212
_cell_angle_beta   48.06195212
_cell_angle_gamma   48.06195239
_symmetry_Int_Tables_number   1
_chemical_formula_structural   Te2MoCl12
_chemical_formula_sum   'Te6 Mo3 Cl36'
_cell_volume   1432.69912469
_cell_formula_units_Z   3
loop_
 _symmetry_equiv_pos_site_id
 _symmetry_equiv_pos_as_xyz
  1  'x, y, z'
loop_
 _atom_site_type_symbol
 _atom_site_label
 _atom_site_symmetry_multiplicity
 _atom_site_fract_x
 _atom_site_fract_y
 _atom_site_fract_z
 _atom_site_occupancy
  Te  Te0  1  0.60913200  0.89671600  0.24831300  1
  Te  Te1  1  0.24831300  0.60913200  0.89671600  1
  Te  Te2  1  0.89671600  0.24831300  0.60913200  1
  Te  Te3  1  0.39086800  0.10328400  0.75168700  1
  Te  Te4  1  0.75168700  0.39086800  0.10328400  1
  Te  Te5  1  0.10328400  0.75168700  0.39086800  1
  Mo  Mo0  1  0.25262700  0.25262700  0.25262700  1
  Mo  Mo1  1  0.74737300  0.74737300  0.74737300  1
  Mo  Mo2  1  0.50000000  0.50000000  0.50000000  1
  Cl  Cl0  1  0.73479500  0.74046000  0.38934200  1
  Cl  Cl1  1  0.38934200  0.73479500  0.74046000  1
  Cl  Cl2  1  0.74046000  0.38934200  0.73479500  1
  Cl  Cl3  1  0.26520500  0.25954000  0.61065800  1
  Cl  Cl4  1  0.61065800  0.26520500  0.25954000  1
  Cl  Cl5  1  0.25954000  0.61065800  0.26520500  1
  Cl  Cl6  1  0.74807600  0.78067600  0.10320400  1
  Cl  Cl7  1  0.10320400  0.74807600  0.78067600  1
  Cl  Cl8  1  0.78067600  0.10320400  0.74807600  1
  Cl  Cl9  1  0.25192400  0.21932400  0.89679600  1
  Cl  Cl10  1  0.89679600  0.25192400  0.21932400  1
  Cl  Cl11  1  0.21932400  0.89679600  0.25192400  1
  Cl  Cl12  1  0.73076800  0.03966500  0.09562500  1
  Cl  Cl13  1  0.09562500  0.73076800  0.03966500  1
  Cl  Cl14  1  0.03966500  0.09562500  0.73076800  1
  Cl  Cl15  1  0.26923200  0.96033500  0.90437500  1
  Cl  Cl16  1  0.90437500  0.26923200  0.96033500  1
  Cl  Cl17  1  0.96033500  0.90437500  0.26923200  1
  Cl  Cl18  1  0.41269900  0.11412800  0.11927200  1
  Cl  Cl19  1  0.11927200  0.41269900  0.11412800  1
  Cl  Cl20  1  0.11412800  0.11927200  0.41269900  1
  Cl  Cl21  1  0.58730100  0.88587200  0.88072800  1
  Cl  Cl22  1  0.88072800  0.58730100  0.88587200  1
  Cl  Cl23  1  0.88587200  0.88072800  0.58730100  1
  Cl  Cl24  1  0.39264600  0.09165800  0.38351400  1
  Cl  Cl25  1  0.38351400  0.39264600  0.09165800  1
  Cl  Cl26  1  0.09165800  0.38351400  0.39264600  1
  Cl  Cl27  1  0.60735400  0.90834200  0.61648600  1
  Cl  Cl28  1  0.61648600  0.60735400  0.90834200  1
  Cl  Cl29  1  0.90834200  0.61648600  0.60735400  1
  Cl  Cl30  1  0.43633600  0.73301700  0.44085600  1
  Cl  Cl31  1  0.44085600  0.43633600  0.73301700  1
  Cl  Cl32  1  0.73301700  0.44085600  0.43633600  1
  Cl  Cl33  1  0.56366400  0.26698300  0.55914400  1
  Cl  Cl34  1  0.55914400  0.56366400  0.26698300  1
  Cl  Cl35  1  0.26698300  0.55914400  0.56366400  1
loop_
_geom_bond_atom_site_label_1
_geom_bond_atom_site_label_2
_geom_bond_distance
_geom_bond_site_symmetry_2
Cl0 Te0 2.369227 1_555
Cl1 Te1 2.369227 1_555
Cl2 Te2 2.369227 1_555
Cl3 Te3 2.369227 1_555
Cl4 Te4 2.369227 1_555
Cl5 Te5 2.369227 1_555
Cl6 Te0 2.358683 1_555
Cl7 Te1 2.358683 1_555
Cl8 Te2 2.358683 1_555
Cl9 Te3 2.358683 1_555
Cl10 Te4 2.358683 1_555
Cl11 Te5 2.358683 1_555
Cl12 Te0 2.356624 1_545
Cl13 Te1 2.356624 1_554
Cl14 Te2 2.356624 1_455
Cl15 Te3 2.356624 1_565
Cl16 Te4 2.356624 1_556
Cl17 Te5 2.356624 1_655
Cl18 Mo0 2.412139 1_555
Cl18 Te0 2.890576 1_545
Cl19 Mo0 2.412139 1_555
Cl19 Te1 2.890576 1_554
Cl20 Mo0 2.412139 1_555
Cl20 Te2 2.890576 1_455
Cl21 Mo1 2.412139 1_555
Cl21 Te3 2.890576 1_565
Cl22 Mo1 2.412139 1_555
Cl22 Te4 2.890576 1_556
Cl23 Mo1 2.412139 1_555
Cl23 Te5 2.890576 1_655
Cl24 Mo0 2.401602 1_555
Cl24 Te0 2.926385 1_545
Cl25 Mo0 2.401602 1_555
Cl25 Te1 2.926385 1_554
Cl26 Mo0 2.401602 1_555
Cl26 Te2 2.926385 1_455
Cl27 Mo1 2.401602 1_555
Cl27 Te3 2.926385 1_565
Cl28 Mo1 2.401602 1_555
Cl28 Te4 2.926385 1_556
Cl29 Mo1 2.401602 1_555
Cl29 Te5 2.926385 1_655
Cl30 Mo2 2.392212 1_555
Cl30 Te0 2.996967 1_555
Cl31 Mo2 2.392212 1_555
Cl31 Te1 2.996967 1_555
Cl32 Mo2 2.392212 1_555
Cl32 Te2 2.996967 1_555
Cl33 Mo2 2.392212 1_555
Cl33 Te3 2.996967 1_555
Cl34 Mo2 2.392212 1_555
Cl34 Te4 2.996967 1_555
Cl35 Mo2 2.392212 1_555
Cl35 Te5 2.996967 1_555
