# generated using pymatgen
data_SrLi2Ta2O7
_symmetry_space_group_name_H-M   'P 1'
_cell_length_a   5.56289925
_cell_length_b   5.57788067
_cell_length_c   9.42370048
_cell_angle_alpha   107.21449156
_cell_angle_beta   90.00000000
_cell_angle_gamma   90.00000000
_symmetry_Int_Tables_number   1
_chemical_formula_structural   SrLi2Ta2O7
_chemical_formula_sum   'Sr2 Li4 Ta4 O14'
_cell_volume   279.31085265
_cell_formula_units_Z   2
loop_
 _symmetry_equiv_pos_site_id
 _symmetry_equiv_pos_as_xyz
  1  'x, y, z'
loop_
 _atom_site_type_symbol
 _atom_site_label
 _atom_site_symmetry_multiplicity
 _atom_site_fract_x
 _atom_site_fract_y
 _atom_site_fract_z
 _atom_site_occupancy
  Sr  Sr0  1  0.75000000  0.25531357  -0.00000000  1
  Sr  Sr1  1  0.25000000  0.74468643  0.00000000  1
  Li  Li0  1  0.50000000  0.25981699  0.51963497  1
  Li  Li1  1  0.50000000  0.74018301  0.48036503  1
  Li  Li2  1  0.00000000  0.74018301  0.48036503  1
  Li  Li3  1  0.00000000  0.25981699  0.51963497  1
  Ta  Ta0  1  0.25000000  0.36248263  0.23239587  1
  Ta  Ta1  1  0.25000000  0.13008675  0.76760413  1
  Ta  Ta2  1  0.75000000  0.86991325  0.23239587  1
  Ta  Ta3  1  0.75000000  0.63751737  0.76760413  1
  O  O0  1  0.00000000  0.09659226  0.19318552  1
  O  O1  1  0.75000000  0.55911557  0.56155871  1
  O  O2  1  0.00000000  0.38450452  0.76900903  1
  O  O3  1  0.50000000  0.09659226  0.19318552  1
  O  O4  1  0.75000000  0.99755685  0.43844129  1
  O  O5  1  -0.00000000  0.90340774  0.80681448  1
  O  O6  1  0.50000000  0.38450452  0.76900903  1
  O  O7  1  0.50000000  0.61549548  0.23099097  1
  O  O8  1  0.50000000  0.90340774  0.80681448  1
  O  O9  1  0.25000000  0.00244315  0.56155871  1
  O  O10  1  0.25000000  0.29008395  -0.00000000  1
  O  O11  1  0.25000000  0.44088443  0.43844129  1
  O  O12  1  0.00000000  0.61549548  0.23099097  1
  O  O13  1  0.75000000  0.70991605  0.00000000  1
loop_
_geom_bond_atom_site_label_1
_geom_bond_atom_site_label_2
_geom_bond_distance
_geom_bond_site_symmetry_2
Li0 O4 1.999249 1_545
Li0 O11 1.999253 1_555
Li0 O9 2.118221 1_555
Li0 O1 2.118225 1_555
Li0 O6 2.244754 1_555
Li1 O9 1.999249 1_565
Li1 O1 1.999253 1_555
Li1 O4 2.118221 1_555
Li1 O11 2.118225 1_555
Li1 O7 2.244754 1_555
Li2 O9 1.999249 1_565
Li2 O1 1.999253 1_455
Li2 O4 2.118221 1_455
Li2 O11 2.118225 1_555
Li2 O12 2.244754 1_555
Li3 O4 1.999249 1_445
Li3 O11 1.999253 1_555
Li3 O9 2.118221 1_555
Li3 O1 2.118225 1_455
Li3 O2 2.244754 1_555
O0 Ta2 1.986420 1_445
O0 Ta0 1.986424 1_555
O0 Sr1 2.643144 1_545
O0 Sr0 2.643147 1_455
O1 Ta3 1.859806 1_555
O2 Ta3 1.984200 1_455
O2 Ta1 1.984200 1_555
O2 Sr1 2.849610 1_556
O2 Sr0 2.849610 1_456
O3 Ta2 1.986420 1_545
O3 Ta0 1.986424 1_555
O3 Sr1 2.643144 1_545
O3 Sr0 2.643147 1_555
O4 Ta2 1.859806 1_555
O5 Ta1 1.986420 1_565
O5 Ta3 1.986424 1_455
O5 Sr0 2.643144 1_466
O5 Sr1 2.643147 1_556
O6 Ta3 1.984200 1_555
O6 Ta1 1.984200 1_555
O6 Sr1 2.849610 1_556
O6 Sr0 2.849610 1_556
O7 Ta0 1.984200 1_555
O7 Ta2 1.984200 1_555
O7 Sr0 2.849610 1_555
O7 Sr1 2.849610 1_555
O8 Ta1 1.986420 1_565
O8 Ta3 1.986424 1_555
O8 Sr0 2.643144 1_566
O8 Sr1 2.643147 1_556
O9 Ta1 1.859806 1_555
O10 Ta1 2.106141 1_554
O10 Ta0 2.106141 1_555
O10 Sr1 2.535718 1_555
O10 Sr0 2.788203 1_555
O10 Sr0 2.788203 1_455
O10 Sr1 3.042162 1_545
O11 Ta0 1.859806 1_555
O12 Ta0 1.984200 1_555
O12 Ta2 1.984200 1_455
O12 Sr0 2.849610 1_455
O12 Sr1 2.849610 1_555
O13 Ta2 2.106141 1_555
O13 Ta3 2.106141 1_554
O13 Sr0 2.535718 1_555
O13 Sr1 2.788203 1_555
O13 Sr1 2.788203 1_655
O13 Sr0 3.042162 1_565
