# generated using pymatgen
data_Ti2Fe(PO5)2
_symmetry_space_group_name_H-M   'P 1'
_cell_length_a   7.45563482
_cell_length_b   10.61600846
_cell_length_c   10.61574167
_cell_angle_alpha   90.06864306
_cell_angle_beta   110.43262957
_cell_angle_gamma   110.42642410
_symmetry_Int_Tables_number   1
_chemical_formula_structural   Ti2Fe(PO5)2
_chemical_formula_sum   'Ti8 Fe4 P8 O40'
_cell_volume   730.57551057
_cell_formula_units_Z   4
loop_
 _symmetry_equiv_pos_site_id
 _symmetry_equiv_pos_as_xyz
  1  'x, y, z'
loop_
 _atom_site_type_symbol
 _atom_site_label
 _atom_site_symmetry_multiplicity
 _atom_site_fract_x
 _atom_site_fract_y
 _atom_site_fract_z
 _atom_site_occupancy
  Ti  Ti0  1  0.97211200  0.49229800  0.21587800  1
  Ti  Ti1  1  0.97222100  0.99235700  0.71589600  1
  Ti  Ti2  1  0.02789000  0.50770300  0.78412200  1
  Ti  Ti3  1  0.02778200  0.00764400  0.28410600  1
  Ti  Ti4  1  0.47207900  0.21585400  0.99226800  1
  Ti  Ti5  1  0.47212100  0.71588400  0.49229000  1
  Ti  Ti6  1  0.52792000  0.78414500  0.00773200  1
  Ti  Ti7  1  0.52787900  0.28411700  0.50771100  1
  Fe  Fe0  1  0.00000900  0.50000600  0.50000200  1
  Fe  Fe1  1  0.50003800  0.00000800  0.49999300  1
  Fe  Fe2  1  0.99996200  0.99998200  0.00000300  1
  Fe  Fe3  1  0.49996100  0.49999300  0.99997500  1
  P  P0  1  0.25004900  0.31011000  0.69203200  1
  P  P1  1  0.25005900  0.81010100  0.19200400  1
  P  P2  1  0.75005900  0.69202500  0.81013400  1
  P  P3  1  0.75003100  0.19201500  0.31009200  1
  P  P4  1  0.74995000  0.68989200  0.30796900  1
  P  P5  1  0.74994200  0.18989900  0.80799700  1
  P  P6  1  0.24994200  0.30797500  0.18986600  1
  P  P7  1  0.24996900  0.80798400  0.68990800  1
  O  O0  1  0.36850600  0.82810100  0.09611200  1
  O  O1  1  0.36853300  0.32808000  0.59613400  1
  O  O2  1  0.63149400  0.17189800  0.90389000  1
  O  O3  1  0.63146800  0.67192000  0.40386600  1
  O  O4  1  0.13145900  0.40386800  0.17189200  1
  O  O5  1  0.13147200  0.90387800  0.67192300  1
  O  O6  1  0.86854200  0.59613300  0.82811000  1
  O  O7  1  0.86853000  0.09612400  0.32807800  1
  O  O8  1  0.73585900  0.42255700  0.08078600  1
  O  O9  1  0.73587700  0.92251100  0.58084200  1
  O  O10  1  0.76406600  0.91916200  0.07758300  1
  O  O11  1  0.76416400  0.41918900  0.57748900  1
  O  O12  1  0.23593500  0.08083800  0.92241900  1
  O  O13  1  0.23583600  0.58081000  0.42251100  1
  O  O14  1  0.26414200  0.57744500  0.91921600  1
  O  O15  1  0.26412400  0.07748900  0.41915900  1
  O  O16  1  0.39970300  0.33701400  0.84312900  1
  O  O17  1  0.39971200  0.83705900  0.34314200  1
  O  O18  1  0.89969300  0.34312600  0.33702400  1
  O  O19  1  0.89978200  0.84313500  0.83719300  1
  O  O20  1  0.60029900  0.66298600  0.15687200  1
  O  O21  1  0.60028800  0.16293900  0.65685900  1
  O  O22  1  0.10030900  0.65687400  0.66297800  1
  O  O23  1  0.10021800  0.15686500  0.16280800  1
  O  O24  1  0.64684200  0.67032400  0.91628900  1
  O  O25  1  0.64679000  0.17030900  0.41624600  1
  O  O26  1  0.14680800  0.41625000  0.67032200  1
  O  O27  1  0.14668400  0.91618900  0.17024700  1
  O  O28  1  0.35315900  0.32967600  0.08371300  1
  O  O29  1  0.35321300  0.82969400  0.58375500  1
  O  O30  1  0.85319200  0.58375100  0.32967700  1
  O  O31  1  0.85331600  0.08381000  0.82975500  1
  O  O32  1  0.08631200  0.66456700  0.15998900  1
  O  O33  1  0.08629800  0.16457200  0.65998800  1
  O  O34  1  0.58630300  0.66001400  0.66455800  1
  O  O35  1  0.58629900  0.15997400  0.16455900  1
  O  O36  1  0.91368900  0.33543400  0.84001300  1
  O  O37  1  0.91370200  0.83542800  0.34001300  1
  O  O38  1  0.41369800  0.33998600  0.33544200  1
  O  O39  1  0.41370500  0.84002800  0.83544300  1
loop_
_geom_bond_atom_site_label_1
_geom_bond_atom_site_label_2
_geom_bond_distance
_geom_bond_site_symmetry_2
Fe0 O13 2.112525 1_555
Fe0 O11 2.112623 1_455
Fe0 O22 2.132200 1_555
Fe0 O18 2.132274 1_455
Fe0 O26 2.135192 1_555
Fe0 O30 2.135207 1_455
Fe1 O9 2.112567 1_545
Fe1 O15 2.112895 1_555
Fe1 O17 2.131849 1_545
Fe1 O21 2.131938 1_555
Fe1 O25 2.135031 1_555
Fe1 O29 2.135415 1_545
Fe2 O10 2.113613 1_555
Fe2 O12 2.114161 1_664
Fe2 O19 2.131024 1_554
Fe2 O23 2.131123 1_665
Fe2 O27 2.134680 1_655
Fe2 O31 2.134724 1_564
Fe3 O14 2.112008 1_555
Fe3 O8 2.112444 1_556
Fe3 O16 2.132137 1_555
Fe3 O20 2.132473 1_556
Fe3 O24 2.135206 1_555
Fe3 O28 2.135223 1_556
O0 P1 1.537196 1_555
O0 Ti6 1.917099 1_555
O1 P0 1.537485 1_555
O1 Ti7 1.917012 1_555
O2 P5 1.537210 1_555
O2 Ti4 1.917091 1_555
O3 P4 1.537463 1_555
O3 Ti5 1.917031 1_555
O4 P6 1.537383 1_555
O4 Ti0 1.917164 1_455
O5 P7 1.537462 1_555
O5 Ti1 1.916841 1_455
O6 P2 1.537372 1_555
O6 Ti2 1.917181 1_655
O7 P3 1.537446 1_555
O7 Ti3 1.916851 1_655
O8 Ti0 1.740933 1_555
O8 Ti4 2.293119 1_554
O9 Ti1 1.741214 1_555
O9 Ti5 2.292560 1_555
O10 Ti6 1.740270 1_555
O10 Ti3 2.291497 1_665
O11 Ti7 1.741086 1_555
O11 Ti2 2.292330 1_655
O12 Ti4 1.740255 1_555
O12 Ti1 2.291490 1_445
O13 Ti5 1.741096 1_555
O13 Ti0 2.292322 1_455
O14 Ti2 1.740940 1_555
O14 Ti6 2.293090 1_556
O15 Ti3 1.741200 1_555
O15 Ti7 2.292564 1_555
O16 P0 1.557633 1_555
O16 Ti4 2.084470 1_555
O17 P1 1.557932 1_555
O17 Ti5 2.084698 1_555
O18 P3 1.557874 1_555
O18 Ti0 2.084746 1_555
O19 P2 1.557908 1_555
O19 Ti1 2.086268 1_555
O20 P4 1.557625 1_555
O20 Ti6 2.084474 1_555
O21 P5 1.557933 1_555
O21 Ti7 2.084721 1_555
O22 P7 1.557863 1_555
O22 Ti2 2.084723 1_555
O23 P6 1.557911 1_555
O23 Ti3 2.086264 1_555
O24 P2 1.548414 1_555
O24 Ti6 2.129424 1_556
O25 P3 1.548529 1_555
O25 Ti7 2.129403 1_555
O26 P0 1.548351 1_555
O26 Ti2 2.129309 1_555
O27 P1 1.548540 1_555
O27 Ti3 2.129676 1_565
O28 P6 1.548395 1_555
O28 Ti4 2.129433 1_554
O29 P7 1.548534 1_555
O29 Ti5 2.129401 1_555
O30 P4 1.548366 1_555
O30 Ti0 2.129313 1_555
O31 P5 1.548544 1_555
O31 Ti1 2.129681 1_545
O32 P1 1.544479 1_555
O32 Ti0 1.920917 1_455
O33 P0 1.544503 1_555
O33 Ti1 1.920353 1_445
O34 P2 1.544704 1_555
O34 Ti5 1.920647 1_555
O35 P3 1.544290 1_555
O35 Ti4 1.920953 1_554
O36 P5 1.544486 1_555
O36 Ti2 1.920928 1_655
O37 P4 1.544491 1_555
O37 Ti3 1.920361 1_665
O38 P6 1.544704 1_555
O38 Ti7 1.920649 1_555
O39 P7 1.544314 1_555
O39 Ti6 1.920943 1_556
