# generated using pymatgen
data_Cu3Se2(ClO3)2
_symmetry_space_group_name_H-M   'P 1'
_cell_length_a   5.50408827
_cell_length_b   5.50408827
_cell_length_c   7.81397617
_cell_angle_alpha   75.68870351
_cell_angle_beta   75.68870351
_cell_angle_gamma   69.16062153
_symmetry_Int_Tables_number   1
_chemical_formula_structural   Cu3Se2(ClO3)2
_chemical_formula_sum   'Cu3 Se2 Cl2 O6'
_cell_volume   211.03161681
_cell_formula_units_Z   1
loop_
 _symmetry_equiv_pos_site_id
 _symmetry_equiv_pos_as_xyz
  1  'x, y, z'
loop_
 _atom_site_type_symbol
 _atom_site_label
 _atom_site_symmetry_multiplicity
 _atom_site_fract_x
 _atom_site_fract_y
 _atom_site_fract_z
 _atom_site_occupancy
  Cu  Cu0  1  0.43127600  0.43127600  0.82183900  1
  Cu  Cu1  1  0.00000000  0.00000000  0.00000000  1
  Cu  Cu2  1  0.56872400  0.56872400  0.17816100  1
  Se  Se0  1  0.83293500  0.83293500  0.73960600  1
  Se  Se1  1  0.16706500  0.16706500  0.26039400  1
  Cl  Cl0  1  0.70794100  0.70794100  0.36805300  1
  Cl  Cl1  1  0.29205900  0.29205900  0.63194700  1
  O  O0  1  0.26857600  0.88806700  0.14935600  1
  O  O1  1  0.73142400  0.11193300  0.85064400  1
  O  O2  1  0.64600400  0.64600400  0.86993000  1
  O  O3  1  0.35399600  0.35399600  0.13007000  1
  O  O4  1  0.11193300  0.73142400  0.85064400  1
  O  O5  1  0.88806700  0.26857600  0.14935600  1
loop_
_geom_bond_atom_site_label_1
_geom_bond_atom_site_label_2
_geom_bond_distance
_geom_bond_site_symmetry_2
Cu0 O4 1.947201 1_555
Cu0 O1 1.947201 1_555
Cu0 O2 2.089950 1_555
Cu0 O3 2.297508 1_556
Cu1 O0 1.943280 1_545
Cu1 O5 1.943280 1_455
Cu1 O4 1.943280 1_544
Cu1 O1 1.943280 1_454
Cu2 O5 1.947201 1_555
Cu2 O0 1.947201 1_555
Cu2 O3 2.089950 1_555
Cu2 O2 2.297508 1_554
Cl0 Cu2 2.217653 1_555
Cl1 Cu0 2.217653 1_555
O0 Se1 1.797700 1_565
O1 Se0 1.797700 1_545
O2 Se0 1.694535 1_555
O3 Se1 1.694535 1_555
O4 Se0 1.797700 1_455
O5 Se1 1.797700 1_655
