# generated using pymatgen
data_ZnS
_symmetry_space_group_name_H-M   'P 1'
_cell_length_a   3.80915336
_cell_length_b   3.80915303
_cell_length_c   74.75008740
_cell_angle_alpha   90.00000000
_cell_angle_beta   90.00000000
_cell_angle_gamma   120.00000291
_symmetry_Int_Tables_number   1
_chemical_formula_structural   ZnS
_chemical_formula_sum   'Zn24 S24'
_cell_volume   939.28892525
_cell_formula_units_Z   24
loop_
 _symmetry_equiv_pos_site_id
 _symmetry_equiv_pos_as_xyz
  1  'x, y, z'
loop_
 _atom_site_type_symbol
 _atom_site_label
 _atom_site_symmetry_multiplicity
 _atom_site_fract_x
 _atom_site_fract_y
 _atom_site_fract_z
 _atom_site_occupancy
  Zn  Zn0  1  0.66666700  0.33333300  0.58342357  1
  Zn  Zn1  1  0.33333300  0.66666700  0.66671559  1
  Zn  Zn2  1  0.66666700  0.33333300  0.33332197  1
  Zn  Zn3  1  0.33333300  0.66666700  0.29169129  1
  Zn  Zn4  1  0.00000000  0.00000000  0.24994572  1
  Zn  Zn5  1  0.33333300  0.66666700  0.08331622  1
  Zn  Zn6  1  0.33333300  0.66666700  0.20826549  1
  Zn  Zn7  1  -0.00000000  0.00000000  0.54170437  1
  Zn  Zn8  1  0.66666700  0.33333300  0.70829816  1
  Zn  Zn9  1  -0.00000000  -0.00000000  0.12496255  1
  Zn  Zn10  1  0.66666700  0.33333300  0.16665620  1
  Zn  Zn11  1  -0.00000000  -0.00000000  0.83342700  1
  Zn  Zn12  1  0.33333300  0.66666700  0.79168905  1
  Zn  Zn13  1  0.66666700  0.33333300  0.45835035  1
  Zn  Zn14  1  -0.00000000  -0.00000000  0.74993551  1
  Zn  Zn15  1  0.66666700  0.33333300  0.04170023  1
  Zn  Zn16  1  0.33333300  0.66666700  0.41667496  1
  Zn  Zn17  1  0.66666700  0.33333300  0.95830913  1
  Zn  Zn18  1  0.33333300  0.66666700  0.91666316  1
  Zn  Zn19  1  0.00000000  -0.00000000  0.37502338  1
  Zn  Zn20  1  0.66666700  0.33333300  0.87498624  1
  Zn  Zn21  1  0.00000000  -0.00000000  0.62515779  1
  Zn  Zn22  1  0.33333300  0.66666700  0.50009734  1
  Zn  Zn23  1  0.00000000  -0.00000000  0.99996089  1
  S  S0  1  0.66666700  0.33333300  0.98949052  1
  S  S1  1  0.00000000  -0.00000000  0.40625183  1
  S  S2  1  0.66666700  0.33333300  0.61471108  1
  S  S3  1  -0.00000000  -0.00000000  0.65633920  1
  S  S4  1  0.33333300  0.66666700  0.44787935  1
  S  S5  1  0.33333300  0.66666700  0.94790924  1
  S  S6  1  -0.00000000  -0.00000000  0.86461820  1
  S  S7  1  -0.00000000  -0.00000000  0.03124348  1
  S  S8  1  0.33333300  0.66666700  0.82297697  1
  S  S9  1  0.66666700  0.33333300  0.48963134  1
  S  S10  1  0.00000000  -0.00000000  0.57291892  1
  S  S11  1  0.66666700  0.33333300  0.73951054  1
  S  S12  1  0.00000000  -0.00000000  0.28123186  1
  S  S13  1  0.66666700  0.33333300  0.36456063  1
  S  S14  1  0.33333300  0.66666700  0.69790866  1
  S  S15  1  0.66666700  0.33333300  0.90619138  1
  S  S16  1  0.33333300  0.66666700  0.11453086  1
  S  S17  1  0.66666700  0.33333300  0.07290316  1
  S  S18  1  -0.00000000  -0.00000000  0.15620617  1
  S  S19  1  0.33333300  0.66666700  0.23946611  1
  S  S20  1  0.33333300  0.66666700  0.53129506  1
  S  S21  1  0.00000000  0.00000000  0.78117910  1
  S  S22  1  0.33333300  0.66666700  0.32290046  1
  S  S23  1  0.66666700  0.33333300  0.19786570  1
loop_
_geom_bond_atom_site_label_1
_geom_bond_atom_site_label_2
_geom_bond_distance
_geom_bond_site_symmetry_2
S0 Zn17 2.330812 1_555
S0 Zn23 2.334330 1_655
S0 Zn23 2.334333 1_665
S0 Zn23 2.334333 1_555
S1 Zn16 2.333149 1_545
S1 Zn16 2.333152 1_555
S1 Zn16 2.333152 1_445
S1 Zn19 2.334329 1_555
S2 Zn21 2.333738 1_655
S2 Zn21 2.333741 1_665
S2 Zn21 2.333741 1_555
S2 Zn0 2.338744 1_555
S3 Zn21 2.330813 1_555
S3 Zn1 2.331984 1_545
S3 Zn1 2.331987 1_555
S3 Zn1 2.331987 1_445
S4 Zn16 2.332531 1_555
S4 Zn13 2.334346 1_565
S4 Zn13 2.334346 1_455
S4 Zn13 2.334352 1_555
S5 Zn17 2.332569 1_565
S5 Zn17 2.332569 1_455
S5 Zn17 2.332575 1_555
S5 Zn18 2.335647 1_555
S6 Zn11 2.331545 1_555
S6 Zn20 2.331777 1_455
S6 Zn20 2.331780 1_445
S6 Zn20 2.331780 1_555
S7 Zn15 2.333989 1_455
S7 Zn15 2.333992 1_445
S7 Zn15 2.333992 1_555
S7 Zn23 2.338376 1_554
S8 Zn11 2.333821 1_565
S8 Zn11 2.333824 1_555
S8 Zn11 2.333824 1_665
S8 Zn12 2.338775 1_555
S9 Zn22 2.334221 1_545
S9 Zn22 2.334221 1_655
S9 Zn22 2.334227 1_555
S9 Zn13 2.338257 1_555
S10 Zn7 2.333290 1_555
S10 Zn0 2.335191 1_455
S10 Zn0 2.335194 1_445
S10 Zn0 2.335194 1_555
S11 Zn8 2.333128 1_555
S11 Zn14 2.333195 1_655
S11 Zn14 2.333198 1_665
S11 Zn14 2.333198 1_555
S12 Zn3 2.334056 1_545
S12 Zn3 2.334059 1_555
S12 Zn3 2.334059 1_445
S12 Zn4 2.338642 1_555
S13 Zn19 2.334139 1_655
S13 Zn19 2.334142 1_665
S13 Zn19 2.334143 1_555
S13 Zn2 2.335093 1_555
S14 Zn1 2.331685 1_555
S14 Zn8 2.332310 1_565
S14 Zn8 2.332311 1_455
S14 Zn8 2.332317 1_555
S15 Zn20 2.332587 1_555
S15 Zn18 2.334366 1_545
S15 Zn18 2.334366 1_655
S15 Zn18 2.334372 1_555
S16 Zn5 2.333297 1_555
S16 Zn9 2.333363 1_565
S16 Zn9 2.333365 1_555
S16 Zn9 2.333366 1_665
S17 Zn15 2.332422 1_555
S17 Zn5 2.332897 1_545
S17 Zn5 2.332898 1_655
S17 Zn5 2.332904 1_555
S18 Zn10 2.333821 1_455
S18 Zn10 2.333824 1_445
S18 Zn10 2.333824 1_555
S18 Zn9 2.335463 1_555
S19 Zn6 2.332249 1_555
S19 Zn4 2.334562 1_565
S19 Zn4 2.334565 1_555
S19 Zn4 2.334565 1_665
S20 Zn22 2.332032 1_555
S20 Zn7 2.332804 1_565
S20 Zn7 2.332807 1_555
S20 Zn7 2.332807 1_665
S21 Zn12 2.335324 1_545
S21 Zn12 2.335327 1_555
S21 Zn12 2.335327 1_445
S21 Zn14 2.335461 1_555
S22 Zn3 2.332888 1_555
S22 Zn2 2.333108 1_565
S22 Zn2 2.333108 1_455
S22 Zn2 2.333115 1_555
S23 Zn6 2.332567 1_545
S23 Zn6 2.332567 1_655
S23 Zn6 2.332573 1_555
S23 Zn10 2.332913 1_555
