# generated using pymatgen
data_Rb3U2Ge2O11
_symmetry_space_group_name_H-M   'P 1'
_cell_length_a   12.40711800
_cell_length_b   7.06285500
_cell_length_c   15.60387412
_cell_angle_alpha   79.49786838
_cell_angle_beta   90.00000000
_cell_angle_gamma   90.00000000
_symmetry_Int_Tables_number   1
_chemical_formula_structural   Rb3U2Ge2O11
_chemical_formula_sum   'Rb12 U8 Ge8 O44'
_cell_volume   1344.45654226
_cell_formula_units_Z   4
loop_
 _symmetry_equiv_pos_site_id
 _symmetry_equiv_pos_as_xyz
  1  'x, y, z'
loop_
 _atom_site_type_symbol
 _atom_site_label
 _atom_site_symmetry_multiplicity
 _atom_site_fract_x
 _atom_site_fract_y
 _atom_site_fract_z
 _atom_site_occupancy
  Rb  Rb0  1  0.64998100  0.42118200  0.08822700  1
  Rb  Rb1  1  0.84039400  0.11516000  0.33808100  1
  Rb  Rb2  1  0.85001900  0.92118200  0.58822700  1
  Rb  Rb3  1  0.82726400  0.91445500  0.07458900  1
  Rb  Rb4  1  0.67273600  0.41445500  0.57458900  1
  Rb  Rb5  1  0.65960600  0.61516000  0.83808100  1
  Rb  Rb6  1  0.17273600  0.08554500  0.92541100  1
  Rb  Rb7  1  0.35001900  0.57881800  0.91177300  1
  Rb  Rb8  1  0.34039400  0.38484000  0.16191900  1
  Rb  Rb9  1  0.14998100  0.07881800  0.41177300  1
  Rb  Rb10  1  0.15960600  0.88484000  0.66191900  1
  Rb  Rb11  1  0.32726400  0.58554500  0.42541100  1
  U  U0  1  0.55684600  0.89721800  0.25624300  1
  U  U1  1  0.44315400  0.10278200  0.74375700  1
  U  U2  1  0.05684600  0.60278200  0.24375700  1
  U  U3  1  0.50000000  0.00000000  0.00000000  1
  U  U4  1  0.00000000  0.50000000  0.00000000  1
  U  U5  1  0.94315400  0.39721800  0.75624300  1
  U  U6  1  0.00000000  0.50000000  0.50000000  1
  U  U7  1  0.50000000  0.00000000  0.50000000  1
  Ge  Ge0  1  0.42698600  0.62370500  0.67519900  1
  Ge  Ge1  1  0.79234500  0.61574400  0.34085800  1
  Ge  Ge2  1  0.70765500  0.11574400  0.84085800  1
  Ge  Ge3  1  0.57301400  0.37629500  0.32480100  1
  Ge  Ge4  1  0.20765500  0.38425600  0.65914200  1
  Ge  Ge5  1  0.29234500  0.88425600  0.15914200  1
  Ge  Ge6  1  0.92698600  0.87629500  0.82480100  1
  Ge  Ge7  1  0.07301400  0.12370500  0.17519900  1
  O  O0  1  0.02067300  0.78380800  0.90629100  1
  O  O1  1  0.02499600  0.91512400  0.24566800  1
  O  O2  1  0.27205000  0.18195900  0.72115200  1
  O  O3  1  0.89506700  0.70186300  0.75990900  1
  O  O4  1  0.88628900  0.52471600  0.27317800  1
  O  O5  1  0.97932700  0.21619200  0.09370900  1
  O  O6  1  0.47500400  0.41512400  0.74566800  1
  O  O7  1  0.47729300  0.14959000  0.61443900  1
  O  O8  1  0.22795000  0.68195900  0.22115200  1
  O  O9  1  0.97729300  0.35041000  0.88556100  1
  O  O10  1  0.52499600  0.58487600  0.25433200  1
  O  O11  1  0.38628900  0.97528400  0.22682200  1
  O  O12  1  0.61371100  0.02471600  0.77317800  1
  O  O13  1  0.39506700  0.79813700  0.74009100  1
  O  O14  1  0.94827100  0.26275000  0.47598200  1
  O  O15  1  0.30501200  0.56946000  0.62129400  1
  O  O16  1  0.52067300  0.71619200  0.59370900  1
  O  O17  1  0.59222600  0.95318200  0.12496300  1
  O  O18  1  0.52270700  0.85041000  0.38556100  1
  O  O19  1  0.64427100  0.16867900  0.93491600  1
  O  O20  1  0.85106100  0.54219100  0.00439300  1
  O  O21  1  0.14427100  0.33132100  0.56508400  1
  O  O22  1  0.80501200  0.93054000  0.87870600  1
  O  O23  1  0.11371100  0.47528400  0.72682200  1
  O  O24  1  0.69498800  0.43054000  0.37870600  1
  O  O25  1  0.35106100  0.95780900  0.49560700  1
  O  O26  1  0.97500400  0.08487600  0.75433200  1
  O  O27  1  0.02270700  0.64959000  0.11443900  1
  O  O28  1  0.90777400  0.45318200  0.62496300  1
  O  O29  1  0.44827100  0.23725000  0.02401800  1
  O  O30  1  0.72795000  0.81804100  0.27884800  1
  O  O31  1  0.64893900  0.04219100  0.50439300  1
  O  O32  1  0.05172900  0.73725000  0.52401800  1
  O  O33  1  0.14893900  0.45780900  0.99560700  1
  O  O34  1  0.77205000  0.31804100  0.77884800  1
  O  O35  1  0.09222600  0.54681800  0.37503700  1
  O  O36  1  0.40777400  0.04681800  0.87503700  1
  O  O37  1  0.85572900  0.66867900  0.43491600  1
  O  O38  1  0.55172900  0.76275000  0.97598200  1
  O  O39  1  0.10493300  0.29813700  0.24009100  1
  O  O40  1  0.19498800  0.06946000  0.12129400  1
  O  O41  1  0.60493300  0.20186300  0.25990900  1
  O  O42  1  0.47932700  0.28380800  0.40629100  1
  O  O43  1  0.35572900  0.83132100  0.06508400  1
loop_
_geom_bond_atom_site_label_1
_geom_bond_atom_site_label_2
_geom_bond_distance
_geom_bond_site_symmetry_2
Ge0 O16 1.758383 1_555
Ge0 O6 1.773066 1_555
Ge0 O13 1.776141 1_555
Ge0 O15 1.806093 1_555
Ge1 O30 1.764099 1_555
Ge1 O37 1.764174 1_555
Ge1 O4 1.770509 1_555
Ge1 O24 1.799244 1_555
Ge2 O34 1.764099 1_555
Ge2 O19 1.764174 1_555
Ge2 O12 1.770509 1_555
Ge2 O22 1.799244 1_545
Ge3 O42 1.758383 1_555
Ge3 O10 1.773066 1_555
Ge3 O41 1.776141 1_555
Ge3 O24 1.806093 1_555
Ge4 O2 1.764099 1_555
Ge4 O21 1.764174 1_555
Ge4 O23 1.770509 1_555
Ge4 O15 1.799244 1_555
Ge5 O8 1.764099 1_555
Ge5 O43 1.764174 1_555
Ge5 O11 1.770509 1_555
Ge5 O40 1.799244 1_565
Ge6 O0 1.758383 1_655
Ge6 O26 1.773066 1_565
Ge6 O3 1.776141 1_555
Ge6 O22 1.806093 1_555
Ge7 O5 1.758383 1_455
Ge7 O1 1.773066 1_545
Ge7 O39 1.776141 1_555
Ge7 O40 1.806093 1_555
O0 U4 2.270110 1_556
O0 Rb6 2.902065 1_565
O1 U2 2.246682 1_555
O1 Rb1 3.172375 1_465
O1 Rb9 3.398764 1_565
O2 U1 2.207253 1_555
O2 Rb10 2.812718 1_545
O2 Rb6 3.368868 1_555
O3 U5 2.243603 1_555
O3 Rb2 2.894069 1_555
O3 Rb5 3.181998 1_555
O4 U2 2.213697 1_655
O4 Rb1 2.940968 1_555
O5 U4 2.270110 1_655
O5 Rb3 2.902065 1_545
O6 U1 2.246682 1_555
O6 Rb5 3.172375 1_555
O6 Rb7 3.398764 1_555
O7 U1 2.029109 1_555
O7 U7 2.252130 1_555
O7 Rb4 3.056501 1_555
O8 U2 2.207253 1_555
O8 Rb8 2.812718 1_555
O8 Rb11 3.368868 1_555
O9 U5 2.029109 1_555
O9 U4 2.252130 1_656
O9 Rb6 3.056501 1_655
O10 U0 2.246682 1_555
O10 Rb8 3.172375 1_555
O10 Rb0 3.398764 1_555
O11 U0 2.213697 1_555
O11 Rb8 2.940968 1_565
O12 U1 2.213697 1_555
O12 Rb5 2.940968 1_545
O13 U1 2.243603 1_565
O13 Rb7 2.894069 1_555
O13 Rb10 3.181998 1_555
O14 U6 1.894505 1_655
O14 Rb1 2.885468 1_555
O14 Rb2 2.972071 1_545
O14 Rb9 3.070688 1_655
O15 Rb10 3.022074 1_555
O15 Rb11 3.050400 1_555
O16 U7 2.270110 1_565
O16 Rb4 2.902065 1_555
O17 U0 2.061556 1_555
O17 U3 2.232881 1_565
O17 Rb3 3.045477 1_555
O17 Rb0 3.328231 1_565
O18 U0 2.029109 1_555
O18 U7 2.252130 1_565
O18 Rb11 3.056501 1_555
O19 U3 2.283350 1_556
O19 Rb0 3.234749 1_556
O19 Rb5 3.244450 1_555
O19 Rb3 3.420843 1_546
O20 U4 1.875018 1_655
O20 Rb0 2.873717 1_555
O20 Rb3 3.041333 1_555
O20 Rb5 3.486431 1_554
O21 U6 2.283350 1_555
O21 Rb9 3.234749 1_555
O21 Rb10 3.244450 1_545
O21 Rb11 3.420843 1_555
O22 Rb5 3.022074 1_555
O22 Rb3 3.050400 1_556
O23 U5 2.213697 1_455
O23 Rb10 2.940968 1_555
O24 Rb1 3.022074 1_555
O24 Rb4 3.050400 1_555
O25 U7 1.875018 1_565
O25 Rb9 2.873717 1_565
O25 Rb11 3.041333 1_555
O25 Rb10 3.486431 1_555
O26 U5 2.246682 1_555
O26 Rb10 3.172375 1_645
O26 Rb2 3.398764 1_545
O27 U2 2.029109 1_555
O27 U4 2.252130 1_555
O27 Rb3 3.056501 1_455
O28 U5 2.061556 1_555
O28 U6 2.232881 1_655
O28 Rb4 3.045477 1_555
O28 Rb2 3.328231 1_555
O29 U3 1.894505 1_555
O29 Rb8 2.885468 1_555
O29 Rb7 2.972071 1_554
O29 Rb0 3.070688 1_555
O30 U0 2.207253 1_555
O30 Rb1 2.812718 1_565
O30 Rb3 3.368868 1_555
O31 U7 1.875018 1_555
O31 Rb2 2.873717 1_545
O31 Rb4 3.041333 1_555
O31 Rb1 3.486431 1_555
O32 U6 1.894505 1_555
O32 Rb10 2.885468 1_555
O32 Rb9 2.972071 1_565
O32 Rb2 3.070688 1_455
O33 U4 1.875018 1_556
O33 Rb7 2.873717 1_555
O33 Rb6 3.041333 1_555
O33 Rb8 3.486431 1_556
O34 U5 2.207253 1_555
O34 Rb5 2.812718 1_555
O34 Rb4 3.368868 1_555
O35 U2 2.061556 1_555
O35 U6 2.232881 1_555
O35 Rb11 3.045477 1_555
O35 Rb9 3.328231 1_555
O36 U1 2.061556 1_555
O36 U3 2.232881 1_556
O36 Rb6 3.045477 1_555
O36 Rb7 3.328231 1_545
O37 U6 2.283350 1_655
O37 Rb2 3.234749 1_555
O37 Rb1 3.244450 1_565
O37 Rb4 3.420843 1_555
O38 U3 1.894505 1_566
O38 Rb5 2.885468 1_555
O38 Rb0 2.972071 1_556
O38 Rb7 3.070688 1_555
O39 U2 2.243603 1_555
O39 Rb9 2.894069 1_555
O39 Rb8 3.181998 1_555
O40 Rb8 3.022074 1_555
O40 Rb6 3.050400 1_554
O41 U0 2.243603 1_545
O41 Rb0 2.894069 1_555
O41 Rb1 3.181998 1_555
O42 U7 2.270110 1_555
O42 Rb11 2.902065 1_555
O43 U3 2.283350 1_565
O43 Rb7 3.234749 1_554
O43 Rb8 3.244450 1_555
O43 Rb6 3.420843 1_564
