# generated using pymatgen
data_ZnS
_symmetry_space_group_name_H-M   'P 1'
_cell_length_a   3.81085834
_cell_length_b   3.81085908
_cell_length_c   56.05671950
_cell_angle_alpha   90.00000842
_cell_angle_beta   89.99999335
_cell_angle_gamma   119.99893340
_symmetry_Int_Tables_number   1
_chemical_formula_structural   ZnS
_chemical_formula_sum   'Zn18 S18'
_cell_volume   705.03174618
_cell_formula_units_Z   18
loop_
 _symmetry_equiv_pos_site_id
 _symmetry_equiv_pos_as_xyz
  1  'x, y, z'
loop_
 _atom_site_type_symbol
 _atom_site_label
 _atom_site_symmetry_multiplicity
 _atom_site_fract_x
 _atom_site_fract_y
 _atom_site_fract_z
 _atom_site_occupancy
  Zn  Zn0  1  -0.00000417  1.00000417  0.16668898  1
  Zn  Zn1  1  -0.00000386  1.00000386  0.55553863  1
  Zn  Zn2  1  0.66667245  0.33332755  0.27771895  1
  Zn  Zn3  1  0.66666249  0.33333751  0.72225714  1
  Zn  Zn4  1  -0.00000503  1.00000503  0.77778922  1
  Zn  Zn5  1  1.00000253  -0.00000253  0.44443896  1
  Zn  Zn6  1  0.00000182  0.99999818  0.66670245  1
  Zn  Zn7  1  0.33333485  0.66666515  0.05558875  1
  Zn  Zn8  1  0.33333294  0.66666706  0.61107247  1
  Zn  Zn9  1  0.66666394  0.33333606  0.11107354  1
  Zn  Zn10  1  0.33333536  0.66666464  0.22222931  1
  Zn  Zn11  1  0.66666364  0.33333636  0.94441800  1
  Zn  Zn12  1  0.33333360  0.66666640  0.38889833  1
  Zn  Zn13  1  -0.00000430  1.00000430  0.33331371  1
  Zn  Zn14  1  0.33333386  0.66666614  0.83336366  1
  Zn  Zn15  1  -0.00000447  1.00000447  0.00008533  1
  Zn  Zn16  1  0.66666257  0.33333743  0.50001109  1
  Zn  Zn17  1  1.00001016  -0.00001016  0.88888469  1
  S  S0  1  0.33333139  0.66666861  0.43058611  1
  S  S1  1  -0.00000093  1.00000093  0.04170520  1
  S  S2  1  0.00000227  0.99999773  0.59717429  1
  S  S3  1  0.66666740  0.33333260  0.15276591  1
  S  S4  1  0.66666656  0.33333344  0.76394044  1
  S  S5  1  0.33333335  0.66666665  0.09722642  1
  S  S6  1  0.66666681  0.33333319  0.98615736  1
  S  S7  1  0.99999526  0.00000474  0.70830784  1
  S  S8  1  0.00000115  0.99999885  0.81941124  1
  S  S9  1  0.00000249  0.99999751  0.37494323  1
  S  S10  1  0.66667090  0.33332910  0.31940696  1
  S  S11  1  0.33333286  0.66666714  0.65280346  1
  S  S12  1  0.99999652  0.00000348  0.93052005  1
  S  S13  1  0.99999519  0.00000481  0.48606422  1
  S  S14  1  0.33334606  0.66665394  0.26387124  1
  S  S15  1  0.66666709  0.33333291  0.54169581  1
  S  S16  1  0.00000357  0.99999643  0.20833242  1
  S  S17  1  0.33333368  0.66666632  0.87504359  1
loop_
_geom_bond_atom_site_label_1
_geom_bond_atom_site_label_2
_geom_bond_distance
_geom_bond_site_symmetry_2
S0 Zn5 2.333178 1_465
S0 Zn5 2.333254 1_565
S0 Zn5 2.333254 1_455
S0 Zn12 2.336880 1_555
S1 Zn15 2.333073 1_555
S1 Zn7 2.333795 1_555
S1 Zn7 2.333805 1_455
S1 Zn7 2.333806 1_565
S2 Zn1 2.333959 1_555
S2 Zn8 2.334037 1_555
S2 Zn8 2.334095 1_455
S2 Zn8 2.334095 1_565
S3 Zn0 2.334489 1_645
S3 Zn0 2.334568 1_545
S3 Zn0 2.334568 1_655
S3 Zn9 2.337137 1_555
S4 Zn4 2.333100 1_645
S4 Zn4 2.333179 1_545
S4 Zn4 2.333179 1_655
S4 Zn3 2.336629 1_555
S5 Zn9 2.333083 1_555
S5 Zn9 2.333141 1_455
S5 Zn9 2.333142 1_565
S5 Zn7 2.334071 1_555
S6 Zn15 2.334583 1_646
S6 Zn15 2.334659 1_546
S6 Zn15 2.334659 1_656
S6 Zn11 2.339772 1_555
S7 Zn6 2.332262 1_645
S7 Zn3 2.335008 1_555
S7 Zn3 2.335046 1_655
S7 Zn3 2.335047 1_545
S8 Zn4 2.333194 1_555
S8 Zn14 2.335066 1_555
S8 Zn14 2.335105 1_455
S8 Zn14 2.335105 1_565
S9 Zn13 2.333614 1_555
S9 Zn12 2.335107 1_555
S9 Zn12 2.335160 1_455
S9 Zn12 2.335161 1_565
S10 Zn13 2.334161 1_645
S10 Zn13 2.334273 1_545
S10 Zn13 2.334274 1_655
S10 Zn2 2.336893 1_555
S11 Zn6 2.334054 1_555
S11 Zn6 2.334109 1_655
S11 Zn6 2.334109 1_545
S11 Zn8 2.339302 1_555
S12 Zn17 2.333942 1_555
S12 Zn11 2.334046 1_555
S12 Zn11 2.334084 1_655
S12 Zn11 2.334084 1_545
S13 Zn5 2.333376 1_555
S13 Zn16 2.334961 1_555
S13 Zn16 2.335001 1_655
S13 Zn16 2.335002 1_545
S14 Zn2 2.333067 1_555
S14 Zn2 2.333165 1_455
S14 Zn2 2.333166 1_565
S14 Zn10 2.334310 1_555
S15 Zn1 2.332993 1_645
S15 Zn1 2.333066 1_545
S15 Zn1 2.333066 1_655
S15 Zn16 2.336709 1_555
S16 Zn10 2.334020 1_555
S16 Zn10 2.334067 1_455
S16 Zn10 2.334068 1_565
S16 Zn0 2.334395 1_555
S17 Zn17 2.332926 1_465
S17 Zn17 2.333051 1_565
S17 Zn17 2.333052 1_455
S17 Zn14 2.336440 1_555
