# generated using pymatgen
data_BaMnF5
_symmetry_space_group_name_H-M   'P 1'
_cell_length_a   4.83057637
_cell_length_b   5.81196435
_cell_length_c   14.16430948
_cell_angle_alpha   90.00000000
_cell_angle_beta   90.00000000
_cell_angle_gamma   90.00000000
_symmetry_Int_Tables_number   1
_chemical_formula_structural   BaMnF5
_chemical_formula_sum   'Ba4 Mn4 F20'
_cell_volume   397.66493840
_cell_formula_units_Z   4
loop_
 _symmetry_equiv_pos_site_id
 _symmetry_equiv_pos_as_xyz
  1  'x, y, z'
loop_
 _atom_site_type_symbol
 _atom_site_label
 _atom_site_symmetry_multiplicity
 _atom_site_fract_x
 _atom_site_fract_y
 _atom_site_fract_z
 _atom_site_occupancy
  Ba  Ba0  1  0.73038615  0.63069647  0.66144265  1
  Ba  Ba1  1  0.23038615  0.86930353  0.33855735  1
  Ba  Ba2  1  0.26961385  0.13069647  0.83855735  1
  Ba  Ba3  1  0.76961385  0.36930353  0.16144265  1
  Mn  Mn0  1  0.33859390  0.11577082  0.58406093  1
  Mn  Mn1  1  0.83859390  0.38422918  0.41593907  1
  Mn  Mn2  1  0.66140610  0.61577082  0.91593907  1
  Mn  Mn3  1  0.16140610  0.88422918  0.08406093  1
  F  F0  1  0.99648383  0.61280886  0.48772890  1
  F  F1  1  0.49648383  0.88719114  0.51227110  1
  F  F2  1  0.00351617  0.11280886  0.01227110  1
  F  F3  1  0.50351617  0.38719114  0.98772890  1
  F  F4  1  0.69389817  0.62803431  0.32324617  1
  F  F5  1  0.19389817  0.87196569  0.67675383  1
  F  F6  1  0.30610183  0.12803431  0.17675383  1
  F  F7  1  0.80610183  0.37196569  0.82324617  1
  F  F8  1  0.20146467  0.35610802  0.65851981  1
  F  F9  1  0.70146467  0.14389198  0.34148019  1
  F  F10  1  0.79853533  0.85610802  0.84148019  1
  F  F11  1  0.29853533  0.64389198  0.15851981  1
  F  F12  1  0.64386867  0.11898176  0.66479845  1
  F  F13  1  0.14386867  0.38101824  0.33520155  1
  F  F14  1  0.35613133  0.61898176  0.83520155  1
  F  F15  1  0.85613133  0.88101824  0.16479845  1
  F  F16  1  0.54584330  0.37318868  0.50203644  1
  F  F17  1  0.04584330  0.12681132  0.49796356  1
  F  F18  1  0.45415670  0.87318868  0.99796356  1
  F  F19  1  0.95415670  0.62681132  0.00203644  1
loop_
_geom_bond_atom_site_label_1
_geom_bond_atom_site_label_2
_geom_bond_distance
_geom_bond_site_symmetry_2
Ba0 F5 2.650772 1_655
Ba0 F7 2.765411 1_555
Ba0 F0 2.778004 1_555
Ba0 F8 2.779725 1_655
Ba0 F1 2.821938 1_555
Ba0 F16 2.851769 1_555
Ba0 F12 2.868899 1_565
Ba0 F10 2.885782 1_555
Ba0 F5 2.954563 1_555
Ba0 F12 3.003665 1_555
Ba0 F8 3.012741 1_555
Ba0 F14 3.054570 1_555
Ba1 F4 2.650772 1_555
Ba1 F6 2.765411 1_565
Ba1 F1 2.778004 1_555
Ba1 F9 2.779725 1_565
Ba1 F0 2.821938 1_455
Ba1 F17 2.851769 1_565
Ba1 F13 2.868899 1_555
Ba1 F11 2.885782 1_555
Ba1 F4 2.954563 1_455
Ba1 F13 3.003665 1_565
Ba1 F9 3.012741 1_465
Ba1 F15 3.054570 1_455
Ba2 F7 2.650772 1_455
Ba2 F5 2.765411 1_545
Ba2 F2 2.778004 1_556
Ba2 F10 2.779725 1_445
Ba2 F3 2.821938 1_555
Ba2 F18 2.851769 1_545
Ba2 F14 2.868899 1_555
Ba2 F8 2.885782 1_555
Ba2 F7 2.954563 1_555
Ba2 F14 3.003665 1_545
Ba2 F10 3.012741 1_545
Ba2 F12 3.054570 1_555
Ba3 F6 2.650772 1_555
Ba3 F4 2.765411 1_555
Ba3 F3 2.778004 1_554
Ba3 F11 2.779725 1_555
Ba3 F2 2.821938 1_655
Ba3 F19 2.851769 1_555
Ba3 F15 2.868899 1_545
Ba3 F9 2.885782 1_555
Ba3 F6 2.954563 1_655
Ba3 F15 3.003665 1_555
Ba3 F11 3.012741 1_655
Ba3 F13 3.054570 1_655
F0 Mn1 1.838642 1_555
F1 Mn0 1.838642 1_565
F2 Mn3 1.838642 1_545
F3 Mn2 1.838642 1_555
F4 Mn1 2.054310 1_555
F5 Mn0 2.054310 1_565
F6 Mn3 2.054310 1_545
F7 Mn2 2.054310 1_555
F8 Mn0 1.871426 1_555
F9 Mn1 1.871426 1_555
F10 Mn2 1.871426 1_555
F11 Mn3 1.871426 1_555
F12 Mn0 1.866213 1_555
F13 Mn1 1.866213 1_455
F14 Mn2 1.866213 1_555
F15 Mn3 1.866213 1_655
F16 Mn1 1.868463 1_555
F16 Mn0 2.142527 1_555
F17 Mn0 1.868463 1_555
F17 Mn1 2.142527 1_455
F18 Mn3 1.868463 1_556
F18 Mn2 2.142527 1_555
F19 Mn2 1.868463 1_554
F19 Mn3 2.142527 1_655
