# generated using pymatgen
data_K2TcI6
_symmetry_space_group_name_H-M   'P 1'
_cell_length_a   7.95028016
_cell_length_b   8.16405255
_cell_length_c   11.25352039
_cell_angle_alpha   89.99800354
_cell_angle_beta   90.29440019
_cell_angle_gamma   89.98324005
_symmetry_Int_Tables_number   1
_chemical_formula_structural   K2TcI6
_chemical_formula_sum   'K4 Tc2 I12'
_cell_volume   730.41700344
_cell_formula_units_Z   2
loop_
 _symmetry_equiv_pos_site_id
 _symmetry_equiv_pos_as_xyz
  1  'x, y, z'
loop_
 _atom_site_type_symbol
 _atom_site_label
 _atom_site_symmetry_multiplicity
 _atom_site_fract_x
 _atom_site_fract_y
 _atom_site_fract_z
 _atom_site_occupancy
  K  K0  1  0.01968611  0.43031454  0.74899950  1
  K  K1  1  0.48030981  0.93037997  0.75096744  1
  K  K2  1  0.51969019  0.06962003  0.24903256  1
  K  K3  1  0.98031389  0.56968546  0.25100050  1
  Tc  Tc0  1  0.00000000  -0.00000000  -0.00000000  1
  Tc  Tc1  1  0.50000000  0.50000000  0.50000000  1
  I  I0  1  0.71928806  0.80794212  0.03728398  1
  I  I1  1  0.57103282  0.50176897  0.73932079  1
  I  I2  1  0.42896718  0.49823103  0.26067921  1
  I  I3  1  0.81095716  0.27926126  0.03163254  1
  I  I4  1  0.78085009  0.30796293  0.46275339  1
  I  I5  1  0.31091439  0.22075122  0.53162285  1
  I  I6  1  0.28071194  0.19205788  0.96271602  1
  I  I7  1  0.68908561  0.77924878  0.46837715  1
  I  I8  1  0.18904284  0.72073874  0.96836746  1
  I  I9  1  0.92891897  0.00183550  0.76067245  1
  I  I10  1  0.07108103  0.99816450  0.23932755  1
  I  I11  1  0.21914991  0.69203707  0.53724661  1
loop_
_geom_bond_atom_site_label_1
_geom_bond_atom_site_label_2
_geom_bond_distance
_geom_bond_site_symmetry_2
I0 Tc0 2.761676 1_665
I0 K2 3.577380 1_565
I0 K3 3.717592 1_555
I0 K1 3.863476 1_554
I1 Tc1 2.748971 1_555
I1 K1 3.575103 1_555
I1 K0 3.615227 1_655
I2 Tc1 2.748971 1_555
I2 K2 3.575103 1_555
I2 K3 3.615227 1_455
I3 Tc0 2.754464 1_655
I3 K3 3.673842 1_555
I3 K2 3.786456 1_555
I3 K0 3.800799 1_654
I4 Tc1 2.761678 1_555
I4 K3 3.577608 1_555
I4 K2 3.719307 1_555
I4 K0 3.862430 1_655
I5 Tc1 2.755258 1_555
I5 K1 3.672879 1_545
I5 K0 3.785273 1_555
I5 K2 3.800523 1_555
I6 Tc0 2.761676 1_556
I6 K1 3.577380 1_545
I6 K0 3.717592 1_555
I6 K2 3.863476 1_556
I7 Tc1 2.755258 1_555
I7 K2 3.672879 1_565
I7 K3 3.785273 1_555
I7 K1 3.800523 1_555
I8 Tc0 2.754464 1_566
I8 K0 3.673842 1_555
I8 K1 3.786456 1_555
I8 K3 3.800799 1_456
I9 Tc0 2.749122 1_656
I9 K0 3.574535 1_655
I9 K1 3.615228 1_545
I10 Tc0 2.749122 1_565
I10 K3 3.574535 1_455
I10 K2 3.615228 1_565
I11 Tc1 2.761678 1_555
I11 K0 3.577608 1_555
I11 K1 3.719307 1_555
I11 K3 3.862430 1_455
