# generated using pymatgen
data_Li14Co9(P2O7)8
_symmetry_space_group_name_H-M   'P 1'
_cell_length_a   10.74779593
_cell_length_b   9.62586104
_cell_length_c   12.72434186
_cell_angle_alpha   68.82039172
_cell_angle_beta   116.02577883
_cell_angle_gamma   107.29987556
_symmetry_Int_Tables_number   1
_chemical_formula_structural   Li14Co9(P2O7)8
_chemical_formula_sum   'Li14 Co9 P16 O56'
_cell_volume   1087.77679084
_cell_formula_units_Z   1
loop_
 _symmetry_equiv_pos_site_id
 _symmetry_equiv_pos_as_xyz
  1  'x, y, z'
loop_
 _atom_site_type_symbol
 _atom_site_label
 _atom_site_symmetry_multiplicity
 _atom_site_fract_x
 _atom_site_fract_y
 _atom_site_fract_z
 _atom_site_occupancy
  Li  Li0  1  0.13733900  0.92805000  0.59744100  1
  Li  Li1  1  0.12604500  0.43402600  0.08470000  1
  Li  Li2  1  0.62617600  0.45386800  0.59083900  1
  Li  Li3  1  0.37382400  0.54613200  0.40916100  1
  Li  Li4  1  0.02128800  0.64399600  0.39688000  1
  Li  Li5  1  0.86266100  0.07195000  0.40255900  1
  Li  Li6  1  0.97871200  0.35600400  0.60312000  1
  Li  Li7  1  0.49722200  0.86740000  0.31620300  1
  Li  Li8  1  0.51415800  0.63293800  0.17353100  1
  Li  Li9  1  0.62191000  0.95542600  0.08945700  1
  Li  Li10  1  0.48584200  0.36706200  0.82646900  1
  Li  Li11  1  0.37809000  0.04457400  0.91054300  1
  Li  Li12  1  0.50277800  0.13260000  0.68379700  1
  Li  Li13  1  0.87395500  0.56597400  0.91530000  1
  Co  Co0  1  0.74496200  0.43537700  0.30420000  1
  Co  Co1  1  0.26426200  0.07153100  0.20193200  1
  Co  Co2  1  0.21764800  0.20048600  0.41689500  1
  Co  Co3  1  0.73573800  0.92846900  0.79806800  1
  Co  Co4  1  0.25503800  0.56462300  0.69580000  1
  Co  Co5  1  0.78235200  0.79951400  0.58310500  1
  Co  Co6  1  0.78013300  0.30090900  0.07859000  1
  Co  Co7  1  0.00000000  0.00000000  0.00000000  1
  Co  Co8  1  0.21986700  0.69909100  0.92141000  1
  P  P0  1  0.70090200  0.63832100  0.01497900  1
  P  P1  1  0.20813100  0.23139300  0.65970200  1
  P  P2  1  0.53891100  0.19614100  0.13275900  1
  P  P3  1  0.05282300  0.96856200  0.77698500  1
  P  P4  1  0.79827500  0.26379300  0.84392700  1
  P  P5  1  0.29909800  0.36167900  0.98502100  1
  P  P6  1  0.05017500  0.46902900  0.27315800  1
  P  P7  1  0.94982500  0.53097100  0.72684200  1
  P  P8  1  0.94717700  0.03143800  0.22301500  1
  P  P9  1  0.46108900  0.80385900  0.86724100  1
  P  P10  1  0.30056200  0.86476500  0.48546600  1
  P  P11  1  0.69943800  0.13523500  0.51453400  1
  P  P12  1  0.20172500  0.73620700  0.15607300  1
  P  P13  1  0.46435600  0.30844200  0.36788800  1
  P  P14  1  0.53564400  0.69155800  0.63211200  1
  P  P15  1  0.79186900  0.76860700  0.34029800  1
  O  O0  1  0.53986300  0.15819200  0.02474300  1
  O  O1  1  0.09209900  0.65277300  0.22593800  1
  O  O2  1  0.17663700  0.90104600  0.10523300  1
  O  O3  1  0.20505000  0.21303000  0.02217900  1
  O  O4  1  0.90790100  0.34722700  0.77406200  1
  O  O5  1  0.71662100  0.00746100  0.47944000  1
  O  O6  1  0.68715800  0.75491600  0.70908600  1
  O  O7  1  0.95469500  0.45511000  0.33680300  1
  O  O8  1  0.27639000  0.49228400  0.01450800  1
  O  O9  1  0.84740000  0.34119600  0.94499300  1
  O  O10  1  0.45833900  0.56253900  0.70479000  1
  O  O11  1  0.04362900  0.05080900  0.15686300  1
  O  O12  1  0.54204400  0.16579500  0.42178300  1
  O  O13  1  0.54054700  0.66213500  0.91965200  1
  O  O14  1  0.98582800  0.40557400  0.16294300  1
  O  O15  1  0.30281400  0.39901900  0.86006100  1
  O  O16  1  0.28337900  0.99253900  0.52056000  1
  O  O17  1  0.31284200  0.24508400  0.29091400  1
  O  O18  1  0.79495000  0.78697000  0.97782100  1
  O  O19  1  0.35495300  0.20308700  0.75262900  1
  O  O20  1  0.18004200  0.39269300  0.60976600  1
  O  O21  1  0.80873800  0.58249000  0.64000200  1
  O  O22  1  0.95637100  0.94919100  0.84313700  1
  O  O23  1  0.30829800  0.74371900  0.79096500  1
  O  O24  1  0.46013700  0.84180800  0.97525700  1
  O  O25  1  0.72361000  0.50771600  0.98549200  1
  O  O26  1  0.20076600  0.71812200  0.51567800  1
  O  O27  1  0.45945300  0.33786500  0.08034800  1
  O  O28  1  0.34922000  0.71275700  0.24749300  1
  O  O29  1  0.98317000  0.90438600  0.66758000  1
  O  O30  1  0.04530500  0.54489000  0.66319700  1
  O  O31  1  0.53978700  0.65326000  0.52596700  1
  O  O32  1  0.19345600  0.91496500  0.86218400  1
  O  O33  1  0.09348100  0.15089700  0.72831400  1
  O  O34  1  0.90651900  0.84910300  0.27168600  1
  O  O35  1  0.53685500  0.93437400  0.79367800  1
  O  O36  1  0.19126200  0.41751000  0.35999800  1
  O  O37  1  0.82336300  0.09895400  0.89476700  1
  O  O38  1  0.81995800  0.60730700  0.39023400  1
  O  O39  1  0.15260000  0.65880400  0.05500700  1
  O  O40  1  0.46021300  0.34674000  0.47403300  1
  O  O41  1  0.54166100  0.43746100  0.29521000  1
  O  O42  1  0.84198600  0.84927900  0.43901400  1
  O  O43  1  0.65078000  0.28724300  0.75250700  1
  O  O44  1  0.69718600  0.60098100  0.13993900  1
  O  O45  1  0.69921200  0.09466700  0.64134800  1
  O  O46  1  0.01417300  0.59442600  0.83705700  1
  O  O47  1  0.15801400  0.15072100  0.56098600  1
  O  O48  1  0.30078800  0.90533300  0.35865200  1
  O  O49  1  0.80654400  0.08503500  0.13781600  1
  O  O50  1  0.01683000  0.09561400  0.33242000  1
  O  O51  1  0.69170200  0.25628100  0.20903500  1
  O  O52  1  0.46314500  0.06562600  0.20632200  1
  O  O53  1  0.64504700  0.79691300  0.24737100  1
  O  O54  1  0.45795600  0.83420500  0.57821700  1
  O  O55  1  0.79923400  0.28187800  0.48432200  1
loop_
_geom_bond_atom_site_label_1
_geom_bond_atom_site_label_2
_geom_bond_distance
_geom_bond_site_symmetry_2
Li0 O47 1.986823 1_565
Li0 O16 2.033514 1_555
Li0 O29 2.126104 1_455
Li1 O39 2.010566 1_555
Li1 O8 2.022102 1_555
Li1 O14 2.052191 1_455
Li2 O21 1.952405 1_555
Li2 O40 2.034973 1_555
Li2 O43 2.065176 1_555
Li2 O31 2.114181 1_555
Li3 O36 1.952405 1_555
Li3 O31 2.034973 1_555
Li3 O28 2.065176 1_555
Li3 O40 2.114181 1_555
Li4 O26 1.979154 1_555
Li4 O7 2.037812 1_455
Li4 O38 2.054419 1_455
Li4 O34 2.325647 1_455
Li4 O1 2.568889 1_555
Li5 O42 1.986823 1_545
Li5 O5 2.033514 1_555
Li5 O50 2.126104 1_655
Li6 O55 1.979154 1_555
Li6 O30 2.037812 1_655
Li6 O20 2.054419 1_655
Li6 O33 2.325647 1_655
Li6 O4 2.568889 1_555
Li7 O52 1.941225 1_565
Li7 O28 1.955053 1_555
Li7 O53 2.458332 1_555
Li7 O48 2.546387 1_555
Li8 O41 1.961931 1_555
Li8 O53 1.986008 1_555
Li8 O44 2.310794 1_555
Li8 O24 2.547162 1_554
Li9 O49 1.970722 1_565
Li9 O53 1.999816 1_555
Li9 O24 2.032486 1_554
Li9 O0 2.119027 1_565
Li10 O10 1.961931 1_555
Li10 O19 1.986008 1_555
Li10 O15 2.310794 1_555
Li10 O0 2.547162 1_556
Li11 O32 1.970722 1_545
Li11 O19 1.999816 1_555
Li11 O0 2.032486 1_556
Li11 O24 2.119027 1_545
Li12 O35 1.941225 1_545
Li12 O43 1.955053 1_555
Li12 O19 2.458332 1_555
Li12 O45 2.546387 1_555
Li13 O9 2.010566 1_555
Li13 O25 2.022102 1_555
Li13 O46 2.052201 1_655
Co0 O7 2.066664 1_555
Co0 O44 2.076250 1_555
Co0 O38 2.080501 1_555
Co0 O41 2.143116 1_555
Co0 O55 2.160734 1_555
Co0 O51 2.253715 1_555
Co1 O48 2.017781 1_545
Co1 O3 2.116298 1_555
Co1 O52 2.130885 1_555
Co1 O11 2.144710 1_555
Co1 O2 2.148713 1_545
Co1 O17 2.162104 1_555
Co2 O36 2.011962 1_555
Co2 O47 2.053254 1_555
Co2 O50 2.070081 1_555
Co2 O16 2.088326 1_545
Co2 O17 2.116968 1_555
Co2 O40 2.490102 1_555
Co3 O45 2.017781 1_565
Co3 O18 2.116298 1_555
Co3 O35 2.130885 1_555
Co3 O22 2.144710 1_555
Co3 O37 2.148713 1_565
Co3 O6 2.162104 1_555
Co4 O30 2.066664 1_555
Co4 O15 2.076250 1_555
Co4 O20 2.080501 1_555
Co4 O10 2.143116 1_555
Co4 O26 2.160734 1_555
Co4 O23 2.253715 1_555
Co5 O21 2.011962 1_555
Co5 O42 2.053254 1_555
Co5 O29 2.070081 1_555
Co5 O5 2.088326 1_565
Co5 O6 2.116968 1_555
Co5 O31 2.490102 1_555
Co6 O49 1.999502 1_555
Co6 O9 1.999567 1_554
Co6 O25 2.029519 1_554
Co6 O14 2.104504 1_555
Co6 O51 2.114056 1_555
Co6 O0 2.458228 1_555
Co7 O11 2.047110 1_555
Co7 O22 2.047110 1_444
Co7 O2 2.056084 1_545
Co7 O37 2.056084 1_454
Co7 O18 2.515172 1_444
Co7 O3 2.515172 1_555
Co8 O32 1.999502 1_555
Co8 O39 1.999567 1_556
Co8 O8 2.029519 1_556
Co8 O46 2.104497 1_555
Co8 O23 2.114056 1_555
Co8 O24 2.458228 1_555
O0 P2 1.549180 1_555
O1 P12 1.632188 1_555
O1 P6 1.639519 1_555
O2 P12 1.539009 1_555
O3 P5 1.537215 1_554
O4 P4 1.632188 1_555
O4 P7 1.639519 1_555
O5 P11 1.533159 1_555
O6 P14 1.557040 1_555
O7 P6 1.515255 1_655
O8 P5 1.544198 1_554
O9 P4 1.533046 1_555
O10 P14 1.522694 1_555
O11 P8 1.534698 1_455
O12 P13 1.597450 1_555
O12 P11 1.623001 1_555
O13 P9 1.603390 1_555
O13 P0 1.641247 1_556
O14 P6 1.527989 1_655
O15 P5 1.514338 1_555
O16 P10 1.533159 1_555
O17 P13 1.557040 1_555
O18 P0 1.537215 1_556
O19 P1 1.532323 1_555
O20 P1 1.517621 1_555
O21 P7 1.532056 1_555
O22 P3 1.534698 1_655
O23 P9 1.554271 1_555
O24 P9 1.549180 1_555
O25 P0 1.544198 1_556
O26 P10 1.536235 1_555
O27 P2 1.603390 1_555
O27 P5 1.641247 1_554
O28 P12 1.523799 1_555
O29 P3 1.520466 1_655
O30 P7 1.515255 1_455
O31 P14 1.544149 1_555
O32 P3 1.532232 1_555
O33 P3 1.628158 1_545
O33 P1 1.663847 1_555
O34 P8 1.628158 1_565
O34 P15 1.663847 1_555
O35 P9 1.525889 1_555
O36 P6 1.532056 1_555
O37 P4 1.539009 1_555
O38 P15 1.517621 1_555
O39 P12 1.533046 1_555
O40 P13 1.544149 1_555
O41 P13 1.522694 1_555
O42 P15 1.527491 1_555
O43 P4 1.523799 1_555
O44 P0 1.514338 1_555
O45 P11 1.517840 1_555
O46 P7 1.527988 1_455
O47 P1 1.527491 1_555
O48 P10 1.517840 1_555
O49 P8 1.532232 1_555
O50 P8 1.520466 1_455
O51 P2 1.554271 1_555
O52 P2 1.525889 1_555
O53 P15 1.532323 1_555
O54 P14 1.597450 1_555
O54 P10 1.623001 1_555
O55 P11 1.536235 1_555
