# generated using pymatgen
data_Rb2UBr6
_symmetry_space_group_name_H-M   'P 1'
_cell_length_a   7.77913579
_cell_length_b   7.80897517
_cell_length_c   7.77611631
_cell_angle_alpha   59.88573864
_cell_angle_beta   60.26684357
_cell_angle_gamma   59.84741779
_symmetry_Int_Tables_number   1
_chemical_formula_structural   Rb2UBr6
_chemical_formula_sum   'Rb2 U1 Br6'
_cell_volume   334.00954650
_cell_formula_units_Z   1
loop_
 _symmetry_equiv_pos_site_id
 _symmetry_equiv_pos_as_xyz
  1  'x, y, z'
loop_
 _atom_site_type_symbol
 _atom_site_label
 _atom_site_symmetry_multiplicity
 _atom_site_fract_x
 _atom_site_fract_y
 _atom_site_fract_z
 _atom_site_occupancy
  Rb  Rb0  1  0.25000000  0.25000000  0.25000000  1
  Rb  Rb1  1  0.75000000  0.75000000  0.75000000  1
  U  U0  1  -0.00000000  0.00000000  0.00000000  1
  Br  Br0  1  0.74850343  0.25149657  0.74850343  1
  Br  Br1  1  0.25149657  0.74850343  0.25149657  1
  Br  Br2  1  0.74848082  0.74848082  0.25151918  1
  Br  Br3  1  0.25151918  0.25151918  0.74848082  1
  Br  Br4  1  0.74853470  0.25146530  0.25146530  1
  Br  Br5  1  0.25146530  0.74853470  0.74853470  1
loop_
_geom_bond_atom_site_label_1
_geom_bond_atom_site_label_2
_geom_bond_distance
_geom_bond_site_symmetry_2
Br0 U0 2.755072 1_656
Br0 Rb0 3.904522 1_655
Br0 Rb0 3.904522 1_556
Br0 Rb1 3.904522 1_545
Br0 Rb1 3.904522 1_555
Br1 U0 2.755072 1_565
Br1 Rb0 3.904522 1_555
Br1 Rb1 3.904522 1_455
Br1 Rb1 3.904522 1_554
Br1 Rb0 3.904522 1_565
Br2 U0 2.778736 1_665
Br2 Rb1 3.888094 1_555
Br2 Rb0 3.888094 1_655
Br2 Rb0 3.888094 1_565
Br2 Rb1 3.888094 1_554
Br3 U0 2.778736 1_556
Br3 Rb0 3.888094 1_556
Br3 Rb1 3.888094 1_545
Br3 Rb0 3.888094 1_555
Br3 Rb1 3.888094 1_455
Br4 U0 2.776002 1_655
Br4 Rb1 3.889602 1_554
Br4 Rb0 3.889602 1_655
Br4 Rb1 3.889602 1_545
Br4 Rb0 3.889602 1_555
Br5 U0 2.776002 1_566
Br5 Rb1 3.889602 1_455
Br5 Rb0 3.889602 1_565
Br5 Rb0 3.889602 1_556
Br5 Rb1 3.889602 1_555
