# generated using pymatgen
data_LuCu5
_symmetry_space_group_name_H-M   'P 1'
_cell_length_a   4.87229396
_cell_length_b   4.87233407
_cell_length_c   4.87237581
_cell_angle_alpha   60.00411767
_cell_angle_beta   60.00612329
_cell_angle_gamma   60.00473506
_symmetry_Int_Tables_number   1
_chemical_formula_structural   LuCu5
_chemical_formula_sum   'Lu1 Cu5'
_cell_volume   81.79852462
_cell_formula_units_Z   1
loop_
 _symmetry_equiv_pos_site_id
 _symmetry_equiv_pos_as_xyz
  1  'x, y, z'
loop_
 _atom_site_type_symbol
 _atom_site_label
 _atom_site_symmetry_multiplicity
 _atom_site_fract_x
 _atom_site_fract_y
 _atom_site_fract_z
 _atom_site_occupancy
  Lu  Lu0  1  0.00000206  0.00002041  0.00000810  1
  Cu  Cu0  1  0.62421876  0.62418841  0.12741352  1
  Cu  Cu1  1  0.12740629  0.62421236  0.62421133  1
  Cu  Cu2  1  0.24998835  0.24993696  0.25000854  1
  Cu  Cu3  1  0.62420136  0.12742488  0.62417384  1
  Cu  Cu4  1  0.62417918  0.62421497  0.62418467  1
loop_
_geom_bond_atom_site_label_1
_geom_bond_atom_site_label_2
_geom_bond_distance
_geom_bond_site_symmetry_2
Cu0 Cu4 2.420424 1_555
Cu0 Cu3 2.420551 1_555
Cu0 Cu1 2.420825 1_555
Cu0 Cu4 2.451952 1_554
Cu0 Cu1 2.451961 1_654
Cu0 Cu3 2.452107 1_564
Cu0 Cu2 2.854925 1_565
Cu0 Cu2 2.854961 1_655
Cu0 Cu2 2.855324 1_555
Cu0 Lu0 2.858351 1_665
Cu0 Lu0 2.858352 1_655
Cu0 Lu0 2.858501 1_565
Cu1 Cu4 2.420365 1_555
Cu1 Cu3 2.420696 1_555
Cu1 Cu4 2.451929 1_455
Cu1 Cu3 2.451966 1_465
Cu1 Cu2 2.854771 1_565
Cu1 Cu2 2.855074 1_556
Cu1 Cu2 2.855381 1_555
Cu1 Lu0 2.858356 1_566
Cu1 Lu0 2.858421 1_556
Cu1 Lu0 2.858467 1_565
Cu2 Cu3 2.854914 1_455
Cu2 Cu4 2.854934 1_545
Cu2 Cu3 2.855050 1_555
Cu2 Cu3 2.855165 1_554
Cu2 Cu4 2.855386 1_455
Cu2 Cu4 2.855428 1_554
Cu2 Lu0 2.983186 1_555
Cu2 Lu0 2.983902 1_556
Cu2 Lu0 2.983927 1_655
Cu2 Lu0 2.984169 1_565
Cu3 Cu4 2.420500 1_555
Cu3 Cu4 2.451834 1_545
Cu3 Lu0 2.858394 1_655
Cu3 Lu0 2.858418 1_656
Cu3 Lu0 2.858479 1_556
Cu4 Lu0 2.858570 1_665
Cu4 Lu0 2.858575 1_656
Cu4 Lu0 2.858593 1_566
