# generated using pymatgen
data_La12Fe2I17
_symmetry_space_group_name_H-M   'P 1'
_cell_length_a   9.89192792
_cell_length_b   11.98187218
_cell_length_c   12.15833466
_cell_angle_alpha   73.57605545
_cell_angle_beta   74.84127911
_cell_angle_gamma   67.23965555
_symmetry_Int_Tables_number   1
_chemical_formula_structural   La12Fe2I17
_chemical_formula_sum   'La12 Fe2 I17'
_cell_volume   1255.62828028
_cell_formula_units_Z   1
loop_
 _symmetry_equiv_pos_site_id
 _symmetry_equiv_pos_as_xyz
  1  'x, y, z'
loop_
 _atom_site_type_symbol
 _atom_site_label
 _atom_site_symmetry_multiplicity
 _atom_site_fract_x
 _atom_site_fract_y
 _atom_site_fract_z
 _atom_site_occupancy
  La  La0  1  0.45044958  0.47825260  0.32982110  1
  La  La1  1  0.56225931  0.67256919  -0.00109121  1
  La  La2  1  0.29631133  0.00309387  0.08119374  1
  La  La3  1  0.84101754  0.28312123  0.84601763  1
  La  La4  1  0.42428609  0.23781368  0.73319453  1
  La  La5  1  0.70368867  0.99690613  0.91880626  1
  La  La6  1  0.54955042  0.52174740  0.67017890  1
  La  La7  1  0.43774069  0.32743081  0.00109121  1
  La  La8  1  0.57571391  0.76218632  0.26680547  1
  La  La9  1  0.83264206  0.18519168  0.57659398  1
  La  La10  1  0.16735794  0.81480832  0.42340602  1
  La  La11  1  0.15898246  0.71687877  0.15398237  1
  Fe  Fe0  1  0.36085133  0.73311686  0.21346619  1
  Fe  Fe1  1  0.63914867  0.26688314  0.78653381  1
  I  I0  1  0.05591623  0.10683661  0.31484078  1
  I  I1  1  0.45967087  0.94114755  0.81747124  1
  I  I2  1  0.42840563  0.82764824  0.52726431  1
  I  I3  1  0.57159437  0.17235176  0.47273569  1
  I  I4  1  0.86134897  0.68925535  0.04997991  1
  I  I5  1  0.20925781  0.41672161  0.25022384  1
  I  I6  1  0.69383257  0.36507142  0.10780849  1
  I  I7  1  0.54032913  0.05885245  0.18252876  1
  I  I8  1  0.74828112  0.47462327  0.40997015  1
  I  I9  1  0.88376153  0.78420017  0.36949656  1
  I  I10  1  0.94408377  0.89316339  0.68515922  1
  I  I11  1  0.13865103  0.31074465  0.95002009  1
  I  I12  1  0.30616743  0.63492858  0.89219151  1
  I  I13  1  0.00000000  -0.00000000  -0.00000000  1
  I  I14  1  0.11623847  0.21579983  0.63050344  1
  I  I15  1  0.79074219  0.58327839  0.74977616  1
  I  I16  1  0.25171888  0.52537673  0.59002985  1
loop_
_geom_bond_atom_site_label_1
_geom_bond_atom_site_label_2
_geom_bond_distance
_geom_bond_site_symmetry_2
Fe0 La11 2.384090 1_555
Fe0 La8 2.545711 1_555
Fe0 La0 2.868945 1_555
Fe0 La1 2.921379 1_555
Fe0 La10 2.923190 1_555
Fe0 La2 3.074939 1_565
Fe1 La3 2.384090 1_555
Fe1 La4 2.545711 1_555
Fe1 La6 2.868945 1_555
Fe1 La7 2.921379 1_556
Fe1 La9 2.923190 1_555
Fe1 La5 3.074939 1_545
I0 La10 3.219555 1_545
I0 La2 3.383276 1_555
I0 La9 3.506672 1_455
I1 La1 3.298741 1_556
I1 La4 3.312545 1_565
I1 La5 3.325568 1_555
I1 La2 3.339356 1_566
I2 La10 3.226276 1_555
I2 La8 3.297536 1_555
I2 La6 3.460995 1_555
I3 La9 3.226276 1_555
I3 La4 3.297536 1_555
I3 La0 3.460995 1_555
I4 La1 3.266093 1_555
I4 La8 3.345656 1_555
I4 La5 3.477382 1_554
I4 La11 3.648879 1_655
I5 La0 3.185037 1_555
I5 La11 3.330410 1_555
I5 La7 3.436436 1_555
I6 La0 3.326643 1_555
I6 La7 3.352339 1_555
I6 La3 3.384170 1_554
I6 La1 3.384387 1_555
I7 La7 3.298741 1_555
I7 La8 3.312545 1_545
I7 La2 3.325568 1_555
I7 La5 3.339356 1_544
I8 La0 3.318063 1_555
I8 La6 3.330316 1_555
I8 La8 3.380399 1_555
I8 La9 3.391040 1_555
I9 La10 3.213649 1_655
I9 La11 3.270112 1_655
I9 La8 3.702927 1_555
I10 La9 3.219555 1_565
I10 La5 3.383276 1_555
I10 La10 3.506672 1_655
I11 La7 3.266093 1_556
I11 La4 3.345656 1_555
I11 La2 3.477382 1_556
I11 La3 3.648879 1_455
I12 La6 3.326643 1_555
I12 La1 3.352339 1_556
I12 La11 3.384170 1_556
I12 La7 3.384387 1_556
I13 La2 3.344433 1_555
I13 La5 3.344433 1_444
I13 La3 3.362525 1_454
I13 La11 3.362525 1_545
I14 La9 3.213649 1_455
I14 La3 3.270112 1_455
I14 La4 3.702927 1_555
I15 La6 3.185037 1_555
I15 La3 3.330410 1_555
I15 La1 3.436436 1_556
I16 La6 3.318063 1_555
I16 La0 3.330316 1_555
I16 La4 3.380399 1_555
I16 La10 3.391040 1_555
