# generated using pymatgen
data_Rb2Sb8O13
_symmetry_space_group_name_H-M   'P 1'
_cell_length_a   17.34654800
_cell_length_b   7.69723900
_cell_length_c   14.36175658
_cell_angle_alpha   89.85097722
_cell_angle_beta   90.00000000
_cell_angle_gamma   90.00000000
_symmetry_Int_Tables_number   1
_chemical_formula_structural   Rb2Sb8O13
_chemical_formula_sum   'Rb8 Sb32 O52'
_cell_volume   1917.58280327
_cell_formula_units_Z   4
loop_
 _symmetry_equiv_pos_site_id
 _symmetry_equiv_pos_as_xyz
  1  'x, y, z'
loop_
 _atom_site_type_symbol
 _atom_site_label
 _atom_site_symmetry_multiplicity
 _atom_site_fract_x
 _atom_site_fract_y
 _atom_site_fract_z
 _atom_site_occupancy
  Rb  Rb0  1  0.75000000  0.46938800  0.19302300  1
  Rb  Rb1  1  0.25000000  0.46136000  0.31996500  1
  Rb  Rb2  1  0.75000000  0.02351000  0.53348600  1
  Rb  Rb3  1  0.75000000  0.95569200  0.03158100  1
  Rb  Rb4  1  0.25000000  0.04430800  0.96841900  1
  Rb  Rb5  1  0.25000000  0.53061200  0.80697700  1
  Rb  Rb6  1  0.25000000  0.97649000  0.46651400  1
  Rb  Rb7  1  0.75000000  0.53864000  0.68003500  1
  Sb  Sb0  1  0.86193100  0.47845500  0.92477500  1
  Sb  Sb1  1  0.36193100  0.52154500  0.07522500  1
  Sb  Sb2  1  0.11459000  0.98370000  0.21000100  1
  Sb  Sb3  1  0.93907600  0.72876400  0.12234700  1
  Sb  Sb4  1  0.43907600  0.27123600  0.87765300  1
  Sb  Sb5  1  0.38541000  0.98370000  0.21000100  1
  Sb  Sb6  1  0.44676800  0.66915700  0.36583000  1
  Sb  Sb7  1  0.61459000  0.01630000  0.78999900  1
  Sb  Sb8  1  0.88541000  0.01630000  0.78999900  1
  Sb  Sb9  1  0.05323200  0.66915700  0.36583000  1
  Sb  Sb10  1  0.13806900  0.52154500  0.07522500  1
  Sb  Sb11  1  0.56092400  0.72876400  0.12234700  1
  Sb  Sb12  1  0.44098600  0.83099300  0.91785200  1
  Sb  Sb13  1  0.45016200  0.23638900  0.41284100  1
  Sb  Sb14  1  0.36225500  0.99373300  0.71358400  1
  Sb  Sb15  1  0.63806900  0.47845500  0.92477500  1
  Sb  Sb16  1  0.63774500  0.00626700  0.28641600  1
  Sb  Sb17  1  0.94098600  0.16900700  0.08214800  1
  Sb  Sb18  1  0.63616400  0.48637500  0.43457100  1
  Sb  Sb19  1  0.13774500  0.99373300  0.71358400  1
  Sb  Sb20  1  0.54983800  0.76361100  0.58715900  1
  Sb  Sb21  1  0.55323200  0.33084300  0.63417000  1
  Sb  Sb22  1  0.36383600  0.51362500  0.56542900  1
  Sb  Sb23  1  0.05901400  0.83099300  0.91785200  1
  Sb  Sb24  1  0.04983800  0.23638900  0.41284100  1
  Sb  Sb25  1  0.94676800  0.33084300  0.63417000  1
  Sb  Sb26  1  0.95016200  0.76361100  0.58715900  1
  Sb  Sb27  1  0.86383600  0.48637500  0.43457100  1
  Sb  Sb28  1  0.13616400  0.51362500  0.56542900  1
  Sb  Sb29  1  0.06092400  0.27123600  0.87765300  1
  Sb  Sb30  1  0.55901400  0.16900700  0.08214800  1
  Sb  Sb31  1  0.86225500  0.00626700  0.28641600  1
  O  O0  1  0.37787200  0.08063000  0.33883600  1
  O  O1  1  0.93171600  0.57367200  0.67960000  1
  O  O2  1  0.62376000  0.25936300  0.74423400  1
  O  O3  1  0.12212800  0.08063000  0.33883600  1
  O  O4  1  0.12376000  0.74063700  0.25576600  1
  O  O5  1  0.64067500  0.71147000  0.50494000  1
  O  O6  1  0.85518100  0.33321400  0.54822600  1
  O  O7  1  0.06828400  0.42632800  0.32040000  1
  O  O8  1  0.63568500  0.23725300  0.97436300  1
  O  O9  1  0.64481900  0.33321400  0.54822600  1
  O  O10  1  0.14650600  0.83787900  0.82499900  1
  O  O11  1  0.86431500  0.23725300  0.97436300  1
  O  O12  1  0.35908300  0.41382100  0.94805100  1
  O  O13  1  0.25000000  0.52111500  0.59024800  1
  O  O14  1  0.85932500  0.71147000  0.50494000  1
  O  O15  1  0.99964500  0.98685200  0.19671700  1
  O  O16  1  0.87624000  0.25936300  0.74423400  1
  O  O17  1  0.56828400  0.57367200  0.67960000  1
  O  O18  1  0.25000000  0.98164200  0.68186100  1
  O  O19  1  0.75000000  0.47888500  0.40975200  1
  O  O20  1  0.14067500  0.28853000  0.49506000  1
  O  O21  1  0.00000000  0.50000000  0.50000000  1
  O  O22  1  0.14481900  0.66678600  0.45177400  1
  O  O23  1  0.64091700  0.58617900  0.05194900  1
  O  O24  1  0.85538700  0.78504600  0.21362800  1
  O  O25  1  0.92026200  0.92776400  0.03431700  1
  O  O26  1  0.07973800  0.07223600  0.96568300  1
  O  O27  1  0.87787200  0.91937000  0.66116400  1
  O  O28  1  0.49964500  0.01314800  0.80328300  1
  O  O29  1  0.25000000  0.49884500  0.10501400  1
  O  O30  1  0.36431500  0.76274700  0.02563700  1
  O  O31  1  0.35932500  0.28853000  0.49506000  1
  O  O32  1  0.50035500  0.98685200  0.19671700  1
  O  O33  1  0.75000000  0.50115500  0.89498600  1
  O  O34  1  0.64650600  0.16212100  0.17500100  1
  O  O35  1  0.35518100  0.66678600  0.45177400  1
  O  O36  1  0.50000000  0.50000000  0.50000000  1
  O  O37  1  0.85349400  0.16212100  0.17500100  1
  O  O38  1  0.35349400  0.83787900  0.82499900  1
  O  O39  1  0.42026200  0.07223600  0.96568300  1
  O  O40  1  0.75000000  0.01835800  0.31813900  1
  O  O41  1  0.00035500  0.01314800  0.80328300  1
  O  O42  1  0.62212800  0.91937000  0.66116400  1
  O  O43  1  0.14091700  0.41382100  0.94805100  1
  O  O44  1  0.37624000  0.74063700  0.25576600  1
  O  O45  1  0.43171600  0.42632800  0.32040000  1
  O  O46  1  0.13568500  0.76274700  0.02563700  1
  O  O47  1  0.35538700  0.21495400  0.78637200  1
  O  O48  1  0.14461300  0.21495400  0.78637200  1
  O  O49  1  0.57973800  0.92776400  0.03431700  1
  O  O50  1  0.64461300  0.78504600  0.21362800  1
  O  O51  1  0.85908300  0.58617900  0.05194900  1
loop_
_geom_bond_atom_site_label_1
_geom_bond_atom_site_label_2
_geom_bond_distance
_geom_bond_site_symmetry_2
O0 Sb5 2.001133 1_545
O0 Sb13 2.036204 1_555
O0 Rb6 2.986205 1_545
O1 Sb26 1.998077 1_555
O1 Sb25 1.998449 1_555
O1 Rb7 3.163663 1_555
O2 Sb7 1.987768 1_555
O2 Sb21 2.072099 1_555
O2 Rb7 3.202528 1_555
O3 Sb2 2.001133 1_545
O3 Sb24 2.036204 1_555
O3 Rb6 2.986205 1_545
O4 Sb2 1.987768 1_555
O4 Sb9 2.072099 1_555
O4 Rb1 3.202528 1_555
O5 Sb18 2.009609 1_555
O5 Sb20 2.010151 1_555
O5 Rb2 3.088437 1_565
O5 Rb7 3.416472 1_555
O6 Sb25 2.011903 1_555
O6 Sb27 2.016614 1_555
O6 Rb2 3.009843 1_555
O6 Rb7 3.070535 1_555
O7 Sb24 1.998077 1_555
O7 Sb9 1.998449 1_555
O7 Rb1 3.163663 1_555
O8 Sb15 1.987195 1_555
O8 Sb30 2.106372 1_556
O8 Rb3 3.048790 1_546
O9 Sb21 2.011903 1_555
O9 Sb18 2.016614 1_555
O9 Rb2 3.009843 1_555
O9 Rb7 3.070535 1_555
O10 Sb19 2.003155 1_555
O10 Sb23 2.020919 1_555
O10 Rb5 2.981087 1_555
O10 Rb4 3.163436 1_565
O11 Sb0 1.987195 1_555
O11 Sb17 2.106372 1_556
O11 Rb3 3.048790 1_546
O12 Sb1 2.008418 1_556
O12 Sb4 2.039103 1_555
O12 Rb5 2.912748 1_555
O12 Rb4 3.428025 1_555
O13 Sb28 2.007429 1_555
O13 Sb22 2.007429 1_555
O13 Rb5 3.113657 1_555
O14 Sb27 2.009609 1_555
O14 Sb26 2.010151 1_555
O14 Rb2 3.088437 1_565
O14 Rb7 3.416472 1_555
O15 Sb2 2.003146 1_655
O15 Sb17 2.386757 1_565
O15 Sb3 2.490416 1_555
O15 Sb31 2.713435 1_565
O16 Sb8 1.987768 1_555
O16 Sb25 2.072099 1_555
O16 Rb7 3.202528 1_555
O17 Sb20 1.998077 1_555
O17 Sb21 1.998449 1_555
O17 Rb7 3.163663 1_555
O18 Sb19 2.002045 1_555
O18 Sb14 2.002045 1_555
O18 Rb6 3.093119 1_555
O19 Sb18 2.007429 1_555
O19 Sb27 2.007429 1_555
O19 Rb0 3.113657 1_555
O20 Sb28 2.009609 1_555
O20 Sb24 2.010151 1_555
O20 Rb6 3.088437 1_545
O20 Rb1 3.416472 1_555
O21 Sb25 2.499584 1_455
O21 Sb9 2.499584 1_555
O21 Sb24 2.538631 1_555
O21 Sb26 2.538631 1_455
O21 Sb27 2.544293 1_455
O21 Sb28 2.544293 1_555
O22 Sb9 2.011903 1_555
O22 Sb28 2.016614 1_555
O22 Rb6 3.009843 1_555
O22 Rb1 3.070535 1_555
O23 Sb15 2.008418 1_554
O23 Sb11 2.039103 1_555
O23 Rb0 2.912748 1_555
O23 Rb3 3.428025 1_555
O24 Sb31 2.003930 1_565
O24 Sb3 2.004174 1_555
O24 Rb0 3.055598 1_555
O24 Rb3 3.447472 1_555
O25 Sb3 2.010239 1_555
O25 Sb17 2.013913 1_565
O25 Rb3 2.961524 1_555
O26 Sb29 2.010239 1_555
O26 Sb23 2.013913 1_545
O26 Rb4 2.961524 1_555
O27 Sb8 2.001133 1_565
O27 Sb26 2.036204 1_555
O27 Rb2 2.986205 1_565
O28 Sb7 2.003146 1_555
O28 Sb12 2.386757 1_545
O28 Sb4 2.490416 1_555
O28 Sb14 2.713435 1_545
O29 Sb1 1.995757 1_555
O29 Sb10 1.995757 1_555
O29 Rb1 3.099781 1_555
O30 Sb1 1.987195 1_555
O30 Sb12 2.106372 1_554
O30 Rb4 3.048790 1_564
O31 Sb22 2.009609 1_555
O31 Sb13 2.010151 1_555
O31 Rb6 3.088437 1_545
O31 Rb1 3.416472 1_555
O32 Sb5 2.003146 1_555
O32 Sb30 2.386757 1_565
O32 Sb11 2.490416 1_555
O32 Sb16 2.713435 1_565
O33 Sb15 1.995757 1_555
O33 Sb0 1.995757 1_555
O33 Rb7 3.099781 1_555
O34 Sb16 2.003155 1_555
O34 Sb30 2.020919 1_555
O34 Rb0 2.981087 1_555
O34 Rb3 3.163436 1_545
O35 Sb6 2.011903 1_555
O35 Sb22 2.016614 1_555
O35 Rb6 3.009843 1_555
O35 Rb1 3.070535 1_555
O36 Sb21 2.499584 1_555
O36 Sb6 2.499584 1_555
O36 Sb13 2.538631 1_555
O36 Sb20 2.538631 1_555
O36 Sb18 2.544293 1_555
O36 Sb22 2.544293 1_555
O37 Sb31 2.003155 1_555
O37 Sb17 2.020919 1_555
O37 Rb0 2.981087 1_555
O37 Rb3 3.163436 1_545
O38 Sb14 2.003155 1_555
O38 Sb12 2.020919 1_555
O38 Rb5 2.981087 1_555
O38 Rb4 3.163436 1_565
O39 Sb4 2.010239 1_555
O39 Sb12 2.013913 1_545
O39 Rb4 2.961524 1_555
O40 Sb31 2.002045 1_555
O40 Sb16 2.002045 1_555
O40 Rb2 3.093119 1_555
O41 Sb8 2.003146 1_455
O41 Sb23 2.386757 1_545
O41 Sb29 2.490416 1_555
O41 Sb19 2.713435 1_545
O42 Sb7 2.001133 1_565
O42 Sb20 2.036204 1_555
O42 Rb2 2.986205 1_565
O43 Sb10 2.008418 1_556
O43 Sb29 2.039103 1_555
O43 Rb5 2.912748 1_555
O43 Rb4 3.428025 1_555
O44 Sb5 1.987768 1_555
O44 Sb6 2.072099 1_555
O44 Rb1 3.202528 1_555
O45 Sb13 1.998077 1_555
O45 Sb6 1.998449 1_555
O45 Rb1 3.163663 1_555
O46 Sb10 1.987195 1_555
O46 Sb23 2.106372 1_554
O46 Rb4 3.048790 1_564
O47 Sb14 2.003930 1_545
O47 Sb4 2.004174 1_555
O47 Rb5 3.055598 1_555
O47 Rb4 3.447472 1_555
O48 Sb19 2.003930 1_545
O48 Sb29 2.004174 1_555
O48 Rb5 3.055598 1_555
O48 Rb4 3.447472 1_555
O49 Sb11 2.010239 1_555
O49 Sb30 2.013913 1_565
O49 Rb3 2.961524 1_555
O50 Sb16 2.003930 1_565
O50 Sb11 2.004174 1_555
O50 Rb0 3.055598 1_555
O50 Rb3 3.447472 1_555
O51 Sb0 2.008418 1_554
O51 Sb3 2.039103 1_555
O51 Rb0 2.912748 1_555
O51 Rb3 3.428025 1_555
