# generated using pymatgen
data_AgHgSI
_symmetry_space_group_name_H-M   'P 1'
_cell_length_a   4.60179144
_cell_length_b   10.04912885
_cell_length_c   10.19798619
_cell_angle_alpha   90.00000000
_cell_angle_beta   90.00000000
_cell_angle_gamma   90.00000000
_symmetry_Int_Tables_number   1
_chemical_formula_structural   AgHgSI
_chemical_formula_sum   'Ag4 Hg4 S4 I4'
_cell_volume   471.59562362
_cell_formula_units_Z   4
loop_
 _symmetry_equiv_pos_site_id
 _symmetry_equiv_pos_as_xyz
  1  'x, y, z'
loop_
 _atom_site_type_symbol
 _atom_site_label
 _atom_site_symmetry_multiplicity
 _atom_site_fract_x
 _atom_site_fract_y
 _atom_site_fract_z
 _atom_site_occupancy
  Ag  Ag0  1  0.00000000  0.20966759  0.42499348  1
  Ag  Ag1  1  0.00000000  0.79033241  0.92499348  1
  Ag  Ag2  1  -0.00000000  0.79033241  0.57500652  1
  Ag  Ag3  1  0.00000000  0.20966759  0.07500652  1
  Hg  Hg0  1  0.50000000  0.23976813  0.75000000  1
  Hg  Hg1  1  0.50000000  0.50000000  0.00000000  1
  Hg  Hg2  1  0.50000000  0.76023187  0.25000000  1
  Hg  Hg3  1  0.50000000  0.50000000  0.50000000  1
  S  S0  1  0.50000000  0.26200024  0.51668368  1
  S  S1  1  0.50000000  0.73799976  0.48331632  1
  S  S2  1  0.50000000  0.26200024  0.98331632  1
  S  S3  1  0.50000000  0.73799976  0.01668368  1
  I  I0  1  0.00000000  0.53879408  0.75000000  1
  I  I1  1  -0.00000000  0.99418537  0.25000000  1
  I  I2  1  -0.00000000  0.46120592  0.25000000  1
  I  I3  1  -0.00000000  0.00581463  0.75000000  1
loop_
_geom_bond_atom_site_label_1
_geom_bond_atom_site_label_2
_geom_bond_distance
_geom_bond_site_symmetry_2
Ag0 S0 2.538704 1_555
Ag0 S0 2.538704 1_455
Ag0 I1 2.806016 1_545
Ag0 I2 3.094221 1_555
Ag1 S3 2.538704 1_556
Ag1 S3 2.538704 1_456
Ag1 I3 2.806016 1_565
Ag1 I0 3.094221 1_555
Ag2 S1 2.538704 1_555
Ag2 S1 2.538704 1_455
Ag2 I3 2.806016 1_565
Ag2 I0 3.094221 1_555
Ag3 S2 2.538704 1_554
Ag3 S2 2.538704 1_454
Ag3 I1 2.806016 1_545
Ag3 I2 3.094221 1_555
Hg0 S0 2.389822 1_555
Hg0 S2 2.389822 1_555
Hg0 I3 3.289598 1_655
Hg0 I3 3.289598 1_555
Hg1 S2 2.397734 1_554
Hg1 S3 2.397734 1_555
Hg2 S1 2.389822 1_555
Hg2 S3 2.389822 1_555
Hg2 I1 3.289598 1_655
Hg2 I1 3.289598 1_555
Hg3 S0 2.397734 1_555
Hg3 S1 2.397734 1_555
