# generated using pymatgen
data_Sr11Ga4Sn3
_symmetry_space_group_name_H-M   'P 1'
_cell_length_a   12.24444346
_cell_length_b   12.24444346
_cell_length_c   12.24444346
_cell_angle_alpha   60.00000000
_cell_angle_beta   60.00000000
_cell_angle_gamma   60.00000000
_symmetry_Int_Tables_number   1
_chemical_formula_structural   Sr11Ga4Sn3
_chemical_formula_sum   'Sr22 Ga8 Sn6'
_cell_volume   1298.08207327
_cell_formula_units_Z   2
loop_
 _symmetry_equiv_pos_site_id
 _symmetry_equiv_pos_as_xyz
  1  'x, y, z'
loop_
 _atom_site_type_symbol
 _atom_site_label
 _atom_site_symmetry_multiplicity
 _atom_site_fract_x
 _atom_site_fract_y
 _atom_site_fract_z
 _atom_site_occupancy
  Sr  Sr0  1  0.86929300  0.86929300  0.39212000  1
  Sr  Sr1  1  0.60788000  0.13070700  0.13070700  1
  Sr  Sr2  1  0.86929300  0.39212000  0.86929300  1
  Sr  Sr3  1  0.13070700  0.13070700  0.13070700  1
  Sr  Sr4  1  0.39212000  0.86929300  0.86929300  1
  Sr  Sr5  1  0.86929300  0.86929300  0.86929300  1
  Sr  Sr6  1  0.16552700  0.83447300  0.50000000  1
  Sr  Sr7  1  0.83447300  0.50000000  0.50000000  1
  Sr  Sr8  1  0.13070700  0.13070700  0.60788000  1
  Sr  Sr9  1  0.83447300  0.16552700  0.50000000  1
  Sr  Sr10  1  0.16552700  0.50000000  0.50000000  1
  Sr  Sr11  1  0.13070700  0.60788000  0.13070700  1
  Sr  Sr12  1  0.50000000  0.50000000  0.16552700  1
  Sr  Sr13  1  0.50000000  0.16552700  0.83447300  1
  Sr  Sr14  1  0.50000000  0.83447300  0.16552700  1
  Sr  Sr15  1  0.50000000  0.50000000  0.50000000  1
  Sr  Sr16  1  0.50000000  0.50000000  0.83447300  1
  Sr  Sr17  1  0.50000000  0.16552700  0.50000000  1
  Sr  Sr18  1  0.16552700  0.50000000  0.83447300  1
  Sr  Sr19  1  0.00000000  0.00000000  0.00000000  1
  Sr  Sr20  1  0.50000000  0.83447300  0.50000000  1
  Sr  Sr21  1  0.83447300  0.50000000  0.16552700  1
  Ga  Ga0  1  0.69369700  0.91891000  0.69369700  1
  Ga  Ga1  1  0.69369700  0.69369700  0.91891000  1
  Ga  Ga2  1  0.69369700  0.69369700  0.69369700  1
  Ga  Ga3  1  0.30630300  0.08109000  0.30630300  1
  Ga  Ga4  1  0.91891000  0.69369700  0.69369700  1
  Ga  Ga5  1  0.30630300  0.30630300  0.08109000  1
  Ga  Ga6  1  0.08109000  0.30630300  0.30630300  1
  Ga  Ga7  1  0.30630300  0.30630300  0.30630300  1
  Sn  Sn0  1  0.78315500  0.21684500  0.78315500  1
  Sn  Sn1  1  0.78315500  0.21684500  0.21684500  1
  Sn  Sn2  1  0.21684500  0.78315500  0.21684500  1
  Sn  Sn3  1  0.21684500  0.78315500  0.78315500  1
  Sn  Sn4  1  0.78315500  0.78315500  0.21684500  1
  Sn  Sn5  1  0.21684500  0.21684500  0.78315500  1
loop_
_geom_bond_atom_site_label_1
_geom_bond_atom_site_label_2
_geom_bond_distance
_geom_bond_site_symmetry_2
Sr10 Sr15 4.095436 1_555
Sr12 Sr15 4.095436 1_555
Sr13 Sr15 4.095436 1_555
Sr14 Sr15 4.095436 1_555
Sr15 Sr9 4.095436 1_555
Sr15 Sr16 4.095436 1_555
Sr15 Sr20 4.095436 1_555
Sr15 Sr6 4.095436 1_555
Sr15 Sr17 4.095436 1_555
Sr15 Sr7 4.095436 1_555
Sr15 Sr18 4.095436 1_555
Sr15 Sr21 4.095436 1_555
Ga0 Ga4 2.757608 1_555
Ga0 Ga2 2.757608 1_555
Ga0 Ga1 2.757608 1_555
Ga0 Sr5 3.409558 1_555
Ga0 Sr4 3.409579 1_555
Ga0 Sr0 3.409579 1_555
Ga0 Sr9 3.416117 1_565
Ga0 Sr13 3.416117 1_565
Ga0 Sr17 3.416125 1_565
Ga1 Ga4 2.757608 1_555
Ga1 Ga2 2.757608 1_555
Ga1 Sr5 3.409558 1_555
Ga1 Sr4 3.409579 1_555
Ga1 Sr2 3.409579 1_555
Ga1 Sr14 3.416117 1_556
Ga1 Sr21 3.416117 1_556
Ga1 Sr12 3.416125 1_556
Ga2 Ga4 2.757608 1_555
Ga2 Sr2 3.409569 1_555
Ga2 Sr0 3.409569 1_555
Ga2 Sr4 3.409569 1_555
Ga2 Sr16 3.416127 1_555
Ga2 Sr7 3.416127 1_555
Ga2 Sr20 3.416127 1_555
Ga3 Ga7 2.757608 1_555
Ga3 Ga5 2.757608 1_555
Ga3 Ga6 2.757608 1_555
Ga3 Sr3 3.409558 1_555
Ga3 Sr8 3.409579 1_555
Ga3 Sr1 3.409579 1_555
Ga3 Sr6 3.416117 1_545
Ga3 Sr14 3.416117 1_545
Ga3 Sr20 3.416125 1_545
Ga4 Sr5 3.409558 1_555
Ga4 Sr2 3.409579 1_555
Ga4 Sr0 3.409579 1_555
Ga4 Sr6 3.416117 1_655
Ga4 Sr18 3.416117 1_655
Ga4 Sr10 3.416125 1_655
Ga5 Ga7 2.757608 1_555
Ga5 Ga6 2.757608 1_555
Ga5 Sr3 3.409558 1_555
Ga5 Sr11 3.409579 1_555
Ga5 Sr1 3.409579 1_555
Ga5 Sr13 3.416117 1_554
Ga5 Sr18 3.416117 1_554
Ga5 Sr16 3.416125 1_554
Ga6 Ga7 2.757608 1_555
Ga6 Sr3 3.409558 1_555
Ga6 Sr11 3.409579 1_555
Ga6 Sr8 3.409579 1_555
Ga6 Sr9 3.416117 1_455
Ga6 Sr21 3.416117 1_455
Ga6 Sr7 3.416125 1_455
Ga7 Sr1 3.409569 1_555
Ga7 Sr11 3.409569 1_555
Ga7 Sr8 3.409569 1_555
Ga7 Sr12 3.416127 1_555
Ga7 Sr17 3.416127 1_555
Ga7 Sr10 3.416127 1_555
Sn0 Sr16 3.523556 1_555
Sn0 Sr13 3.523556 1_555
Sn0 Sr7 3.523556 1_555
Sn0 Sr9 3.523556 1_555
Sn0 Sr2 3.531334 1_555
Sn0 Sr1 3.531343 1_556
Sn0 Sr8 3.531343 1_655
Sn0 Sr5 3.531345 1_545
Sn0 Sr19 3.754944 1_656
Sn1 Sr21 3.523556 1_555
Sn1 Sr9 3.523556 1_555
Sn1 Sr12 3.523556 1_555
Sn1 Sr17 3.523556 1_555
Sn1 Sr1 3.531334 1_555
Sn1 Sr0 3.531343 1_545
Sn1 Sr2 3.531343 1_554
Sn1 Sr3 3.531345 1_655
Sn1 Sr19 3.754944 1_655
Sn2 Sr6 3.523556 1_555
Sn2 Sr14 3.523556 1_555
Sn2 Sr12 3.523556 1_555
Sn2 Sr10 3.523556 1_555
Sn2 Sr11 3.531334 1_555
Sn2 Sr0 3.531343 1_455
Sn2 Sr4 3.531343 1_554
Sn2 Sr3 3.531345 1_565
Sn2 Sr19 3.754944 1_565
Sn3 Sr16 3.523556 1_555
Sn3 Sr20 3.523556 1_555
Sn3 Sr18 3.523556 1_555
Sn3 Sr6 3.523556 1_555
Sn3 Sr4 3.531334 1_555
Sn3 Sr11 3.531343 1_556
Sn3 Sr8 3.531343 1_565
Sn3 Sr5 3.531345 1_455
Sn3 Sr19 3.754944 1_566
Sn4 Sr20 3.523556 1_555
Sn4 Sr21 3.523556 1_555
Sn4 Sr7 3.523556 1_555
Sn4 Sr14 3.523556 1_555
Sn4 Sr0 3.531334 1_555
Sn4 Sr1 3.531343 1_565
Sn4 Sr11 3.531343 1_655
Sn4 Sr5 3.531345 1_554
Sn4 Sr19 3.754944 1_665
Sn5 Sr18 3.523556 1_555
Sn5 Sr13 3.523556 1_555
Sn5 Sr17 3.523556 1_555
Sn5 Sr10 3.523556 1_555
Sn5 Sr8 3.531334 1_555
Sn5 Sr4 3.531343 1_545
Sn5 Sr2 3.531343 1_455
Sn5 Sr3 3.531345 1_556
Sn5 Sr19 3.754944 1_556
