# generated using pymatgen
data_Ca7Cu(PtO6)2
_symmetry_space_group_name_H-M   'P 1'
_cell_length_a   6.60427083
_cell_length_b   6.60427083
_cell_length_c   6.55739277
_cell_angle_alpha   89.26929749
_cell_angle_beta   89.26929749
_cell_angle_gamma   91.06633526
_symmetry_Int_Tables_number   1
_chemical_formula_structural   Ca7Cu(PtO6)2
_chemical_formula_sum   'Ca7 Cu1 Pt2 O12'
_cell_volume   285.91289733
_cell_formula_units_Z   1
loop_
 _symmetry_equiv_pos_site_id
 _symmetry_equiv_pos_as_xyz
  1  'x, y, z'
loop_
 _atom_site_type_symbol
 _atom_site_label
 _atom_site_symmetry_multiplicity
 _atom_site_fract_x
 _atom_site_fract_y
 _atom_site_fract_z
 _atom_site_occupancy
  Ca  Ca0  1  0.11164400  0.88835600  0.00000000  1
  Ca  Ca1  1  0.75730100  0.61618100  0.36749500  1
  Ca  Ca2  1  0.24676000  0.39073200  0.13639900  1
  Ca  Ca3  1  0.90497200  0.09502800  0.50000000  1
  Ca  Ca4  1  0.38381900  0.24269900  0.63250500  1
  Ca  Ca5  1  0.75251500  0.24748500  0.00000000  1
  Ca  Ca6  1  0.60926800  0.75324000  0.86360100  1
  Cu  Cu0  1  0.31065200  0.68934800  0.50000000  1
  Pt  Pt0  1  0.48907200  0.00343000  0.24964300  1
  Pt  Pt1  1  0.99657000  0.51092800  0.75035700  1
  O  O0  1  0.52247200  0.90584800  0.54376300  1
  O  O1  1  0.70101800  0.42766900  0.69730800  1
  O  O2  1  0.09415200  0.47752800  0.45623700  1
  O  O3  1  0.92292200  0.55241100  0.05094100  1
  O  O4  1  0.44758900  0.07707800  0.94905900  1
  O  O5  1  0.29252900  0.59502500  0.79342100  1
  O  O6  1  0.19620900  0.07677500  0.31241200  1
  O  O7  1  0.57233100  0.29898200  0.30269200  1
  O  O8  1  0.40497500  0.70747100  0.20657900  1
  O  O9  1  0.05967600  0.21157100  0.81718200  1
  O  O10  1  0.78842900  0.94032400  0.18281800  1
  O  O11  1  0.92322500  0.80379100  0.68758800  1
loop_
_geom_bond_atom_site_label_1
_geom_bond_atom_site_label_2
_geom_bond_distance
_geom_bond_site_symmetry_2
Ca0 O9 2.466566 1_564
Ca0 O10 2.466566 1_455
Ca0 O6 2.474974 1_565
Ca0 O11 2.474974 1_454
Ca0 O4 2.540685 1_564
Ca0 O3 2.540685 1_455
Ca0 O8 2.669603 1_555
Ca0 O5 2.669603 1_554
Ca1 O3 2.379944 1_555
Ca1 O7 2.449904 1_555
Ca1 O10 2.450030 1_555
Ca1 O2 2.494289 1_655
Ca1 O1 2.501815 1_555
Ca1 O8 2.643821 1_555
Ca1 O11 2.686288 1_555
Ca1 O0 2.742634 1_555
Ca2 O8 2.373774 1_555
Ca2 O6 2.376173 1_555
Ca2 O2 2.396103 1_555
Ca2 O3 2.475594 1_455
Ca2 O7 2.504170 1_555
Ca2 O5 2.619160 1_554
Ca2 O9 2.717160 1_554
Ca2 O4 2.772148 1_554
Ca3 O6 2.275789 1_655
Ca3 O11 2.275789 1_545
Ca3 O9 2.455196 1_655
Ca3 O10 2.455196 1_545
Ca3 O2 2.807060 1_655
Ca3 O0 2.807060 1_545
Ca3 O1 2.907343 1_555
Ca3 O7 2.907343 1_555
Ca4 O4 2.379944 1_555
Ca4 O1 2.449904 1_555
Ca4 O9 2.450030 1_555
Ca4 O0 2.494289 1_545
Ca4 O7 2.501815 1_555
Ca4 O5 2.643821 1_555
Ca4 O6 2.686288 1_555
Ca4 O2 2.742634 1_555
Ca5 O4 2.318615 1_554
Ca5 O3 2.318615 1_555
Ca5 O7 2.333126 1_555
Ca5 O1 2.333126 1_554
Ca5 O10 2.360434 1_545
Ca5 O9 2.360434 1_654
Ca6 O5 2.373774 1_555
Ca6 O11 2.376173 1_555
Ca6 O0 2.396103 1_555
Ca6 O4 2.475594 1_565
Ca6 O1 2.504170 1_555
Ca6 O8 2.619160 1_556
Ca6 O10 2.717160 1_556
Ca6 O3 2.772148 1_556
Cu0 O0 2.007480 1_555
Cu0 O2 2.007480 1_555
Cu0 O5 2.016240 1_555
Cu0 O8 2.016240 1_555
O0 Pt0 2.041606 1_565
O1 Pt1 2.053179 1_555
O2 Pt1 2.041606 1_455
O3 Pt1 2.047179 1_554
O4 Pt0 2.047179 1_556
O5 Pt1 2.046050 1_455
O6 Pt0 2.040741 1_555
O7 Pt0 2.053179 1_555
O8 Pt0 2.046050 1_565
O9 Pt1 2.070654 1_455
O10 Pt0 2.070654 1_565
O11 Pt1 2.040741 1_555
