# generated using pymatgen
data_Mn2VO4
_symmetry_space_group_name_H-M   'P 1'
_cell_length_a   6.21623278
_cell_length_b   6.18264437
_cell_length_c   24.79071540
_cell_angle_alpha   60.08021717
_cell_angle_beta   58.08160532
_cell_angle_gamma   60.17857996
_symmetry_Int_Tables_number   1
_chemical_formula_structural   Mn2VO4
_chemical_formula_sum   'Mn16 V8 O32'
_cell_volume   664.66584639
_cell_formula_units_Z   8
loop_
 _symmetry_equiv_pos_site_id
 _symmetry_equiv_pos_as_xyz
  1  'x, y, z'
loop_
 _atom_site_type_symbol
 _atom_site_label
 _atom_site_symmetry_multiplicity
 _atom_site_fract_x
 _atom_site_fract_y
 _atom_site_fract_z
 _atom_site_occupancy
  Mn  Mn0  1  0.09930200  0.14650100  0.27692400  1
  Mn  Mn1  1  0.48684800  0.50984300  0.12623300  1
  Mn  Mn2  1  0.48684800  0.99837600  0.12623300  1
  Mn  Mn3  1  0.11636500  0.13667800  0.52757000  1
  Mn  Mn4  1  0.49808100  0.49947300  0.37677500  1
  Mn  Mn5  1  0.49808100  0.99534400  0.37677500  1
  Mn  Mn6  1  0.86198100  0.87599100  0.22150900  1
  Mn  Mn7  1  0.12027900  0.12880500  0.78052800  1
  Mn  Mn8  1  0.51405000  0.49298600  0.62532100  1
  Mn  Mn9  1  0.51405000  0.99167900  0.62532100  1
  Mn  Mn10  1  0.87983400  0.87017700  0.46995300  1
  Mn  Mn11  1  0.49428200  0.49562100  0.87676800  1
  Mn  Mn12  1  0.90301600  0.87448900  0.71200100  1
  Mn  Mn13  1  0.50756400  0.50086800  0.99767500  1
  Mn  Mn14  1  0.49428200  0.00302500  0.87676800  1
  Mn  Mn15  1  0.89109700  0.87394100  0.96525500  1
  V  V0  1  0.10977700  0.12428200  0.03541500  1
  V  V1  1  0.46094000  0.50616100  0.25668500  1
  V  V2  1  0.96051400  0.50892200  0.13041000  1
  V  V3  1  0.49301600  0.49849900  0.50249600  1
  V  V4  1  0.00130600  0.50192100  0.37371300  1
  V  V5  1  0.51627500  0.49472200  0.74857000  1
  V  V6  1  0.02430800  0.49630800  0.62076900  1
  V  V7  1  0.98603000  0.52952400  0.86373100  1
  O  O0  1  0.22109500  0.24615600  0.06574400  1
  O  O1  1  0.22328900  0.29550600  0.17142400  1
  O  O2  1  0.22109500  0.76977400  0.06574400  1
  O  O3  1  0.75361400  0.24903300  0.06208000  1
  O  O4  1  0.27066300  0.72504300  0.19481300  1
  O  O5  1  0.23937100  0.27325000  0.31349600  1
  O  O6  1  0.76748700  0.72377300  0.07124200  1
  O  O7  1  0.72567300  0.29245200  0.19035500  1
  O  O8  1  0.23140000  0.28388400  0.42520800  1
  O  O9  1  0.23937100  0.73339300  0.31349600  1
  O  O10  1  0.68967400  0.28726700  0.30894800  1
  O  O11  1  0.72567300  0.72045500  0.19035500  1
  O  O12  1  0.25801700  0.26583800  0.56327500  1
  O  O13  1  0.28966000  0.71560500  0.44478300  1
  O  O14  1  0.74921900  0.28457300  0.43826500  1
  O  O15  1  0.24607000  0.27391300  0.67652500  1
  O  O16  1  0.76468200  0.72019000  0.32373400  1
  O  O17  1  0.25801700  0.72304800  0.56327500  1
  O  O18  1  0.70756200  0.28002300  0.55809800  1
  O  O19  1  0.74921900  0.71314900  0.43826500  1
  O  O20  1  0.25608300  0.27964700  0.81414700  1
  O  O21  1  0.30750900  0.70886000  0.69369200  1
  O  O22  1  0.76977100  0.27958800  0.68602500  1
  O  O23  1  0.78289300  0.71336800  0.57259300  1
  O  O24  1  0.25608300  0.70768400  0.81414700  1
  O  O25  1  0.25112400  0.22911700  0.94766000  1
  O  O26  1  0.76977100  0.70654000  0.68602500  1
  O  O27  1  0.70574700  0.27807600  0.80952600  1
  O  O28  1  0.29262600  0.73323200  0.93522700  1
  O  O29  1  0.79007800  0.28422800  0.92628100  1
  O  O30  1  0.77926100  0.72862800  0.81587100  1
  O  O31  1  0.79007800  0.72057000  0.92628100  1
loop_
_geom_bond_atom_site_label_1
_geom_bond_atom_site_label_2
_geom_bond_distance
_geom_bond_site_symmetry_2
Mn0 O10 2.054042 1_455
Mn0 O5 2.101516 1_555
Mn0 O9 2.101526 1_545
Mn0 O1 2.110499 1_555
Mn1 O1 2.105431 1_555
Mn1 O4 2.128137 1_555
Mn1 O6 2.152350 1_555
Mn1 O7 2.217415 1_555
Mn1 O3 2.233698 1_555
Mn1 O2 2.266132 1_555
Mn2 O1 2.105422 1_565
Mn2 O4 2.128128 1_555
Mn2 O6 2.152342 1_555
Mn2 O11 2.217414 1_555
Mn2 O3 2.233702 1_565
Mn2 O0 2.266132 1_565
Mn3 O8 2.050306 1_555
Mn3 O18 2.052178 1_455
Mn3 O17 2.103602 1_545
Mn3 O12 2.103612 1_555
Mn4 O8 2.112551 1_555
Mn4 O16 2.119593 1_555
Mn4 O10 2.120414 1_555
Mn4 O13 2.126602 1_555
Mn4 O14 2.226914 1_555
Mn4 O9 2.286921 1_555
Mn5 O8 2.112560 1_565
Mn5 O16 2.119593 1_555
Mn5 O10 2.120423 1_565
Mn5 O13 2.126584 1_555
Mn5 O19 2.226912 1_555
Mn5 O5 2.286921 1_565
Mn6 O16 2.059000 1_555
Mn6 O4 2.059881 1_655
Mn6 O11 2.117180 1_555
Mn6 O7 2.117185 1_565
Mn7 O15 2.079024 1_555
Mn7 O27 2.084781 1_455
Mn7 O24 2.139954 1_545
Mn7 O20 2.139959 1_555
Mn8 O18 2.109914 1_555
Mn8 O15 2.124569 1_555
Mn8 O23 2.129822 1_555
Mn8 O21 2.133996 1_555
Mn8 O22 2.235008 1_555
Mn8 O17 2.253157 1_555
Mn9 O18 2.109918 1_565
Mn9 O15 2.124555 1_565
Mn9 O23 2.129813 1_555
Mn9 O21 2.134005 1_555
Mn9 O26 2.235008 1_555
Mn9 O12 2.253158 1_565
Mn10 O23 2.067944 1_555
Mn10 O13 2.070087 1_655
Mn10 O19 2.106698 1_555
Mn10 O14 2.106703 1_565
Mn11 O28 2.049657 1_555
Mn11 O27 2.115864 1_555
Mn11 O24 2.188795 1_555
Mn11 O25 2.206275 1_555
Mn11 O29 2.234237 1_555
Mn11 O30 2.243514 1_555
Mn12 O26 2.065291 1_555
Mn12 O22 2.065296 1_565
Mn12 O21 2.067101 1_655
Mn12 O30 2.077147 1_555
Mn13 O28 2.074902 1_555
Mn13 O29 2.179298 1_555
Mn13 O31 2.179299 1_555
Mn13 O3 2.246486 1_556
Mn13 O0 2.336516 1_556
Mn13 O2 2.336520 1_556
Mn14 O28 2.049667 1_545
Mn14 O27 2.115878 1_555
Mn14 O20 2.188796 1_555
Mn14 O25 2.206267 1_555
Mn14 O31 2.234237 1_545
Mn14 O30 2.243510 1_545
Mn15 O28 2.015587 1_655
Mn15 O31 2.091597 1_555
Mn15 O29 2.091603 1_565
Mn15 O6 2.120678 1_556
O0 V0 1.801621 1_555
O0 V2 2.251218 1_455
O1 V2 1.928020 1_455
O2 V0 1.801622 1_565
O2 V2 2.251231 1_455
O3 V0 1.787809 1_655
O4 V1 1.959288 1_555
O5 V1 1.962772 1_555
O5 V4 2.026277 1_555
O6 V2 1.920399 1_555
O7 V2 1.948298 1_555
O7 V1 2.073946 1_555
O8 V4 1.946555 1_555
O9 V1 1.962754 1_555
O9 V4 2.026269 1_555
O10 V1 1.953677 1_555
O11 V2 1.948307 1_555
O11 V1 2.073938 1_555
O12 V6 1.987469 1_555
O12 V3 2.018361 1_555
O13 V3 1.937981 1_555
O14 V4 2.029709 1_655
O14 V3 2.036074 1_555
O15 V6 1.983730 1_555
O16 V4 1.950577 1_655
O17 V6 1.987482 1_555
O17 V3 2.018383 1_555
O18 V3 1.948854 1_555
O19 V4 2.029713 1_655
O19 V3 2.036086 1_555
O20 V7 1.961828 1_455
O20 V5 2.056527 1_555
O21 V5 1.910252 1_555
O22 V5 2.011354 1_555
O22 V6 2.038521 1_655
O23 V6 1.942349 1_655
O24 V7 1.961828 1_455
O24 V5 2.056539 1_555
O25 V0 1.750279 1_556
O25 V7 2.687135 1_455
O26 V5 2.011354 1_555
O26 V6 2.038517 1_655
O27 V5 1.938724 1_555
O29 V7 1.918941 1_555
O30 V7 1.776808 1_555
O31 V7 1.918932 1_555
