# generated using pymatgen
data_AsSOF9
_symmetry_space_group_name_H-M   'P 1'
_cell_length_a   7.45401500
_cell_length_b   8.70426700
_cell_length_c   11.17491800
_cell_angle_alpha   90.00000000
_cell_angle_beta   90.00000000
_cell_angle_gamma   90.00000000
_symmetry_Int_Tables_number   1
_chemical_formula_structural   AsSOF9
_chemical_formula_sum   'As4 S4 O4 F36'
_cell_volume   725.04808824
_cell_formula_units_Z   4
loop_
 _symmetry_equiv_pos_site_id
 _symmetry_equiv_pos_as_xyz
  1  'x, y, z'
loop_
 _atom_site_type_symbol
 _atom_site_label
 _atom_site_symmetry_multiplicity
 _atom_site_fract_x
 _atom_site_fract_y
 _atom_site_fract_z
 _atom_site_occupancy
  As  As0  1  0.75000000  0.70754800  0.48687400  1
  As  As1  1  0.25000000  0.20754800  0.01312600  1
  As  As2  1  0.25000000  0.29245200  0.51312600  1
  As  As3  1  0.75000000  0.79245200  0.98687400  1
  S  S0  1  0.25000000  0.83397800  0.30409500  1
  S  S1  1  0.75000000  0.33397800  0.19590500  1
  S  S2  1  0.75000000  0.16602200  0.69590500  1
  S  S3  1  0.25000000  0.66602200  0.80409500  1
  O  O0  1  0.25000000  0.70466800  0.23121800  1
  O  O1  1  0.25000000  0.79533200  0.73121800  1
  O  O2  1  0.75000000  0.29533200  0.76878200  1
  O  O3  1  0.75000000  0.20466800  0.26878200  1
  F  F0  1  0.75000000  0.50620400  0.50432200  1
  F  F1  1  0.08111700  0.27122700  0.40329600  1
  F  F2  1  0.75000000  0.30884100  0.06301300  1
  F  F3  1  0.09549700  0.55597100  0.78928900  1
  F  F4  1  0.91888300  0.77122700  0.09670400  1
  F  F5  1  0.25000000  0.08971200  0.53553200  1
  F  F6  1  0.90450300  0.44402900  0.21071100  1
  F  F7  1  0.41788800  0.31027800  0.62637400  1
  F  F8  1  0.58211200  0.81027800  0.87362600  1
  F  F9  1  0.75000000  0.91028800  0.46446800  1
  F  F10  1  0.91788800  0.81027800  0.87362600  1
  F  F11  1  0.59549700  0.44402900  0.21071100  1
  F  F12  1  0.25000000  0.49379600  0.49567800  1
  F  F13  1  0.40450300  0.55597100  0.78928900  1
  F  F14  1  0.25000000  0.00620400  0.99567800  1
  F  F15  1  0.58111700  0.77122700  0.09670400  1
  F  F16  1  0.08211200  0.31027800  0.62637400  1
  F  F17  1  0.08111700  0.22877300  0.90329600  1
  F  F18  1  0.75000000  0.99379600  0.00432200  1
  F  F19  1  0.41788800  0.18972200  0.12637400  1
  F  F20  1  0.41888300  0.22877300  0.90329600  1
  F  F21  1  0.41888300  0.27122700  0.40329600  1
  F  F22  1  0.75000000  0.58971200  0.96446800  1
  F  F23  1  0.25000000  0.80884100  0.43698700  1
  F  F24  1  0.59549700  0.05597100  0.71071100  1
  F  F25  1  0.08211200  0.18972200  0.12637400  1
  F  F26  1  0.75000000  0.19115900  0.56301300  1
  F  F27  1  0.40450300  0.94402900  0.28928900  1
  F  F28  1  0.91888300  0.72877300  0.59670400  1
  F  F29  1  0.91788800  0.68972200  0.37362600  1
  F  F30  1  0.25000000  0.69115900  0.93698700  1
  F  F31  1  0.09549700  0.94402900  0.28928900  1
  F  F32  1  0.25000000  0.41028800  0.03553200  1
  F  F33  1  0.58211200  0.68972200  0.37362600  1
  F  F34  1  0.58111700  0.72877300  0.59670400  1
  F  F35  1  0.90450300  0.05597100  0.71071100  1
loop_
_geom_bond_atom_site_label_1
_geom_bond_atom_site_label_2
_geom_bond_distance
_geom_bond_site_symmetry_2
As0 F0 1.763365 1_555
As0 F28 1.767829 1_555
As0 F34 1.767829 1_555
As0 F9 1.782378 1_555
As0 F29 1.786550 1_555
As0 F33 1.786550 1_555
As1 F14 1.763365 1_554
As1 F20 1.767829 1_554
As1 F17 1.767829 1_554
As1 F32 1.782378 1_555
As1 F25 1.786550 1_555
As1 F19 1.786550 1_555
As2 F12 1.763365 1_555
As2 F1 1.767829 1_555
As2 F21 1.767829 1_555
As2 F5 1.782378 1_555
As2 F16 1.786550 1_555
As2 F7 1.786550 1_555
As3 F18 1.763365 1_556
As3 F4 1.767829 1_556
As3 F15 1.767829 1_556
As3 F22 1.782378 1_555
As3 F10 1.786550 1_555
As3 F8 1.786550 1_555
O0 S0 1.389280 1_555
O1 S3 1.389280 1_555
O2 S2 1.389280 1_555
O3 S1 1.389280 1_555
F2 S1 1.501089 1_555
F3 S3 1.507087 1_555
F6 S1 1.507087 1_555
F11 S1 1.507087 1_555
F13 S3 1.507087 1_555
F23 S0 1.501089 1_555
F24 S2 1.507087 1_555
F26 S2 1.501089 1_555
F27 S0 1.507087 1_555
F30 S3 1.501089 1_555
F31 S0 1.507087 1_555
F35 S2 1.507087 1_555
