# generated using pymatgen
data_Ce6P17Pd6
_symmetry_space_group_name_H-M   'P 1'
_cell_length_a   8.93858421
_cell_length_b   8.93858421
_cell_length_c   8.93858421
_cell_angle_alpha   109.47122063
_cell_angle_beta   109.47122063
_cell_angle_gamma   109.47122063
_symmetry_Int_Tables_number   1
_chemical_formula_structural   Ce6P17Pd6
_chemical_formula_sum   'Ce6 P17 Pd6'
_cell_volume   549.77415182
_cell_formula_units_Z   1
loop_
 _symmetry_equiv_pos_site_id
 _symmetry_equiv_pos_as_xyz
  1  'x, y, z'
loop_
 _atom_site_type_symbol
 _atom_site_label
 _atom_site_symmetry_multiplicity
 _atom_site_fract_x
 _atom_site_fract_y
 _atom_site_fract_z
 _atom_site_occupancy
  Ce  Ce0  1  0.28315700  0.00000000  0.28315700  1
  Ce  Ce1  1  0.00000000  0.71684300  0.71684300  1
  Ce  Ce2  1  0.00000000  0.28315700  0.28315700  1
  Ce  Ce3  1  0.71684300  0.71684300  0.00000000  1
  Ce  Ce4  1  0.28315700  0.28315700  0.00000000  1
  Ce  Ce5  1  0.71684300  0.00000000  0.71684300  1
  P  P0  1  0.78623800  0.78623800  0.42563500  1
  P  P1  1  0.63939700  0.21376200  0.00000000  1
  P  P2  1  0.21376200  0.63939700  0.00000000  1
  P  P3  1  0.36060300  0.57436500  0.36060300  1
  P  P4  1  0.63939700  0.00000000  0.21376200  1
  P  P5  1  0.00000000  0.63939700  0.21376200  1
  P  P6  1  0.57436500  0.36060300  0.36060300  1
  P  P7  1  0.42563500  0.78623800  0.78623800  1
  P  P8  1  0.78623800  0.42563500  0.78623800  1
  P  P9  1  0.21376200  0.00000000  0.63939700  1
  P  P10  1  0.00000000  0.21376200  0.63939700  1
  P  P11  1  0.36060300  0.36060300  0.57436500  1
  P  P12  1  0.00000000  0.00000000  0.42239700  1
  P  P13  1  0.42239700  0.00000000  0.00000000  1
  P  P14  1  0.00000000  0.42239700  0.00000000  1
  P  P15  1  0.57760300  0.57760300  0.57760300  1
  P  P16  1  0.00000000  0.00000000  0.00000000  1
  Pd  Pd0  1  0.25000000  0.50000000  0.75000000  1
  Pd  Pd1  1  0.50000000  0.75000000  0.25000000  1
  Pd  Pd2  1  0.50000000  0.25000000  0.75000000  1
  Pd  Pd3  1  0.75000000  0.25000000  0.50000000  1
  Pd  Pd4  1  0.25000000  0.75000000  0.50000000  1
  Pd  Pd5  1  0.75000000  0.50000000  0.25000000  1
loop_
_geom_bond_atom_site_label_1
_geom_bond_atom_site_label_2
_geom_bond_distance
_geom_bond_site_symmetry_2
Ce0 P16 2.922573 1_555
Ce0 P5 3.059740 1_545
Ce0 P6 3.059740 1_555
Ce0 P11 3.059740 1_555
Ce0 P2 3.059740 1_545
Ce0 P12 3.170996 1_555
Ce0 P13 3.170996 1_555
Ce0 Pd2 3.415754 1_555
Ce0 Pd4 3.415754 1_545
Ce0 Pd1 3.415754 1_545
Ce0 Pd3 3.415754 1_555
Ce0 P4 3.441105 1_555
Ce0 P9 3.441105 1_555
Ce1 P16 2.922573 1_566
Ce1 P9 3.059740 1_565
Ce1 P2 3.059740 1_556
Ce1 P0 3.059740 1_455
Ce1 P8 3.059740 1_455
Ce1 P15 3.170996 1_455
Ce1 P13 3.170996 1_566
Ce1 Pd5 3.415754 1_455
Ce1 Pd3 3.415754 1_455
Ce1 Pd4 3.415754 1_555
Ce1 Pd0 3.415754 1_555
Ce1 P6 3.441105 1_455
Ce1 P7 3.441105 1_555
Ce2 P16 2.922573 1_555
Ce2 P4 3.059740 1_455
Ce2 P1 3.059740 1_455
Ce2 P11 3.059740 1_555
Ce2 P3 3.059740 1_555
Ce2 P12 3.170996 1_555
Ce2 P14 3.170996 1_555
Ce2 Pd5 3.415754 1_455
Ce2 Pd3 3.415754 1_455
Ce2 Pd4 3.415754 1_555
Ce2 Pd0 3.415754 1_555
Ce2 P5 3.441105 1_555
Ce2 P10 3.441105 1_555
Ce3 P16 2.922573 1_665
Ce3 P4 3.059740 1_565
Ce3 P8 3.059740 1_554
Ce3 P5 3.059740 1_655
Ce3 P7 3.059740 1_554
Ce3 P15 3.170996 1_554
Ce3 P12 3.170996 1_665
Ce3 Pd2 3.415754 1_554
Ce3 Pd1 3.415754 1_555
Ce3 Pd5 3.415754 1_555
Ce3 Pd0 3.415754 1_554
Ce3 P0 3.441105 1_555
Ce3 P11 3.441105 1_554
Ce4 P16 2.922573 1_555
Ce4 P9 3.059740 1_554
Ce4 P10 3.059740 1_554
Ce4 P6 3.059740 1_555
Ce4 P3 3.059740 1_555
Ce4 P14 3.170996 1_555
Ce4 P13 3.170996 1_555
Ce4 Pd2 3.415754 1_554
Ce4 Pd1 3.415754 1_555
Ce4 Pd5 3.415754 1_555
Ce4 Pd0 3.415754 1_554
Ce4 P2 3.441105 1_555
Ce4 P1 3.441105 1_555
Ce5 P16 2.922573 1_656
Ce5 P10 3.059740 1_655
Ce5 P1 3.059740 1_556
Ce5 P0 3.059740 1_545
Ce5 P7 3.059740 1_545
Ce5 P15 3.170996 1_545
Ce5 P14 3.170996 1_656
Ce5 Pd2 3.415754 1_555
Ce5 Pd4 3.415754 1_545
Ce5 Pd1 3.415754 1_545
Ce5 Pd3 3.415754 1_555
Ce5 P3 3.441105 1_545
Ce5 P8 3.441105 1_555
P0 P12 2.223156 1_665
P0 Pd1 2.355096 1_555
P0 Pd5 2.355096 1_555
P1 P13 2.223156 1_555
P1 Pd5 2.355096 1_555
P1 Pd2 2.355096 1_554
P2 Pd0 2.355096 1_554
P2 Pd1 2.355096 1_555
P3 Pd4 2.355096 1_555
P3 Pd1 2.355096 1_555
P4 Pd1 2.355096 1_545
P4 Pd3 2.355096 1_555
P5 Pd5 2.355096 1_455
P5 Pd4 2.355096 1_555
P6 Pd3 2.355096 1_555
P6 Pd5 2.355096 1_555
P7 Pd4 2.355096 1_555
P7 Pd0 2.355096 1_555
P8 Pd3 2.355096 1_555
P8 Pd2 2.355096 1_555
P9 Pd4 2.355096 1_545
P9 Pd2 2.355096 1_555
P10 P12 2.223156 1_555
P10 Pd0 2.355096 1_555
P10 Pd3 2.355096 1_455
P11 P15 2.223156 1_555
P11 Pd0 2.355096 1_555
P11 Pd2 2.355096 1_555
P12 P9 2.223156 1_555
P13 P4 2.223156 1_555
P13 P7 2.223156 1_544
P14 P8 2.223156 1_454
P14 P5 2.223156 1_555
P14 P2 2.223156 1_555
P15 P3 2.223156 1_555
P15 P6 2.223156 1_555
