# generated using pymatgen
data_BaNiF4
_symmetry_space_group_name_H-M   'P 1'
_cell_length_a   4.17691900
_cell_length_b   5.81080321
_cell_length_c   7.49534996
_cell_angle_alpha   89.99851863
_cell_angle_beta   106.17869348
_cell_angle_gamma   89.99999855
_symmetry_Int_Tables_number   1
_chemical_formula_structural   BaNiF4
_chemical_formula_sum   'Ba2 Ni2 F8'
_cell_volume   174.71697297
_cell_formula_units_Z   2
loop_
 _symmetry_equiv_pos_site_id
 _symmetry_equiv_pos_as_xyz
  1  'x, y, z'
loop_
 _atom_site_type_symbol
 _atom_site_label
 _atom_site_symmetry_multiplicity
 _atom_site_fract_x
 _atom_site_fract_y
 _atom_site_fract_z
 _atom_site_occupancy
  Ba  Ba0  1  0.85657666  0.96404442  0.71315231  1
  Ba  Ba1  1  0.14343089  0.46403994  0.28686178  1
  Ni  Ni0  1  0.58872070  -0.00037160  0.17744240  1
  Ni  Ni1  1  0.41128006  0.49962510  0.82255812  1
  F  F0  1  0.66958143  0.73160435  0.33916185  1
  F  F1  1  0.92094909  0.50252352  0.84190019  1
  F  F2  1  0.52491911  0.31047204  0.04983922  1
  F  F3  1  0.47507844  0.81045091  0.95015587  1
  F  F4  1  0.69810634  0.20142202  0.39621267  1
  F  F5  1  0.30189139  0.70144611  0.60378178  1
  F  F6  1  0.33041732  0.23162203  0.66083664  1
  F  F7  1  0.07904958  0.00252616  0.15809817  1
loop_
_geom_bond_atom_site_label_1
_geom_bond_atom_site_label_2
_geom_bond_distance
_geom_bond_site_symmetry_2
Ba0 F6 2.630772 1_665
Ba0 F6 2.630782 1_565
Ba0 F4 2.666021 1_565
Ba0 F5 2.703696 1_655
Ba0 F5 2.703696 1_555
Ba0 F1 2.837411 1_555
Ba0 F3 2.840568 1_555
Ba0 F3 2.840568 1_655
Ba0 F0 3.012026 1_555
Ba0 F7 3.210751 1_666
Ba0 F1 3.263391 1_565
Ba1 F0 2.630725 1_455
Ba1 F0 2.630729 1_555
Ba1 F5 2.666049 1_555
Ba1 F4 2.703695 1_455
Ba1 F4 2.703695 1_555
Ba1 F7 2.837456 1_555
Ba1 F2 2.840631 1_555
Ba1 F2 2.840634 1_455
Ba1 F6 3.011802 1_555
Ba1 F1 3.210853 1_454
Ba1 F7 3.263415 1_565
F0 Ni0 1.944409 1_565
F1 Ni1 2.093155 1_555
F1 Ni1 2.093172 1_655
F2 Ni1 1.970982 1_554
F2 Ni0 2.026375 1_555
F3 Ni0 1.971143 1_566
F3 Ni1 2.026309 1_555
F4 Ni0 1.963444 1_555
F5 Ni1 1.963523 1_555
F6 Ni1 1.944371 1_555
F7 Ni0 2.093160 1_555
F7 Ni0 2.093168 1_455
