# generated using pymatgen
data_Rb2Mn(PS3)2
_symmetry_space_group_name_H-M   'P 1'
_cell_length_a   12.58576000
_cell_length_b   6.18305100
_cell_length_c   9.23473966
_cell_angle_alpha   56.31837980
_cell_angle_beta   90.00000000
_cell_angle_gamma   90.00000000
_symmetry_Int_Tables_number   1
_chemical_formula_structural   Rb2Mn(PS3)2
_chemical_formula_sum   'Rb4 Mn2 P4 S12'
_cell_volume   597.99725353
_cell_formula_units_Z   2
loop_
 _symmetry_equiv_pos_site_id
 _symmetry_equiv_pos_as_xyz
  1  'x, y, z'
loop_
 _atom_site_type_symbol
 _atom_site_label
 _atom_site_symmetry_multiplicity
 _atom_site_fract_x
 _atom_site_fract_y
 _atom_site_fract_z
 _atom_site_occupancy
  Rb  Rb0  1  0.32623200  0.20363600  0.52541400  1
  Rb  Rb1  1  0.67376800  0.79636400  0.47458600  1
  Rb  Rb2  1  0.82623200  0.79636400  0.97458600  1
  Rb  Rb3  1  0.17376800  0.20363600  0.02541400  1
  Mn  Mn0  1  0.50000000  0.50000000  0.00000000  1
  Mn  Mn1  1  0.00000000  0.50000000  0.50000000  1
  P  P0  1  0.46024700  0.84530700  0.12376800  1
  P  P1  1  0.03975300  0.84530700  0.62376800  1
  P  P2  1  0.96024700  0.15469300  0.37623200  1
  P  P3  1  0.53975300  0.15469300  0.87623200  1
  S  S0  1  0.07512200  0.03392300  0.74028500  1
  S  S1  1  0.66456200  0.27820200  0.95252700  1
  S  S2  1  0.06806200  0.44877600  0.25320200  1
  S  S3  1  0.92487800  0.96607700  0.25971500  1
  S  S4  1  0.42487800  0.03392300  0.24028500  1
  S  S5  1  0.33543800  0.72179800  0.04747300  1
  S  S6  1  0.43193800  0.44877600  0.75320200  1
  S  S7  1  0.56806200  0.55122400  0.24679800  1
  S  S8  1  0.57512200  0.96607700  0.75971500  1
  S  S9  1  0.16456200  0.72179800  0.54747300  1
  S  S10  1  0.93193800  0.55122400  0.74679800  1
  S  S11  1  0.83543800  0.27820200  0.45252700  1
loop_
_geom_bond_atom_site_label_1
_geom_bond_atom_site_label_2
_geom_bond_distance
_geom_bond_site_symmetry_2
Rb0 S6 3.468246 1_555
Rb0 S9 3.519137 1_545
Rb0 S4 3.555323 1_555
Rb0 S0 3.566119 1_555
Rb0 S8 3.623043 1_545
Rb0 S5 3.751560 1_555
Rb0 S7 3.790680 1_555
Rb0 S2 3.866293 1_555
Rb0 S9 3.894872 1_555
Rb1 S7 3.468246 1_555
Rb1 S11 3.519137 1_565
Rb1 S8 3.555323 1_555
Rb1 S3 3.566119 1_555
Rb1 S4 3.623043 1_565
Rb1 S1 3.751560 1_555
Rb1 S6 3.790680 1_555
Rb1 S10 3.866293 1_555
Rb1 S11 3.894872 1_555
Rb2 S10 3.468246 1_555
Rb2 S1 3.519137 1_565
Rb2 S3 3.555323 1_556
Rb2 S8 3.566119 1_555
Rb2 S0 3.623043 1_665
Rb2 S11 3.751560 1_556
Rb2 S2 3.790680 1_656
Rb2 S7 3.866293 1_556
Rb2 S1 3.894872 1_555
Rb3 S2 3.468246 1_555
Rb3 S5 3.519137 1_545
Rb3 S0 3.555323 1_554
Rb3 S4 3.566119 1_555
Rb3 S3 3.623043 1_445
Rb3 S9 3.751560 1_554
Rb3 S10 3.790680 1_454
Rb3 S6 3.866293 1_554
Rb3 S5 3.894872 1_555
Mn0 S7 2.613254 1_555
Mn0 S6 2.613254 1_554
Mn0 S1 2.651293 1_554
Mn0 S5 2.651293 1_555
Mn0 S4 2.651377 1_555
Mn0 S8 2.651377 1_554
Mn1 S10 2.613254 1_455
Mn1 S2 2.613254 1_555
Mn1 S9 2.651293 1_555
Mn1 S11 2.651293 1_455
Mn1 S0 2.651377 1_555
Mn1 S3 2.651377 1_455
P0 S4 2.026783 1_565
P0 S5 2.035641 1_555
P0 S7 2.036426 1_555
P1 S0 2.026783 1_565
P1 S9 2.035641 1_555
P1 S10 2.036426 1_455
P2 S3 2.026783 1_545
P2 S11 2.035641 1_555
P2 S2 2.036426 1_655
P3 S8 2.026783 1_545
P3 S1 2.035641 1_555
P3 S6 2.036426 1_555
