# generated using pymatgen
data_PC2N3Cl4
_symmetry_space_group_name_H-M   'P 1'
_cell_length_a   7.60433738
_cell_length_b   7.60433738
_cell_length_c   9.07872500
_cell_angle_alpha   90.00000000
_cell_angle_beta   90.00000000
_cell_angle_gamma   120.23884630
_symmetry_Int_Tables_number   1
_chemical_formula_structural   PC2N3Cl4
_chemical_formula_sum   'P2 C4 N6 Cl8'
_cell_volume   453.55291067
_cell_formula_units_Z   2
loop_
 _symmetry_equiv_pos_site_id
 _symmetry_equiv_pos_as_xyz
  1  'x, y, z'
loop_
 _atom_site_type_symbol
 _atom_site_label
 _atom_site_symmetry_multiplicity
 _atom_site_fract_x
 _atom_site_fract_y
 _atom_site_fract_z
 _atom_site_occupancy
  P  P0  1  0.05785900  0.94214100  0.25000000  1
  P  P1  1  0.94214100  0.05785900  0.75000000  1
  C  C0  1  0.77463500  0.22536500  0.62452200  1
  C  C1  1  0.22536500  0.77463500  0.12452200  1
  C  C2  1  0.22536500  0.77463500  0.37547800  1
  C  C3  1  0.77463500  0.22536500  0.87547800  1
  N  N0  1  0.72091400  0.27908600  0.75000000  1
  N  N1  1  0.87346800  0.12653200  0.60138400  1
  N  N2  1  0.87346800  0.12653200  0.89861600  1
  N  N3  1  0.12653200  0.87346800  0.39861600  1
  N  N4  1  0.27908600  0.72091400  0.25000000  1
  N  N5  1  0.12653200  0.87346800  0.10138400  1
  Cl  Cl0  1  0.69990100  0.30009900  0.03353200  1
  Cl  Cl1  1  0.30009900  0.69990100  0.53353200  1
  Cl  Cl2  1  0.75809400  0.82748900  0.25000000  1
  Cl  Cl3  1  0.30009900  0.69990100  0.96646800  1
  Cl  Cl4  1  0.69990100  0.30009900  0.46646800  1
  Cl  Cl5  1  0.24190600  0.17251100  0.75000000  1
  Cl  Cl6  1  0.17251100  0.24190600  0.25000000  1
  Cl  Cl7  1  0.82748900  0.75809400  0.75000000  1
loop_
_geom_bond_atom_site_label_1
_geom_bond_atom_site_label_2
_geom_bond_distance
_geom_bond_site_symmetry_2
C0 N1 1.320123 1_555
C0 N0 1.341485 1_555
C0 Cl4 1.740762 1_555
C1 N5 1.320123 1_555
C1 N4 1.341485 1_555
C1 Cl3 1.740762 1_554
C2 N3 1.320123 1_555
C2 N4 1.341485 1_555
C2 Cl1 1.740762 1_555
C3 N2 1.320123 1_555
C3 N0 1.341485 1_555
C3 Cl0 1.740762 1_556
N1 P1 1.624975 1_555
N2 P1 1.624975 1_555
N3 P0 1.624975 1_555
N5 P0 1.624975 1_555
Cl2 P0 1.988612 1_655
Cl5 P1 1.988612 1_455
Cl6 P0 1.988612 1_545
Cl7 P1 1.988612 1_565
