# generated using pymatgen
data_Sn2SbS2I3
_symmetry_space_group_name_H-M   'P 1'
_cell_length_a   7.55232850
_cell_length_b   7.55232850
_cell_length_c   16.04789600
_cell_angle_alpha   90.00000000
_cell_angle_beta   90.00000000
_cell_angle_gamma   146.53479294
_symmetry_Int_Tables_number   1
_chemical_formula_structural   Sn2SbS2I3
_chemical_formula_sum   'Sn4 Sb2 S4 I6'
_cell_volume   504.74338115
_cell_formula_units_Z   2
loop_
 _symmetry_equiv_pos_site_id
 _symmetry_equiv_pos_as_xyz
  1  'x, y, z'
loop_
 _atom_site_type_symbol
 _atom_site_label
 _atom_site_symmetry_multiplicity
 _atom_site_fract_x
 _atom_site_fract_y
 _atom_site_fract_z
 _atom_site_occupancy
  Sn  Sn0  1  0.86676200  0.13323800  0.97929900  1
  Sn  Sn1  1  0.13323800  0.86676200  0.47929900  1
  Sn  Sn2  1  0.13323800  0.86676200  0.02070100  1
  Sn  Sn3  1  0.86676200  0.13323800  0.52070100  1
  Sb  Sb0  1  0.79587200  0.20412800  0.25000000  1
  Sb  Sb1  1  0.20412800  0.79587200  0.75000000  1
  S  S0  1  0.27124600  0.72875400  0.58538800  1
  S  S1  1  0.27124600  0.72875400  0.91461200  1
  S  S2  1  0.72875400  0.27124600  0.08538800  1
  S  S3  1  0.72875400  0.27124600  0.41461200  1
  I  I0  1  0.56731500  0.43268500  0.63241900  1
  I  I1  1  0.43268500  0.56731500  0.13241900  1
  I  I2  1  0.85017800  0.14982200  0.75000000  1
  I  I3  1  0.43268500  0.56731500  0.36758100  1
  I  I4  1  0.56731500  0.43268500  0.86758100  1
  I  I5  1  0.14982200  0.85017800  0.25000000  1
loop_
_geom_bond_atom_site_label_1
_geom_bond_atom_site_label_2
_geom_bond_distance
_geom_bond_site_symmetry_2
S0 Sn1 2.623688 1_555
S0 Sn3 2.777483 1_565
S0 Sn3 2.777483 1_455
S0 Sb1 2.814434 1_555
S1 Sn2 2.623688 1_556
S1 Sn0 2.777483 1_565
S1 Sn0 2.777483 1_455
S1 Sb1 2.814434 1_555
S2 Sn0 2.623688 1_554
S2 Sn2 2.777483 1_655
S2 Sn2 2.777483 1_545
S2 Sb0 2.814434 1_555
S3 Sn3 2.623688 1_555
S3 Sn1 2.777483 1_655
S3 Sn1 2.777483 1_545
S3 Sb0 2.814434 1_555
I0 Sn1 3.416906 1_655
I0 Sn1 3.416906 1_545
I0 Sb1 3.493540 1_655
I0 Sb1 3.493540 1_545
I1 Sn0 3.416906 1_564
I1 Sn0 3.416906 1_454
I1 Sb0 3.493540 1_565
I1 Sb0 3.493540 1_455
I2 Sb1 3.031671 1_655
I2 Sb1 3.031671 1_545
I3 Sn3 3.416906 1_565
I3 Sn3 3.416906 1_455
I3 Sb0 3.493540 1_565
I3 Sb0 3.493540 1_455
I4 Sn2 3.416906 1_656
I4 Sn2 3.416906 1_546
I4 Sb1 3.493540 1_655
I4 Sb1 3.493540 1_545
I5 Sb0 3.031671 1_565
I5 Sb0 3.031671 1_455
