# generated using pymatgen
data_Rb3NaTiO4
_symmetry_space_group_name_H-M   'P 1'
_cell_length_a   6.50055200
_cell_length_b   10.88538800
_cell_length_c   11.01420928
_cell_angle_alpha   67.35609387
_cell_angle_beta   90.00000000
_cell_angle_gamma   90.00000000
_symmetry_Int_Tables_number   1
_chemical_formula_structural   Rb3NaTiO4
_chemical_formula_sum   'Rb12 Na4 Ti4 O16'
_cell_volume   719.29889744
_cell_formula_units_Z   4
loop_
 _symmetry_equiv_pos_site_id
 _symmetry_equiv_pos_as_xyz
  1  'x, y, z'
loop_
 _atom_site_type_symbol
 _atom_site_label
 _atom_site_symmetry_multiplicity
 _atom_site_fract_x
 _atom_site_fract_y
 _atom_site_fract_z
 _atom_site_occupancy
  Rb  Rb0  1  0.65451500  0.03808400  0.33049400  1
  Rb  Rb1  1  0.12324100  0.32022800  0.60554100  1
  Rb  Rb2  1  0.38450800  0.54423400  0.31097200  1
  Rb  Rb3  1  0.11549200  0.54423400  0.81097200  1
  Rb  Rb4  1  0.84548500  0.03808400  0.83049400  1
  Rb  Rb5  1  0.61549200  0.45576600  0.68902800  1
  Rb  Rb6  1  0.87675900  0.67977200  0.39445900  1
  Rb  Rb7  1  0.15451500  0.96191600  0.16950600  1
  Rb  Rb8  1  0.62324100  0.67977200  0.89445900  1
  Rb  Rb9  1  0.37675900  0.32022800  0.10554100  1
  Rb  Rb10  1  0.34548500  0.96191600  0.66950600  1
  Rb  Rb11  1  0.88450800  0.45576600  0.18902800  1
  Na  Na0  1  0.61193100  0.87207000  0.10856100  1
  Na  Na1  1  0.38806900  0.12793000  0.89143900  1
  Na  Na2  1  0.88806900  0.87207000  0.60856100  1
  Na  Na3  1  0.11193100  0.12793000  0.39143900  1
  Ti  Ti0  1  0.36419400  0.75867600  0.48544000  1
  Ti  Ti1  1  0.63580600  0.24132400  0.51456000  1
  Ti  Ti2  1  0.86419400  0.24132400  0.01456000  1
  Ti  Ti3  1  0.13580600  0.75867600  0.98544000  1
  O  O0  1  0.97891000  0.20820700  0.17736100  1
  O  O1  1  0.47891000  0.79179300  0.32263900  1
  O  O2  1  0.25050900  0.59088400  0.04568100  1
  O  O3  1  0.16165500  0.88695900  0.46176800  1
  O  O4  1  0.74949100  0.40911600  0.95431900  1
  O  O5  1  0.42789700  0.23422300  0.40170100  1
  O  O6  1  0.66165500  0.11304100  0.03823200  1
  O  O7  1  0.02109000  0.79179300  0.82263900  1
  O  O8  1  0.75050900  0.40911600  0.45431900  1
  O  O9  1  0.07210300  0.23422300  0.90170100  1
  O  O10  1  0.33834500  0.88695900  0.96176800  1
  O  O11  1  0.83834500  0.11304100  0.53823200  1
  O  O12  1  0.57210300  0.76577700  0.59829900  1
  O  O13  1  0.24949100  0.59088400  0.54568100  1
  O  O14  1  0.52109000  0.20820700  0.67736100  1
  O  O15  1  0.92789700  0.76577700  0.09829900  1
loop_
_geom_bond_atom_site_label_1
_geom_bond_atom_site_label_2
_geom_bond_distance
_geom_bond_site_symmetry_2
Na0 O1 2.341895 1_555
Na0 O10 2.366746 1_554
Na0 O15 2.381374 1_555
Na0 O6 2.453654 1_565
Na1 O14 2.341895 1_555
Na1 O6 2.366746 1_556
Na1 O9 2.381374 1_555
Na1 O10 2.453654 1_545
Na2 O7 2.341895 1_655
Na2 O3 2.366746 1_655
Na2 O12 2.381374 1_555
Na2 O11 2.453654 1_565
Na3 O0 2.341895 1_455
Na3 O11 2.366746 1_455
Na3 O5 2.381374 1_555
Na3 O3 2.453654 1_545
O0 Ti2 1.844887 1_555
O0 Rb11 2.814526 1_555
O0 Rb9 2.838759 1_655
O0 Rb0 2.883728 1_555
O0 Rb7 2.945640 1_645
O1 Ti0 1.844887 1_555
O1 Rb2 2.814526 1_555
O1 Rb6 2.838759 1_555
O1 Rb7 2.883728 1_555
O1 Rb0 2.945640 1_565
O2 Ti3 1.843661 1_554
O2 Rb9 2.879687 1_555
O2 Rb8 2.887944 1_554
O2 Rb2 2.900347 1_555
O2 Rb11 2.920376 1_455
O2 Rb3 2.953291 1_554
O3 Ti0 1.863081 1_555
O3 Rb10 2.960839 1_555
O3 Rb7 3.001275 1_555
O3 Rb6 3.217656 1_455
O4 Ti2 1.843661 1_556
O4 Rb8 2.879687 1_555
O4 Rb9 2.887944 1_556
O4 Rb5 2.900347 1_555
O4 Rb3 2.920376 1_655
O4 Rb11 2.953291 1_556
O5 Ti1 1.857890 1_555
O5 Rb0 2.938207 1_555
O5 Rb9 3.045641 1_555
O5 Rb2 3.141556 1_555
O5 Rb1 3.384920 1_555
O6 Ti2 1.863081 1_555
O6 Rb4 2.960839 1_554
O6 Rb0 3.001275 1_555
O6 Rb9 3.217656 1_555
O7 Ti3 1.844887 1_555
O7 Rb3 2.814526 1_555
O7 Rb8 2.838759 1_455
O7 Rb10 2.883728 1_555
O7 Rb4 2.945640 1_465
O8 Ti1 1.843661 1_555
O8 Rb6 2.879687 1_555
O8 Rb1 2.887944 1_655
O8 Rb11 2.900347 1_555
O8 Rb2 2.920376 1_555
O8 Rb5 2.953291 1_555
O9 Ti2 1.857890 1_456
O9 Rb4 2.938207 1_455
O9 Rb1 3.045641 1_555
O9 Rb3 3.141556 1_555
O9 Rb9 3.384920 1_556
O10 Ti3 1.863081 1_555
O10 Rb7 2.960839 1_556
O10 Rb10 3.001275 1_555
O10 Rb8 3.217656 1_555
O11 Ti1 1.863081 1_555
O11 Rb0 2.960839 1_555
O11 Rb4 3.001275 1_555
O11 Rb1 3.217656 1_655
O12 Ti0 1.857890 1_555
O12 Rb10 2.938207 1_555
O12 Rb8 3.045641 1_555
O12 Rb5 3.141556 1_555
O12 Rb6 3.384920 1_555
O13 Ti0 1.843661 1_555
O13 Rb1 2.879687 1_555
O13 Rb6 2.887944 1_455
O13 Rb3 2.900347 1_555
O13 Rb5 2.920376 1_555
O13 Rb2 2.953291 1_555
O14 Ti1 1.844887 1_555
O14 Rb5 2.814526 1_555
O14 Rb1 2.838759 1_555
O14 Rb4 2.883728 1_555
O14 Rb10 2.945640 1_545
O15 Ti3 1.857890 1_654
O15 Rb7 2.938207 1_655
O15 Rb6 3.045641 1_555
O15 Rb11 3.141556 1_555
O15 Rb8 3.384920 1_554
