# generated using pymatgen
data_BaFe2P2O7F2
_symmetry_space_group_name_H-M   'P 1'
_cell_length_a   4.66892600
_cell_length_b   6.93008000
_cell_length_c   12.04696200
_cell_angle_alpha   90.00000000
_cell_angle_beta   90.00000000
_cell_angle_gamma   90.00000000
_symmetry_Int_Tables_number   1
_chemical_formula_structural   BaFe2P2O7F2
_chemical_formula_sum   'Ba2 Fe4 P4 O14 F4'
_cell_volume   389.79187224
_cell_formula_units_Z   2
loop_
 _symmetry_equiv_pos_site_id
 _symmetry_equiv_pos_as_xyz
  1  'x, y, z'
loop_
 _atom_site_type_symbol
 _atom_site_label
 _atom_site_symmetry_multiplicity
 _atom_site_fract_x
 _atom_site_fract_y
 _atom_site_fract_z
 _atom_site_occupancy
  Ba  Ba0  1  0.39203300  0.25000000  0.75000000  1
  Ba  Ba1  1  0.60796700  0.75000000  0.25000000  1
  Fe  Fe0  1  0.00000000  0.50000000  0.50000000  1
  Fe  Fe1  1  0.00000000  0.50000000  0.00000000  1
  Fe  Fe2  1  0.00000000  0.00000000  0.50000000  1
  Fe  Fe3  1  0.00000000  0.00000000  0.00000000  1
  P  P0  1  0.51323500  0.25000000  0.37393600  1
  P  P1  1  0.48676500  0.75000000  0.87393600  1
  P  P2  1  0.48676500  0.75000000  0.62606400  1
  P  P3  1  0.51323500  0.25000000  0.12606400  1
  O  O0  1  0.62590800  0.75000000  0.75000000  1
  O  O1  1  0.37409200  0.25000000  0.25000000  1
  O  O2  1  0.74948300  0.75000000  0.94987100  1
  O  O3  1  0.25051700  0.25000000  0.05012900  1
  O  O4  1  0.25051700  0.25000000  0.44987100  1
  O  O5  1  0.74948300  0.75000000  0.55012900  1
  O  O6  1  0.30981600  0.93483300  0.88387700  1
  O  O7  1  0.69018400  0.06516700  0.38387700  1
  O  O8  1  0.30981600  0.56516700  0.61612300  1
  O  O9  1  0.69018400  0.06516700  0.11612300  1
  O  O10  1  0.69018400  0.43483300  0.38387700  1
  O  O11  1  0.69018400  0.43483300  0.11612300  1
  O  O12  1  0.30981600  0.56516700  0.88387700  1
  O  O13  1  0.30981600  0.93483300  0.61612300  1
  F  F0  1  0.12836800  0.75000000  0.38605300  1
  F  F1  1  0.12836800  0.75000000  0.11394700  1
  F  F2  1  0.87163200  0.25000000  0.61394700  1
  F  F3  1  0.87163200  0.25000000  0.88605300  1
loop_
_geom_bond_atom_site_label_1
_geom_bond_atom_site_label_2
_geom_bond_distance
_geom_bond_site_symmetry_2
Ba0 O12 2.742070 1_555
Ba0 O6 2.742070 1_545
Ba0 O8 2.742070 1_555
Ba0 O13 2.742070 1_545
Ba0 F2 2.774973 1_555
Ba0 F3 2.774973 1_555
Ba0 F2 2.930855 1_455
Ba0 F3 2.930855 1_455
Ba1 O7 2.742070 1_565
Ba1 O10 2.742070 1_555
Ba1 O9 2.742070 1_565
Ba1 O11 2.742070 1_555
Ba1 F0 2.774973 1_555
Ba1 F1 2.774973 1_555
Ba1 F0 2.930855 1_655
Ba1 F1 2.930855 1_655
Fe0 O8 2.062363 1_555
Fe0 O10 2.062363 1_455
Fe0 O5 2.175866 1_455
Fe0 O4 2.175866 1_555
Fe1 O11 2.062363 1_455
Fe1 O12 2.062363 1_554
Fe1 O3 2.175866 1_555
Fe1 O2 2.175866 1_454
Fe2 O13 2.062363 1_545
Fe2 O7 2.062363 1_455
Fe2 O5 2.175866 1_445
Fe2 O4 2.175866 1_555
Fe3 O9 2.062363 1_455
Fe3 O6 2.062363 1_544
Fe3 O3 2.175866 1_555
Fe3 O2 2.175866 1_444
O0 P1 1.628265 1_555
O0 P2 1.628265 1_555
O1 P0 1.628265 1_555
O1 P3 1.628265 1_555
O2 P1 1.530166 1_555
O3 P3 1.530166 1_555
O4 P0 1.530166 1_555
O5 P2 1.530166 1_555
O6 P1 1.528924 1_555
O7 P0 1.528924 1_555
O8 P2 1.528924 1_555
O9 P3 1.528924 1_555
O10 P0 1.528924 1_555
O11 P3 1.528924 1_555
O12 P1 1.528924 1_555
O13 P2 1.528924 1_555
F0 Fe0 2.290236 1_555
F0 Fe2 2.290236 1_565
F1 Fe1 2.290236 1_555
F1 Fe3 2.290236 1_565
F2 Fe0 2.290236 1_655
F2 Fe2 2.290236 1_655
F3 Fe1 2.290236 1_656
F3 Fe3 2.290236 1_656
