# generated using pymatgen
data_BaFe(Si2O5)2
_symmetry_space_group_name_H-M   'P 1'
_cell_length_a   7.39721658
_cell_length_b   7.53704870
_cell_length_c   8.10636769
_cell_angle_alpha   90.00000000
_cell_angle_beta   90.00000000
_cell_angle_gamma   90.00000000
_symmetry_Int_Tables_number   1
_chemical_formula_structural   BaFe(Si2O5)2
_chemical_formula_sum   'Ba2 Fe2 Si8 O20'
_cell_volume   451.95579000
_cell_formula_units_Z   2
loop_
 _symmetry_equiv_pos_site_id
 _symmetry_equiv_pos_as_xyz
  1  'x, y, z'
loop_
 _atom_site_type_symbol
 _atom_site_label
 _atom_site_symmetry_multiplicity
 _atom_site_fract_x
 _atom_site_fract_y
 _atom_site_fract_z
 _atom_site_occupancy
  Ba  Ba0  1  0.50000000  0.50000000  0.97968923  1
  Ba  Ba1  1  -0.00000000  -0.00000000  0.02031077  1
  Fe  Fe0  1  0.50000000  -0.00000000  0.18908914  1
  Fe  Fe1  1  -0.00000000  0.50000000  0.81091086  1
  Si  Si0  1  0.25827267  0.18515780  0.70317706  1
  Si  Si1  1  0.75827267  0.31484220  0.29682294  1
  Si  Si2  1  0.24172733  0.68515780  0.29682294  1
  Si  Si3  1  0.74172733  0.81484220  0.70317706  1
  Si  Si4  1  0.68549730  0.22192971  0.67385779  1
  Si  Si5  1  0.18549730  0.27807029  0.32614221  1
  Si  Si6  1  0.81450270  0.72192971  0.32614221  1
  Si  Si7  1  0.31450270  0.77807029  0.67385779  1
  O  O0  1  0.14779620  0.27788015  0.84805470  1
  O  O1  1  0.64779620  0.22211985  0.15194530  1
  O  O2  1  0.35220380  0.77788015  0.15194530  1
  O  O3  1  0.85220380  0.72211985  0.84805470  1
  O  O4  1  0.22300355  0.62741812  0.78107838  1
  O  O5  1  0.72300355  0.87258188  0.21892162  1
  O  O6  1  0.27699645  0.12741812  0.21892162  1
  O  O7  1  0.77699645  0.37258188  0.78107838  1
  O  O8  1  0.22796782  0.97093585  0.71999781  1
  O  O9  1  0.72796782  0.52906415  0.28000219  1
  O  O10  1  0.27203218  0.47093585  0.28000219  1
  O  O11  1  0.77203218  0.02906415  0.71999781  1
  O  O12  1  0.80412529  0.74922766  0.52285582  1
  O  O13  1  0.30412529  0.75077234  0.47714418  1
  O  O14  1  0.69587471  0.24922766  0.47714418  1
  O  O15  1  0.19587471  0.25077234  0.52285582  1
  O  O16  1  0.52713232  0.77628956  0.72662160  1
  O  O17  1  0.02713232  0.72371044  0.27337840  1
  O  O18  1  0.97286768  0.27628956  0.27337840  1
  O  O19  1  0.47286768  0.22371044  0.72662160  1
loop_
_geom_bond_atom_site_label_1
_geom_bond_atom_site_label_2
_geom_bond_distance
_geom_bond_site_symmetry_2
Ba0 O1 2.744378 1_556
Ba0 O2 2.744378 1_556
Ba0 O4 2.777200 1_555
Ba0 O7 2.777200 1_555
Ba0 O19 2.930049 1_555
Ba0 O16 2.930049 1_555
Ba0 O10 2.969549 1_556
Ba0 O9 2.969549 1_556
Ba0 O3 3.275529 1_555
Ba0 O0 3.275529 1_555
Ba1 O0 2.744378 1_554
Ba1 O3 2.744378 1_444
Ba1 O5 2.777200 1_445
Ba1 O6 2.777200 1_555
Ba1 O17 2.930049 1_545
Ba1 O18 2.930049 1_455
Ba1 O11 2.969549 1_454
Ba1 O8 2.969549 1_544
Ba1 O2 3.275529 1_545
Ba1 O1 3.275529 1_455
Fe0 O6 1.924049 1_555
Fe0 O5 1.924049 1_545
Fe0 O1 2.022036 1_555
Fe0 O2 2.022036 1_545
Fe1 O7 1.924049 1_455
Fe1 O4 1.924049 1_555
Fe1 O0 2.022036 1_555
Fe1 O3 2.022036 1_455
O0 Si0 1.592335 1_555
O1 Si1 1.592335 1_555
O2 Si2 1.592335 1_555
O3 Si3 1.592335 1_555
O4 Si7 1.582045 1_555
O5 Si6 1.582045 1_555
O6 Si5 1.582045 1_555
O7 Si4 1.582045 1_555
O8 Si7 1.631781 1_555
O8 Si0 1.635782 1_565
O9 Si6 1.631781 1_555
O9 Si1 1.635782 1_555
O10 Si5 1.631781 1_555
O10 Si2 1.635782 1_555
O11 Si4 1.631781 1_555
O11 Si3 1.635782 1_545
O12 Si6 1.609683 1_555
O12 Si3 1.610693 1_555
O13 Si7 1.609683 1_555
O13 Si2 1.610693 1_555
O14 Si4 1.609683 1_555
O14 Si1 1.610693 1_555
O15 Si5 1.609683 1_555
O15 Si0 1.610693 1_555
O16 Si3 1.624933 1_555
O16 Si7 1.630043 1_555
O17 Si2 1.624933 1_555
O17 Si6 1.630043 1_455
O18 Si1 1.624933 1_555
O18 Si5 1.630043 1_655
O19 Si0 1.624933 1_555
O19 Si4 1.630043 1_555
