# generated using pymatgen
data_LiMo2(PO4)3
_symmetry_space_group_name_H-M   'P 1'
_cell_length_a   8.85651613
_cell_length_b   8.85651613
_cell_length_c   8.92124773
_cell_angle_alpha   60.30257215
_cell_angle_beta   60.30257215
_cell_angle_gamma   59.82182630
_symmetry_Int_Tables_number   1
_chemical_formula_structural   LiMo2(PO4)3
_chemical_formula_sum   'Li2 Mo4 P6 O24'
_cell_volume   496.37978363
_cell_formula_units_Z   2
loop_
 _symmetry_equiv_pos_site_id
 _symmetry_equiv_pos_as_xyz
  1  'x, y, z'
loop_
 _atom_site_type_symbol
 _atom_site_label
 _atom_site_symmetry_multiplicity
 _atom_site_fract_x
 _atom_site_fract_y
 _atom_site_fract_z
 _atom_site_occupancy
  Li  Li0  1  0.04073600  0.35767900  0.95439200  1
  Li  Li1  1  0.35767900  0.04073600  0.45439200  1
  Mo  Mo0  1  0.36051000  0.85615200  0.92232700  1
  Mo  Mo1  1  0.14509000  0.64550900  0.57346500  1
  Mo  Mo2  1  0.85615200  0.36051000  0.42232700  1
  Mo  Mo3  1  0.64550900  0.14509000  0.07346500  1
  P  P0  1  0.75271200  0.53392500  0.75721800  1
  P  P1  1  0.04254100  0.96222200  0.74162700  1
  P  P2  1  0.46668200  0.24654900  0.74874100  1
  P  P3  1  0.53392500  0.75271200  0.25721800  1
  P  P4  1  0.96222200  0.04254100  0.24162700  1
  P  P5  1  0.24654900  0.46668200  0.24874100  1
  O  O0  1  0.11680700  0.01730400  0.05794400  1
  O  O1  1  0.00375300  0.88547800  0.41028300  1
  O  O2  1  0.21254500  0.50415400  0.41640500  1
  O  O3  1  0.05894000  0.77741300  0.74578900  1
  O  O4  1  0.59145900  0.71899800  0.76017500  1
  O  O5  1  0.01730400  0.11680700  0.55794400  1
  O  O6  1  0.27672300  0.40412500  0.75373100  1
  O  O7  1  0.70474000  0.37979900  0.94006600  1
  O  O8  1  0.44534900  0.07673100  0.76413500  1
  O  O9  1  0.49236200  0.78964600  0.09400000  1
  O  O10  1  0.77741300  0.05894000  0.24578900  1
  O  O11  1  0.07673100  0.44534900  0.26413500  1
  O  O12  1  0.37979900  0.70474000  0.44006600  1
  O  O13  1  0.62400500  0.28923400  0.56925200  1
  O  O14  1  0.92629500  0.54515100  0.75035900  1
  O  O15  1  0.23260500  0.94345800  0.72914500  1
  O  O16  1  0.50415400  0.21254500  0.91640500  1
  O  O17  1  0.28923400  0.62400500  0.06925200  1
  O  O18  1  0.54515100  0.92629500  0.25035900  1
  O  O19  1  0.71899800  0.59145900  0.26017500  1
  O  O20  1  0.40412500  0.27672300  0.25373100  1
  O  O21  1  0.94345800  0.23260500  0.22914500  1
  O  O22  1  0.78964600  0.49236200  0.59400000  1
  O  O23  1  0.88547800  0.00375300  0.91028300  1
loop_
_geom_bond_atom_site_label_1
_geom_bond_atom_site_label_2
_geom_bond_distance
_geom_bond_site_symmetry_2
Li0 O21 2.038173 1_456
Li0 O6 2.041955 1_555
Li0 O14 2.058843 1_455
Li0 O0 2.492029 1_556
Li1 O15 2.038173 1_545
Li1 O20 2.041955 1_555
Li1 O18 2.058843 1_545
Li1 O5 2.492029 1_555
Mo0 O4 2.015744 1_555
Mo0 O8 2.016429 1_565
Mo0 O17 2.039247 1_556
Mo0 O0 2.045923 1_566
Mo0 O9 2.059830 1_556
Mo0 O15 2.141186 1_555
Mo1 O3 2.007841 1_555
Mo1 O12 2.009742 1_555
Mo1 O2 2.011019 1_555
Mo1 O1 2.066003 1_555
Mo1 O14 2.084983 1_455
Mo1 O6 2.112136 1_555
Mo2 O19 2.015744 1_555
Mo2 O11 2.016429 1_655
Mo2 O13 2.039247 1_555
Mo2 O5 2.045923 1_655
Mo2 O22 2.059830 1_555
Mo2 O21 2.141186 1_555
Mo3 O10 2.007841 1_555
Mo3 O7 2.009742 1_554
Mo3 O16 2.011019 1_554
Mo3 O23 2.066003 1_554
Mo3 O18 2.084983 1_545
Mo3 O20 2.112136 1_555
O0 P4 1.562671 1_455
O1 P4 1.514695 1_465
O2 P5 1.543764 1_555
O3 P1 1.551643 1_555
O4 P0 1.542396 1_555
O5 P1 1.562671 1_545
O6 P2 1.551396 1_555
O7 P0 1.547516 1_555
O8 P2 1.540092 1_555
O9 P3 1.516853 1_555
O10 P4 1.551643 1_555
O11 P5 1.540092 1_555
O12 P3 1.547516 1_555
O13 P2 1.538655 1_555
O14 P0 1.559320 1_555
O15 P1 1.557208 1_555
O16 P2 1.543764 1_555
O17 P5 1.538655 1_555
O18 P3 1.559320 1_555
O19 P3 1.542396 1_555
O20 P5 1.551396 1_555
O21 P4 1.557208 1_555
O22 P0 1.516853 1_555
O23 P1 1.514695 1_645
