# generated using pymatgen
data_Fe2BO4
_symmetry_space_group_name_H-M   'P 1'
_cell_length_a   6.21250800
_cell_length_b   9.55724000
_cell_length_c   9.29303600
_cell_angle_alpha   90.00000000
_cell_angle_beta   90.00000000
_cell_angle_gamma   90.00000000
_symmetry_Int_Tables_number   1
_chemical_formula_structural   Fe2BO4
_chemical_formula_sum   'Fe16 B8 O32'
_cell_volume   551.76871508
_cell_formula_units_Z   8
loop_
 _symmetry_equiv_pos_site_id
 _symmetry_equiv_pos_as_xyz
  1  'x, y, z'
loop_
 _atom_site_type_symbol
 _atom_site_label
 _atom_site_symmetry_multiplicity
 _atom_site_fract_x
 _atom_site_fract_y
 _atom_site_fract_z
 _atom_site_occupancy
  Fe  Fe0  1  0.75534900  0.05620200  0.71834000  1
  Fe  Fe1  1  0.75296300  0.68819300  0.71929000  1
  Fe  Fe2  1  0.00000000  0.80991500  0.49228200  1
  Fe  Fe3  1  0.75534900  0.94379800  0.21834000  1
  Fe  Fe4  1  0.24465100  0.05620200  0.71834000  1
  Fe  Fe5  1  0.24703700  0.68819300  0.71929000  1
  Fe  Fe6  1  0.00000000  0.19008500  0.99228200  1
  Fe  Fe7  1  0.75296300  0.31180700  0.21929000  1
  Fe  Fe8  1  0.24703700  0.31180700  0.21929000  1
  Fe  Fe9  1  0.00000000  0.56224400  0.00307500  1
  Fe  Fe10  1  0.50000000  0.44353800  0.50357800  1
  Fe  Fe11  1  0.50000000  0.55646200  0.00357800  1
  Fe  Fe12  1  0.50000000  0.17948900  0.00008300  1
  Fe  Fe13  1  0.24465100  0.94379800  0.21834000  1
  Fe  Fe14  1  0.00000000  0.43775600  0.50307500  1
  Fe  Fe15  1  0.50000000  0.82051100  0.50008300  1
  B  B0  1  0.00000000  0.12456700  0.44882600  1
  B  B1  1  0.50000000  0.87325300  0.94552200  1
  B  B2  1  0.24426100  0.37359900  0.77753600  1
  B  B3  1  0.50000000  0.12674700  0.44552200  1
  B  B4  1  0.75573900  0.62640100  0.27753600  1
  B  B5  1  0.24426100  0.62640100  0.27753600  1
  B  B6  1  0.00000000  0.87543300  0.94882600  1
  B  B7  1  0.75573900  0.37359900  0.77753600  1
  O  O0  1  0.00000000  0.25039300  0.37229900  1
  O  O1  1  0.74994000  0.37721900  0.63009500  1
  O  O2  1  0.22770500  0.12433900  0.11257000  1
  O  O3  1  0.74994000  0.62278100  0.13009500  1
  O  O4  1  0.22770500  0.87566100  0.61257000  1
  O  O5  1  0.24707900  0.50056200  0.35312300  1
  O  O6  1  0.00000000  0.36741300  0.08564700  1
  O  O7  1  0.50000000  0.63008000  0.59755500  1
  O  O8  1  0.76304300  0.24410900  0.84829500  1
  O  O9  1  0.50000000  0.11670400  0.59280200  1
  O  O10  1  0.50000000  0.99611100  0.86325300  1
  O  O11  1  0.77229500  0.12433900  0.11257000  1
  O  O12  1  0.00000000  0.12868700  0.59510100  1
  O  O13  1  0.00000000  0.63258700  0.58564700  1
  O  O14  1  0.00000000  0.00525700  0.87756700  1
  O  O15  1  0.75292100  0.49943800  0.85312300  1
  O  O16  1  0.23695700  0.75589100  0.34829500  1
  O  O17  1  0.25006000  0.37721900  0.63009500  1
  O  O18  1  0.24707900  0.49943800  0.85312300  1
  O  O19  1  0.77229500  0.87566100  0.61257000  1
  O  O20  1  0.50000000  0.25637900  0.37707300  1
  O  O21  1  0.50000000  0.00388900  0.36325300  1
  O  O22  1  0.75292100  0.50056200  0.35312300  1
  O  O23  1  0.76304300  0.75589100  0.34829500  1
  O  O24  1  0.50000000  0.36992000  0.09755500  1
  O  O25  1  0.23695700  0.24410900  0.84829500  1
  O  O26  1  0.25006000  0.62278100  0.13009500  1
  O  O27  1  0.00000000  0.99474300  0.37756700  1
  O  O28  1  0.00000000  0.87131300  0.09510100  1
  O  O29  1  0.50000000  0.74362100  0.87707300  1
  O  O30  1  0.00000000  0.74960700  0.87229900  1
  O  O31  1  0.50000000  0.88329600  0.09280200  1
loop_
_geom_bond_atom_site_label_1
_geom_bond_atom_site_label_2
_geom_bond_distance
_geom_bond_site_symmetry_2
Fe0 O19 1.988588 1_545
Fe0 O12 2.025247 1_655
Fe0 O9 2.052293 1_555
Fe0 O10 2.158682 1_545
Fe0 O8 2.164700 1_555
Fe0 O14 2.176389 1_655
Fe1 O7 2.014448 1_555
Fe1 O13 2.044561 1_655
Fe1 O19 2.051366 1_555
Fe1 O30 2.172953 1_655
Fe1 O15 2.191155 1_555
Fe1 O29 2.213669 1_555
Fe2 O13 1.903954 1_555
Fe2 O4 1.909330 1_555
Fe2 O19 1.909330 1_455
Fe2 O23 2.055263 1_455
Fe2 O16 2.055263 1_555
Fe2 O27 2.063200 1_555
Fe3 O11 1.988588 1_565
Fe3 O28 2.025247 1_655
Fe3 O31 2.052293 1_555
Fe3 O21 2.158682 1_565
Fe3 O23 2.164700 1_555
Fe3 O27 2.176389 1_655
Fe4 O4 1.988588 1_545
Fe4 O12 2.025247 1_555
Fe4 O9 2.052293 1_555
Fe4 O10 2.158682 1_545
Fe4 O25 2.164700 1_555
Fe4 O14 2.176389 1_555
Fe5 O7 2.014448 1_555
Fe5 O13 2.044561 1_555
Fe5 O4 2.051366 1_555
Fe5 O30 2.172953 1_555
Fe5 O18 2.191155 1_555
Fe5 O29 2.213669 1_555
Fe6 O6 1.903954 1_556
Fe6 O2 1.909330 1_556
Fe6 O11 1.909330 1_456
Fe6 O25 2.055263 1_555
Fe6 O8 2.055263 1_455
Fe6 O14 2.063200 1_555
Fe7 O24 2.014448 1_555
Fe7 O6 2.044561 1_655
Fe7 O11 2.051366 1_555
Fe7 O0 2.172953 1_655
Fe7 O22 2.191155 1_555
Fe7 O20 2.213669 1_555
Fe8 O24 2.014448 1_555
Fe8 O6 2.044561 1_555
Fe8 O2 2.051366 1_555
Fe8 O0 2.172953 1_555
Fe8 O5 2.191155 1_555
Fe8 O20 2.213669 1_555
Fe9 O6 2.013960 1_555
Fe9 O3 2.035055 1_455
Fe9 O26 2.035055 1_555
Fe9 O18 2.158318 1_554
Fe9 O15 2.158318 1_454
Fe9 O30 2.164135 1_554
Fe10 O7 1.985240 1_555
Fe10 O17 2.048198 1_555
Fe10 O1 2.048198 1_555
Fe10 O20 2.140468 1_555
Fe10 O22 2.172748 1_555
Fe10 O5 2.172748 1_555
Fe11 O24 1.985240 1_555
Fe11 O3 2.048198 1_555
Fe11 O26 2.048198 1_555
Fe11 O29 2.140468 1_554
Fe11 O15 2.172748 1_554
Fe11 O18 2.172748 1_554
Fe12 O24 2.032947 1_555
Fe12 O11 2.057229 1_555
Fe12 O2 2.057229 1_555
Fe12 O10 2.165281 1_544
Fe12 O25 2.245350 1_554
Fe12 O8 2.245350 1_554
Fe13 O2 1.988588 1_565
Fe13 O28 2.025247 1_555
Fe13 O31 2.052293 1_555
Fe13 O21 2.158682 1_565
Fe13 O16 2.164700 1_555
Fe13 O27 2.176389 1_555
Fe14 O13 2.013960 1_555
Fe14 O1 2.035055 1_455
Fe14 O17 2.035055 1_555
Fe14 O5 2.158318 1_555
Fe14 O22 2.158318 1_455
Fe14 O0 2.164135 1_555
Fe15 O7 2.032947 1_555
Fe15 O19 2.057229 1_555
Fe15 O4 2.057229 1_555
Fe15 O21 2.165281 1_565
Fe15 O23 2.245350 1_555
Fe15 O16 2.245350 1_555
B0 O12 1.359909 1_555
B0 O0 1.397099 1_555
B0 O27 1.406417 1_545
B1 O31 1.372040 1_556
B1 O29 1.392679 1_555
B1 O10 1.401146 1_555
B2 O17 1.371085 1_555
B2 O18 1.392890 1_555
B2 O25 1.402150 1_555
B3 O9 1.372040 1_555
B3 O20 1.392679 1_555
B3 O21 1.401146 1_555
B4 O3 1.371085 1_555
B4 O22 1.392890 1_555
B4 O23 1.402150 1_555
B5 O26 1.371085 1_555
B5 O5 1.392890 1_555
B5 O16 1.402150 1_555
B6 O28 1.359909 1_556
B6 O30 1.397099 1_555
B6 O14 1.406417 1_565
B7 O1 1.371085 1_555
B7 O15 1.392890 1_555
B7 O8 1.402150 1_555
