# generated using pymatgen
data_CaH2CO4
_symmetry_space_group_name_H-M   'P 1'
_cell_length_a   10.64538625
_cell_length_b   10.64538625
_cell_length_c   7.64426000
_cell_angle_alpha   90.00000000
_cell_angle_beta   90.00000000
_cell_angle_gamma   120.00000157
_symmetry_Int_Tables_number   1
_chemical_formula_structural   CaH2CO4
_chemical_formula_sum   'Ca9 H18 C9 O36'
_cell_volume   750.22049182
_cell_formula_units_Z   9
loop_
 _symmetry_equiv_pos_site_id
 _symmetry_equiv_pos_as_xyz
  1  'x, y, z'
loop_
 _atom_site_type_symbol
 _atom_site_label
 _atom_site_symmetry_multiplicity
 _atom_site_fract_x
 _atom_site_fract_y
 _atom_site_fract_z
 _atom_site_occupancy
  Ca  Ca0  1  0.18474000  0.09351200  0.33167600  1
  Ca  Ca1  1  0.51854300  0.75068900  0.35363900  1
  Ca  Ca2  1  0.85221400  0.42686700  0.34004100  1
  Ca  Ca3  1  0.23214600  0.48145700  0.02030500  1
  Ca  Ca4  1  0.24931100  0.76785400  0.68697200  1
  Ca  Ca5  1  0.57313300  0.42534800  0.67337400  1
  Ca  Ca6  1  0.90648800  0.09122800  0.66501000  1
  Ca  Ca7  1  0.57465200  0.14778600  0.00670700  1
  Ca  Ca8  1  0.90877200  0.81526000  0.99834300  1
  H  H0  1  0.33698600  0.21502500  0.92290300  1
  H  H1  1  0.21621700  0.33071700  0.57988800  1
  H  H2  1  0.21286800  0.87978000  0.09046800  1
  H  H3  1  0.33109800  0.11597700  0.76565800  1
  H  H4  1  0.46148400  0.99631000  0.42963300  1
  H  H5  1  0.87803800  0.66301400  0.58956900  1
  H  H6  1  0.12022000  0.33308800  0.42380200  1
  H  H7  1  0.78497500  0.12196200  0.25623600  1
  H  H8  1  0.00369000  0.46517400  0.76296600  1
  H  H9  1  0.78487900  0.66890200  0.43232400  1
  H  H10  1  0.66691200  0.78713200  0.75713500  1
  H  H11  1  0.56059300  0.00191200  0.58645800  1
  H  H12  1  0.11449900  0.78378300  0.24655500  1
  H  H13  1  0.66928300  0.88550100  0.91322100  1
  H  H14  1  0.88402300  0.21512100  0.09899100  1
  H  H15  1  0.99808800  0.55868200  0.91979100  1
  H  H16  1  0.44131800  0.43940700  0.25312500  1
  H  H17  1  0.53482600  0.53851600  0.09629900  1
  C  C0  1  0.76684400  0.25708000  0.71180400  1
  C  C1  1  0.74292000  0.50976400  0.04513700  1
  C  C2  1  0.42827800  0.58461700  0.72575500  1
  C  C3  1  0.08321200  0.90528700  0.63303600  1
  C  C4  1  0.15633900  0.57172200  0.39242200  1
  C  C5  1  0.41538300  0.84366100  0.05908800  1
  C  C6  1  0.49023600  0.23315600  0.37847100  1
  C  C7  1  0.09471300  0.17792500  0.96637000  1
  C  C8  1  0.82207500  0.91678800  0.29970300  1
  O  O0  1  0.05513900  0.05823400  0.88529300  1
  O  O1  1  0.47625500  0.93339400  0.51366200  1
  O  O2  1  0.06660600  0.54286100  0.84699500  1
  O  O3  1  0.54358400  0.64132100  0.62507800  1
  O  O4  1  0.02533800  0.24856800  0.93721000  1
  O  O5  1  0.00309400  0.94486100  0.55195900  1
  O  O6  1  0.20765300  0.23543400  0.06926500  1
  O  O7  1  0.88113100  0.31407300  0.61145800  1
  O  O8  1  0.02778100  0.79234700  0.73593200  1
  O  O9  1  0.13255500  0.86659500  0.17039800  1
  O  O10  1  0.68592700  0.56705800  0.94479200  1
  O  O11  1  0.61194200  0.27703000  0.45661300  1
  O  O12  1  0.73404000  0.86744500  0.83706500  1
  O  O13  1  0.76456600  0.97221900  0.40259800  1
  O  O14  1  0.13340500  0.26596000  0.50373200  1
  O  O15  1  0.94176600  0.99690600  0.21862600  1
  O  O16  1  0.66508800  0.38805800  0.12328000  1
  O  O17  1  0.08579800  0.64062000  0.42023300  1
  O  O18  1  0.55482300  0.91420200  0.08690000  1
  O  O19  1  0.22323000  0.97466200  0.60387700  1
  O  O20  1  0.72297000  0.33491200  0.78994700  1
  O  O21  1  0.09773700  0.45641600  0.29174500  1
  O  O22  1  0.35867900  0.90226300  0.95841200  1
  O  O23  1  0.39978900  0.19675600  0.84260000  1
  O  O24  1  0.43294200  0.11886900  0.27812500  1
  O  O25  1  0.41747800  0.30037400  0.40920000  1
  O  O26  1  0.45713900  0.52374500  0.18032900  1
  O  O27  1  0.79696700  0.60021100  0.50926700  1
  O  O28  1  0.38774000  0.66476100  0.80486400  1
  O  O29  1  0.80324400  0.20303300  0.17593400  1
  O  O30  1  0.88289600  0.58252200  0.07586700  1
  O  O31  1  0.27702100  0.61226000  0.47153100  1
  O  O32  1  0.33523900  0.72297900  0.13819700  1
  O  O33  1  0.75143200  0.77677000  0.27054400  1
  O  O34  1  0.69962600  0.11710400  0.74253300  1
  O  O35  1  0.35938000  0.44517700  0.75356600  1
loop_
_geom_bond_atom_site_label_1
_geom_bond_atom_site_label_2
_geom_bond_distance
_geom_bond_site_symmetry_2
Ca0 O15 2.415503 1_445
Ca0 O25 2.425495 1_555
Ca0 O6 2.448944 1_555
Ca0 O5 2.453336 1_545
Ca0 O9 2.514319 1_545
Ca0 O14 2.530175 1_555
Ca0 O24 2.551170 1_555
Ca0 O19 2.572287 1_545
Ca1 O31 2.409446 1_555
Ca1 O33 2.436931 1_555
Ca1 O32 2.455891 1_555
Ca1 O3 2.458119 1_555
Ca1 O1 2.521403 1_555
Ca1 O13 2.526735 1_555
Ca1 O26 2.537686 1_555
Ca1 O18 2.581550 1_555
Ca2 O11 2.408475 1_555
Ca2 O16 2.462002 1_555
Ca2 O17 2.465470 1_655
Ca2 O7 2.492162 1_555
Ca2 O21 2.498889 1_655
Ca2 O29 2.506200 1_555
Ca2 O30 2.527682 1_555
Ca2 O27 2.551425 1_555
Ca3 O32 2.409446 1_555
Ca3 O4 2.436931 1_554
Ca3 O28 2.455885 1_554
Ca3 O21 2.458126 1_555
Ca3 O26 2.521407 1_555
Ca3 O6 2.526736 1_555
Ca3 O2 2.537686 1_554
Ca3 O35 2.581556 1_554
Ca4 O28 2.409446 1_555
Ca4 O19 2.436931 1_555
Ca4 O31 2.455885 1_555
Ca4 O22 2.458126 1_555
Ca4 O2 2.521403 1_555
Ca4 O8 2.526736 1_555
Ca4 O1 2.537686 1_555
Ca4 O17 2.581552 1_555
Ca5 O20 2.408485 1_555
Ca5 O11 2.462010 1_555
Ca5 O35 2.465459 1_555
Ca5 O10 2.492165 1_555
Ca5 O3 2.498878 1_555
Ca5 O27 2.506197 1_555
Ca5 O25 2.527684 1_555
Ca5 O23 2.551432 1_555
Ca6 O5 2.415497 1_645
Ca6 O34 2.425493 1_555
Ca6 O13 2.448951 1_545
Ca6 O0 2.453331 1_655
Ca6 O14 2.514319 1_655
Ca6 O12 2.530171 1_545
Ca6 O7 2.551171 1_555
Ca6 O4 2.572281 1_655
Ca7 O16 2.408476 1_555
Ca7 O20 2.461999 1_554
Ca7 O18 2.465481 1_545
Ca7 O24 2.492163 1_555
Ca7 O22 2.498883 1_544
Ca7 O23 2.506191 1_554
Ca7 O34 2.527688 1_554
Ca7 O29 2.551438 1_555
Ca8 O0 2.415502 1_665
Ca8 O30 2.425495 1_556
Ca8 O8 2.448944 1_655
Ca8 O15 2.453339 1_556
Ca8 O12 2.514320 1_555
Ca8 O9 2.530171 1_656
Ca8 O10 2.551170 1_555
Ca8 O33 2.572287 1_556
H0 O23 0.995812 1_555
H1 O14 0.991749 1_555
H2 O9 1.001992 1_555
H3 O23 0.995645 1_555
H4 O1 0.995604 1_555
H5 O27 0.995801 1_555
H6 O14 1.001992 1_555
H7 O29 0.995799 1_555
H8 O2 0.995604 1_555
H9 O27 0.995650 1_555
H10 O12 1.001992 1_555
H11 O1 0.996437 1_545
H12 O9 0.991751 1_555
H13 O12 0.991755 1_555
H14 O29 0.995650 1_555
H15 O2 0.996442 1_655
H16 O26 0.996434 1_555
H17 O26 0.995609 1_555
C0 O20 1.283916 1_555
C0 O7 1.303281 1_555
C0 O34 1.312000 1_555
C1 O16 1.283916 1_555
C1 O10 1.303276 1_554
C1 O30 1.312001 1_555
C2 O28 1.283742 1_555
C2 O35 1.303012 1_555
C2 O3 1.312407 1_555
C3 O5 1.283868 1_555
C3 O8 1.304964 1_555
C3 O19 1.309971 1_555
C4 O31 1.283742 1_555
C4 O17 1.303002 1_555
C4 O21 1.312407 1_555
C5 O32 1.283741 1_555
C5 O18 1.303013 1_555
C5 O22 1.312403 1_554
C6 O11 1.283912 1_555
C6 O24 1.303281 1_555
C6 O25 1.312000 1_555
C7 O0 1.283859 1_555
C7 O6 1.304959 1_556
C7 O4 1.309972 1_555
C8 O15 1.283861 1_555
C8 O13 1.304959 1_555
C8 O33 1.309971 1_555
