# generated using pymatgen
data_Mg5Al34O56
_symmetry_space_group_name_H-M   'P 1'
_cell_length_a   5.70308256
_cell_length_b   5.70308256
_cell_length_c   32.82196810
_cell_angle_alpha   85.43960077
_cell_angle_beta   85.43960077
_cell_angle_gamma   60.51061662
_symmetry_Int_Tables_number   1
_chemical_formula_structural   Mg5Al34O56
_chemical_formula_sum   'Mg5 Al34 O56'
_cell_volume   925.29143731
_cell_formula_units_Z   1
loop_
 _symmetry_equiv_pos_site_id
 _symmetry_equiv_pos_as_xyz
  1  'x, y, z'
loop_
 _atom_site_type_symbol
 _atom_site_label
 _atom_site_symmetry_multiplicity
 _atom_site_fract_x
 _atom_site_fract_y
 _atom_site_fract_z
 _atom_site_occupancy
  Mg  Mg0  1  0.51457700  0.51457700  0.43766000  1
  Mg  Mg1  1  0.80265000  0.80265000  0.58579100  1
  Mg  Mg2  1  0.08771700  0.08771700  0.73260900  1
  Mg  Mg3  1  0.37400000  0.37400000  0.88019700  1
  Mg  Mg4  1  0.48488100  0.48488100  0.54635700  1
  Al  Al0  1  0.66375200  0.66375200  0.02816000  1
  Al  Al1  1  0.14595700  0.63915300  0.07677000  1
  Al  Al2  1  0.01832700  0.01832700  0.01035300  1
  Al  Al3  1  0.93429800  0.93429800  0.16009800  1
  Al  Al4  1  0.63915300  0.14595700  0.07677000  1
  Al  Al5  1  0.43001400  0.92637100  0.21321000  1
  Al  Al6  1  0.27666800  0.27666800  0.14416000  1
  Al  Al7  1  0.22010800  0.22010800  0.29825200  1
  Al  Al8  1  0.92637100  0.43001400  0.21321000  1
  Al  Al9  1  0.70728800  0.21536200  0.35198700  1
  Al  Al10  1  0.57176400  0.57176400  0.28321000  1
  Al  Al11  1  0.63737300  0.63737300  0.12827700  1
  Al  Al12  1  0.99809800  0.99809800  0.49599700  1
  Al  Al13  1  0.21536200  0.70728800  0.35198700  1
  Al  Al14  1  0.99867600  0.50366700  0.49569200  1
  Al  Al15  1  0.85009100  0.85009100  0.42278700  1
  Al  Al16  1  0.91841700  0.91841700  0.26792600  1
  Al  Al17  1  0.28257700  0.28257700  0.64126500  1
  Al  Al18  1  0.50366700  0.99867600  0.49569200  1
  Al  Al19  1  0.28208100  0.79265400  0.64119700  1
  Al  Al20  1  0.14390200  0.14390200  0.56744300  1
  Al  Al21  1  0.19990800  0.19990800  0.40545700  1
  Al  Al22  1  0.56785600  0.56785600  0.78782900  1
  Al  Al23  1  0.79265400  0.28208100  0.64119700  1
  Al  Al24  1  0.42792800  0.42792800  0.71615900  1
  Al  Al25  1  0.56746000  0.07793200  0.78774600  1
  Al  Al26  1  0.85593700  0.85593700  0.93331100  1
  Al  Al27  1  0.07793200  0.56746000  0.78774600  1
  Al  Al28  1  0.85426900  0.36469700  0.93316600  1
  Al  Al29  1  0.71405000  0.71405000  0.86210900  1
  Al  Al30  1  0.76831800  0.76831800  0.69741400  1
  Al  Al31  1  0.36469700  0.85426900  0.93316600  1
  Al  Al32  1  0.05451100  0.05451100  0.84247200  1
  Al  Al33  1  0.34930200  0.34930200  0.98729000  1
  O  O0  1  0.31801000  0.80815700  0.03337400  1
  O  O1  1  0.95580500  0.95580500  0.10330700  1
  O  O2  1  0.80815700  0.31801000  0.03337400  1
  O  O3  1  0.84104300  0.84104300  0.03381100  1
  O  O4  1  0.58399900  0.09252600  0.17482600  1
  O  O5  1  0.46368800  0.46368800  0.10549000  1
  O  O6  1  0.23807800  0.23807800  0.24377200  1
  O  O7  1  0.47392300  0.97628400  0.10533500  1
  O  O8  1  0.09252600  0.58399900  0.17482600  1
  O  O9  1  0.33619900  0.33619900  0.03904300  1
  O  O10  1  0.97628400  0.47392300  0.10533500  1
  O  O11  1  0.10794600  0.10794600  0.17696000  1
  O  O12  1  0.87415700  0.37653600  0.31717000  1
  O  O13  1  0.74638500  0.74638500  0.24798700  1
  O  O14  1  0.76196400  0.26779100  0.24972200  1
  O  O15  1  0.52288400  0.52288400  0.38068100  1
  O  O16  1  0.37653600  0.87415700  0.31717000  1
  O  O17  1  0.61497700  0.61497700  0.18170200  1
  O  O18  1  0.26779100  0.76196400  0.24972200  1
  O  O19  1  0.39005000  0.39005000  0.31817800  1
  O  O20  1  0.14999900  0.69124100  0.46686000  1
  O  O21  1  0.02540700  0.02540700  0.39229400  1
  O  O22  1  0.82111300  0.82111300  0.52863000  1
  O  O23  1  0.69124100  0.14999900  0.46686000  1
  O  O24  1  0.04808800  0.54852200  0.39499900  1
  O  O25  1  0.89862300  0.89862300  0.32336800  1
  O  O26  1  0.54852200  0.04808800  0.39499900  1
  O  O27  1  0.68949600  0.68949600  0.46547800  1
  O  O28  1  0.43137400  0.97848800  0.61030700  1
  O  O29  1  0.30165000  0.30165000  0.53364400  1
  O  O30  1  0.10884400  0.10884400  0.67361900  1
  O  O31  1  0.97848800  0.43137400  0.61030700  1
  O  O32  1  0.17579400  0.17579400  0.46630700  1
  O  O33  1  0.30127200  0.86144200  0.53363900  1
  O  O34  1  0.86144200  0.30127200  0.53363900  1
  O  O35  1  0.97765100  0.97765100  0.61024400  1
  O  O36  1  0.71302800  0.26687000  0.75429000  1
  O  O37  1  0.59668600  0.59668600  0.68052800  1
  O  O38  1  0.59687500  0.12645700  0.68042100  1
  O  O39  1  0.46111000  0.46111000  0.61577900  1
  O  O40  1  0.39435600  0.39435600  0.81879100  1
  O  O41  1  0.26687000  0.71302800  0.75429000  1
  O  O42  1  0.12645700  0.59687500  0.68042100  1
  O  O43  1  0.26599200  0.26599200  0.75413000  1
  O  O44  1  0.99662700  0.55528800  0.89704900  1
  O  O45  1  0.88250800  0.88250800  0.82230400  1
  O  O46  1  0.68327700  0.68327700  0.96330700  1
  O  O47  1  0.88214300  0.41620100  0.82215300  1
  O  O48  1  0.55528800  0.99662700  0.89704900  1
  O  O49  1  0.74872100  0.74872100  0.75555900  1
  O  O50  1  0.55598300  0.55598300  0.89675200  1
  O  O51  1  0.41620100  0.88214300  0.82215300  1
  O  O52  1  0.17362200  0.17362200  0.96380100  1
  O  O53  1  0.17770900  0.69276300  0.96081200  1
  O  O54  1  0.03763400  0.03763400  0.89768200  1
  O  O55  1  0.69276300  0.17770900  0.96081200  1
loop_
_geom_bond_atom_site_label_1
_geom_bond_atom_site_label_2
_geom_bond_distance
_geom_bond_site_symmetry_2
Mg0 O15 1.864411 1_555
Mg0 O23 2.007738 1_555
Mg0 O20 2.007738 1_555
Mg0 O27 2.023217 1_555
Mg1 O22 1.868194 1_555
Mg1 O35 1.967685 1_555
Mg1 O31 1.975712 1_555
Mg1 O28 1.975712 1_555
Mg2 O30 1.928180 1_555
Mg2 O43 1.952562 1_555
Mg2 O41 1.959814 1_545
Mg2 O36 1.959814 1_455
Mg3 O50 1.920786 1_555
Mg3 O48 1.928142 1_545
Mg3 O44 1.928142 1_455
Mg3 O40 2.006966 1_555
Mg4 O29 1.889933 1_555
Mg4 O33 1.896238 1_555
Mg4 O34 1.896238 1_555
Mg4 O39 2.269025 1_555
Al0 O0 1.722065 1_555
Al0 O2 1.722065 1_555
Al0 O3 1.773479 1_555
Al0 O46 2.119569 1_554
Al1 O10 1.821077 1_455
Al1 O1 1.835142 1_455
Al1 O5 1.873463 1_555
Al1 O9 1.994162 1_555
Al1 O0 2.100268 1_555
Al1 O3 2.120910 1_455
Al2 O0 1.724283 1_545
Al2 O2 1.724283 1_455
Al2 O3 1.842868 1_445
Al2 O52 2.060395 1_554
Al2 O55 2.345441 1_454
Al2 O53 2.345441 1_544
Al3 O8 1.783267 1_655
Al3 O4 1.783267 1_565
Al3 O11 1.845993 1_665
Al3 O1 1.856517 1_555
Al4 O7 1.821077 1_545
Al4 O1 1.835142 1_545
Al4 O5 1.873463 1_555
Al4 O9 1.994162 1_555
Al4 O2 2.100268 1_555
Al4 O3 2.120910 1_545
Al5 O6 1.886207 1_565
Al5 O17 1.900074 1_555
Al5 O18 1.915799 1_555
Al5 O4 1.926100 1_565
Al5 O13 1.982374 1_555
Al5 O11 2.034869 1_565
Al6 O4 1.867694 1_555
Al6 O8 1.867694 1_555
Al6 O11 1.895491 1_555
Al6 O7 2.011466 1_545
Al6 O10 2.011466 1_455
Al6 O5 2.139072 1_555
Al7 O6 1.780593 1_555
Al7 O12 1.798466 1_455
Al7 O16 1.798466 1_545
Al7 O19 1.852780 1_555
Al8 O6 1.886207 1_655
Al8 O17 1.900074 1_555
Al8 O14 1.915799 1_555
Al8 O8 1.926100 1_655
Al8 O13 1.982374 1_555
Al8 O11 2.034869 1_655
Al9 O15 1.832523 1_555
Al9 O25 1.871444 1_545
Al9 O12 1.891490 1_555
Al9 O19 1.966248 1_555
Al9 O26 2.038606 1_555
Al9 O21 2.105729 1_655
Al10 O14 1.911048 1_555
Al10 O18 1.911048 1_555
Al10 O12 1.916801 1_555
Al10 O16 1.916801 1_555
Al10 O13 1.982510 1_555
Al10 O19 2.035754 1_555
Al11 O17 1.747074 1_555
Al11 O7 1.810563 1_555
Al11 O10 1.810563 1_555
Al11 O5 1.929590 1_555
Al12 O23 1.835609 1_565
Al12 O20 1.835609 1_655
Al12 O32 1.923713 1_665
Al12 O22 1.960621 1_555
Al12 O33 1.995809 1_655
Al12 O34 1.995809 1_565
Al13 O15 1.832523 1_555
Al13 O25 1.871444 1_455
Al13 O16 1.891490 1_555
Al13 O19 1.966248 1_555
Al13 O24 2.038606 1_555
Al13 O21 2.105729 1_565
Al14 O20 1.844652 1_655
Al14 O27 1.867323 1_555
Al14 O32 1.928552 1_655
Al14 O22 1.950394 1_555
Al14 O34 2.000489 1_555
Al14 O29 2.004685 1_655
Al15 O24 1.799595 1_655
Al15 O26 1.799595 1_565
Al15 O21 1.914942 1_665
Al15 O27 2.014641 1_555
Al15 O20 2.120908 1_655
Al15 O23 2.120908 1_565
Al16 O14 1.807859 1_565
Al16 O18 1.807859 1_655
Al16 O25 1.812199 1_555
Al16 O13 1.872256 1_555
Al17 O28 1.858598 1_545
Al17 O31 1.858598 1_455
Al17 O39 1.876948 1_555
Al17 O30 1.929505 1_555
Al17 O38 2.066514 1_555
Al17 O42 2.066514 1_555
Al18 O23 1.844652 1_565
Al18 O27 1.867323 1_555
Al18 O32 1.928552 1_565
Al18 O22 1.950394 1_555
Al18 O33 2.000489 1_555
Al18 O29 2.004685 1_565
Al19 O28 1.859129 1_555
Al19 O35 1.861783 1_455
Al19 O39 1.878403 1_555
Al19 O30 1.934998 1_565
Al19 O42 2.063291 1_555
Al19 O37 2.073510 1_555
Al20 O29 1.824508 1_555
Al20 O33 1.825915 1_545
Al20 O34 1.825915 1_455
Al20 O31 2.046993 1_455
Al20 O28 2.046993 1_545
Al20 O35 2.057400 1_445
Al21 O24 1.750507 1_555
Al21 O26 1.750507 1_555
Al21 O21 1.810885 1_555
Al21 O32 1.989464 1_555
Al22 O41 1.897411 1_555
Al22 O36 1.897411 1_555
Al22 O40 1.906572 1_555
Al22 O47 1.967194 1_555
Al22 O51 1.967194 1_555
Al22 O49 1.987411 1_555
Al23 O31 1.859129 1_555
Al23 O35 1.861783 1_545
Al23 O39 1.878403 1_555
Al23 O30 1.934998 1_655
Al23 O38 2.063291 1_555
Al23 O37 2.073510 1_555
Al24 O41 1.929809 1_555
Al24 O36 1.929809 1_555
Al24 O43 1.932022 1_555
Al24 O42 1.941737 1_555
Al24 O38 1.941737 1_555
Al24 O37 1.942744 1_555
Al25 O36 1.898333 1_555
Al25 O43 1.903072 1_555
Al25 O40 1.909952 1_555
Al25 O51 1.964476 1_545
Al25 O45 1.977000 1_545
Al25 O49 1.985114 1_545
Al26 O55 1.869988 1_565
Al26 O53 1.869988 1_655
Al26 O46 1.885426 1_555
Al26 O48 1.954092 1_555
Al26 O44 1.954092 1_555
Al26 O54 2.046180 1_665
Al27 O41 1.898333 1_555
Al27 O43 1.903072 1_555
Al27 O40 1.909952 1_555
Al27 O47 1.964476 1_455
Al27 O45 1.977000 1_455
Al27 O49 1.985114 1_455
Al28 O55 1.867954 1_555
Al28 O46 1.902311 1_555
Al28 O52 1.917975 1_655
Al28 O44 1.938233 1_555
Al28 O50 1.949705 1_555
Al28 O54 2.039754 1_655
Al29 O50 1.841807 1_555
Al29 O44 1.850480 1_555
Al29 O48 1.850480 1_555
Al29 O45 2.015543 1_555
Al29 O51 2.018766 1_555
Al29 O47 2.018766 1_555
Al30 O37 1.827352 1_555
Al30 O42 1.838011 1_655
Al30 O38 1.838011 1_565
Al30 O49 1.900411 1_555
Al31 O53 1.867954 1_555
Al31 O46 1.902311 1_555
Al31 O52 1.917975 1_565
Al31 O48 1.938233 1_555
Al31 O50 1.949705 1_555
Al31 O54 2.039754 1_565
Al32 O54 1.804408 1_555
Al32 O45 1.875255 1_445
Al32 O51 1.885518 1_545
Al32 O47 1.885518 1_455
Al33 O9 1.691644 1_556
Al33 O55 1.878059 1_555
Al33 O53 1.878059 1_555
Al33 O52 1.958576 1_555
