# generated using pymatgen
data_P2W2O11
_symmetry_space_group_name_H-M   'P 1'
_cell_length_a   12.74268700
_cell_length_b   7.99838800
_cell_length_c   8.01021395
_cell_angle_alpha   87.61411016
_cell_angle_beta   90.00000000
_cell_angle_gamma   90.00000000
_symmetry_Int_Tables_number   1
_chemical_formula_structural   P2W2O11
_chemical_formula_sum   'P8 W8 O44'
_cell_volume   815.70091983
_cell_formula_units_Z   4
loop_
 _symmetry_equiv_pos_site_id
 _symmetry_equiv_pos_as_xyz
  1  'x, y, z'
loop_
 _atom_site_type_symbol
 _atom_site_label
 _atom_site_symmetry_multiplicity
 _atom_site_fract_x
 _atom_site_fract_y
 _atom_site_fract_z
 _atom_site_occupancy
  P  P0  1  0.75000000  0.74779500  0.10615500  1
  P  P1  1  0.00413400  0.74977600  0.61566400  1
  P  P2  1  0.49586600  0.74977600  0.61566400  1
  P  P3  1  0.25000000  0.92775500  0.34424300  1
  P  P4  1  0.99586600  0.25022400  0.38433600  1
  P  P5  1  0.50413400  0.25022400  0.38433600  1
  P  P6  1  0.25000000  0.25220500  0.89384500  1
  P  P7  1  0.75000000  0.07224500  0.65575700  1
  W  W0  1  0.99793200  0.14927600  0.80763200  1
  W  W1  1  0.00206800  0.85072400  0.19236800  1
  W  W2  1  0.25000000  0.63754000  0.69022900  1
  W  W3  1  0.75000000  0.63869700  0.69407800  1
  W  W4  1  0.25000000  0.36130300  0.30592200  1
  W  W5  1  0.50206800  0.14927600  0.80763200  1
  W  W6  1  0.49793200  0.85072400  0.19236800  1
  W  W7  1  0.75000000  0.36246000  0.30977100  1
  O  O0  1  0.50566500  0.74373500  0.42147400  1
  O  O1  1  0.25000000  0.10390000  0.40800600  1
  O  O2  1  0.25000000  0.44317400  0.51571400  1
  O  O3  1  0.50000000  0.00000000  0.00000000  1
  O  O4  1  0.34686700  0.16904300  0.81581300  1
  O  O5  1  0.99433500  0.74373500  0.42147400  1
  O  O6  1  0.09654600  0.62906900  0.66472000  1
  O  O7  1  0.09516200  0.33110600  0.30569800  1
  O  O8  1  0.00000000  0.00000000  0.00000000  1
  O  O9  1  0.47513500  0.92381800  0.67154300  1
  O  O10  1  0.90483800  0.66889400  0.69430200  1
  O  O11  1  0.25000000  0.78798200  0.83947200  1
  O  O12  1  0.75000000  0.20370500  0.50830000  1
  O  O13  1  0.90345400  0.37093100  0.33528000  1
  O  O14  1  0.47467800  0.66933000  0.08865100  1
  O  O15  1  0.25000000  0.22655000  0.08306900  1
  O  O16  1  0.97467800  0.33067000  0.91134900  1
  O  O17  1  0.75000000  0.55682600  0.48428600  1
  O  O18  1  0.34797100  0.89705700  0.23441300  1
  O  O19  1  0.75000000  0.89610000  0.59199400  1
  O  O20  1  0.75000000  0.55658900  0.15249300  1
  O  O21  1  0.75000000  0.77345000  0.91693100  1
  O  O22  1  0.52486500  0.07618200  0.32845700  1
  O  O23  1  0.49433500  0.25626500  0.57852600  1
  O  O24  1  0.40345400  0.62906900  0.66472000  1
  O  O25  1  0.25000000  0.44341100  0.84750700  1
  O  O26  1  0.75000000  0.21201800  0.16052800  1
  O  O27  1  0.02532200  0.66933000  0.08865100  1
  O  O28  1  0.15313300  0.16904300  0.81581300  1
  O  O29  1  0.25000000  0.79629500  0.49170000  1
  O  O30  1  0.65202900  0.10294300  0.76558700  1
  O  O31  1  0.59654600  0.37093100  0.33528000  1
  O  O32  1  0.25000000  0.54746800  0.18756100  1
  O  O33  1  0.84797100  0.10294300  0.76558700  1
  O  O34  1  0.40483800  0.33110600  0.30569800  1
  O  O35  1  0.84686700  0.83095700  0.18418700  1
  O  O36  1  0.65313300  0.83095700  0.18418700  1
  O  O37  1  0.00566500  0.25626500  0.57852600  1
  O  O38  1  0.59516200  0.66889400  0.69430200  1
  O  O39  1  0.02486500  0.92381800  0.67154300  1
  O  O40  1  0.15202900  0.89705700  0.23441300  1
  O  O41  1  0.97513500  0.07618200  0.32845700  1
  O  O42  1  0.52532200  0.33067000  0.91134900  1
  O  O43  1  0.75000000  0.45253200  0.81243900  1
loop_
_geom_bond_atom_site_label_1
_geom_bond_atom_site_label_2
_geom_bond_distance
_geom_bond_site_symmetry_2
O0 P2 1.563258 1_555
O0 W6 1.994784 1_555
O1 P3 1.518458 1_545
O1 W4 2.183388 1_555
O2 W4 1.828781 1_555
O2 W2 2.133518 1_555
O3 W6 1.909836 1_545
O3 W5 1.909836 1_554
O4 P6 1.546401 1_555
O4 W5 1.985287 1_555
O5 P1 1.563258 1_655
O5 W1 1.994784 1_655
O6 P1 1.562570 1_555
O6 W2 1.967523 1_555
O7 P4 1.543485 1_455
O7 W4 1.987790 1_555
O8 W1 1.909836 1_545
O8 W0 1.909836 1_454
O9 P2 1.503273 1_555
O9 W5 2.172940 1_565
O10 P1 1.543485 1_655
O10 W3 1.987790 1_555
O11 W2 1.731135 1_555
O12 P7 1.548330 1_555
O12 W7 1.993277 1_555
O13 P4 1.562570 1_555
O13 W7 1.967523 1_555
O14 W6 1.727246 1_555
O15 P6 1.521063 1_554
O15 W4 2.123309 1_555
O16 W0 1.727246 1_555
O17 W3 1.828781 1_555
O17 W7 2.133518 1_555
O18 P3 1.552672 1_555
O18 W6 1.978059 1_555
O19 P7 1.518458 1_565
O19 W3 2.183388 1_555
O20 P0 1.558650 1_555
O20 W7 1.958377 1_555
O21 P0 1.521063 1_556
O21 W3 2.123309 1_555
O22 P5 1.503273 1_555
O22 W6 2.172940 1_545
O23 P5 1.563258 1_555
O23 W5 1.994784 1_555
O24 P2 1.562570 1_555
O24 W2 1.967523 1_555
O25 P6 1.558650 1_555
O25 W2 1.958377 1_555
O26 W7 1.731135 1_555
O27 W1 1.727246 1_555
O28 P6 1.546401 1_555
O28 W0 1.985287 1_455
O29 P3 1.548330 1_555
O29 W2 1.993277 1_555
O30 P7 1.552672 1_555
O30 W5 1.978059 1_555
O31 P5 1.562570 1_555
O31 W7 1.967523 1_555
O32 W4 1.731626 1_555
O33 P7 1.552672 1_555
O33 W0 1.978059 1_555
O34 P5 1.543485 1_555
O34 W4 1.987790 1_555
O35 P0 1.546401 1_555
O35 W1 1.985287 1_655
O36 P0 1.546401 1_555
O36 W6 1.985287 1_555
O37 P4 1.563258 1_455
O37 W0 1.994784 1_455
O38 P2 1.543485 1_555
O38 W3 1.987790 1_555
O39 P1 1.503273 1_555
O39 W0 2.172940 1_465
O40 P3 1.552672 1_555
O40 W1 1.978059 1_555
O41 P4 1.503273 1_555
O41 W1 2.172940 1_645
O42 W5 1.727246 1_555
O43 W3 1.731626 1_555
