# generated using pymatgen
data_LiAsH6(OF2)3
_symmetry_space_group_name_H-M   'P 1'
_cell_length_a   8.54261559
_cell_length_b   8.54261559
_cell_length_c   5.59262400
_cell_angle_alpha   90.00000000
_cell_angle_beta   90.00000000
_cell_angle_gamma   119.99999684
_symmetry_Int_Tables_number   1
_chemical_formula_structural   LiAsH6(OF2)3
_chemical_formula_sum   'Li2 As2 H12 O6 F12'
_cell_volume   353.45000791
_cell_formula_units_Z   2
loop_
 _symmetry_equiv_pos_site_id
 _symmetry_equiv_pos_as_xyz
  1  'x, y, z'
loop_
 _atom_site_type_symbol
 _atom_site_label
 _atom_site_symmetry_multiplicity
 _atom_site_fract_x
 _atom_site_fract_y
 _atom_site_fract_z
 _atom_site_occupancy
  Li  Li0  1  0.00000000  0.00000000  0.80336400  1
  Li  Li1  1  0.00000000  0.00000000  0.30336400  1
  As  As0  1  0.33333300  0.66666700  0.42943400  1
  As  As1  1  0.66666700  0.33333300  0.92943400  1
  H  H0  1  0.94056500  0.24089200  0.55859300  1
  H  H1  1  0.30032700  0.24089200  0.55859300  1
  H  H2  1  0.30032700  0.05943500  0.55859300  1
  H  H3  1  0.05943500  0.75910800  0.05859300  1
  H  H4  1  0.75910800  0.69967300  0.55859300  1
  H  H5  1  0.69967300  0.75910800  0.05859300  1
  H  H6  1  0.75910800  0.05943500  0.55859300  1
  H  H7  1  0.24089200  0.94056500  0.05859300  1
  H  H8  1  0.24089200  0.30032700  0.05859300  1
  H  H9  1  0.69967300  0.94056500  0.05859300  1
  H  H10  1  0.05943500  0.30032700  0.05859300  1
  H  H11  1  0.94056500  0.69967300  0.55859300  1
  O  O0  1  0.77982400  0.88991200  0.05286300  1
  O  O1  1  0.11008800  0.22017600  0.05286300  1
  O  O2  1  0.22017600  0.11008800  0.55286300  1
  O  O3  1  0.88991200  0.77982400  0.55286300  1
  O  O4  1  0.88991200  0.11008800  0.55286300  1
  O  O5  1  0.11008800  0.88991200  0.05286300  1
  F  F0  1  0.43145800  0.56854200  0.24530200  1
  F  F1  1  0.76508900  0.53017700  0.11065000  1
  F  F2  1  0.56854200  0.13708400  0.74530200  1
  F  F3  1  0.56854200  0.43145800  0.74530200  1
  F  F4  1  0.23491100  0.76508900  0.61065000  1
  F  F5  1  0.46982300  0.23491100  0.11065000  1
  F  F6  1  0.76508900  0.23491100  0.11065000  1
  F  F7  1  0.53017700  0.76508900  0.61065000  1
  F  F8  1  0.43145800  0.86291600  0.24530200  1
  F  F9  1  0.86291600  0.43145800  0.74530200  1
  F  F10  1  0.13708400  0.56854200  0.24530200  1
  F  F11  1  0.23491100  0.46982300  0.61065000  1
loop_
_geom_bond_atom_site_label_1
_geom_bond_atom_site_label_2
_geom_bond_distance
_geom_bond_site_symmetry_2
Li0 O5 2.144829 1_546
Li0 O1 2.144829 1_556
Li0 O0 2.144829 1_446
Li0 O4 2.148479 1_455
Li0 O2 2.148479 1_555
Li0 O3 2.148479 1_445
Li1 O4 2.144829 1_455
Li1 O2 2.144829 1_555
Li1 O3 2.144829 1_445
Li1 O5 2.148479 1_545
Li1 O0 2.148479 1_445
Li1 O1 2.148479 1_555
As0 F4 1.774223 1_555
As0 F7 1.774223 1_555
As0 F11 1.774223 1_555
As0 F10 1.779996 1_555
As0 F8 1.779996 1_555
As0 F0 1.780002 1_555
As1 F6 1.774223 1_556
As1 F1 1.774223 1_556
As1 F5 1.774223 1_556
As1 F2 1.779996 1_555
As1 F9 1.779996 1_555
As1 F3 1.780002 1_555
H0 O4 0.976398 1_555
H1 O2 0.976398 1_555
H2 O2 0.976398 1_555
H3 O5 0.976398 1_555
H4 O3 0.976398 1_555
H5 O0 0.976398 1_555
H6 O4 0.976398 1_555
H7 O5 0.976398 1_555
H8 O1 0.976398 1_555
H9 O0 0.976398 1_555
H10 O1 0.976398 1_555
H11 O3 0.976398 1_555
