# generated using pymatgen
data_NiF2
_symmetry_space_group_name_H-M   'P 1'
_cell_length_a   3.07954060
_cell_length_b   4.63287015
_cell_length_c   4.63287015
_cell_angle_alpha   89.99980138
_cell_angle_beta   90.00000000
_cell_angle_gamma   90.00000000
_symmetry_Int_Tables_number   1
_chemical_formula_structural   NiF2
_chemical_formula_sum   'Ni2 F4'
_cell_volume   66.09767602
_cell_formula_units_Z   2
loop_
 _symmetry_equiv_pos_site_id
 _symmetry_equiv_pos_as_xyz
  1  'x, y, z'
loop_
 _atom_site_type_symbol
 _atom_site_label
 _atom_site_symmetry_multiplicity
 _atom_site_fract_x
 _atom_site_fract_y
 _atom_site_fract_z
 _atom_site_occupancy
  Ni  Ni0  1  0.50000000  0.50000000  0.50000000  1
  Ni  Ni1  1  -0.00000000  -0.00000000  -0.00000000  1
  F  F0  1  0.00000000  0.69631822  0.69631822  1
  F  F1  1  0.50000000  0.80368178  0.19631822  1
  F  F2  1  0.00000000  0.30368178  0.30368178  1
  F  F3  1  0.50000000  0.19631822  0.80368178  1
loop_
_geom_bond_atom_site_label_1
_geom_bond_atom_site_label_2
_geom_bond_distance
_geom_bond_site_symmetry_2
F0 Ni1 1.989686 1_566
F0 Ni0 2.006325 1_555
F0 Ni0 2.006325 1_455
F1 Ni0 1.989679 1_555
F1 Ni1 2.006322 1_665
F1 Ni1 2.006322 1_565
F2 Ni1 1.989686 1_555
F2 Ni0 2.006325 1_555
F2 Ni0 2.006325 1_455
F3 Ni0 1.989679 1_555
F3 Ni1 2.006322 1_656
F3 Ni1 2.006322 1_556
