# generated using pymatgen
data_NiGe3O8
_symmetry_space_group_name_H-M   'P 1'
_cell_length_a   8.12041800
_cell_length_b   8.12041800
_cell_length_c   8.12041800
_cell_angle_alpha   90.00000000
_cell_angle_beta   90.00000000
_cell_angle_gamma   90.00000000
_symmetry_Int_Tables_number   1
_chemical_formula_structural   NiGe3O8
_chemical_formula_sum   'Ni4 Ge12 O32'
_cell_volume   535.47001399
_cell_formula_units_Z   4
loop_
 _symmetry_equiv_pos_site_id
 _symmetry_equiv_pos_as_xyz
  1  'x, y, z'
loop_
 _atom_site_type_symbol
 _atom_site_label
 _atom_site_symmetry_multiplicity
 _atom_site_fract_x
 _atom_site_fract_y
 _atom_site_fract_z
 _atom_site_occupancy
  Ni  Ni0  1  0.12500000  0.87500000  0.37500000  1
  Ni  Ni1  1  0.37500000  0.12500000  0.87500000  1
  Ni  Ni2  1  0.62500000  0.62500000  0.62500000  1
  Ni  Ni3  1  0.87500000  0.37500000  0.12500000  1
  Ge  Ge0  1  0.12799800  0.12200200  0.62500000  1
  Ge  Ge1  1  0.12500000  0.37200200  0.87799800  1
  Ge  Ge2  1  0.12200200  0.62500000  0.12799800  1
  Ge  Ge3  1  0.37799800  0.37500000  0.62799800  1
  Ge  Ge4  1  0.37500000  0.62799800  0.37799800  1
  Ge  Ge5  1  0.37200200  0.87799800  0.12500000  1
  Ge  Ge6  1  0.62799800  0.37799800  0.37500000  1
  Ge  Ge7  1  0.62500000  0.12799800  0.12200200  1
  Ge  Ge8  1  0.62200200  0.87500000  0.87200200  1
  Ge  Ge9  1  0.87799800  0.12500000  0.37200200  1
  Ge  Ge10  1  0.87500000  0.87200200  0.62200200  1
  Ge  Ge11  1  0.87200200  0.62200200  0.87500000  1
  O  O0  1  0.11548000  0.10795100  0.38707900  1
  O  O1  1  0.11292100  0.88452000  0.60795100  1
  O  O2  1  0.11145100  0.61145100  0.88854900  1
  O  O3  1  0.14204900  0.13452000  0.86292100  1
  O  O4  1  0.10795100  0.38707900  0.11548000  1
  O  O5  1  0.13854900  0.36145100  0.63854900  1
  O  O6  1  0.13707900  0.64204900  0.36548000  1
  O  O7  1  0.13452000  0.86292100  0.14204900  1
  O  O8  1  0.36548000  0.13707900  0.64204900  1
  O  O9  1  0.36292100  0.35795100  0.86548000  1
  O  O10  1  0.36145100  0.63854900  0.13854900  1
  O  O11  1  0.39204900  0.61292100  0.61548000  1
  O  O12  1  0.35795100  0.86548000  0.36292100  1
  O  O13  1  0.38854900  0.38854900  0.38854900  1
  O  O14  1  0.38707900  0.11548000  0.10795100  1
  O  O15  1  0.38452000  0.89204900  0.88707900  1
  O  O16  1  0.61548000  0.39204900  0.61292100  1
  O  O17  1  0.61292100  0.61548000  0.39204900  1
  O  O18  1  0.61145100  0.88854900  0.11145100  1
  O  O19  1  0.64204900  0.36548000  0.13707900  1
  O  O20  1  0.60795100  0.11292100  0.88452000  1
  O  O21  1  0.63854900  0.13854900  0.36145100  1
  O  O22  1  0.63707900  0.85795100  0.63452000  1
  O  O23  1  0.63452000  0.63707900  0.85795100  1
  O  O24  1  0.86548000  0.36292100  0.35795100  1
  O  O25  1  0.86292100  0.14204900  0.13452000  1
  O  O26  1  0.86145100  0.86145100  0.86145100  1
  O  O27  1  0.89204900  0.88707900  0.38452000  1
  O  O28  1  0.85795100  0.63452000  0.63707900  1
  O  O29  1  0.88854900  0.11145100  0.61145100  1
  O  O30  1  0.88707900  0.38452000  0.89204900  1
  O  O31  1  0.88452000  0.60795100  0.11292100  1
loop_
_geom_bond_atom_site_label_1
_geom_bond_atom_site_label_2
_geom_bond_distance
_geom_bond_site_symmetry_2
Ni0 O0 1.895778 1_565
Ni0 O7 1.895778 1_555
Ni0 O27 1.895778 1_455
Ni0 O1 1.895778 1_555
Ni0 O6 1.895778 1_555
Ni0 O12 1.895778 1_555
Ni1 O14 1.895778 1_556
Ni1 O3 1.895778 1_555
Ni1 O15 1.895778 1_545
Ni1 O8 1.895778 1_555
Ni1 O9 1.895778 1_555
Ni1 O20 1.895778 1_555
Ni2 O17 1.895778 1_555
Ni2 O28 1.895778 1_555
Ni2 O23 1.895778 1_555
Ni2 O11 1.895778 1_555
Ni2 O22 1.895778 1_555
Ni2 O16 1.895778 1_555
Ni3 O4 1.895778 1_655
Ni3 O25 1.895778 1_555
Ni3 O30 1.895778 1_554
Ni3 O24 1.895778 1_555
Ni3 O31 1.895778 1_555
Ni3 O19 1.895778 1_555
Ge0 O8 1.937289 1_555
Ge0 O1 1.937289 1_545
Ge0 O0 1.938052 1_555
Ge0 O3 1.938052 1_555
Ge0 O29 1.949420 1_455
Ge0 O5 1.949420 1_555
Ge1 O3 1.937289 1_555
Ge1 O4 1.937289 1_556
Ge1 O9 1.938052 1_555
Ge1 O30 1.938052 1_455
Ge1 O5 1.949420 1_555
Ge1 O2 1.949420 1_555
Ge2 O6 1.937289 1_555
Ge2 O31 1.937289 1_455
Ge2 O4 1.938052 1_555
Ge2 O7 1.938052 1_555
Ge2 O2 1.949420 1_554
Ge2 O10 1.949420 1_555
Ge3 O16 1.937289 1_555
Ge3 O9 1.937289 1_555
Ge3 O8 1.938052 1_555
Ge3 O11 1.938052 1_555
Ge3 O13 1.949420 1_555
Ge3 O5 1.949420 1_555
Ge4 O11 1.937289 1_555
Ge4 O12 1.937289 1_555
Ge4 O6 1.938052 1_555
Ge4 O17 1.938052 1_555
Ge4 O13 1.949420 1_555
Ge4 O10 1.949420 1_555
Ge5 O7 1.937289 1_555
Ge5 O14 1.937289 1_565
Ge5 O12 1.938052 1_555
Ge5 O15 1.938052 1_554
Ge5 O10 1.949420 1_555
Ge5 O18 1.949420 1_555
Ge6 O17 1.937289 1_555
Ge6 O24 1.937289 1_555
Ge6 O19 1.938052 1_555
Ge6 O16 1.938052 1_555
Ge6 O13 1.949420 1_555
Ge6 O21 1.949420 1_555
Ge7 O20 1.937289 1_554
Ge7 O19 1.937289 1_555
Ge7 O14 1.938052 1_555
Ge7 O25 1.938052 1_555
Ge7 O18 1.949420 1_545
Ge7 O21 1.949420 1_555
Ge8 O15 1.937289 1_555
Ge8 O22 1.937289 1_555
Ge8 O20 1.938052 1_565
Ge8 O23 1.938052 1_555
Ge8 O26 1.949420 1_555
Ge8 O18 1.949420 1_556
Ge9 O25 1.937289 1_555
Ge9 O0 1.937289 1_655
Ge9 O24 1.938052 1_555
Ge9 O27 1.938052 1_545
Ge9 O21 1.949420 1_555
Ge9 O29 1.949420 1_555
Ge10 O28 1.937289 1_555
Ge10 O27 1.937289 1_555
Ge10 O22 1.938052 1_555
Ge10 O1 1.938052 1_655
Ge10 O26 1.949420 1_555
Ge10 O29 1.949420 1_565
Ge11 O23 1.937289 1_555
Ge11 O30 1.937289 1_555
Ge11 O31 1.938052 1_556
Ge11 O28 1.938052 1_555
Ge11 O26 1.949420 1_555
Ge11 O2 1.949420 1_655
