# generated using pymatgen
data_Sr4Mn2Cu3(SO)4
_symmetry_space_group_name_H-M   'P 1'
_cell_length_a   10.73776164
_cell_length_b   10.73776164
_cell_length_c   10.73776164
_cell_angle_alpha   149.07586498
_cell_angle_beta   115.50264327
_cell_angle_gamma   73.23773499
_symmetry_Int_Tables_number   1
_chemical_formula_structural   Sr4Mn2Cu3(SO)4
_chemical_formula_sum   'Sr8 Mn4 Cu6 S8 O8'
_cell_volume   565.43711144
_cell_formula_units_Z   2
loop_
 _symmetry_equiv_pos_site_id
 _symmetry_equiv_pos_as_xyz
  1  'x, y, z'
loop_
 _atom_site_type_symbol
 _atom_site_label
 _atom_site_symmetry_multiplicity
 _atom_site_fract_x
 _atom_site_fract_y
 _atom_site_fract_z
 _atom_site_occupancy
  Sr  Sr0  1  0.02359400  0.64349400  0.86778200  1
  Sr  Sr1  1  0.97640600  0.35650600  0.13221800  1
  Sr  Sr2  1  0.52359400  0.65581200  0.38010000  1
  Sr  Sr3  1  0.22428800  0.84418800  0.86778200  1
  Sr  Sr4  1  0.77571200  0.15581200  0.13221800  1
  Sr  Sr5  1  0.72428800  0.85650600  0.38010000  1
  Sr  Sr6  1  0.47640600  0.34418800  0.61990000  1
  Sr  Sr7  1  0.27571200  0.14349400  0.61990000  1
  Mn  Mn0  1  0.62580200  0.25456800  0.88037000  1
  Mn  Mn1  1  0.87419800  0.75456800  0.62876600  1
  Mn  Mn2  1  0.12580200  0.24543200  0.37123400  1
  Mn  Mn3  1  0.37419800  0.74543200  0.11963000  1
  Cu  Cu0  1  0.99543300  0.25000000  0.74543300  1
  Cu  Cu1  1  0.25000000  0.25000000  0.00000000  1
  Cu  Cu2  1  0.49543300  0.75000000  0.74543300  1
  Cu  Cu3  1  0.50456700  0.25000000  0.25456700  1
  Cu  Cu4  1  0.75000000  0.75000000  0.00000000  1
  Cu  Cu5  1  0.00456700  0.75000000  0.25456700  1
  S  S0  1  0.95514400  0.06932000  0.36880000  1
  S  S1  1  0.45514400  0.08634400  0.88582400  1
  S  S2  1  0.54485600  0.91365600  0.11417600  1
  S  S3  1  0.20052000  0.56932000  0.11417600  1
  S  S4  1  0.79948000  0.43068000  0.88582400  1
  S  S5  1  0.04485600  0.93068000  0.63120000  1
  S  S6  1  0.70052000  0.58634400  0.63120000  1
  S  S7  1  0.29948000  0.41365600  0.36880000  1
  O  O0  1  0.25026700  0.49317500  0.74344200  1
  O  O1  1  0.74973300  0.50682500  0.25655800  1
  O  O2  1  0.24973300  0.99317500  0.24290900  1
  O  O3  1  0.75026700  0.00682500  0.75709100  1
  O  O4  1  0.00000000  0.50000000  0.50000000  1
  O  O5  1  0.50000000  0.00000000  0.50000000  1
  O  O6  1  0.50000000  0.50000000  0.00000000  1
  O  O7  1  0.00000000  0.00000000  0.00000000  1
loop_
_geom_bond_atom_site_label_1
_geom_bond_atom_site_label_2
_geom_bond_distance
_geom_bond_site_symmetry_2
Mn0 O3 2.011510 1_555
Mn0 O6 2.013146 1_556
Mn0 O1 2.025524 1_556
Mn0 O5 2.049999 1_555
Mn0 S1 2.967746 1_555
Mn0 S4 2.967746 1_555
Mn1 O1 2.011512 1_555
Mn1 O7 2.013146 1_666
Mn1 O3 2.025526 1_565
Mn1 O4 2.049999 1_655
Mn1 S6 2.967746 1_555
Mn1 S5 2.967746 1_655
Mn2 O0 2.011512 1_555
Mn2 O7 2.013146 1_555
Mn2 O2 2.025526 1_545
Mn2 O4 2.049999 1_555
Mn2 S0 2.967746 1_455
Mn2 S7 2.967746 1_555
Mn3 O2 2.011510 1_555
Mn3 O6 2.013146 1_555
Mn3 O0 2.025524 1_554
Mn3 O5 2.049999 1_565
Mn3 S3 2.967746 1_555
Mn3 S2 2.967746 1_555
Cu0 S4 2.413008 1_555
Cu0 S0 2.413008 1_555
Cu0 S5 2.416173 1_645
Cu0 S3 2.416173 1_656
Cu1 S1 2.416568 1_554
Cu1 S5 2.416568 1_544
Cu1 S7 2.416568 1_555
Cu1 S3 2.416568 1_555
Cu2 S7 2.413008 1_555
Cu2 S1 2.413008 1_565
Cu2 S6 2.416173 1_555
Cu2 S2 2.416173 1_556
Cu3 S2 2.413008 1_545
Cu3 S6 2.413008 1_555
Cu3 S7 2.416173 1_555
Cu3 S1 2.416173 1_554
Cu4 S4 2.416568 1_554
Cu4 S0 2.416568 1_565
Cu4 S2 2.416568 1_555
Cu4 S6 2.416568 1_554
Cu5 S5 2.413008 1_555
Cu5 S3 2.413008 1_555
Cu5 S4 2.416173 1_454
Cu5 S0 2.416173 1_465
S0 Sr0 3.106780 1_644
S0 Sr7 3.107697 1_655
S0 Sr0 3.131508 1_655
S0 Sr4 3.135155 1_555
S1 Sr2 3.106780 1_556
S1 Sr4 3.107697 1_556
S1 Sr2 3.131508 1_545
S1 Sr7 3.135155 1_555
S2 Sr6 3.106780 1_554
S2 Sr3 3.107697 1_554
S2 Sr6 3.131508 1_565
S2 Sr5 3.135155 1_555
S3 Sr7 3.106780 1_554
S3 Sr0 3.107697 1_554
S3 Sr7 3.131508 1_565
S3 Sr2 3.135155 1_555
S4 Sr5 3.106780 1_556
S4 Sr1 3.107697 1_556
S4 Sr5 3.131508 1_545
S4 Sr6 3.135155 1_555
S5 Sr1 3.106780 1_466
S5 Sr5 3.107697 1_455
S5 Sr1 3.131508 1_455
S5 Sr3 3.135155 1_555
S6 Sr4 3.106780 1_566
S6 Sr2 3.107697 1_555
S6 Sr4 3.131508 1_555
S6 Sr0 3.135155 1_655
S7 Sr3 3.106780 1_544
S7 Sr6 3.107697 1_555
S7 Sr3 3.131508 1_555
S7 Sr1 3.135155 1_455
O0 Sr7 2.665972 1_555
O0 Sr6 2.665972 1_555
O0 Sr0 2.673372 1_555
O0 Sr3 2.673372 1_555
O1 Sr2 2.665972 1_555
O1 Sr5 2.665972 1_555
O1 Sr4 2.673372 1_555
O1 Sr1 2.673372 1_555
O2 Sr0 2.665971 1_554
O2 Sr3 2.665983 1_554
O2 Sr7 2.673362 1_565
O2 Sr6 2.673373 1_565
O3 Sr1 2.665971 1_556
O3 Sr4 2.665983 1_556
O3 Sr5 2.673362 1_545
O3 Sr2 2.673373 1_545
O4 Sr1 2.637784 1_455
O4 Sr4 2.637784 1_455
O4 Sr3 2.637784 1_555
O4 Sr0 2.637784 1_555
O5 Sr6 2.637784 1_555
O5 Sr7 2.637784 1_555
O5 Sr2 2.637784 1_545
O5 Sr5 2.637784 1_545
O6 Sr7 2.675780 1_554
O6 Sr6 2.675780 1_554
O6 Sr2 2.675780 1_555
O6 Sr5 2.675780 1_555
O7 Sr3 2.675780 1_544
O7 Sr1 2.675780 1_455
O7 Sr4 2.675780 1_455
O7 Sr0 2.675780 1_544
