# generated using pymatgen
data_Cs3V2Cl9
_symmetry_space_group_name_H-M   'P 1'
_cell_length_a   7.31198878
_cell_length_b   7.31200380
_cell_length_c   18.05425258
_cell_angle_alpha   89.99883056
_cell_angle_beta   90.00041805
_cell_angle_gamma   119.99927920
_symmetry_Int_Tables_number   1
_chemical_formula_structural   Cs3V2Cl9
_chemical_formula_sum   'Cs6 V4 Cl18'
_cell_volume   835.95947459
_cell_formula_units_Z   2
loop_
 _symmetry_equiv_pos_site_id
 _symmetry_equiv_pos_as_xyz
  1  'x, y, z'
loop_
 _atom_site_type_symbol
 _atom_site_label
 _atom_site_symmetry_multiplicity
 _atom_site_fract_x
 _atom_site_fract_y
 _atom_site_fract_z
 _atom_site_occupancy
  Cs  Cs0  1  0.00009920  0.00003530  0.24999737  1
  Cs  Cs1  1  0.99999764  0.00000670  0.75000157  1
  Cs  Cs2  1  0.33331568  0.66665682  0.42162680  1
  Cs  Cs3  1  0.66665982  0.33333098  0.57840418  1
  Cs  Cs4  1  0.66665912  0.33333024  0.92159388  1
  Cs  Cs5  1  0.33332346  0.66666318  0.07837450  1
  V  V0  1  0.33332518  0.66666658  0.65837380  1
  V  V1  1  0.66666544  0.33332964  0.34166261  1
  V  V2  1  0.66667144  0.33333505  0.15833859  1
  V  V3  1  0.33332872  0.66666613  0.84162193  1
  Cl  Cl0  1  0.51800591  0.48199936  0.25000337  1
  Cl  Cl1  1  0.51801547  0.03600131  0.24999836  1
  Cl  Cl2  1  0.96398503  0.48199550  0.25000372  1
  Cl  Cl3  1  0.48208986  0.51787587  0.74999825  1
  Cl  Cl4  1  0.48210119  0.96421778  0.74999975  1
  Cl  Cl5  1  0.03576706  0.51789226  0.74999918  1
  Cl  Cl6  1  0.82256033  0.17745263  0.40759657  1
  Cl  Cl7  1  0.82253468  0.64509269  0.40759837  1
  Cl  Cl8  1  0.35489680  0.17744508  0.40759504  1
  Cl  Cl9  1  0.17741969  0.82261327  0.59242524  1
  Cl  Cl10  1  0.17739508  0.35482034  0.59242492  1
  Cl  Cl11  1  0.64517885  0.82256781  0.59243102  1
  Cl  Cl12  1  0.17740710  0.82258881  0.90757621  1
  Cl  Cl13  1  0.17739832  0.35481506  0.90757443  1
  Cl  Cl14  1  0.64517569  0.82258585  0.90756861  1
  Cl  Cl15  1  0.82256519  0.17746493  0.09240317  1
  Cl  Cl16  1  0.82255247  0.64510161  0.09240298  1
  Cl  Cl17  1  0.35490758  0.17745022  0.09240559  1
loop_
_geom_bond_atom_site_label_1
_geom_bond_atom_site_label_2
_geom_bond_distance
_geom_bond_site_symmetry_2
Cl0 V1 2.506652 1_555
Cl0 V2 2.506760 1_555
Cl0 Cs0 3.662644 1_555
Cl0 Cs0 3.663588 1_665
Cl0 Cs2 3.882178 1_555
Cl0 Cs5 3.882191 1_555
Cl1 V2 2.506692 1_555
Cl1 V1 2.506768 1_555
Cl1 Cs0 3.662597 1_555
Cl1 Cs0 3.663566 1_655
Cl1 Cs5 3.882171 1_545
Cl1 Cs2 3.882189 1_545
Cl2 V1 2.506631 1_555
Cl2 V2 2.506686 1_555
Cl2 Cs0 3.663024 1_665
Cl2 Cs0 3.663270 1_655
Cl2 Cs2 3.882098 1_655
Cl2 Cs5 3.882204 1_655
Cl3 V0 2.507313 1_555
Cl3 V3 2.507325 1_555
Cl3 Cs1 3.662910 1_455
Cl3 Cs1 3.663191 1_565
Cl3 Cs4 3.880830 1_555
Cl3 Cs3 3.880867 1_555
Cl4 V3 2.507281 1_555
Cl4 V0 2.507372 1_555
Cl4 Cs1 3.662995 1_465
Cl4 Cs1 3.663029 1_565
Cl4 Cs3 3.880833 1_565
Cl4 Cs4 3.880882 1_565
Cl5 V3 2.507361 1_555
Cl5 V0 2.507367 1_555
Cl5 Cs1 3.663002 1_465
Cl5 Cs1 3.663021 1_455
Cl5 Cs4 3.880827 1_455
Cl5 Cs3 3.880842 1_455
Cl6 V1 2.305344 1_555
Cl6 Cs0 3.626062 1_655
Cl6 Cs3 3.661676 1_555
Cl6 Cs2 3.667198 1_655
Cl6 Cs2 3.667487 1_545
Cl7 V1 2.305369 1_555
Cl7 Cs0 3.625989 1_665
Cl7 Cs3 3.661544 1_555
Cl7 Cs2 3.667292 1_655
Cl7 Cs2 3.667308 1_555
Cl8 V1 2.305341 1_555
Cl8 Cs0 3.625410 1_555
Cl8 Cs3 3.661635 1_555
Cl8 Cs2 3.667296 1_545
Cl8 Cs2 3.667336 1_555
Cl9 V0 2.305915 1_555
Cl9 Cs1 3.625186 1_465
Cl9 Cs2 3.661788 1_555
Cl9 Cs3 3.667157 1_565
Cl9 Cs3 3.667470 1_455
Cl10 V0 2.305942 1_555
Cl10 Cs1 3.625138 1_455
Cl10 Cs2 3.661683 1_555
Cl10 Cs3 3.667204 1_455
Cl10 Cs3 3.667342 1_555
Cl11 V0 2.305899 1_555
Cl11 Cs1 3.625109 1_565
Cl11 Cs2 3.661902 1_555
Cl11 Cs3 3.667124 1_555
Cl11 Cs3 3.667448 1_565
Cl12 V3 2.305958 1_555
Cl12 Cs1 3.625152 1_465
Cl12 Cs5 3.661697 1_556
Cl12 Cs4 3.667292 1_565
Cl12 Cs4 3.667333 1_455
Cl13 V3 2.305963 1_555
Cl13 Cs1 3.625132 1_455
Cl13 Cs5 3.661817 1_556
Cl13 Cs4 3.667250 1_455
Cl13 Cs4 3.667290 1_555
Cl14 V3 2.305906 1_555
Cl14 Cs1 3.625059 1_565
Cl14 Cs5 3.661879 1_556
Cl14 Cs4 3.667258 1_555
Cl14 Cs4 3.667311 1_565
Cl15 V2 2.305346 1_555
Cl15 Cs0 3.625964 1_655
Cl15 Cs4 3.661623 1_554
Cl15 Cs5 3.667181 1_655
Cl15 Cs5 3.667505 1_545
Cl16 V2 2.305347 1_555
Cl16 Cs0 3.625929 1_665
Cl16 Cs4 3.661692 1_554
Cl16 Cs5 3.667231 1_655
Cl16 Cs5 3.667367 1_555
Cl17 V2 2.305328 1_555
Cl17 Cs0 3.625357 1_555
Cl17 Cs4 3.661624 1_554
Cl17 Cs5 3.667286 1_545
Cl17 Cs5 3.667345 1_555
