# generated using pymatgen
data_SrP3
_symmetry_space_group_name_H-M   'P 1'
_cell_length_a   6.86256539
_cell_length_b   6.86256652
_cell_length_c   8.61654570
_cell_angle_alpha   78.37509151
_cell_angle_beta   78.37508334
_cell_angle_gamma   65.61986073
_symmetry_Int_Tables_number   1
_chemical_formula_structural   SrP3
_chemical_formula_sum   'Sr4 P12'
_cell_volume   358.82877941
_cell_formula_units_Z   4
loop_
 _symmetry_equiv_pos_site_id
 _symmetry_equiv_pos_as_xyz
  1  'x, y, z'
loop_
 _atom_site_type_symbol
 _atom_site_label
 _atom_site_symmetry_multiplicity
 _atom_site_fract_x
 _atom_site_fract_y
 _atom_site_fract_z
 _atom_site_occupancy
  Sr  Sr0  1  0.04270050  0.04270050  0.25955320  1
  Sr  Sr1  1  0.70674046  0.70674046  0.22313530  1
  Sr  Sr2  1  0.29325954  0.29325954  0.77686470  1
  Sr  Sr3  1  0.95729950  0.95729950  0.74044680  1
  P  P0  1  0.36086736  0.83358615  0.97624696  1
  P  P1  1  0.09638167  0.60060742  0.48667518  1
  P  P2  1  0.32797692  0.32797692  0.16050352  1
  P  P3  1  0.39939258  0.90361833  0.51332482  1
  P  P4  1  0.41475770  0.41475770  0.36621934  1
  P  P5  1  0.67202308  0.67202308  0.83949648  1
  P  P6  1  0.60060742  0.09638167  0.48667518  1
  P  P7  1  0.58524230  0.58524230  0.63378066  1
  P  P8  1  0.63913264  0.16641385  0.02375304  1
  P  P9  1  0.90361833  0.39939258  0.51332482  1
  P  P10  1  0.83358615  0.36086736  0.97624696  1
  P  P11  1  0.16641385  0.63913264  0.02375304  1
loop_
_geom_bond_atom_site_label_1
_geom_bond_atom_site_label_2
_geom_bond_distance
_geom_bond_site_symmetry_2
P0 P5 2.176070 1_555
P0 P11 2.181501 1_556
P0 Sr0 3.076166 1_566
P0 Sr2 3.169653 1_565
P0 Sr1 3.240368 1_556
P0 Sr3 3.485759 1_455
P1 P4 2.190121 1_555
P1 P9 2.228734 1_455
P1 Sr2 3.067524 1_555
P1 Sr0 3.185142 1_565
P1 Sr3 3.327366 1_455
P2 P8 2.176070 1_555
P2 P4 2.234940 1_555
P2 Sr0 3.195506 1_555
P2 Sr2 3.423806 1_554
P3 P7 2.190122 1_555
P3 P6 2.228734 1_565
P3 Sr1 3.067524 1_555
P3 Sr3 3.185142 1_455
P3 Sr0 3.327366 1_565
P4 P6 2.190122 1_555
P4 Sr1 3.297511 1_555
P5 P7 2.234940 1_555
P5 Sr3 3.195506 1_555
P5 Sr1 3.423806 1_556
P6 Sr2 3.067524 1_555
P6 Sr0 3.185142 1_655
P6 Sr3 3.327366 1_545
P7 P9 2.190121 1_555
P7 Sr2 3.297511 1_555
P8 Sr3 3.076166 1_544
P8 Sr1 3.169653 1_545
P8 Sr2 3.240368 1_554
P8 Sr0 3.485759 1_655
P9 Sr1 3.067524 1_555
P9 Sr3 3.185142 1_545
P9 Sr0 3.327366 1_655
P10 P5 2.176071 1_555
P10 P8 2.181501 1_556
P10 Sr0 3.076166 1_656
P10 Sr2 3.169652 1_655
P10 Sr1 3.240368 1_556
P10 Sr3 3.485759 1_545
P11 P2 2.176071 1_555
P11 Sr3 3.076166 1_454
P11 Sr1 3.169652 1_455
P11 Sr2 3.240368 1_554
P11 Sr0 3.485759 1_565
