# generated using pymatgen
data_UPt
_symmetry_space_group_name_H-M   'P 1'
_cell_length_a   10.66920900
_cell_length_b   5.77324100
_cell_length_c   5.81619554
_cell_angle_alpha   78.41548160
_cell_angle_beta   90.00000000
_cell_angle_gamma   90.00000000
_symmetry_Int_Tables_number   1
_chemical_formula_structural   UPt
_chemical_formula_sum   'U8 Pt8'
_cell_volume   350.95609109
_cell_formula_units_Z   8
loop_
 _symmetry_equiv_pos_site_id
 _symmetry_equiv_pos_as_xyz
  1  'x, y, z'
loop_
 _atom_site_type_symbol
 _atom_site_label
 _atom_site_symmetry_multiplicity
 _atom_site_fract_x
 _atom_site_fract_y
 _atom_site_fract_z
 _atom_site_occupancy
  U  U0  1  0.00295600  0.13860100  0.90863400  1
  U  U1  1  0.50295600  0.86139900  0.09136600  1
  U  U2  1  0.01585400  0.61060400  0.34681300  1
  U  U3  1  0.51585400  0.38939600  0.65318700  1
  U  U4  1  0.28915000  0.86108300  0.59760100  1
  U  U5  1  0.78915000  0.13891700  0.40239900  1
  U  U6  1  0.27951300  0.39860600  0.15783200  1
  U  U7  1  0.77951300  0.60139400  0.84216800  1
  Pt  Pt0  1  0.73954000  0.08625400  0.91122800  1
  Pt  Pt1  1  0.23954000  0.91374600  0.08877200  1
  Pt  Pt2  1  0.74722300  0.64816900  0.33616800  1
  Pt  Pt3  1  0.24722300  0.35183100  0.66383200  1
  Pt  Pt4  1  0.55353300  0.90216700  0.58090200  1
  Pt  Pt5  1  0.05353300  0.09783300  0.41909800  1
  Pt  Pt6  1  0.54823000  0.35189900  0.15607700  1
  Pt  Pt7  1  0.04823000  0.64810100  0.84392300  1
loop_
_geom_bond_atom_site_label_1
_geom_bond_atom_site_label_2
_geom_bond_distance
_geom_bond_site_symmetry_2
Pt0 U0 2.826359 1_655
Pt0 U1 2.933947 1_546
Pt0 U7 2.937752 1_545
Pt0 U7 2.950981 1_555
Pt0 U5 2.961344 1_555
Pt0 U5 2.980341 1_556
Pt0 U3 3.155323 1_555
Pt0 Pt2 3.162493 1_546
Pt1 U1 2.826359 1_555
Pt1 U0 2.933947 1_564
Pt1 U6 2.937752 1_565
Pt1 U6 2.950981 1_555
Pt1 U4 2.961344 1_555
Pt1 U4 2.980341 1_554
Pt1 U2 3.155323 1_555
Pt1 Pt3 3.162493 1_564
Pt2 U2 2.874002 1_655
Pt2 U7 2.921240 1_555
Pt2 U5 2.921889 1_555
Pt2 U7 2.959478 1_554
Pt2 U5 2.968818 1_565
Pt2 Pt6 3.041354 1_555
Pt2 Pt4 3.047170 1_555
Pt2 U1 3.103332 1_555
Pt2 U3 3.258674 1_555
Pt3 U3 2.874002 1_555
Pt3 U6 2.921240 1_555
Pt3 U4 2.921889 1_555
Pt3 U6 2.959478 1_556
Pt3 U4 2.968818 1_545
Pt3 Pt7 3.041354 1_555
Pt3 Pt5 3.047170 1_555
Pt3 U0 3.103332 1_555
Pt3 U2 3.258674 1_555
Pt4 U4 2.830744 1_555
Pt4 U3 2.932946 1_555
Pt4 U5 2.948824 1_565
Pt4 U1 2.953385 1_555
Pt4 U3 2.953927 1_565
Pt4 U1 2.980041 1_556
Pt4 U7 3.174527 1_555
Pt5 U5 2.830744 1_455
Pt5 U2 2.932946 1_555
Pt5 U4 2.948824 1_545
Pt5 U0 2.953385 1_555
Pt5 U2 2.953927 1_545
Pt5 U0 2.980041 1_554
Pt5 U6 3.174527 1_555
Pt6 U6 2.879861 1_555
Pt6 U3 2.909804 1_554
Pt6 U1 2.929602 1_555
Pt6 U3 2.962619 1_555
Pt6 U1 2.970182 1_545
Pt6 U5 3.076362 1_555
Pt6 U7 3.231254 1_554
Pt7 U7 2.879861 1_455
Pt7 U2 2.909804 1_556
Pt7 U0 2.929602 1_555
Pt7 U2 2.962619 1_555
Pt7 U0 2.970182 1_565
Pt7 U4 3.076362 1_555
Pt7 U6 3.231254 1_556
