# generated using pymatgen
data_NbBi(TeO4)2
_symmetry_space_group_name_H-M   'P 1'
_cell_length_a   5.68935500
_cell_length_b   8.22799100
_cell_length_c   31.93595800
_cell_angle_alpha   90.00000000
_cell_angle_beta   90.00000000
_cell_angle_gamma   90.00000000
_symmetry_Int_Tables_number   1
_chemical_formula_structural   NbBi(TeO4)2
_chemical_formula_sum   'Nb8 Bi8 Te16 O64'
_cell_volume   1494.98484389
_cell_formula_units_Z   8
loop_
 _symmetry_equiv_pos_site_id
 _symmetry_equiv_pos_as_xyz
  1  'x, y, z'
loop_
 _atom_site_type_symbol
 _atom_site_label
 _atom_site_symmetry_multiplicity
 _atom_site_fract_x
 _atom_site_fract_y
 _atom_site_fract_z
 _atom_site_occupancy
  Nb  Nb0  1  0.73472100  0.94420700  0.20929400  1
  Nb  Nb1  1  0.76527900  0.05579300  0.70929400  1
  Nb  Nb2  1  0.23472100  0.55579300  0.79070600  1
  Nb  Nb3  1  0.76527900  0.44420700  0.20929400  1
  Nb  Nb4  1  0.26527900  0.44420700  0.29070600  1
  Nb  Nb5  1  0.26527900  0.05579300  0.79070600  1
  Nb  Nb6  1  0.73472100  0.55579300  0.70929400  1
  Nb  Nb7  1  0.23472100  0.94420700  0.29070600  1
  Bi  Bi0  1  0.29431000  0.13679200  0.04006600  1
  Bi  Bi1  1  0.20569000  0.86320800  0.54006600  1
  Bi  Bi2  1  0.70569000  0.86320800  0.95993400  1
  Bi  Bi3  1  0.70569000  0.63679200  0.45993400  1
  Bi  Bi4  1  0.20569000  0.63679200  0.04006600  1
  Bi  Bi5  1  0.29431000  0.36320800  0.54006600  1
  Bi  Bi6  1  0.79431000  0.13679200  0.45993400  1
  Bi  Bi7  1  0.79431000  0.36320800  0.95993400  1
  Te  Te0  1  0.76581700  0.36985500  0.07903100  1
  Te  Te1  1  0.26581700  0.36985500  0.42096900  1
  Te  Te2  1  0.23418300  0.86985500  0.42096900  1
  Te  Te3  1  0.23680200  0.36995200  0.66417900  1
  Te  Te4  1  0.76319800  0.63004800  0.33582100  1
  Te  Te5  1  0.73418300  0.63014500  0.57903100  1
  Te  Te6  1  0.73680200  0.36995200  0.83582100  1
  Te  Te7  1  0.73680200  0.13004800  0.33582100  1
  Te  Te8  1  0.26319800  0.86995200  0.66417900  1
  Te  Te9  1  0.73418300  0.86985500  0.07903100  1
  Te  Te10  1  0.26319800  0.63004800  0.16417900  1
  Te  Te11  1  0.23680200  0.13004800  0.16417900  1
  Te  Te12  1  0.26581700  0.13014500  0.92096900  1
  Te  Te13  1  0.76581700  0.13014500  0.57903100  1
  Te  Te14  1  0.76319800  0.86995200  0.83582100  1
  Te  Te15  1  0.23418300  0.63014500  0.92096900  1
  O  O0  1  0.68528500  0.17978800  0.39275000  1
  O  O1  1  0.31471500  0.82021200  0.60725000  1
  O  O2  1  0.50893000  0.54261500  0.83403000  1
  O  O3  1  0.98858100  0.38440700  0.45558900  1
  O  O4  1  0.00305300  0.98968600  0.34146600  1
  O  O5  1  0.66709000  0.10355200  0.06802800  1
  O  O6  1  0.16709000  0.39644800  0.93197200  1
  O  O7  1  0.48754100  0.33711200  0.46628000  1
  O  O8  1  0.81471500  0.82021200  0.89275000  1
  O  O9  1  0.99694700  0.01031400  0.65853400  1
  O  O10  1  0.50893000  0.95738500  0.33403000  1
  O  O11  1  0.83291000  0.60355200  0.06802800  1
  O  O12  1  0.83291000  0.89644800  0.56802800  1
  O  O13  1  0.50305300  0.98968600  0.15853400  1
  O  O14  1  0.94749600  0.52456700  0.75596300  1
  O  O15  1  0.18528500  0.32021200  0.60725000  1
  O  O16  1  0.48754100  0.16288800  0.96628000  1
  O  O17  1  0.22968500  0.72288300  0.29549000  1
  O  O18  1  0.99107000  0.45738500  0.33403000  1
  O  O19  1  0.51245900  0.83711200  0.03372000  1
  O  O20  1  0.94749600  0.97543300  0.25596300  1
  O  O21  1  0.49107000  0.45738500  0.16597000  1
  O  O22  1  0.55250400  0.47543300  0.25596300  1
  O  O23  1  0.51141900  0.88440700  0.45558900  1
  O  O24  1  0.01245900  0.83711200  0.46628000  1
  O  O25  1  0.00893000  0.54261500  0.66597000  1
  O  O26  1  0.99694700  0.48968600  0.15853400  1
  O  O27  1  0.00305300  0.51031400  0.84146600  1
  O  O28  1  0.98754100  0.33711200  0.03372000  1
  O  O29  1  0.49107000  0.04261500  0.66597000  1
  O  O30  1  0.22968500  0.77711700  0.79549000  1
  O  O31  1  0.44749600  0.52456700  0.74403700  1
  O  O32  1  0.66709000  0.39644800  0.56802800  1
  O  O33  1  0.55250400  0.02456700  0.75596300  1
  O  O34  1  0.51141900  0.61559300  0.95558900  1
  O  O35  1  0.27031500  0.27711700  0.79549000  1
  O  O36  1  0.05250400  0.02456700  0.74403700  1
  O  O37  1  0.01245900  0.66288800  0.96628000  1
  O  O38  1  0.77031500  0.27711700  0.70451000  1
  O  O39  1  0.05250400  0.47543300  0.24403700  1
  O  O40  1  0.27031500  0.22288300  0.29549000  1
  O  O41  1  0.50305300  0.51031400  0.65853400  1
  O  O42  1  0.01141900  0.61559300  0.54441100  1
  O  O43  1  0.33291000  0.89644800  0.93197200  1
  O  O44  1  0.81471500  0.67978800  0.39275000  1
  O  O45  1  0.44749600  0.97543300  0.24403700  1
  O  O46  1  0.99107000  0.04261500  0.83403000  1
  O  O47  1  0.98754100  0.16288800  0.53372000  1
  O  O48  1  0.48858100  0.11559300  0.54441100  1
  O  O49  1  0.98858100  0.11559300  0.95558900  1
  O  O50  1  0.48858100  0.38440700  0.04441100  1
  O  O51  1  0.18528500  0.17978800  0.10725000  1
  O  O52  1  0.01141900  0.88440700  0.04441100  1
  O  O53  1  0.72968500  0.72288300  0.20451000  1
  O  O54  1  0.77031500  0.22288300  0.20451000  1
  O  O55  1  0.33291000  0.60355200  0.43197200  1
  O  O56  1  0.00893000  0.95738500  0.16597000  1
  O  O57  1  0.72968500  0.77711700  0.70451000  1
  O  O58  1  0.16709000  0.10355200  0.43197200  1
  O  O59  1  0.31471500  0.67978800  0.10725000  1
  O  O60  1  0.68528500  0.32021200  0.89275000  1
  O  O61  1  0.49694700  0.48968600  0.34146600  1
  O  O62  1  0.49694700  0.01031400  0.84146600  1
  O  O63  1  0.51245900  0.66288800  0.53372000  1
loop_
_geom_bond_atom_site_label_1
_geom_bond_atom_site_label_2
_geom_bond_distance
_geom_bond_site_symmetry_2
Nb0 O53 1.827674 1_555
Nb0 O20 1.937214 1_555
Nb0 O45 1.991853 1_555
Nb0 O56 2.088041 1_655
Nb0 O13 2.122528 1_555
Nb0 O54 2.306933 1_565
Nb1 O38 1.827674 1_555
Nb1 O33 1.937214 1_555
Nb1 O36 1.991853 1_655
Nb1 O29 2.088041 1_555
Nb1 O9 2.122528 1_555
Nb1 O57 2.306933 1_545
Nb2 O30 1.827674 1_555
Nb2 O31 1.937214 1_555
Nb2 O14 1.991853 1_455
Nb2 O2 2.088041 1_555
Nb2 O27 2.122528 1_555
Nb2 O35 2.306933 1_555
Nb3 O54 1.827674 1_555
Nb3 O22 1.937214 1_555
Nb3 O39 1.991853 1_655
Nb3 O21 2.088041 1_555
Nb3 O26 2.122528 1_555
Nb3 O53 2.306933 1_555
Nb4 O40 1.827674 1_555
Nb4 O39 1.937214 1_555
Nb4 O22 1.991853 1_555
Nb4 O18 2.088041 1_455
Nb4 O61 2.122528 1_555
Nb4 O17 2.306933 1_555
Nb5 O35 1.827674 1_555
Nb5 O36 1.937214 1_555
Nb5 O33 1.991853 1_555
Nb5 O46 2.088041 1_455
Nb5 O62 2.122528 1_555
Nb5 O30 2.306933 1_545
Nb6 O57 1.827674 1_555
Nb6 O14 1.937214 1_555
Nb6 O31 1.991853 1_555
Nb6 O25 2.088041 1_655
Nb6 O41 2.122528 1_555
Nb6 O38 2.306933 1_555
Nb7 O17 1.827674 1_555
Nb7 O45 1.937214 1_555
Nb7 O20 1.991853 1_455
Nb7 O10 2.088041 1_555
Nb7 O4 2.122528 1_555
Nb7 O40 2.306933 1_565
Bi0 O51 2.261292 1_555
Bi0 O5 2.317404 1_555
Bi0 O50 2.322022 1_555
Bi0 O28 2.409123 1_455
Bi0 O16 2.609107 1_554
Bi0 O52 2.630969 1_545
Bi0 O19 2.767935 1_545
Bi1 O1 2.261292 1_555
Bi1 O12 2.317404 1_455
Bi1 O42 2.322022 1_555
Bi1 O63 2.409123 1_555
Bi1 O24 2.609107 1_555
Bi1 O48 2.630969 1_565
Bi1 O47 2.767935 1_465
Bi2 O8 2.261292 1_555
Bi2 O43 2.317404 1_555
Bi2 O34 2.322022 1_555
Bi2 O37 2.409123 1_655
Bi2 O19 2.609107 1_556
Bi2 O49 2.630969 1_565
Bi2 O16 2.767935 1_565
Bi3 O44 2.261292 1_555
Bi3 O55 2.317404 1_555
Bi3 O23 2.322022 1_555
Bi3 O24 2.409123 1_655
Bi3 O63 2.609107 1_555
Bi3 O3 2.630969 1_555
Bi3 O7 2.767935 1_555
Bi4 O59 2.261292 1_555
Bi4 O11 2.317404 1_455
Bi4 O52 2.322022 1_555
Bi4 O19 2.409123 1_555
Bi4 O37 2.609107 1_554
Bi4 O50 2.630969 1_555
Bi4 O28 2.767935 1_455
Bi5 O15 2.261292 1_555
Bi5 O32 2.317404 1_555
Bi5 O48 2.322022 1_555
Bi5 O47 2.409123 1_455
Bi5 O7 2.609107 1_555
Bi5 O42 2.630969 1_555
Bi5 O63 2.767935 1_555
Bi6 O0 2.261292 1_555
Bi6 O58 2.317404 1_655
Bi6 O3 2.322022 1_555
Bi6 O7 2.409123 1_555
Bi6 O47 2.609107 1_555
Bi6 O23 2.630969 1_545
Bi6 O24 2.767935 1_645
Bi7 O60 2.261292 1_555
Bi7 O6 2.317404 1_655
Bi7 O49 2.322022 1_555
Bi7 O16 2.409123 1_555
Bi7 O28 2.609107 1_556
Bi7 O34 2.630969 1_555
Bi7 O37 2.767935 1_655
O0 Te7 1.886484 1_555
O1 Te8 1.886484 1_555
O2 Te6 1.924147 1_555
O3 Te1 1.929921 1_655
O4 Te7 1.913347 1_465
O5 Te9 1.991623 1_545
O5 Te0 2.289119 1_555
O6 Te15 1.991623 1_555
O6 Te12 2.289119 1_555
O7 Te1 1.938513 1_555
O8 Te14 1.886484 1_555
O9 Te8 1.913347 1_645
O10 Te7 1.924147 1_565
O11 Te0 1.991623 1_555
O11 Te9 2.289119 1_555
O12 Te13 1.991623 1_565
O12 Te5 2.289119 1_555
O13 Te11 1.913347 1_565
O15 Te3 1.886484 1_555
O16 Te12 1.938513 1_555
O18 Te4 1.924147 1_555
O19 Te9 1.938513 1_555
O21 Te10 1.924147 1_555
O23 Te2 1.929921 1_555
O24 Te2 1.938513 1_555
O25 Te3 1.924147 1_555
O26 Te10 1.913347 1_655
O27 Te6 1.913347 1_455
O28 Te0 1.938513 1_555
O29 Te8 1.924147 1_545
O32 Te5 1.991623 1_555
O32 Te13 2.289119 1_555
O34 Te15 1.929921 1_555
O37 Te15 1.938513 1_555
O41 Te3 1.913347 1_555
O42 Te5 1.929921 1_455
O43 Te12 1.991623 1_565
O43 Te15 2.289119 1_555
O44 Te4 1.886484 1_555
O46 Te14 1.924147 1_545
O47 Te13 1.938513 1_555
O48 Te13 1.929921 1_555
O49 Te12 1.929921 1_655
O50 Te0 1.929921 1_555
O51 Te11 1.886484 1_555
O52 Te9 1.929921 1_455
O55 Te1 1.991623 1_555
O55 Te2 2.289119 1_555
O56 Te11 1.924147 1_565
O58 Te2 1.991623 1_545
O58 Te1 2.289119 1_555
O59 Te10 1.886484 1_555
O60 Te6 1.886484 1_555
O61 Te4 1.913347 1_555
O62 Te14 1.913347 1_545
O63 Te5 1.938513 1_555
