# generated using pymatgen
data_CsV2O5
_symmetry_space_group_name_H-M   'P 1'
_cell_length_a   9.82681162
_cell_length_b   7.19442986
_cell_length_c   7.78939524
_cell_angle_alpha   89.13203140
_cell_angle_beta   90.00000000
_cell_angle_gamma   90.00000000
_symmetry_Int_Tables_number   1
_chemical_formula_structural   CsV2O5
_chemical_formula_sum   'Cs4 V8 O20'
_cell_volume   550.63386686
_cell_formula_units_Z   4
loop_
 _symmetry_equiv_pos_site_id
 _symmetry_equiv_pos_as_xyz
  1  'x, y, z'
loop_
 _atom_site_type_symbol
 _atom_site_label
 _atom_site_symmetry_multiplicity
 _atom_site_fract_x
 _atom_site_fract_y
 _atom_site_fract_z
 _atom_site_occupancy
  Cs  Cs0  1  0.87684164  0.60748247  0.77266469  1
  Cs  Cs1  1  0.37684164  0.39251753  0.72733531  1
  Cs  Cs2  1  0.12315836  0.39251753  0.22733531  1
  Cs  Cs3  1  0.62315836  0.60748247  0.27266469  1
  V  V0  1  0.02354752  0.11495580  0.66451745  1
  V  V1  1  0.52354752  0.88504420  0.83548255  1
  V  V2  1  0.97645248  0.88504420  0.33548255  1
  V  V3  1  0.47645248  0.11495580  0.16451745  1
  V  V4  1  0.79406770  0.12438706  0.01177934  1
  V  V5  1  0.29406770  0.87561294  0.48822066  1
  V  V6  1  0.20593230  0.87561294  0.98822066  1
  V  V7  1  0.70593230  0.12438706  0.51177934  1
  O  O0  1  0.87087655  0.11492216  0.81141310  1
  O  O1  1  0.37087655  0.88507784  0.68858690  1
  O  O2  1  0.12912345  0.88507784  0.18858690  1
  O  O3  1  0.62912345  0.11492216  0.31141310  1
  O  O4  1  0.82014684  0.33479912  0.08404138  1
  O  O5  1  0.32014684  0.66520088  0.41595862  1
  O  O6  1  0.17985316  0.66520088  0.91595862  1
  O  O7  1  0.67985316  0.33479912  0.58404138  1
  O  O8  1  0.92209835  0.67605679  0.38124375  1
  O  O9  1  0.42209835  0.32394321  0.11875625  1
  O  O10  1  0.07790165  0.32394321  0.61875625  1
  O  O11  1  0.57790165  0.67605679  0.88124375  1
  O  O12  1  0.86748115  0.95695377  0.14189031  1
  O  O13  1  0.36748115  0.04304623  0.35810969  1
  O  O14  1  0.13251885  0.04304623  0.85810969  1
  O  O15  1  0.63251885  0.95695377  0.64189031  1
  O  O16  1  0.88680446  0.06926801  0.47845113  1
  O  O17  1  0.38680446  0.93073199  0.02154887  1
  O  O18  1  0.11319554  0.93073199  0.52154887  1
  O  O19  1  0.61319554  0.06926801  0.97845113  1
loop_
_geom_bond_atom_site_label_1
_geom_bond_atom_site_label_2
_geom_bond_distance
_geom_bond_site_symmetry_2
Cs0 O10 3.094552 1_655
Cs0 O11 3.098550 1_555
Cs0 O8 3.113133 1_555
Cs0 O7 3.137184 1_555
Cs0 O4 3.146051 1_556
Cs0 O6 3.209150 1_655
Cs1 O11 3.094552 1_555
Cs1 O10 3.098550 1_555
Cs1 O9 3.113133 1_556
Cs1 O6 3.137184 1_555
Cs1 O5 3.146051 1_555
Cs1 O7 3.209150 1_555
Cs2 O8 3.094552 1_455
Cs2 O9 3.098550 1_555
Cs2 O10 3.113133 1_555
Cs2 O5 3.137184 1_555
Cs2 O6 3.146051 1_554
Cs2 O4 3.209150 1_455
Cs3 O9 3.094552 1_555
Cs3 O8 3.098550 1_555
Cs3 O11 3.113133 1_554
Cs3 O4 3.137184 1_555
Cs3 O7 3.146051 1_555
Cs3 O5 3.209150 1_555
O0 V4 1.735927 1_556
O0 V0 1.886811 1_655
O1 V5 1.735927 1_555
O1 V1 1.886811 1_555
O2 V6 1.735927 1_554
O2 V2 1.886811 1_455
O3 V7 1.735927 1_555
O3 V3 1.886811 1_555
O4 V4 1.643137 1_555
O5 V5 1.643137 1_555
O6 V6 1.643137 1_555
O7 V7 1.643137 1_555
O8 V2 1.629958 1_555
O9 V3 1.629958 1_555
O10 V0 1.629958 1_555
O11 V1 1.629958 1_555
O12 V4 1.720943 1_565
O12 V2 1.914334 1_555
O13 V5 1.720943 1_545
O13 V3 1.914334 1_555
O14 V6 1.720943 1_545
O14 V0 1.914334 1_555
O15 V7 1.720943 1_565
O15 V1 1.914334 1_555
O16 V7 1.840355 1_555
O16 V2 1.953877 1_545
O16 V0 2.007170 1_655
O17 V6 1.840355 1_554
O17 V3 1.953877 1_565
O17 V1 2.007170 1_554
O18 V5 1.840355 1_555
O18 V0 1.953877 1_565
O18 V2 2.007170 1_455
O19 V4 1.840355 1_556
O19 V1 1.953877 1_545
O19 V3 2.007170 1_556
