# generated using pymatgen
data_NdCoSi2
_symmetry_space_group_name_H-M   'P 1'
_cell_length_a   4.04125566
_cell_length_b   4.15742701
_cell_length_c   8.41752135
_cell_angle_alpha   104.29715216
_cell_angle_beta   90.00000000
_cell_angle_gamma   90.00000000
_symmetry_Int_Tables_number   1
_chemical_formula_structural   NdCoSi2
_chemical_formula_sum   'Nd2 Co2 Si4'
_cell_volume   137.04446996
_cell_formula_units_Z   2
loop_
 _symmetry_equiv_pos_site_id
 _symmetry_equiv_pos_as_xyz
  1  'x, y, z'
loop_
 _atom_site_type_symbol
 _atom_site_label
 _atom_site_symmetry_multiplicity
 _atom_site_fract_x
 _atom_site_fract_y
 _atom_site_fract_z
 _atom_site_occupancy
  Nd  Nd0  1  0.25000000  0.89234593  0.78469386  1
  Nd  Nd1  1  0.75000000  0.10765407  0.21530614  1
  Co  Co0  1  0.75000000  0.31822107  0.63644114  1
  Co  Co1  1  0.25000000  0.68177893  0.36355886  1
  Si  Si0  1  0.25000000  0.25009966  0.50019931  1
  Si  Si1  1  0.75000000  0.74990034  0.49980069  1
  Si  Si2  1  0.75000000  0.45585908  0.91171616  1
  Si  Si3  1  0.25000000  0.54414092  0.08828384  1
loop_
_geom_bond_atom_site_label_1
_geom_bond_atom_site_label_2
_geom_bond_distance
_geom_bond_site_symmetry_2
Nd0 Si2 3.078547 1_455
Nd0 Si2 3.078547 1_555
Nd0 Si2 3.078558 1_565
Nd0 Si2 3.078558 1_465
Nd0 Si1 3.079461 1_455
Nd0 Si1 3.079461 1_555
Nd0 Si0 3.115457 1_555
Nd0 Si0 3.115463 1_565
Nd0 Si3 3.233148 1_566
Nd0 Si3 3.233148 1_556
Nd1 Si3 3.078547 1_555
Nd1 Si3 3.078547 1_655
Nd1 Si3 3.078558 1_645
Nd1 Si3 3.078558 1_545
Nd1 Si0 3.079461 1_655
Nd1 Si0 3.079461 1_555
Nd1 Si1 3.115457 1_555
Nd1 Si1 3.115463 1_545
Nd1 Si2 3.233148 1_544
Nd1 Si2 3.233148 1_554
Co0 Si2 2.245367 1_555
Co0 Si0 2.306062 1_555
Co0 Si0 2.306062 1_655
Co0 Si1 2.358657 1_555
Co0 Si1 2.358661 1_545
Co0 Nd0 3.141066 1_655
Co0 Nd0 3.141066 1_555
Co0 Nd0 3.141074 1_645
Co0 Nd0 3.141074 1_545
Co1 Si3 2.245367 1_555
Co1 Si1 2.306062 1_455
Co1 Si1 2.306062 1_555
Co1 Si0 2.358657 1_555
Co1 Si0 2.358661 1_565
Co1 Nd1 3.141066 1_455
Co1 Nd1 3.141066 1_555
Co1 Nd1 3.141074 1_465
Co1 Nd1 3.141074 1_565
Si2 Si3 2.481370 1_656
Si2 Si3 2.481370 1_556
