# generated using pymatgen
data_CsV(MoO4)2
_symmetry_space_group_name_H-M   'P 1'
_cell_length_a   5.81818327
_cell_length_b   10.17708974
_cell_length_c   10.06451718
_cell_angle_alpha   60.17682317
_cell_angle_beta   89.97414522
_cell_angle_gamma   106.61653627
_symmetry_Int_Tables_number   1
_chemical_formula_structural   CsV(MoO4)2
_chemical_formula_sum   'Cs2 V2 Mo4 O16'
_cell_volume   488.07731893
_cell_formula_units_Z   2
loop_
 _symmetry_equiv_pos_site_id
 _symmetry_equiv_pos_as_xyz
  1  'x, y, z'
loop_
 _atom_site_type_symbol
 _atom_site_label
 _atom_site_symmetry_multiplicity
 _atom_site_fract_x
 _atom_site_fract_y
 _atom_site_fract_z
 _atom_site_occupancy
  Cs  Cs0  1  0.50041200  0.00087000  0.49913300  1
  Cs  Cs1  1  0.99960600  0.99913200  0.00086600  1
  V  V0  1  0.75004000  0.50001600  0.24999100  1
  V  V1  1  0.24997000  0.49997800  0.75000900  1
  Mo  Mo0  1  0.14497200  0.29029100  0.18784900  1
  Mo  Mo1  1  0.35501100  0.70971500  0.31216100  1
  Mo  Mo2  1  0.64543600  0.29080900  0.68791900  1
  Mo  Mo3  1  0.85454300  0.70917900  0.81207500  1
  O  O0  1  0.95967900  0.91963600  0.70630100  1
  O  O1  1  0.46020500  0.92027800  0.20616100  1
  O  O2  1  0.03980200  0.07972600  0.29384100  1
  O  O3  1  0.54032800  0.08035500  0.79369900  1
  O  O4  1  0.92138700  0.35581400  0.24048800  1
  O  O5  1  0.42151900  0.35619200  0.74024200  1
  O  O6  1  0.82149000  0.64278400  0.01711700  1
  O  O7  1  0.32175600  0.64327500  0.51700000  1
  O  O8  1  0.43394500  0.35579400  0.24038600  1
  O  O9  1  0.93480000  0.35625500  0.74017100  1
  O  O10  1  0.17823500  0.35671500  0.98300900  1
  O  O11  1  0.67852600  0.35723600  0.48287600  1
  O  O12  1  0.07847900  0.64379800  0.75975500  1
  O  O13  1  0.57861800  0.64421500  0.25950500  1
  O  O14  1  0.56518700  0.64371900  0.75983300  1
  O  O15  1  0.06605400  0.64421900  0.25961300  1
loop_
_geom_bond_atom_site_label_1
_geom_bond_atom_site_label_2
_geom_bond_distance
_geom_bond_site_symmetry_2
Cs0 O4 3.377152 1_555
Cs0 O8 3.379659 1_555
Cs0 O11 3.393258 1_555
Cs0 O12 3.394618 1_545
Cs0 O14 3.396520 1_545
Cs0 O7 3.397427 1_545
Cs0 O2 3.415591 1_655
Cs0 O2 3.417717 1_555
Cs0 O1 3.423185 1_545
Cs0 O0 3.423553 1_445
Cs0 O0 3.424171 1_545
Cs0 O3 3.431628 1_555
Cs1 O13 3.377037 1_555
Cs1 O15 3.379532 1_655
Cs1 O6 3.393112 1_555
Cs1 O5 3.394516 1_664
Cs1 O9 3.396379 1_564
Cs1 O10 3.397359 1_664
Cs1 O1 3.415667 1_555
Cs1 O1 3.417674 1_655
Cs1 O2 3.423227 1_665
Cs1 O3 3.423530 1_664
Cs1 O3 3.424202 1_564
Cs1 O0 3.431691 1_554
Mo0 O2 1.755071 1_555
Mo0 O8 1.805859 1_555
Mo0 O4 1.806783 1_455
Mo0 O10 1.811990 1_554
Mo1 O1 1.755054 1_555
Mo1 O15 1.805817 1_555
Mo1 O13 1.806801 1_555
Mo1 O7 1.811944 1_555
Mo2 O3 1.754146 1_555
Mo2 O5 1.805840 1_555
Mo2 O9 1.806230 1_555
Mo2 O11 1.813929 1_555
Mo3 O0 1.754171 1_555
Mo3 O12 1.805902 1_655
Mo3 O14 1.806179 1_555
Mo3 O6 1.813993 1_556
O4 V0 2.032984 1_555
O5 V1 2.031134 1_555
O6 V0 2.010879 1_555
O7 V1 2.012429 1_555
O8 V0 2.035533 1_555
O9 V1 2.030265 1_655
O10 V1 2.012326 1_555
O11 V0 2.010978 1_555
O12 V1 2.031119 1_555
O13 V0 2.033306 1_555
O14 V1 2.030488 1_555
O15 V0 2.035180 1_455
