# generated using pymatgen
data_NaCuPO4
_symmetry_space_group_name_H-M   'P 1'
_cell_length_a   5.08101039
_cell_length_b   7.08611714
_cell_length_c   8.99995500
_cell_angle_alpha   90.00000000
_cell_angle_beta   90.00000000
_cell_angle_gamma   98.49217491
_symmetry_Int_Tables_number   1
_chemical_formula_structural   NaCuPO4
_chemical_formula_sum   'Na4 Cu4 P4 O16'
_cell_volume   320.48733053
_cell_formula_units_Z   4
loop_
 _symmetry_equiv_pos_site_id
 _symmetry_equiv_pos_as_xyz
  1  'x, y, z'
loop_
 _atom_site_type_symbol
 _atom_site_label
 _atom_site_symmetry_multiplicity
 _atom_site_fract_x
 _atom_site_fract_y
 _atom_site_fract_z
 _atom_site_occupancy
  Na  Na0  1  0.95400700  0.30340200  0.64422200  1
  Na  Na1  1  0.45400700  0.80340200  0.85577800  1
  Na  Na2  1  0.54599300  0.19659800  0.14422200  1
  Na  Na3  1  0.04599300  0.69659800  0.35577800  1
  Cu  Cu0  1  0.00000000  0.50000000  0.00000000  1
  Cu  Cu1  1  0.50000000  0.50000000  0.50000000  1
  Cu  Cu2  1  0.00000000  0.00000000  0.00000000  1
  Cu  Cu3  1  0.50000000  0.00000000  0.50000000  1
  P  P0  1  0.95032900  0.80239000  0.67506000  1
  P  P1  1  0.54967100  0.69761000  0.17506000  1
  P  P2  1  0.04967100  0.19761000  0.32494000  1
  P  P3  1  0.45032900  0.30239000  0.82494000  1
  O  O0  1  0.79965100  0.96918700  0.63424700  1
  O  O1  1  0.20034900  0.03081300  0.36575300  1
  O  O2  1  0.70034900  0.53081300  0.13424700  1
  O  O3  1  0.24489300  0.82497600  0.62308000  1
  O  O4  1  0.18174500  0.38987300  0.39450500  1
  O  O5  1  0.29965100  0.46918700  0.86575300  1
  O  O6  1  0.81825500  0.61012700  0.60549500  1
  O  O7  1  0.25510700  0.67502400  0.12308000  1
  O  O8  1  0.75510700  0.17502400  0.37692000  1
  O  O9  1  0.43981600  0.28544400  0.65069000  1
  O  O10  1  0.74489300  0.32497600  0.87692000  1
  O  O11  1  0.93981600  0.78544400  0.84931000  1
  O  O12  1  0.68174500  0.88987300  0.10549500  1
  O  O13  1  0.31825500  0.11012700  0.89450500  1
  O  O14  1  0.06018400  0.21455600  0.15069000  1
  O  O15  1  0.56018400  0.71455600  0.34931000  1
loop_
_geom_bond_atom_site_label_1
_geom_bond_atom_site_label_2
_geom_bond_distance
_geom_bond_site_symmetry_2
Na0 O10 2.363524 1_555
Na0 O0 2.383980 1_545
Na0 O6 2.400850 1_555
Na0 O9 2.491055 1_655
Na0 O4 2.560471 1_655
Na0 O9 2.597522 1_555
Na0 O8 2.713814 1_555
Na0 O5 2.798243 1_655
Na1 O3 2.363524 1_555
Na1 O5 2.383980 1_555
Na1 O13 2.400850 1_565
Na1 O11 2.491055 1_555
Na1 O12 2.560471 1_556
Na1 O11 2.597522 1_455
Na1 O7 2.713814 1_556
Na1 O0 2.798243 1_555
Na2 O8 2.363524 1_555
Na2 O2 2.383980 1_555
Na2 O12 2.400850 1_545
Na2 O14 2.491055 1_555
Na2 O13 2.560471 1_554
Na2 O14 2.597522 1_655
Na2 O10 2.713814 1_554
Na2 O1 2.798243 1_555
Na3 O7 2.363524 1_555
Na3 O1 2.383980 1_565
Na3 O4 2.400850 1_555
Na3 O15 2.491055 1_455
Na3 O6 2.560471 1_455
Na3 O15 2.597522 1_555
Na3 O3 2.713814 1_555
Na3 O2 2.798243 1_455
Cu0 O5 1.980844 1_554
Cu0 O2 1.980844 1_455
Cu0 O7 1.992627 1_555
Cu0 O10 1.992627 1_454
Cu0 O11 2.491336 1_454
Cu0 O14 2.491336 1_555
Cu1 O6 1.937165 1_555
Cu1 O4 1.937165 1_555
Cu1 O15 2.026575 1_555
Cu1 O9 2.026575 1_555
Cu2 O13 1.937165 1_554
Cu2 O12 1.937165 1_445
Cu2 O14 2.026575 1_555
Cu2 O11 2.026575 1_444
Cu3 O0 1.980844 1_545
Cu3 O1 1.980844 1_555
Cu3 O3 1.992627 1_545
Cu3 O8 1.992627 1_555
Cu3 O9 2.491336 1_555
Cu3 O15 2.491336 1_545
O0 P0 1.544444 1_555
O1 P2 1.544444 1_555
O2 P1 1.544444 1_555
O3 P0 1.553634 1_455
O4 P2 1.558337 1_555
O5 P3 1.544444 1_555
O6 P0 1.558337 1_555
O7 P1 1.553634 1_555
O8 P2 1.553634 1_655
O9 P3 1.573138 1_555
O10 P3 1.553634 1_555
O11 P0 1.573138 1_555
O12 P1 1.558337 1_555
O13 P3 1.558337 1_555
O14 P2 1.573138 1_555
O15 P1 1.573138 1_555
