# generated using pymatgen
data_PH7CN3O3F
_symmetry_space_group_name_H-M   'P 1'
_cell_length_a   10.26474600
_cell_length_b   6.86978600
_cell_length_c   9.44141511
_cell_angle_alpha   75.43275410
_cell_angle_beta   90.00000000
_cell_angle_gamma   90.00000000
_symmetry_Int_Tables_number   1
_chemical_formula_structural   PH7CN3O3F
_chemical_formula_sum   'P4 H28 C4 N12 O12 F4'
_cell_volume   644.37392712
_cell_formula_units_Z   4
loop_
 _symmetry_equiv_pos_site_id
 _symmetry_equiv_pos_as_xyz
  1  'x, y, z'
loop_
 _atom_site_type_symbol
 _atom_site_label
 _atom_site_symmetry_multiplicity
 _atom_site_fract_x
 _atom_site_fract_y
 _atom_site_fract_z
 _atom_site_occupancy
  P  P0  1  0.60874600  0.15487800  0.12491700  1
  P  P1  1  0.89125400  0.15487800  0.62491700  1
  P  P2  1  0.10874600  0.84512200  0.37508300  1
  P  P3  1  0.39125400  0.84512200  0.87508300  1
  H  H0  1  0.28323800  0.24676000  0.64642400  1
  H  H1  1  0.21676200  0.24676000  0.14642400  1
  H  H2  1  0.06119000  0.46132100  0.74163800  1
  H  H3  1  0.44282700  0.75547700  0.58237800  1
  H  H4  1  0.55717300  0.24452300  0.41762200  1
  H  H5  1  0.51244700  0.16869200  0.90835800  1
  H  H6  1  0.78323800  0.75324000  0.85357600  1
  H  H7  1  0.56119000  0.53867900  0.75836200  1
  H  H8  1  0.43881000  0.46132100  0.24163800  1
  H  H9  1  0.49331800  0.15710900  0.59817600  1
  H  H10  1  0.05717300  0.75547700  0.08237800  1
  H  H11  1  0.00668200  0.15710900  0.09817600  1
  H  H12  1  0.50668200  0.84289100  0.40182400  1
  H  H13  1  0.68772800  0.60741000  0.99427800  1
  H  H14  1  0.99331800  0.84289100  0.90182400  1
  H  H15  1  0.71676200  0.75324000  0.35357600  1
  H  H16  1  0.93881000  0.53867900  0.25836200  1
  H  H17  1  0.81227200  0.60741000  0.49427800  1
  H  H18  1  0.01244700  0.83130800  0.59164200  1
  H  H19  1  0.31227200  0.39259000  0.00572200  1
  H  H20  1  0.28305800  0.54171500  0.28232600  1
  H  H21  1  0.98755300  0.16869200  0.40835800  1
  H  H22  1  0.78305800  0.45828500  0.21767400  1
  H  H23  1  0.94282700  0.24452300  0.91762200  1
  H  H24  1  0.48755300  0.83130800  0.09164200  1
  H  H25  1  0.71694200  0.45828500  0.71767400  1
  H  H26  1  0.21694200  0.54171500  0.78232600  1
  H  H27  1  0.18772800  0.39259000  0.50572200  1
  C  C0  1  0.62633100  0.66285600  0.55249400  1
  C  C1  1  0.37366900  0.33714400  0.44750600  1
  C  C2  1  0.12633100  0.33714400  0.94750600  1
  C  C3  1  0.87366900  0.66285600  0.05249400  1
  N  N0  1  0.64086800  0.55802600  0.69203800  1
  N  N1  1  0.01532100  0.24119200  0.99249000  1
  N  N2  1  0.72514600  0.67055000  0.45842400  1
  N  N3  1  0.48467900  0.24119200  0.49249000  1
  N  N4  1  0.14086800  0.44197400  0.80796200  1
  N  N5  1  0.77485400  0.67055000  0.95842400  1
  N  N6  1  0.27485400  0.32945000  0.54157600  1
  N  N7  1  0.98467900  0.75880800  0.00751000  1
  N  N8  1  0.22514600  0.32945000  0.04157600  1
  N  N9  1  0.35913200  0.44197400  0.30796200  1
  N  N10  1  0.85913200  0.55802600  0.19203800  1
  N  N11  1  0.51532100  0.75880800  0.50751000  1
  O  O0  1  0.62390600  0.30580600  0.21462700  1
  O  O1  1  0.12390600  0.69419400  0.28537300  1
  O  O2  1  0.37609400  0.69419400  0.78537300  1
  O  O3  1  0.04612600  0.73940600  0.52797400  1
  O  O4  1  0.04557300  0.04662000  0.30650000  1
  O  O5  1  0.95442700  0.95338000  0.69350000  1
  O  O6  1  0.54557300  0.95338000  0.19350000  1
  O  O7  1  0.45387400  0.73940600  0.02797400  1
  O  O8  1  0.87609400  0.30580600  0.71462700  1
  O  O9  1  0.54612600  0.26059400  0.97202600  1
  O  O10  1  0.95387400  0.26059400  0.47202600  1
  O  O11  1  0.45442700  0.04662000  0.80650000  1
  F  F0  1  0.75294600  0.10127800  0.08087800  1
  F  F1  1  0.25294600  0.89872200  0.41912200  1
  F  F2  1  0.74705400  0.10127800  0.58087800  1
  F  F3  1  0.24705400  0.89872200  0.91912200  1
loop_
_geom_bond_atom_site_label_1
_geom_bond_atom_site_label_2
_geom_bond_distance
_geom_bond_site_symmetry_2
H0 N6 1.013488 1_555
H1 N8 1.013488 1_555
H2 N4 1.018251 1_555
H3 N11 1.022629 1_555
H4 N3 1.022629 1_555
H5 O9 1.034582 1_555
H5 O11 1.545469 1_555
H6 N5 1.013488 1_555
H7 N0 1.018251 1_555
H8 N9 1.018251 1_555
H9 N3 1.023349 1_555
H10 N7 1.022629 1_455
H11 N1 1.023349 1_554
H12 N11 1.023349 1_555
H13 N5 1.014246 1_555
H14 N7 1.023349 1_556
H15 N2 1.013488 1_555
H16 N10 1.018251 1_555
H17 N2 1.014246 1_555
H18 O3 1.034582 1_555
H18 O5 1.545469 1_455
H19 N8 1.014246 1_555
H20 N9 1.026854 1_555
H21 O10 1.034582 1_555
H21 O4 1.545469 1_655
H22 N10 1.026854 1_555
H23 N1 1.022629 1_655
H24 O7 1.034582 1_555
H24 O6 1.545469 1_555
H25 N0 1.026854 1_555
H26 N4 1.026854 1_555
H27 N6 1.014246 1_555
C0 N11 1.331350 1_555
C0 N2 1.340456 1_555
C0 N0 1.341419 1_555
C1 N3 1.331350 1_555
C1 N6 1.340456 1_555
C1 N9 1.341419 1_555
C2 N1 1.331350 1_555
C2 N8 1.340456 1_556
C2 N4 1.341419 1_555
C3 N7 1.331350 1_555
C3 N5 1.340456 1_554
C3 N10 1.341419 1_555
O0 P0 1.502801 1_555
O1 P2 1.502801 1_555
O2 P3 1.502801 1_555
O3 P2 1.580178 1_555
O4 P2 1.518235 1_545
O5 P1 1.518235 1_565
O6 P0 1.518235 1_565
O7 P3 1.580178 1_554
O8 P1 1.502801 1_555
O9 P0 1.580178 1_556
O10 P1 1.580178 1_555
O11 P3 1.518235 1_545
F0 P0 1.605119 1_555
F1 P2 1.605119 1_555
F2 P1 1.605119 1_555
F3 P3 1.605119 1_555
