# generated using pymatgen
data_Sr2SiCl2O3
_symmetry_space_group_name_H-M   'P 1'
_cell_length_a   9.33677768
_cell_length_b   9.33677768
_cell_length_c   9.33677768
_cell_angle_alpha   105.55989501
_cell_angle_beta   105.55989501
_cell_angle_gamma   117.61375992
_symmetry_Int_Tables_number   1
_chemical_formula_structural   Sr2SiCl2O3
_chemical_formula_sum   'Sr8 Si4 Cl8 O12'
_cell_volume   616.95386610
_cell_formula_units_Z   4
loop_
 _symmetry_equiv_pos_site_id
 _symmetry_equiv_pos_as_xyz
  1  'x, y, z'
loop_
 _atom_site_type_symbol
 _atom_site_label
 _atom_site_symmetry_multiplicity
 _atom_site_fract_x
 _atom_site_fract_y
 _atom_site_fract_z
 _atom_site_occupancy
  Sr  Sr0  1  0.51907900  0.68866700  0.66755700  1
  Sr  Sr1  1  0.31133300  0.97889000  0.83041200  1
  Sr  Sr2  1  0.68866700  0.02111000  0.16958800  1
  Sr  Sr3  1  0.02111000  0.85152200  0.33244300  1
  Sr  Sr4  1  0.85152200  0.51907900  0.83041200  1
  Sr  Sr5  1  0.14847800  0.48092100  0.16958800  1
  Sr  Sr6  1  0.48092100  0.31133300  0.33244300  1
  Sr  Sr7  1  0.97889000  0.14847800  0.66755700  1
  Si  Si0  1  0.31794900  0.59654300  0.91449200  1
  Si  Si1  1  0.40345700  0.31794900  0.72140600  1
  Si  Si2  1  0.59654300  0.68205100  0.27859400  1
  Si  Si3  1  0.68205100  0.40345700  0.08550800  1
  Cl  Cl0  1  0.74489900  0.09639300  0.84129200  1
  Cl  Cl1  1  0.20101900  0.20101900  0.00000000  1
  Cl  Cl2  1  0.90360700  0.74489900  0.64850600  1
  Cl  Cl3  1  0.79898100  0.79898100  0.00000000  1
  Cl  Cl4  1  0.09639300  0.25510100  0.35149400  1
  Cl  Cl5  1  0.25000000  0.75000000  0.50000000  1
  Cl  Cl6  1  0.25510100  0.90360700  0.15870800  1
  Cl  Cl7  1  0.75000000  0.25000000  0.50000000  1
  O  O0  1  0.33589200  0.44968600  0.78557800  1
  O  O1  1  0.89064700  0.51645100  0.11565700  1
  O  O2  1  0.40079400  0.77499100  0.88434300  1
  O  O3  1  0.66410800  0.55031400  0.21442200  1
  O  O4  1  0.22500900  0.10935300  0.62580400  1
  O  O5  1  0.10935300  0.48354900  0.88434300  1
  O  O6  1  0.77499100  0.89064700  0.37419600  1
  O  O7  1  0.48354900  0.59920600  0.37419600  1
  O  O8  1  0.51645100  0.40079400  0.62580400  1
  O  O9  1  0.55031400  0.33589200  0.88620500  1
  O  O10  1  0.44968600  0.66410800  0.11379500  1
  O  O11  1  0.59920600  0.22500900  0.11565700  1
loop_
_geom_bond_atom_site_label_1
_geom_bond_atom_site_label_2
_geom_bond_distance
_geom_bond_site_symmetry_2
Cl0 Sr7 2.996726 1_555
Cl0 Sr0 2.996726 1_545
Cl1 Sr1 2.993787 1_544
Cl1 Sr5 2.993787 1_555
Cl1 Sr7 2.993787 1_454
Cl1 Sr6 2.993787 1_555
Cl2 Sr1 2.996726 1_655
Cl2 Sr4 2.996726 1_555
Cl3 Sr0 2.993787 1_554
Cl3 Sr3 2.993787 1_655
Cl3 Sr4 2.993787 1_554
Cl3 Sr2 2.993787 1_565
Cl4 Sr2 2.996726 1_455
Cl4 Sr5 2.996726 1_555
Cl5 Sr1 2.965286 1_555
Cl5 Sr3 2.965286 1_555
Cl5 Sr5 2.965286 1_555
Cl5 Sr0 2.965286 1_555
Cl6 Sr3 2.996726 1_555
Cl6 Sr6 2.996726 1_565
Cl7 Sr6 2.965286 1_555
Cl7 Sr4 2.965286 1_555
Cl7 Sr2 2.965286 1_555
Cl7 Sr7 2.965286 1_555
O0 Si0 1.671117 1_555
O0 Si1 1.672290 1_555
O0 Sr7 2.812613 1_455
O0 Sr0 2.812613 1_555
O1 Si3 1.620876 1_555
O1 Sr5 2.517608 1_655
O1 Sr4 2.597781 1_554
O1 Sr3 2.667476 1_655
O2 Si0 1.620884 1_555
O2 Sr1 2.517599 1_555
O2 Sr2 2.597780 1_566
O2 Sr0 2.667479 1_555
O3 Si3 1.671117 1_555
O3 Si2 1.672290 1_555
O3 Sr6 2.812613 1_555
O3 Sr3 2.812613 1_655
O4 Si1 1.620879 1_555
O4 Sr3 2.517607 1_545
O4 Sr7 2.597772 1_455
O4 Sr1 2.667479 1_545
O5 Si0 1.620876 1_555
O5 Sr4 2.517608 1_455
O5 Sr5 2.597781 1_556
O5 Sr7 2.667476 1_455
O6 Si2 1.620879 1_555
O6 Sr7 2.517607 1_565
O6 Sr3 2.597772 1_655
O6 Sr2 2.667479 1_565
O7 Si2 1.620876 1_555
O7 Sr0 2.517608 1_555
O7 Sr6 2.597781 1_555
O7 Sr5 2.667476 1_555
O8 Si1 1.620876 1_555
O8 Sr6 2.517608 1_555
O8 Sr0 2.597781 1_555
O8 Sr4 2.667476 1_555
O9 Si1 1.671111 1_555
O9 Si3 1.672298 1_556
O9 Sr4 2.812607 1_555
O9 Sr1 2.812616 1_545
O10 Si2 1.671111 1_555
O10 Si0 1.672298 1_554
O10 Sr5 2.812607 1_555
O10 Sr2 2.812616 1_565
O11 Si3 1.620884 1_555
O11 Sr2 2.517599 1_555
O11 Sr1 2.597780 1_544
O11 Sr6 2.667479 1_555
