# generated using pymatgen
data_Ca9Fe(PO4)7
_symmetry_space_group_name_H-M   'P 1'
_cell_length_a   13.87140323
_cell_length_b   13.87140323
_cell_length_c   13.87140226
_cell_angle_alpha   44.23604407
_cell_angle_beta   44.23604407
_cell_angle_gamma   44.23604586
_symmetry_Int_Tables_number   1
_chemical_formula_structural   Ca9Fe(PO4)7
_chemical_formula_sum   'Ca18 Fe2 P14 O56'
_cell_volume   1180.38404828
_cell_formula_units_Z   2
loop_
 _symmetry_equiv_pos_site_id
 _symmetry_equiv_pos_as_xyz
  1  'x, y, z'
loop_
 _atom_site_type_symbol
 _atom_site_label
 _atom_site_symmetry_multiplicity
 _atom_site_fract_x
 _atom_site_fract_y
 _atom_site_fract_z
 _atom_site_occupancy
  Ca  Ca0  1  0.91841800  0.93326900  0.34376300  1
  Ca  Ca1  1  0.54406200  0.52548500  0.94722900  1
  Ca  Ca2  1  0.09106700  0.06552600  0.64253800  1
  Ca  Ca3  1  0.84376300  0.43326900  0.41841800  1
  Ca  Ca4  1  0.14253800  0.56552600  0.59106700  1
  Ca  Ca5  1  0.56552600  0.59106700  0.14253800  1
  Ca  Ca6  1  0.02548500  0.04406200  0.44722900  1
  Ca  Ca7  1  0.04406200  0.44722900  0.02548500  1
  Ca  Ca8  1  0.94722900  0.54406200  0.52548500  1
  Ca  Ca9  1  0.41841800  0.84376300  0.43326900  1
  Ca  Ca10  1  0.93326900  0.34376300  0.91841800  1
  Ca  Ca11  1  0.64253800  0.09106700  0.06552600  1
  Ca  Ca12  1  0.44722900  0.02548500  0.04406200  1
  Ca  Ca13  1  0.06552600  0.64253800  0.09106700  1
  Ca  Ca14  1  0.34376300  0.91841800  0.93326900  1
  Ca  Ca15  1  0.59106700  0.14253800  0.56552600  1
  Ca  Ca16  1  0.52548500  0.94722900  0.54406200  1
  Ca  Ca17  1  0.43326900  0.41841800  0.84376300  1
  Fe  Fe0  1  0.99763600  0.99763600  0.99763600  1
  Fe  Fe1  1  0.49763600  0.49763600  0.49763600  1
  P  P0  1  0.31014800  0.77798100  0.81231800  1
  P  P1  1  0.67718500  0.22134100  0.18691000  1
  P  P2  1  0.81231800  0.31014800  0.77798100  1
  P  P3  1  0.77798100  0.81231800  0.31014800  1
  P  P4  1  0.27798100  0.81014800  0.31231800  1
  P  P5  1  0.22134100  0.18691000  0.67718500  1
  P  P6  1  0.22839100  0.22839100  0.22839100  1
  P  P7  1  0.31231800  0.27798100  0.81014800  1
  P  P8  1  0.72134100  0.17718500  0.68691000  1
  P  P9  1  0.18691000  0.67718500  0.22134100  1
  P  P10  1  0.68691000  0.72134100  0.17718500  1
  P  P11  1  0.72839100  0.72839100  0.72839100  1
  P  P12  1  0.81014800  0.31231800  0.27798100  1
  P  P13  1  0.17718500  0.68691000  0.72134100  1
  O  O0  1  0.59496100  0.23436900  0.14057200  1
  O  O1  1  0.83372200  0.64377500  0.36234900  1
  O  O2  1  0.14377500  0.33372200  0.86234900  1
  O  O3  1  0.63121000  0.38413100  0.36685200  1
  O  O4  1  0.38400300  0.81307200  0.82348700  1
  O  O5  1  0.62286400  0.35746900  0.61547700  1
  O  O6  1  0.23436900  0.14057200  0.59496100  1
  O  O7  1  0.68691400  0.68691400  0.68691400  1
  O  O8  1  0.73436900  0.09496100  0.64057200  1
  O  O9  1  0.10946700  0.66286900  0.38289600  1
  O  O10  1  0.33372200  0.86234900  0.14377500  1
  O  O11  1  0.64057200  0.73436900  0.09496100  1
  O  O12  1  0.90620500  0.34928400  0.60554700  1
  O  O13  1  0.85971100  0.64211600  0.12814500  1
  O  O14  1  0.40620500  0.10554700  0.84928400  1
  O  O15  1  0.11547700  0.85746900  0.12286400  1
  O  O16  1  0.86685200  0.88413100  0.13121000  1
  O  O17  1  0.84928400  0.40620500  0.10554700  1
  O  O18  1  0.88400300  0.32348700  0.31307200  1
  O  O19  1  0.16286900  0.60946700  0.88289600  1
  O  O20  1  0.60946700  0.88289600  0.16286900  1
  O  O21  1  0.38289600  0.10946700  0.66286900  1
  O  O22  1  0.81307200  0.82348700  0.38400300  1
  O  O23  1  0.36234900  0.83372200  0.64377500  1
  O  O24  1  0.88413100  0.13121000  0.86685200  1
  O  O25  1  0.86234900  0.14377500  0.33372200  1
  O  O26  1  0.85746900  0.12286400  0.11547700  1
  O  O27  1  0.82348700  0.38400300  0.81307200  1
  O  O28  1  0.34928400  0.60554700  0.90620500  1
  O  O29  1  0.13121000  0.86685200  0.88413100  1
  O  O30  1  0.14057200  0.59496100  0.23436900  1
  O  O31  1  0.66286900  0.38289600  0.10946700  1
  O  O32  1  0.60554700  0.90620500  0.34928400  1
  O  O33  1  0.64211600  0.12814500  0.85971100  1
  O  O34  1  0.38804400  0.23060900  0.10501600  1
  O  O35  1  0.10501600  0.38804400  0.23060900  1
  O  O36  1  0.23060900  0.10501600  0.38804400  1
  O  O37  1  0.14211600  0.35971100  0.62814500  1
  O  O38  1  0.61547700  0.62286400  0.35746900  1
  O  O39  1  0.88289600  0.16286900  0.60946700  1
  O  O40  1  0.38413100  0.36685200  0.63121000  1
  O  O41  1  0.12286400  0.11547700  0.85746900  1
  O  O42  1  0.62814500  0.14211600  0.35971100  1
  O  O43  1  0.35971100  0.62814500  0.14211600  1
  O  O44  1  0.18691400  0.18691400  0.18691400  1
  O  O45  1  0.09496100  0.64057200  0.73436900  1
  O  O46  1  0.12814500  0.85971100  0.64211600  1
  O  O47  1  0.32348700  0.31307200  0.88400300  1
  O  O48  1  0.88804400  0.60501600  0.73060900  1
  O  O49  1  0.10554700  0.84928400  0.40620500  1
  O  O50  1  0.60501600  0.73060900  0.88804400  1
  O  O51  1  0.31307200  0.88400300  0.32348700  1
  O  O52  1  0.36685200  0.63121000  0.38413100  1
  O  O53  1  0.73060900  0.88804400  0.60501600  1
  O  O54  1  0.64377500  0.36234900  0.83372200  1
  O  O55  1  0.35746900  0.61547700  0.62286400  1
loop_
_geom_bond_atom_site_label_1
_geom_bond_atom_site_label_2
_geom_bond_distance
_geom_bond_site_symmetry_2
Ca0 O25 2.338573 1_565
Ca0 O22 2.359632 1_555
Ca0 O53 2.422647 1_555
Ca0 O9 2.507321 1_655
Ca0 O49 2.507559 1_655
Ca0 O26 2.524983 1_565
Ca0 O15 2.542195 1_655
Ca0 O42 2.753402 1_565
Ca1 O28 2.419722 1_555
Ca1 O31 2.440903 1_556
Ca1 O43 2.503508 1_556
Ca1 O27 2.517041 1_555
Ca1 O7 2.549183 1_555
Ca1 O4 2.597507 1_555
Ca1 O54 2.648174 1_555
Ca1 O0 2.665911 1_556
Ca1 O50 2.930927 1_555
Ca2 O36 2.337909 1_555
Ca2 O6 2.360392 1_555
Ca2 O39 2.407373 1_455
Ca2 O24 2.503548 1_455
Ca2 O46 2.516110 1_545
Ca2 O29 2.525206 1_545
Ca2 O12 2.619170 1_455
Ca2 O23 2.678615 1_545
Ca3 O1 2.338573 1_555
Ca3 O18 2.359632 1_555
Ca3 O35 2.422647 1_655
Ca3 O39 2.507321 1_555
Ca3 O12 2.507559 1_555
Ca3 O38 2.524983 1_555
Ca3 O5 2.542195 1_555
Ca3 O13 2.753401 1_555
Ca4 O48 2.337909 1_455
Ca4 O45 2.360391 1_555
Ca4 O9 2.407373 1_555
Ca4 O52 2.503548 1_555
Ca4 O37 2.516110 1_555
Ca4 O40 2.525206 1_555
Ca4 O49 2.619170 1_555
Ca4 O2 2.678615 1_555
Ca5 O50 2.337909 1_554
Ca5 O11 2.360392 1_555
Ca5 O31 2.407373 1_555
Ca5 O3 2.503548 1_555
Ca5 O43 2.516110 1_555
Ca5 O52 2.525206 1_555
Ca5 O17 2.619170 1_555
Ca5 O10 2.678615 1_555
Ca6 O49 2.419722 1_545
Ca6 O39 2.440903 1_455
Ca6 O46 2.503508 1_545
Ca6 O18 2.517041 1_455
Ca6 O44 2.549183 1_555
Ca6 O51 2.597507 1_545
Ca6 O25 2.648174 1_455
Ca6 O8 2.665911 1_455
Ca6 O36 2.930927 1_555
Ca7 O17 2.419722 1_455
Ca7 O19 2.440903 1_554
Ca7 O13 2.503508 1_455
Ca7 O47 2.517041 1_554
Ca7 O44 2.549183 1_555
Ca7 O18 2.597507 1_455
Ca7 O2 2.648174 1_554
Ca7 O45 2.665911 1_554
Ca7 O35 2.930927 1_555
Ca8 O12 2.419722 1_555
Ca8 O9 2.440903 1_655
Ca8 O37 2.503508 1_655
Ca8 O22 2.517041 1_555
Ca8 O7 2.549183 1_555
Ca8 O27 2.597507 1_555
Ca8 O1 2.648174 1_555
Ca8 O30 2.665911 1_655
Ca8 O48 2.930927 1_555
Ca9 O23 2.338573 1_555
Ca9 O51 2.359632 1_555
Ca9 O36 2.422647 1_565
Ca9 O20 2.507321 1_555
Ca9 O32 2.507559 1_555
Ca9 O55 2.524983 1_555
Ca9 O38 2.542195 1_555
Ca9 O46 2.753401 1_555
Ca10 O2 2.338573 1_655
Ca10 O27 2.359632 1_555
Ca10 O48 2.422647 1_555
Ca10 O31 2.507321 1_556
Ca10 O17 2.507559 1_556
Ca10 O41 2.524983 1_655
Ca10 O26 2.542195 1_556
Ca10 O37 2.753401 1_655
Ca11 O34 2.337909 1_555
Ca11 O0 2.360391 1_555
Ca11 O20 2.407373 1_545
Ca11 O16 2.503548 1_545
Ca11 O33 2.516110 1_554
Ca11 O24 2.525206 1_554
Ca11 O32 2.619169 1_545
Ca11 O54 2.678615 1_554
Ca12 O14 2.419722 1_554
Ca12 O20 2.440903 1_545
Ca12 O33 2.503508 1_554
Ca12 O51 2.517041 1_545
Ca12 O44 2.549183 1_555
Ca12 O47 2.597507 1_554
Ca12 O10 2.648174 1_545
Ca12 O11 2.665911 1_545
Ca12 O34 2.930927 1_555
Ca13 O35 2.337909 1_555
Ca13 O30 2.360391 1_555
Ca13 O19 2.407373 1_554
Ca13 O29 2.503548 1_554
Ca13 O13 2.516110 1_455
Ca13 O16 2.525206 1_455
Ca13 O28 2.619170 1_554
Ca13 O1 2.678615 1_455
Ca14 O10 2.338573 1_556
Ca14 O4 2.359632 1_555
Ca14 O50 2.422647 1_555
Ca14 O21 2.507321 1_565
Ca14 O14 2.507559 1_565
Ca14 O15 2.524983 1_556
Ca14 O41 2.542195 1_565
Ca14 O43 2.753401 1_556
Ca15 O53 2.337909 1_545
Ca15 O8 2.360391 1_555
Ca15 O21 2.407373 1_555
Ca15 O40 2.503548 1_555
Ca15 O42 2.516110 1_555
Ca15 O3 2.525206 1_555
Ca15 O14 2.619169 1_555
Ca15 O25 2.678615 1_555
Ca16 O32 2.419722 1_555
Ca16 O21 2.440903 1_565
Ca16 O42 2.503508 1_565
Ca16 O4 2.517041 1_555
Ca16 O7 2.549183 1_555
Ca16 O22 2.597507 1_555
Ca16 O23 2.648174 1_555
Ca16 O6 2.665911 1_565
Ca16 O53 2.930927 1_555
Ca17 O54 2.338573 1_555
Ca17 O47 2.359632 1_555
Ca17 O34 2.422647 1_556
Ca17 O19 2.507321 1_555
Ca17 O28 2.507559 1_555
Ca17 O5 2.524983 1_555
Ca17 O55 2.542195 1_555
Ca17 O33 2.753402 1_555
Fe0 O15 2.035863 1_656
Fe0 O26 2.035863 1_566
Fe0 O41 2.035863 1_665
Fe0 O24 2.073461 1_565
Fe0 O29 2.073461 1_655
Fe0 O16 2.073461 1_556
Fe1 O55 2.035863 1_555
Fe1 O5 2.035863 1_555
Fe1 O38 2.035863 1_555
Fe1 O3 2.073461 1_555
Fe1 O52 2.073461 1_555
Fe1 O40 2.073461 1_555
O0 P1 1.528206 1_555
O1 P3 1.540842 1_555
O2 P7 1.540842 1_555
O3 P12 1.582707 1_555
O4 P0 1.536411 1_555
O5 P8 1.611040 1_555
O6 P5 1.528206 1_555
O7 P11 1.554370 1_555
O8 P8 1.528206 1_555
O9 P9 1.560080 1_555
O10 P4 1.540842 1_555
O11 P10 1.528206 1_555
O12 P2 1.549419 1_555
O13 P10 1.541459 1_555
O14 P7 1.549419 1_555
O15 P9 1.611040 1_555
O16 P3 1.582706 1_555
O17 P12 1.549419 1_555
O18 P12 1.536411 1_555
O19 P13 1.560080 1_555
O20 P10 1.560081 1_555
O21 P5 1.560081 1_555
O22 P3 1.536410 1_555
O23 P0 1.540842 1_555
O24 P2 1.582707 1_555
O25 P12 1.540842 1_555
O26 P1 1.611040 1_555
O27 P2 1.536411 1_555
O28 P0 1.549419 1_555
O29 P0 1.582707 1_555
O30 P9 1.528206 1_555
O31 P1 1.560081 1_555
O32 P3 1.549419 1_555
O33 P8 1.541458 1_555
O34 P6 1.557415 1_555
O35 P6 1.557415 1_555
O36 P6 1.557415 1_555
O37 P5 1.541459 1_555
O38 P10 1.611040 1_555
O39 P8 1.560081 1_555
O40 P7 1.582706 1_555
O41 P5 1.611040 1_555
O42 P1 1.541458 1_555
O43 P9 1.541459 1_555
O44 P6 1.554370 1_555
O45 P13 1.528206 1_555
O46 P13 1.541459 1_555
O47 P7 1.536410 1_555
O48 P11 1.557415 1_555
O49 P4 1.549419 1_555
O50 P11 1.557415 1_555
O51 P4 1.536411 1_555
O52 P4 1.582707 1_555
O53 P11 1.557415 1_555
O54 P2 1.540842 1_555
O55 P13 1.611040 1_555
