# generated using pymatgen
data_SnHg7(P2Br3)2
_symmetry_space_group_name_H-M   'P 1'
_cell_length_a   12.80616600
_cell_length_b   12.80616600
_cell_length_c   12.80616600
_cell_angle_alpha   90.00000000
_cell_angle_beta   90.00000000
_cell_angle_gamma   90.00000000
_symmetry_Int_Tables_number   1
_chemical_formula_structural   SnHg7(P2Br3)2
_chemical_formula_sum   'Sn4 Hg28 P16 Br24'
_cell_volume   2100.18417251
_cell_formula_units_Z   4
loop_
 _symmetry_equiv_pos_site_id
 _symmetry_equiv_pos_as_xyz
  1  'x, y, z'
loop_
 _atom_site_type_symbol
 _atom_site_label
 _atom_site_symmetry_multiplicity
 _atom_site_fract_x
 _atom_site_fract_y
 _atom_site_fract_z
 _atom_site_occupancy
  Sn  Sn0  1  0.74002500  0.75997500  0.24002500  1
  Sn  Sn1  1  0.25997500  0.25997500  0.25997500  1
  Sn  Sn2  1  0.75997500  0.24002500  0.74002500  1
  Sn  Sn3  1  0.24002500  0.74002500  0.75997500  1
  Hg  Hg0  1  0.67814000  0.39932400  0.07744400  1
  Hg  Hg1  1  0.25105100  0.42892900  0.50307900  1
  Hg  Hg2  1  0.53807700  0.53807700  0.53807700  1
  Hg  Hg3  1  0.24894900  0.57107100  0.00307900  1
  Hg  Hg4  1  0.74894900  0.92892900  0.99692100  1
  Hg  Hg5  1  0.60067600  0.57744400  0.82186000  1
  Hg  Hg6  1  0.75105100  0.07107100  0.49692100  1
  Hg  Hg7  1  0.99692100  0.74894900  0.92892900  1
  Hg  Hg8  1  0.92892900  0.99692100  0.74894900  1
  Hg  Hg9  1  0.03807700  0.96192300  0.46192300  1
  Hg  Hg10  1  0.42892900  0.50307900  0.25105100  1
  Hg  Hg11  1  0.57107100  0.00307900  0.24894900  1
  Hg  Hg12  1  0.42255600  0.32186000  0.89932400  1
  Hg  Hg13  1  0.32186000  0.89932400  0.42255600  1
  Hg  Hg14  1  0.00307900  0.24894900  0.57107100  1
  Hg  Hg15  1  0.39932400  0.07744400  0.67814000  1
  Hg  Hg16  1  0.17814000  0.10067600  0.92255600  1
  Hg  Hg17  1  0.07107100  0.49692100  0.75105100  1
  Hg  Hg18  1  0.82186000  0.60067600  0.57744400  1
  Hg  Hg19  1  0.10067600  0.92255600  0.17814000  1
  Hg  Hg20  1  0.07744400  0.67814000  0.39932400  1
  Hg  Hg21  1  0.46192300  0.03807700  0.96192300  1
  Hg  Hg22  1  0.49692100  0.75105100  0.07107100  1
  Hg  Hg23  1  0.57744400  0.82186000  0.60067600  1
  Hg  Hg24  1  0.96192300  0.46192300  0.03807700  1
  Hg  Hg25  1  0.50307900  0.25105100  0.42892900  1
  Hg  Hg26  1  0.89932400  0.42255600  0.32186000  1
  Hg  Hg27  1  0.92255600  0.17814000  0.10067600  1
  P  P0  1  0.14729500  0.85270500  0.35270500  1
  P  P1  1  0.35270500  0.14729500  0.85270500  1
  P  P2  1  0.92876900  0.07123100  0.57123100  1
  P  P3  1  0.57123100  0.92876900  0.07123100  1
  P  P4  1  0.03089700  0.03089700  0.03089700  1
  P  P5  1  0.64729500  0.64729500  0.64729500  1
  P  P6  1  0.42876900  0.42876900  0.42876900  1
  P  P7  1  0.46910300  0.96910300  0.53089700  1
  P  P8  1  0.53089700  0.46910300  0.96910300  1
  P  P9  1  0.93145900  0.93145900  0.93145900  1
  P  P10  1  0.06854100  0.43145900  0.56854100  1
  P  P11  1  0.85270500  0.35270500  0.14729500  1
  P  P12  1  0.07123100  0.57123100  0.92876900  1
  P  P13  1  0.96910300  0.53089700  0.46910300  1
  P  P14  1  0.43145900  0.56854100  0.06854100  1
  P  P15  1  0.56854100  0.06854100  0.43145900  1
  Br  Br0  1  0.80878500  0.44266400  0.79487900  1
  Br  Br1  1  0.31543300  0.47781000  0.75981400  1
  Br  Br2  1  0.20512100  0.30878500  0.05733600  1
  Br  Br3  1  0.25981400  0.18456700  0.52219000  1
  Br  Br4  1  0.94266400  0.70512100  0.19121500  1
  Br  Br5  1  0.24018600  0.81543300  0.02219000  1
  Br  Br6  1  0.30878500  0.05733600  0.20512100  1
  Br  Br7  1  0.02219000  0.24018600  0.81543300  1
  Br  Br8  1  0.70512100  0.19121500  0.94266400  1
  Br  Br9  1  0.74018600  0.68456700  0.97781000  1
  Br  Br10  1  0.52219000  0.25981400  0.18456700  1
  Br  Br11  1  0.29487900  0.69121500  0.55733600  1
  Br  Br12  1  0.55733600  0.29487900  0.69121500  1
  Br  Br13  1  0.47781000  0.75981400  0.31543300  1
  Br  Br14  1  0.05733600  0.20512100  0.30878500  1
  Br  Br15  1  0.68456700  0.97781000  0.74018600  1
  Br  Br16  1  0.79487900  0.80878500  0.44266400  1
  Br  Br17  1  0.44266400  0.79487900  0.80878500  1
  Br  Br18  1  0.19121500  0.94266400  0.70512100  1
  Br  Br19  1  0.81543300  0.02219000  0.24018600  1
  Br  Br20  1  0.75981400  0.31543300  0.47781000  1
  Br  Br21  1  0.18456700  0.52219000  0.25981400  1
  Br  Br22  1  0.97781000  0.74018600  0.68456700  1
  Br  Br23  1  0.69121500  0.55733600  0.29487900  1
loop_
_geom_bond_atom_site_label_1
_geom_bond_atom_site_label_2
_geom_bond_distance
_geom_bond_site_symmetry_2
Hg0 P11 2.480744 1_555
Hg0 P8 2.505803 1_554
Hg1 P6 2.466831 1_555
Hg1 P10 2.483260 1_555
Hg2 P5 2.422557 1_555
Hg2 P6 2.424553 1_555
Hg3 P12 2.466831 1_554
Hg3 P14 2.483260 1_555
Hg4 P3 2.466831 1_556
Hg4 P9 2.483260 1_555
Hg5 P5 2.480744 1_555
Hg5 P8 2.505803 1_555
Hg6 P2 2.466831 1_555
Hg6 P15 2.483260 1_555
Hg7 P12 2.466831 1_655
Hg7 P9 2.483260 1_555
Hg8 P2 2.466831 1_565
Hg8 P9 2.483260 1_555
Hg9 P0 2.422557 1_555
Hg9 P2 2.424553 1_465
Hg10 P6 2.466831 1_555
Hg10 P14 2.483260 1_555
Hg11 P3 2.466831 1_545
Hg11 P15 2.483260 1_555
Hg12 P1 2.480744 1_555
Hg12 P8 2.505803 1_555
Hg13 P0 2.480744 1_555
Hg13 P7 2.505803 1_555
Hg14 P2 2.466831 1_455
Hg14 P10 2.483260 1_555
Hg15 P1 2.480744 1_555
Hg15 P7 2.505803 1_545
Hg16 P1 2.480744 1_555
Hg16 P4 2.505803 1_556
Hg17 P12 2.466831 1_555
Hg17 P10 2.483260 1_555
Hg18 P5 2.480744 1_555
Hg18 P13 2.505803 1_555
Hg19 P0 2.480744 1_555
Hg19 P4 2.505803 1_565
Hg20 P0 2.480744 1_555
Hg20 P13 2.505803 1_455
Hg21 P1 2.422557 1_555
Hg21 P3 2.424553 1_546
Hg22 P3 2.466831 1_555
Hg22 P14 2.483260 1_555
Hg23 P5 2.480744 1_555
Hg23 P7 2.505803 1_555
Hg24 P11 2.422557 1_555
Hg24 P12 2.424553 1_654
Hg25 P6 2.466831 1_555
Hg25 P15 2.483260 1_555
Hg26 P11 2.480744 1_555
Hg26 P13 2.505803 1_555
Hg27 P11 2.480744 1_555
Hg27 P4 2.505803 1_655
P4 P9 2.205627 1_444
P10 P13 2.205627 1_455
P14 P8 2.205627 1_554
P15 P7 2.205627 1_545
Br0 Sn2 2.760136 1_555
Br0 Hg5 3.193925 1_555
Br1 Hg12 3.010369 1_555
Br1 Hg17 3.140901 1_555
Br2 Sn1 2.760136 1_555
Br2 Hg16 3.193925 1_554
Br3 Hg15 3.010369 1_555
Br3 Hg1 3.140901 1_555
Br4 Sn0 2.760136 1_555
Br4 Hg20 3.193925 1_655
Br5 Hg19 3.010369 1_555
Br5 Hg3 3.140901 1_555
Br6 Sn1 2.760136 1_555
Br6 Hg19 3.193925 1_545
Br7 Hg16 3.010369 1_555
Br7 Hg14 3.140901 1_555
Br8 Sn2 2.760136 1_555
Br8 Hg0 3.193925 1_556
Br9 Hg5 3.010369 1_555
Br9 Hg4 3.140901 1_555
Br10 Hg0 3.010369 1_555
Br10 Hg25 3.140901 1_555
Br11 Sn3 2.760136 1_555
Br11 Hg13 3.193925 1_555
Br12 Sn2 2.760136 1_555
Br12 Hg12 3.193925 1_555
Br13 Hg13 3.010369 1_555
Br13 Hg22 3.140901 1_555
Br14 Sn1 2.760136 1_555
Br14 Hg27 3.193925 1_455
Br15 Hg23 3.010369 1_555
Br15 Hg8 3.140901 1_555
Br16 Sn0 2.760136 1_555
Br16 Hg18 3.193925 1_555
Br17 Sn3 2.760136 1_555
Br17 Hg23 3.193925 1_555
Br18 Sn3 2.760136 1_555
Br18 Hg15 3.193925 1_565
Br19 Hg27 3.010369 1_555
Br19 Hg11 3.140901 1_555
Br20 Hg26 3.010369 1_555
Br20 Hg6 3.140901 1_555
Br21 Hg20 3.010369 1_555
Br21 Hg10 3.140901 1_555
Br22 Hg18 3.010369 1_555
Br22 Hg7 3.140901 1_555
Br23 Sn0 2.760136 1_555
Br23 Hg26 3.193925 1_555
