# generated using pymatgen
data_Rb2Ca2(SO4)3
_symmetry_space_group_name_H-M   'P 1'
_cell_length_a   10.75163600
_cell_length_b   10.75163600
_cell_length_c   10.75163600
_cell_angle_alpha   90.00000000
_cell_angle_beta   90.00000000
_cell_angle_gamma   90.00000000
_symmetry_Int_Tables_number   1
_chemical_formula_structural   Rb2Ca2(SO4)3
_chemical_formula_sum   'Rb8 Ca8 S12 O48'
_cell_volume   1242.86414207
_cell_formula_units_Z   4
loop_
 _symmetry_equiv_pos_site_id
 _symmetry_equiv_pos_as_xyz
  1  'x, y, z'
loop_
 _atom_site_type_symbol
 _atom_site_label
 _atom_site_symmetry_multiplicity
 _atom_site_fract_x
 _atom_site_fract_y
 _atom_site_fract_z
 _atom_site_occupancy
  Rb  Rb0  1  0.55024400  0.44975600  0.94975600  1
  Rb  Rb1  1  0.68406300  0.18406300  0.31593700  1
  Rb  Rb2  1  0.44975600  0.94975600  0.55024400  1
  Rb  Rb3  1  0.81593700  0.81593700  0.81593700  1
  Rb  Rb4  1  0.05024400  0.05024400  0.05024400  1
  Rb  Rb5  1  0.94975600  0.55024400  0.44975600  1
  Rb  Rb6  1  0.31593700  0.68406300  0.18406300  1
  Rb  Rb7  1  0.18406300  0.31593700  0.68406300  1
  Ca  Ca0  1  0.16857700  0.66857700  0.83142300  1
  Ca  Ca1  1  0.83142300  0.16857700  0.66857700  1
  Ca  Ca2  1  0.40780900  0.09219100  0.90780900  1
  Ca  Ca3  1  0.66857700  0.83142300  0.16857700  1
  Ca  Ca4  1  0.09219100  0.90780900  0.40780900  1
  Ca  Ca5  1  0.59219100  0.59219100  0.59219100  1
  Ca  Ca6  1  0.90780900  0.40780900  0.09219100  1
  Ca  Ca7  1  0.33142300  0.33142300  0.33142300  1
  S  S0  1  0.62498000  0.51090200  0.27595600  1
  S  S1  1  0.27595600  0.62498000  0.51090200  1
  S  S2  1  0.51090200  0.27595600  0.62498000  1
  S  S3  1  0.22404400  0.37502000  0.01090200  1
  S  S4  1  0.37502000  0.01090200  0.22404400  1
  S  S5  1  0.87502000  0.48909800  0.77595600  1
  S  S6  1  0.72404400  0.12498000  0.98909800  1
  S  S7  1  0.01090200  0.22404400  0.37502000  1
  S  S8  1  0.77595600  0.87502000  0.48909800  1
  S  S9  1  0.12498000  0.98909800  0.72404400  1
  S  S10  1  0.48909800  0.77595600  0.87502000  1
  S  S11  1  0.98909800  0.72404400  0.12498000  1
  O  O0  1  0.40629900  0.14116700  0.25808500  1
  O  O1  1  0.03937900  0.80999500  0.22116500  1
  O  O2  1  0.90625400  0.82760200  0.49484800  1
  O  O3  1  0.90629900  0.35883300  0.74191500  1
  O  O4  1  0.30999500  0.27883500  0.96062100  1
  O  O5  1  0.17239800  0.99484800  0.59374600  1
  O  O6  1  0.19000500  0.72116500  0.46062100  1
  O  O7  1  0.01136000  0.06736300  0.73687300  1
  O  O8  1  0.73687300  0.01136000  0.06736300  1
  O  O9  1  0.85883300  0.75808500  0.09370100  1
  O  O10  1  0.75808500  0.09370100  0.85883300  1
  O  O11  1  0.82760200  0.49484800  0.90625400  1
  O  O12  1  0.24191500  0.59370100  0.64116700  1
  O  O13  1  0.49484800  0.90625400  0.82760200  1
  O  O14  1  0.74191500  0.90629900  0.35883300  1
  O  O15  1  0.14116700  0.25808500  0.40629900  1
  O  O16  1  0.69000500  0.77883500  0.53937900  1
  O  O17  1  0.56736300  0.76312700  0.98864000  1
  O  O18  1  0.59374600  0.17239800  0.99484800  1
  O  O19  1  0.09374600  0.32760200  0.00515200  1
  O  O20  1  0.50515200  0.40625400  0.67239800  1
  O  O21  1  0.32760200  0.00515200  0.09374600  1
  O  O22  1  0.67239800  0.50515200  0.40625400  1
  O  O23  1  0.80999500  0.22116500  0.03937900  1
  O  O24  1  0.46062100  0.19000500  0.72116500  1
  O  O25  1  0.00515200  0.09374600  0.32760200  1
  O  O26  1  0.77883500  0.53937900  0.69000500  1
  O  O27  1  0.53937900  0.69000500  0.77883500  1
  O  O28  1  0.64116700  0.24191500  0.59370100  1
  O  O29  1  0.43263700  0.26312700  0.51136000  1
  O  O30  1  0.96062100  0.30999500  0.27883500  1
  O  O31  1  0.72116500  0.46062100  0.19000500  1
  O  O32  1  0.99484800  0.59374600  0.17239800  1
  O  O33  1  0.40625400  0.67239800  0.50515200  1
  O  O34  1  0.93263700  0.23687300  0.48864000  1
  O  O35  1  0.22116500  0.03937900  0.80999500  1
  O  O36  1  0.59370100  0.64116700  0.24191500  1
  O  O37  1  0.06736300  0.73687300  0.01136000  1
  O  O38  1  0.27883500  0.96062100  0.30999500  1
  O  O39  1  0.25808500  0.40629900  0.14116700  1
  O  O40  1  0.76312700  0.98864000  0.56736300  1
  O  O41  1  0.98864000  0.56736300  0.76312700  1
  O  O42  1  0.23687300  0.48864000  0.93263700  1
  O  O43  1  0.09370100  0.85883300  0.75808500  1
  O  O44  1  0.26312700  0.51136000  0.43263700  1
  O  O45  1  0.35883300  0.74191500  0.90629900  1
  O  O46  1  0.51136000  0.43263700  0.26312700  1
  O  O47  1  0.48864000  0.93263700  0.23687300  1
loop_
_geom_bond_atom_site_label_1
_geom_bond_atom_site_label_2
_geom_bond_distance
_geom_bond_site_symmetry_2
Ca0 O12 2.335413 1_555
Ca0 O45 2.335413 1_555
Ca0 O43 2.335413 1_555
Ca0 O42 2.337979 1_555
Ca0 O37 2.337979 1_556
Ca0 O41 2.337979 1_455
Ca1 O28 2.335413 1_555
Ca1 O3 2.335413 1_555
Ca1 O10 2.335413 1_555
Ca1 O34 2.337979 1_555
Ca1 O7 2.337979 1_655
Ca1 O40 2.337979 1_545
Ca2 O4 2.335672 1_555
Ca2 O35 2.335672 1_555
Ca2 O24 2.335672 1_555
Ca2 O21 2.369791 1_556
Ca2 O13 2.369791 1_545
Ca2 O18 2.369791 1_555
Ca3 O36 2.335413 1_555
Ca3 O9 2.335413 1_555
Ca3 O14 2.335413 1_555
Ca3 O47 2.337979 1_555
Ca3 O8 2.337979 1_565
Ca3 O17 2.337979 1_554
Ca4 O38 2.335672 1_555
Ca4 O1 2.335672 1_555
Ca4 O6 2.335672 1_555
Ca4 O25 2.369791 1_565
Ca4 O2 2.369791 1_455
Ca4 O5 2.369791 1_555
Ca5 O27 2.335672 1_555
Ca5 O16 2.335672 1_555
Ca5 O26 2.335672 1_555
Ca5 O33 2.369791 1_555
Ca5 O20 2.369791 1_555
Ca5 O22 2.369791 1_555
Ca6 O30 2.335672 1_555
Ca6 O23 2.335672 1_555
Ca6 O31 2.335672 1_555
Ca6 O19 2.369791 1_655
Ca6 O11 2.369791 1_554
Ca6 O32 2.369791 1_555
Ca7 O15 2.335413 1_555
Ca7 O0 2.335413 1_555
Ca7 O39 2.335413 1_555
Ca7 O46 2.337979 1_555
Ca7 O29 2.337979 1_555
Ca7 O44 2.337979 1_555
O0 S4 1.486144 1_555
O0 Rb1 3.085172 1_555
O1 S11 1.488521 1_455
O1 Rb4 3.172218 1_565
O1 Rb6 3.291472 1_555
O2 S8 1.492081 1_555
O2 Rb5 3.057195 1_555
O3 S5 1.486144 1_555
O3 Rb7 3.085172 1_655
O4 S3 1.488521 1_556
O4 Rb0 3.172218 1_555
O4 Rb7 3.291472 1_555
O5 S9 1.492081 1_555
O5 Rb2 3.057195 1_555
O6 S1 1.488521 1_555
O6 Rb5 3.172218 1_455
O6 Rb6 3.291472 1_555
O7 S9 1.489771 1_545
O7 Rb7 3.303470 1_555
O7 Rb4 3.400075 1_556
O8 S6 1.489771 1_554
O8 Rb1 3.303470 1_555
O8 Rb4 3.400075 1_655
O9 S11 1.486144 1_555
O9 Rb3 3.085172 1_554
O10 S6 1.486144 1_555
O10 Rb3 3.085172 1_545
O11 S5 1.492081 1_555
O11 Rb0 3.057195 1_555
O12 S1 1.486144 1_555
O12 Rb7 3.085172 1_555
O13 S10 1.492081 1_555
O13 Rb2 3.057195 1_555
O14 S8 1.486144 1_555
O14 Rb1 3.085172 1_565
O15 S7 1.486144 1_555
O15 Rb7 3.085172 1_555
O16 S8 1.488521 1_555
O16 Rb2 3.172218 1_555
O16 Rb3 3.291472 1_555
O17 S10 1.489771 1_555
O17 Rb3 3.303470 1_555
O17 Rb0 3.400075 1_555
O18 S6 1.492081 1_555
O18 Rb0 3.057195 1_555
O19 S3 1.492081 1_555
O19 Rb4 3.057195 1_555
O20 S2 1.492081 1_555
O20 Rb0 3.057195 1_555
O21 S4 1.492081 1_555
O21 Rb4 3.057195 1_555
O22 S0 1.492081 1_555
O22 Rb5 3.057195 1_555
O23 S6 1.488521 1_554
O23 Rb4 3.172218 1_655
O23 Rb1 3.291472 1_555
O24 S2 1.488521 1_555
O24 Rb2 3.172218 1_545
O24 Rb7 3.291472 1_555
O25 S7 1.492081 1_555
O25 Rb4 3.057195 1_555
O26 S5 1.488521 1_555
O26 Rb5 3.172218 1_555
O26 Rb3 3.291472 1_555
O27 S10 1.488521 1_555
O27 Rb0 3.172218 1_555
O27 Rb3 3.291472 1_555
O28 S2 1.486144 1_555
O28 Rb1 3.085172 1_555
O29 S2 1.489771 1_555
O29 Rb7 3.303470 1_555
O29 Rb2 3.400075 1_545
O30 S7 1.488521 1_655
O30 Rb5 3.172218 1_555
O30 Rb1 3.291472 1_555
O31 S0 1.488521 1_555
O31 Rb0 3.172218 1_554
O31 Rb1 3.291472 1_555
O32 S11 1.492081 1_555
O32 Rb5 3.057195 1_555
O33 S1 1.492081 1_555
O33 Rb2 3.057195 1_555
O34 S7 1.489771 1_655
O34 Rb1 3.303470 1_555
O34 Rb5 3.400075 1_555
O35 S9 1.488521 1_545
O35 Rb4 3.172218 1_556
O35 Rb7 3.291472 1_555
O36 S0 1.486144 1_555
O36 Rb6 3.085172 1_555
O37 S11 1.489771 1_455
O37 Rb6 3.303470 1_555
O37 Rb4 3.400075 1_565
O38 S4 1.488521 1_565
O38 Rb2 3.172218 1_555
O38 Rb6 3.291472 1_555
O39 S3 1.486144 1_555
O39 Rb6 3.085172 1_555
O40 S8 1.489771 1_555
O40 Rb3 3.303470 1_555
O40 Rb2 3.400075 1_555
O41 S5 1.489771 1_555
O41 Rb3 3.303470 1_555
O41 Rb5 3.400075 1_555
O42 S3 1.489771 1_556
O42 Rb7 3.303470 1_555
O42 Rb0 3.400075 1_555
O43 S9 1.486144 1_555
O43 Rb3 3.085172 1_455
O44 S1 1.489771 1_555
O44 Rb6 3.303470 1_555
O44 Rb5 3.400075 1_455
O45 S10 1.486144 1_555
O45 Rb6 3.085172 1_556
O46 S0 1.489771 1_555
O46 Rb1 3.303470 1_555
O46 Rb0 3.400075 1_554
O47 S4 1.489771 1_565
O47 Rb6 3.303470 1_555
O47 Rb2 3.400075 1_555
