# generated using pymatgen
data_LiFePO4
_symmetry_space_group_name_H-M   'P 1'
_cell_length_a   8.64378384
_cell_length_b   8.64378384
_cell_length_c   8.64378351
_cell_angle_alpha   107.65274601
_cell_angle_beta   107.65274601
_cell_angle_gamma   107.65275480
_symmetry_Int_Tables_number   1
_chemical_formula_structural   LiFePO4
_chemical_formula_sum   'Li6 Fe6 P6 O24'
_cell_volume   527.97559768
_cell_formula_units_Z   6
loop_
 _symmetry_equiv_pos_site_id
 _symmetry_equiv_pos_as_xyz
  1  'x, y, z'
loop_
 _atom_site_type_symbol
 _atom_site_label
 _atom_site_symmetry_multiplicity
 _atom_site_fract_x
 _atom_site_fract_y
 _atom_site_fract_z
 _atom_site_occupancy
  Li  Li0  1  0.89171300  0.12378800  0.72080300  1
  Li  Li1  1  0.42433300  0.21032900  0.60907000  1
  Li  Li2  1  0.60907000  0.42433300  0.21032900  1
  Li  Li3  1  0.12378800  0.72080300  0.89171300  1
  Li  Li4  1  0.21032900  0.60907000  0.42433300  1
  Li  Li5  1  0.72080300  0.89171300  0.12378800  1
  Fe  Fe0  1  0.45738500  0.05204700  0.23030900  1
  Fe  Fe1  1  0.76823300  0.53673300  0.94313400  1
  Fe  Fe2  1  0.05204700  0.23030900  0.45738500  1
  Fe  Fe3  1  0.94313400  0.76823300  0.53673300  1
  Fe  Fe4  1  0.23030900  0.45738500  0.05204700  1
  Fe  Fe5  1  0.53673300  0.94313400  0.76823300  1
  P  P0  1  0.28093900  0.09703600  0.87557600  1
  P  P1  1  0.78979100  0.38517400  0.57285400  1
  P  P2  1  0.87557600  0.28093900  0.09703600  1
  P  P3  1  0.38517400  0.57285400  0.78979100  1
  P  P4  1  0.57285400  0.78979100  0.38517400  1
  P  P5  1  0.09703600  0.87557600  0.28093900  1
  O  O0  1  0.96841500  0.29463000  0.96903000  1
  O  O1  1  0.39943100  0.09543200  0.77149700  1
  O  O2  1  0.08069000  0.02718500  0.74059300  1
  O  O3  1  0.90410300  0.27757200  0.59184000  1
  O  O4  1  0.28928600  0.02462300  0.35202500  1
  O  O5  1  0.74059300  0.08069000  0.02718500  1
  O  O6  1  0.68125100  0.36176400  0.68540600  1
  O  O7  1  0.65484700  0.30932700  0.37252400  1
  O  O8  1  0.30932700  0.37252400  0.65484700  1
  O  O9  1  0.91591300  0.58894900  0.64683400  1
  O  O10  1  0.77149700  0.39943100  0.09543200  1
  O  O11  1  0.35202500  0.28928600  0.02462300  1
  O  O12  1  0.58894900  0.64683400  0.91591300  1
  O  O13  1  0.27757200  0.59184000  0.90410300  1
  O  O14  1  0.02462300  0.35202500  0.28928600  1
  O  O15  1  0.36176400  0.68540600  0.68125100  1
  O  O16  1  0.68540600  0.68125100  0.36176400  1
  O  O17  1  0.37252400  0.65484700  0.30932700  1
  O  O18  1  0.64683400  0.91591300  0.58894900  1
  O  O19  1  0.96903000  0.96841500  0.29463000  1
  O  O20  1  0.29463000  0.96903000  0.96841500  1
  O  O21  1  0.09543200  0.77149700  0.39943100  1
  O  O22  1  0.59184000  0.90410300  0.27757200  1
  O  O23  1  0.02718500  0.74059300  0.08069000  1
loop_
_geom_bond_atom_site_label_1
_geom_bond_atom_site_label_2
_geom_bond_distance
_geom_bond_site_symmetry_2
Li0 O0 1.961054 1_555
Li0 O3 1.976315 1_555
Li0 O18 1.999012 1_545
Li0 O2 2.034494 1_655
Li1 O8 1.964103 1_555
Li1 O1 1.975637 1_555
Li1 O6 1.976091 1_555
Li1 O4 2.000845 1_555
Li2 O7 1.964102 1_555
Li2 O10 1.975638 1_555
Li2 O16 1.976091 1_555
Li2 O11 2.000845 1_555
Li3 O20 1.961054 1_555
Li3 O13 1.976315 1_555
Li3 O9 1.999012 1_455
Li3 O23 2.034494 1_556
Li4 O17 1.964102 1_555
Li4 O21 1.975638 1_555
Li4 O15 1.976091 1_555
Li4 O14 2.000845 1_555
Li5 O19 1.961054 1_555
Li5 O22 1.976315 1_555
Li5 O12 1.999012 1_554
Li5 O5 2.034494 1_565
Fe0 O22 2.020692 1_545
Fe0 O20 2.022296 1_544
Fe0 O7 2.034044 1_555
Fe0 O4 2.035639 1_555
Fe1 O6 2.016572 1_555
Fe1 O10 2.021792 1_556
Fe1 O12 2.042488 1_555
Fe1 O23 2.062025 1_656
Fe2 O3 2.020692 1_455
Fe2 O19 2.022296 1_445
Fe2 O8 2.034044 1_555
Fe2 O14 2.035639 1_555
Fe3 O16 2.016572 1_555
Fe3 O21 2.021792 1_655
Fe3 O9 2.042488 1_555
Fe3 O2 2.062025 1_665
Fe4 O13 2.020692 1_554
Fe4 O0 2.022296 1_454
Fe4 O17 2.034044 1_555
Fe4 O11 2.035639 1_555
Fe5 O15 2.016572 1_555
Fe5 O1 2.021792 1_565
Fe5 O18 2.042488 1_555
Fe5 O5 2.062025 1_566
O0 P2 1.562867 1_556
O1 P0 1.555137 1_555
O2 P0 1.560764 1_555
O3 P1 1.555608 1_555
O4 P5 1.549510 1_545
O5 P2 1.560764 1_555
O6 P1 1.557394 1_555
O7 P1 1.552909 1_555
O8 P3 1.552909 1_555
O9 P1 1.558636 1_555
O10 P2 1.555137 1_555
O11 P0 1.549510 1_554
O12 P3 1.558636 1_555
O13 P3 1.555608 1_555
O14 P2 1.549510 1_455
O15 P3 1.557394 1_555
O16 P4 1.557394 1_555
O17 P4 1.552909 1_555
O18 P4 1.558636 1_555
O19 P5 1.562867 1_655
O20 P0 1.562867 1_565
O21 P5 1.555136 1_555
O22 P4 1.555608 1_555
O23 P5 1.560764 1_555
