# generated using pymatgen
data_Rb2Sb4S7
_symmetry_space_group_name_H-M   'P 1'
_cell_length_a   7.80225400
_cell_length_b   9.63214190
_cell_length_c   11.53630329
_cell_angle_alpha   99.71864473
_cell_angle_beta   85.43619578
_cell_angle_gamma   102.88700987
_symmetry_Int_Tables_number   1
_chemical_formula_structural   Rb2Sb4S7
_chemical_formula_sum   'Rb4 Sb8 S14'
_cell_volume   832.22118338
_cell_formula_units_Z   2
loop_
 _symmetry_equiv_pos_site_id
 _symmetry_equiv_pos_as_xyz
  1  'x, y, z'
loop_
 _atom_site_type_symbol
 _atom_site_label
 _atom_site_symmetry_multiplicity
 _atom_site_fract_x
 _atom_site_fract_y
 _atom_site_fract_z
 _atom_site_occupancy
  Rb  Rb0  1  0.26668858  0.33070541  0.11209824  1
  Rb  Rb1  1  0.42318961  0.73423713  0.55897919  1
  Rb  Rb2  1  0.57681039  0.26576287  0.44102081  1
  Rb  Rb3  1  0.73331142  0.66929459  0.88790176  1
  Sb  Sb0  1  0.02791396  0.94438377  0.34101224  1
  Sb  Sb1  1  0.16273823  0.43567745  0.81551812  1
  Sb  Sb2  1  0.72911950  0.13746929  0.04718758  1
  Sb  Sb3  1  0.50186273  0.18784230  0.76875149  1
  Sb  Sb4  1  0.27088050  0.86253071  0.95281242  1
  Sb  Sb5  1  0.97208604  0.05561623  0.65898776  1
  Sb  Sb6  1  0.83726177  0.56432255  0.18448188  1
  Sb  Sb7  1  0.49813727  0.81215770  0.23124851  1
  S  S0  1  0.79969521  0.87227066  0.15488135  1
  S  S1  1  0.64325477  0.32827297  0.95098501  1
  S  S2  1  0.44940239  0.43414871  0.71335892  1
  S  S3  1  0.22183156  0.01201698  0.52915846  1
  S  S4  1  0.02218365  0.68805703  0.35166422  1
  S  S5  1  0.35674523  0.67172703  0.04901499  1
  S  S6  1  0.45231880  0.06716037  0.15679833  1
  S  S7  1  0.97781635  0.31194297  0.64833578  1
  S  S8  1  0.54768120  0.93283963  0.84320167  1
  S  S9  1  0.86489366  0.32400091  0.22262654  1
  S  S10  1  0.13510634  0.67599909  0.77737346  1
  S  S11  1  0.77816844  0.98798302  0.47084154  1
  S  S12  1  0.55059761  0.56585129  0.28664108  1
  S  S13  1  0.20030479  0.12772934  0.84511865  1
loop_
_geom_bond_atom_site_label_1
_geom_bond_atom_site_label_2
_geom_bond_distance
_geom_bond_site_symmetry_2
Rb0 S9 3.280096 1_455
Rb0 S6 3.317888 1_555
Rb0 S12 3.320154 1_555
Rb0 S1 3.351766 1_554
Rb0 S13 3.368376 1_554
Rb0 S5 3.392524 1_555
Rb1 S10 3.275372 1_555
Rb1 S12 3.462845 1_555
Rb1 S3 3.466590 1_565
Rb1 S11 3.471283 1_555
Rb1 S8 3.593641 1_555
Rb1 S2 3.691657 1_555
Rb2 S9 3.275372 1_555
Rb2 S2 3.462845 1_555
Rb2 S11 3.466590 1_545
Rb2 S3 3.471283 1_555
Rb2 S6 3.593641 1_555
Rb2 S12 3.691657 1_555
Rb3 S10 3.280096 1_655
Rb3 S8 3.317888 1_555
Rb3 S2 3.320154 1_555
Rb3 S5 3.351766 1_556
Rb3 S0 3.368376 1_556
Rb3 S1 3.392524 1_555
S0 Sb7 2.425264 1_555
S0 Sb0 2.795894 1_655
S0 Sb6 3.121950 1_555
S0 Sb2 3.190552 1_565
S1 Sb3 2.491928 1_555
S1 Sb2 2.532662 1_556
S2 Sb1 2.445613 1_555
S2 Sb3 2.681618 1_555
S3 Sb5 2.429977 1_455
S3 Sb0 2.651457 1_545
S4 Sb6 2.474194 1_455
S4 Sb0 2.482994 1_555
S5 Sb7 2.491928 1_555
S5 Sb4 2.532662 1_554
S6 Sb2 2.433908 1_555
S6 Sb7 2.837476 1_545
S6 Sb4 3.024274 1_544
S7 Sb1 2.474194 1_655
S7 Sb5 2.482994 1_555
S8 Sb4 2.433908 1_555
S8 Sb3 2.837476 1_565
S8 Sb2 3.024274 1_566
S9 Sb6 2.485979 1_555
S9 Sb2 2.590573 1_555
S10 Sb1 2.485979 1_555
S10 Sb4 2.590573 1_555
S11 Sb0 2.429977 1_655
S11 Sb5 2.651457 1_565
S12 Sb6 2.445613 1_555
S12 Sb7 2.681618 1_555
S13 Sb3 2.425264 1_555
S13 Sb5 2.795894 1_455
S13 Sb1 3.121950 1_555
S13 Sb4 3.190552 1_545
