# generated using pymatgen
data_NdP5O14
_symmetry_space_group_name_H-M   'P 1'
_cell_length_a   8.80131036
_cell_length_b   9.02158876
_cell_length_c   13.07056767
_cell_angle_alpha   90.00000000
_cell_angle_beta   90.00000000
_cell_angle_gamma   90.00000000
_symmetry_Int_Tables_number   1
_chemical_formula_structural   NdP5O14
_chemical_formula_sum   'Nd4 P20 O56'
_cell_volume   1037.82663423
_cell_formula_units_Z   4
loop_
 _symmetry_equiv_pos_site_id
 _symmetry_equiv_pos_as_xyz
  1  'x, y, z'
loop_
 _atom_site_type_symbol
 _atom_site_label
 _atom_site_symmetry_multiplicity
 _atom_site_fract_x
 _atom_site_fract_y
 _atom_site_fract_z
 _atom_site_occupancy
  Nd  Nd0  1  0.27648932  0.69098708  0.00000000  1
  Nd  Nd1  1  0.27648932  0.80901292  0.50000000  1
  Nd  Nd2  1  0.72351068  0.30901292  0.00000000  1
  Nd  Nd3  1  0.72351068  0.19098708  0.50000000  1
  P  P0  1  0.76381257  0.94948654  0.83585704  1
  P  P1  1  0.00000000  0.00000000  0.67435273  1
  P  P2  1  0.23618743  0.05051346  0.83585704  1
  P  P3  1  0.23618743  0.44948654  0.33585704  1
  P  P4  1  0.23618743  0.44948654  0.66414296  1
  P  P5  1  0.68577953  0.74571200  0.00000000  1
  P  P6  1  0.50000000  0.00000000  0.29600799  1
  P  P7  1  0.76381257  0.94948654  0.16414296  1
  P  P8  1  0.50000000  0.50000000  0.79600799  1
  P  P9  1  0.31422047  0.24571200  0.50000000  1
  P  P10  1  0.00000000  0.50000000  0.17435273  1
  P  P11  1  0.76381257  0.55051346  0.66414296  1
  P  P12  1  0.76381257  0.55051346  0.33585704  1
  P  P13  1  0.68577953  0.75428800  0.50000000  1
  P  P14  1  0.00000000  0.00000000  0.32564727  1
  P  P15  1  0.50000000  0.50000000  0.20399201  1
  P  P16  1  0.50000000  0.00000000  0.70399201  1
  P  P17  1  0.31422047  0.25428800  0.00000000  1
  P  P18  1  0.00000000  0.50000000  0.82564727  1
  P  P19  1  0.23618743  0.05051346  0.16414296  1
  O  O0  1  0.08102304  0.61872485  0.11984208  1
  O  O1  1  0.58696728  0.38443523  0.15042260  1
  O  O2  1  0.46697366  0.18640847  0.00000000  1
  O  O3  1  0.53302634  0.68640847  0.50000000  1
  O  O4  1  0.71003949  0.91556172  0.50000000  1
  O  O5  1  0.28996051  0.08443828  0.50000000  1
  O  O6  1  0.88753306  0.91780334  0.24616488  1
  O  O7  1  0.22649745  0.90714545  0.88738140  1
  O  O8  1  0.60939340  0.58595765  0.71747350  1
  O  O9  1  0.91897696  0.38127515  0.88015792  1
  O  O10  1  0.22649745  0.59285455  0.38738140  1
  O  O11  1  0.28996051  0.41556172  0.00000000  1
  O  O12  1  0.88753306  0.91780334  0.75383512  1
  O  O13  1  0.58696728  0.38443523  0.84957740  1
  O  O14  1  0.60939340  0.91404235  0.21747350  1
  O  O15  1  0.58696728  0.11556477  0.65042260  1
  O  O16  1  0.91897696  0.11872485  0.61984208  1
  O  O17  1  0.41303272  0.88443523  0.65042260  1
  O  O18  1  0.11246694  0.41780334  0.74616488  1
  O  O19  1  0.41303272  0.61556477  0.15042260  1
  O  O20  1  0.39060660  0.41404235  0.71747350  1
  O  O21  1  0.60939340  0.91404235  0.78252650  1
  O  O22  1  0.78512901  0.81131327  0.09384524  1
  O  O23  1  0.60939340  0.58595765  0.28252650  1
  O  O24  1  0.22649745  0.90714545  0.11261860  1
  O  O25  1  0.21487099  0.18868673  0.09384524  1
  O  O26  1  0.39060660  0.08595765  0.21747350  1
  O  O27  1  0.77350255  0.40714545  0.38738140  1
  O  O28  1  0.78512901  0.81131327  0.90615476  1
  O  O29  1  0.91897696  0.38127515  0.11984208  1
  O  O30  1  0.77350255  0.09285455  0.11261860  1
  O  O31  1  0.91897696  0.11872485  0.38015792  1
  O  O32  1  0.11246694  0.08219666  0.75383512  1
  O  O33  1  0.88753306  0.58219666  0.25383512  1
  O  O34  1  0.21487099  0.31131327  0.40615476  1
  O  O35  1  0.11246694  0.41780334  0.25383512  1
  O  O36  1  0.08102304  0.88127515  0.61984208  1
  O  O37  1  0.21487099  0.31131327  0.59384524  1
  O  O38  1  0.77350255  0.40714545  0.61261860  1
  O  O39  1  0.78512901  0.68868673  0.40615476  1
  O  O40  1  0.39060660  0.41404235  0.28252650  1
  O  O41  1  0.11246694  0.08219666  0.24616488  1
  O  O42  1  0.21487099  0.18868673  0.90615476  1
  O  O43  1  0.39060660  0.08595765  0.78252650  1
  O  O44  1  0.41303272  0.61556477  0.84957740  1
  O  O45  1  0.53302634  0.81359153  0.00000000  1
  O  O46  1  0.78512901  0.68868673  0.59384524  1
  O  O47  1  0.88753306  0.58219666  0.74616488  1
  O  O48  1  0.46697366  0.31359153  0.50000000  1
  O  O49  1  0.08102304  0.88127515  0.38015792  1
  O  O50  1  0.41303272  0.88443523  0.34957740  1
  O  O51  1  0.58696728  0.11556477  0.34957740  1
  O  O52  1  0.22649745  0.59285455  0.61261860  1
  O  O53  1  0.71003949  0.58443828  0.00000000  1
  O  O54  1  0.77350255  0.09285455  0.88738140  1
  O  O55  1  0.08102304  0.61872485  0.88015792  1
loop_
_geom_bond_atom_site_label_1
_geom_bond_atom_site_label_2
_geom_bond_distance
_geom_bond_site_symmetry_2
Nd0 O44 2.402664 1_554
Nd0 O19 2.402664 1_555
Nd0 O55 2.416249 1_554
Nd0 O0 2.416249 1_555
Nd0 O24 2.482580 1_555
Nd0 O7 2.482580 1_554
Nd0 O11 2.487601 1_555
Nd0 O45 2.514233 1_555
Nd1 O17 2.402664 1_555
Nd1 O50 2.402664 1_555
Nd1 O36 2.416249 1_555
Nd1 O49 2.416249 1_555
Nd1 O10 2.482580 1_555
Nd1 O52 2.482580 1_555
Nd1 O5 2.487601 1_565
Nd1 O3 2.514233 1_555
Nd2 O13 2.402664 1_554
Nd2 O1 2.402664 1_555
Nd2 O9 2.416249 1_554
Nd2 O29 2.416249 1_555
Nd2 O30 2.482580 1_555
Nd2 O54 2.482580 1_554
Nd2 O53 2.487601 1_555
Nd2 O2 2.514233 1_555
Nd3 O15 2.402664 1_555
Nd3 O51 2.402664 1_555
Nd3 O16 2.416249 1_555
Nd3 O31 2.416249 1_555
Nd3 O27 2.482580 1_555
Nd3 O38 2.482580 1_555
Nd3 O4 2.487601 1_545
Nd3 O48 2.514233 1_555
O0 P10 1.470845 1_555
O1 P15 1.470749 1_555
O2 P17 1.477328 1_555
O3 P13 1.477328 1_555
O4 P13 1.470529 1_555
O5 P9 1.470529 1_555
O6 P7 1.554590 1_555
O6 P14 1.615232 1_665
O7 P2 1.460724 1_565
O8 P11 1.560535 1_555
O8 P8 1.606872 1_555
O9 P18 1.470845 1_655
O10 P3 1.460724 1_555
O11 P17 1.470529 1_555
O12 P0 1.554590 1_555
O12 P1 1.615232 1_665
O13 P8 1.470749 1_555
O14 P7 1.560535 1_555
O14 P6 1.606872 1_565
O15 P16 1.470749 1_555
O16 P1 1.470845 1_655
O17 P16 1.470749 1_565
O18 P4 1.554590 1_555
O18 P18 1.615232 1_555
O19 P15 1.470749 1_555
O20 P4 1.560535 1_555
O20 P8 1.606872 1_555
O21 P0 1.560535 1_555
O21 P16 1.606872 1_565
O22 P7 1.559909 1_555
O22 P5 1.618462 1_555
O23 P12 1.560535 1_555
O23 P15 1.606872 1_555
O24 P19 1.460724 1_565
O25 P19 1.559909 1_555
O25 P17 1.618462 1_555
O26 P19 1.560535 1_555
O26 P6 1.606872 1_555
O27 P12 1.460724 1_555
O28 P0 1.559909 1_555
O28 P5 1.618462 1_556
O29 P10 1.470845 1_655
O30 P7 1.460724 1_545
O31 P14 1.470845 1_655
O32 P2 1.554590 1_555
O32 P1 1.615232 1_555
O33 P12 1.554590 1_555
O33 P10 1.615232 1_655
O34 P3 1.559909 1_555
O34 P9 1.618462 1_555
O35 P3 1.554590 1_555
O35 P10 1.615232 1_555
O36 P1 1.470845 1_565
O37 P4 1.559909 1_555
O37 P9 1.618462 1_555
O38 P11 1.460724 1_555
O39 P12 1.559909 1_555
O39 P13 1.618462 1_555
O40 P3 1.560535 1_555
O40 P15 1.606872 1_555
O41 P19 1.554590 1_555
O41 P14 1.615232 1_555
O42 P2 1.559909 1_555
O42 P17 1.618462 1_556
O43 P2 1.560535 1_555
O43 P16 1.606872 1_555
O44 P8 1.470749 1_555
O45 P5 1.477328 1_555
O46 P11 1.559909 1_555
O46 P13 1.618462 1_555
O47 P11 1.554590 1_555
O47 P18 1.615232 1_655
O48 P9 1.477328 1_555
O49 P14 1.470845 1_565
O50 P6 1.470749 1_565
O51 P6 1.470749 1_555
O52 P4 1.460724 1_555
O53 P5 1.470529 1_555
O54 P0 1.460724 1_545
O55 P18 1.470845 1_555
