# generated using pymatgen
data_Sr3(SnP2)2
_symmetry_space_group_name_H-M   'P 1'
_cell_length_a   14.14933556
_cell_length_b   14.14933556
_cell_length_c   18.83058815
_cell_angle_alpha   90.00000000
_cell_angle_beta   90.00000000
_cell_angle_gamma   126.78726785
_symmetry_Int_Tables_number   1
_chemical_formula_structural   Sr3(SnP2)2
_chemical_formula_sum   'Sr36 Sn24 P48'
_cell_volume   3019.22168022
_cell_formula_units_Z   12
loop_
 _symmetry_equiv_pos_site_id
 _symmetry_equiv_pos_as_xyz
  1  'x, y, z'
loop_
 _atom_site_type_symbol
 _atom_site_label
 _atom_site_symmetry_multiplicity
 _atom_site_fract_x
 _atom_site_fract_y
 _atom_site_fract_z
 _atom_site_occupancy
  Sr  Sr0  1  0.29296991  0.12710708  0.63175775  1
  Sr  Sr1  1  0.93588516  0.93588516  0.72896476  1
  Sr  Sr2  1  0.28176835  0.61925411  0.75938911  1
  Sr  Sr3  1  0.78176835  0.11925411  0.74061089  1
  Sr  Sr4  1  0.45436692  0.96578113  0.87263699  1
  Sr  Sr5  1  0.71823165  0.38074589  0.24061089  1
  Sr  Sr6  1  0.62710708  0.79296991  0.86824225  1
  Sr  Sr7  1  0.70703009  0.87289292  0.36824225  1
  Sr  Sr8  1  0.38074589  0.71823165  0.24061089  1
  Sr  Sr9  1  0.06411484  0.06411484  0.27103524  1
  Sr  Sr10  1  0.43588516  0.43588516  0.77103524  1
  Sr  Sr11  1  0.88074589  0.21823165  0.25938911  1
  Sr  Sr12  1  0.54563308  0.03421887  0.12736301  1
  Sr  Sr13  1  0.12710708  0.29296991  0.63175775  1
  Sr  Sr14  1  0.20703009  0.37289292  0.13175775  1
  Sr  Sr15  1  -0.00000000  -0.00000000  0.00000000  1
  Sr  Sr16  1  0.95436692  0.46578113  0.62736301  1
  Sr  Sr17  1  0.17539041  0.82460959  0.50000000  1
  Sr  Sr18  1  0.03421887  0.54563308  0.12736301  1
  Sr  Sr19  1  0.11925411  0.78176835  0.74061089  1
  Sr  Sr20  1  0.61925411  0.28176835  0.75938911  1
  Sr  Sr21  1  0.79296991  0.62710708  0.86824225  1
  Sr  Sr22  1  0.53421887  0.04563308  0.37263699  1
  Sr  Sr23  1  0.82460959  0.17539041  0.50000000  1
  Sr  Sr24  1  0.04563308  0.53421887  0.37263699  1
  Sr  Sr25  1  0.37289292  0.20703009  0.13175775  1
  Sr  Sr26  1  0.96578113  0.45436692  0.87263699  1
  Sr  Sr27  1  0.56411484  0.56411484  0.22896476  1
  Sr  Sr28  1  0.50000000  0.50000000  0.00000000  1
  Sr  Sr29  1  0.50000000  0.50000000  0.50000000  1
  Sr  Sr30  1  0.87289292  0.70703009  0.36824225  1
  Sr  Sr31  1  0.67539041  0.32460959  0.00000000  1
  Sr  Sr32  1  0.46578113  0.95436692  0.62736301  1
  Sr  Sr33  1  0.32460959  0.67539041  0.00000000  1
  Sr  Sr34  1  0.21823165  0.88074589  0.25938911  1
  Sr  Sr35  1  -0.00000000  -0.00000000  0.50000000  1
  Sn  Sn0  1  0.93565332  0.76520540  0.17814846  1
  Sn  Sn1  1  0.23479460  0.06434668  0.82185154  1
  Sn  Sn2  1  0.79212150  0.62777129  0.06490535  1
  Sn  Sn3  1  0.22755137  0.90334723  0.06058915  1
  Sn  Sn4  1  0.20787850  0.37222871  0.93509465  1
  Sn  Sn5  1  0.12777129  0.29212150  0.43509465  1
  Sn  Sn6  1  0.59665277  0.27244863  0.56058915  1
  Sn  Sn7  1  0.43565332  0.26520540  0.32185154  1
  Sn  Sn8  1  0.26520540  0.43565332  0.32185154  1
  Sn  Sn9  1  0.56434668  0.73479460  0.67814846  1
  Sn  Sn10  1  0.06434668  0.23479460  0.82185154  1
  Sn  Sn11  1  0.70787850  0.87222871  0.56490535  1
  Sn  Sn12  1  0.37222871  0.20787850  0.93509465  1
  Sn  Sn13  1  0.62777129  0.79212150  0.06490535  1
  Sn  Sn14  1  0.09665277  0.77244863  0.93941085  1
  Sn  Sn15  1  0.29212150  0.12777129  0.43509465  1
  Sn  Sn16  1  0.90334723  0.22755137  0.06058915  1
  Sn  Sn17  1  0.73479460  0.56434668  0.67814846  1
  Sn  Sn18  1  0.87222871  0.70787850  0.56490535  1
  Sn  Sn19  1  0.77244863  0.09665277  0.93941085  1
  Sn  Sn20  1  0.40334723  0.72755137  0.43941085  1
  Sn  Sn21  1  0.76520540  0.93565332  0.17814846  1
  Sn  Sn22  1  0.27244863  0.59665277  0.56058915  1
  Sn  Sn23  1  0.72755137  0.40334723  0.43941085  1
  P  P0  1  0.70472128  0.21379761  0.62634813  1
  P  P1  1  0.46327657  0.61912273  0.36455136  1
  P  P2  1  0.71379761  0.20472128  0.87365187  1
  P  P3  1  0.79527872  0.28620239  0.12634813  1
  P  P4  1  0.53672343  0.38087727  0.63544864  1
  P  P5  1  0.05721910  0.88324560  0.61539118  1
  P  P6  1  0.78620239  0.29527872  0.37365187  1
  P  P7  1  0.11675440  0.94278090  0.38460882  1
  P  P8  1  0.61675440  0.44278090  0.11539118  1
  P  P9  1  0.91826646  0.58860277  0.48978409  1
  P  P10  1  0.74899887  0.74899887  0.98825222  1
  P  P11  1  0.20472128  0.71379761  0.87365187  1
  P  P12  1  0.81584088  0.81584088  0.24973925  1
  P  P13  1  0.08173354  0.41139723  0.51021591  1
  P  P14  1  0.13691969  0.46464134  0.24894261  1
  P  P15  1  0.91139723  0.58173354  0.98978409  1
  P  P16  1  0.03535866  0.36308031  0.74894261  1
  P  P17  1  0.94278090  0.11675440  0.38460882  1
  P  P18  1  0.36308031  0.03535866  0.74894261  1
  P  P19  1  0.21379761  0.70472128  0.62634813  1
  P  P20  1  0.03672343  0.88087727  0.86455136  1
  P  P21  1  0.18415912  0.18415912  0.75026075  1
  P  P22  1  0.24899887  0.24899887  0.51174778  1
  P  P23  1  0.63691969  0.96464134  0.25105739  1
  P  P24  1  0.58173354  0.91139723  0.98978409  1
  P  P25  1  0.38087727  0.53672343  0.63544864  1
  P  P26  1  0.28620239  0.79527872  0.12634813  1
  P  P27  1  0.68415912  0.68415912  0.74973925  1
  P  P28  1  0.31584088  0.31584088  0.25026075  1
  P  P29  1  0.96464134  0.63691969  0.25105739  1
  P  P30  1  0.25100113  0.25100113  0.01174778  1
  P  P31  1  0.86308031  0.53535866  0.75105739  1
  P  P32  1  0.53535866  0.86308031  0.75105739  1
  P  P33  1  0.75100113  0.75100113  0.48825222  1
  P  P34  1  0.44278090  0.61675440  0.11539118  1
  P  P35  1  0.88324560  0.05721910  0.61539118  1
  P  P36  1  0.46464134  0.13691969  0.24894261  1
  P  P37  1  0.11912273  0.96327657  0.13544864  1
  P  P38  1  0.58860277  0.91826646  0.48978409  1
  P  P39  1  0.61912273  0.46327657  0.36455136  1
  P  P40  1  0.96327657  0.11912273  0.13544864  1
  P  P41  1  0.38324560  0.55721910  0.88460882  1
  P  P42  1  0.29527872  0.78620239  0.37365187  1
  P  P43  1  0.88087727  0.03672343  0.86455136  1
  P  P44  1  0.41826646  0.08860277  0.01021591  1
  P  P45  1  0.55721910  0.38324560  0.88460882  1
  P  P46  1  0.41139723  0.08173354  0.51021591  1
  P  P47  1  0.08860277  0.41826646  0.01021591  1
loop_
_geom_bond_atom_site_label_1
_geom_bond_atom_site_label_2
_geom_bond_distance
_geom_bond_site_symmetry_2
P0 Sn6 2.465763 1_555
P0 Sr3 3.058456 1_555
P0 Sr23 3.152400 1_555
P0 Sr32 3.168804 1_545
P0 Sr20 3.171206 1_555
P0 Sr16 3.178968 1_555
P1 Sn8 2.554667 1_555
P1 Sn20 2.572550 1_555
P1 Sr7 3.156069 1_555
P1 Sr27 3.238871 1_555
P1 Sr29 3.265781 1_555
P1 Sr8 3.276954 1_555
P2 Sn19 2.465763 1_555
P2 Sr20 3.058456 1_555
P2 Sr31 3.152400 1_556
P2 Sr4 3.168804 1_545
P2 Sr3 3.171206 1_555
P2 Sr26 3.178968 1_555
P3 Sn16 2.465763 1_555
P3 Sr5 3.058456 1_555
P3 Sr31 3.152400 1_555
P3 Sr18 3.168804 1_655
P3 Sr11 3.171206 1_555
P3 Sr12 3.178968 1_555
P4 Sn17 2.554667 1_555
P4 Sn6 2.572550 1_555
P4 Sr0 3.156069 1_555
P4 Sr10 3.238871 1_555
P4 Sr29 3.265781 1_555
P4 Sr20 3.276954 1_555
P5 Sn18 2.476531 1_455
P5 Sr0 3.056563 1_565
P5 Sr1 3.099592 1_455
P5 Sr35 3.115746 1_565
P5 Sr17 3.141173 1_555
P5 Sr19 3.146668 1_555
P6 Sn23 2.465763 1_555
P6 Sr11 3.058456 1_555
P6 Sr23 3.152400 1_555
P6 Sr24 3.168804 1_655
P6 Sr5 3.171206 1_555
P6 Sr22 3.178968 1_555
P7 Sn15 2.476531 1_565
P7 Sr30 3.056563 1_455
P7 Sr9 3.099592 1_565
P7 Sr35 3.115746 1_565
P7 Sr17 3.141173 1_555
P7 Sr34 3.146668 1_555
P8 Sn2 2.476531 1_555
P8 Sr25 3.056563 1_555
P8 Sr27 3.099592 1_555
P8 Sr28 3.115746 1_555
P8 Sr31 3.141173 1_555
P8 Sr5 3.146668 1_555
P9 Sn23 2.565303 1_555
P9 Sn18 2.567155 1_555
P9 Sr30 3.121965 1_555
P9 Sr17 3.142213 1_655
P9 Sr24 3.219781 1_655
P9 Sr16 3.325038 1_555
P10 Sn13 2.579046 1_556
P10 Sn2 2.579046 1_556
P10 Sr6 3.123100 1_555
P10 Sr21 3.123100 1_555
P10 Sr28 3.163506 1_556
P10 Sr15 3.188820 1_666
P11 Sn14 2.465763 1_555
P11 Sr2 3.058456 1_555
P11 Sr33 3.152400 1_556
P11 Sr26 3.168804 1_455
P11 Sr19 3.171206 1_555
P11 Sr4 3.178968 1_555
P12 Sn0 2.580563 1_555
P12 Sn21 2.580563 1_555
P12 Sr7 3.080595 1_555
P12 Sr30 3.080595 1_555
P12 Sr9 3.172025 1_665
P12 Sr27 3.214220 1_555
P13 Sn22 2.565303 1_555
P13 Sn5 2.567155 1_555
P13 Sr13 3.121965 1_555
P13 Sr23 3.142213 1_455
P13 Sr16 3.219781 1_455
P13 Sr24 3.325038 1_555
P14 Sn8 2.497924 1_555
P14 Sr14 3.013489 1_555
P14 Sr24 3.096105 1_555
P14 Sr8 3.158397 1_555
P14 Sr11 3.193280 1_455
P14 Sr18 3.265091 1_555
P15 Sn14 2.565303 1_655
P15 Sn2 2.567155 1_556
P15 Sr21 3.121965 1_555
P15 Sr31 3.142213 1_556
P15 Sr26 3.219781 1_555
P15 Sr18 3.325038 1_656
P16 Sn10 2.497924 1_555
P16 Sr13 3.013489 1_555
P16 Sr26 3.096105 1_455
P16 Sr3 3.158397 1_455
P16 Sr2 3.193280 1_555
P16 Sr16 3.265091 1_455
P17 Sn5 2.476531 1_655
P17 Sr7 3.056563 1_545
P17 Sr9 3.099592 1_655
P17 Sr35 3.115746 1_655
P17 Sr23 3.141173 1_555
P17 Sr11 3.146668 1_555
P18 Sn1 2.497924 1_555
P18 Sr0 3.013489 1_555
P18 Sr4 3.096105 1_545
P18 Sr19 3.158397 1_545
P18 Sr20 3.193280 1_555
P18 Sr32 3.265091 1_545
P19 Sn22 2.465763 1_555
P19 Sr19 3.058456 1_555
P19 Sr17 3.152400 1_555
P19 Sr16 3.168804 1_455
P19 Sr2 3.171206 1_555
P19 Sr32 3.178968 1_555
P20 Sn1 2.554667 1_565
P20 Sn14 2.572550 1_555
P20 Sr21 3.156069 1_455
P20 Sr1 3.238871 1_455
P20 Sr15 3.265781 1_566
P20 Sr19 3.276954 1_555
P21 Sn10 2.580563 1_555
P21 Sn1 2.580563 1_555
P21 Sr13 3.080595 1_555
P21 Sr0 3.080595 1_555
P21 Sr1 3.172025 1_445
P21 Sr10 3.214220 1_555
P22 Sn5 2.579046 1_555
P22 Sn15 2.579046 1_555
P22 Sr0 3.123100 1_555
P22 Sr13 3.123100 1_555
P22 Sr35 3.163506 1_555
P22 Sr29 3.188820 1_555
P23 Sn21 2.497924 1_555
P23 Sr7 3.013489 1_555
P23 Sr12 3.096105 1_565
P23 Sr11 3.158397 1_565
P23 Sr8 3.193280 1_555
P23 Sr22 3.265091 1_565
P24 Sn19 2.565303 1_565
P24 Sn13 2.567155 1_556
P24 Sr6 3.121965 1_555
P24 Sr33 3.142213 1_556
P24 Sr4 3.219781 1_555
P24 Sr12 3.325038 1_566
P25 Sn9 2.554667 1_555
P25 Sn22 2.572550 1_555
P25 Sr13 3.156069 1_555
P25 Sr10 3.238871 1_555
P25 Sr29 3.265781 1_555
P25 Sr2 3.276954 1_555
P26 Sn3 2.465763 1_555
P26 Sr8 3.058456 1_555
P26 Sr33 3.152400 1_555
P26 Sr12 3.168804 1_565
P26 Sr34 3.171206 1_555
P26 Sr18 3.178968 1_555
P27 Sn17 2.580563 1_555
P27 Sn9 2.580563 1_555
P27 Sr21 3.080595 1_555
P27 Sr6 3.080595 1_555
P27 Sr10 3.172025 1_555
P27 Sr1 3.214220 1_555
P28 Sn7 2.580563 1_555
P28 Sn8 2.580563 1_555
P28 Sr14 3.080595 1_555
P28 Sr25 3.080595 1_555
P28 Sr27 3.172025 1_555
P28 Sr9 3.214220 1_555
P29 Sn0 2.497924 1_555
P29 Sr30 3.013489 1_555
P29 Sr18 3.096105 1_655
P29 Sr34 3.158397 1_655
P29 Sr5 3.193280 1_555
P29 Sr24 3.265091 1_655
P30 Sn12 2.579046 1_554
P30 Sn4 2.579046 1_554
P30 Sr14 3.123100 1_555
P30 Sr25 3.123100 1_555
P30 Sr28 3.163506 1_555
P30 Sr15 3.188820 1_555
P31 Sn17 2.497924 1_555
P31 Sr21 3.013489 1_555
P31 Sr16 3.096105 1_555
P31 Sr20 3.158397 1_555
P31 Sr19 3.193280 1_655
P31 Sr26 3.265091 1_555
P32 Sn9 2.497924 1_555
P32 Sr6 3.013489 1_555
P32 Sr32 3.096105 1_555
P32 Sr2 3.158397 1_555
P32 Sr3 3.193280 1_565
P32 Sr4 3.265091 1_555
P33 Sn18 2.579046 1_555
P33 Sn11 2.579046 1_555
P33 Sr7 3.123100 1_555
P33 Sr30 3.123100 1_555
P33 Sr35 3.163506 1_665
P33 Sr29 3.188820 1_555
P34 Sn13 2.476531 1_555
P34 Sr14 3.056563 1_555
P34 Sr27 3.099592 1_555
P34 Sr28 3.115746 1_555
P34 Sr33 3.141173 1_555
P34 Sr8 3.146668 1_555
P35 Sn11 2.476531 1_545
P35 Sr13 3.056563 1_655
P35 Sr1 3.099592 1_545
P35 Sr35 3.115746 1_655
P35 Sr23 3.141173 1_555
P35 Sr3 3.146668 1_555
P36 Sn7 2.497924 1_555
P36 Sr25 3.013489 1_555
P36 Sr22 3.096105 1_555
P36 Sr5 3.158397 1_555
P36 Sr34 3.193280 1_545
P36 Sr12 3.265091 1_555
P37 Sn0 2.554667 1_455
P37 Sn3 2.572550 1_555
P37 Sr25 3.156069 1_565
P37 Sr9 3.238871 1_565
P37 Sr15 3.265781 1_565
P37 Sr34 3.276954 1_555
P38 Sn20 2.565303 1_555
P38 Sn11 2.567155 1_555
P38 Sr7 3.121965 1_555
P38 Sr23 3.142213 1_565
P38 Sr22 3.219781 1_565
P38 Sr32 3.325038 1_555
P39 Sn7 2.554667 1_555
P39 Sn23 2.572550 1_555
P39 Sr30 3.156069 1_555
P39 Sr27 3.238871 1_555
P39 Sr29 3.265781 1_555
P39 Sr5 3.276954 1_555
P40 Sn21 2.554667 1_545
P40 Sn16 2.572550 1_555
P40 Sr14 3.156069 1_655
P40 Sr9 3.238871 1_655
P40 Sr15 3.265781 1_655
P40 Sr11 3.276954 1_555
P41 Sn4 2.476531 1_555
P41 Sr6 3.056563 1_555
P41 Sr10 3.099592 1_555
P41 Sr28 3.115746 1_556
P41 Sr33 3.141173 1_556
P41 Sr2 3.146668 1_555
P42 Sn20 2.465763 1_555
P42 Sr34 3.058456 1_555
P42 Sr17 3.152400 1_555
P42 Sr22 3.168804 1_565
P42 Sr8 3.171206 1_555
P42 Sr24 3.178968 1_555
P43 Sn10 2.554667 1_655
P43 Sn19 2.572550 1_555
P43 Sr6 3.156069 1_545
P43 Sr1 3.238871 1_545
P43 Sr15 3.265781 1_656
P43 Sr3 3.276954 1_555
P44 Sn3 2.565303 1_545
P44 Sn12 2.567155 1_554
P44 Sr25 3.121965 1_555
P44 Sr31 3.142213 1_555
P44 Sr12 3.219781 1_555
P44 Sr4 3.325038 1_544
P45 Sn12 2.476531 1_555
P45 Sr21 3.056563 1_555
P45 Sr10 3.099592 1_555
P45 Sr28 3.115746 1_556
P45 Sr31 3.141173 1_556
P45 Sr20 3.146668 1_555
P46 Sn6 2.565303 1_555
P46 Sn15 2.567155 1_555
P46 Sr0 3.121965 1_555
P46 Sr17 3.142213 1_545
P46 Sr32 3.219781 1_545
P46 Sr22 3.325038 1_555
P47 Sn16 2.565303 1_455
P47 Sn4 2.567155 1_554
P47 Sr14 3.121965 1_555
P47 Sr33 3.142213 1_555
P47 Sr18 3.219781 1_555
P47 Sr26 3.325038 1_454
