# generated using pymatgen
data_Ba(NiP2)2
_symmetry_space_group_name_H-M   'P 1'
_cell_length_a   5.44578418
_cell_length_b   5.44578284
_cell_length_c   5.44578449
_cell_angle_alpha   105.27103298
_cell_angle_beta   108.10617250
_cell_angle_gamma   115.20358323
_symmetry_Int_Tables_number   1
_chemical_formula_structural   Ba(NiP2)2
_chemical_formula_sum   'Ba1 Ni2 P4'
_cell_volume   123.31437222
_cell_formula_units_Z   1
loop_
 _symmetry_equiv_pos_site_id
 _symmetry_equiv_pos_as_xyz
  1  'x, y, z'
loop_
 _atom_site_type_symbol
 _atom_site_label
 _atom_site_symmetry_multiplicity
 _atom_site_fract_x
 _atom_site_fract_y
 _atom_site_fract_z
 _atom_site_occupancy
  Ba  Ba0  1  -0.00000000  -0.00000000  -0.00000000  1
  Ni  Ni0  1  0.26981716  0.76981716  0.50000000  1
  Ni  Ni1  1  0.73018284  0.23018284  0.50000000  1
  P  P0  1  0.24920978  0.50000000  0.74920978  1
  P  P1  1  0.75079022  0.50000000  0.25079022  1
  P  P2  1  0.50000000  0.73866117  0.23866117  1
  P  P3  1  0.50000000  0.26133883  0.76133883  1
loop_
_geom_bond_atom_site_label_1
_geom_bond_atom_site_label_2
_geom_bond_distance
_geom_bond_site_symmetry_2
Ba0 P2 3.316996 1_555
Ba0 P3 3.316996 1_444
Ba0 P2 3.316997 1_445
Ba0 P3 3.316997 1_554
Ba0 P0 3.329420 1_554
Ba0 P1 3.329420 1_445
Ba0 P1 3.329420 1_555
Ba0 P0 3.329420 1_444
Ba0 Ni1 3.467617 1_454
Ba0 Ni0 3.467617 1_545
Ba0 Ni0 3.467617 1_444
Ba0 Ni1 3.467617 1_555
Ba0 P3 3.633726 1_454
Ba0 P2 3.633726 1_545
Ba0 P2 3.633727 1_444
Ba0 P3 3.633727 1_555
Ba0 Ni0 3.660875 1_555
Ba0 Ni1 3.660875 1_444
Ba0 Ni1 3.660876 1_455
Ba0 Ni0 3.660876 1_544
Ba0 P1 3.669004 1_455
Ba0 P0 3.669004 1_544
Ba0 P1 3.669005 1_444
Ba0 P0 3.669005 1_555
Ni0 P3 2.188241 1_565
Ni0 P2 2.188242 1_555
Ni0 P0 2.240122 1_555
Ni0 P1 2.240122 1_455
Ni1 P2 2.188241 1_545
Ni1 P3 2.188242 1_555
Ni1 P1 2.240122 1_555
Ni1 P0 2.240122 1_655
