# generated using pymatgen
data_Ca(PO3)2
_symmetry_space_group_name_H-M   'P 1'
_cell_length_a   6.71905411
_cell_length_b   12.09801998
_cell_length_c   12.09801941
_cell_angle_alpha   111.29457932
_cell_angle_beta   92.53594132
_cell_angle_gamma   92.53593813
_symmetry_Int_Tables_number   1
_chemical_formula_structural   Ca(PO3)2
_chemical_formula_sum   'Ca8 P16 O48'
_cell_volume   913.45160228
_cell_formula_units_Z   8
loop_
 _symmetry_equiv_pos_site_id
 _symmetry_equiv_pos_as_xyz
  1  'x, y, z'
loop_
 _atom_site_type_symbol
 _atom_site_label
 _atom_site_symmetry_multiplicity
 _atom_site_fract_x
 _atom_site_fract_y
 _atom_site_fract_z
 _atom_site_occupancy
  Ca  Ca0  1  0.31535136  0.13815520  0.51841512  1
  Ca  Ca1  1  0.79986375  0.63866804  0.53061025  1
  Ca  Ca2  1  0.81303373  0.15002488  0.01800998  1
  Ca  Ca3  1  0.29596018  0.64639793  0.03086896  1
  Ca  Ca4  1  0.79596018  0.03086896  0.64639793  1
  Ca  Ca5  1  0.31303373  0.01800998  0.15002488  1
  Ca  Ca6  1  0.29986375  0.53061025  0.63866804  1
  Ca  Ca7  1  0.81535136  0.51841512  0.13815520  1
  P  P0  1  0.49606318  0.45722154  0.34787346  1
  P  P1  1  0.97550779  0.95476544  0.35882040  1
  P  P2  1  0.43072243  0.00043272  0.86401146  1
  P  P3  1  0.17689327  0.82231702  0.68183676  1
  P  P4  1  0.46508094  0.83784615  0.49951481  1
  P  P5  1  0.64004072  0.32992474  0.70922160  1
  P  P6  1  0.93072243  0.86401146  0.00043272  1
  P  P7  1  0.63549122  0.21458193  0.32573654  1
  P  P8  1  0.16305787  0.18036947  0.82694323  1
  P  P9  1  0.67689327  0.68183676  0.82231702  1
  P  P10  1  0.13549122  0.32573654  0.21458193  1
  P  P11  1  0.66305787  0.82694323  0.18036947  1
  P  P12  1  0.47550779  0.35882040  0.95476544  1
  P  P13  1  0.14004072  0.70922160  0.32992474  1
  P  P14  1  0.99606318  0.34787346  0.45722154  1
  P  P15  1  0.96508094  0.49951481  0.83784615  1
  O  O0  1  0.59635983  0.28497326  0.00248736  1
  O  O1  1  0.53681831  0.67007392  0.90824529  1
  O  O2  1  0.53943769  0.40311065  0.65204049  1
  O  O3  1  0.55064443  0.35507516  0.83299828  1
  O  O4  1  0.59647783  0.66978890  0.70135551  1
  O  O5  1  0.44648914  0.84490057  0.16794500  1
  O  O6  1  0.86904272  0.37513971  0.74773955  1
  O  O7  1  0.13600759  0.63991741  0.19988050  1
  O  O8  1  0.05064443  0.83299828  0.35507516  1
  O  O9  1  0.53017150  0.33583046  0.36384664  1
  O  O10  1  0.36904272  0.74773955  0.37513971  1
  O  O11  1  0.63600759  0.19988050  0.63991741  1
  O  O12  1  0.58514610  0.01426848  0.78583517  1
  O  O13  1  0.99536456  0.34865273  0.12793170  1
  O  O14  1  0.31905718  0.42310190  0.24796956  1
  O  O15  1  0.03943769  0.65204049  0.40311065  1
  O  O16  1  0.94648914  0.16794500  0.84490057  1
  O  O17  1  0.50315964  0.01255476  0.98633665  1
  O  O18  1  0.81905718  0.24796956  0.42310190  1
  O  O19  1  0.25108062  0.30611033  0.92017427  1
  O  O20  1  0.97358684  0.03483012  0.48550751  1
  O  O21  1  0.17594166  0.51350809  0.81002041  1
  O  O22  1  0.26664504  0.09328162  0.87917456  1
  O  O23  1  0.80494795  0.80634352  0.87634308  1
  O  O24  1  0.09635983  0.00248736  0.28497326  1
  O  O25  1  0.09647783  0.70135551  0.66978890  1
  O  O26  1  0.76664504  0.87917456  0.09328162  1
  O  O27  1  0.00315964  0.98633665  0.01255476  1
  O  O28  1  0.75108062  0.92017427  0.30611033  1
  O  O29  1  0.03017150  0.36384664  0.33583046  1
  O  O30  1  0.21812457  0.16520274  0.70608087  1
  O  O31  1  0.34482549  0.80111515  0.59049782  1
  O  O32  1  0.70601437  0.17973753  0.20475254  1
  O  O33  1  0.67354544  0.50300798  0.30531091  1
  O  O34  1  0.67594166  0.81002041  0.51350809  1
  O  O35  1  0.84482549  0.59049782  0.80111515  1
  O  O36  1  0.17354544  0.30531091  0.50300798  1
  O  O37  1  0.20601437  0.20475254  0.17973753  1
  O  O38  1  0.30494795  0.87634308  0.80634352  1
  O  O39  1  0.43684393  0.53816783  0.46556341  1
  O  O40  1  0.93684393  0.46556341  0.53816783  1
  O  O41  1  0.08514610  0.78583517  0.01426848  1
  O  O42  1  0.47358684  0.48550751  0.03483012  1
  O  O43  1  0.49536456  0.12793170  0.34865273  1
  O  O44  1  0.44005014  0.96330871  0.51373077  1
  O  O45  1  0.71812457  0.70608087  0.16520274  1
  O  O46  1  0.03681831  0.90824529  0.67007392  1
  O  O47  1  0.94005014  0.51373077  0.96330871  1
loop_
_geom_bond_atom_site_label_1
_geom_bond_atom_site_label_2
_geom_bond_distance
_geom_bond_site_symmetry_2
Ca0 O44 2.292087 1_545
Ca0 O30 2.301966 1_555
Ca0 O36 2.336804 1_555
Ca0 O43 2.396840 1_555
Ca0 O11 2.477974 1_555
Ca0 O20 2.509550 1_455
Ca1 O15 2.318308 1_655
Ca1 O34 2.341486 1_555
Ca1 O40 2.354447 1_555
Ca1 O4 2.450861 1_555
Ca1 O25 2.454385 1_655
Ca1 O39 2.630547 1_555
Ca1 O33 2.695573 1_555
Ca2 O0 2.286696 1_555
Ca2 O32 2.308052 1_555
Ca2 O27 2.386268 1_645
Ca2 O16 2.390781 1_554
Ca2 O13 2.513565 1_555
Ca2 O17 2.531377 1_554
Ca3 O41 2.307542 1_555
Ca3 O1 2.319895 1_554
Ca3 O42 2.341719 1_555
Ca3 O7 2.376016 1_555
Ca3 O5 2.506843 1_555
Ca3 O21 2.635973 1_554
Ca3 O47 2.738131 1_454
Ca4 O12 2.307542 1_555
Ca4 O46 2.319895 1_645
Ca4 O20 2.341719 1_555
Ca4 O11 2.376016 1_555
Ca4 O16 2.506843 1_555
Ca4 O34 2.635973 1_545
Ca4 O44 2.738131 1_545
Ca5 O24 2.286696 1_555
Ca5 O37 2.308052 1_555
Ca5 O17 2.386268 1_554
Ca5 O5 2.390781 1_545
Ca5 O43 2.513565 1_555
Ca5 O27 2.531376 1_545
Ca6 O2 2.318308 1_555
Ca6 O21 2.341486 1_555
Ca6 O39 2.354447 1_555
Ca6 O25 2.450861 1_555
Ca6 O4 2.454385 1_555
Ca6 O40 2.630547 1_455
Ca6 O36 2.695573 1_555
Ca7 O47 2.292087 1_554
Ca7 O45 2.301966 1_555
Ca7 O33 2.336804 1_555
Ca7 O13 2.396840 1_555
Ca7 O7 2.477974 1_655
Ca7 O42 2.509550 1_555
O0 P12 1.479258 1_554
O1 P9 1.472726 1_555
O2 P5 1.475085 1_555
O3 P12 1.564105 1_555
O3 P5 1.568620 1_555
O4 P9 1.490921 1_555
O5 P11 1.489816 1_555
O6 P15 1.590373 1_555
O6 P5 1.600257 1_555
O7 P13 1.488301 1_555
O8 P1 1.564105 1_455
O8 P13 1.568620 1_555
O9 P0 1.574363 1_555
O9 P7 1.579414 1_555
O10 P4 1.590373 1_555
O10 P13 1.600257 1_555
O11 P5 1.488302 1_555
O12 P2 1.478358 1_555
O13 P10 1.486302 1_655
O14 P0 1.585134 1_555
O14 P10 1.598026 1_555
O15 P13 1.475085 1_555
O16 P8 1.489816 1_655
O17 P2 1.490230 1_555
O18 P14 1.585134 1_555
O18 P7 1.598026 1_555
O19 P12 1.587730 1_555
O19 P8 1.597246 1_555
O20 P1 1.487289 1_545
O21 P15 1.487157 1_455
O22 P2 1.577538 1_555
O22 P8 1.582183 1_555
O23 P6 1.590427 1_556
O23 P9 1.599019 1_555
O24 P1 1.479258 1_445
O25 P3 1.490922 1_555
O26 P6 1.577538 1_555
O26 P11 1.582183 1_555
O27 P6 1.490230 1_455
O28 P1 1.587730 1_555
O28 P11 1.597246 1_555
O29 P14 1.574363 1_455
O29 P10 1.579414 1_555
O30 P8 1.472275 1_555
O31 P4 1.569746 1_555
O31 P3 1.578007 1_555
O32 P7 1.474944 1_555
O33 P0 1.482268 1_555
O34 P4 1.487157 1_555
O35 P15 1.569746 1_555
O35 P9 1.578007 1_555
O36 P14 1.482268 1_455
O37 P10 1.474944 1_555
O38 P2 1.590427 1_565
O38 P3 1.599019 1_555
O39 P0 1.488778 1_555
O40 P14 1.488778 1_555
O41 P6 1.478358 1_455
O42 P12 1.487289 1_554
O43 P7 1.486302 1_555
O44 P4 1.482320 1_555
O45 P11 1.472275 1_555
O46 P3 1.472726 1_555
O47 P15 1.482320 1_555
