# generated using pymatgen
data_C2SNCl2F5
_symmetry_space_group_name_H-M   'P 1'
_cell_length_a   15.82959900
_cell_length_b   5.44688100
_cell_length_c   19.45595964
_cell_angle_alpha   83.58610473
_cell_angle_beta   90.00000000
_cell_angle_gamma   90.00000000
_symmetry_Int_Tables_number   1
_chemical_formula_structural   C2SNCl2F5
_chemical_formula_sum   'C16 S8 N8 Cl16 F40'
_cell_volume   1667.03071962
_cell_formula_units_Z   8
loop_
 _symmetry_equiv_pos_site_id
 _symmetry_equiv_pos_as_xyz
  1  'x, y, z'
loop_
 _atom_site_type_symbol
 _atom_site_label
 _atom_site_symmetry_multiplicity
 _atom_site_fract_x
 _atom_site_fract_y
 _atom_site_fract_z
 _atom_site_occupancy
  C  C0  1  0.68317800  0.54397500  0.60279100  1
  C  C1  1  0.44123400  0.07118400  0.60699500  1
  C  C2  1  0.22083200  0.41917600  0.38188700  1
  C  C3  1  0.14971800  0.11164100  0.13505900  1
  C  C4  1  0.85028200  0.88835900  0.86494100  1
  C  C5  1  0.27916800  0.41917600  0.88188700  1
  C  C6  1  0.31682200  0.45602500  0.39720900  1
  C  C7  1  0.81682200  0.54397500  0.10279100  1
  C  C8  1  0.05876600  0.07118400  0.10699500  1
  C  C9  1  0.72083200  0.58082400  0.11811300  1
  C  C10  1  0.64971800  0.88835900  0.36494100  1
  C  C11  1  0.18317800  0.45602500  0.89720900  1
  C  C12  1  0.55876600  0.92881600  0.39300500  1
  C  C13  1  0.77916800  0.58082400  0.61811300  1
  C  C14  1  0.35028200  0.11164100  0.63505900  1
  C  C15  1  0.94123400  0.92881600  0.89300500  1
  S  S0  1  0.40325700  0.72912600  0.83620200  1
  S  S1  1  0.22929200  0.78795700  0.67692200  1
  S  S2  1  0.77070800  0.21204300  0.32307800  1
  S  S3  1  0.72929200  0.21204300  0.82307800  1
  S  S4  1  0.09674300  0.72912600  0.33620200  1
  S  S5  1  0.90325700  0.27087400  0.66379800  1
  S  S6  1  0.59674300  0.27087400  0.16379800  1
  S  S7  1  0.27070800  0.78795700  0.17692200  1
  N  N0  1  0.31368400  0.63549400  0.84664000  1
  N  N1  1  0.81803900  0.10896600  0.83018900  1
  N  N2  1  0.81368400  0.36450600  0.65336000  1
  N  N3  1  0.68196100  0.10896600  0.33018900  1
  N  N4  1  0.18631600  0.63549400  0.34664000  1
  N  N5  1  0.31803900  0.89103400  0.66981100  1
  N  N6  1  0.18196100  0.89103400  0.16981100  1
  N  N7  1  0.68631600  0.36450600  0.15336000  1
  Cl  Cl0  1  0.35587800  0.05526600  0.20855900  1
  Cl  Cl1  1  0.17439000  0.75975400  0.57975300  1
  Cl  Cl2  1  0.46357100  0.76431500  0.93172500  1
  Cl  Cl3  1  0.53642900  0.23568500  0.06827500  1
  Cl  Cl4  1  0.67439000  0.24024600  0.92024700  1
  Cl  Cl5  1  0.03642900  0.76431500  0.43172500  1
  Cl  Cl6  1  0.98378900  0.54865500  0.69485500  1
  Cl  Cl7  1  0.32561000  0.75975400  0.07975300  1
  Cl  Cl8  1  0.48378900  0.45134500  0.80514500  1
  Cl  Cl9  1  0.82561000  0.24024600  0.42024700  1
  Cl  Cl10  1  0.96357100  0.23568500  0.56827500  1
  Cl  Cl11  1  0.14412200  0.05526600  0.70855900  1
  Cl  Cl12  1  0.85587800  0.94473400  0.29144100  1
  Cl  Cl13  1  0.51621100  0.54865500  0.19485500  1
  Cl  Cl14  1  0.01621100  0.45134500  0.30514500  1
  Cl  Cl15  1  0.64412200  0.94473400  0.79144100  1
  F  F0  1  0.00610900  0.99371800  0.16005500  1
  F  F1  1  0.49389100  0.99371800  0.66005500  1
  F  F2  1  0.18123400  0.34559300  0.44372400  1
  F  F3  1  0.97151600  0.71530000  0.92586300  1
  F  F4  1  0.69879600  0.79157100  0.41964400  1
  F  F5  1  0.64079200  0.47709300  0.66259700  1
  F  F6  1  0.99389100  0.00628200  0.83994500  1
  F  F7  1  0.64969500  0.75674900  0.57226000  1
  F  F8  1  0.82682700  0.36551800  0.06050300  1
  F  F9  1  0.85030500  0.75674900  0.07226000  1
  F  F10  1  0.21464600  0.22381600  0.34243100  1
  F  F11  1  0.81876600  0.65440700  0.55627600  1
  F  F12  1  0.85920800  0.47709300  0.16259700  1
  F  F13  1  0.68123400  0.65440700  0.05627600  1
  F  F14  1  0.35030500  0.24325100  0.42774000  1
  F  F15  1  0.02848400  0.28470000  0.07413700  1
  F  F16  1  0.52848400  0.71530000  0.42586300  1
  F  F17  1  0.80120400  0.79157100  0.91964400  1
  F  F18  1  0.32682700  0.63448200  0.43949700  1
  F  F19  1  0.14424400  0.29163300  0.17974800  1
  F  F20  1  0.50610900  0.00628200  0.33994500  1
  F  F21  1  0.56029500  0.10151200  0.43775000  1
  F  F22  1  0.17317300  0.63448200  0.93949700  1
  F  F23  1  0.31876600  0.34559300  0.94372400  1
  F  F24  1  0.35920800  0.52290700  0.33740300  1
  F  F25  1  0.30120400  0.20842900  0.58035600  1
  F  F26  1  0.67317300  0.36551800  0.56050300  1
  F  F27  1  0.47151600  0.28470000  0.57413700  1
  F  F28  1  0.14969500  0.24325100  0.92774000  1
  F  F29  1  0.64424400  0.70836700  0.32025200  1
  F  F30  1  0.43970500  0.89848800  0.56225000  1
  F  F31  1  0.06029500  0.89848800  0.06225000  1
  F  F32  1  0.93970500  0.10151200  0.93775000  1
  F  F33  1  0.78535400  0.77618400  0.65756900  1
  F  F34  1  0.14079200  0.52290700  0.83740300  1
  F  F35  1  0.35575600  0.29163300  0.67974800  1
  F  F36  1  0.71464600  0.77618400  0.15756900  1
  F  F37  1  0.85575600  0.70836700  0.82025200  1
  F  F38  1  0.28535400  0.22381600  0.84243100  1
  F  F39  1  0.19879600  0.20842900  0.08035600  1
loop_
_geom_bond_atom_site_label_1
_geom_bond_atom_site_label_2
_geom_bond_distance
_geom_bond_site_symmetry_2
C0 F7 1.350236 1_555
C0 F26 1.351124 1_555
C0 F5 1.357244 1_555
C1 F27 1.350893 1_555
C1 F30 1.351386 1_545
C1 F1 1.356916 1_545
C2 F2 1.375956 1_555
C2 F10 1.383365 1_555
C2 N4 1.405904 1_555
C3 F39 1.374357 1_555
C3 F19 1.383873 1_555
C3 N6 1.407136 1_545
C4 F17 1.374357 1_555
C4 F37 1.383873 1_555
C4 N1 1.407136 1_565
C5 F23 1.375956 1_555
C5 F38 1.383365 1_555
C5 N0 1.405904 1_555
C6 F14 1.350236 1_555
C6 F18 1.351124 1_555
C6 F24 1.357244 1_555
C7 F9 1.350236 1_555
C7 F8 1.351124 1_555
C7 F12 1.357244 1_555
C8 F15 1.350893 1_555
C8 F31 1.351386 1_545
C8 F0 1.356916 1_545
C9 F13 1.375956 1_555
C9 F36 1.383365 1_555
C9 N7 1.405904 1_555
C10 F4 1.374357 1_555
C10 F29 1.383873 1_555
C10 N3 1.407136 1_565
C11 F28 1.350236 1_555
C11 F22 1.351124 1_555
C11 F34 1.357244 1_555
C12 F16 1.350893 1_555
C12 F21 1.351386 1_565
C12 F20 1.356916 1_565
C13 F11 1.375956 1_555
C13 F33 1.383365 1_555
C13 N2 1.405904 1_555
C14 F25 1.374357 1_555
C14 F35 1.383873 1_555
C14 N5 1.407136 1_545
C15 F3 1.350893 1_555
C15 F32 1.351386 1_565
C15 F6 1.356916 1_565
N0 S0 1.512831 1_555
N1 S3 1.513458 1_555
N2 S5 1.512831 1_555
N3 S2 1.513458 1_555
N4 S4 1.512831 1_555
N5 S1 1.513458 1_555
N6 S7 1.513458 1_555
N7 S6 1.512831 1_555
Cl0 S7 2.125254 1_545
Cl1 S1 2.101863 1_555
Cl2 S0 2.117039 1_555
Cl3 S6 2.117039 1_555
Cl4 S3 2.101863 1_555
Cl5 S4 2.117039 1_555
Cl6 S5 2.117486 1_555
Cl7 S7 2.101863 1_555
Cl8 S0 2.117486 1_555
Cl9 S2 2.101863 1_555
Cl10 S5 2.117039 1_555
Cl11 S1 2.125254 1_545
Cl12 S2 2.125254 1_565
Cl13 S6 2.117486 1_555
Cl14 S4 2.117486 1_555
Cl15 S3 2.125254 1_565
