# generated using pymatgen
data_MnBiAsO5
_symmetry_space_group_name_H-M   'P 1'
_cell_length_a   7.01100726
_cell_length_b   7.87488844
_cell_length_c   9.40299890
_cell_angle_alpha   77.77365928
_cell_angle_beta   93.34119258
_cell_angle_gamma   68.39311736
_symmetry_Int_Tables_number   1
_chemical_formula_structural   MnBiAsO5
_chemical_formula_sum   'Mn4 Bi4 As4 O20'
_cell_volume   466.38655797
_cell_formula_units_Z   4
loop_
 _symmetry_equiv_pos_site_id
 _symmetry_equiv_pos_as_xyz
  1  'x, y, z'
loop_
 _atom_site_type_symbol
 _atom_site_label
 _atom_site_symmetry_multiplicity
 _atom_site_fract_x
 _atom_site_fract_y
 _atom_site_fract_z
 _atom_site_occupancy
  Mn  Mn0  1  0.36970000  0.84712000  0.52008900  1
  Mn  Mn1  1  0.63030000  0.15288000  0.47991100  1
  Mn  Mn2  1  0.86970000  0.34712000  0.02008900  1
  Mn  Mn3  1  0.13030000  0.65288000  0.97991100  1
  Bi  Bi0  1  0.10458900  0.42352300  0.33171300  1
  Bi  Bi1  1  0.60458900  0.92352300  0.83171300  1
  Bi  Bi2  1  0.89541100  0.57647700  0.66828700  1
  Bi  Bi3  1  0.39541100  0.07647700  0.16828700  1
  As  As0  1  0.46717400  0.41399600  0.76359600  1
  As  As1  1  0.96717400  0.91399600  0.26359600  1
  As  As2  1  0.53282600  0.58600400  0.23640400  1
  As  As3  1  0.03282600  0.08600400  0.73640400  1
  O  O0  1  0.16378900  0.38291700  0.11821300  1
  O  O1  1  0.66378900  0.88291700  0.61821300  1
  O  O2  1  0.83621100  0.61708300  0.88178700  1
  O  O3  1  0.33621100  0.11708300  0.38178700  1
  O  O4  1  0.03460000  0.25730100  0.82581500  1
  O  O5  1  0.53460000  0.75730100  0.32581500  1
  O  O6  1  0.96540000  0.74269900  0.17418500  1
  O  O7  1  0.46540000  0.24269900  0.67418500  1
  O  O8  1  0.21733500  0.55687100  0.77964700  1
  O  O9  1  0.71733500  0.05687100  0.27964700  1
  O  O10  1  0.78266500  0.44312900  0.22035300  1
  O  O11  1  0.28266500  0.94312900  0.72035300  1
  O  O12  1  0.39568200  0.69664900  0.06369700  1
  O  O13  1  0.89568200  0.19664900  0.56369700  1
  O  O14  1  0.60431800  0.30335100  0.93630300  1
  O  O15  1  0.10431800  0.80335100  0.43630300  1
  O  O16  1  0.56357200  0.56217800  0.65576100  1
  O  O17  1  0.06357200  0.06217800  0.15576100  1
  O  O18  1  0.43642800  0.43782200  0.34423900  1
  O  O19  1  0.93642800  0.93782200  0.84423900  1
loop_
_geom_bond_atom_site_label_1
_geom_bond_atom_site_label_2
_geom_bond_distance
_geom_bond_site_symmetry_2
Mn0 O15 2.148897 1_555
Mn0 O3 2.166035 1_565
Mn0 O16 2.202099 1_555
Mn0 O11 2.210691 1_555
Mn0 O5 2.316277 1_555
Mn0 O1 2.344890 1_555
Mn1 O13 2.148897 1_555
Mn1 O1 2.166035 1_545
Mn1 O18 2.202099 1_555
Mn1 O9 2.210691 1_555
Mn1 O7 2.316277 1_555
Mn1 O3 2.344890 1_555
Mn2 O14 2.148897 1_554
Mn2 O2 2.166035 1_554
Mn2 O17 2.202099 1_655
Mn2 O10 2.210691 1_555
Mn2 O4 2.316277 1_654
Mn2 O0 2.344890 1_655
Mn3 O12 2.148897 1_556
Mn3 O0 2.166035 1_556
Mn3 O19 2.202099 1_455
Mn3 O8 2.210691 1_555
Mn3 O6 2.316277 1_456
Mn3 O2 2.344890 1_455
Bi0 O0 2.139162 1_555
Bi0 O3 2.285991 1_555
Bi0 O18 2.367675 1_555
Bi0 O10 2.369346 1_455
Bi0 O6 2.431485 1_455
Bi1 O1 2.139162 1_555
Bi1 O2 2.285991 1_555
Bi1 O19 2.367675 1_555
Bi1 O11 2.369346 1_555
Bi1 O7 2.431485 1_565
Bi2 O2 2.139162 1_555
Bi2 O1 2.285991 1_555
Bi2 O16 2.367675 1_555
Bi2 O8 2.369346 1_655
Bi2 O4 2.431485 1_655
Bi3 O3 2.139162 1_555
Bi3 O0 2.285991 1_555
Bi3 O17 2.367675 1_555
Bi3 O9 2.369346 1_555
Bi3 O5 2.431485 1_545
As0 O14 1.709572 1_555
As0 O16 1.733827 1_555
As0 O8 1.734408 1_555
As0 O7 1.737274 1_555
As1 O15 1.709572 1_655
As1 O17 1.733827 1_665
As1 O9 1.734408 1_565
As1 O6 1.737274 1_555
As2 O12 1.709572 1_555
As2 O18 1.733827 1_555
As2 O10 1.734408 1_555
As2 O5 1.737274 1_555
As3 O13 1.709572 1_455
As3 O19 1.733827 1_445
As3 O11 1.734408 1_545
As3 O4 1.737274 1_555
