# generated using pymatgen
data_Ag2Se
_symmetry_space_group_name_H-M   'P 1'
_cell_length_a   4.58224100
_cell_length_b   7.34844300
_cell_length_c   7.93763600
_cell_angle_alpha   90.00000000
_cell_angle_beta   90.00000000
_cell_angle_gamma   90.00000000
_symmetry_Int_Tables_number   1
_chemical_formula_structural   Ag2Se
_chemical_formula_sum   'Ag8 Se4'
_cell_volume   267.27875279
_cell_formula_units_Z   4
loop_
 _symmetry_equiv_pos_site_id
 _symmetry_equiv_pos_as_xyz
  1  'x, y, z'
loop_
 _atom_site_type_symbol
 _atom_site_label
 _atom_site_symmetry_multiplicity
 _atom_site_fract_x
 _atom_site_fract_y
 _atom_site_fract_z
 _atom_site_occupancy
  Ag  Ag0  1  0.00554400  0.10289600  0.24414600  1
  Ag  Ag1  1  0.99445600  0.10289600  0.75585400  1
  Ag  Ag2  1  0.50000000  0.60905200  0.00000000  1
  Ag  Ag3  1  0.49445600  0.89710400  0.24414600  1
  Ag  Ag4  1  0.00000000  0.39094800  0.00000000  1
  Ag  Ag5  1  0.00000000  0.38506700  0.50000000  1
  Ag  Ag6  1  0.50554400  0.89710400  0.75585400  1
  Ag  Ag7  1  0.50000000  0.61493300  0.50000000  1
  Se  Se0  1  0.51998100  0.29445100  0.25064900  1
  Se  Se1  1  0.48001900  0.29445100  0.74935100  1
  Se  Se2  1  0.01998100  0.70554900  0.74935100  1
  Se  Se3  1  0.98001900  0.70554900  0.25064900  1
loop_
_geom_bond_atom_site_label_1
_geom_bond_atom_site_label_2
_geom_bond_distance
_geom_bond_site_symmetry_2
Ag0 Se0 2.633356 1_455
Ag0 Ag3 2.702943 1_545
Ag0 Se0 2.746057 1_555
Ag0 Ag3 2.787747 1_445
Ag0 Ag4 2.869987 1_555
Ag0 Ag5 2.902512 1_555
Ag0 Se3 2.922679 1_445
Ag1 Se1 2.633356 1_655
Ag1 Ag6 2.702943 1_545
Ag1 Se1 2.746057 1_555
Ag1 Ag6 2.787747 1_645
Ag1 Ag4 2.869987 1_656
Ag1 Ag5 2.902512 1_655
Ag1 Se2 2.922679 1_645
Ag2 Ag4 2.796062 1_555
Ag2 Ag4 2.796062 1_655
Ag2 Ag3 2.869987 1_555
Ag2 Ag6 2.869987 1_554
Ag2 Se2 3.049468 1_554
Ag2 Se3 3.049468 1_555
Ag2 Se1 3.051439 1_554
Ag2 Se0 3.051439 1_555
Ag2 Se2 3.184075 1_654
Ag2 Se3 3.184075 1_455
Ag3 Se3 2.633356 1_555
Ag3 Se3 2.746057 1_455
Ag3 Ag7 2.902512 1_555
Ag3 Se0 2.922679 1_565
Ag4 Se1 3.049468 1_554
Ag4 Se0 3.049468 1_455
Ag4 Se3 3.051439 1_455
Ag4 Se2 3.051439 1_554
Ag4 Se1 3.184075 1_454
Ag4 Se0 3.184075 1_555
Ag5 Ag7 2.846486 1_555
Ag5 Ag7 2.846486 1_455
Ag5 Se1 3.032976 1_555
Ag5 Se0 3.032976 1_455
Ag5 Se3 3.077673 1_455
Ag5 Se2 3.077673 1_555
Ag5 Se1 3.168284 1_455
Ag5 Se0 3.168284 1_555
Ag6 Se2 2.633356 1_555
Ag6 Se2 2.746057 1_655
Ag6 Ag7 2.902512 1_555
Ag6 Se1 2.922679 1_565
Ag7 Se2 3.032976 1_555
Ag7 Se3 3.032976 1_555
Ag7 Se0 3.077673 1_555
Ag7 Se1 3.077673 1_555
Ag7 Se2 3.168284 1_655
Ag7 Se3 3.168284 1_455
