# generated using pymatgen
data_Ag2H3IO6
_symmetry_space_group_name_H-M   'P 1'
_cell_length_a   5.43018076
_cell_length_b   5.43018076
_cell_length_c   5.43018072
_cell_angle_alpha   67.20014396
_cell_angle_beta   67.20014396
_cell_angle_gamma   67.20014844
_symmetry_Int_Tables_number   1
_chemical_formula_structural   Ag2H3IO6
_chemical_formula_sum   'Ag2 H3 I1 O6'
_cell_volume   130.65979628
_cell_formula_units_Z   1
loop_
 _symmetry_equiv_pos_site_id
 _symmetry_equiv_pos_as_xyz
  1  'x, y, z'
loop_
 _atom_site_type_symbol
 _atom_site_label
 _atom_site_symmetry_multiplicity
 _atom_site_fract_x
 _atom_site_fract_y
 _atom_site_fract_z
 _atom_site_occupancy
  Ag  Ag0  1  0.61635900  0.61635900  0.61635900  1
  Ag  Ag1  1  0.38364100  0.38364100  0.38364100  1
  H  H0  1  0.00000000  0.00000000  0.50000000  1
  H  H1  1  0.00000000  0.50000000  0.00000000  1
  H  H2  1  0.50000000  0.00000000  0.00000000  1
  I  I0  1  0.00000000  0.00000000  0.00000000  1
  O  O0  1  0.84132700  0.36813200  0.04697000  1
  O  O1  1  0.04697000  0.84132700  0.36813200  1
  O  O2  1  0.15867300  0.63186800  0.95303000  1
  O  O3  1  0.95303000  0.15867300  0.63186800  1
  O  O4  1  0.63186800  0.95303000  0.15867300  1
  O  O5  1  0.36813200  0.04697000  0.84132700  1
loop_
_geom_bond_atom_site_label_1
_geom_bond_atom_site_label_2
_geom_bond_distance
_geom_bond_site_symmetry_2
Ag0 O4 2.441688 1_555
Ag0 O2 2.441688 1_555
Ag0 O3 2.441688 1_555
Ag0 O1 2.696624 1_655
Ag0 O0 2.696624 1_556
Ag0 O5 2.696624 1_565
Ag1 O5 2.441688 1_555
Ag1 O0 2.441688 1_555
Ag1 O1 2.441688 1_555
Ag1 O3 2.696624 1_455
Ag1 O2 2.696624 1_554
Ag1 O4 2.696624 1_545
H0 O1 1.219223 1_545
H0 O3 1.219223 1_455
H1 O0 1.219223 1_455
H1 O2 1.219223 1_554
H2 O5 1.219223 1_554
H2 O4 1.219223 1_545
I0 O4 1.921840 1_445
I0 O5 1.921840 1_554
I0 O3 1.921840 1_454
I0 O1 1.921840 1_545
I0 O2 1.921840 1_544
I0 O0 1.921840 1_455
