# generated using pymatgen
data_KC(NO2)2
_symmetry_space_group_name_H-M   'P 1'
_cell_length_a   7.67341916
_cell_length_b   7.67341916
_cell_length_c   9.15047742
_cell_angle_alpha   75.97483683
_cell_angle_beta   75.97483683
_cell_angle_gamma   61.05566727
_symmetry_Int_Tables_number   1
_chemical_formula_structural   KC(NO2)2
_chemical_formula_sum   'K4 C4 N8 O16'
_cell_volume   452.44665699
_cell_formula_units_Z   4
loop_
 _symmetry_equiv_pos_site_id
 _symmetry_equiv_pos_as_xyz
  1  'x, y, z'
loop_
 _atom_site_type_symbol
 _atom_site_label
 _atom_site_symmetry_multiplicity
 _atom_site_fract_x
 _atom_site_fract_y
 _atom_site_fract_z
 _atom_site_occupancy
  K  K0  1  0.97627700  0.66665200  0.29460200  1
  K  K1  1  0.33334800  0.02372300  0.20539800  1
  K  K2  1  0.02372300  0.33334800  0.70539800  1
  K  K3  1  0.66665200  0.97627700  0.79460200  1
  C  C0  1  0.31751300  0.72433100  0.66772000  1
  C  C1  1  0.27566900  0.68248700  0.83228000  1
  C  C2  1  0.68248700  0.27566900  0.33228000  1
  C  C3  1  0.72433100  0.31751300  0.16772000  1
  N  N0  1  0.25878100  0.81513400  0.92091700  1
  N  N1  1  0.50076600  0.26768900  0.40120900  1
  N  N2  1  0.18486600  0.74121900  0.57908300  1
  N  N3  1  0.74121900  0.18486600  0.07908300  1
  N  N4  1  0.81513400  0.25878100  0.42091700  1
  N  N5  1  0.73231100  0.49923400  0.09879100  1
  N  N6  1  0.49923400  0.73231100  0.59879100  1
  N  N7  1  0.26768900  0.50076600  0.90120900  1
  O  O0  1  0.78503700  0.23236000  0.56457800  1
  O  O1  1  0.62938600  0.67094600  0.68574100  1
  O  O2  1  0.53086400  0.79968300  0.46116200  1
  O  O3  1  0.46913600  0.20031700  0.53883800  1
  O  O4  1  0.67094600  0.62938600  0.18574100  1
  O  O5  1  0.03014800  0.71893400  0.65053200  1
  O  O6  1  0.96985200  0.28106600  0.34946800  1
  O  O7  1  0.71893400  0.03014800  0.15053200  1
  O  O8  1  0.23236000  0.78503700  0.06457800  1
  O  O9  1  0.79968300  0.53086400  0.96116200  1
  O  O10  1  0.76764000  0.21496300  0.93542200  1
  O  O11  1  0.32905400  0.37061400  0.81425900  1
  O  O12  1  0.37061400  0.32905400  0.31425900  1
  O  O13  1  0.21496300  0.76764000  0.43542200  1
  O  O14  1  0.28106600  0.96985200  0.84946800  1
  O  O15  1  0.20031700  0.46913600  0.03883800  1
loop_
_geom_bond_atom_site_label_1
_geom_bond_atom_site_label_2
_geom_bond_distance
_geom_bond_site_symmetry_2
K0 O7 2.750564 1_565
K0 O8 2.813038 1_655
K0 O15 2.824362 1_655
K0 O12 2.889647 1_655
K0 O6 2.901374 1_555
K0 O4 2.912241 1_555
K0 O13 2.935494 1_655
K0 O2 3.146235 1_555
K1 O6 2.750564 1_455
K1 O13 2.813038 1_545
K1 O2 2.824362 1_545
K1 O4 2.889647 1_545
K1 O7 2.901374 1_555
K1 O12 2.912241 1_555
K1 O8 2.935494 1_545
K1 O15 3.146235 1_555
K2 O14 2.750564 1_545
K2 O10 2.813038 1_455
K2 O9 2.824362 1_455
K2 O1 2.889647 1_455
K2 O5 2.901374 1_555
K2 O11 2.912241 1_555
K2 O0 2.935494 1_455
K2 O3 3.146235 1_555
K3 O5 2.750564 1_655
K3 O0 2.813038 1_565
K3 O3 2.824362 1_565
K3 O11 2.889647 1_565
K3 O14 2.901374 1_555
K3 O1 2.912241 1_555
K3 O10 2.935494 1_565
K3 O9 3.146235 1_555
C0 N2 1.390031 1_555
C0 N6 1.408410 1_555
C0 C1 1.450769 1_555
C1 N0 1.390031 1_555
C1 N7 1.408410 1_555
C2 N4 1.390031 1_555
C2 N1 1.408410 1_555
C2 C3 1.450769 1_555
C3 N3 1.390031 1_555
C3 N5 1.408410 1_555
N0 O8 1.261553 1_556
N0 O14 1.277601 1_555
N1 O3 1.252962 1_555
N1 O12 1.265129 1_555
N2 O13 1.261553 1_555
N2 O5 1.277601 1_555
N3 O10 1.261553 1_554
N3 O7 1.277601 1_555
N4 O0 1.261553 1_555
N4 O6 1.277601 1_555
N5 O9 1.252962 1_554
N5 O4 1.265129 1_555
N6 O2 1.252962 1_555
N6 O1 1.265129 1_555
N7 O15 1.252962 1_556
N7 O11 1.265129 1_555
