# generated using pymatgen
data_Ag5Hg4P8Cl5
_symmetry_space_group_name_H-M   'P 1'
_cell_length_a   9.20537698
_cell_length_b   9.20537698
_cell_length_c   6.36098065
_cell_angle_alpha   79.22836993
_cell_angle_beta   79.22836993
_cell_angle_gamma   74.55611629
_symmetry_Int_Tables_number   1
_chemical_formula_structural   Ag5Hg4P8Cl5
_chemical_formula_sum   'Ag5 Hg4 P8 Cl5'
_cell_volume   505.02478592
_cell_formula_units_Z   1
loop_
 _symmetry_equiv_pos_site_id
 _symmetry_equiv_pos_as_xyz
  1  'x, y, z'
loop_
 _atom_site_type_symbol
 _atom_site_label
 _atom_site_symmetry_multiplicity
 _atom_site_fract_x
 _atom_site_fract_y
 _atom_site_fract_z
 _atom_site_occupancy
  Ag  Ag0  1  0.14652300  0.85347700  0.00000000  1
  Ag  Ag1  1  0.79550400  0.79550400  0.94533900  1
  Ag  Ag2  1  0.20449600  0.20449600  0.05466100  1
  Ag  Ag3  1  0.85347700  0.14652300  0.00000000  1
  Ag  Ag4  1  0.50000000  0.50000000  0.00000000  1
  Hg  Hg0  1  0.48213600  0.82508400  0.46702400  1
  Hg  Hg1  1  0.51786400  0.17491600  0.53297600  1
  Hg  Hg2  1  0.82508400  0.48213600  0.46702400  1
  Hg  Hg3  1  0.17491600  0.51786400  0.53297600  1
  P  P0  1  0.09848500  0.79615500  0.40031400  1
  P  P1  1  0.20384500  0.90151500  0.59968600  1
  P  P2  1  0.85824100  0.85824100  0.55425500  1
  P  P3  1  0.79615500  0.09848500  0.40031400  1
  P  P4  1  0.75963600  0.75963600  0.34116100  1
  P  P5  1  0.14175900  0.14175900  0.44574500  1
  P  P6  1  0.90151500  0.20384500  0.59968600  1
  P  P7  1  0.24036400  0.24036400  0.65883900  1
  Cl  Cl0  1  0.19643000  0.52629200  0.02303700  1
  Cl  Cl1  1  0.80357000  0.47370800  0.97696300  1
  Cl  Cl2  1  0.47370800  0.80357000  0.97696300  1
  Cl  Cl3  1  0.52629200  0.19643000  0.02303700  1
  Cl  Cl4  1  0.50000000  0.50000000  0.50000000  1
loop_
_geom_bond_atom_site_label_1
_geom_bond_atom_site_label_2
_geom_bond_distance
_geom_bond_site_symmetry_2
Ag0 P0 2.481776 1_555
Ag0 P1 2.481776 1_554
Ag0 Cl0 2.902946 1_555
Ag0 Cl2 2.902946 1_554
Ag1 P2 2.441146 1_555
Ag1 P4 2.448267 1_556
Ag1 Cl2 2.913182 1_555
Ag1 Cl1 2.913182 1_555
Ag2 P5 2.441146 1_555
Ag2 P7 2.448267 1_554
Ag2 Cl3 2.913182 1_555
Ag2 Cl0 2.913182 1_555
Ag3 P3 2.481776 1_555
Ag3 P6 2.481776 1_554
Ag3 Cl3 2.902946 1_555
Ag3 Cl1 2.902946 1_554
Ag4 Cl1 2.718295 1_554
Ag4 Cl2 2.718295 1_554
Ag4 Cl3 2.718295 1_555
Ag4 Cl0 2.718295 1_555
Ag4 Cl4 3.180490 1_554
Ag4 Cl4 3.180490 1_555
Hg0 P4 2.474987 1_555
Hg0 P1 2.494742 1_555
Hg1 P7 2.474987 1_555
Hg1 P3 2.494742 1_555
Hg2 P4 2.474987 1_555
Hg2 P6 2.494742 1_555
Hg3 P7 2.474987 1_555
Hg3 P0 2.494742 1_555
P0 P2 2.214262 1_455
P0 P1 2.215891 1_555
P1 P5 2.214262 1_565
P2 P4 2.200858 1_555
P2 P3 2.214262 1_565
P3 P6 2.215891 1_555
P5 P7 2.200858 1_555
P5 P6 2.214262 1_455
Cl4 Hg2 2.922737 1_555
Cl4 Hg0 2.922737 1_555
Cl4 Hg3 2.922737 1_555
Cl4 Hg1 2.922737 1_555
