# generated using pymatgen
data_Tl2Ge2Se5
_symmetry_space_group_name_H-M   'P 1'
_cell_length_a   11.17155027
_cell_length_b   11.17155027
_cell_length_c   9.12595111
_cell_angle_alpha   78.15865084
_cell_angle_beta   78.15865084
_cell_angle_gamma   89.72956838
_symmetry_Int_Tables_number   1
_chemical_formula_structural   Tl2Ge2Se5
_chemical_formula_sum   'Tl8 Ge8 Se20'
_cell_volume   1090.16061026
_cell_formula_units_Z   4
loop_
 _symmetry_equiv_pos_site_id
 _symmetry_equiv_pos_as_xyz
  1  'x, y, z'
loop_
 _atom_site_type_symbol
 _atom_site_label
 _atom_site_symmetry_multiplicity
 _atom_site_fract_x
 _atom_site_fract_y
 _atom_site_fract_z
 _atom_site_occupancy
  Tl  Tl0  1  0.45570691  0.19804388  0.90226408  1
  Tl  Tl1  1  0.80195612  0.54429309  0.59773592  1
  Tl  Tl2  1  0.54429309  0.80195612  0.09773592  1
  Tl  Tl3  1  0.19804388  0.45570691  0.40226408  1
  Tl  Tl4  1  0.79891014  0.92080598  0.59563851  1
  Tl  Tl5  1  0.07919402  0.20108986  0.90436149  1
  Tl  Tl6  1  0.20108986  0.07919402  0.40436149  1
  Tl  Tl7  1  0.92080598  0.79891014  0.09563851  1
  Ge  Ge0  1  0.52082646  0.26631952  0.40988427  1
  Ge  Ge1  1  0.73368048  0.47917354  0.09011573  1
  Ge  Ge2  1  0.47917354  0.73368048  0.59011573  1
  Ge  Ge3  1  0.26631952  0.52082646  0.90988427  1
  Ge  Ge4  1  0.26948352  0.86441933  0.89090741  1
  Ge  Ge5  1  0.13558067  0.73051648  0.60909259  1
  Ge  Ge6  1  0.73051648  0.13558067  0.10909259  1
  Ge  Ge7  1  0.86441933  0.26948352  0.39090741  1
  Se  Se0  1  0.53196510  0.10605847  0.26906411  1
  Se  Se1  1  0.89394153  0.46803490  0.23093589  1
  Se  Se2  1  0.46803490  0.89394153  0.73093589  1
  Se  Se3  1  0.10605847  0.53196510  0.76906411  1
  Se  Se4  1  0.32901751  0.76182134  0.43645108  1
  Se  Se5  1  0.23817866  0.67098249  0.06354892  1
  Se  Se6  1  0.67098249  0.23817866  0.56354892  1
  Se  Se7  1  0.76182134  0.32901751  0.93645108  1
  Se  Se8  1  0.33206787  0.24048713  0.57475883  1
  Se  Se9  1  0.75951287  0.66793213  0.92524117  1
  Se  Se10  1  0.66793213  0.75951287  0.42524117  1
  Se  Se11  1  0.24048713  0.33206787  0.07475883  1
  Se  Se12  1  0.75623786  0.00025101  0.94945603  1
  Se  Se13  1  -0.00025101  0.24376214  0.55054397  1
  Se  Se14  1  0.24376214  -0.00025101  0.05054397  1
  Se  Se15  1  0.00025101  0.75623786  0.44945603  1
  Se  Se16  1  0.89219101  0.10780899  0.25000000  1
  Se  Se17  1  0.10780899  0.89219101  0.75000000  1
  Se  Se18  1  0.53490621  0.46509379  0.25000000  1
  Se  Se19  1  0.46509379  0.53490621  0.75000000  1
loop_
_geom_bond_atom_site_label_1
_geom_bond_atom_site_label_2
_geom_bond_distance
_geom_bond_site_symmetry_2
Ge0 Se8 2.306365 1_555
Ge0 Se6 2.378828 1_555
Ge0 Se18 2.379958 1_555
Ge0 Se0 2.397698 1_555
Ge1 Se9 2.306365 1_554
Ge1 Se7 2.378828 1_554
Ge1 Se18 2.379958 1_555
Ge1 Se1 2.397698 1_555
Ge2 Se10 2.306365 1_555
Ge2 Se4 2.378828 1_555
Ge2 Se19 2.379958 1_555
Ge2 Se2 2.397698 1_555
Ge3 Se11 2.306365 1_556
Ge3 Se5 2.378828 1_556
Ge3 Se19 2.379958 1_555
Ge3 Se3 2.397698 1_555
Ge4 Se14 2.284430 1_566
Ge4 Se2 2.374966 1_555
Ge4 Se5 2.378686 1_556
Ge4 Se17 2.407529 1_555
Ge5 Se15 2.284430 1_555
Ge5 Se3 2.374966 1_555
Ge5 Se4 2.378686 1_555
Ge5 Se17 2.407529 1_555
Ge6 Se12 2.284430 1_554
Ge6 Se0 2.374966 1_555
Ge6 Se7 2.378686 1_554
Ge6 Se16 2.407529 1_555
Ge7 Se13 2.284430 1_655
Ge7 Se1 2.374966 1_555
Ge7 Se6 2.378686 1_555
Ge7 Se16 2.407529 1_555
Se8 Tl3 3.143351 1_555
Se8 Tl6 3.148757 1_555
Se9 Tl2 3.143351 1_556
Se9 Tl7 3.148757 1_556
Se10 Tl1 3.143351 1_555
Se10 Tl4 3.148757 1_555
Se11 Tl0 3.143351 1_554
Se11 Tl5 3.148757 1_554
Se12 Tl2 3.138323 1_546
Se12 Tl7 3.155164 1_546
Se13 Tl3 3.138323 1_555
Se13 Tl6 3.155164 1_555
Se14 Tl0 3.138323 1_554
Se14 Tl5 3.155164 1_554
Se15 Tl1 3.138323 1_455
Se15 Tl4 3.155164 1_455
