# generated using pymatgen
data_Na2BeSiO4
_symmetry_space_group_name_H-M   'P 1'
_cell_length_a   4.98793500
_cell_length_b   9.97274700
_cell_length_c   14.21488700
_cell_angle_alpha   90.00000000
_cell_angle_beta   90.00000000
_cell_angle_gamma   90.00000000
_symmetry_Int_Tables_number   1
_chemical_formula_structural   Na2BeSiO4
_chemical_formula_sum   'Na16 Be8 Si8 O32'
_cell_volume   707.09700627
_cell_formula_units_Z   8
loop_
 _symmetry_equiv_pos_site_id
 _symmetry_equiv_pos_as_xyz
  1  'x, y, z'
loop_
 _atom_site_type_symbol
 _atom_site_label
 _atom_site_symmetry_multiplicity
 _atom_site_fract_x
 _atom_site_fract_y
 _atom_site_fract_z
 _atom_site_occupancy
  Na  Na0  1  0.00867300  0.00703900  0.04197300  1
  Na  Na1  1  0.97884600  0.77987100  0.21383300  1
  Na  Na2  1  0.50967000  0.49204400  0.92714000  1
  Na  Na3  1  0.49033000  0.50795600  0.42714000  1
  Na  Na4  1  0.97884600  0.72012900  0.71383300  1
  Na  Na5  1  0.00867300  0.49296100  0.54197300  1
  Na  Na6  1  0.50967000  0.00795600  0.42714000  1
  Na  Na7  1  0.49033000  0.99204400  0.92714000  1
  Na  Na8  1  0.47182600  0.76479200  0.33647200  1
  Na  Na9  1  0.02115400  0.27987100  0.21383300  1
  Na  Na10  1  0.02115400  0.22012900  0.71383300  1
  Na  Na11  1  0.47182600  0.73520800  0.83647200  1
  Na  Na12  1  0.52817400  0.26479200  0.33647200  1
  Na  Na13  1  0.52817400  0.23520800  0.83647200  1
  Na  Na14  1  0.99132700  0.99296100  0.54197300  1
  Na  Na15  1  0.99132700  0.50703900  0.04197300  1
  Be  Be0  1  0.98950600  0.76612000  0.42595400  1
  Be  Be1  1  0.01049400  0.26612000  0.42595400  1
  Be  Be2  1  0.04381700  0.01601100  0.31727000  1
  Be  Be3  1  0.95618300  0.98398900  0.81727000  1
  Be  Be4  1  0.04381700  0.48398900  0.81727000  1
  Be  Be5  1  0.01049400  0.23388000  0.92595400  1
  Be  Be6  1  0.98950600  0.73388000  0.92595400  1
  Be  Be7  1  0.95618300  0.51601100  0.31727000  1
  Si  Si0  1  0.52380900  0.48797700  0.69163600  1
  Si  Si1  1  0.50872200  0.26336800  0.05962700  1
  Si  Si2  1  0.47619100  0.51202300  0.19163600  1
  Si  Si3  1  0.52380900  0.01202300  0.19163600  1
  Si  Si4  1  0.47619100  0.98797700  0.69163600  1
  Si  Si5  1  0.49127800  0.76336800  0.05962700  1
  Si  Si6  1  0.49127800  0.73663200  0.55962700  1
  Si  Si7  1  0.50872200  0.23663200  0.55962700  1
  O  O0  1  0.29264000  0.48846500  0.28353000  1
  O  O1  1  0.27744900  0.31328800  0.50130700  1
  O  O2  1  0.70736000  0.98846500  0.28353000  1
  O  O3  1  0.11555600  0.33691400  0.84975600  1
  O  O4  1  0.87655100  0.40038400  0.38927600  1
  O  O5  1  0.62913800  0.90277600  0.10759600  1
  O  O6  1  0.70736000  0.51153500  0.78353000  1
  O  O7  1  0.20528800  0.50878600  0.70481900  1
  O  O8  1  0.37086200  0.40277600  0.10759600  1
  O  O9  1  0.12344900  0.59961600  0.88927600  1
  O  O10  1  0.88444400  0.83691400  0.84975600  1
  O  O11  1  0.27744900  0.18671200  0.00130700  1
  O  O12  1  0.72255100  0.81328800  0.50130700  1
  O  O13  1  0.60484800  0.33347300  0.65078500  1
  O  O14  1  0.72255100  0.68671200  0.00130700  1
  O  O15  1  0.79471200  0.49121400  0.20481900  1
  O  O16  1  0.60484800  0.16652700  0.15078500  1
  O  O17  1  0.12344900  0.90038400  0.38927600  1
  O  O18  1  0.11555600  0.16308600  0.34975600  1
  O  O19  1  0.39515200  0.83347300  0.65078500  1
  O  O20  1  0.39515200  0.66652700  0.15078500  1
  O  O21  1  0.79471200  0.00878600  0.70481900  1
  O  O22  1  0.62913800  0.59722400  0.60759600  1
  O  O23  1  0.23533500  0.81243100  0.99902600  1
  O  O24  1  0.88444400  0.66308600  0.34975600  1
  O  O25  1  0.29264000  0.01153500  0.78353000  1
  O  O26  1  0.37086200  0.09722400  0.60759600  1
  O  O27  1  0.23533500  0.68756900  0.49902600  1
  O  O28  1  0.20528800  0.99121400  0.20481900  1
  O  O29  1  0.76466500  0.31243100  0.99902600  1
  O  O30  1  0.76466500  0.18756900  0.49902600  1
  O  O31  1  0.87655100  0.09961600  0.88927600  1
loop_
_geom_bond_atom_site_label_1
_geom_bond_atom_site_label_2
_geom_bond_distance
_geom_bond_site_symmetry_2
Na0 O11 2.311305 1_555
Na0 O23 2.327554 1_544
Na0 O5 2.352686 1_445
Na0 O31 2.449094 1_454
Na0 O28 2.518960 1_545
Na1 O24 2.304625 1_555
Na1 O28 2.394663 1_655
Na1 O20 2.528396 1_655
Na1 O5 2.612574 1_555
Na1 O2 2.672593 1_555
Na2 O9 2.269749 1_555
Na2 O6 2.275395 1_555
Na2 O29 2.422897 1_555
Na2 O14 2.451108 1_556
Na2 O3 2.732741 1_555
Na2 O8 2.802136 1_556
Na3 O4 2.269749 1_555
Na3 O0 2.275395 1_555
Na3 O27 2.422897 1_555
Na3 O1 2.451108 1_555
Na3 O24 2.732741 1_555
Na3 O22 2.802136 1_555
Na4 O10 2.304625 1_555
Na4 O7 2.394663 1_655
Na4 O19 2.528396 1_655
Na4 O22 2.612574 1_555
Na4 O6 2.672593 1_555
Na5 O1 2.311305 1_555
Na5 O27 2.327554 1_555
Na5 O22 2.352686 1_455
Na5 O4 2.449094 1_455
Na5 O7 2.518960 1_555
Na6 O17 2.269749 1_545
Na6 O2 2.275395 1_545
Na6 O30 2.422897 1_555
Na6 O12 2.451108 1_545
Na6 O18 2.732741 1_555
Na6 O26 2.802136 1_555
Na7 O31 2.269749 1_565
Na7 O25 2.275395 1_565
Na7 O23 2.422897 1_555
Na7 O11 2.451108 1_566
Na7 O10 2.732741 1_555
Na7 O5 2.802136 1_556
Na8 O24 2.302230 1_555
Na8 O17 2.326253 1_555
Na8 O2 2.631027 1_555
Na8 O12 2.699644 1_555
Na8 O27 2.706257 1_555
Na8 O20 2.841421 1_555
Na9 O18 2.304625 1_555
Na9 O15 2.394663 1_455
Na9 O16 2.528396 1_455
Na9 O8 2.612574 1_555
Na9 O0 2.672593 1_555
Na10 O3 2.304625 1_555
Na10 O21 2.394663 1_455
Na10 O13 2.528396 1_455
Na10 O26 2.612574 1_555
Na10 O25 2.672593 1_555
Na11 O10 2.302230 1_555
Na11 O9 2.326253 1_555
Na11 O6 2.631027 1_555
Na11 O14 2.699644 1_556
Na11 O23 2.706257 1_555
Na11 O19 2.841421 1_555
Na12 O18 2.302230 1_555
Na12 O4 2.326253 1_555
Na12 O0 2.631027 1_555
Na12 O1 2.699644 1_555
Na12 O30 2.706257 1_555
Na12 O16 2.841421 1_555
Na13 O3 2.302230 1_555
Na13 O31 2.326253 1_555
Na13 O25 2.631027 1_555
Na13 O11 2.699644 1_556
Na13 O29 2.706257 1_555
Na13 O13 2.841421 1_555
Na14 O12 2.311305 1_555
Na14 O30 2.327554 1_565
Na14 O26 2.352686 1_665
Na14 O17 2.449094 1_655
Na14 O21 2.518960 1_565
Na15 O14 2.311305 1_555
Na15 O29 2.327554 1_554
Na15 O8 2.352686 1_655
Na15 O9 2.449094 1_654
Na15 O15 2.518960 1_555
Be0 O24 1.582292 1_555
Be0 O17 1.584631 1_655
Be0 O12 1.772466 1_555
Be0 O27 1.787764 1_655
Be1 O18 1.582292 1_555
Be1 O4 1.584631 1_455
Be1 O1 1.772466 1_555
Be1 O30 1.787764 1_455
Be2 O18 1.578803 1_555
Be2 O17 1.592206 1_545
Be2 O2 1.766899 1_445
Be2 O28 1.806922 1_545
Be3 O10 1.578803 1_555
Be3 O31 1.592206 1_565
Be3 O25 1.766899 1_665
Be3 O21 1.806922 1_565
Be4 O3 1.578803 1_555
Be4 O9 1.592206 1_555
Be4 O6 1.766899 1_455
Be4 O7 1.806922 1_555
Be5 O3 1.582292 1_555
Be5 O31 1.584631 1_455
Be5 O11 1.772466 1_556
Be5 O29 1.787764 1_455
Be6 O10 1.582292 1_555
Be6 O9 1.584631 1_655
Be6 O14 1.772466 1_556
Be6 O23 1.787764 1_655
Be7 O24 1.578803 1_555
Be7 O4 1.592206 1_555
Be7 O0 1.766899 1_655
Be7 O15 1.806922 1_555
O0 Si2 1.612369 1_555
O1 Si7 1.613199 1_555
O2 Si3 1.612369 1_565
O5 Si5 1.694307 1_555
O5 Si3 1.700037 1_565
O6 Si0 1.612369 1_555
O7 Si0 1.613179 1_555
O8 Si1 1.694307 1_555
O8 Si2 1.700037 1_555
O11 Si1 1.613199 1_555
O12 Si6 1.613199 1_555
O13 Si7 1.685736 1_555
O13 Si0 1.695509 1_555
O14 Si5 1.613199 1_555
O15 Si2 1.613179 1_555
O16 Si1 1.685736 1_555
O16 Si3 1.695509 1_555
O19 Si6 1.685736 1_555
O19 Si4 1.695509 1_555
O20 Si5 1.685736 1_555
O20 Si2 1.695509 1_555
O21 Si4 1.613179 1_545
O22 Si6 1.694307 1_555
O22 Si0 1.700037 1_555
O23 Si5 1.615938 1_556
O25 Si4 1.612369 1_545
O26 Si7 1.694307 1_555
O26 Si4 1.700037 1_545
O27 Si6 1.615938 1_555
O28 Si3 1.613179 1_565
O29 Si1 1.615938 1_556
O30 Si7 1.615938 1_555
