# generated using pymatgen
data_Fe7Mo6
_symmetry_space_group_name_H-M   'P 1'
_cell_length_a   8.94064905
_cell_length_b   8.94064905
_cell_length_c   8.94064892
_cell_angle_alpha   30.87672398
_cell_angle_beta   30.87672398
_cell_angle_gamma   30.87672748
_symmetry_Int_Tables_number   1
_chemical_formula_structural   Fe7Mo6
_chemical_formula_sum   'Fe7 Mo6'
_cell_volume   166.94251985
_cell_formula_units_Z   1
loop_
 _symmetry_equiv_pos_site_id
 _symmetry_equiv_pos_as_xyz
  1  'x, y, z'
loop_
 _atom_site_type_symbol
 _atom_site_label
 _atom_site_symmetry_multiplicity
 _atom_site_fract_x
 _atom_site_fract_y
 _atom_site_fract_z
 _atom_site_occupancy
  Fe  Fe0  1  0.58913400  0.09151900  0.09151900  1
  Fe  Fe1  1  0.09151900  0.09151900  0.58913400  1
  Fe  Fe2  1  0.90848100  0.90848100  0.41086600  1
  Fe  Fe3  1  0.90848100  0.41086600  0.90848100  1
  Fe  Fe4  1  0.00000000  0.00000000  0.00000000  1
  Fe  Fe5  1  0.09151900  0.58913400  0.09151900  1
  Fe  Fe6  1  0.41086600  0.90848100  0.90848100  1
  Mo  Mo0  1  0.34655800  0.34655800  0.34655800  1
  Mo  Mo1  1  0.16589100  0.16589100  0.16589100  1
  Mo  Mo2  1  0.54930700  0.54930700  0.54930700  1
  Mo  Mo3  1  0.65344200  0.65344200  0.65344200  1
  Mo  Mo4  1  0.45069300  0.45069300  0.45069300  1
  Mo  Mo5  1  0.83410900  0.83410900  0.83410900  1
loop_
_geom_bond_atom_site_label_1
_geom_bond_atom_site_label_2
_geom_bond_distance
_geom_bond_site_symmetry_2
Fe0 Fe1 2.368662 1_555
Fe0 Fe5 2.368662 1_555
Fe0 Fe4 2.379763 1_655
Fe0 Fe1 2.391367 1_654
Fe0 Fe5 2.391368 1_645
Fe0 Mo2 2.604223 1_554
Fe0 Mo2 2.604223 1_545
Fe0 Mo0 2.655125 1_555
Fe0 Mo5 2.678964 1_544
Fe0 Mo1 2.706325 1_555
Fe0 Mo3 2.868274 1_545
Fe0 Mo3 2.868274 1_554
Fe1 Fe5 2.368662 1_555
Fe1 Fe4 2.379763 1_556
Fe1 Fe5 2.391367 1_546
Fe1 Mo2 2.604223 1_455
Fe1 Mo2 2.604223 1_545
Fe1 Mo0 2.655125 1_555
Fe1 Mo5 2.678964 1_445
Fe1 Mo1 2.706324 1_555
Fe1 Mo3 2.868274 1_545
Fe1 Mo3 2.868274 1_455
Fe2 Fe6 2.368662 1_555
Fe2 Fe3 2.368662 1_555
Fe2 Fe4 2.379763 1_665
Fe2 Fe3 2.391367 1_564
Fe2 Fe6 2.391367 1_654
Fe2 Mo4 2.604223 1_655
Fe2 Mo4 2.604223 1_565
Fe2 Mo3 2.655125 1_555
Fe2 Mo1 2.678964 1_665
Fe2 Mo5 2.706324 1_555
Fe2 Mo0 2.868274 1_565
Fe2 Mo0 2.868274 1_655
Fe3 Fe6 2.368662 1_555
Fe3 Fe4 2.379763 1_656
Fe3 Fe6 2.391368 1_645
Fe3 Mo4 2.604223 1_556
Fe3 Mo4 2.604223 1_655
Fe3 Mo3 2.655125 1_555
Fe3 Mo1 2.678964 1_656
Fe3 Mo5 2.706325 1_555
Fe3 Mo0 2.868274 1_655
Fe3 Mo0 2.868274 1_556
Fe4 Fe6 2.379763 1_544
Fe4 Fe5 2.379763 1_545
Fe4 Mo3 2.768855 1_445
Fe4 Mo0 2.768855 1_554
Fe4 Mo3 2.768855 1_544
Fe4 Mo0 2.768855 1_545
Fe4 Mo3 2.768855 1_454
Fe4 Mo0 2.768855 1_455
Fe5 Mo2 2.604223 1_554
Fe5 Mo2 2.604223 1_455
Fe5 Mo0 2.655125 1_555
Fe5 Mo5 2.678964 1_454
Fe5 Mo1 2.706325 1_555
Fe5 Mo3 2.868274 1_455
Fe5 Mo3 2.868274 1_554
Fe6 Mo4 2.604223 1_556
Fe6 Mo4 2.604223 1_565
Fe6 Mo3 2.655125 1_555
Fe6 Mo1 2.678964 1_566
Fe6 Mo5 2.706325 1_555
Fe6 Mo0 2.868274 1_565
Fe6 Mo0 2.868274 1_556
Mo0 Mo4 2.657878 1_555
Mo0 Mo3 2.829904 1_554
Mo0 Mo3 2.829904 1_545
Mo0 Mo3 2.829904 1_455
Mo1 Mo5 2.748489 1_445
Mo1 Mo5 2.748490 1_454
Mo1 Mo5 2.748490 1_544
Mo1 Mo4 3.014459 1_554
Mo1 Mo4 3.014459 1_545
Mo1 Mo4 3.014459 1_455
Mo1 Mo2 3.030944 1_554
Mo1 Mo2 3.030945 1_455
Mo1 Mo2 3.030945 1_545
Mo2 Mo4 2.516963 1_555
Mo2 Mo3 2.657878 1_555
Mo2 Mo5 3.014459 1_554
Mo2 Mo5 3.014459 1_545
Mo2 Mo5 3.014459 1_455
Mo4 Mo5 3.030944 1_554
Mo4 Mo5 3.030945 1_455
Mo4 Mo5 3.030945 1_545
