# generated using pymatgen
data_Li2TeO3
_symmetry_space_group_name_H-M   'P 1'
_cell_length_a   5.09248435
_cell_length_b   5.36521427
_cell_length_c   13.04600425
_cell_angle_alpha   87.78085615
_cell_angle_beta   85.31997367
_cell_angle_gamma   61.66776513
_symmetry_Int_Tables_number   1
_chemical_formula_structural   Li2TeO3
_chemical_formula_sum   'Li4 Te2 O6'
_cell_volume   312.70183164
_cell_formula_units_Z   2
loop_
 _symmetry_equiv_pos_site_id
 _symmetry_equiv_pos_as_xyz
  1  'x, y, z'
loop_
 _atom_site_type_symbol
 _atom_site_label
 _atom_site_symmetry_multiplicity
 _atom_site_fract_x
 _atom_site_fract_y
 _atom_site_fract_z
 _atom_site_occupancy
  Li  Li0  1  0.63902954  0.31490168  0.06839082  1
  Li  Li1  1  0.95393122  0.68509832  0.06839082  1
  Li  Li2  1  0.04606878  0.31490168  0.93160918  1
  Li  Li3  1  0.36097046  0.68509832  0.93160918  1
  Te  Te0  1  0.26896251  -0.00000000  0.16614991  1
  Te  Te1  1  0.73103749  0.00000000  0.83385009  1
  O  O0  1  0.36877051  -0.00000000  0.86336162  1
  O  O1  1  0.63122949  0.00000000  0.13663838  1
  O  O2  1  0.02500048  0.29997936  0.08380305  1
  O  O3  1  0.67502016  0.29997936  0.91619695  1
  O  O4  1  0.32497984  0.70002064  0.08380305  1
  O  O5  1  0.97499952  0.70002064  0.91619695  1
loop_
_geom_bond_atom_site_label_1
_geom_bond_atom_site_label_2
_geom_bond_distance
_geom_bond_site_symmetry_2
Li0 O1 1.894784 1_555
Li0 O4 1.926314 1_555
Li0 O2 1.955533 1_655
Li0 O3 1.980227 1_554
Li1 O1 1.894784 1_565
Li1 O2 1.926314 1_655
Li1 O4 1.955533 1_655
Li1 O5 1.980227 1_554
Li2 O0 1.894784 1_555
Li2 O5 1.926314 1_455
Li2 O3 1.955533 1_455
Li2 O2 1.980227 1_556
Li3 O0 1.894784 1_565
Li3 O3 1.926314 1_555
Li3 O5 1.955533 1_455
Li3 O4 1.980227 1_556
O0 Te1 1.853580 1_555
O1 Te0 1.853580 1_555
O2 Te0 1.863851 1_555
O3 Te1 1.863851 1_555
O4 Te0 1.863851 1_565
O5 Te1 1.863851 1_565
