# generated using pymatgen
data_HoB7Mo3
_symmetry_space_group_name_H-M   'P 1'
_cell_length_a   3.09382947
_cell_length_b   11.00284745
_cell_length_c   12.83217722
_cell_angle_alpha   90.00000000
_cell_angle_beta   90.00000000
_cell_angle_gamma   90.00000000
_symmetry_Int_Tables_number   1
_chemical_formula_structural   HoB7Mo3
_chemical_formula_sum   'Ho4 B28 Mo12'
_cell_volume   436.81929390
_cell_formula_units_Z   4
loop_
 _symmetry_equiv_pos_site_id
 _symmetry_equiv_pos_as_xyz
  1  'x, y, z'
loop_
 _atom_site_type_symbol
 _atom_site_label
 _atom_site_symmetry_multiplicity
 _atom_site_fract_x
 _atom_site_fract_y
 _atom_site_fract_z
 _atom_site_occupancy
  Ho  Ho0  1  0.75000000  0.44866001  0.80823778  1
  Ho  Ho1  1  0.25000000  0.55133999  0.19176222  1
  Ho  Ho2  1  0.75000000  0.94866001  0.69176222  1
  Ho  Ho3  1  0.25000000  0.05133999  0.30823778  1
  B  B0  1  0.75000000  0.01050497  0.13766980  1
  B  B1  1  0.25000000  0.98949503  0.86233020  1
  B  B2  1  0.75000000  0.51050497  0.36233020  1
  B  B3  1  0.25000000  0.48949503  0.63766980  1
  B  B4  1  0.75000000  0.16585212  0.16731081  1
  B  B5  1  0.25000000  0.83414788  0.83268919  1
  B  B6  1  0.75000000  0.66585212  0.33268919  1
  B  B7  1  0.25000000  0.33414788  0.66731081  1
  B  B8  1  0.75000000  0.18603280  0.43333819  1
  B  B9  1  0.25000000  0.81396720  0.56666181  1
  B  B10  1  0.75000000  0.68603280  0.06666181  1
  B  B11  1  0.25000000  0.31396720  0.93333819  1
  B  B12  1  0.75000000  0.06795015  0.88421593  1
  B  B13  1  0.25000000  0.93204985  0.11578407  1
  B  B14  1  0.75000000  0.56795015  0.61578407  1
  B  B15  1  0.25000000  0.43204985  0.38421593  1
  B  B16  1  0.75000000  0.03748692  0.48179977  1
  B  B17  1  0.25000000  0.96251308  0.51820023  1
  B  B18  1  0.75000000  0.53748692  0.01820023  1
  B  B19  1  0.25000000  0.46251308  0.98179977  1
  B  B20  1  0.75000000  0.24920538  0.67354147  1
  B  B21  1  0.25000000  0.75079462  0.32645853  1
  B  B22  1  0.75000000  0.74920538  0.82645853  1
  B  B23  1  0.25000000  0.25079462  0.17354147  1
  B  B24  1  0.75000000  0.23057913  0.91841965  1
  B  B25  1  0.25000000  0.76942087  0.08158035  1
  B  B26  1  0.75000000  0.73057913  0.58158035  1
  B  B27  1  0.25000000  0.26942087  0.41841965  1
  Mo  Mo0  1  0.75000000  0.31552700  0.29828782  1
  Mo  Mo1  1  0.25000000  0.68447300  0.70171218  1
  Mo  Mo2  1  0.75000000  0.81552700  0.20171218  1
  Mo  Mo3  1  0.25000000  0.18447300  0.79828782  1
  Mo  Mo4  1  0.75000000  0.34022145  0.06425363  1
  Mo  Mo5  1  0.25000000  0.65977855  0.93574637  1
  Mo  Mo6  1  0.75000000  0.84022145  0.43574637  1
  Mo  Mo7  1  0.25000000  0.15977855  0.56425363  1
  Mo  Mo8  1  0.75000000  0.38222654  0.52700504  1
  Mo  Mo9  1  0.25000000  0.61777346  0.47299496  1
  Mo  Mo10  1  0.75000000  0.88222654  0.97299496  1
  Mo  Mo11  1  0.25000000  0.11777346  0.02700504  1
loop_
_geom_bond_atom_site_label_1
_geom_bond_atom_site_label_2
_geom_bond_distance
_geom_bond_site_symmetry_2
B0 B4 1.751070 1_555
B0 B13 1.793595 1_645
B0 B13 1.793595 1_545
B0 Mo2 2.297331 1_545
B0 Mo11 2.408849 1_555
B0 Mo11 2.408849 1_655
B0 Mo10 2.541156 1_544
B0 Ho3 2.717624 1_655
B0 Ho3 2.717624 1_555
B1 B5 1.751070 1_555
B1 B12 1.793595 1_465
B1 B12 1.793595 1_565
B1 Mo3 2.297331 1_565
B1 Mo10 2.408849 1_455
B1 Mo10 2.408849 1_555
B1 Mo11 2.541156 1_566
B1 Ho2 2.717624 1_555
B1 Ho2 2.717624 1_455
B2 B6 1.751070 1_555
B2 Mo0 2.297331 1_555
B2 Mo9 2.408849 1_655
B2 Mo9 2.408849 1_555
B2 Mo8 2.541156 1_555
B2 Ho1 2.717624 1_655
B2 Ho1 2.717624 1_555
B3 B7 1.751070 1_555
B3 Mo1 2.297331 1_555
B3 Mo8 2.408849 1_455
B3 Mo8 2.408849 1_555
B3 Mo9 2.541156 1_555
B3 Ho0 2.717624 1_555
B3 Ho0 2.717624 1_455
B4 Mo4 2.330180 1_555
B4 Mo0 2.353069 1_555
B4 Mo11 2.431940 1_555
B4 Mo11 2.431940 1_655
B4 Ho3 2.692722 1_555
B4 Ho3 2.692722 1_655
B5 Mo5 2.330180 1_555
B5 Mo1 2.353069 1_555
B5 Mo10 2.431940 1_555
B5 Mo10 2.431940 1_455
B5 Ho2 2.692722 1_555
B5 Ho2 2.692722 1_455
B6 Mo6 2.330180 1_555
B6 Mo2 2.353069 1_555
B6 Mo9 2.431940 1_555
B6 Mo9 2.431940 1_655
B6 Ho1 2.692722 1_555
B6 Ho1 2.692722 1_655
B7 Mo7 2.330180 1_555
B7 Mo3 2.353069 1_555
B7 Mo8 2.431940 1_455
B7 Mo8 2.431940 1_555
B7 Ho0 2.692722 1_555
B7 Ho0 2.692722 1_455
B8 Mo0 2.243507 1_555
B8 Mo7 2.301860 1_555
B8 Mo7 2.301860 1_655
B8 Mo8 2.470754 1_555
B8 Ho3 2.676995 1_655
B8 Ho3 2.676995 1_555
B9 Mo1 2.243507 1_555
B9 Mo6 2.301860 1_555
B9 Mo6 2.301860 1_455
B9 Mo9 2.470754 1_555
B9 Ho2 2.676995 1_555
B9 Ho2 2.676995 1_455
B10 B18 1.748735 1_555
B10 B25 1.808704 1_555
B10 B25 1.808704 1_655
B10 Mo2 2.243507 1_555
B10 Mo5 2.301860 1_554
B10 Mo5 2.301860 1_654
B10 Mo10 2.470754 1_554
B10 Ho1 2.676995 1_655
B10 Ho1 2.676995 1_555
B11 B19 1.748735 1_555
B11 B24 1.808704 1_455
B11 B24 1.808704 1_555
B11 Mo3 2.243507 1_555
B11 Mo4 2.301860 1_456
B11 Mo4 2.301860 1_556
B11 Mo11 2.470754 1_556
B11 Ho0 2.676995 1_455
B11 Ho0 2.676995 1_555
B12 B24 1.842424 1_555
B12 Mo3 2.291835 1_655
B12 Mo3 2.291835 1_555
B12 Mo10 2.339591 1_545
B12 Mo11 2.459832 1_556
B12 Mo11 2.459832 1_656
B12 Ho2 2.796724 1_545
B13 B25 1.842424 1_555
B13 Mo2 2.291835 1_555
B13 Mo2 2.291835 1_455
B13 Mo11 2.339591 1_565
B13 Mo10 2.459832 1_554
B13 Mo10 2.459832 1_454
B13 Ho3 2.796724 1_565
B14 B3 1.793595 1_555
B14 B3 1.793595 1_655
B14 B26 1.842424 1_555
B14 Mo1 2.291835 1_555
B14 Mo1 2.291835 1_655
B14 Mo8 2.339591 1_555
B14 Mo9 2.459832 1_655
B14 Mo9 2.459832 1_555
B14 Ho0 2.796724 1_555
B15 B2 1.793595 1_455
B15 B2 1.793595 1_555
B15 B27 1.842424 1_555
B15 Mo0 2.291835 1_555
B15 Mo0 2.291835 1_455
B15 Mo9 2.339591 1_555
B15 Mo8 2.459832 1_555
B15 Mo8 2.459832 1_455
B15 Ho1 2.796724 1_555
B16 B8 1.748735 1_555
B16 B17 1.814284 1_645
B16 B17 1.814284 1_545
B16 Mo6 2.249496 1_545
B16 Mo7 2.307155 1_555
B16 Mo7 2.307155 1_655
B16 Ho3 2.715971 1_555
B16 Ho3 2.715971 1_655
B16 Ho2 2.866065 1_545
B17 B9 1.748735 1_555
B17 Mo7 2.249496 1_565
B17 Mo6 2.307155 1_455
B17 Mo6 2.307155 1_555
B17 Ho2 2.715971 1_555
B17 Ho2 2.715971 1_455
B17 Ho3 2.866065 1_565
B18 B19 1.814284 1_554
B18 B19 1.814284 1_654
B18 Mo4 2.249496 1_555
B18 Mo5 2.307155 1_554
B18 Mo5 2.307155 1_654
B18 Ho1 2.715971 1_655
B18 Ho1 2.715971 1_555
B18 Ho0 2.866065 1_554
B19 Mo5 2.249496 1_555
B19 Mo4 2.307155 1_556
B19 Mo4 2.307155 1_456
B19 Ho0 2.715971 1_455
B19 Ho0 2.715971 1_555
B19 Ho1 2.866065 1_556
B20 B7 1.809097 1_555
B20 B7 1.809097 1_655
B20 Mo7 2.308209 1_555
B20 Mo7 2.308209 1_655
B20 Mo3 2.337239 1_655
B20 Mo3 2.337239 1_555
B20 Mo8 2.382854 1_555
B20 Ho0 2.793503 1_555
B20 Ho2 3.315110 1_545
B21 B6 1.809097 1_455
B21 B6 1.809097 1_555
B21 Mo6 2.308209 1_555
B21 Mo6 2.308209 1_455
B21 Mo2 2.337239 1_455
B21 Mo2 2.337239 1_555
B21 Mo9 2.382854 1_555
B21 Ho1 2.793503 1_555
B21 Ho3 3.315110 1_565
B22 B5 1.809097 1_655
B22 B5 1.809097 1_555
B22 Mo5 2.308209 1_555
B22 Mo5 2.308209 1_655
B22 Mo1 2.337239 1_655
B22 Mo1 2.337239 1_555
B22 Mo10 2.382854 1_555
B22 Ho2 2.793503 1_555
B22 Ho0 3.315110 1_555
B23 B4 1.809097 1_555
B23 B4 1.809097 1_455
B23 Mo4 2.308209 1_555
B23 Mo4 2.308209 1_455
B23 Mo0 2.337239 1_555
B23 Mo0 2.337239 1_455
B23 Mo11 2.382854 1_555
B23 Ho3 2.793503 1_555
B23 Ho1 3.315110 1_555
B24 Mo4 2.226514 1_556
B24 Mo3 2.242026 1_555
B24 Mo3 2.242026 1_655
B24 Mo11 2.423842 1_556
B24 Mo11 2.423842 1_656
B24 Ho0 2.785083 1_555
B25 Mo5 2.226514 1_554
B25 Mo2 2.242026 1_455
B25 Mo2 2.242026 1_555
B25 Mo10 2.423842 1_554
B25 Mo10 2.423842 1_454
B25 Ho1 2.785083 1_555
B26 B9 1.808704 1_555
B26 B9 1.808704 1_655
B26 Mo6 2.226514 1_555
B26 Mo1 2.242026 1_555
B26 Mo1 2.242026 1_655
B26 Mo9 2.423842 1_655
B26 Mo9 2.423842 1_555
B26 Ho2 2.785083 1_555
B27 B8 1.808704 1_555
B27 B8 1.808704 1_455
B27 Mo7 2.226514 1_555
B27 Mo0 2.242026 1_555
B27 Mo0 2.242026 1_455
B27 Mo8 2.423842 1_555
B27 Mo8 2.423842 1_455
B27 Ho3 2.785083 1_555
