# generated using pymatgen
data_CsSmCdSe3
_symmetry_space_group_name_H-M   'P 1'
_cell_length_a   4.36275200
_cell_length_b   8.47050667
_cell_length_c   11.38591900
_cell_angle_alpha   90.00000000
_cell_angle_beta   90.00000000
_cell_angle_gamma   104.92331632
_symmetry_Int_Tables_number   1
_chemical_formula_structural   CsSmCdSe3
_chemical_formula_sum   'Cs2 Sm2 Cd2 Se6'
_cell_volume   406.57166878
_cell_formula_units_Z   2
loop_
 _symmetry_equiv_pos_site_id
 _symmetry_equiv_pos_as_xyz
  1  'x, y, z'
loop_
 _atom_site_type_symbol
 _atom_site_label
 _atom_site_symmetry_multiplicity
 _atom_site_fract_x
 _atom_site_fract_y
 _atom_site_fract_z
 _atom_site_occupancy
  Cs  Cs0  1  0.74314700  0.48629400  0.75000000  1
  Cs  Cs1  1  0.25685300  0.51370600  0.25000000  1
  Sm  Sm0  1  0.00000000  0.00000000  0.00000000  1
  Sm  Sm1  1  0.00000000  0.00000000  0.50000000  1
  Cd  Cd0  1  0.45961300  0.91922600  0.75000000  1
  Cd  Cd1  1  0.54038700  0.08077400  0.25000000  1
  Se  Se0  1  0.38094100  0.76188200  0.95104100  1
  Se  Se1  1  0.61905900  0.23811800  0.04895900  1
  Se  Se2  1  0.61905900  0.23811800  0.45104100  1
  Se  Se3  1  0.38094100  0.76188200  0.54895900  1
  Se  Se4  1  0.05962300  0.11924600  0.75000000  1
  Se  Se5  1  0.94037700  0.88075400  0.25000000  1
loop_
_geom_bond_atom_site_label_1
_geom_bond_atom_site_label_2
_geom_bond_distance
_geom_bond_site_symmetry_2
Cs0 Se4 3.712644 1_655
Cs0 Se4 3.712644 1_555
Cs0 Se3 3.884067 1_555
Cs0 Se3 3.884067 1_655
Cs0 Se0 3.884067 1_655
Cs0 Se0 3.884067 1_555
Cs0 Se1 3.963933 1_556
Cs0 Se2 3.963933 1_555
Cs1 Se5 3.712644 1_555
Cs1 Se5 3.712644 1_455
Cs1 Se2 3.884067 1_455
Cs1 Se1 3.884067 1_455
Cs1 Se1 3.884067 1_555
Cs1 Se2 3.884067 1_555
Cs1 Se3 3.963933 1_555
Cs1 Se0 3.963933 1_554
Cd0 Se3 2.626442 1_555
Cd0 Se0 2.626442 1_555
Cd0 Se4 2.727376 1_665
Cd0 Se4 2.727376 1_565
Cd1 Se2 2.626442 1_555
Cd1 Se1 2.626442 1_555
Cd1 Se5 2.727376 1_445
Cd1 Se5 2.727376 1_545
Se0 Sm0 2.977843 1_566
Se0 Sm0 2.977843 1_666
Se1 Sm0 2.977843 1_655
Se1 Sm0 2.977843 1_555
Se2 Sm1 2.977843 1_555
Se2 Sm1 2.977843 1_655
Se3 Sm1 2.977843 1_665
Se3 Sm1 2.977843 1_565
Se4 Sm0 3.009158 1_556
Se4 Sm1 3.009158 1_555
Se5 Sm0 3.009158 1_665
Se5 Sm1 3.009158 1_665
