# generated using pymatgen
data_GdCo2
_symmetry_space_group_name_H-M   'P 1'
_cell_length_a   5.06322099
_cell_length_b   5.06328095
_cell_length_c   5.06321768
_cell_angle_alpha   59.99941398
_cell_angle_beta   59.99754433
_cell_angle_gamma   59.99948743
_symmetry_Int_Tables_number   1
_chemical_formula_structural   GdCo2
_chemical_formula_sum   'Gd2 Co4'
_cell_volume   91.78228041
_cell_formula_units_Z   2
loop_
 _symmetry_equiv_pos_site_id
 _symmetry_equiv_pos_as_xyz
  1  'x, y, z'
loop_
 _atom_site_type_symbol
 _atom_site_label
 _atom_site_symmetry_multiplicity
 _atom_site_fract_x
 _atom_site_fract_y
 _atom_site_fract_z
 _atom_site_occupancy
  Gd  Gd0  1  0.87500308  0.87499692  0.87500408  1
  Gd  Gd1  1  0.12499692  0.12500308  0.12499592  1
  Co  Co0  1  0.50000000  0.50000000  0.50000000  1
  Co  Co1  1  0.50000000  0.50000000  0.00000000  1
  Co  Co2  1  -0.00000000  0.50000000  0.50000000  1
  Co  Co3  1  0.50000000  0.00000000  0.50000000  1
loop_
_geom_bond_atom_site_label_1
_geom_bond_atom_site_label_2
_geom_bond_distance
_geom_bond_site_symmetry_2
Co0 Co1 2.531609 1_556
Co0 Co1 2.531609 1_555
Co0 Co2 2.531610 1_555
Co0 Co2 2.531610 1_655
Co0 Co3 2.531640 1_565
Co0 Co3 2.531640 1_555
Co0 Gd1 2.968493 1_556
Co0 Gd0 2.968493 1_554
Co0 Gd1 2.968501 1_655
Co0 Gd0 2.968501 1_455
Co0 Gd1 2.968625 1_565
Co0 Gd0 2.968625 1_545
Co1 Co2 2.531516 1_555
Co1 Co2 2.531516 1_654
Co1 Co3 2.531602 1_555
Co1 Co3 2.531602 1_564
Co1 Gd0 2.968560 1_454
Co1 Gd1 2.968560 1_655
Co1 Gd0 2.968588 1_544
Co1 Gd1 2.968588 1_565
Co1 Gd1 2.968595 1_555
Co1 Gd0 2.968595 1_554
Co2 Co3 2.531606 1_465
Co2 Co3 2.531606 1_555
Co2 Gd0 2.968554 1_454
Co2 Gd1 2.968554 1_556
Co2 Gd1 2.968587 1_565
Co2 Gd0 2.968587 1_445
Co2 Gd1 2.968598 1_555
Co2 Gd0 2.968598 1_455
Co3 Gd0 2.968495 1_544
Co3 Gd1 2.968495 1_556
Co3 Gd0 2.968499 1_445
Co3 Gd1 2.968499 1_655
Co3 Gd1 2.968635 1_555
Co3 Gd0 2.968635 1_545
