# generated using pymatgen
data_Zr5Sn3
_symmetry_space_group_name_H-M   'P 1'
_cell_length_a   8.52362102
_cell_length_b   8.52361994
_cell_length_c   5.79765934
_cell_angle_alpha   90.00000000
_cell_angle_beta   90.00000000
_cell_angle_gamma   120.00000018
_symmetry_Int_Tables_number   1
_chemical_formula_structural   Zr5Sn3
_chemical_formula_sum   'Zr10 Sn6'
_cell_volume   364.78043142
_cell_formula_units_Z   2
loop_
 _symmetry_equiv_pos_site_id
 _symmetry_equiv_pos_as_xyz
  1  'x, y, z'
loop_
 _atom_site_type_symbol
 _atom_site_label
 _atom_site_symmetry_multiplicity
 _atom_site_fract_x
 _atom_site_fract_y
 _atom_site_fract_z
 _atom_site_occupancy
  Zr  Zr0  1  0.33333300  0.66666700  -0.00000000  1
  Zr  Zr1  1  0.66666700  0.33333300  0.50000000  1
  Zr  Zr2  1  0.66666700  0.33333300  -0.00000000  1
  Zr  Zr3  1  0.33333300  0.66666700  0.50000000  1
  Zr  Zr4  1  0.24931587  -0.00000000  0.25000000  1
  Zr  Zr5  1  0.24931587  0.24931587  0.75000000  1
  Zr  Zr6  1  -0.00000000  0.75068413  0.75000000  1
  Zr  Zr7  1  0.00000000  0.24931587  0.25000000  1
  Zr  Zr8  1  0.75068413  0.75068413  0.25000000  1
  Zr  Zr9  1  0.75068413  0.00000000  0.75000000  1
  Sn  Sn0  1  0.60915497  -0.00000000  0.25000000  1
  Sn  Sn1  1  0.60915497  0.60915497  0.75000000  1
  Sn  Sn2  1  -0.00000000  0.39084503  0.75000000  1
  Sn  Sn3  1  0.00000000  0.60915497  0.25000000  1
  Sn  Sn4  1  0.39084503  0.39084503  0.25000000  1
  Sn  Sn5  1  0.39084503  0.00000000  0.75000000  1
loop_
_geom_bond_atom_site_label_1
_geom_bond_atom_site_label_2
_geom_bond_distance
_geom_bond_site_symmetry_2
Sn0 Zr8 2.921431 1_545
Sn0 Zr7 2.921431 1_655
Sn0 Zr2 3.003458 1_555
Sn0 Zr1 3.003458 1_555
Sn0 Zr3 3.003461 1_545
Sn0 Zr0 3.003461 1_545
Sn0 Zr4 3.067132 1_555
Sn0 Zr9 3.139820 1_555
Sn0 Zr9 3.139820 1_554
Sn1 Zr9 2.921431 1_565
Sn1 Zr6 2.921431 1_655
Sn1 Zr1 3.003465 1_555
Sn1 Zr2 3.003465 1_556
Sn1 Zr0 3.003466 1_556
Sn1 Zr3 3.003466 1_555
Sn1 Zr5 3.067132 1_555
Sn1 Zr8 3.139820 1_556
Sn1 Zr8 3.139820 1_555
Sn2 Zr9 2.921431 1_455
Sn2 Zr5 2.921431 1_555
Sn2 Zr1 3.003458 1_455
Sn2 Zr2 3.003458 1_456
Sn2 Zr3 3.003461 1_555
Sn2 Zr0 3.003461 1_556
Sn2 Zr6 3.067132 1_555
Sn2 Zr7 3.139820 1_555
Sn2 Zr7 3.139820 1_556
Sn3 Zr4 2.921431 1_565
Sn3 Zr8 2.921431 1_455
Sn3 Zr3 3.003458 1_555
Sn3 Zr0 3.003458 1_555
Sn3 Zr2 3.003461 1_455
Sn3 Zr1 3.003461 1_455
Sn3 Zr7 3.067132 1_555
Sn3 Zr6 3.139820 1_554
Sn3 Zr6 3.139820 1_555
Sn4 Zr4 2.921431 1_555
Sn4 Zr7 2.921431 1_555
Sn4 Zr0 3.003465 1_555
Sn4 Zr3 3.003465 1_555
Sn4 Zr1 3.003466 1_555
Sn4 Zr2 3.003466 1_555
Sn4 Zr8 3.067132 1_555
Sn4 Zr5 3.139820 1_554
Sn4 Zr5 3.139820 1_555
Sn5 Zr5 2.921431 1_555
Sn5 Zr6 2.921431 1_545
Sn5 Zr3 3.003458 1_545
Sn5 Zr0 3.003458 1_546
Sn5 Zr2 3.003461 1_556
Sn5 Zr1 3.003461 1_555
Sn5 Zr9 3.067132 1_555
Sn5 Zr4 3.139820 1_555
Sn5 Zr4 3.139820 1_556
