# generated using pymatgen
data_HfV2O7
_symmetry_space_group_name_H-M   'P 1'
_cell_length_a   8.86730138
_cell_length_b   8.86730138
_cell_length_c   8.86730138
_cell_angle_alpha   90.00000000
_cell_angle_beta   90.00000000
_cell_angle_gamma   90.00000000
_symmetry_Int_Tables_number   1
_chemical_formula_structural   HfV2O7
_chemical_formula_sum   'Hf4 V8 O28'
_cell_volume   697.22733960
_cell_formula_units_Z   4
loop_
 _symmetry_equiv_pos_site_id
 _symmetry_equiv_pos_as_xyz
  1  'x, y, z'
loop_
 _atom_site_type_symbol
 _atom_site_label
 _atom_site_symmetry_multiplicity
 _atom_site_fract_x
 _atom_site_fract_y
 _atom_site_fract_z
 _atom_site_occupancy
  Hf  Hf0  1  -0.00000000  0.50000000  0.50000000  1
  Hf  Hf1  1  0.50000000  0.50000000  0.00000000  1
  Hf  Hf2  1  0.50000000  -0.00000000  0.50000000  1
  Hf  Hf3  1  -0.00000000  -0.00000000  0.00000000  1
  V  V0  1  0.38493497  0.11506503  0.88493497  1
  V  V1  1  0.11506503  0.88493497  0.38493497  1
  V  V2  1  0.88493497  0.38493497  0.11506503  1
  V  V3  1  0.61506503  0.61506503  0.61506503  1
  V  V4  1  0.61506503  0.88493497  0.11506503  1
  V  V5  1  0.88493497  0.11506503  0.61506503  1
  V  V6  1  0.11506503  0.61506503  0.88493497  1
  V  V7  1  0.38493497  0.38493497  0.38493497  1
  O  O0  1  0.50000000  -0.00000000  0.00000000  1
  O  O1  1  -0.00000000  -0.00000000  0.50000000  1
  O  O2  1  -0.00000000  0.50000000  0.00000000  1
  O  O3  1  0.50000000  0.50000000  0.50000000  1
  O  O4  1  0.93697090  0.20239244  0.09321870  1
  O  O5  1  0.43697090  0.29760756  0.90678130  1
  O  O6  1  0.06302910  0.70239244  0.40678130  1
  O  O7  1  0.29760756  0.90678130  0.43697090  1
  O  O8  1  0.40678130  0.06302910  0.70239244  1
  O  O9  1  0.90678130  0.43697090  0.29760756  1
  O  O10  1  0.20239244  0.09321870  0.93697090  1
  O  O11  1  0.09321870  0.93697090  0.20239244  1
  O  O12  1  0.43697090  0.20239244  0.40678130  1
  O  O13  1  0.40678130  0.43697090  0.20239244  1
  O  O14  1  0.20239244  0.40678130  0.43697090  1
  O  O15  1  0.29760756  0.59321870  0.93697090  1
  O  O16  1  0.90678130  0.06302910  0.79760756  1
  O  O17  1  0.79760756  0.90678130  0.06302910  1
  O  O18  1  0.09321870  0.56302910  0.70239244  1
  O  O19  1  0.59321870  0.93697090  0.29760756  1
  O  O20  1  0.70239244  0.09321870  0.56302910  1
  O  O21  1  0.93697090  0.29760756  0.59321870  1
  O  O22  1  0.56302910  0.70239244  0.09321870  1
  O  O23  1  0.06302910  0.79760756  0.90678130  1
  O  O24  1  0.56302910  0.79760756  0.59321870  1
  O  O25  1  0.59321870  0.56302910  0.79760756  1
  O  O26  1  0.79760756  0.59321870  0.56302910  1
  O  O27  1  0.70239244  0.40678130  0.06302910  1
loop_
_geom_bond_atom_site_label_1
_geom_bond_atom_site_label_2
_geom_bond_distance
_geom_bond_site_symmetry_2
Hf0 O9 2.053409 1_455
Hf0 O18 2.053409 1_555
Hf0 O26 2.053409 1_455
Hf0 O6 2.053409 1_555
Hf0 O21 2.053409 1_455
Hf0 O14 2.053409 1_555
Hf1 O25 2.053409 1_554
Hf1 O22 2.053409 1_555
Hf1 O5 2.053409 1_554
Hf1 O27 2.053409 1_555
Hf1 O15 2.053409 1_554
Hf1 O13 2.053409 1_555
Hf2 O7 2.053409 1_545
Hf2 O24 2.053409 1_545
Hf2 O20 2.053409 1_555
Hf2 O8 2.053409 1_555
Hf2 O19 2.053409 1_545
Hf2 O12 2.053409 1_555
Hf3 O23 2.053409 1_544
Hf3 O16 2.053409 1_454
Hf3 O17 2.053409 1_445
Hf3 O10 2.053409 1_554
Hf3 O4 2.053409 1_455
Hf3 O11 2.053409 1_545
O0 V4 1.767240 1_545
O0 V0 1.767240 1_554
O1 V5 1.767240 1_455
O1 V1 1.767240 1_545
O2 V2 1.767240 1_455
O2 V6 1.767240 1_554
O3 V3 1.767240 1_555
O3 V7 1.767240 1_555
O4 V2 1.694253 1_555
O5 V0 1.694253 1_555
O6 V1 1.694253 1_555
O7 V1 1.694253 1_555
O8 V0 1.694253 1_555
O9 V2 1.694253 1_555
O10 V0 1.694253 1_555
O11 V1 1.694253 1_555
O12 V7 1.694253 1_555
O13 V7 1.694253 1_555
O14 V7 1.694253 1_555
O15 V6 1.694253 1_555
O16 V5 1.694253 1_555
O17 V4 1.694253 1_555
O18 V6 1.694253 1_555
O19 V4 1.694253 1_555
O20 V5 1.694253 1_555
O21 V5 1.694253 1_555
O22 V4 1.694253 1_555
O23 V6 1.694253 1_555
O24 V3 1.694253 1_555
O25 V3 1.694253 1_555
O26 V3 1.694253 1_555
O27 V2 1.694253 1_555
