# generated using pymatgen
data_Ba11Sb10
_symmetry_space_group_name_H-M   'P 1'
_cell_length_a   12.81708933
_cell_length_b   13.34859018
_cell_length_c   13.59476874
_cell_angle_alpha   119.40276646
_cell_angle_beta   118.12507801
_cell_angle_gamma   89.99999934
_symmetry_Int_Tables_number   1
_chemical_formula_structural   Ba11Sb10
_chemical_formula_sum   'Ba22 Sb20'
_cell_volume   1704.06111765
_cell_formula_units_Z   2
loop_
 _symmetry_equiv_pos_site_id
 _symmetry_equiv_pos_as_xyz
  1  'x, y, z'
loop_
 _atom_site_type_symbol
 _atom_site_label
 _atom_site_symmetry_multiplicity
 _atom_site_fract_x
 _atom_site_fract_y
 _atom_site_fract_z
 _atom_site_occupancy
  Ba  Ba0  1  0.11069037  0.43324200  0.22137974  1
  Ba  Ba1  1  0.88930963  0.56675800  0.77862026  1
  Ba  Ba2  1  0.88930963  0.21186126  0.77862026  1
  Ba  Ba3  1  0.11069037  0.78813874  0.22137974  1
  Ba  Ba4  1  0.14708435  0.14708435  0.29416970  1
  Ba  Ba5  1  0.85291565  0.85291565  0.70583030  1
  Ba  Ba6  1  0.31327013  0.56540348  0.62654026  1
  Ba  Ba7  1  0.68672987  0.43459652  0.37345974  1
  Ba  Ba8  1  0.68672987  0.93886322  0.37345974  1
  Ba  Ba9  1  0.31327013  0.06113678  0.62654026  1
  Ba  Ba10  1  0.42735101  0.09975400  0.19950901  1
  Ba  Ba11  1  0.22784200  0.90024600  0.80049099  1
  Ba  Ba12  1  0.57264899  0.90024600  0.80049099  1
  Ba  Ba13  1  0.77215800  0.09975400  0.19950901  1
  Ba  Ba14  1  0.55294533  0.30351364  0.60702929  1
  Ba  Ba15  1  0.94591704  0.69648636  0.39297071  1
  Ba  Ba16  1  0.44705467  0.69648636  0.39297071  1
  Ba  Ba17  1  0.05408296  0.30351364  0.60702929  1
  Ba  Ba18  1  0.32593669  0.33578333  0.00000000  1
  Ba  Ba19  1  0.32593669  0.66421667  0.00000000  1
  Ba  Ba20  1  0.67406331  0.33578333  -0.00000000  1
  Ba  Ba21  1  0.67406331  0.66421667  -0.00000000  1
  Sb  Sb0  1  0.38590538  0.38590538  0.77180975  1
  Sb  Sb1  1  0.61409462  0.61409462  0.22819025  1
  Sb  Sb2  1  0.74465257  0.24465257  0.48930515  1
  Sb  Sb3  1  0.25534743  0.75534743  0.51069485  1
  Sb  Sb4  1  0.50000000  0.84831828  0.00000000  1
  Sb  Sb5  1  0.50000000  0.15168172  -0.00000000  1
  Sb  Sb6  1  0.11339277  0.50000000  -0.00000000  1
  Sb  Sb7  1  0.88660723  0.50000000  0.00000000  1
  Sb  Sb8  1  0.39955259  0.39695533  0.37093506  1
  Sb  Sb9  1  0.02861654  0.60304467  0.62906494  1
  Sb  Sb10  1  0.60044741  0.02602028  0.62906494  1
  Sb  Sb11  1  0.97138346  0.97397972  0.37093506  1
  Sb  Sb12  1  0.60044741  0.60304467  0.62906494  1
  Sb  Sb13  1  0.97138346  0.39695533  0.37093506  1
  Sb  Sb14  1  0.39955259  0.97397972  0.37093506  1
  Sb  Sb15  1  0.02861654  0.02602028  0.62906494  1
  Sb  Sb16  1  0.10874908  0.12996755  -0.00000000  1
  Sb  Sb17  1  0.10874908  0.87003245  -0.00000000  1
  Sb  Sb18  1  0.89125092  0.12996755  0.00000000  1
  Sb  Sb19  1  0.89125092  0.87003245  0.00000000  1
loop_
_geom_bond_atom_site_label_1
_geom_bond_atom_site_label_2
_geom_bond_distance
_geom_bond_site_symmetry_2
Ba0 Sb8 3.456299 1_555
Ba0 Sb13 3.456300 1_455
Ba0 Sb6 3.547490 1_555
Ba0 Sb7 3.547495 1_455
Ba0 Sb16 3.662411 1_555
Ba0 Sb18 3.662415 1_455
Ba0 Sb3 3.730171 1_555
Ba1 Sb12 3.456299 1_555
Ba1 Sb9 3.456300 1_655
Ba1 Sb7 3.547490 1_556
Ba1 Sb6 3.547495 1_656
Ba1 Sb19 3.662411 1_556
Ba1 Sb17 3.662415 1_656
Ba1 Sb2 3.730171 1_555
Ba2 Sb10 3.456293 1_555
Ba2 Sb15 3.456294 1_655
Ba2 Sb7 3.547499 1_556
Ba2 Sb6 3.547504 1_656
Ba2 Sb18 3.662401 1_556
Ba2 Sb16 3.662406 1_656
Ba2 Sb2 3.730179 1_555
Ba3 Sb14 3.456293 1_555
Ba3 Sb11 3.456294 1_455
Ba3 Sb6 3.547499 1_555
Ba3 Sb7 3.547504 1_455
Ba3 Sb17 3.662401 1_555
Ba3 Sb19 3.662406 1_455
Ba3 Sb3 3.730179 1_555
Ba4 Sb19 3.679282 1_445
Ba4 Sb17 3.679288 1_545
Ba4 Sb18 3.679289 1_455
Ba4 Sb16 3.679294 1_555
Ba4 Sb11 4.010410 1_445
Ba4 Sb13 4.010419 1_455
Ba4 Sb14 4.010427 1_545
Ba4 Sb8 4.010436 1_555
Ba5 Sb16 3.679282 1_666
Ba5 Sb18 3.679288 1_566
Ba5 Sb17 3.679289 1_656
Ba5 Sb19 3.679294 1_556
Ba5 Sb15 4.010410 1_665
Ba5 Sb9 4.010419 1_655
Ba5 Sb10 4.010427 1_565
Ba5 Sb12 4.010436 1_555
Ba6 Sb3 3.504084 1_555
Ba6 Sb0 3.663450 1_555
Ba6 Sb12 3.696717 1_555
Ba6 Sb9 3.696730 1_555
Ba6 Sb13 3.782171 1_455
Ba6 Sb8 3.782181 1_555
Ba6 Sb4 3.935024 1_556
Ba7 Sb2 3.504084 1_555
Ba7 Sb1 3.663450 1_555
Ba7 Sb8 3.696717 1_555
Ba7 Sb13 3.696730 1_555
Ba7 Sb9 3.782171 1_655
Ba7 Sb12 3.782181 1_555
Ba7 Sb5 3.935024 1_555
Ba8 Sb2 3.504084 1_565
Ba8 Sb1 3.663463 1_555
Ba8 Sb14 3.696717 1_555
Ba8 Sb11 3.696730 1_555
Ba8 Sb15 3.782171 1_665
Ba8 Sb10 3.782181 1_565
Ba8 Sb4 3.935024 1_555
Ba9 Sb3 3.504084 1_545
Ba9 Sb0 3.663463 1_555
Ba9 Sb10 3.696717 1_555
Ba9 Sb15 3.696730 1_555
Ba9 Sb11 3.782171 1_445
Ba9 Sb14 3.782181 1_545
Ba9 Sb5 3.935024 1_556
Ba10 Sb4 3.595967 1_545
Ba10 Sb5 3.595975 1_555
Ba10 Sb14 3.605771 1_545
Ba10 Sb8 3.605782 1_555
Ba10 Sb2 3.635105 1_555
Ba10 Sb17 3.850503 1_545
Ba10 Sb16 3.850509 1_555
Ba11 Sb5 3.595967 1_566
Ba11 Sb4 3.595974 1_556
Ba11 Sb15 3.605776 1_565
Ba11 Sb9 3.605787 1_555
Ba11 Sb3 3.635106 1_555
Ba11 Sb16 3.850503 1_566
Ba11 Sb17 3.850509 1_556
Ba12 Sb5 3.595967 1_566
Ba12 Sb4 3.595975 1_556
Ba12 Sb10 3.605771 1_565
Ba12 Sb12 3.605782 1_555
Ba12 Sb3 3.635105 1_555
Ba12 Sb18 3.850503 1_566
Ba12 Sb19 3.850509 1_556
Ba13 Sb4 3.595967 1_545
Ba13 Sb5 3.595974 1_555
Ba13 Sb11 3.605776 1_545
Ba13 Sb13 3.605787 1_555
Ba13 Sb2 3.635106 1_555
Ba13 Sb19 3.850503 1_545
Ba13 Sb18 3.850509 1_555
Ba14 Sb2 3.418920 1_555
Ba14 Sb0 3.593634 1_555
Ba14 Sb14 3.701948 1_545
Ba14 Sb8 3.701969 1_555
Ba14 Sb10 3.885707 1_555
Ba14 Sb12 3.885733 1_555
Ba15 Sb3 3.418908 1_655
Ba15 Sb1 3.593657 1_555
Ba15 Sb15 3.701951 1_665
Ba15 Sb9 3.701972 1_655
Ba15 Sb11 3.885707 1_555
Ba15 Sb13 3.885733 1_555
Ba16 Sb3 3.418920 1_555
Ba16 Sb1 3.593634 1_555
Ba16 Sb10 3.701948 1_565
Ba16 Sb12 3.701969 1_555
Ba16 Sb14 3.885707 1_555
Ba16 Sb8 3.885733 1_555
Ba17 Sb2 3.418908 1_455
Ba17 Sb0 3.593657 1_555
Ba17 Sb11 3.701951 1_445
Ba17 Sb13 3.701972 1_455
Ba17 Sb15 3.885707 1_555
Ba17 Sb9 3.885733 1_555
Ba18 Sb5 3.319124 1_555
Ba18 Sb6 3.496622 1_555
Ba18 Sb1 3.866251 1_555
Ba18 Sb0 3.866266 1_554
Ba18 Sb16 3.911137 1_555
Ba19 Sb4 3.319124 1_555
Ba19 Sb6 3.496622 1_555
Ba19 Sb1 3.866258 1_555
Ba19 Sb0 3.866259 1_554
Ba19 Sb17 3.911137 1_555
Ba20 Sb5 3.319124 1_555
Ba20 Sb7 3.496622 1_555
Ba20 Sb0 3.866258 1_554
Ba20 Sb1 3.866259 1_555
Ba20 Sb18 3.911137 1_555
Ba21 Sb4 3.319124 1_555
Ba21 Sb7 3.496622 1_555
Ba21 Sb0 3.866251 1_554
Ba21 Sb1 3.866266 1_555
Ba21 Sb19 3.911137 1_555
Sb6 Sb7 2.906731 1_455
Sb10 Sb14 2.917989 1_545
Sb11 Sb15 2.917997 1_665
Sb12 Sb8 2.917989 1_555
Sb13 Sb9 2.917997 1_655
Sb16 Sb18 2.787693 1_455
Sb17 Sb19 2.787693 1_455
