# generated using pymatgen
data_CoNi(PO3)4
_symmetry_space_group_name_H-M   'P 1'
_cell_length_a   7.26770784
_cell_length_b   7.26770784
_cell_length_c   9.98284222
_cell_angle_alpha   66.99124370
_cell_angle_beta   66.99124370
_cell_angle_gamma   70.31183067
_symmetry_Int_Tables_number   1
_chemical_formula_structural   CoNi(PO3)4
_chemical_formula_sum   'Co2 Ni2 P8 O24'
_cell_volume   436.05287181
_cell_formula_units_Z   2
loop_
 _symmetry_equiv_pos_site_id
 _symmetry_equiv_pos_as_xyz
  1  'x, y, z'
loop_
 _atom_site_type_symbol
 _atom_site_label
 _atom_site_symmetry_multiplicity
 _atom_site_fract_x
 _atom_site_fract_y
 _atom_site_fract_z
 _atom_site_occupancy
  Co  Co0  1  0.94563900  0.05436100  0.25000000  1
  Co  Co1  1  0.05436100  0.94563900  0.75000000  1
  Ni  Ni0  1  0.50000000  0.00000000  0.50000000  1
  Ni  Ni1  1  0.00000000  0.50000000  0.00000000  1
  P  P0  1  0.31128300  0.29711300  0.19770700  1
  P  P1  1  0.70288700  0.68871700  0.30229300  1
  P  P2  1  0.68871700  0.70288700  0.80229300  1
  P  P3  1  0.29711300  0.31128300  0.69770700  1
  P  P4  1  0.72856900  0.25385100  0.97632400  1
  P  P5  1  0.74614900  0.27143100  0.52367600  1
  P  P6  1  0.27143100  0.74614900  0.02367600  1
  P  P7  1  0.25385100  0.72856900  0.47632400  1
  O  O0  1  0.31168100  0.53441700  0.15575800  1
  O  O1  1  0.46558300  0.68831900  0.34424200  1
  O  O2  1  0.68831900  0.46558300  0.84424200  1
  O  O3  1  0.53441700  0.31168100  0.65575800  1
  O  O4  1  0.49997400  0.21702800  0.06579900  1
  O  O5  1  0.78297200  0.50002600  0.43420100  1
  O  O6  1  0.50002600  0.78297200  0.93420100  1
  O  O7  1  0.21702800  0.49997400  0.56579900  1
  O  O8  1  0.34244700  0.19126200  0.34978500  1
  O  O9  1  0.80873800  0.65755300  0.15021500  1
  O  O10  1  0.65755300  0.80873800  0.65021500  1
  O  O11  1  0.19126200  0.34244700  0.84978500  1
  O  O12  1  0.12004000  0.28611900  0.17573300  1
  O  O13  1  0.71388100  0.87996000  0.32426700  1
  O  O14  1  0.87996000  0.71388100  0.82426700  1
  O  O15  1  0.28611900  0.12004000  0.67573300  1
  O  O16  1  0.80813400  0.29265500  0.08155400  1
  O  O17  1  0.70734500  0.19186600  0.41844600  1
  O  O18  1  0.19186600  0.70734500  0.91844600  1
  O  O19  1  0.29265500  0.80813400  0.58155400  1
  O  O20  1  0.84520400  0.08705000  0.90640400  1
  O  O21  1  0.91295000  0.15479600  0.59359600  1
  O  O22  1  0.15479600  0.91295000  0.09359600  1
  O  O23  1  0.08705000  0.84520400  0.40640400  1
loop_
_geom_bond_atom_site_label_1
_geom_bond_atom_site_label_2
_geom_bond_distance
_geom_bond_site_symmetry_2
Co0 O22 2.037435 1_645
Co0 O23 2.037435 1_645
Co0 O17 2.167164 1_555
Co0 O16 2.167164 1_555
Co0 O12 2.172766 1_655
Co0 O13 2.172766 1_545
Co1 O21 2.037435 1_465
Co1 O20 2.037435 1_465
Co1 O18 2.167164 1_555
Co1 O19 2.167164 1_555
Co1 O15 2.172766 1_565
Co1 O14 2.172766 1_455
Ni0 O8 2.032830 1_555
Ni0 O10 2.032830 1_545
Ni0 O13 2.099023 1_545
Ni0 O15 2.099023 1_555
Ni0 O19 2.108876 1_545
Ni0 O17 2.108876 1_555
Ni1 O11 2.032830 1_554
Ni1 O9 2.032830 1_455
Ni1 O12 2.099023 1_555
Ni1 O14 2.099023 1_454
Ni1 O16 2.108876 1_455
Ni1 O18 2.108876 1_554
O0 P0 1.608611 1_555
O0 P6 1.613736 1_555
O1 P1 1.608611 1_555
O1 P7 1.613736 1_555
O2 P2 1.608611 1_555
O2 P4 1.613736 1_555
O3 P3 1.608611 1_555
O3 P5 1.613736 1_555
O4 P4 1.606927 1_554
O4 P0 1.613391 1_555
O5 P5 1.606927 1_555
O5 P1 1.613391 1_555
O6 P6 1.606927 1_556
O6 P2 1.613391 1_555
O7 P7 1.606927 1_555
O7 P3 1.613391 1_555
O8 P0 1.478628 1_555
O9 P1 1.478628 1_555
O10 P2 1.478628 1_555
O11 P3 1.478628 1_555
O12 P0 1.520921 1_555
O13 P1 1.520921 1_555
O14 P2 1.520921 1_555
O15 P3 1.520921 1_555
O16 P4 1.527679 1_554
O17 P5 1.527679 1_555
O18 P6 1.527679 1_556
O19 P7 1.527679 1_555
O20 P4 1.477115 1_555
O21 P5 1.477115 1_555
O22 P6 1.477115 1_555
O23 P7 1.477115 1_555
