# generated using pymatgen
data_KLa(PS3)2
_symmetry_space_group_name_H-M   'P 1'
_cell_length_a   7.66184100
_cell_length_b   11.48706700
_cell_length_c   12.18850575
_cell_angle_alpha   70.31961396
_cell_angle_beta   90.00000000
_cell_angle_gamma   90.00000000
_symmetry_Int_Tables_number   1
_chemical_formula_structural   KLa(PS3)2
_chemical_formula_sum   'K4 La4 P8 S24'
_cell_volume   1010.07284687
_cell_formula_units_Z   4
loop_
 _symmetry_equiv_pos_site_id
 _symmetry_equiv_pos_as_xyz
  1  'x, y, z'
loop_
 _atom_site_type_symbol
 _atom_site_label
 _atom_site_symmetry_multiplicity
 _atom_site_fract_x
 _atom_site_fract_y
 _atom_site_fract_z
 _atom_site_occupancy
  K  K0  1  0.09420700  0.37460900  0.86949300  1
  K  K1  1  0.59420700  0.12539100  0.13050700  1
  K  K2  1  0.90579300  0.62539100  0.13050700  1
  K  K3  1  0.40579300  0.87460900  0.86949300  1
  La  La0  1  0.60710800  0.59717200  0.64842000  1
  La  La1  1  0.89289200  0.09717200  0.64842000  1
  La  La2  1  0.10710800  0.90282800  0.35158000  1
  La  La3  1  0.39289200  0.40282800  0.35158000  1
  P  P0  1  0.39984600  0.25371200  0.67069200  1
  P  P1  1  0.10015400  0.75371200  0.67069200  1
  P  P2  1  0.88178800  0.76674900  0.78885100  1
  P  P3  1  0.89984600  0.24628800  0.32930800  1
  P  P4  1  0.11821200  0.23325100  0.21114900  1
  P  P5  1  0.38178800  0.73325100  0.21114900  1
  P  P6  1  0.60015400  0.74628800  0.32930800  1
  P  P7  1  0.61821200  0.26674900  0.78885100  1
  S  S0  1  0.19501400  0.63843800  0.32544500  1
  S  S1  1  0.71352600  0.35517800  0.22680500  1
  S  S2  1  0.28647400  0.64482200  0.77319500  1
  S  S3  1  0.52590200  0.36675500  0.88333400  1
  S  S4  1  0.51736100  0.18395400  0.55469900  1
  S  S5  1  0.01736100  0.31604600  0.44530100  1
  S  S6  1  0.20381000  0.40839200  0.13155000  1
  S  S7  1  0.78647400  0.85517800  0.22680500  1
  S  S8  1  0.81808700  0.06894000  0.41141400  1
  S  S9  1  0.68191300  0.56894000  0.41141400  1
  S  S10  1  0.97409800  0.86675500  0.88333400  1
  S  S11  1  0.98263900  0.68395400  0.55469900  1
  S  S12  1  0.30498600  0.13843800  0.32544500  1
  S  S13  1  0.21352600  0.14482200  0.77319500  1
  S  S14  1  0.69501400  0.86156200  0.67455500  1
  S  S15  1  0.48263900  0.81604600  0.44530100  1
  S  S16  1  0.18191300  0.93106000  0.58858600  1
  S  S17  1  0.79619000  0.59160800  0.86845000  1
  S  S18  1  0.80498600  0.36156200  0.67455500  1
  S  S19  1  0.70381000  0.09160800  0.86845000  1
  S  S20  1  0.02590200  0.13324500  0.11666600  1
  S  S21  1  0.29619000  0.90839200  0.13155000  1
  S  S22  1  0.47409800  0.63324500  0.11666600  1
  S  S23  1  0.31808700  0.43106000  0.58858600  1
loop_
_geom_bond_atom_site_label_1
_geom_bond_atom_site_label_2
_geom_bond_distance
_geom_bond_site_symmetry_2
K0 S2 3.275422 1_555
K0 S18 3.289103 1_455
K0 S3 3.311559 1_555
K0 S13 3.356714 1_555
K0 S17 3.377278 1_455
K0 S20 3.378042 1_556
K0 S6 3.448599 1_556
K0 S23 3.686476 1_555
K1 S7 3.275422 1_545
K1 S12 3.289103 1_555
K1 S20 3.311559 1_655
K1 S1 3.356714 1_555
K1 S21 3.377278 1_545
K1 S3 3.378042 1_554
K1 S19 3.448599 1_554
K1 S8 3.686476 1_555
K2 S1 3.275422 1_555
K2 S0 3.289103 1_655
K2 S22 3.311559 1_555
K2 S7 3.356714 1_555
K2 S6 3.377278 1_655
K2 S10 3.378042 1_554
K2 S17 3.448599 1_554
K2 S9 3.686476 1_555
K3 S13 3.275422 1_565
K3 S14 3.289103 1_555
K3 S10 3.311559 1_455
K3 S2 3.356714 1_555
K3 S19 3.377278 1_565
K3 S22 3.378042 1_556
K3 S21 3.448599 1_556
K3 S16 3.686476 1_555
La0 S18 3.023961 1_555
La0 S15 3.027782 1_555
La0 S17 3.029796 1_555
La0 S2 3.034517 1_555
La0 S9 3.067497 1_555
La0 S11 3.132134 1_555
La0 S23 3.164469 1_555
La0 S14 3.229627 1_555
La0 S3 3.238285 1_555
La1 S14 3.023961 1_545
La1 S5 3.027782 1_655
La1 S19 3.029796 1_555
La1 S13 3.034517 1_655
La1 S8 3.067497 1_555
La1 S4 3.132134 1_555
La1 S16 3.164469 1_645
La1 S18 3.229627 1_555
La1 S10 3.238285 1_545
La2 S12 3.023961 1_565
La2 S11 3.027782 1_455
La2 S21 3.029796 1_555
La2 S7 3.034517 1_455
La2 S16 3.067497 1_555
La2 S15 3.132134 1_555
La2 S8 3.164469 1_465
La2 S0 3.229627 1_555
La2 S20 3.238285 1_565
La3 S0 3.023961 1_555
La3 S4 3.027782 1_555
La3 S6 3.029796 1_555
La3 S1 3.034517 1_555
La3 S23 3.067497 1_555
La3 S5 3.132134 1_555
La3 S9 3.164469 1_555
La3 S12 3.229627 1_555
La3 S22 3.238285 1_555
P0 S13 2.027512 1_555
P0 S23 2.042289 1_555
P0 S4 2.052954 1_555
P0 P7 2.245225 1_555
P1 S2 2.027512 1_555
P1 S16 2.042289 1_555
P1 S11 2.052954 1_455
P1 P2 2.245225 1_455
P2 S10 2.009270 1_555
P2 S17 2.025902 1_555
P2 S14 2.037848 1_555
P3 S1 2.027512 1_555
P3 S8 2.042289 1_555
P3 S5 2.052954 1_655
P3 P4 2.245225 1_655
P4 S20 2.009270 1_555
P4 S6 2.025902 1_555
P4 S12 2.037848 1_555
P5 S22 2.009270 1_555
P5 S21 2.025902 1_555
P5 S0 2.037848 1_555
P5 P6 2.245225 1_555
P6 S7 2.027512 1_555
P6 S9 2.042289 1_555
P6 S15 2.052954 1_555
P7 S3 2.009270 1_555
P7 S19 2.025902 1_555
P7 S18 2.037848 1_555
