# generated using pymatgen
data_CsVOF3
_symmetry_space_group_name_H-M   'P 1'
_cell_length_a   3.98697400
_cell_length_b   9.24636912
_cell_length_c   12.01761916
_cell_angle_alpha   89.98134293
_cell_angle_beta   89.99994265
_cell_angle_gamma   89.99994647
_symmetry_Int_Tables_number   1
_chemical_formula_structural   CsVOF3
_chemical_formula_sum   'Cs4 V4 O4 F12'
_cell_volume   443.02990684
_cell_formula_units_Z   4
loop_
 _symmetry_equiv_pos_site_id
 _symmetry_equiv_pos_as_xyz
  1  'x, y, z'
loop_
 _atom_site_type_symbol
 _atom_site_label
 _atom_site_symmetry_multiplicity
 _atom_site_fract_x
 _atom_site_fract_y
 _atom_site_fract_z
 _atom_site_occupancy
  Cs  Cs0  1  0.50000000  0.50010700  0.79884800  1
  Cs  Cs1  1  0.50000000  0.49992200  0.20115800  1
  Cs  Cs2  1  0.50000100  0.99996400  0.70118500  1
  Cs  Cs3  1  0.50000100  0.00005100  0.29883000  1
  V  V0  1  0.99999900  0.17796300  0.97112200  1
  V  V1  1  0.00000100  0.82180000  0.02899000  1
  V  V2  1  0.00000300  0.67799300  0.52890800  1
  V  V3  1  0.99999700  0.32206300  0.47105600  1
  O  O0  1  0.00000200  0.83345200  0.46216600  1
  O  O1  1  0.99999700  0.16663300  0.53777800  1
  O  O2  1  0.99999800  0.33344100  0.03770900  1
  O  O3  1  0.00000100  0.66640600  0.96225000  1
  F  F0  1  0.00000100  0.54045300  0.40095300  1
  F  F1  1  0.99999800  0.45950700  0.59898600  1
  F  F2  1  0.99999800  0.04053800  0.09898000  1
  F  F3  1  0.00000100  0.95950600  0.90110200  1
  F  F4  1  0.50000200  0.65489900  0.54261400  1
  F  F5  1  0.49999900  0.34516000  0.45735100  1
  F  F6  1  0.50000000  0.15500800  0.95732800  1
  F  F7  1  0.50000000  0.84504700  0.04277700  1
  F  F8  1  0.00000300  0.73329100  0.68249000  1
  F  F9  1  0.00000100  0.26671700  0.31742100  1
  F  F10  1  0.99999700  0.23341600  0.81735400  1
  F  F11  1  0.00000000  0.76666500  0.18264300  1
loop_
_geom_bond_atom_site_label_1
_geom_bond_atom_site_label_2
_geom_bond_distance
_geom_bond_site_symmetry_2
Cs0 F1 3.143950 1_555
Cs0 F1 3.143963 1_455
Cs0 F10 3.178650 1_555
Cs0 F10 3.178668 1_455
Cs0 O3 3.193190 1_555
Cs0 O3 3.193199 1_655
Cs0 F8 3.252098 1_555
Cs0 F8 3.252113 1_655
Cs0 F4 3.395272 1_555
Cs1 F0 3.143261 1_555
Cs1 F0 3.143269 1_655
Cs1 F11 3.179038 1_555
Cs1 F11 3.179041 1_655
Cs1 O2 3.194346 1_555
Cs1 O2 3.194360 1_455
Cs1 F9 3.251741 1_555
Cs1 F9 3.251746 1_655
Cs1 F5 3.394709 1_555
Cs2 F3 3.144117 1_555
Cs2 F3 3.144120 1_655
Cs2 F8 3.178799 1_555
Cs2 F8 3.178806 1_655
Cs2 O1 3.194254 1_565
Cs2 O1 3.194274 1_465
Cs2 F10 3.253369 1_565
Cs2 F10 3.253384 1_465
Cs2 F6 3.396110 1_565
Cs3 F2 3.143526 1_555
Cs3 F2 3.143544 1_455
Cs3 F9 3.178662 1_555
Cs3 F9 3.178665 1_655
Cs3 O0 3.193425 1_545
Cs3 O0 3.193430 1_645
Cs3 F11 3.253060 1_645
Cs3 F11 3.253069 1_545
Cs3 F7 3.394973 1_545
O0 V2 1.645840 1_555
O1 V3 1.645489 1_555
O2 V0 1.645543 1_554
O3 V1 1.645760 1_556
F0 V2 1.995790 1_555
F0 V3 2.187757 1_455
F1 V3 1.994992 1_555
F1 V2 2.188461 1_655
F2 V0 1.993576 1_554
F2 V1 2.190711 1_645
F3 V1 1.995510 1_556
F3 V0 2.188451 1_465
F4 V2 2.011636 1_555
F4 V2 2.011644 1_655
F5 V3 2.011634 1_555
F5 V3 2.011650 1_455
F6 V0 2.011599 1_555
F6 V0 2.011606 1_455
F7 V1 2.011878 1_555
F7 V1 2.011886 1_655
F8 V2 1.915364 1_555
F9 V3 1.916097 1_455
F10 V0 1.917580 1_555
F11 V1 1.915464 1_555
