# generated using pymatgen
data_KNaCu3S3O13
_symmetry_space_group_name_H-M   'P 1'
_cell_length_a   10.50598926
_cell_length_b   10.50598926
_cell_length_c   18.41716546
_cell_angle_alpha   52.02689112
_cell_angle_beta   52.02689112
_cell_angle_gamma   53.98656763
_symmetry_Int_Tables_number   1
_chemical_formula_structural   KNaCu3S3O13
_chemical_formula_sum   'K4 Na4 Cu12 S12 O52'
_cell_volume   1189.34740924
_cell_formula_units_Z   4
loop_
 _symmetry_equiv_pos_site_id
 _symmetry_equiv_pos_as_xyz
  1  'x, y, z'
loop_
 _atom_site_type_symbol
 _atom_site_label
 _atom_site_symmetry_multiplicity
 _atom_site_fract_x
 _atom_site_fract_y
 _atom_site_fract_z
 _atom_site_occupancy
  K  K0  1  0.30599100  0.32184200  0.12847900  1
  K  K1  1  0.67815800  0.69400900  0.37152100  1
  K  K2  1  0.69400900  0.67815800  0.87152100  1
  K  K3  1  0.32184200  0.30599100  0.62847900  1
  Na  Na0  1  0.13823100  0.10469000  0.45371100  1
  Na  Na1  1  0.10469000  0.13823100  0.95371100  1
  Na  Na2  1  0.86176900  0.89531000  0.54628900  1
  Na  Na3  1  0.89531000  0.86176900  0.04628900  1
  Cu  Cu0  1  0.46727000  0.45665500  0.70553800  1
  Cu  Cu1  1  0.12739800  0.68564900  0.35957000  1
  Cu  Cu2  1  0.31435100  0.87260200  0.14043000  1
  Cu  Cu3  1  0.45665500  0.46727000  0.20553800  1
  Cu  Cu4  1  0.68564900  0.12739800  0.85957000  1
  Cu  Cu5  1  0.87938700  0.33826200  0.15749000  1
  Cu  Cu6  1  0.33826200  0.87938700  0.65749000  1
  Cu  Cu7  1  0.53273000  0.54334500  0.29446200  1
  Cu  Cu8  1  0.54334500  0.53273000  0.79446200  1
  Cu  Cu9  1  0.12061300  0.66173800  0.84251000  1
  Cu  Cu10  1  0.66173800  0.12061300  0.34251000  1
  Cu  Cu11  1  0.87260200  0.31435100  0.64043000  1
  S  S0  1  0.26079400  0.26420000  0.98508500  1
  S  S1  1  0.68185900  0.09717200  0.70625800  1
  S  S2  1  0.25789700  0.81678100  0.86821400  1
  S  S3  1  0.31814100  0.90282800  0.29374200  1
  S  S4  1  0.74210300  0.18321900  0.13178600  1
  S  S5  1  0.09717200  0.68185900  0.20625800  1
  S  S6  1  0.90282800  0.31814100  0.79374200  1
  S  S7  1  0.81678100  0.25789700  0.36821400  1
  S  S8  1  0.26420000  0.26079400  0.48508500  1
  S  S9  1  0.18321900  0.74210300  0.63178600  1
  S  S10  1  0.73920600  0.73580000  0.01491500  1
  S  S11  1  0.73580000  0.73920600  0.51491500  1
  O  O0  1  0.46908300  0.74298500  0.31230100  1
  O  O1  1  0.14431400  0.84079700  0.13835100  1
  O  O2  1  0.87791000  0.67063400  0.93308000  1
  O  O3  1  0.87416600  0.25924000  0.08503800  1
  O  O4  1  0.72503700  0.58004700  0.54141900  1
  O  O5  1  0.09979800  0.80078400  0.57088700  1
  O  O6  1  0.71757300  0.91772500  0.97966600  1
  O  O7  1  0.27496300  0.41995300  0.45858100  1
  O  O8  1  0.74076000  0.12583400  0.41496200  1
  O  O9  1  0.94049900  0.28173000  0.26186700  1
  O  O10  1  0.25924000  0.87416600  0.58503800  1
  O  O11  1  0.63539000  0.78616100  0.60198300  1
  O  O12  1  0.57403800  0.32691000  0.12952900  1
  O  O13  1  0.05950100  0.71827000  0.73813300  1
  O  O14  1  0.35231600  0.64768400  0.25000000  1
  O  O15  1  0.02701600  0.30563300  0.81262700  1
  O  O16  1  0.97298400  0.69436700  0.18737300  1
  O  O17  1  0.67309000  0.42596200  0.37047100  1
  O  O18  1  0.85568600  0.15920300  0.86164900  1
  O  O19  1  0.64768400  0.35231600  0.75000000  1
  O  O20  1  0.34894500  0.97786200  0.18551100  1
  O  O21  1  0.84079700  0.14431400  0.63835100  1
  O  O22  1  0.42596200  0.67309000  0.87047100  1
  O  O23  1  0.02213800  0.65105500  0.31448900  1
  O  O24  1  0.41995300  0.27496300  0.95858100  1
  O  O25  1  0.36461000  0.21383900  0.39801700  1
  O  O26  1  0.15920300  0.85568600  0.36164900  1
  O  O27  1  0.28173000  0.94049900  0.76186700  1
  O  O28  1  0.97786200  0.34894500  0.68551100  1
  O  O29  1  0.12583400  0.74076000  0.91496200  1
  O  O30  1  0.71827000  0.05950100  0.23813300  1
  O  O31  1  0.08227500  0.28242700  0.52033400  1
  O  O32  1  0.53091700  0.25701500  0.68769900  1
  O  O33  1  0.90020200  0.19921600  0.42911300  1
  O  O34  1  0.21383900  0.36461000  0.89801700  1
  O  O35  1  0.32936600  0.12209000  0.56692000  1
  O  O36  1  0.28242700  0.08227500  0.02033400  1
  O  O37  1  0.67063400  0.87791000  0.43308000  1
  O  O38  1  0.78616100  0.63539000  0.10198300  1
  O  O39  1  0.12209000  0.32936600  0.06692000  1
  O  O40  1  0.30563300  0.02701600  0.31262700  1
  O  O41  1  0.69436700  0.97298400  0.68737300  1
  O  O42  1  0.80078400  0.09979800  0.07088700  1
  O  O43  1  0.91772500  0.71757300  0.47966600  1
  O  O44  1  0.19921600  0.90020200  0.92911300  1
  O  O45  1  0.25701500  0.53091700  0.18769900  1
  O  O46  1  0.36217200  0.63782800  0.75000000  1
  O  O47  1  0.58004700  0.72503700  0.04141900  1
  O  O48  1  0.63782800  0.36217200  0.25000000  1
  O  O49  1  0.32691000  0.57403800  0.62952900  1
  O  O50  1  0.74298500  0.46908300  0.81230100  1
  O  O51  1  0.65105500  0.02213800  0.81448900  1
loop_
_geom_bond_atom_site_label_1
_geom_bond_atom_site_label_2
_geom_bond_distance
_geom_bond_site_symmetry_2
K0 O45 2.684682 1_555
K0 O39 2.725830 1_555
K0 O24 2.838971 1_554
K0 O40 2.857820 1_555
K0 O12 2.859760 1_555
K0 O20 2.891577 1_545
K0 O9 3.158767 1_455
K1 O0 2.684682 1_555
K1 O37 2.725830 1_555
K1 O4 2.838971 1_555
K1 O16 2.857820 1_555
K1 O17 2.859760 1_555
K1 O23 2.891577 1_655
K1 O30 3.158767 1_565
K2 O50 2.684682 1_555
K2 O2 2.725830 1_555
K2 O47 2.838971 1_556
K2 O41 2.857820 1_555
K2 O22 2.859760 1_555
K2 O51 2.891577 1_565
K2 O13 3.158767 1_655
K3 O32 2.684682 1_555
K3 O35 2.725830 1_555
K3 O7 2.838971 1_555
K3 O15 2.857820 1_555
K3 O49 2.859760 1_555
K3 O28 2.891577 1_455
K3 O27 3.158767 1_545
Na0 O33 2.316287 1_455
Na0 O40 2.410104 1_555
Na0 O31 2.445185 1_555
Na0 O10 2.507289 1_545
Na0 O25 2.604080 1_555
Na0 O5 2.641789 1_545
Na0 O21 2.938973 1_455
Na1 O44 2.316287 1_545
Na1 O15 2.410104 1_555
Na1 O36 2.445185 1_556
Na1 O3 2.507289 1_456
Na1 O34 2.604080 1_555
Na1 O42 2.641789 1_456
Na1 O1 2.938973 1_546
Na2 O5 2.316287 1_655
Na2 O41 2.410104 1_555
Na2 O43 2.445185 1_555
Na2 O8 2.507289 1_565
Na2 O11 2.604080 1_555
Na2 O33 2.641789 1_565
Na2 O26 2.938973 1_655
Na3 O42 2.316287 1_565
Na3 O16 2.410104 1_555
Na3 O6 2.445185 1_554
Na3 O29 2.507289 1_654
Na3 O38 2.604080 1_555
Na3 O44 2.641789 1_654
Na3 O18 2.938973 1_564
Cu0 O19 1.956239 1_555
Cu0 O46 1.961270 1_555
Cu0 O32 1.970432 1_555
Cu0 O49 1.983007 1_555
Cu1 O14 1.956830 1_555
Cu1 O43 1.976222 1_455
Cu1 O23 2.004544 1_555
Cu1 O26 2.026383 1_555
Cu1 O7 2.376260 1_555
Cu2 O14 1.956830 1_555
Cu2 O36 1.976222 1_565
Cu2 O20 2.004544 1_555
Cu2 O1 2.026383 1_555
Cu2 O47 2.376260 1_555
Cu3 O14 1.956239 1_555
Cu3 O48 1.961270 1_555
Cu3 O45 1.970432 1_555
Cu3 O12 1.983007 1_555
Cu4 O19 1.956830 1_555
Cu4 O6 1.976222 1_545
Cu4 O51 2.004544 1_555
Cu4 O18 2.026383 1_555
Cu4 O24 2.376260 1_555
Cu5 O48 1.965347 1_555
Cu5 O39 1.992588 1_655
Cu5 O3 1.994897 1_555
Cu5 O9 2.031186 1_555
Cu5 O38 2.336371 1_555
Cu6 O46 1.965347 1_555
Cu6 O35 1.992588 1_565
Cu6 O10 1.994897 1_555
Cu6 O27 2.031186 1_555
Cu6 O11 2.336371 1_555
Cu7 O14 1.956239 1_555
Cu7 O48 1.961270 1_555
Cu7 O0 1.970432 1_555
Cu7 O17 1.983007 1_555
Cu8 O19 1.956239 1_555
Cu8 O46 1.961270 1_555
Cu8 O50 1.970432 1_555
Cu8 O22 1.983007 1_555
Cu9 O46 1.965347 1_555
Cu9 O2 1.992588 1_455
Cu9 O29 1.994897 1_555
Cu9 O13 2.031186 1_555
Cu9 O34 2.336371 1_555
Cu10 O48 1.965347 1_555
Cu10 O37 1.992588 1_545
Cu10 O8 1.994897 1_555
Cu10 O30 2.031186 1_555
Cu10 O25 2.336371 1_555
Cu11 O19 1.956830 1_555
Cu11 O31 1.976222 1_655
Cu11 O28 2.004544 1_555
Cu11 O21 2.026383 1_555
Cu11 O4 2.376260 1_555
O0 S3 1.510205 1_555
O1 S5 1.496016 1_555
O2 S10 1.502550 1_556
O3 S4 1.513634 1_555
O4 S11 1.482247 1_555
O5 S9 1.459281 1_555
O6 S10 1.506658 1_556
O7 S8 1.482247 1_555
O8 S7 1.513634 1_555
O9 S7 1.494899 1_555
O10 S9 1.513634 1_555
O11 S11 1.485727 1_555
O12 S4 1.508945 1_555
O13 S9 1.494899 1_555
O15 S6 1.463247 1_455
O16 S5 1.463247 1_655
O17 S7 1.508945 1_555
O18 S6 1.496016 1_555
O20 S3 1.507298 1_555
O21 S1 1.496016 1_555
O22 S2 1.508945 1_555
O23 S5 1.507298 1_555
O24 S0 1.482247 1_555
O25 S8 1.485727 1_555
O26 S3 1.496016 1_555
O27 S2 1.494899 1_555
O28 S6 1.507298 1_555
O29 S2 1.513634 1_555
O30 S4 1.494899 1_555
O31 S8 1.506658 1_555
O32 S1 1.510205 1_555
O33 S7 1.459281 1_555
O34 S0 1.485727 1_555
O35 S8 1.502550 1_555
O36 S0 1.506658 1_554
O37 S11 1.502550 1_555
O38 S10 1.485727 1_555
O39 S0 1.502550 1_554
O40 S3 1.463247 1_545
O41 S1 1.463247 1_565
O42 S4 1.459281 1_555
O43 S11 1.506658 1_555
O44 S2 1.459281 1_555
O45 S5 1.510205 1_555
O47 S10 1.482247 1_555
O49 S9 1.508945 1_555
O50 S6 1.510205 1_555
O51 S1 1.507298 1_555
