# generated using pymatgen
data_LaCo8P5
_symmetry_space_group_name_H-M   'P 1'
_cell_length_a   3.57890738
_cell_length_b   9.20903432
_cell_length_c   10.41575422
_cell_angle_alpha   90.00000000
_cell_angle_beta   90.00000000
_cell_angle_gamma   90.00000000
_symmetry_Int_Tables_number   1
_chemical_formula_structural   LaCo8P5
_chemical_formula_sum   'La2 Co16 P10'
_cell_volume   343.28535327
_cell_formula_units_Z   2
loop_
 _symmetry_equiv_pos_site_id
 _symmetry_equiv_pos_as_xyz
  1  'x, y, z'
loop_
 _atom_site_type_symbol
 _atom_site_label
 _atom_site_symmetry_multiplicity
 _atom_site_fract_x
 _atom_site_fract_y
 _atom_site_fract_z
 _atom_site_occupancy
  La  La0  1  -0.00000000  0.82466913  -0.00000000  1
  La  La1  1  0.50000000  0.17533087  0.50000000  1
  Co  Co0  1  0.00000000  0.51956350  0.16956796  1
  Co  Co1  1  0.50000000  0.48043650  0.33043204  1
  Co  Co2  1  -0.00000000  0.51956350  0.83043204  1
  Co  Co3  1  0.50000000  0.48043650  0.66956796  1
  Co  Co4  1  0.00000000  0.11069365  0.24272434  1
  Co  Co5  1  0.50000000  0.88930635  0.25727566  1
  Co  Co6  1  -0.00000000  0.11069365  0.75727566  1
  Co  Co7  1  0.50000000  0.88930635  0.74272434  1
  Co  Co8  1  0.00000000  0.69658628  0.35423836  1
  Co  Co9  1  0.50000000  0.30341372  0.14576164  1
  Co  Co10  1  0.00000000  0.69658628  0.64576164  1
  Co  Co11  1  0.50000000  0.30341372  0.85423836  1
  Co  Co12  1  -0.00000000  0.15691411  -0.00000000  1
  Co  Co13  1  0.50000000  0.84308589  0.50000000  1
  Co  Co14  1  0.50000000  0.54223380  -0.00000000  1
  Co  Co15  1  0.00000000  0.45776620  0.50000000  1
  P  P0  1  -0.00000000  0.93348004  0.38001346  1
  P  P1  1  0.50000000  0.06651996  0.11998654  1
  P  P2  1  0.00000000  0.93348004  0.61998654  1
  P  P3  1  0.50000000  0.06651996  0.88001346  1
  P  P4  1  -0.00000000  0.33943870  0.31033603  1
  P  P5  1  0.50000000  0.66056130  0.18966397  1
  P  P6  1  0.00000000  0.33943870  0.68966397  1
  P  P7  1  0.50000000  0.66056130  0.81033603  1
  P  P8  1  0.00000000  0.39067557  -0.00000000  1
  P  P9  1  0.50000000  0.60932443  0.50000000  1
loop_
_geom_bond_atom_site_label_1
_geom_bond_atom_site_label_2
_geom_bond_distance
_geom_bond_site_symmetry_2
La0 P5 3.064094 1_555
La0 P5 3.064094 1_455
La0 P7 3.064094 1_454
La0 P7 3.064094 1_554
La0 P3 3.118412 1_464
La0 P1 3.118412 1_465
La0 P3 3.118412 1_564
La0 P1 3.118412 1_565
La1 P4 3.064094 1_655
La1 P6 3.064094 1_555
La1 P6 3.064094 1_655
La1 P4 3.064094 1_555
La1 P0 3.118412 1_545
La1 P2 3.118412 1_645
La1 P2 3.118412 1_545
La1 P0 3.118412 1_645
Co0 P8 2.127956 1_555
Co0 P4 2.213887 1_555
Co0 P5 2.220797 1_455
Co0 P5 2.220797 1_555
Co0 La0 3.318728 1_555
Co1 P9 2.127956 1_555
Co1 P5 2.213887 1_555
Co1 P4 2.220797 1_555
Co1 P4 2.220797 1_655
Co1 La1 3.318728 1_555
Co2 P8 2.127956 1_556
Co2 P6 2.213887 1_555
Co2 P7 2.220797 1_555
Co2 P7 2.220797 1_455
Co2 La0 3.318728 1_556
Co3 P9 2.127956 1_555
Co3 P7 2.213887 1_555
Co3 P6 2.220797 1_555
Co3 P6 2.220797 1_655
Co3 La1 3.318728 1_555
Co4 P0 2.169822 1_545
Co4 P4 2.221118 1_555
Co4 P1 2.236504 1_555
Co4 P1 2.236504 1_455
Co4 La1 3.276791 1_455
Co4 La1 3.276791 1_555
Co5 P1 2.169822 1_565
Co5 P5 2.221118 1_555
Co5 P0 2.236504 1_655
Co5 P0 2.236504 1_555
Co5 La0 3.276791 1_555
Co5 La0 3.276791 1_655
Co6 P2 2.169822 1_545
Co6 P6 2.221118 1_555
Co6 P3 2.236504 1_455
Co6 P3 2.236504 1_555
Co6 La1 3.276791 1_455
Co6 La1 3.276791 1_555
Co7 P3 2.169822 1_565
Co7 P7 2.221118 1_555
Co7 P2 2.236504 1_555
Co7 P2 2.236504 1_655
Co7 La0 3.276791 1_556
Co7 La0 3.276791 1_656
Co8 P0 2.198020 1_555
Co8 P9 2.480503 1_555
Co8 P9 2.480503 1_455
Co8 P5 2.500114 1_455
Co8 P5 2.500114 1_555
Co9 P1 2.198020 1_555
Co9 P8 2.480503 1_655
Co9 P8 2.480503 1_555
Co9 P4 2.500114 1_655
Co9 P4 2.500114 1_555
Co10 P2 2.198020 1_555
Co10 P9 2.480503 1_555
Co10 P9 2.480503 1_455
Co10 P7 2.500114 1_555
Co10 P7 2.500114 1_455
Co11 P3 2.198020 1_555
Co11 P8 2.480503 1_656
Co11 P8 2.480503 1_556
Co11 P6 2.500114 1_555
Co11 P6 2.500114 1_655
Co12 P8 2.152717 1_555
Co12 P1 2.336018 1_455
Co12 P3 2.336018 1_554
Co12 P1 2.336018 1_555
Co12 P3 2.336018 1_454
Co12 La0 3.059655 1_545
Co13 P9 2.152717 1_555
Co13 P2 2.336018 1_555
Co13 P0 2.336018 1_655
Co13 P0 2.336018 1_555
Co13 P2 2.336018 1_655
Co13 La1 3.059655 1_565
Co14 P5 2.256099 1_555
Co14 P7 2.256099 1_554
Co14 P8 2.269391 1_655
Co14 P8 2.269391 1_555
Co14 La0 3.157075 1_555
Co14 La0 3.157075 1_655
Co15 P4 2.256099 1_555
Co15 P6 2.256099 1_555
Co15 P9 2.269391 1_455
Co15 P9 2.269391 1_555
Co15 La1 3.157075 1_455
Co15 La1 3.157075 1_555
P0 P2 2.499501 1_555
P1 P3 2.499501 1_554
