# generated using pymatgen
data_In2Te5
_symmetry_space_group_name_H-M   'P 1'
_cell_length_a   4.34800037
_cell_length_b   8.77159242
_cell_length_c   14.02196671
_cell_angle_alpha   89.89769130
_cell_angle_beta   89.44624621
_cell_angle_gamma   75.62922712
_symmetry_Int_Tables_number   1
_chemical_formula_structural   In2Te5
_chemical_formula_sum   'In4 Te10'
_cell_volume   518.02451424
_cell_formula_units_Z   2
loop_
 _symmetry_equiv_pos_site_id
 _symmetry_equiv_pos_as_xyz
  1  'x, y, z'
loop_
 _atom_site_type_symbol
 _atom_site_label
 _atom_site_symmetry_multiplicity
 _atom_site_fract_x
 _atom_site_fract_y
 _atom_site_fract_z
 _atom_site_occupancy
  In  In0  1  0.60777605  0.76983865  0.30957647  1
  In  In1  1  0.99274973  0.00617669  0.14710624  1
  In  In2  1  0.37675283  0.23080705  0.80854345  1
  In  In3  1  0.00040160  0.99371954  0.64662719  1
  Te  Te0  1  0.28563999  0.38841559  0.23073932  1
  Te  Te1  1  0.39982091  0.19870127  0.60315029  1
  Te  Te2  1  0.67949374  0.61113079  0.73060232  1
  Te  Te3  1  0.16628617  0.68691648  0.58412787  1
  Te  Te4  1  0.23286289  0.53504300  0.87596527  1
  Te  Te5  1  0.00435033  0.97524807  0.35273209  1
  Te  Te6  1  0.97950344  0.02577094  0.85210249  1
  Te  Te7  1  0.85365457  0.31230798  0.08383329  1
  Te  Te8  1  0.76729708  0.46512995  0.37611966  1
  Te  Te9  1  0.59760969  0.80079400  0.10417506  1
loop_
_geom_bond_atom_site_label_1
_geom_bond_atom_site_label_2
_geom_bond_distance
_geom_bond_site_symmetry_2
In0 Te8 2.752966 1_555
In0 Te5 2.850077 1_555
In0 Te5 2.855175 1_655
In0 Te9 2.892153 1_555
In1 Te7 2.749408 1_555
In1 Te9 2.849550 1_545
In1 Te9 2.854094 1_645
In1 Te5 2.895283 1_645
In2 Te4 2.752379 1_555
In2 Te6 2.847575 1_455
In2 Te6 2.857155 1_555
In2 Te1 2.892603 1_555
In3 Te3 2.750132 1_555
In3 Te1 2.849514 1_465
In3 Te1 2.854154 1_565
In3 Te6 2.893713 1_465
Te0 Te8 2.975072 1_455
Te0 Te7 2.986459 1_455
Te0 Te8 3.127487 1_555
Te0 Te7 3.142707 1_555
Te2 Te4 2.988841 1_555
Te2 Te3 2.997815 1_555
Te2 Te4 3.111574 1_655
Te2 Te3 3.122444 1_655
