# generated using pymatgen
data_SrZrS3
_symmetry_space_group_name_H-M   'P 1'
_cell_length_a   3.84019975
_cell_length_b   8.58682343
_cell_length_c   13.99646858
_cell_angle_alpha   90.00000000
_cell_angle_beta   90.00000000
_cell_angle_gamma   90.00000000
_symmetry_Int_Tables_number   1
_chemical_formula_structural   SrZrS3
_chemical_formula_sum   'Sr4 Zr4 S12'
_cell_volume   461.53519166
_cell_formula_units_Z   4
loop_
 _symmetry_equiv_pos_site_id
 _symmetry_equiv_pos_as_xyz
  1  'x, y, z'
loop_
 _atom_site_type_symbol
 _atom_site_label
 _atom_site_symmetry_multiplicity
 _atom_site_fract_x
 _atom_site_fract_y
 _atom_site_fract_z
 _atom_site_occupancy
  Sr  Sr0  1  0.25000000  0.56631842  0.67933728  1
  Sr  Sr1  1  0.75000000  0.43368158  0.32066272  1
  Sr  Sr2  1  0.25000000  0.06631842  0.82066272  1
  Sr  Sr3  1  0.75000000  0.93368158  0.17933728  1
  Zr  Zr0  1  0.75000000  0.17229793  0.55704884  1
  Zr  Zr1  1  0.75000000  0.67229793  0.94295116  1
  Zr  Zr2  1  0.25000000  0.32770207  0.05704884  1
  Zr  Zr3  1  0.25000000  0.82770207  0.44295116  1
  S  S0  1  0.75000000  0.16365179  0.98627987  1
  S  S1  1  0.25000000  0.70665262  0.28426736  1
  S  S2  1  0.25000000  0.98474767  0.60581465  1
  S  S3  1  0.25000000  0.48474767  0.89418535  1
  S  S4  1  0.25000000  0.83634821  0.01372013  1
  S  S5  1  0.75000000  0.51525233  0.10581465  1
  S  S6  1  0.75000000  0.66365179  0.51372013  1
  S  S7  1  0.25000000  0.20665262  0.21573264  1
  S  S8  1  0.75000000  0.79334738  0.78426736  1
  S  S9  1  0.75000000  0.29334738  0.71573264  1
  S  S10  1  0.25000000  0.33634821  0.48627987  1
  S  S11  1  0.75000000  0.01525233  0.39418535  1
loop_
_geom_bond_atom_site_label_1
_geom_bond_atom_site_label_2
_geom_bond_distance
_geom_bond_site_symmetry_2
S0 Zr2 2.579197 1_556
S0 Zr2 2.579197 1_656
S0 Sr2 3.123892 1_555
S0 Sr2 3.123892 1_655
S0 Sr3 3.346783 1_546
S1 Zr3 2.452206 1_555
S1 Sr1 3.072523 1_455
S1 Sr1 3.072523 1_555
S1 Sr3 3.105496 1_455
S1 Sr3 3.105496 1_555
S2 Zr0 2.597353 1_565
S2 Zr0 2.597353 1_465
S2 Zr3 2.648527 1_555
S2 Sr2 3.087611 1_565
S3 Zr1 2.597353 1_455
S3 Zr1 2.597353 1_555
S3 Zr2 2.648527 1_556
S3 Sr0 3.087611 1_555
S4 Zr1 2.579197 1_554
S4 Zr1 2.579197 1_454
S4 Sr3 3.123892 1_555
S4 Sr3 3.123892 1_455
S4 Sr2 3.346783 1_564
S5 Zr2 2.597353 1_555
S5 Zr2 2.597353 1_655
S5 Zr1 2.648527 1_554
S5 Sr1 3.087611 1_555
S6 Zr3 2.579197 1_655
S6 Zr3 2.579197 1_555
S6 Sr0 3.123892 1_555
S6 Sr0 3.123892 1_655
S6 Sr1 3.346783 1_555
S7 Zr2 2.452206 1_555
S7 Sr3 3.072523 1_445
S7 Sr3 3.072523 1_545
S7 Sr1 3.105496 1_455
S7 Sr1 3.105496 1_555
S8 Zr1 2.452206 1_555
S8 Sr2 3.072523 1_565
S8 Sr2 3.072523 1_665
S8 Sr0 3.105496 1_655
S8 Sr0 3.105496 1_555
S9 Zr0 2.452206 1_555
S9 Sr0 3.072523 1_655
S9 Sr0 3.072523 1_555
S9 Sr2 3.105496 1_555
S9 Sr2 3.105496 1_655
S10 Zr0 2.579197 1_555
S10 Zr0 2.579197 1_455
S10 Sr1 3.123892 1_555
S10 Sr1 3.123892 1_455
S10 Sr0 3.346783 1_555
S11 Zr3 2.597353 1_645
S11 Zr3 2.597353 1_545
S11 Zr0 2.648527 1_555
S11 Sr3 3.087611 1_545
