# generated using pymatgen
data_TmMn4(CuO4)3
_symmetry_space_group_name_H-M   'P 1'
_cell_length_a   6.40315281
_cell_length_b   6.40315281
_cell_length_c   6.40315281
_cell_angle_alpha   109.47122063
_cell_angle_beta   109.47122063
_cell_angle_gamma   109.47122063
_symmetry_Int_Tables_number   1
_chemical_formula_structural   TmMn4(CuO4)3
_chemical_formula_sum   'Tm1 Mn4 Cu3 O12'
_cell_volume   202.09692645
_cell_formula_units_Z   1
loop_
 _symmetry_equiv_pos_site_id
 _symmetry_equiv_pos_as_xyz
  1  'x, y, z'
loop_
 _atom_site_type_symbol
 _atom_site_label
 _atom_site_symmetry_multiplicity
 _atom_site_fract_x
 _atom_site_fract_y
 _atom_site_fract_z
 _atom_site_occupancy
  Tm  Tm0  1  0.00000000  0.00000000  0.00000000  1
  Mn  Mn0  1  0.00000000  0.50000000  0.00000000  1
  Mn  Mn1  1  0.00000000  0.00000000  0.50000000  1
  Mn  Mn2  1  0.50000000  0.50000000  0.50000000  1
  Mn  Mn3  1  0.50000000  0.00000000  0.00000000  1
  Cu  Cu0  1  0.00000000  0.50000000  0.50000000  1
  Cu  Cu1  1  0.50000000  0.00000000  0.50000000  1
  Cu  Cu2  1  0.50000000  0.50000000  0.00000000  1
  O  O0  1  0.30053700  0.46974800  0.16921100  1
  O  O1  1  0.16921100  0.69946300  0.86867400  1
  O  O2  1  0.30053700  0.13132600  0.83078900  1
  O  O3  1  0.83078900  0.69946300  0.53025200  1
  O  O4  1  0.69946300  0.53025200  0.83078900  1
  O  O5  1  0.69946300  0.86867400  0.16921100  1
  O  O6  1  0.83078900  0.30053700  0.13132600  1
  O  O7  1  0.16921100  0.30053700  0.46974800  1
  O  O8  1  0.53025200  0.83078900  0.69946300  1
  O  O9  1  0.86867400  0.16921100  0.69946300  1
  O  O10  1  0.46974800  0.16921100  0.30053700  1
  O  O11  1  0.13132600  0.83078900  0.30053700  1
loop_
_geom_bond_atom_site_label_1
_geom_bond_atom_site_label_2
_geom_bond_distance
_geom_bond_site_symmetry_2
Mn0 O1 1.978161 1_554
Mn0 O4 1.978161 1_454
Mn0 O6 1.978161 1_455
Mn0 O11 1.978161 1_555
Mn0 O9 1.978161 1_454
Mn0 O0 1.978161 1_555
Mn1 O11 1.978161 1_545
Mn1 O7 1.978161 1_555
Mn1 O9 1.978161 1_455
Mn1 O2 1.978161 1_555
Mn1 O5 1.978161 1_445
Mn1 O3 1.978161 1_445
Mn2 O7 1.978161 1_555
Mn2 O4 1.978161 1_555
Mn2 O8 1.978161 1_555
Mn2 O10 1.978161 1_555
Mn2 O0 1.978161 1_555
Mn2 O3 1.978161 1_555
Mn3 O6 1.978161 1_555
Mn3 O2 1.978161 1_554
Mn3 O5 1.978161 1_545
Mn3 O10 1.978161 1_555
Mn3 O1 1.978161 1_544
Mn3 O8 1.978161 1_544
Cu0 O3 1.933962 1_455
Cu0 O1 1.933962 1_555
Cu0 O6 1.933962 1_455
Cu0 O7 1.933962 1_555
Cu1 O8 1.933962 1_545
Cu1 O9 1.933962 1_555
Cu1 O10 1.933962 1_555
Cu1 O11 1.933962 1_545
Cu2 O4 1.933962 1_554
Cu2 O5 1.933962 1_555
Cu2 O2 1.933962 1_554
Cu2 O0 1.933962 1_555
O0 Tm0 2.550083 1_555
O1 Tm0 2.550083 1_566
O2 Tm0 2.550083 1_556
O3 Tm0 2.550083 1_666
O4 Tm0 2.550083 1_666
O5 Tm0 2.550083 1_665
O6 Tm0 2.550083 1_655
O7 Tm0 2.550083 1_555
O8 Tm0 2.550083 1_666
O9 Tm0 2.550083 1_656
O10 Tm0 2.550083 1_555
O11 Tm0 2.550083 1_565
