# generated using pymatgen
data_CaZnSi3O8
_symmetry_space_group_name_H-M   'P 1'
_cell_length_a   7.30417000
_cell_length_b   8.22803860
_cell_length_c   13.08313939
_cell_angle_alpha   84.14961729
_cell_angle_beta   85.87394591
_cell_angle_gamma   63.80253155
_symmetry_Int_Tables_number   1
_chemical_formula_structural   CaZnSi3O8
_chemical_formula_sum   'Ca4 Zn4 Si12 O32'
_cell_volume   701.52007382
_cell_formula_units_Z   4
loop_
 _symmetry_equiv_pos_site_id
 _symmetry_equiv_pos_as_xyz
  1  'x, y, z'
loop_
 _atom_site_type_symbol
 _atom_site_label
 _atom_site_symmetry_multiplicity
 _atom_site_fract_x
 _atom_site_fract_y
 _atom_site_fract_z
 _atom_site_occupancy
  Ca  Ca0  1  0.14617100  0.74564700  0.52260000  1
  Ca  Ca1  1  0.85369600  0.75354600  0.97707100  1
  Ca  Ca2  1  0.85382900  0.25435300  0.47740000  1
  Ca  Ca3  1  0.14630400  0.24645400  0.02292900  1
  Zn  Zn0  1  0.20640100  0.99422500  0.31740600  1
  Zn  Zn1  1  0.79328500  0.50750800  0.18248200  1
  Zn  Zn2  1  0.20671500  0.49249200  0.81751800  1
  Zn  Zn3  1  0.79359900  0.00577600  0.68259400  1
  Si  Si0  1  0.36985300  0.33193000  0.60902500  1
  Si  Si1  1  0.69217800  0.69151600  0.61283500  1
  Si  Si2  1  0.30960100  0.80587700  0.88761800  1
  Si  Si3  1  0.69039900  0.19412300  0.11238200  1
  Si  Si4  1  0.25077800  0.00089500  0.66949700  1
  Si  Si5  1  0.74922200  0.99910500  0.33050300  1
  Si  Si6  1  0.30782200  0.30848400  0.38716500  1
  Si  Si7  1  0.63014700  0.66807000  0.39097500  1
  Si  Si8  1  0.24921400  0.50420800  0.16935500  1
  Si  Si9  1  0.75078600  0.49579200  0.83064500  1
  Si  Si10  1  0.63007100  0.16610100  0.89093300  1
  Si  Si11  1  0.36992900  0.83389900  0.10906700  1
  O  O0  1  0.17222700  0.19760600  0.39928900  1
  O  O1  1  0.71635400  0.08056000  0.01003400  1
  O  O2  1  0.23617100  0.96531900  0.79395000  1
  O  O3  1  0.55328400  0.17492100  0.37508700  1
  O  O4  1  0.44671600  0.82507900  0.62491300  1
  O  O5  1  0.05074500  0.51673000  0.11350000  1
  O  O6  1  0.73371400  0.98418200  0.82842100  1
  O  O7  1  0.73311900  0.48680000  0.32806800  1
  O  O8  1  0.26688100  0.51320000  0.67193200  1
  O  O9  1  0.94925500  0.48327000  0.88650000  1
  O  O10  1  0.72615100  0.30894400  0.85255500  1
  O  O11  1  0.94798400  0.98633200  0.38621100  1
  O  O12  1  0.27384900  0.69105600  0.14744500  1
  O  O13  1  0.38364400  0.76785400  0.39775900  1
  O  O14  1  0.76630600  0.53124800  0.70611000  1
  O  O15  1  0.27492300  0.18799900  0.64666300  1
  O  O16  1  0.17362000  0.69520600  0.90001000  1
  O  O17  1  0.28224500  0.42007600  0.49029100  1
  O  O18  1  0.82638000  0.30479400  0.09999000  1
  O  O19  1  0.82777300  0.80239400  0.60071100  1
  O  O20  1  0.71775500  0.57992400  0.50970900  1
  O  O21  1  0.61617800  0.73439800  0.10272200  1
  O  O22  1  0.05201600  0.01366800  0.61378900  1
  O  O23  1  0.38382200  0.26560200  0.89727800  1
  O  O24  1  0.26628600  0.01581800  0.17157900  1
  O  O25  1  0.61635600  0.23214600  0.60224100  1
  O  O26  1  0.44499300  0.32880100  0.12425200  1
  O  O27  1  0.28364600  0.91944000  0.98996600  1
  O  O28  1  0.55500700  0.67119900  0.87574800  1
  O  O29  1  0.76382900  0.03468200  0.20605000  1
  O  O30  1  0.72507700  0.81200100  0.35333700  1
  O  O31  1  0.23369400  0.46875200  0.29389000  1
loop_
_geom_bond_atom_site_label_1
_geom_bond_atom_site_label_2
_geom_bond_distance
_geom_bond_site_symmetry_2
Ca0 O19 2.338258 1_455
Ca0 O13 2.349691 1_555
Ca0 O22 2.416362 1_565
Ca0 O17 2.482366 1_555
Ca0 O8 2.499928 1_555
Ca0 O11 2.514278 1_455
Ca1 O16 2.340229 1_655
Ca1 O21 2.348440 1_556
Ca1 O9 2.425792 1_555
Ca1 O6 2.485157 1_555
Ca1 O1 2.494633 1_566
Ca1 O5 2.497744 1_656
Ca2 O0 2.338258 1_655
Ca2 O25 2.349691 1_555
Ca2 O11 2.416362 1_545
Ca2 O20 2.482366 1_555
Ca2 O7 2.499928 1_555
Ca2 O22 2.514278 1_655
Ca3 O18 2.340229 1_455
Ca3 O23 2.348440 1_554
Ca3 O5 2.425792 1_555
Ca3 O24 2.485157 1_555
Ca3 O27 2.494633 1_544
Ca3 O9 2.497744 1_454
O0 Si6 1.607498 1_555
O0 Zn0 1.992109 1_545
O1 Si3 1.662585 1_555
O1 Si10 1.687214 1_554
O2 Si4 1.628997 1_565
O2 Si2 1.629753 1_555
O3 Si6 1.643817 1_555
O3 Si5 1.644716 1_545
O4 Si1 1.643817 1_555
O4 Si4 1.644716 1_565
O5 Si8 1.628291 1_555
O5 Zn1 2.055350 1_455
O6 Si10 1.625569 1_565
O6 Zn3 1.934504 1_565
O7 Si7 1.624291 1_555
O7 Zn1 1.931223 1_555
O8 Si0 1.624291 1_555
O8 Zn2 1.931223 1_555
O9 Si9 1.628291 1_555
O9 Zn2 2.055350 1_655
O10 Si9 1.620219 1_555
O10 Si10 1.638057 1_555
O11 Si5 1.628459 1_555
O11 Zn0 2.056477 1_655
O12 Si8 1.620219 1_555
O12 Si11 1.638057 1_555
O13 Si7 1.615679 1_555
O13 Zn0 1.979408 1_555
O14 Si1 1.630313 1_555
O14 Si9 1.630437 1_555
O15 Si4 1.621353 1_555
O15 Si0 1.637915 1_555
O16 Si2 1.608502 1_555
O16 Zn2 1.994665 1_555
O17 Si6 1.662275 1_555
O17 Si0 1.688839 1_555
O18 Si3 1.608502 1_555
O18 Zn1 1.994665 1_555
O19 Si1 1.607498 1_555
O19 Zn3 1.992116 1_565
O20 Si1 1.662275 1_555
O20 Si7 1.688839 1_555
O21 Si11 1.613843 1_555
O21 Zn1 1.977968 1_555
O22 Si4 1.628459 1_555
O22 Zn3 2.056474 1_455
O23 Si10 1.613843 1_555
O23 Zn2 1.977968 1_555
O24 Si11 1.625569 1_545
O24 Zn0 1.934504 1_545
O25 Si0 1.615679 1_555
O25 Zn3 1.979403 1_555
O26 Si8 1.645005 1_555
O26 Si3 1.645093 1_555
O27 Si2 1.662585 1_555
O27 Si11 1.687214 1_556
O28 Si9 1.645005 1_555
O28 Si2 1.645093 1_555
O29 Si5 1.628998 1_545
O29 Si3 1.629748 1_555
O30 Si5 1.621353 1_555
O30 Si7 1.637915 1_555
O31 Si6 1.630313 1_555
O31 Si8 1.630437 1_555
