# generated using pymatgen
data_K2Pr4Cl9O2
_symmetry_space_group_name_H-M   'P 1'
_cell_length_a   11.49678600
_cell_length_b   8.47948800
_cell_length_c   9.59411548
_cell_angle_alpha   75.56137175
_cell_angle_beta   90.00000000
_cell_angle_gamma   90.00000000
_symmetry_Int_Tables_number   1
_chemical_formula_structural   K2Pr4Cl9O2
_chemical_formula_sum   'K4 Pr8 Cl18 O4'
_cell_volume   905.75898512
_cell_formula_units_Z   2
loop_
 _symmetry_equiv_pos_site_id
 _symmetry_equiv_pos_as_xyz
  1  'x, y, z'
loop_
 _atom_site_type_symbol
 _atom_site_label
 _atom_site_symmetry_multiplicity
 _atom_site_fract_x
 _atom_site_fract_y
 _atom_site_fract_z
 _atom_site_occupancy
  K  K0  1  0.45169200  0.76072300  0.44669600  1
  K  K1  1  0.95169200  0.23927700  0.55330400  1
  K  K2  1  0.54830800  0.23927700  0.55330400  1
  K  K3  1  0.04830800  0.76072300  0.44669600  1
  Pr  Pr0  1  0.75000000  0.61844700  0.16076100  1
  Pr  Pr1  1  0.25000000  0.38155300  0.83923900  1
  Pr  Pr2  1  0.45663400  0.71560600  0.95591700  1
  Pr  Pr3  1  0.95663400  0.28439400  0.04408300  1
  Pr  Pr4  1  0.54336600  0.28439400  0.04408300  1
  Pr  Pr5  1  0.25000000  0.38729300  0.21407200  1
  Pr  Pr6  1  0.75000000  0.61270700  0.78592800  1
  Pr  Pr7  1  0.04336600  0.71560600  0.95591700  1
  Cl  Cl0  1  0.41470600  0.12201900  0.30028800  1
  Cl  Cl1  1  0.09257500  0.10649300  0.87611800  1
  Cl  Cl2  1  0.25000000  0.74844800  0.13442000  1
  Cl  Cl3  1  0.75000000  0.25155200  0.86558000  1
  Cl  Cl4  1  0.50018400  0.51013700  0.27692100  1
  Cl  Cl5  1  0.58529400  0.87798100  0.69971200  1
  Cl  Cl6  1  0.25000000  0.39978300  0.52222600  1
  Cl  Cl7  1  0.75000000  0.60021700  0.47777400  1
  Cl  Cl8  1  0.08529400  0.12201900  0.30028800  1
  Cl  Cl9  1  0.90742500  0.89350700  0.12388200  1
  Cl  Cl10  1  0.00018400  0.48986300  0.72307900  1
  Cl  Cl11  1  0.40742500  0.10649300  0.87611800  1
  Cl  Cl12  1  0.49981600  0.48986300  0.72307900  1
  Cl  Cl13  1  0.59257500  0.89350700  0.12388200  1
  Cl  Cl14  1  0.91470600  0.87798100  0.69971200  1
  Cl  Cl15  1  0.99981600  0.51013700  0.27692100  1
  Cl  Cl16  1  0.25000000  0.74736500  0.75708800  1
  Cl  Cl17  1  0.75000000  0.25263500  0.24291200  1
  O  O0  1  0.12150900  0.45179100  0.01113800  1
  O  O1  1  0.87849100  0.54820900  0.98886200  1
  O  O2  1  0.37849100  0.45179100  0.01113800  1
  O  O3  1  0.62150900  0.54820900  0.98886200  1
loop_
_geom_bond_atom_site_label_1
_geom_bond_atom_site_label_2
_geom_bond_distance
_geom_bond_site_symmetry_2
Cl0 Pr5 2.898580 1_555
Cl0 Pr4 2.904825 1_555
Cl0 K0 3.064889 1_545
Cl0 K2 3.231733 1_555
Cl1 Pr1 2.903320 1_555
Cl1 Pr3 2.920159 1_456
Cl1 Pr7 3.259877 1_545
Cl1 K1 3.426995 1_455
Cl2 Pr5 2.965684 1_555
Cl2 Pr2 2.981932 1_554
Cl2 Pr7 2.981932 1_554
Cl3 Pr6 2.965684 1_555
Cl3 Pr4 2.981932 1_556
Cl3 Pr3 2.981932 1_556
Cl4 K0 3.033949 1_555
Cl4 K2 3.094406 1_555
Cl4 Pr0 3.134313 1_555
Cl4 Pr5 3.167810 1_555
Cl4 Pr2 3.177298 1_554
Cl4 Pr4 3.321622 1_555
Cl5 Pr6 2.898580 1_555
Cl5 Pr2 2.904825 1_555
Cl5 K2 3.064889 1_565
Cl5 K0 3.231733 1_555
Cl6 Pr5 2.984635 1_555
Cl6 Pr1 3.006645 1_555
Cl7 Pr6 2.984635 1_555
Cl7 Pr0 3.006645 1_555
Cl8 Pr5 2.898580 1_555
Cl8 Pr3 2.904825 1_455
Cl8 K3 3.064889 1_545
Cl8 K1 3.231733 1_455
Cl9 Pr0 2.903320 1_555
Cl9 Pr7 2.920159 1_654
Cl9 Pr3 3.259877 1_565
Cl9 K3 3.426995 1_655
Cl10 K1 3.033949 1_455
Cl10 K3 3.094406 1_555
Cl10 Pr1 3.134313 1_555
Cl10 Pr6 3.167810 1_455
Cl10 Pr3 3.177298 1_456
Cl10 Pr7 3.321622 1_555
Cl11 Pr1 2.903320 1_555
Cl11 Pr4 2.920159 1_556
Cl11 Pr2 3.259877 1_545
Cl11 K2 3.426995 1_555
Cl12 K2 3.033949 1_555
Cl12 K0 3.094406 1_555
Cl12 Pr1 3.134313 1_555
Cl12 Pr6 3.167810 1_555
Cl12 Pr4 3.177298 1_556
Cl12 Pr2 3.321622 1_555
Cl13 Pr0 2.903320 1_555
Cl13 Pr2 2.920159 1_554
Cl13 Pr4 3.259877 1_565
Cl13 K0 3.426995 1_555
Cl14 Pr6 2.898580 1_555
Cl14 Pr7 2.904825 1_655
Cl14 K1 3.064889 1_565
Cl14 K3 3.231733 1_655
Cl15 K3 3.033949 1_655
Cl15 K1 3.094406 1_555
Cl15 Pr0 3.134313 1_555
Cl15 Pr5 3.167810 1_655
Cl15 Pr7 3.177298 1_654
Cl15 Pr3 3.321622 1_555
Cl16 Pr1 3.003962 1_555
Cl16 Pr2 3.016428 1_555
Cl16 Pr7 3.016428 1_555
Cl17 Pr0 3.003962 1_555
Cl17 Pr3 3.016428 1_555
Cl17 Pr4 3.016428 1_555
O0 Pr3 2.341799 1_455
O0 Pr7 2.345424 1_554
O0 Pr5 2.396043 1_555
O0 Pr1 2.397226 1_554
O1 Pr7 2.341799 1_655
O1 Pr3 2.345424 1_556
O1 Pr6 2.396043 1_555
O1 Pr0 2.397226 1_556
O2 Pr4 2.341799 1_555
O2 Pr2 2.345424 1_554
O2 Pr5 2.396043 1_555
O2 Pr1 2.397226 1_554
O3 Pr2 2.341799 1_555
O3 Pr4 2.345424 1_556
O3 Pr6 2.396043 1_555
O3 Pr0 2.397226 1_556
