# generated using pymatgen
data_Sr2UZnO6
_symmetry_space_group_name_H-M   'P 1'
_cell_length_a   5.91875200
_cell_length_b   5.84787300
_cell_length_c   10.12555830
_cell_angle_alpha   54.71914104
_cell_angle_beta   90.00000000
_cell_angle_gamma   90.00000000
_symmetry_Int_Tables_number   1
_chemical_formula_structural   Sr2UZnO6
_chemical_formula_sum   'Sr4 U2 Zn2 O12'
_cell_volume   286.09688279
_cell_formula_units_Z   2
loop_
 _symmetry_equiv_pos_site_id
 _symmetry_equiv_pos_as_xyz
  1  'x, y, z'
loop_
 _atom_site_type_symbol
 _atom_site_label
 _atom_site_symmetry_multiplicity
 _atom_site_fract_x
 _atom_site_fract_y
 _atom_site_fract_z
 _atom_site_occupancy
  Sr  Sr0  1  0.96189800  0.75403200  0.25095100  1
  Sr  Sr1  1  0.46189800  0.24596800  0.24904900  1
  Sr  Sr2  1  0.03810200  0.24596800  0.74904900  1
  Sr  Sr3  1  0.53810200  0.75403200  0.75095100  1
  U  U0  1  0.50000000  0.00000000  0.00000000  1
  U  U1  1  0.00000000  0.00000000  0.50000000  1
  Zn  Zn0  1  0.00000000  0.50000000  0.00000000  1
  Zn  Zn1  1  0.50000000  0.50000000  0.50000000  1
  O  O0  1  0.47867600  0.32120200  0.75208300  1
  O  O1  1  0.21206900  0.16087400  0.03945300  1
  O  O2  1  0.70072800  0.25324200  0.03603800  1
  O  O3  1  0.78793100  0.83912600  0.96054700  1
  O  O4  1  0.29927200  0.74675800  0.96396200  1
  O  O5  1  0.52132400  0.67879800  0.24791700  1
  O  O6  1  0.97867600  0.67879800  0.74791700  1
  O  O7  1  0.71206900  0.83912600  0.46054700  1
  O  O8  1  0.20072800  0.74675800  0.46396200  1
  O  O9  1  0.02132400  0.32120200  0.25208300  1
  O  O10  1  0.28793100  0.16087400  0.53945300  1
  O  O11  1  0.79927200  0.25324200  0.53603800  1
loop_
_geom_bond_atom_site_label_1
_geom_bond_atom_site_label_2
_geom_bond_distance
_geom_bond_site_symmetry_2
O0 U0 2.097342 1_556
O0 Zn1 2.131050 1_555
O0 Sr3 2.548916 1_555
O0 Sr2 2.647631 1_555
O1 U0 2.093573 1_555
O1 Zn0 2.180102 1_555
O1 Sr0 2.559960 1_445
O1 Sr1 2.856243 1_555
O1 Sr2 2.874734 1_554
O2 U0 2.088549 1_555
O2 Zn0 2.178239 1_655
O2 Sr1 2.558524 1_555
O2 Sr3 2.840816 1_554
O2 Sr0 2.882509 1_545
O3 U0 2.093573 1_566
O3 Zn0 2.180102 1_656
O3 Sr2 2.559960 1_665
O3 Sr3 2.856243 1_555
O3 Sr0 2.874734 1_556
O4 U0 2.088549 1_566
O4 Zn0 2.178239 1_556
O4 Sr3 2.558524 1_555
O4 Sr1 2.840816 1_556
O4 Sr2 2.882509 1_565
O5 U0 2.097342 1_565
O5 Zn1 2.131050 1_555
O5 Sr1 2.548916 1_555
O5 Sr0 2.647631 1_555
O6 U1 2.097342 1_665
O6 Zn0 2.131050 1_656
O6 Sr2 2.548916 1_655
O6 Sr3 2.647631 1_555
O7 U1 2.093573 1_665
O7 Zn1 2.180102 1_555
O7 Sr1 2.559960 1_565
O7 Sr0 2.856243 1_555
O7 Sr3 2.874734 1_555
O8 U1 2.088549 1_565
O8 Zn1 2.178239 1_555
O8 Sr0 2.558524 1_455
O8 Sr2 2.840816 1_555
O8 Sr1 2.882509 1_565
O9 U1 2.097342 1_555
O9 Zn0 2.131050 1_555
O9 Sr0 2.548916 1_455
O9 Sr1 2.647631 1_555
O10 U1 2.093573 1_555
O10 Zn1 2.180102 1_555
O10 Sr3 2.559960 1_545
O10 Sr2 2.856243 1_555
O10 Sr1 2.874734 1_555
O11 U1 2.088549 1_655
O11 Zn1 2.178239 1_555
O11 Sr2 2.558524 1_655
O11 Sr0 2.840816 1_555
O11 Sr3 2.882509 1_545
