# generated using pymatgen
data_Ho5(Mo3S4)12
_symmetry_space_group_name_H-M   'P 1'
_cell_length_a   11.22380800
_cell_length_b   11.33462880
_cell_length_c   14.48402982
_cell_angle_alpha   74.87389727
_cell_angle_beta   74.92466844
_cell_angle_gamma   70.30529191
_symmetry_Int_Tables_number   1
_chemical_formula_structural   Ho5(Mo3S4)12
_chemical_formula_sum   'Ho5 Mo36 S48'
_cell_volume   1644.41437816
_cell_formula_units_Z   1
loop_
 _symmetry_equiv_pos_site_id
 _symmetry_equiv_pos_as_xyz
  1  'x, y, z'
loop_
 _atom_site_type_symbol
 _atom_site_label
 _atom_site_symmetry_multiplicity
 _atom_site_fract_x
 _atom_site_fract_y
 _atom_site_fract_z
 _atom_site_occupancy
  Ho  Ho0  1  0.66745000  0.66691600  0.33168900  1
  Ho  Ho1  1  0.33255000  0.33308400  0.66831100  1
  Ho  Ho2  1  0.50000000  0.50000000  0.00000000  1
  Ho  Ho3  1  0.16612000  0.16713100  0.33347400  1
  Ho  Ho4  1  0.83388000  0.83286900  0.66652600  1
  Mo  Mo0  1  0.10110200  0.54549300  0.06557100  1
  Mo  Mo1  1  0.76953000  0.20980300  0.39892700  1
  Mo  Mo2  1  0.43857700  0.87627600  0.73247200  1
  Mo  Mo3  1  0.95732700  0.37644100  0.11100500  1
  Mo  Mo4  1  0.62336600  0.04475100  0.44539300  1
  Mo  Mo5  1  0.29184200  0.71137000  0.77892400  1
  Mo  Mo6  1  0.81199300  0.03267100  0.28676100  1
  Mo  Mo7  1  0.47851200  0.70116000  0.62022900  1
  Mo  Mo8  1  0.14373700  0.36665200  0.95457300  1
  Mo  Mo9  1  0.35511100  0.13114700  0.04680500  1
  Mo  Mo10  1  0.01971100  0.80007200  0.38150800  1
  Mo  Mo11  1  0.68821800  0.46497400  0.71331600  1
  Mo  Mo12  1  0.20914000  0.79098600  0.22123800  1
  Mo  Mo13  1  0.87584200  0.45551500  0.55456600  1
  Mo  Mo14  1  0.54167000  0.12471300  0.88556700  1
  Mo  Mo15  1  0.06321700  0.62456800  0.26834200  1
  Mo  Mo16  1  0.73124600  0.29022900  0.60013000  1
  Mo  Mo17  1  0.39743300  0.95517900  0.93439300  1
  Mo  Mo18  1  0.60256700  0.04482100  0.06560700  1
  Mo  Mo19  1  0.26875400  0.70977100  0.39987000  1
  Mo  Mo20  1  0.93678300  0.37543200  0.73165800  1
  Mo  Mo21  1  0.45833000  0.87528700  0.11443300  1
  Mo  Mo22  1  0.12415800  0.54448500  0.44543400  1
  Mo  Mo23  1  0.79086000  0.20901400  0.77876200  1
  Mo  Mo24  1  0.31178200  0.53502600  0.28668400  1
  Mo  Mo25  1  0.98028900  0.19992800  0.61849200  1
  Mo  Mo26  1  0.64488900  0.86885300  0.95319500  1
  Mo  Mo27  1  0.85626300  0.63334800  0.04542700  1
  Mo  Mo28  1  0.52148800  0.29884000  0.37977100  1
  Mo  Mo29  1  0.18800700  0.96732900  0.71323900  1
  Mo  Mo30  1  0.70815800  0.28863000  0.22107600  1
  Mo  Mo31  1  0.37663400  0.95524900  0.55460700  1
  Mo  Mo32  1  0.04267300  0.62355900  0.88899500  1
  Mo  Mo33  1  0.56142300  0.12372400  0.26752800  1
  Mo  Mo34  1  0.23047000  0.79019700  0.60107300  1
  Mo  Mo35  1  0.89889800  0.45450700  0.93442900  1
  S  S0  1  0.91207500  0.54361900  0.20768300  1
  S  S1  1  0.57881600  0.21123600  0.54076600  1
  S  S2  1  0.25317200  0.87826200  0.87002100  1
  S  S3  1  0.93824400  0.18511700  0.25287300  1
  S  S4  1  0.60651900  0.85244200  0.58528300  1
  S  S5  1  0.99969800  0.23454100  0.00008500  1
  S  S6  1  0.27153900  0.51998500  0.92038800  1
  S  S7  1  0.66457300  0.90451300  0.33296900  1
  S  S8  1  0.33281800  0.57083300  0.66669200  1
  S  S9  1  0.18376700  0.31255200  0.12771800  1
  S  S10  1  0.84956700  0.97966900  0.46152500  1
  S  S11  1  0.51804600  0.64535300  0.79490900  1
  S  S12  1  0.98294700  0.85412600  0.21221900  1
  S  S13  1  0.64985100  0.52149400  0.53869000  1
  S  S14  1  0.31347700  0.18596700  0.87261900  1
  S  S15  1  0.16542800  0.92991300  0.33489000  1
  S  S16  1  0.83249200  0.59576100  0.66725000  1
  S  S17  1  0.23669800  0.97404000  0.08251600  1
  S  S18  1  0.49943500  0.26395700  0.99787700  1
  S  S19  1  0.89390800  0.64740900  0.41379000  1
  S  S20  1  0.56146100  0.31407700  0.74543200  1
  S  S21  1  0.41131000  0.04336200  0.20834300  1
  S  S22  1  0.07889900  0.70891000  0.54282000  1
  S  S23  1  0.74610700  0.37566700  0.87430200  1
  S  S24  1  0.25389300  0.62433300  0.12569800  1
  S  S25  1  0.92110100  0.29109000  0.45718000  1
  S  S26  1  0.58869000  0.95663800  0.79165700  1
  S  S27  1  0.43853900  0.68592300  0.25456800  1
  S  S28  1  0.10609200  0.35259100  0.58621000  1
  S  S29  1  0.50056500  0.73604300  0.00212300  1
  S  S30  1  0.76330200  0.02596000  0.91748400  1
  S  S31  1  0.16750800  0.40423900  0.33275000  1
  S  S32  1  0.83457200  0.07008700  0.66511000  1
  S  S33  1  0.68652300  0.81403300  0.12738100  1
  S  S34  1  0.35014900  0.47850600  0.46131000  1
  S  S35  1  0.01705300  0.14587400  0.78778100  1
  S  S36  1  0.48195400  0.35464700  0.20509100  1
  S  S37  1  0.15043300  0.02033100  0.53847500  1
  S  S38  1  0.81623300  0.68744800  0.87228200  1
  S  S39  1  0.66718200  0.42916700  0.33330800  1
  S  S40  1  0.33542700  0.09548700  0.66703100  1
  S  S41  1  0.72846100  0.48001500  0.07961200  1
  S  S42  1  0.00030200  0.76545900  0.99991500  1
  S  S43  1  0.39348100  0.14755800  0.41471700  1
  S  S44  1  0.06175600  0.81488300  0.74712700  1
  S  S45  1  0.74682800  0.12173800  0.12997900  1
  S  S46  1  0.42118400  0.78876400  0.45923400  1
  S  S47  1  0.08792500  0.45638100  0.79231700  1
loop_
_geom_bond_atom_site_label_1
_geom_bond_atom_site_label_2
_geom_bond_distance
_geom_bond_site_symmetry_2
Ho0 S7 2.687223 1_555
Ho0 S39 2.689784 1_555
Ho0 S0 2.979270 1_555
Ho0 S27 2.981512 1_555
Ho0 S33 2.986491 1_555
Ho0 S19 2.996589 1_555
Ho0 S46 3.010406 1_555
Ho0 S13 3.012874 1_555
Ho1 S40 2.687223 1_555
Ho1 S8 2.689784 1_555
Ho1 S47 2.979270 1_555
Ho1 S20 2.981512 1_555
Ho1 S14 2.986491 1_555
Ho1 S28 2.996589 1_555
Ho1 S1 3.010406 1_555
Ho1 S34 3.012874 1_555
Ho2 S18 2.685804 1_554
Ho2 S29 2.685804 1_555
Ho2 S11 2.989530 1_554
Ho2 S36 2.989530 1_555
Ho2 S41 2.994382 1_555
Ho2 S6 2.994382 1_554
Ho2 S23 3.004997 1_554
Ho2 S24 3.004997 1_555
Ho3 S15 2.686116 1_545
Ho3 S31 2.690093 1_555
Ho3 S25 2.982222 1_455
Ho3 S21 2.992739 1_555
Ho3 S37 2.993846 1_555
Ho3 S9 2.997820 1_555
Ho3 S43 2.998341 1_555
Ho3 S3 3.003910 1_455
Ho4 S32 2.686116 1_565
Ho4 S16 2.690093 1_555
Ho4 S22 2.982222 1_655
Ho4 S26 2.992739 1_555
Ho4 S10 2.993846 1_555
Ho4 S38 2.997820 1_555
Ho4 S4 2.998341 1_555
Ho4 S44 3.003910 1_655
Mo0 S42 2.412790 1_554
Mo0 S6 2.452943 1_554
Mo0 S9 2.487011 1_555
Mo0 S0 2.544486 1_455
Mo0 S24 2.591100 1_555
Mo1 S39 2.411351 1_555
Mo1 S3 2.450966 1_555
Mo1 S10 2.458295 1_545
Mo1 S1 2.551316 1_555
Mo1 S25 2.581416 1_555
Mo2 S40 2.411479 1_565
Mo2 S4 2.457230 1_555
Mo2 S11 2.464754 1_555
Mo2 S2 2.476944 1_555
Mo2 S26 2.568352 1_555
Mo3 S5 2.414476 1_555
Mo3 S9 2.455680 1_655
Mo3 S0 2.485067 1_555
Mo3 S41 2.545549 1_555
Mo3 S3 2.594127 1_555
Mo4 S7 2.419846 1_545
Mo4 S10 2.449643 1_545
Mo4 S1 2.466646 1_555
Mo4 S43 2.551911 1_555
Mo4 S4 2.581861 1_545
Mo5 S8 2.420776 1_555
Mo5 S2 2.441113 1_555
Mo5 S11 2.448317 1_555
Mo5 S44 2.559714 1_555
Mo5 S6 2.593568 1_555
Mo6 S7 2.415033 1_545
Mo6 S45 2.425007 1_555
Mo6 S3 2.465859 1_555
Mo6 S12 2.527506 1_545
Mo6 S10 2.556769 1_545
Mo7 S8 2.417838 1_555
Mo7 S46 2.445195 1_555
Mo7 S4 2.467777 1_555
Mo7 S11 2.560826 1_555
Mo7 S13 2.583463 1_555
Mo8 S5 2.419219 1_456
Mo8 S47 2.457401 1_555
Mo8 S6 2.486976 1_555
Mo8 S9 2.542631 1_556
Mo8 S14 2.587548 1_555
Mo9 S18 2.425271 1_554
Mo9 S17 2.441694 1_545
Mo9 S21 2.447833 1_555
Mo9 S14 2.563000 1_554
Mo9 S9 2.592231 1_555
Mo10 S15 2.413703 1_555
Mo10 S22 2.460234 1_555
Mo10 S19 2.467322 1_455
Mo10 S12 2.475835 1_455
Mo10 S10 2.567832 1_455
Mo11 S16 2.409285 1_555
Mo11 S23 2.448821 1_555
Mo11 S20 2.458946 1_555
Mo11 S13 2.555020 1_555
Mo11 S11 2.584485 1_555
Mo12 S15 2.417044 1_555
Mo12 S12 2.423547 1_455
Mo12 S24 2.469504 1_555
Mo12 S17 2.524153 1_555
Mo12 S27 2.561314 1_555
Mo13 S16 2.418083 1_555
Mo13 S13 2.445606 1_555
Mo13 S25 2.466204 1_555
Mo13 S28 2.560191 1_655
Mo13 S19 2.587883 1_555
Mo14 S18 2.407557 1_555
Mo14 S26 2.461550 1_545
Mo14 S14 2.461764 1_555
Mo14 S30 2.471021 1_555
Mo14 S20 2.566946 1_555
Mo15 S31 2.420544 1_555
Mo15 S12 2.437155 1_455
Mo15 S19 2.446799 1_455
Mo15 S24 2.558847 1_555
Mo15 S0 2.595495 1_455
Mo16 S32 2.418390 1_555
Mo16 S20 2.448917 1_555
Mo16 S13 2.467620 1_555
Mo16 S25 2.556599 1_555
Mo16 S1 2.582133 1_555
Mo17 S29 2.419255 1_556
Mo17 S17 2.422651 1_556
Mo17 S14 2.467193 1_565
Mo17 S2 2.532197 1_555
Mo17 S26 2.565148 1_555
Mo18 S18 2.419255 1_554
Mo18 S30 2.422651 1_554
Mo18 S33 2.467193 1_545
Mo18 S45 2.532197 1_555
Mo18 S21 2.565148 1_555
Mo19 S15 2.418390 1_555
Mo19 S27 2.448917 1_555
Mo19 S34 2.467620 1_555
Mo19 S22 2.556599 1_555
Mo19 S46 2.582133 1_555
Mo20 S16 2.420544 1_555
Mo20 S35 2.437155 1_655
Mo20 S28 2.446799 1_655
Mo20 S23 2.558847 1_555
Mo20 S47 2.595495 1_655
Mo21 S29 2.407557 1_555
Mo21 S21 2.461550 1_565
Mo21 S33 2.461764 1_555
Mo21 S17 2.471021 1_555
Mo21 S27 2.566946 1_555
Mo22 S31 2.418083 1_555
Mo22 S34 2.445606 1_555
Mo22 S22 2.466204 1_555
Mo22 S19 2.560191 1_455
Mo22 S28 2.587883 1_555
Mo23 S32 2.417044 1_555
Mo23 S35 2.423547 1_655
Mo23 S23 2.469504 1_555
Mo23 S30 2.524153 1_555
Mo23 S20 2.561314 1_555
Mo24 S31 2.409285 1_555
Mo24 S24 2.448821 1_555
Mo24 S27 2.458946 1_555
Mo24 S34 2.555020 1_555
Mo24 S36 2.584485 1_555
Mo25 S32 2.413703 1_555
Mo25 S25 2.460234 1_555
Mo25 S28 2.467322 1_655
Mo25 S35 2.475835 1_655
Mo25 S37 2.567832 1_655
Mo26 S29 2.425271 1_556
Mo26 S30 2.441694 1_565
Mo26 S26 2.447833 1_555
Mo26 S33 2.563000 1_556
Mo26 S38 2.592231 1_555
Mo27 S42 2.419219 1_654
Mo27 S0 2.457401 1_555
Mo27 S41 2.486976 1_555
Mo27 S38 2.542631 1_554
Mo27 S33 2.587548 1_555
Mo28 S39 2.417838 1_555
Mo28 S1 2.445195 1_555
Mo28 S43 2.467777 1_555
Mo28 S36 2.560826 1_555
Mo28 S34 2.583463 1_555
Mo29 S40 2.415033 1_565
Mo29 S2 2.425007 1_555
Mo29 S44 2.465859 1_555
Mo29 S35 2.527506 1_565
Mo29 S37 2.556769 1_565
Mo30 S39 2.420776 1_555
Mo30 S45 2.441113 1_555
Mo30 S36 2.448317 1_555
Mo30 S3 2.559714 1_555
Mo30 S41 2.593568 1_555
Mo31 S40 2.419846 1_565
Mo31 S37 2.449643 1_565
Mo31 S46 2.466646 1_555
Mo31 S4 2.551911 1_555
Mo31 S43 2.581861 1_565
Mo32 S42 2.414476 1_555
Mo32 S38 2.455680 1_455
Mo32 S47 2.485067 1_555
Mo32 S6 2.545549 1_555
Mo32 S44 2.594127 1_555
Mo33 S7 2.411479 1_545
Mo33 S43 2.457230 1_555
Mo33 S36 2.464754 1_555
Mo33 S45 2.476944 1_555
Mo33 S21 2.568352 1_555
Mo34 S8 2.411351 1_555
Mo34 S44 2.450966 1_555
Mo34 S37 2.458295 1_565
Mo34 S46 2.551316 1_555
Mo34 S22 2.581416 1_555
Mo35 S5 2.412790 1_556
Mo35 S41 2.452943 1_556
Mo35 S38 2.487011 1_555
Mo35 S47 2.544486 1_655
Mo35 S23 2.591100 1_555
