# generated using pymatgen
data_AlGe2P(H3C)8
_symmetry_space_group_name_H-M   'P 1'
_cell_length_a   9.43313100
_cell_length_b   9.92817425
_cell_length_c   10.04550604
_cell_angle_alpha   76.81827384
_cell_angle_beta   80.49689873
_cell_angle_gamma   63.92935656
_symmetry_Int_Tables_number   1
_chemical_formula_structural   AlGe2P(H3C)8
_chemical_formula_sum   'Al2 Ge4 P2 H48 C16'
_cell_volume   820.54219981
_cell_formula_units_Z   2
loop_
 _symmetry_equiv_pos_site_id
 _symmetry_equiv_pos_as_xyz
  1  'x, y, z'
loop_
 _atom_site_type_symbol
 _atom_site_label
 _atom_site_symmetry_multiplicity
 _atom_site_fract_x
 _atom_site_fract_y
 _atom_site_fract_z
 _atom_site_occupancy
  Al  Al0  1  0.01986000  0.63434600  0.07540300  1
  Al  Al1  1  0.98014000  0.36565400  0.92459700  1
  Ge  Ge0  1  0.72222500  0.80858000  0.77015800  1
  Ge  Ge1  1  0.83620000  0.34308100  0.32379600  1
  Ge  Ge2  1  0.27777500  0.19142000  0.22984200  1
  Ge  Ge3  1  0.16380000  0.65691900  0.67620400  1
  P  P0  1  0.02997900  0.37562600  0.15561500  1
  P  P1  1  0.97002100  0.62437400  0.84438500  1
  H  H0  1  0.81007700  0.02060300  0.64812600  1
  H  H1  1  0.39649100  0.90255400  0.30175100  1
  H  H2  1  0.32824900  0.34653700  0.37460500  1
  H  H3  1  0.44674000  0.30830300  0.06180700  1
  H  H4  1  0.16874700  0.09208000  0.89041100  1
  H  H5  1  0.42331100  0.17093900  0.99045700  1
  H  H6  1  0.80316700  0.30582200  0.58464700  1
  H  H7  1  0.36076900  0.37630900  0.69145400  1
  H  H8  1  0.74080600  0.38195300  0.81730400  1
  H  H9  1  0.72479700  0.79283000  0.16125800  1
  H  H10  1  0.77952400  0.16821800  0.20826200  1
  H  H11  1  0.45665000  0.50043400  0.62503800  1
  H  H12  1  0.18992300  0.97939700  0.35187400  1
  H  H13  1  0.76106500  0.76945700  0.51821600  1
  H  H14  1  0.44315300  0.14721500  0.42483500  1
  H  H15  1  0.55326000  0.69169700  0.93819300  1
  H  H16  1  0.25919400  0.61804700  0.18269600  1
  H  H17  1  0.67175100  0.65346300  0.62539500  1
  H  H18  1  0.99225100  0.77755900  0.46932100  1
  H  H19  1  0.72198400  0.14480700  0.38731300  1
  H  H20  1  0.92549700  0.05683400  0.32800200  1
  H  H21  1  0.32873900  0.54636100  0.02698100  1
  H  H22  1  0.57668900  0.82906100  0.00954300  1
  H  H23  1  0.07450300  0.94316600  0.67199800  1
  H  H24  1  0.54335000  0.49956600  0.37496200  1
  H  H25  1  0.74328600  0.04078300  0.82237600  1
  H  H26  1  0.60350900  0.09744600  0.69824900  1
  H  H27  1  0.55807000  0.11006800  0.11978100  1
  H  H28  1  0.09361100  0.57612500  0.47892500  1
  H  H29  1  0.77069500  0.25491900  0.97560900  1
  H  H30  1  0.19683300  0.69417800  0.41535300  1
  H  H31  1  0.23893500  0.23054300  0.48178400  1
  H  H32  1  0.13989000  0.21616000  0.73006900  1
  H  H33  1  0.44193000  0.88993200  0.88021900  1
  H  H34  1  0.27520300  0.20717000  0.83874200  1
  H  H35  1  0.86011000  0.78384000  0.26993100  1
  H  H36  1  0.27801600  0.85519300  0.61268700  1
  H  H37  1  0.00774900  0.22244100  0.53067900  1
  H  H38  1  0.59107900  0.53738700  0.19528100  1
  H  H39  1  0.83125300  0.90792000  0.10958900  1
  H  H40  1  0.55684700  0.85278500  0.57516500  1
  H  H41  1  0.22047600  0.83178200  0.79173800  1
  H  H42  1  0.90638900  0.42387500  0.52107500  1
  H  H43  1  0.40892100  0.46261300  0.80471900  1
  H  H44  1  0.22930500  0.74508100  0.02439100  1
  H  H45  1  0.67126100  0.45363900  0.97301900  1
  H  H46  1  0.63923100  0.62369100  0.30854600  1
  H  H47  1  0.25671400  0.95921700  0.17762400  1
  C  C0  1  0.55678700  0.80349100  0.91561300  1
  C  C1  1  0.89549600  0.32180900  0.50903800  1
  C  C2  1  0.10450400  0.67819100  0.49096200  1
  C  C3  1  0.36872300  0.47978500  0.70335800  1
  C  C4  1  0.15971500  0.20558300  0.83773400  1
  C  C5  1  0.27942800  0.98699800  0.26934300  1
  C  C6  1  0.32579100  0.23415500  0.39550800  1
  C  C7  1  0.23021400  0.63433800  0.07663400  1
  C  C8  1  0.76978600  0.36566200  0.92336600  1
  C  C9  1  0.63127700  0.52021500  0.29664200  1
  C  C10  1  0.84028500  0.79441700  0.16226600  1
  C  C11  1  0.44321300  0.19650900  0.08438700  1
  C  C12  1  0.67420900  0.76584500  0.60449200  1
  C  C13  1  0.18586100  0.84150800  0.68985100  1
  C  C14  1  0.72057200  0.01300200  0.73065700  1
  C  C15  1  0.81413900  0.15849200  0.31014900  1
loop_
_geom_bond_atom_site_label_1
_geom_bond_atom_site_label_2
_geom_bond_distance
_geom_bond_site_symmetry_2
Al0 C10 1.983597 1_455
Al0 C7 1.986341 1_555
Al0 P0 2.474289 1_555
Al0 P1 2.474351 1_454
Al1 C4 1.983597 1_655
Al1 C8 1.986341 1_555
Al1 P1 2.474289 1_555
Al1 P0 2.474351 1_656
Ge0 P1 2.358098 1_555
Ge1 P0 2.355948 1_655
Ge2 P0 2.358098 1_555
Ge3 P1 2.355948 1_455
C0 H15 1.095264 1_555
C0 H22 1.095289 1_556
C0 H33 1.098895 1_555
C0 Ge0 1.963596 1_555
C1 H37 1.096260 1_655
C1 H42 1.097052 1_555
C1 H6 1.099421 1_555
C1 Ge1 1.969989 1_555
C2 H18 1.096260 1_455
C2 H28 1.097052 1_555
C2 H30 1.099421 1_555
C2 Ge3 1.969989 1_555
C3 H43 1.095960 1_555
C3 H7 1.096392 1_555
C3 H11 1.099723 1_555
C3 Ge3 1.967530 1_555
C4 H34 1.098169 1_555
C4 H32 1.101579 1_555
C4 H4 1.102572 1_555
C5 H12 1.096466 1_555
C5 H47 1.097236 1_555
C5 H1 1.099439 1_555
C5 Ge2 1.970698 1_565
C6 H31 1.095855 1_555
C6 H2 1.097179 1_555
C6 H14 1.099670 1_555
C6 Ge2 1.973468 1_555
C7 H21 1.098905 1_555
C7 H44 1.101988 1_555
C7 H16 1.102174 1_555
C8 H45 1.098905 1_555
C8 H29 1.101988 1_555
C8 H8 1.102174 1_555
C9 H38 1.095960 1_555
C9 H46 1.096392 1_555
C9 H24 1.099723 1_555
C9 Ge1 1.967530 1_555
C10 H9 1.098169 1_555
C10 H35 1.101579 1_555
C10 H39 1.102572 1_555
C11 H3 1.095264 1_555
C11 H5 1.095289 1_554
C11 H27 1.098895 1_555
C11 Ge2 1.963596 1_555
C12 H13 1.095855 1_555
C12 H17 1.097179 1_555
C12 H40 1.099670 1_555
C12 Ge0 1.973468 1_555
C13 H41 1.095936 1_555
C13 H23 1.096377 1_555
C13 H36 1.099225 1_555
C13 Ge3 1.969736 1_555
C14 H0 1.096466 1_555
C14 H25 1.097236 1_555
C14 H26 1.099439 1_555
C14 Ge0 1.970698 1_545
C15 H10 1.095936 1_555
C15 H20 1.096377 1_555
C15 H19 1.099225 1_555
C15 Ge1 1.969736 1_555
