# generated using pymatgen
data_LiCr(SiO3)2
_symmetry_space_group_name_H-M   'P 1'
_cell_length_a   8.73808600
_cell_length_b   5.33247600
_cell_length_c   9.31256263
_cell_angle_alpha   77.80420105
_cell_angle_beta   90.00000000
_cell_angle_gamma   90.00000000
_symmetry_Int_Tables_number   1
_chemical_formula_structural   LiCr(SiO3)2
_chemical_formula_sum   'Li4 Cr4 Si8 O24'
_cell_volume   424.13167848
_cell_formula_units_Z   4
loop_
 _symmetry_equiv_pos_site_id
 _symmetry_equiv_pos_as_xyz
  1  'x, y, z'
loop_
 _atom_site_type_symbol
 _atom_site_label
 _atom_site_symmetry_multiplicity
 _atom_site_fract_x
 _atom_site_fract_y
 _atom_site_fract_z
 _atom_site_occupancy
  Li  Li0  1  0.00822200  0.48969900  0.74785300  1
  Li  Li1  1  0.50822200  0.01030100  0.25214700  1
  Li  Li2  1  0.99177800  0.51030100  0.25214700  1
  Li  Li3  1  0.49177800  0.98969900  0.74785300  1
  Cr  Cr0  1  0.65633000  0.48638400  0.75028000  1
  Cr  Cr1  1  0.84367000  0.98638400  0.75028000  1
  Cr  Cr2  1  0.34367000  0.51361600  0.24972000  1
  Cr  Cr3  1  0.15633000  0.01361600  0.24972000  1
  Si  Si0  1  0.65994300  0.27586000  0.45059100  1
  Si  Si1  1  0.65959500  0.70375700  0.04936900  1
  Si  Si2  1  0.15959500  0.79624300  0.95063100  1
  Si  Si3  1  0.34040500  0.29624300  0.95063100  1
  Si  Si4  1  0.84040500  0.20375700  0.04936900  1
  Si  Si5  1  0.15994300  0.22414000  0.54940900  1
  Si  Si6  1  0.34005700  0.72414000  0.54940900  1
  Si  Si7  1  0.84005700  0.77586000  0.45059100  1
  O  O0  1  0.26751000  0.96988100  0.60841000  1
  O  O1  1  0.16639500  0.29465500  0.36670700  1
  O  O2  1  0.66639500  0.20534500  0.63329300  1
  O  O3  1  0.83360500  0.70534500  0.63329300  1
  O  O4  1  0.33360500  0.79465500  0.36670700  1
  O  O5  1  0.66439100  0.77034000  0.86623000  1
  O  O6  1  0.16439100  0.72966000  0.13377000  1
  O  O7  1  0.33560900  0.22966000  0.13377000  1
  O  O8  1  0.83560900  0.27034000  0.86623000  1
  O  O9  1  0.99037800  0.19505100  0.61770600  1
  O  O10  1  0.49037800  0.30494900  0.38229400  1
  O  O11  1  0.00962200  0.80494900  0.38229400  1
  O  O12  1  0.72772600  0.41217300  0.10469000  1
  O  O13  1  0.22772600  0.08782700  0.89531000  1
  O  O14  1  0.27227400  0.58782700  0.89531000  1
  O  O15  1  0.77227400  0.91217300  0.10469000  1
  O  O16  1  0.50962200  0.69505100  0.61770600  1
  O  O17  1  0.76751000  0.53011900  0.39159000  1
  O  O18  1  0.49480600  0.72869700  0.12318200  1
  O  O19  1  0.23249000  0.46988100  0.60841000  1
  O  O20  1  0.00519400  0.22869700  0.12318200  1
  O  O21  1  0.50519400  0.27130300  0.87681800  1
  O  O22  1  0.99480600  0.77130300  0.87681800  1
  O  O23  1  0.73249000  0.03011900  0.39159000  1
loop_
_geom_bond_atom_site_label_1
_geom_bond_atom_site_label_2
_geom_bond_distance
_geom_bond_site_symmetry_2
Li0 O3 2.066467 1_455
Li0 O8 2.076945 1_455
Li0 O22 2.114959 1_455
Li0 O9 2.183236 1_455
Li0 O19 2.365535 1_555
Li1 O4 2.066467 1_545
Li1 O7 2.076945 1_555
Li1 O18 2.114959 1_545
Li1 O10 2.183236 1_555
Li1 O23 2.365535 1_555
Li2 O1 2.066467 1_655
Li2 O6 2.076945 1_655
Li2 O20 2.114959 1_655
Li2 O11 2.183236 1_655
Li2 O17 2.365535 1_555
Li3 O2 2.066467 1_565
Li3 O5 2.076945 1_555
Li3 O21 2.114959 1_565
Li3 O16 2.183236 1_555
Li3 O0 2.365535 1_555
Cr0 O16 1.955848 1_555
Cr0 O21 1.969032 1_555
Cr0 O2 2.032328 1_555
Cr0 O5 2.038254 1_555
Cr0 O3 2.100545 1_555
Cr0 O8 2.102778 1_555
Cr1 O9 1.955848 1_565
Cr1 O22 1.969032 1_555
Cr1 O3 2.032328 1_555
Cr1 O8 2.038254 1_565
Cr1 O2 2.100545 1_565
Cr1 O5 2.102778 1_555
Cr2 O10 1.955848 1_555
Cr2 O18 1.969032 1_555
Cr2 O4 2.032328 1_555
Cr2 O7 2.038254 1_555
Cr2 O1 2.100545 1_555
Cr2 O6 2.102778 1_555
Cr3 O11 1.955848 1_545
Cr3 O20 1.969032 1_555
Cr3 O1 2.032328 1_555
Cr3 O6 2.038254 1_545
Cr3 O4 2.100545 1_545
Cr3 O7 2.102778 1_555
O0 Si5 1.645870 1_565
O0 Si6 1.650796 1_555
O1 Si5 1.664063 1_555
O2 Si0 1.664063 1_555
O3 Si7 1.664063 1_555
O4 Si6 1.664063 1_555
O5 Si1 1.667538 1_556
O6 Si2 1.667538 1_554
O7 Si3 1.667538 1_554
O8 Si4 1.667538 1_556
O9 Si5 1.606940 1_655
O10 Si0 1.606940 1_555
O11 Si7 1.606940 1_455
O12 Si1 1.642862 1_555
O12 Si4 1.646786 1_555
O13 Si2 1.642862 1_545
O13 Si3 1.646786 1_555
O14 Si3 1.642862 1_555
O14 Si2 1.646786 1_555
O15 Si4 1.642862 1_565
O15 Si1 1.646786 1_555
O16 Si6 1.606940 1_555
O17 Si0 1.645870 1_555
O17 Si7 1.650796 1_555
O18 Si1 1.613147 1_555
O19 Si6 1.645870 1_555
O19 Si5 1.650796 1_555
O20 Si4 1.613147 1_455
O21 Si3 1.613147 1_555
O22 Si2 1.613147 1_655
O23 Si7 1.645870 1_545
O23 Si0 1.650796 1_555
