# generated using pymatgen
data_SiO2
_symmetry_space_group_name_H-M   'P 1'
_cell_length_a   12.74689981
_cell_length_b   12.74689981
_cell_length_c   3.77507000
_cell_angle_alpha   90.00000000
_cell_angle_beta   90.00000000
_cell_angle_gamma   119.99999901
_symmetry_Int_Tables_number   1
_chemical_formula_structural   SiO2
_chemical_formula_sum   'Si12 O24'
_cell_volume   531.20822351
_cell_formula_units_Z   12
loop_
 _symmetry_equiv_pos_site_id
 _symmetry_equiv_pos_as_xyz
  1  'x, y, z'
loop_
 _atom_site_type_symbol
 _atom_site_label
 _atom_site_symmetry_multiplicity
 _atom_site_fract_x
 _atom_site_fract_y
 _atom_site_fract_z
 _atom_site_occupancy
  Si  Si0  1  0.14188200  0.45530200  0.34541200  1
  Si  Si1  1  0.68658000  0.14188200  0.34541200  1
  Si  Si2  1  0.45530200  0.14188200  0.65458800  1
  Si  Si3  1  0.68658000  0.54469800  0.65458800  1
  Si  Si4  1  0.85811800  0.54469800  0.34541200  1
  Si  Si5  1  0.54469800  0.85811800  0.65458800  1
  Si  Si6  1  0.45530200  0.31342000  0.34541200  1
  Si  Si7  1  0.14188200  0.68658000  0.65458800  1
  Si  Si8  1  0.54469800  0.68658000  0.34541200  1
  Si  Si9  1  0.31342000  0.85811800  0.34541200  1
  Si  Si10  1  0.85811800  0.31342000  0.65458800  1
  Si  Si11  1  0.31342000  0.45530200  0.65458800  1
  O  O0  1  0.75438300  0.50876600  0.00000000  1
  O  O1  1  0.82103500  0.64207000  0.50000000  1
  O  O2  1  0.59156800  0.40843200  0.50000000  1
  O  O3  1  0.61394000  0.00000000  0.50000000  1
  O  O4  1  0.82103500  0.17896500  0.50000000  1
  O  O5  1  0.40843200  0.81686500  0.50000000  1
  O  O6  1  0.24561700  0.75438300  0.00000000  1
  O  O7  1  0.17896500  0.35793000  0.50000000  1
  O  O8  1  0.49123400  0.24561700  0.00000000  1
  O  O9  1  0.75438300  0.24561700  0.00000000  1
  O  O10  1  0.40843200  0.59156800  0.50000000  1
  O  O11  1  0.00000000  0.61394000  0.50000000  1
  O  O12  1  0.18313500  0.59156800  0.50000000  1
  O  O13  1  0.35793000  0.17896500  0.50000000  1
  O  O14  1  0.38606000  0.38606000  0.50000000  1
  O  O15  1  0.64207000  0.82103500  0.50000000  1
  O  O16  1  0.50876600  0.75438300  0.00000000  1
  O  O17  1  0.00000000  0.38606000  0.50000000  1
  O  O18  1  0.17896500  0.82103500  0.50000000  1
  O  O19  1  0.38606000  0.00000000  0.50000000  1
  O  O20  1  0.81686500  0.40843200  0.50000000  1
  O  O21  1  0.24561700  0.49123400  0.00000000  1
  O  O22  1  0.59156800  0.18313500  0.50000000  1
  O  O23  1  0.61394000  0.61394000  0.50000000  1
loop_
_geom_bond_atom_site_label_1
_geom_bond_atom_site_label_2
_geom_bond_distance
_geom_bond_site_symmetry_2
O0 Si3 1.747259 1_554
O0 Si4 1.747259 1_555
O1 Si4 1.640507 1_555
O1 Si3 1.640507 1_555
O2 Si6 1.649471 1_555
O2 Si3 1.649471 1_555
O3 Si5 1.671583 1_545
O3 Si1 1.671583 1_555
O4 Si1 1.640507 1_555
O4 Si10 1.640507 1_555
O5 Si9 1.649462 1_555
O5 Si5 1.649473 1_555
O6 Si9 1.747259 1_555
O6 Si7 1.747259 1_554
O7 Si0 1.640507 1_555
O7 Si11 1.640507 1_555
O8 Si6 1.747259 1_555
O8 Si2 1.747259 1_554
O9 Si10 1.747259 1_554
O9 Si1 1.747259 1_555
O10 Si11 1.649471 1_555
O10 Si8 1.649471 1_555
O11 Si4 1.671583 1_455
O11 Si7 1.671583 1_555
O12 Si7 1.649462 1_555
O12 Si0 1.649473 1_555
O13 Si2 1.640507 1_555
O13 Si6 1.640507 1_555
O14 Si11 1.671583 1_555
O14 Si6 1.671583 1_555
O15 Si5 1.640507 1_555
O15 Si8 1.640507 1_555
O16 Si8 1.747259 1_555
O16 Si5 1.747259 1_554
O17 Si0 1.671583 1_555
O17 Si10 1.671583 1_455
O18 Si7 1.640507 1_555
O18 Si9 1.640507 1_555
O19 Si2 1.671583 1_555
O19 Si9 1.671583 1_545
O20 Si10 1.649462 1_555
O20 Si4 1.649473 1_555
O21 Si11 1.747259 1_554
O21 Si0 1.747259 1_555
O22 Si1 1.649462 1_555
O22 Si2 1.649473 1_555
O23 Si8 1.671583 1_555
O23 Si3 1.671583 1_555
