# generated using pymatgen
data_SrSiO3
_symmetry_space_group_name_H-M   'P 1'
_cell_length_a   6.15628400
_cell_length_b   7.54992500
_cell_length_c   13.62593721
_cell_angle_alpha   63.22638311
_cell_angle_beta   90.00000000
_cell_angle_gamma   90.00000000
_symmetry_Int_Tables_number   1
_chemical_formula_structural   SrSiO3
_chemical_formula_sum   'Sr8 Si8 O24'
_cell_volume   565.42969036
_cell_formula_units_Z   8
loop_
 _symmetry_equiv_pos_site_id
 _symmetry_equiv_pos_as_xyz
  1  'x, y, z'
loop_
 _atom_site_type_symbol
 _atom_site_label
 _atom_site_symmetry_multiplicity
 _atom_site_fract_x
 _atom_site_fract_y
 _atom_site_fract_z
 _atom_site_occupancy
  Sr  Sr0  1  0.59090600  0.25749200  0.15843400  1
  Sr  Sr1  1  0.90909400  0.25749200  0.65843400  1
  Sr  Sr2  1  0.39904200  0.21517100  0.87392600  1
  Sr  Sr3  1  0.10095800  0.21517100  0.37392600  1
  Sr  Sr4  1  0.09090600  0.74250800  0.34156600  1
  Sr  Sr5  1  0.40909400  0.74250800  0.84156600  1
  Sr  Sr6  1  0.60095800  0.78482900  0.12607400  1
  Sr  Sr7  1  0.89904200  0.78482900  0.62607400  1
  Si  Si0  1  0.85038500  0.44947100  0.88173600  1
  Si  Si1  1  0.08825200  0.15856700  0.09185400  1
  Si  Si2  1  0.64961500  0.44947100  0.38173600  1
  Si  Si3  1  0.35038500  0.55052900  0.61826400  1
  Si  Si4  1  0.41174800  0.15856700  0.59185400  1
  Si  Si5  1  0.58825200  0.84143300  0.40814600  1
  Si  Si6  1  0.91174800  0.84143300  0.90814600  1
  Si  Si7  1  0.14961500  0.55052900  0.11826400  1
  O  O0  1  0.44175800  0.31579800  0.45791100  1
  O  O1  1  0.94175800  0.68420200  0.04208900  1
  O  O2  1  0.67535600  0.94142600  0.90068500  1
  O  O3  1  0.58906100  0.69125700  0.34481100  1
  O  O4  1  0.08906100  0.30874300  0.15518900  1
  O  O5  1  0.05824200  0.31579800  0.95791100  1
  O  O6  1  0.82464400  0.94142600  0.40068500  1
  O  O7  1  0.32464400  0.05857400  0.09931500  1
  O  O8  1  0.16983200  0.56615400  0.23181300  1
  O  O9  1  0.91093900  0.69125700  0.84481100  1
  O  O10  1  0.37128600  0.60273700  0.04785700  1
  O  O11  1  0.12871400  0.60273700  0.54785700  1
  O  O12  1  0.38504900  0.98779900  0.35202000  1
  O  O13  1  0.83016800  0.43384600  0.76818700  1
  O  O14  1  0.88504900  0.01220100  0.14798000  1
  O  O15  1  0.17535600  0.05857400  0.59931500  1
  O  O16  1  0.41093900  0.30874300  0.65518900  1
  O  O17  1  0.33016800  0.56615400  0.73181300  1
  O  O18  1  0.11495100  0.98779900  0.85202000  1
  O  O19  1  0.55824200  0.68420200  0.54208900  1
  O  O20  1  0.62871400  0.39726300  0.95214300  1
  O  O21  1  0.87128600  0.39726300  0.45214300  1
  O  O22  1  0.66983200  0.43384600  0.26818700  1
  O  O23  1  0.61495100  0.01220100  0.64798000  1
loop_
_geom_bond_atom_site_label_1
_geom_bond_atom_site_label_2
_geom_bond_distance
_geom_bond_site_symmetry_2
O0 Si2 1.670201 1_555
O0 Si4 1.679992 1_555
O0 Sr3 2.659308 1_555
O1 Si7 1.670201 1_655
O1 Si6 1.679992 1_554
O1 Sr6 2.659308 1_555
O2 Si6 1.621422 1_555
O2 Sr2 2.572767 1_565
O2 Sr5 2.584808 1_555
O2 Sr6 2.787149 1_556
O3 Si2 1.702050 1_555
O3 Si5 1.706424 1_555
O3 Sr6 2.736933 1_555
O3 Sr4 3.088920 1_555
O3 Sr4 3.111475 1_655
O4 Si7 1.702050 1_555
O4 Si1 1.706424 1_555
O4 Sr3 2.736933 1_555
O4 Sr0 3.088920 1_455
O4 Sr0 3.111475 1_555
O5 Si0 1.670201 1_455
O5 Si1 1.679992 1_556
O5 Sr2 2.659308 1_555
O6 Si5 1.621422 1_555
O6 Sr3 2.572767 1_665
O6 Sr4 2.584808 1_655
O6 Sr7 2.787149 1_555
O7 Si1 1.621422 1_555
O7 Sr6 2.572767 1_545
O7 Sr0 2.584808 1_555
O7 Sr2 2.787149 1_554
O8 Si7 1.608636 1_555
O8 Sr4 2.457494 1_555
O8 Sr3 2.515649 1_555
O8 Sr6 3.114961 1_555
O9 Si0 1.702050 1_555
O9 Si6 1.706424 1_555
O9 Sr7 2.736933 1_555
O9 Sr5 3.088920 1_655
O9 Sr5 3.111475 1_555
O10 Si7 1.611638 1_555
O10 Sr6 2.518959 1_555
O10 Sr5 2.529144 1_554
O10 Sr0 2.711853 1_555
O11 Si3 1.611638 1_555
O11 Sr7 2.518959 1_455
O11 Sr4 2.529144 1_555
O11 Sr1 2.711853 1_455
O12 Si5 1.615415 1_555
O12 Sr3 2.560547 1_565
O12 Sr4 2.639449 1_555
O12 Sr0 2.805548 1_565
O13 Si0 1.608636 1_555
O13 Sr1 2.457494 1_555
O13 Sr7 2.515649 1_555
O13 Sr2 3.114961 1_555
O14 Si1 1.615415 1_655
O14 Sr6 2.560547 1_545
O14 Sr0 2.639449 1_555
O14 Sr4 2.805548 1_645
O15 Si4 1.621422 1_555
O15 Sr7 2.572767 1_445
O15 Sr1 2.584808 1_455
O15 Sr3 2.787149 1_555
O16 Si3 1.702050 1_555
O16 Si4 1.706424 1_555
O16 Sr2 2.736933 1_555
O16 Sr1 3.088920 1_555
O16 Sr1 3.111475 1_455
O17 Si3 1.608636 1_555
O17 Sr5 2.457494 1_555
O17 Sr2 2.515649 1_555
O17 Sr7 3.114961 1_455
O18 Si6 1.615415 1_455
O18 Sr2 2.560547 1_565
O18 Sr5 2.639449 1_555
O18 Sr1 2.805548 1_465
O19 Si3 1.670201 1_555
O19 Si5 1.679992 1_555
O19 Sr7 2.659308 1_555
O20 Si0 1.611638 1_555
O20 Sr2 2.518959 1_555
O20 Sr0 2.529144 1_556
O20 Sr5 2.711853 1_555
O21 Si2 1.611638 1_555
O21 Sr3 2.518959 1_655
O21 Sr1 2.529144 1_555
O21 Sr4 2.711853 1_655
O22 Si2 1.608636 1_555
O22 Sr0 2.457494 1_555
O22 Sr6 2.515649 1_555
O22 Sr3 3.114961 1_655
O23 Si4 1.615415 1_555
O23 Sr7 2.560547 1_545
O23 Sr1 2.639449 1_555
O23 Sr5 2.805548 1_545
