# generated using pymatgen
data_Zn3Mo3O8
_symmetry_space_group_name_H-M   'P 1'
_cell_length_a   11.33058167
_cell_length_b   11.33058156
_cell_length_c   22.66090356
_cell_angle_alpha   29.88050889
_cell_angle_beta   29.88051033
_cell_angle_gamma   29.87941571
_symmetry_Int_Tables_number   1
_chemical_formula_structural   Zn3Mo3O8
_chemical_formula_sum   'Zn12 Mo12 O32'
_cell_volume   639.46495236
_cell_formula_units_Z   4
loop_
 _symmetry_equiv_pos_site_id
 _symmetry_equiv_pos_as_xyz
  1  'x, y, z'
loop_
 _atom_site_type_symbol
 _atom_site_label
 _atom_site_symmetry_multiplicity
 _atom_site_fract_x
 _atom_site_fract_y
 _atom_site_fract_z
 _atom_site_occupancy
  Zn  Zn0  1  0.00000000  0.00000000  0.00000000  1
  Zn  Zn1  1  0.17970300  0.17970300  0.08978400  1
  Zn  Zn2  1  0.30848900  0.30848900  0.15462600  1
  Zn  Zn3  1  0.00000000  0.00000000  0.50000000  1
  Zn  Zn4  1  0.49983100  0.49983100  0.24974900  1
  Zn  Zn5  1  0.17975500  0.17975500  0.58994900  1
  Zn  Zn6  1  0.30938900  0.30938900  0.65431000  1
  Zn  Zn7  1  0.69061100  0.69061100  0.34569000  1
  Zn  Zn8  1  0.82024500  0.82024500  0.41005100  1
  Zn  Zn9  1  0.50016900  0.50016900  0.75025100  1
  Zn  Zn10  1  0.69151100  0.69151100  0.84537400  1
  Zn  Zn11  1  0.82029700  0.82029700  0.91021600  1
  Mo  Mo0  1  0.27001400  0.27001400  0.35310400  1
  Mo  Mo1  1  0.26996200  0.70605700  0.13507600  1
  Mo  Mo2  1  0.70605700  0.26996200  0.13507600  1
  Mo  Mo3  1  0.29354500  0.72953000  0.36486100  1
  Mo  Mo4  1  0.72953000  0.29354500  0.36486100  1
  Mo  Mo5  1  0.72958700  0.72958700  0.14684400  1
  Mo  Mo6  1  0.27041300  0.27041300  0.85315600  1
  Mo  Mo7  1  0.27047000  0.70645500  0.63513900  1
  Mo  Mo8  1  0.70645500  0.27047000  0.63513900  1
  Mo  Mo9  1  0.29394300  0.73003800  0.86492400  1
  Mo  Mo10  1  0.73003800  0.29394300  0.86492400  1
  Mo  Mo11  1  0.72998600  0.72998600  0.64689600  1
  O  O0  1  0.11651700  0.11651700  0.05849600  1
  O  O1  1  0.10684400  0.10684400  0.32389100  1
  O  O2  1  0.10671200  0.64770300  0.05376600  1
  O  O3  1  0.64770300  0.10671200  0.05376600  1
  O  O4  1  0.36991700  0.36991700  0.18501800  1
  O  O5  1  0.11697300  0.11697300  0.55826300  1
  O  O6  1  0.14448300  0.61567600  0.30780800  1
  O  O7  1  0.61567600  0.14448300  0.30780800  1
  O  O8  1  0.61572200  0.61572200  0.07214500  1
  O  O9  1  0.38428400  0.38428400  0.42717400  1
  O  O10  1  0.38425100  0.85453700  0.19208600  1
  O  O11  1  0.85453700  0.38425100  0.19208600  1
  O  O12  1  0.10749400  0.10749400  0.82382500  1
  O  O13  1  0.10761500  0.64774500  0.55339900  1
  O  O14  1  0.64774500  0.10761500  0.55339900  1
  O  O15  1  0.62961900  0.62961900  0.31487900  1
  O  O16  1  0.37038100  0.37038100  0.68512100  1
  O  O17  1  0.35225500  0.89238500  0.44660100  1
  O  O18  1  0.89238500  0.35225500  0.44660100  1
  O  O19  1  0.89250600  0.89250600  0.17617500  1
  O  O20  1  0.14546300  0.61574900  0.80791400  1
  O  O21  1  0.61574900  0.14546300  0.80791400  1
  O  O22  1  0.61571600  0.61571600  0.57282600  1
  O  O23  1  0.38427800  0.38427800  0.92785500  1
  O  O24  1  0.38432400  0.85551700  0.69219200  1
  O  O25  1  0.85551700  0.38432400  0.69219200  1
  O  O26  1  0.88302700  0.88302700  0.44173700  1
  O  O27  1  0.63008300  0.63008300  0.81498200  1
  O  O28  1  0.35229700  0.89328800  0.94623400  1
  O  O29  1  0.89328800  0.35229700  0.94623400  1
  O  O30  1  0.89315600  0.89315600  0.67610900  1
  O  O31  1  0.88348300  0.88348300  0.94150400  1
loop_
_geom_bond_atom_site_label_1
_geom_bond_atom_site_label_2
_geom_bond_distance
_geom_bond_site_symmetry_2
Mo0 O6 2.077487 1_555
Mo0 O7 2.077487 1_555
Mo0 O4 2.083077 1_555
Mo0 O17 2.110389 1_545
Mo0 O18 2.110389 1_455
Mo0 O5 2.209543 1_555
Mo1 O6 2.077153 1_555
Mo1 O8 2.078092 1_555
Mo1 O4 2.082563 1_555
Mo1 O28 2.109382 1_554
Mo1 O19 2.111359 1_455
Mo1 O0 2.208614 1_565
Mo2 O7 2.077153 1_555
Mo2 O8 2.078092 1_555
Mo2 O4 2.082563 1_555
Mo2 O29 2.109382 1_554
Mo2 O19 2.111359 1_545
Mo2 O0 2.208614 1_655
Mo3 O9 2.077872 1_555
Mo3 O10 2.078772 1_555
Mo3 O15 2.081668 1_555
Mo3 O1 2.110355 1_565
Mo3 O13 2.112327 1_555
Mo3 O26 2.206502 1_455
Mo4 O9 2.077872 1_555
Mo4 O11 2.078772 1_555
Mo4 O15 2.081668 1_555
Mo4 O1 2.110355 1_655
Mo4 O14 2.112327 1_555
Mo4 O26 2.206502 1_545
Mo5 O11 2.078407 1_555
Mo5 O10 2.078407 1_555
Mo5 O15 2.081213 1_555
Mo5 O3 2.111313 1_565
Mo5 O2 2.111313 1_655
Mo5 O31 2.205682 1_554
Mo6 O20 2.078407 1_555
Mo6 O21 2.078407 1_555
Mo6 O16 2.081213 1_555
Mo6 O28 2.111313 1_545
Mo6 O29 2.111313 1_455
Mo6 O0 2.205682 1_556
Mo7 O22 2.077872 1_555
Mo7 O20 2.078772 1_555
Mo7 O16 2.081668 1_555
Mo7 O30 2.110355 1_455
Mo7 O17 2.112327 1_555
Mo7 O5 2.206502 1_565
Mo8 O22 2.077872 1_555
Mo8 O21 2.078772 1_555
Mo8 O16 2.081668 1_555
Mo8 O30 2.110355 1_545
Mo8 O18 2.112327 1_555
Mo8 O5 2.206502 1_655
Mo9 O24 2.077153 1_555
Mo9 O23 2.078092 1_555
Mo9 O27 2.082563 1_555
Mo9 O2 2.109382 1_556
Mo9 O12 2.111359 1_565
Mo9 O31 2.208614 1_455
Mo10 O25 2.077153 1_555
Mo10 O23 2.078092 1_555
Mo10 O27 2.082563 1_555
Mo10 O3 2.109382 1_556
Mo10 O12 2.111359 1_655
Mo10 O31 2.208614 1_545
Mo11 O25 2.077487 1_555
Mo11 O24 2.077487 1_555
Mo11 O27 2.083077 1_555
Mo11 O14 2.110389 1_565
Mo11 O13 2.110389 1_655
Mo11 O26 2.209543 1_555
O0 Zn1 2.043820 1_555
O1 Zn2 1.952089 1_555
O1 Zn3 2.154743 1_555
O2 Zn2 1.952642 1_555
O2 Zn0 2.152046 1_565
O3 Zn2 1.952642 1_555
O3 Zn0 2.152046 1_655
O4 Zn2 1.986405 1_555
O5 Zn5 2.043690 1_555
O6 Zn8 2.005637 1_455
O6 Zn4 2.075748 1_555
O7 Zn8 2.005637 1_545
O7 Zn4 2.075748 1_555
O8 Zn11 2.007084 1_554
O8 Zn4 2.075423 1_555
O9 Zn5 2.003241 1_555
O9 Zn4 2.075911 1_555
O10 Zn1 2.004477 1_565
O10 Zn4 2.075619 1_555
O11 Zn1 2.004477 1_655
O11 Zn4 2.075619 1_555
O12 Zn6 1.954451 1_555
O12 Zn0 2.147880 1_556
O13 Zn6 1.953809 1_555
O13 Zn3 2.150566 1_565
O14 Zn6 1.953809 1_555
O14 Zn3 2.150566 1_655
O15 Zn7 1.986037 1_555
O16 Zn6 1.986037 1_555
O17 Zn7 1.953809 1_555
O17 Zn3 2.150566 1_565
O18 Zn7 1.953809 1_555
O18 Zn3 2.150566 1_655
O19 Zn7 1.954451 1_555
O19 Zn0 2.147880 1_665
O20 Zn11 2.004477 1_455
O20 Zn9 2.075619 1_555
O21 Zn11 2.004477 1_545
O21 Zn9 2.075619 1_555
O22 Zn8 2.003241 1_555
O22 Zn9 2.075911 1_555
O23 Zn1 2.007084 1_556
O23 Zn9 2.075423 1_555
O24 Zn5 2.005637 1_565
O24 Zn9 2.075748 1_555
O25 Zn5 2.005637 1_655
O25 Zn9 2.075748 1_555
O26 Zn8 2.043690 1_555
O27 Zn10 1.986405 1_555
O28 Zn10 1.952642 1_555
O28 Zn0 2.152046 1_566
O29 Zn10 1.952642 1_555
O29 Zn0 2.152046 1_656
O30 Zn10 1.952089 1_555
O30 Zn3 2.154743 1_665
O31 Zn11 2.043820 1_555
