# generated using pymatgen
data_NaSb(PS3)2
_symmetry_space_group_name_H-M   'P 1'
_cell_length_a   7.70284000
_cell_length_b   6.64295200
_cell_length_c   9.60378402
_cell_angle_alpha   86.61192063
_cell_angle_beta   90.00000000
_cell_angle_gamma   90.00000000
_symmetry_Int_Tables_number   1
_chemical_formula_structural   NaSb(PS3)2
_chemical_formula_sum   'Na2 Sb2 P4 S12'
_cell_volume   490.56281819
_cell_formula_units_Z   2
loop_
 _symmetry_equiv_pos_site_id
 _symmetry_equiv_pos_as_xyz
  1  'x, y, z'
loop_
 _atom_site_type_symbol
 _atom_site_label
 _atom_site_symmetry_multiplicity
 _atom_site_fract_x
 _atom_site_fract_y
 _atom_site_fract_z
 _atom_site_occupancy
  Na  Na0  1  0.53480800  0.30271600  0.50727800  1
  Na  Na1  1  0.03480800  0.69728400  0.49272200  1
  Sb  Sb0  1  0.25235600  0.18767900  0.98380600  1
  Sb  Sb1  1  0.75235600  0.81232100  0.01619400  1
  P  P0  1  0.83546600  0.31013700  0.81868200  1
  P  P1  1  0.05097200  0.19425100  0.68583500  1
  P  P2  1  0.55097200  0.80574900  0.31416500  1
  P  P3  1  0.33546600  0.68986300  0.18131800  1
  S  S0  1  0.94990300  0.34230200  0.01349900  1
  S  S1  1  0.12844000  0.94512000  0.81152500  1
  S  S2  1  0.95187900  0.13467200  0.50370000  1
  S  S3  1  0.45187900  0.86532800  0.49630000  1
  S  S4  1  0.23709900  0.40766000  0.70001000  1
  S  S5  1  0.62844000  0.05488000  0.18847500  1
  S  S6  1  0.64394500  0.09118800  0.82697200  1
  S  S7  1  0.74183400  0.56788000  0.73086700  1
  S  S8  1  0.14394500  0.90881200  0.17302800  1
  S  S9  1  0.24183400  0.43212000  0.26913300  1
  S  S10  1  0.44990300  0.65769800  0.98650100  1
  S  S11  1  0.73709900  0.59234000  0.29999000  1
loop_
_geom_bond_atom_site_label_1
_geom_bond_atom_site_label_2
_geom_bond_distance
_geom_bond_site_symmetry_2
Na0 S3 2.982881 1_545
Na0 S4 3.053416 1_555
Na0 S11 3.104839 1_555
Na0 S7 3.271664 1_555
Na0 S9 3.290928 1_555
Na0 S2 3.401890 1_555
Na0 S6 3.405563 1_555
Na1 S2 2.982881 1_465
Na1 S11 3.053416 1_455
Na1 S4 3.104839 1_555
Na1 S9 3.271664 1_555
Na1 S7 3.290928 1_455
Na1 S3 3.401890 1_555
Na1 S8 3.405563 1_555
P0 S7 1.998072 1_555
P0 S6 2.069905 1_555
P0 S0 2.090574 1_556
P0 P1 2.256568 1_655
P1 S2 1.969960 1_455
P1 S4 2.026483 1_555
P1 S1 2.077488 1_545
P2 S3 1.969960 1_555
P2 S11 2.026483 1_555
P2 S5 2.077488 1_565
P2 P3 2.256568 1_555
P3 S9 1.998072 1_555
P3 S8 2.069905 1_555
P3 S10 2.090574 1_554
S0 Sb0 2.568794 1_654
S1 Sb0 2.561257 1_565
S4 Sb0 3.017772 1_555
S5 Sb1 2.561257 1_545
S6 Sb1 2.652091 1_546
S8 Sb0 2.652091 1_564
S10 Sb1 2.568794 1_556
S11 Sb1 3.017772 1_555
