# generated using pymatgen
data_Nb3Tl
_symmetry_space_group_name_H-M   'P 1'
_cell_length_a   5.36301500
_cell_length_b   5.36301500
_cell_length_c   5.36301500
_cell_angle_alpha   90.00000000
_cell_angle_beta   90.00000000
_cell_angle_gamma   90.00000000
_symmetry_Int_Tables_number   1
_chemical_formula_structural   Nb3Tl
_chemical_formula_sum   'Nb6 Tl2'
_cell_volume   154.25066143
_cell_formula_units_Z   2
loop_
 _symmetry_equiv_pos_site_id
 _symmetry_equiv_pos_as_xyz
  1  'x, y, z'
loop_
 _atom_site_type_symbol
 _atom_site_label
 _atom_site_symmetry_multiplicity
 _atom_site_fract_x
 _atom_site_fract_y
 _atom_site_fract_z
 _atom_site_occupancy
  Nb  Nb0  1  0.50000000  0.75000000  0.00000000  1
  Nb  Nb1  1  0.00000000  0.50000000  0.75000000  1
  Nb  Nb2  1  0.50000000  0.25000000  0.00000000  1
  Nb  Nb3  1  0.00000000  0.50000000  0.25000000  1
  Nb  Nb4  1  0.25000000  0.00000000  0.50000000  1
  Nb  Nb5  1  0.75000000  0.00000000  0.50000000  1
  Tl  Tl0  1  0.50000000  0.50000000  0.50000000  1
  Tl  Tl1  1  0.00000000  0.00000000  0.00000000  1
loop_
_geom_bond_atom_site_label_1
_geom_bond_atom_site_label_2
_geom_bond_distance
_geom_bond_site_symmetry_2
Nb0 Nb2 2.681507 1_555
Nb0 Nb2 2.681507 1_565
Nb0 Tl0 2.998017 1_554
Nb0 Tl1 2.998017 1_565
Nb0 Tl1 2.998017 1_665
Nb0 Tl0 2.998017 1_555
Nb0 Nb5 3.284163 1_564
Nb0 Nb1 3.284163 1_654
Nb0 Nb3 3.284163 1_555
Nb0 Nb4 3.284163 1_564
Nb0 Nb1 3.284163 1_554
Nb0 Nb4 3.284163 1_565
Nb0 Nb3 3.284163 1_655
Nb0 Nb5 3.284163 1_565
Nb1 Nb3 2.681507 1_555
Nb1 Nb3 2.681507 1_556
Nb1 Tl0 2.998017 1_555
Nb1 Tl0 2.998017 1_455
Nb1 Tl1 2.998017 1_566
Nb1 Tl1 2.998017 1_556
Nb1 Nb2 3.284163 1_556
Nb1 Nb2 3.284163 1_456
Nb1 Nb4 3.284163 1_555
Nb1 Nb5 3.284163 1_455
Nb1 Nb4 3.284163 1_565
Nb1 Nb5 3.284163 1_465
Nb2 Tl0 2.998017 1_554
Nb2 Tl1 2.998017 1_655
Nb2 Tl0 2.998017 1_555
Nb2 Tl1 2.998017 1_555
Nb2 Nb3 3.284163 1_555
Nb2 Nb4 3.284163 1_554
Nb2 Nb4 3.284163 1_555
Nb2 Nb3 3.284163 1_655
Nb2 Nb5 3.284163 1_555
Nb2 Nb5 3.284163 1_554
Nb3 Tl1 2.998017 1_565
Nb3 Tl0 2.998017 1_455
Nb3 Tl0 2.998017 1_555
Nb3 Tl1 2.998017 1_555
Nb3 Nb5 3.284163 1_465
Nb3 Nb4 3.284163 1_555
Nb3 Nb4 3.284163 1_565
Nb3 Nb5 3.284163 1_455
Nb4 Nb5 2.681507 1_455
Nb4 Nb5 2.681507 1_555
Nb4 Tl1 2.998017 1_555
Nb4 Tl0 2.998017 1_555
Nb4 Tl0 2.998017 1_545
Nb4 Tl1 2.998017 1_556
Nb5 Tl1 2.998017 1_655
Nb5 Tl1 2.998017 1_656
Nb5 Tl0 2.998017 1_555
Nb5 Tl0 2.998017 1_545
