# generated using pymatgen
data_K2EuTa5O15
_symmetry_space_group_name_H-M   'P 1'
_cell_length_a   12.70928400
_cell_length_b   12.70928400
_cell_length_c   3.95401400
_cell_angle_alpha   90.00000000
_cell_angle_beta   90.00000000
_cell_angle_gamma   90.00000000
_symmetry_Int_Tables_number   1
_chemical_formula_structural   K2EuTa5O15
_chemical_formula_sum   'K4 Eu2 Ta10 O30'
_cell_volume   638.67566914
_cell_formula_units_Z   2
loop_
 _symmetry_equiv_pos_site_id
 _symmetry_equiv_pos_as_xyz
  1  'x, y, z'
loop_
 _atom_site_type_symbol
 _atom_site_label
 _atom_site_symmetry_multiplicity
 _atom_site_fract_x
 _atom_site_fract_y
 _atom_site_fract_z
 _atom_site_occupancy
  K  K0  1  0.16977800  0.33022200  0.00000000  1
  K  K1  1  0.66977800  0.16977800  0.00000000  1
  K  K2  1  0.33022200  0.83022200  0.00000000  1
  K  K3  1  0.83022200  0.66977800  0.00000000  1
  Eu  Eu0  1  0.00000000  0.00000000  0.00000000  1
  Eu  Eu1  1  0.50000000  0.50000000  0.00000000  1
  Ta  Ta0  1  0.07618300  0.78687000  0.50000000  1
  Ta  Ta1  1  0.21313000  0.07618300  0.50000000  1
  Ta  Ta2  1  0.00000000  0.50000000  0.50000000  1
  Ta  Ta3  1  0.28687000  0.57618300  0.50000000  1
  Ta  Ta4  1  0.71313000  0.42381700  0.50000000  1
  Ta  Ta5  1  0.78687000  0.92381700  0.50000000  1
  Ta  Ta6  1  0.57618300  0.71313000  0.50000000  1
  Ta  Ta7  1  0.42381700  0.28687000  0.50000000  1
  Ta  Ta8  1  0.92381700  0.21313000  0.50000000  1
  Ta  Ta9  1  0.50000000  0.00000000  0.50000000  1
  O  O0  1  0.00135900  0.34285300  0.50000000  1
  O  O1  1  0.69383800  0.42364300  0.00000000  1
  O  O2  1  0.28471400  0.21528600  0.50000000  1
  O  O3  1  0.86654200  0.06201900  0.50000000  1
  O  O4  1  0.21528600  0.71528600  0.50000000  1
  O  O5  1  0.19383800  0.07635700  0.00000000  1
  O  O6  1  0.42364300  0.30616200  0.00000000  1
  O  O7  1  0.13345800  0.93798100  0.50000000  1
  O  O8  1  0.80616200  0.92364300  0.00000000  1
  O  O9  1  0.63345800  0.56201900  0.50000000  1
  O  O10  1  0.71528600  0.78471400  0.50000000  1
  O  O11  1  0.36654200  0.43798100  0.50000000  1
  O  O12  1  0.15714700  0.49864100  0.50000000  1
  O  O13  1  0.34285300  0.99864100  0.50000000  1
  O  O14  1  0.07635700  0.80616200  0.00000000  1
  O  O15  1  0.78471400  0.28471400  0.50000000  1
  O  O16  1  0.84285300  0.50135900  0.50000000  1
  O  O17  1  0.92364300  0.19383800  0.00000000  1
  O  O18  1  0.65714700  0.00135900  0.50000000  1
  O  O19  1  0.93798100  0.86654200  0.50000000  1
  O  O20  1  0.06201900  0.13345800  0.50000000  1
  O  O21  1  0.99864100  0.65714700  0.50000000  1
  O  O22  1  0.49864100  0.84285300  0.50000000  1
  O  O23  1  0.57635700  0.69383800  0.00000000  1
  O  O24  1  0.56201900  0.36654200  0.50000000  1
  O  O25  1  0.43798100  0.63345800  0.50000000  1
  O  O26  1  0.50000000  0.00000000  0.00000000  1
  O  O27  1  0.30616200  0.57635700  0.00000000  1
  O  O28  1  0.50135900  0.15714700  0.50000000  1
  O  O29  1  0.00000000  0.50000000  0.00000000  1
loop_
_geom_bond_atom_site_label_1
_geom_bond_atom_site_label_2
_geom_bond_distance
_geom_bond_site_symmetry_2
K0 O2 2.859399 1_555
K0 O2 2.859399 1_554
K0 O0 2.918219 1_555
K0 O0 2.918219 1_554
K0 O12 2.918219 1_555
K0 O12 2.918219 1_554
K0 O29 3.051529 1_555
K0 O5 3.240900 1_555
K0 O6 3.240900 1_555
K1 O15 2.859399 1_555
K1 O15 2.859399 1_554
K1 O18 2.918219 1_554
K1 O18 2.918219 1_555
K1 O28 2.918219 1_554
K1 O28 2.918219 1_555
K1 O26 3.051529 1_555
K1 O17 3.240900 1_555
K1 O1 3.240900 1_555
K2 O4 2.859399 1_554
K2 O4 2.859399 1_555
K2 O13 2.918219 1_555
K2 O13 2.918219 1_554
K2 O22 2.918219 1_555
K2 O22 2.918219 1_554
K2 O26 3.051529 1_565
K2 O14 3.240900 1_555
K2 O27 3.240900 1_555
K3 O10 2.859399 1_555
K3 O10 2.859399 1_554
K3 O16 2.918219 1_555
K3 O16 2.918219 1_554
K3 O21 2.918219 1_555
K3 O21 2.918219 1_554
K3 O29 3.051529 1_655
K3 O23 3.240900 1_555
K3 O8 3.240900 1_555
Eu0 O5 2.647791 1_555
Eu0 O17 2.647791 1_455
Eu0 O14 2.647791 1_545
Eu0 O8 2.647791 1_445
Eu0 O20 2.721541 1_555
Eu0 O20 2.721541 1_554
Eu0 O7 2.721541 1_544
Eu0 O7 2.721541 1_545
Eu0 O19 2.721541 1_445
Eu0 O3 2.721541 1_455
Eu0 O19 2.721541 1_444
Eu0 O3 2.721541 1_454
Eu1 O23 2.647791 1_555
Eu1 O1 2.647791 1_555
Eu1 O6 2.647791 1_555
Eu1 O27 2.647791 1_555
Eu1 O9 2.721541 1_554
Eu1 O9 2.721541 1_555
Eu1 O24 2.721541 1_554
Eu1 O24 2.721541 1_555
Eu1 O25 2.721541 1_554
Eu1 O25 2.721541 1_555
Eu1 O11 2.721541 1_554
Eu1 O11 2.721541 1_555
O0 Ta8 1.920777 1_455
O0 Ta2 1.997301 1_555
O1 Ta4 1.992154 1_554
O1 Ta4 1.992154 1_555
O2 Ta1 1.988258 1_555
O2 Ta7 1.988258 1_555
O3 Ta5 2.027416 1_545
O3 Ta8 2.053836 1_555
O4 Ta0 1.988258 1_555
O4 Ta3 1.988258 1_555
O5 Ta1 1.992154 1_554
O5 Ta1 1.992154 1_555
O6 Ta7 1.992154 1_555
O6 Ta7 1.992154 1_554
O7 Ta1 2.027416 1_565
O7 Ta0 2.053836 1_555
O8 Ta5 1.992154 1_554
O8 Ta5 1.992154 1_555
O9 Ta4 2.027416 1_555
O9 Ta6 2.053836 1_555
O10 Ta6 1.988258 1_555
O10 Ta5 1.988258 1_555
O11 Ta3 2.027416 1_555
O11 Ta7 2.053836 1_555
O12 Ta3 1.920777 1_555
O12 Ta2 1.997301 1_555
O13 Ta1 1.920777 1_565
O13 Ta9 1.997301 1_565
O14 Ta0 1.992154 1_554
O14 Ta0 1.992154 1_555
O15 Ta4 1.988258 1_555
O15 Ta8 1.988258 1_555
O16 Ta4 1.920777 1_555
O16 Ta2 1.997301 1_655
O17 Ta8 1.992154 1_555
O17 Ta8 1.992154 1_554
O18 Ta5 1.920777 1_545
O18 Ta9 1.997301 1_555
O19 Ta0 2.027416 1_655
O19 Ta5 2.053836 1_555
O20 Ta8 2.027416 1_455
O20 Ta1 2.053836 1_555
O21 Ta0 1.920777 1_655
O21 Ta2 1.997301 1_655
O22 Ta6 1.920777 1_555
O22 Ta9 1.997301 1_565
O23 Ta6 1.992154 1_554
O23 Ta6 1.992154 1_555
O24 Ta7 2.027416 1_555
O24 Ta4 2.053836 1_555
O25 Ta6 2.027416 1_555
O25 Ta3 2.053836 1_555
O26 Ta9 1.977007 1_555
O26 Ta9 1.977007 1_554
O27 Ta3 1.992154 1_554
O27 Ta3 1.992154 1_555
O28 Ta7 1.920777 1_555
O28 Ta9 1.997301 1_555
O29 Ta2 1.977007 1_554
O29 Ta2 1.977007 1_555
