# generated using pymatgen
data_Pd(Se3Br)2
_symmetry_space_group_name_H-M   'P 1'
_cell_length_a   4.59516624
_cell_length_b   7.66615283
_cell_length_c   8.08447848
_cell_angle_alpha   66.06282178
_cell_angle_beta   86.14562602
_cell_angle_gamma   80.39667939
_symmetry_Int_Tables_number   1
_chemical_formula_structural   Pd(Se3Br)2
_chemical_formula_sum   'Pd1 Se6 Br2'
_cell_volume   256.65127250
_cell_formula_units_Z   1
loop_
 _symmetry_equiv_pos_site_id
 _symmetry_equiv_pos_as_xyz
  1  'x, y, z'
loop_
 _atom_site_type_symbol
 _atom_site_label
 _atom_site_symmetry_multiplicity
 _atom_site_fract_x
 _atom_site_fract_y
 _atom_site_fract_z
 _atom_site_occupancy
  Pd  Pd0  1  0.00000000  0.00000000  -0.00000000  1
  Se  Se0  1  0.05368366  0.51768105  0.75767893  1
  Se  Se1  1  0.94631634  0.48231895  0.24232107  1
  Se  Se2  1  0.15295198  0.73159655  0.28217927  1
  Se  Se3  1  0.16752539  0.21861693  0.48914350  1
  Se  Se4  1  0.83247461  0.78138307  0.51085650  1
  Se  Se5  1  0.84704702  0.26840345  0.71782073  1
  Br  Br0  1  0.38557235  0.83582400  0.86377578  1
  Br  Br1  1  0.61442765  0.16417600  0.13622422  1
loop_
_geom_bond_atom_site_label_1
_geom_bond_atom_site_label_2
_geom_bond_distance
_geom_bond_site_symmetry_2
Pd0 Se2 2.419917 1_545
Pd0 Se5 2.419918 1_454
Se0 Se4 2.327111 1_455
Se0 Se5 2.409070 1_455
Se1 Se3 2.327111 1_655
Se1 Se2 2.409067 1_655
Se2 Se4 2.398168 1_455
Se3 Se5 2.398171 1_455
Br0 Pd0 2.460594 1_566
Br1 Pd0 2.460594 1_655
