# generated using pymatgen
data_CsS2N3O4
_symmetry_space_group_name_H-M   'P 1'
_cell_length_a   10.76201000
_cell_length_b   8.50711400
_cell_length_c   9.36247254
_cell_angle_alpha   70.31361796
_cell_angle_beta   90.00000000
_cell_angle_gamma   90.00000000
_symmetry_Int_Tables_number   1
_chemical_formula_structural   CsS2N3O4
_chemical_formula_sum   'Cs4 S8 N12 O16'
_cell_volume   807.06754494
_cell_formula_units_Z   4
loop_
 _symmetry_equiv_pos_site_id
 _symmetry_equiv_pos_as_xyz
  1  'x, y, z'
loop_
 _atom_site_type_symbol
 _atom_site_label
 _atom_site_symmetry_multiplicity
 _atom_site_fract_x
 _atom_site_fract_y
 _atom_site_fract_z
 _atom_site_occupancy
  Cs  Cs0  1  0.07687100  0.89890300  0.79565900  1
  Cs  Cs1  1  0.57687100  0.60109700  0.20434100  1
  Cs  Cs2  1  0.92312900  0.10109700  0.20434100  1
  Cs  Cs3  1  0.42312900  0.39890300  0.79565900  1
  S  S0  1  0.73455100  0.73272500  0.54947400  1
  S  S1  1  0.23455100  0.76727500  0.45052600  1
  S  S2  1  0.50582800  0.06623300  0.27543000  1
  S  S3  1  0.00582800  0.43376700  0.72457000  1
  S  S4  1  0.26544900  0.26727500  0.45052600  1
  S  S5  1  0.99417200  0.56623300  0.27543000  1
  S  S6  1  0.76544900  0.23272500  0.54947400  1
  S  S7  1  0.49417200  0.93376700  0.72457000  1
  N  N0  1  0.28206400  0.97932200  0.13613300  1
  N  N1  1  0.28142100  0.57195800  0.04551300  1
  N  N2  1  0.21793600  0.47932200  0.13613300  1
  N  N3  1  0.15031800  0.38597600  0.23069700  1
  N  N4  1  0.65031800  0.11402400  0.76930300  1
  N  N5  1  0.71857900  0.42804200  0.95448700  1
  N  N6  1  0.78206400  0.52067800  0.86386700  1
  N  N7  1  0.21857900  0.07195800  0.04551300  1
  N  N8  1  0.84968200  0.61402400  0.76930300  1
  N  N9  1  0.71793600  0.02067800  0.86386700  1
  N  N10  1  0.34968200  0.88597600  0.23069700  1
  N  N11  1  0.78142100  0.92804200  0.95448700  1
  O  O0  1  0.64364300  0.59941400  0.56355600  1
  O  O1  1  0.11355600  0.51232800  0.76878100  1
  O  O2  1  0.35635700  0.40058600  0.43644400  1
  O  O3  1  0.66635500  0.24439200  0.43883700  1
  O  O4  1  0.96448900  0.27657000  0.83744400  1
  O  O5  1  0.14364300  0.90058600  0.43644400  1
  O  O6  1  0.83364500  0.74439200  0.43883700  1
  O  O7  1  0.88644400  0.48767200  0.23121900  1
  O  O8  1  0.46448900  0.22343000  0.16255600  1
  O  O9  1  0.85635700  0.09941400  0.56355600  1
  O  O10  1  0.33364500  0.75560800  0.56116300  1
  O  O11  1  0.16635500  0.25560800  0.56116300  1
  O  O12  1  0.03551100  0.72343000  0.16255600  1
  O  O13  1  0.38644400  0.01232800  0.76878100  1
  O  O14  1  0.53551100  0.77657000  0.83744400  1
  O  O15  1  0.61355600  0.98767200  0.23121900  1
loop_
_geom_bond_atom_site_label_1
_geom_bond_atom_site_label_2
_geom_bond_distance
_geom_bond_site_symmetry_2
Cs0 O11 3.235312 1_565
Cs0 O9 3.281219 1_465
Cs0 O12 3.281975 1_556
Cs0 O1 3.404688 1_555
Cs0 O5 3.434365 1_555
Cs0 O13 3.454062 1_565
Cs0 N7 3.505074 1_566
Cs0 N8 3.509304 1_455
Cs0 N11 3.554029 1_455
Cs0 O4 3.575627 1_465
Cs0 N1 3.697365 1_556
Cs1 O3 3.235312 1_555
Cs1 O2 3.281219 1_555
Cs1 O14 3.281975 1_554
Cs1 O15 3.404688 1_555
Cs1 O0 3.434365 1_555
Cs1 O7 3.454062 1_555
Cs1 N5 3.505074 1_554
Cs1 N10 3.509304 1_555
Cs1 N1 3.554029 1_555
Cs1 O8 3.575627 1_555
Cs1 N11 3.697365 1_554
Cs2 O6 3.235312 1_545
Cs2 O5 3.281219 1_645
Cs2 O4 3.281975 1_554
Cs2 O7 3.404688 1_555
Cs2 O9 3.434365 1_555
Cs2 O15 3.454062 1_545
Cs2 N11 3.505074 1_544
Cs2 N3 3.509304 1_655
Cs2 N7 3.554029 1_655
Cs2 O12 3.575627 1_645
Cs2 N5 3.697365 1_554
Cs3 O10 3.235312 1_555
Cs3 O0 3.281219 1_555
Cs3 O8 3.281975 1_556
Cs3 O13 3.404688 1_555
Cs3 O2 3.434365 1_555
Cs3 O1 3.454062 1_555
Cs3 N1 3.505074 1_556
Cs3 N4 3.509304 1_555
Cs3 N5 3.554029 1_555
Cs3 O14 3.575627 1_555
Cs3 N7 3.697365 1_556
N0 N7 1.164988 1_565
N0 N10 1.212569 1_555
N1 N2 1.164988 1_555
N2 N3 1.212569 1_555
N3 S4 2.321772 1_555
N3 S5 2.404895 1_455
N4 N9 1.212569 1_555
N4 S6 2.321772 1_555
N4 S7 2.404895 1_545
N5 N6 1.164988 1_555
N6 N8 1.212569 1_555
N8 S0 2.321772 1_555
N8 S3 2.404895 1_655
N10 S1 2.321772 1_555
N10 S2 2.404895 1_565
N11 N9 1.164988 1_565
O0 S0 1.469688 1_555
O1 S3 1.465781 1_555
O2 S4 1.469688 1_555
O3 S6 1.466580 1_555
O4 S3 1.466599 1_655
O5 S1 1.469688 1_555
O6 S0 1.466580 1_555
O7 S5 1.465781 1_555
O8 S2 1.466599 1_555
O9 S6 1.469688 1_555
O10 S1 1.466580 1_555
O11 S4 1.466580 1_555
O12 S5 1.466599 1_455
O13 S7 1.465781 1_545
O14 S7 1.466599 1_555
O15 S2 1.465781 1_565
