# generated using pymatgen
data_Rh7(PbO5)3
_symmetry_space_group_name_H-M   'P 1'
_cell_length_a   10.56000114
_cell_length_b   10.56000114
_cell_length_c   13.49465200
_cell_angle_alpha   90.00000000
_cell_angle_beta   90.00000000
_cell_angle_gamma   119.99999460
_symmetry_Int_Tables_number   1
_chemical_formula_structural   Rh7(PbO5)3
_chemical_formula_sum   'Rh28 Pb12 O60'
_cell_volume   1303.22761735
_cell_formula_units_Z   4
loop_
 _symmetry_equiv_pos_site_id
 _symmetry_equiv_pos_as_xyz
  1  'x, y, z'
loop_
 _atom_site_type_symbol
 _atom_site_label
 _atom_site_symmetry_multiplicity
 _atom_site_fract_x
 _atom_site_fract_y
 _atom_site_fract_z
 _atom_site_occupancy
  Rh  Rh0  1  0.66666700  0.33333300  0.64758300  1
  Rh  Rh1  1  0.83123600  0.66247100  0.50000000  1
  Rh  Rh2  1  0.66666700  0.33333300  0.85241700  1
  Rh  Rh3  1  0.66666700  0.33333300  0.14758300  1
  Rh  Rh4  1  0.33752900  0.16876400  0.50000000  1
  Rh  Rh5  1  0.00000000  0.00000000  0.00000000  1
  Rh  Rh6  1  0.33752900  0.16876400  0.00000000  1
  Rh  Rh7  1  0.00000000  0.00000000  0.50000000  1
  Rh  Rh8  1  0.50000000  0.50000000  0.00000000  1
  Rh  Rh9  1  0.16876400  0.83123600  0.50000000  1
  Rh  Rh10  1  0.33333300  0.66666700  0.85241700  1
  Rh  Rh11  1  0.66247100  0.83123600  0.50000000  1
  Rh  Rh12  1  0.83123600  0.16876400  0.50000000  1
  Rh  Rh13  1  0.16876400  0.83123600  0.00000000  1
  Rh  Rh14  1  0.00000000  0.50000000  0.00000000  1
  Rh  Rh15  1  0.33333300  0.66666700  0.35241700  1
  Rh  Rh16  1  0.00000000  0.50000000  0.50000000  1
  Rh  Rh17  1  0.50000000  0.50000000  0.50000000  1
  Rh  Rh18  1  0.66247100  0.83123600  0.00000000  1
  Rh  Rh19  1  0.16876400  0.33752900  0.50000000  1
  Rh  Rh20  1  0.50000000  0.00000000  0.00000000  1
  Rh  Rh21  1  0.33333300  0.66666700  0.64758300  1
  Rh  Rh22  1  0.50000000  0.00000000  0.50000000  1
  Rh  Rh23  1  0.33333300  0.66666700  0.14758300  1
  Rh  Rh24  1  0.66666700  0.33333300  0.35241700  1
  Rh  Rh25  1  0.16876400  0.33752900  0.00000000  1
  Rh  Rh26  1  0.83123600  0.66247100  0.00000000  1
  Rh  Rh27  1  0.83123600  0.16876400  0.00000000  1
  Pb  Pb0  1  0.73173700  0.00000000  0.25000000  1
  Pb  Pb1  1  0.60263600  0.60263600  0.25000000  1
  Pb  Pb2  1  0.00000000  0.73173700  0.25000000  1
  Pb  Pb3  1  0.39736400  0.39736400  0.75000000  1
  Pb  Pb4  1  0.39736400  0.00000000  0.25000000  1
  Pb  Pb5  1  0.00000000  0.39736400  0.25000000  1
  Pb  Pb6  1  0.26826300  0.00000000  0.75000000  1
  Pb  Pb7  1  0.60263600  0.00000000  0.75000000  1
  Pb  Pb8  1  0.00000000  0.60263600  0.75000000  1
  Pb  Pb9  1  0.00000000  0.26826300  0.75000000  1
  Pb  Pb10  1  0.73173700  0.73173700  0.75000000  1
  Pb  Pb11  1  0.26826300  0.26826300  0.25000000  1
  O  O0  1  0.00000000  0.33383100  0.92294200  1
  O  O1  1  0.50675100  0.66570300  0.08122300  1
  O  O2  1  0.82180600  0.34345700  0.75000000  1
  O  O3  1  0.33429700  0.49324900  0.91877700  1
  O  O4  1  0.84104900  0.50675100  0.91877700  1
  O  O5  1  0.15895100  0.66570300  0.58122300  1
  O  O6  1  0.50675100  0.84104900  0.58122300  1
  O  O7  1  0.00000000  0.83087700  0.57466100  1
  O  O8  1  0.66616900  0.66616900  0.57705800  1
  O  O9  1  0.49324900  0.33429700  0.58122300  1
  O  O10  1  0.66616900  0.00000000  0.07705800  1
  O  O11  1  0.16912300  0.00000000  0.07466100  1
  O  O12  1  0.49324900  0.33429700  0.91877700  1
  O  O13  1  0.66570300  0.50675100  0.08122300  1
  O  O14  1  0.83087700  0.83087700  0.07466100  1
  O  O15  1  0.65654300  0.17819400  0.25000000  1
  O  O16  1  0.00000000  0.66616900  0.42294200  1
  O  O17  1  0.66616900  0.66616900  0.92294200  1
  O  O18  1  0.00000000  0.83087700  0.92533900  1
  O  O19  1  0.50675100  0.84104900  0.91877700  1
  O  O20  1  0.15895100  0.66570300  0.91877700  1
  O  O21  1  0.00000000  0.16912300  0.42533900  1
  O  O22  1  0.00000000  0.66616900  0.07705800  1
  O  O23  1  0.84104900  0.50675100  0.58122300  1
  O  O24  1  0.33429700  0.49324900  0.58122300  1
  O  O25  1  0.84104900  0.33429700  0.08122300  1
  O  O26  1  0.66570300  0.50675100  0.41877700  1
  O  O27  1  0.00000000  0.33383100  0.57705800  1
  O  O28  1  0.16912300  0.16912300  0.57466100  1
  O  O29  1  0.47834900  0.65654300  0.75000000  1
  O  O30  1  0.33383100  0.33383100  0.07705800  1
  O  O31  1  0.66570300  0.15895100  0.58122300  1
  O  O32  1  0.83087700  0.00000000  0.92533900  1
  O  O33  1  0.65654300  0.47834900  0.75000000  1
  O  O34  1  0.15895100  0.49324900  0.41877700  1
  O  O35  1  0.52165100  0.34345700  0.25000000  1
  O  O36  1  0.34345700  0.82180600  0.75000000  1
  O  O37  1  0.82180600  0.47834900  0.25000000  1
  O  O38  1  0.66570300  0.15895100  0.91877700  1
  O  O39  1  0.47834900  0.82180600  0.25000000  1
  O  O40  1  0.49324900  0.15895100  0.08122300  1
  O  O41  1  0.52165100  0.17819400  0.75000000  1
  O  O42  1  0.49324900  0.15895100  0.41877700  1
  O  O43  1  0.34345700  0.52165100  0.25000000  1
  O  O44  1  0.33383100  0.00000000  0.92294200  1
  O  O45  1  0.33383100  0.00000000  0.57705800  1
  O  O46  1  0.33429700  0.84104900  0.41877700  1
  O  O47  1  0.17819400  0.65654300  0.25000000  1
  O  O48  1  0.33383100  0.33383100  0.42294200  1
  O  O49  1  0.17819400  0.52165100  0.75000000  1
  O  O50  1  0.33429700  0.84104900  0.08122300  1
  O  O51  1  0.15895100  0.49324900  0.08122300  1
  O  O52  1  0.84104900  0.33429700  0.41877700  1
  O  O53  1  0.83087700  0.00000000  0.57466100  1
  O  O54  1  0.50675100  0.66570300  0.41877700  1
  O  O55  1  0.00000000  0.16912300  0.07466100  1
  O  O56  1  0.66616900  0.00000000  0.42294200  1
  O  O57  1  0.16912300  0.00000000  0.42533900  1
  O  O58  1  0.83087700  0.83087700  0.42533900  1
  O  O59  1  0.16912300  0.16912300  0.92533900  1
loop_
_geom_bond_atom_site_label_1
_geom_bond_atom_site_label_2
_geom_bond_distance
_geom_bond_site_symmetry_2
O0 Rh14 2.039721 1_556
O0 Rh25 2.046781 1_556
O0 Rh27 2.046786 1_456
O0 Pb9 2.434338 1_555
O1 Rh18 2.021531 1_555
O1 Rh8 2.035584 1_555
O1 Rh23 2.043114 1_555
O1 Pb1 2.707496 1_555
O2 Rh0 2.104841 1_555
O2 Rh2 2.104841 1_555
O2 Pb9 2.380252 1_655
O2 Pb8 2.425187 1_655
O3 Rh25 2.021531 1_556
O3 Rh8 2.035584 1_556
O3 Rh10 2.043114 1_555
O3 Pb3 2.707496 1_555
O4 Rh26 2.021530 1_556
O4 Rh14 2.035575 1_656
O4 Rh2 2.043114 1_555
O4 Pb8 2.707491 1_655
O5 Rh9 2.021530 1_555
O5 Rh16 2.035580 1_555
O5 Rh21 2.043114 1_555
O5 Pb8 2.707491 1_555
O6 Rh11 2.021530 1_555
O6 Rh22 2.035575 1_565
O6 Rh21 2.043114 1_555
O6 Pb7 2.707491 1_565
O7 Rh9 2.045584 1_555
O7 Rh1 2.045589 1_455
O7 Rh7 2.050532 1_565
O8 Rh17 2.039721 1_555
O8 Rh1 2.046790 1_555
O8 Rh11 2.046790 1_555
O8 Pb10 2.434338 1_555
O9 Rh4 2.021531 1_555
O9 Rh17 2.035584 1_555
O9 Rh0 2.043114 1_555
O9 Pb3 2.707496 1_555
O10 Rh20 2.039721 1_555
O10 Rh18 2.046781 1_545
O10 Rh27 2.046786 1_555
O10 Pb0 2.434338 1_555
O11 Rh13 2.045584 1_545
O11 Rh6 2.045589 1_555
O11 Rh5 2.050532 1_555
O12 Rh6 2.021531 1_556
O12 Rh8 2.035584 1_556
O12 Rh2 2.043114 1_555
O12 Pb3 2.707496 1_555
O13 Rh26 2.021531 1_555
O13 Rh8 2.035584 1_555
O13 Rh3 2.043114 1_555
O13 Pb1 2.707496 1_555
O14 Rh26 2.045593 1_555
O14 Rh18 2.045593 1_555
O14 Rh5 2.050533 1_665
O15 Rh24 2.104841 1_555
O15 Rh3 2.104841 1_555
O15 Pb0 2.380252 1_555
O15 Pb4 2.425187 1_555
O16 Rh16 2.039721 1_555
O16 Rh1 2.046781 1_455
O16 Rh9 2.046786 1_555
O16 Pb2 2.434338 1_555
O17 Rh8 2.039721 1_556
O17 Rh26 2.046790 1_556
O17 Rh18 2.046790 1_556
O17 Pb10 2.434338 1_555
O18 Rh13 2.045584 1_556
O18 Rh26 2.045589 1_456
O18 Rh5 2.050532 1_566
O19 Rh18 2.021530 1_556
O19 Rh20 2.035575 1_566
O19 Rh10 2.043114 1_555
O19 Pb7 2.707491 1_565
O20 Rh13 2.021530 1_556
O20 Rh14 2.035580 1_556
O20 Rh10 2.043114 1_555
O20 Pb8 2.707491 1_555
O21 Rh12 2.045584 1_455
O21 Rh19 2.045589 1_555
O21 Rh7 2.050532 1_555
O22 Rh14 2.039721 1_555
O22 Rh26 2.046781 1_455
O22 Rh13 2.046786 1_555
O22 Pb2 2.434338 1_555
O23 Rh1 2.021530 1_555
O23 Rh16 2.035575 1_655
O23 Rh0 2.043114 1_555
O23 Pb8 2.707491 1_655
O24 Rh19 2.021531 1_555
O24 Rh17 2.035584 1_555
O24 Rh21 2.043114 1_555
O24 Pb3 2.707496 1_555
O25 Rh27 2.021530 1_555
O25 Rh14 2.035580 1_655
O25 Rh3 2.043114 1_555
O25 Pb5 2.707491 1_655
O26 Rh1 2.021531 1_555
O26 Rh17 2.035584 1_555
O26 Rh24 2.043114 1_555
O26 Pb1 2.707496 1_555
O27 Rh16 2.039721 1_555
O27 Rh19 2.046781 1_555
O27 Rh12 2.046786 1_455
O27 Pb9 2.434338 1_555
O28 Rh19 2.045593 1_555
O28 Rh4 2.045593 1_555
O28 Rh7 2.050533 1_555
O29 Rh10 2.104849 1_555
O29 Rh21 2.104849 1_555
O29 Pb10 2.380252 1_555
O29 Pb3 2.425187 1_555
O30 Rh8 2.039721 1_555
O30 Rh25 2.046790 1_555
O30 Rh6 2.046790 1_555
O30 Pb11 2.434338 1_555
O31 Rh12 2.021530 1_555
O31 Rh22 2.035580 1_555
O31 Rh0 2.043114 1_555
O31 Pb7 2.707491 1_555
O32 Rh27 2.045584 1_556
O32 Rh18 2.045589 1_546
O32 Rh5 2.050532 1_656
O33 Rh0 2.104849 1_555
O33 Rh2 2.104849 1_555
O33 Pb10 2.380252 1_555
O33 Pb3 2.425187 1_555
O34 Rh19 2.021530 1_555
O34 Rh16 2.035575 1_555
O34 Rh15 2.043114 1_555
O34 Pb5 2.707491 1_555
O35 Rh24 2.104849 1_555
O35 Rh3 2.104849 1_555
O35 Pb11 2.380252 1_555
O35 Pb1 2.425187 1_555
O36 Rh10 2.104841 1_555
O36 Rh21 2.104841 1_555
O36 Pb6 2.380252 1_565
O36 Pb7 2.425187 1_565
O37 Rh24 2.104845 1_555
O37 Rh3 2.104845 1_555
O37 Pb2 2.380253 1_655
O37 Pb5 2.425187 1_655
O38 Rh27 2.021530 1_556
O38 Rh20 2.035580 1_556
O38 Rh2 2.043114 1_555
O38 Pb7 2.707491 1_555
O39 Rh15 2.104845 1_555
O39 Rh23 2.104845 1_555
O39 Pb0 2.380253 1_565
O39 Pb4 2.425187 1_565
O40 Rh6 2.021530 1_555
O40 Rh20 2.035575 1_555
O40 Rh3 2.043114 1_555
O40 Pb4 2.707491 1_555
O41 Rh2 2.104845 1_555
O41 Rh0 2.104845 1_555
O41 Pb6 2.380253 1_555
O41 Pb7 2.425187 1_555
O42 Rh4 2.021530 1_555
O42 Rh22 2.035575 1_555
O42 Rh24 2.043114 1_555
O42 Pb4 2.707491 1_555
O43 Rh15 2.104849 1_555
O43 Rh23 2.104849 1_555
O43 Pb11 2.380252 1_555
O43 Pb1 2.425187 1_555
O44 Rh20 2.039721 1_556
O44 Rh6 2.046781 1_556
O44 Rh13 2.046786 1_546
O44 Pb6 2.434338 1_555
O45 Rh22 2.039721 1_555
O45 Rh4 2.046781 1_555
O45 Rh9 2.046786 1_545
O45 Pb6 2.434338 1_555
O46 Rh9 2.021530 1_555
O46 Rh22 2.035580 1_565
O46 Rh15 2.043114 1_555
O46 Pb4 2.707491 1_565
O47 Rh15 2.104841 1_555
O47 Rh23 2.104841 1_555
O47 Pb2 2.380252 1_555
O47 Pb5 2.425187 1_555
O48 Rh17 2.039721 1_555
O48 Rh19 2.046790 1_555
O48 Rh4 2.046790 1_555
O48 Pb11 2.434338 1_555
O49 Rh10 2.104845 1_555
O49 Rh21 2.104845 1_555
O49 Pb9 2.380253 1_555
O49 Pb8 2.425187 1_555
O50 Rh13 2.021530 1_555
O50 Rh20 2.035580 1_565
O50 Rh23 2.043114 1_555
O50 Pb4 2.707491 1_565
O51 Rh25 2.021530 1_555
O51 Rh14 2.035575 1_555
O51 Rh23 2.043114 1_555
O51 Pb5 2.707491 1_555
O52 Rh12 2.021530 1_555
O52 Rh16 2.035580 1_655
O52 Rh24 2.043114 1_555
O52 Pb5 2.707491 1_655
O53 Rh12 2.045584 1_555
O53 Rh11 2.045589 1_545
O53 Rh7 2.050532 1_655
O54 Rh11 2.021531 1_555
O54 Rh17 2.035584 1_555
O54 Rh15 2.043114 1_555
O54 Pb1 2.707496 1_555
O55 Rh27 2.045584 1_455
O55 Rh25 2.045589 1_555
O55 Rh5 2.050532 1_555
O56 Rh22 2.039721 1_555
O56 Rh11 2.046781 1_545
O56 Rh12 2.046786 1_555
O56 Pb0 2.434338 1_555
O57 Rh9 2.045584 1_545
O57 Rh4 2.045589 1_555
O57 Rh7 2.050532 1_555
O58 Rh11 2.045593 1_555
O58 Rh1 2.045593 1_555
O58 Rh7 2.050533 1_665
O59 Rh25 2.045593 1_556
O59 Rh6 2.045593 1_556
O59 Rh5 2.050533 1_556
