# generated using pymatgen
data_Co21(SnB3)2
_symmetry_space_group_name_H-M   'P 1'
_cell_length_a   7.47683821
_cell_length_b   7.47683821
_cell_length_c   7.47683821
_cell_angle_alpha   60.00000000
_cell_angle_beta   60.00000000
_cell_angle_gamma   60.00000000
_symmetry_Int_Tables_number   1
_chemical_formula_structural   Co21(SnB3)2
_chemical_formula_sum   'Co21 Sn2 B6'
_cell_volume   295.55543600
_cell_formula_units_Z   1
loop_
 _symmetry_equiv_pos_site_id
 _symmetry_equiv_pos_as_xyz
  1  'x, y, z'
loop_
 _atom_site_type_symbol
 _atom_site_label
 _atom_site_symmetry_multiplicity
 _atom_site_fract_x
 _atom_site_fract_y
 _atom_site_fract_z
 _atom_site_occupancy
  Co  Co0  1  0.00000000  0.00000000  0.00000000  1
  Co  Co1  1  0.61465400  0.61465400  0.15603800  1
  Co  Co2  1  0.61465400  0.15603800  0.61465400  1
  Co  Co3  1  0.15603800  0.61465400  0.61465400  1
  Co  Co4  1  0.61465400  0.61465400  0.61465400  1
  Co  Co5  1  0.38534600  0.38534600  0.84396200  1
  Co  Co6  1  0.38534600  0.84396200  0.38534600  1
  Co  Co7  1  0.84396200  0.38534600  0.38534600  1
  Co  Co8  1  0.38534600  0.38534600  0.38534600  1
  Co  Co9  1  0.00000000  0.00000000  0.33483900  1
  Co  Co10  1  0.66516100  0.00000000  0.33483900  1
  Co  Co11  1  0.00000000  0.66516100  0.33483900  1
  Co  Co12  1  0.66516100  0.33483900  0.00000000  1
  Co  Co13  1  0.00000000  0.33483900  0.00000000  1
  Co  Co14  1  0.00000000  0.33483900  0.66516100  1
  Co  Co15  1  0.33483900  0.66516100  0.00000000  1
  Co  Co16  1  0.33483900  0.00000000  0.66516100  1
  Co  Co17  1  0.33483900  0.00000000  0.00000000  1
  Co  Co18  1  0.00000000  0.00000000  0.66516100  1
  Co  Co19  1  0.00000000  0.66516100  0.00000000  1
  Co  Co20  1  0.66516100  0.00000000  0.00000000  1
  Sn  Sn0  1  0.75000000  0.75000000  0.75000000  1
  Sn  Sn1  1  0.25000000  0.25000000  0.25000000  1
  B  B0  1  0.72403900  0.72403900  0.27596100  1
  B  B1  1  0.27596100  0.72403900  0.27596100  1
  B  B2  1  0.72403900  0.27596100  0.27596100  1
  B  B3  1  0.27596100  0.27596100  0.72403900  1
  B  B4  1  0.72403900  0.27596100  0.72403900  1
  B  B5  1  0.27596100  0.72403900  0.72403900  1
loop_
_geom_bond_atom_site_label_1
_geom_bond_atom_site_label_2
_geom_bond_distance
_geom_bond_site_symmetry_2
Co0 Co13 2.503537 1_555
Co0 Co20 2.503537 1_455
Co0 Co11 2.503537 1_545
Co0 Co14 2.503537 1_554
Co0 Co18 2.503537 1_554
Co0 Co19 2.503537 1_545
Co0 Co17 2.503537 1_555
Co0 Co12 2.503537 1_455
Co0 Co16 2.503537 1_554
Co0 Co15 2.503537 1_545
Co0 Co10 2.503537 1_455
Co0 Co9 2.503537 1_555
Co1 Sn0 2.478786 1_554
Co2 Sn0 2.478786 1_545
Co3 Sn0 2.478786 1_455
Co4 Sn0 2.478786 1_555
Co5 Sn1 2.478786 1_556
Co6 Sn1 2.478786 1_565
Co7 Sn1 2.478786 1_655
Co8 Sn1 2.478786 1_555
B0 Co4 2.068158 1_555
B0 Co7 2.068158 1_555
B0 Co6 2.068158 1_555
B0 Co1 2.068158 1_555
B0 Co20 2.109755 1_565
B0 Co11 2.109755 1_655
B0 Co19 2.109755 1_655
B0 Co10 2.109755 1_565
B1 Co6 2.068158 1_555
B1 Co3 2.068158 1_555
B1 Co1 2.068158 1_555
B1 Co8 2.068158 1_555
B1 Co17 2.109755 1_565
B1 Co15 2.109755 1_555
B1 Co9 2.109755 1_565
B1 Co11 2.109755 1_555
B2 Co7 2.068158 1_555
B2 Co2 2.068158 1_555
B2 Co1 2.068158 1_555
B2 Co8 2.068158 1_555
B2 Co12 2.109755 1_555
B2 Co10 2.109755 1_555
B2 Co9 2.109755 1_655
B2 Co13 2.109755 1_655
B3 Co5 2.068158 1_555
B3 Co2 2.068158 1_555
B3 Co3 2.068158 1_555
B3 Co8 2.068158 1_555
B3 Co13 2.109755 1_556
B3 Co16 2.109755 1_555
B3 Co14 2.109755 1_555
B3 Co17 2.109755 1_556
B4 Co4 2.068158 1_555
B4 Co7 2.068158 1_555
B4 Co5 2.068158 1_555
B4 Co2 2.068158 1_555
B4 Co12 2.109755 1_556
B4 Co14 2.109755 1_655
B4 Co18 2.109755 1_655
B4 Co20 2.109755 1_556
B5 Co4 2.068158 1_555
B5 Co5 2.068158 1_555
B5 Co6 2.068158 1_555
B5 Co3 2.068158 1_555
B5 Co15 2.109755 1_556
B5 Co18 2.109755 1_565
B5 Co19 2.109755 1_556
B5 Co16 2.109755 1_565
