# generated using pymatgen
data_LiCoH24C8(N2O3)4
_symmetry_space_group_name_H-M   'P 1'
_cell_length_a   9.06655975
_cell_length_b   9.06655975
_cell_length_c   7.18644900
_cell_angle_alpha   90.00000000
_cell_angle_beta   90.00000000
_cell_angle_gamma   119.99999820
_symmetry_Int_Tables_number   1
_chemical_formula_structural   LiCoH24C8(N2O3)4
_chemical_formula_sum   'Li1 Co1 H24 C8 N8 O12'
_cell_volume   511.59942028
_cell_formula_units_Z   1
loop_
 _symmetry_equiv_pos_site_id
 _symmetry_equiv_pos_as_xyz
  1  'x, y, z'
loop_
 _atom_site_type_symbol
 _atom_site_label
 _atom_site_symmetry_multiplicity
 _atom_site_fract_x
 _atom_site_fract_y
 _atom_site_fract_z
 _atom_site_occupancy
  Li  Li0  1  0.00000000  0.00000000  0.50000000  1
  Co  Co0  1  0.00000000  0.00000000  0.00000000  1
  H  H0  1  0.35574100  0.91053800  0.65886000  1
  H  H1  1  0.26722800  0.73277200  0.38231900  1
  H  H2  1  0.55479700  0.91053800  0.65886000  1
  H  H3  1  0.57714100  0.42285900  0.13748000  1
  H  H4  1  0.44520300  0.08946200  0.34114000  1
  H  H5  1  0.91053800  0.55479700  0.34114000  1
  H  H6  1  0.55479700  0.64425900  0.65886000  1
  H  H7  1  0.35574100  0.44520300  0.65886000  1
  H  H8  1  0.91053800  0.35574100  0.34114000  1
  H  H9  1  0.73277200  0.26722800  0.61768100  1
  H  H10  1  0.84571900  0.42285900  0.13748000  1
  H  H11  1  0.44520300  0.35574100  0.34114000  1
  H  H12  1  0.08946200  0.64425900  0.65886000  1
  H  H13  1  0.64425900  0.55479700  0.34114000  1
  H  H14  1  0.42285900  0.57714100  0.86252000  1
  H  H15  1  0.15428100  0.57714100  0.86252000  1
  H  H16  1  0.08946200  0.44520300  0.65886000  1
  H  H17  1  0.26722800  0.53445700  0.38231900  1
  H  H18  1  0.57714100  0.15428100  0.13748000  1
  H  H19  1  0.46554300  0.73277200  0.38231900  1
  H  H20  1  0.73277200  0.46554300  0.61768100  1
  H  H21  1  0.53445700  0.26722800  0.61768100  1
  H  H22  1  0.42285900  0.84571900  0.86252000  1
  H  H23  1  0.64425900  0.08946200  0.34114000  1
  C  C0  1  0.84701800  0.42350900  0.28956000  1
  C  C1  1  0.57649100  0.42350900  0.28956000  1
  C  C2  1  0.57649100  0.15298200  0.28956000  1
  C  C3  1  0.15298200  0.57649100  0.71044000  1
  C  C4  1  0.42350900  0.57649100  0.71044000  1
  C  C5  1  0.42350900  0.84701800  0.71044000  1
  C  C6  1  0.66666700  0.33333300  0.56836700  1
  C  C7  1  0.33333300  0.66666700  0.43163300  1
  N  N0  1  0.66666700  0.33333300  0.35930700  1
  N  N1  1  0.89345100  0.78690200  0.84923300  1
  N  N2  1  0.89345100  0.10654900  0.84923300  1
  N  N3  1  0.78690200  0.89345100  0.15076700  1
  N  N4  1  0.10654900  0.21309800  0.15076700  1
  N  N5  1  0.33333300  0.66666700  0.64069300  1
  N  N6  1  0.10654900  0.89345100  0.15076700  1
  N  N7  1  0.21309800  0.10654900  0.84923300  1
  O  O0  1  0.17592300  0.35184500  0.06785200  1
  O  O1  1  0.89425900  0.78851900  0.67427300  1
  O  O2  1  0.64815500  0.82407700  0.06785200  1
  O  O3  1  0.17592300  0.82407700  0.06785200  1
  O  O4  1  0.89425900  0.10574100  0.67427300  1
  O  O5  1  0.10574100  0.89425900  0.32572700  1
  O  O6  1  0.21148100  0.10574100  0.67427300  1
  O  O7  1  0.78851900  0.89425900  0.32572700  1
  O  O8  1  0.82407700  0.17592300  0.93214800  1
  O  O9  1  0.82407700  0.64815500  0.93214800  1
  O  O10  1  0.10574100  0.21148100  0.32572700  1
  O  O11  1  0.35184500  0.17592300  0.93214800  1
loop_
_geom_bond_atom_site_label_1
_geom_bond_atom_site_label_2
_geom_bond_distance
_geom_bond_site_symmetry_2
Li0 O10 2.079867 1_555
Li0 O6 2.079867 1_555
Li0 O7 2.079867 1_445
Li0 O1 2.079867 1_445
Li0 O5 2.079873 1_545
Li0 O4 2.079873 1_455
Co0 N6 1.993386 1_545
Co0 N2 1.993386 1_454
Co0 N7 1.993386 1_554
Co0 N1 1.993386 1_444
Co0 N3 1.993386 1_445
Co0 N4 1.993386 1_555
C0 H10 1.092963 1_555
C0 H8 1.095645 1_555
C0 H5 1.095645 1_555
C0 N0 1.502183 1_555
C1 H3 1.092963 1_555
C1 H11 1.095645 1_555
C1 H13 1.095645 1_555
C1 N0 1.502190 1_555
C2 H18 1.092963 1_555
C2 H23 1.095645 1_555
C2 H4 1.095645 1_555
C2 N0 1.502183 1_555
C3 H15 1.092963 1_555
C3 H12 1.095645 1_555
C3 H16 1.095645 1_555
C3 N5 1.502183 1_555
C4 H14 1.092963 1_555
C4 H6 1.095645 1_555
C4 H7 1.095645 1_555
C4 N5 1.502190 1_555
C5 H22 1.092963 1_555
C5 H0 1.095645 1_555
C5 H2 1.095645 1_555
C5 N5 1.502183 1_555
C6 H9 1.096922 1_555
C6 H20 1.096922 1_555
C6 H21 1.096922 1_555
C6 N0 1.502399 1_555
C7 H1 1.096922 1_555
C7 H19 1.096922 1_555
C7 H17 1.096922 1_555
C7 N5 1.502399 1_555
N1 O9 1.241732 1_555
N1 O1 1.257405 1_555
N2 O8 1.241739 1_555
N2 O4 1.257405 1_555
N3 O2 1.241732 1_555
N3 O7 1.257405 1_555
N4 O0 1.241732 1_555
N4 O10 1.257405 1_555
N6 O3 1.241739 1_555
N6 O5 1.257405 1_555
N7 O11 1.241732 1_555
N7 O6 1.257405 1_555
