# generated using pymatgen
data_La2InCu2
_symmetry_space_group_name_H-M   'P 1'
_cell_length_a   7.84583316
_cell_length_b   7.84583316
_cell_length_c   3.93825795
_cell_angle_alpha   90.00000000
_cell_angle_beta   90.00000000
_cell_angle_gamma   90.00000000
_symmetry_Int_Tables_number   1
_chemical_formula_structural   La2InCu2
_chemical_formula_sum   'La4 In2 Cu4'
_cell_volume   242.42773048
_cell_formula_units_Z   2
loop_
 _symmetry_equiv_pos_site_id
 _symmetry_equiv_pos_as_xyz
  1  'x, y, z'
loop_
 _atom_site_type_symbol
 _atom_site_label
 _atom_site_symmetry_multiplicity
 _atom_site_fract_x
 _atom_site_fract_y
 _atom_site_fract_z
 _atom_site_occupancy
  La  La0  1  0.67977715  0.17977715  0.50000000  1
  La  La1  1  0.17977715  0.32022285  0.50000000  1
  La  La2  1  0.82022285  0.67977715  0.50000000  1
  La  La3  1  0.32022285  0.82022285  0.50000000  1
  In  In0  1  0.00000000  -0.00000000  0.00000000  1
  In  In1  1  0.50000000  0.50000000  0.00000000  1
  Cu  Cu0  1  0.38536597  0.11463403  -0.00000000  1
  Cu  Cu1  1  0.88536597  0.38536597  0.00000000  1
  Cu  Cu2  1  0.11463403  0.61463403  -0.00000000  1
  Cu  Cu3  1  0.61463403  0.88536597  0.00000000  1
loop_
_geom_bond_atom_site_label_1
_geom_bond_atom_site_label_2
_geom_bond_distance
_geom_bond_site_symmetry_2
In0 La2 3.489873 1_444
In0 La2 3.489873 1_445
In0 La0 3.489873 1_455
In0 La0 3.489873 1_454
In0 La1 3.489873 1_554
In0 La3 3.489873 1_544
In0 La3 3.489873 1_545
In0 La1 3.489873 1_555
In1 La1 3.489873 1_554
In1 La0 3.489873 1_554
In1 La0 3.489873 1_555
In1 La1 3.489873 1_555
In1 La3 3.489873 1_554
In1 La3 3.489873 1_555
In1 La2 3.489873 1_554
In1 La2 3.489873 1_555
Cu0 Cu3 2.543886 1_545
Cu0 La1 3.013488 1_554
Cu0 La1 3.013488 1_555
Cu0 La3 3.078041 1_544
Cu0 La3 3.078041 1_545
Cu0 La0 3.078041 1_555
Cu0 La0 3.078041 1_554
Cu0 In0 3.154453 1_555
Cu0 In1 3.154453 1_555
Cu1 Cu2 2.543886 1_655
Cu1 La0 3.013488 1_554
Cu1 La0 3.013488 1_555
Cu1 La2 3.078041 1_555
Cu1 La2 3.078041 1_554
Cu1 La1 3.078041 1_655
Cu1 La1 3.078041 1_654
Cu1 In0 3.154453 1_655
Cu1 In1 3.154453 1_555
Cu2 La3 3.013488 1_554
Cu2 La3 3.013488 1_555
Cu2 La2 3.078041 1_455
Cu2 La2 3.078041 1_454
Cu2 La1 3.078041 1_554
Cu2 La1 3.078041 1_555
Cu2 In0 3.154453 1_565
Cu2 In1 3.154453 1_555
Cu3 La2 3.013488 1_555
Cu3 La2 3.013488 1_554
Cu3 La0 3.078041 1_565
Cu3 La0 3.078041 1_564
Cu3 La3 3.078041 1_554
Cu3 La3 3.078041 1_555
Cu3 In0 3.154453 1_665
Cu3 In1 3.154453 1_555
