# generated using pymatgen
data_NaYCO3F2
_symmetry_space_group_name_H-M   'P 1'
_cell_length_a   6.37191400
_cell_length_b   7.08344300
_cell_length_c   9.30130100
_cell_angle_alpha   90.00000000
_cell_angle_beta   90.00000000
_cell_angle_gamma   90.00000000
_symmetry_Int_Tables_number   1
_chemical_formula_structural   NaYCO3F2
_chemical_formula_sum   'Na4 Y4 C4 O12 F8'
_cell_volume   419.81505422
_cell_formula_units_Z   4
loop_
 _symmetry_equiv_pos_site_id
 _symmetry_equiv_pos_as_xyz
  1  'x, y, z'
loop_
 _atom_site_type_symbol
 _atom_site_label
 _atom_site_symmetry_multiplicity
 _atom_site_fract_x
 _atom_site_fract_y
 _atom_site_fract_z
 _atom_site_occupancy
  Na  Na0  1  0.17129400  0.25000000  0.21780400  1
  Na  Na1  1  0.67129400  0.25000000  0.28219600  1
  Na  Na2  1  0.82870600  0.75000000  0.78219600  1
  Na  Na3  1  0.32870600  0.75000000  0.71780400  1
  Y  Y0  1  0.51253500  0.25000000  0.92222700  1
  Y  Y1  1  0.98746500  0.75000000  0.42222700  1
  Y  Y2  1  0.48746500  0.75000000  0.07777300  1
  Y  Y3  1  0.01253500  0.25000000  0.57777300  1
  C  C0  1  0.54007800  0.75000000  0.44026900  1
  C  C1  1  0.45992200  0.25000000  0.55973100  1
  C  C2  1  0.95992200  0.25000000  0.94026900  1
  C  C3  1  0.04007800  0.75000000  0.05973100  1
  O  O0  1  0.84110900  0.75000000  0.04387200  1
  O  O1  1  0.83579200  0.25000000  0.05075800  1
  O  O2  1  0.13060800  0.75000000  0.18640100  1
  O  O3  1  0.86939200  0.25000000  0.81359900  1
  O  O4  1  0.33579200  0.25000000  0.44924200  1
  O  O5  1  0.15889100  0.25000000  0.95612800  1
  O  O6  1  0.66420800  0.75000000  0.55075800  1
  O  O7  1  0.65889100  0.25000000  0.54387200  1
  O  O8  1  0.36939200  0.25000000  0.68640100  1
  O  O9  1  0.34110900  0.75000000  0.45612800  1
  O  O10  1  0.63060800  0.75000000  0.31359900  1
  O  O11  1  0.16420800  0.75000000  0.94924200  1
  F  F0  1  0.04205300  0.94036900  0.63004600  1
  F  F1  1  0.54205300  0.94036900  0.86995400  1
  F  F2  1  0.45794700  0.05963100  0.13004600  1
  F  F3  1  0.95794700  0.05963100  0.36995400  1
  F  F4  1  0.04205300  0.55963100  0.63004600  1
  F  F5  1  0.95794700  0.44036900  0.36995400  1
  F  F6  1  0.45794700  0.44036900  0.13004600  1
  F  F7  1  0.54205300  0.55963100  0.86995400  1
loop_
_geom_bond_atom_site_label_1
_geom_bond_atom_site_label_2
_geom_bond_distance
_geom_bond_site_symmetry_2
Na0 O4 2.394298 1_555
Na0 O5 2.435210 1_554
Na0 O1 2.642777 1_455
Na1 O1 2.394298 1_555
Na1 O7 2.435210 1_555
Na1 O4 2.642777 1_555
Na2 O6 2.394298 1_555
Na2 O0 2.435210 1_556
Na2 O11 2.642777 1_655
Na3 O11 2.394298 1_555
Na3 O9 2.435210 1_555
Na3 O6 2.642777 1_555
C0 O9 1.276366 1_555
C0 O6 1.296821 1_555
C0 O10 1.311831 1_555
C1 O7 1.276366 1_555
C1 O4 1.296821 1_555
C1 O8 1.311831 1_555
C2 O5 1.276366 1_655
C2 O1 1.296821 1_556
C2 O3 1.311831 1_555
C3 O0 1.276366 1_455
C3 O11 1.296821 1_554
C3 O2 1.311831 1_555
O0 Y2 2.275344 1_555
O1 Y0 2.381569 1_554
O2 Y1 2.375565 1_455
O2 Y2 2.488236 1_555
O3 Y3 2.375565 1_655
O3 Y0 2.488236 1_555
O4 Y3 2.381569 1_555
O5 Y0 2.275344 1_555
O6 Y1 2.381569 1_555
O7 Y3 2.275344 1_655
O8 Y0 2.375565 1_555
O8 Y3 2.488236 1_555
O9 Y1 2.275344 1_455
O10 Y2 2.375565 1_555
O10 Y1 2.488236 1_555
O11 Y2 2.381569 1_556
F0 Y3 2.254359 1_565
F0 Na2 2.381005 1_455
F0 Y1 2.382392 1_455
F0 Na3 2.412645 1_555
F1 Y0 2.254359 1_565
F1 Na3 2.381005 1_555
F1 Y2 2.382392 1_556
F1 Na2 2.412645 1_555
F2 Y2 2.254359 1_545
F2 Na1 2.381005 1_555
F2 Y0 2.382392 1_554
F2 Na0 2.412645 1_555
F3 Y1 2.254359 1_545
F3 Na0 2.381005 1_655
F3 Y3 2.382392 1_655
F3 Na1 2.412645 1_555
F4 Y3 2.254359 1_555
F4 Na2 2.381005 1_455
F4 Y1 2.382392 1_455
F4 Na3 2.412645 1_555
F5 Y1 2.254359 1_555
F5 Na0 2.381005 1_655
F5 Y3 2.382392 1_655
F5 Na1 2.412645 1_555
F6 Y2 2.254359 1_555
F6 Na1 2.381005 1_555
F6 Y0 2.382392 1_554
F6 Na0 2.412645 1_555
F7 Y0 2.254359 1_555
F7 Na3 2.381005 1_555
F7 Y2 2.382392 1_556
F7 Na2 2.412645 1_555
