# generated using pymatgen
data_Ce8Ni18P11
_symmetry_space_group_name_H-M   'P 1'
_cell_length_a   18.15954363
_cell_length_b   18.15954363
_cell_length_c   3.87529900
_cell_angle_alpha   90.00000000
_cell_angle_beta   90.00000000
_cell_angle_gamma   119.99999866
_symmetry_Int_Tables_number   1
_chemical_formula_structural   Ce8Ni18P11
_chemical_formula_sum   'Ce16 Ni36 P22'
_cell_volume   1106.74027359
_cell_formula_units_Z   2
loop_
 _symmetry_equiv_pos_site_id
 _symmetry_equiv_pos_as_xyz
  1  'x, y, z'
loop_
 _atom_site_type_symbol
 _atom_site_label
 _atom_site_symmetry_multiplicity
 _atom_site_fract_x
 _atom_site_fract_y
 _atom_site_fract_z
 _atom_site_occupancy
  Ce  Ce0  1  0.38071800  0.19035900  0.00000000  1
  Ce  Ce1  1  0.11090400  0.22180900  0.50000000  1
  Ce  Ce2  1  0.55084200  0.66569800  0.50000000  1
  Ce  Ce3  1  0.33430200  0.44915800  0.50000000  1
  Ce  Ce4  1  0.77819100  0.88909600  0.50000000  1
  Ce  Ce5  1  0.33430200  0.88514400  0.50000000  1
  Ce  Ce6  1  0.11485600  0.66569800  0.50000000  1
  Ce  Ce7  1  0.80964100  0.61928200  0.00000000  1
  Ce  Ce8  1  0.59344300  0.18688600  0.00000000  1
  Ce  Ce9  1  0.11090400  0.88909600  0.50000000  1
  Ce  Ce10  1  0.80964100  0.19035900  0.00000000  1
  Ce  Ce11  1  0.81311400  0.40655700  0.00000000  1
  Ce  Ce12  1  0.11485600  0.44915800  0.50000000  1
  Ce  Ce13  1  0.59344300  0.40655700  0.00000000  1
  Ce  Ce14  1  0.33333300  0.66666700  0.50000000  1
  Ce  Ce15  1  0.55084200  0.88514400  0.50000000  1
  Ni  Ni0  1  0.62357800  0.81178900  0.00000000  1
  Ni  Ni1  1  0.73421800  0.69748400  0.50000000  1
  Ni  Ni2  1  0.41028500  0.37401400  0.00000000  1
  Ni  Ni3  1  0.96326500  0.26578200  0.50000000  1
  Ni  Ni4  1  0.04455200  0.95544800  0.00000000  1
  Ni  Ni5  1  0.73928600  0.26071400  0.50000000  1
  Ni  Ni6  1  0.73928600  0.47857100  0.50000000  1
  Ni  Ni7  1  0.96372900  0.37401400  0.00000000  1
  Ni  Ni8  1  0.51791500  0.48208500  0.50000000  1
  Ni  Ni9  1  0.96497900  0.79764500  0.00000000  1
  Ni  Ni10  1  0.51791500  0.03582900  0.50000000  1
  Ni  Ni11  1  0.94908600  0.05091400  0.50000000  1
  Ni  Ni12  1  0.30251600  0.26578200  0.50000000  1
  Ni  Ni13  1  0.18821100  0.37642200  0.00000000  1
  Ni  Ni14  1  0.18752400  0.59376200  0.00000000  1
  Ni  Ni15  1  0.83266600  0.03502000  0.00000000  1
  Ni  Ni16  1  0.94908600  0.89817200  0.50000000  1
  Ni  Ni17  1  0.73421800  0.03673500  0.50000000  1
  Ni  Ni18  1  0.10182800  0.05091400  0.50000000  1
  Ni  Ni19  1  0.20235500  0.03502000  0.00000000  1
  Ni  Ni20  1  0.62598600  0.03627100  0.00000000  1
  Ni  Ni21  1  0.96326500  0.69748400  0.50000000  1
  Ni  Ni22  1  0.18821100  0.81178900  0.00000000  1
  Ni  Ni23  1  0.52142900  0.26071400  0.50000000  1
  Ni  Ni24  1  0.91089600  0.95544800  0.00000000  1
  Ni  Ni25  1  0.40623800  0.59376200  0.00000000  1
  Ni  Ni26  1  0.20235500  0.16733400  0.00000000  1
  Ni  Ni27  1  0.04455200  0.08910400  0.00000000  1
  Ni  Ni28  1  0.96417100  0.48208500  0.50000000  1
  Ni  Ni29  1  0.96497900  0.16733400  0.00000000  1
  Ni  Ni30  1  0.40623800  0.81247600  0.00000000  1
  Ni  Ni31  1  0.83266600  0.79764500  0.00000000  1
  Ni  Ni32  1  0.96372900  0.58971500  0.00000000  1
  Ni  Ni33  1  0.30251600  0.03673500  0.50000000  1
  Ni  Ni34  1  0.41028500  0.03627100  0.00000000  1
  Ni  Ni35  1  0.62598600  0.58971500  0.00000000  1
  P  P0  1  0.26263900  0.30769900  0.00000000  1
  P  P1  1  0.45029500  0.33475600  0.50000000  1
  P  P2  1  0.88010500  0.11989500  0.50000000  1
  P  P3  1  0.23979000  0.11989500  0.50000000  1
  P  P4  1  0.47852000  0.95703900  0.00000000  1
  P  P5  1  0.69230100  0.73736100  0.00000000  1
  P  P6  1  0.47813700  0.73906800  0.00000000  1
  P  P7  1  0.04505900  0.30769900  0.00000000  1
  P  P8  1  0.04296100  0.52148000  0.00000000  1
  P  P9  1  0.26093200  0.52186300  0.00000000  1
  P  P10  1  0.66666700  0.33333300  0.50000000  1
  P  P11  1  0.26093200  0.73906800  0.00000000  1
  P  P12  1  0.26263900  0.95494100  0.00000000  1
  P  P13  1  0.45029500  0.11553900  0.50000000  1
  P  P14  1  0.88446100  0.54970500  0.50000000  1
  P  P15  1  0.66524400  0.11553900  0.50000000  1
  P  P16  1  0.04505900  0.73736100  0.00000000  1
  P  P17  1  0.66524400  0.54970500  0.50000000  1
  P  P18  1  0.88446100  0.33475600  0.50000000  1
  P  P19  1  0.47852000  0.52148000  0.00000000  1
  P  P20  1  0.88010500  0.76021000  0.50000000  1
  P  P21  1  0.69230100  0.95494100  0.00000000  1
loop_
_geom_bond_atom_site_label_1
_geom_bond_atom_site_label_2
_geom_bond_distance
_geom_bond_site_symmetry_2
Ce0 Ni23 2.941335 1_554
Ce0 Ni23 2.941335 1_555
Ce0 P3 2.943904 1_555
Ce0 P3 2.943904 1_554
Ce0 P13 2.985571 1_555
Ce0 P13 2.985571 1_554
Ce0 P1 2.985572 1_555
Ce0 P1 2.985572 1_554
Ce0 Ni26 3.051490 1_555
Ce0 Ni19 3.051497 1_555
Ce0 Ni33 3.097114 1_554
Ce0 Ni33 3.097114 1_555
Ce0 Ni12 3.097126 1_555
Ce0 Ni12 3.097126 1_554
Ce0 Ni34 3.101682 1_555
Ce0 Ni2 3.101682 1_555
Ce1 Ni27 2.847817 1_556
Ce1 Ni27 2.847817 1_555
Ce1 Ni29 3.022218 1_456
Ce1 Ni29 3.022218 1_455
Ce1 Ni26 3.022230 1_556
Ce1 Ni26 3.022230 1_555
Ce1 Ni11 3.024329 1_455
Ce1 Ni18 3.024337 1_555
Ce1 P7 3.079276 1_556
Ce1 P7 3.079276 1_555
Ce1 P0 3.079276 1_555
Ce1 P0 3.079276 1_556
Ce1 Ni13 3.109160 1_556
Ce1 Ni13 3.109160 1_555
Ce1 Ni3 3.156995 1_455
Ce1 Ni12 3.156995 1_555
Ce2 P5 2.950244 1_555
Ce2 P5 2.950244 1_556
Ce2 P19 2.983054 1_555
Ce2 P19 2.983054 1_556
Ce2 Ni25 2.987677 1_556
Ce2 Ni25 2.987677 1_555
Ce2 P6 3.005321 1_555
Ce2 P6 3.005321 1_556
Ce2 Ni0 3.005513 1_555
Ce2 Ni0 3.005513 1_556
Ce2 Ni35 3.066485 1_555
Ce2 Ni35 3.066485 1_556
Ce2 Ni8 3.079213 1_555
Ce2 Ni1 3.082222 1_555
Ce3 P0 2.950244 1_555
Ce3 P0 2.950244 1_556
Ce3 P19 2.983054 1_556
Ce3 P19 2.983054 1_555
Ce3 Ni25 2.987677 1_556
Ce3 Ni25 2.987677 1_555
Ce3 P9 3.005321 1_555
Ce3 P9 3.005321 1_556
Ce3 Ni13 3.005513 1_556
Ce3 Ni13 3.005513 1_555
Ce3 Ni2 3.066485 1_555
Ce3 Ni2 3.066485 1_556
Ce3 Ni8 3.079213 1_555
Ce3 Ni12 3.082222 1_555
Ce4 Ni24 2.847817 1_556
Ce4 Ni24 2.847817 1_555
Ce4 Ni15 3.022205 1_566
Ce4 Ni15 3.022205 1_565
Ce4 Ni31 3.022230 1_556
Ce4 Ni31 3.022230 1_555
Ce4 Ni11 3.024329 1_565
Ce4 Ni16 3.024337 1_555
Ce4 P21 3.079276 1_555
Ce4 P21 3.079276 1_556
Ce4 P5 3.079276 1_555
Ce4 P5 3.079276 1_556
Ce4 Ni0 3.109160 1_555
Ce4 Ni0 3.109160 1_556
Ce4 Ni17 3.156995 1_565
Ce4 Ni1 3.156995 1_555
Ce5 P12 2.950256 1_555
Ce5 P12 2.950256 1_556
Ce5 P4 2.983054 1_555
Ce5 P4 2.983054 1_556
Ce5 Ni30 2.987676 1_556
Ce5 Ni30 2.987676 1_555
Ce5 P11 3.005334 1_555
Ce5 P11 3.005334 1_556
Ce5 Ni22 3.005513 1_556
Ce5 Ni22 3.005513 1_555
Ce5 Ni34 3.066485 1_565
Ce5 Ni34 3.066485 1_566
Ce5 Ni10 3.079206 1_565
Ce5 Ni33 3.082240 1_565
Ce6 P16 2.950256 1_555
Ce6 P16 2.950256 1_556
Ce6 P8 2.983054 1_555
Ce6 P8 2.983054 1_556
Ce6 Ni14 2.987676 1_555
Ce6 Ni14 2.987676 1_556
Ce6 P11 3.005334 1_556
Ce6 P11 3.005334 1_555
Ce6 Ni22 3.005513 1_556
Ce6 Ni22 3.005513 1_555
Ce6 Ni32 3.066485 1_456
Ce6 Ni32 3.066485 1_455
Ce6 Ni28 3.079206 1_455
Ce6 Ni21 3.082240 1_455
Ce7 Ni6 2.941335 1_554
Ce7 Ni6 2.941335 1_555
Ce7 P20 2.943904 1_555
Ce7 P20 2.943904 1_554
Ce7 P14 2.985571 1_555
Ce7 P14 2.985571 1_554
Ce7 P17 2.985572 1_554
Ce7 P17 2.985572 1_555
Ce7 Ni31 3.051490 1_555
Ce7 Ni9 3.051490 1_555
Ce7 Ni21 3.097114 1_554
Ce7 Ni21 3.097114 1_555
Ce7 Ni1 3.097126 1_554
Ce7 Ni1 3.097126 1_555
Ce7 Ni32 3.101682 1_555
Ce7 Ni35 3.101682 1_555
Ce8 P15 2.970280 1_554
Ce8 P15 2.970280 1_555
Ce8 P13 2.970280 1_555
Ce8 P13 2.970280 1_554
Ce8 Ni23 3.002561 1_554
Ce8 Ni23 3.002561 1_555
Ce8 Ni5 3.002573 1_555
Ce8 Ni5 3.002573 1_554
Ce8 P10 3.009790 1_554
Ce8 P10 3.009790 1_555
Ce8 Ni10 3.065623 1_554
Ce8 Ni10 3.065623 1_555
Ce8 Ni20 3.073493 1_555
Ce8 Ni34 3.073494 1_555
Ce9 Ni4 2.847806 1_555
Ce9 Ni4 2.847806 1_556
Ce9 Ni19 3.022209 1_565
Ce9 Ni19 3.022209 1_566
Ce9 Ni9 3.022220 1_455
Ce9 Ni9 3.022220 1_456
Ce9 Ni16 3.024319 1_455
Ce9 Ni18 3.024319 1_565
Ce9 P16 3.079276 1_555
Ce9 P16 3.079276 1_556
Ce9 P12 3.079276 1_555
Ce9 P12 3.079276 1_556
Ce9 Ni22 3.109172 1_556
Ce9 Ni22 3.109172 1_555
Ce9 Ni21 3.156995 1_455
Ce9 Ni33 3.156995 1_565
Ce10 Ni5 2.941323 1_555
Ce10 Ni5 2.941323 1_554
Ce10 P2 2.943904 1_555
Ce10 P2 2.943904 1_554
Ce10 P15 2.985572 1_555
Ce10 P15 2.985572 1_554
Ce10 P18 2.985572 1_554
Ce10 P18 2.985572 1_555
Ce10 Ni29 3.051490 1_555
Ce10 Ni15 3.051508 1_555
Ce10 Ni17 3.097114 1_554
Ce10 Ni3 3.097114 1_555
Ce10 Ni17 3.097114 1_555
Ce10 Ni3 3.097114 1_554
Ce10 Ni7 3.101682 1_555
Ce10 Ni20 3.101682 1_555
Ce11 P18 2.970280 1_554
Ce11 P18 2.970280 1_555
Ce11 P14 2.970280 1_555
Ce11 P14 2.970280 1_554
Ce11 Ni6 3.002561 1_554
Ce11 Ni6 3.002561 1_555
Ce11 Ni5 3.002573 1_555
Ce11 Ni5 3.002573 1_554
Ce11 P10 3.009790 1_554
Ce11 P10 3.009790 1_555
Ce11 Ni28 3.065623 1_554
Ce11 Ni28 3.065623 1_555
Ce11 Ni7 3.073493 1_555
Ce11 Ni32 3.073494 1_555
Ce12 P7 2.950244 1_556
Ce12 P7 2.950244 1_555
Ce12 P8 2.983042 1_555
Ce12 P8 2.983042 1_556
Ce12 Ni14 2.987677 1_556
Ce12 Ni14 2.987677 1_555
Ce12 P9 3.005334 1_556
Ce12 P9 3.005334 1_555
Ce12 Ni13 3.005513 1_556
Ce12 Ni13 3.005513 1_555
Ce12 Ni7 3.066485 1_456
Ce12 Ni7 3.066485 1_455
Ce12 Ni28 3.079195 1_455
Ce12 Ni3 3.082228 1_455
Ce13 P1 2.970280 1_554
Ce13 P1 2.970280 1_555
Ce13 P17 2.970280 1_554
Ce13 P17 2.970280 1_555
Ce13 Ni23 3.002573 1_555
Ce13 Ni23 3.002573 1_554
Ce13 Ni6 3.002573 1_554
Ce13 Ni6 3.002573 1_555
Ce13 P10 3.009802 1_555
Ce13 P10 3.009802 1_554
Ce13 Ni8 3.065610 1_555
Ce13 Ni8 3.065610 1_554
Ce13 Ni2 3.073493 1_555
Ce13 Ni35 3.073493 1_555
Ce14 P11 2.990040 1_556
Ce14 P11 2.990040 1_555
Ce14 P6 2.990064 1_555
Ce14 P6 2.990064 1_556
Ce14 P9 2.990064 1_555
Ce14 P9 2.990064 1_556
Ce14 Ni30 3.002119 1_555
Ce14 Ni30 3.002119 1_556
Ce14 Ni14 3.002119 1_556
Ce14 Ni14 3.002119 1_555
Ce14 Ni25 3.002131 1_556
Ce14 Ni25 3.002131 1_555
Ce15 P21 2.950244 1_556
Ce15 P21 2.950244 1_555
Ce15 P4 2.983042 1_555
Ce15 P4 2.983042 1_556
Ce15 Ni30 2.987677 1_555
Ce15 Ni30 2.987677 1_556
Ce15 P6 3.005334 1_556
Ce15 P6 3.005334 1_555
Ce15 Ni0 3.005513 1_556
Ce15 Ni0 3.005513 1_555
Ce15 Ni20 3.066485 1_565
Ce15 Ni20 3.066485 1_566
Ce15 Ni10 3.079195 1_565
Ce15 Ni17 3.082228 1_565
Ni0 P5 2.251878 1_555
Ni0 P21 2.251894 1_555
Ni0 P6 2.287296 1_555
Ni1 P20 2.301801 1_555
Ni1 P17 2.325779 1_555
Ni1 P5 2.325835 1_555
Ni1 P5 2.325835 1_556
Ni2 P1 2.304038 1_554
Ni2 P1 2.304038 1_555
Ni2 P19 2.321291 1_555
Ni2 P0 2.325973 1_555
Ni3 P2 2.301799 1_555
Ni3 P18 2.325763 1_555
Ni3 P7 2.325835 1_655
Ni3 P7 2.325835 1_656
Ni4 Ni9 2.481739 1_455
Ni5 P18 2.283266 1_555
Ni5 P15 2.283266 1_555
Ni5 P10 2.284104 1_555
Ni6 P14 2.283266 1_555
Ni6 P17 2.283281 1_555
Ni6 P10 2.284104 1_555
Ni7 P18 2.304038 1_554
Ni7 P18 2.304038 1_555
Ni7 P8 2.321292 1_655
Ni7 P7 2.325957 1_655
Ni8 P19 2.299969 1_556
Ni8 P19 2.299969 1_555
Ni8 P17 2.319587 1_555
Ni8 P1 2.319587 1_555
Ni9 P16 2.214758 1_655
Ni9 P20 2.354650 1_555
Ni9 P20 2.354650 1_554
Ni10 P4 2.299969 1_545
Ni10 P4 2.299969 1_546
Ni10 P15 2.319588 1_555
Ni10 P13 2.319603 1_555
Ni11 P2 2.169677 1_555
Ni11 Ni24 2.457355 1_545
Ni11 Ni24 2.457355 1_546
Ni11 Ni27 2.457355 1_656
Ni11 Ni27 2.457355 1_655
Ni12 P3 2.301801 1_555
Ni12 P1 2.325779 1_555
Ni12 P0 2.325835 1_555
Ni12 P0 2.325835 1_556
Ni13 P0 2.251878 1_555
Ni13 P7 2.251894 1_555
Ni13 P9 2.287296 1_555
Ni14 P8 2.273488 1_555
Ni14 P11 2.285214 1_555
Ni14 P9 2.285230 1_555
Ni15 P21 2.214771 1_545
Ni15 P2 2.354659 1_555
Ni15 P2 2.354659 1_554
Ni15 Ni24 2.481723 1_545
Ni16 P20 2.169677 1_555
Ni16 Ni24 2.457355 1_556
Ni16 Ni24 2.457355 1_555
Ni16 Ni4 2.457355 1_656
Ni16 Ni4 2.457355 1_655
Ni17 P2 2.301799 1_555
Ni17 P15 2.325763 1_555
Ni17 P21 2.325835 1_546
Ni17 P21 2.325835 1_545
Ni18 P3 2.169677 1_555
Ni18 Ni27 2.457355 1_556
Ni18 Ni27 2.457355 1_555
Ni18 Ni4 2.457355 1_546
Ni18 Ni4 2.457355 1_545
Ni19 P12 2.214741 1_545
Ni19 P3 2.354660 1_554
Ni19 P3 2.354660 1_555
Ni19 Ni4 2.481739 1_545
Ni20 P15 2.304038 1_554
Ni20 P15 2.304038 1_555
Ni20 P4 2.321292 1_545
Ni20 P21 2.325957 1_545
Ni21 P20 2.301784 1_555
Ni21 P14 2.325778 1_555
Ni21 P16 2.325835 1_655
Ni21 P16 2.325835 1_656
Ni22 P12 2.251894 1_555
Ni22 P16 2.251894 1_555
Ni22 P11 2.287312 1_555
Ni23 P13 2.283266 1_555
Ni23 P1 2.283281 1_555
Ni23 P10 2.284104 1_555
Ni24 Ni4 2.427132 1_655
Ni24 Ni27 2.427132 1_665
Ni24 Ni31 2.481739 1_555
Ni25 P19 2.273504 1_555
Ni25 P6 2.285214 1_555
Ni25 P9 2.285214 1_555
Ni26 P0 2.214774 1_555
Ni26 P3 2.354650 1_554
Ni26 P3 2.354650 1_555
Ni26 Ni27 2.481739 1_555
Ni27 Ni4 2.427132 1_545
Ni27 Ni29 2.481739 1_455
Ni28 P8 2.299969 1_656
Ni28 P8 2.299969 1_655
Ni28 P18 2.319588 1_555
Ni28 P14 2.319603 1_555
Ni29 P7 2.214773 1_655
Ni29 P2 2.354650 1_555
Ni29 P2 2.354650 1_554
Ni30 P4 2.273488 1_555
Ni30 P11 2.285214 1_555
Ni30 P6 2.285230 1_555
Ni31 P5 2.214774 1_555
Ni31 P20 2.354650 1_555
Ni31 P20 2.354650 1_554
Ni32 P14 2.304038 1_555
Ni32 P14 2.304038 1_554
Ni32 P8 2.321307 1_655
Ni32 P16 2.325972 1_655
Ni33 P3 2.301784 1_555
Ni33 P13 2.325778 1_555
Ni33 P12 2.325835 1_545
Ni33 P12 2.325835 1_546
Ni34 P13 2.304038 1_555
Ni34 P13 2.304038 1_554
Ni34 P4 2.321307 1_545
Ni34 P12 2.325972 1_545
Ni35 P17 2.304038 1_554
Ni35 P17 2.304038 1_555
Ni35 P19 2.321291 1_555
Ni35 P5 2.325973 1_555
