# generated using pymatgen
data_Cs3GaSe3
_symmetry_space_group_name_H-M   'P 1'
_cell_length_a   13.86437516
_cell_length_b   8.62176290
_cell_length_c   11.28247726
_cell_angle_alpha   53.47605193
_cell_angle_beta   90.00000000
_cell_angle_gamma   90.00000000
_symmetry_Int_Tables_number   1
_chemical_formula_structural   Cs3GaSe3
_chemical_formula_sum   'Cs12 Ga4 Se12'
_cell_volume   1083.79011980
_cell_formula_units_Z   4
loop_
 _symmetry_equiv_pos_site_id
 _symmetry_equiv_pos_as_xyz
  1  'x, y, z'
loop_
 _atom_site_type_symbol
 _atom_site_label
 _atom_site_symmetry_multiplicity
 _atom_site_fract_x
 _atom_site_fract_y
 _atom_site_fract_z
 _atom_site_occupancy
  Cs  Cs0  1  0.92259169  0.35462451  0.38613839  1
  Cs  Cs1  1  0.42259169  0.64537549  0.11386161  1
  Cs  Cs2  1  0.07740831  0.64537549  0.61386161  1
  Cs  Cs3  1  0.57740831  0.35462451  0.88613839  1
  Cs  Cs4  1  0.19311676  0.13034217  0.58604187  1
  Cs  Cs5  1  0.69311676  0.86965783  0.91395813  1
  Cs  Cs6  1  0.80688324  0.86965783  0.41395813  1
  Cs  Cs7  1  0.30688324  0.13034217  0.08604187  1
  Cs  Cs8  1  0.62866256  0.37843492  0.48561421  1
  Cs  Cs9  1  0.12866256  0.62156508  0.01438579  1
  Cs  Cs10  1  0.37133744  0.62156508  0.51438579  1
  Cs  Cs11  1  0.87133744  0.37843492  0.98561421  1
  Ga  Ga0  1  0.94292235  0.06784587  0.84047696  1
  Ga  Ga1  1  0.44292235  0.93215413  0.65952304  1
  Ga  Ga2  1  0.05707765  0.93215413  0.15952304  1
  Ga  Ga3  1  0.55707765  0.06784587  0.34047696  1
  Se  Se0  1  0.39580659  0.13574314  0.39265995  1
  Se  Se1  1  0.89580659  0.86425686  0.10734005  1
  Se  Se2  1  0.60419341  0.86425686  0.60734005  1
  Se  Se3  1  0.10419341  0.13574314  0.89265995  1
  Se  Se4  1  0.66032024  0.34549851  0.19563236  1
  Se  Se5  1  0.16032024  0.65450149  0.30436764  1
  Se  Se6  1  0.33967976  0.65450149  0.80436764  1
  Se  Se7  1  0.83967976  0.34549851  0.69563236  1
  Se  Se8  1  0.55429157  0.88909239  0.24064399  1
  Se  Se9  1  0.05429157  0.11090761  0.25935601  1
  Se  Se10  1  0.44570843  0.11090761  0.75935601  1
  Se  Se11  1  0.94570843  0.88909239  0.74064399  1
loop_
_geom_bond_atom_site_label_1
_geom_bond_atom_site_label_2
_geom_bond_distance
_geom_bond_site_symmetry_2
Cs0 Se1 3.589879 1_555
Cs0 Se11 3.619566 1_545
Cs0 Se7 3.632304 1_555
Cs0 Se9 3.656940 1_655
Cs0 Se5 3.944601 1_655
Cs0 Se4 4.248470 1_555
Cs1 Se0 3.589879 1_555
Cs1 Se10 3.619566 1_564
Cs1 Se6 3.632304 1_554
Cs1 Se8 3.656940 1_555
Cs1 Se4 3.944601 1_555
Cs1 Se5 4.248470 1_555
Cs2 Se3 3.589879 1_555
Cs2 Se9 3.619566 1_565
Cs2 Se5 3.632304 1_555
Cs2 Se11 3.656940 1_455
Cs2 Se7 3.944601 1_455
Cs2 Se6 4.248470 1_555
Cs3 Se2 3.589879 1_555
Cs3 Se8 3.619566 1_546
Cs3 Se4 3.632304 1_556
Cs3 Se10 3.656940 1_555
Cs3 Se6 3.944601 1_555
Cs3 Se7 4.248470 1_555
Cs4 Se0 3.540995 1_555
Cs4 Se5 3.692440 1_555
Cs4 Se3 3.698838 1_555
Cs4 Ga1 3.730413 1_545
Cs4 Se11 3.849200 1_445
Cs4 Se6 3.872837 1_545
Cs4 Se10 3.965589 1_555
Cs4 Se9 4.248893 1_555
Cs5 Se1 3.540995 1_556
Cs5 Se4 3.692440 1_556
Cs5 Se2 3.698838 1_555
Cs5 Ga0 3.730413 1_565
Cs5 Se10 3.849200 1_565
Cs5 Se7 3.872837 1_565
Cs5 Se11 3.965589 1_555
Cs5 Se8 4.248893 1_556
Cs6 Se2 3.540995 1_555
Cs6 Se7 3.692440 1_555
Cs6 Se1 3.698838 1_555
Cs6 Ga3 3.730413 1_565
Cs6 Se9 3.849200 1_665
Cs6 Se4 3.872837 1_565
Cs6 Se8 3.965589 1_555
Cs6 Se11 4.248893 1_555
Cs7 Se3 3.540995 1_554
Cs7 Se6 3.692440 1_554
Cs7 Se0 3.698838 1_555
Cs7 Ga2 3.730413 1_545
Cs7 Se8 3.849200 1_545
Cs7 Se5 3.872837 1_545
Cs7 Se9 3.965589 1_555
Cs7 Se10 4.248893 1_554
Cs8 Se4 3.476101 1_555
Cs8 Se10 3.579590 1_555
Cs8 Se7 3.667917 1_555
Cs8 Se8 3.688080 1_555
Cs8 Se2 3.795626 1_545
Cs9 Se5 3.476101 1_555
Cs9 Se11 3.579590 1_454
Cs9 Se6 3.667917 1_554
Cs9 Se9 3.688080 1_555
Cs9 Se3 3.795626 1_564
Cs10 Se6 3.476101 1_555
Cs10 Se8 3.579590 1_555
Cs10 Se5 3.667917 1_555
Cs10 Se10 3.688080 1_555
Cs10 Se0 3.795626 1_565
Cs11 Se7 3.476101 1_555
Cs11 Se9 3.579590 1_656
Cs11 Se4 3.667917 1_556
Cs11 Se11 3.688080 1_555
Cs11 Se1 3.795626 1_546
Ga0 Se11 2.389913 1_545
Ga0 Se7 2.406964 1_555
Ga0 Se3 2.469598 1_655
Ga0 Se1 2.506461 1_546
Ga1 Se10 2.389913 1_565
Ga1 Se6 2.406964 1_555
Ga1 Se2 2.469598 1_555
Ga1 Se0 2.506461 1_565
Ga2 Se9 2.389913 1_565
Ga2 Se5 2.406964 1_555
Ga2 Se1 2.469598 1_455
Ga2 Se3 2.506461 1_564
Ga3 Se8 2.389913 1_545
Ga3 Se4 2.406964 1_555
Ga3 Se0 2.469598 1_555
Ga3 Se2 2.506461 1_545
