# generated using pymatgen
data_CsYbZnSe3
_symmetry_space_group_name_H-M   'P 1'
_cell_length_a   8.50875639
_cell_length_b   8.50875639
_cell_length_c   11.13381900
_cell_angle_alpha   90.00000000
_cell_angle_beta   90.00000000
_cell_angle_gamma   152.20156622
_symmetry_Int_Tables_number   1
_chemical_formula_structural   CsYbZnSe3
_chemical_formula_sum   'Cs2 Yb2 Zn2 Se6'
_cell_volume   375.92388489
_cell_formula_units_Z   2
loop_
 _symmetry_equiv_pos_site_id
 _symmetry_equiv_pos_as_xyz
  1  'x, y, z'
loop_
 _atom_site_type_symbol
 _atom_site_label
 _atom_site_symmetry_multiplicity
 _atom_site_fract_x
 _atom_site_fract_y
 _atom_site_fract_z
 _atom_site_occupancy
  Cs  Cs0  1  0.73949300  0.26050700  0.25000000  1
  Cs  Cs1  1  0.26050700  0.73949300  0.75000000  1
  Yb  Yb0  1  0.00000000  0.00000000  0.00000000  1
  Yb  Yb1  1  0.00000000  0.00000000  0.50000000  1
  Zn  Zn0  1  0.53904500  0.46095500  0.75000000  1
  Zn  Zn1  1  0.46095500  0.53904500  0.25000000  1
  Se  Se0  1  0.94725700  0.05274300  0.75000000  1
  Se  Se1  1  0.05274300  0.94725700  0.25000000  1
  Se  Se2  1  0.61914100  0.38085900  0.56412200  1
  Se  Se3  1  0.38085900  0.61914100  0.06412200  1
  Se  Se4  1  0.38085900  0.61914100  0.43587800  1
  Se  Se5  1  0.61914100  0.38085900  0.93587800  1
loop_
_geom_bond_atom_site_label_1
_geom_bond_atom_site_label_2
_geom_bond_distance
_geom_bond_site_symmetry_2
Cs0 Se1 3.700631 1_655
Cs0 Se1 3.700631 1_545
Cs0 Se3 3.730153 1_545
Cs0 Se4 3.730153 1_545
Cs0 Se3 3.730153 1_655
Cs0 Se4 3.730153 1_655
Cs0 Se2 4.022969 1_555
Cs0 Se5 4.022969 1_554
Cs1 Se0 3.700631 1_565
Cs1 Se0 3.700631 1_455
Cs1 Se2 3.730153 1_455
Cs1 Se5 3.730153 1_455
Cs1 Se2 3.730153 1_565
Cs1 Se5 3.730153 1_565
Cs1 Se4 4.022969 1_555
Cs1 Se3 4.022969 1_556
Se0 Zn0 2.544939 1_545
Se0 Zn0 2.544939 1_655
Se0 Yb0 2.916631 1_656
Se0 Yb1 2.916631 1_655
Se1 Zn1 2.544939 1_565
Se1 Zn1 2.544939 1_455
Se1 Yb0 2.916631 1_565
Se1 Yb1 2.916631 1_565
Se2 Zn0 2.456343 1_555
Se2 Yb1 2.925888 1_665
Se2 Yb1 2.925888 1_555
Se3 Zn1 2.456343 1_555
Se3 Yb0 2.925888 1_555
Se3 Yb0 2.925888 1_665
Se4 Zn1 2.456343 1_555
Se4 Yb1 2.925888 1_555
Se4 Yb1 2.925888 1_665
Se5 Zn0 2.456343 1_555
Se5 Yb0 2.925888 1_666
Se5 Yb0 2.925888 1_556
