# generated using pymatgen
data_K2Cu3S3O13
_symmetry_space_group_name_H-M   'P 1'
_cell_length_a   10.78844200
_cell_length_b   10.78844200
_cell_length_c   14.48270378
_cell_angle_alpha   71.37806549
_cell_angle_beta   71.37806549
_cell_angle_gamma   53.41140279
_symmetry_Int_Tables_number   1
_chemical_formula_structural   K2Cu3S3O13
_chemical_formula_sum   'K8 Cu12 S12 O52'
_cell_volume   1264.04632634
_cell_formula_units_Z   4
loop_
 _symmetry_equiv_pos_site_id
 _symmetry_equiv_pos_as_xyz
  1  'x, y, z'
loop_
 _atom_site_type_symbol
 _atom_site_label
 _atom_site_symmetry_multiplicity
 _atom_site_fract_x
 _atom_site_fract_y
 _atom_site_fract_z
 _atom_site_occupancy
  K  K0  1  0.93399200  0.45575400  0.87443400  1
  K  K1  1  0.91970800  0.42784100  0.43987900  1
  K  K2  1  0.45575400  0.93399200  0.37443400  1
  K  K3  1  0.57215900  0.08029200  0.06012100  1
  K  K4  1  0.06600800  0.54424600  0.12556600  1
  K  K5  1  0.42784100  0.91970800  0.93987900  1
  K  K6  1  0.08029200  0.57215900  0.56012100  1
  K  K7  1  0.54424600  0.06600800  0.62556600  1
  Cu  Cu0  1  0.67634700  0.16756600  0.29381000  1
  Cu  Cu1  1  0.96057100  0.01250000  0.85704900  1
  Cu  Cu2  1  0.53906400  0.49951700  0.84078800  1
  Cu  Cu3  1  0.01250000  0.96057100  0.35704900  1
  Cu  Cu4  1  0.32365300  0.83243400  0.70619000  1
  Cu  Cu5  1  0.49951700  0.53906400  0.34078800  1
  Cu  Cu6  1  0.16756600  0.67634700  0.79381000  1
  Cu  Cu7  1  0.50048300  0.46093600  0.65921200  1
  Cu  Cu8  1  0.83243400  0.32365300  0.20619000  1
  Cu  Cu9  1  0.98750000  0.03942900  0.64295100  1
  Cu  Cu10  1  0.03942900  0.98750000  0.14295100  1
  Cu  Cu11  1  0.46093600  0.50048300  0.15921200  1
  S  S0  1  0.11550900  0.18112800  0.71441200  1
  S  S1  1  0.18112800  0.11550900  0.21441200  1
  S  S2  1  0.75691600  0.25841300  0.00788200  1
  S  S3  1  0.62369600  0.66992800  0.13594200  1
  S  S4  1  0.25841300  0.75691600  0.50788200  1
  S  S5  1  0.33007200  0.37630400  0.36405800  1
  S  S6  1  0.74158700  0.24308400  0.49211800  1
  S  S7  1  0.81887200  0.88449100  0.78558800  1
  S  S8  1  0.24308400  0.74158700  0.99211800  1
  S  S9  1  0.37630400  0.33007200  0.86405800  1
  S  S10  1  0.66992800  0.62369600  0.63594200  1
  S  S11  1  0.88449100  0.81887200  0.28558800  1
  O  O0  1  0.30968100  0.44797200  0.25841500  1
  O  O1  1  0.19963700  0.03192900  0.14111300  1
  O  O2  1  0.81447400  0.11293300  0.97224300  1
  O  O3  1  0.19332900  0.37440000  0.42319400  1
  O  O4  1  0.72225100  0.37358500  0.40882100  1
  O  O5  1  0.80667100  0.62560000  0.57680600  1
  O  O6  1  0.52923900  0.79091500  0.63164000  1
  O  O7  1  0.44797200  0.30968100  0.75841500  1
  O  O8  1  0.27774900  0.62641500  0.59117900  1
  O  O9  1  0.70056100  0.39835400  0.92685200  1
  O  O10  1  0.39835400  0.70056100  0.42685200  1
  O  O11  1  0.84648700  0.96284000  0.68153100  1
  O  O12  1  0.11458800  0.75851600  0.96109800  1
  O  O13  1  0.28254700  0.04105300  0.70024400  1
  O  O14  1  0.96284000  0.84648700  0.18153100  1
  O  O15  1  0.60164600  0.29943900  0.57314800  1
  O  O16  1  0.11293300  0.81447400  0.47224300  1
  O  O17  1  0.46661200  0.35549500  0.90848900  1
  O  O18  1  0.55202800  0.69031900  0.24158500  1
  O  O19  1  0.15351300  0.03716000  0.31846900  1
  O  O20  1  0.88218100  0.68005700  0.29853800  1
  O  O21  1  0.11781900  0.31994300  0.70146200  1
  O  O22  1  0.10650800  0.89349200  0.75000000  1
  O  O23  1  0.04105300  0.28254700  0.20024400  1
  O  O24  1  0.37440000  0.19332900  0.92319400  1
  O  O25  1  0.29943900  0.60164600  0.07314800  1
  O  O26  1  0.53338800  0.64450500  0.09151100  1
  O  O27  1  0.24148400  0.88541200  0.53890200  1
  O  O28  1  0.18552600  0.88706700  0.02775700  1
  O  O29  1  0.88541200  0.24148400  0.03890200  1
  O  O30  1  0.61300400  0.38699600  0.25000000  1
  O  O31  1  0.35549500  0.46661200  0.40848900  1
  O  O32  1  0.71745300  0.95894700  0.29975600  1
  O  O33  1  0.96807100  0.80036300  0.35888700  1
  O  O34  1  0.69031900  0.55202800  0.74158500  1
  O  O35  1  0.68005700  0.88218100  0.79853800  1
  O  O36  1  0.89349200  0.10650800  0.25000000  1
  O  O37  1  0.95894700  0.71745300  0.79975600  1
  O  O38  1  0.37358500  0.72225100  0.90882100  1
  O  O39  1  0.31994300  0.11781900  0.20146200  1
  O  O40  1  0.20908500  0.47076100  0.86836000  1
  O  O41  1  0.64450500  0.53338800  0.59151100  1
  O  O42  1  0.47076100  0.20908500  0.36836000  1
  O  O43  1  0.38699600  0.61300400  0.75000000  1
  O  O44  1  0.88706700  0.18552600  0.52775700  1
  O  O45  1  0.75851600  0.11458800  0.46109800  1
  O  O46  1  0.03192900  0.19963700  0.64111300  1
  O  O47  1  0.62641500  0.27774900  0.09117900  1
  O  O48  1  0.62560000  0.80667100  0.07680600  1
  O  O49  1  0.79091500  0.52923900  0.13164000  1
  O  O50  1  0.80036300  0.96807100  0.85888700  1
  O  O51  1  0.03716000  0.15351300  0.81846900  1
loop_
_geom_bond_atom_site_label_1
_geom_bond_atom_site_label_2
_geom_bond_distance
_geom_bond_site_symmetry_2
K0 O9 2.764027 1_555
K0 O37 2.825498 1_555
K0 O21 2.839473 1_655
K0 O29 2.902162 1_556
K0 O40 3.039559 1_655
K0 O51 3.051752 1_655
K0 O34 3.223415 1_555
K1 O3 2.590225 1_655
K1 O44 2.695222 1_555
K1 O4 2.710997 1_555
K1 O20 2.723389 1_555
K1 O5 2.833286 1_555
K1 O41 2.887369 1_555
K1 O46 3.184105 1_655
K2 O10 2.764027 1_555
K2 O32 2.825498 1_555
K2 O39 2.839473 1_565
K2 O27 2.902162 1_555
K2 O42 3.039559 1_565
K2 O19 3.051752 1_565
K2 O18 3.223415 1_555
K3 O48 2.590225 1_545
K3 O2 2.695222 1_554
K3 O47 2.710997 1_555
K3 O39 2.723389 1_555
K3 O24 2.833286 1_554
K3 O17 2.887369 1_554
K3 O50 3.184105 1_544
K4 O25 2.764027 1_555
K4 O23 2.825498 1_555
K4 O20 2.839473 1_455
K4 O12 2.902162 1_554
K4 O49 3.039559 1_455
K4 O14 3.051752 1_455
K4 O0 3.223415 1_555
K5 O24 2.590225 1_565
K5 O28 2.695222 1_556
K5 O38 2.710997 1_555
K5 O35 2.723389 1_555
K5 O48 2.833286 1_556
K5 O26 2.887369 1_556
K5 O1 3.184105 1_566
K6 O5 2.590225 1_455
K6 O16 2.695222 1_555
K6 O8 2.710997 1_555
K6 O21 2.723389 1_555
K6 O3 2.833286 1_555
K6 O31 2.887369 1_555
K6 O33 3.184105 1_455
K7 O15 2.764027 1_555
K7 O13 2.825498 1_555
K7 O35 2.839473 1_545
K7 O45 2.902162 1_555
K7 O6 3.039559 1_545
K7 O11 3.051752 1_545
K7 O7 3.223415 1_555
Cu0 O36 1.950008 1_555
Cu0 O30 1.965400 1_555
Cu0 O42 1.969980 1_555
Cu0 O32 1.995082 1_545
Cu1 O22 1.957911 1_645
Cu1 O2 1.969967 1_555
Cu1 O51 1.992521 1_655
Cu1 O50 2.041543 1_545
Cu1 O12 2.464587 1_645
Cu2 O43 1.968331 1_555
Cu2 O17 1.992982 1_555
Cu2 O9 2.007892 1_555
Cu2 O34 2.032948 1_555
Cu2 O38 2.281826 1_555
Cu3 O36 1.957911 1_465
Cu3 O16 1.969967 1_555
Cu3 O19 1.992521 1_565
Cu3 O33 2.041543 1_455
Cu3 O45 2.464587 1_465
Cu4 O22 1.950008 1_555
Cu4 O43 1.965400 1_555
Cu4 O6 1.969980 1_555
Cu4 O13 1.995082 1_565
Cu5 O30 1.968331 1_555
Cu5 O31 1.992982 1_555
Cu5 O10 2.007892 1_555
Cu5 O18 2.032948 1_555
Cu5 O4 2.281826 1_555
Cu6 O22 1.950008 1_555
Cu6 O43 1.965400 1_555
Cu6 O40 1.969980 1_555
Cu6 O37 1.995082 1_455
Cu7 O43 1.968331 1_555
Cu7 O41 1.992982 1_555
Cu7 O15 2.007892 1_555
Cu7 O7 2.032948 1_555
Cu7 O8 2.281826 1_555
Cu8 O36 1.950008 1_555
Cu8 O30 1.965400 1_555
Cu8 O49 1.969980 1_555
Cu8 O23 1.995082 1_655
Cu9 O22 1.957911 1_645
Cu9 O44 1.969967 1_555
Cu9 O11 1.992521 1_545
Cu9 O46 2.041543 1_655
Cu9 O27 2.464587 1_645
Cu10 O36 1.957911 1_465
Cu10 O28 1.969967 1_555
Cu10 O14 1.992521 1_455
Cu10 O1 2.041543 1_565
Cu10 O29 2.464587 1_465
Cu11 O30 1.968331 1_555
Cu11 O26 1.992982 1_555
Cu11 O25 2.007892 1_555
Cu11 O0 2.032948 1_555
Cu11 O47 2.281826 1_555
O0 S5 1.497927 1_555
O1 S1 1.497048 1_555
O2 S2 1.505378 1_556
O3 S5 1.458853 1_555
O4 S6 1.485569 1_555
O5 S10 1.458853 1_555
O6 S10 1.512122 1_555
O7 S9 1.497927 1_555
O8 S4 1.485569 1_555
O9 S2 1.502017 1_556
O10 S4 1.502017 1_555
O11 S7 1.508078 1_555
O12 S8 1.483389 1_555
O13 S0 1.512832 1_555
O14 S11 1.508078 1_555
O15 S6 1.502017 1_555
O16 S4 1.505378 1_555
O17 S9 1.506713 1_555
O18 S3 1.497927 1_555
O19 S1 1.508078 1_555
O20 S11 1.463121 1_555
O21 S0 1.463121 1_555
O23 S1 1.512832 1_555
O24 S9 1.458853 1_555
O25 S8 1.502017 1_554
O26 S3 1.506713 1_555
O27 S4 1.483389 1_555
O28 S8 1.505378 1_554
O29 S2 1.483389 1_555
O31 S5 1.506713 1_555
O32 S11 1.512832 1_555
O33 S11 1.497048 1_555
O34 S10 1.497927 1_555
O35 S7 1.463121 1_555
O37 S7 1.512832 1_555
O38 S8 1.485569 1_555
O39 S1 1.463121 1_555
O40 S9 1.512122 1_555
O41 S10 1.506713 1_555
O42 S5 1.512122 1_555
O44 S6 1.505378 1_555
O45 S6 1.483389 1_555
O46 S0 1.497048 1_555
O47 S2 1.485569 1_555
O48 S3 1.458853 1_555
O49 S3 1.512122 1_555
O50 S7 1.497048 1_555
O51 S0 1.508078 1_555
