# generated using pymatgen
data_KDy(PO3)4
_symmetry_space_group_name_H-M   'P 1'
_cell_length_a   8.98775000
_cell_length_b   10.42920200
_cell_length_c   12.81675596
_cell_angle_alpha   55.12447550
_cell_angle_beta   90.00000000
_cell_angle_gamma   90.00000000
_symmetry_Int_Tables_number   1
_chemical_formula_structural   KDy(PO3)4
_chemical_formula_sum   'K4 Dy4 P16 O48'
_cell_volume   985.60709902
_cell_formula_units_Z   4
loop_
 _symmetry_equiv_pos_site_id
 _symmetry_equiv_pos_as_xyz
  1  'x, y, z'
loop_
 _atom_site_type_symbol
 _atom_site_label
 _atom_site_symmetry_multiplicity
 _atom_site_fract_x
 _atom_site_fract_y
 _atom_site_fract_z
 _atom_site_occupancy
  K  K0  1  0.56791700  0.74418400  0.96019500  1
  K  K1  1  0.06791700  0.25581600  0.53980500  1
  K  K2  1  0.43208300  0.25581600  0.03980500  1
  K  K3  1  0.93208300  0.74418400  0.46019500  1
  Dy  Dy0  1  0.22612400  0.81457600  0.18484300  1
  Dy  Dy1  1  0.72612400  0.18542400  0.31515700  1
  Dy  Dy2  1  0.77387600  0.18542400  0.81515700  1
  Dy  Dy3  1  0.27387600  0.81457600  0.68484300  1
  P  P0  1  0.97454800  0.52289400  0.22562900  1
  P  P1  1  0.47454800  0.47710600  0.27437100  1
  P  P2  1  0.02545200  0.47710600  0.77437100  1
  P  P3  1  0.52545200  0.52289400  0.72562900  1
  P  P4  1  0.10966900  0.69905500  0.97815500  1
  P  P5  1  0.60966900  0.30094500  0.52184500  1
  P  P6  1  0.89033100  0.30094500  0.02184500  1
  P  P7  1  0.39033100  0.69905500  0.47815500  1
  P  P8  1  0.90896700  0.89081200  0.75724700  1
  P  P9  1  0.40896700  0.10918800  0.74275300  1
  P  P10  1  0.09103300  0.10918800  0.24275300  1
  P  P11  1  0.59103300  0.89081200  0.25724700  1
  P  P12  1  0.67115400  0.82317900  0.63656500  1
  P  P13  1  0.17115400  0.17682100  0.86343500  1
  P  P14  1  0.32884600  0.17682100  0.36343500  1
  P  P15  1  0.82884600  0.82317900  0.13656500  1
  O  O0  1  0.40659600  0.63667500  0.19350600  1
  O  O1  1  0.90659600  0.36332500  0.30649400  1
  O  O2  1  0.59340400  0.36332500  0.80649400  1
  O  O3  1  0.09340400  0.63667500  0.69350600  1
  O  O4  1  0.08505600  0.56732500  0.28820300  1
  O  O5  1  0.58505600  0.43267500  0.21179700  1
  O  O6  1  0.91494400  0.43267500  0.71179700  1
  O  O7  1  0.41494400  0.56732500  0.78820300  1
  O  O8  1  0.04702700  0.53797100  0.10272800  1
  O  O9  1  0.54702700  0.46202900  0.39727200  1
  O  O10  1  0.95297300  0.46202900  0.89727200  1
  O  O11  1  0.45297300  0.53797100  0.60272800  1
  O  O12  1  0.84177100  0.65203800  0.16217100  1
  O  O13  1  0.34177100  0.34796200  0.33782900  1
  O  O14  1  0.15822900  0.34796200  0.83782900  1
  O  O15  1  0.65822900  0.65203800  0.66217100  1
  O  O16  1  0.16545600  0.79892300  0.01919200  1
  O  O17  1  0.66545600  0.20107700  0.48080800  1
  O  O18  1  0.83454400  0.20107700  0.98080800  1
  O  O19  1  0.33454400  0.79892300  0.51919200  1
  O  O20  1  0.21198000  0.66370400  0.90505200  1
  O  O21  1  0.71198000  0.33629600  0.59494800  1
  O  O22  1  0.78802000  0.33629600  0.09494800  1
  O  O23  1  0.28802000  0.66370400  0.40505200  1
  O  O24  1  0.95269200  0.76801100  0.90391200  1
  O  O25  1  0.45269200  0.23198900  0.59608800  1
  O  O26  1  0.04730800  0.23198900  0.09608800  1
  O  O27  1  0.54730800  0.76801100  0.40391200  1
  O  O28  1  0.32493500  0.97551500  0.75819500  1
  O  O29  1  0.82493500  0.02448500  0.74180500  1
  O  O30  1  0.67506500  0.02448500  0.24180500  1
  O  O31  1  0.17506500  0.97551500  0.25819500  1
  O  O32  1  0.04175700  0.92712600  0.67345700  1
  O  O33  1  0.54175700  0.07287400  0.82654300  1
  O  O34  1  0.95824300  0.07287400  0.32654300  1
  O  O35  1  0.45824300  0.92712600  0.17345700  1
  O  O36  1  0.79229200  0.78023400  0.74606900  1
  O  O37  1  0.29229200  0.21976600  0.75393100  1
  O  O38  1  0.20770800  0.21976600  0.25393100  1
  O  O39  1  0.70770800  0.78023400  0.24606900  1
  O  O40  1  0.73954200  0.92778500  0.50743800  1
  O  O41  1  0.23954200  0.07221500  0.99256200  1
  O  O42  1  0.26045800  0.07221500  0.49256200  1
  O  O43  1  0.76045800  0.92778500  0.00743800  1
  O  O44  1  0.52913800  0.86520100  0.67163000  1
  O  O45  1  0.02913800  0.13479900  0.82837000  1
  O  O46  1  0.47086200  0.13479900  0.32837000  1
  O  O47  1  0.97086200  0.86520100  0.17163000  1
loop_
_geom_bond_atom_site_label_1
_geom_bond_atom_site_label_2
_geom_bond_distance
_geom_bond_site_symmetry_2
K0 O33 2.832907 1_565
K0 O43 2.890278 1_556
K0 O0 2.909811 1_556
K0 O5 2.999405 1_556
K0 O44 3.170949 1_555
K0 O28 3.185851 1_555
K0 O36 3.249599 1_555
K0 O12 3.292109 1_556
K1 O32 2.832907 1_545
K1 O42 2.890278 1_555
K1 O1 2.909811 1_455
K1 O4 2.999405 1_555
K1 O45 3.170949 1_555
K1 O29 3.185851 1_455
K1 O37 3.249599 1_555
K1 O13 3.292109 1_555
K2 O35 2.832907 1_545
K2 O41 2.890278 1_554
K2 O2 2.909811 1_554
K2 O7 2.999405 1_554
K2 O46 3.170949 1_555
K2 O30 3.185851 1_555
K2 O38 3.249599 1_555
K2 O14 3.292109 1_554
K3 O34 2.832907 1_565
K3 O40 2.890278 1_555
K3 O3 2.909811 1_655
K3 O6 2.999405 1_555
K3 O47 3.170949 1_555
K3 O31 3.185851 1_655
K3 O39 3.249599 1_555
K3 O15 3.292109 1_555
Dy0 O16 2.286464 1_555
Dy0 O47 2.338522 1_455
Dy0 O35 2.357026 1_555
Dy0 O23 2.381690 1_555
Dy0 O31 2.390870 1_555
Dy0 O41 2.394798 1_564
Dy0 O0 2.418704 1_555
Dy0 O4 2.470886 1_555
Dy1 O17 2.286464 1_555
Dy1 O46 2.338522 1_555
Dy1 O34 2.357026 1_555
Dy1 O22 2.381690 1_555
Dy1 O30 2.390870 1_555
Dy1 O40 2.394798 1_545
Dy1 O1 2.418704 1_555
Dy1 O5 2.470886 1_555
Dy2 O18 2.286464 1_555
Dy2 O45 2.338522 1_655
Dy2 O33 2.357026 1_555
Dy2 O21 2.381690 1_555
Dy2 O29 2.390870 1_555
Dy2 O43 2.394798 1_546
Dy2 O2 2.418704 1_555
Dy2 O6 2.470886 1_555
Dy3 O19 2.286464 1_555
Dy3 O44 2.338522 1_555
Dy3 O32 2.357026 1_555
Dy3 O20 2.381690 1_555
Dy3 O28 2.390870 1_555
Dy3 O42 2.394798 1_565
Dy3 O3 2.418704 1_555
Dy3 O7 2.470886 1_555
O0 P1 1.498066 1_555
O1 P0 1.498066 1_555
O2 P3 1.498066 1_555
O3 P2 1.498066 1_555
O4 P0 1.506450 1_455
O5 P1 1.506450 1_555
O6 P2 1.506450 1_655
O7 P3 1.506450 1_555
O8 P4 1.618971 1_554
O8 P0 1.626978 1_455
O9 P5 1.618971 1_555
O9 P1 1.626978 1_555
O10 P6 1.618971 1_556
O10 P2 1.626978 1_655
O11 P7 1.618971 1_555
O11 P3 1.626978 1_555
O12 P15 1.623903 1_555
O12 P0 1.626942 1_555
O13 P14 1.623903 1_555
O13 P1 1.626942 1_555
O14 P13 1.623903 1_555
O14 P2 1.626942 1_555
O15 P12 1.623903 1_555
O15 P3 1.626942 1_555
O16 P4 1.496436 1_554
O17 P5 1.496436 1_555
O18 P6 1.496436 1_556
O19 P7 1.496436 1_555
O20 P4 1.501463 1_555
O21 P5 1.501463 1_555
O22 P6 1.501463 1_555
O23 P7 1.501463 1_555
O24 P8 1.604702 1_555
O24 P4 1.621918 1_655
O25 P9 1.604702 1_555
O25 P5 1.621918 1_555
O26 P10 1.604702 1_555
O26 P6 1.621918 1_455
O27 P11 1.604702 1_555
O27 P7 1.621918 1_555
O28 P9 1.495852 1_565
O29 P8 1.495852 1_545
O30 P11 1.495852 1_545
O31 P10 1.495852 1_565
O32 P8 1.502002 1_455
O33 P9 1.502002 1_555
O34 P10 1.502002 1_655
O35 P11 1.502002 1_555
O36 P12 1.623856 1_555
O36 P8 1.624528 1_555
O37 P13 1.623856 1_555
O37 P9 1.624528 1_555
O38 P14 1.623856 1_555
O38 P10 1.624528 1_555
O39 P15 1.623856 1_555
O39 P11 1.624528 1_555
O40 P12 1.497397 1_555
O41 P13 1.497397 1_555
O42 P14 1.497397 1_555
O43 P15 1.497397 1_555
O44 P12 1.499499 1_555
O45 P13 1.499499 1_555
O46 P14 1.499499 1_555
O47 P15 1.499499 1_555
