# generated using pymatgen
data_La4Ti9(Si2O15)2
_symmetry_space_group_name_H-M   'P 1'
_cell_length_a   7.45437922
_cell_length_b   7.45437922
_cell_length_c   15.29587375
_cell_angle_alpha   70.64022576
_cell_angle_beta   70.64022576
_cell_angle_gamma   45.63408428
_symmetry_Int_Tables_number   1
_chemical_formula_structural   La4Ti9(Si2O15)2
_chemical_formula_sum   'La4 Ti9 Si4 O30'
_cell_volume   566.96926150
_cell_formula_units_Z   1
loop_
 _symmetry_equiv_pos_site_id
 _symmetry_equiv_pos_as_xyz
  1  'x, y, z'
loop_
 _atom_site_type_symbol
 _atom_site_label
 _atom_site_symmetry_multiplicity
 _atom_site_fract_x
 _atom_site_fract_y
 _atom_site_fract_z
 _atom_site_occupancy
  La  La0  1  0.89189100  0.89189100  0.31355000  1
  La  La1  1  0.61256100  0.61256100  0.30848900  1
  La  La2  1  0.10810900  0.10810900  0.68645000  1
  La  La3  1  0.38743900  0.38743900  0.69151100  1
  Ti  Ti0  1  0.56030600  0.56030600  0.11695100  1
  Ti  Ti1  1  0.40328600  0.93304100  0.89038300  1
  Ti  Ti2  1  0.90420700  0.90420700  0.88067100  1
  Ti  Ti3  1  0.00000000  0.00000000  0.50000000  1
  Ti  Ti4  1  0.06695900  0.59671400  0.10961700  1
  Ti  Ti5  1  0.93304100  0.40328600  0.89038300  1
  Ti  Ti6  1  0.43969400  0.43969400  0.88304900  1
  Ti  Ti7  1  0.59671400  0.06695900  0.10961700  1
  Ti  Ti8  1  0.09579300  0.09579300  0.11932900  1
  Si  Si0  1  0.75839300  0.75839300  0.67763000  1
  Si  Si1  1  0.24160700  0.24160700  0.32237000  1
  Si  Si2  1  0.62971300  0.62971300  0.53448400  1
  Si  Si3  1  0.37028700  0.37028700  0.46551600  1
  O  O0  1  0.71133100  0.21295900  0.78375200  1
  O  O1  1  0.48913500  0.96614800  0.73906000  1
  O  O2  1  0.92167700  0.92167700  0.13443400  1
  O  O3  1  0.57339200  0.57339200  0.88365500  1
  O  O4  1  0.72119600  0.72119600  0.13425700  1
  O  O5  1  0.30768700  0.30768700  0.39217000  1
  O  O6  1  0.07832300  0.07832300  0.86556600  1
  O  O7  1  0.77023300  0.77023300  0.88010400  1
  O  O8  1  0.13151200  0.63707400  0.97504500  1
  O  O9  1  0.36292600  0.86848800  0.02495500  1
  O  O10  1  0.42660800  0.42660800  0.11634500  1
  O  O11  1  0.63707400  0.13151200  0.97504500  1
  O  O12  1  0.51086500  0.03385200  0.26094000  1
  O  O13  1  0.21295900  0.71133100  0.78375200  1
  O  O14  1  0.69231300  0.69231300  0.60783000  1
  O  O15  1  0.32145400  0.78862700  0.56675800  1
  O  O16  1  0.78862700  0.32145400  0.56675800  1
  O  O17  1  0.67854600  0.21137300  0.43324200  1
  O  O18  1  0.22976700  0.22976700  0.11989600  1
  O  O19  1  0.88288600  0.88288600  0.61769700  1
  O  O20  1  0.21137300  0.67854600  0.43324200  1
  O  O21  1  0.27880400  0.27880400  0.86574300  1
  O  O22  1  0.11711400  0.11711400  0.38230300  1
  O  O23  1  0.28866900  0.78704100  0.21624800  1
  O  O24  1  0.29654400  0.29654400  0.57423000  1
  O  O25  1  0.70345600  0.70345600  0.42577000  1
  O  O26  1  0.86848800  0.36292600  0.02495500  1
  O  O27  1  0.03385200  0.51086500  0.26094000  1
  O  O28  1  0.78704100  0.28866900  0.21624800  1
  O  O29  1  0.96614800  0.48913500  0.73906000  1
loop_
_geom_bond_atom_site_label_1
_geom_bond_atom_site_label_2
_geom_bond_distance
_geom_bond_site_symmetry_2
La0 O23 2.488763 1_655
La0 O28 2.488763 1_565
La0 O25 2.540619 1_555
La0 O27 2.565574 1_655
La0 O12 2.565574 1_565
La0 O2 2.620509 1_555
La0 O20 2.686335 1_655
La0 O17 2.686335 1_565
La1 O28 2.482329 1_555
La1 O23 2.482329 1_555
La1 O25 2.527864 1_555
La1 O4 2.543493 1_555
La1 O12 2.547154 1_565
La1 O27 2.547154 1_655
La1 O20 2.758354 1_555
La1 O17 2.758354 1_555
La2 O13 2.488763 1_545
La2 O0 2.488763 1_455
La2 O24 2.540619 1_555
La2 O29 2.565574 1_455
La2 O1 2.565574 1_545
La2 O6 2.620509 1_555
La2 O15 2.686335 1_545
La2 O16 2.686335 1_455
La3 O13 2.482329 1_555
La3 O0 2.482329 1_555
La3 O24 2.527864 1_555
La3 O21 2.543493 1_555
La3 O1 2.547154 1_545
La3 O29 2.547154 1_455
La3 O15 2.758354 1_555
La3 O16 2.758354 1_555
O0 Ti2 2.021221 1_545
O0 Ti6 2.034820 1_555
O1 Si0 1.636239 1_555
O1 Ti1 2.165175 1_555
O2 Ti4 1.962972 1_655
O2 Ti7 1.962972 1_565
O2 Ti8 2.319669 1_665
O3 Ti6 1.840647 1_555
O3 Ti1 2.036728 1_555
O3 Ti5 2.036728 1_555
O4 Ti4 1.972164 1_655
O4 Ti7 1.972164 1_565
O4 Ti0 2.319359 1_555
O5 Si1 1.631515 1_555
O5 Si3 1.640997 1_555
O6 Ti5 1.962972 1_455
O6 Ti1 1.962972 1_545
O6 Ti2 2.319669 1_445
O7 Ti2 1.844223 1_555
O7 Ti1 2.044174 1_555
O7 Ti5 2.044174 1_555
O8 Ti4 1.922041 1_556
O8 Ti2 1.979241 1_455
O8 Ti6 1.981151 1_555
O9 Ti1 1.922041 1_554
O9 Ti8 1.979241 1_565
O9 Ti0 1.981151 1_555
O10 Ti0 1.840647 1_555
O10 Ti4 2.036728 1_555
O10 Ti7 2.036728 1_555
O11 Ti7 1.922041 1_556
O11 Ti2 1.979241 1_545
O11 Ti6 1.981151 1_555
O12 Si1 1.636239 1_555
O12 Ti7 2.165175 1_555
O13 Ti2 2.021221 1_455
O13 Ti6 2.034820 1_555
O14 Si0 1.631515 1_555
O14 Si2 1.640997 1_555
O15 Si2 1.660152 1_555
O15 Ti3 2.131368 1_565
O16 Si2 1.660152 1_555
O16 Ti3 2.131368 1_655
O17 Si3 1.660152 1_555
O17 Ti3 2.131368 1_655
O18 Ti8 1.844223 1_555
O18 Ti7 2.044174 1_555
O18 Ti4 2.044174 1_555
O19 Si0 1.624543 1_555
O19 Ti3 1.935751 1_665
O20 Si3 1.660152 1_555
O20 Ti3 2.131368 1_565
O21 Ti1 1.972164 1_545
O21 Ti5 1.972164 1_455
O21 Ti6 2.319359 1_555
O22 Si1 1.624543 1_555
O22 Ti3 1.935751 1_555
O23 Ti8 2.021221 1_565
O23 Ti0 2.034820 1_555
O24 Si3 1.606243 1_555
O25 Si2 1.606243 1_555
O26 Ti5 1.922041 1_554
O26 Ti8 1.979241 1_655
O26 Ti0 1.981151 1_555
O27 Si1 1.636239 1_555
O27 Ti4 2.165175 1_555
O28 Ti8 2.021221 1_655
O28 Ti0 2.034820 1_555
O29 Si0 1.636239 1_555
O29 Ti5 2.165175 1_555
