# generated using pymatgen
data_CsReOF6
_symmetry_space_group_name_H-M   'P 1'
_cell_length_a   7.27523500
_cell_length_b   8.21828300
_cell_length_c   10.98976217
_cell_angle_alpha   87.34878793
_cell_angle_beta   90.00000000
_cell_angle_gamma   90.00000000
_symmetry_Int_Tables_number   1
_chemical_formula_structural   CsReOF6
_chemical_formula_sum   'Cs4 Re4 O4 F24'
_cell_volume   656.37390286
_cell_formula_units_Z   4
loop_
 _symmetry_equiv_pos_site_id
 _symmetry_equiv_pos_as_xyz
  1  'x, y, z'
loop_
 _atom_site_type_symbol
 _atom_site_label
 _atom_site_symmetry_multiplicity
 _atom_site_fract_x
 _atom_site_fract_y
 _atom_site_fract_z
 _atom_site_occupancy
  Cs  Cs0  1  0.25871300  0.21969700  0.00045600  1
  Cs  Cs1  1  0.74128700  0.78030300  0.99954400  1
  Cs  Cs2  1  0.75871300  0.78030300  0.49954400  1
  Cs  Cs3  1  0.24128700  0.21969700  0.50045600  1
  Re  Re0  1  0.22017600  0.71663800  0.26294200  1
  Re  Re1  1  0.27982400  0.71663800  0.76294200  1
  Re  Re2  1  0.77982400  0.28336200  0.73705800  1
  Re  Re3  1  0.72017600  0.28336200  0.23705800  1
  O  O0  1  0.23999800  0.57868300  0.15209300  1
  O  O1  1  0.76000200  0.42131700  0.84790700  1
  O  O2  1  0.26000200  0.57868300  0.65209300  1
  O  O3  1  0.73999800  0.42131700  0.34790700  1
  F  F0  1  0.95311200  0.73044700  0.24648300  1
  F  F1  1  0.45311200  0.26955300  0.25351700  1
  F  F2  1  0.44698700  0.82765900  0.22073200  1
  F  F3  1  0.66191900  0.10392400  0.35079600  1
  F  F4  1  0.54688800  0.73044700  0.74648300  1
  F  F5  1  0.16191900  0.89607600  0.14920400  1
  F  F6  1  0.33808100  0.89607600  0.64920400  1
  F  F7  1  0.91340600  0.37721000  0.13521400  1
  F  F8  1  0.18671500  0.87252200  0.39077900  1
  F  F9  1  0.04688800  0.26955300  0.75351700  1
  F  F10  1  0.89008900  0.44014100  0.62153600  1
  F  F11  1  0.41340600  0.62279000  0.36478600  1
  F  F12  1  0.55301300  0.17234100  0.77926800  1
  F  F13  1  0.83808100  0.10392400  0.85079600  1
  F  F14  1  0.58659400  0.37721000  0.63521400  1
  F  F15  1  0.10991100  0.55985900  0.37846400  1
  F  F16  1  0.68671500  0.12747800  0.10922100  1
  F  F17  1  0.05301300  0.82765900  0.72073200  1
  F  F18  1  0.81328500  0.12747800  0.60922100  1
  F  F19  1  0.39008900  0.55985900  0.87846400  1
  F  F20  1  0.31328500  0.87252200  0.89077900  1
  F  F21  1  0.08659400  0.62279000  0.86478600  1
  F  F22  1  0.60991100  0.44014100  0.12153600  1
  F  F23  1  0.94698700  0.17234100  0.27926800  1
loop_
_geom_bond_atom_site_label_1
_geom_bond_atom_site_label_2
_geom_bond_distance
_geom_bond_site_symmetry_2
Cs0 F9 3.131237 1_554
Cs0 F5 3.136792 1_545
Cs0 F1 3.163533 1_555
Cs0 F20 3.173205 1_544
Cs0 F19 3.190498 1_554
Cs0 F7 3.218289 1_455
Cs0 F12 3.275989 1_554
Cs0 F16 3.408103 1_555
Cs0 F22 3.435701 1_555
Cs0 O0 3.457514 1_555
Cs0 F13 3.622150 1_454
Cs1 F0 3.131237 1_556
Cs1 F13 3.136792 1_565
Cs1 F4 3.163533 1_555
Cs1 F16 3.173205 1_566
Cs1 F22 3.190498 1_556
Cs1 F21 3.218289 1_655
Cs1 F2 3.275989 1_556
Cs1 F20 3.408103 1_555
Cs1 F19 3.435701 1_555
Cs1 O1 3.457514 1_555
Cs1 F5 3.622150 1_656
Cs2 F4 3.131237 1_555
Cs2 F3 3.136792 1_565
Cs2 F0 3.163533 1_555
Cs2 F18 3.173205 1_565
Cs2 F10 3.190498 1_555
Cs2 F11 3.218289 1_555
Cs2 F17 3.275989 1_655
Cs2 F8 3.408103 1_655
Cs2 F15 3.435701 1_655
Cs2 O3 3.457514 1_555
Cs2 F6 3.622150 1_555
Cs3 F1 3.131237 1_555
Cs3 F6 3.136792 1_545
Cs3 F9 3.163533 1_555
Cs3 F8 3.173205 1_545
Cs3 F15 3.190498 1_555
Cs3 F14 3.218289 1_555
Cs3 F23 3.275989 1_455
Cs3 F18 3.408103 1_455
Cs3 F10 3.435701 1_455
Cs3 O2 3.457514 1_555
Cs3 F3 3.622150 1_555
O0 Re0 1.708211 1_555
O1 Re2 1.708211 1_555
O2 Re1 1.708211 1_555
O3 Re3 1.708211 1_555
F0 Re0 1.954166 1_655
F1 Re3 1.954166 1_555
F2 Re0 1.931669 1_555
F3 Re3 1.935498 1_555
F4 Re1 1.954166 1_555
F5 Re0 1.935498 1_555
F6 Re1 1.935498 1_555
F7 Re3 1.934930 1_555
F8 Re0 1.959775 1_555
F9 Re2 1.954166 1_455
F10 Re2 1.940128 1_555
F11 Re0 1.934930 1_555
F12 Re2 1.931669 1_555
F13 Re2 1.935498 1_555
F14 Re2 1.934930 1_555
F15 Re0 1.940128 1_555
F16 Re3 1.959775 1_555
F17 Re1 1.931669 1_555
F18 Re2 1.959775 1_555
F19 Re1 1.940128 1_555
F20 Re1 1.959775 1_555
F21 Re1 1.934930 1_555
F22 Re3 1.940128 1_555
F23 Re3 1.931669 1_555
