# generated using pymatgen
data_Sm4I6O
_symmetry_space_group_name_H-M   'P 1'
_cell_length_a   9.88605991
_cell_length_b   9.88605991
_cell_length_c   8.47497900
_cell_angle_alpha   90.00000000
_cell_angle_beta   90.00000000
_cell_angle_gamma   119.99999940
_symmetry_Int_Tables_number   1
_chemical_formula_structural   Sm4I6O
_chemical_formula_sum   'Sm8 I12 O2'
_cell_volume   717.32462682
_cell_formula_units_Z   2
loop_
 _symmetry_equiv_pos_site_id
 _symmetry_equiv_pos_as_xyz
  1  'x, y, z'
loop_
 _atom_site_type_symbol
 _atom_site_label
 _atom_site_symmetry_multiplicity
 _atom_site_fract_x
 _atom_site_fract_y
 _atom_site_fract_z
 _atom_site_occupancy
  Sm  Sm0  1  0.20175400  0.79824600  0.06893800  1
  Sm  Sm1  1  0.79824600  0.59649100  0.56893800  1
  Sm  Sm2  1  0.59649100  0.79824600  0.06893800  1
  Sm  Sm3  1  0.66666700  0.33333300  0.26095500  1
  Sm  Sm4  1  0.40350900  0.20175400  0.56893800  1
  Sm  Sm5  1  0.33333300  0.66666700  0.76095500  1
  Sm  Sm6  1  0.79824600  0.20175400  0.56893800  1
  Sm  Sm7  1  0.20175400  0.40350900  0.06893800  1
  I  I0  1  0.47274300  0.94548600  0.38628100  1
  I  I1  1  0.13493600  0.86506400  0.69856000  1
  I  I2  1  0.13493600  0.26987200  0.69856000  1
  I  I3  1  0.86506400  0.13493600  0.19856000  1
  I  I4  1  0.05451400  0.52725700  0.38628100  1
  I  I5  1  0.26987200  0.13493600  0.19856000  1
  I  I6  1  0.86506400  0.73012800  0.19856000  1
  I  I7  1  0.94548600  0.47274300  0.88628100  1
  I  I8  1  0.52725700  0.05451400  0.88628100  1
  I  I9  1  0.52725700  0.47274300  0.88628100  1
  I  I10  1  0.47274300  0.52725700  0.38628100  1
  I  I11  1  0.73012800  0.86506400  0.69856000  1
  O  O0  1  0.66666700  0.33333300  0.54561900  1
  O  O1  1  0.33333300  0.66666700  0.04561900  1
loop_
_geom_bond_atom_site_label_1
_geom_bond_atom_site_label_2
_geom_bond_distance
_geom_bond_site_symmetry_2
I0 Sm4 3.319246 1_565
I0 Sm6 3.319251 1_565
I0 Sm3 3.486316 1_565
I0 Sm2 3.553809 1_555
I0 Sm0 3.553814 1_555
I0 Sm5 3.972565 1_555
I1 Sm1 3.240058 1_455
I1 Sm4 3.240058 1_565
I1 Sm0 3.340962 1_556
I1 Sm5 3.438092 1_555
I2 Sm6 3.240055 1_455
I2 Sm4 3.240064 1_555
I2 Sm7 3.340965 1_556
I2 Sm5 3.438101 1_555
I3 Sm2 3.240058 1_545
I3 Sm7 3.240058 1_655
I3 Sm6 3.340962 1_555
I3 Sm3 3.438092 1_555
I4 Sm1 3.319246 1_455
I4 Sm6 3.319251 1_455
I4 Sm3 3.486316 1_455
I4 Sm7 3.553809 1_555
I4 Sm0 3.553814 1_555
I4 Sm5 3.972565 1_555
I5 Sm0 3.240055 1_545
I5 Sm7 3.240064 1_555
I5 Sm4 3.340965 1_555
I5 Sm3 3.438101 1_555
I6 Sm0 3.240055 1_655
I6 Sm2 3.240064 1_555
I6 Sm1 3.340965 1_555
I6 Sm3 3.438101 1_555
I7 Sm7 3.319246 1_656
I7 Sm0 3.319251 1_656
I7 Sm5 3.486316 1_655
I7 Sm1 3.553809 1_555
I7 Sm6 3.553814 1_555
I7 Sm3 3.972565 1_556
I8 Sm2 3.319246 1_546
I8 Sm0 3.319251 1_546
I8 Sm5 3.486316 1_545
I8 Sm4 3.553809 1_555
I8 Sm6 3.553814 1_555
I8 Sm3 3.972565 1_556
I9 Sm7 3.319254 1_556
I9 Sm2 3.319254 1_556
I9 Sm5 3.486324 1_555
I9 Sm4 3.553815 1_555
I9 Sm1 3.553815 1_555
I9 Sm3 3.972570 1_556
I10 Sm4 3.319254 1_555
I10 Sm1 3.319254 1_555
I10 Sm3 3.486324 1_555
I10 Sm7 3.553815 1_555
I10 Sm2 3.553815 1_555
I10 Sm5 3.972570 1_555
I11 Sm6 3.240055 1_565
I11 Sm1 3.240064 1_555
I11 Sm2 3.340965 1_556
I11 Sm5 3.438101 1_555
O0 Sm6 2.261699 1_555
O0 Sm4 2.261699 1_555
O0 Sm1 2.261699 1_555
O0 Sm3 2.412521 1_555
O1 Sm0 2.261699 1_555
O1 Sm7 2.261699 1_555
O1 Sm2 2.261699 1_555
O1 Sm5 2.412521 1_554
