# generated using pymatgen
data_Rb4V5CdClO15
_symmetry_space_group_name_H-M   'P 1'
_cell_length_a   9.28674300
_cell_length_b   9.28674300
_cell_length_c   5.78633300
_cell_angle_alpha   90.00000000
_cell_angle_beta   90.00000000
_cell_angle_gamma   90.00000000
_symmetry_Int_Tables_number   1
_chemical_formula_structural   Rb4V5CdClO15
_chemical_formula_sum   'Rb4 V5 Cd1 Cl1 O15'
_cell_volume   499.03416296
_cell_formula_units_Z   1
loop_
 _symmetry_equiv_pos_site_id
 _symmetry_equiv_pos_as_xyz
  1  'x, y, z'
loop_
 _atom_site_type_symbol
 _atom_site_label
 _atom_site_symmetry_multiplicity
 _atom_site_fract_x
 _atom_site_fract_y
 _atom_site_fract_z
 _atom_site_occupancy
  Rb  Rb0  1  0.67648600  0.83523900  0.93796600  1
  Rb  Rb1  1  0.16476100  0.67648600  0.93796600  1
  Rb  Rb2  1  0.32351400  0.16476100  0.93796600  1
  Rb  Rb3  1  0.83523900  0.32351400  0.93796600  1
  V  V0  1  0.61763800  0.14266300  0.46111500  1
  V  V1  1  0.14266300  0.38236200  0.46111500  1
  V  V2  1  0.38236200  0.85733700  0.46111500  1
  V  V3  1  0.50000000  0.50000000  0.48879300  1
  V  V4  1  0.85733700  0.61763800  0.46111500  1
  Cd  Cd0  1  0.00000000  0.00000000  0.48957500  1
  Cl  Cl0  1  0.00000000  0.00000000  0.04385800  1
  O  O0  1  0.14302800  0.38528100  0.17268700  1
  O  O1  1  0.00000000  0.50000000  0.57203300  1
  O  O2  1  0.78735100  0.11229100  0.56235100  1
  O  O3  1  0.11229100  0.21264900  0.56235100  1
  O  O4  1  0.61471900  0.14302800  0.17268700  1
  O  O5  1  0.50000000  0.50000000  0.20819600  1
  O  O6  1  0.21264900  0.88770900  0.56235100  1
  O  O7  1  0.44575500  0.68982600  0.57563500  1
  O  O8  1  0.68982600  0.55424500  0.57563500  1
  O  O9  1  0.31017400  0.44575500  0.57563500  1
  O  O10  1  0.50000000  0.00000000  0.57203300  1
  O  O11  1  0.38528100  0.85697200  0.17268700  1
  O  O12  1  0.88770900  0.78735100  0.56235100  1
  O  O13  1  0.85697200  0.61471900  0.17268700  1
  O  O14  1  0.55424500  0.31017400  0.57563500  1
loop_
_geom_bond_atom_site_label_1
_geom_bond_atom_site_label_2
_geom_bond_distance
_geom_bond_site_symmetry_2
Cd0 O3 2.272598 1_555
Cd0 O6 2.272598 1_545
Cd0 O2 2.272598 1_455
Cd0 O12 2.272598 1_445
Cd0 Cl0 2.579067 1_555
Cl0 Rb2 3.426804 1_554
Cl0 Rb3 3.426804 1_454
Cl0 Rb0 3.426804 1_444
Cl0 Rb1 3.426804 1_544
O0 V1 1.669164 1_555
O0 Rb2 2.974556 1_554
O0 Rb1 3.032962 1_554
O0 Rb3 3.216190 1_454
O1 V1 1.833224 1_555
O1 V4 1.833224 1_455
O1 Rb1 3.083969 1_555
O1 Rb3 3.083969 1_455
O2 V0 1.704914 1_555
O2 Rb3 2.961311 1_555
O2 Rb0 3.521890 1_545
O3 V1 1.704914 1_555
O3 Rb2 2.961311 1_555
O3 Rb3 3.521890 1_455
O4 V0 1.669164 1_555
O4 Rb3 2.974556 1_554
O4 Rb2 3.032962 1_554
O4 Rb0 3.216190 1_544
O5 V3 1.623628 1_555
O6 V2 1.704914 1_555
O6 Rb1 2.961311 1_555
O6 Rb2 3.521890 1_565
O7 V2 1.790441 1_555
O7 V3 1.901045 1_555
O7 Rb0 3.287939 1_555
O7 Rb1 3.349707 1_555
O8 V4 1.790441 1_555
O8 V3 1.901045 1_555
O8 Rb3 3.287939 1_555
O8 Rb0 3.349707 1_555
O9 V1 1.790441 1_555
O9 V3 1.901045 1_555
O9 Rb1 3.287939 1_555
O9 Rb2 3.349707 1_555
O10 V0 1.833224 1_555
O10 V2 1.833224 1_545
O10 Rb0 3.083969 1_545
O10 Rb2 3.083969 1_555
O11 V2 1.669164 1_555
O11 Rb1 2.974556 1_554
O11 Rb0 3.032962 1_554
O11 Rb2 3.216190 1_564
O12 V4 1.704914 1_555
O12 Rb0 2.961311 1_555
O12 Rb1 3.521890 1_655
O13 V4 1.669164 1_555
O13 Rb0 2.974556 1_554
O13 Rb3 3.032962 1_554
O13 Rb1 3.216190 1_654
O14 V0 1.790441 1_555
O14 V3 1.901045 1_555
O14 Rb2 3.287939 1_555
O14 Rb3 3.349707 1_555
