# generated using pymatgen
data_CsPPbS4
_symmetry_space_group_name_H-M   'P 1'
_cell_length_a   6.50681389
_cell_length_b   6.85809932
_cell_length_c   18.07838552
_cell_angle_alpha   90.00000000
_cell_angle_beta   90.00000000
_cell_angle_gamma   90.00000000
_symmetry_Int_Tables_number   1
_chemical_formula_structural   CsPPbS4
_chemical_formula_sum   'Cs4 P4 Pb4 S16'
_cell_volume   806.73667137
_cell_formula_units_Z   4
loop_
 _symmetry_equiv_pos_site_id
 _symmetry_equiv_pos_as_xyz
  1  'x, y, z'
loop_
 _atom_site_type_symbol
 _atom_site_label
 _atom_site_symmetry_multiplicity
 _atom_site_fract_x
 _atom_site_fract_y
 _atom_site_fract_z
 _atom_site_occupancy
  Cs  Cs0  1  0.97504941  0.75000000  0.79090642  1
  Cs  Cs1  1  0.02495059  0.25000000  0.20909358  1
  Cs  Cs2  1  0.47504941  0.25000000  0.70909358  1
  Cs  Cs3  1  0.52495059  0.75000000  0.29090642  1
  P  P0  1  0.21860702  0.25000000  0.90881127  1
  P  P1  1  0.28139298  0.25000000  0.40881127  1
  P  P2  1  0.71860702  0.75000000  0.59118873  1
  P  P3  1  0.78139298  0.75000000  0.09118873  1
  Pb  Pb0  1  0.21288317  0.75000000  0.51728698  1
  Pb  Pb1  1  0.28711683  0.75000000  0.01728698  1
  Pb  Pb2  1  0.78711683  0.25000000  0.48271302  1
  Pb  Pb3  1  0.71288317  0.25000000  0.98271302  1
  S  S0  1  0.39433508  0.49018452  0.88680894  1
  S  S1  1  0.14854885  0.25000000  0.01931715  1
  S  S2  1  0.10566492  0.49018452  0.38680894  1
  S  S3  1  0.46023571  0.75000000  0.65421907  1
  S  S4  1  0.60566492  0.99018452  0.11319106  1
  S  S5  1  0.39433508  0.00981548  0.88680894  1
  S  S6  1  0.10566492  0.00981548  0.38680894  1
  S  S7  1  0.35145115  0.25000000  0.51931715  1
  S  S8  1  0.85145115  0.75000000  0.98068285  1
  S  S9  1  0.03976429  0.75000000  0.15421907  1
  S  S10  1  0.53976429  0.25000000  0.34578093  1
  S  S11  1  0.89433508  0.50981548  0.61319106  1
  S  S12  1  0.96023571  0.25000000  0.84578093  1
  S  S13  1  0.60566492  0.50981548  0.11319106  1
  S  S14  1  0.89433508  0.99018452  0.61319106  1
  S  S15  1  0.64854885  0.75000000  0.48068285  1
loop_
_geom_bond_atom_site_label_1
_geom_bond_atom_site_label_2
_geom_bond_distance
_geom_bond_site_symmetry_2
Cs0 S8 3.523851 1_555
Cs0 S12 3.570969 1_565
Cs0 S12 3.570969 1_555
Cs0 S14 3.648459 1_555
Cs0 S11 3.648459 1_555
Cs0 S0 3.691076 1_655
Cs0 S5 3.691076 1_665
Cs0 S3 4.009118 1_655
Cs1 S1 3.523851 1_555
Cs1 S9 3.570969 1_555
Cs1 S9 3.570969 1_545
Cs1 S2 3.648459 1_555
Cs1 S6 3.648459 1_555
Cs1 S4 3.691076 1_445
Cs1 S13 3.691076 1_455
Cs1 S10 4.009118 1_455
Cs2 S7 3.523851 1_555
Cs2 S3 3.570969 1_555
Cs2 S3 3.570969 1_545
Cs2 S5 3.648459 1_555
Cs2 S0 3.648459 1_555
Cs2 S11 3.691076 1_555
Cs2 S14 3.691076 1_545
Cs2 S12 4.009118 1_555
Cs3 S15 3.523851 1_555
Cs3 S10 3.570969 1_565
Cs3 S10 3.570969 1_555
Cs3 S13 3.648459 1_555
Cs3 S4 3.648459 1_555
Cs3 S2 3.691076 1_555
Cs3 S6 3.691076 1_565
Cs3 S9 4.009118 1_555
P0 S12 2.030955 1_455
P0 S5 2.044248 1_555
P0 S0 2.044248 1_555
P0 S1 2.049117 1_556
P1 S10 2.030955 1_555
P1 S6 2.044248 1_555
P1 S2 2.044248 1_555
P1 S7 2.049117 1_555
P2 S3 2.030955 1_555
P2 S11 2.044248 1_555
P2 S14 2.044248 1_555
P2 S15 2.049117 1_555
P3 S9 2.030955 1_655
P3 S4 2.044248 1_555
P3 S13 2.044248 1_555
P3 S8 2.049117 1_554
Pb0 S15 2.911008 1_555
Pb0 S3 2.952723 1_555
Pb0 S2 3.037394 1_555
Pb0 S6 3.037394 1_565
Pb0 S11 3.164736 1_455
Pb0 S14 3.164736 1_455
Pb1 S8 2.911008 1_454
Pb1 S9 2.952723 1_555
Pb1 S0 3.037394 1_554
Pb1 S5 3.037394 1_564
Pb1 S4 3.164736 1_555
Pb1 S13 3.164736 1_555
Pb2 S7 2.911008 1_555
Pb2 S10 2.952723 1_555
Pb2 S11 3.037394 1_555
Pb2 S14 3.037394 1_545
Pb2 S2 3.164736 1_655
Pb2 S6 3.164736 1_655
Pb3 S1 2.911008 1_656
Pb3 S12 2.952723 1_555
Pb3 S13 3.037394 1_556
Pb3 S4 3.037394 1_546
Pb3 S5 3.164736 1_555
Pb3 S0 3.164736 1_555
