# generated using pymatgen
data_BaLiCrF6
_symmetry_space_group_name_H-M   'P 1'
_cell_length_a   10.60052600
_cell_length_b   5.48778800
_cell_length_c   8.80331328
_cell_angle_alpha   89.20647292
_cell_angle_beta   90.00000000
_cell_angle_gamma   90.00000000
_symmetry_Int_Tables_number   1
_chemical_formula_structural   BaLiCrF6
_chemical_formula_sum   'Ba4 Li4 Cr4 F24'
_cell_volume   512.06989673
_cell_formula_units_Z   4
loop_
 _symmetry_equiv_pos_site_id
 _symmetry_equiv_pos_as_xyz
  1  'x, y, z'
loop_
 _atom_site_type_symbol
 _atom_site_label
 _atom_site_symmetry_multiplicity
 _atom_site_fract_x
 _atom_site_fract_y
 _atom_site_fract_z
 _atom_site_occupancy
  Ba  Ba0  1  0.68667200  0.30151900  0.49678800  1
  Ba  Ba1  1  0.81332800  0.30151900  0.99678800  1
  Ba  Ba2  1  0.31332800  0.69848100  0.50321200  1
  Ba  Ba3  1  0.18667200  0.69848100  0.00321200  1
  Li  Li0  1  0.91130200  0.75921800  0.67913100  1
  Li  Li1  1  0.08869800  0.24078200  0.32086900  1
  Li  Li2  1  0.41130200  0.24078200  0.82086900  1
  Li  Li3  1  0.58869800  0.75921800  0.17913100  1
  Cr  Cr0  1  0.91178200  0.76085900  0.26911500  1
  Cr  Cr1  1  0.41178200  0.23914100  0.23088500  1
  Cr  Cr2  1  0.08821800  0.23914100  0.73088500  1
  Cr  Cr3  1  0.58821800  0.76085900  0.76911500  1
  F  F0  1  0.24726600  0.39822500  0.25793800  1
  F  F1  1  0.00652200  0.53887100  0.80108600  1
  F  F2  1  0.08175300  0.89627600  0.29206700  1
  F  F3  1  0.75273400  0.60177500  0.74206200  1
  F  F4  1  0.49347800  0.53887100  0.30108600  1
  F  F5  1  0.60435400  0.65859300  0.97844400  1
  F  F6  1  0.91824700  0.10372400  0.70793300  1
  F  F7  1  0.58175300  0.10372400  0.20793300  1
  F  F8  1  0.83986200  0.07655600  0.30881600  1
  F  F9  1  0.89564600  0.65859300  0.47844400  1
  F  F10  1  0.16013800  0.92344400  0.69118400  1
  F  F11  1  0.40702400  0.16040600  0.44729600  1
  F  F12  1  0.59297600  0.83959400  0.55270400  1
  F  F13  1  0.50652200  0.46112900  0.69891400  1
  F  F14  1  0.25273400  0.39822500  0.75793800  1
  F  F15  1  0.74726600  0.60177500  0.24206200  1
  F  F16  1  0.33986200  0.92344400  0.19118400  1
  F  F17  1  0.99347800  0.46112900  0.19891400  1
  F  F18  1  0.39564600  0.34140700  0.02155600  1
  F  F19  1  0.66013800  0.07655600  0.80881600  1
  F  F20  1  0.10435400  0.34140700  0.52155600  1
  F  F21  1  0.09297600  0.16040600  0.94729600  1
  F  F22  1  0.90702400  0.83959400  0.05270400  1
  F  F23  1  0.41824700  0.89627600  0.79206700  1
loop_
_geom_bond_atom_site_label_1
_geom_bond_atom_site_label_2
_geom_bond_distance
_geom_bond_site_symmetry_2
Ba0 F8 2.637426 1_555
Ba0 F12 2.760470 1_545
Ba0 F13 2.761062 1_555
Ba0 F3 2.822455 1_555
Ba0 F15 2.837921 1_555
Ba0 F9 2.960473 1_555
Ba0 F4 2.965925 1_555
Ba0 F7 2.992974 1_555
Ba0 F19 3.009094 1_555
Ba0 F11 3.096228 1_555
Ba0 F12 3.160433 1_555
Ba0 F6 3.256302 1_555
Ba1 F19 2.637426 1_555
Ba1 F22 2.760470 1_546
Ba1 F17 2.761062 1_556
Ba1 F15 2.822455 1_556
Ba1 F3 2.837921 1_555
Ba1 F5 2.960473 1_555
Ba1 F1 2.965925 1_655
Ba1 F6 2.992974 1_555
Ba1 F8 3.009094 1_556
Ba1 F21 3.096228 1_655
Ba1 F22 3.160433 1_556
Ba1 F7 3.256302 1_556
Ba2 F10 2.637426 1_555
Ba2 F11 2.760470 1_565
Ba2 F4 2.761062 1_555
Ba2 F0 2.822455 1_555
Ba2 F14 2.837921 1_555
Ba2 F20 2.960473 1_555
Ba2 F13 2.965925 1_555
Ba2 F23 2.992974 1_555
Ba2 F16 3.009094 1_555
Ba2 F12 3.096228 1_555
Ba2 F11 3.160433 1_555
Ba2 F2 3.256302 1_555
Ba3 F16 2.637426 1_555
Ba3 F21 2.760470 1_564
Ba3 F1 2.761062 1_554
Ba3 F14 2.822455 1_554
Ba3 F0 2.837921 1_555
Ba3 F18 2.960473 1_555
Ba3 F17 2.965925 1_455
Ba3 F2 2.992974 1_555
Ba3 F10 3.009094 1_554
Ba3 F22 3.096228 1_455
Ba3 F21 3.160433 1_554
Ba3 F23 3.256302 1_554
Cr0 F9 1.926511 1_555
Cr0 F8 1.929155 1_565
Cr0 F22 1.948325 1_555
Cr0 F2 1.960525 1_655
Cr0 F17 1.966118 1_555
Cr0 F15 1.966220 1_555
Cr1 F18 1.926511 1_555
Cr1 F16 1.929155 1_545
Cr1 F11 1.948325 1_555
Cr1 F7 1.960525 1_555
Cr1 F4 1.966118 1_555
Cr1 F0 1.966220 1_555
Cr2 F20 1.926511 1_555
Cr2 F10 1.929155 1_545
Cr2 F21 1.948325 1_555
Cr2 F6 1.960525 1_455
Cr2 F1 1.966118 1_555
Cr2 F14 1.966220 1_555
Cr3 F5 1.926511 1_555
Cr3 F19 1.929155 1_565
Cr3 F12 1.948325 1_555
Cr3 F23 1.960525 1_555
Cr3 F13 1.966118 1_555
Cr3 F3 1.966220 1_555
F0 Li1 1.966117 1_555
F1 Li0 1.896770 1_455
F2 Li1 1.912397 1_565
F3 Li0 1.966117 1_555
F4 Li3 1.896770 1_555
F5 Li3 1.865681 1_556
F6 Li0 1.912397 1_545
F7 Li3 1.912397 1_545
F9 Li0 1.865681 1_555
F13 Li2 1.896770 1_555
F14 Li2 1.966117 1_555
F15 Li3 1.966117 1_555
F17 Li1 1.896770 1_655
F18 Li2 1.865681 1_554
F20 Li1 1.865681 1_555
F23 Li2 1.912397 1_565
