# generated using pymatgen
data_Na3SbP2O9
_symmetry_space_group_name_H-M   'P 1'
_cell_length_a   6.97953966
_cell_length_b   9.24919896
_cell_length_c   12.31133290
_cell_angle_alpha   90.00000000
_cell_angle_beta   90.00000000
_cell_angle_gamma   90.00000000
_symmetry_Int_Tables_number   1
_chemical_formula_structural   Na3SbP2O9
_chemical_formula_sum   'Na12 Sb4 P8 O36'
_cell_volume   794.75995393
_cell_formula_units_Z   4
loop_
 _symmetry_equiv_pos_site_id
 _symmetry_equiv_pos_as_xyz
  1  'x, y, z'
loop_
 _atom_site_type_symbol
 _atom_site_label
 _atom_site_symmetry_multiplicity
 _atom_site_fract_x
 _atom_site_fract_y
 _atom_site_fract_z
 _atom_site_occupancy
  Na  Na0  1  0.37761184  0.39223885  0.65645454  1
  Na  Na1  1  0.25597627  0.91570669  0.01334989  1
  Na  Na2  1  0.81877925  0.25530288  0.74102605  1
  Na  Na3  1  0.18122075  0.75530288  0.75897395  1
  Na  Na4  1  0.12238816  0.60776115  0.15645454  1
  Na  Na5  1  0.87761184  0.10776115  0.34354546  1
  Na  Na6  1  0.62238816  0.89223885  0.84354546  1
  Na  Na7  1  0.68122075  0.74469712  0.24102605  1
  Na  Na8  1  0.75597627  0.58429331  0.98665011  1
  Na  Na9  1  0.24402373  0.08429331  0.51334989  1
  Na  Na10  1  0.31877925  0.24469712  0.25897395  1
  Na  Na11  1  0.74402373  0.41570669  0.48665011  1
  Sb  Sb0  1  0.52233859  0.25379625  0.99544134  1
  Sb  Sb1  1  0.97766141  0.74620375  0.49544134  1
  Sb  Sb2  1  0.47766141  0.75379625  0.50455866  1
  Sb  Sb3  1  0.02233859  0.24620375  0.00455866  1
  P  P0  1  0.27284812  0.12567631  0.79708891  1
  P  P1  1  0.77284812  0.37432369  0.20291109  1
  P  P2  1  0.23632372  0.46882902  0.42086772  1
  P  P3  1  0.22715188  0.87432369  0.29708891  1
  P  P4  1  0.72715188  0.62567631  0.70291109  1
  P  P5  1  0.73632372  0.03117098  0.57913228  1
  P  P6  1  0.76367628  0.96882902  0.07913228  1
  P  P7  1  0.26367628  0.53117098  0.92086772  1
  O  O0  1  0.45318436  0.21182904  0.84277635  1
  O  O1  1  0.04916730  0.54080837  0.47080222  1
  O  O2  1  0.74674609  0.99277035  0.19873670  1
  O  O3  1  0.59427932  0.04594993  0.01333614  1
  O  O4  1  0.09427932  0.45405007  0.98666386  1
  O  O5  1  0.20747665  0.03040916  0.32939494  1
  O  O6  1  0.75851609  0.81416380  0.04388095  1
  O  O7  1  0.90572068  0.95405007  0.51333614  1
  O  O8  1  0.72350965  0.69450062  0.44368037  1
  O  O9  1  0.09028739  0.19575799  0.85325565  1
  O  O10  1  0.25851609  0.68583620  0.95611905  1
  O  O11  1  0.29252335  0.96959084  0.82939494  1
  O  O12  1  0.04681564  0.78817096  0.34277635  1
  O  O13  1  0.24148391  0.31416380  0.45611905  1
  O  O14  1  0.45083270  0.45919163  0.97080222  1
  O  O15  1  0.77649035  0.30549938  0.94368037  1
  O  O16  1  0.25762089  0.16258418  0.67985558  1
  O  O17  1  0.59028739  0.30424201  0.14674435  1
  O  O18  1  0.27649035  0.19450062  0.05631963  1
  O  O19  1  0.40572068  0.54594993  0.48666386  1
  O  O20  1  0.24674609  0.50722965  0.80126330  1
  O  O21  1  0.22350965  0.80549938  0.55631963  1
  O  O22  1  0.40971261  0.80424201  0.35325565  1
  O  O23  1  0.70747665  0.46959084  0.67060506  1
  O  O24  1  0.90971261  0.69575799  0.64674435  1
  O  O25  1  0.95083270  0.04080837  0.02919778  1
  O  O26  1  0.24237911  0.83741582  0.17985558  1
  O  O27  1  0.75325391  0.00722965  0.69873670  1
  O  O28  1  0.54681564  0.71182904  0.65722365  1
  O  O29  1  0.79252335  0.53040916  0.17060506  1
  O  O30  1  0.25325391  0.49277035  0.30126330  1
  O  O31  1  0.95318436  0.28817096  0.15722365  1
  O  O32  1  0.75762089  0.33741582  0.32014442  1
  O  O33  1  0.54916730  0.95919163  0.52919778  1
  O  O34  1  0.74148391  0.18583620  0.54388095  1
  O  O35  1  0.74237911  0.66258418  0.82014442  1
loop_
_geom_bond_atom_site_label_1
_geom_bond_atom_site_label_2
_geom_bond_distance
_geom_bond_site_symmetry_2
Na0 O20 2.267993 1_555
Na0 O16 2.301362 1_555
Na0 O23 2.417192 1_555
Na0 O19 2.535605 1_555
Na0 O13 2.739945 1_555
Na0 O0 2.885210 1_555
Na1 O26 2.176117 1_555
Na1 O10 2.239896 1_554
Na1 O11 2.332908 1_554
Na1 O25 2.431627 1_465
Na1 O18 2.636217 1_565
Na1 O3 2.650742 1_565
Na2 O23 2.298570 1_555
Na2 O27 2.396842 1_555
Na2 O9 2.409032 1_655
Na2 O15 2.554882 1_555
Na2 O34 2.568029 1_555
Na2 O0 2.870886 1_555
Na3 O11 2.298570 1_555
Na3 O20 2.396842 1_555
Na3 O24 2.409032 1_455
Na3 O21 2.554882 1_555
Na3 O10 2.568029 1_555
Na3 O28 2.870886 1_555
Na4 O30 2.267993 1_555
Na4 O26 2.301362 1_555
Na4 O29 2.417192 1_455
Na4 O4 2.535605 1_554
Na4 O10 2.739945 1_554
Na4 O12 2.885210 1_555
Na5 O2 2.267993 1_545
Na5 O32 2.301362 1_555
Na5 O5 2.417192 1_655
Na5 O7 2.535605 1_545
Na5 O34 2.739945 1_555
Na5 O31 2.885210 1_555
Na6 O27 2.267993 1_565
Na6 O35 2.301362 1_555
Na6 O11 2.417192 1_555
Na6 O3 2.535605 1_566
Na6 O6 2.739945 1_556
Na6 O28 2.885210 1_555
Na7 O29 2.298570 1_555
Na7 O2 2.396842 1_555
Na7 O22 2.409032 1_555
Na7 O8 2.554882 1_555
Na7 O6 2.568029 1_555
Na7 O12 2.870886 1_655
Na8 O35 2.176117 1_555
Na8 O6 2.239896 1_556
Na8 O29 2.332908 1_556
Na8 O14 2.431627 1_555
Na8 O15 2.636217 1_555
Na8 O4 2.650742 1_655
Na9 O16 2.176117 1_555
Na9 O13 2.239896 1_555
Na9 O5 2.332908 1_555
Na9 O33 2.431627 1_545
Na9 O21 2.636217 1_545
Na9 O7 2.650742 1_445
Na10 O5 2.298570 1_555
Na10 O30 2.396842 1_555
Na10 O17 2.409032 1_555
Na10 O18 2.554882 1_555
Na10 O13 2.568029 1_555
Na10 O31 2.870886 1_455
Na11 O32 2.176117 1_555
Na11 O34 2.239896 1_555
Na11 O23 2.332908 1_555
Na11 O1 2.431627 1_655
Na11 O8 2.636217 1_555
Na11 O19 2.650742 1_555
O0 P0 1.592348 1_555
O0 Sb0 1.978937 1_555
O1 P2 1.589807 1_555
O1 Sb1 1.987490 1_455
O2 P6 1.493728 1_555
O3 P6 1.600885 1_545
O3 Sb0 1.999080 1_554
O4 P7 1.600885 1_555
O4 Sb3 1.999080 1_556
O5 P3 1.503735 1_545
O6 P6 1.495346 1_555
O7 P5 1.600885 1_565
O7 Sb1 1.999080 1_555
O8 Sb1 1.944571 1_555
O8 Sb2 1.951118 1_555
O9 P0 1.588042 1_555
O9 Sb3 1.977984 1_556
O10 P7 1.495346 1_555
O11 P0 1.503735 1_565
O12 P3 1.592348 1_555
O12 Sb1 1.978937 1_455
O13 P2 1.495346 1_555
O14 P7 1.589807 1_555
O14 Sb0 1.987490 1_555
O15 Sb0 1.944571 1_555
O15 Sb3 1.951118 1_656
O16 P0 1.486922 1_555
O17 P1 1.588042 1_555
O17 Sb0 1.977984 1_554
O18 Sb3 1.944571 1_555
O18 Sb0 1.951118 1_554
O19 P2 1.600885 1_555
O19 Sb2 1.999080 1_555
O20 P7 1.493728 1_555
O21 Sb2 1.944571 1_555
O21 Sb1 1.951118 1_455
O22 P3 1.588042 1_555
O22 Sb2 1.977984 1_555
O23 P4 1.503735 1_555
O24 P4 1.588042 1_555
O24 Sb1 1.977984 1_555
O25 P6 1.589807 1_545
O25 Sb3 1.987490 1_655
O26 P3 1.486922 1_555
O27 P5 1.493728 1_555
O28 P4 1.592348 1_555
O28 Sb2 1.978937 1_555
O29 P1 1.503735 1_555
O30 P2 1.493728 1_555
O31 P1 1.592348 1_555
O31 Sb3 1.978937 1_655
O32 P1 1.486922 1_555
O33 P5 1.589807 1_565
O33 Sb2 1.987490 1_555
O34 P5 1.495346 1_555
O35 P4 1.486922 1_555
