# generated using pymatgen
data_LaTiI5O16
_symmetry_space_group_name_H-M   'P 1'
_cell_length_a   18.24249300
_cell_length_b   7.52404600
_cell_length_c   12.86102981
_cell_angle_alpha   55.86831010
_cell_angle_beta   90.00000000
_cell_angle_gamma   90.00000000
_symmetry_Int_Tables_number   1
_chemical_formula_structural   LaTiI5O16
_chemical_formula_sum   'La4 Ti4 I20 O64'
_cell_volume   1461.20324784
_cell_formula_units_Z   4
loop_
 _symmetry_equiv_pos_site_id
 _symmetry_equiv_pos_as_xyz
  1  'x, y, z'
loop_
 _atom_site_type_symbol
 _atom_site_label
 _atom_site_symmetry_multiplicity
 _atom_site_fract_x
 _atom_site_fract_y
 _atom_site_fract_z
 _atom_site_occupancy
  La  La0  1  0.23322000  0.98299600  0.25879900  1
  La  La1  1  0.26678000  0.98299600  0.75879900  1
  La  La2  1  0.76678000  0.01700400  0.74120100  1
  La  La3  1  0.73322000  0.01700400  0.24120100  1
  Ti  Ti0  1  0.50170100  0.49865700  0.76573500  1
  Ti  Ti1  1  0.00170100  0.50134300  0.73426500  1
  Ti  Ti2  1  0.99829900  0.49865700  0.26573500  1
  Ti  Ti3  1  0.49829900  0.50134300  0.23426500  1
  I  I0  1  0.62203400  0.47331500  0.43296900  1
  I  I1  1  0.36816500  0.11767800  0.44931900  1
  I  I2  1  0.50533400  0.98999900  0.24688200  1
  I  I3  1  0.87796600  0.47331500  0.93296900  1
  I  I4  1  0.67982900  0.32411300  0.90093200  1
  I  I5  1  0.66374700  0.66660200  0.06291000  1
  I  I6  1  0.99466600  0.98999900  0.74688200  1
  I  I7  1  0.37796600  0.52668500  0.56703100  1
  I  I8  1  0.33625300  0.33339800  0.93709000  1
  I  I9  1  0.17982900  0.67588700  0.59906800  1
  I  I10  1  0.32017100  0.67588700  0.09906800  1
  I  I11  1  0.12203400  0.52668500  0.06703100  1
  I  I12  1  0.49466600  0.01000100  0.75311800  1
  I  I13  1  0.82017100  0.32411300  0.40093200  1
  I  I14  1  0.83625300  0.66660200  0.56291000  1
  I  I15  1  0.00533400  0.01000100  0.25311800  1
  I  I16  1  0.16374700  0.33339800  0.43709000  1
  I  I17  1  0.13183500  0.11767800  0.94931900  1
  I  I18  1  0.63183500  0.88232200  0.55068100  1
  I  I19  1  0.86816500  0.88232200  0.05068100  1
  O  O0  1  0.20038600  0.20399900  0.01939100  1
  O  O1  1  0.41721000  0.69733500  0.13908900  1
  O  O2  1  0.58721500  0.35107800  0.35037100  1
  O  O3  1  0.09687500  0.99879500  0.19829800  1
  O  O4  1  0.91278500  0.35107800  0.85037100  1
  O  O5  1  0.16892700  0.59682800  0.41461400  1
  O  O6  1  0.70038600  0.79600100  0.48060900  1
  O  O7  1  0.30519600  0.73725200  0.47982600  1
  O  O8  1  0.19480400  0.73725200  0.97982600  1
  O  O9  1  0.17607000  0.94411200  0.45150600  1
  O  O10  1  0.22627400  0.72933600  0.70437500  1
  O  O11  1  0.29961400  0.20399900  0.51939100  1
  O  O12  1  0.40312500  0.99879500  0.69829800  1
  O  O13  1  0.69480400  0.26274800  0.52017400  1
  O  O14  1  0.72627400  0.27066400  0.79562500  1
  O  O15  1  0.32393000  0.94411200  0.95150600  1
  O  O16  1  0.58279000  0.30266500  0.86091100  1
  O  O17  1  0.18298200  0.21245700  0.80544300  1
  O  O18  1  0.94818800  0.10338100  0.11481300  1
  O  O19  1  0.06973500  0.34985000  0.89064500  1
  O  O20  1  0.08721500  0.64892200  0.14962900  1
  O  O21  1  0.51262800  0.70209600  0.79251500  1
  O  O22  1  0.93605400  0.68265700  0.58752800  1
  O  O23  1  0.82393000  0.05588800  0.54849400  1
  O  O24  1  0.18576700  0.34040900  0.19102700  1
  O  O25  1  0.98737200  0.70209600  0.29251500  1
  O  O26  1  0.66892700  0.40317200  0.08538600  1
  O  O27  1  0.52412900  0.69128500  0.30266800  1
  O  O28  1  0.33107300  0.59682800  0.91461400  1
  O  O29  1  0.02412900  0.30871500  0.19733200  1
  O  O30  1  0.31701800  0.21245700  0.30544300  1
  O  O31  1  0.56394600  0.68265700  0.08752800  1
  O  O32  1  0.83107300  0.40317200  0.58538600  1
  O  O33  1  0.34150600  0.16404900  0.10777300  1
  O  O34  1  0.48737200  0.29790400  0.20748500  1
  O  O35  1  0.01262800  0.29790400  0.70748500  1
  O  O36  1  0.93026500  0.65015000  0.10935500  1
  O  O37  1  0.67607000  0.05588800  0.04849400  1
  O  O38  1  0.97587100  0.69128500  0.80266800  1
  O  O39  1  0.15849400  0.16404900  0.60777300  1
  O  O40  1  0.91721000  0.30266500  0.36091100  1
  O  O41  1  0.08279000  0.69733500  0.63908900  1
  O  O42  1  0.55181200  0.10338100  0.61481300  1
  O  O43  1  0.84150600  0.83595100  0.39222700  1
  O  O44  1  0.81423300  0.65959100  0.80897300  1
  O  O45  1  0.43026500  0.34985000  0.39064500  1
  O  O46  1  0.47587100  0.30871500  0.69733200  1
  O  O47  1  0.68576700  0.65959100  0.30897300  1
  O  O48  1  0.41278500  0.64892200  0.64962900  1
  O  O49  1  0.43605400  0.31734300  0.91247200  1
  O  O50  1  0.56973500  0.65015000  0.60935500  1
  O  O51  1  0.06394600  0.31734300  0.41247200  1
  O  O52  1  0.05181200  0.89661900  0.88518700  1
  O  O53  1  0.90312500  0.00120500  0.80170200  1
  O  O54  1  0.77372600  0.27066400  0.29562500  1
  O  O55  1  0.31423300  0.34040900  0.69102700  1
  O  O56  1  0.59687500  0.00120500  0.30170200  1
  O  O57  1  0.27372600  0.72933600  0.20437500  1
  O  O58  1  0.80519600  0.26274800  0.02017400  1
  O  O59  1  0.44818800  0.89661900  0.38518700  1
  O  O60  1  0.79961400  0.79600100  0.98060900  1
  O  O61  1  0.65849400  0.83595100  0.89222700  1
  O  O62  1  0.81701800  0.78754300  0.19455700  1
  O  O63  1  0.68298200  0.78754300  0.69455700  1
loop_
_geom_bond_atom_site_label_1
_geom_bond_atom_site_label_2
_geom_bond_distance
_geom_bond_site_symmetry_2
La0 O24 2.471938 1_565
La0 O57 2.485484 1_555
La0 O9 2.549773 1_555
La0 O33 2.561522 1_565
La0 O3 2.588881 1_555
La0 O30 2.615284 1_565
La0 O0 2.618910 1_565
La0 O5 2.701771 1_555
La0 O7 2.706494 1_555
La1 O55 2.471938 1_565
La1 O10 2.485484 1_555
La1 O15 2.549773 1_555
La1 O39 2.561522 1_565
La1 O12 2.588881 1_555
La1 O17 2.615284 1_565
La1 O11 2.618910 1_565
La1 O28 2.701771 1_555
La1 O8 2.706494 1_555
La2 O44 2.471938 1_545
La2 O14 2.485484 1_555
La2 O23 2.549773 1_555
La2 O61 2.561522 1_545
La2 O53 2.588881 1_555
La2 O63 2.615284 1_545
La2 O60 2.618910 1_545
La2 O32 2.701771 1_555
La2 O13 2.706494 1_555
La3 O47 2.471938 1_545
La3 O54 2.485484 1_555
La3 O37 2.549773 1_555
La3 O43 2.561522 1_545
La3 O56 2.588881 1_555
La3 O62 2.615284 1_545
La3 O6 2.618910 1_545
La3 O26 2.701771 1_555
La3 O58 2.706494 1_555
I0 O47 1.830581 1_555
I0 O2 1.863922 1_555
I0 O13 1.880475 1_555
I0 O27 2.367215 1_555
I1 O30 1.822713 1_555
I1 O45 1.850699 1_555
I1 O11 1.858675 1_555
I2 O59 1.828087 1_555
I2 O56 1.832918 1_565
I2 O27 1.968291 1_555
I2 O34 2.100925 1_565
I3 O44 1.830581 1_555
I3 O4 1.863922 1_555
I3 O58 1.880475 1_556
I3 O38 2.367215 1_555
I4 O14 1.823483 1_555
I4 O37 1.838803 1_556
I4 O16 1.875609 1_555
I4 O58 2.645909 1_556
I5 O61 1.820065 1_554
I5 O26 1.837959 1_555
I5 O31 1.863440 1_555
I5 O60 2.656132 1_554
I6 O52 1.828087 1_655
I6 O53 1.832918 1_565
I6 O38 1.968291 1_555
I6 O35 2.100925 1_665
I7 O55 1.830581 1_555
I7 O48 1.863922 1_555
I7 O7 1.880475 1_555
I7 O46 2.367215 1_555
I8 O33 1.820065 1_556
I8 O28 1.837959 1_555
I8 O49 1.863440 1_555
I8 O0 2.656132 1_556
I9 O10 1.823483 1_555
I9 O9 1.838803 1_555
I9 O41 1.875609 1_555
I9 O7 2.645909 1_555
I10 O57 1.823483 1_555
I10 O15 1.838803 1_554
I10 O1 1.875609 1_555
I10 O8 2.645909 1_554
I11 O24 1.830581 1_555
I11 O20 1.863922 1_555
I11 O8 1.880475 1_554
I11 O29 2.367215 1_555
I12 O42 1.828087 1_555
I12 O12 1.832918 1_545
I12 O46 1.968291 1_555
I12 O21 2.100925 1_545
I13 O54 1.823483 1_555
I13 O23 1.838803 1_555
I13 O40 1.875609 1_555
I13 O13 2.645909 1_555
I14 O43 1.820065 1_555
I14 O32 1.837959 1_555
I14 O22 1.863440 1_555
I14 O6 2.656132 1_555
I15 O18 1.828087 1_455
I15 O3 1.832918 1_545
I15 O29 1.968291 1_555
I15 O25 2.100925 1_445
I16 O39 1.820065 1_555
I16 O5 1.837959 1_555
I16 O51 1.863440 1_555
I16 O11 2.656132 1_555
I17 O17 1.822713 1_555
I17 O19 1.850699 1_555
I17 O0 1.858675 1_556
I18 O63 1.822713 1_555
I18 O50 1.850699 1_555
I18 O6 1.858675 1_555
I19 O62 1.822713 1_555
I19 O36 1.850699 1_555
I19 O60 1.858675 1_554
O1 Ti3 1.958448 1_555
O2 Ti3 2.060223 1_555
O4 Ti1 2.060223 1_655
O16 Ti0 1.958448 1_555
O19 Ti1 2.076528 1_555
O20 Ti2 2.060223 1_455
O21 Ti0 1.758684 1_555
O22 Ti1 1.991884 1_655
O25 Ti2 1.758684 1_555
O27 Ti3 2.109328 1_555
O29 Ti2 2.109328 1_455
O31 Ti3 1.991884 1_555
O34 Ti3 1.758684 1_555
O35 Ti1 1.758684 1_555
O36 Ti2 2.076528 1_555
O38 Ti1 2.109328 1_655
O40 Ti2 1.958448 1_555
O41 Ti1 1.958448 1_555
O45 Ti3 2.076528 1_555
O46 Ti0 2.109328 1_555
O48 Ti0 2.060223 1_555
O49 Ti0 1.991884 1_555
O50 Ti0 2.076528 1_555
O51 Ti2 1.991884 1_455
