# generated using pymatgen
data_La4MgIr
_symmetry_space_group_name_H-M   'P 1'
_cell_length_a   10.19313976
_cell_length_b   10.19315011
_cell_length_c   10.19314024
_cell_angle_alpha   59.99970980
_cell_angle_beta   59.99978732
_cell_angle_gamma   59.99968860
_symmetry_Int_Tables_number   1
_chemical_formula_structural   La4MgIr
_chemical_formula_sum   'La16 Mg4 Ir4'
_cell_volume   748.87050841
_cell_formula_units_Z   4
loop_
 _symmetry_equiv_pos_site_id
 _symmetry_equiv_pos_as_xyz
  1  'x, y, z'
loop_
 _atom_site_type_symbol
 _atom_site_label
 _atom_site_symmetry_multiplicity
 _atom_site_fract_x
 _atom_site_fract_y
 _atom_site_fract_z
 _atom_site_occupancy
  La  La0  1  0.44015537  0.05984439  0.44015674  1
  La  La1  1  0.81161662  0.81161719  0.18838292  1
  La  La2  1  0.05984201  0.44015769  0.05984239  1
  La  La3  1  0.18838404  0.81161482  0.18838471  1
  La  La4  1  0.81161652  0.18838195  0.18838224  1
  La  La5  1  0.05984177  0.05984166  0.44015780  1
  La  La6  1  0.65519700  0.65519618  0.65519630  1
  La  La7  1  0.65519536  0.03441283  0.65519513  1
  La  La8  1  0.18838245  0.81161714  0.81161709  1
  La  La9  1  0.03441390  0.65519514  0.65519482  1
  La  La10  1  0.05984415  0.44015771  0.44015649  1
  La  La11  1  0.18838168  0.18838283  0.81161651  1
  La  La12  1  0.65519523  0.65519568  0.03441270  1
  La  La13  1  0.44015527  0.05984253  0.05984393  1
  La  La14  1  0.81161565  0.18838352  0.81161704  1
  La  La15  1  0.44015616  0.44015830  0.05984465  1
  Mg  Mg0  1  0.73392212  0.42202100  0.42202043  1
  Mg  Mg1  1  0.42203613  0.42203605  0.42203647  1
  Mg  Mg2  1  0.42202077  0.73392159  0.42202118  1
  Mg  Mg3  1  0.42202042  0.42202114  0.73392251  1
  Ir  Ir0  1  0.85911327  0.85911177  0.85910969  1
  Ir  Ir1  1  0.85911167  0.42266599  0.85911061  1
  Ir  Ir2  1  0.85911522  0.85911053  0.42266509  1
  Ir  Ir3  1  0.42266522  0.85911036  0.85911259  1
loop_
_geom_bond_atom_site_label_1
_geom_bond_atom_site_label_2
_geom_bond_distance
_geom_bond_site_symmetry_2
La0 Mg2 3.516765 1_545
La0 Mg1 3.516888 1_555
La0 La6 3.652998 1_545
La0 La7 3.652999 1_555
La0 La11 3.810578 1_555
La0 La4 3.810586 1_555
La0 La8 3.810586 1_545
La0 La1 3.810592 1_545
La0 La10 3.876560 1_555
La0 La15 3.876569 1_555
La0 La13 3.876592 1_555
La0 La5 3.876598 1_555
La1 Mg0 3.724342 1_555
La1 Mg2 3.724343 1_555
La1 La10 3.810582 1_655
La1 La2 3.810587 1_655
La1 La13 3.810589 1_565
La2 Mg0 3.516652 1_455
La2 Mg3 3.516654 1_554
La2 La9 3.652981 1_554
La2 La8 3.810587 1_554
La2 La4 3.810609 1_455
La2 La5 3.876596 1_555
La3 Mg2 3.724201 1_555
La3 Mg1 3.724312 1_555
La3 La5 3.810589 1_565
La4 Mg0 3.724236 1_555
La4 Mg1 3.724343 1_555
La4 La5 3.810597 1_655
La5 Mg2 3.516654 1_545
La5 Mg0 3.516655 1_455
La5 La9 3.652975 1_545
La5 La7 3.652976 1_455
La5 La8 3.810581 1_545
La6 Mg2 3.711712 1_555
La6 Mg0 3.711716 1_555
La6 Mg3 3.711716 1_555
La7 Mg1 3.711538 1_555
La7 Mg0 3.711558 1_555
La7 Mg3 3.711561 1_555
La8 Mg3 3.724340 1_555
La8 Mg2 3.724343 1_555
La9 Mg1 3.711536 1_555
La9 Mg3 3.711542 1_555
La9 Mg2 3.711545 1_555
La10 Mg0 3.516768 1_455
La10 Mg1 3.516878 1_555
La10 La6 3.652985 1_455
La10 La9 3.652987 1_555
La10 La3 3.810564 1_555
La10 La11 3.810571 1_555
La10 La14 3.810600 1_455
La10 La15 3.876560 1_555
La10 La2 3.876606 1_555
La10 La5 3.876624 1_555
La11 Mg3 3.724236 1_555
La11 Mg1 3.724340 1_555
La11 La13 3.810599 1_556
La11 La2 3.810604 1_556
La12 La2 3.652978 1_655
La12 La15 3.652984 1_555
La12 La13 3.652988 1_565
La12 Mg1 3.711549 1_555
La12 Mg0 3.711550 1_555
La12 Mg2 3.711556 1_555
La13 Mg2 3.516650 1_545
La13 Mg3 3.516660 1_554
La13 La7 3.653001 1_554
La13 La3 3.810586 1_545
La13 La14 3.810597 1_554
La13 La5 3.876578 1_555
La13 La2 3.876580 1_555
La13 La15 3.876624 1_555
La14 Mg3 3.724328 1_555
La14 Mg0 3.724336 1_555
La14 La5 3.810592 1_655
La14 La15 3.810594 1_556
La15 Mg3 3.516770 1_554
La15 Mg1 3.516874 1_555
La15 La6 3.652994 1_554
La15 La3 3.810559 1_555
La15 La4 3.810573 1_555
La15 La8 3.810581 1_554
La15 La2 3.876610 1_555
Mg0 Mg1 3.178939 1_555
Mg0 Mg2 3.179237 1_555
Mg0 Mg3 3.179249 1_555
Mg1 Mg2 3.178940 1_555
Mg1 Mg3 3.178942 1_555
Mg2 Mg3 3.179237 1_555
Ir0 La8 2.952643 1_655
Ir0 La14 2.952662 1_565
Ir0 La1 2.952671 1_556
Ir0 La9 2.953936 1_655
Ir0 La7 2.953938 1_565
Ir0 La12 2.953954 1_556
Ir0 La5 3.649724 1_665
Ir0 La2 3.649742 1_656
Ir0 La13 3.649778 1_566
Ir1 La11 2.952645 1_655
Ir1 La4 2.952660 1_556
Ir1 La14 2.952675 1_555
Ir1 La6 2.953910 1_555
Ir1 La9 2.953932 1_655
Ir1 La12 2.953935 1_556
Ir1 La10 3.649752 1_655
Ir1 La2 3.649762 1_656
Ir1 La15 3.649762 1_556
Ir2 La3 2.952631 1_655
Ir2 La4 2.952654 1_565
Ir2 La1 2.952685 1_555
Ir2 La9 2.953907 1_655
Ir2 La7 2.953939 1_565
Ir2 La6 2.953941 1_555
Ir2 La5 3.649732 1_665
Ir2 La10 3.649741 1_655
Ir2 La0 3.649799 1_565
Ir3 La3 2.952655 1_556
Ir3 La11 2.952663 1_565
Ir3 La8 2.952669 1_555
Ir3 La12 2.953919 1_556
Ir3 La6 2.953926 1_555
Ir3 La7 2.953941 1_565
Ir3 La15 3.649736 1_556
Ir3 La13 3.649767 1_566
Ir3 La0 3.649769 1_565
