# generated using pymatgen
data_BaFe2(P2O7)2
_symmetry_space_group_name_H-M   'P 1'
_cell_length_a   7.55462777
_cell_length_b   7.55462777
_cell_length_c   9.85307081
_cell_angle_alpha   80.63620905
_cell_angle_beta   80.63620905
_cell_angle_gamma   89.39470454
_symmetry_Int_Tables_number   1
_chemical_formula_structural   BaFe2(P2O7)2
_chemical_formula_sum   'Ba2 Fe4 P8 O28'
_cell_volume   547.37904205
_cell_formula_units_Z   2
loop_
 _symmetry_equiv_pos_site_id
 _symmetry_equiv_pos_as_xyz
  1  'x, y, z'
loop_
 _atom_site_type_symbol
 _atom_site_label
 _atom_site_symmetry_multiplicity
 _atom_site_fract_x
 _atom_site_fract_y
 _atom_site_fract_z
 _atom_site_occupancy
  Ba  Ba0  1  0.00000000  0.50000000  0.50000000  1
  Ba  Ba1  1  0.50000000  0.00000000  0.00000000  1
  Fe  Fe0  1  0.95309200  0.04690800  0.25000000  1
  Fe  Fe1  1  0.04690800  0.95309200  0.75000000  1
  Fe  Fe2  1  0.50000000  0.50000000  0.00000000  1
  Fe  Fe3  1  0.50000000  0.50000000  0.50000000  1
  P  P0  1  0.23771600  0.32363700  0.79848500  1
  P  P1  1  0.76228400  0.67636300  0.20151500  1
  P  P2  1  0.67636300  0.76228400  0.70151500  1
  P  P3  1  0.12917200  0.74972400  0.05565300  1
  P  P4  1  0.32363700  0.23771600  0.29848500  1
  P  P5  1  0.25027600  0.87082800  0.44434700  1
  P  P6  1  0.74972400  0.12917200  0.55565300  1
  P  P7  1  0.87082800  0.25027600  0.94434700  1
  O  O0  1  0.28970400  0.45280100  0.66146100  1
  O  O1  1  0.45280100  0.28970400  0.16146100  1
  O  O2  1  0.06802500  0.86642500  0.39290200  1
  O  O3  1  0.87598900  0.76213600  0.71380900  1
  O  O4  1  0.10146400  0.76857000  0.90473800  1
  O  O5  1  0.02850000  0.37462800  0.84378100  1
  O  O6  1  0.86642500  0.06802500  0.89290200  1
  O  O7  1  0.64980100  0.30121800  0.58116800  1
  O  O8  1  0.89853600  0.23143000  0.09526200  1
  O  O9  1  0.54719900  0.71029600  0.83853900  1
  O  O10  1  0.93197500  0.13357500  0.60709800  1
  O  O11  1  0.65718800  0.64749600  0.08740900  1
  O  O12  1  0.97150000  0.62537200  0.15621900  1
  O  O13  1  0.76213600  0.87598900  0.21380900  1
  O  O14  1  0.76857000  0.10146400  0.40473800  1
  O  O15  1  0.37462800  0.02850000  0.34378100  1
  O  O16  1  0.35019900  0.69878200  0.41883200  1
  O  O17  1  0.13357500  0.93197500  0.10709800  1
  O  O18  1  0.69878200  0.35019900  0.91883200  1
  O  O19  1  0.64749600  0.65718800  0.58740900  1
  O  O20  1  0.12401100  0.23786400  0.28619100  1
  O  O21  1  0.23143000  0.89853600  0.59526200  1
  O  O22  1  0.35250400  0.34281200  0.41259100  1
  O  O23  1  0.71029600  0.54719900  0.33853900  1
  O  O24  1  0.62537200  0.97150000  0.65621900  1
  O  O25  1  0.30121800  0.64980100  0.08116800  1
  O  O26  1  0.23786400  0.12401100  0.78619100  1
  O  O27  1  0.34281200  0.35250400  0.91259100  1
loop_
_geom_bond_atom_site_label_1
_geom_bond_atom_site_label_2
_geom_bond_distance
_geom_bond_site_symmetry_2
Ba0 O10 2.818445 1_455
Ba0 O2 2.818445 1_555
Ba0 O23 2.894820 1_455
Ba0 O0 2.894820 1_555
Ba0 O22 2.960290 1_555
Ba0 O19 2.960290 1_455
Ba0 O16 2.983073 1_555
Ba0 O7 2.983073 1_455
Ba0 O3 3.148596 1_455
Ba0 O20 3.148596 1_555
Ba0 O12 3.406795 1_455
Ba0 O5 3.406795 1_555
Ba1 O6 2.818445 1_554
Ba1 O17 2.818445 1_545
Ba1 O9 2.894820 1_544
Ba1 O1 2.894820 1_555
Ba1 O27 2.960290 1_554
Ba1 O11 2.960290 1_545
Ba1 O18 2.983073 1_554
Ba1 O25 2.983073 1_545
Ba1 O26 3.148596 1_554
Ba1 O13 3.148596 1_545
Ba1 O24 3.406795 1_544
Ba1 O15 3.406795 1_555
Fe0 O8 1.984533 1_555
Fe0 O14 1.984533 1_555
Fe0 O20 2.057210 1_655
Fe0 O13 2.057210 1_545
Fe0 O17 2.084133 1_645
Fe0 O2 2.084133 1_645
Fe1 O21 1.984533 1_555
Fe1 O4 1.984533 1_555
Fe1 O3 2.057210 1_455
Fe1 O26 2.057210 1_565
Fe1 O10 2.084133 1_465
Fe1 O6 2.084133 1_465
Fe2 O25 2.010796 1_555
Fe2 O18 2.010796 1_554
Fe2 O11 2.016568 1_555
Fe2 O27 2.016568 1_554
Fe2 O9 2.046213 1_554
Fe2 O1 2.046213 1_555
Fe3 O7 2.010796 1_555
Fe3 O16 2.010796 1_555
Fe3 O19 2.016568 1_555
Fe3 O22 2.016568 1_555
Fe3 O0 2.046213 1_555
Fe3 O23 2.046213 1_555
O0 P0 1.528416 1_555
O1 P4 1.528416 1_555
O2 P5 1.545084 1_555
O3 P2 1.532451 1_555
O4 P3 1.518865 1_556
O5 P7 1.618608 1_455
O5 P0 1.630722 1_555
O6 P7 1.545084 1_555
O7 P6 1.531739 1_555
O8 P7 1.518865 1_554
O9 P2 1.528416 1_555
O10 P6 1.545084 1_555
O11 P1 1.521803 1_555
O12 P3 1.618608 1_655
O12 P1 1.630722 1_555
O13 P1 1.532451 1_555
O14 P6 1.518865 1_555
O15 P5 1.618608 1_545
O15 P4 1.630722 1_555
O16 P5 1.531739 1_555
O17 P3 1.545084 1_555
O18 P7 1.531739 1_555
O19 P2 1.521803 1_555
O20 P4 1.532451 1_555
O21 P5 1.518865 1_555
O22 P4 1.521803 1_555
O23 P1 1.528416 1_555
O24 P6 1.618608 1_565
O24 P2 1.630722 1_555
O25 P3 1.531739 1_555
O26 P0 1.532451 1_555
O27 P0 1.521803 1_555
