# generated using pymatgen
data_CoSb(CO)3
_symmetry_space_group_name_H-M   'P 1'
_cell_length_a   12.00282019
_cell_length_b   12.00282019
_cell_length_c   12.00282019
_cell_angle_alpha   101.85650874
_cell_angle_beta   101.85650874
_cell_angle_gamma   126.09155460
_symmetry_Int_Tables_number   1
_chemical_formula_structural   CoSb(CO)3
_chemical_formula_sum   'Co8 Sb8 C24 O24'
_cell_volume   1245.54667066
_cell_formula_units_Z   8
loop_
 _symmetry_equiv_pos_site_id
 _symmetry_equiv_pos_as_xyz
  1  'x, y, z'
loop_
 _atom_site_type_symbol
 _atom_site_label
 _atom_site_symmetry_multiplicity
 _atom_site_fract_x
 _atom_site_fract_y
 _atom_site_fract_z
 _atom_site_occupancy
  Co  Co0  1  0.99761600  0.13740200  0.86021500  1
  Co  Co1  1  0.97281300  0.61259800  0.36021500  1
  Co  Co2  1  0.86259800  0.00238400  0.13978500  1
  Co  Co3  1  0.27718700  0.13740200  0.13978500  1
  Co  Co4  1  0.38740200  0.02718700  0.63978500  1
  Co  Co5  1  0.38740200  0.74761600  0.36021500  1
  Co  Co6  1  0.25238400  0.61259800  0.63978500  1
  Co  Co7  1  0.86259800  0.72281300  0.86021500  1
  Sb  Sb0  1  0.14561200  0.75106800  0.60545600  1
  Sb  Sb1  1  0.00106800  0.89561200  0.10545600  1
  Sb  Sb2  1  0.45984300  0.85438700  0.60545600  1
  Sb  Sb3  1  0.10438800  0.20984300  0.10545600  1
  Sb  Sb4  1  0.79015700  0.89561200  0.89454400  1
  Sb  Sb5  1  0.24893200  0.85438700  0.39454400  1
  Sb  Sb6  1  0.14561200  0.54015700  0.39454400  1
  Sb  Sb7  1  0.10438800  0.99893200  0.89454400  1
  C  C0  1  0.54841500  0.17240500  0.62399000  1
  C  C1  1  0.70158500  0.57759500  0.87601000  1
  C  C2  1  0.34557300  0.54311500  0.62324400  1
  C  C3  1  0.79311500  0.66987100  0.69754200  1
  C  C4  1  0.79311500  0.09557300  0.12324400  1
  C  C5  1  0.97232900  0.09557300  0.30245800  1
  C  C6  1  0.45688500  0.08012900  0.80245800  1
  C  C7  1  0.33012900  0.20688500  0.30245800  1
  C  C8  1  0.45688500  0.65442700  0.37675600  1
  C  C9  1  0.17442600  0.29841500  0.87601000  1
  C  C10  1  0.54841500  0.92442600  0.37601000  1
  C  C11  1  0.27767100  0.08012900  0.62324400  1
  C  C12  1  0.27767100  0.65442700  0.19754200  1
  C  C13  1  0.34557300  0.72232900  0.80245800  1
  C  C14  1  0.91987100  0.72232900  0.37675600  1
  C  C15  1  0.90442700  0.02767100  0.69754200  1
  C  C16  1  0.97232900  0.66987100  0.87675600  1
  C  C17  1  0.91987100  0.54311500  0.19754200  1
  C  C18  1  0.42240500  0.29841500  0.12399000  1
  C  C19  1  0.33012900  0.02767100  0.12324400  1
  C  C20  1  0.70158500  0.82557400  0.12399000  1
  C  C21  1  0.90442700  0.20688500  0.87675600  1
  C  C22  1  0.07557400  0.45158500  0.62399000  1
  C  C23  1  0.82759500  0.45158500  0.37601000  1
  O  O0  1  0.28266400  0.40500100  0.87766300  1
  O  O1  1  0.72266200  0.34499900  0.37766300  1
  O  O2  1  0.96733600  0.34499900  0.62233700  1
  O  O3  1  0.37495000  0.25291200  0.41065000  1
  O  O4  1  0.03570000  0.15773700  0.41065000  1
  O  O5  1  0.65500100  0.27733800  0.62233700  1
  O  O6  1  0.59499900  0.47266200  0.87766300  1
  O  O7  1  0.40773700  0.49708800  0.62203700  1
  O  O8  1  0.84226300  0.25291200  0.87796300  1
  O  O9  1  0.87505000  0.49708800  0.08935000  1
  O  O10  1  0.74708800  0.15773700  0.12203700  1
  O  O11  1  0.40773700  0.78570000  0.91065000  1
  O  O12  1  0.84226300  0.96430000  0.58935000  1
  O  O13  1  0.87505000  0.78570000  0.37796300  1
  O  O14  1  0.21430000  0.59226300  0.08935000  1
  O  O15  1  0.37495000  0.96430000  0.12203700  1
  O  O16  1  0.52733800  0.40500100  0.12233700  1
  O  O17  1  0.21430000  0.12495000  0.62203700  1
  O  O18  1  0.03570000  0.62505000  0.87796300  1
  O  O19  1  0.50291200  0.59226300  0.37796300  1
  O  O20  1  0.65500100  0.03266400  0.37766300  1
  O  O21  1  0.74708800  0.62505000  0.58935000  1
  O  O22  1  0.50291200  0.12495000  0.91065000  1
  O  O23  1  0.59499900  0.71733600  0.12233700  1
loop_
_geom_bond_atom_site_label_1
_geom_bond_atom_site_label_2
_geom_bond_distance
_geom_bond_site_symmetry_2
Co0 Sb3 2.673647 1_656
Co0 Sb7 2.673654 1_645
Co0 Sb4 2.681750 1_545
Co1 Sb6 2.673634 1_655
Co1 Sb0 2.673644 1_655
Co1 Sb5 2.681754 1_655
Co2 Sb4 2.673647 1_544
Co2 Sb1 2.673654 1_645
Co2 Sb3 2.681750 1_655
Co3 Sb3 2.673634 1_555
Co3 Sb7 2.673644 1_544
Co3 Sb1 2.681758 1_545
Co4 Sb2 2.673646 1_545
Co4 Sb5 2.673646 1_545
Co4 Sb0 2.681758 1_545
Co5 Sb5 2.673644 1_555
Co5 Sb2 2.673646 1_555
Co5 Sb6 2.681750 1_555
Co6 Sb6 2.673647 1_555
Co6 Sb0 2.673654 1_555
Co6 Sb2 2.681743 1_555
Co7 Sb4 2.673634 1_555
Co7 Sb1 2.673644 1_656
Co7 Sb7 2.681758 1_655
C0 O5 1.160057 1_555
C0 Co4 1.768246 1_555
C1 O6 1.160057 1_555
C1 Co7 1.768246 1_555
C2 O7 1.161441 1_555
C2 Co6 1.763043 1_555
C3 O21 1.161451 1_555
C3 Co7 1.763055 1_555
C4 O10 1.161441 1_555
C4 Co2 1.763043 1_555
C5 O4 1.161451 1_655
C5 Co2 1.763055 1_555
C6 O22 1.161451 1_555
C6 Co4 1.763055 1_555
C7 O3 1.161451 1_555
C7 Co3 1.763055 1_555
C8 O19 1.161441 1_555
C8 Co5 1.763043 1_555
C9 O0 1.160052 1_555
C9 Co0 1.768259 1_455
C10 O20 1.160052 1_565
C10 Co5 1.768259 1_555
C11 O17 1.161451 1_555
C11 Co4 1.763055 1_555
C12 O14 1.161451 1_555
C12 Co5 1.763055 1_555
C13 O11 1.161451 1_555
C13 Co6 1.763055 1_555
C14 O13 1.161451 1_555
C14 Co1 1.763055 1_555
C15 O12 1.161451 1_545
C15 Co0 1.763055 1_555
C16 O18 1.161451 1_655
C16 Co7 1.763055 1_555
C17 O9 1.161451 1_555
C17 Co1 1.763055 1_555
C18 O16 1.160057 1_555
C18 Co3 1.768246 1_555
C19 O15 1.161451 1_545
C19 Co3 1.763055 1_555
C20 O23 1.160052 1_555
C20 Co2 1.768259 1_565
C21 O8 1.161441 1_555
C21 Co0 1.763043 1_555
C22 O2 1.160052 1_455
C22 Co6 1.768259 1_555
C23 O1 1.160057 1_555
C23 Co1 1.768246 1_555
