# generated using pymatgen
data_Ti(Ag4S3)2
_symmetry_space_group_name_H-M   'P 1'
_cell_length_a   7.57201700
_cell_length_b   10.73846500
_cell_length_c   15.34961000
_cell_angle_alpha   90.00000000
_cell_angle_beta   90.00000000
_cell_angle_gamma   90.00000000
_symmetry_Int_Tables_number   1
_chemical_formula_structural   Ti(Ag4S3)2
_chemical_formula_sum   'Ti4 Ag32 S24'
_cell_volume   1248.10502523
_cell_formula_units_Z   4
loop_
 _symmetry_equiv_pos_site_id
 _symmetry_equiv_pos_as_xyz
  1  'x, y, z'
loop_
 _atom_site_type_symbol
 _atom_site_label
 _atom_site_symmetry_multiplicity
 _atom_site_fract_x
 _atom_site_fract_y
 _atom_site_fract_z
 _atom_site_occupancy
  Ti  Ti0  1  0.74329500  0.51507900  0.62737200  1
  Ti  Ti1  1  0.24329500  0.01507900  0.87262800  1
  Ti  Ti2  1  0.25670500  0.01507900  0.37262800  1
  Ti  Ti3  1  0.75670500  0.51507900  0.12737200  1
  Ag  Ag0  1  0.39543800  0.69284700  0.41747000  1
  Ag  Ag1  1  0.99701700  0.25827300  0.48090400  1
  Ag  Ag2  1  0.93865300  0.84519500  0.08002100  1
  Ag  Ag3  1  0.12248700  0.68959500  0.27323800  1
  Ag  Ag4  1  0.00613600  0.79904900  0.72885400  1
  Ag  Ag5  1  0.49386400  0.79904900  0.22885400  1
  Ag  Ag6  1  0.50298300  0.25827300  0.98090400  1
  Ag  Ag7  1  0.37751300  0.68959500  0.77323800  1
  Ag  Ag8  1  0.50613600  0.29904900  0.77114600  1
  Ag  Ag9  1  0.77293200  0.49348200  0.37736100  1
  Ag  Ag10  1  0.27916600  0.52593500  0.05073600  1
  Ag  Ag11  1  0.54909500  0.01620900  0.73537500  1
  Ag  Ag12  1  0.43865300  0.34519500  0.41997900  1
  Ag  Ag13  1  0.72706800  0.49348200  0.87736100  1
  Ag  Ag14  1  0.22706800  0.99348200  0.62263900  1
  Ag  Ag15  1  0.00298300  0.75827300  0.51909600  1
  Ag  Ag16  1  0.60456200  0.19284700  0.58253000  1
  Ag  Ag17  1  0.10456200  0.69284700  0.91747000  1
  Ag  Ag18  1  0.56134700  0.84519500  0.58002100  1
  Ag  Ag19  1  0.04909500  0.51620900  0.76462500  1
  Ag  Ag20  1  0.77916600  0.02593500  0.44926400  1
  Ag  Ag21  1  0.72083400  0.02593500  0.94926400  1
  Ag  Ag22  1  0.62248700  0.18959500  0.22676200  1
  Ag  Ag23  1  0.27293200  0.99348200  0.12263900  1
  Ag  Ag24  1  0.06134700  0.34519500  0.91997900  1
  Ag  Ag25  1  0.49701700  0.75827300  0.01909600  1
  Ag  Ag26  1  0.95090500  0.01620900  0.23537500  1
  Ag  Ag27  1  0.87751300  0.18959500  0.72676200  1
  Ag  Ag28  1  0.89543800  0.19284700  0.08253000  1
  Ag  Ag29  1  0.22083400  0.52593500  0.55073600  1
  Ag  Ag30  1  0.45090500  0.51620900  0.26462500  1
  Ag  Ag31  1  0.99386400  0.29904900  0.27114600  1
  S  S0  1  0.70680200  0.00529400  0.12073800  1
  S  S1  1  0.48601700  0.88551400  0.87194100  1
  S  S2  1  0.77809100  0.64050000  0.00647500  1
  S  S3  1  0.20680200  0.50529400  0.37926200  1
  S  S4  1  0.29319800  0.50529400  0.87926200  1
  S  S5  1  0.23876500  0.75621000  0.12138900  1
  S  S6  1  0.98601700  0.38551400  0.62805900  1
  S  S7  1  0.01398300  0.88551400  0.37194100  1
  S  S8  1  0.26277900  0.14402800  0.25322700  1
  S  S9  1  0.79319800  0.00529400  0.62073800  1
  S  S10  1  0.01391900  0.40379100  0.12216100  1
  S  S11  1  0.72190900  0.64050000  0.50647500  1
  S  S12  1  0.26123500  0.75621000  0.62138900  1
  S  S13  1  0.76123500  0.25621000  0.87861100  1
  S  S14  1  0.27809100  0.14050000  0.49352500  1
  S  S15  1  0.73876500  0.25621000  0.37861100  1
  S  S16  1  0.48608100  0.40379100  0.62216100  1
  S  S17  1  0.98608100  0.90379100  0.87783900  1
  S  S18  1  0.23722100  0.14402800  0.75322700  1
  S  S19  1  0.22190900  0.14050000  0.99352500  1
  S  S20  1  0.51398300  0.38551400  0.12805900  1
  S  S21  1  0.51391900  0.90379100  0.37783900  1
  S  S22  1  0.73722100  0.64402800  0.74677300  1
  S  S23  1  0.76277900  0.64402800  0.24677300  1
loop_
_geom_bond_atom_site_label_1
_geom_bond_atom_site_label_2
_geom_bond_distance
_geom_bond_site_symmetry_2
Ag0 S21 2.511197 1_555
Ag0 S3 2.537809 1_555
Ag0 S11 2.879838 1_555
Ag1 S14 2.483274 1_655
Ag1 S15 2.507952 1_555
Ag1 S6 2.641205 1_555
Ag2 S0 2.535425 1_565
Ag2 S5 2.545652 1_655
Ag2 S2 2.753947 1_555
Ag3 S5 2.592230 1_555
Ag3 S3 2.640643 1_555
Ag3 S7 2.719681 1_555
Ag3 S23 2.796977 1_455
Ag4 S17 2.553018 1_455
Ag4 S12 2.581425 1_555
Ag4 S22 2.644440 1_455
Ag5 S21 2.553018 1_555
Ag5 S5 2.581425 1_555
Ag5 S23 2.644440 1_555
Ag6 S19 2.483274 1_555
Ag6 S13 2.507952 1_555
Ag6 S20 2.641205 1_556
Ag7 S12 2.592230 1_555
Ag7 S4 2.640643 1_555
Ag7 S1 2.719681 1_555
Ag7 S22 2.796977 1_555
Ag8 S16 2.553018 1_555
Ag8 S13 2.581425 1_555
Ag8 S18 2.644440 1_555
Ag9 S15 2.561110 1_555
Ag9 S11 2.563091 1_555
Ag9 S23 2.576302 1_555
Ag10 S20 2.616081 1_555
Ag10 S10 2.637473 1_555
Ag10 S4 2.643512 1_554
Ag10 S5 2.717436 1_555
Ag11 S9 2.554692 1_555
Ag11 S1 2.567497 1_545
Ag11 S18 2.745144 1_555
Ag12 S3 2.535425 1_555
Ag12 S15 2.545652 1_555
Ag12 S14 2.753947 1_555
Ag13 S13 2.561110 1_555
Ag13 S2 2.563091 1_556
Ag13 S22 2.576302 1_555
Ag14 S12 2.561110 1_555
Ag14 S14 2.563091 1_565
Ag14 S18 2.576302 1_565
Ag15 S11 2.483274 1_455
Ag15 S12 2.507952 1_555
Ag15 S7 2.641205 1_555
Ag16 S16 2.511197 1_555
Ag16 S9 2.537809 1_555
Ag16 S14 2.879838 1_555
Ag17 S17 2.511197 1_455
Ag17 S4 2.537809 1_555
Ag17 S2 2.879838 1_456
Ag18 S9 2.535425 1_565
Ag18 S12 2.545652 1_555
Ag18 S11 2.753947 1_555
Ag19 S4 2.554692 1_555
Ag19 S6 2.567497 1_455
Ag19 S22 2.745144 1_455
Ag20 S7 2.616081 1_645
Ag20 S21 2.637473 1_545
Ag20 S9 2.643512 1_555
Ag20 S15 2.717436 1_555
Ag21 S1 2.616081 1_545
Ag21 S17 2.637473 1_545
Ag21 S0 2.643512 1_556
Ag21 S13 2.717436 1_555
Ag22 S15 2.592230 1_555
Ag22 S0 2.640643 1_555
Ag22 S20 2.719681 1_555
Ag22 S8 2.796977 1_555
Ag23 S5 2.561110 1_555
Ag23 S19 2.563091 1_564
Ag23 S8 2.576302 1_565
Ag24 S4 2.535425 1_555
Ag24 S13 2.545652 1_455
Ag24 S19 2.753947 1_555
Ag25 S2 2.483274 1_555
Ag25 S5 2.507952 1_555
Ag25 S1 2.641205 1_554
Ag26 S0 2.554692 1_555
Ag26 S7 2.567497 1_645
Ag26 S8 2.745144 1_655
Ag27 S13 2.592230 1_555
Ag27 S9 2.640643 1_555
Ag27 S6 2.719681 1_555
Ag27 S18 2.796977 1_655
Ag28 S10 2.511197 1_655
Ag28 S0 2.537809 1_555
Ag28 S19 2.879838 1_654
Ag29 S6 2.616081 1_455
Ag29 S16 2.637473 1_555
Ag29 S3 2.643512 1_555
Ag29 S12 2.717436 1_555
Ag30 S3 2.554692 1_555
Ag30 S20 2.567497 1_555
Ag30 S23 2.745144 1_555
Ag31 S10 2.553018 1_655
Ag31 S15 2.581425 1_555
Ag31 S8 2.644440 1_655
S1 Ti1 2.305161 1_565
S2 Ti3 2.298668 1_555
S6 Ti0 2.305161 1_555
S7 Ti2 2.305161 1_565
S8 Ti2 2.297510 1_555
S10 Ti3 2.286445 1_455
S11 Ti0 2.298668 1_555
S14 Ti2 2.298668 1_555
S16 Ti0 2.286445 1_555
S17 Ti1 2.286445 1_665
S18 Ti1 2.297510 1_555
S19 Ti1 2.298668 1_555
S20 Ti3 2.305161 1_555
S21 Ti2 2.286445 1_565
S22 Ti0 2.297510 1_555
S23 Ti3 2.297510 1_555
