# generated using pymatgen
data_Tb3Se4
_symmetry_space_group_name_H-M   'P 1'
_cell_length_a   7.52605716
_cell_length_b   7.52605705
_cell_length_c   7.52605813
_cell_angle_alpha   109.47122070
_cell_angle_beta   109.47122046
_cell_angle_gamma   109.47122905
_symmetry_Int_Tables_number   1
_chemical_formula_structural   Tb3Se4
_chemical_formula_sum   'Tb6 Se8'
_cell_volume   328.15622881
_cell_formula_units_Z   2
loop_
 _symmetry_equiv_pos_site_id
 _symmetry_equiv_pos_as_xyz
  1  'x, y, z'
loop_
 _atom_site_type_symbol
 _atom_site_label
 _atom_site_symmetry_multiplicity
 _atom_site_fract_x
 _atom_site_fract_y
 _atom_site_fract_z
 _atom_site_occupancy
  Tb  Tb0  1  0.12500000  0.75000000  0.87500000  1
  Tb  Tb1  1  0.62500000  0.37500000  0.25000000  1
  Tb  Tb2  1  0.37500000  0.25000000  0.62500000  1
  Tb  Tb3  1  0.75000000  0.87500000  0.12500000  1
  Tb  Tb4  1  0.25000000  0.62500000  0.37500000  1
  Tb  Tb5  1  0.87500000  0.12500000  0.75000000  1
  Se  Se0  1  0.64316978  0.64316978  0.64316978  1
  Se  Se1  1  -0.00000000  0.85683022  0.50000000  1
  Se  Se2  1  0.85683022  0.50000000  -0.00000000  1
  Se  Se3  1  -0.00000000  0.35683022  0.50000000  1
  Se  Se4  1  0.50000000  0.00000000  0.85683022  1
  Se  Se5  1  0.50000000  0.00000000  0.35683022  1
  Se  Se6  1  0.35683022  0.50000000  -0.00000000  1
  Se  Se7  1  0.14316978  0.14316978  0.14316978  1
loop_
_geom_bond_atom_site_label_1
_geom_bond_atom_site_label_2
_geom_bond_distance
_geom_bond_site_symmetry_2
Se0 Tb2 2.900471 1_555
Se0 Tb4 2.900471 1_555
Se0 Tb1 2.900472 1_555
Se0 Tb5 3.121479 1_565
Se0 Tb0 3.121479 1_655
Se0 Tb3 3.121480 1_556
Se1 Tb2 2.900471 1_565
Se1 Tb5 2.900472 1_465
Se1 Tb3 2.900472 1_455
Se1 Tb1 3.121479 1_455
Se1 Tb4 3.121480 1_555
Se1 Tb0 3.121480 1_555
Se2 Tb0 2.900471 1_654
Se2 Tb5 2.900471 1_554
Se2 Tb4 2.900471 1_655
Se2 Tb2 3.121479 1_554
Se2 Tb3 3.121480 1_555
Se2 Tb1 3.121480 1_555
Se3 Tb4 2.900471 1_555
Se3 Tb0 2.900471 1_555
Se3 Tb1 2.900471 1_455
Se3 Tb3 3.121479 1_445
Se3 Tb2 3.121480 1_555
Se3 Tb5 3.121480 1_455
Se4 Tb0 2.900471 1_545
Se4 Tb1 2.900471 1_556
Se4 Tb3 2.900472 1_546
Se4 Tb5 3.121479 1_555
Se4 Tb4 3.121480 1_545
Se4 Tb2 3.121480 1_555
Se5 Tb4 2.900471 1_545
Se5 Tb5 2.900471 1_555
Se5 Tb2 2.900472 1_555
Se5 Tb1 3.121479 1_555
Se5 Tb0 3.121480 1_544
Se5 Tb3 3.121480 1_545
Se6 Tb3 2.900471 1_555
Se6 Tb1 2.900472 1_555
Se6 Tb2 2.900472 1_554
Se6 Tb5 3.121479 1_454
Se6 Tb0 3.121480 1_554
Se6 Tb4 3.121480 1_555
Se7 Tb3 2.900471 1_445
Se7 Tb0 2.900471 1_544
Se7 Tb5 2.900472 1_454
Se7 Tb1 3.121479 1_555
Se7 Tb4 3.121479 1_555
Se7 Tb2 3.121480 1_555
