# generated using pymatgen
data_NdMn2
_symmetry_space_group_name_H-M   'P 1'
_cell_length_a   5.54805202
_cell_length_b   5.54805202
_cell_length_c   8.36776300
_cell_angle_alpha   90.00000000
_cell_angle_beta   90.00000000
_cell_angle_gamma   120.00000027
_symmetry_Int_Tables_number   1
_chemical_formula_structural   NdMn2
_chemical_formula_sum   'Nd4 Mn8'
_cell_volume   223.05966781
_cell_formula_units_Z   4
loop_
 _symmetry_equiv_pos_site_id
 _symmetry_equiv_pos_as_xyz
  1  'x, y, z'
loop_
 _atom_site_type_symbol
 _atom_site_label
 _atom_site_symmetry_multiplicity
 _atom_site_fract_x
 _atom_site_fract_y
 _atom_site_fract_z
 _atom_site_occupancy
  Nd  Nd0  1  0.33333300  0.66666700  0.05782900  1
  Nd  Nd1  1  0.66666700  0.33333300  0.94217100  1
  Nd  Nd2  1  0.33333300  0.66666700  0.44217100  1
  Nd  Nd3  1  0.66666700  0.33333300  0.55782900  1
  Mn  Mn0  1  0.00000000  0.00000000  0.50000000  1
  Mn  Mn1  1  0.00000000  0.00000000  0.00000000  1
  Mn  Mn2  1  0.83791900  0.67583900  0.25000000  1
  Mn  Mn3  1  0.16208100  0.32416100  0.75000000  1
  Mn  Mn4  1  0.32416100  0.16208100  0.25000000  1
  Mn  Mn5  1  0.16208100  0.83791900  0.75000000  1
  Mn  Mn6  1  0.67583900  0.83791900  0.75000000  1
  Mn  Mn7  1  0.83791900  0.16208100  0.25000000  1
loop_
_geom_bond_atom_site_label_1
_geom_bond_atom_site_label_2
_geom_bond_distance
_geom_bond_site_symmetry_2
Nd0 Nd2 3.216083 1_555
Nd0 Nd1 3.346178 1_454
Nd0 Nd1 3.346178 1_564
Nd0 Nd1 3.346187 1_554
Nd1 Nd3 3.216083 1_555
Nd2 Nd3 3.346178 1_455
Nd2 Nd3 3.346178 1_565
Nd2 Nd3 3.346187 1_555
Mn0 Mn3 2.608077 1_555
Mn0 Mn4 2.608077 1_555
Mn0 Mn6 2.608077 1_445
Mn0 Mn2 2.608077 1_445
Mn0 Mn5 2.608080 1_545
Mn0 Mn7 2.608080 1_455
Mn0 Nd3 3.239511 1_455
Mn0 Nd2 3.239511 1_545
Mn0 Nd2 3.239516 1_555
Mn0 Nd2 3.239516 1_445
Mn0 Nd3 3.239516 1_555
Mn0 Nd3 3.239516 1_445
Mn1 Mn3 2.608077 1_554
Mn1 Mn4 2.608077 1_555
Mn1 Mn2 2.608077 1_445
Mn1 Mn6 2.608077 1_444
Mn1 Mn5 2.608080 1_544
Mn1 Mn7 2.608080 1_455
Mn1 Nd1 3.239511 1_454
Mn1 Nd0 3.239511 1_545
Mn1 Nd0 3.239516 1_445
Mn1 Nd1 3.239516 1_554
Mn1 Nd0 3.239516 1_555
Mn1 Nd1 3.239516 1_444
Mn2 Mn4 2.697696 1_665
Mn2 Mn7 2.697696 1_565
Mn2 Mn4 2.850356 1_555
Mn2 Mn7 2.850356 1_555
Mn2 Nd3 3.056655 1_555
Mn2 Nd1 3.056655 1_554
Mn2 Nd2 3.206705 1_555
Mn2 Nd0 3.206705 1_555
Mn2 Nd0 3.206705 1_655
Mn2 Nd2 3.206705 1_655
Mn3 Mn6 2.697696 1_445
Mn3 Mn5 2.697696 1_545
Mn3 Mn6 2.850356 1_555
Mn3 Mn5 2.850356 1_555
Mn3 Nd0 3.056655 1_556
Mn3 Nd2 3.056655 1_555
Mn3 Nd3 3.206705 1_555
Mn3 Nd1 3.206705 1_555
Mn3 Nd1 3.206705 1_455
Mn3 Nd3 3.206705 1_455
Mn4 Mn7 2.697696 1_455
Mn4 Mn7 2.850356 1_555
Mn4 Nd3 3.056655 1_555
Mn4 Nd1 3.056655 1_554
Mn4 Nd2 3.206705 1_555
Mn4 Nd0 3.206705 1_555
Mn4 Nd0 3.206705 1_545
Mn4 Nd2 3.206705 1_545
Mn5 Mn6 2.697696 1_455
Mn5 Mn6 2.850356 1_555
Mn5 Nd0 3.056650 1_556
Mn5 Nd2 3.056650 1_555
Mn5 Nd3 3.206705 1_455
Mn5 Nd1 3.206705 1_455
Mn5 Nd1 3.206705 1_565
Mn5 Nd3 3.206705 1_565
Mn6 Nd0 3.056655 1_556
Mn6 Nd2 3.056655 1_555
Mn6 Nd3 3.206705 1_555
Mn6 Nd1 3.206705 1_555
Mn6 Nd1 3.206705 1_565
Mn6 Nd3 3.206705 1_565
Mn7 Nd1 3.056650 1_554
Mn7 Nd3 3.056650 1_555
Mn7 Nd0 3.206705 1_545
Mn7 Nd2 3.206705 1_545
Mn7 Nd2 3.206705 1_655
Mn7 Nd0 3.206705 1_655
