# generated using pymatgen
data_AlPO4
_symmetry_space_group_name_H-M   'P 1'
_cell_length_a   9.37928279
_cell_length_b   9.37928279
_cell_length_c   9.37928257
_cell_angle_alpha   94.59757908
_cell_angle_beta   94.59757906
_cell_angle_gamma   94.59757661
_symmetry_Int_Tables_number   1
_chemical_formula_structural   AlPO4
_chemical_formula_sum   'Al6 P6 O24'
_cell_volume   816.68437111
_cell_formula_units_Z   6
loop_
 _symmetry_equiv_pos_site_id
 _symmetry_equiv_pos_as_xyz
  1  'x, y, z'
loop_
 _atom_site_type_symbol
 _atom_site_label
 _atom_site_symmetry_multiplicity
 _atom_site_fract_x
 _atom_site_fract_y
 _atom_site_fract_z
 _atom_site_occupancy
  Al  Al0  1  0.12323138  0.66680570  0.89939735  1
  Al  Al1  1  0.89939735  0.12323138  0.66680570  1
  Al  Al2  1  0.87676862  0.33319430  0.10060265  1
  Al  Al3  1  0.66680570  0.89939735  0.12323138  1
  Al  Al4  1  0.33319430  0.10060265  0.87676862  1
  Al  Al5  1  0.10060265  0.87676862  0.33319430  1
  P  P0  1  0.87859814  0.11118821  0.33361181  1
  P  P1  1  0.88881179  0.66638819  0.12140186  1
  P  P2  1  0.33361181  0.87859814  0.11118821  1
  P  P3  1  0.66638819  0.12140186  0.88881179  1
  P  P4  1  0.11118821  0.33361181  0.87859814  1
  P  P5  1  0.12140186  0.88881179  0.66638819  1
  O  O0  1  0.48951855  0.85680439  0.15276899  1
  O  O1  1  0.15276899  0.48951855  0.85680439  1
  O  O2  1  0.98682546  0.73334399  0.25098256  1
  O  O3  1  0.89371563  0.24676017  0.25618772  1
  O  O4  1  0.32332909  0.01507920  0.03396204  1
  O  O5  1  0.10628437  0.75323983  0.74381228  1
  O  O6  1  0.26665601  0.74901744  0.01317454  1
  O  O7  1  0.25098256  0.98682546  0.73334399  1
  O  O8  1  0.03396204  0.32332909  0.01507920  1
  O  O9  1  0.01507920  0.03396204  0.32332909  1
  O  O10  1  0.84723101  0.51048145  0.14319561  1
  O  O11  1  0.98492080  0.96603796  0.67667091  1
  O  O12  1  0.74381228  0.10628437  0.75323983  1
  O  O13  1  0.14319561  0.84723101  0.51048145  1
  O  O14  1  0.01317454  0.26665601  0.74901744  1
  O  O15  1  0.25618772  0.89371563  0.24676017  1
  O  O16  1  0.74901744  0.01317454  0.26665601  1
  O  O17  1  0.24676017  0.25618772  0.89371563  1
  O  O18  1  0.96603796  0.67667091  0.98492080  1
  O  O19  1  0.67667091  0.98492080  0.96603796  1
  O  O20  1  0.73334399  0.25098256  0.98682546  1
  O  O21  1  0.85680439  0.15276899  0.48951855  1
  O  O22  1  0.51048145  0.14319561  0.84723101  1
  O  O23  1  0.75323983  0.74381228  0.10628437  1
loop_
_geom_bond_atom_site_label_1
_geom_bond_atom_site_label_2
_geom_bond_distance
_geom_bond_site_symmetry_2
Al0 O5 1.727744 1_555
Al0 O1 1.728131 1_555
Al0 O6 1.736276 1_556
Al0 O18 1.739343 1_455
Al1 O12 1.727744 1_555
Al1 O21 1.728131 1_555
Al1 O14 1.736276 1_655
Al1 O11 1.739343 1_545
Al2 O3 1.727744 1_555
Al2 O10 1.728131 1_555
Al2 O20 1.736276 1_554
Al2 O8 1.739343 1_655
Al3 O23 1.727744 1_555
Al3 O0 1.728131 1_555
Al3 O16 1.736276 1_565
Al3 O19 1.739343 1_554
Al4 O17 1.727744 1_555
Al4 O22 1.728131 1_555
Al4 O7 1.736276 1_545
Al4 O4 1.739343 1_556
Al5 O15 1.727744 1_555
Al5 O13 1.728131 1_555
Al5 O2 1.736276 1_455
Al5 O9 1.739343 1_565
O0 P2 1.517055 1_555
O1 P4 1.517055 1_555
O2 P1 1.524006 1_555
O3 P0 1.516564 1_555
O4 P2 1.526377 1_545
O5 P5 1.516564 1_555
O6 P2 1.524006 1_555
O7 P5 1.524006 1_555
O8 P4 1.526377 1_554
O9 P0 1.526377 1_455
O10 P1 1.517055 1_555
O11 P5 1.526377 1_655
O12 P3 1.516564 1_555
O13 P5 1.517055 1_555
O14 P4 1.524006 1_555
O15 P2 1.516564 1_555
O16 P0 1.524006 1_555
O17 P4 1.516564 1_555
O18 P1 1.526377 1_556
O19 P3 1.526377 1_565
O20 P3 1.524006 1_555
O21 P0 1.517055 1_555
O22 P3 1.517055 1_555
O23 P1 1.516564 1_555
