# generated using pymatgen
data_LuSnPd2
_symmetry_space_group_name_H-M   'P 1'
_cell_length_a   4.71192723
_cell_length_b   4.71192633
_cell_length_c   4.71192652
_cell_angle_alpha   59.99999147
_cell_angle_beta   59.99999781
_cell_angle_gamma   60.00000043
_symmetry_Int_Tables_number   1
_chemical_formula_structural   LuSnPd2
_chemical_formula_sum   'Lu1 Sn1 Pd2'
_cell_volume   73.97424535
_cell_formula_units_Z   1
loop_
 _symmetry_equiv_pos_site_id
 _symmetry_equiv_pos_as_xyz
  1  'x, y, z'
loop_
 _atom_site_type_symbol
 _atom_site_label
 _atom_site_symmetry_multiplicity
 _atom_site_fract_x
 _atom_site_fract_y
 _atom_site_fract_z
 _atom_site_occupancy
  Lu  Lu0  1  0.50000000  0.50000000  0.50000000  1
  Sn  Sn0  1  0.00000000  0.00000000  -0.00000000  1
  Pd  Pd0  1  0.75000000  0.75000000  0.75000000  1
  Pd  Pd1  1  0.25000000  0.25000000  0.25000000  1
loop_
_geom_bond_atom_site_label_1
_geom_bond_atom_site_label_2
_geom_bond_distance
_geom_bond_site_symmetry_2
Lu0 Pd1 2.885454 1_565
Lu0 Pd0 2.885454 1_545
Lu0 Pd1 2.885454 1_556
Lu0 Pd0 2.885454 1_554
Lu0 Pd0 2.885454 1_555
Lu0 Pd1 2.885454 1_555
Lu0 Pd1 2.885454 1_655
Lu0 Pd0 2.885454 1_455
Lu0 Sn0 3.331835 1_556
Lu0 Sn0 3.331835 1_665
Lu0 Sn0 3.331835 1_656
Lu0 Sn0 3.331835 1_565
Lu0 Sn0 3.331835 1_566
Lu0 Sn0 3.331835 1_655
Pd0 Sn0 2.885454 1_656
Pd0 Sn0 2.885454 1_665
Pd0 Sn0 2.885454 1_666
Pd0 Sn0 2.885454 1_566
Pd1 Sn0 2.885454 1_565
Pd1 Sn0 2.885454 1_556
Pd1 Sn0 2.885454 1_555
Pd1 Sn0 2.885454 1_655
