# generated using pymatgen
data_Ti4S8Cl6O
_symmetry_space_group_name_H-M   'P 1'
_cell_length_a   9.82662770
_cell_length_b   9.82662770
_cell_length_c   13.38672079
_cell_angle_alpha   81.53844648
_cell_angle_beta   81.53844648
_cell_angle_gamma   121.12073673
_symmetry_Int_Tables_number   1
_chemical_formula_structural   Ti4S8Cl6O
_chemical_formula_sum   'Ti8 S16 Cl12 O2'
_cell_volume   1055.86250452
_cell_formula_units_Z   2
loop_
 _symmetry_equiv_pos_site_id
 _symmetry_equiv_pos_as_xyz
  1  'x, y, z'
loop_
 _atom_site_type_symbol
 _atom_site_label
 _atom_site_symmetry_multiplicity
 _atom_site_fract_x
 _atom_site_fract_y
 _atom_site_fract_z
 _atom_site_occupancy
  Ti  Ti0  1  0.13385200  0.76466300  0.14877600  1
  Ti  Ti1  1  0.79255600  0.86448500  0.78681900  1
  Ti  Ti2  1  0.86448500  0.79255600  0.28681900  1
  Ti  Ti3  1  0.86614800  0.23533700  0.85122400  1
  Ti  Ti4  1  0.76466300  0.13385200  0.64877600  1
  Ti  Ti5  1  0.13551500  0.20744400  0.71318100  1
  Ti  Ti6  1  0.20744400  0.13551500  0.21318100  1
  Ti  Ti7  1  0.23533700  0.86614800  0.35122400  1
  S  S0  1  0.86604900  0.72402100  0.12077100  1
  S  S1  1  0.06913100  0.95229600  0.82385600  1
  S  S2  1  0.45168500  0.14951200  0.26597700  1
  S  S3  1  0.95229600  0.06913100  0.32385600  1
  S  S4  1  0.13395100  0.27597900  0.87922900  1
  S  S5  1  0.17045200  0.61236200  0.28914800  1
  S  S6  1  0.04770400  0.93086900  0.67614400  1
  S  S7  1  0.27597900  0.13395100  0.37922900  1
  S  S8  1  0.61236200  0.17045200  0.78914800  1
  S  S9  1  0.93086900  0.04770400  0.17614400  1
  S  S10  1  0.14951200  0.45168500  0.76597700  1
  S  S11  1  0.82954800  0.38763800  0.71085200  1
  S  S12  1  0.38763800  0.82954800  0.21085200  1
  S  S13  1  0.72402100  0.86604900  0.62077100  1
  S  S14  1  0.85048800  0.54831500  0.23402300  1
  S  S15  1  0.54831500  0.85048800  0.73402300  1
  Cl  Cl0  1  0.28554200  0.06765900  0.04638100  1
  Cl  Cl1  1  0.06765900  0.28554200  0.54638100  1
  Cl  Cl2  1  0.30895000  0.80141200  0.49132900  1
  Cl  Cl3  1  0.80141200  0.30895000  0.99132900  1
  Cl  Cl4  1  0.33848900  0.40351800  0.13810300  1
  Cl  Cl5  1  0.69105000  0.19858800  0.50867100  1
  Cl  Cl6  1  0.59648200  0.66151100  0.36189700  1
  Cl  Cl7  1  0.93234100  0.71445800  0.45361900  1
  Cl  Cl8  1  0.66151100  0.59648200  0.86189700  1
  Cl  Cl9  1  0.19858800  0.69105000  0.00867100  1
  Cl  Cl10  1  0.40351800  0.33848900  0.63810300  1
  Cl  Cl11  1  0.71445800  0.93234100  0.95361900  1
  O  O0  1  0.88968300  0.11031700  0.75000000  1
  O  O1  1  0.11031700  0.88968300  0.25000000  1
loop_
_geom_bond_atom_site_label_1
_geom_bond_atom_site_label_2
_geom_bond_distance
_geom_bond_site_symmetry_2
S0 S14 2.047318 1_555
S0 Ti2 2.415783 1_555
S0 Ti0 2.544282 1_655
S1 S6 2.048884 1_555
S1 Ti5 2.416320 1_565
S1 Ti1 2.544629 1_455
S2 S7 2.047318 1_555
S2 Ti7 2.409815 1_545
S2 Ti6 2.542701 1_555
S3 S9 2.048884 1_555
S3 Ti6 2.416320 1_655
S3 Ti2 2.544629 1_545
S4 Ti5 2.415783 1_555
S4 Ti3 2.544282 1_455
S5 Ti0 2.414109 1_555
S5 Ti7 2.537437 1_555
S6 Ti1 2.416320 1_455
S6 Ti5 2.544629 1_565
S7 Ti6 2.415783 1_555
S7 Ti7 2.544282 1_545
S8 Ti4 2.414109 1_555
S8 Ti3 2.537437 1_555
S9 Ti2 2.416320 1_545
S9 Ti6 2.544629 1_655
S10 S4 2.047318 1_555
S10 Ti3 2.409815 1_455
S10 Ti5 2.542701 1_555
S11 S8 2.045326 1_555
S11 Ti3 2.414109 1_555
S11 Ti4 2.537437 1_555
S12 S5 2.045326 1_555
S12 Ti7 2.414109 1_555
S12 Ti0 2.537437 1_555
S13 S15 2.047318 1_555
S13 Ti1 2.415783 1_555
S13 Ti4 2.544282 1_565
S14 Ti0 2.409815 1_655
S14 Ti2 2.542701 1_555
S15 Ti4 2.409815 1_565
S15 Ti1 2.542701 1_555
Cl0 Ti6 2.546031 1_555
Cl0 Ti0 2.564340 1_545
Cl1 Ti5 2.546031 1_555
Cl1 Ti4 2.564340 1_455
Cl2 Ti7 2.229218 1_555
Cl3 Ti3 2.229218 1_555
Cl4 Ti6 2.222306 1_555
Cl5 Ti4 2.229218 1_555
Cl6 Ti2 2.222306 1_555
Cl7 Ti2 2.546031 1_555
Cl7 Ti7 2.564340 1_655
Cl8 Ti1 2.222306 1_555
Cl9 Ti0 2.229218 1_555
Cl10 Ti5 2.222306 1_555
Cl11 Ti1 2.546031 1_555
Cl11 Ti3 2.564340 1_565
O0 Ti3 2.022454 1_555
O0 Ti4 2.022454 1_555
O0 Ti5 2.029125 1_655
O0 Ti1 2.029125 1_545
O1 Ti7 2.022454 1_555
O1 Ti0 2.022454 1_555
O1 Ti6 2.029125 1_565
O1 Ti2 2.029125 1_455
