# generated using pymatgen
data_Ca3CoRhO6
_symmetry_space_group_name_H-M   'P 1'
_cell_length_a   6.50864918
_cell_length_b   8.95246782
_cell_length_c   9.26250693
_cell_angle_alpha   89.75654734
_cell_angle_beta   89.78903623
_cell_angle_gamma   92.49098052
_symmetry_Int_Tables_number   1
_chemical_formula_structural   Ca3CoRhO6
_chemical_formula_sum   'Ca12 Co4 Rh4 O24'
_cell_volume   539.19323565
_cell_formula_units_Z   4
loop_
 _symmetry_equiv_pos_site_id
 _symmetry_equiv_pos_as_xyz
  1  'x, y, z'
loop_
 _atom_site_type_symbol
 _atom_site_label
 _atom_site_symmetry_multiplicity
 _atom_site_fract_x
 _atom_site_fract_y
 _atom_site_fract_z
 _atom_site_occupancy
  Ca  Ca0  1  0.61298700  0.56926500  0.68367100  1
  Ca  Ca1  1  0.61187500  0.06859500  0.18338900  1
  Ca  Ca2  1  0.88693600  0.43073800  0.18279900  1
  Ca  Ca3  1  0.88748500  0.93124800  0.68290800  1
  Ca  Ca4  1  0.24991400  0.75014400  0.13389200  1
  Ca  Ca5  1  0.24958800  0.25063700  0.63432600  1
  Ca  Ca6  1  0.11321100  0.56934100  0.81711700  1
  Ca  Ca7  1  0.11249400  0.06894000  0.31692800  1
  Ca  Ca8  1  0.75015500  0.24989100  0.86599700  1
  Ca  Ca9  1  0.74974600  0.74935400  0.36571500  1
  Ca  Ca10  1  0.38669200  0.43084600  0.31647000  1
  Ca  Ca11  1  0.38813100  0.93128100  0.81649200  1
  Co  Co0  1  0.25118500  0.74878100  0.49317300  1
  Co  Co1  1  0.74760200  0.25192300  0.50606000  1
  Co  Co2  1  0.25064000  0.24953300  0.99319700  1
  Co  Co3  1  0.74934400  0.75051400  0.00677600  1
  Rh  Rh0  1  0.50010400  0.49998100  0.00003600  1
  Rh  Rh1  1  0.50028300  0.99992900  0.49989500  1
  Rh  Rh2  1  0.00006800  0.00001600  0.00006600  1
  Rh  Rh3  1  0.99997500  0.50001000  0.50026300  1
  O  O0  1  0.54962300  0.30826200  0.10429600  1
  O  O1  1  0.55140400  0.80898700  0.60470200  1
  O  O2  1  0.20348400  0.47331000  0.06655200  1
  O  O3  1  0.20410600  0.97438000  0.56649800  1
  O  O4  1  0.40840400  0.37190700  0.83019900  1
  O  O5  1  0.40685200  0.86976400  0.33112400  1
  O  O6  1  0.04882800  0.80889800  0.89546100  1
  O  O7  1  0.04704600  0.30829400  0.39586600  1
  O  O8  1  0.91194900  0.37421200  0.67223000  1
  O  O9  1  0.90844800  0.87236600  0.17051100  1
  O  O10  1  0.70221800  0.47149100  0.43418900  1
  O  O11  1  0.70299700  0.97320500  0.93350700  1
  O  O12  1  0.45060100  0.69171800  0.89573500  1
  O  O13  1  0.44852500  0.19087200  0.39493400  1
  O  O14  1  0.79675200  0.52660100  0.93367500  1
  O  O15  1  0.79619700  0.02522100  0.43342100  1
  O  O16  1  0.59187400  0.62790900  0.16990700  1
  O  O17  1  0.59372100  0.13046700  0.66842200  1
  O  O18  1  0.95136100  0.19113100  0.10464300  1
  O  O19  1  0.95244700  0.69151000  0.60464700  1
  O  O20  1  0.08846900  0.62598300  0.32826200  1
  O  O21  1  0.09171800  0.12750800  0.82952300  1
  O  O22  1  0.29750000  0.52827300  0.56610700  1
  O  O23  1  0.29706000  0.02676400  0.06641800  1
loop_
_geom_bond_atom_site_label_1
_geom_bond_atom_site_label_2
_geom_bond_distance
_geom_bond_site_symmetry_2
Ca0 O1 2.316254 1_555
Ca0 O22 2.343341 1_555
Ca0 O12 2.506158 1_555
Ca0 O19 2.527079 1_555
Ca0 O10 2.548510 1_555
Ca0 O4 2.549240 1_555
Ca0 O14 2.644114 1_555
Ca0 O8 2.672482 1_555
Ca1 O0 2.317091 1_555
Ca1 O23 2.337879 1_555
Ca1 O13 2.504424 1_555
Ca1 O18 2.527520 1_555
Ca1 O11 2.547312 1_544
Ca1 O5 2.565361 1_545
Ca1 O15 2.647044 1_555
Ca1 O9 2.668559 1_545
Ca2 O18 2.321719 1_555
Ca2 O2 2.336959 1_655
Ca2 O7 2.505687 1_655
Ca2 O0 2.521953 1_555
Ca2 O20 2.534740 1_655
Ca2 O14 2.538231 1_554
Ca2 O10 2.650509 1_555
Ca2 O16 2.666981 1_555
Ca3 O19 2.323889 1_555
Ca3 O3 2.338684 1_655
Ca3 O6 2.505089 1_655
Ca3 O1 2.513543 1_555
Ca3 O15 2.537318 1_565
Ca3 O21 2.555162 1_665
Ca3 O11 2.645161 1_555
Ca3 O17 2.674121 1_565
Ca4 O20 2.334203 1_555
Ca4 O5 2.337284 1_555
Ca4 O9 2.541792 1_455
Ca4 O16 2.544915 1_555
Ca4 O23 2.556727 1_565
Ca4 O2 2.563591 1_555
Ca4 O12 2.625615 1_554
Ca4 O6 2.634048 1_554
Ca5 O21 2.326096 1_555
Ca5 O4 2.339178 1_555
Ca5 O8 2.526943 1_455
Ca5 O17 2.546722 1_555
Ca5 O3 2.559278 1_545
Ca5 O22 2.567526 1_555
Ca5 O13 2.632242 1_555
Ca5 O7 2.636988 1_555
Ca6 O6 2.321791 1_555
Ca6 O14 2.337956 1_455
Ca6 O19 2.502092 1_455
Ca6 O12 2.522341 1_555
Ca6 O8 2.530322 1_455
Ca6 O2 2.541510 1_556
Ca6 O22 2.646603 1_555
Ca6 O4 2.669330 1_555
Ca7 O7 2.323371 1_555
Ca7 O15 2.337860 1_455
Ca7 O18 2.501893 1_455
Ca7 O13 2.511549 1_555
Ca7 O3 2.540329 1_545
Ca7 O9 2.555458 1_445
Ca7 O23 2.644996 1_555
Ca7 O5 2.676599 1_545
Ca8 O8 2.331541 1_555
Ca8 O17 2.337629 1_555
Ca8 O4 2.542517 1_555
Ca8 O21 2.542855 1_655
Ca8 O11 2.557382 1_545
Ca8 O14 2.563384 1_555
Ca8 O0 2.626102 1_556
Ca8 O18 2.636129 1_556
Ca9 O9 2.327945 1_555
Ca9 O16 2.336810 1_555
Ca9 O20 2.531774 1_655
Ca9 O5 2.541052 1_555
Ca9 O15 2.556114 1_565
Ca9 O10 2.569857 1_555
Ca9 O1 2.626889 1_555
Ca9 O19 2.641542 1_555
Ca10 O13 2.317251 1_555
Ca10 O10 2.343863 1_555
Ca10 O0 2.509049 1_555
Ca10 O7 2.530179 1_555
Ca10 O22 2.548645 1_555
Ca10 O16 2.549562 1_555
Ca10 O2 2.641456 1_555
Ca10 O20 2.669493 1_555
Ca11 O12 2.316966 1_555
Ca11 O11 2.338462 1_555
Ca11 O1 2.506050 1_555
Ca11 O6 2.526548 1_555
Ca11 O23 2.547893 1_566
Ca11 O17 2.570928 1_565
Ca11 O3 2.645442 1_555
Ca11 O21 2.667827 1_565
Co0 O5 2.081387 1_555
Co0 O22 2.118058 1_555
Co0 O20 2.142049 1_555
Co0 O3 2.167521 1_555
Co0 O19 2.236889 1_455
Co0 O1 2.259186 1_555
Co1 O17 2.080242 1_555
Co1 O10 2.105967 1_555
Co1 O8 2.153231 1_555
Co1 O15 2.176603 1_555
Co1 O7 2.233929 1_655
Co1 O13 2.252654 1_555
Co2 O4 2.100180 1_555
Co2 O21 2.118740 1_555
Co2 O23 2.137991 1_556
Co2 O2 2.152387 1_556
Co2 O18 2.241728 1_456
Co2 O0 2.247803 1_556
Co3 O16 2.101205 1_555
Co3 O9 2.118932 1_555
Co3 O11 2.137389 1_554
Co3 O14 2.153079 1_554
Co3 O6 2.242287 1_654
Co3 O12 2.246335 1_554
O0 Rh0 2.004657 1_555
O1 Rh1 2.003219 1_555
O2 Rh0 2.028230 1_555
O3 Rh1 2.025015 1_555
O4 Rh0 2.026898 1_556
O5 Rh1 2.032813 1_555
O6 Rh2 2.006480 1_566
O7 Rh3 2.008066 1_455
O8 Rh3 2.013874 1_555
O9 Rh2 2.018043 1_665
O10 Rh3 2.040251 1_555
O11 Rh2 2.036154 1_666
O12 Rh0 2.004957 1_556
O13 Rh1 2.004767 1_545
O14 Rh0 2.027938 1_556
O15 Rh1 2.022876 1_545
O16 Rh0 2.026541 1_555
O17 Rh1 2.032965 1_545
O18 Rh2 2.006264 1_655
O19 Rh3 2.006900 1_555
O20 Rh3 2.015759 1_455
O21 Rh2 2.018025 1_556
O22 Rh3 2.037982 1_455
O23 Rh2 2.035037 1_555
