# generated using pymatgen
data_VHg4P2O9
_symmetry_space_group_name_H-M   'P 1'
_cell_length_a   7.20584900
_cell_length_b   9.23692100
_cell_length_c   16.98868000
_cell_angle_alpha   90.00000000
_cell_angle_beta   90.00000000
_cell_angle_gamma   90.00000000
_symmetry_Int_Tables_number   1
_chemical_formula_structural   VHg4P2O9
_chemical_formula_sum   'V4 Hg16 P8 O36'
_cell_volume   1130.76412757
_cell_formula_units_Z   4
loop_
 _symmetry_equiv_pos_site_id
 _symmetry_equiv_pos_as_xyz
  1  'x, y, z'
loop_
 _atom_site_type_symbol
 _atom_site_label
 _atom_site_symmetry_multiplicity
 _atom_site_fract_x
 _atom_site_fract_y
 _atom_site_fract_z
 _atom_site_occupancy
  V  V0  1  0.13010200  0.76690600  0.75000000  1
  V  V1  1  0.36989800  0.26690600  0.25000000  1
  V  V2  1  0.86989800  0.23309400  0.25000000  1
  V  V3  1  0.63010200  0.73309400  0.75000000  1
  Hg  Hg0  1  0.63534200  0.75153100  0.41968700  1
  Hg  Hg1  1  0.12932100  0.46967000  0.40437600  1
  Hg  Hg2  1  0.86465800  0.25153100  0.91968700  1
  Hg  Hg3  1  0.87067900  0.53033000  0.59562400  1
  Hg  Hg4  1  0.13534200  0.74846900  0.08031300  1
  Hg  Hg5  1  0.37067900  0.96967000  0.90437600  1
  Hg  Hg6  1  0.62932100  0.03033000  0.09562400  1
  Hg  Hg7  1  0.36465800  0.24846900  0.58031300  1
  Hg  Hg8  1  0.36465800  0.24846900  0.91968700  1
  Hg  Hg9  1  0.62932100  0.03033000  0.40437600  1
  Hg  Hg10  1  0.13534200  0.74846900  0.41968700  1
  Hg  Hg11  1  0.86465800  0.25153100  0.58031300  1
  Hg  Hg12  1  0.12932100  0.46967000  0.09562400  1
  Hg  Hg13  1  0.87067900  0.53033000  0.90437600  1
  Hg  Hg14  1  0.63534200  0.75153100  0.08031300  1
  Hg  Hg15  1  0.37067900  0.96967000  0.59562400  1
  P  P0  1  0.35666800  0.60991600  0.88686500  1
  P  P1  1  0.14333200  0.10991600  0.11313500  1
  P  P2  1  0.64333200  0.39008400  0.38686500  1
  P  P3  1  0.35666800  0.60991600  0.61313500  1
  P  P4  1  0.14333200  0.10991600  0.38686500  1
  P  P5  1  0.85666800  0.89008400  0.61313500  1
  P  P6  1  0.64333200  0.39008400  0.11313500  1
  P  P7  1  0.85666800  0.89008400  0.88686500  1
  O  O0  1  0.96823000  0.09818600  0.33372100  1
  O  O1  1  0.68035000  0.88112000  0.66607300  1
  O  O2  1  0.68035000  0.88112000  0.83392700  1
  O  O3  1  0.64014000  0.17583200  0.25000000  1
  O  O4  1  0.66172500  0.52414800  0.44096900  1
  O  O5  1  0.13137800  0.24236400  0.05591000  1
  O  O6  1  0.85986000  0.67583200  0.75000000  1
  O  O7  1  0.86862200  0.75763600  0.94409000  1
  O  O8  1  0.81965000  0.38112000  0.33392700  1
  O  O9  1  0.33827500  0.47585200  0.94096900  1
  O  O10  1  0.14014000  0.32416800  0.25000000  1
  O  O11  1  0.46823000  0.40181400  0.16627900  1
  O  O12  1  0.16172500  0.97585200  0.44096900  1
  O  O13  1  0.31965000  0.11888000  0.16607300  1
  O  O14  1  0.86862200  0.75763600  0.55591000  1
  O  O15  1  0.35986000  0.82416800  0.75000000  1
  O  O16  1  0.36862200  0.74236400  0.55591000  1
  O  O17  1  0.63137800  0.25763600  0.05591000  1
  O  O18  1  0.83827500  0.02414800  0.94096900  1
  O  O19  1  0.18035000  0.61888000  0.66607300  1
  O  O20  1  0.18035000  0.61888000  0.83392700  1
  O  O21  1  0.31965000  0.11888000  0.33392700  1
  O  O22  1  0.16172500  0.97585200  0.05903100  1
  O  O23  1  0.03177000  0.90181400  0.66627900  1
  O  O24  1  0.81965000  0.38112000  0.16607300  1
  O  O25  1  0.46823000  0.40181400  0.33372100  1
  O  O26  1  0.53177000  0.59818600  0.83372100  1
  O  O27  1  0.53177000  0.59818600  0.66627900  1
  O  O28  1  0.03177000  0.90181400  0.83372100  1
  O  O29  1  0.83827500  0.02414800  0.55903100  1
  O  O30  1  0.66172500  0.52414800  0.05903100  1
  O  O31  1  0.33827500  0.47585200  0.55903100  1
  O  O32  1  0.13137800  0.24236400  0.44409000  1
  O  O33  1  0.63137800  0.25763600  0.44409000  1
  O  O34  1  0.96823000  0.09818600  0.16627900  1
  O  O35  1  0.36862200  0.74236400  0.94409000  1
loop_
_geom_bond_atom_site_label_1
_geom_bond_atom_site_label_2
_geom_bond_distance
_geom_bond_site_symmetry_2
Hg0 O4 2.139673 1_555
Hg1 O32 2.205397 1_555
Hg2 O18 2.139673 1_555
Hg3 O14 2.205397 1_555
Hg4 O22 2.139673 1_555
Hg5 O35 2.205397 1_555
Hg6 O17 2.205397 1_555
Hg7 O31 2.139673 1_555
Hg8 O9 2.139673 1_555
Hg9 O33 2.205397 1_555
Hg10 O12 2.139673 1_555
Hg11 O29 2.139673 1_555
Hg12 O5 2.205397 1_555
Hg13 O7 2.205397 1_555
Hg14 O30 2.139673 1_555
Hg15 O16 2.205397 1_555
O0 P4 1.555283 1_655
O0 V2 2.019376 1_555
O1 P5 1.558815 1_555
O1 V3 2.008371 1_555
O2 P7 1.558815 1_555
O2 V3 2.008371 1_555
O3 V2 1.738038 1_555
O3 V1 2.121263 1_555
O4 P2 1.547868 1_555
O5 P1 1.565019 1_555
O6 V3 1.738038 1_555
O6 V0 2.121263 1_655
O7 P7 1.565019 1_555
O8 P2 1.558815 1_555
O8 V2 2.008371 1_555
O9 P0 1.547868 1_555
O10 V1 1.738038 1_555
O10 V2 2.121263 1_455
O11 P6 1.555283 1_555
O11 V1 2.019376 1_555
O12 P4 1.547868 1_565
O13 P1 1.558815 1_555
O13 V1 2.008371 1_555
O14 P5 1.565019 1_555
O15 V0 1.738038 1_555
O15 V3 2.121263 1_555
O16 P3 1.565019 1_555
O17 P6 1.565019 1_555
O18 P7 1.547868 1_545
O19 P3 1.558815 1_555
O19 V0 2.008371 1_555
O20 P0 1.558815 1_555
O20 V0 2.008371 1_555
O21 P4 1.558815 1_555
O21 V1 2.008371 1_555
O22 P1 1.547868 1_565
O23 P5 1.555283 1_455
O23 V0 2.019376 1_555
O24 P6 1.558815 1_555
O24 V2 2.008371 1_555
O25 P2 1.555283 1_555
O25 V1 2.019376 1_555
O26 P0 1.555283 1_555
O26 V3 2.019376 1_555
O27 P3 1.555283 1_555
O27 V3 2.019376 1_555
O28 P7 1.555283 1_455
O28 V0 2.019376 1_555
O29 P5 1.547868 1_545
O30 P6 1.547868 1_555
O31 P3 1.547868 1_555
O32 P4 1.565019 1_555
O33 P2 1.565019 1_555
O34 P1 1.555283 1_655
O34 V2 2.019376 1_555
O35 P0 1.565019 1_555
