# generated using pymatgen
data_Li6Tb2O7
_symmetry_space_group_name_H-M   'P 1'
_cell_length_a   6.27073100
_cell_length_b   5.61590400
_cell_length_c   10.85053321
_cell_angle_alpha   70.49562167
_cell_angle_beta   90.00000000
_cell_angle_gamma   90.00000000
_symmetry_Int_Tables_number   1
_chemical_formula_structural   Li6Tb2O7
_chemical_formula_sum   'Li12 Tb4 O14'
_cell_volume   360.18342617
_cell_formula_units_Z   2
loop_
 _symmetry_equiv_pos_site_id
 _symmetry_equiv_pos_as_xyz
  1  'x, y, z'
loop_
 _atom_site_type_symbol
 _atom_site_label
 _atom_site_symmetry_multiplicity
 _atom_site_fract_x
 _atom_site_fract_y
 _atom_site_fract_z
 _atom_site_occupancy
  Li  Li0  1  0.00915400  0.15552300  0.38521000  1
  Li  Li1  1  0.74363800  0.22122300  0.63422100  1
  Li  Li2  1  0.50915400  0.84447700  0.11479000  1
  Li  Li3  1  0.21018300  0.19794700  0.14955000  1
  Li  Li4  1  0.75636200  0.22122300  0.13422100  1
  Li  Li5  1  0.25636200  0.77877700  0.36577900  1
  Li  Li6  1  0.71018300  0.80205300  0.35045000  1
  Li  Li7  1  0.28981700  0.19794700  0.64955000  1
  Li  Li8  1  0.78981700  0.80205300  0.85045000  1
  Li  Li9  1  0.99084600  0.84447700  0.61479000  1
  Li  Li10  1  0.24363800  0.77877700  0.86577900  1
  Li  Li11  1  0.49084600  0.15552300  0.88521000  1
  Tb  Tb0  1  0.98780900  0.72442200  0.13340900  1
  Tb  Tb1  1  0.48780900  0.27557800  0.36659100  1
  Tb  Tb2  1  0.51219100  0.72442200  0.63340900  1
  Tb  Tb3  1  0.01219100  0.27557800  0.86659100  1
  O  O0  1  0.24725600  0.97691200  0.00512800  1
  O  O1  1  0.74725600  0.02308800  0.49487200  1
  O  O2  1  0.31842600  0.45455500  0.78609100  1
  O  O3  1  0.81842600  0.54544500  0.71390900  1
  O  O4  1  0.51894700  0.97080500  0.75845500  1
  O  O5  1  0.75274400  0.02308800  0.99487200  1
  O  O6  1  0.98105300  0.97080500  0.25845500  1
  O  O7  1  0.68157400  0.54544500  0.21390900  1
  O  O8  1  0.48105300  0.02919500  0.24154500  1
  O  O9  1  0.00000000  0.50000000  0.00000000  1
  O  O10  1  0.25274400  0.97691200  0.50512800  1
  O  O11  1  0.18157400  0.45455500  0.28609100  1
  O  O12  1  0.01894700  0.02919500  0.74154500  1
  O  O13  1  0.50000000  0.50000000  0.50000000  1
loop_
_geom_bond_atom_site_label_1
_geom_bond_atom_site_label_2
_geom_bond_distance
_geom_bond_site_symmetry_2
Li0 O11 1.984893 1_555
Li0 O6 1.987837 1_445
Li0 O1 2.018705 1_455
Li0 O10 2.039823 1_545
Li1 O4 2.124662 1_545
Li1 O1 2.155983 1_555
Li1 O12 2.158914 1_655
Li1 O3 2.309584 1_555
Li1 O13 2.320274 1_555
Li2 O7 1.984893 1_555
Li2 O8 1.987837 1_565
Li2 O0 2.018705 1_555
Li2 O5 2.039823 1_564
Li3 O6 2.020252 1_445
Li3 O8 2.036642 1_555
Li3 O0 2.312896 1_545
Li3 O9 2.325866 1_555
Li3 O11 2.393651 1_555
Li4 O6 2.124662 1_545
Li4 O5 2.155983 1_554
Li4 O8 2.158914 1_555
Li4 O7 2.309584 1_555
Li4 O9 2.320274 1_655
Li5 O8 2.124662 1_565
Li5 O10 2.155983 1_555
Li5 O6 2.158914 1_455
Li5 O11 2.309584 1_555
Li5 O13 2.320274 1_555
Li6 O8 2.020252 1_565
Li6 O6 2.036642 1_555
Li6 O1 2.312896 1_565
Li6 O13 2.325866 1_555
Li6 O7 2.393651 1_555
Li7 O4 2.020252 1_545
Li7 O12 2.036642 1_555
Li7 O10 2.312896 1_545
Li7 O13 2.325866 1_555
Li7 O2 2.393651 1_555
Li8 O12 2.020252 1_665
Li8 O4 2.036642 1_555
Li8 O5 2.312896 1_565
Li8 O9 2.325866 1_656
Li8 O3 2.393651 1_555
Li9 O3 1.984893 1_555
Li9 O12 1.987837 1_665
Li9 O10 2.018705 1_655
Li9 O1 2.039823 1_565
Li10 O12 2.124662 1_565
Li10 O0 2.155983 1_556
Li10 O4 2.158914 1_555
Li10 O2 2.309584 1_555
Li10 O9 2.320274 1_556
Li11 O2 1.984893 1_555
Li11 O4 1.987837 1_545
Li11 O5 2.018705 1_555
Li11 O0 2.039823 1_546
O0 Tb0 2.297167 1_455
O0 Tb3 2.358396 1_564
O1 Tb1 2.297167 1_555
O1 Tb2 2.358396 1_545
O2 Tb2 2.200279 1_555
O2 Tb3 2.207844 1_555
O3 Tb3 2.200279 1_655
O3 Tb2 2.207844 1_555
O4 Tb2 2.238504 1_555
O5 Tb3 2.297167 1_655
O5 Tb0 2.358396 1_546
O6 Tb0 2.238504 1_555
O7 Tb1 2.200279 1_555
O7 Tb0 2.207844 1_555
O8 Tb1 2.238504 1_555
O9 Tb0 2.215394 1_455
O9 Tb3 2.215394 1_554
O10 Tb2 2.297167 1_555
O10 Tb1 2.358396 1_565
O11 Tb0 2.200279 1_455
O11 Tb1 2.207844 1_555
O12 Tb3 2.238504 1_555
O13 Tb2 2.215394 1_555
O13 Tb1 2.215394 1_555
