# generated using pymatgen
data_Sr4Fe6O13
_symmetry_space_group_name_H-M   'P 1'
_cell_length_a   11.71899049
_cell_length_b   11.71899049
_cell_length_c   11.71899049
_cell_angle_alpha   153.05538595
_cell_angle_beta   123.22258213
_cell_angle_gamma   63.93835310
_symmetry_Int_Tables_number   1
_chemical_formula_structural   Sr4Fe6O13
_chemical_formula_sum   'Sr8 Fe12 O26'
_cell_volume   604.94041798
_cell_formula_units_Z   2
loop_
 _symmetry_equiv_pos_site_id
 _symmetry_equiv_pos_as_xyz
  1  'x, y, z'
loop_
 _atom_site_type_symbol
 _atom_site_label
 _atom_site_symmetry_multiplicity
 _atom_site_fract_x
 _atom_site_fract_y
 _atom_site_fract_z
 _atom_site_occupancy
  Sr  Sr0  1  0.21644200  0.85327000  0.38088100  1
  Sr  Sr1  1  0.78355800  0.16443900  0.63682900  1
  Sr  Sr2  1  0.47238900  0.35327000  0.13682900  1
  Sr  Sr3  1  0.52761100  0.66443900  0.88088100  1
  Sr  Sr4  1  0.03568100  0.66512000  0.37432400  1
  Sr  Sr5  1  0.96431900  0.33864300  0.62943900  1
  Sr  Sr6  1  0.29079600  0.16512000  0.12943900  1
  Sr  Sr7  1  0.70920400  0.83864300  0.87432400  1
  Fe  Fe0  1  0.66307100  0.61014900  0.20490300  1
  Fe  Fe1  1  0.33692900  0.54183200  0.94707800  1
  Fe  Fe2  1  0.40524600  0.11014900  0.44707800  1
  Fe  Fe3  1  0.59475400  0.04183200  0.70490300  1
  Fe  Fe4  1  0.05560800  0.96355900  0.11554300  1
  Fe  Fe5  1  0.94439200  0.05993500  0.90795100  1
  Fe  Fe6  1  0.84801600  0.46355900  0.40795100  1
  Fe  Fe7  1  0.15198400  0.55993500  0.61554300  1
  Fe  Fe8  1  0.87509300  0.75467100  0.12605200  1
  Fe  Fe9  1  0.12490700  0.25096000  0.87957800  1
  Fe  Fe10  1  0.62861800  0.25467100  0.37957800  1
  Fe  Fe11  1  0.37138200  0.75096000  0.62605200  1
  O  O0  1  0.75862100  0.62885400  0.13583800  1
  O  O1  1  0.24137900  0.37721700  0.87023300  1
  O  O2  1  0.49301500  0.12885400  0.37023300  1
  O  O3  1  0.50698500  0.87721700  0.63583800  1
  O  O4  1  0.96976400  0.84297200  0.10158900  1
  O  O5  1  0.03023600  0.13182500  0.87320700  1
  O  O6  1  0.74138300  0.34297200  0.37320700  1
  O  O7  1  0.25861700  0.63182500  0.60158900  1
  O  O8  1  0.74287400  0.99760200  0.25953900  1
  O  O9  1  0.25712600  0.51666500  0.25472900  1
  O  O10  1  0.73806400  0.49760200  0.75472900  1
  O  O11  1  0.26193600  0.01666500  0.75953900  1
  O  O12  1  0.00321800  0.00396400  0.50253300  1
  O  O13  1  0.99678200  0.49931500  0.00074600  1
  O  O14  1  0.50143100  0.50396400  0.50074600  1
  O  O15  1  0.49856900  0.99931500  0.00253300  1
  O  O16  1  0.75866800  0.94459300  0.63089600  1
  O  O17  1  0.24133200  0.87222800  0.18592500  1
  O  O18  1  0.31369700  0.44459300  0.68592500  1
  O  O19  1  0.68630300  0.37222800  0.13089600  1
  O  O20  1  0.97007800  0.42305400  0.30044300  1
  O  O21  1  0.02992200  0.33036500  0.45297600  1
  O  O22  1  0.12261000  0.92305400  0.95297600  1
  O  O23  1  0.87739000  0.83036500  0.80044300  1
  O  O24  1  0.50000000  0.80061800  0.30061800  1
  O  O25  1  0.50000000  0.30061800  0.80061800  1
loop_
_geom_bond_atom_site_label_1
_geom_bond_atom_site_label_2
_geom_bond_distance
_geom_bond_site_symmetry_2
Fe0 O0 1.866030 1_555
Fe0 O19 1.969962 1_555
Fe0 O24 2.007347 1_555
Fe0 O16 2.093746 1_555
Fe0 O25 2.187686 1_554
Fe1 O1 1.866030 1_555
Fe1 O18 1.969962 1_555
Fe1 O24 2.007347 1_556
Fe1 O17 2.093746 1_556
Fe1 O25 2.187686 1_555
Fe2 O2 1.866019 1_555
Fe2 O17 1.969962 1_545
Fe2 O25 2.007347 1_555
Fe2 O18 2.093746 1_555
Fe2 O24 2.187686 1_545
Fe3 O3 1.866021 1_545
Fe3 O16 1.969962 1_545
Fe3 O25 2.007347 1_555
Fe3 O19 2.093746 1_556
Fe3 O24 2.187686 1_545
Fe4 O4 1.921638 1_455
Fe4 O21 2.016675 1_565
Fe4 O17 2.030492 1_555
Fe4 O22 2.042234 1_554
Fe4 O23 2.138052 1_454
Fe5 O5 1.921649 1_655
Fe5 O20 2.016675 1_556
Fe5 O16 2.030492 1_545
Fe5 O23 2.042236 1_545
Fe5 O22 2.138050 1_645
Fe6 O6 1.921629 1_555
Fe6 O23 2.016673 1_555
Fe6 O19 2.030492 1_555
Fe6 O20 2.042243 1_555
Fe6 O21 2.138056 1_655
Fe7 O7 1.921638 1_555
Fe7 O22 2.016679 1_555
Fe7 O18 2.030492 1_555
Fe7 O21 2.042243 1_555
Fe7 O20 2.138056 1_455
Fe8 O8 1.947514 1_555
Fe8 O10 1.952247 1_554
Fe8 O13 1.963523 1_555
Fe8 O12 1.967183 1_665
Fe8 O4 2.066415 1_555
Fe8 O0 2.508297 1_555
Fe9 O9 1.947519 1_556
Fe9 O11 1.952252 1_555
Fe9 O12 1.963520 1_555
Fe9 O13 1.967177 1_456
Fe9 O5 2.066415 1_555
Fe9 O1 2.508287 1_555
Fe10 O10 1.947522 1_555
Fe10 O8 1.952259 1_545
Fe10 O15 1.963520 1_545
Fe10 O14 1.967177 1_555
Fe10 O6 2.066435 1_555
Fe10 O2 2.508297 1_555
Fe11 O11 1.947516 1_565
Fe11 O9 1.952245 1_555
Fe11 O14 1.963522 1_555
Fe11 O15 1.967183 1_556
Fe11 O7 2.066435 1_555
Fe11 O3 2.508287 1_555
O0 Sr1 2.763122 1_554
O0 Sr4 2.772173 1_655
O0 Sr1 2.825222 1_565
O0 Sr3 2.965812 1_554
O1 Sr0 2.763127 1_545
O1 Sr5 2.772173 1_455
O1 Sr0 2.825222 1_556
O1 Sr2 2.965819 1_556
O2 Sr3 2.763132 1_544
O2 Sr6 2.772171 1_555
O2 Sr3 2.825221 1_555
O2 Sr1 2.965823 1_555
O3 Sr2 2.763126 1_555
O3 Sr7 2.772171 1_555
O3 Sr2 2.825231 1_566
O3 Sr0 2.965819 1_555
O4 Sr5 2.681549 1_554
O4 Sr7 2.720938 1_554
O4 Sr5 2.838023 1_565
O4 Sr0 2.884157 1_655
O5 Sr4 2.681544 1_545
O5 Sr6 2.720942 1_556
O5 Sr4 2.838024 1_556
O5 Sr1 2.884144 1_455
O6 Sr7 2.681547 1_544
O6 Sr5 2.720945 1_555
O6 Sr7 2.838027 1_555
O6 Sr2 2.884147 1_555
O7 Sr6 2.681549 1_555
O7 Sr4 2.720938 1_555
O7 Sr6 2.838023 1_566
O7 Sr3 2.884157 1_555
O8 Sr1 2.587642 1_565
O8 Sr3 2.607188 1_554
O8 Sr5 2.719716 1_565
O8 Sr7 2.775944 1_554
O9 Sr0 2.587639 1_555
O9 Sr2 2.607188 1_555
O9 Sr4 2.719710 1_555
O9 Sr6 2.775935 1_555
O10 Sr3 2.587637 1_555
O10 Sr1 2.607190 1_555
O10 Sr7 2.719721 1_555
O10 Sr5 2.775938 1_555
O11 Sr2 2.587637 1_556
O11 Sr0 2.607193 1_545
O11 Sr6 2.719710 1_556
O11 Sr4 2.775935 1_545
O12 Sr5 2.564135 1_455
O12 Sr4 2.613839 1_545
O12 Sr0 2.632955 1_545
O12 Sr1 2.747514 1_455
O13 Sr4 2.564135 1_655
O13 Sr5 2.613839 1_554
O13 Sr1 2.632958 1_554
O13 Sr0 2.747508 1_655
O14 Sr7 2.564135 1_555
O14 Sr6 2.613839 1_555
O14 Sr2 2.632944 1_555
O14 Sr3 2.747508 1_555
O15 Sr6 2.564135 1_565
O15 Sr7 2.613839 1_554
O15 Sr3 2.632955 1_554
O15 Sr2 2.747500 1_565
O16 Sr1 2.654493 1_565
O17 Sr0 2.654504 1_555
O18 Sr3 2.654504 1_555
O19 Sr2 2.654511 1_555
O20 Sr4 2.489156 1_655
O21 Sr5 2.489156 1_455
O22 Sr6 2.489166 1_566
O23 Sr7 2.489167 1_555
