# generated using pymatgen
data_Li7Mn16O32
_symmetry_space_group_name_H-M   'P 1'
_cell_length_a   23.11388882
_cell_length_b   8.17173088
_cell_length_c   10.01009456
_cell_angle_alpha   65.90981246
_cell_angle_beta   30.01264540
_cell_angle_gamma   45.00184476
_symmetry_Int_Tables_number   1
_chemical_formula_structural   Li7Mn16O32
_chemical_formula_sum   'Li7 Mn16 O32'
_cell_volume   546.17218284
_cell_formula_units_Z   1
loop_
 _symmetry_equiv_pos_site_id
 _symmetry_equiv_pos_as_xyz
  1  'x, y, z'
loop_
 _atom_site_type_symbol
 _atom_site_label
 _atom_site_symmetry_multiplicity
 _atom_site_fract_x
 _atom_site_fract_y
 _atom_site_fract_z
 _atom_site_occupancy
  Li  Li0  1  0.05994900  0.13009200  0.75327700  1
  Li  Li1  1  0.18739000  0.87522100  0.25000000  1
  Li  Li2  1  0.31538000  0.12268600  0.74654600  1
  Li  Li3  1  0.43737400  0.87525300  0.25000000  1
  Li  Li4  1  0.56322600  0.12355800  0.74672300  1
  Li  Li5  1  0.81192600  0.12270300  0.75345400  1
  Li  Li6  1  0.93737400  0.87525300  0.25000000  1
  Mn  Mn0  1  0.12450900  0.00099200  0.00100800  1
  Mn  Mn1  1  0.25189000  0.49790100  0.99637100  1
  Mn  Mn2  1  0.37677000  0.99847100  0.99632000  1
  Mn  Mn3  1  0.12309000  0.50180800  0.50368000  1
  Mn  Mn4  1  0.25042000  0.50009100  0.49907900  1
  Mn  Mn5  1  0.49949900  0.50007200  0.00092100  1
  Mn  Mn6  1  0.62611100  0.99777700  0.99950500  1
  Mn  Mn7  1  0.37561600  0.49877000  0.50049500  1
  Mn  Mn8  1  0.50022000  0.49786500  0.49973200  1
  Mn  Mn9  1  0.87474900  0.99847200  0.00035400  1
  Mn  Mn10  1  0.74995200  0.50179200  0.00026800  1
  Mn  Mn11  1  0.62510400  0.50182200  0.49964600  1
  Mn  Mn12  1  0.74887700  0.50172100  0.50052300  1
  Mn  Mn13  1  0.99940000  0.50172300  0.99947700  1
  Mn  Mn14  1  0.87551700  0.49895700  0.49899200  1
  Mn  Mn15  1  0.99826100  0.50179800  0.50362900  1
  O  O0  1  0.10563400  0.26267700  0.02623600  1
  O  O1  1  0.24345500  0.26324800  0.02645800  1
  O  O2  1  0.01991300  0.71001400  0.47354200  1
  O  O3  1  0.13155600  0.26340500  0.47354900  1
  O  O4  1  0.35510400  0.26327500  0.02645100  1
  O  O5  1  0.23078600  0.28884500  0.52563700  1
  O  O6  1  0.11847500  0.73728400  0.52593700  1
  O  O7  1  0.00697900  0.73676800  0.97324000  1
  O  O8  1  0.49310600  0.26361200  0.02635400  1
  O  O9  1  0.38168600  0.26318000  0.47329800  1
  O  O10  1  0.26946000  0.71125500  0.47364600  1
  O  O11  1  0.60498400  0.26347800  0.02670200  1
  O  O12  1  0.14412000  0.73772500  0.97446900  1
  O  O13  1  0.47728400  0.29525400  0.53029400  1
  O  O14  1  0.36802200  0.73802200  0.52668700  1
  O  O15  1  0.25647400  0.73722100  0.97405400  1
  O  O16  1  0.74314000  0.26325400  0.02709300  1
  O  O17  1  0.63178700  0.26295200  0.47309600  1
  O  O18  1  0.52023300  0.70999900  0.47290700  1
  O  O19  1  0.85488300  0.26370800  0.02690400  1
  O  O20  1  0.39441200  0.73694300  0.97406300  1
  O  O21  1  0.61750300  0.73505800  0.53011700  1
  O  O22  1  0.73021900  0.28883500  0.52676000  1
  O  O23  1  0.50642300  0.73673600  0.97436300  1
  O  O24  1  0.99330000  0.26325300  0.02676600  1
  O  O25  1  0.88187000  0.26231600  0.47376400  1
  O  O26  1  0.77006600  0.71001400  0.47323400  1
  O  O27  1  0.64470800  0.73651800  0.97331300  1
  O  O28  1  0.98052800  0.28877500  0.52594600  1
  O  O29  1  0.86858900  0.73685700  0.52553100  1
  O  O30  1  0.75757800  0.73502100  0.96970600  1
  O  O31  1  0.89762000  0.73469700  0.96988300  1
loop_
_geom_bond_atom_site_label_1
_geom_bond_atom_site_label_2
_geom_bond_distance
_geom_bond_site_symmetry_2
Li0 O19 1.949292 1_456
Li0 O3 1.949427 1_555
Li0 O24 1.951789 1_456
Li0 O10 1.976643 1_545
Li1 O28 1.951709 1_465
Li1 O15 1.951718 1_554
Li1 O20 1.953215 1_554
Li1 O6 1.953220 1_555
Li2 O18 1.947743 1_545
Li2 O1 1.947779 1_556
Li2 O9 1.952778 1_555
Li2 O0 1.978841 1_556
Li3 O5 1.951891 1_565
Li3 O23 1.951905 1_554
Li3 O27 1.953415 1_554
Li3 O14 1.953434 1_555
Li4 O17 1.949292 1_555
Li4 O4 1.949436 1_556
Li4 O26 1.951794 1_545
Li4 O8 1.976638 1_556
Li5 O16 1.947733 1_556
Li5 O2 1.947794 1_645
Li5 O11 1.952792 1_556
Li5 O25 1.978841 1_555
Li6 O22 1.951851 1_565
Li6 O7 1.951865 1_654
Li6 O12 1.953460 1_654
Li6 O29 1.953469 1_555
Mn0 O0 1.938469 1_555
Mn0 O25 1.938584 1_455
Mn0 O24 1.939700 1_455
Mn0 O15 1.942813 1_544
Mn0 O12 1.945068 1_544
Mn0 O14 1.945343 1_544
Mn1 O13 1.913979 1_555
Mn1 O1 1.939370 1_556
Mn1 O4 1.939697 1_556
Mn1 O15 1.944510 1_555
Mn1 O12 1.945556 1_555
Mn1 O2 1.957258 1_556
Mn2 O21 1.914450 1_555
Mn2 O1 1.939608 1_566
Mn2 O4 1.939846 1_566
Mn2 O20 1.944794 1_555
Mn2 O23 1.944843 1_555
Mn2 O3 1.957425 1_566
Mn3 O31 1.914451 1_455
Mn3 O2 1.939608 1_555
Mn3 O3 1.939837 1_555
Mn3 O6 1.944811 1_555
Mn3 O5 1.944843 1_555
Mn3 O4 1.957426 1_555
Mn4 O10 1.938393 1_555
Mn4 O8 1.938557 1_555
Mn4 O9 1.940451 1_555
Mn4 O6 1.943225 1_555
Mn4 O5 1.944437 1_555
Mn4 O7 1.944707 1_555
Mn5 O8 1.938409 1_555
Mn5 O10 1.938558 1_555
Mn5 O11 1.940452 1_555
Mn5 O20 1.943225 1_554
Mn5 O23 1.944420 1_554
Mn5 O22 1.944706 1_554
Mn6 O30 1.912918 1_555
Mn6 O27 1.943054 1_555
Mn6 O29 1.943158 1_555
Mn6 O11 1.944160 1_566
Mn6 O9 1.944469 1_566
Mn6 O8 1.960558 1_566
Mn7 O13 1.912917 1_555
Mn7 O14 1.943047 1_555
Mn7 O12 1.943158 1_555
Mn7 O9 1.944184 1_555
Mn7 O11 1.944471 1_555
Mn7 O10 1.960559 1_555
Mn8 O13 1.913852 1_555
Mn8 O16 1.939577 1_555
Mn8 O17 1.939616 1_555
Mn8 O15 1.944674 1_555
Mn8 O14 1.945546 1_555
Mn8 O18 1.957038 1_555
Mn9 O31 1.914348 1_554
Mn9 O16 1.939501 1_565
Mn9 O17 1.939997 1_565
Mn9 O7 1.944823 1_654
Mn9 O6 1.944989 1_654
Mn9 O19 1.957223 1_565
Mn10 O30 1.913836 1_554
Mn10 O18 1.939578 1_555
Mn10 O19 1.939617 1_555
Mn10 O28 1.944673 1_554
Mn10 O27 1.945561 1_554
Mn10 O16 1.957054 1_555
Mn11 O21 1.914355 1_555
Mn11 O18 1.939518 1_555
Mn11 O19 1.939998 1_555
Mn11 O22 1.944806 1_555
Mn11 O20 1.944988 1_555
Mn11 O17 1.957224 1_555
Mn12 O21 1.912965 1_555
Mn12 O22 1.942462 1_555
Mn12 O23 1.942654 1_555
Mn12 O26 1.944044 1_555
Mn12 O24 1.944363 1_555
Mn12 O25 1.961054 1_555
Mn13 O31 1.912966 1_555
Mn13 O7 1.942471 1_655
Mn13 O5 1.942655 1_655
Mn13 O24 1.944035 1_556
Mn13 O26 1.944362 1_556
Mn13 O0 1.961053 1_656
Mn14 O25 1.938469 1_555
Mn14 O0 1.938584 1_655
Mn14 O26 1.939701 1_555
Mn14 O28 1.942813 1_555
Mn14 O29 1.945060 1_555
Mn14 O27 1.945342 1_555
Mn15 O30 1.913980 1_555
Mn15 O2 1.939345 1_655
Mn15 O3 1.939713 1_655
Mn15 O28 1.944518 1_555
Mn15 O29 1.945556 1_555
Mn15 O1 1.957257 1_655
