# generated using pymatgen
data_ZnS
_symmetry_space_group_name_H-M   'P 1'
_cell_length_a   3.81017914
_cell_length_b   3.81017955
_cell_length_c   74.78473753
_cell_angle_alpha   90.00000000
_cell_angle_beta   90.00000000
_cell_angle_gamma   119.99999645
_symmetry_Int_Tables_number   1
_chemical_formula_structural   ZnS
_chemical_formula_sum   'Zn24 S24'
_cell_volume   940.23076518
_cell_formula_units_Z   24
loop_
 _symmetry_equiv_pos_site_id
 _symmetry_equiv_pos_as_xyz
  1  'x, y, z'
loop_
 _atom_site_type_symbol
 _atom_site_label
 _atom_site_symmetry_multiplicity
 _atom_site_fract_x
 _atom_site_fract_y
 _atom_site_fract_z
 _atom_site_occupancy
  Zn  Zn0  1  0.66666700  0.33333300  0.95834835  1
  Zn  Zn1  1  0.66666700  0.33333300  0.45832507  1
  Zn  Zn2  1  0.00000000  -0.00000000  0.37501960  1
  Zn  Zn3  1  0.33333300  0.66666700  0.33332650  1
  Zn  Zn4  1  0.33333300  0.66666700  0.70834385  1
  Zn  Zn5  1  0.66666700  0.33333300  0.08334122  1
  Zn  Zn6  1  0.00000000  -0.00000000  0.91669397  1
  Zn  Zn7  1  0.66666700  0.33333300  0.54171150  1
  Zn  Zn8  1  0.66666700  0.33333300  0.20831974  1
  Zn  Zn9  1  -0.00000000  0.00000000  0.83336482  1
  Zn  Zn10  1  0.33333300  0.66666700  0.04168895  1
  Zn  Zn11  1  -0.00000000  0.00000000  0.12501600  1
  Zn  Zn12  1  0.33333300  0.66666700  0.16668214  1
  Zn  Zn13  1  0.33333300  0.66666700  0.41671193  1
  Zn  Zn14  1  0.00000000  -0.00000000  0.50001676  1
  Zn  Zn15  1  0.00000000  -0.00000000  0.62502017  1
  Zn  Zn16  1  0.66666700  0.33333300  0.66668877  1
  Zn  Zn17  1  0.66666700  0.33333300  0.29171205  1
  Zn  Zn18  1  0.33333300  0.66666700  0.58334465  1
  Zn  Zn19  1  -0.00000000  0.00000000  0.25001593  1
  Zn  Zn20  1  0.66666700  0.33333300  0.79168954  1
  Zn  Zn21  1  -0.00000000  0.00000000  0.00004554  1
  Zn  Zn22  1  0.33333300  0.66666700  0.87502270  1
  Zn  Zn23  1  -0.00000000  0.00000000  0.75000521  1
  S  S0  1  0.66666700  0.33333300  0.69789993  1
  S  S1  1  0.33333300  0.66666700  0.19788940  1
  S  S2  1  0.33333300  0.66666700  0.44790182  1
  S  S3  1  0.00000000  -0.00000000  0.40626906  1
  S  S4  1  0.00000000  -0.00000000  0.53126706  1
  S  S5  1  0.66666700  0.33333300  0.57290657  1
  S  S6  1  0.66666700  0.33333300  0.32290164  1
  S  S7  1  0.00000000  -0.00000000  0.78119775  1
  S  S8  1  0.00000000  0.00000000  0.86453967  1
  S  S9  1  0.00000000  -0.00000000  0.03123865  1
  S  S10  1  0.66666700  0.33333300  0.98959795  1
  S  S11  1  0.00000000  -0.00000000  0.15622672  1
  S  S12  1  0.00000000  0.00000000  0.94787781  1
  S  S13  1  -0.00000000  -0.00000000  0.65623130  1
  S  S14  1  0.33333300  0.66666700  0.73955711  1
  S  S15  1  -0.00000000  -0.00000000  0.28126676  1
  S  S16  1  0.66666700  0.33333300  0.48952044  1
  S  S17  1  0.33333300  0.66666700  0.36452396  1
  S  S18  1  0.33333300  0.66666700  0.07289832  1
  S  S19  1  0.66666700  0.33333300  0.11455810  1
  S  S20  1  0.33333300  0.66666700  0.61456156  1
  S  S21  1  0.66666700  0.33333300  0.82293192  1
  S  S22  1  0.33333300  0.66666700  0.90626262  1
  S  S23  1  0.66666700  0.33333300  0.23951793  1
loop_
_geom_bond_atom_site_label_1
_geom_bond_atom_site_label_2
_geom_bond_distance
_geom_bond_site_symmetry_2
S0 Zn16 2.334118 1_555
S0 Zn4 2.334348 1_655
S0 Zn4 2.334348 1_545
S0 Zn4 2.334354 1_555
S1 Zn12 2.333827 1_555
S1 Zn8 2.334008 1_455
S1 Zn8 2.334008 1_565
S1 Zn8 2.334014 1_555
S2 Zn13 2.332528 1_555
S2 Zn1 2.333831 1_455
S2 Zn1 2.333831 1_565
S2 Zn1 2.333837 1_555
S3 Zn13 2.334321 1_545
S3 Zn13 2.334324 1_445
S3 Zn13 2.334325 1_555
S3 Zn2 2.336983 1_555
S4 Zn7 2.334361 1_455
S4 Zn7 2.334364 1_555
S4 Zn7 2.334364 1_445
S4 Zn14 2.337045 1_555
S5 Zn7 2.332915 1_555
S5 Zn18 2.334201 1_655
S5 Zn18 2.334202 1_545
S5 Zn18 2.334208 1_555
S6 Zn17 2.332505 1_555
S6 Zn3 2.333871 1_655
S6 Zn3 2.333871 1_545
S6 Zn3 2.333877 1_555
S7 Zn23 2.332726 1_555
S7 Zn20 2.335548 1_455
S7 Zn20 2.335551 1_555
S7 Zn20 2.335551 1_445
S8 Zn9 2.331403 1_555
S8 Zn22 2.335328 1_545
S8 Zn22 2.335331 1_445
S8 Zn22 2.335331 1_555
S9 Zn21 2.332769 1_555
S9 Zn10 2.334507 1_545
S9 Zn10 2.334510 1_445
S9 Zn10 2.334511 1_555
S10 Zn21 2.334439 1_656
S10 Zn21 2.334442 1_556
S10 Zn21 2.334443 1_666
S10 Zn0 2.336993 1_555
S11 Zn11 2.334086 1_555
S11 Zn12 2.334635 1_545
S11 Zn12 2.334639 1_445
S11 Zn12 2.334639 1_555
S12 Zn6 2.332075 1_555
S12 Zn0 2.335014 1_455
S12 Zn0 2.335017 1_555
S12 Zn0 2.335018 1_445
S13 Zn15 2.334116 1_555
S13 Zn16 2.334687 1_455
S13 Zn16 2.334690 1_555
S13 Zn16 2.334690 1_445
S14 Zn4 2.334275 1_555
S14 Zn23 2.334452 1_565
S14 Zn23 2.334455 1_665
S14 Zn23 2.334455 1_555
S15 Zn17 2.334382 1_455
S15 Zn17 2.334385 1_555
S15 Zn17 2.334385 1_445
S15 Zn19 2.337085 1_555
S16 Zn1 2.332938 1_555
S16 Zn14 2.335662 1_655
S16 Zn14 2.335665 1_555
S16 Zn14 2.335665 1_665
S17 Zn3 2.333094 1_555
S17 Zn2 2.335644 1_565
S17 Zn2 2.335648 1_665
S17 Zn2 2.335648 1_555
S18 Zn10 2.333985 1_555
S18 Zn5 2.334322 1_455
S18 Zn5 2.334322 1_565
S18 Zn5 2.334328 1_555
S19 Zn5 2.334546 1_555
S19 Zn11 2.334698 1_655
S19 Zn11 2.334701 1_555
S19 Zn11 2.334701 1_665
S20 Zn18 2.334548 1_555
S20 Zn15 2.334715 1_565
S20 Zn15 2.334718 1_665
S20 Zn15 2.334719 1_555
S21 Zn9 2.334072 1_655
S21 Zn9 2.334075 1_555
S21 Zn9 2.334075 1_665
S21 Zn20 2.336453 1_555
S22 Zn6 2.334033 1_565
S22 Zn6 2.334036 1_665
S22 Zn6 2.334036 1_555
S22 Zn22 2.336269 1_555
S23 Zn8 2.333148 1_555
S23 Zn19 2.335704 1_655
S23 Zn19 2.335707 1_555
S23 Zn19 2.335707 1_665
