# generated using pymatgen
data_Ni10Sn5P3
_symmetry_space_group_name_H-M   'P 1'
_cell_length_a   6.38614310
_cell_length_b   8.29170118
_cell_length_c   10.23748774
_cell_angle_alpha   73.55383458
_cell_angle_beta   84.41596972
_cell_angle_gamma   82.89028609
_symmetry_Int_Tables_number   1
_chemical_formula_structural   Ni10Sn5P3
_chemical_formula_sum   'Ni20 Sn10 P6'
_cell_volume   514.81318472
_cell_formula_units_Z   2
loop_
 _symmetry_equiv_pos_site_id
 _symmetry_equiv_pos_as_xyz
  1  'x, y, z'
loop_
 _atom_site_type_symbol
 _atom_site_label
 _atom_site_symmetry_multiplicity
 _atom_site_fract_x
 _atom_site_fract_y
 _atom_site_fract_z
 _atom_site_occupancy
  Ni  Ni0  1  0.71296741  0.27201705  0.19966461  1
  Ni  Ni1  1  0.65697133  0.60347329  0.69411602  1
  Ni  Ni2  1  0.86326119  0.13695822  0.62355722  1
  Ni  Ni3  1  0.57797752  0.91762421  0.70613113  1
  Ni  Ni4  1  0.14370241  0.35124567  0.54862803  1
  Ni  Ni5  1  0.94144254  0.56868245  0.87251420  1
  Ni  Ni6  1  0.28703259  0.72798295  0.80033539  1
  Ni  Ni7  1  0.26946840  0.21159035  0.96346702  1
  Ni  Ni8  1  0.34302867  0.39652671  0.30588398  1
  Ni  Ni9  1  0.13673881  0.86304178  0.37644278  1
  Ni  Ni10  1  0.50000000  0.50000000  0.50000000  1
  Ni  Ni11  1  0.05670966  0.70433351  0.20291607  1
  Ni  Ni12  1  0.94329034  0.29566649  0.79708393  1
  Ni  Ni13  1  0.39733541  0.60795934  0.06892760  1
  Ni  Ni14  1  0.42202248  0.08237579  0.29386887  1
  Ni  Ni15  1  0.85629759  0.64875433  0.45137197  1
  Ni  Ni16  1  0.73053160  0.78840965  0.03653298  1
  Ni  Ni17  1  0.00000000  0.00000000  -0.00000000  1
  Ni  Ni18  1  0.05855746  0.43131755  0.12748580  1
  Ni  Ni19  1  0.60266459  0.39204066  0.93107240  1
  Sn  Sn0  1  0.35064666  0.91243378  0.13090977  1
  Sn  Sn1  1  0.20532064  0.05009122  0.75889553  1
  Sn  Sn2  1  0.79467936  0.94990878  0.24110447  1
  Sn  Sn3  1  0.53163234  0.18219834  0.49777724  1
  Sn  Sn4  1  0.64935334  0.08756622  0.86909023  1
  Sn  Sn5  1  0.46836766  0.81780166  0.50222276  1
  Sn  Sn6  1  0.29798042  0.44927657  0.74207689  1
  Sn  Sn7  1  0.03546143  0.18237896  0.37227465  1
  Sn  Sn8  1  0.96453857  0.81762104  0.62772535  1
  Sn  Sn9  1  0.70201958  0.55072343  0.25792311  1
  P  P0  1  0.07631303  0.71791481  0.98381938  1
  P  P1  1  0.39349914  0.31587134  0.11403968  1
  P  P2  1  0.92368697  0.28208519  0.01618062  1
  P  P3  1  0.19713338  0.59268033  0.39913395  1
  P  P4  1  0.60650086  0.68412866  0.88596032  1
  P  P5  1  0.80286662  0.40731967  0.60086605  1
loop_
_geom_bond_atom_site_label_1
_geom_bond_atom_site_label_2
_geom_bond_distance
_geom_bond_site_symmetry_2
Ni0 P2 2.189376 1_555
Ni0 P1 2.246516 1_555
Ni0 Ni14 2.524030 1_555
Ni0 Sn9 2.536418 1_555
Ni0 Sn2 2.577227 1_545
Ni0 Sn7 2.739016 1_655
Ni1 P5 2.180761 1_555
Ni1 P4 2.230610 1_555
Ni1 Sn5 2.534172 1_555
Ni1 Ni3 2.626576 1_555
Ni1 Sn6 2.698648 1_555
Ni1 Sn8 2.719010 1_555
Ni2 P5 2.176403 1_555
Ni2 Sn3 2.518843 1_555
Ni2 Sn1 2.616240 1_655
Ni2 Sn8 2.636040 1_545
Ni2 Sn7 2.640516 1_655
Ni2 Ni3 2.644094 1_545
Ni2 Sn4 2.690639 1_555
Ni3 P4 2.265081 1_555
Ni3 Ni6 2.524030 1_555
Ni3 Sn1 2.569158 1_565
Ni3 Sn4 2.571892 1_565
Ni3 Sn3 2.600490 1_565
Ni3 Sn8 2.628792 1_555
Ni3 Sn5 2.634178 1_555
Ni4 P3 2.190652 1_555
Ni4 P5 2.214412 1_455
Ni4 Sn6 2.653863 1_555
Ni4 Sn7 2.758935 1_555
Ni4 Sn3 2.770513 1_555
Ni4 Sn1 2.811049 1_555
Ni5 P0 2.196497 1_655
Ni5 P4 2.240757 1_555
Ni5 P2 2.424548 1_556
Ni5 Sn6 2.747102 1_655
Ni5 Sn8 2.763510 1_555
Ni6 P0 2.189376 1_555
Ni6 P4 2.246516 1_555
Ni6 Sn6 2.536418 1_555
Ni6 Sn1 2.577227 1_565
Ni6 Sn8 2.739016 1_455
Ni7 P1 2.216546 1_556
Ni7 P2 2.266334 1_456
Ni7 Sn6 2.556070 1_555
Ni7 Sn0 2.609051 1_546
Ni7 Sn4 2.713927 1_555
Ni7 Sn1 2.870163 1_555
Ni8 P3 2.180761 1_555
Ni8 P1 2.230610 1_555
Ni8 Sn3 2.534172 1_555
Ni8 Sn9 2.698648 1_555
Ni8 Sn7 2.719010 1_555
Ni9 P3 2.176403 1_555
Ni9 Sn5 2.518843 1_555
Ni9 Sn2 2.616240 1_455
Ni9 Sn7 2.636040 1_565
Ni9 Sn8 2.640516 1_455
Ni9 Sn0 2.690639 1_555
Ni10 P3 2.229173 1_555
Ni10 P5 2.229173 1_555
Ni10 Sn5 2.624205 1_555
Ni10 Sn3 2.624205 1_555
Ni10 Sn9 2.627734 1_555
Ni10 Sn6 2.627734 1_555
Ni11 P3 2.188267 1_555
Ni11 P0 2.205725 1_554
Ni11 Sn2 2.565002 1_455
Ni11 Sn0 2.618516 1_555
Ni11 Sn9 2.670183 1_455
Ni11 Ni17 2.738563 1_565
Ni12 P5 2.188267 1_555
Ni12 P2 2.205725 1_556
Ni12 Sn1 2.565002 1_655
Ni12 Sn4 2.618516 1_555
Ni12 Sn6 2.670183 1_655
Ni12 Ni17 2.738563 1_656
Ni13 P4 2.178024 1_554
Ni13 P0 2.286573 1_554
Ni13 P1 2.336380 1_555
Ni13 Sn0 2.747569 1_555
Ni13 Sn9 2.781895 1_555
Ni14 P1 2.265081 1_555
Ni14 Sn2 2.569158 1_545
Ni14 Sn0 2.571892 1_545
Ni14 Sn5 2.600490 1_545
Ni14 Ni8 2.626576 1_555
Ni14 Sn7 2.628792 1_555
Ni14 Sn3 2.634178 1_555
Ni14 Ni9 2.644094 1_545
Ni15 P5 2.190652 1_555
Ni15 P3 2.214412 1_655
Ni15 Sn9 2.653863 1_555
Ni15 Sn8 2.758935 1_555
Ni15 Sn5 2.770513 1_555
Ni15 Sn2 2.811049 1_555
Ni16 P4 2.216546 1_554
Ni16 P0 2.266334 1_654
Ni16 Ni17 2.535723 1_665
Ni16 Sn9 2.556070 1_555
Ni16 Sn4 2.609051 1_564
Ni16 Sn0 2.713927 1_555
Ni16 Sn2 2.870163 1_555
Ni17 P0 2.378490 1_544
Ni17 P2 2.378490 1_455
Ni17 Ni7 2.535723 1_554
Ni17 Sn1 2.628453 1_554
Ni17 Sn2 2.628453 1_445
Ni17 Sn0 2.639743 1_545
Ni17 Sn4 2.639743 1_454
Ni18 P2 2.196497 1_455
Ni18 P1 2.240757 1_555
Ni18 P0 2.424548 1_554
Ni18 Sn9 2.747102 1_455
Ni18 Sn7 2.763510 1_555
Ni19 P1 2.178024 1_556
Ni19 P2 2.286573 1_556
Ni19 P4 2.336380 1_555
Ni19 Sn4 2.747569 1_555
Ni19 Sn6 2.781895 1_555
