# generated using pymatgen
data_Ba6NaCu3Te14
_symmetry_space_group_name_H-M   'P 1'
_cell_length_a   14.32841355
_cell_length_b   14.32841355
_cell_length_c   9.13561600
_cell_angle_alpha   90.00000000
_cell_angle_beta   90.00000000
_cell_angle_gamma   119.99999792
_symmetry_Int_Tables_number   1
_chemical_formula_structural   Ba6NaCu3Te14
_chemical_formula_sum   'Ba12 Na2 Cu6 Te28'
_cell_volume   1624.29419684
_cell_formula_units_Z   2
loop_
 _symmetry_equiv_pos_site_id
 _symmetry_equiv_pos_as_xyz
  1  'x, y, z'
loop_
 _atom_site_type_symbol
 _atom_site_label
 _atom_site_symmetry_multiplicity
 _atom_site_fract_x
 _atom_site_fract_y
 _atom_site_fract_z
 _atom_site_occupancy
  Ba  Ba0  1  0.24352800  0.79227800  0.25000000  1
  Ba  Ba1  1  0.45124900  0.24352800  0.75000000  1
  Ba  Ba2  1  0.54875100  0.79227800  0.75000000  1
  Ba  Ba3  1  0.79227800  0.54875100  0.75000000  1
  Ba  Ba4  1  0.75647200  0.54875100  0.25000000  1
  Ba  Ba5  1  0.24352800  0.45124900  0.75000000  1
  Ba  Ba6  1  0.79227800  0.24352800  0.25000000  1
  Ba  Ba7  1  0.75647200  0.20772200  0.75000000  1
  Ba  Ba8  1  0.20772200  0.45124900  0.25000000  1
  Ba  Ba9  1  0.20772200  0.75647200  0.75000000  1
  Ba  Ba10  1  0.54875100  0.75647200  0.25000000  1
  Ba  Ba11  1  0.45124900  0.20772200  0.25000000  1
  Na  Na0  1  0.00000000  0.00000000  0.50000000  1
  Na  Na1  1  0.00000000  0.00000000  0.00000000  1
  Cu  Cu0  1  0.80766900  0.00000000  0.25000000  1
  Cu  Cu1  1  0.80766900  0.80766900  0.75000000  1
  Cu  Cu2  1  0.00000000  0.80766900  0.25000000  1
  Cu  Cu3  1  0.19233100  0.00000000  0.75000000  1
  Cu  Cu4  1  0.19233100  0.19233100  0.25000000  1
  Cu  Cu5  1  0.00000000  0.19233100  0.75000000  1
  Te  Te0  1  0.17194100  0.00000000  0.25000000  1
  Te  Te1  1  0.33333300  0.66666700  0.00000000  1
  Te  Te2  1  0.00000000  0.31813300  0.52607300  1
  Te  Te3  1  0.82805900  0.00000000  0.75000000  1
  Te  Te4  1  0.68186700  0.68186700  0.97392700  1
  Te  Te5  1  0.31813300  0.00000000  0.97392700  1
  Te  Te6  1  0.00000000  0.17194100  0.25000000  1
  Te  Te7  1  0.00000000  0.68186700  0.47392700  1
  Te  Te8  1  0.00000000  0.68186700  0.02607300  1
  Te  Te9  1  0.00000000  0.46762300  0.75000000  1
  Te  Te10  1  0.31813300  0.31813300  0.02607300  1
  Te  Te11  1  0.82805900  0.82805900  0.25000000  1
  Te  Te12  1  0.46762300  0.00000000  0.75000000  1
  Te  Te13  1  0.68186700  0.00000000  0.02607300  1
  Te  Te14  1  0.66666700  0.33333300  0.50000000  1
  Te  Te15  1  0.66666700  0.33333300  0.00000000  1
  Te  Te16  1  0.68186700  0.00000000  0.47392700  1
  Te  Te17  1  0.53237700  0.53237700  0.75000000  1
  Te  Te18  1  0.46762300  0.46762300  0.25000000  1
  Te  Te19  1  0.31813300  0.00000000  0.52607300  1
  Te  Te20  1  0.68186700  0.68186700  0.52607300  1
  Te  Te21  1  0.00000000  0.31813300  0.97392700  1
  Te  Te22  1  0.33333300  0.66666700  0.50000000  1
  Te  Te23  1  0.31813300  0.31813300  0.47392700  1
  Te  Te24  1  0.00000000  0.53237700  0.25000000  1
  Te  Te25  1  0.53237700  0.00000000  0.25000000  1
  Te  Te26  1  0.00000000  0.82805900  0.75000000  1
  Te  Te27  1  0.17194100  0.17194100  0.75000000  1
loop_
_geom_bond_atom_site_label_1
_geom_bond_atom_site_label_2
_geom_bond_distance
_geom_bond_site_symmetry_2
Ba0 Te22 3.525224 1_555
Ba0 Te1 3.525224 1_555
Ba0 Te0 3.600492 1_565
Ba0 Cu2 3.604697 1_555
Ba0 Te24 3.612387 1_555
Ba0 Te5 3.630508 1_564
Ba0 Te19 3.630508 1_565
Ba0 Te7 3.652831 1_555
Ba0 Te8 3.652831 1_555
Ba0 Te25 3.697227 1_565
Ba1 Te15 3.525244 1_556
Ba1 Te14 3.525244 1_555
Ba1 Te27 3.600478 1_555
Ba1 Cu3 3.604689 1_555
Ba1 Te12 3.612395 1_555
Ba1 Te23 3.630498 1_555
Ba1 Te10 3.630498 1_556
Ba1 Te19 3.652830 1_555
Ba1 Te5 3.652830 1_555
Ba1 Te17 3.697224 1_555
Ba2 Te1 3.525242 1_556
Ba2 Te22 3.525242 1_555
Ba2 Te3 3.600482 1_565
Ba2 Cu1 3.604683 1_555
Ba2 Te17 3.612381 1_555
Ba2 Te16 3.630506 1_565
Ba2 Te13 3.630506 1_566
Ba2 Te20 3.652820 1_555
Ba2 Te4 3.652820 1_555
Ba2 Te12 3.697237 1_565
Ba3 Te15 3.525242 1_556
Ba3 Te14 3.525242 1_555
Ba3 Te26 3.600482 1_655
Ba3 Cu1 3.604683 1_555
Ba3 Te17 3.612381 1_555
Ba3 Te7 3.630506 1_655
Ba3 Te8 3.630506 1_656
Ba3 Te4 3.652820 1_555
Ba3 Te20 3.652820 1_555
Ba3 Te9 3.697237 1_655
Ba4 Te15 3.525244 1_555
Ba4 Te14 3.525244 1_555
Ba4 Te11 3.600478 1_555
Ba4 Cu2 3.604689 1_655
Ba4 Te24 3.612395 1_655
Ba4 Te4 3.630498 1_554
Ba4 Te20 3.630498 1_555
Ba4 Te7 3.652830 1_655
Ba4 Te8 3.652830 1_655
Ba4 Te18 3.697224 1_555
Ba5 Te1 3.525244 1_556
Ba5 Te22 3.525244 1_555
Ba5 Te27 3.600478 1_555
Ba5 Cu5 3.604689 1_555
Ba5 Te9 3.612395 1_555
Ba5 Te23 3.630498 1_555
Ba5 Te10 3.630498 1_556
Ba5 Te21 3.652830 1_555
Ba5 Te2 3.652830 1_555
Ba5 Te17 3.697224 1_555
Ba6 Te14 3.525224 1_555
Ba6 Te15 3.525224 1_555
Ba6 Te6 3.600492 1_655
Ba6 Cu0 3.604697 1_555
Ba6 Te25 3.612387 1_555
Ba6 Te21 3.630508 1_654
Ba6 Te2 3.630508 1_655
Ba6 Te16 3.652831 1_555
Ba6 Te13 3.652831 1_555
Ba6 Te24 3.697227 1_655
Ba7 Te15 3.525224 1_556
Ba7 Te14 3.525224 1_555
Ba7 Te3 3.600492 1_555
Ba7 Cu5 3.604697 1_655
Ba7 Te9 3.612387 1_655
Ba7 Te13 3.630508 1_556
Ba7 Te16 3.630508 1_555
Ba7 Te21 3.652831 1_655
Ba7 Te2 3.652831 1_655
Ba7 Te12 3.697227 1_555
Ba8 Te22 3.525242 1_555
Ba8 Te1 3.525242 1_555
Ba8 Te6 3.600482 1_555
Ba8 Cu4 3.604683 1_555
Ba8 Te18 3.612381 1_555
Ba8 Te2 3.630506 1_555
Ba8 Te21 3.630506 1_554
Ba8 Te23 3.652820 1_555
Ba8 Te10 3.652820 1_555
Ba8 Te24 3.697237 1_555
Ba9 Te1 3.525224 1_556
Ba9 Te22 3.525224 1_555
Ba9 Te26 3.600492 1_555
Ba9 Cu3 3.604697 1_565
Ba9 Te12 3.612387 1_565
Ba9 Te8 3.630508 1_556
Ba9 Te7 3.630508 1_555
Ba9 Te19 3.652831 1_565
Ba9 Te5 3.652831 1_565
Ba9 Te9 3.697227 1_555
Ba10 Te22 3.525244 1_555
Ba10 Te1 3.525244 1_555
Ba10 Te11 3.600478 1_555
Ba10 Cu0 3.604689 1_565
Ba10 Te25 3.612395 1_565
Ba10 Te4 3.630498 1_554
Ba10 Te20 3.630498 1_555
Ba10 Te16 3.652830 1_565
Ba10 Te13 3.652830 1_565
Ba10 Te18 3.697224 1_555
Ba11 Te15 3.525242 1_555
Ba11 Te14 3.525242 1_555
Ba11 Te0 3.600482 1_555
Ba11 Cu4 3.604683 1_555
Ba11 Te18 3.612381 1_555
Ba11 Te19 3.630506 1_555
Ba11 Te5 3.630506 1_554
Ba11 Te23 3.652820 1_555
Ba11 Te10 3.652820 1_555
Ba11 Te25 3.697237 1_555
Na0 Te0 3.359427 1_555
Na0 Te26 3.359427 1_545
Na0 Te3 3.359427 1_455
Na0 Te6 3.359427 1_555
Na0 Te11 3.359427 1_445
Na0 Te27 3.359427 1_555
Na1 Te3 3.359427 1_454
Na1 Te26 3.359427 1_544
Na1 Te0 3.359427 1_555
Na1 Te6 3.359427 1_555
Na1 Te11 3.359427 1_445
Na1 Te27 3.359427 1_554
Cu0 Te11 2.621956 1_545
Cu0 Te6 2.621956 1_655
Cu0 Te16 2.726554 1_555
Cu0 Te13 2.726554 1_555
Cu0 Na0 3.579196 1_655
Cu0 Na1 3.579196 1_655
Cu1 Te26 2.621956 1_655
Cu1 Te3 2.621956 1_565
Cu1 Te20 2.726554 1_555
Cu1 Te4 2.726554 1_555
Cu1 Na1 3.579196 1_666
Cu1 Na0 3.579196 1_665
Cu2 Te11 2.621956 1_455
Cu2 Te0 2.621956 1_565
Cu2 Te7 2.726554 1_555
Cu2 Te8 2.726554 1_555
Cu2 Na1 3.579196 1_565
Cu2 Na0 3.579196 1_565
Cu3 Te27 2.621956 1_555
Cu3 Te26 2.621956 1_545
Cu3 Te19 2.726554 1_555
Cu3 Te5 2.726554 1_555
Cu3 Na0 3.579196 1_555
Cu3 Na1 3.579196 1_556
Cu4 Te0 2.621956 1_555
Cu4 Te6 2.621956 1_555
Cu4 Te10 2.726554 1_555
Cu4 Te23 2.726554 1_555
Cu4 Na0 3.579196 1_555
Cu4 Na1 3.579196 1_555
Cu5 Te27 2.621956 1_555
Cu5 Te3 2.621956 1_455
Cu5 Te21 2.726554 1_555
Cu5 Te2 2.726554 1_555
Cu5 Na0 3.579196 1_555
Cu5 Na1 3.579196 1_556
Te0 Te19 3.278527 1_555
Te0 Te5 3.278527 1_554
Te2 Te9 2.961909 1_555
Te2 Te6 3.278527 1_555
Te10 Te18 2.961909 1_555
Te10 Te27 3.278527 1_554
Te11 Te4 3.278527 1_554
Te11 Te20 3.278527 1_555
Te12 Te5 2.961909 1_555
Te12 Te19 2.961909 1_555
Te13 Te25 2.961909 1_555
Te13 Te3 3.278527 1_554
Te16 Te25 2.961909 1_555
Te16 Te3 3.278527 1_555
Te17 Te4 2.961909 1_555
Te17 Te20 2.961909 1_555
Te18 Te23 2.961909 1_555
Te21 Te9 2.961909 1_555
Te21 Te6 3.278527 1_556
Te23 Te27 3.278527 1_555
Te24 Te7 2.961909 1_555
Te24 Te8 2.961909 1_555
Te26 Te8 3.278527 1_556
Te26 Te7 3.278527 1_555
