# generated using pymatgen
data_K3P(W3O10)4
_symmetry_space_group_name_H-M   'P 1'
_cell_length_a   11.99618700
_cell_length_b   11.99618700
_cell_length_c   11.99618700
_cell_angle_alpha   90.00000000
_cell_angle_beta   90.00000000
_cell_angle_gamma   90.00000000
_symmetry_Int_Tables_number   1
_chemical_formula_structural   K3P(W3O10)4
_chemical_formula_sum   'K6 P2 W24 O80'
_cell_volume   1726.35330735
_cell_formula_units_Z   2
loop_
 _symmetry_equiv_pos_site_id
 _symmetry_equiv_pos_as_xyz
  1  'x, y, z'
loop_
 _atom_site_type_symbol
 _atom_site_label
 _atom_site_symmetry_multiplicity
 _atom_site_fract_x
 _atom_site_fract_y
 _atom_site_fract_z
 _atom_site_occupancy
  K  K0  1  0.50000000  0.50000000  0.00000000  1
  K  K1  1  0.50000000  0.00000000  0.00000000  1
  K  K2  1  0.50000000  0.00000000  0.50000000  1
  K  K3  1  0.00000000  0.50000000  0.50000000  1
  K  K4  1  0.00000000  0.50000000  0.00000000  1
  K  K5  1  0.00000000  0.00000000  0.50000000  1
  P  P0  1  0.50000000  0.50000000  0.50000000  1
  P  P1  1  0.00000000  0.00000000  0.00000000  1
  W  W0  1  0.21408100  0.21408100  0.00768100  1
  W  W1  1  0.50768100  0.71408100  0.28591900  1
  W  W2  1  0.21408100  0.78591900  0.99231900  1
  W  W3  1  0.21408100  0.99231900  0.78591900  1
  W  W4  1  0.99231900  0.21408100  0.78591900  1
  W  W5  1  0.49231900  0.71408100  0.71408100  1
  W  W6  1  0.78591900  0.99231900  0.21408100  1
  W  W7  1  0.71408100  0.28591900  0.50768100  1
  W  W8  1  0.00768100  0.21408100  0.21408100  1
  W  W9  1  0.71408100  0.49231900  0.71408100  1
  W  W10  1  0.99231900  0.78591900  0.21408100  1
  W  W11  1  0.21408100  0.00768100  0.21408100  1
  W  W12  1  0.00768100  0.78591900  0.78591900  1
  W  W13  1  0.78591900  0.21408100  0.99231900  1
  W  W14  1  0.49231900  0.28591900  0.28591900  1
  W  W15  1  0.28591900  0.50768100  0.71408100  1
  W  W16  1  0.78591900  0.00768100  0.78591900  1
  W  W17  1  0.28591900  0.28591900  0.49231900  1
  W  W18  1  0.50768100  0.28591900  0.71408100  1
  W  W19  1  0.71408100  0.50768100  0.28591900  1
  W  W20  1  0.78591900  0.78591900  0.00768100  1
  W  W21  1  0.28591900  0.71408100  0.50768100  1
  W  W22  1  0.71408100  0.71408100  0.49231900  1
  W  W23  1  0.28591900  0.49231900  0.28591900  1
  O  O0  1  0.31526400  0.01563300  0.68473600  1
  O  O1  1  0.12361900  0.71653800  0.87638100  1
  O  O2  1  0.40212600  0.24567300  0.59787400  1
  O  O3  1  0.74567300  0.90212600  0.90212600  1
  O  O4  1  0.09787400  0.74567300  0.09787400  1
  O  O5  1  0.12361900  0.28346200  0.12361900  1
  O  O6  1  0.25432700  0.90212600  0.09787400  1
  O  O7  1  0.90212600  0.90212600  0.74567300  1
  O  O8  1  0.21653800  0.37638100  0.37638100  1
  O  O9  1  0.81526400  0.48436700  0.18473600  1
  O  O10  1  0.31526400  0.31526400  0.98436700  1
  O  O11  1  0.42553300  0.57446700  0.57446700  1
  O  O12  1  0.87638100  0.71653800  0.12361900  1
  O  O13  1  0.62361900  0.21653800  0.62361900  1
  O  O14  1  0.18473600  0.18473600  0.51563300  1
  O  O15  1  0.98436700  0.68473600  0.68473600  1
  O  O16  1  0.71653800  0.12361900  0.87638100  1
  O  O17  1  0.62361900  0.37638100  0.78346200  1
  O  O18  1  0.09787400  0.25432700  0.90212600  1
  O  O19  1  0.07446700  0.92553300  0.92553300  1
  O  O20  1  0.40212600  0.59787400  0.24567300  1
  O  O21  1  0.68473600  0.98436700  0.68473600  1
  O  O22  1  0.09787400  0.09787400  0.74567300  1
  O  O23  1  0.75432700  0.59787400  0.59787400  1
  O  O24  1  0.12361900  0.12361900  0.28346200  1
  O  O25  1  0.28346200  0.87638100  0.87638100  1
  O  O26  1  0.57446700  0.42553300  0.57446700  1
  O  O27  1  0.40212600  0.40212600  0.75432700  1
  O  O28  1  0.90212600  0.09787400  0.25432700  1
  O  O29  1  0.81526400  0.81526400  0.51563300  1
  O  O30  1  0.51563300  0.18473600  0.18473600  1
  O  O31  1  0.28346200  0.12361900  0.12361900  1
  O  O32  1  0.48436700  0.18473600  0.81526400  1
  O  O33  1  0.81526400  0.51563300  0.81526400  1
  O  O34  1  0.21653800  0.62361900  0.62361900  1
  O  O35  1  0.37638100  0.62361900  0.78346200  1
  O  O36  1  0.18473600  0.51563300  0.18473600  1
  O  O37  1  0.48436700  0.81526400  0.18473600  1
  O  O38  1  0.59787400  0.40212600  0.24567300  1
  O  O39  1  0.57446700  0.57446700  0.42553300  1
  O  O40  1  0.92553300  0.07446700  0.92553300  1
  O  O41  1  0.59787400  0.59787400  0.75432700  1
  O  O42  1  0.40212600  0.75432700  0.40212600  1
  O  O43  1  0.75432700  0.40212600  0.40212600  1
  O  O44  1  0.90212600  0.74567300  0.90212600  1
  O  O45  1  0.87638100  0.28346200  0.87638100  1
  O  O46  1  0.24567300  0.40212600  0.59787400  1
  O  O47  1  0.25432700  0.09787400  0.90212600  1
  O  O48  1  0.59787400  0.75432700  0.59787400  1
  O  O49  1  0.68473600  0.31526400  0.01563300  1
  O  O50  1  0.01563300  0.31526400  0.68473600  1
  O  O51  1  0.07446700  0.07446700  0.07446700  1
  O  O52  1  0.87638100  0.12361900  0.71653800  1
  O  O53  1  0.62361900  0.62361900  0.21653800  1
  O  O54  1  0.18473600  0.81526400  0.48436700  1
  O  O55  1  0.87638100  0.87638100  0.28346200  1
  O  O56  1  0.92553300  0.92553300  0.07446700  1
  O  O57  1  0.37638100  0.37638100  0.21653800  1
  O  O58  1  0.12361900  0.87638100  0.71653800  1
  O  O59  1  0.37638100  0.21653800  0.37638100  1
  O  O60  1  0.71653800  0.87638100  0.12361900  1
  O  O61  1  0.98436700  0.31526400  0.31526400  1
  O  O62  1  0.59787400  0.24567300  0.40212600  1
  O  O63  1  0.78346200  0.62361900  0.37638100  1
  O  O64  1  0.24567300  0.59787400  0.40212600  1
  O  O65  1  0.51563300  0.81526400  0.81526400  1
  O  O66  1  0.18473600  0.48436700  0.81526400  1
  O  O67  1  0.09787400  0.90212600  0.25432700  1
  O  O68  1  0.90212600  0.25432700  0.09787400  1
  O  O69  1  0.42553300  0.42553300  0.42553300  1
  O  O70  1  0.31526400  0.68473600  0.01563300  1
  O  O71  1  0.68473600  0.01563300  0.31526400  1
  O  O72  1  0.31526400  0.98436700  0.31526400  1
  O  O73  1  0.78346200  0.37638100  0.62361900  1
  O  O74  1  0.01563300  0.68473600  0.31526400  1
  O  O75  1  0.81526400  0.18473600  0.48436700  1
  O  O76  1  0.68473600  0.68473600  0.98436700  1
  O  O77  1  0.74567300  0.09787400  0.09787400  1
  O  O78  1  0.62361900  0.78346200  0.37638100  1
  O  O79  1  0.37638100  0.78346200  0.62361900  1
loop_
_geom_bond_atom_site_label_1
_geom_bond_atom_site_label_2
_geom_bond_distance
_geom_bond_site_symmetry_2
K0 O70 3.139684 1_555
K0 O49 3.139684 1_555
K0 O10 3.139684 1_554
K0 O76 3.139684 1_554
K0 O53 3.338563 1_555
K0 O17 3.338563 1_554
K0 O35 3.338563 1_554
K0 O57 3.338563 1_555
K0 O20 3.382709 1_555
K0 O38 3.382709 1_555
K0 O41 3.382709 1_554
K0 O27 3.382709 1_554
K1 O30 3.139684 1_555
K1 O32 3.139684 1_554
K1 O37 3.139684 1_545
K1 O65 3.139684 1_544
K1 O31 3.338563 1_555
K1 O16 3.338563 1_554
K1 O60 3.338563 1_545
K1 O25 3.338563 1_544
K1 O77 3.382709 1_555
K1 O3 3.382709 1_544
K1 O47 3.382709 1_554
K1 O6 3.382709 1_545
K2 O0 3.139684 1_555
K2 O71 3.139684 1_555
K2 O21 3.139684 1_545
K2 O72 3.139684 1_545
K2 O13 3.338563 1_555
K2 O79 3.338563 1_545
K2 O78 3.338563 1_545
K2 O59 3.338563 1_555
K2 O2 3.382709 1_555
K2 O62 3.382709 1_555
K2 O48 3.382709 1_545
K2 O42 3.382709 1_545
K3 O74 3.139684 1_555
K3 O50 3.139684 1_555
K3 O61 3.139684 1_455
K3 O15 3.139684 1_455
K3 O34 3.338563 1_555
K3 O63 3.338563 1_455
K3 O73 3.338563 1_455
K3 O8 3.338563 1_555
K3 O46 3.382709 1_555
K3 O64 3.382709 1_555
K3 O23 3.382709 1_455
K3 O43 3.382709 1_455
K4 O36 3.139684 1_555
K4 O9 3.139684 1_455
K4 O66 3.139684 1_554
K4 O33 3.139684 1_454
K4 O5 3.338563 1_555
K4 O1 3.338563 1_554
K4 O12 3.338563 1_455
K4 O45 3.338563 1_454
K4 O4 3.382709 1_555
K4 O44 3.382709 1_454
K4 O68 3.382709 1_455
K4 O18 3.382709 1_554
K5 O14 3.139684 1_555
K5 O54 3.139684 1_545
K5 O75 3.139684 1_455
K5 O29 3.139684 1_445
K5 O24 3.338563 1_555
K5 O58 3.338563 1_545
K5 O52 3.338563 1_455
K5 O55 3.338563 1_445
K5 O22 3.382709 1_555
K5 O7 3.382709 1_445
K5 O28 3.382709 1_455
K5 O67 3.382709 1_545
O0 W3 1.739221 1_545
O1 W2 1.950578 1_555
O1 W12 1.950578 1_555
O2 W18 1.944184 1_555
O2 W17 1.944184 1_555
O3 W16 1.944184 1_565
O3 W20 1.944184 1_556
O4 W10 1.944184 1_455
O4 W2 1.944184 1_554
O5 W0 1.950578 1_555
O5 W8 1.950578 1_555
O6 W11 1.944184 1_565
O6 W2 1.944184 1_554
O7 W16 1.944184 1_565
O7 W12 1.944184 1_655
O8 W23 1.950578 1_555
O8 W17 1.950578 1_555
O9 W19 1.739221 1_555
O10 W0 1.739221 1_556
O11 P0 1.547276 1_555
O12 W20 1.950578 1_555
O12 W10 1.950578 1_555
O13 W18 1.950578 1_555
O13 W7 1.950578 1_555
O14 W17 1.739221 1_555
O15 W12 1.739221 1_655
O16 W13 1.950578 1_555
O16 W16 1.950578 1_555
O17 W18 1.950578 1_555
O17 W9 1.950578 1_555
O18 W0 1.944184 1_556
O18 W4 1.944184 1_455
O19 P1 1.547276 1_566
O20 W1 1.944184 1_555
O20 W23 1.944184 1_555
O21 W16 1.739221 1_565
O22 W4 1.944184 1_455
O22 W3 1.944184 1_545
O23 W9 1.944184 1_555
O23 W22 1.944184 1_555
O24 W11 1.950578 1_555
O24 W8 1.950578 1_555
O25 W2 1.950578 1_555
O25 W3 1.950578 1_555
O26 P0 1.547276 1_555
O27 W15 1.944184 1_555
O27 W18 1.944184 1_555
O28 W8 1.944184 1_655
O28 W6 1.944184 1_545
O29 W22 1.739221 1_555
O30 W14 1.739221 1_555
O31 W0 1.950578 1_555
O31 W11 1.950578 1_555
O32 W18 1.739221 1_555
O33 W9 1.739221 1_555
O34 W21 1.950578 1_555
O34 W15 1.950578 1_555
O35 W15 1.950578 1_555
O35 W5 1.950578 1_555
O36 W23 1.739221 1_555
O37 W1 1.739221 1_555
O38 W19 1.944184 1_555
O38 W14 1.944184 1_555
O39 P0 1.547276 1_555
O40 P1 1.547276 1_656
O41 W5 1.944184 1_555
O41 W9 1.944184 1_555
O42 W1 1.944184 1_555
O42 W21 1.944184 1_555
O43 W7 1.944184 1_555
O43 W19 1.944184 1_555
O44 W20 1.944184 1_556
O44 W12 1.944184 1_655
O45 W4 1.950578 1_555
O45 W13 1.950578 1_555
O46 W15 1.944184 1_555
O46 W17 1.944184 1_555
O47 W0 1.944184 1_556
O47 W3 1.944184 1_545
O48 W22 1.944184 1_555
O48 W5 1.944184 1_555
O49 W13 1.739221 1_554
O50 W4 1.739221 1_455
O51 P1 1.547276 1_555
O52 W4 1.950578 1_555
O52 W16 1.950578 1_555
O53 W19 1.950578 1_555
O53 W1 1.950578 1_555
O54 W21 1.739221 1_555
O55 W10 1.950578 1_555
O55 W6 1.950578 1_555
O56 P1 1.547276 1_665
O57 W14 1.950578 1_555
O57 W23 1.950578 1_555
O58 W3 1.950578 1_555
O58 W12 1.950578 1_555
O59 W17 1.950578 1_555
O59 W14 1.950578 1_555
O60 W6 1.950578 1_555
O60 W20 1.950578 1_555
O61 W8 1.739221 1_655
O62 W7 1.944184 1_555
O62 W14 1.944184 1_555
O63 W19 1.950578 1_555
O63 W22 1.950578 1_555
O64 W21 1.944184 1_555
O64 W23 1.944184 1_555
O65 W5 1.739221 1_555
O66 W15 1.739221 1_555
O67 W11 1.944184 1_565
O67 W10 1.944184 1_455
O68 W8 1.944184 1_655
O68 W13 1.944184 1_554
O69 P0 1.547276 1_555
O70 W2 1.739221 1_554
O71 W6 1.739221 1_545
O72 W11 1.739221 1_565
O73 W7 1.950578 1_555
O73 W9 1.950578 1_555
O74 W10 1.739221 1_455
O75 W7 1.739221 1_555
O76 W20 1.739221 1_556
O77 W6 1.944184 1_545
O77 W13 1.944184 1_554
O78 W1 1.950578 1_555
O78 W22 1.950578 1_555
O79 W21 1.950578 1_555
O79 W5 1.950578 1_555
