# generated using pymatgen
data_SmBi2BrO4
_symmetry_space_group_name_H-M   'P 1'
_cell_length_a   3.95829200
_cell_length_b   3.95829200
_cell_length_c   9.40433000
_cell_angle_alpha   90.00000000
_cell_angle_beta   90.00000000
_cell_angle_gamma   90.00000000
_symmetry_Int_Tables_number   1
_chemical_formula_structural   SmBi2BrO4
_chemical_formula_sum   'Sm1 Bi2 Br1 O4'
_cell_volume   147.34775301
_cell_formula_units_Z   1
loop_
 _symmetry_equiv_pos_site_id
 _symmetry_equiv_pos_as_xyz
  1  'x, y, z'
loop_
 _atom_site_type_symbol
 _atom_site_label
 _atom_site_symmetry_multiplicity
 _atom_site_fract_x
 _atom_site_fract_y
 _atom_site_fract_z
 _atom_site_occupancy
  Sm  Sm0  1  0.00000000  0.00000000  0.00000000  1
  Bi  Bi0  1  0.50000000  0.50000000  0.27008900  1
  Bi  Bi1  1  0.50000000  0.50000000  0.72991100  1
  Br  Br0  1  0.00000000  0.00000000  0.50000000  1
  O  O0  1  0.50000000  0.00000000  0.15272500  1
  O  O1  1  0.50000000  0.00000000  0.84727500  1
  O  O2  1  0.00000000  0.50000000  0.84727500  1
  O  O3  1  0.00000000  0.50000000  0.15272500  1
loop_
_geom_bond_atom_site_label_1
_geom_bond_atom_site_label_2
_geom_bond_distance
_geom_bond_site_symmetry_2
Bi0 O3 2.266106 1_555
Bi0 O0 2.266106 1_555
Bi0 O0 2.266106 1_565
Bi0 O3 2.266106 1_655
Bi1 O1 2.266106 1_565
Bi1 O2 2.266106 1_555
Bi1 O2 2.266106 1_655
Bi1 O1 2.266106 1_555
O0 Sm0 2.445385 1_555
O0 Sm0 2.445385 1_655
O1 Sm0 2.445385 1_556
O1 Sm0 2.445385 1_656
O2 Sm0 2.445385 1_556
O2 Sm0 2.445385 1_566
O3 Sm0 2.445385 1_555
O3 Sm0 2.445385 1_565
