# generated using pymatgen
data_Cr5Ge3
_symmetry_space_group_name_H-M   'P 1'
_cell_length_a   7.00038443
_cell_length_b   7.00038443
_cell_length_c   7.00038443
_cell_angle_alpha   96.51666648
_cell_angle_beta   96.51666648
_cell_angle_gamma   140.62546047
_symmetry_Int_Tables_number   1
_chemical_formula_structural   Cr5Ge3
_chemical_formula_sum   'Cr10 Ge6'
_cell_volume   204.90911136
_cell_formula_units_Z   2
loop_
 _symmetry_equiv_pos_site_id
 _symmetry_equiv_pos_as_xyz
  1  'x, y, z'
loop_
 _atom_site_type_symbol
 _atom_site_label
 _atom_site_symmetry_multiplicity
 _atom_site_fract_x
 _atom_site_fract_y
 _atom_site_fract_z
 _atom_site_occupancy
  Cr  Cr0  1  0.26490500  0.42179000  0.68669400  1
  Cr  Cr1  1  0.57821000  0.26490500  0.84311500  1
  Cr  Cr2  1  0.73509500  0.57821000  0.31330600  1
  Cr  Cr3  1  0.75000000  0.25000000  0.50000000  1
  Cr  Cr4  1  0.76490500  0.07821000  0.84311500  1
  Cr  Cr5  1  0.07821000  0.23509500  0.31330600  1
  Cr  Cr6  1  0.42179000  0.73509500  0.15688500  1
  Cr  Cr7  1  0.23509500  0.92179000  0.15688500  1
  Cr  Cr8  1  0.92179000  0.76490500  0.68669400  1
  Cr  Cr9  1  0.25000000  0.75000000  0.50000000  1
  Ge  Ge0  1  0.66661000  0.83339000  0.50000000  1
  Ge  Ge1  1  0.25000000  0.25000000  0.00000000  1
  Ge  Ge2  1  0.75000000  0.75000000  0.00000000  1
  Ge  Ge3  1  0.83339000  0.33339000  0.16678000  1
  Ge  Ge4  1  0.16661000  0.66661000  0.83322000  1
  Ge  Ge5  1  0.33339000  0.16661000  0.50000000  1
loop_
_geom_bond_atom_site_label_1
_geom_bond_atom_site_label_2
_geom_bond_distance
_geom_bond_site_symmetry_2
Cr0 Ge4 2.459118 1_555
Cr0 Cr5 2.461067 1_555
Cr0 Ge5 2.462789 1_555
Cr0 Ge2 2.593098 1_556
Cr0 Ge1 2.593100 1_556
Cr0 Ge0 2.660862 1_555
Cr0 Ge0 2.660866 1_445
Cr1 Ge5 2.459115 1_555
Cr1 Cr4 2.461081 1_555
Cr1 Ge3 2.462792 1_556
Cr1 Ge1 2.593094 1_556
Cr1 Ge2 2.593094 1_556
Cr1 Ge4 2.660867 1_655
Cr1 Ge4 2.660867 1_545
Cr2 Ge3 2.459118 1_555
Cr2 Cr8 2.461067 1_555
Cr2 Ge0 2.462789 1_555
Cr2 Ge1 2.593098 1_555
Cr2 Ge2 2.593100 1_555
Cr2 Ge5 2.660862 1_555
Cr2 Ge5 2.660866 1_665
Cr3 Cr9 2.358332 1_545
Cr3 Cr9 2.358332 1_655
Cr3 Ge5 2.492834 1_555
Cr3 Ge4 2.492834 1_655
Cr3 Ge3 2.492834 1_555
Cr3 Ge0 2.492834 1_545
Cr4 Ge0 2.459115 1_545
Cr4 Ge3 2.462792 1_556
Cr4 Ge2 2.593094 1_546
Cr4 Ge1 2.593094 1_656
Cr4 Ge4 2.660867 1_545
Cr4 Ge4 2.660867 1_655
Cr5 Ge3 2.459118 1_455
Cr5 Ge5 2.462789 1_555
Cr5 Ge2 2.593098 1_445
Cr5 Ge1 2.593100 1_555
Cr5 Ge0 2.660862 1_445
Cr5 Ge0 2.660866 1_555
Cr6 Ge0 2.459115 1_555
Cr6 Cr7 2.461081 1_555
Cr6 Ge4 2.462792 1_554
Cr6 Ge2 2.593094 1_555
Cr6 Ge1 2.593094 1_555
Cr6 Ge3 2.660867 1_565
Cr6 Ge3 2.660867 1_455
Cr7 Ge5 2.459115 1_565
Cr7 Ge4 2.462792 1_554
Cr7 Ge1 2.593094 1_565
Cr7 Ge2 2.593094 1_455
Cr7 Ge3 2.660867 1_565
Cr7 Ge3 2.660867 1_455
Cr8 Ge4 2.459118 1_655
Cr8 Ge0 2.462789 1_555
Cr8 Ge1 2.593098 1_666
Cr8 Ge2 2.593100 1_556
Cr8 Ge5 2.660862 1_665
Cr8 Ge5 2.660866 1_555
Cr9 Ge5 2.492834 1_565
Cr9 Ge4 2.492834 1_555
Cr9 Ge3 2.492834 1_455
Cr9 Ge0 2.492834 1_555
Ge1 Ge2 2.358332 1_445
Ge1 Ge2 2.358332 1_555
