# generated using pymatgen
data_K2Li14Pb3O14
_symmetry_space_group_name_H-M   'P 1'
_cell_length_a   8.49039349
_cell_length_b   8.49039349
_cell_length_c   8.49039349
_cell_angle_alpha   128.62637938
_cell_angle_beta   122.96022951
_cell_angle_gamma   80.31123401
_symmetry_Int_Tables_number   1
_chemical_formula_structural   K2Li14Pb3O14
_chemical_formula_sum   'K2 Li14 Pb3 O14'
_cell_volume   387.24512422
_cell_formula_units_Z   1
loop_
 _symmetry_equiv_pos_site_id
 _symmetry_equiv_pos_as_xyz
  1  'x, y, z'
loop_
 _atom_site_type_symbol
 _atom_site_label
 _atom_site_symmetry_multiplicity
 _atom_site_fract_x
 _atom_site_fract_y
 _atom_site_fract_z
 _atom_site_occupancy
  K  K0  1  0.50000000  0.24673400  0.74673400  1
  K  K1  1  0.50000000  0.75326600  0.25326600  1
  Li  Li0  1  0.84151600  0.50000000  0.34151600  1
  Li  Li1  1  0.15848400  0.50000000  0.65848400  1
  Li  Li2  1  0.41658100  0.77110200  0.64548000  1
  Li  Li3  1  0.58341900  0.22889800  0.35452000  1
  Li  Li4  1  0.87437800  0.22889800  0.64548000  1
  Li  Li5  1  0.12562200  0.77110200  0.35452000  1
  Li  Li6  1  0.70991300  0.59299900  0.57183600  1
  Li  Li7  1  0.29008700  0.86192300  0.88308600  1
  Li  Li8  1  0.97883700  0.40700100  0.11691400  1
  Li  Li9  1  0.02116300  0.13807700  0.42816400  1
  Li  Li10  1  0.29008700  0.40700100  0.42816400  1
  Li  Li11  1  0.70991300  0.13807700  0.11691400  1
  Li  Li12  1  0.02116300  0.59299900  0.88308600  1
  Li  Li13  1  0.97883700  0.86192300  0.57183600  1
  Pb  Pb0  1  0.72744500  0.72744500  0.00000000  1
  Pb  Pb1  1  0.27255500  0.27255500  0.00000000  1
  Pb  Pb2  1  0.00000000  0.00000000  0.00000000  1
  O  O0  1  0.74809000  0.04057100  0.29248000  1
  O  O1  1  0.25191000  0.54439000  0.29248000  1
  O  O2  1  0.25191000  0.95942900  0.70752000  1
  O  O3  1  0.74809000  0.45561000  0.70752000  1
  O  O4  1  0.00000000  0.70409000  0.70409000  1
  O  O5  1  0.00000000  0.29591000  0.29591000  1
  O  O6  1  0.68696400  0.87260900  0.81435500  1
  O  O7  1  0.31303600  0.12739100  0.18564500  1
  O  O8  1  0.94174500  0.12739100  0.81435500  1
  O  O9  1  0.05825500  0.87260900  0.18564500  1
  O  O10  1  0.41107500  0.62765000  0.78342400  1
  O  O11  1  0.58892500  0.37235000  0.21657600  1
  O  O12  1  0.15577400  0.37235000  0.78342400  1
  O  O13  1  0.84422600  0.62765000  0.21657600  1
loop_
_geom_bond_atom_site_label_1
_geom_bond_atom_site_label_2
_geom_bond_distance
_geom_bond_site_symmetry_2
K0 O10 3.050062 1_555
K0 O13 3.050063 1_556
K0 O12 3.050063 1_555
K0 O11 3.050066 1_556
K0 O3 3.232708 1_555
K0 O2 3.232715 1_545
K1 O11 3.050062 1_555
K1 O12 3.050063 1_554
K1 O13 3.050063 1_555
K1 O10 3.050066 1_554
K1 O1 3.232708 1_555
K1 O0 3.232715 1_565
Li0 O13 1.941837 1_555
Li0 O11 1.941844 1_555
Li0 O5 1.976766 1_655
Li0 O4 1.976766 1_655
Li1 O12 1.941837 1_555
Li1 O10 1.941844 1_555
Li1 O5 1.976766 1_555
Li1 O4 1.976766 1_555
Li2 O6 1.900061 1_555
Li2 O2 1.945830 1_555
Li2 O1 1.945840 1_555
Li2 O10 2.171865 1_555
Li3 O7 1.900061 1_555
Li3 O0 1.945830 1_555
Li3 O3 1.945840 1_555
Li3 O11 2.171865 1_555
Li4 O8 1.900055 1_555
Li4 O3 1.945841 1_555
Li4 O0 1.945841 1_555
Li4 O12 2.171872 1_655
Li5 O9 1.900055 1_555
Li5 O1 1.945841 1_555
Li5 O2 1.945841 1_555
Li5 O13 2.171872 1_455
Li6 O11 1.970876 1_555
Li6 O3 1.984192 1_555
Li6 O6 2.022777 1_555
Li6 O4 2.160321 1_655
Li7 O10 1.970883 1_555
Li7 O2 1.984185 1_555
Li7 O7 2.022777 1_566
Li7 O4 2.160321 1_555
Li8 O13 1.970878 1_555
Li8 O1 1.984192 1_655
Li8 O8 2.022774 1_554
Li8 O5 2.160321 1_655
Li9 O12 1.970878 1_555
Li9 O0 1.984190 1_455
Li9 O9 2.022782 1_545
Li9 O5 2.160321 1_555
Li10 O10 1.970876 1_555
Li10 O1 1.984192 1_555
Li10 O7 2.022777 1_555
Li10 O5 2.160321 1_555
Li11 O11 1.970883 1_555
Li11 O0 1.984185 1_555
Li11 O6 2.022777 1_544
Li11 O5 2.160321 1_655
Li12 O12 1.970878 1_555
Li12 O3 1.984192 1_455
Li12 O9 2.022774 1_556
Li12 O4 2.160321 1_555
Li13 O13 1.970878 1_555
Li13 O2 1.984190 1_655
Li13 O8 2.022782 1_565
Li13 O4 2.160321 1_655
O0 Pb0 2.169370 1_545
O1 Pb1 2.169365 1_555
O2 Pb1 2.169370 1_566
O3 Pb0 2.169365 1_556
O4 Pb2 2.178001 1_566
O5 Pb2 2.178001 1_555
O6 Pb2 2.235839 1_666
O6 Pb0 2.411412 1_556
O7 Pb2 2.235839 1_555
O7 Pb1 2.411412 1_555
O8 Pb2 2.235837 1_656
O8 Pb1 2.411419 1_656
O9 Pb2 2.235837 1_565
O9 Pb0 2.411419 1_455
O10 Pb0 2.181915 1_556
O11 Pb1 2.181915 1_555
O12 Pb1 2.181922 1_556
O13 Pb0 2.181922 1_555
