# generated using pymatgen
data_Nb4Te9I4O
_symmetry_space_group_name_H-M   'P 1'
_cell_length_a   11.98197411
_cell_length_b   11.98197411
_cell_length_c   20.89001205
_cell_angle_alpha   58.77761698
_cell_angle_beta   58.77761698
_cell_angle_gamma   30.52572228
_symmetry_Int_Tables_number   1
_chemical_formula_structural   Nb4Te9I4O
_chemical_formula_sum   'Nb8 Te18 I8 O2'
_cell_volume   1284.75380599
_cell_formula_units_Z   2
loop_
 _symmetry_equiv_pos_site_id
 _symmetry_equiv_pos_as_xyz
  1  'x, y, z'
loop_
 _atom_site_type_symbol
 _atom_site_label
 _atom_site_symmetry_multiplicity
 _atom_site_fract_x
 _atom_site_fract_y
 _atom_site_fract_z
 _atom_site_occupancy
  Nb  Nb0  1  0.99534000  0.88318000  0.35368300  1
  Nb  Nb1  1  0.11682000  0.00466000  0.14631700  1
  Nb  Nb2  1  0.88318000  0.99534000  0.85368300  1
  Nb  Nb3  1  0.21956200  0.62485800  0.23622800  1
  Nb  Nb4  1  0.62485800  0.21956200  0.73622800  1
  Nb  Nb5  1  0.78043800  0.37514200  0.76377200  1
  Nb  Nb6  1  0.37514200  0.78043800  0.26377200  1
  Nb  Nb7  1  0.00466000  0.11682000  0.64631700  1
  Te  Te0  1  0.93942500  0.95176200  0.12699400  1
  Te  Te1  1  0.62157500  0.33047800  0.92696400  1
  Te  Te2  1  0.47668900  0.18809300  0.90119400  1
  Te  Te3  1  0.06057500  0.04823800  0.87300600  1
  Te  Te4  1  0.33047800  0.62157500  0.42696400  1
  Te  Te5  1  0.37842500  0.66952200  0.07303600  1
  Te  Te6  1  0.30425200  0.69574800  0.75000000  1
  Te  Te7  1  0.52331100  0.81190700  0.09880600  1
  Te  Te8  1  0.69574800  0.30425200  0.25000000  1
  Te  Te9  1  0.95176200  0.93942500  0.62699400  1
  Te  Te10  1  0.81972000  0.83083800  0.33268400  1
  Te  Te11  1  0.16916200  0.18028000  0.16731600  1
  Te  Te12  1  0.66952200  0.37842500  0.57303600  1
  Te  Te13  1  0.18809300  0.47668900  0.40119400  1
  Te  Te14  1  0.18028000  0.16916200  0.66731600  1
  Te  Te15  1  0.83083800  0.81972000  0.83268400  1
  Te  Te16  1  0.81190700  0.52331100  0.59880600  1
  Te  Te17  1  0.04823800  0.06057500  0.37300600  1
  I  I0  1  0.66471000  0.06084600  0.48630200  1
  I  I1  1  0.93915400  0.33529000  0.01369800  1
  I  I2  1  0.60783100  0.72842600  0.78026900  1
  I  I3  1  0.06084600  0.66471000  0.98630200  1
  I  I4  1  0.33529000  0.93915400  0.51369800  1
  I  I5  1  0.72842600  0.60783100  0.28026900  1
  I  I6  1  0.39216900  0.27157400  0.21973100  1
  I  I7  1  0.27157400  0.39216900  0.71973100  1
  O  O0  1  0.24035200  0.75964800  0.25000000  1
  O  O1  1  0.75964800  0.24035200  0.75000000  1
loop_
_geom_bond_atom_site_label_1
_geom_bond_atom_site_label_2
_geom_bond_distance
_geom_bond_site_symmetry_2
Nb0 O0 2.178542 1_655
Nb0 Te4 2.829698 1_655
Nb0 Te13 2.833163 1_655
Nb0 Te10 2.920538 1_555
Nb0 Te17 2.925462 1_665
Nb0 Te8 2.926066 1_565
Nb1 O0 2.178542 1_545
Nb1 Te5 2.829698 1_545
Nb1 Te7 2.833163 1_545
Nb1 Te11 2.920538 1_555
Nb1 Te0 2.925462 1_445
Nb1 Te8 2.926066 1_455
Nb2 O1 2.178542 1_565
Nb2 Te1 2.829698 1_565
Nb2 Te2 2.833163 1_565
Nb2 Te15 2.920538 1_555
Nb2 Te3 2.925462 1_665
Nb2 Te6 2.926066 1_655
Nb3 O0 2.000583 1_555
Nb3 Te0 2.799985 1_455
Nb3 Te10 2.807313 1_455
Nb3 Te13 2.938249 1_555
Nb3 Te5 2.944085 1_555
Nb4 O1 2.000583 1_555
Nb4 Te9 2.799985 1_545
Nb4 Te15 2.807313 1_545
Nb4 Te2 2.938249 1_555
Nb4 Te12 2.944085 1_555
Nb5 O1 2.000583 1_555
Nb5 Te3 2.799985 1_655
Nb5 Te14 2.807313 1_655
Nb5 Te16 2.938249 1_555
Nb5 Te1 2.944085 1_555
Nb6 O0 2.000583 1_555
Nb6 Te17 2.799985 1_565
Nb6 Te11 2.807313 1_565
Nb6 Te7 2.938249 1_555
Nb6 Te4 2.944085 1_555
Nb7 O1 2.178542 1_455
Nb7 Te12 2.829698 1_455
Nb7 Te16 2.833163 1_455
Nb7 Te14 2.920538 1_555
Nb7 Te9 2.925462 1_445
Nb7 Te6 2.926066 1_545
Te0 Te5 2.744911 1_655
Te1 Te3 2.744911 1_655
Te12 Te9 2.744911 1_545
Te17 Te4 2.744911 1_545
I0 Nb0 2.847455 1_545
I1 Nb1 2.847455 1_655
I2 Nb5 2.829424 1_555
I3 Nb2 2.847455 1_455
I4 Nb7 2.847455 1_565
I5 Nb6 2.829424 1_555
I6 Nb3 2.829424 1_555
I7 Nb4 2.829424 1_555
