# generated using pymatgen
data_Sm(FeSi)2
_symmetry_space_group_name_H-M   'P 1'
_cell_length_a   3.98671172
_cell_length_b   3.98671159
_cell_length_c   5.55086070
_cell_angle_alpha   111.04539345
_cell_angle_beta   111.04539350
_cell_angle_gamma   90.00000629
_symmetry_Int_Tables_number   1
_chemical_formula_structural   Sm(FeSi)2
_chemical_formula_sum   'Sm1 Fe2 Si2'
_cell_volume   76.00049116
_cell_formula_units_Z   1
loop_
 _symmetry_equiv_pos_site_id
 _symmetry_equiv_pos_as_xyz
  1  'x, y, z'
loop_
 _atom_site_type_symbol
 _atom_site_label
 _atom_site_symmetry_multiplicity
 _atom_site_fract_x
 _atom_site_fract_y
 _atom_site_fract_z
 _atom_site_occupancy
  Sm  Sm0  1  -0.00000000  -0.00000000  0.00000000  1
  Fe  Fe0  1  0.25000000  0.75000000  0.50000000  1
  Fe  Fe1  1  0.75000000  0.25000000  0.50000000  1
  Si  Si0  1  0.35954290  0.35954290  0.71908480  1
  Si  Si1  1  0.64045710  0.64045710  0.28091420  1
loop_
_geom_bond_atom_site_label_1
_geom_bond_atom_site_label_2
_geom_bond_distance
_geom_bond_site_symmetry_2
Fe0 Si0 2.251875 1_555
Fe0 Si0 2.251879 1_565
Fe0 Si1 2.251879 1_555
Fe0 Si1 2.251879 1_455
Fe0 Sm0 3.112836 1_555
Fe0 Sm0 3.112836 1_565
Fe0 Sm0 3.112836 1_566
Fe0 Sm0 3.112836 1_666
Fe1 Si0 2.251875 1_555
Fe1 Si0 2.251879 1_655
Fe1 Si1 2.251879 1_545
Fe1 Si1 2.251879 1_555
Fe1 Sm0 3.112836 1_666
Fe1 Sm0 3.112836 1_656
Fe1 Sm0 3.112836 1_655
Fe1 Sm0 3.112836 1_555
Si0 Si1 2.686527 1_556
Si0 Sm0 3.122704 1_666
Si0 Sm0 3.122707 1_566
Si0 Sm0 3.122707 1_656
Si0 Sm0 3.122709 1_556
Si1 Sm0 3.122705 1_665
Si1 Sm0 3.122705 1_555
Si1 Sm0 3.122705 1_655
Si1 Sm0 3.122705 1_565
