# generated using pymatgen
data_Sr3Cu3(PO4)4
_symmetry_space_group_name_H-M   'P 1'
_cell_length_a   9.51605534
_cell_length_b   9.51605534
_cell_length_c   17.43975502
_cell_angle_alpha   63.87290063
_cell_angle_beta   63.87290063
_cell_angle_gamma   30.49970552
_symmetry_Int_Tables_number   1
_chemical_formula_structural   Sr3Cu3(PO4)4
_chemical_formula_sum   'Sr6 Cu6 P8 O32'
_cell_volume   713.16571720
_cell_formula_units_Z   2
loop_
 _symmetry_equiv_pos_site_id
 _symmetry_equiv_pos_as_xyz
  1  'x, y, z'
loop_
 _atom_site_type_symbol
 _atom_site_label
 _atom_site_symmetry_multiplicity
 _atom_site_fract_x
 _atom_site_fract_y
 _atom_site_fract_z
 _atom_site_occupancy
  Sr  Sr0  1  0.84671600  0.45702100  0.36304000  1
  Sr  Sr1  1  0.54297900  0.15328400  0.13696000  1
  Sr  Sr2  1  0.28780900  0.71219100  0.75000000  1
  Sr  Sr3  1  0.71219100  0.28780900  0.25000000  1
  Sr  Sr4  1  0.45702100  0.84671600  0.86304000  1
  Sr  Sr5  1  0.15328400  0.54297900  0.63696000  1
  Cu  Cu0  1  0.16296300  0.63600600  0.96990900  1
  Cu  Cu1  1  0.63600600  0.16296300  0.46990900  1
  Cu  Cu2  1  0.36399400  0.83703700  0.53009100  1
  Cu  Cu3  1  0.83703700  0.36399400  0.03009100  1
  Cu  Cu4  1  0.50000000  0.00000000  0.00000000  1
  Cu  Cu5  1  0.00000000  0.50000000  0.50000000  1
  P  P0  1  0.18476200  0.78122800  0.10118900  1
  P  P1  1  0.47654900  0.96164600  0.61978900  1
  P  P2  1  0.96164600  0.47654900  0.11978900  1
  P  P3  1  0.03835400  0.52345100  0.88021100  1
  P  P4  1  0.52345100  0.03835400  0.38021100  1
  P  P5  1  0.81523800  0.21877200  0.89881100  1
  P  P6  1  0.21877200  0.81523800  0.39881100  1
  P  P7  1  0.78122800  0.18476200  0.60118900  1
  O  O0  1  0.19909700  0.30323700  0.40403100  1
  O  O1  1  0.68836800  0.13090500  0.57748200  1
  O  O2  1  0.62948200  0.24219400  0.96988700  1
  O  O3  1  0.21258600  0.35592300  0.04622200  1
  O  O4  1  0.24219400  0.62948200  0.46988700  1
  O  O5  1  0.69676300  0.80090300  0.09596900  1
  O  O6  1  0.64407700  0.78741400  0.45377800  1
  O  O7  1  0.30323700  0.19909700  0.90403100  1
  O  O8  1  0.75780600  0.37051800  0.53011300  1
  O  O9  1  0.34868600  0.92028900  0.62231000  1
  O  O10  1  0.92028900  0.34868600  0.12231000  1
  O  O11  1  0.13090500  0.68836800  0.07748200  1
  O  O12  1  0.39367100  0.69967700  0.31236300  1
  O  O13  1  0.35592300  0.21258600  0.54622200  1
  O  O14  1  0.88394700  0.10069700  0.11378400  1
  O  O15  1  0.39777400  0.03689000  0.70525300  1
  O  O16  1  0.96311000  0.60222600  0.79474700  1
  O  O17  1  0.65131400  0.07971100  0.37769000  1
  O  O18  1  0.60222600  0.96311000  0.29474700  1
  O  O19  1  0.10069700  0.88394700  0.61378400  1
  O  O20  1  0.60632900  0.30032300  0.68763700  1
  O  O21  1  0.86909500  0.31163200  0.92251800  1
  O  O22  1  0.80090300  0.69676300  0.59596900  1
  O  O23  1  0.31163200  0.86909500  0.42251800  1
  O  O24  1  0.11605300  0.89930300  0.88621600  1
  O  O25  1  0.69967700  0.39367100  0.81236300  1
  O  O26  1  0.89930300  0.11605300  0.38621600  1
  O  O27  1  0.37051800  0.75780600  0.03011300  1
  O  O28  1  0.07971100  0.65131400  0.87769000  1
  O  O29  1  0.30032300  0.60632900  0.18763700  1
  O  O30  1  0.78741400  0.64407700  0.95377800  1
  O  O31  1  0.03689000  0.39777400  0.20525300  1
loop_
_geom_bond_atom_site_label_1
_geom_bond_atom_site_label_2
_geom_bond_distance
_geom_bond_site_symmetry_2
Cu0 O11 1.979443 1_556
Cu0 O28 1.988052 1_555
Cu0 O24 2.008228 1_555
Cu0 O3 2.087703 1_556
Cu0 O2 2.254441 1_555
Cu1 O1 1.979443 1_555
Cu1 O17 1.988052 1_555
Cu1 O26 2.008228 1_555
Cu1 O13 2.087703 1_555
Cu1 O4 2.254441 1_555
Cu2 O23 1.979443 1_555
Cu2 O9 1.988052 1_555
Cu2 O19 2.008228 1_555
Cu2 O6 2.087703 1_555
Cu2 O8 2.254441 1_555
Cu3 O21 1.979443 1_554
Cu3 O10 1.988052 1_555
Cu3 O14 2.008228 1_555
Cu3 O30 2.087703 1_554
Cu3 O27 2.254441 1_555
Cu4 O7 1.936664 1_554
Cu4 O5 1.936664 1_545
Cu4 O3 2.025149 1_555
Cu4 O30 2.025149 1_544
Cu5 O22 1.936664 1_455
Cu5 O0 1.936664 1_555
Cu5 O13 2.025149 1_555
Cu5 O6 2.025149 1_455
O0 P4 1.561678 1_555
O0 Sr0 2.574976 1_455
O1 P7 1.582175 1_555
O1 Sr5 2.627237 1_555
O1 Sr5 2.868204 1_645
O2 P5 1.531473 1_555
O2 Sr1 2.607636 1_556
O3 P2 1.594105 1_455
O3 Sr1 2.711868 1_555
O4 P6 1.531473 1_555
O4 Sr5 2.607636 1_555
O5 P2 1.561678 1_555
O5 Sr1 2.574976 1_565
O6 P4 1.594105 1_565
O6 Sr0 2.711868 1_555
O7 P3 1.561678 1_555
O7 Sr4 2.574976 1_545
O8 P7 1.531473 1_555
O8 Sr0 2.607636 1_555
O9 P1 1.549242 1_555
O9 Sr2 2.484541 1_555
O10 P2 1.549242 1_555
O10 Sr3 2.484541 1_555
O11 P0 1.582175 1_555
O11 Sr1 2.627237 1_555
O11 Sr1 2.868204 1_465
O12 P6 1.532492 1_555
O12 Sr3 2.471923 1_555
O12 Sr0 3.017070 1_555
O13 P1 1.594105 1_545
O13 Sr5 2.711868 1_555
O14 P0 1.588203 1_645
O14 Sr3 2.603038 1_555
O14 Sr1 2.677073 1_555
O15 P1 1.525472 1_545
O15 Sr4 2.527317 1_545
O15 Sr5 2.846941 1_555
O16 P3 1.525472 1_655
O16 Sr5 2.527317 1_655
O16 Sr4 2.846941 1_555
O17 P4 1.549242 1_555
O17 Sr3 2.484541 1_555
O18 P4 1.525472 1_565
O18 Sr1 2.527317 1_565
O18 Sr0 2.846941 1_555
O19 P7 1.588203 1_465
O19 Sr2 2.603038 1_555
O19 Sr5 2.677073 1_555
O20 P7 1.532492 1_555
O20 Sr2 2.471923 1_555
O20 Sr5 3.017070 1_555
O21 P5 1.582175 1_555
O21 Sr4 2.627237 1_555
O21 Sr4 2.868204 1_645
O22 P1 1.561678 1_555
O22 Sr5 2.574976 1_655
O23 P6 1.582175 1_555
O23 Sr0 2.627237 1_555
O23 Sr0 2.868204 1_465
O24 P5 1.588203 1_465
O24 Sr2 2.603038 1_555
O24 Sr4 2.677073 1_555
O25 P5 1.532492 1_555
O25 Sr2 2.471923 1_555
O25 Sr4 3.017070 1_555
O26 P6 1.588203 1_645
O26 Sr3 2.603038 1_555
O26 Sr0 2.677073 1_555
O27 P0 1.531473 1_555
O27 Sr4 2.607636 1_554
O28 P3 1.549242 1_555
O28 Sr2 2.484541 1_555
O29 P0 1.532492 1_555
O29 Sr3 2.471923 1_555
O29 Sr1 3.017070 1_555
O30 P3 1.594105 1_655
O30 Sr4 2.711868 1_555
O31 P2 1.525472 1_455
O31 Sr0 2.527317 1_455
O31 Sr1 2.846941 1_555
