# generated using pymatgen
data_SrBiIO2
_symmetry_space_group_name_H-M   'P 1'
_cell_length_a   7.54489615
_cell_length_b   7.54489615
_cell_length_c   5.82327000
_cell_angle_alpha   90.00000000
_cell_angle_beta   90.00000000
_cell_angle_gamma   133.55403897
_symmetry_Int_Tables_number   1
_chemical_formula_structural   SrBiIO2
_chemical_formula_sum   'Sr2 Bi2 I2 O4'
_cell_volume   240.24070628
_cell_formula_units_Z   2
loop_
 _symmetry_equiv_pos_site_id
 _symmetry_equiv_pos_as_xyz
  1  'x, y, z'
loop_
 _atom_site_type_symbol
 _atom_site_label
 _atom_site_symmetry_multiplicity
 _atom_site_fract_x
 _atom_site_fract_y
 _atom_site_fract_z
 _atom_site_occupancy
  Sr  Sr0  1  0.90707800  0.09292200  0.75000000  1
  Sr  Sr1  1  0.09292200  0.90707800  0.25000000  1
  Bi  Bi0  1  0.57290700  0.42709300  0.75000000  1
  Bi  Bi1  1  0.42709300  0.57290700  0.25000000  1
  I  I0  1  0.24490200  0.75509800  0.75000000  1
  I  I1  1  0.75509800  0.24490200  0.25000000  1
  O  O0  1  0.26727300  0.26727300  0.00000000  1
  O  O1  1  0.26727300  0.26727300  0.50000000  1
  O  O2  1  0.73272700  0.73272700  0.50000000  1
  O  O3  1  0.73272700  0.73272700  0.00000000  1
loop_
_geom_bond_atom_site_label_1
_geom_bond_atom_site_label_2
_geom_bond_distance
_geom_bond_site_symmetry_2
Bi0 O0 2.249236 1_556
Bi0 O1 2.249236 1_555
Bi0 O2 2.249236 1_555
Bi0 O3 2.249236 1_556
Bi1 O2 2.249236 1_555
Bi1 O1 2.249236 1_555
Bi1 O3 2.249236 1_555
Bi1 O0 2.249236 1_555
I0 Sr1 3.594345 1_555
I0 Sr1 3.594345 1_556
I0 Sr0 3.729406 1_455
I0 Sr0 3.729406 1_565
I1 Sr0 3.594345 1_555
I1 Sr0 3.594345 1_554
I1 Sr1 3.729406 1_545
I1 Sr1 3.729406 1_655
O0 Sr1 2.511739 1_545
O0 Sr0 2.511739 1_454
O1 Sr1 2.511739 1_545
O1 Sr0 2.511739 1_455
O2 Sr1 2.511739 1_655
O2 Sr0 2.511739 1_565
O3 Sr0 2.511739 1_564
O3 Sr1 2.511739 1_655
