# generated using pymatgen
data_CdI2
_symmetry_space_group_name_H-M   'P 1'
_cell_length_a   4.29189070
_cell_length_b   4.29189033
_cell_length_c   43.39682764
_cell_angle_alpha   90.00000000
_cell_angle_beta   90.00000000
_cell_angle_gamma   119.99999470
_symmetry_Int_Tables_number   1
_chemical_formula_structural   CdI2
_chemical_formula_sum   'Cd6 I12'
_cell_volume   692.28657153
_cell_formula_units_Z   6
loop_
 _symmetry_equiv_pos_site_id
 _symmetry_equiv_pos_as_xyz
  1  'x, y, z'
loop_
 _atom_site_type_symbol
 _atom_site_label
 _atom_site_symmetry_multiplicity
 _atom_site_fract_x
 _atom_site_fract_y
 _atom_site_fract_z
 _atom_site_occupancy
  Cd  Cd0  1  0.66666700  0.33333300  0.70826498  1
  Cd  Cd1  1  0.33333300  0.66666700  0.87500758  1
  Cd  Cd2  1  0.33333300  0.66666700  0.54167369  1
  Cd  Cd3  1  0.33333300  0.66666700  0.04167127  1
  Cd  Cd4  1  0.33333300  0.66666700  0.37500674  1
  Cd  Cd5  1  0.00000000  0.00000000  0.20828794  1
  I  I0  1  0.00000000  0.00000000  0.83534733  1
  I  I1  1  0.66666700  0.33333300  0.58137041  1
  I  I2  1  0.00000000  0.00000000  0.33534827  1
  I  I3  1  0.66666700  0.33333300  0.41470220  1
  I  I4  1  0.00000000  0.00000000  0.00201335  1
  I  I5  1  0.66666700  0.33333300  0.91470856  1
  I  I6  1  0.66666700  0.33333300  0.24793714  1
  I  I7  1  0.00000000  0.00000000  0.66867813  1
  I  I8  1  0.33333300  0.66666700  0.16867884  1
  I  I9  1  0.66666700  0.33333300  0.08136861  1
  I  I10  1  0.33333300  0.66666700  0.74792213  1
  I  I11  1  0.00000000  0.00000000  0.50201483  1
loop_
_geom_bond_atom_site_label_1
_geom_bond_atom_site_label_2
_geom_bond_distance
_geom_bond_site_symmetry_2
Cd0 I7 3.015199 1_655
Cd0 I7 3.015202 1_665
Cd0 I7 3.015202 1_555
Cd0 I10 3.016939 1_545
Cd0 I10 3.016939 1_655
Cd0 I10 3.016945 1_555
Cd1 I0 3.017015 1_565
Cd1 I0 3.017018 1_555
Cd1 I0 3.017018 1_665
Cd1 I5 3.018024 1_565
Cd1 I5 3.018024 1_455
Cd1 I5 3.018030 1_555
Cd2 I11 3.016981 1_565
Cd2 I11 3.016984 1_555
Cd2 I11 3.016984 1_665
Cd2 I1 3.017918 1_565
Cd2 I1 3.017919 1_455
Cd2 I1 3.017924 1_555
Cd3 I4 3.016957 1_565
Cd3 I4 3.016961 1_555
Cd3 I4 3.016961 1_665
Cd3 I9 3.017934 1_565
Cd3 I9 3.017934 1_455
Cd3 I9 3.017940 1_555
Cd4 I2 3.016971 1_565
Cd4 I2 3.016974 1_555
Cd4 I2 3.016974 1_665
Cd4 I3 3.017887 1_565
Cd4 I3 3.017887 1_455
Cd4 I3 3.017893 1_555
Cd5 I8 3.015749 1_545
Cd5 I8 3.015753 1_555
Cd5 I8 3.015753 1_445
Cd5 I6 3.016742 1_455
Cd5 I6 3.016745 1_445
Cd5 I6 3.016745 1_555
