# generated using pymatgen
data_K2Ba(SO)12
_symmetry_space_group_name_H-M   'P 1'
_cell_length_a   11.12571000
_cell_length_b   9.38522200
_cell_length_c   11.89519221
_cell_angle_alpha   67.87645286
_cell_angle_beta   90.00000000
_cell_angle_gamma   90.00000000
_symmetry_Int_Tables_number   1
_chemical_formula_structural   K2Ba(SO)12
_chemical_formula_sum   'K4 Ba2 S24 O24'
_cell_volume   1150.61511797
_cell_formula_units_Z   2
loop_
 _symmetry_equiv_pos_site_id
 _symmetry_equiv_pos_as_xyz
  1  'x, y, z'
loop_
 _atom_site_type_symbol
 _atom_site_label
 _atom_site_symmetry_multiplicity
 _atom_site_fract_x
 _atom_site_fract_y
 _atom_site_fract_z
 _atom_site_occupancy
  K  K0  1  0.00000000  0.50000000  0.50000000  1
  K  K1  1  0.00000000  0.00000000  0.50000000  1
  K  K2  1  0.55183900  0.25000000  0.00000000  1
  K  K3  1  0.44816100  0.75000000  0.00000000  1
  Ba  Ba0  1  0.98683000  0.25000000  0.00000000  1
  Ba  Ba1  1  0.01317000  0.75000000  0.00000000  1
  S  S0  1  0.72644400  0.04438800  0.86312100  1
  S  S1  1  0.72644400  0.45561200  0.13687900  1
  S  S2  1  0.27355600  0.95561200  0.13687900  1
  S  S3  1  0.27355600  0.54438800  0.86312100  1
  S  S4  1  0.71500700  0.16740500  0.66784000  1
  S  S5  1  0.71500700  0.33259500  0.33216000  1
  S  S6  1  0.28499300  0.83259500  0.33216000  1
  S  S7  1  0.28499300  0.66740500  0.66784000  1
  S  S8  1  0.58374800  0.32504500  0.65212900  1
  S  S9  1  0.58374800  0.17495500  0.34787100  1
  S  S10  1  0.41625200  0.67495500  0.34787100  1
  S  S11  1  0.41625200  0.82504500  0.65212900  1
  S  S12  1  0.65248700  0.54674100  0.60251000  1
  S  S13  1  0.65248700  0.95325900  0.39749000  1
  S  S14  1  0.34751300  0.45325900  0.39749000  1
  S  S15  1  0.34751300  0.04674100  0.60251000  1
  S  S16  1  0.69802800  0.59376400  0.75093300  1
  S  S17  1  0.69802800  0.90623600  0.24906700  1
  S  S18  1  0.30197200  0.40623600  0.24906700  1
  S  S19  1  0.30197200  0.09376400  0.75093300  1
  S  S20  1  0.89196700  0.57765900  0.74842900  1
  S  S21  1  0.89196700  0.92234100  0.25157100  1
  S  S22  1  0.10803300  0.42234100  0.25157100  1
  S  S23  1  0.10803300  0.07765900  0.74842900  1
  O  O0  1  0.60352300  0.99309000  0.90193900  1
  O  O1  1  0.60352300  0.50691000  0.09806100  1
  O  O2  1  0.39647700  0.00691000  0.09806100  1
  O  O3  1  0.39647700  0.49309000  0.90193900  1
  O  O4  1  0.81125700  0.92247300  0.86900700  1
  O  O5  1  0.81125700  0.57752700  0.13099300  1
  O  O6  1  0.18874300  0.07752700  0.13099300  1
  O  O7  1  0.18874300  0.42247300  0.86900700  1
  O  O8  1  0.77022100  0.15331900  0.91609100  1
  O  O9  1  0.77022100  0.34668100  0.08390900  1
  O  O10  1  0.22977900  0.84668100  0.08390900  1
  O  O11  1  0.22977900  0.65331900  0.91609100  1
  O  O12  1  0.93301900  0.70593900  0.64126700  1
  O  O13  1  0.93301900  0.79406100  0.35873300  1
  O  O14  1  0.06698100  0.29406100  0.35873300  1
  O  O15  1  0.06698100  0.20593900  0.64126700  1
  O  O16  1  0.92328000  0.58641900  0.86638400  1
  O  O17  1  0.92328000  0.91358100  0.13361600  1
  O  O18  1  0.07672000  0.41358100  0.13361600  1
  O  O19  1  0.07672000  0.08641900  0.86638400  1
  O  O20  1  0.92171200  0.42683100  0.74501800  1
  O  O21  1  0.92171200  0.07316900  0.25498200  1
  O  O22  1  0.07828800  0.57316900  0.25498200  1
  O  O23  1  0.07828800  0.92683100  0.74501800  1
loop_
_geom_bond_atom_site_label_1
_geom_bond_atom_site_label_2
_geom_bond_distance
_geom_bond_site_symmetry_2
K0 O15 2.739093 1_555
K0 O13 2.739093 1_455
K0 O20 2.866574 1_455
K0 O22 2.866574 1_555
K0 O12 3.092093 1_455
K0 O14 3.092093 1_555
K1 O14 2.739093 1_555
K1 O12 2.739093 1_445
K1 O23 2.866574 1_545
K1 O21 2.866574 1_455
K1 O15 3.092093 1_555
K1 O13 3.092093 1_445
K2 O2 2.747535 1_555
K2 O3 2.747535 1_554
K2 O9 2.899126 1_555
K2 O8 2.899126 1_554
K2 O1 3.102153 1_555
K2 O0 3.102153 1_544
K3 O1 2.747535 1_555
K3 O0 2.747535 1_554
K3 O10 2.899126 1_555
K3 O11 2.899126 1_554
K3 O2 3.102153 1_565
K3 O3 3.102153 1_554
Ba0 O18 2.778707 1_655
Ba0 O19 2.778707 1_654
Ba0 O6 2.862653 1_655
Ba0 O7 2.862653 1_654
Ba0 O9 2.882615 1_555
Ba0 O8 2.882615 1_554
Ba0 O20 2.947404 1_554
Ba0 O21 2.947404 1_555
Ba0 O17 3.035656 1_545
Ba0 O16 3.035656 1_554
Ba1 O17 2.778707 1_455
Ba1 O16 2.778707 1_454
Ba1 O4 2.862653 1_454
Ba1 O5 2.862653 1_455
Ba1 O10 2.882615 1_555
Ba1 O11 2.882615 1_554
Ba1 O23 2.947404 1_554
Ba1 O22 2.947404 1_555
Ba1 O18 3.035656 1_555
Ba1 O19 3.035656 1_564
S0 S4 2.173711 1_555
S1 S5 2.173711 1_555
S2 S6 2.173711 1_555
S3 S7 2.173711 1_555
S4 S8 2.036705 1_555
S5 S9 2.036705 1_555
S10 S6 2.036705 1_555
S10 S14 2.082648 1_555
S11 S7 2.036705 1_555
S11 S15 2.082648 1_565
S12 S16 2.038484 1_555
S12 S8 2.082648 1_555
S13 S17 2.038484 1_555
S13 S9 2.082648 1_565
S14 S18 2.038484 1_555
S15 S19 2.038484 1_555
S16 S20 2.163985 1_555
S17 S21 2.163985 1_555
S18 S22 2.163985 1_555
S19 S23 2.163985 1_555
O0 S0 1.465551 1_565
O1 S1 1.465551 1_555
O2 S2 1.465551 1_545
O3 S3 1.465551 1_555
O4 S0 1.464290 1_565
O5 S1 1.464290 1_555
O6 S2 1.464290 1_545
O7 S3 1.464290 1_555
O8 S0 1.471259 1_555
O9 S1 1.471259 1_555
O10 S2 1.471259 1_555
O11 S3 1.471259 1_555
O12 S20 1.458434 1_555
O13 S21 1.458434 1_555
O14 S22 1.458434 1_555
O15 S23 1.458434 1_555
O16 S20 1.477733 1_555
O17 S21 1.477733 1_555
O18 S22 1.477733 1_555
O19 S23 1.477733 1_555
O20 S20 1.469088 1_555
O21 S21 1.469088 1_545
O22 S22 1.469088 1_555
O23 S23 1.469088 1_565
