# generated using pymatgen
data_Ba2FeO4
_symmetry_space_group_name_H-M   'P 1'
_cell_length_a   6.13558643
_cell_length_b   7.70733041
_cell_length_c   10.11336650
_cell_angle_alpha   90.00002259
_cell_angle_beta   93.56019509
_cell_angle_gamma   89.99991928
_symmetry_Int_Tables_number   1
_chemical_formula_structural   Ba2FeO4
_chemical_formula_sum   'Ba8 Fe4 O16'
_cell_volume   477.32793449
_cell_formula_units_Z   4
loop_
 _symmetry_equiv_pos_site_id
 _symmetry_equiv_pos_as_xyz
  1  'x, y, z'
loop_
 _atom_site_type_symbol
 _atom_site_label
 _atom_site_symmetry_multiplicity
 _atom_site_fract_x
 _atom_site_fract_y
 _atom_site_fract_z
 _atom_site_occupancy
  Ba  Ba0  1  0.75608883  0.84886774  0.08153900  1
  Ba  Ba1  1  0.74391377  0.34886952  0.41845847  1
  Ba  Ba2  1  0.24391409  0.15112977  0.91845823  1
  Ba  Ba3  1  0.25608798  0.65113321  0.58153932  1
  Ba  Ba4  1  0.22444908  0.50577560  0.19380288  1
  Ba  Ba5  1  0.27555206  0.00577516  0.30619596  1
  Ba  Ba6  1  0.77555264  0.49422530  0.80619571  1
  Ba  Ba7  1  0.72444817  0.99422488  0.69380313  1
  Fe  Fe0  1  0.25720918  0.72358314  0.91655441  1
  Fe  Fe1  1  0.24279118  0.22358275  0.58344515  1
  Fe  Fe2  1  0.74279233  0.27641744  0.08344513  1
  Fe  Fe3  1  0.75720657  0.77641672  0.41655476  1
  O  O0  1  0.71430480  0.00236867  0.39577681  1
  O  O1  1  0.78568046  0.50236983  0.10422843  1
  O  O2  1  0.28567918  0.99763050  0.60422862  1
  O  O3  1  0.21430804  0.49763288  0.89577603  1
  O  O4  1  0.49513258  0.23839538  0.16048779  1
  O  O5  1  0.00486676  0.73840358  0.33950789  1
  O  O6  1  0.50486869  0.76159658  0.83950882  1
  O  O7  1  0.99513047  0.26160325  0.66048669  1
  O  O8  1  0.00312521  0.18816430  0.13259091  1
  O  O9  1  0.49687741  0.68815728  0.36741170  1
  O  O10  1  0.99687946  0.81184334  0.86741157  1
  O  O11  1  0.50312418  0.31183597  0.63259176  1
  O  O12  1  0.69063584  0.16325700  0.92924014  1
  O  O13  1  0.80937198  0.66325743  0.57075934  1
  O  O14  1  0.30937366  0.83674251  0.07076018  1
  O  O15  1  0.19063441  0.33674325  0.42923918  1
loop_
_geom_bond_atom_site_label_1
_geom_bond_atom_site_label_2
_geom_bond_distance
_geom_bond_site_symmetry_2
Ba0 O1 2.685593 1_555
Ba0 O10 2.711284 1_554
Ba0 O14 2.737850 1_555
Ba0 O12 2.885873 1_564
Ba0 O6 2.889835 1_554
Ba0 O8 3.050471 1_665
Ba0 O5 3.060507 1_655
Ba1 O0 2.685616 1_555
Ba1 O11 2.711338 1_555
Ba1 O15 2.737883 1_655
Ba1 O13 2.885878 1_555
Ba1 O7 2.889800 1_555
Ba1 O9 3.050402 1_555
Ba1 O4 3.060553 1_555
Ba2 O3 2.685632 1_555
Ba2 O8 2.711330 1_556
Ba2 O12 2.737890 1_555
Ba2 O14 2.885881 1_546
Ba2 O4 2.889815 1_556
Ba2 O10 3.050391 1_445
Ba2 O7 3.060565 1_455
Ba3 O2 2.685588 1_555
Ba3 O9 2.711282 1_555
Ba3 O13 2.737854 1_455
Ba3 O15 2.885884 1_555
Ba3 O5 2.889847 1_555
Ba3 O11 3.050472 1_555
Ba3 O6 3.060519 1_555
Ba4 O4 2.681066 1_555
Ba4 O5 2.729051 1_555
Ba4 O15 2.733327 1_555
Ba4 O9 2.736441 1_555
Ba4 O1 2.786733 1_455
Ba4 O8 2.848729 1_555
Ba4 O14 2.899561 1_555
Ba4 O3 3.011485 1_554
Ba5 O5 2.681020 1_545
Ba5 O4 2.729027 1_555
Ba5 O14 2.733327 1_545
Ba5 O8 2.736441 1_555
Ba5 O0 2.786658 1_555
Ba5 O9 2.848781 1_545
Ba5 O15 2.899561 1_555
Ba5 O2 3.011548 1_545
Ba6 O6 2.681011 1_555
Ba6 O7 2.729029 1_555
Ba6 O13 2.733330 1_555
Ba6 O11 2.736442 1_555
Ba6 O3 2.786672 1_655
Ba6 O10 2.848790 1_555
Ba6 O12 2.899568 1_555
Ba6 O1 3.011548 1_556
Ba7 O7 2.681056 1_565
Ba7 O6 2.729050 1_555
Ba7 O12 2.733329 1_565
Ba7 O10 2.736447 1_555
Ba7 O2 2.786735 1_555
Ba7 O11 2.848724 1_565
Ba7 O13 2.899567 1_555
Ba7 O0 3.011480 1_565
Fe0 O3 1.771809 1_555
Fe0 O6 1.774546 1_555
Fe0 O10 1.778326 1_455
Fe0 O14 1.798129 1_556
Fe1 O2 1.771817 1_545
Fe1 O7 1.774541 1_455
Fe1 O11 1.778334 1_555
Fe1 O15 1.798129 1_555
Fe2 O1 1.771819 1_555
Fe2 O4 1.774544 1_555
Fe2 O8 1.778329 1_655
Fe2 O12 1.798120 1_554
Fe3 O0 1.771821 1_565
Fe3 O5 1.774555 1_655
Fe3 O9 1.778323 1_555
Fe3 O13 1.798119 1_555
