# generated using pymatgen
data_Nd17Au36
_symmetry_space_group_name_H-M   'P 1'
_cell_length_a   16.12513400
_cell_length_b   16.12513400
_cell_length_c   9.46540700
_cell_angle_alpha   90.00000000
_cell_angle_beta   90.00000000
_cell_angle_gamma   90.00000000
_symmetry_Int_Tables_number   1
_chemical_formula_structural   Nd17Au36
_chemical_formula_sum   'Nd34 Au72'
_cell_volume   2461.19462191
_cell_formula_units_Z   2
loop_
 _symmetry_equiv_pos_site_id
 _symmetry_equiv_pos_as_xyz
  1  'x, y, z'
loop_
 _atom_site_type_symbol
 _atom_site_label
 _atom_site_symmetry_multiplicity
 _atom_site_fract_x
 _atom_site_fract_y
 _atom_site_fract_z
 _atom_site_occupancy
  Nd  Nd0  1  0.24665100  0.50000000  0.11711300  1
  Nd  Nd1  1  0.67020500  0.82979500  0.38675900  1
  Nd  Nd2  1  0.15880200  0.00000000  0.41304100  1
  Nd  Nd3  1  0.00000000  0.50000000  0.70377600  1
  Nd  Nd4  1  0.67020500  0.17020500  0.38675900  1
  Nd  Nd5  1  0.74665100  0.00000000  0.88288700  1
  Nd  Nd6  1  0.50000000  0.65880200  0.41304100  1
  Nd  Nd7  1  0.84119800  0.00000000  0.41304100  1
  Nd  Nd8  1  0.50000000  0.75334900  0.88288700  1
  Nd  Nd9  1  0.50000000  0.00000000  0.29622400  1
  Nd  Nd10  1  0.00000000  0.50000000  0.21273200  1
  Nd  Nd11  1  0.00000000  0.74665100  0.11711300  1
  Nd  Nd12  1  0.82979500  0.67020500  0.61324100  1
  Nd  Nd13  1  0.00000000  0.25334900  0.11711300  1
  Nd  Nd14  1  0.32979500  0.17020500  0.38675900  1
  Nd  Nd15  1  0.32979500  0.82979500  0.38675900  1
  Nd  Nd16  1  0.00000000  0.00000000  0.00000000  1
  Nd  Nd17  1  0.75334900  0.50000000  0.11711300  1
  Nd  Nd18  1  0.82979500  0.32979500  0.61324100  1
  Nd  Nd19  1  0.50000000  0.24665100  0.88288700  1
  Nd  Nd20  1  0.75000000  0.75000000  0.00000000  1
  Nd  Nd21  1  0.65880200  0.50000000  0.58695900  1
  Nd  Nd22  1  0.50000000  0.34119800  0.41304100  1
  Nd  Nd23  1  0.17020500  0.67020500  0.61324100  1
  Nd  Nd24  1  0.50000000  0.50000000  0.00000000  1
  Nd  Nd25  1  0.00000000  0.15880200  0.58695900  1
  Nd  Nd26  1  0.17020500  0.32979500  0.61324100  1
  Nd  Nd27  1  0.75000000  0.25000000  0.00000000  1
  Nd  Nd28  1  0.50000000  0.00000000  0.78726800  1
  Nd  Nd29  1  0.34119800  0.50000000  0.58695900  1
  Nd  Nd30  1  0.25000000  0.75000000  0.00000000  1
  Nd  Nd31  1  0.25000000  0.25000000  0.00000000  1
  Nd  Nd32  1  0.00000000  0.84119800  0.58695900  1
  Nd  Nd33  1  0.25334900  0.00000000  0.88288700  1
  Au  Au0  1  0.10369500  0.39630500  0.96859500  1
  Au  Au1  1  0.79918200  0.86227100  0.63251900  1
  Au  Au2  1  0.40384400  0.33821600  0.12577600  1
  Au  Au3  1  0.09615600  0.83821600  0.87422400  1
  Au  Au4  1  0.29918200  0.63772900  0.36748100  1
  Au  Au5  1  0.30832600  0.00000000  0.22534900  1
  Au  Au6  1  0.00000000  0.69167400  0.77465100  1
  Au  Au7  1  0.00000000  0.64906200  0.46494000  1
  Au  Au8  1  0.50000000  0.80832600  0.22534900  1
  Au  Au9  1  0.83821600  0.09615600  0.12577600  1
  Au  Au10  1  0.33821600  0.59615600  0.87422400  1
  Au  Au11  1  0.20081800  0.86227100  0.63251900  1
  Au  Au12  1  0.33821600  0.40384400  0.87422400  1
  Au  Au13  1  0.40384400  0.66178400  0.12577600  1
  Au  Au14  1  0.10369500  0.60369500  0.96859500  1
  Au  Au15  1  0.08829700  0.00000000  0.71066200  1
  Au  Au16  1  0.00000000  0.35093800  0.46494000  1
  Au  Au17  1  0.59615600  0.66178400  0.12577600  1
  Au  Au18  1  0.66178400  0.40384400  0.87422400  1
  Au  Au19  1  0.66178400  0.59615600  0.87422400  1
  Au  Au20  1  0.90384400  0.83821600  0.87422400  1
  Au  Au21  1  0.00000000  0.30832600  0.77465100  1
  Au  Au22  1  0.90384400  0.16178400  0.87422400  1
  Au  Au23  1  0.91170300  0.00000000  0.71066200  1
  Au  Au24  1  0.13772900  0.20081800  0.36748100  1
  Au  Au25  1  0.89630500  0.60369500  0.96859500  1
  Au  Au26  1  0.16178400  0.90384400  0.12577600  1
  Au  Au27  1  0.86227100  0.79918200  0.36748100  1
  Au  Au28  1  0.70081800  0.63772900  0.36748100  1
  Au  Au29  1  0.59615600  0.33821600  0.12577600  1
  Au  Au30  1  0.69167400  0.00000000  0.22534900  1
  Au  Au31  1  0.50000000  0.41170300  0.71066200  1
  Au  Au32  1  0.20081800  0.13772900  0.63251900  1
  Au  Au33  1  0.83821600  0.90384400  0.12577600  1
  Au  Au34  1  0.29918200  0.36227100  0.36748100  1
  Au  Au35  1  0.50000000  0.19167400  0.22534900  1
  Au  Au36  1  0.60369500  0.10369500  0.03140500  1
  Au  Au37  1  0.63772900  0.70081800  0.63251900  1
  Au  Au38  1  0.41170300  0.50000000  0.28933800  1
  Au  Au39  1  0.63772900  0.29918200  0.63251900  1
  Au  Au40  1  0.09615600  0.16178400  0.87422400  1
  Au  Au41  1  0.79918200  0.13772900  0.63251900  1
  Au  Au42  1  0.36279500  0.13720500  0.74419300  1
  Au  Au43  1  0.80832600  0.50000000  0.77465100  1
  Au  Au44  1  0.89630500  0.39630500  0.96859500  1
  Au  Au45  1  0.00000000  0.91170300  0.28933800  1
  Au  Au46  1  0.60369500  0.89630500  0.03140500  1
  Au  Au47  1  0.50000000  0.85093800  0.53506000  1
  Au  Au48  1  0.36279500  0.86279500  0.74419300  1
  Au  Au49  1  0.35093800  0.00000000  0.53506000  1
  Au  Au50  1  0.36227100  0.70081800  0.63251900  1
  Au  Au51  1  0.14906200  0.50000000  0.46494000  1
  Au  Au52  1  0.58829700  0.50000000  0.28933800  1
  Au  Au53  1  0.86227100  0.20081800  0.36748100  1
  Au  Au54  1  0.50000000  0.58829700  0.71066200  1
  Au  Au55  1  0.85093800  0.50000000  0.46494000  1
  Au  Au56  1  0.13720500  0.63720500  0.25580700  1
  Au  Au57  1  0.64906200  0.00000000  0.53506000  1
  Au  Au58  1  0.63720500  0.86279500  0.74419300  1
  Au  Au59  1  0.39630500  0.89630500  0.03140500  1
  Au  Au60  1  0.13772900  0.79918200  0.36748100  1
  Au  Au61  1  0.86279500  0.36279500  0.25580700  1
  Au  Au62  1  0.19167400  0.50000000  0.77465100  1
  Au  Au63  1  0.16178400  0.09615600  0.12577600  1
  Au  Au64  1  0.63720500  0.13720500  0.74419300  1
  Au  Au65  1  0.00000000  0.08829700  0.28933800  1
  Au  Au66  1  0.13720500  0.36279500  0.25580700  1
  Au  Au67  1  0.36227100  0.29918200  0.63251900  1
  Au  Au68  1  0.86279500  0.63720500  0.25580700  1
  Au  Au69  1  0.39630500  0.10369500  0.03140500  1
  Au  Au70  1  0.50000000  0.14906200  0.53506000  1
  Au  Au71  1  0.70081800  0.36227100  0.36748100  1
loop_
_geom_bond_atom_site_label_1
_geom_bond_atom_site_label_2
_geom_bond_distance
_geom_bond_site_symmetry_2
Au0 Au66 2.823939 1_556
Au0 Au62 2.859816 1_555
Au0 Au21 2.859816 1_555
Au0 Nd0 3.175847 1_556
Au0 Nd13 3.175847 1_556
Au0 Nd10 3.306337 1_556
Au0 Au44 3.344192 1_455
Au0 Au14 3.344192 1_555
Au0 Nd31 3.349612 1_556
Au0 Nd3 3.446005 1_555
Au0 Nd26 3.689721 1_555
Au1 Au58 2.817700 1_555
Au1 Au20 2.869311 1_555
Au1 Au27 2.891957 1_555
Au1 Au23 2.961686 1_565
Au1 Nd7 3.115639 1_565
Au1 Nd12 3.141487 1_555
Au1 Nd1 3.164014 1_555
Au1 Nd32 3.284431 1_655
Au1 Nd5 3.356491 1_565
Au2 Au34 2.869311 1_555
Au2 Au35 2.979305 1_555
Au2 Au38 3.036232 1_555
Au2 Nd31 3.097576 1_555
Au2 Au29 3.101057 1_555
Au2 Nd22 3.130471 1_555
Au2 Nd19 3.141621 1_554
Au2 Nd24 3.259947 1_555
Au2 Nd0 3.638338 1_555
Au2 Nd14 3.855898 1_555
Au3 Au6 2.979305 1_555
Au3 Nd30 3.097576 1_556
Au3 Nd32 3.130471 1_555
Au3 Nd11 3.141621 1_556
Au3 Nd16 3.259947 1_566
Au3 Nd33 3.638338 1_565
Au3 Nd23 3.855898 1_555
Au4 Au56 2.817700 1_555
Au4 Au50 2.891957 1_555
Au4 Nd29 3.115639 1_555
Au4 Nd15 3.141487 1_555
Au4 Nd23 3.164014 1_555
Au4 Nd6 3.284431 1_555
Au4 Nd0 3.356491 1_555
Au5 Au59 2.859816 1_545
Au5 Au69 2.859816 1_555
Au5 Au63 2.979305 1_555
Au5 Nd2 2.994932 1_555
Au5 Nd14 3.160185 1_555
Au5 Nd15 3.160185 1_545
Au5 Nd9 3.162737 1_555
Au5 Nd33 3.360580 1_554
Au6 Nd32 2.994932 1_555
Au6 Au7 3.010992 1_555
Au6 Nd23 3.160185 1_555
Au6 Nd12 3.160185 1_455
Au6 Nd3 3.162737 1_555
Au6 Nd11 3.360580 1_556
Au7 Nd23 3.101516 1_555
Au7 Nd12 3.101516 1_455
Au7 Nd3 3.299725 1_555
Au7 Nd32 3.306492 1_555
Au7 Nd10 3.387695 1_555
Au7 Nd11 3.649072 1_555
Au8 Nd6 2.994932 1_555
Au8 Nd15 3.160185 1_555
Au8 Nd1 3.160185 1_555
Au8 Nd9 3.162737 1_565
Au8 Nd8 3.360580 1_554
Au9 Nd27 3.097576 1_555
Au9 Nd7 3.130471 1_555
Au9 Nd5 3.141621 1_554
Au9 Nd16 3.259947 1_655
Au9 Nd13 3.638338 1_655
Au9 Nd4 3.855898 1_555
Au10 Au13 2.812328 1_556
Au10 Au50 2.869311 1_555
Au10 Au62 2.979305 1_555
Au10 Au54 3.036232 1_555
Au10 Nd30 3.097576 1_556
Au10 Au12 3.101057 1_555
Au10 Nd29 3.130471 1_555
Au10 Nd0 3.141621 1_556
Au10 Nd24 3.259947 1_556
Au10 Nd8 3.638338 1_555
Au10 Nd23 3.855898 1_555
Au11 Au48 2.817700 1_555
Au11 Au3 2.869311 1_555
Au11 Au60 2.891957 1_555
Au11 Au15 2.961686 1_565
Au11 Nd2 3.115639 1_565
Au11 Nd23 3.141487 1_555
Au11 Nd15 3.164014 1_555
Au11 Nd32 3.284431 1_555
Au11 Nd33 3.356491 1_565
Au12 Au2 2.812328 1_556
Au12 Au67 2.869311 1_555
Au12 Au62 2.979305 1_555
Au12 Au31 3.036232 1_555
Au12 Nd31 3.097576 1_556
Au12 Nd29 3.130471 1_555
Au12 Nd0 3.141621 1_556
Au12 Nd24 3.259947 1_556
Au12 Nd19 3.638338 1_555
Au12 Nd26 3.855898 1_555
Au13 Au4 2.869311 1_555
Au13 Au8 2.979305 1_555
Au13 Au38 3.036232 1_555
Au13 Nd30 3.097576 1_555
Au13 Au17 3.101057 1_555
Au13 Nd6 3.130471 1_555
Au13 Nd8 3.141621 1_554
Au13 Nd24 3.259947 1_555
Au13 Nd0 3.638338 1_555
Au13 Nd15 3.855898 1_555
Au14 Au56 2.823939 1_556
Au14 Au62 2.859816 1_555
Au14 Au6 2.859816 1_555
Au14 Nd11 3.175847 1_556
Au14 Nd0 3.175847 1_556
Au14 Nd10 3.306337 1_556
Au14 Au25 3.344192 1_455
Au14 Nd30 3.349612 1_556
Au14 Nd3 3.446005 1_555
Au14 Nd23 3.689721 1_555
Au15 Au23 2.847602 1_455
Au15 Au32 2.961686 1_555
Au15 Au40 3.036232 1_555
Au15 Au3 3.036232 1_545
Au15 Nd2 3.037865 1_555
Au15 Nd16 3.086697 1_556
Au15 Nd33 3.121056 1_555
Au15 Nd25 3.155221 1_555
Au15 Nd32 3.155221 1_545
Au16 Au66 2.974899 1_555
Au16 Au61 2.974899 1_455
Au16 Au21 3.010992 1_555
Au16 Nd26 3.101516 1_555
Au16 Nd18 3.101516 1_455
Au16 Nd3 3.299725 1_555
Au16 Nd25 3.306492 1_555
Au16 Nd10 3.387695 1_555
Au16 Nd13 3.649072 1_555
Au17 Au19 2.812328 1_554
Au17 Au28 2.869311 1_555
Au17 Au8 2.979305 1_555
Au17 Au52 3.036232 1_555
Au17 Nd20 3.097576 1_555
Au17 Nd6 3.130471 1_555
Au17 Nd8 3.141621 1_554
Au17 Nd24 3.259947 1_555
Au17 Nd17 3.638338 1_555
Au17 Nd1 3.855898 1_555
Au18 Au29 2.812328 1_556
Au18 Au39 2.869311 1_555
Au18 Au43 2.979305 1_555
Au18 Au31 3.036232 1_555
Au18 Nd27 3.097576 1_556
Au18 Au19 3.101057 1_555
Au18 Nd21 3.130471 1_555
Au18 Nd17 3.141621 1_556
Au18 Nd24 3.259947 1_556
Au18 Nd19 3.638338 1_555
Au18 Nd18 3.855898 1_555
Au19 Au37 2.869311 1_555
Au19 Au43 2.979305 1_555
Au19 Au54 3.036232 1_555
Au19 Nd20 3.097576 1_556
Au19 Nd21 3.130471 1_555
Au19 Nd17 3.141621 1_556
Au19 Nd24 3.259947 1_556
Au19 Nd8 3.638338 1_555
Au19 Nd12 3.855898 1_555
Au20 Au33 2.812328 1_556
Au20 Au6 2.979305 1_655
Au20 Au23 3.036232 1_565
Au20 Nd20 3.097576 1_556
Au20 Au3 3.101057 1_655
Au20 Nd32 3.130471 1_655
Au20 Nd11 3.141621 1_656
Au20 Nd16 3.259947 1_666
Au20 Nd5 3.638338 1_565
Au20 Nd12 3.855898 1_555
Au21 Au44 2.859816 1_455
Au21 Au22 2.979305 1_455
Au21 Au40 2.979305 1_555
Au21 Nd25 2.994932 1_555
Au21 Nd26 3.160185 1_555
Au21 Nd18 3.160185 1_455
Au21 Nd3 3.162737 1_555
Au21 Nd13 3.360580 1_556
Au22 Au9 2.812328 1_556
Au22 Au41 2.869311 1_555
Au22 Au23 3.036232 1_555
Au22 Nd27 3.097576 1_556
Au22 Au40 3.101057 1_655
Au22 Nd25 3.130471 1_655
Au22 Nd13 3.141621 1_656
Au22 Nd16 3.259947 1_656
Au22 Nd5 3.638338 1_555
Au22 Nd18 3.855898 1_555
Au23 Au41 2.961686 1_555
Au23 Nd7 3.037865 1_555
Au23 Nd16 3.086697 1_656
Au23 Nd5 3.121056 1_555
Au23 Nd32 3.155221 1_645
Au23 Nd25 3.155221 1_655
Au24 Au66 2.817700 1_555
Au24 Au63 2.869311 1_555
Au24 Au32 2.891957 1_555
Au24 Au65 2.961686 1_555
Au24 Nd25 3.115639 1_555
Au24 Nd14 3.141487 1_555
Au24 Nd26 3.164014 1_555
Au24 Nd2 3.284431 1_555
Au24 Nd13 3.356491 1_555
Au25 Au68 2.823939 1_556
Au25 Au43 2.859816 1_555
Au25 Au6 2.859816 1_655
Au25 Nd11 3.175847 1_656
Au25 Nd17 3.175847 1_556
Au25 Nd10 3.306337 1_656
Au25 Au44 3.344192 1_555
Au25 Nd20 3.349612 1_556
Au25 Nd3 3.446005 1_655
Au25 Nd12 3.689721 1_555
Au26 Au3 2.812328 1_554
Au26 Au60 2.869311 1_555
Au26 Au5 2.979305 1_565
Au26 Au45 3.036232 1_555
Au26 Nd30 3.097576 1_555
Au26 Au63 3.101057 1_565
Au26 Nd2 3.130471 1_565
Au26 Nd33 3.141621 1_564
Au26 Nd16 3.259947 1_565
Au26 Nd11 3.638338 1_555
Au26 Nd15 3.855898 1_555
Au27 Au68 2.817700 1_555
Au27 Au33 2.869311 1_555
Au27 Au45 2.961686 1_655
Au27 Nd32 3.115639 1_655
Au27 Nd1 3.141487 1_555
Au27 Nd12 3.164014 1_555
Au27 Nd7 3.284431 1_565
Au27 Nd11 3.356491 1_655
Au28 Au68 2.817700 1_555
Au28 Au37 2.891957 1_555
Au28 Au52 2.961686 1_555
Au28 Nd21 3.115639 1_555
Au28 Nd1 3.141487 1_555
Au28 Nd12 3.164014 1_555
Au28 Nd6 3.284431 1_555
Au28 Nd17 3.356491 1_555
Au29 Au71 2.869311 1_555
Au29 Au35 2.979305 1_555
Au29 Au52 3.036232 1_555
Au29 Nd27 3.097576 1_555
Au29 Nd22 3.130471 1_555
Au29 Nd19 3.141621 1_554
Au29 Nd24 3.259947 1_555
Au29 Nd17 3.638338 1_555
Au29 Nd4 3.855898 1_555
Au30 Au46 2.859816 1_545
Au30 Au36 2.859816 1_555
Au30 Au9 2.979305 1_555
Au30 Au33 2.979305 1_545
Au30 Nd7 2.994932 1_555
Au30 Au57 3.010992 1_555
Au30 Nd4 3.160185 1_555
Au30 Nd1 3.160185 1_545
Au30 Nd9 3.162737 1_555
Au30 Nd5 3.360580 1_554
Au31 Au54 2.847602 1_555
Au31 Au67 2.961686 1_555
Au31 Au39 2.961686 1_555
Au31 Nd22 3.037865 1_555
Au31 Nd24 3.086697 1_556
Au31 Nd19 3.121056 1_555
Au31 Nd21 3.155221 1_555
Au31 Nd29 3.155221 1_555
Au32 Au42 2.817700 1_555
Au32 Au40 2.869311 1_555
Au32 Nd2 3.115639 1_555
Au32 Nd26 3.141487 1_555
Au32 Nd14 3.164014 1_555
Au32 Nd25 3.284431 1_555
Au32 Nd33 3.356491 1_555
Au33 Au45 3.036232 1_655
Au33 Nd20 3.097576 1_555
Au33 Au9 3.101057 1_565
Au33 Nd7 3.130471 1_565
Au33 Nd5 3.141621 1_564
Au33 Nd16 3.259947 1_665
Au33 Nd11 3.638338 1_655
Au33 Nd1 3.855898 1_555
Au34 Au66 2.817700 1_555
Au34 Au67 2.891957 1_555
Au34 Au38 2.961686 1_555
Au34 Nd29 3.115639 1_555
Au34 Nd14 3.141487 1_555
Au34 Nd26 3.164014 1_555
Au34 Nd22 3.284431 1_555
Au34 Nd0 3.356491 1_555
Au35 Au69 2.859816 1_555
Au35 Au36 2.859816 1_555
Au35 Nd22 2.994932 1_555
Au35 Au70 3.010992 1_555
Au35 Nd14 3.160185 1_555
Au35 Nd4 3.160185 1_555
Au35 Nd9 3.162737 1_555
Au35 Nd19 3.360580 1_554
Au36 Au64 2.823939 1_554
Au36 Nd19 3.175847 1_554
Au36 Nd5 3.175847 1_554
Au36 Nd28 3.306337 1_554
Au36 Au46 3.344192 1_545
Au36 Au69 3.344192 1_555
Au36 Nd27 3.349612 1_555
Au36 Nd9 3.446005 1_555
Au36 Nd4 3.689721 1_555
Au37 Au58 2.817700 1_555
Au37 Au54 2.961686 1_555
Au37 Nd6 3.115639 1_555
Au37 Nd12 3.141487 1_555
Au37 Nd1 3.164014 1_555
Au37 Nd21 3.284431 1_555
Au37 Nd8 3.356491 1_555
Au38 Au52 2.847602 1_555
Au38 Au4 2.961686 1_555
Au38 Nd29 3.037865 1_555
Au38 Nd24 3.086697 1_555
Au38 Nd0 3.121056 1_555
Au38 Nd22 3.155221 1_555
Au38 Nd6 3.155221 1_555
Au39 Au64 2.817700 1_555
Au39 Au71 2.891957 1_555
Au39 Nd22 3.115639 1_555
Au39 Nd18 3.141487 1_555
Au39 Nd4 3.164014 1_555
Au39 Nd21 3.284431 1_555
Au39 Nd19 3.356491 1_555
Au40 Au63 2.812328 1_556
Au40 Nd31 3.097576 1_556
Au40 Nd25 3.130471 1_555
Au40 Nd13 3.141621 1_556
Au40 Nd16 3.259947 1_556
Au40 Nd33 3.638338 1_555
Au40 Nd26 3.855898 1_555
Au41 Au64 2.817700 1_555
Au41 Au53 2.891957 1_555
Au41 Nd7 3.115639 1_555
Au41 Nd18 3.141487 1_555
Au41 Nd4 3.164014 1_555
Au41 Nd25 3.284431 1_655
Au41 Nd5 3.356491 1_555
Au42 Au67 2.817700 1_555
Au42 Au69 2.823939 1_556
Au42 Au49 2.974899 1_555
Au42 Au70 2.974899 1_555
Au42 Nd33 3.119774 1_555
Au42 Nd19 3.119774 1_555
Au42 Nd28 3.155329 1_555
Au42 Nd14 3.465943 1_555
Au42 Nd31 3.532576 1_556
Au43 Au44 2.859816 1_555
Au43 Nd21 2.994932 1_555
Au43 Au55 3.010992 1_555
Au43 Nd18 3.160185 1_555
Au43 Nd12 3.160185 1_555
Au43 Nd3 3.162737 1_655
Au43 Nd17 3.360580 1_556
Au44 Au61 2.823939 1_556
Au44 Nd17 3.175847 1_556
Au44 Nd13 3.175847 1_656
Au44 Nd10 3.306337 1_656
Au44 Nd27 3.349612 1_556
Au44 Nd3 3.446005 1_655
Au44 Nd18 3.689721 1_555
Au45 Au65 2.847602 1_565
Au45 Au60 2.961686 1_555
Au45 Nd32 3.037865 1_555
Au45 Nd16 3.086697 1_565
Au45 Nd11 3.121056 1_555
Au45 Nd7 3.155221 1_465
Au45 Nd2 3.155221 1_565
Au46 Au58 2.823939 1_554
Au46 Au8 2.859816 1_555
Au46 Nd5 3.175847 1_564
Au46 Nd8 3.175847 1_554
Au46 Nd28 3.306337 1_564
Au46 Au59 3.344192 1_555
Au46 Nd20 3.349612 1_555
Au46 Nd9 3.446005 1_565
Au46 Nd1 3.689721 1_555
Au47 Au58 2.974899 1_555
Au47 Au48 2.974899 1_555
Au47 Au8 3.010992 1_555
Au47 Nd15 3.101516 1_555
Au47 Nd1 3.101516 1_555
Au47 Nd9 3.299725 1_565
Au47 Nd6 3.306492 1_555
Au47 Nd28 3.387695 1_565
Au47 Nd8 3.649072 1_555
Au48 Au50 2.817700 1_555
Au48 Au59 2.823939 1_556
Au48 Au49 2.974899 1_565
Au48 Nd8 3.119774 1_555
Au48 Nd33 3.119774 1_565
Au48 Nd28 3.155329 1_565
Au48 Nd15 3.465943 1_555
Au48 Nd30 3.532576 1_556
Au49 Au5 3.010992 1_555
Au49 Nd14 3.101516 1_555
Au49 Nd15 3.101516 1_545
Au49 Nd9 3.299725 1_555
Au49 Nd2 3.306492 1_555
Au49 Nd28 3.387695 1_555
Au49 Nd33 3.649072 1_555
Au50 Au54 2.961686 1_555
Au50 Nd6 3.115639 1_555
Au50 Nd23 3.141487 1_555
Au50 Nd15 3.164014 1_555
Au50 Nd29 3.284431 1_555
Au50 Nd8 3.356491 1_555
Au51 Au66 2.974899 1_555
Au51 Au56 2.974899 1_555
Au51 Au62 3.010992 1_555
Au51 Nd26 3.101516 1_555
Au51 Nd23 3.101516 1_555
Au51 Nd3 3.299725 1_555
Au51 Nd29 3.306492 1_555
Au51 Nd10 3.387695 1_555
Au51 Nd0 3.649072 1_555
Au52 Au71 2.961686 1_555
Au52 Nd21 3.037865 1_555
Au52 Nd24 3.086697 1_555
Au52 Nd17 3.121056 1_555
Au52 Nd6 3.155221 1_555
Au52 Nd22 3.155221 1_555
Au53 Au61 2.817700 1_555
Au53 Au9 2.869311 1_555
Au53 Au65 2.961686 1_655
Au53 Nd25 3.115639 1_655
Au53 Nd4 3.141487 1_555
Au53 Nd18 3.164014 1_555
Au53 Nd7 3.284431 1_555
Au53 Nd13 3.356491 1_655
Au54 Nd6 3.037865 1_555
Au54 Nd24 3.086697 1_556
Au54 Nd8 3.121056 1_555
Au54 Nd29 3.155221 1_555
Au54 Nd21 3.155221 1_555
Au55 Au61 2.974899 1_555
Au55 Au68 2.974899 1_555
Au55 Nd18 3.101516 1_555
Au55 Nd12 3.101516 1_555
Au55 Nd3 3.299725 1_655
Au55 Nd21 3.306492 1_555
Au55 Nd10 3.387695 1_655
Au55 Nd17 3.649072 1_555
Au56 Au60 2.817700 1_555
Au56 Au7 2.974899 1_555
Au56 Nd11 3.119774 1_555
Au56 Nd0 3.119774 1_555
Au56 Nd10 3.155329 1_555
Au56 Nd23 3.465943 1_555
Au56 Nd30 3.532576 1_555
Au57 Au64 2.974899 1_555
Au57 Au58 2.974899 1_545
Au57 Nd4 3.101516 1_555
Au57 Nd1 3.101516 1_545
Au57 Nd9 3.299725 1_555
Au57 Nd7 3.306492 1_555
Au57 Nd28 3.387695 1_555
Au57 Nd5 3.649072 1_555
Au58 Nd8 3.119774 1_555
Au58 Nd5 3.119774 1_565
Au58 Nd28 3.155329 1_565
Au58 Nd1 3.465943 1_555
Au58 Nd20 3.532576 1_556
Au59 Au8 2.859816 1_555
Au59 Nd8 3.175847 1_554
Au59 Nd33 3.175847 1_564
Au59 Nd28 3.306337 1_564
Au59 Au69 3.344192 1_565
Au59 Nd30 3.349612 1_555
Au59 Nd9 3.446005 1_565
Au59 Nd15 3.689721 1_555
Au60 Nd32 3.115639 1_555
Au60 Nd15 3.141487 1_555
Au60 Nd23 3.164014 1_555
Au60 Nd2 3.284431 1_565
Au60 Nd11 3.356491 1_555
Au61 Au71 2.817700 1_555
Au61 Nd17 3.119774 1_555
Au61 Nd13 3.119774 1_655
Au61 Nd10 3.155329 1_655
Au61 Nd18 3.465943 1_555
Au61 Nd27 3.532576 1_555
Au62 Nd29 2.994932 1_555
Au62 Nd26 3.160185 1_555
Au62 Nd23 3.160185 1_555
Au62 Nd3 3.162737 1_555
Au62 Nd0 3.360580 1_556
Au63 Au65 3.036232 1_555
Au63 Nd31 3.097576 1_555
Au63 Nd2 3.130471 1_555
Au63 Nd33 3.141621 1_554
Au63 Nd16 3.259947 1_555
Au63 Nd13 3.638338 1_555
Au63 Nd14 3.855898 1_555
Au64 Au70 2.974899 1_555
Au64 Nd5 3.119774 1_555
Au64 Nd19 3.119774 1_555
Au64 Nd28 3.155329 1_555
Au64 Nd4 3.465943 1_555
Au64 Nd27 3.532576 1_556
Au65 Au9 3.036232 1_455
Au65 Nd25 3.037865 1_555
Au65 Nd16 3.086697 1_555
Au65 Nd13 3.121056 1_555
Au65 Nd2 3.155221 1_555
Au65 Nd7 3.155221 1_455
Au66 Nd13 3.119774 1_555
Au66 Nd0 3.119774 1_555
Au66 Nd10 3.155329 1_555
Au66 Nd26 3.465943 1_555
Au66 Nd31 3.532576 1_555
Au67 Nd22 3.115639 1_555
Au67 Nd26 3.141487 1_555
Au67 Nd14 3.164014 1_555
Au67 Nd29 3.284431 1_555
Au67 Nd19 3.356491 1_555
Au68 Au7 2.974899 1_655
Au68 Nd17 3.119774 1_555
Au68 Nd11 3.119774 1_655
Au68 Nd10 3.155329 1_655
Au68 Nd12 3.465943 1_555
Au68 Nd20 3.532576 1_555
Au69 Nd19 3.175847 1_554
Au69 Nd33 3.175847 1_554
Au69 Nd28 3.306337 1_554
Au69 Nd31 3.349612 1_555
Au69 Nd9 3.446005 1_555
Au69 Nd14 3.689721 1_555
Au70 Nd14 3.101516 1_555
Au70 Nd4 3.101516 1_555
Au70 Nd9 3.299725 1_555
Au70 Nd22 3.306492 1_555
Au70 Nd28 3.387695 1_555
Au70 Nd19 3.649072 1_555
Au71 Nd21 3.115639 1_555
Au71 Nd4 3.141487 1_555
Au71 Nd18 3.164014 1_555
Au71 Nd22 3.284431 1_555
Au71 Nd17 3.356491 1_555
