# generated using pymatgen
data_NaErO2
_symmetry_space_group_name_H-M   'P 1'
_cell_length_a   5.83771946
_cell_length_b   5.95066829
_cell_length_c   7.29388061
_cell_angle_alpha   104.82889601
_cell_angle_beta   104.18965373
_cell_angle_gamma   112.33293786
_symmetry_Int_Tables_number   1
_chemical_formula_structural   NaErO2
_chemical_formula_sum   'Na4 Er4 O8'
_cell_volume   209.29917612
_cell_formula_units_Z   4
loop_
 _symmetry_equiv_pos_site_id
 _symmetry_equiv_pos_as_xyz
  1  'x, y, z'
loop_
 _atom_site_type_symbol
 _atom_site_label
 _atom_site_symmetry_multiplicity
 _atom_site_fract_x
 _atom_site_fract_y
 _atom_site_fract_z
 _atom_site_occupancy
  Na  Na0  1  0.43019235  0.18022579  0.86016634  1
  Na  Na1  1  0.19446691  0.94447597  0.38863751  1
  Na  Na2  1  0.56980772  0.81977409  0.13983364  1
  Na  Na3  1  0.80553309  0.05552384  0.61136233  1
  Er  Er0  1  0.31729201  0.56730579  0.63461637  1
  Er  Er1  1  0.68270776  0.43269365  0.36538335  1
  Er  Er2  1  0.05663039  0.30661601  0.11326014  1
  Er  Er3  1  0.94336901  0.69338341  0.88673946  1
  O  O0  1  0.06012088  0.76941317  0.62682241  1
  O  O1  1  0.56669983  0.35741550  0.62681749  1
  O  O2  1  0.93987913  0.23058751  0.37317770  1
  O  O3  1  0.43330076  0.64258474  0.37318292  1
  O  O4  1  0.83104816  0.54200028  0.12380330  1
  O  O5  1  0.70728738  0.91822185  0.87620190  1
  O  O6  1  0.16895189  0.45800000  0.87619677  1
  O  O7  1  0.29271273  0.08177841  0.12379837  1
loop_
_geom_bond_atom_site_label_1
_geom_bond_atom_site_label_2
_geom_bond_distance
_geom_bond_site_symmetry_2
Na0 O1 2.364033 1_555
Na0 O0 2.365176 1_545
Na0 O4 2.377938 1_556
Na0 O7 2.379234 1_556
Na0 O6 2.641196 1_555
Na0 O5 2.641657 1_545
Na1 O1 2.384166 1_565
Na1 O0 2.385783 1_555
Na1 O7 2.392256 1_565
Na1 O4 2.393650 1_455
Na1 O2 2.656944 1_465
Na1 O3 2.657213 1_555
Na2 O3 2.364034 1_555
Na2 O2 2.365179 1_565
Na2 O6 2.377937 1_554
Na2 O5 2.379233 1_554
Na2 O4 2.641194 1_555
Na2 O7 2.641659 1_565
Na3 O3 2.384163 1_545
Na3 O2 2.385783 1_555
Na3 O5 2.392257 1_545
Na3 O6 2.393651 1_655
Na3 O0 2.656940 1_645
Na3 O1 2.657213 1_555
Er0 O0 2.251417 1_555
Er0 O1 2.251513 1_555
Er0 O2 2.266003 1_455
Er0 O3 2.266106 1_555
Er0 O6 2.276952 1_555
Er0 O5 2.277167 1_555
Er1 O2 2.251412 1_555
Er1 O3 2.251513 1_555
Er1 O0 2.266007 1_655
Er1 O1 2.266107 1_555
Er1 O4 2.276952 1_555
Er1 O7 2.277163 1_555
Er2 O7 2.257742 1_555
Er2 O4 2.257958 1_455
Er2 O2 2.258641 1_455
Er2 O3 2.258647 1_555
Er2 O5 2.265831 1_444
Er2 O6 2.266172 1_554
Er3 O5 2.257743 1_555
Er3 O6 2.257957 1_655
Er3 O1 2.258640 1_555
Er3 O0 2.258641 1_655
Er3 O7 2.265837 1_666
Er3 O4 2.266171 1_556
