# generated using pymatgen
data_YbInAu
_symmetry_space_group_name_H-M   'P 1'
_cell_length_a   7.94445761
_cell_length_b   7.94445761
_cell_length_c   3.91265800
_cell_angle_alpha   90.00000000
_cell_angle_beta   90.00000000
_cell_angle_gamma   119.99999677
_symmetry_Int_Tables_number   1
_chemical_formula_structural   YbInAu
_chemical_formula_sum   'Yb3 In3 Au3'
_cell_volume   213.86072695
_cell_formula_units_Z   3
loop_
 _symmetry_equiv_pos_site_id
 _symmetry_equiv_pos_as_xyz
  1  'x, y, z'
loop_
 _atom_site_type_symbol
 _atom_site_label
 _atom_site_symmetry_multiplicity
 _atom_site_fract_x
 _atom_site_fract_y
 _atom_site_fract_z
 _atom_site_occupancy
  Yb  Yb0  1  0.00000000  0.59478600  0.50000000  1
  Yb  Yb1  1  0.59478600  0.00000000  0.50000000  1
  Yb  Yb2  1  0.40521400  0.40521400  0.50000000  1
  In  In0  1  0.00000000  0.26378000  0.00000000  1
  In  In1  1  0.26378000  0.00000000  0.00000000  1
  In  In2  1  0.73622000  0.73622000  0.00000000  1
  Au  Au0  1  0.00000000  0.00000000  0.50000000  1
  Au  Au1  1  0.66666700  0.33333300  0.00000000  1
  Au  Au2  1  0.33333300  0.66666700  0.00000000  1
loop_
_geom_bond_atom_site_label_1
_geom_bond_atom_site_label_2
_geom_bond_distance
_geom_bond_site_symmetry_2
In0 Yb0 3.277553 1_555
In0 Yb0 3.277553 1_554
In0 Yb2 3.440330 1_555
In0 Yb2 3.440330 1_554
In0 Yb1 3.440330 1_455
In0 Yb1 3.440330 1_454
In1 Yb1 3.277553 1_554
In1 Yb1 3.277553 1_555
In1 Yb2 3.440330 1_555
In1 Yb2 3.440330 1_554
In1 Yb0 3.440330 1_545
In1 Yb0 3.440330 1_544
In2 Yb2 3.277553 1_554
In2 Yb2 3.277553 1_555
In2 Yb0 3.440330 1_655
In2 Yb1 3.440330 1_565
In2 Yb1 3.440330 1_564
In2 Yb0 3.440330 1_654
Au0 In1 2.866830 1_556
Au0 In0 2.866830 1_555
Au0 In0 2.866830 1_556
Au0 In1 2.866830 1_555
Au0 In2 2.866830 1_445
Au0 In2 2.866830 1_446
Au0 Yb0 3.219205 1_545
Au0 Yb1 3.219205 1_455
Au0 Yb2 3.219206 1_555
Au1 In0 2.963323 1_655
Au1 In1 2.963329 1_555
Au1 In2 2.963331 1_555
Au1 Yb1 3.107054 1_555
Au1 Yb1 3.107054 1_554
Au1 Yb0 3.107056 1_655
Au1 Yb0 3.107056 1_654
Au1 Yb2 3.107060 1_554
Au1 Yb2 3.107060 1_555
Au2 In1 2.963323 1_565
Au2 In0 2.963329 1_555
Au2 In2 2.963331 1_555
Au2 Yb0 3.107054 1_555
Au2 Yb0 3.107054 1_554
Au2 Yb1 3.107056 1_565
Au2 Yb1 3.107056 1_564
Au2 Yb2 3.107060 1_554
Au2 Yb2 3.107060 1_555
