# generated using pymatgen
data_Ba4PrMn3O12
_symmetry_space_group_name_H-M   'P 1'
_cell_length_a   10.55242042
_cell_length_b   10.55242042
_cell_length_c   10.55242103
_cell_angle_alpha   32.55570459
_cell_angle_beta   32.55570459
_cell_angle_gamma   32.55570682
_symmetry_Int_Tables_number   1
_chemical_formula_structural   Ba4PrMn3O12
_chemical_formula_sum   'Ba4 Pr1 Mn3 O12'
_cell_volume   302.58741215
_cell_formula_units_Z   1
loop_
 _symmetry_equiv_pos_site_id
 _symmetry_equiv_pos_as_xyz
  1  'x, y, z'
loop_
 _atom_site_type_symbol
 _atom_site_label
 _atom_site_symmetry_multiplicity
 _atom_site_fract_x
 _atom_site_fract_y
 _atom_site_fract_z
 _atom_site_occupancy
  Ba  Ba0  1  0.27771200  0.27771200  0.27771200  1
  Ba  Ba1  1  0.13058200  0.13058200  0.13058200  1
  Ba  Ba2  1  0.72228800  0.72228800  0.72228800  1
  Ba  Ba3  1  0.86941800  0.86941800  0.86941800  1
  Pr  Pr0  1  0.00000000  0.00000000  0.00000000  1
  Mn  Mn0  1  0.58596100  0.58596100  0.58596100  1
  Mn  Mn1  1  0.41403900  0.41403900  0.41403900  1
  Mn  Mn2  1  0.50000000  0.50000000  0.50000000  1
  O  O0  1  0.39411200  0.39411200  0.83379500  1
  O  O1  1  0.60588800  0.16620500  0.60588800  1
  O  O2  1  0.69032400  0.22672000  0.22672000  1
  O  O3  1  0.22672000  0.69032400  0.22672000  1
  O  O4  1  0.39411200  0.83379500  0.39411200  1
  O  O5  1  0.77328000  0.77328000  0.30967600  1
  O  O6  1  0.16620500  0.60588800  0.60588800  1
  O  O7  1  0.22672000  0.22672000  0.69032400  1
  O  O8  1  0.77328000  0.30967600  0.77328000  1
  O  O9  1  0.83379500  0.39411200  0.39411200  1
  O  O10  1  0.60588800  0.60588800  0.16620500  1
  O  O11  1  0.30967600  0.77328000  0.77328000  1
loop_
_geom_bond_atom_site_label_1
_geom_bond_atom_site_label_2
_geom_bond_distance
_geom_bond_site_symmetry_2
Ba0 O4 2.846995 1_545
Ba0 O9 2.846995 1_455
Ba0 O0 2.846995 1_554
Ba0 O8 2.969380 1_554
Ba0 O11 2.969380 1_554
Ba0 O11 2.969380 1_545
Ba0 O8 2.969380 1_455
Ba0 O5 2.969380 1_545
Ba0 O5 2.969380 1_455
Ba1 O1 2.968147 1_455
Ba1 O6 2.968147 1_545
Ba1 O1 2.968147 1_554
Ba1 O6 2.968147 1_554
Ba1 O10 2.968147 1_545
Ba1 O10 2.968147 1_455
Ba1 O0 2.991367 1_554
Ba1 O9 2.991367 1_455
Ba1 O4 2.991367 1_545
Ba1 O3 3.080026 1_545
Ba1 O2 3.080026 1_455
Ba1 O7 3.080027 1_554
Ba2 O6 2.846995 1_655
Ba2 O1 2.846995 1_565
Ba2 O10 2.846995 1_556
Ba2 O3 2.969380 1_556
Ba2 O2 2.969380 1_556
Ba2 O3 2.969380 1_655
Ba2 O2 2.969380 1_565
Ba2 O7 2.969380 1_655
Ba2 O7 2.969380 1_565
Ba3 O9 2.968147 1_565
Ba3 O4 2.968147 1_655
Ba3 O4 2.968147 1_556
Ba3 O9 2.968147 1_556
Ba3 O0 2.968147 1_655
Ba3 O0 2.968147 1_565
Ba3 O10 2.991367 1_556
Ba3 O6 2.991367 1_655
Ba3 O1 2.991367 1_565
Ba3 O11 3.080026 1_655
Ba3 O8 3.080026 1_565
Ba3 O5 3.080027 1_556
Mn0 O5 1.863172 1_555
Mn0 O11 1.863173 1_555
Mn0 O8 1.863173 1_555
Mn0 O0 2.023661 1_555
Mn0 O4 2.023661 1_555
Mn0 O9 2.023661 1_555
Mn1 O7 1.863172 1_555
Mn1 O2 1.863173 1_555
Mn1 O3 1.863173 1_555
Mn1 O10 2.023661 1_555
Mn1 O6 2.023661 1_555
Mn1 O1 2.023661 1_555
Mn2 O9 1.933720 1_555
Mn2 O4 1.933720 1_555
Mn2 O6 1.933720 1_555
Mn2 O1 1.933720 1_555
Mn2 O0 1.933721 1_555
Mn2 O10 1.933721 1_555
O2 Pr0 2.327353 1_655
O3 Pr0 2.327353 1_565
O5 Pr0 2.327352 1_665
O7 Pr0 2.327352 1_556
O8 Pr0 2.327353 1_656
O11 Pr0 2.327353 1_566
