# generated using pymatgen
data_BaCaVP2O9
_symmetry_space_group_name_H-M   'P 1'
_cell_length_a   7.16020300
_cell_length_b   7.41048500
_cell_length_c   14.64780113
_cell_angle_alpha   78.37814640
_cell_angle_beta   90.00000000
_cell_angle_gamma   90.00000000
_symmetry_Int_Tables_number   1
_chemical_formula_structural   BaCaVP2O9
_chemical_formula_sum   'Ba4 Ca4 V4 P8 O36'
_cell_volume   761.28657442
_cell_formula_units_Z   4
loop_
 _symmetry_equiv_pos_site_id
 _symmetry_equiv_pos_as_xyz
  1  'x, y, z'
loop_
 _atom_site_type_symbol
 _atom_site_label
 _atom_site_symmetry_multiplicity
 _atom_site_fract_x
 _atom_site_fract_y
 _atom_site_fract_z
 _atom_site_occupancy
  Ba  Ba0  1  0.23411000  0.62145900  0.42742100  1
  Ba  Ba1  1  0.76589000  0.37854100  0.57257900  1
  Ba  Ba2  1  0.73411000  0.37854100  0.07257900  1
  Ba  Ba3  1  0.26589000  0.62145900  0.92742100  1
  Ca  Ca0  1  0.01910500  0.81158300  0.66186300  1
  Ca  Ca1  1  0.51910500  0.18841700  0.83813700  1
  Ca  Ca2  1  0.48089500  0.81158300  0.16186300  1
  Ca  Ca3  1  0.98089500  0.18841700  0.33813700  1
  V  V0  1  0.51529500  0.84402000  0.66591100  1
  V  V1  1  0.48470500  0.15598000  0.33408900  1
  V  V2  1  0.98470500  0.84402000  0.16591100  1
  V  V3  1  0.01529500  0.15598000  0.83408900  1
  P  P0  1  0.72595900  0.87932200  0.50182000  1
  P  P1  1  0.22595900  0.12067800  0.99818000  1
  P  P2  1  0.22344600  0.46227800  0.19848200  1
  P  P3  1  0.77404100  0.87932200  0.00182000  1
  P  P4  1  0.72344600  0.53772200  0.30151800  1
  P  P5  1  0.27655400  0.46227800  0.69848200  1
  P  P6  1  0.77655400  0.53772200  0.80151800  1
  P  P7  1  0.27404100  0.12067800  0.49818000  1
  O  O0  1  0.68081700  0.33889400  0.28106000  1
  O  O1  1  0.91657700  0.78340400  0.50536200  1
  O  O2  1  0.31918300  0.66110600  0.71894000  1
  O  O3  1  0.72298100  0.98826300  0.58523300  1
  O  O4  1  0.79693600  0.02097800  0.90827800  1
  O  O5  1  0.21525000  0.34768500  0.79667400  1
  O  O6  1  0.81918300  0.33889400  0.78106000  1
  O  O7  1  0.06124700  0.25816400  0.97362400  1
  O  O8  1  0.38082100  0.49670200  0.12595700  1
  O  O9  1  0.11917900  0.49670200  0.62595700  1
  O  O10  1  0.58342300  0.78340400  0.00536200  1
  O  O11  1  0.71525000  0.65231500  0.70332600  1
  O  O12  1  0.18081700  0.66110600  0.21894000  1
  O  O13  1  0.20306400  0.97902200  0.09172200  1
  O  O14  1  0.28475000  0.34768500  0.29667400  1
  O  O15  1  0.97151300  0.95630300  0.25308600  1
  O  O16  1  0.61917900  0.50329800  0.87404300  1
  O  O17  1  0.88082100  0.50329800  0.37404300  1
  O  O18  1  0.08342300  0.21659600  0.49463800  1
  O  O19  1  0.52848700  0.95630300  0.75308600  1
  O  O20  1  0.93875300  0.74183600  0.02637600  1
  O  O21  1  0.95167600  0.63329000  0.82660400  1
  O  O22  1  0.70306400  0.02097800  0.40827800  1
  O  O23  1  0.29693600  0.97902200  0.59172200  1
  O  O24  1  0.22298100  0.01173700  0.91476700  1
  O  O25  1  0.78475000  0.65231500  0.20332600  1
  O  O26  1  0.02848700  0.04369700  0.74691400  1
  O  O27  1  0.47151300  0.04369700  0.24691400  1
  O  O28  1  0.41657700  0.21659600  0.99463800  1
  O  O29  1  0.27701900  0.01173700  0.41476700  1
  O  O30  1  0.04832400  0.36671000  0.17339600  1
  O  O31  1  0.77701900  0.98826300  0.08523300  1
  O  O32  1  0.43875300  0.25816400  0.47362400  1
  O  O33  1  0.45167600  0.36671000  0.67339600  1
  O  O34  1  0.56124700  0.74183600  0.52637600  1
  O  O35  1  0.54832400  0.63329000  0.32660400  1
loop_
_geom_bond_atom_site_label_1
_geom_bond_atom_site_label_2
_geom_bond_distance
_geom_bond_site_symmetry_2
Ba0 O35 2.682921 1_555
Ba0 O17 2.837758 1_455
Ba0 O29 2.877029 1_565
Ba0 O1 2.909449 1_455
Ba0 O34 2.984019 1_555
Ba0 O9 2.984264 1_555
Ba0 O32 3.019750 1_555
Ba0 O12 3.032501 1_555
Ba0 O14 3.079088 1_555
Ba0 O18 3.153531 1_555
Ba1 O33 2.682921 1_555
Ba1 O9 2.837758 1_655
Ba1 O3 2.877029 1_545
Ba1 O18 2.909449 1_655
Ba1 O32 2.984019 1_555
Ba1 O17 2.984264 1_555
Ba1 O34 3.019750 1_555
Ba1 O6 3.032501 1_555
Ba1 O11 3.079088 1_555
Ba1 O1 3.153531 1_555
Ba2 O30 2.682921 1_655
Ba2 O8 2.837758 1_555
Ba2 O31 2.877029 1_545
Ba2 O28 2.909449 1_554
Ba2 O7 2.984019 1_654
Ba2 O16 2.984264 1_554
Ba2 O20 3.019750 1_555
Ba2 O0 3.032501 1_555
Ba2 O25 3.079088 1_555
Ba2 O10 3.153531 1_555
Ba3 O21 2.682921 1_455
Ba3 O16 2.837758 1_555
Ba3 O24 2.877029 1_565
Ba3 O10 2.909449 1_556
Ba3 O20 2.984019 1_456
Ba3 O8 2.984264 1_556
Ba3 O7 3.019750 1_555
Ba3 O2 3.032501 1_555
Ba3 O5 3.079088 1_555
Ba3 O28 3.153531 1_555
Ca0 O26 2.319181 1_565
Ca0 O1 2.455705 1_455
Ca0 O23 2.457430 1_555
Ca0 O2 2.486643 1_555
Ca0 O11 2.491298 1_455
Ca0 O21 2.552886 1_455
Ca0 O9 2.594104 1_555
Ca0 O3 2.622544 1_455
Ca1 O19 2.319181 1_545
Ca1 O28 2.455705 1_555
Ca1 O4 2.457430 1_555
Ca1 O6 2.486643 1_555
Ca1 O5 2.491298 1_555
Ca1 O33 2.552886 1_555
Ca1 O16 2.594104 1_555
Ca1 O24 2.622544 1_555
Ca2 O27 2.319181 1_565
Ca2 O10 2.455705 1_555
Ca2 O13 2.457430 1_555
Ca2 O12 2.486643 1_555
Ca2 O25 2.491298 1_555
Ca2 O35 2.552886 1_555
Ca2 O8 2.594104 1_555
Ca2 O31 2.622544 1_555
Ca3 O15 2.319181 1_545
Ca3 O18 2.455705 1_655
Ca3 O22 2.457430 1_555
Ca3 O0 2.486643 1_555
Ca3 O14 2.491298 1_655
Ca3 O30 2.552886 1_655
Ca3 O17 2.594104 1_555
Ca3 O29 2.622544 1_655
O0 P4 1.591164 1_555
O0 V1 1.997062 1_555
O1 P0 1.534901 1_555
O2 P5 1.591164 1_555
O2 V0 1.997062 1_555
O3 P0 1.594506 1_555
O3 V0 2.059505 1_555
O4 P3 1.557794 1_546
O4 V3 2.046529 1_655
O5 P5 1.578099 1_555
O5 V3 2.013620 1_555
O6 P6 1.591164 1_555
O6 V3 1.997062 1_655
O7 P1 1.552635 1_555
O7 V3 2.341512 1_555
O8 P2 1.534340 1_555
O9 P5 1.534340 1_555
O10 P3 1.534901 1_555
O11 P6 1.578099 1_555
O11 V0 2.013620 1_555
O12 P2 1.591164 1_555
O12 V2 1.997062 1_455
O13 P1 1.557794 1_564
O13 V2 2.046529 1_455
O14 P2 1.578099 1_555
O14 V1 2.013620 1_555
O15 V2 1.661287 1_555
O16 P6 1.534340 1_555
O17 P4 1.534340 1_555
O18 P7 1.534901 1_555
O19 V0 1.661287 1_555
O20 P3 1.552635 1_555
O20 V2 2.341512 1_555
O21 P6 1.521090 1_555
O22 P0 1.557794 1_545
O22 V1 2.046529 1_555
O23 P7 1.557794 1_565
O23 V0 2.046529 1_555
O24 P1 1.594506 1_555
O24 V3 2.059505 1_555
O25 P4 1.578099 1_555
O25 V2 2.013620 1_555
O26 V3 1.661287 1_555
O27 V1 1.661287 1_555
O28 P1 1.534901 1_555
O29 P7 1.594506 1_555
O29 V1 2.059505 1_555
O30 P2 1.521090 1_555
O31 P3 1.594506 1_555
O31 V2 2.059505 1_555
O32 P7 1.552635 1_555
O32 V1 2.341512 1_555
O33 P5 1.521090 1_555
O34 P0 1.552635 1_555
O34 V0 2.341512 1_555
O35 P4 1.521090 1_555
