# generated using pymatgen
data_GeClO2F5
_symmetry_space_group_name_H-M   'P 1'
_cell_length_a   8.53146392
_cell_length_b   8.53146392
_cell_length_c   9.04218800
_cell_angle_alpha   90.00000000
_cell_angle_beta   90.00000000
_cell_angle_gamma   127.16501266
_symmetry_Int_Tables_number   1
_chemical_formula_structural   GeClO2F5
_chemical_formula_sum   'Ge4 Cl4 O8 F20'
_cell_volume   524.47393697
_cell_formula_units_Z   4
loop_
 _symmetry_equiv_pos_site_id
 _symmetry_equiv_pos_as_xyz
  1  'x, y, z'
loop_
 _atom_site_type_symbol
 _atom_site_label
 _atom_site_symmetry_multiplicity
 _atom_site_fract_x
 _atom_site_fract_y
 _atom_site_fract_z
 _atom_site_occupancy
  Ge  Ge0  1  0.99605700  0.76868400  0.93276100  1
  Ge  Ge1  1  0.00394300  0.23131600  0.43276100  1
  Ge  Ge2  1  0.76868400  0.99605700  0.06723900  1
  Ge  Ge3  1  0.23131600  0.00394300  0.56723900  1
  Cl  Cl0  1  0.38724700  0.61275300  0.75000000  1
  Cl  Cl1  1  0.27432700  0.72567300  0.25000000  1
  Cl  Cl2  1  0.61275300  0.38724700  0.25000000  1
  Cl  Cl3  1  0.72567300  0.27432700  0.75000000  1
  O  O0  1  0.65733500  0.52550600  0.36231700  1
  O  O1  1  0.34266500  0.47449400  0.86231700  1
  O  O2  1  0.25376200  0.61109600  0.12661500  1
  O  O3  1  0.47449400  0.34266500  0.13768300  1
  O  O4  1  0.38890400  0.74623800  0.37338500  1
  O  O5  1  0.61109600  0.25376200  0.87338500  1
  O  O6  1  0.74623800  0.38890400  0.62661500  1
  O  O7  1  0.52550600  0.65733500  0.63768300  1
  F  F0  1  0.92658400  0.23973800  0.00097500  1
  F  F1  1  0.40118000  0.96687600  0.65013800  1
  F  F2  1  0.03235300  0.03235300  0.50000000  1
  F  F3  1  0.07341600  0.76026200  0.50097500  1
  F  F4  1  0.36522200  0.24672900  0.63495500  1
  F  F5  1  0.96687600  0.40118000  0.34986200  1
  F  F6  1  0.59882000  0.03312400  0.15013800  1
  F  F7  1  0.63477800  0.75327100  0.13495500  1
  F  F8  1  0.91379000  0.63861700  0.11164900  1
  F  F9  1  0.03312400  0.59882000  0.84986200  1
  F  F10  1  0.96764700  0.96764700  0.00000000  1
  F  F11  1  0.08037600  0.91962400  0.75000000  1
  F  F12  1  0.24672900  0.36522200  0.36504500  1
  F  F13  1  0.75327100  0.63477800  0.86504500  1
  F  F14  1  0.76026200  0.07341600  0.49902500  1
  F  F15  1  0.63861700  0.91379000  0.88835100  1
  F  F16  1  0.08621000  0.36138300  0.61164900  1
  F  F17  1  0.36138300  0.08621000  0.38835100  1
  F  F18  1  0.23973800  0.92658400  0.99902500  1
  F  F19  1  0.91962400  0.08037600  0.25000000  1
loop_
_geom_bond_atom_site_label_1
_geom_bond_atom_site_label_2
_geom_bond_distance
_geom_bond_site_symmetry_2
Cl0 O7 1.423156 1_555
Cl0 O1 1.423156 1_555
Cl1 O4 1.422608 1_555
Cl1 O2 1.422608 1_555
Cl2 O0 1.423156 1_555
Cl2 O3 1.423156 1_555
Cl3 O5 1.422608 1_555
Cl3 O6 1.422608 1_555
F0 Ge2 1.764096 1_545
F1 Ge3 1.820919 1_565
F2 Ge3 1.951105 1_555
F2 Ge1 1.951105 1_555
F3 Ge3 1.764096 1_565
F4 Ge3 1.763905 1_555
F5 Ge1 1.820919 1_655
F6 Ge2 1.820919 1_545
F7 Ge2 1.763905 1_555
F8 Ge0 1.843744 1_554
F9 Ge0 1.820919 1_455
F10 Ge2 1.951105 1_555
F10 Ge0 1.951105 1_554
F11 Ge0 1.946141 1_455
F11 Ge3 1.946141 1_565
F12 Ge1 1.763905 1_555
F13 Ge0 1.763905 1_555
F14 Ge1 1.764096 1_655
F15 Ge2 1.843744 1_556
F16 Ge1 1.843744 1_555
F17 Ge3 1.843744 1_555
F18 Ge0 1.764096 1_455
F19 Ge1 1.946141 1_655
F19 Ge2 1.946141 1_545
