# generated using pymatgen
data_Sn5(W4O11)2
_symmetry_space_group_name_H-M   'P 1'
_cell_length_a   7.90514441
_cell_length_b   7.90514441
_cell_length_c   18.98279500
_cell_angle_alpha   90.00000000
_cell_angle_beta   90.00000000
_cell_angle_gamma   120.00000345
_symmetry_Int_Tables_number   1
_chemical_formula_structural   Sn5(W4O11)2
_chemical_formula_sum   'Sn10 W16 O44'
_cell_volume   1027.33099333
_cell_formula_units_Z   2
loop_
 _symmetry_equiv_pos_site_id
 _symmetry_equiv_pos_as_xyz
  1  'x, y, z'
loop_
 _atom_site_type_symbol
 _atom_site_label
 _atom_site_symmetry_multiplicity
 _atom_site_fract_x
 _atom_site_fract_y
 _atom_site_fract_z
 _atom_site_occupancy
  Sn  Sn0  1  0.66666700  0.33333300  0.93300700  1
  Sn  Sn1  1  0.66666700  0.33333300  0.56699300  1
  Sn  Sn2  1  0.30771700  0.11329300  0.75000000  1
  Sn  Sn3  1  0.69228300  0.88670700  0.25000000  1
  Sn  Sn4  1  0.33333300  0.66666700  0.43300700  1
  Sn  Sn5  1  0.88670700  0.19442400  0.75000000  1
  Sn  Sn6  1  0.19442400  0.30771700  0.25000000  1
  Sn  Sn7  1  0.33333300  0.66666700  0.06699300  1
  Sn  Sn8  1  0.80557600  0.69228300  0.75000000  1
  Sn  Sn9  1  0.11329300  0.80557600  0.25000000  1
  W  W0  1  0.94375300  0.16667700  0.43977500  1
  W  W1  1  0.33333300  0.66666700  0.67082500  1
  W  W2  1  0.77707700  0.94375300  0.56022500  1
  W  W3  1  0.05624700  0.83332300  0.56022500  1
  W  W4  1  0.66666700  0.33333300  0.32917500  1
  W  W5  1  0.94375300  0.16667700  0.06022500  1
  W  W6  1  0.83332300  0.77707700  0.43977500  1
  W  W7  1  0.05624700  0.83332300  0.93977500  1
  W  W8  1  0.77707700  0.94375300  0.93977500  1
  W  W9  1  0.22292300  0.05624700  0.06022500  1
  W  W10  1  0.66666700  0.33333300  0.17082500  1
  W  W11  1  0.33333300  0.66666700  0.82917500  1
  W  W12  1  0.22292300  0.05624700  0.43977500  1
  W  W13  1  0.16667700  0.22292300  0.56022500  1
  W  W14  1  0.83332300  0.77707700  0.06022500  1
  W  W15  1  0.16667700  0.22292300  0.93977500  1
  O  O0  1  0.23500400  0.05846600  0.62298400  1
  O  O1  1  0.76499600  0.94153400  0.12298400  1
  O  O2  1  0.53683300  0.87569100  0.87558200  1
  O  O3  1  0.05846600  0.82346200  0.37701600  1
  O  O4  1  0.12430900  0.66114200  0.62441800  1
  O  O5  1  0.69588600  0.16500700  0.25000000  1
  O  O6  1  0.82346200  0.76499600  0.87701600  1
  O  O7  1  0.13247400  0.41266100  0.00306800  1
  O  O8  1  0.30411400  0.83499300  0.75000000  1
  O  O9  1  0.00000000  0.00000000  0.25000000  1
  O  O10  1  0.66114200  0.53683300  0.37558200  1
  O  O11  1  0.86752600  0.58733900  0.50306800  1
  O  O12  1  0.83499300  0.53087800  0.25000000  1
  O  O13  1  0.17653800  0.23500400  0.12298400  1
  O  O14  1  0.58733900  0.71981300  0.00306800  1
  O  O15  1  0.41266100  0.28018700  0.50306800  1
  O  O16  1  0.58733900  0.71981300  0.49693200  1
  O  O17  1  0.71981300  0.13247400  0.99693200  1
  O  O18  1  0.33885800  0.46316700  0.87558200  1
  O  O19  1  0.46912200  0.30411400  0.25000000  1
  O  O20  1  0.71981300  0.13247400  0.50306800  1
  O  O21  1  0.13247400  0.41266100  0.49693200  1
  O  O22  1  0.17653800  0.23500400  0.37701600  1
  O  O23  1  0.33885800  0.46316700  0.62441800  1
  O  O24  1  0.28018700  0.86752600  0.49693200  1
  O  O25  1  0.76499600  0.94153400  0.37701600  1
  O  O26  1  0.46316700  0.12430900  0.37558200  1
  O  O27  1  0.41266100  0.28018700  0.99693200  1
  O  O28  1  0.16500700  0.46912200  0.75000000  1
  O  O29  1  0.23500400  0.05846600  0.87701600  1
  O  O30  1  0.94153400  0.17653800  0.87701600  1
  O  O31  1  0.05846600  0.82346200  0.12298400  1
  O  O32  1  0.82346200  0.76499600  0.62298400  1
  O  O33  1  0.86752600  0.58733900  0.99693200  1
  O  O34  1  0.87569100  0.33885800  0.37558200  1
  O  O35  1  0.94153400  0.17653800  0.62298400  1
  O  O36  1  0.28018700  0.86752600  0.00306800  1
  O  O37  1  0.46316700  0.12430900  0.12441800  1
  O  O38  1  0.12430900  0.66114200  0.87558200  1
  O  O39  1  0.87569100  0.33885800  0.12441800  1
  O  O40  1  0.53683300  0.87569100  0.62441800  1
  O  O41  1  0.66114200  0.53683300  0.12441800  1
  O  O42  1  0.00000000  0.00000000  0.75000000  1
  O  O43  1  0.53087800  0.69588600  0.75000000  1
loop_
_geom_bond_atom_site_label_1
_geom_bond_atom_site_label_2
_geom_bond_distance
_geom_bond_site_symmetry_2
O0 W3 2.017120 1_545
O0 W13 2.025683 1_555
O0 Sn2 2.466296 1_555
O1 W5 2.017120 1_565
O1 W14 2.025683 1_555
O1 Sn3 2.466296 1_555
O2 W11 1.853674 1_555
O2 W8 2.087912 1_555
O3 W6 2.017122 1_455
O3 W12 2.025688 1_565
O3 Sn9 2.466296 1_555
O4 W1 1.853671 1_555
O4 W3 2.087906 1_555
O5 W4 2.095282 1_555
O5 W10 2.095282 1_555
O5 Sn3 2.185900 1_545
O6 W8 2.017116 1_555
O6 W7 2.025689 1_655
O6 Sn8 2.466296 1_555
O7 W15 2.042527 1_554
O7 W5 2.069572 1_455
O7 Sn7 2.199387 1_555
O8 W1 2.095282 1_555
O8 W11 2.095282 1_555
O8 Sn2 2.185900 1_565
O9 Sn6 2.130915 1_555
O9 Sn3 2.130915 1_445
O9 Sn9 2.130915 1_545
O10 W4 1.853678 1_555
O10 W6 2.087911 1_555
O11 W6 2.042527 1_555
O11 W3 2.069572 1_655
O11 Sn1 2.199387 1_555
O12 W10 2.095282 1_555
O12 W4 2.095282 1_555
O12 Sn9 2.185904 1_655
O13 W9 2.017116 1_555
O13 W5 2.025689 1_455
O13 Sn6 2.466296 1_555
O14 W8 2.042523 1_554
O14 W14 2.069570 1_555
O14 Sn7 2.199389 1_555
O15 W12 2.042523 1_555
O15 W13 2.069570 1_555
O15 Sn1 2.199389 1_555
O16 W2 2.042523 1_555
O16 W6 2.069570 1_555
O16 Sn4 2.199389 1_555
O17 W5 2.042521 1_556
O17 W8 2.069577 1_545
O17 Sn0 2.199383 1_555
O18 W11 1.853678 1_555
O18 W15 2.087911 1_555
O19 W4 2.095282 1_555
O19 W10 2.095282 1_555
O19 Sn6 2.185908 1_555
O20 W0 2.042521 1_555
O20 W2 2.069577 1_545
O20 Sn1 2.199383 1_555
O21 W13 2.042527 1_555
O21 W0 2.069572 1_455
O21 Sn4 2.199387 1_555
O22 W12 2.017116 1_555
O22 W0 2.025689 1_455
O22 Sn6 2.466296 1_555
O23 W1 1.853678 1_555
O23 W13 2.087911 1_555
O24 W3 2.042521 1_555
O24 W12 2.069577 1_565
O24 Sn4 2.199383 1_555
O25 W0 2.017120 1_565
O25 W6 2.025683 1_555
O25 Sn3 2.466296 1_555
O26 W4 1.853674 1_555
O26 W12 2.087912 1_555
O27 W9 2.042523 1_556
O27 W15 2.069570 1_555
O27 Sn0 2.199389 1_555
O28 W11 2.095282 1_555
O28 W1 2.095282 1_555
O28 Sn5 2.185904 1_455
O29 W7 2.017120 1_545
O29 W15 2.025683 1_555
O29 Sn2 2.466296 1_555
O30 W15 2.017122 1_655
O30 W8 2.025688 1_545
O30 Sn5 2.466296 1_555
O31 W14 2.017122 1_455
O31 W9 2.025688 1_565
O31 Sn9 2.466296 1_555
O32 W2 2.017116 1_555
O32 W3 2.025689 1_655
O32 Sn8 2.466296 1_555
O33 W14 2.042527 1_556
O33 W7 2.069572 1_655
O33 Sn0 2.199387 1_555
O34 W4 1.853671 1_555
O34 W0 2.087906 1_555
O35 W13 2.017122 1_655
O35 W2 2.025688 1_545
O35 Sn5 2.466296 1_555
O36 W7 2.042521 1_554
O36 W9 2.069577 1_565
O36 Sn7 2.199383 1_555
O37 W10 1.853674 1_555
O37 W9 2.087912 1_555
O38 W11 1.853671 1_555
O38 W7 2.087906 1_555
O39 W10 1.853671 1_555
O39 W5 2.087906 1_555
O40 W1 1.853674 1_555
O40 W2 2.087912 1_555
O41 W10 1.853678 1_555
O41 W14 2.087911 1_555
O42 Sn8 2.130915 1_445
O42 Sn2 2.130915 1_555
O42 Sn5 2.130915 1_455
O43 W11 2.095282 1_555
O43 W1 2.095282 1_555
O43 Sn8 2.185908 1_555
