# generated using pymatgen
data_SbC2N(OF3)2
_symmetry_space_group_name_H-M   'P 1'
_cell_length_a   5.59679800
_cell_length_b   9.02008200
_cell_length_c   15.59140902
_cell_angle_alpha   78.95901619
_cell_angle_beta   90.00000000
_cell_angle_gamma   90.00000000
_symmetry_Int_Tables_number   1
_chemical_formula_structural   SbC2N(OF3)2
_chemical_formula_sum   'Sb4 C8 N4 O8 F24'
_cell_volume   772.54103973
_cell_formula_units_Z   4
loop_
 _symmetry_equiv_pos_site_id
 _symmetry_equiv_pos_as_xyz
  1  'x, y, z'
loop_
 _atom_site_type_symbol
 _atom_site_label
 _atom_site_symmetry_multiplicity
 _atom_site_fract_x
 _atom_site_fract_y
 _atom_site_fract_z
 _atom_site_occupancy
  Sb  Sb0  1  0.74113100  0.29479600  0.40159500  1
  Sb  Sb1  1  0.24113100  0.70520400  0.09840500  1
  Sb  Sb2  1  0.25886900  0.70520400  0.59840500  1
  Sb  Sb3  1  0.75886900  0.29479600  0.90159500  1
  C  C0  1  0.85053700  0.64368500  0.85766600  1
  C  C1  1  0.64946300  0.64368500  0.35766600  1
  C  C2  1  0.40654600  0.14880500  0.16855900  1
  C  C3  1  0.35053700  0.35631500  0.64233400  1
  C  C4  1  0.09345400  0.14880500  0.66855900  1
  C  C5  1  0.14946300  0.35631500  0.14233400  1
  C  C6  1  0.59345400  0.85119500  0.83144100  1
  C  C7  1  0.90654600  0.85119500  0.33144100  1
  N  N0  1  0.70796600  0.78963600  0.33940200  1
  N  N1  1  0.20796600  0.21036400  0.16059800  1
  N  N2  1  0.79203400  0.78963600  0.83940200  1
  N  N3  1  0.29203400  0.21036400  0.66059800  1
  O  O0  1  0.42210900  0.92489700  0.82039800  1
  O  O1  1  0.07789100  0.92489700  0.32039800  1
  O  O2  1  0.70759000  0.53623700  0.87496400  1
  O  O3  1  0.92210900  0.07510300  0.67960200  1
  O  O4  1  0.57789100  0.07510300  0.17960200  1
  O  O5  1  0.79241000  0.53623700  0.37496400  1
  O  O6  1  0.29241000  0.46376300  0.12503600  1
  O  O7  1  0.20759000  0.46376300  0.62503600  1
  F  F0  1  0.05369300  0.67634400  0.20267600  1
  F  F1  1  0.93335200  0.29755000  0.50205000  1
  F  F2  1  0.47793400  0.29561900  0.83283300  1
  F  F3  1  0.46624500  0.32592700  0.46801300  1
  F  F4  1  0.02206600  0.29561900  0.33283300  1
  F  F5  1  0.08278500  0.61963900  0.85583300  1
  F  F6  1  0.52206600  0.70438100  0.16716700  1
  F  F7  1  0.97793400  0.70438100  0.66716700  1
  F  F8  1  0.43335200  0.70245000  0.99795000  1
  F  F9  1  0.58278500  0.38036100  0.64416700  1
  F  F10  1  0.29073100  0.91846800  0.57751400  1
  F  F11  1  0.55369300  0.32365600  0.29732400  1
  F  F12  1  0.94630700  0.32365600  0.79732400  1
  F  F13  1  0.79073100  0.08153200  0.92248600  1
  F  F14  1  0.70926900  0.08153200  0.42248600  1
  F  F15  1  0.91721500  0.38036100  0.14416700  1
  F  F16  1  0.41721500  0.61963900  0.35583300  1
  F  F17  1  0.20926900  0.91846800  0.07751400  1
  F  F18  1  0.44630700  0.67634400  0.70267600  1
  F  F19  1  0.03375500  0.32592700  0.96801300  1
  F  F20  1  0.06664800  0.70245000  0.49795000  1
  F  F21  1  0.96624500  0.67407300  0.03198700  1
  F  F22  1  0.53375500  0.67407300  0.53198700  1
  F  F23  1  0.56664800  0.29755000  0.00205000  1
loop_
_geom_bond_atom_site_label_1
_geom_bond_atom_site_label_2
_geom_bond_distance
_geom_bond_site_symmetry_2
C0 O2 1.245801 1_555
C0 F5 1.319027 1_655
C0 N2 1.333362 1_555
C1 O5 1.245801 1_555
C1 F16 1.319027 1_555
C1 N0 1.333362 1_555
C2 O4 1.160779 1_555
C2 N1 1.237969 1_555
C3 O7 1.245801 1_555
C3 F9 1.319027 1_555
C3 N3 1.333362 1_555
C4 O3 1.160779 1_455
C4 N3 1.237969 1_555
C5 O6 1.245801 1_555
C5 F15 1.319027 1_455
C5 N1 1.333362 1_555
C6 O0 1.160779 1_555
C6 N2 1.237969 1_555
C7 O1 1.160779 1_655
C7 N0 1.237969 1_555
O2 Sb3 2.156689 1_555
O5 Sb0 2.156689 1_555
O6 Sb1 2.156689 1_555
O7 Sb2 2.156689 1_555
F0 Sb1 1.910283 1_555
F1 Sb0 1.904207 1_555
F2 Sb3 1.902272 1_555
F3 Sb0 1.905129 1_555
F4 Sb0 1.902272 1_455
F6 Sb1 1.902272 1_555
F7 Sb2 1.902272 1_655
F8 Sb1 1.904207 1_556
F10 Sb2 1.896936 1_555
F11 Sb0 1.910283 1_555
F12 Sb3 1.910283 1_555
F13 Sb3 1.896936 1_555
F14 Sb0 1.896936 1_555
F17 Sb1 1.896936 1_555
F18 Sb2 1.910283 1_555
F19 Sb3 1.905129 1_455
F20 Sb2 1.904207 1_555
F21 Sb1 1.905129 1_655
F22 Sb2 1.905129 1_555
F23 Sb3 1.904207 1_554
