# generated using pymatgen
data_Np2S3
_symmetry_space_group_name_H-M   'P 1'
_cell_length_a   3.99202268
_cell_length_b   10.61031491
_cell_length_c   10.87574867
_cell_angle_alpha   90.00000000
_cell_angle_beta   90.00000000
_cell_angle_gamma   90.00000000
_symmetry_Int_Tables_number   1
_chemical_formula_structural   Np2S3
_chemical_formula_sum   'Np8 S12'
_cell_volume   460.65992930
_cell_formula_units_Z   4
loop_
 _symmetry_equiv_pos_site_id
 _symmetry_equiv_pos_as_xyz
  1  'x, y, z'
loop_
 _atom_site_type_symbol
 _atom_site_label
 _atom_site_symmetry_multiplicity
 _atom_site_fract_x
 _atom_site_fract_y
 _atom_site_fract_z
 _atom_site_occupancy
  Np  Np0  1  0.25000000  0.31323118  0.99325386  1
  Np  Np1  1  0.75000000  0.68676882  0.00674614  1
  Np  Np2  1  0.75000000  0.81323118  0.50674614  1
  Np  Np3  1  0.25000000  0.18676882  0.49325386  1
  Np  Np4  1  0.25000000  0.50500503  0.30901468  1
  Np  Np5  1  0.75000000  0.49499497  0.69098532  1
  Np  Np6  1  0.75000000  0.00500503  0.19098532  1
  Np  Np7  1  0.25000000  0.99499497  0.80901468  1
  S  S0  1  0.25000000  0.87279313  0.04814229  1
  S  S1  1  0.75000000  0.12720687  0.95185771  1
  S  S2  1  0.75000000  0.37279313  0.45185771  1
  S  S3  1  0.25000000  0.62720687  0.54814229  1
  S  S4  1  0.25000000  0.55418620  0.87876096  1
  S  S5  1  0.75000000  0.44581380  0.12123904  1
  S  S6  1  0.75000000  0.05418620  0.62123904  1
  S  S7  1  0.25000000  0.94581380  0.37876096  1
  S  S8  1  0.25000000  0.19960732  0.22887139  1
  S  S9  1  0.75000000  0.80039268  0.77112861  1
  S  S10  1  0.75000000  0.69960732  0.27112861  1
  S  S11  1  0.25000000  0.30039268  0.72887139  1
loop_
_geom_bond_atom_site_label_1
_geom_bond_atom_site_label_2
_geom_bond_distance
_geom_bond_site_symmetry_2
Np0 S5 2.810778 1_556
Np0 S5 2.810778 1_456
Np0 S8 2.831948 1_556
Np0 S1 2.842982 1_455
Np0 S1 2.842982 1_555
Np0 S4 2.843723 1_555
Np0 S11 2.878582 1_555
Np1 S4 2.810778 1_654
Np1 S4 2.810778 1_554
Np1 S9 2.831948 1_554
Np1 S0 2.842982 1_655
Np1 S0 2.842982 1_555
Np1 S5 2.843723 1_555
Np1 S10 2.878582 1_555
Np2 S7 2.810778 1_555
Np2 S7 2.810778 1_655
Np2 S10 2.831948 1_555
Np2 S3 2.842982 1_555
Np2 S3 2.842982 1_655
Np2 S6 2.843723 1_565
Np2 S9 2.878582 1_555
Np3 S6 2.810778 1_555
Np3 S6 2.810778 1_455
Np3 S11 2.831948 1_555
Np3 S2 2.842982 1_555
Np3 S2 2.842982 1_455
Np3 S7 2.843723 1_545
Np3 S8 2.878582 1_555
Np4 S2 2.892296 1_455
Np4 S2 2.892296 1_555
Np4 S10 2.901241 1_455
Np4 S10 2.901241 1_555
Np4 S3 2.905989 1_555
Np4 S5 2.923880 1_455
Np4 S5 2.923880 1_555
Np4 S8 3.355546 1_555
Np5 S3 2.892296 1_555
Np5 S3 2.892296 1_655
Np5 S11 2.901241 1_555
Np5 S11 2.901241 1_655
Np5 S2 2.905989 1_555
Np5 S4 2.923880 1_555
Np5 S4 2.923880 1_655
Np5 S9 3.355546 1_555
Np6 S0 2.892296 1_545
Np6 S0 2.892296 1_645
Np6 S8 2.901241 1_555
Np6 S8 2.901241 1_655
Np6 S1 2.905989 1_554
Np6 S7 2.923880 1_545
Np6 S7 2.923880 1_645
Np6 S10 3.355546 1_545
Np7 S1 2.892296 1_465
Np7 S1 2.892296 1_565
Np7 S9 2.901241 1_455
Np7 S9 2.901241 1_555
Np7 S0 2.905989 1_556
Np7 S6 2.923880 1_565
Np7 S6 2.923880 1_465
Np7 S11 3.355546 1_565
