# generated using pymatgen
data_Cs7Au5O2
_symmetry_space_group_name_H-M   'P 1'
_cell_length_a   10.34381554
_cell_length_b   10.34381554
_cell_length_c   10.34381554
_cell_angle_alpha   146.06770795
_cell_angle_beta   124.14167873
_cell_angle_gamma   66.98706005
_symmetry_Int_Tables_number   1
_chemical_formula_structural   Cs7Au5O2
_chemical_formula_sum   'Cs7 Au5 O2'
_cell_volume   504.58505403
_cell_formula_units_Z   1
loop_
 _symmetry_equiv_pos_site_id
 _symmetry_equiv_pos_as_xyz
  1  'x, y, z'
loop_
 _atom_site_type_symbol
 _atom_site_label
 _atom_site_symmetry_multiplicity
 _atom_site_fract_x
 _atom_site_fract_y
 _atom_site_fract_z
 _atom_site_occupancy
  Cs  Cs0  1  0.61229591  0.83109340  0.78120351  1
  Cs  Cs1  1  0.79097417  0.50000000  0.29097417  1
  Cs  Cs2  1  0.04988990  0.83109340  0.21879649  1
  Cs  Cs3  1  0.38770409  0.16890660  0.21879649  1
  Cs  Cs4  1  0.95011010  0.16890660  0.78120351  1
  Cs  Cs5  1  0.20902583  0.50000000  0.70902583  1
  Cs  Cs6  1  0.50000000  0.00000000  0.50000000  1
  Au  Au0  1  0.64715145  0.64715145  -0.00000000  1
  Au  Au1  1  0.81171829  0.31171829  0.50000000  1
  Au  Au2  1  -0.00000000  0.00000000  -0.00000000  1
  Au  Au3  1  0.35284855  0.35284855  -0.00000000  1
  Au  Au4  1  0.18828171  0.68828171  0.50000000  1
  O  O0  1  0.79198156  0.00000000  0.79198156  1
  O  O1  1  0.20801844  -0.00000000  0.20801844  1
loop_
_geom_bond_atom_site_label_1
_geom_bond_atom_site_label_2
_geom_bond_distance
_geom_bond_site_symmetry_2
Cs0 O0 2.915926 1_565
Cs1 O0 3.018410 1_554
Cs1 O0 3.018410 1_565
Cs2 O1 2.915917 1_565
Cs3 O1 2.915926 1_555
Cs4 O0 2.915917 1_555
Cs5 O1 3.018410 1_555
Cs5 O1 3.018410 1_566
Cs6 O1 2.829203 1_555
Cs6 O0 2.829203 1_555
Au0 Cs5 3.793987 1_554
Au0 Cs1 3.793987 1_555
Au0 Cs0 3.816461 1_554
Au0 Cs2 3.816466 1_655
Au0 Cs6 3.944082 1_565
Au0 Cs6 3.944082 1_554
Au0 Cs3 4.083613 1_565
Au0 Cs3 4.083617 1_554
Au0 Cs4 4.083617 1_554
Au0 Cs4 4.083617 1_565
Au1 Cs3 3.673530 1_555
Au1 Cs4 3.673540 1_555
Au1 Cs0 3.703661 1_544
Au1 Cs2 3.703661 1_656
Au1 Cs2 3.703661 1_645
Au1 Cs0 3.703666 1_555
Au1 Cs1 3.828021 1_555
Au1 Cs5 3.828021 1_655
Au2 O1 2.015629 1_555
Au2 O0 2.015629 1_454
Au3 Cs5 3.793987 1_554
Au3 Cs1 3.793987 1_555
Au3 Cs3 3.816461 1_555
Au3 Cs4 3.816466 1_454
Au3 Cs6 3.944082 1_565
Au3 Cs6 3.944082 1_554
Au3 Cs0 4.083613 1_544
Au3 Cs0 4.083617 1_555
Au3 Cs2 4.083617 1_555
Au3 Cs2 4.083617 1_544
Au4 Cs0 3.673530 1_555
Au4 Cs2 3.673540 1_555
Au4 Cs3 3.703661 1_566
Au4 Cs4 3.703661 1_454
Au4 Cs4 3.703661 1_465
Au4 Cs3 3.703666 1_555
Au4 Cs5 3.828021 1_555
Au4 Cs1 3.828021 1_455
