# generated using pymatgen
data_Sr2CoMoO6
_symmetry_space_group_name_H-M   'P 1'
_cell_length_a   5.68906701
_cell_length_b   5.68906701
_cell_length_c   5.68906701
_cell_angle_alpha   122.41303088
_cell_angle_beta   122.41303088
_cell_angle_gamma   85.86897042
_symmetry_Int_Tables_number   1
_chemical_formula_structural   Sr2CoMoO6
_chemical_formula_sum   'Sr2 Co1 Mo1 O6'
_cell_volume   125.09603175
_cell_formula_units_Z   1
loop_
 _symmetry_equiv_pos_site_id
 _symmetry_equiv_pos_as_xyz
  1  'x, y, z'
loop_
 _atom_site_type_symbol
 _atom_site_label
 _atom_site_symmetry_multiplicity
 _atom_site_fract_x
 _atom_site_fract_y
 _atom_site_fract_z
 _atom_site_occupancy
  Sr  Sr0  1  0.25000000  0.75000000  0.50000000  1
  Sr  Sr1  1  0.75000000  0.25000000  0.50000000  1
  Co  Co0  1  0.00000000  0.00000000  0.00000000  1
  Mo  Mo0  1  0.50000000  0.50000000  0.00000000  1
  O  O0  1  0.26566900  0.26566900  0.00000000  1
  O  O1  1  0.25019600  0.25019600  0.50039200  1
  O  O2  1  0.74980400  0.74980400  0.49960800  1
  O  O3  1  0.73433100  0.73433100  0.00000000  1
  O  O4  1  0.25019600  0.74980400  0.00000000  1
  O  O5  1  0.74980400  0.25019600  0.00000000  1
loop_
_geom_bond_atom_site_label_1
_geom_bond_atom_site_label_2
_geom_bond_distance
_geom_bond_site_symmetry_2
Co0 O5 1.939106 1_455
Co0 O1 1.939106 1_555
Co0 O4 1.939106 1_545
Co0 O2 1.939106 1_444
Co0 O0 2.213105 1_555
Co0 O3 2.213105 1_445
Mo0 O2 1.936068 1_555
Mo0 O4 1.936068 1_555
Mo0 O1 1.936068 1_554
Mo0 O5 1.936068 1_555
Mo0 O3 1.952049 1_555
Mo0 O0 1.952049 1_555
O0 Sr1 2.743269 1_454
O0 Sr0 2.743269 1_544
O0 Sr0 2.743269 1_555
O0 Sr1 2.743269 1_555
O1 Sr0 2.844534 1_555
O1 Sr1 2.844534 1_455
O1 Sr0 2.844534 1_545
O1 Sr1 2.844534 1_555
O2 Sr1 2.844534 1_565
O2 Sr0 2.844534 1_655
O2 Sr0 2.844534 1_555
O2 Sr1 2.844534 1_555
O3 Sr0 2.743269 1_655
O3 Sr1 2.743269 1_565
O3 Sr0 2.743269 1_554
O3 Sr1 2.743269 1_554
O4 Sr0 2.844534 1_555
O4 Sr0 2.844534 1_554
O4 Sr1 2.844534 1_565
O4 Sr1 2.844534 1_454
O5 Sr1 2.844534 1_554
O5 Sr0 2.844534 1_544
O5 Sr0 2.844534 1_655
O5 Sr1 2.844534 1_555
