# generated using pymatgen
data_CsCr3O8
_symmetry_space_group_name_H-M   'P 1'
_cell_length_a   5.49029963
_cell_length_b   8.31945763
_cell_length_c   16.09218002
_cell_angle_alpha   90.00272652
_cell_angle_beta   89.99941666
_cell_angle_gamma   89.99998187
_symmetry_Int_Tables_number   1
_chemical_formula_structural   CsCr3O8
_chemical_formula_sum   'Cs4 Cr12 O32'
_cell_volume   735.03148557
_cell_formula_units_Z   4
loop_
 _symmetry_equiv_pos_site_id
 _symmetry_equiv_pos_as_xyz
  1  'x, y, z'
loop_
 _atom_site_type_symbol
 _atom_site_label
 _atom_site_symmetry_multiplicity
 _atom_site_fract_x
 _atom_site_fract_y
 _atom_site_fract_z
 _atom_site_occupancy
  Cs  Cs0  1  0.75000561  0.51267693  0.28136978  1
  Cs  Cs1  1  0.24999701  0.48732330  0.71863697  1
  Cs  Cs2  1  0.24999647  0.01265126  0.21863376  1
  Cs  Cs3  1  0.75000068  0.98735777  0.78136221  1
  Cr  Cr0  1  0.24998974  0.23918181  0.45518555  1
  Cr  Cr1  1  0.74999863  0.04466053  0.39115476  1
  Cr  Cr2  1  0.75000157  0.73917851  0.04481290  1
  Cr  Cr3  1  0.25000103  0.86506353  0.91875574  1
  Cr  Cr4  1  0.75000820  0.76080932  0.54483291  1
  Cr  Cr5  1  0.24999697  0.26079165  0.95517201  1
  Cr  Cr6  1  0.25001463  0.63491704  0.41876352  1
  Cr  Cr7  1  0.25000092  0.95533167  0.60884985  1
  Cr  Cr8  1  0.74999722  0.45532133  0.89115057  1
  Cr  Cr9  1  0.24999943  0.54468006  0.10884307  1
  Cr  Cr10  1  0.74999536  0.36508310  0.58124484  1
  Cr  Cr11  1  0.74999988  0.13495702  0.08123454  1
  O  O0  1  0.25000763  0.08844761  0.68084412  1
  O  O1  1  0.50062255  0.17768911  0.02802449  1
  O  O2  1  0.49963879  0.34113835  0.87946989  1
  O  O3  1  0.50035323  0.65885448  0.12052028  1
  O  O4  1  0.74999986  0.91155501  0.31915415  1
  O  O5  1  0.00035194  0.34113504  0.87947091  1
  O  O6  1  0.25000188  0.06058699  0.89343477  1
  O  O7  1  0.50035483  0.84114958  0.62052857  1
  O  O8  1  0.25000517  0.43939501  0.39343147  1
  O  O9  1  0.00063385  0.82232249  0.97197372  1
  O  O10  1  0.49938785  0.67766544  0.47197447  1
  O  O11  1  -0.00035910  0.84115527  0.62053095  1
  O  O12  1  0.49937516  0.82232372  0.97197294  1
  O  O13  1  0.25000838  0.73090689  0.33221293  1
  O  O14  1  0.00064372  0.67767174  0.47197806  1
  O  O15  1  0.49964951  0.15882861  0.37947426  1
  O  O16  1  0.74999938  0.23094066  0.16779226  1
  O  O17  1  0.74999915  0.53778863  0.98427720  1
  O  O18  1  0.24999963  0.03777305  0.51572057  1
  O  O19  1  0.75000249  0.96220776  0.48427742  1
  O  O20  1  0.24999815  0.46221634  0.01572050  1
  O  O21  1  0.74999733  0.93943740  0.10655613  1
  O  O22  1  -0.00035410  0.65885431  0.12052093  1
  O  O23  1  0.00034618  0.15882930  0.37947282  1
  O  O24  1  0.50061410  0.32232905  0.52803271  1
  O  O25  1  0.24999686  0.41156426  0.18083137  1
  O  O26  1  0.74999024  0.26910824  0.66779586  1
  O  O27  1  -0.00062663  0.17768792  0.02802598  1
  O  O28  1  0.74999293  0.56060821  0.60657869  1
  O  O29  1  0.25000444  0.76908040  0.83220594  1
  O  O30  1  -0.00063825  0.32232787  0.52802943  1
  O  O31  1  0.74999950  0.58843441  0.81916324  1
loop_
_geom_bond_atom_site_label_1
_geom_bond_atom_site_label_2
_geom_bond_distance
_geom_bond_site_symmetry_2
Cs0 O16 2.972196 1_555
Cs0 O22 3.171367 1_655
Cs0 O3 3.171428 1_555
Cs0 O25 3.295531 1_655
Cs0 O25 3.295639 1_555
Cs0 O8 3.340585 1_555
Cs0 O8 3.340611 1_655
Cs0 O4 3.373665 1_555
Cs0 O13 3.391346 1_555
Cs0 O13 3.391385 1_655
Cs0 O23 3.612192 1_655
Cs0 O15 3.612227 1_555
Cs0 O10 3.631096 1_555
Cs0 O14 3.631231 1_655
Cs1 O29 2.972248 1_555
Cs1 O2 3.171208 1_555
Cs1 O5 3.171218 1_555
Cs1 O31 3.295461 1_455
Cs1 O31 3.295511 1_555
Cs1 O28 3.340540 1_555
Cs1 O28 3.340606 1_455
Cs1 O0 3.373670 1_555
Cs1 O26 3.391254 1_555
Cs1 O26 3.391328 1_455
Cs1 O7 3.612109 1_555
Cs1 O11 3.612139 1_555
Cs1 O24 3.631107 1_555
Cs1 O30 3.631217 1_555
Cs2 O13 2.972403 1_545
Cs2 O23 3.171170 1_555
Cs2 O15 3.171216 1_555
Cs2 O4 3.295418 1_445
Cs2 O4 3.295476 1_545
Cs2 O21 3.340591 1_545
Cs2 O21 3.340613 1_445
Cs2 O25 3.374060 1_555
Cs2 O16 3.391659 1_455
Cs2 O16 3.391672 1_555
Cs2 O22 3.611816 1_545
Cs2 O3 3.611819 1_545
Cs2 O27 3.631435 1_555
Cs2 O1 3.631442 1_555
Cs3 O26 2.972316 1_565
Cs3 O11 3.171122 1_655
Cs3 O7 3.171207 1_555
Cs3 O0 3.295397 1_565
Cs3 O0 3.295434 1_665
Cs3 O6 3.340561 1_565
Cs3 O6 3.340602 1_665
Cs3 O31 3.374141 1_555
Cs3 O29 3.391598 1_555
Cs3 O29 3.391644 1_655
Cs3 O5 3.611655 1_665
Cs3 O2 3.611680 1_565
Cs3 O12 3.631448 1_555
Cs3 O9 3.631502 1_655
Cr0 O30 1.935436 1_555
Cr0 O24 1.935474 1_555
Cr0 O18 1.938241 1_555
Cr0 O8 1.939627 1_555
Cr0 O23 1.951893 1_555
Cr0 O15 1.951925 1_555
Cr1 O4 1.602685 1_545
Cr1 O19 1.648115 1_545
Cr1 O23 1.681285 1_655
Cr1 O15 1.681288 1_555
Cr2 O9 1.935441 1_654
Cr2 O12 1.935446 1_554
Cr2 O17 1.938031 1_554
Cr2 O21 1.939783 1_555
Cr2 O3 1.951799 1_555
Cr2 O22 1.951807 1_655
Cr3 O29 1.605417 1_555
Cr3 O9 1.653569 1_555
Cr3 O12 1.653606 1_555
Cr3 O6 1.676926 1_565
Cr4 O14 1.935547 1_655
Cr4 O10 1.935558 1_555
Cr4 O19 1.938333 1_555
Cr4 O28 1.939472 1_555
Cr4 O11 1.951685 1_655
Cr4 O7 1.951707 1_555
Cr5 O27 1.935431 1_556
Cr5 O1 1.935437 1_556
Cr5 O20 1.938385 1_556
Cr5 O6 1.939346 1_555
Cr5 O2 1.951785 1_555
Cr5 O5 1.951795 1_555
Cr6 O13 1.605521 1_555
Cr6 O10 1.653548 1_555
Cr6 O14 1.653564 1_555
Cr6 O8 1.676921 1_555
Cr7 O0 1.602671 1_565
Cr7 O18 1.648173 1_565
Cr7 O7 1.681373 1_555
Cr7 O11 1.681375 1_555
Cr8 O31 1.602650 1_555
Cr8 O17 1.648164 1_555
Cr8 O5 1.681384 1_655
Cr8 O2 1.681391 1_555
Cr9 O25 1.602677 1_555
Cr9 O20 1.648093 1_555
Cr9 O22 1.681319 1_555
Cr9 O3 1.681324 1_555
Cr10 O26 1.605465 1_555
Cr10 O30 1.653552 1_655
Cr10 O24 1.653604 1_555
Cr10 O28 1.676952 1_555
Cr11 O16 1.605529 1_555
Cr11 O27 1.653501 1_655
Cr11 O1 1.653547 1_555
Cr11 O21 1.676898 1_545
