# generated using pymatgen
data_Ba3NaOs2O9
_symmetry_space_group_name_H-M   'P 1'
_cell_length_a   5.92501090
_cell_length_b   5.92501024
_cell_length_c   14.33457574
_cell_angle_alpha   90.00000000
_cell_angle_beta   90.00000000
_cell_angle_gamma   120.00000415
_symmetry_Int_Tables_number   1
_chemical_formula_structural   Ba3NaOs2O9
_chemical_formula_sum   'Ba6 Na2 Os4 O18'
_cell_volume   435.80651298
_cell_formula_units_Z   2
loop_
 _symmetry_equiv_pos_site_id
 _symmetry_equiv_pos_as_xyz
  1  'x, y, z'
loop_
 _atom_site_type_symbol
 _atom_site_label
 _atom_site_symmetry_multiplicity
 _atom_site_fract_x
 _atom_site_fract_y
 _atom_site_fract_z
 _atom_site_occupancy
  Ba  Ba0  1  0.66666684  0.33333314  0.08839610  1
  Ba  Ba1  1  0.33333316  0.66666686  0.58839610  1
  Ba  Ba2  1  0.33333316  0.66666686  0.91160390  1
  Ba  Ba3  1  0.66666684  0.33333314  0.41160390  1
  Ba  Ba4  1  0.00000002  0.00000001  0.25000000  1
  Ba  Ba5  1  0.99999998  0.99999999  0.75000000  1
  Na  Na0  1  0.00000000  -0.00000000  -0.00000000  1
  Na  Na1  1  0.00000000  -0.00000000  0.50000000  1
  Os  Os0  1  0.33333331  0.66666668  0.16212925  1
  Os  Os1  1  0.66666669  0.33333332  0.66212925  1
  Os  Os2  1  0.66666669  0.33333332  0.83787075  1
  Os  Os3  1  0.33333331  0.66666668  0.33787075  1
  O  O0  1  0.17963229  0.35926471  0.09093397  1
  O  O1  1  0.82036766  0.17963230  0.59093398  1
  O  O2  1  0.35926462  0.17963219  0.59093396  1
  O  O3  1  0.64073538  0.82036781  0.09093396  1
  O  O4  1  0.17963234  0.82036770  0.09093398  1
  O  O5  1  0.82036771  0.64073529  0.90906603  1
  O  O6  1  0.82036766  0.17963230  0.90906602  1
  O  O7  1  0.82036771  0.64073529  0.59093397  1
  O  O8  1  0.35926462  0.17963219  0.90906604  1
  O  O9  1  0.64073538  0.82036781  0.40906604  1
  O  O10  1  0.17963229  0.35926471  0.40906603  1
  O  O11  1  0.17963234  0.82036770  0.40906602  1
  O  O12  1  0.01597877  0.50798943  0.25000000  1
  O  O13  1  0.50798938  0.01597871  0.75000000  1
  O  O14  1  0.50798937  0.49201044  0.75000000  1
  O  O15  1  0.49201063  0.50798956  0.25000000  1
  O  O16  1  0.49201062  0.98402129  0.25000000  1
  O  O17  1  0.98402123  0.49201057  0.75000000  1
loop_
_geom_bond_atom_site_label_1
_geom_bond_atom_site_label_2
_geom_bond_distance
_geom_bond_site_symmetry_2
Ba0 O16 2.928984 1_545
Ba0 O12 2.928985 1_655
Ba0 O15 2.928987 1_555
Ba0 O3 2.965713 1_545
Ba0 O0 2.965713 1_655
Ba0 O4 2.965715 1_545
Ba0 O4 2.965715 1_655
Ba0 O0 2.965717 1_555
Ba0 O3 2.965717 1_555
Ba0 O6 3.015974 1_554
Ba0 O5 3.015975 1_554
Ba0 O8 3.015975 1_554
Ba1 O13 2.928984 1_565
Ba1 O17 2.928985 1_455
Ba1 O14 2.928987 1_555
Ba1 O2 2.965713 1_565
Ba1 O7 2.965713 1_455
Ba1 O1 2.965715 1_565
Ba1 O1 2.965715 1_455
Ba1 O7 2.965717 1_555
Ba1 O2 2.965717 1_555
Ba1 O11 3.015974 1_555
Ba1 O10 3.015975 1_555
Ba1 O9 3.015975 1_555
Ba2 O13 2.928984 1_565
Ba2 O17 2.928985 1_455
Ba2 O14 2.928987 1_555
Ba2 O8 2.965713 1_565
Ba2 O5 2.965713 1_455
Ba2 O6 2.965715 1_565
Ba2 O6 2.965715 1_455
Ba2 O5 2.965717 1_555
Ba2 O8 2.965717 1_555
Ba2 O4 3.015974 1_556
Ba2 O0 3.015975 1_556
Ba2 O3 3.015975 1_556
Ba3 O16 2.928984 1_545
Ba3 O12 2.928985 1_655
Ba3 O15 2.928987 1_555
Ba3 O9 2.965713 1_545
Ba3 O10 2.965713 1_655
Ba3 O11 2.965715 1_545
Ba3 O11 2.965715 1_655
Ba3 O10 2.965717 1_555
Ba3 O9 2.965717 1_555
Ba3 O1 3.015974 1_555
Ba3 O7 3.015975 1_555
Ba3 O2 3.015975 1_555
Ba4 O11 2.932134 1_545
Ba4 O4 2.932134 1_545
Ba4 O10 2.932134 1_555
Ba4 O0 2.932134 1_555
Ba4 O3 2.932134 1_445
Ba4 O9 2.932134 1_445
Ba4 O15 2.963639 1_445
Ba4 O12 2.963639 1_545
Ba4 O16 2.963640 1_545
Ba4 O12 2.963640 1_555
Ba4 O15 2.963640 1_555
Ba4 O16 2.963640 1_445
Ba5 O6 2.932134 1_565
Ba5 O1 2.932134 1_565
Ba5 O7 2.932134 1_555
Ba5 O5 2.932134 1_555
Ba5 O2 2.932134 1_665
Ba5 O8 2.932134 1_665
Ba5 O14 2.963639 1_665
Ba5 O17 2.963639 1_565
Ba5 O13 2.963640 1_565
Ba5 O17 2.963640 1_555
Ba5 O14 2.963640 1_555
Ba5 O13 2.963640 1_665
Na0 O3 2.257756 1_445
Na0 O8 2.257756 1_554
Na0 O6 2.257757 1_454
Na0 O4 2.257757 1_545
Na0 O0 2.257757 1_555
Na0 O5 2.257757 1_444
Na1 O2 2.257756 1_555
Na1 O9 2.257756 1_445
Na1 O1 2.257757 1_455
Na1 O11 2.257757 1_545
Na1 O10 2.257757 1_555
Na1 O7 2.257757 1_445
O0 Os0 1.878708 1_555
O1 Os1 1.878708 1_555
O2 Os1 1.878709 1_555
O3 Os0 1.878709 1_555
O4 Os0 1.878708 1_555
O5 Os2 1.878708 1_555
O6 Os2 1.878708 1_555
O7 Os1 1.878708 1_555
O8 Os2 1.878709 1_555
O9 Os3 1.878709 1_555
O10 Os3 1.878708 1_555
O11 Os3 1.878708 1_555
O12 Os0 2.058712 1_555
O12 Os3 2.058712 1_555
O13 Os2 2.058712 1_555
O13 Os1 2.058712 1_555
O14 Os1 2.058712 1_555
O14 Os2 2.058712 1_555
O15 Os0 2.058712 1_555
O15 Os3 2.058712 1_555
O16 Os0 2.058712 1_555
O16 Os3 2.058712 1_555
O17 Os1 2.058712 1_555
O17 Os2 2.058712 1_555
