# generated using pymatgen
data_ZnS
_symmetry_space_group_name_H-M   'P 1'
_cell_length_a   3.85320439
_cell_length_b   3.85320439
_cell_length_c   107.07230200
_cell_angle_alpha   90.00000000
_cell_angle_beta   90.00000000
_cell_angle_gamma   120.00000669
_symmetry_Int_Tables_number   1
_chemical_formula_structural   ZnS
_chemical_formula_sum   'Zn34 S34'
_cell_volume   1376.73969697
_cell_formula_units_Z   34
loop_
 _symmetry_equiv_pos_site_id
 _symmetry_equiv_pos_as_xyz
  1  'x, y, z'
loop_
 _atom_site_type_symbol
 _atom_site_label
 _atom_site_symmetry_multiplicity
 _atom_site_fract_x
 _atom_site_fract_y
 _atom_site_fract_z
 _atom_site_occupancy
  Zn  Zn0  1  0.00000000  0.00000000  0.38234700  1
  Zn  Zn1  1  0.33333300  0.66666700  0.32354600  1
  Zn  Zn2  1  0.00000000  0.00000000  0.94160400  1
  Zn  Zn3  1  0.66666700  0.33333300  0.47059200  1
  Zn  Zn4  1  0.66666700  0.33333300  0.20591500  1
  Zn  Zn5  1  0.66666700  0.33333300  0.29411600  1
  Zn  Zn6  1  0.66666700  0.33333300  0.35297500  1
  Zn  Zn7  1  0.66666700  0.33333300  0.64704800  1
  Zn  Zn8  1  0.66666700  0.33333300  0.97094300  1
  Zn  Zn9  1  0.66666700  0.33333300  0.76472200  1
  Zn  Zn10  1  0.33333300  0.66666700  0.41177100  1
  Zn  Zn11  1  0.00000000  0.00000000  0.08822100  1
  Zn  Zn12  1  0.00000000  0.00000000  0.88250700  1
  Zn  Zn13  1  0.00000000  0.00000000  0.73532400  1
  Zn  Zn14  1  0.00000000  0.00000000  0.26471300  1
  Zn  Zn15  1  0.00000000  0.00000000  0.44119700  1
  Zn  Zn16  1  0.66666700  0.33333300  0.05882800  1
  Zn  Zn17  1  0.33333300  0.66666700  0.70588600  1
  Zn  Zn18  1  0.33333300  0.66666700  0.02947200  1
  Zn  Zn19  1  0.00000000  0.00000000  0.52938300  1
  Zn  Zn20  1  0.00000000  0.00000000  0.00020100  1
  Zn  Zn21  1  0.00000000  0.00000000  0.17647400  1
  Zn  Zn22  1  0.33333300  0.66666700  0.61764400  1
  Zn  Zn23  1  0.66666700  0.33333300  0.85299700  1
  Zn  Zn24  1  0.00000000  0.00000000  0.82353300  1
  Zn  Zn25  1  0.00000000  0.00000000  0.67645100  1
  Zn  Zn26  1  0.33333300  0.66666700  0.91207500  1
  Zn  Zn27  1  0.33333300  0.66666700  0.79413100  1
  Zn  Zn28  1  0.66666700  0.33333300  0.14703100  1
  Zn  Zn29  1  0.33333300  0.66666700  0.11763000  1
  Zn  Zn30  1  0.00000000  0.00000000  0.58824700  1
  Zn  Zn31  1  0.66666700  0.33333300  0.55881300  1
  Zn  Zn32  1  0.33333300  0.66666700  0.23530800  1
  Zn  Zn33  1  0.33333300  0.66666700  0.49999100  1
  S  S0  1  0.00000000  0.00000000  0.28676300  1
  S  S1  1  0.66666700  0.33333300  0.31616100  1
  S  S2  1  0.00000000  0.00000000  0.02218500  1
  S  S3  1  0.33333300  0.66666700  0.05149300  1
  S  S4  1  0.66666700  0.33333300  0.08087200  1
  S  S5  1  0.00000000  0.00000000  0.61029000  1
  S  S6  1  0.33333300  0.66666700  0.52203600  1
  S  S7  1  0.00000000  0.00000000  0.84558600  1
  S  S8  1  0.00000000  0.00000000  0.19856000  1
  S  S9  1  0.00000000  0.00000000  0.96362200  1
  S  S10  1  0.33333300  0.66666700  0.13968400  1
  S  S11  1  0.33333300  0.66666700  0.72796900  1
  S  S12  1  0.33333300  0.66666700  0.63969700  1
  S  S13  1  0.33333300  0.66666700  0.81618100  1
  S  S14  1  0.33333300  0.66666700  0.93421000  1
  S  S15  1  0.66666700  0.33333300  0.78677400  1
  S  S16  1  0.33333300  0.66666700  0.25735700  1
  S  S17  1  0.33333300  0.66666700  0.43384300  1
  S  S18  1  0.00000000  0.00000000  0.11027300  1
  S  S19  1  0.00000000  0.00000000  0.75736500  1
  S  S20  1  0.00000000  0.00000000  0.40438400  1
  S  S21  1  0.00000000  0.00000000  0.55142400  1
  S  S22  1  0.66666700  0.33333300  0.49263800  1
  S  S23  1  0.66666700  0.33333300  0.99295300  1
  S  S24  1  0.66666700  0.33333300  0.87510000  1
  S  S25  1  0.66666700  0.33333300  0.58089500  1
  S  S26  1  0.66666700  0.33333300  0.16907800  1
  S  S27  1  0.66666700  0.33333300  0.66909900  1
  S  S28  1  0.00000000  0.00000000  0.69849600  1
  S  S29  1  0.00000000  0.00000000  0.46323400  1
  S  S30  1  0.33333300  0.66666700  0.34562300  1
  S  S31  1  0.66666700  0.33333300  0.37500500  1
  S  S32  1  0.00000000  0.00000000  0.90460000  1
  S  S33  1  0.66666700  0.33333300  0.22795600  1
loop_
_geom_bond_atom_site_label_1
_geom_bond_atom_site_label_2
_geom_bond_distance
_geom_bond_site_symmetry_2
S0 Zn5 2.359851 1_455
S0 Zn5 2.359854 1_445
S0 Zn5 2.359854 1_555
S0 Zn14 2.360944 1_555
S1 Zn5 2.360409 1_555
S1 Zn1 2.360996 1_545
S1 Zn1 2.360996 1_655
S1 Zn1 2.361003 1_555
S2 Zn20 2.353877 1_555
S2 Zn18 2.357503 1_545
S2 Zn18 2.357506 1_555
S2 Zn18 2.357506 1_445
S3 Zn18 2.357839 1_555
S3 Zn16 2.359209 1_455
S3 Zn16 2.359209 1_565
S3 Zn16 2.359215 1_555
S4 Zn11 2.359708 1_655
S4 Zn11 2.359711 1_665
S4 Zn11 2.359711 1_555
S4 Zn16 2.360302 1_555
S5 Zn22 2.359887 1_545
S5 Zn22 2.359890 1_555
S5 Zn22 2.359890 1_445
S5 Zn30 2.360195 1_555
S6 Zn19 2.359637 1_565
S6 Zn19 2.359640 1_555
S6 Zn19 2.359640 1_665
S6 Zn33 2.360409 1_555
S7 Zn24 2.361265 1_555
S7 Zn23 2.361930 1_455
S7 Zn23 2.361933 1_555
S7 Zn23 2.361933 1_445
S8 Zn4 2.359923 1_455
S8 Zn4 2.359925 1_445
S8 Zn4 2.359925 1_555
S8 Zn21 2.364799 1_555
S9 Zn2 2.357518 1_555
S9 Zn8 2.358710 1_455
S9 Zn8 2.358713 1_555
S9 Zn8 2.358713 1_445
S10 Zn28 2.359637 1_455
S10 Zn28 2.359637 1_565
S10 Zn28 2.359643 1_555
S10 Zn29 2.361373 1_555
S11 Zn13 2.359923 1_565
S11 Zn13 2.359925 1_555
S11 Zn13 2.359925 1_665
S11 Zn17 2.364478 1_555
S12 Zn7 2.359779 1_565
S12 Zn7 2.359779 1_455
S12 Zn7 2.359786 1_555
S12 Zn22 2.361265 1_555
S13 Zn24 2.359815 1_565
S13 Zn24 2.359818 1_665
S13 Zn24 2.359818 1_555
S13 Zn27 2.360944 1_555
S14 Zn2 2.361319 1_565
S14 Zn2 2.361322 1_555
S14 Zn2 2.361322 1_665
S14 Zn26 2.370045 1_555
S15 Zn27 2.359994 1_545
S15 Zn27 2.359994 1_655
S15 Zn27 2.360000 1_555
S15 Zn9 2.361158 1_555
S16 Zn14 2.359958 1_565
S16 Zn14 2.359961 1_665
S16 Zn14 2.359961 1_555
S16 Zn32 2.360837 1_555
S17 Zn15 2.359887 1_565
S17 Zn15 2.359890 1_555
S17 Zn15 2.359890 1_665
S17 Zn10 2.363300 1_555
S18 Zn29 2.359994 1_545
S18 Zn29 2.359997 1_555
S18 Zn29 2.359997 1_445
S18 Zn11 2.361158 1_555
S19 Zn13 2.359981 1_555
S19 Zn9 2.359994 1_455
S19 Zn9 2.359997 1_445
S19 Zn9 2.359997 1_555
S20 Zn0 2.359552 1_555
S20 Zn10 2.361068 1_545
S20 Zn10 2.361071 1_555
S20 Zn10 2.361071 1_445
S21 Zn19 2.359981 1_555
S21 Zn31 2.361140 1_455
S21 Zn31 2.361143 1_555
S21 Zn31 2.361143 1_445
S22 Zn33 2.359851 1_545
S22 Zn33 2.359851 1_655
S22 Zn33 2.359857 1_555
S22 Zn3 2.360516 1_555
S23 Zn20 2.356124 1_656
S23 Zn20 2.356127 1_666
S23 Zn20 2.356127 1_556
S23 Zn8 2.356661 1_555
S24 Zn12 2.361786 1_655
S24 Zn12 2.361789 1_665
S24 Zn12 2.361789 1_555
S24 Zn23 2.366619 1_555
S25 Zn30 2.359815 1_655
S25 Zn30 2.359818 1_555
S25 Zn30 2.359818 1_665
S25 Zn31 2.364371 1_555
S26 Zn28 2.360623 1_555
S26 Zn21 2.361391 1_655
S26 Zn21 2.361394 1_555
S26 Zn21 2.361394 1_665
S27 Zn25 2.359815 1_655
S27 Zn25 2.359818 1_665
S27 Zn25 2.359818 1_555
S27 Zn7 2.361051 1_555
S28 Zn25 2.360409 1_555
S28 Zn17 2.361176 1_545
S28 Zn17 2.361179 1_445
S28 Zn17 2.361179 1_555
S29 Zn15 2.359552 1_555
S29 Zn3 2.360030 1_455
S29 Zn3 2.360033 1_445
S29 Zn3 2.360033 1_555
S30 Zn6 2.359815 1_455
S30 Zn6 2.359815 1_565
S30 Zn6 2.359822 1_555
S30 Zn1 2.363835 1_555
S31 Zn6 2.358803 1_555
S31 Zn0 2.359458 1_655
S31 Zn0 2.359461 1_665
S31 Zn0 2.359461 1_555
S32 Zn26 2.364241 1_545
S32 Zn26 2.364244 1_445
S32 Zn26 2.364244 1_555
S32 Zn12 2.365548 1_555
S33 Zn32 2.359815 1_545
S33 Zn32 2.359815 1_655
S33 Zn32 2.359822 1_555
S33 Zn4 2.359981 1_555
