# generated using pymatgen
data_CsMnF4
_symmetry_space_group_name_H-M   'P 1'
_cell_length_a   7.87135118
_cell_length_b   7.87135118
_cell_length_c   6.35135880
_cell_angle_alpha   90.00000000
_cell_angle_beta   90.00000000
_cell_angle_gamma   90.00000000
_symmetry_Int_Tables_number   1
_chemical_formula_structural   CsMnF4
_chemical_formula_sum   'Cs4 Mn4 F16'
_cell_volume   393.51856444
_cell_formula_units_Z   4
loop_
 _symmetry_equiv_pos_site_id
 _symmetry_equiv_pos_as_xyz
  1  'x, y, z'
loop_
 _atom_site_type_symbol
 _atom_site_label
 _atom_site_symmetry_multiplicity
 _atom_site_fract_x
 _atom_site_fract_y
 _atom_site_fract_z
 _atom_site_occupancy
  Cs  Cs0  1  -0.00000000  -0.00000000  0.50000000  1
  Cs  Cs1  1  0.50000000  0.50000000  0.50000000  1
  Cs  Cs2  1  -0.00000000  0.50000000  0.44204115  1
  Cs  Cs3  1  0.50000000  -0.00000000  0.55795885  1
  Mn  Mn0  1  0.75000000  0.25000000  -0.00000000  1
  Mn  Mn1  1  0.75000000  0.75000000  -0.00000000  1
  Mn  Mn2  1  0.25000000  0.25000000  -0.00000000  1
  Mn  Mn3  1  0.25000000  0.75000000  -0.00000000  1
  F  F0  1  0.74707594  0.50000000  0.04550043  1
  F  F1  1  -0.00000000  0.75292406  0.04550043  1
  F  F2  1  -0.00000000  0.24707594  0.04550043  1
  F  F3  1  0.25292406  0.50000000  0.04550043  1
  F  F4  1  0.75292406  -0.00000000  0.95449957  1
  F  F5  1  0.24707594  -0.00000000  0.95449957  1
  F  F6  1  0.50000000  0.74707594  0.95449957  1
  F  F7  1  0.50000000  0.25292406  0.95449957  1
  F  F8  1  0.72167156  0.22167156  0.28463677  1
  F  F9  1  0.72167156  0.77832844  0.28463677  1
  F  F10  1  0.27832844  0.22167156  0.28463677  1
  F  F11  1  0.27832844  0.77832844  0.28463677  1
  F  F12  1  0.77832844  0.72167156  0.71536323  1
  F  F13  1  0.22167156  0.27832844  0.71536323  1
  F  F14  1  0.22167156  0.72167156  0.71536323  1
  F  F15  1  0.77832844  0.27832844  0.71536323  1
loop_
_geom_bond_atom_site_label_1
_geom_bond_atom_site_label_2
_geom_bond_distance
_geom_bond_site_symmetry_2
Cs0 F12 3.116926 1_445
Cs0 F13 3.116926 1_555
Cs0 F14 3.116926 1_545
Cs0 F15 3.116926 1_455
Cs0 F10 3.116926 1_555
Cs0 F8 3.116926 1_455
Cs0 F9 3.116926 1_445
Cs0 F11 3.116926 1_545
Cs0 F5 3.480705 1_555
Cs0 F4 3.480705 1_455
Cs0 F1 3.480705 1_545
Cs0 F2 3.480705 1_555
Cs1 F11 3.116926 1_555
Cs1 F8 3.116926 1_555
Cs1 F9 3.116926 1_555
Cs1 F10 3.116926 1_555
Cs1 F14 3.116926 1_555
Cs1 F15 3.116926 1_555
Cs1 F13 3.116926 1_555
Cs1 F12 3.116926 1_555
Cs1 F6 3.480705 1_555
Cs1 F7 3.480705 1_555
Cs1 F3 3.480705 1_555
Cs1 F0 3.480705 1_555
Cs2 F15 3.017054 1_455
Cs2 F12 3.017054 1_455
Cs2 F14 3.017054 1_555
Cs2 F13 3.017054 1_555
Cs2 F2 3.210406 1_555
Cs2 F0 3.210406 1_455
Cs2 F3 3.210406 1_555
Cs2 F1 3.210406 1_555
Cs2 F11 3.255588 1_555
Cs2 F9 3.255588 1_455
Cs2 F10 3.255588 1_555
Cs2 F8 3.255588 1_455
Cs3 F10 3.017054 1_555
Cs3 F8 3.017054 1_555
Cs3 F9 3.017054 1_545
Cs3 F11 3.017054 1_545
Cs3 F6 3.210406 1_545
Cs3 F7 3.210406 1_555
Cs3 F4 3.210406 1_555
Cs3 F5 3.210406 1_555
Cs3 F15 3.255588 1_555
Cs3 F12 3.255588 1_545
Cs3 F13 3.255588 1_555
Cs3 F14 3.255588 1_545
F0 Mn0 1.989078 1_555
F0 Mn1 1.989078 1_555
F1 Mn3 1.989078 1_555
F1 Mn1 1.989078 1_455
F2 Mn2 1.989078 1_555
F2 Mn0 1.989078 1_455
F3 Mn2 1.989078 1_555
F3 Mn3 1.989078 1_555
F4 Mn0 1.989078 1_556
F4 Mn1 1.989078 1_546
F5 Mn3 1.989078 1_546
F5 Mn2 1.989078 1_556
F6 Mn3 1.989078 1_556
F6 Mn1 1.989078 1_556
F7 Mn0 1.989078 1_556
F7 Mn2 1.989078 1_556
F8 Mn0 1.835128 1_555
F9 Mn1 1.835128 1_555
F10 Mn2 1.835128 1_555
F11 Mn3 1.835128 1_555
F12 Mn1 1.835128 1_556
F13 Mn2 1.835128 1_556
F14 Mn3 1.835128 1_556
F15 Mn0 1.835128 1_556
