# generated using pymatgen
data_Ba3ErMn2O9
_symmetry_space_group_name_H-M   'P 1'
_cell_length_a   5.90789152
_cell_length_b   5.90789152
_cell_length_c   14.42562800
_cell_angle_alpha   90.00000000
_cell_angle_beta   90.00000000
_cell_angle_gamma   119.99999462
_symmetry_Int_Tables_number   1
_chemical_formula_structural   Ba3ErMn2O9
_chemical_formula_sum   'Ba6 Er2 Mn4 O18'
_cell_volume   436.04409376
_cell_formula_units_Z   2
loop_
 _symmetry_equiv_pos_site_id
 _symmetry_equiv_pos_as_xyz
  1  'x, y, z'
loop_
 _atom_site_type_symbol
 _atom_site_label
 _atom_site_symmetry_multiplicity
 _atom_site_fract_x
 _atom_site_fract_y
 _atom_site_fract_z
 _atom_site_occupancy
  Ba  Ba0  1  0.00000000  0.00000000  0.75000000  1
  Ba  Ba1  1  0.00000000  0.00000000  0.25000000  1
  Ba  Ba2  1  0.66666700  0.33333300  0.90844000  1
  Ba  Ba3  1  0.33333300  0.66666700  0.40844000  1
  Ba  Ba4  1  0.33333300  0.66666700  0.09156000  1
  Ba  Ba5  1  0.66666700  0.33333300  0.59156000  1
  Er  Er0  1  0.00000000  0.00000000  0.00000000  1
  Er  Er1  1  0.00000000  0.00000000  0.50000000  1
  Mn  Mn0  1  0.33333300  0.66666700  0.84084200  1
  Mn  Mn1  1  0.66666700  0.33333300  0.34084200  1
  Mn  Mn2  1  0.66666700  0.33333300  0.15915800  1
  Mn  Mn3  1  0.33333300  0.66666700  0.65915800  1
  O  O0  1  0.17895800  0.35791600  0.91274200  1
  O  O1  1  0.82104200  0.64208400  0.41274200  1
  O  O2  1  0.82104200  0.64208400  0.08725800  1
  O  O3  1  0.17895800  0.35791600  0.58725800  1
  O  O4  1  0.17895800  0.82104200  0.91274200  1
  O  O5  1  0.64208400  0.82104200  0.91274200  1
  O  O6  1  0.82104200  0.17895800  0.41274200  1
  O  O7  1  0.35791600  0.17895800  0.41274200  1
  O  O8  1  0.82104200  0.17895800  0.08725800  1
  O  O9  1  0.35791600  0.17895800  0.08725800  1
  O  O10  1  0.17895800  0.82104200  0.58725800  1
  O  O11  1  0.64208400  0.82104200  0.58725800  1
  O  O12  1  0.04552000  0.52276000  0.75000000  1
  O  O13  1  0.47724000  0.52276000  0.75000000  1
  O  O14  1  0.95448000  0.47724000  0.25000000  1
  O  O15  1  0.52276000  0.47724000  0.25000000  1
  O  O16  1  0.47724000  0.95448000  0.75000000  1
  O  O17  1  0.52276000  0.04552000  0.25000000  1
loop_
_geom_bond_atom_site_label_1
_geom_bond_atom_site_label_2
_geom_bond_distance
_geom_bond_site_symmetry_2
Ba0 O12 2.963113 1_545
Ba0 O16 2.963113 1_545
Ba0 O16 2.963113 1_445
Ba0 O12 2.963113 1_555
Ba0 O13 2.963113 1_445
Ba0 O13 2.963113 1_555
Ba0 O10 2.977400 1_545
Ba0 O4 2.977400 1_545
Ba0 O3 2.977400 1_555
Ba0 O5 2.977400 1_445
Ba0 O11 2.977400 1_445
Ba0 O0 2.977400 1_555
Ba1 O17 2.963113 1_455
Ba1 O14 2.963113 1_455
Ba1 O17 2.963113 1_555
Ba1 O14 2.963113 1_445
Ba1 O15 2.963113 1_555
Ba1 O15 2.963113 1_445
Ba1 O8 2.977400 1_455
Ba1 O6 2.977400 1_455
Ba1 O9 2.977400 1_555
Ba1 O2 2.977400 1_445
Ba1 O7 2.977400 1_555
Ba1 O1 2.977400 1_445
Ba2 O0 2.957271 1_655
Ba2 O5 2.957271 1_545
Ba2 O4 2.957274 1_545
Ba2 O4 2.957274 1_655
Ba2 O0 2.957276 1_555
Ba2 O5 2.957276 1_555
Ba2 O12 2.996862 1_655
Ba2 O16 2.996862 1_545
Ba2 O13 2.996865 1_555
Ba2 O8 3.024821 1_556
Ba2 O2 3.024823 1_556
Ba2 O9 3.024823 1_556
Ba3 O1 2.957271 1_455
Ba3 O7 2.957271 1_565
Ba3 O6 2.957274 1_565
Ba3 O6 2.957274 1_455
Ba3 O1 2.957276 1_555
Ba3 O7 2.957276 1_555
Ba3 O17 2.996862 1_565
Ba3 O14 2.996862 1_455
Ba3 O15 2.996865 1_555
Ba3 O10 3.024821 1_555
Ba3 O3 3.024823 1_555
Ba3 O11 3.024823 1_555
Ba4 O9 2.957271 1_565
Ba4 O2 2.957271 1_455
Ba4 O8 2.957274 1_455
Ba4 O8 2.957274 1_565
Ba4 O2 2.957276 1_555
Ba4 O9 2.957276 1_555
Ba4 O14 2.996862 1_455
Ba4 O17 2.996862 1_565
Ba4 O15 2.996865 1_555
Ba4 O4 3.024821 1_554
Ba4 O5 3.024823 1_554
Ba4 O0 3.024823 1_554
Ba5 O3 2.957271 1_655
Ba5 O11 2.957271 1_545
Ba5 O10 2.957274 1_655
Ba5 O10 2.957274 1_545
Ba5 O3 2.957276 1_555
Ba5 O11 2.957276 1_555
Ba5 O16 2.996862 1_545
Ba5 O12 2.996862 1_655
Ba5 O13 2.996865 1_555
Ba5 O6 3.024821 1_555
Ba5 O7 3.024823 1_555
Ba5 O1 3.024823 1_555
Er0 O4 2.222134 1_544
Er0 O8 2.222134 1_455
Er0 O0 2.222134 1_554
Er0 O9 2.222134 1_555
Er0 O5 2.222134 1_444
Er0 O2 2.222134 1_445
Er1 O10 2.222134 1_545
Er1 O6 2.222134 1_455
Er1 O3 2.222134 1_555
Er1 O11 2.222134 1_445
Er1 O7 2.222134 1_555
Er1 O1 2.222134 1_445
Mn0 O4 1.889759 1_555
Mn0 O5 1.889763 1_555
Mn0 O0 1.889763 1_555
Mn0 O12 1.971224 1_555
Mn0 O16 1.971224 1_555
Mn0 O13 1.971228 1_555
Mn1 O6 1.889759 1_555
Mn1 O7 1.889763 1_555
Mn1 O1 1.889763 1_555
Mn1 O17 1.971224 1_555
Mn1 O14 1.971224 1_555
Mn1 O15 1.971228 1_555
Mn2 O8 1.889759 1_555
Mn2 O9 1.889763 1_555
Mn2 O2 1.889763 1_555
Mn2 O17 1.971224 1_555
Mn2 O14 1.971224 1_555
Mn2 O15 1.971228 1_555
Mn3 O10 1.889759 1_555
Mn3 O11 1.889763 1_555
Mn3 O3 1.889763 1_555
Mn3 O12 1.971224 1_555
Mn3 O16 1.971224 1_555
Mn3 O13 1.971228 1_555
