# generated using pymatgen
data_Cd4Te6Cl6O13
_symmetry_space_group_name_H-M   'P 1'
_cell_length_a   8.01540900
_cell_length_b   10.10584686
_cell_length_c   14.35040904
_cell_angle_alpha   103.91065705
_cell_angle_beta   105.01581042
_cell_angle_gamma   89.88081427
_symmetry_Int_Tables_number   1
_chemical_formula_structural   Cd4Te6Cl6O13
_chemical_formula_sum   'Cd8 Te12 Cl12 O26'
_cell_volume   1087.55036052
_cell_formula_units_Z   2
loop_
 _symmetry_equiv_pos_site_id
 _symmetry_equiv_pos_as_xyz
  1  'x, y, z'
loop_
 _atom_site_type_symbol
 _atom_site_label
 _atom_site_symmetry_multiplicity
 _atom_site_fract_x
 _atom_site_fract_y
 _atom_site_fract_z
 _atom_site_occupancy
  Cd  Cd0  1  0.09201000  0.64712800  0.46514700  1
  Cd  Cd1  1  0.10831900  0.15525800  0.96186200  1
  Cd  Cd2  1  0.90799000  0.35287200  0.53485300  1
  Cd  Cd3  1  0.41201700  0.35521200  0.54076900  1
  Cd  Cd4  1  0.58798300  0.64478800  0.45923100  1
  Cd  Cd5  1  0.39444100  0.84442200  0.03912000  1
  Cd  Cd6  1  0.89168100  0.84474200  0.03813800  1
  Cd  Cd7  1  0.60555900  0.15557800  0.96088000  1
  Te  Te0  1  0.29982700  0.00521200  0.39652500  1
  Te  Te1  1  0.24813900  0.56046900  0.24340300  1
  Te  Te2  1  0.55362400  0.27580900  0.31847800  1
  Te  Te3  1  0.98366400  0.67601200  0.70945900  1
  Te  Te4  1  0.70017300  0.99478800  0.60347500  1
  Te  Te5  1  0.86149500  0.99914400  0.39378100  1
  Te  Te6  1  0.01633600  0.32398800  0.29054100  1
  Te  Te7  1  0.27937500  0.43749800  0.75711800  1
  Te  Te8  1  0.75186100  0.43953100  0.75659700  1
  Te  Te9  1  0.44637600  0.72419100  0.68152200  1
  Te  Te10  1  0.13850500  0.00085600  0.60621900  1
  Te  Te11  1  0.72062500  0.56250200  0.24288200  1
  Cl  Cl0  1  0.32100000  0.96334300  0.88873200  1
  Cl  Cl1  1  0.48096400  0.80156700  0.21500900  1
  Cl  Cl2  1  0.67900000  0.03665700  0.11126800  1
  Cl  Cl3  1  0.96976300  0.78256200  0.20908700  1
  Cl  Cl4  1  0.60856300  0.67984600  0.96621800  1
  Cl  Cl5  1  0.11027700  0.68326800  0.96693200  1
  Cl  Cl6  1  0.51903600  0.19843300  0.78499100  1
  Cl  Cl7  1  0.39143700  0.32015400  0.03378200  1
  Cl  Cl8  1  0.17643500  0.03654300  0.11362500  1
  Cl  Cl9  1  0.88972300  0.31673200  0.03306800  1
  Cl  Cl10  1  0.03023700  0.21743800  0.79091300  1
  Cl  Cl11  1  0.82356500  0.96345700  0.88637500  1
  O  O0  1  0.06280400  0.88779000  0.46811200  1
  O  O1  1  0.23807900  0.81522800  0.62589500  1
  O  O2  1  0.39880400  0.59258800  0.55879400  1
  O  O3  1  0.70680100  0.32904600  0.62551700  1
  O  O4  1  0.60119600  0.40741200  0.44120600  1
  O  O5  1  0.59876500  0.82135600  0.60363100  1
  O  O6  1  0.79823000  0.66396800  0.37619100  1
  O  O7  1  0.92623500  0.91479200  0.62973600  1
  O  O8  1  0.20177000  0.33603200  0.62380900  1
  O  O9  1  0.07376500  0.08520800  0.37026400  1
  O  O10  1  0.25138800  0.37744400  0.27518700  1
  O  O11  1  0.50073900  0.47601000  0.72457400  1
  O  O12  1  0.07847300  0.40195000  0.42959900  1
  O  O13  1  0.35484000  0.05710500  0.53867200  1
  O  O14  1  0.64516000  0.94289500  0.46132800  1
  O  O15  1  0.01003400  0.49314600  0.73904300  1
  O  O16  1  0.49926100  0.52399000  0.27542600  1
  O  O17  1  0.29319900  0.67095400  0.37448300  1
  O  O18  1  0.93719600  0.11221000  0.53188800  1
  O  O19  1  0.92152700  0.59805000  0.57040100  1
  O  O20  1  0.25472400  0.62585900  0.72864900  1
  O  O21  1  0.74861200  0.62255600  0.72481300  1
  O  O22  1  0.76192100  0.18477200  0.37410500  1
  O  O23  1  0.40123500  0.17864400  0.39636900  1
  O  O24  1  0.74527600  0.37414100  0.27135100  1
  O  O25  1  0.98996600  0.50685400  0.26095700  1
loop_
_geom_bond_atom_site_label_1
_geom_bond_atom_site_label_2
_geom_bond_distance
_geom_bond_site_symmetry_2
Cd0 O17 2.364464 1_555
Cd0 O6 2.397635 1_455
Cd0 O12 2.403302 1_555
Cd0 O19 2.413967 1_455
Cd0 O0 2.434076 1_555
Cd0 O1 2.510494 1_555
Cd0 O2 2.606716 1_555
Cd1 Cl10 2.597823 1_555
Cd1 Cl9 2.625089 1_456
Cd1 Cl7 2.639518 1_556
Cd1 Cl8 2.667941 1_556
Cd1 Cl0 2.775530 1_545
Cd1 Cl11 2.804929 1_445
Cd2 O3 2.364464 1_555
Cd2 O8 2.397635 1_655
Cd2 O19 2.403302 1_555
Cd2 O12 2.413967 1_655
Cd2 O18 2.434076 1_555
Cd2 O22 2.510494 1_555
Cd2 O4 2.606716 1_555
Cd3 O8 2.334648 1_555
Cd3 O2 2.355326 1_555
Cd3 O23 2.369692 1_555
Cd3 O3 2.407260 1_555
Cd3 O4 2.471300 1_555
Cd3 O11 2.537076 1_555
Cd4 O6 2.334648 1_555
Cd4 O4 2.355326 1_555
Cd4 O5 2.369692 1_555
Cd4 O17 2.407260 1_555
Cd4 O2 2.471300 1_555
Cd4 O16 2.537076 1_555
Cd5 Cl1 2.580078 1_555
Cd5 Cl4 2.624528 1_554
Cd5 Cl5 2.625825 1_554
Cd5 Cl0 2.652205 1_554
Cd5 Cl2 2.806423 1_565
Cd5 Cl8 2.814612 1_565
Cd6 Cl3 2.597823 1_555
Cd6 Cl5 2.625089 1_654
Cd6 Cl4 2.639518 1_554
Cd6 Cl11 2.667941 1_554
Cd6 Cl2 2.775530 1_565
Cd6 Cl8 2.804929 1_665
Cd7 Cl6 2.580078 1_555
Cd7 Cl7 2.624528 1_556
Cd7 Cl9 2.625825 1_556
Cd7 Cl2 2.652205 1_556
Cd7 Cl0 2.806423 1_545
Cd7 Cl11 2.814612 1_545
O0 Te10 1.972962 1_565
O0 Te5 2.164608 1_455
O1 Te9 1.981737 1_555
O1 Te10 2.089861 1_565
O2 Te9 1.882526 1_555
O3 Te8 1.885540 1_555
O4 Te2 1.882526 1_555
O5 Te4 1.934251 1_555
O5 Te9 2.223905 1_555
O6 Te11 1.881740 1_555
O7 Te4 1.966062 1_555
O7 Te10 2.051839 1_665
O8 Te7 1.881740 1_555
O9 Te0 1.966062 1_555
O9 Te5 2.051839 1_445
O10 Te1 2.007262 1_555
O10 Te6 2.041213 1_555
O10 Te2 2.612705 1_555
O11 Te8 1.999424 1_555
O11 Te7 2.009341 1_555
O12 Te6 1.892525 1_555
O13 Te0 1.910769 1_555
O13 Te10 2.325837 1_555
O14 Te4 1.910769 1_555
O14 Te5 2.325837 1_555
O15 Te3 1.992281 1_455
O15 Te7 2.195271 1_555
O15 Te8 2.231524 1_455
O16 Te1 1.999424 1_555
O16 Te11 2.009341 1_555
O17 Te1 1.885540 1_555
O18 Te5 1.972962 1_545
O18 Te10 2.164608 1_655
O19 Te3 1.892525 1_555
O20 Te7 2.039600 1_555
O20 Te9 2.161595 1_555
O20 Te3 2.192181 1_455
O21 Te8 2.007262 1_555
O21 Te3 2.041213 1_555
O21 Te9 2.612705 1_555
O22 Te2 1.981737 1_555
O22 Te5 2.089861 1_545
O23 Te0 1.934251 1_555
O23 Te2 2.223905 1_555
O24 Te11 2.039600 1_555
O24 Te2 2.161595 1_555
O24 Te6 2.192181 1_655
O25 Te6 1.992281 1_655
O25 Te11 2.195271 1_555
O25 Te1 2.231524 1_655
