# generated using pymatgen
data_Gd3Ti2MnSi3
_symmetry_space_group_name_H-M   'P 1'
_cell_length_a   8.48469886
_cell_length_b   8.48469886
_cell_length_c   5.84542800
_cell_angle_alpha   90.00000000
_cell_angle_beta   90.00000000
_cell_angle_gamma   120.00000668
_symmetry_Int_Tables_number   1
_chemical_formula_structural   Gd3Ti2MnSi3
_chemical_formula_sum   'Gd6 Ti4 Mn2 Si6'
_cell_volume   364.43475150
_cell_formula_units_Z   2
loop_
 _symmetry_equiv_pos_site_id
 _symmetry_equiv_pos_as_xyz
  1  'x, y, z'
loop_
 _atom_site_type_symbol
 _atom_site_label
 _atom_site_symmetry_multiplicity
 _atom_site_fract_x
 _atom_site_fract_y
 _atom_site_fract_z
 _atom_site_occupancy
  Gd  Gd0  1  0.71352300  0.71352300  0.25000000  1
  Gd  Gd1  1  0.00000000  0.71352300  0.75000000  1
  Gd  Gd2  1  0.28647700  0.00000000  0.25000000  1
  Gd  Gd3  1  0.28647700  0.28647700  0.75000000  1
  Gd  Gd4  1  0.00000000  0.28647700  0.25000000  1
  Gd  Gd5  1  0.71352300  0.00000000  0.75000000  1
  Ti  Ti0  1  0.33333300  0.66666700  0.50000000  1
  Ti  Ti1  1  0.66666700  0.33333300  0.50000000  1
  Ti  Ti2  1  0.33333300  0.66666700  0.00000000  1
  Ti  Ti3  1  0.66666700  0.33333300  0.00000000  1
  Mn  Mn0  1  0.00000000  0.00000000  0.00000000  1
  Mn  Mn1  1  0.00000000  0.00000000  0.50000000  1
  Si  Si0  1  0.38194600  0.38194600  0.25000000  1
  Si  Si1  1  0.00000000  0.38194600  0.75000000  1
  Si  Si2  1  0.61805400  0.61805400  0.75000000  1
  Si  Si3  1  0.38194600  0.00000000  0.75000000  1
  Si  Si4  1  0.61805400  0.00000000  0.25000000  1
  Si  Si5  1  0.00000000  0.61805400  0.25000000  1
loop_
_geom_bond_atom_site_label_1
_geom_bond_atom_site_label_2
_geom_bond_distance
_geom_bond_site_symmetry_2
Gd0 Si0 2.813331 1_555
Gd0 Mn1 2.836146 1_665
Gd0 Mn0 2.836146 1_665
Gd0 Si5 2.921166 1_655
Gd0 Si4 2.921166 1_565
Gd0 Si2 3.032886 1_555
Gd0 Si2 3.032886 1_554
Gd0 Ti2 3.378897 1_555
Gd0 Ti3 3.378897 1_555
Gd0 Ti0 3.378897 1_555
Gd0 Ti1 3.378897 1_555
Gd1 Si1 2.813331 1_555
Gd1 Mn0 2.836146 1_566
Gd1 Mn1 2.836146 1_565
Gd1 Si3 2.921166 1_565
Gd1 Si2 2.921166 1_455
Gd1 Si5 3.032886 1_556
Gd1 Si5 3.032886 1_555
Gd1 Ti0 3.378889 1_555
Gd1 Ti2 3.378889 1_556
Gd1 Ti3 3.378893 1_456
Gd1 Ti1 3.378893 1_455
Gd2 Si4 2.813331 1_555
Gd2 Mn1 2.836146 1_555
Gd2 Mn0 2.836146 1_555
Gd2 Si5 2.921166 1_545
Gd2 Si0 2.921166 1_555
Gd2 Si3 3.032886 1_555
Gd2 Si3 3.032886 1_554
Gd2 Ti0 3.378889 1_545
Gd2 Ti2 3.378889 1_545
Gd2 Ti1 3.378893 1_555
Gd2 Ti3 3.378893 1_555
Gd3 Si2 2.813331 1_555
Gd3 Mn0 2.836146 1_556
Gd3 Mn1 2.836146 1_555
Gd3 Si1 2.921166 1_555
Gd3 Si3 2.921166 1_555
Gd3 Si0 3.032886 1_556
Gd3 Si0 3.032886 1_555
Gd3 Ti3 3.378897 1_556
Gd3 Ti0 3.378897 1_555
Gd3 Ti1 3.378897 1_555
Gd3 Ti2 3.378897 1_556
Gd4 Si5 2.813331 1_555
Gd4 Mn1 2.836146 1_555
Gd4 Mn0 2.836146 1_555
Gd4 Si4 2.921166 1_455
Gd4 Si0 2.921166 1_555
Gd4 Si1 3.032886 1_554
Gd4 Si1 3.032886 1_555
Gd4 Ti1 3.378889 1_455
Gd4 Ti3 3.378889 1_455
Gd4 Ti0 3.378893 1_555
Gd4 Ti2 3.378893 1_555
Gd5 Si3 2.813331 1_555
Gd5 Mn0 2.836146 1_656
Gd5 Mn1 2.836146 1_655
Gd5 Si1 2.921166 1_655
Gd5 Si2 2.921166 1_545
Gd5 Si4 3.032886 1_555
Gd5 Si4 3.032886 1_556
Gd5 Ti3 3.378889 1_556
Gd5 Ti1 3.378889 1_555
Gd5 Ti0 3.378893 1_545
Gd5 Ti2 3.378893 1_546
Ti0 Ti2 2.922714 1_556
Ti0 Ti2 2.922714 1_555
Ti1 Ti3 2.922714 1_556
Ti1 Ti3 2.922714 1_555
Si0 Ti3 3.022925 1_555
Si0 Ti0 3.022925 1_555
Si0 Ti2 3.022925 1_555
Si0 Ti1 3.022925 1_555
Si1 Ti3 3.022917 1_456
Si1 Ti1 3.022917 1_455
Si1 Ti2 3.022920 1_556
Si1 Ti0 3.022920 1_555
Si2 Ti3 3.022925 1_556
Si2 Ti0 3.022925 1_555
Si2 Ti1 3.022925 1_555
Si2 Ti2 3.022925 1_556
Si3 Ti2 3.022917 1_546
Si3 Ti0 3.022917 1_545
Si3 Ti1 3.022920 1_555
Si3 Ti3 3.022920 1_556
Si4 Ti3 3.022917 1_555
Si4 Ti1 3.022917 1_555
Si4 Ti0 3.022920 1_545
Si4 Ti2 3.022920 1_545
Si5 Ti2 3.022917 1_555
Si5 Ti0 3.022917 1_555
Si5 Ti3 3.022920 1_455
Si5 Ti1 3.022920 1_455
