# generated using pymatgen
data_Na3InBi2
_symmetry_space_group_name_H-M   'P 1'
_cell_length_a   9.66402500
_cell_length_b   13.16199000
_cell_length_c   19.56803456
_cell_angle_alpha   80.91974729
_cell_angle_beta   90.00000000
_cell_angle_gamma   90.00000000
_symmetry_Int_Tables_number   1
_chemical_formula_structural   Na3InBi2
_chemical_formula_sum   'Na36 In12 Bi24'
_cell_volume   2457.81931133
_cell_formula_units_Z   12
loop_
 _symmetry_equiv_pos_site_id
 _symmetry_equiv_pos_as_xyz
  1  'x, y, z'
loop_
 _atom_site_type_symbol
 _atom_site_label
 _atom_site_symmetry_multiplicity
 _atom_site_fract_x
 _atom_site_fract_y
 _atom_site_fract_z
 _atom_site_occupancy
  Na  Na0  1  0.57370100  0.97961600  0.59103100  1
  Na  Na1  1  0.07370100  0.52038400  0.40896900  1
  Na  Na2  1  0.92749300  0.80871500  0.93044500  1
  Na  Na3  1  0.17851700  0.92828600  0.55186300  1
  Na  Na4  1  0.65392100  0.25725100  0.61198100  1
  Na  Na5  1  0.18337000  0.60994100  0.71447600  1
  Na  Na6  1  0.80980700  0.08545100  0.95001200  1
  Na  Na7  1  0.68337000  0.89005900  0.28552400  1
  Na  Na8  1  0.92629900  0.47961600  0.59103100  1
  Na  Na9  1  0.07250700  0.19128500  0.06955500  1
  Na  Na10  1  0.93114300  0.14889100  0.76268800  1
  Na  Na11  1  0.34607900  0.74274900  0.38801900  1
  Na  Na12  1  0.67373100  0.92541600  0.78167700  1
  Na  Na13  1  0.81260000  0.73395500  0.11940400  1
  Na  Na14  1  0.06885700  0.85110900  0.23731200  1
  Na  Na15  1  0.84607900  0.75725100  0.61198100  1
  Na  Na16  1  0.67851700  0.57171400  0.44813700  1
  Na  Na17  1  0.57250700  0.30871500  0.93044500  1
  Na  Na18  1  0.18740000  0.26604500  0.88059600  1
  Na  Na19  1  0.42629900  0.02038400  0.40896900  1
  Na  Na20  1  0.19019300  0.91454900  0.04998800  1
  Na  Na21  1  0.31260000  0.76604500  0.88059600  1
  Na  Na22  1  0.17373100  0.57458400  0.21832300  1
  Na  Na23  1  0.31663000  0.10994100  0.71447600  1
  Na  Na24  1  0.81663000  0.39005900  0.28552400  1
  Na  Na25  1  0.32626900  0.07458400  0.21832300  1
  Na  Na26  1  0.56885700  0.64889100  0.76268800  1
  Na  Na27  1  0.82626900  0.42541600  0.78167700  1
  Na  Na28  1  0.15392100  0.24274900  0.38801900  1
  Na  Na29  1  0.42749300  0.69128500  0.06955500  1
  Na  Na30  1  0.68740000  0.23395500  0.11940400  1
  Na  Na31  1  0.32148300  0.42828600  0.55186300  1
  Na  Na32  1  0.82148300  0.07171400  0.44813700  1
  Na  Na33  1  0.69019300  0.58545100  0.95001200  1
  Na  Na34  1  0.30980700  0.41454900  0.04998800  1
  Na  Na35  1  0.43114300  0.35110900  0.23731200  1
  In  In0  1  0.06693800  0.55047500  0.90604400  1
  In  In1  1  0.57732700  0.61428000  0.25139100  1
  In  In2  1  0.93306200  0.44952500  0.09395600  1
  In  In3  1  0.07732700  0.88572000  0.74860900  1
  In  In4  1  0.43374200  0.71630300  0.58283400  1
  In  In5  1  0.56625800  0.28369700  0.41716600  1
  In  In6  1  0.93374200  0.78369700  0.41716600  1
  In  In7  1  0.42267300  0.38572000  0.74860900  1
  In  In8  1  0.43306200  0.05047500  0.90604400  1
  In  In9  1  0.92267300  0.11428000  0.25139100  1
  In  In10  1  0.06625800  0.21630300  0.58283400  1
  In  In11  1  0.56693800  0.94952500  0.09395600  1
  Bi  Bi0  1  0.37745800  0.84644600  0.70378500  1
  Bi  Bi1  1  0.40282100  0.48508600  0.36707900  1
  Bi  Bi2  1  0.13311300  0.66966400  0.53082200  1
  Bi  Bi3  1  0.36688700  0.16966400  0.53082200  1
  Bi  Bi4  1  0.10171100  0.31104100  0.20748200  1
  Bi  Bi5  1  0.63311300  0.83033600  0.46917800  1
  Bi  Bi6  1  0.10344700  0.64564100  0.04267200  1
  Bi  Bi7  1  0.12254200  0.34644600  0.70378500  1
  Bi  Bi8  1  0.86688700  0.33033600  0.46917800  1
  Bi  Bi9  1  0.89655300  0.35435900  0.95732800  1
  Bi  Bi10  1  0.89828900  0.68895900  0.79251800  1
  Bi  Bi11  1  0.09717900  0.98508600  0.36707900  1
  Bi  Bi12  1  0.39828900  0.81104100  0.20748200  1
  Bi  Bi13  1  0.39655300  0.14564100  0.04267200  1
  Bi  Bi14  1  0.37066600  0.50355700  0.87576300  1
  Bi  Bi15  1  0.90282100  0.01491400  0.63292100  1
  Bi  Bi16  1  0.87745800  0.65355400  0.29621500  1
  Bi  Bi17  1  0.87066600  0.99644300  0.12423700  1
  Bi  Bi18  1  0.62933400  0.49644300  0.12423700  1
  Bi  Bi19  1  0.60344700  0.85435900  0.95732800  1
  Bi  Bi20  1  0.59717900  0.51491400  0.63292100  1
  Bi  Bi21  1  0.60171100  0.18895900  0.79251800  1
  Bi  Bi22  1  0.62254200  0.15355400  0.29621500  1
  Bi  Bi23  1  0.12933400  0.00355700  0.87576300  1
loop_
_geom_bond_atom_site_label_1
_geom_bond_atom_site_label_2
_geom_bond_distance
_geom_bond_site_symmetry_2
Na0 Na32 3.735241 1_565
Na0 Na19 3.795500 1_565
Na0 Na12 3.810582 1_555
Na0 Na4 3.820379 1_565
Na0 Na15 3.909494 1_555
Na0 Na3 3.973990 1_555
Na0 Na23 4.032019 1_565
Na1 Na31 3.735241 1_555
Na1 Na8 3.795500 1_455
Na1 Na22 3.810582 1_555
Na1 Na28 3.820379 1_555
Na1 Na11 3.909494 1_555
Na1 Na16 3.973990 1_455
Na1 Na24 4.032019 1_455
Na2 Na33 3.699450 1_555
Na2 Na20 3.858246 1_656
Na2 Na6 3.891959 1_565
Na2 Na21 3.910340 1_655
Na4 Na8 3.909494 1_555
Na5 Na8 4.032019 1_455
Na6 Na9 3.858246 1_656
Na10 Na6 3.813459 1_555
Na10 Na12 3.825326 1_545
Na10 Na27 3.852137 1_555
Na10 Na18 3.867410 1_655
Na10 Na23 3.896638 1_655
Na11 Na19 3.820379 1_565
Na11 Na16 3.992131 1_555
Na12 Na26 3.852137 1_555
Na12 Na2 3.928938 1_555
Na13 Na2 3.837264 1_554
Na13 Na14 3.867410 1_655
Na13 Na29 3.910340 1_555
Na14 Na20 3.813459 1_555
Na14 Na25 3.825326 1_565
Na14 Na22 3.852137 1_555
Na14 Na7 3.896638 1_455
Na15 Na8 3.820379 1_555
Na15 Na3 3.992131 1_655
Na16 Na8 3.735241 1_555
Na17 Na6 3.699450 1_555
Na17 Na30 3.837264 1_556
Na17 Na34 3.858246 1_556
Na17 Na33 3.891959 1_555
Na17 Na18 3.910340 1_555
Na17 Na27 3.928938 1_555
Na18 Na9 3.837264 1_556
Na19 Na3 3.735241 1_545
Na19 Na25 3.810582 1_555
Na19 Na28 3.909494 1_555
Na19 Na32 3.973990 1_555
Na19 Na7 4.032019 1_545
Na20 Na29 3.699450 1_555
Na20 Na9 3.891959 1_565
Na21 Na29 3.837264 1_556
Na21 Na26 3.867410 1_555
Na22 Na35 3.825326 1_555
Na22 Na29 3.928938 1_555
Na24 Na35 3.896638 1_555
Na25 Na35 3.852137 1_555
Na25 Na9 3.928938 1_555
Na26 Na33 3.813459 1_555
Na26 Na27 3.825326 1_555
Na26 Na5 3.896638 1_555
Na27 Na8 3.810582 1_555
Na28 Na32 3.992131 1_455
Na29 Na33 3.858246 1_554
Na29 Na34 3.891959 1_555
Na30 Na35 3.867410 1_555
Na30 Na9 3.910340 1_655
Na31 Na8 3.973990 1_455
Na31 Na4 3.992131 1_555
Na34 Na9 3.699450 1_555
Na34 Na35 3.813459 1_555
In0 Na21 3.672700 1_555
In0 Na33 3.785912 1_455
In1 Na13 3.610703 1_555
In1 Na24 3.725823 1_555
In2 Na30 3.672700 1_555
In2 Na34 3.785912 1_655
In3 Na21 3.610703 1_555
In3 Na23 3.725823 1_565
In4 Na5 3.648519 1_555
In4 Na3 3.701615 1_555
In4 Na0 3.747248 1_555
In5 Na24 3.648519 1_555
In5 Na32 3.701615 1_555
In5 Na19 3.747248 1_555
In6 Na7 3.648519 1_555
In6 Na16 3.701615 1_555
In6 Na1 3.747248 1_655
In7 Na18 3.610703 1_555
In7 Na5 3.725823 1_555
In8 Na18 3.672700 1_555
In8 Na6 3.785912 1_555
In9 Na30 3.610703 1_555
In9 Na7 3.725823 1_545
In10 Na23 3.648519 1_555
In10 Na31 3.701615 1_555
In10 Na8 3.747248 1_455
In11 Na13 3.672700 1_555
In11 Na20 3.785912 1_555
Bi0 In3 3.097160 1_555
Bi0 In4 3.179823 1_555
Bi0 Na0 3.211912 1_555
Bi0 Na26 3.250386 1_555
Bi0 Na12 3.478710 1_555
Bi0 Na21 3.511069 1_555
Bi0 Na23 3.556146 1_565
Bi0 Na3 3.561387 1_555
Bi0 Na5 3.611975 1_555
Bi1 In1 3.105686 1_555
Bi1 In5 3.108279 1_555
Bi1 Na35 3.323526 1_555
Bi1 Na1 3.335316 1_555
Bi1 Na16 3.389013 1_555
Bi1 Na11 3.522572 1_555
Bi1 Na31 3.660327 1_555
Bi1 Na22 3.698641 1_555
Bi2 In6 3.139691 1_455
Bi2 In4 3.170264 1_555
Bi2 Na8 3.272546 1_455
Bi2 Na1 3.369629 1_555
Bi2 Na11 3.481557 1_555
Bi2 Na15 3.481887 1_455
Bi2 Na3 3.520157 1_555
Bi2 Na5 3.588477 1_555
Bi2 Na31 3.628219 1_555
Bi3 In5 3.139691 1_555
Bi3 In10 3.170264 1_555
Bi3 Na0 3.272546 1_545
Bi3 Na19 3.369629 1_555
Bi3 Na28 3.481557 1_555
Bi3 Na4 3.481887 1_555
Bi3 Na31 3.520157 1_555
Bi3 Na23 3.588477 1_555
Bi3 Na3 3.628219 1_545
Bi4 In2 3.104124 1_455
Bi4 In9 3.120334 1_455
Bi4 Na35 3.294172 1_555
Bi4 Na9 3.345340 1_555
Bi4 Na24 3.391946 1_455
Bi4 Na28 3.541270 1_555
Bi4 Na22 3.576858 1_555
Bi4 Na34 3.751388 1_555
Bi4 Na25 3.772554 1_555
Bi5 In4 3.139691 1_555
Bi5 In6 3.170264 1_555
Bi5 Na19 3.272546 1_565
Bi5 Na0 3.369629 1_555
Bi5 Na15 3.481557 1_555
Bi5 Na11 3.481887 1_555
Bi5 Na16 3.520157 1_555
Bi5 Na7 3.588477 1_555
Bi5 Na32 3.628219 1_565
Bi6 In2 3.092531 1_455
Bi6 In0 3.146149 1_554
Bi6 Na29 3.247190 1_555
Bi6 Na2 3.291397 1_454
Bi6 Na13 3.472297 1_455
Bi6 Na22 3.483586 1_555
Bi6 Na34 3.621005 1_555
Bi6 Na20 3.662007 1_555
Bi6 Na21 3.881882 1_554
Bi7 In7 3.097160 1_555
Bi7 In10 3.179823 1_555
Bi7 Na8 3.211912 1_455
Bi7 Na10 3.250386 1_455
Bi7 Na27 3.478710 1_455
Bi7 Na18 3.511069 1_555
Bi7 Na5 3.556146 1_555
Bi7 Na31 3.561387 1_555
Bi7 Na23 3.611975 1_555
Bi8 In10 3.139691 1_655
Bi8 In5 3.170264 1_555
Bi8 Na1 3.272546 1_655
Bi8 Na8 3.369629 1_555
Bi8 Na4 3.481557 1_555
Bi8 Na28 3.481887 1_655
Bi8 Na32 3.520157 1_555
Bi8 Na24 3.588477 1_555
Bi8 Na16 3.628219 1_555
Bi9 In0 3.092531 1_655
Bi9 In2 3.146149 1_556
Bi9 Na17 3.247190 1_555
Bi9 Na9 3.291397 1_656
Bi9 Na18 3.472297 1_655
Bi9 Na27 3.483586 1_555
Bi9 Na33 3.621005 1_555
Bi9 Na6 3.662007 1_555
Bi9 Na30 3.881882 1_556
Bi10 In0 3.104124 1_655
Bi10 In3 3.120334 1_655
Bi10 Na26 3.294172 1_555
Bi10 Na2 3.345340 1_555
Bi10 Na5 3.391946 1_655
Bi10 Na15 3.541270 1_555
Bi10 Na27 3.576858 1_555
Bi10 Na33 3.751388 1_555
Bi10 Na12 3.772554 1_555
Bi11 In9 3.105686 1_465
Bi11 In6 3.108279 1_455
Bi11 Na14 3.323526 1_555
Bi11 Na19 3.335316 1_565
Bi11 Na32 3.389013 1_465
Bi11 Na28 3.522572 1_565
Bi11 Na3 3.660327 1_555
Bi11 Na25 3.698641 1_565
Bi12 In11 3.104124 1_555
Bi12 In1 3.120334 1_555
Bi12 Na14 3.294172 1_555
Bi12 Na29 3.345340 1_555
Bi12 Na7 3.391946 1_555
Bi12 Na11 3.541270 1_555
Bi12 Na25 3.576858 1_565
Bi12 Na20 3.751388 1_555
Bi12 Na22 3.772554 1_555
Bi13 In11 3.092531 1_545
Bi13 In8 3.146149 1_554
Bi13 Na9 3.247190 1_555
Bi13 Na17 3.291397 1_554
Bi13 Na30 3.472297 1_555
Bi13 Na25 3.483586 1_555
Bi13 Na20 3.621005 1_545
Bi13 Na34 3.662007 1_555
Bi13 Na18 3.881882 1_554
Bi14 In0 3.076289 1_555
Bi14 In7 3.172865 1_555
Bi14 Na17 3.265018 1_555
Bi14 Na26 3.299620 1_555
Bi14 Na34 3.475723 1_556
Bi14 Na21 3.516113 1_555
Bi14 Na18 3.581211 1_555
Bi14 Na33 3.647235 1_555
Bi14 Na5 3.715208 1_555
Bi15 In3 3.105686 1_645
Bi15 In10 3.108279 1_655
Bi15 Na10 3.323526 1_555
Bi15 Na0 3.335316 1_545
Bi15 Na3 3.389013 1_645
Bi15 Na15 3.522572 1_545
Bi15 Na32 3.660327 1_555
Bi15 Na12 3.698641 1_545
Bi16 In1 3.097160 1_555
Bi16 In6 3.179823 1_555
Bi16 Na1 3.211912 1_655
Bi16 Na14 3.250386 1_655
Bi16 Na22 3.478710 1_655
Bi16 Na13 3.511069 1_555
Bi16 Na24 3.556146 1_555
Bi16 Na16 3.561387 1_555
Bi16 Na7 3.611975 1_555
Bi17 In11 3.076289 1_555
Bi17 In9 3.172865 1_565
Bi17 Na9 3.265018 1_665
Bi17 Na14 3.299620 1_655
Bi17 Na6 3.475723 1_564
Bi17 Na13 3.516113 1_555
Bi17 Na30 3.581211 1_565
Bi17 Na20 3.647235 1_655
Bi17 Na7 3.715208 1_555
Bi18 In2 3.076289 1_555
Bi18 In1 3.172865 1_555
Bi18 Na29 3.265018 1_555
Bi18 Na35 3.299620 1_555
Bi18 Na33 3.475723 1_554
Bi18 Na30 3.516113 1_555
Bi18 Na13 3.581211 1_555
Bi18 Na34 3.647235 1_555
Bi18 Na24 3.715208 1_555
Bi19 In8 3.092531 1_565
Bi19 In11 3.146149 1_556
Bi19 Na2 3.247190 1_555
Bi19 Na29 3.291397 1_556
Bi19 Na21 3.472297 1_555
Bi19 Na12 3.483586 1_555
Bi19 Na6 3.621005 1_565
Bi19 Na33 3.662007 1_555
Bi19 Na13 3.881882 1_556
Bi20 In7 3.105686 1_555
Bi20 In4 3.108279 1_555
Bi20 Na26 3.323526 1_555
Bi20 Na8 3.335316 1_555
Bi20 Na31 3.389013 1_555
Bi20 Na4 3.522572 1_555
Bi20 Na16 3.660327 1_555
Bi20 Na27 3.698641 1_555
Bi21 In8 3.104124 1_555
Bi21 In7 3.120334 1_555
Bi21 Na10 3.294172 1_555
Bi21 Na17 3.345340 1_555
Bi21 Na23 3.391946 1_555
Bi21 Na4 3.541270 1_555
Bi21 Na12 3.576858 1_545
Bi21 Na6 3.751388 1_555
Bi21 Na27 3.772554 1_555
Bi22 In9 3.097160 1_555
Bi22 In5 3.179823 1_555
Bi22 Na19 3.211912 1_555
Bi22 Na35 3.250386 1_555
Bi22 Na25 3.478710 1_555
Bi22 Na30 3.511069 1_555
Bi22 Na7 3.556146 1_545
Bi22 Na32 3.561387 1_555
Bi22 Na24 3.611975 1_555
Bi23 In8 3.076289 1_555
Bi23 In3 3.172865 1_545
Bi23 Na2 3.265018 1_445
Bi23 Na10 3.299620 1_455
Bi23 Na20 3.475723 1_546
Bi23 Na18 3.516113 1_555
Bi23 Na21 3.581211 1_545
Bi23 Na6 3.647235 1_455
Bi23 Na23 3.715208 1_555
