# generated using pymatgen
data_Y2GeO5
_symmetry_space_group_name_H-M   'P 1'
_cell_length_a   8.19088199
_cell_length_b   8.19088199
_cell_length_c   10.46832214
_cell_angle_alpha   61.33392550
_cell_angle_beta   61.33392550
_cell_angle_gamma   49.37171776
_symmetry_Int_Tables_number   1
_chemical_formula_structural   Y2GeO5
_chemical_formula_sum   'Y8 Ge4 O20'
_cell_volume   452.68821926
_cell_formula_units_Z   4
loop_
 _symmetry_equiv_pos_site_id
 _symmetry_equiv_pos_as_xyz
  1  'x, y, z'
loop_
 _atom_site_type_symbol
 _atom_site_label
 _atom_site_symmetry_multiplicity
 _atom_site_fract_x
 _atom_site_fract_y
 _atom_site_fract_z
 _atom_site_occupancy
  Y  Y0  1  0.98958190  0.73510479  0.83750738  1
  Y  Y1  1  0.27753667  0.79305382  0.03470555  1
  Y  Y2  1  0.73510479  0.98958190  0.33750738  1
  Y  Y3  1  0.01041810  0.26489521  0.16249262  1
  Y  Y4  1  0.26489521  0.01041810  0.66249262  1
  Y  Y5  1  0.79305382  0.27753667  0.53470555  1
  Y  Y6  1  0.72246333  0.20694618  0.96529445  1
  Y  Y7  1  0.20694618  0.72246333  0.46529445  1
  Ge  Ge0  1  0.22028772  0.40978904  0.30802950  1
  Ge  Ge1  1  0.40978904  0.22028772  0.80802950  1
  Ge  Ge2  1  0.59021096  0.77971228  0.19197050  1
  Ge  Ge3  1  0.77971228  0.59021096  0.69197050  1
  O  O0  1  0.11388473  0.91941555  0.60295282  1
  O  O1  1  0.91401654  0.31985332  0.67605496  1
  O  O2  1  0.68014668  0.08598346  0.82394504  1
  O  O3  1  0.57843962  0.59035539  0.36699426  1
  O  O4  1  0.08598346  0.68014668  0.32394504  1
  O  O5  1  0.08058445  0.88611527  0.89704718  1
  O  O6  1  0.31985332  0.91401654  0.17605496  1
  O  O7  1  0.91941555  0.11388473  0.10295282  1
  O  O8  1  0.22046412  0.37030485  0.94521833  1
  O  O9  1  0.04101836  0.35131549  0.32388024  1
  O  O10  1  0.40964461  0.42156038  0.13300574  1
  O  O11  1  0.62969515  0.77953588  0.55478167  1
  O  O12  1  0.59035539  0.57843962  0.86699426  1
  O  O13  1  0.37030485  0.22046412  0.44521833  1
  O  O14  1  0.95898164  0.64868451  0.67611976  1
  O  O15  1  0.88611527  0.08058445  0.39704718  1
  O  O16  1  0.77953588  0.62969515  0.05478167  1
  O  O17  1  0.64868451  0.95898164  0.17611976  1
  O  O18  1  0.42156038  0.40964461  0.63300574  1
  O  O19  1  0.35131549  0.04101836  0.82388024  1
loop_
_geom_bond_atom_site_label_1
_geom_bond_atom_site_label_2
_geom_bond_distance
_geom_bond_site_symmetry_2
Ge0 O9 1.737504 1_555
Ge0 O13 1.747000 1_555
Ge0 O10 1.752352 1_555
Ge0 O4 1.774098 1_555
Ge1 O19 1.737504 1_555
Ge1 O8 1.747000 1_555
Ge1 O18 1.752352 1_555
Ge1 O2 1.774098 1_555
Ge2 O17 1.737504 1_555
Ge2 O16 1.747000 1_555
Ge2 O3 1.752352 1_555
Ge2 O6 1.774098 1_555
Ge3 O14 1.737504 1_555
Ge3 O11 1.747000 1_555
Ge3 O12 1.752352 1_555
Ge3 O1 1.774098 1_555
O0 Y7 2.198910 1_555
O0 Y4 2.204565 1_565
O0 Y0 2.321973 1_455
O0 Y5 2.402615 1_465
O1 Y4 2.274077 1_655
O1 Y5 2.374266 1_555
O1 Y6 2.670242 1_555
O2 Y0 2.274077 1_545
O2 Y6 2.374266 1_555
O2 Y5 2.670242 1_555
O3 Y7 2.294564 1_555
O3 Y5 2.348833 1_555
O4 Y2 2.274077 1_455
O4 Y7 2.374266 1_555
O4 Y1 2.670242 1_555
O5 Y1 2.198910 1_556
O5 Y0 2.204565 1_455
O5 Y4 2.321973 1_565
O5 Y6 2.402615 1_465
O6 Y3 2.274077 1_565
O6 Y1 2.374266 1_555
O6 Y7 2.670242 1_555
O7 Y6 2.198910 1_554
O7 Y3 2.204565 1_655
O7 Y2 2.321973 1_545
O7 Y1 2.402615 1_645
O8 Y3 2.274829 1_556
O8 Y0 2.287030 1_455
O9 Y3 2.280969 1_555
O9 Y5 2.319365 1_455
O10 Y1 2.294564 1_555
O10 Y6 2.348833 1_554
O11 Y2 2.274829 1_555
O11 Y4 2.287030 1_565
O12 Y6 2.294564 1_555
O12 Y1 2.348833 1_556
O13 Y4 2.274829 1_555
O13 Y2 2.287030 1_545
O14 Y0 2.280969 1_555
O14 Y7 2.319365 1_655
O15 Y5 2.198910 1_555
O15 Y2 2.204565 1_545
O15 Y3 2.321973 1_655
O15 Y7 2.402615 1_645
O16 Y0 2.274829 1_554
O16 Y3 2.287030 1_655
O17 Y2 2.280969 1_555
O17 Y6 2.319365 1_564
O18 Y5 2.294564 1_555
O18 Y7 2.348833 1_555
O19 Y4 2.280969 1_555
O19 Y1 2.319365 1_546
