# generated using pymatgen
data_Ba2Cd3Bi4
_symmetry_space_group_name_H-M   'P 1'
_cell_length_a   7.05262428
_cell_length_b   9.40878572
_cell_length_c   9.49745654
_cell_angle_alpha   89.99999799
_cell_angle_beta   111.79514920
_cell_angle_gamma   89.99999242
_symmetry_Int_Tables_number   1
_chemical_formula_structural   Ba2Cd3Bi4
_chemical_formula_sum   'Ba4 Cd6 Bi8'
_cell_volume   585.16942221
_cell_formula_units_Z   2
loop_
 _symmetry_equiv_pos_site_id
 _symmetry_equiv_pos_as_xyz
  1  'x, y, z'
loop_
 _atom_site_type_symbol
 _atom_site_label
 _atom_site_symmetry_multiplicity
 _atom_site_fract_x
 _atom_site_fract_y
 _atom_site_fract_z
 _atom_site_occupancy
  Ba  Ba0  1  0.88319300  0.57687165  0.76691248  1
  Ba  Ba1  1  0.38319290  0.92312836  0.76691241  1
  Ba  Ba2  1  0.61681154  0.07688275  0.23309619  1
  Ba  Ba3  1  0.11681176  0.42311727  0.23309623  1
  Cd  Cd0  1  0.47041670  0.75009047  0.44064742  1
  Cd  Cd1  1  0.52958723  0.24993671  0.55936677  1
  Cd  Cd2  1  0.02958712  0.25006321  0.55936667  1
  Cd  Cd3  1  0.97041653  0.74990959  0.44064746  1
  Cd  Cd4  1  0.49996995  0.50001439  -0.00004021  1
  Cd  Cd5  1  -0.00003006  -0.00001441  -0.00004018  1
  Bi  Bi0  1  0.81319616  0.94370557  0.62634473  1
  Bi  Bi1  1  0.68682208  0.44368744  0.37366903  1
  Bi  Bi2  1  0.18682212  0.05631255  0.37366904  1
  Bi  Bi3  1  0.69770208  0.24998309  0.89563394  1
  Bi  Bi4  1  0.80230127  0.74998042  0.10437078  1
  Bi  Bi5  1  0.19770210  0.25001689  0.89563386  1
  Bi  Bi6  1  0.30230130  0.75001958  0.10437076  1
  Bi  Bi7  1  0.31319619  0.55629447  0.62634464  1
loop_
_geom_bond_atom_site_label_1
_geom_bond_atom_site_label_2
_geom_bond_distance
_geom_bond_site_symmetry_2
Ba0 Bi0 3.667316 1_555
Ba0 Bi1 3.687298 1_555
Ba0 Bi3 3.721966 1_555
Ba0 Bi5 3.722695 1_655
Ba0 Bi7 3.740951 1_555
Ba0 Bi7 3.744764 1_655
Ba0 Cd0 3.746231 1_555
Ba0 Cd3 3.747853 1_555
Ba0 Bi4 3.822046 1_556
Ba0 Bi6 3.824672 1_656
Ba0 Cd1 3.989555 1_555
Ba0 Cd2 3.989677 1_655
Ba0 Cd4 4.143524 1_556
Ba0 Cd4 4.146567 1_656
Ba0 Ba3 4.358170 1_656
Ba1 Bi7 3.667316 1_555
Ba1 Bi2 3.687297 1_565
Ba1 Bi5 3.721965 1_565
Ba1 Bi3 3.722696 1_565
Ba1 Bi0 3.740950 1_455
Ba1 Bi0 3.744763 1_555
Ba1 Cd3 3.746231 1_455
Ba1 Cd0 3.747853 1_555
Ba1 Bi6 3.822046 1_556
Ba1 Bi4 3.824672 1_556
Ba1 Cd2 3.989554 1_565
Ba1 Cd1 3.989676 1_565
Ba1 Cd5 4.143524 1_566
Ba1 Cd5 4.146568 1_666
Ba1 Ba2 4.358171 1_566
Ba2 Bi1 3.667073 1_555
Ba2 Bi0 3.687318 1_545
Ba2 Bi4 3.722086 1_545
Ba2 Bi6 3.722769 1_545
Ba2 Bi2 3.741037 1_655
Ba2 Bi2 3.744700 1_555
Ba2 Cd2 3.746100 1_655
Ba2 Cd1 3.747968 1_555
Ba2 Bi3 3.822042 1_554
Ba2 Bi5 3.824641 1_554
Ba2 Cd0 3.989593 1_545
Ba2 Cd3 3.989843 1_545
Ba2 Cd5 4.143858 1_655
Ba2 Cd5 4.147142 1_555
Ba3 Bi2 3.667073 1_555
Ba3 Bi7 3.687317 1_555
Ba3 Bi6 3.722086 1_555
Ba3 Bi4 3.722769 1_455
Ba3 Bi1 3.741035 1_555
Ba3 Bi1 3.744702 1_455
Ba3 Cd1 3.746100 1_555
Ba3 Cd2 3.747968 1_555
Ba3 Bi5 3.822042 1_554
Ba3 Bi3 3.824642 1_454
Ba3 Cd3 3.989594 1_455
Ba3 Cd0 3.989844 1_555
Ba3 Cd4 4.143857 1_555
Ba3 Cd4 4.147143 1_455
Cd0 Cd3 3.526311 1_555
Cd0 Cd3 3.526314 1_455
Cd1 Cd2 3.526312 1_655
Cd1 Cd2 3.526313 1_555
Bi0 Cd0 3.017815 1_555
Bi0 Cd3 3.019410 1_555
Bi0 Cd5 3.337025 1_666
Bi0 Cd1 3.429613 1_565
Bi0 Cd2 3.429743 1_665
Bi1 Cd2 3.017808 1_655
Bi1 Cd1 3.019215 1_555
Bi1 Cd4 3.337915 1_555
Bi1 Cd3 3.429490 1_555
Bi1 Cd0 3.430155 1_555
Bi2 Cd1 3.017809 1_555
Bi2 Cd2 3.019215 1_555
Bi2 Cd5 3.337915 1_555
Bi2 Cd0 3.429489 1_545
Bi2 Cd3 3.430156 1_445
Bi3 Cd1 2.965390 1_555
Bi3 Cd4 3.080053 1_556
Bi3 Cd5 3.080658 1_656
Bi3 Bi5 3.526312 1_555
Bi3 Bi5 3.526313 1_655
Bi4 Cd3 2.965474 1_555
Bi4 Cd5 3.080005 1_665
Bi4 Cd4 3.080741 1_555
Bi4 Bi6 3.526312 1_555
Bi4 Bi6 3.526312 1_655
Bi5 Cd2 2.965390 1_555
Bi5 Cd5 3.080054 1_556
Bi5 Cd4 3.080659 1_556
Bi6 Cd0 2.965473 1_555
Bi6 Cd4 3.080005 1_555
Bi6 Cd5 3.080741 1_565
Bi7 Cd3 3.017815 1_455
Bi7 Cd0 3.019410 1_555
Bi7 Cd4 3.337026 1_556
Bi7 Cd2 3.429615 1_555
Bi7 Cd1 3.429744 1_555
