# generated using pymatgen
data_C(SN)2
_symmetry_space_group_name_H-M   'P 1'
_cell_length_a   12.12269800
_cell_length_b   7.11877600
_cell_length_c   9.49483021
_cell_angle_alpha   60.49793451
_cell_angle_beta   90.00000000
_cell_angle_gamma   90.00000000
_symmetry_Int_Tables_number   1
_chemical_formula_structural   C(SN)2
_chemical_formula_sum   'C8 S16 N16'
_cell_volume   713.14810797
_cell_formula_units_Z   8
loop_
 _symmetry_equiv_pos_site_id
 _symmetry_equiv_pos_as_xyz
  1  'x, y, z'
loop_
 _atom_site_type_symbol
 _atom_site_label
 _atom_site_symmetry_multiplicity
 _atom_site_fract_x
 _atom_site_fract_y
 _atom_site_fract_z
 _atom_site_occupancy
  C  C0  1  0.97083900  0.31011200  0.92300900  1
  C  C1  1  0.02916100  0.68988800  0.07699100  1
  C  C2  1  0.47083900  0.68988800  0.57699100  1
  C  C3  1  0.94851500  0.76578300  0.94433700  1
  C  C4  1  0.55148500  0.76578300  0.44433700  1
  C  C5  1  0.05148500  0.23421700  0.05566300  1
  C  C6  1  0.52916100  0.31011200  0.42300900  1
  C  C7  1  0.44851500  0.23421700  0.55566300  1
  S  S0  1  0.77439000  0.38518800  0.82560900  1
  S  S1  1  0.22561000  0.61481200  0.17439100  1
  S  S2  1  0.90012500  0.50336900  0.63892700  1
  S  S3  1  0.40012500  0.49663100  0.86107300  1
  S  S4  1  0.50017600  0.12153900  0.75376700  1
  S  S5  1  0.00017600  0.87846100  0.74623300  1
  S  S6  1  0.27835700  0.16962200  0.71464900  1
  S  S7  1  0.72164300  0.83037800  0.28535100  1
  S  S8  1  0.22164300  0.16962200  0.21464900  1
  S  S9  1  0.72561000  0.38518800  0.32560900  1
  S  S10  1  0.27439000  0.61481200  0.67439100  1
  S  S11  1  0.99982400  0.12153900  0.25376700  1
  S  S12  1  0.49982400  0.87846100  0.24623300  1
  S  S13  1  0.77835700  0.83037800  0.78535100  1
  S  S14  1  0.59987500  0.50336900  0.13892700  1
  S  S15  1  0.09987500  0.49663100  0.36107300  1
  N  N0  1  0.62070100  0.92008500  0.15468500  1
  N  N1  1  0.49741200  0.42109100  0.26834000  1
  N  N2  1  0.36490400  0.72948700  0.52991000  1
  N  N3  1  0.12070100  0.07991500  0.34531500  1
  N  N4  1  0.86490400  0.27051300  0.97009000  1
  N  N5  1  0.13509600  0.72948700  0.02991000  1
  N  N6  1  0.63509600  0.27051300  0.47009000  1
  N  N7  1  0.50258800  0.57890900  0.73166000  1
  N  N8  1  0.99741200  0.57890900  0.23166000  1
  N  N9  1  0.34169100  0.25601200  0.53912300  1
  N  N10  1  0.15830900  0.25601200  0.03912300  1
  N  N11  1  0.84169100  0.74398800  0.96087700  1
  N  N12  1  0.65830900  0.74398800  0.46087700  1
  N  N13  1  0.37929900  0.07991500  0.84531500  1
  N  N14  1  0.87929900  0.92008500  0.65468500  1
  N  N15  1  0.00258800  0.42109100  0.76834000  1
loop_
_geom_bond_atom_site_label_1
_geom_bond_atom_site_label_2
_geom_bond_distance
_geom_bond_site_symmetry_2
C0 N15 1.336504 1_655
C0 N4 1.343280 1_555
C0 C5 1.471012 1_656
C1 N8 1.336504 1_455
C1 N5 1.343280 1_555
C1 C3 1.471012 1_454
C2 N7 1.336504 1_555
C2 N2 1.343280 1_555
C2 C4 1.471012 1_555
C3 N11 1.304511 1_555
C3 S5 1.757169 1_655
C4 N12 1.304511 1_555
C4 S12 1.757169 1_555
C5 N10 1.304511 1_555
C5 S11 1.757169 1_455
C6 N1 1.336504 1_555
C6 N6 1.343280 1_555
C6 C7 1.471012 1_555
C7 N9 1.304511 1_555
C7 S4 1.757169 1_555
N0 S7 1.632212 1_555
N0 S12 1.654375 1_555
N1 S14 1.639189 1_555
N2 S10 1.627681 1_555
N3 S8 1.632212 1_555
N3 S11 1.654375 1_455
N4 S0 1.627681 1_555
N5 S1 1.627681 1_555
N6 S9 1.627681 1_555
N7 S3 1.639189 1_555
N8 S15 1.639189 1_655
N9 S6 1.654010 1_555
N10 S8 1.654010 1_555
N11 S13 1.654010 1_555
N12 S7 1.654010 1_555
N13 S6 1.632212 1_555
N13 S4 1.654375 1_555
N14 S13 1.632212 1_555
N14 S5 1.654375 1_655
N15 S2 1.639189 1_455
