# generated using pymatgen
data_Yb(CuSi)2
_symmetry_space_group_name_H-M   'P 1'
_cell_length_a   3.89639482
_cell_length_b   3.89639482
_cell_length_c   5.68782790
_cell_angle_alpha   110.03050848
_cell_angle_beta   110.03050848
_cell_angle_gamma   90.00000000
_symmetry_Int_Tables_number   1
_chemical_formula_structural   Yb(CuSi)2
_chemical_formula_sum   'Yb1 Cu2 Si2'
_cell_volume   75.54488989
_cell_formula_units_Z   1
loop_
 _symmetry_equiv_pos_site_id
 _symmetry_equiv_pos_as_xyz
  1  'x, y, z'
loop_
 _atom_site_type_symbol
 _atom_site_label
 _atom_site_symmetry_multiplicity
 _atom_site_fract_x
 _atom_site_fract_y
 _atom_site_fract_z
 _atom_site_occupancy
  Yb  Yb0  1  0.00000000  0.00000000  0.00000000  1
  Cu  Cu0  1  0.25000000  0.75000000  0.50000000  1
  Cu  Cu1  1  0.75000000  0.25000000  0.50000000  1
  Si  Si0  1  0.61633624  0.61633624  0.23267247  1
  Si  Si1  1  0.38366376  0.38366376  0.76732753  1
loop_
_geom_bond_atom_site_label_1
_geom_bond_atom_site_label_2
_geom_bond_distance
_geom_bond_site_symmetry_2
Cu0 Si1 2.359015 1_555
Cu0 Si0 2.359015 1_555
Cu0 Si1 2.359015 1_565
Cu0 Si0 2.359015 1_455
Cu0 Cu1 2.755167 1_555
Cu0 Cu1 2.755167 1_465
Cu0 Cu1 2.755167 1_455
Cu0 Cu1 2.755167 1_565
Cu0 Yb0 3.159997 1_666
Cu0 Yb0 3.159997 1_565
Cu0 Yb0 3.159997 1_555
Cu0 Yb0 3.159997 1_566
Cu1 Si1 2.359015 1_555
Cu1 Si0 2.359015 1_555
Cu1 Si1 2.359015 1_655
Cu1 Si0 2.359015 1_545
Cu1 Yb0 3.159997 1_666
Cu1 Yb0 3.159997 1_655
Cu1 Yb0 3.159997 1_656
Cu1 Yb0 3.159997 1_555
Si0 Si1 2.315550 1_554
Si0 Yb0 2.988543 1_555
Si0 Yb0 2.988543 1_655
Si0 Yb0 2.988543 1_565
Si0 Yb0 2.988543 1_665
Si1 Yb0 2.988543 1_666
Si1 Yb0 2.988543 1_566
Si1 Yb0 2.988543 1_656
Si1 Yb0 2.988543 1_556
