# generated using pymatgen
data_Sm3Si2Cl5O6
_symmetry_space_group_name_H-M   'P 1'
_cell_length_a   7.55731731
_cell_length_b   7.55731731
_cell_length_c   11.99443391
_cell_angle_alpha   80.70604583
_cell_angle_beta   80.70604583
_cell_angle_gamma   89.34678883
_symmetry_Int_Tables_number   1
_chemical_formula_structural   Sm3Si2Cl5O6
_chemical_formula_sum   'Sm6 Si4 Cl10 O12'
_cell_volume   667.09555096
_cell_formula_units_Z   2
loop_
 _symmetry_equiv_pos_site_id
 _symmetry_equiv_pos_as_xyz
  1  'x, y, z'
loop_
 _atom_site_type_symbol
 _atom_site_label
 _atom_site_symmetry_multiplicity
 _atom_site_fract_x
 _atom_site_fract_y
 _atom_site_fract_z
 _atom_site_occupancy
  Sm  Sm0  1  0.08167800  0.58525800  0.66852300  1
  Sm  Sm1  1  0.50000000  0.00000000  0.00000000  1
  Sm  Sm2  1  0.58525800  0.08167800  0.66852300  1
  Sm  Sm3  1  0.91832200  0.41474200  0.33147700  1
  Sm  Sm4  1  0.41474200  0.91832200  0.33147700  1
  Sm  Sm5  1  0.00000000  0.50000000  0.00000000  1
  Si  Si0  1  0.10891600  0.81892900  0.14216500  1
  Si  Si1  1  0.81892900  0.10891600  0.14216500  1
  Si  Si2  1  0.18107100  0.89108400  0.85783500  1
  Si  Si3  1  0.89108400  0.18107100  0.85783500  1
  Cl  Cl0  1  0.38293400  0.38293400  0.64121300  1
  Cl  Cl1  1  0.31968400  0.89229100  0.57915800  1
  Cl  Cl2  1  0.10770900  0.68031600  0.42084200  1
  Cl  Cl3  1  0.76991100  0.76991100  0.66762200  1
  Cl  Cl4  1  0.31720700  0.31720700  0.99611000  1
  Cl  Cl5  1  0.89229100  0.31968400  0.57915800  1
  Cl  Cl6  1  0.68279300  0.68279300  0.00389000  1
  Cl  Cl7  1  0.23008900  0.23008900  0.33237800  1
  Cl  Cl8  1  0.68031600  0.10770900  0.42084200  1
  Cl  Cl9  1  0.61706600  0.61706600  0.35878700  1
  O  O0  1  0.95306600  0.95306600  0.18747500  1
  O  O1  1  0.04157600  0.61074000  0.17204000  1
  O  O2  1  0.38926000  0.95842400  0.82796000  1
  O  O3  1  0.12999800  0.69770800  0.82774300  1
  O  O4  1  0.87000200  0.30229200  0.17225700  1
  O  O5  1  0.30229200  0.87000200  0.17225700  1
  O  O6  1  0.85328800  0.14671200  0.00000000  1
  O  O7  1  0.69770800  0.12999800  0.82774300  1
  O  O8  1  0.14671200  0.85328800  0.00000000  1
  O  O9  1  0.61074000  0.04157600  0.17204000  1
  O  O10  1  0.95842400  0.38926000  0.82796000  1
  O  O11  1  0.04693400  0.04693400  0.81252500  1
loop_
_geom_bond_atom_site_label_1
_geom_bond_atom_site_label_2
_geom_bond_distance
_geom_bond_site_symmetry_2
Cl0 Sm2 2.733139 1_555
Cl0 Sm0 2.733139 1_555
Cl1 Sm0 2.904702 1_555
Cl1 Sm2 2.912298 1_565
Cl1 Sm4 2.916420 1_555
Cl2 Sm4 2.904702 1_555
Cl2 Sm3 2.912298 1_455
Cl2 Sm0 2.916420 1_555
Cl3 Sm2 2.725286 1_565
Cl3 Sm0 2.725286 1_655
Cl4 Sm5 2.750714 1_556
Cl4 Sm1 2.750714 1_556
Cl5 Sm2 2.904702 1_555
Cl5 Sm0 2.912298 1_655
Cl5 Sm3 2.916420 1_555
Cl6 Sm5 2.750714 1_655
Cl6 Sm1 2.750714 1_565
Cl7 Sm3 2.725286 1_455
Cl7 Sm4 2.725286 1_545
Cl8 Sm3 2.904702 1_555
Cl8 Sm4 2.912298 1_545
Cl8 Sm2 2.916420 1_555
Cl9 Sm4 2.733139 1_555
Cl9 Sm3 2.733139 1_555
O0 Si1 1.629166 1_565
O0 Si0 1.629166 1_655
O1 Si0 1.624831 1_555
O1 Sm3 2.293451 1_455
O1 Sm5 2.414636 1_555
O2 Si2 1.624831 1_555
O2 Sm2 2.293451 1_565
O2 Sm1 2.414636 1_566
O3 Si2 1.625788 1_555
O3 Sm0 2.293304 1_555
O3 Sm5 2.418103 1_556
O4 Si1 1.625788 1_555
O4 Sm3 2.293304 1_555
O4 Sm5 2.418103 1_655
O5 Si0 1.625788 1_555
O5 Sm4 2.293304 1_555
O5 Sm1 2.418103 1_565
O6 Si1 1.660733 1_555
O6 Si3 1.660733 1_554
O6 Sm1 2.902626 1_555
O6 Sm5 2.902626 1_655
O7 Si3 1.625788 1_555
O7 Sm2 2.293304 1_555
O7 Sm1 2.418103 1_556
O8 Si0 1.660733 1_555
O8 Si2 1.660733 1_554
O8 Sm5 2.902626 1_555
O8 Sm1 2.902626 1_565
O9 Si1 1.624831 1_555
O9 Sm4 2.293451 1_545
O9 Sm1 2.414636 1_555
O10 Si3 1.624831 1_555
O10 Sm0 2.293451 1_655
O10 Sm5 2.414636 1_656
O11 Si2 1.629166 1_545
O11 Si3 1.629166 1_455
