# generated using pymatgen
data_NaLiMo(H2O3)2
_symmetry_space_group_name_H-M   'P 1'
_cell_length_a   8.42654700
_cell_length_b   10.39663800
_cell_length_c   13.41434900
_cell_angle_alpha   90.00000000
_cell_angle_beta   90.00000000
_cell_angle_gamma   90.00000000
_symmetry_Int_Tables_number   1
_chemical_formula_structural   NaLiMo(H2O3)2
_chemical_formula_sum   'Na8 Li8 Mo8 H32 O48'
_cell_volume   1175.20105097
_cell_formula_units_Z   8
loop_
 _symmetry_equiv_pos_site_id
 _symmetry_equiv_pos_as_xyz
  1  'x, y, z'
loop_
 _atom_site_type_symbol
 _atom_site_label
 _atom_site_symmetry_multiplicity
 _atom_site_fract_x
 _atom_site_fract_y
 _atom_site_fract_z
 _atom_site_occupancy
  Na  Na0  1  0.85385000  0.00630000  0.41021000  1
  Na  Na1  1  0.35385000  0.49370000  0.58979000  1
  Na  Na2  1  0.14615000  0.50630000  0.08979000  1
  Na  Na3  1  0.64615000  0.99370000  0.91021000  1
  Na  Na4  1  0.14615000  0.99370000  0.58979000  1
  Na  Na5  1  0.64615000  0.50630000  0.41021000  1
  Na  Na6  1  0.85385000  0.49370000  0.91021000  1
  Na  Na7  1  0.35385000  0.00630000  0.08979000  1
  Li  Li0  1  0.76696200  0.44368400  0.13512500  1
  Li  Li1  1  0.26696200  0.05631600  0.86487500  1
  Li  Li2  1  0.23303800  0.94368400  0.36487500  1
  Li  Li3  1  0.73303800  0.55631600  0.63512500  1
  Li  Li4  1  0.23303800  0.55631600  0.86487500  1
  Li  Li5  1  0.73303800  0.94368400  0.13512500  1
  Li  Li6  1  0.76696200  0.05631600  0.63512500  1
  Li  Li7  1  0.26696200  0.44368400  0.36487500  1
  Mo  Mo0  1  0.48987700  0.18963300  0.47244400  1
  Mo  Mo1  1  0.98987700  0.31036700  0.52755600  1
  Mo  Mo2  1  0.51012300  0.68963300  0.02755600  1
  Mo  Mo3  1  0.01012300  0.81036700  0.97244400  1
  Mo  Mo4  1  0.51012300  0.81036700  0.52755600  1
  Mo  Mo5  1  0.01012300  0.68963300  0.47244400  1
  Mo  Mo6  1  0.48987700  0.31036700  0.97244400  1
  Mo  Mo7  1  0.98987700  0.18963300  0.02755600  1
  H  H0  1  0.92183300  0.60514100  0.25883200  1
  H  H1  1  0.42183300  0.89485900  0.74116800  1
  H  H2  1  0.07816700  0.10514100  0.24116800  1
  H  H3  1  0.57816700  0.39485900  0.75883200  1
  H  H4  1  0.07816700  0.39485900  0.74116800  1
  H  H5  1  0.57816700  0.10514100  0.25883200  1
  H  H6  1  0.92183300  0.89485900  0.75883200  1
  H  H7  1  0.42183300  0.60514100  0.24116800  1
  H  H8  1  0.91909000  0.67216200  0.15406500  1
  H  H9  1  0.41909000  0.82783800  0.84593500  1
  H  H10  1  0.08091000  0.17216200  0.34593500  1
  H  H11  1  0.58091000  0.32783800  0.65406500  1
  H  H12  1  0.08091000  0.32783800  0.84593500  1
  H  H13  1  0.58091000  0.17216200  0.15406500  1
  H  H14  1  0.91909000  0.82783800  0.65406500  1
  H  H15  1  0.41909000  0.67216200  0.34593500  1
  H  H16  1  0.72895400  0.28745200  0.30592600  1
  H  H17  1  0.22895400  0.21254800  0.69407400  1
  H  H18  1  0.27104600  0.78745200  0.19407400  1
  H  H19  1  0.77104600  0.71254800  0.80592600  1
  H  H20  1  0.27104600  0.71254800  0.69407400  1
  H  H21  1  0.77104600  0.78745200  0.30592600  1
  H  H22  1  0.72895400  0.21254800  0.80592600  1
  H  H23  1  0.22895400  0.28745200  0.19407400  1
  H  H24  1  0.87754300  0.37523700  0.31360100  1
  H  H25  1  0.37754300  0.12476300  0.68639900  1
  H  H26  1  0.12245700  0.87523700  0.18639900  1
  H  H27  1  0.62245700  0.62476300  0.81360100  1
  H  H28  1  0.12245700  0.62476300  0.68639900  1
  H  H29  1  0.62245700  0.87523700  0.31360100  1
  H  H30  1  0.87754300  0.12476300  0.81360100  1
  H  H31  1  0.37754300  0.37523700  0.18639900  1
  O  O0  1  0.63411900  0.14971800  0.37738700  1
  O  O1  1  0.13411900  0.35028200  0.62261300  1
  O  O2  1  0.36588100  0.64971800  0.12261300  1
  O  O3  1  0.86588100  0.85028200  0.87738700  1
  O  O4  1  0.36588100  0.85028200  0.62261300  1
  O  O5  1  0.86588100  0.64971800  0.37738700  1
  O  O6  1  0.63411900  0.35028200  0.87738700  1
  O  O7  1  0.13411900  0.14971800  0.12261300  1
  O  O8  1  0.43251400  0.35493900  0.45371800  1
  O  O9  1  0.93251400  0.14506100  0.54628200  1
  O  O10  1  0.56748600  0.85493900  0.04628200  1
  O  O11  1  0.06748600  0.64506100  0.95371800  1
  O  O12  1  0.56748600  0.64506100  0.54628200  1
  O  O13  1  0.06748600  0.85493900  0.45371800  1
  O  O14  1  0.43251400  0.14506100  0.95371800  1
  O  O15  1  0.93251400  0.35493900  0.04628200  1
  O  O16  1  0.56902100  0.17406900  0.59707200  1
  O  O17  1  0.06902100  0.32593100  0.40292800  1
  O  O18  1  0.43097900  0.67406900  0.90292800  1
  O  O19  1  0.93097900  0.82593100  0.09707200  1
  O  O20  1  0.43097900  0.82593100  0.40292800  1
  O  O21  1  0.93097900  0.67406900  0.59707200  1
  O  O22  1  0.56902100  0.32593100  0.09707200  1
  O  O23  1  0.06902100  0.17406900  0.90292800  1
  O  O24  1  0.32162600  0.08621500  0.46201800  1
  O  O25  1  0.82162600  0.41378500  0.53798200  1
  O  O26  1  0.67837400  0.58621500  0.03798200  1
  O  O27  1  0.17837400  0.91378500  0.96201800  1
  O  O28  1  0.67837400  0.91378500  0.53798200  1
  O  O29  1  0.17837400  0.58621500  0.46201800  1
  O  O30  1  0.32162600  0.41378500  0.96201800  1
  O  O31  1  0.82162600  0.08621500  0.03798200  1
  O  O32  1  0.56641200  0.41317100  0.68640200  1
  O  O33  1  0.06641200  0.08682900  0.31359800  1
  O  O34  1  0.43358800  0.91317100  0.81359800  1
  O  O35  1  0.93358800  0.58682900  0.18640200  1
  O  O36  1  0.43358800  0.58682900  0.31359800  1
  O  O37  1  0.93358800  0.91317100  0.68640200  1
  O  O38  1  0.56641200  0.08682900  0.18640200  1
  O  O39  1  0.06641200  0.41317100  0.81359800  1
  O  O40  1  0.77037700  0.37257400  0.28485800  1
  O  O41  1  0.27037700  0.12742600  0.71514200  1
  O  O42  1  0.22962300  0.87257400  0.21514200  1
  O  O43  1  0.72962300  0.62742600  0.78485800  1
  O  O44  1  0.22962300  0.62742600  0.71514200  1
  O  O45  1  0.72962300  0.87257400  0.28485800  1
  O  O46  1  0.77037700  0.12742600  0.78485800  1
  O  O47  1  0.27037700  0.37257400  0.21514200  1
loop_
_geom_bond_atom_site_label_1
_geom_bond_atom_site_label_2
_geom_bond_distance
_geom_bond_site_symmetry_2
Na0 O33 2.364065 1_655
Na0 O0 2.417739 1_555
Na0 O9 2.419175 1_555
Na0 O45 2.419965 1_545
Na0 O28 2.459531 1_545
Na0 O13 2.461251 1_645
Na1 O32 2.364065 1_555
Na1 O1 2.417739 1_555
Na1 O8 2.419175 1_555
Na1 O44 2.419965 1_555
Na1 O29 2.459531 1_555
Na1 O12 2.461251 1_555
Na2 O35 2.364065 1_455
Na2 O2 2.417739 1_555
Na2 O11 2.419175 1_554
Na2 O47 2.419965 1_555
Na2 O30 2.459531 1_554
Na2 O15 2.461251 1_455
Na3 O34 2.364065 1_555
Na3 O3 2.417739 1_555
Na3 O10 2.419175 1_556
Na3 O46 2.419965 1_565
Na3 O31 2.459531 1_566
Na3 O14 2.461251 1_565
Na4 O37 2.364065 1_455
Na4 O4 2.417739 1_555
Na4 O13 2.419175 1_555
Na4 O41 2.419965 1_565
Na4 O24 2.459531 1_565
Na4 O9 2.461251 1_465
Na5 O36 2.364065 1_555
Na5 O5 2.417739 1_555
Na5 O12 2.419175 1_555
Na5 O40 2.419965 1_555
Na5 O25 2.459531 1_555
Na5 O8 2.461251 1_555
Na6 O39 2.364065 1_655
Na6 O6 2.417739 1_555
Na6 O15 2.419175 1_556
Na6 O43 2.419965 1_555
Na6 O26 2.459531 1_556
Na6 O11 2.461251 1_655
Na7 O38 2.364065 1_555
Na7 O7 2.417739 1_555
Na7 O14 2.419175 1_554
Na7 O42 2.419965 1_545
Na7 O27 2.459531 1_544
Na7 O10 2.461251 1_545
Li0 O15 2.053707 1_555
Li0 O26 2.109788 1_555
Li0 O22 2.131057 1_555
Li0 O40 2.140504 1_555
Li0 O35 2.158564 1_555
Li1 O14 2.053707 1_555
Li1 O27 2.109788 1_545
Li1 O23 2.131057 1_555
Li1 O41 2.140504 1_555
Li1 O34 2.158564 1_545
Li2 O13 2.053707 1_555
Li2 O24 2.109788 1_565
Li2 O20 2.131057 1_555
Li2 O42 2.140504 1_555
Li2 O33 2.158564 1_565
Li3 O12 2.053707 1_555
Li3 O25 2.109788 1_555
Li3 O21 2.131057 1_555
Li3 O43 2.140504 1_555
Li3 O32 2.158564 1_555
Li4 O11 2.053707 1_555
Li4 O30 2.109788 1_555
Li4 O18 2.131057 1_555
Li4 O44 2.140504 1_555
Li4 O39 2.158564 1_555
Li5 O10 2.053707 1_555
Li5 O31 2.109788 1_565
Li5 O19 2.131057 1_555
Li5 O45 2.140504 1_555
Li5 O38 2.158564 1_565
Li6 O9 2.053707 1_555
Li6 O28 2.109788 1_545
Li6 O16 2.131057 1_555
Li6 O46 2.140504 1_555
Li6 O37 2.158564 1_545
Li7 O8 2.053707 1_555
Li7 O29 2.109788 1_555
Li7 O17 2.131057 1_555
Li7 O47 2.140504 1_555
Li7 O36 2.158564 1_555
Mo0 O24 1.784853 1_555
Mo0 O8 1.802894 1_555
Mo0 O16 1.807175 1_555
Mo0 O0 1.809837 1_555
Mo1 O25 1.784853 1_555
Mo1 O9 1.802894 1_555
Mo1 O17 1.807175 1_655
Mo1 O1 1.809837 1_655
Mo2 O26 1.784853 1_555
Mo2 O10 1.802894 1_555
Mo2 O18 1.807175 1_554
Mo2 O2 1.809837 1_555
Mo3 O27 1.784853 1_555
Mo3 O11 1.802894 1_555
Mo3 O19 1.807175 1_456
Mo3 O3 1.809837 1_455
Mo4 O28 1.784853 1_555
Mo4 O12 1.802894 1_555
Mo4 O20 1.807175 1_555
Mo4 O4 1.809837 1_555
Mo5 O29 1.784853 1_555
Mo5 O13 1.802894 1_555
Mo5 O21 1.807175 1_455
Mo5 O5 1.809837 1_455
Mo6 O30 1.784853 1_555
Mo6 O14 1.802894 1_555
Mo6 O22 1.807175 1_556
Mo6 O6 1.809837 1_555
Mo7 O31 1.784853 1_555
Mo7 O15 1.802894 1_555
Mo7 O23 1.807175 1_654
Mo7 O7 1.809837 1_655
H0 O35 0.995021 1_555
H0 O5 1.722283 1_555
H1 O34 0.995021 1_555
H1 O4 1.722283 1_555
H2 O33 0.995021 1_555
H2 O7 1.722283 1_555
H3 O32 0.995021 1_555
H3 O6 1.722283 1_555
H4 O39 0.995021 1_555
H4 O1 1.722283 1_555
H5 O38 0.995021 1_555
H5 O0 1.722283 1_555
H6 O37 0.995021 1_555
H6 O3 1.722283 1_555
H7 O36 0.995021 1_555
H7 O2 1.722283 1_555
H8 O35 0.995074 1_555
H9 O34 0.995074 1_555
H10 O33 0.995074 1_555
H11 O32 0.995074 1_555
H12 O39 0.995074 1_555
H13 O38 0.995074 1_555
H14 O37 0.995074 1_555
H15 O36 0.995074 1_555
H16 O40 0.992423 1_555
H17 O41 0.992423 1_555
H18 O42 0.992423 1_555
H19 O43 0.992423 1_555
H20 O44 0.992423 1_555
H21 O45 0.992423 1_555
H22 O46 0.992423 1_555
H23 O47 0.992423 1_555
H24 O40 0.982298 1_555
H25 O41 0.982298 1_555
H26 O42 0.982298 1_555
H27 O43 0.982298 1_555
H28 O44 0.982298 1_555
H29 O45 0.982298 1_555
H30 O46 0.982298 1_555
H31 O47 0.982298 1_555
