# generated using pymatgen
data_Np(Al2Cu)4
_symmetry_space_group_name_H-M   'P 1'
_cell_length_a   6.69345439
_cell_length_b   6.69345439
_cell_length_c   6.69345439
_cell_angle_alpha   98.22094561
_cell_angle_beta   98.22094561
_cell_angle_gamma   135.56281825
_symmetry_Int_Tables_number   1
_chemical_formula_structural   Np(Al2Cu)4
_chemical_formula_sum   'Np1 Al8 Cu4'
_cell_volume   194.36604976
_cell_formula_units_Z   1
loop_
 _symmetry_equiv_pos_site_id
 _symmetry_equiv_pos_as_xyz
  1  'x, y, z'
loop_
 _atom_site_type_symbol
 _atom_site_label
 _atom_site_symmetry_multiplicity
 _atom_site_fract_x
 _atom_site_fract_y
 _atom_site_fract_z
 _atom_site_occupancy
  Np  Np0  1  0.00000000  -0.00000000  0.00000000  1
  Al  Al0  1  0.65264582  0.00000000  0.65264582  1
  Al  Al1  1  0.00000000  0.65264582  0.65264582  1
  Al  Al2  1  -0.00000000  0.34735418  0.34735418  1
  Al  Al3  1  0.34735418  -0.00000000  0.34735418  1
  Al  Al4  1  0.71859447  0.50000000  0.21859447  1
  Al  Al5  1  0.50000000  0.71859447  0.21859447  1
  Al  Al6  1  0.50000000  0.28140553  0.78140553  1
  Al  Al7  1  0.28140553  0.50000000  0.78140553  1
  Cu  Cu0  1  0.00000000  -0.00000000  0.50000000  1
  Cu  Cu1  1  0.50000000  -0.00000000  0.00000000  1
  Cu  Cu2  1  0.00000000  0.50000000  0.00000000  1
  Cu  Cu3  1  0.50000000  0.50000000  0.50000000  1
loop_
_geom_bond_atom_site_label_1
_geom_bond_atom_site_label_2
_geom_bond_distance
_geom_bond_site_symmetry_2
Al0 Cu0 2.670001 1_655
Al0 Cu3 2.670001 1_545
Al0 Cu1 2.670001 1_556
Al0 Cu2 2.670001 1_656
Al0 Al3 2.675303 1_555
Al0 Al7 2.771184 1_655
Al0 Al7 2.771184 1_545
Al0 Al5 2.805423 1_545
Al0 Al6 2.805423 1_555
Al0 Np0 3.043901 1_656
Al1 Cu0 2.670001 1_565
Al1 Cu2 2.670001 1_556
Al1 Cu3 2.670001 1_455
Al1 Cu1 2.670001 1_566
Al1 Al2 2.675303 1_555
Al1 Al6 2.771184 1_565
Al1 Al6 2.771184 1_455
Al1 Al4 2.805423 1_455
Al1 Al7 2.805423 1_555
Al1 Np0 3.043901 1_566
Al2 Cu3 2.670001 1_555
Al2 Cu0 2.670001 1_555
Al2 Cu2 2.670001 1_555
Al2 Cu1 2.670001 1_455
Al2 Al5 2.771184 1_445
Al2 Al5 2.771184 1_555
Al2 Al7 2.805423 1_555
Al2 Al4 2.805423 1_455
Al2 Np0 3.043901 1_555
Al3 Cu3 2.670001 1_555
Al3 Cu2 2.670001 1_545
Al3 Cu0 2.670001 1_555
Al3 Cu1 2.670001 1_555
Al3 Al4 2.771184 1_445
Al3 Al4 2.771184 1_555
Al3 Al6 2.805423 1_555
Al3 Al5 2.805423 1_545
Al3 Np0 3.043901 1_555
Al4 Cu0 2.544960 1_665
Al4 Cu2 2.544960 1_655
Al4 Cu1 2.544960 1_555
Al4 Cu3 2.544960 1_555
Al4 Al5 2.709020 1_555
Al4 Al6 2.709020 1_554
Al4 Np0 3.174227 1_665
Al4 Np0 3.174227 1_555
Al5 Cu0 2.544960 1_665
Al5 Cu1 2.544960 1_565
Al5 Cu2 2.544960 1_555
Al5 Cu3 2.544960 1_555
Al5 Al7 2.709020 1_554
Al5 Np0 3.174227 1_665
Al5 Np0 3.174227 1_555
Al6 Cu1 2.544960 1_556
Al6 Cu0 2.544960 1_555
Al6 Cu2 2.544960 1_656
Al6 Cu3 2.544960 1_555
Al6 Al7 2.709020 1_555
Al6 Np0 3.174227 1_666
Al6 Np0 3.174227 1_556
Al7 Cu0 2.544960 1_555
Al7 Cu2 2.544960 1_556
Al7 Cu1 2.544960 1_566
Al7 Cu3 2.544960 1_555
Al7 Np0 3.174227 1_556
Al7 Np0 3.174227 1_666
Cu0 Cu3 2.531071 1_445
Cu0 Cu3 2.531071 1_555
Cu0 Np0 3.346727 1_555
Cu0 Np0 3.346727 1_556
Cu1 Cu2 2.531071 1_655
Cu1 Cu2 2.531071 1_545
Cu1 Np0 3.346727 1_655
Cu1 Np0 3.346727 1_555
Cu2 Np0 3.346727 1_565
Cu2 Np0 3.346727 1_555
Cu3 Np0 3.346727 1_666
Cu3 Np0 3.346727 1_555
