# generated using pymatgen
data_Ag2Mo3SeO12
_symmetry_space_group_name_H-M   'P 1'
_cell_length_a   11.26793800
_cell_length_b   7.50215300
_cell_length_c   13.35218881
_cell_angle_alpha   71.74847852
_cell_angle_beta   90.00000000
_cell_angle_gamma   90.00000000
_symmetry_Int_Tables_number   1
_chemical_formula_structural   Ag2Mo3SeO12
_chemical_formula_sum   'Ag8 Mo12 Se4 O48'
_cell_volume   1071.92664370
_cell_formula_units_Z   4
loop_
 _symmetry_equiv_pos_site_id
 _symmetry_equiv_pos_as_xyz
  1  'x, y, z'
loop_
 _atom_site_type_symbol
 _atom_site_label
 _atom_site_symmetry_multiplicity
 _atom_site_fract_x
 _atom_site_fract_y
 _atom_site_fract_z
 _atom_site_occupancy
  Ag  Ag0  1  0.07136100  0.25626600  0.18080800  1
  Ag  Ag1  1  0.92863900  0.74373400  0.81919200  1
  Ag  Ag2  1  0.60112500  0.78457600  0.81003400  1
  Ag  Ag3  1  0.39887500  0.21542400  0.18996600  1
  Ag  Ag4  1  0.42863900  0.25626600  0.68080800  1
  Ag  Ag5  1  0.10112500  0.21542400  0.68996600  1
  Ag  Ag6  1  0.89887500  0.78457600  0.31003400  1
  Ag  Ag7  1  0.57136100  0.74373400  0.31919200  1
  Mo  Mo0  1  0.75227700  0.79749700  0.05715600  1
  Mo  Mo1  1  0.91744200  0.20915900  0.94177400  1
  Mo  Mo2  1  0.58255800  0.20915900  0.44177400  1
  Mo  Mo3  1  0.24772300  0.20250300  0.94284400  1
  Mo  Mo4  1  0.91748600  0.20366800  0.43071800  1
  Mo  Mo5  1  0.08251400  0.79633200  0.56928200  1
  Mo  Mo6  1  0.41748600  0.79633200  0.06928200  1
  Mo  Mo7  1  0.74772300  0.79749700  0.55715600  1
  Mo  Mo8  1  0.41744200  0.79084100  0.55822600  1
  Mo  Mo9  1  0.25227700  0.20250300  0.44284400  1
  Mo  Mo10  1  0.58251400  0.20366800  0.93071800  1
  Mo  Mo11  1  0.08255800  0.79084100  0.05822600  1
  Se  Se0  1  0.80754100  0.14934000  0.69206100  1
  Se  Se1  1  0.19245900  0.85066000  0.30793900  1
  Se  Se2  1  0.69245900  0.14934000  0.19206100  1
  Se  Se3  1  0.30754100  0.85066000  0.80793900  1
  O  O0  1  0.41599500  0.86268300  0.18533000  1
  O  O1  1  0.41740500  0.13356800  0.96684000  1
  O  O2  1  0.40460700  0.91294000  0.70096400  1
  O  O3  1  0.74841800  0.12297900  0.46358000  1
  O  O4  1  0.08259500  0.13356800  0.46684000  1
  O  O5  1  0.26926500  0.07880900  0.80850500  1
  O  O6  1  0.91726500  0.42530400  0.84354900  1
  O  O7  1  0.91411400  0.21217800  0.59282500  1
  O  O8  1  0.74522000  0.58414200  0.65479800  1
  O  O9  1  0.41411400  0.78782200  0.90717500  1
  O  O10  1  0.58588600  0.21217800  0.09282500  1
  O  O11  1  0.23073500  0.07880900  0.30850500  1
  O  O12  1  0.41726500  0.57469600  0.65645100  1
  O  O13  1  0.73539800  0.73451300  0.44080300  1
  O  O14  1  0.73073500  0.92119100  0.19149500  1
  O  O15  1  0.42658100  0.72105800  0.44519200  1
  O  O16  1  0.08273500  0.57469600  0.15645100  1
  O  O17  1  0.75158200  0.12297900  0.96358000  1
  O  O18  1  0.90460700  0.08706000  0.79903600  1
  O  O19  1  0.08400500  0.86268300  0.68533000  1
  O  O20  1  0.23539800  0.26548700  0.05919700  1
  O  O21  1  0.26460200  0.26548700  0.55919700  1
  O  O22  1  0.91740500  0.86643200  0.53316000  1
  O  O23  1  0.58273500  0.42530400  0.34354900  1
  O  O24  1  0.91561800  0.44573200  0.38035300  1
  O  O25  1  0.76460200  0.73451300  0.94080300  1
  O  O26  1  0.25478000  0.41585800  0.34520200  1
  O  O27  1  0.24841800  0.87702100  0.03642000  1
  O  O28  1  0.41952700  0.11370400  0.44560000  1
  O  O29  1  0.24522000  0.41585800  0.84520200  1
  O  O30  1  0.41561800  0.55426800  0.11964700  1
  O  O31  1  0.25158200  0.87702100  0.53642000  1
  O  O32  1  0.08438200  0.55426800  0.61964700  1
  O  O33  1  0.08588600  0.78782200  0.40717500  1
  O  O34  1  0.07341900  0.72105800  0.94519200  1
  O  O35  1  0.59539300  0.08706000  0.29903600  1
  O  O36  1  0.91952700  0.88629600  0.05440000  1
  O  O37  1  0.75478000  0.58414200  0.15479800  1
  O  O38  1  0.92658100  0.27894200  0.05480800  1
  O  O39  1  0.58400500  0.13731700  0.81467000  1
  O  O40  1  0.08047300  0.11370400  0.94560000  1
  O  O41  1  0.58259500  0.86643200  0.03316000  1
  O  O42  1  0.09539300  0.91294000  0.20096400  1
  O  O43  1  0.58438200  0.44573200  0.88035300  1
  O  O44  1  0.58047300  0.88629600  0.55440000  1
  O  O45  1  0.91599500  0.13731700  0.31467000  1
  O  O46  1  0.57341900  0.27894200  0.55480800  1
  O  O47  1  0.76926500  0.92119100  0.69149500  1
loop_
_geom_bond_atom_site_label_1
_geom_bond_atom_site_label_2
_geom_bond_distance
_geom_bond_site_symmetry_2
Ag0 O38 2.311154 1_455
Ag0 O16 2.311372 1_555
Ag0 O20 2.446936 1_555
Ag0 O45 2.461032 1_455
Ag0 O42 2.519069 1_545
Ag0 O11 2.546105 1_555
Ag1 O34 2.311154 1_655
Ag1 O6 2.311372 1_555
Ag1 O25 2.446936 1_555
Ag1 O19 2.461032 1_655
Ag1 O18 2.519069 1_565
Ag1 O47 2.546105 1_555
Ag2 O43 2.425736 1_555
Ag2 O47 2.475667 1_555
Ag2 O9 2.478531 1_555
Ag2 O25 2.484378 1_555
Ag2 O2 2.659540 1_555
Ag2 O39 2.673321 1_565
Ag3 O30 2.425736 1_555
Ag3 O11 2.475667 1_555
Ag3 O10 2.478531 1_555
Ag3 O20 2.484378 1_555
Ag3 O35 2.659540 1_555
Ag3 O0 2.673321 1_545
Ag4 O46 2.311154 1_555
Ag4 O12 2.311372 1_555
Ag4 O21 2.446936 1_555
Ag4 O39 2.461032 1_555
Ag4 O2 2.519069 1_545
Ag4 O5 2.546105 1_555
Ag5 O32 2.425736 1_555
Ag5 O5 2.475667 1_555
Ag5 O7 2.478531 1_455
Ag5 O21 2.484378 1_555
Ag5 O18 2.659540 1_455
Ag5 O19 2.673321 1_545
Ag6 O24 2.425736 1_555
Ag6 O14 2.475667 1_555
Ag6 O33 2.478531 1_655
Ag6 O13 2.484378 1_555
Ag6 O42 2.659540 1_655
Ag6 O45 2.673321 1_565
Ag7 O15 2.311154 1_555
Ag7 O23 2.311372 1_555
Ag7 O13 2.446936 1_555
Ag7 O0 2.461032 1_555
Ag7 O35 2.519069 1_565
Ag7 O14 2.546105 1_555
Mo0 O37 1.719125 1_555
Mo0 O25 1.765204 1_554
Mo0 O41 1.980388 1_555
Mo0 O36 1.995338 1_555
Mo0 O14 2.275983 1_555
Mo0 O17 2.369095 1_564
Mo1 O6 1.737067 1_555
Mo1 O38 1.748553 1_556
Mo1 O40 1.966513 1_655
Mo1 O17 1.969177 1_555
Mo1 O18 2.363434 1_555
Mo1 O36 2.418122 1_546
Mo2 O23 1.737067 1_555
Mo2 O46 1.748553 1_555
Mo2 O28 1.966513 1_555
Mo2 O3 1.969177 1_555
Mo2 O35 2.363434 1_555
Mo2 O44 2.418122 1_545
Mo3 O29 1.719125 1_555
Mo3 O20 1.765204 1_556
Mo3 O1 1.980388 1_555
Mo3 O40 1.995338 1_555
Mo3 O5 2.275983 1_555
Mo3 O27 2.369095 1_546
Mo4 O24 1.727885 1_555
Mo4 O45 1.769780 1_555
Mo4 O4 1.952318 1_655
Mo4 O3 2.005442 1_555
Mo4 O7 2.185650 1_555
Mo4 O22 2.470665 1_545
Mo5 O32 1.727885 1_555
Mo5 O19 1.769780 1_555
Mo5 O22 1.952318 1_455
Mo5 O31 2.005442 1_555
Mo5 O33 2.185650 1_555
Mo5 O4 2.470665 1_565
Mo6 O30 1.727885 1_555
Mo6 O0 1.769780 1_555
Mo6 O41 1.952318 1_555
Mo6 O27 2.005442 1_555
Mo6 O9 2.185650 1_554
Mo6 O1 2.470665 1_564
Mo7 O8 1.719125 1_555
Mo7 O13 1.765204 1_555
Mo7 O22 1.980388 1_555
Mo7 O44 1.995338 1_555
Mo7 O47 2.275983 1_555
Mo7 O3 2.369095 1_565
Mo8 O12 1.737067 1_555
Mo8 O15 1.748553 1_555
Mo8 O44 1.966513 1_555
Mo8 O31 1.969177 1_555
Mo8 O2 2.363434 1_555
Mo8 O28 2.418122 1_565
Mo9 O26 1.719125 1_555
Mo9 O21 1.765204 1_555
Mo9 O4 1.980388 1_555
Mo9 O28 1.995338 1_555
Mo9 O11 2.275983 1_555
Mo9 O31 2.369095 1_545
Mo10 O43 1.727885 1_555
Mo10 O39 1.769780 1_555
Mo10 O1 1.952318 1_555
Mo10 O17 2.005442 1_555
Mo10 O10 2.185650 1_556
Mo10 O41 2.470665 1_546
Mo11 O16 1.737067 1_555
Mo11 O34 1.748553 1_554
Mo11 O36 1.966513 1_455
Mo11 O27 1.969177 1_555
Mo11 O42 2.363434 1_555
Mo11 O40 2.418122 1_564
O2 Se3 1.742618 1_555
O5 Se3 1.767421 1_545
O7 Se0 1.740318 1_555
O9 Se3 1.740318 1_555
O10 Se2 1.740318 1_555
O11 Se1 1.767421 1_545
O14 Se2 1.767421 1_565
O18 Se0 1.742618 1_555
O33 Se1 1.740318 1_555
O35 Se2 1.742618 1_555
O42 Se1 1.742618 1_555
O47 Se0 1.767421 1_565
