# generated using pymatgen
data_SiP3RuO11
_symmetry_space_group_name_H-M   'P 1'
_cell_length_a   14.15646447
_cell_length_b   14.15646447
_cell_length_c   14.15646465
_cell_angle_alpha   34.51751705
_cell_angle_beta   34.51751705
_cell_angle_gamma   34.51751780
_symmetry_Int_Tables_number   1
_chemical_formula_structural   SiP3RuO11
_chemical_formula_sum   'Si4 P12 Ru4 O44'
_cell_volume   812.72640774
_cell_formula_units_Z   4
loop_
 _symmetry_equiv_pos_site_id
 _symmetry_equiv_pos_as_xyz
  1  'x, y, z'
loop_
 _atom_site_type_symbol
 _atom_site_label
 _atom_site_symmetry_multiplicity
 _atom_site_fract_x
 _atom_site_fract_y
 _atom_site_fract_z
 _atom_site_occupancy
  Si  Si0  1  0.03976400  0.03976400  0.03976400  1
  Si  Si1  1  0.53976400  0.53976400  0.53976400  1
  Si  Si2  1  0.46023600  0.46023600  0.46023600  1
  Si  Si3  1  0.96023600  0.96023600  0.96023600  1
  P  P0  1  0.49042500  0.78772300  0.08144500  1
  P  P1  1  0.41855500  0.71227700  0.00957500  1
  P  P2  1  0.91855500  0.50957500  0.21227700  1
  P  P3  1  0.50957500  0.21227700  0.91855500  1
  P  P4  1  0.21227700  0.91855500  0.50957500  1
  P  P5  1  0.58144500  0.28772300  0.99042500  1
  P  P6  1  0.28772300  0.99042500  0.58144500  1
  P  P7  1  0.08144500  0.49042500  0.78772300  1
  P  P8  1  0.71227700  0.00957500  0.41855500  1
  P  P9  1  0.78772300  0.08144500  0.49042500  1
  P  P10  1  0.99042500  0.58144500  0.28772300  1
  P  P11  1  0.00957500  0.41855500  0.71227700  1
  Ru  Ru0  1  0.34110700  0.34110700  0.34110700  1
  Ru  Ru1  1  0.15889300  0.15889300  0.15889300  1
  Ru  Ru2  1  0.84110700  0.84110700  0.84110700  1
  Ru  Ru3  1  0.65889300  0.65889300  0.65889300  1
  O  O0  1  0.54417100  0.48868600  0.84823500  1
  O  O1  1  0.78102000  0.82598900  0.46027000  1
  O  O2  1  0.21898000  0.17401100  0.53973000  1
  O  O3  1  0.03774500  0.46225500  0.25000000  1
  O  O4  1  0.59754800  0.35071300  0.71062900  1
  O  O5  1  0.48868600  0.84823500  0.54417100  1
  O  O6  1  0.46027000  0.78102000  0.82598900  1
  O  O7  1  0.32598900  0.28102000  0.96027000  1
  O  O8  1  0.21062900  0.85071300  0.09754800  1
  O  O9  1  0.51131400  0.15176500  0.45582900  1
  O  O10  1  0.75000000  0.96225500  0.53774500  1
  O  O11  1  0.17401100  0.53973000  0.21898000  1
  O  O12  1  0.95582900  0.65176500  0.01131400  1
  O  O13  1  0.82598900  0.46027000  0.78102000  1
  O  O14  1  0.34823500  0.98868600  0.04417100  1
  O  O15  1  0.64928700  0.28937100  0.40245200  1
  O  O16  1  0.14928700  0.90245200  0.78937100  1
  O  O17  1  0.25000000  0.03774500  0.46225500  1
  O  O18  1  0.46225500  0.25000000  0.03774500  1
  O  O19  1  0.96027000  0.32598900  0.28102000  1
  O  O20  1  0.96225500  0.53774500  0.75000000  1
  O  O21  1  0.04417100  0.34823500  0.98868600  1
  O  O22  1  0.01131400  0.95582900  0.65176500  1
  O  O23  1  0.35071300  0.71062900  0.59754800  1
  O  O24  1  0.53973000  0.21898000  0.17401100  1
  O  O25  1  0.15176500  0.45582900  0.51131400  1
  O  O26  1  0.50000000  0.50000000  0.50000000  1
  O  O27  1  0.90245200  0.78937100  0.14928700  1
  O  O28  1  0.71898000  0.03973000  0.67401100  1
  O  O29  1  0.78937100  0.14928700  0.90245200  1
  O  O30  1  0.45582900  0.51131400  0.15176500  1
  O  O31  1  0.03973000  0.67401100  0.71898000  1
  O  O32  1  0.71062900  0.59754800  0.35071300  1
  O  O33  1  0.09754800  0.21062900  0.85071300  1
  O  O34  1  0.28937100  0.40245200  0.64928700  1
  O  O35  1  0.65176500  0.01131400  0.95582900  1
  O  O36  1  0.53774500  0.75000000  0.96225500  1
  O  O37  1  0.67401100  0.71898000  0.03973000  1
  O  O38  1  0.28102000  0.96027000  0.32598900  1
  O  O39  1  0.85071300  0.09754800  0.21062900  1
  O  O40  1  0.84823500  0.54417100  0.48868600  1
  O  O41  1  0.40245200  0.64928700  0.28937100  1
  O  O42  1  0.98868600  0.04417100  0.34823500  1
  O  O43  1  0.00000000  0.00000000  0.00000000  1
loop_
_geom_bond_atom_site_label_1
_geom_bond_atom_site_label_2
_geom_bond_distance
_geom_bond_site_symmetry_2
O0 P5 1.504493 1_555
O0 Ru3 2.063974 1_555
O1 P8 1.516658 1_565
O1 Ru3 2.063628 1_555
O2 P6 1.516658 1_545
O2 Ru0 2.063628 1_555
O3 P10 1.616683 1_455
O3 P2 1.616683 1_455
O4 P3 1.590880 1_555
O4 Si1 1.633304 1_555
O5 P6 1.504493 1_555
O5 Ru3 2.063974 1_555
O6 P1 1.516658 1_556
O6 Ru3 2.063628 1_555
O7 P3 1.516658 1_555
O7 Ru1 2.063628 1_556
O8 P1 1.590880 1_555
O8 Si0 1.633304 1_565
O9 P8 1.504493 1_555
O9 Ru0 2.063974 1_555
O10 P9 1.616683 1_565
O10 P8 1.616683 1_565
O11 P10 1.516658 1_455
O11 Ru0 2.063628 1_555
O12 P2 1.504493 1_555
O12 Ru2 2.063974 1_554
O13 P11 1.516658 1_655
O13 Ru3 2.063628 1_555
O14 P0 1.504493 1_555
O14 Ru1 2.063974 1_565
O15 P9 1.590880 1_555
O15 Si2 1.633304 1_555
O16 P6 1.590880 1_555
O16 Si3 1.633304 1_455
O17 P4 1.616683 1_545
O17 P6 1.616683 1_545
O18 P5 1.616683 1_554
O18 P3 1.616683 1_554
O19 P2 1.516658 1_555
O19 Ru1 2.063628 1_655
O20 P7 1.616683 1_655
O20 P11 1.616683 1_655
O21 P7 1.504493 1_555
O21 Ru1 2.063974 1_556
O22 P4 1.504493 1_555
O22 Ru2 2.063974 1_455
O23 P4 1.590880 1_555
O23 Si1 1.633304 1_555
O24 P5 1.516658 1_554
O24 Ru0 2.063628 1_555
O25 P11 1.504493 1_555
O25 Ru0 2.063974 1_555
O26 Si1 1.586561 1_555
O26 Si2 1.586561 1_555
O27 P10 1.590880 1_555
O27 Si3 1.633304 1_554
O28 P9 1.516658 1_555
O28 Ru2 2.063628 1_545
O29 P5 1.590880 1_555
O29 Si3 1.633304 1_545
O30 P1 1.504493 1_555
O30 Ru0 2.063974 1_555
O31 P7 1.516658 1_555
O31 Ru2 2.063628 1_455
O32 P2 1.590880 1_555
O32 Si1 1.633304 1_555
O33 P11 1.590880 1_555
O33 Si0 1.633304 1_556
O34 P7 1.590880 1_555
O34 Si2 1.633304 1_555
O35 P3 1.504493 1_555
O35 Ru2 2.063974 1_545
O36 P1 1.616683 1_556
O36 P0 1.616683 1_556
O37 P0 1.516658 1_555
O37 Ru2 2.063628 1_554
O38 P4 1.516658 1_555
O38 Ru1 2.063628 1_565
O39 P8 1.590880 1_555
O39 Si0 1.633304 1_655
O40 P10 1.504493 1_555
O40 Ru3 2.063974 1_555
O41 P0 1.590880 1_555
O41 Si2 1.633304 1_555
O42 P9 1.504493 1_555
O42 Ru1 2.063974 1_655
O43 Si0 1.586561 1_555
O43 Si3 1.586561 1_444
