# generated using pymatgen
data_Na2SiH16O11
_symmetry_space_group_name_H-M   'P 1'
_cell_length_a   13.54014800
_cell_length_b   8.93720900
_cell_length_c   10.05433560
_cell_angle_alpha   60.59700474
_cell_angle_beta   90.00000000
_cell_angle_gamma   90.00000000
_symmetry_Int_Tables_number   1
_chemical_formula_structural   Na2SiH16O11
_chemical_formula_sum   'Na8 Si4 H64 O44'
_cell_volume   1059.96289058
_cell_formula_units_Z   4
loop_
 _symmetry_equiv_pos_site_id
 _symmetry_equiv_pos_as_xyz
  1  'x, y, z'
loop_
 _atom_site_type_symbol
 _atom_site_label
 _atom_site_symmetry_multiplicity
 _atom_site_fract_x
 _atom_site_fract_y
 _atom_site_fract_z
 _atom_site_occupancy
  Na  Na0  1  0.76579500  0.33877400  0.74340600  1
  Na  Na1  1  0.26579500  0.66122600  0.75659400  1
  Na  Na2  1  0.23420500  0.66122600  0.25659400  1
  Na  Na3  1  0.73420500  0.33877400  0.24340600  1
  Na  Na4  1  0.92463600  0.34764300  0.01239000  1
  Na  Na5  1  0.42463600  0.65235700  0.48761000  1
  Na  Na6  1  0.07536400  0.65235700  0.98761000  1
  Na  Na7  1  0.57536400  0.34764300  0.51239000  1
  Si  Si0  1  0.92115100  0.71144800  0.49480600  1
  Si  Si1  1  0.42115100  0.28855200  0.00519400  1
  Si  Si2  1  0.07884900  0.28855200  0.50519400  1
  Si  Si3  1  0.57884900  0.71144800  0.99480600  1
  H  H0  1  0.96986300  0.95860700  0.27765200  1
  H  H1  1  0.46986300  0.04139300  0.22234800  1
  H  H2  1  0.03013700  0.04139300  0.72234800  1
  H  H3  1  0.53013700  0.95860700  0.77765200  1
  H  H4  1  0.90464700  0.46518600  0.48163000  1
  H  H5  1  0.40464700  0.53481400  0.01837000  1
  H  H6  1  0.09535300  0.53481400  0.51837000  1
  H  H7  1  0.59535300  0.46518600  0.98163000  1
  H  H8  1  0.81914400  0.04906800  0.22633000  1
  H  H9  1  0.31914400  0.95093200  0.27367000  1
  H  H10  1  0.18085600  0.95093200  0.77367000  1
  H  H11  1  0.68085600  0.04906800  0.72633000  1
  H  H12  1  0.74507800  0.14246300  0.08431700  1
  H  H13  1  0.24507800  0.85753700  0.41568300  1
  H  H14  1  0.25492200  0.85753700  0.91568300  1
  H  H15  1  0.75492200  0.14246300  0.58431700  1
  H  H16  1  0.94503400  0.45130200  0.25585000  1
  H  H17  1  0.44503400  0.54869800  0.24415000  1
  H  H18  1  0.05496600  0.54869800  0.74415000  1
  H  H19  1  0.55496600  0.45130200  0.75585000  1
  H  H20  1  0.89222200  0.61602300  0.11862400  1
  H  H21  1  0.39222200  0.38397700  0.38137600  1
  H  H22  1  0.10777800  0.38397700  0.88137600  1
  H  H23  1  0.60777800  0.61602300  0.61862400  1
  H  H24  1  0.96809700  0.18735800  0.80716700  1
  H  H25  1  0.46809700  0.81264200  0.69283300  1
  H  H26  1  0.03190300  0.81264200  0.19283300  1
  H  H27  1  0.53190300  0.18735800  0.30716700  1
  H  H28  1  0.89000200  0.06921200  0.92983200  1
  H  H29  1  0.39000200  0.93078800  0.57016800  1
  H  H30  1  0.10999800  0.93078800  0.07016800  1
  H  H31  1  0.60999800  0.06921200  0.42983200  1
  H  H32  1  0.88872200  0.20771200  0.46051400  1
  H  H33  1  0.38872200  0.79228800  0.03948600  1
  H  H34  1  0.11127800  0.79228800  0.53948600  1
  H  H35  1  0.61127800  0.20771200  0.96051400  1
  H  H36  1  0.84731100  0.01803800  0.49732900  1
  H  H37  1  0.34731100  0.98196200  0.00267100  1
  H  H38  1  0.15268900  0.98196200  0.50267100  1
  H  H39  1  0.65268900  0.01803800  0.99732900  1
  H  H40  1  0.81801100  0.63229800  0.74956700  1
  H  H41  1  0.31801100  0.36770200  0.75043300  1
  H  H42  1  0.18198900  0.36770200  0.25043300  1
  H  H43  1  0.68198900  0.63229800  0.24956700  1
  H  H44  1  0.74244100  0.54992100  0.89269100  1
  H  H45  1  0.24244100  0.45007900  0.60730900  1
  H  H46  1  0.25755900  0.45007900  0.10730900  1
  H  H47  1  0.75755900  0.54992100  0.39269100  1
  H  H48  1  0.92326900  0.83615500  0.71443400  1
  H  H49  1  0.42326900  0.16384500  0.78556600  1
  H  H50  1  0.07673100  0.16384500  0.28556600  1
  H  H51  1  0.57673100  0.83615500  0.21443400  1
  H  H52  1  0.90630400  0.85825600  0.86079800  1
  H  H53  1  0.40630400  0.14174400  0.63920200  1
  H  H54  1  0.09369600  0.14174400  0.13920200  1
  H  H55  1  0.59369600  0.85825600  0.36079800  1
  H  H56  1  0.76645200  0.82592200  0.05775900  1
  H  H57  1  0.26645200  0.17407800  0.44224100  1
  H  H58  1  0.23354800  0.17407800  0.94224100  1
  H  H59  1  0.73354800  0.82592200  0.55775900  1
  H  H60  1  0.86360500  0.84154900  0.14296200  1
  H  H61  1  0.36360500  0.15845100  0.35703800  1
  H  H62  1  0.13639500  0.15845100  0.85703800  1
  H  H63  1  0.63639500  0.84154900  0.64296200  1
  O  O0  1  0.03222900  0.65220700  0.55947800  1
  O  O1  1  0.53222900  0.34779300  0.94052200  1
  O  O2  1  0.96777100  0.34779300  0.44052200  1
  O  O3  1  0.46777100  0.65220700  0.05947800  1
  O  O4  1  0.85769200  0.79618900  0.57931200  1
  O  O5  1  0.35769200  0.20381100  0.92068800  1
  O  O6  1  0.14230800  0.20381100  0.42068800  1
  O  O7  1  0.64230800  0.79618900  0.07931200  1
  O  O8  1  0.92720100  0.85587900  0.30362100  1
  O  O9  1  0.42720100  0.14412100  0.19637900  1
  O  O10  1  0.07279900  0.14412100  0.69637900  1
  O  O11  1  0.57279900  0.85587900  0.80362100  1
  O  O12  1  0.85934400  0.54535200  0.50214300  1
  O  O13  1  0.35934400  0.45464800  0.99785700  1
  O  O14  1  0.14065600  0.45464800  0.49785700  1
  O  O15  1  0.64065600  0.54535200  0.00214300  1
  O  O16  1  0.79166600  0.16102400  0.15395000  1
  O  O17  1  0.29166600  0.83897600  0.34605000  1
  O  O18  1  0.20833400  0.83897600  0.84605000  1
  O  O19  1  0.70833400  0.16102400  0.65395000  1
  O  O20  1  0.92570100  0.50718000  0.14410400  1
  O  O21  1  0.42570100  0.49282000  0.35589600  1
  O  O22  1  0.07429900  0.49282000  0.85589600  1
  O  O23  1  0.57429900  0.50718000  0.64410400  1
  O  O24  1  0.91525900  0.18801100  0.87401200  1
  O  O25  1  0.41525900  0.81198900  0.62598800  1
  O  O26  1  0.08474100  0.81198900  0.12598800  1
  O  O27  1  0.58474100  0.18801100  0.37401200  1
  O  O28  1  0.82800700  0.13946200  0.46216800  1
  O  O29  1  0.32800700  0.86053800  0.03783200  1
  O  O30  1  0.17199300  0.86053800  0.53783200  1
  O  O31  1  0.67199300  0.13946200  0.96216800  1
  O  O32  1  0.79835500  0.52383100  0.84340900  1
  O  O33  1  0.29835500  0.47616900  0.65659100  1
  O  O34  1  0.20164500  0.47616900  0.15659100  1
  O  O35  1  0.70164500  0.52383100  0.34340900  1
  O  O36  1  0.95733700  0.85975600  0.79083000  1
  O  O37  1  0.45733700  0.14024400  0.70917000  1
  O  O38  1  0.04266300  0.14024400  0.20917000  1
  O  O39  1  0.54266300  0.85975600  0.29083000  1
  O  O40  1  0.84094500  0.83914500  0.05034800  1
  O  O41  1  0.34094500  0.16085500  0.44965200  1
  O  O42  1  0.15905500  0.16085500  0.94965200  1
  O  O43  1  0.65905500  0.83914500  0.55034800  1
loop_
_geom_bond_atom_site_label_1
_geom_bond_atom_site_label_2
_geom_bond_distance
_geom_bond_site_symmetry_2
Na0 O19 2.311028 1_555
Na0 O32 2.360829 1_555
Na0 O31 2.403523 1_555
Na0 O24 2.428615 1_555
Na0 O12 2.549474 1_555
Na1 O18 2.311028 1_555
Na1 O33 2.360829 1_555
Na1 O30 2.403523 1_555
Na1 O25 2.428615 1_555
Na1 O13 2.549474 1_555
Na2 O17 2.311028 1_555
Na2 O34 2.360829 1_555
Na2 O29 2.403523 1_555
Na2 O26 2.428615 1_555
Na2 O14 2.549474 1_555
Na3 O16 2.311028 1_555
Na3 O35 2.360829 1_555
Na3 O28 2.403523 1_555
Na3 O27 2.428615 1_555
Na3 O15 2.549474 1_555
Na4 O20 2.375067 1_555
Na4 O32 2.379665 1_554
Na4 O16 2.391272 1_555
Na4 O24 2.436430 1_554
Na4 O22 2.502230 1_654
Na4 O38 2.510616 1_655
Na5 O21 2.375067 1_555
Na5 O33 2.379665 1_555
Na5 O17 2.391272 1_555
Na5 O25 2.436430 1_555
Na5 O23 2.502230 1_555
Na5 O39 2.510616 1_555
Na6 O22 2.375067 1_555
Na6 O34 2.379665 1_556
Na6 O18 2.391272 1_555
Na6 O26 2.436430 1_556
Na6 O20 2.502230 1_456
Na6 O36 2.510616 1_455
Na7 O23 2.375067 1_555
Na7 O35 2.379665 1_555
Na7 O19 2.391272 1_555
Na7 O27 2.436430 1_555
Na7 O21 2.502230 1_555
Na7 O37 2.510616 1_555
H0 O8 1.004682 1_555
H1 O9 1.004682 1_555
H2 O10 1.004682 1_555
H3 O11 1.004682 1_555
H4 O12 1.037889 1_555
H4 O2 1.558168 1_555
H5 O13 1.037889 1_554
H5 O3 1.558168 1_555
H6 O14 1.037889 1_555
H6 O0 1.558168 1_555
H7 O15 1.037889 1_556
H7 O1 1.558168 1_555
H8 O16 0.976831 1_555
H9 O17 0.976831 1_555
H10 O18 0.976831 1_555
H11 O19 0.976831 1_555
H12 O16 1.014707 1_555
H12 O31 1.587649 1_554
H13 O17 1.014707 1_555
H13 O30 1.587649 1_555
H14 O18 1.014707 1_555
H14 O29 1.587649 1_556
H15 O19 1.014707 1_555
H15 O28 1.587649 1_555
H16 O20 1.014551 1_555
H16 O2 1.646674 1_555
H17 O21 1.014551 1_555
H17 O3 1.646674 1_555
H18 O22 1.014551 1_555
H18 O0 1.646674 1_555
H19 O23 1.014551 1_555
H19 O1 1.646674 1_555
H20 O20 0.986243 1_555
H21 O21 0.986243 1_555
H22 O22 0.986243 1_555
H23 O23 0.986243 1_555
H24 O24 0.983578 1_555
H25 O25 0.983578 1_555
H26 O26 0.983578 1_555
H27 O27 0.983578 1_555
H28 O24 0.986973 1_555
H29 O25 0.986973 1_555
H30 O26 0.986973 1_555
H31 O27 0.986973 1_555
H32 O28 1.018924 1_555
H32 O2 1.583119 1_555
H33 O29 1.018924 1_555
H33 O3 1.583119 1_555
H34 O30 1.018924 1_555
H34 O0 1.583119 1_555
H35 O31 1.018924 1_555
H35 O1 1.583119 1_555
H36 O28 0.997118 1_555
H37 O29 0.997118 1_555
H38 O30 0.997118 1_555
H39 O31 0.997118 1_555
H40 O32 1.001349 1_555
H41 O33 1.001349 1_555
H42 O34 1.001349 1_555
H43 O35 1.001349 1_555
H44 O32 0.993231 1_555
H45 O33 0.993231 1_555
H46 O34 0.993231 1_555
H47 O35 0.993231 1_555
H48 O36 1.003171 1_555
H49 O37 1.003171 1_555
H50 O38 1.003171 1_555
H51 O39 1.003171 1_555
H52 O36 0.981468 1_555
H53 O37 0.981468 1_555
H54 O38 0.981468 1_555
H55 O39 0.981468 1_555
H56 O40 1.014021 1_555
H57 O41 1.014021 1_555
H58 O42 1.014021 1_555
H59 O43 1.014021 1_555
H60 O40 0.990619 1_555
H61 O41 0.990619 1_555
H62 O42 0.990619 1_555
H63 O43 0.990619 1_555
O0 Si0 1.620846 1_455
O1 Si1 1.620846 1_556
O2 Si2 1.620846 1_655
O3 Si3 1.620846 1_554
O4 Si0 1.632672 1_555
O5 Si1 1.632672 1_556
O6 Si2 1.632672 1_555
O7 Si3 1.632672 1_554
O8 Si0 1.712183 1_555
O9 Si1 1.712183 1_555
O10 Si2 1.712183 1_555
O11 Si3 1.712183 1_555
O12 Si0 1.673866 1_555
O13 Si1 1.673866 1_556
O14 Si2 1.673866 1_555
O15 Si3 1.673866 1_554
