# generated using pymatgen
data_KLaPdO3
_symmetry_space_group_name_H-M   'P 1'
_cell_length_a   7.05747424
_cell_length_b   7.05747424
_cell_length_c   7.62269946
_cell_angle_alpha   75.20243420
_cell_angle_beta   75.20243420
_cell_angle_gamma   33.00643543
_symmetry_Int_Tables_number   1
_chemical_formula_structural   KLaPdO3
_chemical_formula_sum   'K2 La2 Pd2 O6'
_cell_volume   199.34670591
_cell_formula_units_Z   2
loop_
 _symmetry_equiv_pos_site_id
 _symmetry_equiv_pos_as_xyz
  1  'x, y, z'
loop_
 _atom_site_type_symbol
 _atom_site_label
 _atom_site_symmetry_multiplicity
 _atom_site_fract_x
 _atom_site_fract_y
 _atom_site_fract_z
 _atom_site_occupancy
  K  K0  1  0.35713600  0.35713600  0.56552700  1
  K  K1  1  0.64286400  0.64286400  0.43447300  1
  La  La0  1  0.65037200  0.65037200  0.91699800  1
  La  La1  1  0.34962800  0.34962800  0.08300200  1
  Pd  Pd0  1  0.00692500  0.00692500  0.22848800  1
  Pd  Pd1  1  0.99307500  0.99307500  0.77151100  1
  O  O0  1  0.84864300  0.84864300  0.28357100  1
  O  O1  1  0.83229000  0.83229000  0.86416900  1
  O  O2  1  0.50706800  0.50706800  0.18942400  1
  O  O3  1  0.16771000  0.16771000  0.13583100  1
  O  O4  1  0.49293200  0.49293200  0.81057600  1
  O  O5  1  0.15135700  0.15135700  0.71642900  1
loop_
_geom_bond_atom_site_label_1
_geom_bond_atom_site_label_2
_geom_bond_distance
_geom_bond_site_symmetry_2
K0 O5 2.715177 1_555
K0 O4 2.948820 1_555
K0 O0 2.963686 1_455
K0 O0 2.963686 1_545
K0 O1 2.984424 1_545
K0 O1 2.984424 1_455
K0 O2 3.039291 1_555
K1 O0 2.715177 1_555
K1 O2 2.948820 1_555
K1 O5 2.963686 1_655
K1 O5 2.963686 1_565
K1 O3 2.984424 1_565
K1 O3 2.984424 1_655
K1 O4 3.039291 1_555
La0 O1 2.386487 1_555
La0 O2 2.434749 1_556
La0 O4 2.473633 1_555
La0 O5 2.519137 1_655
La0 O5 2.519137 1_565
La0 O3 2.658082 1_566
La0 O3 2.658082 1_656
La1 O3 2.386487 1_555
La1 O4 2.434749 1_554
La1 O2 2.473633 1_555
La1 O0 2.519137 1_455
La1 O0 2.519137 1_545
La1 O1 2.658082 1_454
La1 O1 2.658082 1_544
O0 Pd0 2.070201 1_665
O1 Pd1 2.101179 1_555
O2 Pd0 2.026730 1_565
O2 Pd0 2.026730 1_655
O3 Pd0 2.101178 1_555
O4 Pd1 2.026731 1_455
O4 Pd1 2.026731 1_545
O5 Pd1 2.070202 1_445
