# generated using pymatgen
data_Tb(GePd)2
_symmetry_space_group_name_H-M   'P 1'
_cell_length_a   4.25154156
_cell_length_b   4.25154267
_cell_length_c   5.87346814
_cell_angle_alpha   111.21862907
_cell_angle_beta   111.21863459
_cell_angle_gamma   90.00000302
_symmetry_Int_Tables_number   1
_chemical_formula_structural   Tb(GePd)2
_chemical_formula_sum   'Tb1 Ge2 Pd2'
_cell_volume   91.20542270
_cell_formula_units_Z   1
loop_
 _symmetry_equiv_pos_site_id
 _symmetry_equiv_pos_as_xyz
  1  'x, y, z'
loop_
 _atom_site_type_symbol
 _atom_site_label
 _atom_site_symmetry_multiplicity
 _atom_site_fract_x
 _atom_site_fract_y
 _atom_site_fract_z
 _atom_site_occupancy
  Tb  Tb0  1  -0.00000000  0.00000000  0.00000000  1
  Ge  Ge0  1  0.61991303  0.61991303  0.23982707  1
  Ge  Ge1  1  0.38008697  0.38008697  0.76017293  1
  Pd  Pd0  1  0.25000000  0.75000000  0.50000000  1
  Pd  Pd1  1  0.75000000  0.25000000  0.50000000  1
loop_
_geom_bond_atom_site_label_1
_geom_bond_atom_site_label_2
_geom_bond_distance
_geom_bond_site_symmetry_2
Ge0 Ge1 2.420226 1_554
Ge0 Pd0 2.498453 1_555
Ge0 Pd1 2.498453 1_555
Ge0 Pd0 2.498456 1_655
Ge0 Pd1 2.498457 1_565
Ge0 Tb0 3.240704 1_555
Ge0 Tb0 3.240706 1_565
Ge0 Tb0 3.240707 1_655
Ge0 Tb0 3.240709 1_665
Ge1 Pd1 2.498453 1_555
Ge1 Pd0 2.498453 1_555
Ge1 Pd1 2.498456 1_455
Ge1 Pd0 2.498457 1_545
Ge1 Tb0 3.240704 1_666
Ge1 Tb0 3.240706 1_656
Ge1 Tb0 3.240707 1_566
Ge1 Tb0 3.240709 1_556
Pd0 Tb0 3.299069 1_666
Pd0 Tb0 3.299069 1_566
Pd0 Tb0 3.299069 1_565
Pd0 Tb0 3.299070 1_555
Pd1 Tb0 3.299069 1_555
Pd1 Tb0 3.299069 1_655
Pd1 Tb0 3.299069 1_656
Pd1 Tb0 3.299070 1_666
