# generated using pymatgen
data_Mn5Pb(SO4)6
_symmetry_space_group_name_H-M   'P 1'
_cell_length_a   14.86085976
_cell_length_b   14.86085976
_cell_length_c   7.61216200
_cell_angle_alpha   90.00000000
_cell_angle_beta   90.00000000
_cell_angle_gamma   119.99999891
_symmetry_Int_Tables_number   1
_chemical_formula_structural   Mn5Pb(SO4)6
_chemical_formula_sum   'Mn15 Pb3 S18 O72'
_cell_volume   1455.88318499
_cell_formula_units_Z   3
loop_
 _symmetry_equiv_pos_site_id
 _symmetry_equiv_pos_as_xyz
  1  'x, y, z'
loop_
 _atom_site_type_symbol
 _atom_site_label
 _atom_site_symmetry_multiplicity
 _atom_site_fract_x
 _atom_site_fract_y
 _atom_site_fract_z
 _atom_site_occupancy
  Mn  Mn0  1  0.34801300  0.34526500  0.03446200  1
  Mn  Mn1  1  0.65198700  0.65473500  0.96553800  1
  Mn  Mn2  1  0.67822100  0.99679300  0.45310900  1
  Mn  Mn3  1  0.00274800  0.34801300  0.96553800  1
  Mn  Mn4  1  0.00320700  0.68142800  0.45310900  1
  Mn  Mn5  1  0.99725200  0.65198700  0.03446200  1
  Mn  Mn6  1  0.31857200  0.32177900  0.45310900  1
  Mn  Mn7  1  0.00000000  0.00000000  0.00000000  1
  Mn  Mn8  1  0.34526500  0.99725200  0.96553800  1
  Mn  Mn9  1  0.65473500  0.00274800  0.03446200  1
  Mn  Mn10  1  0.33333300  0.66666700  0.49844100  1
  Mn  Mn11  1  0.66666700  0.33333300  0.50155900  1
  Mn  Mn12  1  0.99679300  0.31857200  0.54689100  1
  Mn  Mn13  1  0.68142800  0.67822100  0.54689100  1
  Mn  Mn14  1  0.32177900  0.00320700  0.54689100  1
  Pb  Pb0  1  0.33333300  0.66666700  0.00158900  1
  Pb  Pb1  1  0.66666700  0.33333300  0.99841100  1
  Pb  Pb2  1  0.00000000  0.00000000  0.50000000  1
  S  S0  1  0.22672700  0.09698500  0.24313300  1
  S  S1  1  0.77327300  0.90301500  0.75686700  1
  S  S2  1  0.23457900  0.79419300  0.25686600  1
  S  S3  1  0.76542100  0.20580700  0.74313400  1
  S  S4  1  0.20580700  0.44038600  0.25686600  1
  S  S5  1  0.46205700  0.89236500  0.73968000  1
  S  S6  1  0.10763500  0.56969200  0.73968000  1
  S  S7  1  0.90301500  0.12974200  0.24313300  1
  S  S8  1  0.56969200  0.46205700  0.26032000  1
  S  S9  1  0.12974200  0.22672700  0.75686700  1
  S  S10  1  0.43030800  0.53794300  0.73968000  1
  S  S11  1  0.44038600  0.23457900  0.74313400  1
  S  S12  1  0.53794300  0.10763500  0.26032000  1
  S  S13  1  0.55961400  0.76542100  0.25686600  1
  S  S14  1  0.87025800  0.77327300  0.24313300  1
  S  S15  1  0.79419300  0.55961400  0.74313400  1
  S  S16  1  0.09698500  0.87025800  0.75686700  1
  S  S17  1  0.89236500  0.43030800  0.26032000  1
  O  O0  1  0.78674100  0.74415300  0.11427000  1
  O  O1  1  0.59054500  0.72590600  0.40792800  1
  O  O2  1  0.45496800  0.42338500  0.25620400  1
  O  O3  1  0.83323400  0.77628100  0.42450600  1
  O  O4  1  0.13536100  0.40945500  0.40792800  1
  O  O5  1  0.95741200  0.21325900  0.11427000  1
  O  O6  1  0.95896200  0.87920500  0.20361600  1
  O  O7  1  0.87920500  0.92024300  0.79638400  1
  O  O8  1  0.62040700  0.54000000  0.39884400  1
  O  O9  1  0.84563800  0.55681700  0.90932800  1
  O  O10  1  0.72590600  0.13536100  0.59207200  1
  O  O11  1  0.88003000  0.24599000  0.76227200  1
  O  O12  1  0.08040700  0.62040700  0.60115600  1
  O  O13  1  0.55681700  0.71117900  0.09067200  1
  O  O14  1  0.54000000  0.91959300  0.60115600  1
  O  O15  1  0.63404000  0.88003000  0.23772800  1
  O  O16  1  0.49436800  0.10808500  0.08354100  1
  O  O17  1  0.58569400  0.37191900  0.29339000  1
  O  O18  1  0.61371700  0.50563200  0.08354100  1
  O  O19  1  0.40945500  0.27409400  0.59207200  1
  O  O20  1  0.04258800  0.78674100  0.88573000  1
  O  O21  1  0.15436200  0.44318300  0.09067200  1
  O  O22  1  0.91959300  0.37959300  0.39884400  1
  O  O23  1  0.50563200  0.89191500  0.91645900  1
  O  O24  1  0.36596000  0.11997000  0.76227200  1
  O  O25  1  0.42338500  0.96841700  0.74379600  1
  O  O26  1  0.21167700  0.90922300  0.76087000  1
  O  O27  1  0.21377500  0.58569400  0.70661000  1
  O  O28  1  0.16676600  0.22371900  0.57549400  1
  O  O29  1  0.74913000  0.29622100  0.71223200  1
  O  O30  1  0.28882100  0.84563800  0.09067200  1
  O  O31  1  0.70377900  0.45290900  0.71223200  1
  O  O32  1  0.37191900  0.78622500  0.70661000  1
  O  O33  1  0.75401000  0.63404000  0.76227200  1
  O  O34  1  0.25087000  0.70377900  0.28776800  1
  O  O35  1  0.37959300  0.46000000  0.60115600  1
  O  O36  1  0.27409400  0.86463900  0.40792800  1
  O  O37  1  0.71117900  0.15436200  0.90932800  1
  O  O38  1  0.41430600  0.62808100  0.70661000  1
  O  O39  1  0.46000000  0.08040700  0.39884400  1
  O  O40  1  0.89191500  0.38628300  0.08354100  1
  O  O41  1  0.90922300  0.69754600  0.23913000  1
  O  O42  1  0.12079500  0.07975700  0.20361600  1
  O  O43  1  0.94304600  0.16676600  0.42450600  1
  O  O44  1  0.11997000  0.75401000  0.23772800  1
  O  O45  1  0.10808500  0.61371700  0.91645900  1
  O  O46  1  0.74415300  0.95741200  0.88573000  1
  O  O47  1  0.38628300  0.49436800  0.91645900  1
  O  O48  1  0.69754600  0.78832300  0.76087000  1
  O  O49  1  0.78832300  0.09077700  0.23913000  1
  O  O50  1  0.24599000  0.36596000  0.23772800  1
  O  O51  1  0.62808100  0.21377500  0.29339000  1
  O  O52  1  0.78622500  0.41430600  0.29339000  1
  O  O53  1  0.57661500  0.03158300  0.25620400  1
  O  O54  1  0.29622100  0.54709100  0.28776800  1
  O  O55  1  0.22371900  0.05695400  0.42450600  1
  O  O56  1  0.25584700  0.04258800  0.11427000  1
  O  O57  1  0.54709100  0.25087000  0.71223200  1
  O  O58  1  0.54503200  0.57661500  0.74379600  1
  O  O59  1  0.07975700  0.95896200  0.79638400  1
  O  O60  1  0.30245400  0.21167700  0.23913000  1
  O  O61  1  0.03158300  0.45496800  0.74379600  1
  O  O62  1  0.45290900  0.74913000  0.28776800  1
  O  O63  1  0.04103800  0.12079500  0.79638400  1
  O  O64  1  0.92024300  0.04103800  0.20361600  1
  O  O65  1  0.21325900  0.25584700  0.88573000  1
  O  O66  1  0.96841700  0.54503200  0.25620400  1
  O  O67  1  0.44318300  0.28882100  0.90932800  1
  O  O68  1  0.86463900  0.59054500  0.59207200  1
  O  O69  1  0.09077700  0.30245400  0.76087000  1
  O  O70  1  0.05695400  0.83323400  0.57549400  1
  O  O71  1  0.77628100  0.94304600  0.57549400  1
loop_
_geom_bond_atom_site_label_1
_geom_bond_atom_site_label_2
_geom_bond_distance
_geom_bond_site_symmetry_2
Mn0 O65 2.096852 1_554
Mn0 O47 2.186298 1_554
Mn0 O67 2.190326 1_554
Mn0 O2 2.208616 1_555
Mn0 O50 2.292094 1_555
Mn0 O60 2.341517 1_555
Mn1 O0 2.096852 1_556
Mn1 O18 2.186298 1_556
Mn1 O13 2.190326 1_556
Mn1 O58 2.208616 1_555
Mn1 O33 2.292094 1_555
Mn1 O48 2.341517 1_555
Mn2 O10 2.098175 1_565
Mn2 O14 2.109248 1_555
Mn2 O71 2.189387 1_555
Mn2 O15 2.233994 1_555
Mn2 O49 2.235122 1_565
Mn2 O53 2.361045 1_565
Mn3 O5 2.096852 1_456
Mn3 O40 2.186298 1_456
Mn3 O21 2.190326 1_556
Mn3 O61 2.208616 1_555
Mn3 O11 2.292094 1_455
Mn3 O69 2.341517 1_555
Mn4 O68 2.098175 1_455
Mn4 O12 2.109248 1_555
Mn4 O70 2.189374 1_555
Mn4 O44 2.233994 1_555
Mn4 O41 2.235122 1_455
Mn4 O66 2.361045 1_455
Mn5 O20 2.096852 1_654
Mn5 O45 2.186298 1_654
Mn5 O9 2.190326 1_554
Mn5 O66 2.208616 1_555
Mn5 O44 2.292094 1_655
Mn5 O41 2.341517 1_555
Mn6 O19 2.098175 1_555
Mn6 O35 2.109248 1_555
Mn6 O28 2.189376 1_555
Mn6 O50 2.233994 1_555
Mn6 O60 2.235122 1_555
Mn6 O2 2.361045 1_555
Mn7 O64 2.214041 1_455
Mn7 O59 2.214041 1_544
Mn7 O6 2.214041 1_445
Mn7 O63 2.214041 1_554
Mn7 O7 2.214041 1_444
Mn7 O42 2.214041 1_555
Mn8 O56 2.096852 1_566
Mn8 O16 2.186298 1_566
Mn8 O30 2.190326 1_556
Mn8 O25 2.208616 1_555
Mn8 O24 2.292094 1_565
Mn8 O26 2.341517 1_555
Mn9 O46 2.096852 1_544
Mn9 O23 2.186298 1_544
Mn9 O37 2.190326 1_554
Mn9 O53 2.208616 1_555
Mn9 O15 2.292094 1_545
Mn9 O49 2.341517 1_555
Mn10 O32 2.231096 1_555
Mn10 O27 2.231098 1_555
Mn10 O38 2.231106 1_555
Mn10 O34 2.248021 1_555
Mn10 O62 2.248028 1_555
Mn10 O54 2.248031 1_555
Mn11 O51 2.231096 1_555
Mn11 O52 2.231098 1_555
Mn11 O17 2.231106 1_555
Mn11 O29 2.248021 1_555
Mn11 O57 2.248028 1_555
Mn11 O31 2.248031 1_555
Mn12 O4 2.098175 1_655
Mn12 O22 2.109248 1_555
Mn12 O43 2.189374 1_555
Mn12 O11 2.233994 1_555
Mn12 O69 2.235122 1_655
Mn12 O61 2.361045 1_655
Mn13 O1 2.098175 1_555
Mn13 O8 2.109248 1_555
Mn13 O3 2.189376 1_555
Mn13 O33 2.233994 1_555
Mn13 O48 2.235122 1_555
Mn13 O58 2.361045 1_555
Mn14 O36 2.098175 1_545
Mn14 O39 2.109248 1_555
Mn14 O55 2.189387 1_555
Mn14 O24 2.233994 1_555
Mn14 O26 2.235122 1_545
Mn14 O25 2.361045 1_545
O0 S14 1.467243 1_555
O1 S13 1.465721 1_555
O2 S8 1.502708 1_555
O3 S14 1.495156 1_555
O4 S4 1.465721 1_555
O5 S7 1.467243 1_555
O6 S14 1.493729 1_555
O6 Pb2 2.754940 1_665
O7 S1 1.493729 1_555
O7 Pb2 2.754940 1_665
O8 S8 1.465811 1_555
O9 S15 1.489449 1_555
O10 S3 1.465721 1_555
O11 S3 1.503862 1_555
O12 S6 1.465811 1_555
O13 S13 1.489449 1_555
O14 S5 1.465811 1_555
O15 S13 1.503862 1_555
O16 S12 1.494838 1_555
O17 S8 1.494256 1_555
O17 Pb1 2.740214 1_554
O18 S8 1.494838 1_555
O19 S11 1.465721 1_555
O20 S16 1.467243 1_555
O21 S4 1.489449 1_555
O22 S17 1.465811 1_555
O23 S5 1.494838 1_555
O24 S11 1.503862 1_555
O25 S5 1.502708 1_555
O26 S16 1.501444 1_555
O27 S6 1.494256 1_555
O27 Pb0 2.740207 1_556
O28 S9 1.495156 1_555
O29 S3 1.498191 1_555
O29 Pb1 2.688386 1_555
O30 S2 1.489449 1_555
O31 S15 1.498191 1_555
O31 Pb1 2.688395 1_555
O32 S5 1.494256 1_555
O32 Pb0 2.740206 1_556
O33 S15 1.503862 1_555
O34 S2 1.498191 1_555
O34 Pb0 2.688386 1_555
O35 S10 1.465811 1_555
O36 S2 1.465721 1_555
O37 S3 1.489449 1_555
O38 S10 1.494256 1_555
O38 Pb0 2.740214 1_556
O39 S12 1.465811 1_555
O40 S17 1.494838 1_555
O41 S14 1.501444 1_555
O42 S0 1.493729 1_555
O42 Pb2 2.754940 1_555
O43 S7 1.495153 1_555
O44 S2 1.503862 1_555
O45 S6 1.494838 1_555
O46 S1 1.467243 1_555
O47 S10 1.494838 1_555
O48 S1 1.501444 1_555
O49 S7 1.501444 1_555
O50 S4 1.503862 1_555
O51 S12 1.494256 1_555
O51 Pb1 2.740206 1_554
O52 S17 1.494256 1_555
O52 Pb1 2.740207 1_554
O53 S12 1.502708 1_555
O54 S4 1.498191 1_555
O54 Pb0 2.688395 1_555
O55 S0 1.495150 1_555
O56 S0 1.467243 1_555
O57 S11 1.498191 1_555
O57 Pb1 2.688393 1_555
O58 S10 1.502708 1_555
O59 S16 1.493729 1_555
O59 Pb2 2.754940 1_565
O60 S0 1.501444 1_555
O61 S6 1.502708 1_555
O62 S13 1.498191 1_555
O62 Pb0 2.688393 1_555
O63 S9 1.493729 1_555
O63 Pb2 2.754940 1_555
O64 S7 1.493729 1_555
O64 Pb2 2.754940 1_655
O65 S9 1.467243 1_555
O66 S17 1.502708 1_555
O67 S11 1.489449 1_555
O68 S15 1.465721 1_555
O69 S9 1.501444 1_555
O70 S16 1.495153 1_555
O71 S1 1.495150 1_555
