# generated using pymatgen
data_CaCr2O4
_symmetry_space_group_name_H-M   'P 1'
_cell_length_a   2.99033859
_cell_length_b   9.06420347
_cell_length_c   10.63005768
_cell_angle_alpha   90.00021635
_cell_angle_beta   89.99996973
_cell_angle_gamma   89.99998704
_symmetry_Int_Tables_number   1
_chemical_formula_structural   CaCr2O4
_chemical_formula_sum   'Ca4 Cr8 O16'
_cell_volume   288.12811123
_cell_formula_units_Z   4
loop_
 _symmetry_equiv_pos_site_id
 _symmetry_equiv_pos_as_xyz
  1  'x, y, z'
loop_
 _atom_site_type_symbol
 _atom_site_label
 _atom_site_symmetry_multiplicity
 _atom_site_fract_x
 _atom_site_fract_y
 _atom_site_fract_z
 _atom_site_occupancy
  Ca  Ca0  1  0.74999941  0.24027010  0.34078986  1
  Ca  Ca1  1  0.24999902  0.75973041  0.65920925  1
  Ca  Ca2  1  0.74999780  0.74027048  0.15921773  1
  Ca  Ca3  1  0.24999872  0.25973020  0.84078211  1
  Cr  Cr0  1  0.75001635  0.05986731  0.11283862  1
  Cr  Cr1  1  0.25000830  0.94013301  0.88716171  1
  Cr  Cr2  1  0.74999140  0.58384201  0.89895131  1
  Cr  Cr3  1  0.24999517  0.41615744  0.10104909  1
  Cr  Cr4  1  0.75001834  0.55986495  0.38716339  1
  Cr  Cr5  1  0.25000608  0.44013451  0.61283671  1
  Cr  Cr6  1  0.74999379  0.08384240  0.60104786  1
  Cr  Cr7  1  0.24999561  0.91615767  0.39895109  1
  O  O0  1  0.74999589  0.79834944  0.83882541  1
  O  O1  1  0.24999785  0.20165054  0.16117433  1
  O  O2  1  0.74999519  0.29835028  0.66116642  1
  O  O3  1  0.24999751  0.70164975  0.33883262  1
  O  O4  1  0.74999896  0.88313077  0.52409303  1
  O  O5  1  0.25000378  0.11687094  0.47590575  1
  O  O6  1  0.74999906  0.38312760  0.97590436  1
  O  O7  1  0.24999605  0.61687190  0.02409598  1
  O  O8  1  0.75000148  0.47160658  0.21426778  1
  O  O9  1  0.24999492  0.52839218  0.78573270  1
  O  O10  1  0.75000102  0.97160626  0.28573425  1
  O  O11  1  0.24999892  0.02839437  0.71426571  1
  O  O12  1  0.74999789  0.58108638  0.57335572  1
  O  O13  1  0.24999918  0.41891333  0.42664437  1
  O  O14  1  0.74999889  0.08108603  0.92664424  1
  O  O15  1  0.24999942  0.91891415  0.07335558  1
loop_
_geom_bond_atom_site_label_1
_geom_bond_atom_site_label_2
_geom_bond_distance
_geom_bond_site_symmetry_2
Ca0 O5 2.355739 1_555
Ca0 O5 2.355756 1_655
Ca0 O13 2.385462 1_555
Ca0 O13 2.385462 1_655
Ca0 O1 2.450217 1_655
Ca0 O1 2.450224 1_555
Ca0 O8 2.491142 1_555
Ca0 O10 2.504559 1_545
Ca1 O4 2.355755 1_555
Ca1 O4 2.355755 1_455
Ca1 O12 2.385460 1_555
Ca1 O12 2.385465 1_455
Ca1 O0 2.450220 1_555
Ca1 O0 2.450230 1_455
Ca1 O9 2.491163 1_555
Ca1 O11 2.504562 1_565
Ca2 O7 2.355774 1_655
Ca2 O7 2.355782 1_555
Ca2 O15 2.385497 1_555
Ca2 O15 2.385503 1_655
Ca2 O3 2.450219 1_555
Ca2 O3 2.450219 1_655
Ca2 O10 2.491096 1_555
Ca2 O8 2.504550 1_555
Ca3 O6 2.355775 1_455
Ca3 O6 2.355778 1_555
Ca3 O14 2.385503 1_455
Ca3 O14 2.385503 1_555
Ca3 O2 2.450218 1_555
Ca3 O2 2.450232 1_455
Ca3 O11 2.491095 1_555
Ca3 O9 2.504531 1_555
Cr0 O14 1.988580 1_554
Cr0 O10 2.004465 1_545
Cr0 O15 2.010936 1_645
Cr0 O15 2.011012 1_545
Cr0 O1 2.037395 1_655
Cr0 O1 2.037476 1_555
Cr1 O15 1.988575 1_556
Cr1 O11 2.004469 1_565
Cr1 O14 2.010951 1_565
Cr1 O14 2.010992 1_465
Cr1 O0 2.037412 1_555
Cr1 O0 2.037467 1_455
Cr2 O9 1.984080 1_555
Cr2 O9 1.984095 1_655
Cr2 O6 1.994761 1_555
Cr2 O7 2.023562 1_556
Cr2 O7 2.023584 1_656
Cr2 O0 2.046696 1_555
Cr3 O8 1.984072 1_455
Cr3 O8 1.984101 1_555
Cr3 O7 1.994762 1_555
Cr3 O6 2.023565 1_454
Cr3 O6 2.023581 1_554
Cr3 O1 2.046690 1_555
Cr4 O12 1.988560 1_555
Cr4 O8 2.004449 1_555
Cr4 O13 2.010920 1_655
Cr4 O13 2.011005 1_555
Cr4 O3 2.037388 1_655
Cr4 O3 2.037480 1_555
Cr5 O13 1.988560 1_555
Cr5 O9 2.004450 1_555
Cr5 O12 2.010945 1_555
Cr5 O12 2.010982 1_455
Cr5 O2 2.037404 1_555
Cr5 O2 2.037452 1_455
Cr6 O11 1.984069 1_555
Cr6 O11 1.984093 1_655
Cr6 O4 1.994740 1_545
Cr6 O5 2.023533 1_555
Cr6 O5 2.023576 1_655
Cr6 O2 2.046671 1_555
Cr7 O10 1.984064 1_455
Cr7 O10 1.984087 1_555
Cr7 O5 1.994753 1_565
Cr7 O4 2.023543 1_455
Cr7 O4 2.023559 1_555
Cr7 O3 2.046671 1_555
