# generated using pymatgen
data_Cs4Sb2O5
_symmetry_space_group_name_H-M   'P 1'
_cell_length_a   6.37456796
_cell_length_b   6.37457746
_cell_length_c   8.16299331
_cell_angle_alpha   82.39049071
_cell_angle_beta   82.39056568
_cell_angle_gamma   66.18520179
_symmetry_Int_Tables_number   1
_chemical_formula_structural   Cs4Sb2O5
_chemical_formula_sum   'Cs4 Sb2 O5'
_cell_volume   299.64719884
_cell_formula_units_Z   1
loop_
 _symmetry_equiv_pos_site_id
 _symmetry_equiv_pos_as_xyz
  1  'x, y, z'
loop_
 _atom_site_type_symbol
 _atom_site_label
 _atom_site_symmetry_multiplicity
 _atom_site_fract_x
 _atom_site_fract_y
 _atom_site_fract_z
 _atom_site_occupancy
  Cs  Cs0  1  0.99527650  0.99527550  0.00806698  1
  Cs  Cs1  1  0.00286982  0.00286982  0.49861136  1
  Cs  Cs2  1  0.33966678  0.33966578  0.14908774  1
  Cs  Cs3  1  0.67028806  0.67028806  0.84732522  1
  Sb  Sb0  1  0.34871119  0.34871119  0.67643205  1
  Sb  Sb1  1  0.64433997  0.64434097  0.33546363  1
  O  O0  1  0.20131218  0.62807783  0.78478933  1
  O  O1  1  0.83596411  0.41121738  0.19268088  1
  O  O2  1  0.41121738  0.83596411  0.19268088  1
  O  O3  1  0.62807783  0.20131218  0.78478933  1
  O  O4  1  0.46535717  0.46535717  0.45879262  1
loop_
_geom_bond_atom_site_label_1
_geom_bond_atom_site_label_2
_geom_bond_distance
_geom_bond_site_symmetry_2
Cs0 O3 2.922183 1_564
Cs0 O0 2.922183 1_654
Cs0 O2 2.968325 1_655
Cs0 O1 2.968335 1_565
Cs1 O0 3.103103 1_545
Cs1 O3 3.103105 1_455
Cs1 O1 3.299980 1_455
Cs1 O2 3.299982 1_545
Cs1 O4 3.524355 1_455
Cs1 O4 3.524357 1_545
Cs1 Sb0 4.177007 1_555
Cs1 Sb1 4.248623 1_445
Cs2 O2 3.033504 1_545
Cs2 O1 3.033505 1_455
Cs2 O4 3.044118 1_555
Cs2 O3 3.307326 1_554
Cs2 O0 3.307327 1_554
Cs2 O1 3.442382 1_555
Cs2 O2 3.442389 1_555
Cs3 O1 3.152337 1_556
Cs3 O2 3.152340 1_556
Cs3 O0 3.218751 1_555
Cs3 O3 3.218756 1_555
Cs3 O0 3.261094 1_655
Cs3 O3 3.261099 1_565
O0 Sb0 1.918963 1_555
O1 Sb1 1.916951 1_555
O2 Sb1 1.916942 1_555
O3 Sb0 1.918960 1_555
O4 Sb0 2.002208 1_555
O4 Sb1 2.014907 1_555
