# generated using pymatgen
data_CsNd(PO3)4
_symmetry_space_group_name_H-M   'P 1'
_cell_length_a   9.15407700
_cell_length_b   10.62609000
_cell_length_c   13.16331949
_cell_angle_alpha   55.94110203
_cell_angle_beta   90.00000000
_cell_angle_gamma   90.00000000
_symmetry_Int_Tables_number   1
_chemical_formula_structural   CsNd(PO3)4
_chemical_formula_sum   'Cs4 Nd4 P16 O48'
_cell_volume   1060.78220580
_cell_formula_units_Z   4
loop_
 _symmetry_equiv_pos_site_id
 _symmetry_equiv_pos_as_xyz
  1  'x, y, z'
loop_
 _atom_site_type_symbol
 _atom_site_label
 _atom_site_symmetry_multiplicity
 _atom_site_fract_x
 _atom_site_fract_y
 _atom_site_fract_z
 _atom_site_occupancy
  Cs  Cs0  1  0.43429400  0.77524800  0.53917500  1
  Cs  Cs1  1  0.93429400  0.22475200  0.96082500  1
  Cs  Cs2  1  0.56570600  0.22475200  0.46082500  1
  Cs  Cs3  1  0.06570600  0.77524800  0.03917500  1
  Nd  Nd0  1  0.27401000  0.31668400  0.18140800  1
  Nd  Nd1  1  0.22599000  0.31668400  0.68140800  1
  Nd  Nd2  1  0.77401000  0.68331600  0.31859200  1
  Nd  Nd3  1  0.72599000  0.68331600  0.81859200  1
  P  P0  1  0.17505900  0.67516000  0.36390300  1
  P  P1  1  0.46975800  0.96702100  0.78504900  1
  P  P2  1  0.82494100  0.32484000  0.63609700  1
  P  P3  1  0.10388500  0.20013700  0.47456600  1
  P  P4  1  0.53024200  0.03297900  0.21495100  1
  P  P5  1  0.40706200  0.61425700  0.24133700  1
  P  P6  1  0.89611500  0.79986300  0.52543400  1
  P  P7  1  0.59293800  0.38574300  0.75866300  1
  P  P8  1  0.90706200  0.38574300  0.25866300  1
  P  P9  1  0.32494100  0.67516000  0.86390300  1
  P  P10  1  0.09293800  0.61425700  0.74133700  1
  P  P11  1  0.39611500  0.20013700  0.97456600  1
  P  P12  1  0.60388500  0.79986300  0.02543400  1
  P  P13  1  0.03024200  0.96702100  0.28504900  1
  P  P14  1  0.96975800  0.03297900  0.71495100  1
  P  P15  1  0.67505900  0.32484000  0.13609700  1
  O  O0  1  0.03687600  0.42215400  0.17698100  1
  O  O1  1  0.03552600  0.63264000  0.33083900  1
  O  O2  1  0.54931100  0.26600400  0.90032200  1
  O  O3  1  0.70657700  0.83780100  0.09359300  1
  O  O4  1  0.96312400  0.57784600  0.82301900  1
  O  O5  1  0.90222500  0.87862700  0.79302100  1
  O  O6  1  0.46084400  0.04624500  0.09539700  1
  O  O7  1  0.45068900  0.73399600  0.09967800  1
  O  O8  1  0.91975000  0.92384200  0.22480500  1
  O  O9  1  0.82360900  0.51402400  0.24778800  1
  O  O10  1  0.08025000  0.07615800  0.77519500  1
  O  O11  1  0.53687600  0.57784600  0.32301900  1
  O  O12  1  0.15989600  0.84025700  0.34424700  1
  O  O13  1  0.24446900  0.57211000  0.48709300  1
  O  O14  1  0.29342300  0.16219900  0.90640700  1
  O  O15  1  0.20657700  0.16219900  0.40640700  1
  O  O16  1  0.58025000  0.92384200  0.72480500  1
  O  O17  1  0.79369300  0.27858500  0.24407200  1
  O  O18  1  0.03915600  0.04624500  0.59539700  1
  O  O19  1  0.25553100  0.57211000  0.98709300  1
  O  O20  1  0.32360900  0.48597600  0.25221200  1
  O  O21  1  0.53915600  0.95375500  0.90460300  1
  O  O22  1  0.75553100  0.42789000  0.51290700  1
  O  O23  1  0.84056200  0.70039200  0.48648600  1
  O  O24  1  0.15943800  0.29960800  0.51351400  1
  O  O25  1  0.79342300  0.83780100  0.59359300  1
  O  O26  1  0.70630700  0.27858500  0.74407200  1
  O  O27  1  0.65989600  0.15974300  0.15575300  1
  O  O28  1  0.84010400  0.15974300  0.65575300  1
  O  O29  1  0.20630700  0.72141500  0.75592800  1
  O  O30  1  0.65943800  0.70039200  0.98648600  1
  O  O31  1  0.59777500  0.87862700  0.29302100  1
  O  O32  1  0.34056200  0.29960800  0.01351400  1
  O  O33  1  0.67639100  0.51402400  0.74778800  1
  O  O34  1  0.40222500  0.12137300  0.70697900  1
  O  O35  1  0.34010400  0.84025700  0.84424700  1
  O  O36  1  0.74446900  0.42789000  0.01290700  1
  O  O37  1  0.46312400  0.42215400  0.67698100  1
  O  O38  1  0.29369300  0.72141500  0.25592800  1
  O  O39  1  0.09777500  0.12137300  0.20697900  1
  O  O40  1  0.46447400  0.63264000  0.83083900  1
  O  O41  1  0.95068900  0.26600400  0.40032200  1
  O  O42  1  0.96447400  0.36736000  0.66916100  1
  O  O43  1  0.04931100  0.73399600  0.59967800  1
  O  O44  1  0.17639100  0.48597600  0.75221200  1
  O  O45  1  0.41975000  0.07615800  0.27519500  1
  O  O46  1  0.53552600  0.36736000  0.16916100  1
  O  O47  1  0.96084400  0.95375500  0.40460300  1
loop_
_geom_bond_atom_site_label_1
_geom_bond_atom_site_label_2
_geom_bond_distance
_geom_bond_site_symmetry_2
Cs0 O13 3.131529 1_555
Cs0 O37 3.132783 1_555
Cs0 O45 3.141845 1_565
Cs0 O31 3.155687 1_555
Cs0 O40 3.255160 1_555
Cs0 O29 3.315931 1_555
Cs0 O12 3.374184 1_555
Cs0 O33 3.408719 1_555
Cs0 O25 3.506546 1_555
Cs0 O43 3.585406 1_555
Cs0 O44 3.637450 1_555
Cs0 O16 3.817144 1_555
Cs1 O36 3.131529 1_556
Cs1 O4 3.132783 1_555
Cs1 O8 3.141845 1_546
Cs1 O39 3.155687 1_656
Cs1 O42 3.255160 1_555
Cs1 O26 3.315931 1_555
Cs1 O27 3.374184 1_556
Cs1 O44 3.408719 1_655
Cs1 O14 3.506546 1_655
Cs1 O2 3.585406 1_555
Cs1 O33 3.637450 1_555
Cs1 O10 3.817144 1_655
Cs2 O22 3.131529 1_555
Cs2 O11 3.132783 1_555
Cs2 O16 3.141845 1_545
Cs2 O34 3.155687 1_555
Cs2 O46 3.255160 1_555
Cs2 O17 3.315931 1_555
Cs2 O28 3.374184 1_555
Cs2 O20 3.408719 1_555
Cs2 O15 3.506546 1_555
Cs2 O41 3.585406 1_555
Cs2 O9 3.637450 1_555
Cs2 O45 3.817144 1_555
Cs3 O19 3.131529 1_554
Cs3 O0 3.132783 1_555
Cs3 O10 3.141845 1_564
Cs3 O5 3.155687 1_454
Cs3 O1 3.255160 1_555
Cs3 O38 3.315931 1_555
Cs3 O35 3.374184 1_554
Cs3 O9 3.408719 1_455
Cs3 O3 3.506546 1_455
Cs3 O7 3.585406 1_555
Cs3 O20 3.637450 1_555
Cs3 O8 3.817144 1_455
Nd0 O32 2.395315 1_555
Nd0 O0 2.428665 1_555
Nd0 O46 2.439193 1_555
Nd0 O19 2.482289 1_554
Nd0 O20 2.487738 1_555
Nd0 O39 2.498144 1_555
Nd0 O45 2.510399 1_555
Nd0 O15 2.530199 1_555
Nd1 O24 2.395315 1_555
Nd1 O37 2.428665 1_555
Nd1 O42 2.439193 1_455
Nd1 O13 2.482289 1_555
Nd1 O44 2.487738 1_555
Nd1 O34 2.498144 1_555
Nd1 O10 2.510399 1_555
Nd1 O14 2.530199 1_555
Nd2 O23 2.395315 1_555
Nd2 O11 2.428665 1_555
Nd2 O1 2.439193 1_655
Nd2 O22 2.482289 1_555
Nd2 O9 2.487738 1_555
Nd2 O31 2.498144 1_555
Nd2 O8 2.510399 1_555
Nd2 O3 2.530199 1_555
Nd3 O30 2.395315 1_555
Nd3 O4 2.428665 1_555
Nd3 O40 2.439193 1_555
Nd3 O36 2.482289 1_556
Nd3 O33 2.487738 1_555
Nd3 O5 2.498144 1_555
Nd3 O16 2.510399 1_555
Nd3 O25 2.530199 1_555
O0 P8 1.500641 1_455
O1 P0 1.498438 1_555
O2 P7 1.611835 1_555
O2 P11 1.626486 1_555
O3 P12 1.502099 1_555
O4 P10 1.500641 1_655
O5 P14 1.496810 1_565
O6 P11 1.625333 1_554
O6 P4 1.628368 1_555
O7 P5 1.611835 1_555
O7 P12 1.626486 1_555
O8 P13 1.506642 1_655
O9 P8 1.497876 1_555
O10 P14 1.506642 1_455
O11 P5 1.500641 1_555
O12 P13 1.629291 1_555
O12 P0 1.629565 1_555
O13 P0 1.497805 1_555
O14 P11 1.502099 1_555
O15 P3 1.502099 1_555
O16 P1 1.506642 1_555
O17 P8 1.629549 1_555
O17 P15 1.630517 1_555
O18 P3 1.625333 1_555
O18 P14 1.628368 1_455
O19 P9 1.497805 1_555
O20 P5 1.497876 1_555
O21 P12 1.625333 1_556
O21 P1 1.628368 1_555
O22 P2 1.497805 1_555
O23 P6 1.498552 1_555
O24 P3 1.498552 1_555
O25 P6 1.502099 1_555
O26 P7 1.629549 1_555
O26 P2 1.630517 1_555
O27 P4 1.629291 1_555
O27 P15 1.629565 1_555
O28 P14 1.629291 1_555
O28 P2 1.629565 1_555
O29 P10 1.629549 1_555
O29 P9 1.630517 1_555
O30 P12 1.498552 1_556
O31 P4 1.496810 1_565
O32 P11 1.498552 1_554
O33 P7 1.497876 1_555
O34 P1 1.496810 1_545
O35 P1 1.629291 1_555
O35 P9 1.629565 1_555
O36 P15 1.497805 1_555
O37 P7 1.500641 1_555
O38 P5 1.629549 1_555
O38 P0 1.630517 1_555
O39 P13 1.496810 1_545
O40 P9 1.498438 1_555
O41 P8 1.611835 1_555
O41 P3 1.626486 1_655
O42 P2 1.498438 1_555
O43 P10 1.611835 1_555
O43 P6 1.626486 1_455
O44 P10 1.497876 1_555
O45 P4 1.506642 1_555
O46 P15 1.498438 1_555
O47 P6 1.625333 1_555
O47 P13 1.628368 1_655
