# generated using pymatgen
data_W2Se17Cl12
_symmetry_space_group_name_H-M   'P 1'
_cell_length_a   11.93354900
_cell_length_b   13.77832046
_cell_length_c   13.92835763
_cell_angle_alpha   111.49136684
_cell_angle_beta   99.83102325
_cell_angle_gamma   99.53169565
_symmetry_Int_Tables_number   1
_chemical_formula_structural   W2Se17Cl12
_chemical_formula_sum   'W4 Se34 Cl24'
_cell_volume   2033.59033474
_cell_formula_units_Z   2
loop_
 _symmetry_equiv_pos_site_id
 _symmetry_equiv_pos_as_xyz
  1  'x, y, z'
loop_
 _atom_site_type_symbol
 _atom_site_label
 _atom_site_symmetry_multiplicity
 _atom_site_fract_x
 _atom_site_fract_y
 _atom_site_fract_z
 _atom_site_occupancy
  W  W0  1  0.68557500  0.27078100  0.47911000  1
  W  W1  1  0.31442500  0.72921900  0.52089000  1
  W  W2  1  0.83381500  0.71641000  0.99990600  1
  W  W3  1  0.16618500  0.28359000  0.00009400  1
  Se  Se0  1  0.47779600  0.83220100  0.98538800  1
  Se  Se1  1  0.52220400  0.16779900  0.01461200  1
  Se  Se2  1  0.31945700  0.90682200  0.96510400  1
  Se  Se3  1  0.68054300  0.09317800  0.03489600  1
  Se  Se4  1  0.32546400  0.02049300  0.14404200  1
  Se  Se5  1  0.67453600  0.97950700  0.85595800  1
  Se  Se6  1  0.26344000  0.90020900  0.21749200  1
  Se  Se7  1  0.73656000  0.09979100  0.78250800  1
  Se  Se8  1  0.44336900  0.84623700  0.25170800  1
  Se  Se9  1  0.55663100  0.15376300  0.74829200  1
  Se  Se10  1  0.38456800  0.66521600  0.15287800  1
  Se  Se11  1  0.61543200  0.33478400  0.84712200  1
  Se  Se12  1  0.38981900  0.64860900  0.96442500  1
  Se  Se13  1  0.61018100  0.35139100  0.03557500  1
  Se  Se14  1  0.18186300  0.62750600  0.91965500  1
  Se  Se15  1  0.81813700  0.37249400  0.08034500  1
  Se  Se16  1  0.15065800  0.58704800  0.73583900  1
  Se  Se17  1  0.84934200  0.41295200  0.26416100  1
  Se  Se18  1  0.11741300  0.39861500  0.65678700  1
  Se  Se19  1  0.88258700  0.60138500  0.34321300  1
  Se  Se20  1  0.31041300  0.37608600  0.64955700  1
  Se  Se21  1  0.68958700  0.62391400  0.35044300  1
  Se  Se22  1  0.25397800  0.19243900  0.65774900  1
  Se  Se23  1  0.74602200  0.80756100  0.34225100  1
  Se  Se24  1  0.23530300  0.07114000  0.48841800  1
  Se  Se25  1  0.76469700  0.92886000  0.51158200  1
  Se  Se26  1  0.03551000  0.04843700  0.39963700  1
  Se  Se27  1  0.96449000  0.95156300  0.60036300  1
  Se  Se28  1  0.06810800  0.11965300  0.27512200  1
  Se  Se29  1  0.93189200  0.88034700  0.72487800  1
  Se  Se30  1  0.12640300  0.30973400  0.37572600  1
  Se  Se31  1  0.87359700  0.69026600  0.62427400  1
  Se  Se32  1  0.31976600  0.33933100  0.46496400  1
  Se  Se33  1  0.68023400  0.66066900  0.53503600  1
  Cl  Cl0  1  0.84082400  0.41728400  0.50595900  1
  Cl  Cl1  1  0.15917600  0.58271600  0.49404100  1
  Cl  Cl2  1  0.61115000  0.38649300  0.61122000  1
  Cl  Cl3  1  0.38885000  0.61350700  0.38878000  1
  Cl  Cl4  1  0.53577200  0.12418900  0.45383000  1
  Cl  Cl5  1  0.46422800  0.87581100  0.54617000  1
  Cl  Cl6  1  0.75731200  0.15743800  0.34616300  1
  Cl  Cl7  1  0.24268800  0.84256200  0.65383700  1
  Cl  Cl8  1  0.56929100  0.31015100  0.35223600  1
  Cl  Cl9  1  0.43070900  0.68984900  0.64776400  1
  Cl  Cl10  1  0.80594700  0.23968600  0.61052100  1
  Cl  Cl11  1  0.19405300  0.76031400  0.38947900  1
  Cl  Cl12  1  0.78587400  0.87232500  0.10909700  1
  Cl  Cl13  1  0.21412600  0.12767500  0.89090300  1
  Cl  Cl14  1  0.96676800  0.72570800  0.14721600  1
  Cl  Cl15  1  0.03323200  0.27429200  0.85278400  1
  Cl  Cl16  1  0.88275500  0.56157600  0.89386700  1
  Cl  Cl17  1  0.11724500  0.43842400  0.10613300  1
  Cl  Cl18  1  0.69212200  0.70157000  0.85393500  1
  Cl  Cl19  1  0.30787800  0.29843000  0.14606500  1
  Cl  Cl20  1  0.68273600  0.61045000  0.04011700  1
  Cl  Cl21  1  0.31726400  0.38955000  0.95988300  1
  Cl  Cl22  1  0.97573200  0.82394800  0.96062400  1
  Cl  Cl23  1  0.02426800  0.17605200  0.03937600  1
loop_
_geom_bond_atom_site_label_1
_geom_bond_atom_site_label_2
_geom_bond_distance
_geom_bond_site_symmetry_2
Se0 Se2 2.319752 1_555
Se0 Se12 2.461891 1_555
Se1 Se3 2.319752 1_555
Se1 Se13 2.461891 1_555
Se2 Se4 2.389852 1_566
Se3 Se5 2.389852 1_544
Se4 Se6 2.331475 1_545
Se5 Se7 2.331475 1_565
Se6 Se8 2.414460 1_555
Se7 Se9 2.414460 1_555
Se10 Se8 2.276612 1_555
Se10 Se12 2.562599 1_554
Se11 Se9 2.276612 1_555
Se11 Se13 2.562599 1_556
Se12 Se14 2.394100 1_555
Se13 Se15 2.394100 1_555
Se14 Se16 2.358868 1_555
Se15 Se17 2.358868 1_555
Se16 Se18 2.350647 1_555
Se17 Se19 2.350647 1_555
Se18 Se20 2.388344 1_555
Se19 Se21 2.388344 1_555
Se20 Se32 2.458055 1_555
Se20 Se22 2.557860 1_555
Se21 Se33 2.458055 1_555
Se21 Se23 2.557860 1_555
Se22 Se24 2.283501 1_555
Se23 Se25 2.283501 1_555
Se24 Se26 2.402985 1_555
Se25 Se27 2.402985 1_555
Se26 Se28 2.339400 1_555
Se27 Se29 2.339400 1_555
Se28 Se30 2.383551 1_555
Se29 Se31 2.383551 1_555
Se30 Se32 2.318045 1_555
Se31 Se33 2.318045 1_555
Cl0 W0 2.370358 1_555
Cl1 W1 2.370358 1_555
Cl2 W0 2.365169 1_555
Cl3 W1 2.365169 1_555
Cl4 W0 2.338260 1_555
Cl5 W1 2.338260 1_555
Cl6 W0 2.337911 1_555
Cl7 W1 2.337911 1_555
Cl8 W0 2.336022 1_555
Cl9 W1 2.336022 1_555
Cl10 W0 2.340450 1_555
Cl11 W1 2.340450 1_555
Cl12 W2 2.359130 1_554
Cl13 W3 2.359130 1_556
Cl14 W2 2.317750 1_554
Cl15 W3 2.317750 1_556
Cl16 W2 2.339264 1_555
Cl17 W3 2.339264 1_555
Cl18 W2 2.332706 1_555
Cl19 W3 2.332706 1_555
Cl20 W2 2.401632 1_554
Cl21 W3 2.401632 1_556
Cl22 W2 2.332880 1_555
Cl23 W3 2.332880 1_555
