# generated using pymatgen
data_B8O
_symmetry_space_group_name_H-M   'P 1'
_cell_length_a   5.31877700
_cell_length_b   7.35855700
_cell_length_c   10.27196491
_cell_angle_alpha   87.60457924
_cell_angle_beta   90.00000000
_cell_angle_gamma   90.00000000
_symmetry_Int_Tables_number   1
_chemical_formula_structural   B8O
_chemical_formula_sum   'B48 O6'
_cell_volume   401.67823846
_cell_formula_units_Z   6
loop_
 _symmetry_equiv_pos_site_id
 _symmetry_equiv_pos_as_xyz
  1  'x, y, z'
loop_
 _atom_site_type_symbol
 _atom_site_label
 _atom_site_symmetry_multiplicity
 _atom_site_fract_x
 _atom_site_fract_y
 _atom_site_fract_z
 _atom_site_occupancy
  B  B0  1  0.41610600  0.08316300  0.20967000  1
  B  B1  1  0.46924200  0.67631900  0.30082500  1
  B  B2  1  0.48473500  0.80903600  0.44128900  1
  B  B3  1  0.91933600  0.58067800  0.45657800  1
  B  B4  1  0.58066400  0.58067800  0.45657800  1
  B  B5  1  0.41933600  0.41932200  0.54342200  1
  B  B6  1  0.75000000  0.74879000  0.53870300  1
  B  B7  1  0.96924200  0.32368100  0.69917500  1
  B  B8  1  0.53075800  0.32368100  0.69917500  1
  B  B9  1  0.41961200  0.08827500  0.71389600  1
  B  B10  1  0.25000000  0.25715500  0.79648400  1
  B  B11  1  0.48993200  0.68537600  0.80154400  1
  B  B12  1  0.75000000  0.53092200  0.80094000  1
  B  B13  1  0.75000000  0.95044400  0.93650800  1
  B  B14  1  0.48825400  0.80839400  0.94318000  1
  B  B15  1  0.91493500  0.57579100  0.95445300  1
  B  B16  1  0.58506500  0.57579100  0.95445300  1
  B  B17  1  0.41493500  0.42420900  0.04554700  1
  B  B18  1  0.51174600  0.19160600  0.05682000  1
  B  B19  1  0.98825400  0.19160600  0.05682000  1
  B  B20  1  0.25000000  0.04955600  0.06349200  1
  B  B21  1  0.75000000  0.74361700  0.03905700  1
  B  B22  1  0.75000000  0.74284500  0.20351600  1
  B  B23  1  0.98993200  0.31462400  0.19845600  1
  B  B24  1  0.51006800  0.31462400  0.19845600  1
  B  B25  1  0.08389400  0.08316300  0.20967000  1
  B  B26  1  0.58038800  0.91172500  0.28610400  1
  B  B27  1  0.91961200  0.91172500  0.28610400  1
  B  B28  1  0.03075800  0.67631900  0.30082500  1
  B  B29  1  0.25000000  0.25169200  0.29638000  1
  B  B30  1  0.75000000  0.54587800  0.31278500  1
  B  B31  1  0.75000000  0.94955500  0.43301400  1
  B  B32  1  0.01526500  0.80903600  0.44128900  1
  B  B33  1  0.08066400  0.41932200  0.54342200  1
  B  B34  1  0.51526500  0.19096400  0.55871100  1
  B  B35  1  0.98473500  0.19096400  0.55871100  1
  B  B36  1  0.25000000  0.05044500  0.56698600  1
  B  B37  1  0.25000000  0.45412200  0.68721500  1
  B  B38  1  0.75000000  0.74830800  0.70362000  1
  B  B39  1  0.08038800  0.08827500  0.71389600  1
  B  B40  1  0.58389400  0.91683700  0.79033000  1
  B  B41  1  0.91610600  0.91683700  0.79033000  1
  B  B42  1  0.01006800  0.68537600  0.80154400  1
  B  B43  1  0.25000000  0.25638300  0.96094300  1
  B  B44  1  0.01174600  0.80839400  0.94318000  1
  B  B45  1  0.08506500  0.42420900  0.04554700  1
  B  B46  1  0.25000000  0.46907800  0.19906000  1
  B  B47  1  0.25000000  0.25121000  0.46129700  1
  O  O0  1  0.25000000  0.87204200  0.50287500  1
  O  O1  1  0.25000000  0.63261900  0.74349000  1
  O  O2  1  0.75000000  0.13120400  0.99673800  1
  O  O3  1  0.25000000  0.86879600  0.00326200  1
  O  O4  1  0.75000000  0.36738100  0.25651000  1
  O  O5  1  0.75000000  0.12795800  0.49712500  1
loop_
_geom_bond_atom_site_label_1
_geom_bond_atom_site_label_2
_geom_bond_distance
_geom_bond_site_symmetry_2
B0 B26 1.699587 1_545
B0 B25 1.766962 1_555
B0 B20 1.768430 1_555
B0 B24 1.774144 1_555
B0 B29 1.790002 1_555
B0 B18 1.804420 1_555
B1 B30 1.776647 1_555
B1 B2 1.777675 1_555
B1 B4 1.819901 1_555
B1 B26 1.830608 1_555
B1 B22 1.851422 1_555
B1 B46 2.216159 1_555
B1 B28 2.332199 1_555
B2 O0 1.482710 1_555
B2 B4 1.756880 1_555
B2 B6 1.775195 1_555
B2 B26 1.808356 1_555
B3 B33 1.689172 1_655
B3 B32 1.756880 1_655
B3 B30 1.757845 1_555
B3 B6 1.772112 1_555
B3 B4 1.801321 1_555
B4 B5 1.689172 1_555
B4 B6 1.772112 1_555
B5 B8 1.819901 1_555
B7 B8 2.332199 1_555
B8 B9 1.830608 1_555
B10 B43 1.689089 1_555
B10 B9 1.779320 1_555
B10 B39 1.779320 1_555
B10 B37 1.795703 1_555
B10 B8 1.851422 1_555
B10 B7 1.851422 1_455
B11 O1 1.467725 1_555
B11 B38 1.760868 1_555
B11 B40 1.774144 1_555
B11 B12 1.790463 1_555
B11 B16 1.807605 1_555
B12 B42 1.790463 1_655
B12 B15 1.846255 1_555
B12 B16 1.846255 1_555
B12 B38 1.850550 1_555
B12 B7 2.216159 1_555
B12 B8 2.216159 1_555
B13 O2 1.490238 1_565
B13 B41 1.768430 1_555
B13 B40 1.768430 1_555
B13 B21 1.814366 1_556
B14 O3 1.485671 1_556
B14 B21 1.759552 1_556
B14 B16 1.786514 1_555
B14 B40 1.804420 1_555
B15 B45 1.688580 1_656
B15 B16 1.754505 1_555
B15 B21 1.771906 1_556
B15 B44 1.786514 1_655
B15 B42 1.807605 1_655
B16 B17 1.688580 1_556
B16 B21 1.771906 1_556
B17 B45 1.754505 1_555
B17 B43 1.771906 1_554
B17 B18 1.786514 1_555
B17 B24 1.807605 1_555
B17 B46 1.846255 1_555
B18 O2 1.485671 1_554
B18 B43 1.759552 1_554
B19 O2 1.485671 1_554
B19 B43 1.759552 1_654
B19 B45 1.786514 1_655
B19 B25 1.804420 1_655
B20 O3 1.490238 1_545
B20 B25 1.768430 1_555
B20 B43 1.814366 1_554
B21 B22 1.689089 1_555
B21 B44 1.759552 1_654
B22 B26 1.779320 1_555
B22 B27 1.779320 1_555
B22 B30 1.795703 1_555
B22 B28 1.851422 1_655
B23 O4 1.467725 1_555
B23 B29 1.760868 1_655
B23 B25 1.774144 1_655
B23 B46 1.790463 1_655
B23 B45 1.807605 1_655
B24 O4 1.467725 1_555
B24 B29 1.760868 1_555
B24 B46 1.790463 1_555
B25 B27 1.699587 1_445
B25 B29 1.790002 1_555
B26 B31 1.789885 1_555
B26 B27 1.804257 1_555
B27 B31 1.789885 1_555
B27 B32 1.808356 1_655
B27 B28 1.830608 1_655
B28 B30 1.776647 1_455
B28 B32 1.777675 1_555
B28 B3 1.819901 1_455
B28 B46 2.216159 1_555
B29 B47 1.693877 1_555
B29 B46 1.850550 1_555
B30 O4 1.456999 1_555
B30 B4 1.757845 1_555
B31 O5 1.493106 1_565
B31 B6 1.796404 1_555
B32 O0 1.482710 1_555
B32 B6 1.775195 1_455
B33 B35 1.756880 1_455
B33 B37 1.757845 1_555
B33 B47 1.772112 1_555
B33 B5 1.801321 1_555
B33 B7 1.819901 1_455
B34 O5 1.482710 1_555
B34 B5 1.756880 1_555
B34 B47 1.775195 1_555
B34 B8 1.777675 1_555
B34 B9 1.808356 1_555
B35 O5 1.482710 1_555
B35 B47 1.775195 1_655
B35 B7 1.777675 1_555
B35 B39 1.808356 1_655
B36 O0 1.493106 1_545
B36 B39 1.789885 1_555
B36 B9 1.789885 1_555
B36 B47 1.796404 1_555
B37 O1 1.456999 1_555
B37 B5 1.757845 1_555
B37 B8 1.776647 1_555
B37 B7 1.776647 1_455
B38 B6 1.693877 1_555
B38 B42 1.760868 1_655
B38 B40 1.790002 1_555
B38 B41 1.790002 1_555
B39 B41 1.699587 1_445
B39 B9 1.804257 1_555
B39 B7 1.830608 1_455
B40 B9 1.699587 1_565
B40 B41 1.766962 1_555
B41 B42 1.774144 1_655
B41 B44 1.804420 1_655
B42 O1 1.467725 1_555
B43 B45 1.771906 1_556
B44 O3 1.485671 1_556
B45 B46 1.846255 1_555
B47 B5 1.772112 1_555
