# generated using pymatgen
data_KUVO6
_symmetry_space_group_name_H-M   'P 1'
_cell_length_a   8.48435100
_cell_length_b   6.93248800
_cell_length_c   10.59547063
_cell_angle_alpha   74.96173528
_cell_angle_beta   90.00000000
_cell_angle_gamma   90.00000000
_symmetry_Int_Tables_number   1
_chemical_formula_structural   KUVO6
_chemical_formula_sum   'K4 U4 V4 O24'
_cell_volume   601.85789710
_cell_formula_units_Z   4
loop_
 _symmetry_equiv_pos_site_id
 _symmetry_equiv_pos_as_xyz
  1  'x, y, z'
loop_
 _atom_site_type_symbol
 _atom_site_label
 _atom_site_symmetry_multiplicity
 _atom_site_fract_x
 _atom_site_fract_y
 _atom_site_fract_z
 _atom_site_occupancy
  K  K0  1  0.23218700  0.53867000  0.63734200  1
  K  K1  1  0.26781300  0.53867000  0.13734200  1
  K  K2  1  0.73218700  0.46133000  0.86265800  1
  K  K3  1  0.76781300  0.46133000  0.36265800  1
  U  U0  1  0.02059200  0.98928300  0.81960400  1
  U  U1  1  0.52059200  0.01071700  0.68039600  1
  U  U2  1  0.97940800  0.01071700  0.18039600  1
  U  U3  1  0.47940800  0.98928300  0.31960400  1
  V  V0  1  0.64814800  0.88916200  0.05523000  1
  V  V1  1  0.14814800  0.11083800  0.44477000  1
  V  V2  1  0.85185200  0.88916200  0.55523000  1
  V  V3  1  0.35185200  0.11083800  0.94477000  1
  O  O0  1  0.65515200  0.96976800  0.49293700  1
  O  O1  1  0.93944600  0.27944600  0.12498300  1
  O  O2  1  0.55969100  0.03650800  0.89266200  1
  O  O3  1  0.51898400  0.25888300  0.26428100  1
  O  O4  1  0.15515200  0.03023200  0.00706300  1
  O  O5  1  0.43944600  0.72055400  0.37501700  1
  O  O6  1  0.01898400  0.74111700  0.23571900  1
  O  O7  1  0.06055400  0.72055400  0.87501700  1
  O  O8  1  0.98101600  0.25888300  0.76428100  1
  O  O9  1  0.13494000  0.35140000  0.43189400  1
  O  O10  1  0.86506000  0.64860000  0.56810600  1
  O  O11  1  0.48101600  0.74111700  0.73571900  1
  O  O12  1  0.05969100  0.96349200  0.60733800  1
  O  O13  1  0.21021900  0.07635000  0.28426300  1
  O  O14  1  0.71021900  0.92365000  0.21573700  1
  O  O15  1  0.94030900  0.03650800  0.39266200  1
  O  O16  1  0.56055400  0.27944600  0.62498300  1
  O  O17  1  0.78978100  0.92365000  0.71573700  1
  O  O18  1  0.84484800  0.96976800  0.99293700  1
  O  O19  1  0.34484800  0.03023200  0.50706300  1
  O  O20  1  0.63494000  0.64860000  0.06810600  1
  O  O21  1  0.36506000  0.35140000  0.93189400  1
  O  O22  1  0.28978100  0.07635000  0.78426300  1
  O  O23  1  0.44030900  0.96349200  0.10733800  1
loop_
_geom_bond_atom_site_label_1
_geom_bond_atom_site_label_2
_geom_bond_distance
_geom_bond_site_symmetry_2
K0 O11 2.876161 1_555
K0 O9 2.927670 1_555
K0 O8 2.959493 1_455
K0 O22 3.216399 1_555
K0 O12 3.229637 1_555
K0 O10 3.245152 1_455
K0 O5 3.254042 1_555
K0 O21 3.254829 1_555
K0 O16 3.336226 1_555
K1 O6 2.876161 1_555
K1 O21 2.927670 1_554
K1 O3 2.959493 1_555
K1 O13 3.216399 1_555
K1 O23 3.229637 1_555
K1 O20 3.245152 1_555
K1 O7 3.254042 1_554
K1 O9 3.254829 1_555
K1 O1 3.336226 1_455
K2 O8 2.876161 1_555
K2 O20 2.927670 1_556
K2 O11 2.959493 1_555
K2 O17 3.216399 1_555
K2 O2 3.229637 1_555
K2 O21 3.245152 1_555
K2 O1 3.254042 1_556
K2 O10 3.254829 1_555
K2 O7 3.336226 1_655
K3 O3 2.876161 1_555
K3 O10 2.927670 1_555
K3 O6 2.959493 1_655
K3 O14 3.216399 1_555
K3 O15 3.229637 1_555
K3 O9 3.245152 1_655
K3 O16 3.254042 1_555
K3 O20 3.254829 1_555
K3 O5 3.336226 1_555
O0 V2 1.828013 1_555
O0 U3 2.342129 1_555
O0 U1 2.370994 1_565
O1 U2 1.833765 1_555
O2 V0 1.913262 1_546
O2 V3 1.956397 1_555
O2 U1 2.325714 1_555
O3 U3 1.838746 1_545
O4 V3 1.828013 1_554
O4 U2 2.342129 1_455
O4 U0 2.370994 1_544
O5 U3 1.833765 1_555
O6 U2 1.838746 1_465
O7 U0 1.833765 1_555
O8 U0 1.838746 1_645
O9 V1 1.641434 1_555
O10 V2 1.641434 1_555
O11 U1 1.838746 1_565
O12 V1 1.913262 1_565
O12 V2 1.956397 1_455
O12 U0 2.325714 1_555
O13 V1 1.854104 1_555
O13 U2 2.347953 1_455
O13 U3 2.367155 1_545
O14 V0 1.854104 1_555
O14 U3 2.347953 1_555
O14 U2 2.367155 1_565
O15 V2 1.913262 1_545
O15 V1 1.956397 1_655
O15 U2 2.325714 1_555
O16 U1 1.833765 1_555
O17 V2 1.854104 1_555
O17 U0 2.347953 1_655
O17 U1 2.367155 1_565
O18 V0 1.828013 1_556
O18 U0 2.342129 1_655
O18 U2 2.370994 1_566
O19 V1 1.828013 1_555
O19 U1 2.342129 1_555
O19 U3 2.370994 1_545
O20 V0 1.641434 1_555
O21 V3 1.641434 1_555
O22 V3 1.854104 1_555
O22 U1 2.347953 1_555
O22 U0 2.367155 1_545
O23 V3 1.913262 1_564
O23 V0 1.956397 1_555
O23 U3 2.325714 1_555
