# generated using pymatgen
data_Ca10Ta3Ti4Al3(SiO5)10
_symmetry_space_group_name_H-M   'P 1'
_cell_length_a   5.48000100
_cell_length_b   7.13013638
_cell_length_c   25.18272728
_cell_angle_alpha   84.50248140
_cell_angle_beta   85.77888955
_cell_angle_gamma   76.02610340
_symmetry_Int_Tables_number   1
_chemical_formula_structural   Ca10Ta3Ti4Al3(SiO5)10
_chemical_formula_sum   'Ca10 Ta3 Ti4 Al3 Si10 O50'
_cell_volume   949.15857073
_cell_formula_units_Z   1
loop_
 _symmetry_equiv_pos_site_id
 _symmetry_equiv_pos_as_xyz
  1  'x, y, z'
loop_
 _atom_site_type_symbol
 _atom_site_label
 _atom_site_symmetry_multiplicity
 _atom_site_fract_x
 _atom_site_fract_y
 _atom_site_fract_z
 _atom_site_occupancy
  Ca  Ca0  1  0.14505900  0.99005100  0.76673200  1
  Ca  Ca1  1  0.54625600  0.79096700  0.56795300  1
  Ca  Ca2  1  0.94718000  0.58890500  0.36752600  1
  Ca  Ca3  1  0.34169800  0.41014000  0.16691100  1
  Ca  Ca4  1  0.05282000  0.41109500  0.63247400  1
  Ca  Ca5  1  0.73785900  0.21728800  0.96507800  1
  Ca  Ca6  1  0.45374400  0.20903300  0.43204700  1
  Ca  Ca7  1  0.85494100  0.00994900  0.23326800  1
  Ca  Ca8  1  0.26214100  0.78271200  0.03492200  1
  Ca  Ca9  1  0.65830200  0.58986000  0.83308900  1
  Ta  Ta0  1  0.59760900  0.20105600  0.69956500  1
  Ta  Ta1  1  0.00000000  0.00000000  0.50000000  1
  Ta  Ta2  1  0.40239100  0.79894400  0.30043500  1
  Ti  Ti0  1  0.80363700  0.59920800  0.10091100  1
  Ti  Ti1  1  0.79969400  0.10214300  0.09875500  1
  Ti  Ti2  1  0.19636300  0.40079200  0.89908900  1
  Ti  Ti3  1  0.20030600  0.89785700  0.90124500  1
  Al  Al0  1  0.59913500  0.69941500  0.70067400  1
  Al  Al1  1  0.00000000  0.50000000  0.50000000  1
  Al  Al2  1  0.40086500  0.30058500  0.29932600  1
  Si  Si0  1  0.14722800  0.52094200  0.76347800  1
  Si  Si1  1  0.54774700  0.32330300  0.56225800  1
  Si  Si2  1  0.94866400  0.12265000  0.36231600  1
  Si  Si3  1  0.05133600  0.87735000  0.63768400  1
  Si  Si4  1  0.35321100  0.91522200  0.16284300  1
  Si  Si5  1  0.45225300  0.67669700  0.43774200  1
  Si  Si6  1  0.75349500  0.71156000  0.96450100  1
  Si  Si7  1  0.85277200  0.47905800  0.23652200  1
  Si  Si8  1  0.24650500  0.28844000  0.03549900  1
  Si  Si9  1  0.64678900  0.08477800  0.83715700  1
  O  O0  1  0.32456700  0.73644200  0.65170300  1
  O  O1  1  0.24059400  0.33939900  0.72339600  1
  O  O2  1  0.50255600  0.95803600  0.71310800  1
  O  O3  1  0.72538700  0.53503100  0.45147600  1
  O  O4  1  0.49548200  0.22407600  0.62338800  1
  O  O5  1  0.36443000  0.64614300  0.76191000  1
  O  O6  1  0.64094300  0.14008300  0.52320000  1
  O  O7  1  0.83323300  0.75387700  0.63855800  1
  O  O8  1  0.70357400  0.17920400  0.77613000  1
  O  O9  1  0.90174300  0.75819500  0.51274100  1
  O  O10  1  0.12676900  0.33851500  0.25075300  1
  O  O11  1  0.69626200  0.44224300  0.68691100  1
  O  O12  1  0.89714100  0.02450900  0.42351300  1
  O  O13  1  0.76605400  0.44640000  0.56178200  1
  O  O14  1  0.04196400  0.93930200  0.32322100  1
  O  O15  1  0.95803600  0.06069800  0.67677900  1
  O  O16  1  0.23394600  0.55360000  0.43821800  1
  O  O17  1  0.10285900  0.97549100  0.57648700  1
  O  O18  1  0.30373800  0.55775700  0.31308900  1
  O  O19  1  0.52043400  0.14143400  0.04961500  1
  O  O20  1  0.87323100  0.66148500  0.74924700  1
  O  O21  1  0.09825700  0.24180500  0.48725900  1
  O  O22  1  0.29642600  0.82079600  0.22387000  1
  O  O23  1  0.16676700  0.24612300  0.36144200  1
  O  O24  1  0.44191900  0.73740600  0.12313100  1
  O  O25  1  0.35905700  0.85991700  0.47680000  1
  O  O26  1  0.63557000  0.35385700  0.23809000  1
  O  O27  1  0.50451800  0.77592400  0.37661200  1
  O  O28  1  0.70333200  0.36249600  0.11381300  1
  O  O29  1  0.91952700  0.93843800  0.85110100  1
  O  O30  1  0.27461300  0.46496900  0.54852400  1
  O  O31  1  0.49744400  0.04196400  0.28689200  1
  O  O32  1  0.70010200  0.61457800  0.02488300  1
  O  O33  1  0.56433300  0.04585500  0.16249600  1
  O  O34  1  0.84020300  0.53776100  0.92307900  1
  O  O35  1  0.75940600  0.66060100  0.27660400  1
  O  O36  1  0.03599600  0.15590900  0.03671600  1
  O  O37  1  0.90165200  0.57886300  0.17570600  1
  O  O38  1  0.10316100  0.16384900  0.91364400  1
  O  O39  1  0.67543300  0.26355800  0.34829700  1
  O  O40  1  0.89683900  0.83615100  0.08635600  1
  O  O41  1  0.09834800  0.42113700  0.82429400  1
  O  O42  1  0.96400400  0.84409100  0.96328400  1
  O  O43  1  0.15979700  0.46223900  0.07692100  1
  O  O44  1  0.43566700  0.95414500  0.83750400  1
  O  O45  1  0.29989800  0.38542200  0.97511700  1
  O  O46  1  0.08047300  0.06156200  0.14889900  1
  O  O47  1  0.29666800  0.63750400  0.88618700  1
  O  O48  1  0.55808100  0.26259400  0.87686900  1
  O  O49  1  0.47956600  0.85856600  0.95038500  1
loop_
_geom_bond_atom_site_label_1
_geom_bond_atom_site_label_2
_geom_bond_distance
_geom_bond_site_symmetry_2
Ca0 O2 2.273175 1_555
Ca0 O29 2.420808 1_455
Ca0 O44 2.431367 1_555
Ca0 O5 2.466709 1_555
Ca0 O8 2.475716 1_465
Ca0 O15 2.511841 1_465
Ca0 O1 2.773894 1_565
Ca1 O9 2.286138 1_555
Ca1 O0 2.401861 1_555
Ca1 O7 2.413539 1_555
Ca1 O17 2.472763 1_555
Ca1 O13 2.475336 1_555
Ca1 O25 2.539715 1_555
Ca1 O6 2.781350 1_565
Ca2 O18 2.280553 1_655
Ca2 O3 2.405372 1_555
Ca2 O16 2.415989 1_655
Ca2 O23 2.463581 1_655
Ca2 O27 2.475775 1_555
Ca2 O35 2.535991 1_555
Ca2 O14 2.786368 1_655
Ca3 O28 2.280906 1_555
Ca3 O10 2.413245 1_555
Ca3 O37 2.425441 1_455
Ca3 O26 2.437720 1_555
Ca3 O43 2.501936 1_555
Ca3 O33 2.598509 1_555
Ca3 O24 2.645564 1_555
Ca4 O11 2.280553 1_455
Ca4 O30 2.405372 1_555
Ca4 O13 2.415989 1_455
Ca4 O7 2.463581 1_455
Ca4 O4 2.475775 1_555
Ca4 O1 2.535991 1_555
Ca4 O15 2.786368 1_455
Ca5 O38 2.274808 1_655
Ca5 O45 2.416689 1_555
Ca5 O19 2.441612 1_556
Ca5 O48 2.457697 1_555
Ca5 O36 2.460215 1_656
Ca5 O34 2.592878 1_555
Ca5 O42 2.653420 1_545
Ca6 O21 2.286138 1_555
Ca6 O39 2.401861 1_555
Ca6 O23 2.413539 1_555
Ca6 O12 2.472763 1_555
Ca6 O16 2.475336 1_555
Ca6 O6 2.539715 1_555
Ca6 O25 2.781350 1_545
Ca7 O31 2.273175 1_555
Ca7 O46 2.420808 1_655
Ca7 O33 2.431367 1_555
Ca7 O26 2.466709 1_555
Ca7 O22 2.475716 1_645
Ca7 O14 2.511841 1_645
Ca7 O35 2.773894 1_545
Ca8 O40 2.274808 1_455
Ca8 O32 2.416689 1_555
Ca8 O49 2.441612 1_554
Ca8 O24 2.457697 1_555
Ca8 O42 2.460215 1_454
Ca8 O43 2.592878 1_555
Ca8 O36 2.653420 1_565
Ca9 O47 2.280906 1_555
Ca9 O20 2.413245 1_555
Ca9 O41 2.425441 1_655
Ca9 O5 2.437720 1_555
Ca9 O34 2.501936 1_555
Ca9 O44 2.598509 1_555
Ca9 O48 2.645564 1_555
Al0 O11 1.840931 1_555
Al0 O2 1.842117 1_555
Al0 O20 1.958674 1_555
Al0 O0 1.968092 1_555
Al0 O5 2.002078 1_555
Al0 O7 2.017967 1_555
Al1 O9 1.841475 1_455
Al1 O21 1.841475 1_555
Al1 O30 1.962382 1_555
Al1 O3 1.962382 1_455
Al1 O16 2.009813 1_555
Al1 O13 2.009813 1_455
Al2 O18 1.840931 1_555
Al2 O31 1.842117 1_555
Al2 O10 1.958674 1_555
Al2 O39 1.968092 1_555
Al2 O26 2.002078 1_555
Al2 O23 2.017967 1_555
O0 Si3 1.630734 1_555
O1 Si0 1.676489 1_555
O1 Ta0 2.041901 1_555
O2 Ta0 1.920064 1_565
O3 Si5 1.630748 1_555
O4 Si1 1.666337 1_555
O4 Ta0 2.018305 1_555
O5 Si0 1.647636 1_555
O6 Si1 1.668813 1_555
O6 Ta1 2.050356 1_655
O7 Si3 1.644587 1_655
O8 Si9 1.656651 1_555
O8 Ta0 2.035355 1_555
O9 Ta1 1.918939 1_665
O10 Si7 1.634275 1_455
O11 Ta0 1.915676 1_555
O12 Si2 1.664070 1_555
O12 Ta1 2.026346 1_655
O13 Si1 1.644589 1_555
O14 Si2 1.670152 1_465
O14 Ta2 2.054391 1_555
O15 Si3 1.670152 1_645
O15 Ta0 2.054391 1_555
O16 Si5 1.644589 1_555
O17 Si3 1.664070 1_555
O17 Ta1 2.026346 1_565
O18 Ta2 1.915676 1_555
O19 Si8 1.650963 1_555
O19 Ti1 1.989245 1_555
O20 Si0 1.634275 1_655
O21 Ta1 1.918939 1_555
O22 Si4 1.656651 1_555
O22 Ta2 2.035355 1_555
O23 Si2 1.644587 1_455
O24 Si4 1.648511 1_555
O24 Ti0 2.052384 1_555
O25 Si5 1.668813 1_555
O25 Ta1 2.050356 1_565
O26 Si7 1.647636 1_555
O27 Si5 1.666337 1_555
O27 Ta2 2.018305 1_555
O28 Ti1 1.871004 1_555
O28 Ti0 1.890246 1_555
O29 Si9 1.643095 1_565
O29 Ti3 2.011665 1_655
O30 Si1 1.630748 1_555
O31 Ta2 1.920064 1_545
O32 Si6 1.645206 1_554
O32 Ti0 2.022193 1_555
O33 Si4 1.650324 1_545
O33 Ti1 2.054987 1_555
O34 Si6 1.655250 1_555
O34 Ti2 2.036417 1_655
O35 Si7 1.676489 1_555
O35 Ta2 2.041901 1_555
O36 Si8 1.655411 1_555
O36 Ti1 2.022823 1_455
O37 Si7 1.657267 1_555
O37 Ti0 1.978945 1_555
O38 Ti2 1.876147 1_555
O38 Ti3 1.891880 1_545
O39 Si2 1.630734 1_555
O40 Ti0 1.876147 1_555
O40 Ti1 1.891880 1_565
O41 Si0 1.657267 1_555
O41 Ti2 1.978945 1_555
O42 Si6 1.655411 1_555
O42 Ti3 2.022823 1_655
O43 Si8 1.655250 1_555
O43 Ti0 2.036417 1_455
O44 Si9 1.650324 1_565
O44 Ti3 2.054987 1_555
O45 Si8 1.645206 1_556
O45 Ti2 2.022193 1_555
O46 Si4 1.643095 1_545
O46 Ti1 2.011665 1_455
O47 Ti3 1.871004 1_555
O47 Ti2 1.890246 1_555
O48 Si9 1.648511 1_555
O48 Ti2 2.052384 1_555
O49 Si6 1.650963 1_555
O49 Ti3 1.989245 1_555
