# generated using pymatgen
data_Er3CuGeS7
_symmetry_space_group_name_H-M   'P 1'
_cell_length_a   9.77367402
_cell_length_b   9.77367402
_cell_length_c   5.86099300
_cell_angle_alpha   90.00000000
_cell_angle_beta   90.00000000
_cell_angle_gamma   120.00000016
_symmetry_Int_Tables_number   1
_chemical_formula_structural   Er3CuGeS7
_chemical_formula_sum   'Er6 Cu2 Ge2 S14'
_cell_volume   484.86131384
_cell_formula_units_Z   2
loop_
 _symmetry_equiv_pos_site_id
 _symmetry_equiv_pos_as_xyz
  1  'x, y, z'
loop_
 _atom_site_type_symbol
 _atom_site_label
 _atom_site_symmetry_multiplicity
 _atom_site_fract_x
 _atom_site_fract_y
 _atom_site_fract_z
 _atom_site_occupancy
  Er  Er0  1  0.22155000  0.35808300  0.75555800  1
  Er  Er1  1  0.77845000  0.64191700  0.25555800  1
  Er  Er2  1  0.86346700  0.22155000  0.25555800  1
  Er  Er3  1  0.13653300  0.77845000  0.75555800  1
  Er  Er4  1  0.64191700  0.86346700  0.75555800  1
  Er  Er5  1  0.35808300  0.13653300  0.25555800  1
  Cu  Cu0  1  0.00000000  0.00000000  0.67273500  1
  Cu  Cu1  1  0.00000000  0.00000000  0.17273500  1
  Ge  Ge0  1  0.66666700  0.33333300  0.83574300  1
  Ge  Ge1  1  0.33333300  0.66666700  0.33574300  1
  S  S0  1  0.51972400  0.42357200  0.00001800  1
  S  S1  1  0.73869100  0.89604400  0.20375100  1
  S  S2  1  0.57642800  0.09615200  0.00001800  1
  S  S3  1  0.09615200  0.51972400  0.50001800  1
  S  S4  1  0.84264700  0.73869100  0.70375100  1
  S  S5  1  0.10395600  0.84264700  0.20375100  1
  S  S6  1  0.89604400  0.15735300  0.70375100  1
  S  S7  1  0.33333300  0.66666700  0.95803800  1
  S  S8  1  0.90384800  0.48027600  0.00001800  1
  S  S9  1  0.66666700  0.33333300  0.45803800  1
  S  S10  1  0.26130900  0.10395600  0.70375100  1
  S  S11  1  0.48027600  0.57642800  0.50001800  1
  S  S12  1  0.15735300  0.26130900  0.20375100  1
  S  S13  1  0.42357200  0.90384800  0.50001800  1
loop_
_geom_bond_atom_site_label_1
_geom_bond_atom_site_label_2
_geom_bond_distance
_geom_bond_site_symmetry_2
Er0 S10 2.716138 1_555
Er0 S12 2.755940 1_556
Er0 S11 2.791999 1_555
Er0 S6 2.796587 1_455
Er0 S3 2.859605 1_555
Er0 S7 2.898817 1_555
Er0 S0 3.014980 1_556
Er0 S12 3.339832 1_555
Er1 S1 2.716138 1_555
Er1 S4 2.755940 1_555
Er1 S0 2.791999 1_555
Er1 S5 2.796587 1_655
Er1 S8 2.859605 1_555
Er1 S9 2.898817 1_555
Er1 S11 3.014980 1_555
Er1 S4 3.339832 1_554
Er2 S12 2.716138 1_655
Er2 S6 2.755940 1_555
Er2 S8 2.791999 1_555
Er2 S1 2.796587 1_545
Er2 S2 2.859605 1_555
Er2 S9 2.898809 1_555
Er2 S3 3.014980 1_655
Er2 S6 3.339832 1_554
Er3 S4 2.716138 1_455
Er3 S5 2.755940 1_556
Er3 S3 2.791999 1_555
Er3 S10 2.796587 1_565
Er3 S13 2.859605 1_555
Er3 S7 2.898809 1_555
Er3 S8 3.014980 1_456
Er3 S5 3.339832 1_555
Er4 S6 2.716138 1_565
Er4 S1 2.755940 1_556
Er4 S13 2.791999 1_555
Er4 S4 2.796587 1_555
Er4 S11 2.859605 1_555
Er4 S7 2.898816 1_555
Er4 S2 3.014980 1_566
Er4 S1 3.339832 1_555
Er5 S5 2.716138 1_545
Er5 S10 2.755940 1_555
Er5 S2 2.791999 1_555
Er5 S12 2.796587 1_555
Er5 S0 2.859605 1_555
Er5 S9 2.898816 1_555
Er5 S13 3.014980 1_545
Er5 S10 3.339832 1_554
Cu0 S4 2.234531 1_445
Cu0 S10 2.234531 1_555
Cu0 S6 2.234531 1_455
Cu0 Er0 3.097520 1_555
Cu0 Er4 3.097520 1_445
Cu0 Er3 3.097520 1_545
Cu1 S12 2.234531 1_555
Cu1 S1 2.234531 1_445
Cu1 S5 2.234531 1_545
Cu1 Er1 3.097520 1_445
Cu1 Er5 3.097520 1_555
Cu1 Er2 3.097520 1_455
Ge0 S9 2.213726 1_555
Ge0 S2 2.243678 1_556
Ge0 S8 2.243679 1_556
Ge0 S0 2.243686 1_556
Ge1 S7 2.213726 1_554
Ge1 S13 2.243678 1_555
Ge1 S3 2.243679 1_555
Ge1 S11 2.243686 1_555
