# generated using pymatgen
data_K3Cu(NO3)5
_symmetry_space_group_name_H-M   'P 1'
_cell_length_a   14.46184400
_cell_length_b   8.41317700
_cell_length_c   11.93978226
_cell_angle_alpha   89.66815644
_cell_angle_beta   90.00000000
_cell_angle_gamma   90.00000000
_symmetry_Int_Tables_number   1
_chemical_formula_structural   K3Cu(NO3)5
_chemical_formula_sum   'K12 Cu4 N20 O60'
_cell_volume   1452.68957854
_cell_formula_units_Z   4
loop_
 _symmetry_equiv_pos_site_id
 _symmetry_equiv_pos_as_xyz
  1  'x, y, z'
loop_
 _atom_site_type_symbol
 _atom_site_label
 _atom_site_symmetry_multiplicity
 _atom_site_fract_x
 _atom_site_fract_y
 _atom_site_fract_z
 _atom_site_occupancy
  K  K0  1  0.52776300  0.72592300  0.05085800  1
  K  K1  1  0.04038200  0.73836000  0.95636000  1
  K  K2  1  0.97223700  0.72592300  0.55085800  1
  K  K3  1  0.54038200  0.26164000  0.54364000  1
  K  K4  1  0.77139200  0.60981200  0.28673400  1
  K  K5  1  0.45961800  0.73836000  0.45636000  1
  K  K6  1  0.22860800  0.39018800  0.71326600  1
  K  K7  1  0.72860800  0.60981200  0.78673400  1
  K  K8  1  0.02776300  0.27407700  0.44914200  1
  K  K9  1  0.47223700  0.27407700  0.94914200  1
  K  K10  1  0.95961800  0.26164000  0.04364000  1
  K  K11  1  0.27139200  0.39018800  0.21326600  1
  Cu  Cu0  1  0.77337600  0.07928200  0.68003800  1
  Cu  Cu1  1  0.22662400  0.92071800  0.31996200  1
  Cu  Cu2  1  0.72662400  0.07928200  0.18003800  1
  Cu  Cu3  1  0.27337600  0.92071800  0.81996200  1
  N  N0  1  0.20649900  0.14242500  0.96972600  1
  N  N1  1  0.80484600  0.34768800  0.55196300  1
  N  N2  1  0.70649900  0.85757500  0.53027400  1
  N  N3  1  0.36806700  0.96316700  0.17005400  1
  N  N4  1  0.69515400  0.34768800  0.05196300  1
  N  N5  1  0.13193300  0.96316700  0.67005400  1
  N  N6  1  0.30484600  0.65231200  0.94803700  1
  N  N7  1  0.92344600  0.03777900  0.80241900  1
  N  N8  1  0.79350100  0.85757500  0.03027400  1
  N  N9  1  0.86806700  0.03683300  0.32994600  1
  N  N10  1  0.42344600  0.96222100  0.69758100  1
  N  N11  1  0.99551100  0.46123000  0.76071000  1
  N  N12  1  0.57655400  0.03777900  0.30241900  1
  N  N13  1  0.63193300  0.03683300  0.82994600  1
  N  N14  1  0.07655400  0.96222100  0.19758100  1
  N  N15  1  0.19515400  0.65231200  0.44803700  1
  N  N16  1  0.50448900  0.46123000  0.26071000  1
  N  N17  1  0.29350100  0.14242500  0.46972600  1
  N  N18  1  0.49551100  0.53877000  0.73929000  1
  N  N19  1  0.00448900  0.53877000  0.23929000  1
  O  O0  1  0.48947200  0.95122300  0.63113600  1
  O  O1  1  0.84573800  0.21246500  0.57260300  1
  O  O2  1  0.91957500  0.53662500  0.76135300  1
  O  O3  1  0.86017700  0.14883600  0.80252700  1
  O  O4  1  0.63982300  0.14883600  0.30252700  1
  O  O5  1  0.96131600  0.56509400  0.14814600  1
  O  O6  1  0.84337600  0.79584200  0.95762500  1
  O  O7  1  0.53868400  0.56509400  0.64814600  1
  O  O8  1  0.84367200  0.44099500  0.48539900  1
  O  O9  1  0.34573800  0.78753500  0.92739700  1
  O  O10  1  0.58615200  0.92499900  0.23531900  1
  O  O11  1  0.98947200  0.04877700  0.86886400  1
  O  O12  1  0.46967300  0.41579800  0.16879400  1
  O  O13  1  0.08042500  0.46337500  0.23864700  1
  O  O14  1  0.58042500  0.53662500  0.26135300  1
  O  O15  1  0.27073200  0.62302500  0.40062500  1
  O  O16  1  0.80045500  0.95048400  0.28964400  1
  O  O17  1  0.62406700  0.17755400  0.79593600  1
  O  O18  1  0.46131600  0.43490600  0.35185400  1
  O  O19  1  0.30826100  0.99339700  0.44398500  1
  O  O20  1  0.22926800  0.62302500  0.90062500  1
  O  O21  1  0.42057400  0.02480500  0.09976300  1
  O  O22  1  0.08615200  0.07500100  0.26468100  1
  O  O23  1  0.41957500  0.46337500  0.73864700  1
  O  O24  1  0.72926800  0.37697500  0.59937500  1
  O  O25  1  0.96967300  0.58420200  0.33120600  1
  O  O26  1  0.77063800  0.78474700  0.57919300  1
  O  O27  1  0.41384800  0.07500100  0.76468100  1
  O  O28  1  0.69173900  0.00660300  0.55601500  1
  O  O29  1  0.01052800  0.95122300  0.13113600  1
  O  O30  1  0.19954500  0.04951600  0.71035600  1
  O  O31  1  0.03868400  0.43490600  0.85185400  1
  O  O32  1  0.15426200  0.78753500  0.42739700  1
  O  O33  1  0.15662400  0.20415800  0.04237500  1
  O  O34  1  0.72936200  0.78474700  0.07919300  1
  O  O35  1  0.65632800  0.44099500  0.98539900  1
  O  O36  1  0.19173900  0.99339700  0.94398500  1
  O  O37  1  0.80826100  0.00660300  0.05601500  1
  O  O38  1  0.22936200  0.21525300  0.42080700  1
  O  O39  1  0.77073200  0.37697500  0.09937500  1
  O  O40  1  0.91384800  0.92499900  0.73531900  1
  O  O41  1  0.92057400  0.97519500  0.40023700  1
  O  O42  1  0.27063800  0.21525300  0.92080700  1
  O  O43  1  0.12406700  0.82244600  0.70406400  1
  O  O44  1  0.87593300  0.17755400  0.29593600  1
  O  O45  1  0.34337600  0.20415800  0.54237500  1
  O  O46  1  0.15632800  0.55900500  0.51460100  1
  O  O47  1  0.36017700  0.85116400  0.69747300  1
  O  O48  1  0.07942600  0.02480500  0.59976300  1
  O  O49  1  0.13982300  0.85116400  0.19747300  1
  O  O50  1  0.65662400  0.79584200  0.45762500  1
  O  O51  1  0.37593300  0.82244600  0.20406400  1
  O  O52  1  0.65426200  0.21246500  0.07260300  1
  O  O53  1  0.57942600  0.97519500  0.90023700  1
  O  O54  1  0.53032700  0.58420200  0.83120600  1
  O  O55  1  0.51052800  0.04877700  0.36886400  1
  O  O56  1  0.30045500  0.04951600  0.21035600  1
  O  O57  1  0.34367200  0.55900500  0.01460100  1
  O  O58  1  0.03032700  0.41579800  0.66879400  1
  O  O59  1  0.69954500  0.95048400  0.78964400  1
loop_
_geom_bond_atom_site_label_1
_geom_bond_atom_site_label_2
_geom_bond_distance
_geom_bond_site_symmetry_2
K0 O53 2.854266 1_554
K0 O54 2.887429 1_554
K0 O10 2.900275 1_555
K0 O51 2.973900 1_555
K0 O34 2.976814 1_555
K0 O21 3.013947 1_565
K0 O57 3.042096 1_555
K0 O9 3.059807 1_554
K0 O14 3.063743 1_555
K0 O12 3.074673 1_555
K0 O35 3.136211 1_554
K1 O29 2.791332 1_556
K1 O31 2.848215 1_555
K1 O6 2.889877 1_455
K1 O11 2.902111 1_465
K1 O5 2.938927 1_456
K1 O20 2.975521 1_555
K1 O36 3.068119 1_555
K2 O41 2.854266 1_555
K2 O25 2.887429 1_555
K2 O40 2.900275 1_555
K2 O43 2.973900 1_655
K2 O26 2.976814 1_555
K2 O48 3.013947 1_665
K2 O46 3.042096 1_655
K2 O32 3.059807 1_655
K2 O2 3.063743 1_555
K2 O58 3.074673 1_655
K2 O8 3.136211 1_555
K3 O55 2.791332 1_555
K3 O7 2.848215 1_555
K3 O45 2.889877 1_555
K3 O0 2.902111 1_545
K3 O18 2.938927 1_555
K3 O24 2.975521 1_555
K3 O28 3.068119 1_555
K4 O14 2.846104 1_555
K4 O16 2.897195 1_555
K4 O25 2.923979 1_555
K4 O34 2.938323 1_555
K4 O8 2.949121 1_555
K4 O39 2.982016 1_555
K4 O50 3.066687 1_555
K4 O5 3.229692 1_555
K5 O0 2.791332 1_555
K5 O18 2.848215 1_555
K5 O50 2.889877 1_555
K5 O55 2.902111 1_565
K5 O7 2.938927 1_555
K5 O15 2.975521 1_555
K5 O19 3.068119 1_555
K6 O23 2.846104 1_555
K6 O30 2.897195 1_555
K6 O58 2.923979 1_555
K6 O42 2.938323 1_555
K6 O46 2.949121 1_555
K6 O20 2.982016 1_555
K6 O45 3.066687 1_555
K6 O31 3.229692 1_555
K7 O2 2.846104 1_555
K7 O59 2.897195 1_555
K7 O54 2.923979 1_555
K7 O26 2.938323 1_555
K7 O35 2.949121 1_555
K7 O24 2.982016 1_555
K7 O6 3.066687 1_555
K7 O7 3.229692 1_555
K8 O48 2.854266 1_555
K8 O58 2.887429 1_555
K8 O22 2.900275 1_555
K8 O44 2.973900 1_455
K8 O38 2.976814 1_555
K8 O41 3.013947 1_445
K8 O8 3.042096 1_455
K8 O1 3.059807 1_455
K8 O13 3.063743 1_555
K8 O25 3.074673 1_455
K8 O46 3.136211 1_555
K9 O21 2.854266 1_556
K9 O12 2.887429 1_556
K9 O27 2.900275 1_555
K9 O17 2.973900 1_555
K9 O42 2.976814 1_555
K9 O53 3.013947 1_545
K9 O35 3.042096 1_555
K9 O52 3.059807 1_556
K9 O23 3.063743 1_555
K9 O54 3.074673 1_555
K9 O57 3.136211 1_556
K10 O11 2.791332 1_554
K10 O5 2.848215 1_555
K10 O33 2.889877 1_655
K10 O29 2.902111 1_645
K10 O31 2.938927 1_654
K10 O39 2.975521 1_555
K10 O37 3.068119 1_555
K11 O13 2.846104 1_555
K11 O56 2.897195 1_555
K11 O12 2.923979 1_555
K11 O38 2.938323 1_555
K11 O57 2.949121 1_555
K11 O15 2.982016 1_555
K11 O33 3.066687 1_555
K11 O18 3.229692 1_555
Cu0 O28 1.992745 1_555
Cu0 O1 1.994853 1_555
Cu0 O59 2.002608 1_545
Cu0 O3 2.016682 1_555
Cu1 O19 1.992745 1_555
Cu1 O32 1.994853 1_555
Cu1 O56 2.002608 1_565
Cu1 O49 2.016682 1_555
Cu2 O37 1.992745 1_555
Cu2 O52 1.994853 1_555
Cu2 O16 2.002608 1_545
Cu2 O4 2.016682 1_555
Cu3 O36 1.992745 1_555
Cu3 O9 1.994853 1_555
Cu3 O30 2.002608 1_565
Cu3 O47 2.016682 1_555
N0 O33 1.244034 1_556
N0 O42 1.254117 1_555
N0 O36 1.310152 1_545
N1 O8 1.247370 1_555
N1 O24 1.255956 1_555
N1 O1 1.304402 1_555
N2 O50 1.244034 1_555
N2 O26 1.254117 1_555
N2 O28 1.310152 1_565
N3 O21 1.242916 1_565
N3 O51 1.254556 1_555
N3 O56 1.311274 1_565
N4 O35 1.247370 1_554
N4 O39 1.255956 1_555
N4 O52 1.304402 1_555
N5 O48 1.242916 1_565
N5 O43 1.254556 1_555
N5 O30 1.311274 1_565
N6 O57 1.247370 1_556
N6 O20 1.255956 1_555
N6 O9 1.304402 1_555
N7 O11 1.245211 1_555
N7 O40 1.253085 1_545
N7 O3 1.307750 1_555
N8 O6 1.244034 1_554
N8 O34 1.254117 1_555
N8 O37 1.310152 1_565
N9 O41 1.242916 1_545
N9 O44 1.254556 1_555
N9 O16 1.311274 1_545
N10 O0 1.245211 1_555
N10 O27 1.253085 1_565
N10 O47 1.307750 1_555
N11 O2 1.268248 1_555
N11 O58 1.268418 1_655
N11 O31 1.272929 1_655
N12 O55 1.245211 1_555
N12 O10 1.253085 1_545
N12 O4 1.307750 1_555
N13 O53 1.242916 1_545
N13 O17 1.254556 1_555
N13 O59 1.311274 1_545
N14 O29 1.245211 1_555
N14 O22 1.253085 1_565
N14 O49 1.307750 1_555
N15 O46 1.247370 1_555
N15 O15 1.255956 1_555
N15 O32 1.304402 1_555
N16 O14 1.268248 1_555
N16 O12 1.268418 1_555
N16 O18 1.272929 1_555
N17 O45 1.244034 1_555
N17 O38 1.254117 1_555
N17 O19 1.310152 1_545
N18 O23 1.268248 1_555
N18 O54 1.268418 1_555
N18 O7 1.272929 1_555
N19 O13 1.268248 1_555
N19 O25 1.268418 1_455
N19 O5 1.272929 1_455
