# generated using pymatgen
data_Eu2I2O
_symmetry_space_group_name_H-M   'P 1'
_cell_length_a   6.41113134
_cell_length_b   7.51917391
_cell_length_c   8.07691598
_cell_angle_alpha   117.65743194
_cell_angle_beta   113.38327909
_cell_angle_gamma   89.99999479
_symmetry_Int_Tables_number   1
_chemical_formula_structural   Eu2I2O
_chemical_formula_sum   'Eu4 I4 O2'
_cell_volume   308.31229941
_cell_formula_units_Z   2
loop_
 _symmetry_equiv_pos_site_id
 _symmetry_equiv_pos_as_xyz
  1  'x, y, z'
loop_
 _atom_site_type_symbol
 _atom_site_label
 _atom_site_symmetry_multiplicity
 _atom_site_fract_x
 _atom_site_fract_y
 _atom_site_fract_z
 _atom_site_occupancy
  Eu  Eu0  1  0.91020556  0.58351685  0.82040912  1
  Eu  Eu1  1  0.58974918  0.76290320  0.17950036  1
  Eu  Eu2  1  0.41025082  0.23709680  0.82049964  1
  Eu  Eu3  1  0.08979444  0.41648315  0.17959088  1
  I  I0  1  0.14873168  -0.00059582  0.29746536  1
  I  I1  1  0.64869660  0.29682953  0.29739521  1
  I  I2  1  0.35130340  0.70317047  0.70260479  1
  I  I3  1  0.85126832  0.00059582  0.70253464  1
  O  O0  1  0.74999556  0.50000000  -0.00000000  1
  O  O1  1  0.25000444  0.50000000  0.00000000  1
loop_
_geom_bond_atom_site_label_1
_geom_bond_atom_site_label_2
_geom_bond_distance
_geom_bond_site_symmetry_2
Eu0 O1 2.362550 1_656
Eu0 O0 2.362559 1_556
Eu0 I0 3.331805 1_666
Eu0 I1 3.350691 1_555
Eu0 I2 3.555641 1_555
Eu0 I2 3.555641 1_655
Eu0 I3 3.656581 1_565
Eu1 O1 2.363631 1_555
Eu1 O0 2.363640 1_555
Eu1 I2 3.330970 1_554
Eu1 I3 3.349661 1_565
Eu1 I0 3.553846 1_565
Eu1 I0 3.553846 1_665
Eu1 I1 3.651378 1_565
Eu2 O0 2.363631 1_556
Eu2 O1 2.363640 1_556
Eu2 I1 3.330970 1_556
Eu2 I0 3.349661 1_555
Eu2 I3 3.553846 1_555
Eu2 I3 3.553846 1_455
Eu2 I2 3.651378 1_545
Eu3 O0 2.362550 1_455
Eu3 O1 2.362559 1_555
Eu3 I3 3.331805 1_454
Eu3 I2 3.350691 1_555
Eu3 I1 3.555641 1_555
Eu3 I1 3.555641 1_455
Eu3 I0 3.656581 1_555
