# generated using pymatgen
data_Na2Si2O5
_symmetry_space_group_name_H-M   'P 1'
_cell_length_a   11.95131475
_cell_length_b   4.81801101
_cell_length_c   9.62296896
_cell_angle_alpha   60.57649625
_cell_angle_beta   90.00000000
_cell_angle_gamma   90.00000000
_symmetry_Int_Tables_number   1
_chemical_formula_structural   Na2Si2O5
_chemical_formula_sum   'Na8 Si8 O20'
_cell_volume   482.63284621
_cell_formula_units_Z   4
loop_
 _symmetry_equiv_pos_site_id
 _symmetry_equiv_pos_as_xyz
  1  'x, y, z'
loop_
 _atom_site_type_symbol
 _atom_site_label
 _atom_site_symmetry_multiplicity
 _atom_site_fract_x
 _atom_site_fract_y
 _atom_site_fract_z
 _atom_site_occupancy
  Na  Na0  1  0.99646850  0.61075704  0.63044303  1
  Na  Na1  1  0.03652433  0.88832187  0.88042691  1
  Na  Na2  1  0.50353150  0.61075704  0.13044303  1
  Na  Na3  1  0.49646850  0.38924296  0.86955697  1
  Na  Na4  1  0.46347567  0.88832187  0.38042691  1
  Na  Na5  1  0.53652433  0.11167813  0.61957309  1
  Na  Na6  1  0.00353150  0.38924296  0.36955697  1
  Na  Na7  1  0.96347567  0.11167813  0.11957309  1
  Si  Si0  1  0.17817309  0.98216822  0.32406278  1
  Si  Si1  1  0.69649931  0.64042767  0.55081135  1
  Si  Si2  1  0.80350069  0.64042767  0.05081135  1
  Si  Si3  1  0.30350069  0.35957233  0.44918865  1
  Si  Si4  1  0.82182691  0.01783178  0.67593722  1
  Si  Si5  1  0.67817309  0.01783178  0.17593722  1
  Si  Si6  1  0.32182691  0.98216822  0.82406278  1
  Si  Si7  1  0.19649931  0.35957233  0.94918865  1
  O  O0  1  0.70292027  0.72190966  0.14080772  1
  O  O1  1  0.55167712  0.12615787  0.13416412  1
  O  O2  1  0.05167712  0.87384213  0.36583588  1
  O  O3  1  0.44832288  0.87384213  0.86583588  1
  O  O4  1  0.22736796  0.71167243  0.92734957  1
  O  O5  1  0.07341868  0.36374880  0.88574701  1
  O  O6  1  0.29176261  0.10372164  0.63812049  1
  O  O7  1  0.27263204  0.71167243  0.42734957  1
  O  O8  1  0.70823739  0.89627836  0.36187951  1
  O  O9  1  0.92658132  0.63625120  0.11425299  1
  O  O10  1  0.77263204  0.28832757  0.07265043  1
  O  O11  1  0.57341868  0.63625120  0.61425299  1
  O  O12  1  0.42658132  0.36374880  0.38574701  1
  O  O13  1  0.79176261  0.89627836  0.86187951  1
  O  O14  1  0.20292027  0.27809034  0.35919228  1
  O  O15  1  0.20823739  0.10372164  0.13812049  1
  O  O16  1  0.72736796  0.28832757  0.57265043  1
  O  O17  1  0.29707973  0.27809034  0.85919228  1
  O  O18  1  0.94832288  0.12615787  0.63416412  1
  O  O19  1  0.79707973  0.72190966  0.64080772  1
loop_
_geom_bond_atom_site_label_1
_geom_bond_atom_site_label_2
_geom_bond_distance
_geom_bond_site_symmetry_2
Na0 O2 2.313991 1_655
Na0 O5 2.329199 1_655
Na0 O18 2.387789 1_555
Na0 O19 2.455140 1_555
Na0 O18 2.566330 1_565
Na1 O18 2.317768 1_465
Na1 O5 2.357789 1_565
Na1 O9 2.362091 1_456
Na1 O4 2.398513 1_555
Na1 O5 2.541193 1_555
Na2 O3 2.313991 1_554
Na2 O12 2.329199 1_555
Na2 O1 2.387789 1_555
Na2 O0 2.455140 1_555
Na2 O1 2.566330 1_565
Na3 O1 2.313991 1_556
Na3 O11 2.329199 1_555
Na3 O3 2.387789 1_555
Na3 O17 2.455140 1_555
Na3 O3 2.566330 1_545
Na4 O1 2.317768 1_565
Na4 O12 2.357789 1_565
Na4 O11 2.362091 1_555
Na4 O7 2.398513 1_555
Na4 O12 2.541193 1_555
Na5 O3 2.317768 1_545
Na5 O11 2.357789 1_545
Na5 O12 2.362091 1_555
Na5 O16 2.398513 1_555
Na5 O11 2.541193 1_555
Na6 O18 2.313991 1_455
Na6 O9 2.329199 1_455
Na6 O2 2.387789 1_555
Na6 O14 2.455140 1_555
Na6 O2 2.566330 1_545
Na7 O2 2.317768 1_645
Na7 O9 2.357789 1_545
Na7 O5 2.362091 1_654
Na7 O10 2.398513 1_555
Na7 O9 2.541193 1_555
O0 Si2 1.638031 1_555
O0 Si5 1.645626 1_565
O1 Si5 1.585361 1_555
O2 Si0 1.585361 1_555
O3 Si6 1.585361 1_555
O4 Si6 1.639540 1_555
O4 Si7 1.645549 1_555
O5 Si7 1.588965 1_555
O6 Si3 1.625630 1_555
O6 Si6 1.626083 1_545
O7 Si0 1.639540 1_555
O7 Si3 1.645549 1_555
O8 Si1 1.625630 1_555
O8 Si5 1.626083 1_565
O9 Si2 1.588965 1_555
O10 Si5 1.639540 1_555
O10 Si2 1.645549 1_555
O11 Si1 1.588965 1_555
O12 Si3 1.588965 1_555
O13 Si2 1.625630 1_556
O13 Si4 1.626083 1_565
O14 Si3 1.638031 1_555
O14 Si0 1.645626 1_545
O15 Si7 1.625630 1_554
O15 Si0 1.626083 1_545
O16 Si4 1.639540 1_555
O16 Si1 1.645549 1_555
O17 Si7 1.638031 1_555
O17 Si6 1.645626 1_545
O18 Si4 1.585361 1_555
O19 Si1 1.638031 1_555
O19 Si4 1.645626 1_565
