# generated using pymatgen
data_PbWO4
_symmetry_space_group_name_H-M   'P 1'
_cell_length_a   5.84351800
_cell_length_b   7.91701800
_cell_length_c   7.98959932
_cell_angle_alpha   74.74560712
_cell_angle_beta   90.00000000
_cell_angle_gamma   90.00000000
_symmetry_Int_Tables_number   1
_chemical_formula_structural   PbWO4
_chemical_formula_sum   'Pb4 W4 O16'
_cell_volume   356.60179737
_cell_formula_units_Z   4
loop_
 _symmetry_equiv_pos_site_id
 _symmetry_equiv_pos_as_xyz
  1  'x, y, z'
loop_
 _atom_site_type_symbol
 _atom_site_label
 _atom_site_symmetry_multiplicity
 _atom_site_fract_x
 _atom_site_fract_y
 _atom_site_fract_z
 _atom_site_occupancy
  Pb  Pb0  1  0.25268800  0.36744600  0.41648200  1
  Pb  Pb1  1  0.24731200  0.36744600  0.91648200  1
  Pb  Pb2  1  0.75268800  0.63255400  0.08351800  1
  Pb  Pb3  1  0.74731200  0.63255400  0.58351800  1
  W  W0  1  0.74958600  0.17162200  0.72783800  1
  W  W1  1  0.75041400  0.17162200  0.22783800  1
  W  W2  1  0.24958600  0.82837800  0.77216200  1
  W  W3  1  0.25041400  0.82837800  0.27216200  1
  O  O0  1  0.24090000  0.83604400  0.03771500  1
  O  O1  1  0.97297800  0.35282700  0.65872000  1
  O  O2  1  0.52746000  0.35638700  0.66512400  1
  O  O3  1  0.52702200  0.35282700  0.15872000  1
  O  O4  1  0.25910000  0.83604400  0.53771500  1
  O  O5  1  0.49343100  0.00367000  0.75381500  1
  O  O6  1  0.02746000  0.64361300  0.83487600  1
  O  O7  1  0.75910000  0.16395600  0.96228500  1
  O  O8  1  0.74090000  0.16395600  0.46228500  1
  O  O9  1  0.99343100  0.99633000  0.74618500  1
  O  O10  1  0.50656900  0.99633000  0.24618500  1
  O  O11  1  0.47297800  0.64717300  0.84128000  1
  O  O12  1  0.97254000  0.35638700  0.16512400  1
  O  O13  1  0.00656900  0.00367000  0.25381500  1
  O  O14  1  0.02702200  0.64717300  0.34128000  1
  O  O15  1  0.47254000  0.64361300  0.33487600  1
loop_
_geom_bond_atom_site_label_1
_geom_bond_atom_site_label_2
_geom_bond_distance
_geom_bond_site_symmetry_2
O0 W3 1.858924 1_555
O0 W2 2.139034 1_554
O1 W0 1.910555 1_555
O1 Pb3 2.510820 1_555
O1 Pb0 2.512528 1_655
O1 Pb1 2.636259 1_655
O2 W0 1.920917 1_555
O2 Pb3 2.471007 1_555
O2 Pb0 2.537831 1_555
O2 Pb1 2.610209 1_555
O3 W1 1.910555 1_555
O3 Pb2 2.510820 1_555
O3 Pb1 2.512528 1_554
O3 Pb0 2.636259 1_555
O4 W2 1.858924 1_555
O4 W3 2.139034 1_555
O5 W2 1.967429 1_545
O5 W0 1.976475 1_555
O6 W2 1.920917 1_555
O6 Pb1 2.471007 1_555
O6 Pb2 2.537831 1_456
O6 Pb3 2.610209 1_455
O7 W0 1.858924 1_555
O7 W1 2.139034 1_556
O8 W1 1.858924 1_555
O8 W0 2.139034 1_555
O9 W0 1.967429 1_565
O9 W2 1.976475 1_655
O10 W1 1.967429 1_565
O10 W3 1.976475 1_555
O11 W2 1.910555 1_555
O11 Pb1 2.510820 1_555
O11 Pb2 2.512528 1_556
O11 Pb3 2.636259 1_555
O12 W1 1.920917 1_555
O12 Pb2 2.471007 1_555
O12 Pb1 2.537831 1_654
O12 Pb0 2.610209 1_655
O13 W3 1.967429 1_545
O13 W1 1.976475 1_455
O14 W3 1.910555 1_555
O14 Pb0 2.510820 1_555
O14 Pb3 2.512528 1_455
O14 Pb2 2.636259 1_455
O15 W3 1.920917 1_555
O15 Pb0 2.471007 1_555
O15 Pb3 2.537831 1_555
O15 Pb2 2.610209 1_555
