# generated using pymatgen
data_Rb4CO4
_symmetry_space_group_name_H-M   'P 1'
_cell_length_a   5.76540500
_cell_length_b   5.76540500
_cell_length_c   5.76540500
_cell_angle_alpha   90.00000000
_cell_angle_beta   90.00000000
_cell_angle_gamma   90.00000000
_symmetry_Int_Tables_number   1
_chemical_formula_structural   Rb4CO4
_chemical_formula_sum   'Rb4 C1 O4'
_cell_volume   191.64145576
_cell_formula_units_Z   1
loop_
 _symmetry_equiv_pos_site_id
 _symmetry_equiv_pos_as_xyz
  1  'x, y, z'
loop_
 _atom_site_type_symbol
 _atom_site_label
 _atom_site_symmetry_multiplicity
 _atom_site_fract_x
 _atom_site_fract_y
 _atom_site_fract_z
 _atom_site_occupancy
  Rb  Rb0  1  0.27774000  0.27774000  0.27774000  1
  Rb  Rb1  1  0.72226000  0.72226000  0.27774000  1
  Rb  Rb2  1  0.27774000  0.72226000  0.72226000  1
  Rb  Rb3  1  0.72226000  0.27774000  0.72226000  1
  C  C0  1  0.00000000  0.00000000  0.00000000  1
  O  O0  1  0.85495500  0.85495500  0.85495500  1
  O  O1  1  0.85495500  0.14504500  0.14504500  1
  O  O2  1  0.14504500  0.85495500  0.14504500  1
  O  O3  1  0.14504500  0.14504500  0.85495500  1
loop_
_geom_bond_atom_site_label_1
_geom_bond_atom_site_label_2
_geom_bond_distance
_geom_bond_site_symmetry_2
C0 O0 1.448416 1_444
C0 O3 1.448416 1_554
C0 O2 1.448416 1_545
C0 O1 1.448416 1_455
O0 Rb2 2.666854 1_655
O0 Rb3 2.666854 1_565
O0 Rb1 2.666854 1_556
O1 Rb1 2.666854 1_545
O1 Rb3 2.666854 1_554
O1 Rb0 2.666854 1_655
O2 Rb2 2.666854 1_554
O2 Rb1 2.666854 1_455
O2 Rb0 2.666854 1_565
O3 Rb2 2.666854 1_545
O3 Rb3 2.666854 1_455
O3 Rb0 2.666854 1_556
