# generated using pymatgen
data_Er3B5O12
_symmetry_space_group_name_H-M   'P 1'
_cell_length_a   4.63898800
_cell_length_b   12.57301500
_cell_length_c   12.88483600
_cell_angle_alpha   90.00000000
_cell_angle_beta   90.00000000
_cell_angle_gamma   90.00000000
_symmetry_Int_Tables_number   1
_chemical_formula_structural   Er3B5O12
_chemical_formula_sum   'Er12 B20 O48'
_cell_volume   751.52179118
_cell_formula_units_Z   4
loop_
 _symmetry_equiv_pos_site_id
 _symmetry_equiv_pos_as_xyz
  1  'x, y, z'
loop_
 _atom_site_type_symbol
 _atom_site_label
 _atom_site_symmetry_multiplicity
 _atom_site_fract_x
 _atom_site_fract_y
 _atom_site_fract_z
 _atom_site_occupancy
  Er  Er0  1  0.99946800  0.69260700  0.63527600  1
  Er  Er1  1  0.00053200  0.30739300  0.36472400  1
  Er  Er2  1  0.00053200  0.19260700  0.86472400  1
  Er  Er3  1  0.99946800  0.80739300  0.86472400  1
  Er  Er4  1  0.00000000  0.50000000  0.13221200  1
  Er  Er5  1  0.00053200  0.19260700  0.13527600  1
  Er  Er6  1  0.00000000  0.50000000  0.86778800  1
  Er  Er7  1  0.00053200  0.30739300  0.63527600  1
  Er  Er8  1  0.00000000  0.00000000  0.63221200  1
  Er  Er9  1  0.99946800  0.69260700  0.36472400  1
  Er  Er10  1  0.99946800  0.80739300  0.13527600  1
  Er  Er11  1  0.00000000  0.00000000  0.36778800  1
  B  B0  1  0.50000000  0.50000000  0.33823600  1
  B  B1  1  0.50000000  0.00000000  0.83823600  1
  B  B2  1  0.53953900  0.84938500  0.50000000  1
  B  B3  1  0.52941200  0.15144000  0.70181600  1
  B  B4  1  0.53953900  0.65061500  0.00000000  1
  B  B5  1  0.47058800  0.65144000  0.20181600  1
  B  B6  1  0.52941200  0.34856000  0.79818400  1
  B  B7  1  0.45681200  0.37474400  0.50000000  1
  B  B8  1  0.50000000  0.00000000  0.16176400  1
  B  B9  1  0.47058800  0.84856000  0.70181600  1
  B  B10  1  0.45681200  0.12525600  0.00000000  1
  B  B11  1  0.46046100  0.34938500  0.00000000  1
  B  B12  1  0.47058800  0.84856000  0.29818400  1
  B  B13  1  0.46046100  0.15061500  0.50000000  1
  B  B14  1  0.47058800  0.65144000  0.79818400  1
  B  B15  1  0.54318800  0.62525600  0.50000000  1
  B  B16  1  0.54318800  0.87474400  0.00000000  1
  B  B17  1  0.52941200  0.15144000  0.29818400  1
  B  B18  1  0.50000000  0.50000000  0.66176400  1
  B  B19  1  0.52941200  0.34856000  0.20181600  1
  O  O0  1  0.31181900  0.56490600  0.73354100  1
  O  O1  1  0.65644500  0.14581600  0.40506300  1
  O  O2  1  0.66486600  0.57345400  0.40408300  1
  O  O3  1  0.31181900  0.93509400  0.76645900  1
  O  O4  1  0.65688600  0.25000000  0.25000000  1
  O  O5  1  0.66486600  0.92654600  0.90408300  1
  O  O6  1  0.68818100  0.43509400  0.26645900  1
  O  O7  1  0.24034700  0.42827500  0.00000000  1
  O  O8  1  0.33513400  0.42654600  0.59591700  1
  O  O9  1  0.77901000  0.84819300  0.70430100  1
  O  O10  1  0.34311400  0.75000000  0.75000000  1
  O  O11  1  0.31181900  0.56490600  0.26645900  1
  O  O12  1  0.68818100  0.06490600  0.76645900  1
  O  O13  1  0.22099000  0.15180700  0.29569900  1
  O  O14  1  0.24034700  0.07172500  0.50000000  1
  O  O15  1  0.69585400  0.76288700  0.00000000  1
  O  O16  1  0.75765600  0.36139800  0.50000000  1
  O  O17  1  0.68818100  0.06490600  0.23354100  1
  O  O18  1  0.65644500  0.35418400  0.09493700  1
  O  O19  1  0.34355500  0.85418400  0.59493700  1
  O  O20  1  0.34311400  0.75000000  0.25000000  1
  O  O21  1  0.65688600  0.25000000  0.75000000  1
  O  O22  1  0.34355500  0.85418400  0.40506300  1
  O  O23  1  0.66486600  0.92654600  0.09591700  1
  O  O24  1  0.33513400  0.07345400  0.90408300  1
  O  O25  1  0.77901000  0.65180700  0.79569900  1
  O  O26  1  0.75965300  0.57172500  0.00000000  1
  O  O27  1  0.22099000  0.34819300  0.79569900  1
  O  O28  1  0.69585400  0.73711300  0.50000000  1
  O  O29  1  0.77901000  0.84819300  0.29569900  1
  O  O30  1  0.31181900  0.93509400  0.23354100  1
  O  O31  1  0.65644500  0.14581600  0.59493700  1
  O  O32  1  0.30414600  0.26288700  0.50000000  1
  O  O33  1  0.66486600  0.57345400  0.59591700  1
  O  O34  1  0.24234400  0.86139800  0.00000000  1
  O  O35  1  0.22099000  0.34819300  0.20430100  1
  O  O36  1  0.77901000  0.65180700  0.20430100  1
  O  O37  1  0.65644500  0.35418400  0.90506300  1
  O  O38  1  0.33513400  0.42654600  0.40408300  1
  O  O39  1  0.22099000  0.15180700  0.70430100  1
  O  O40  1  0.33513400  0.07345400  0.09591700  1
  O  O41  1  0.68818100  0.43509400  0.73354100  1
  O  O42  1  0.34355500  0.64581600  0.90506300  1
  O  O43  1  0.75765600  0.13860200  0.00000000  1
  O  O44  1  0.75965300  0.92827500  0.50000000  1
  O  O45  1  0.34355500  0.64581600  0.09493700  1
  O  O46  1  0.24234400  0.63860200  0.50000000  1
  O  O47  1  0.30414600  0.23711300  0.00000000  1
loop_
_geom_bond_atom_site_label_1
_geom_bond_atom_site_label_2
_geom_bond_distance
_geom_bond_site_symmetry_2
Er0 O46 2.183708 1_655
Er0 O33 2.216054 1_555
Er0 O10 2.290669 1_655
Er0 O28 2.309755 1_555
Er0 O25 2.362553 1_555
Er0 O9 2.379825 1_555
Er0 O0 2.506106 1_655
Er0 O19 2.635354 1_655
Er1 O16 2.183708 1_455
Er1 O38 2.216054 1_555
Er1 O4 2.290669 1_455
Er1 O32 2.309755 1_555
Er1 O35 2.362553 1_555
Er1 O13 2.379825 1_555
Er1 O6 2.506106 1_455
Er1 O1 2.635354 1_455
Er2 O43 2.183708 1_456
Er2 O24 2.216054 1_555
Er2 O21 2.290669 1_455
Er2 O47 2.309755 1_556
Er2 O39 2.362553 1_555
Er2 O27 2.379825 1_555
Er2 O12 2.506106 1_455
Er2 O37 2.635354 1_455
Er3 O34 2.183708 1_656
Er3 O5 2.216054 1_555
Er3 O10 2.290669 1_655
Er3 O15 2.309755 1_556
Er3 O9 2.362553 1_555
Er3 O25 2.379825 1_555
Er3 O3 2.506106 1_655
Er3 O42 2.635354 1_655
Er4 O26 2.226748 1_455
Er4 O7 2.226748 1_555
Er4 O35 2.357281 1_555
Er4 O36 2.357281 1_455
Er4 O11 2.398006 1_555
Er4 O6 2.398006 1_455
Er4 O45 2.476260 1_555
Er4 O18 2.476260 1_455
Er5 O43 2.183708 1_455
Er5 O40 2.216054 1_555
Er5 O4 2.290669 1_455
Er5 O47 2.309755 1_555
Er5 O13 2.362553 1_555
Er5 O35 2.379825 1_555
Er5 O17 2.506106 1_455
Er5 O18 2.635354 1_455
Er6 O26 2.226748 1_456
Er6 O7 2.226748 1_556
Er6 O25 2.357281 1_455
Er6 O27 2.357281 1_555
Er6 O0 2.398006 1_555
Er6 O41 2.398006 1_455
Er6 O42 2.476260 1_555
Er6 O37 2.476260 1_455
Er7 O16 2.183708 1_455
Er7 O8 2.216054 1_555
Er7 O21 2.290669 1_455
Er7 O32 2.309755 1_555
Er7 O27 2.362553 1_555
Er7 O39 2.379825 1_555
Er7 O41 2.506106 1_455
Er7 O31 2.635354 1_455
Er8 O14 2.226748 1_555
Er8 O44 2.226748 1_445
Er8 O9 2.357281 1_445
Er8 O39 2.357281 1_555
Er8 O12 2.398006 1_455
Er8 O3 2.398006 1_545
Er8 O31 2.476260 1_455
Er8 O19 2.476260 1_545
Er9 O46 2.183708 1_655
Er9 O2 2.216054 1_555
Er9 O20 2.290669 1_655
Er9 O28 2.309755 1_555
Er9 O36 2.362553 1_555
Er9 O29 2.379825 1_555
Er9 O11 2.506106 1_655
Er9 O22 2.635354 1_655
Er10 O34 2.183708 1_655
Er10 O23 2.216054 1_555
Er10 O20 2.290669 1_655
Er10 O15 2.309755 1_555
Er10 O29 2.362553 1_555
Er10 O36 2.379825 1_555
Er10 O30 2.506106 1_655
Er10 O45 2.635354 1_655
Er11 O14 2.226748 1_555
Er11 O44 2.226748 1_445
Er11 O29 2.357281 1_445
Er11 O13 2.357281 1_555
Er11 O17 2.398006 1_455
Er11 O30 2.398006 1_545
Er11 O1 2.476260 1_455
Er11 O22 2.476260 1_545
B0 O2 1.468907 1_555
B0 O38 1.468907 1_555
B0 O6 1.511078 1_555
B0 O11 1.511078 1_555
B1 O24 1.468907 1_555
B1 O5 1.468907 1_545
B1 O12 1.511078 1_555
B1 O3 1.511078 1_545
B2 O44 1.423550 1_555
B2 O19 1.525307 1_555
B2 O22 1.525307 1_555
B2 O28 1.586960 1_555
B3 O39 1.431132 1_555
B3 O31 1.499578 1_555
B3 O21 1.506900 1_555
B3 O12 1.555618 1_555
B4 O26 1.423550 1_555
B4 O45 1.525307 1_555
B4 O42 1.525307 1_554
B4 O15 1.586960 1_555
B5 O36 1.431132 1_555
B5 O45 1.499578 1_555
B5 O20 1.506900 1_555
B5 O11 1.555618 1_555
B6 O27 1.431132 1_555
B6 O37 1.499578 1_555
B6 O21 1.506900 1_555
B6 O41 1.555618 1_555
B7 O16 1.405663 1_555
B7 O8 1.506720 1_555
B7 O38 1.506720 1_555
B7 O32 1.574634 1_555
B8 O40 1.468907 1_555
B8 O23 1.468907 1_545
B8 O17 1.511078 1_555
B8 O30 1.511078 1_545
B9 O9 1.431132 1_555
B9 O19 1.499578 1_555
B9 O10 1.506900 1_555
B9 O3 1.555618 1_555
B10 O43 1.405663 1_555
B10 O40 1.506720 1_555
B10 O24 1.506720 1_554
B10 O47 1.574634 1_555
B11 O7 1.423550 1_555
B11 O18 1.525307 1_555
B11 O37 1.525307 1_554
B11 O47 1.586960 1_555
B12 O29 1.431132 1_555
B12 O22 1.499578 1_555
B12 O20 1.506900 1_555
B12 O30 1.555618 1_555
B13 O14 1.423550 1_555
B13 O31 1.525307 1_555
B13 O1 1.525307 1_555
B13 O32 1.586960 1_555
B14 O25 1.431132 1_555
B14 O42 1.499578 1_555
B14 O10 1.506900 1_555
B14 O0 1.555618 1_555
B15 O46 1.405663 1_555
B15 O33 1.506720 1_555
B15 O2 1.506720 1_555
B15 O28 1.574634 1_555
B16 O34 1.405663 1_555
B16 O23 1.506720 1_555
B16 O5 1.506720 1_554
B16 O15 1.574634 1_555
B17 O13 1.431132 1_555
B17 O1 1.499578 1_555
B17 O4 1.506900 1_555
B17 O17 1.555618 1_555
B18 O33 1.468907 1_555
B18 O8 1.468907 1_555
B18 O41 1.511078 1_555
B18 O0 1.511078 1_555
B19 O35 1.431132 1_555
B19 O18 1.499578 1_555
B19 O4 1.506900 1_555
B19 O6 1.555618 1_555
