# generated using pymatgen
data_ErB3Mo
_symmetry_space_group_name_H-M   'P 1'
_cell_length_a   3.14853331
_cell_length_b   5.39644154
_cell_length_c   6.79574650
_cell_angle_alpha   101.79579805
_cell_angle_beta   90.00000000
_cell_angle_gamma   90.00000000
_symmetry_Int_Tables_number   1
_chemical_formula_structural   ErB3Mo
_chemical_formula_sum   'Er2 B6 Mo2'
_cell_volume   113.02732547
_cell_formula_units_Z   2
loop_
 _symmetry_equiv_pos_site_id
 _symmetry_equiv_pos_as_xyz
  1  'x, y, z'
loop_
 _atom_site_type_symbol
 _atom_site_label
 _atom_site_symmetry_multiplicity
 _atom_site_fract_x
 _atom_site_fract_y
 _atom_site_fract_z
 _atom_site_occupancy
  Er  Er0  1  0.75000000  0.17680961  0.71005828  1
  Er  Er1  1  0.25000000  0.82319039  0.28994172  1
  B  B0  1  0.25000000  0.41701774  0.47589434  1
  B  B1  1  0.75000000  0.58298226  0.52410566  1
  B  B2  1  0.25000000  0.41228989  0.99543136  1
  B  B3  1  0.75000000  0.58771011  0.00456864  1
  B  B4  1  0.25000000  0.08367264  0.99272023  1
  B  B5  1  0.75000000  0.91632736  0.00727977  1
  Mo  Mo0  1  0.75000000  0.31101134  0.22042933  1
  Mo  Mo1  1  0.25000000  0.68898866  0.77957067  1
loop_
_geom_bond_atom_site_label_1
_geom_bond_atom_site_label_2
_geom_bond_distance
_geom_bond_site_symmetry_2
B0 B1 1.807711 1_455
B0 B1 1.807711 1_555
B0 Mo1 2.274778 1_555
B0 Mo0 2.326689 1_555
B0 Mo0 2.326689 1_455
B0 Er1 2.744763 1_555
B0 Er0 2.744866 1_555
B0 Er0 2.744866 1_455
B0 Er1 3.195375 1_545
B1 Mo0 2.274778 1_555
B1 Mo1 2.326689 1_555
B1 Mo1 2.326689 1_655
B1 Er0 2.744763 1_555
B1 Er1 2.744866 1_655
B1 Er1 2.744866 1_555
B1 Er0 3.195375 1_565
B2 B4 1.769689 1_555
B2 B3 1.831468 1_456
B2 B3 1.831468 1_556
B2 Mo1 2.297184 1_555
B2 Mo0 2.335942 1_456
B2 Mo0 2.335942 1_556
B2 Er0 2.616590 1_555
B2 Er0 2.616590 1_455
B2 Er1 2.666100 1_556
B3 B5 1.769689 1_555
B3 Mo0 2.297184 1_555
B3 Mo1 2.335942 1_654
B3 Mo1 2.335942 1_554
B3 Er1 2.616590 1_555
B3 Er1 2.616590 1_655
B3 Er0 2.666100 1_554
B4 B5 1.827613 1_446
B4 B5 1.827613 1_546
B4 Mo1 2.318026 1_545
B4 Mo0 2.366820 1_456
B4 Mo0 2.366820 1_556
B4 Er0 2.610653 1_555
B4 Er0 2.610653 1_455
B4 Er1 2.686356 1_546
B5 Mo0 2.318026 1_565
B5 Mo1 2.366820 1_554
B5 Mo1 2.366820 1_654
B5 Er1 2.610653 1_655
B5 Er1 2.610653 1_555
B5 Er0 2.686356 1_564
