# generated using pymatgen
data_TlCr3O8
_symmetry_space_group_name_H-M   'P 1'
_cell_length_a   5.08627055
_cell_length_b   5.08644825
_cell_length_c   15.51590687
_cell_angle_alpha   94.74319813
_cell_angle_beta   94.73914946
_cell_angle_gamma   64.87007595
_symmetry_Int_Tables_number   1
_chemical_formula_structural   TlCr3O8
_chemical_formula_sum   'Tl2 Cr6 O16'
_cell_volume   361.67104056
_cell_formula_units_Z   2
loop_
 _symmetry_equiv_pos_site_id
 _symmetry_equiv_pos_as_xyz
  1  'x, y, z'
loop_
 _atom_site_type_symbol
 _atom_site_label
 _atom_site_symmetry_multiplicity
 _atom_site_fract_x
 _atom_site_fract_y
 _atom_site_fract_z
 _atom_site_occupancy
  Tl  Tl0  1  0.99971205  -0.00054973  0.00000470  1
  Tl  Tl1  1  0.00055776  0.00011414  0.49999804  1
  Cr  Cr0  1  -0.00014360  0.00013414  0.75000326  1
  Cr  Cr1  1  0.00010903  -0.00005673  0.24999036  1
  Cr  Cr2  1  0.37557447  0.37542880  0.35060080  1
  Cr  Cr3  1  0.37527461  0.37558093  0.85063058  1
  Cr  Cr4  1  0.62470311  0.62442992  0.14940227  1
  Cr  Cr5  1  0.62442292  0.62462256  0.64938707  1
  O  O0  1  0.22388307  0.22365191  0.27719681  1
  O  O1  1  0.22346223  0.22379733  0.77724514  1
  O  O2  1  0.77650739  0.77618422  0.22277801  1
  O  O3  1  0.77619509  0.77646436  0.72276268  1
  O  O4  1  0.32335574  0.32344414  0.44752347  1
  O  O5  1  0.32315411  0.32356414  0.94757428  1
  O  O6  1  0.67674293  0.67651150  0.05247099  1
  O  O7  1  0.67648530  0.67671062  0.55244935  1
  O  O8  1  0.73547638  0.23137057  0.33897825  1
  O  O9  1  0.73524321  0.23146954  0.83900001  1
  O  O10  1  0.76870134  0.26453735  0.16100201  1
  O  O11  1  0.76852738  0.26466328  0.66100852  1
  O  O12  1  0.26479824  0.76843539  0.16101543  1
  O  O13  1  0.26448152  0.76867848  0.66103109  1
  O  O14  1  0.23153864  0.73531062  0.33896791  1
  O  O15  1  0.23124005  0.73550151  0.83897597  1
loop_
_geom_bond_atom_site_label_1
_geom_bond_atom_site_label_2
_geom_bond_distance
_geom_bond_site_symmetry_2
Cr0 O1 1.925199 1_555
Cr0 O3 1.925457 1_445
Cr0 O11 1.948250 1_455
Cr0 O13 1.948264 1_545
Cr0 O15 1.948335 1_545
Cr0 O9 1.948352 1_455
Cr1 O2 1.925527 1_445
Cr1 O0 1.926027 1_555
Cr1 O8 1.948421 1_455
Cr1 O10 1.948443 1_455
Cr1 O14 1.948447 1_545
Cr1 O12 1.948522 1_545
Cr2 O4 1.610408 1_555
Cr2 O0 1.644299 1_555
Cr2 O8 1.677445 1_555
Cr2 O14 1.677460 1_555
Cr3 O5 1.610617 1_555
Cr3 O1 1.644519 1_555
Cr3 O15 1.677695 1_555
Cr3 O9 1.677765 1_555
Cr4 O6 1.610406 1_555
Cr4 O2 1.644310 1_555
Cr4 O10 1.677434 1_555
Cr4 O12 1.677445 1_555
Cr5 O7 1.610548 1_555
Cr5 O3 1.644481 1_555
Cr5 O13 1.677683 1_555
Cr5 O11 1.677779 1_555
O8 Tl1 2.832968 1_655
O9 Tl0 2.833172 1_556
O10 Tl0 2.832153 1_555
O11 Tl1 2.833201 1_655
O12 Tl0 2.832499 1_465
O13 Tl1 2.832081 1_565
O14 Tl1 2.832230 1_565
O15 Tl0 2.832028 1_466
