# generated using pymatgen
data_K2U2WO10
_symmetry_space_group_name_H-M   'P 1'
_cell_length_a   29.13646800
_cell_length_b   8.37314100
_cell_length_c   10.93894422
_cell_angle_alpha   55.37896732
_cell_angle_beta   90.00000000
_cell_angle_gamma   90.00000000
_symmetry_Int_Tables_number   1
_chemical_formula_structural   K2U2WO10
_chemical_formula_sum   'K16 U16 W8 O80'
_cell_volume   2196.15245014
_cell_formula_units_Z   8
loop_
 _symmetry_equiv_pos_site_id
 _symmetry_equiv_pos_as_xyz
  1  'x, y, z'
loop_
 _atom_site_type_symbol
 _atom_site_label
 _atom_site_symmetry_multiplicity
 _atom_site_fract_x
 _atom_site_fract_y
 _atom_site_fract_z
 _atom_site_occupancy
  K  K0  1  0.39526700  0.98380900  0.49950200  1
  K  K1  1  0.12219200  0.98387600  0.60488300  1
  K  K2  1  0.25060700  0.95966000  0.96709600  1
  K  K3  1  0.48173900  0.95098300  0.82730600  1
  K  K4  1  0.37780800  0.98387600  0.10488300  1
  K  K5  1  0.74939300  0.04034000  0.03290400  1
  K  K6  1  0.89526700  0.01619100  0.00049800  1
  K  K7  1  0.75060700  0.04034000  0.53290400  1
  K  K8  1  0.60473300  0.01619100  0.50049800  1
  K  K9  1  0.01826100  0.95098300  0.32730600  1
  K  K10  1  0.24939300  0.95966000  0.46709600  1
  K  K11  1  0.51826100  0.04901700  0.17269400  1
  K  K12  1  0.87780800  0.01612400  0.39511700  1
  K  K13  1  0.98173900  0.04901700  0.67269400  1
  K  K14  1  0.62219200  0.01612400  0.89511700  1
  K  K15  1  0.10473300  0.98380900  0.99950200  1
  U  U0  1  0.16843700  0.45657800  0.21252800  1
  U  U1  1  0.09769500  0.51738200  0.57616500  1
  U  U2  1  0.43248600  0.50020300  0.46816100  1
  U  U3  1  0.06751400  0.50020300  0.96816100  1
  U  U4  1  0.33156300  0.45657800  0.71252800  1
  U  U5  1  0.40230500  0.51738200  0.07616500  1
  U  U6  1  0.31424800  0.46721600  0.35366500  1
  U  U7  1  0.59769500  0.48261800  0.92383500  1
  U  U8  1  0.18575200  0.46721600  0.85366500  1
  U  U9  1  0.66843700  0.54342200  0.28747200  1
  U  U10  1  0.93248600  0.49979700  0.03183900  1
  U  U11  1  0.68575200  0.53278400  0.64633500  1
  U  U12  1  0.83156300  0.54342200  0.78747200  1
  U  U13  1  0.90230500  0.48261800  0.42383500  1
  U  U14  1  0.81424800  0.53278400  0.14633500  1
  U  U15  1  0.56751400  0.49979700  0.53183900  1
  W  W0  1  0.71018100  0.63068300  0.95665700  1
  W  W1  1  0.21018100  0.36931700  0.54334300  1
  W  W2  1  0.78981900  0.63068300  0.45665700  1
  W  W3  1  0.53300200  0.57912500  0.18681600  1
  W  W4  1  0.28981900  0.36931700  0.04334300  1
  W  W5  1  0.46699800  0.42087500  0.81318400  1
  W  W6  1  0.96699800  0.57912500  0.68681600  1
  W  W7  1  0.03300200  0.42087500  0.31318400  1
  O  O0  1  0.58733200  0.74846300  0.80852600  1
  O  O1  1  0.83396100  0.81054000  0.67599000  1
  O  O2  1  0.31957800  0.47262700  0.14100800  1
  O  O3  1  0.41116600  0.48479600  0.69202000  1
  O  O4  1  0.81957800  0.52737300  0.35899200  1
  O  O5  1  0.52714100  0.42575700  0.87569100  1
  O  O6  1  0.56363300  0.76832200  0.43021900  1
  O  O7  1  0.10938900  0.51196600  0.78448900  1
  O  O8  1  0.67944300  0.80039600  0.53503700  1
  O  O9  1  0.08883400  0.48479600  0.19202000  1
  O  O10  1  0.06749300  0.76960400  0.86479900  1
  O  O11  1  0.97285900  0.42575700  0.37569100  1
  O  O12  1  0.29078600  0.11519200  0.17748700  1
  O  O13  1  0.35710200  0.48760100  0.51028800  1
  O  O14  1  0.73465500  0.59627200  0.13694700  1
  O  O15  1  0.15254600  0.43565100  0.43554200  1
  O  O16  1  0.00587300  0.47632000  0.13018300  1
  O  O17  1  0.68042200  0.52737300  0.85899200  1
  O  O18  1  0.99412700  0.52368000  0.86981700  1
  O  O19  1  0.26534500  0.40372800  0.86305300  1
  O  O20  1  0.49412700  0.47632000  0.63018300  1
  O  O21  1  0.23465500  0.40372800  0.36305300  1
  O  O22  1  0.18042200  0.47262700  0.64100800  1
  O  O23  1  0.43636700  0.23167800  0.56978100  1
  O  O24  1  0.94404700  0.42785800  0.62506900  1
  O  O25  1  0.16603900  0.18946000  0.32401000  1
  O  O26  1  0.89061100  0.48803400  0.21551100  1
  O  O27  1  0.06363300  0.23167800  0.06978100  1
  O  O28  1  0.50587300  0.52368000  0.36981700  1
  O  O29  1  0.34745400  0.43565100  0.93554200  1
  O  O30  1  0.19663000  0.73113400  0.73008900  1
  O  O31  1  0.70921400  0.88480800  0.82251300  1
  O  O32  1  0.67510500  0.27712100  0.38965400  1
  O  O33  1  0.65254600  0.56434900  0.06445800  1
  O  O34  1  0.32489500  0.72287900  0.61034600  1
  O  O35  1  0.32055700  0.19960400  0.46496300  1
  O  O36  1  0.33396100  0.18946000  0.82401000  1
  O  O37  1  0.05595300  0.57214200  0.37493100  1
  O  O38  1  0.41266800  0.25153700  0.19147400  1
  O  O39  1  0.04420500  0.16736500  0.44470900  1
  O  O40  1  0.58883400  0.51520400  0.30798000  1
  O  O41  1  0.43250700  0.76960400  0.36479900  1
  O  O42  1  0.56749300  0.23039600  0.63520100  1
  O  O43  1  0.76534500  0.59627200  0.63694700  1
  O  O44  1  0.23163300  0.45586700  0.06088600  1
  O  O45  1  0.66603900  0.81054000  0.17599000  1
  O  O46  1  0.44404700  0.57214200  0.87493100  1
  O  O47  1  0.85710200  0.51239900  0.98971200  1
  O  O48  1  0.54420500  0.83263500  0.05529100  1
  O  O49  1  0.79078600  0.88480800  0.32251300  1
  O  O50  1  0.10806400  0.78076300  0.45997600  1
  O  O51  1  0.84745400  0.56434900  0.56445800  1
  O  O52  1  0.39193600  0.78076300  0.95997600  1
  O  O53  1  0.89193600  0.21923700  0.54002400  1
  O  O54  1  0.30337000  0.73113400  0.23008900  1
  O  O55  1  0.14289800  0.48760100  0.01028800  1
  O  O56  1  0.45579500  0.16736500  0.94470900  1
  O  O57  1  0.60938900  0.48803400  0.71551100  1
  O  O58  1  0.95579500  0.83263500  0.55529100  1
  O  O59  1  0.82055700  0.80039600  0.03503700  1
  O  O60  1  0.17510500  0.72287900  0.11034600  1
  O  O61  1  0.69663000  0.26886600  0.76991100  1
  O  O62  1  0.60806400  0.21923700  0.04002400  1
  O  O63  1  0.55595300  0.42785800  0.12506900  1
  O  O64  1  0.02714100  0.57424300  0.62430900  1
  O  O65  1  0.76836700  0.54413300  0.93911400  1
  O  O66  1  0.64289800  0.51239900  0.48971200  1
  O  O67  1  0.73163300  0.54413300  0.43911400  1
  O  O68  1  0.80337000  0.26886600  0.26991100  1
  O  O69  1  0.20921400  0.11519200  0.67748700  1
  O  O70  1  0.91116600  0.51520400  0.80798000  1
  O  O71  1  0.39061100  0.51196600  0.28448900  1
  O  O72  1  0.47285900  0.57424300  0.12430900  1
  O  O73  1  0.93636700  0.76832200  0.93021900  1
  O  O74  1  0.17944300  0.19960400  0.96496300  1
  O  O75  1  0.91266800  0.74846300  0.30852600  1
  O  O76  1  0.82489500  0.27712100  0.88965400  1
  O  O77  1  0.08733200  0.25153700  0.69147400  1
  O  O78  1  0.26836700  0.45586700  0.56088600  1
  O  O79  1  0.93250700  0.23039600  0.13520100  1
loop_
_geom_bond_atom_site_label_1
_geom_bond_atom_site_label_2
_geom_bond_distance
_geom_bond_site_symmetry_2
K0 O35 2.714820 1_565
K0 O34 2.727179 1_555
K0 O38 2.837772 1_565
K0 O23 2.854036 1_565
K0 O41 3.093294 1_555
K1 O39 2.744958 1_565
K1 O30 2.786543 1_555
K1 O25 2.832942 1_565
K1 O10 2.836618 1_555
K1 O50 2.938993 1_555
K1 O69 3.043162 1_565
K1 O77 3.060042 1_565
K1 O15 3.249725 1_565
K1 O7 3.284995 1_555
K2 O60 2.774064 1_556
K2 O54 2.836556 1_556
K2 O74 2.878015 1_565
K2 O69 2.915281 1_565
K2 O36 2.937407 1_565
K3 O23 2.772008 1_565
K3 O48 2.775963 1_556
K3 O56 2.854349 1_565
K3 O52 2.938284 1_555
K3 O72 2.987924 1_556
K3 O46 3.108350 1_555
K3 O42 3.247447 1_565
K4 O56 2.744958 1_564
K4 O54 2.786543 1_555
K4 O36 2.832942 1_564
K4 O41 2.836618 1_555
K4 O52 2.938993 1_554
K4 O12 3.043162 1_565
K4 O38 3.060042 1_565
K4 O29 3.249725 1_564
K4 O71 3.284995 1_555
K5 O76 2.774064 1_554
K5 O61 2.836556 1_554
K5 O59 2.878015 1_545
K5 O49 2.915281 1_545
K5 O45 2.937407 1_545
K6 O59 2.714820 1_545
K6 O76 2.727179 1_554
K6 O75 2.837772 1_545
K6 O73 2.854036 1_544
K6 O79 3.093294 1_555
K7 O32 2.774064 1_555
K7 O68 2.836556 1_555
K7 O8 2.878015 1_545
K7 O31 2.915281 1_545
K7 O1 2.937407 1_545
K8 O8 2.714820 1_545
K8 O32 2.727179 1_555
K8 O0 2.837772 1_545
K8 O6 2.854036 1_545
K8 O42 3.093294 1_555
K9 O27 2.772008 1_565
K9 O58 2.775963 1_455
K9 O39 2.854349 1_565
K9 O50 2.938284 1_555
K9 O64 2.987924 1_555
K9 O37 3.108350 1_555
K9 O79 3.247447 1_465
K10 O34 2.774064 1_555
K10 O30 2.836556 1_555
K10 O35 2.878015 1_565
K10 O12 2.915281 1_565
K10 O25 2.937407 1_565
K11 O6 2.772008 1_545
K11 O56 2.775963 1_554
K11 O48 2.854349 1_545
K11 O62 2.938284 1_555
K11 O5 2.987924 1_554
K11 O63 3.108350 1_555
K11 O41 3.247447 1_545
K12 O58 2.744958 1_545
K12 O68 2.786543 1_555
K12 O1 2.832942 1_545
K12 O79 2.836618 1_555
K12 O53 2.938993 1_555
K12 O49 3.043162 1_545
K12 O75 3.060042 1_545
K12 O51 3.249725 1_545
K12 O26 3.284995 1_555
K13 O73 2.772008 1_545
K13 O39 2.775963 1_655
K13 O58 2.854349 1_545
K13 O53 2.938284 1_555
K13 O11 2.987924 1_555
K13 O24 3.108350 1_555
K13 O10 3.247447 1_645
K14 O48 2.744958 1_546
K14 O61 2.786543 1_555
K14 O45 2.832942 1_546
K14 O42 2.836618 1_555
K14 O62 2.938993 1_556
K14 O31 3.043162 1_545
K14 O0 3.060042 1_545
K14 O33 3.249725 1_546
K14 O57 3.284995 1_555
K15 O74 2.714820 1_565
K15 O60 2.727179 1_556
K15 O77 2.837772 1_565
K15 O27 2.854036 1_566
K15 O10 3.093294 1_555
O0 U7 1.856524 1_555
O1 U12 1.842612 1_555
O2 W4 1.921347 1_555
O2 U6 2.306039 1_555
O2 U5 2.480205 1_555
O3 W5 1.970635 1_555
O3 U4 2.329229 1_555
O3 U2 2.457659 1_555
O4 W2 1.921347 1_555
O4 U14 2.306039 1_555
O4 U13 2.480205 1_555
O5 W5 1.889896 1_555
O5 U7 2.239380 1_555
O6 U15 1.861121 1_555
O7 U1 2.279003 1_555
O7 U3 2.304399 1_555
O7 U8 2.311109 1_555
O8 U11 1.853952 1_555
O9 W7 1.970635 1_555
O9 U0 2.329229 1_555
O9 U3 2.457659 1_554
O10 U3 1.862430 1_555
O11 W7 1.889896 1_655
O11 U13 2.239380 1_555
O12 W4 1.770245 1_555
O13 U6 2.203594 1_555
O13 U4 2.205093 1_555
O13 U2 2.234394 1_555
O14 W0 1.958398 1_554
O14 U14 2.368362 1_555
O14 U9 2.408637 1_555
O15 W1 1.942890 1_555
O15 U0 2.389706 1_555
O15 U1 2.566107 1_555
O16 W7 1.947221 1_555
O16 U10 2.351108 1_455
O16 U3 2.450327 1_554
O17 W0 1.921347 1_555
O17 U11 2.306039 1_555
O17 U7 2.480205 1_555
O18 W6 1.947221 1_555
O18 U3 2.351108 1_655
O18 U10 2.450327 1_556
O19 W4 1.958398 1_556
O19 U8 2.368362 1_555
O19 U4 2.408637 1_555
O20 W5 1.947221 1_555
O20 U15 2.351108 1_555
O20 U2 2.450327 1_555
O21 W1 1.958398 1_555
O21 U6 2.368362 1_555
O21 U0 2.408637 1_555
O22 W1 1.921347 1_555
O22 U8 2.306039 1_555
O22 U1 2.480205 1_555
O23 U2 1.861121 1_555
O24 W6 1.865405 1_555
O24 U13 2.321249 1_555
O25 U0 1.842612 1_555
O26 U13 2.279003 1_555
O26 U10 2.304399 1_555
O26 U14 2.311109 1_555
O27 U3 1.861121 1_554
O28 W3 1.947221 1_555
O28 U2 2.351108 1_555
O28 U15 2.450327 1_555
O29 W4 1.942890 1_556
O29 U4 2.389706 1_555
O29 U5 2.566107 1_556
O30 U8 1.848448 1_555
O31 W0 1.770245 1_555
O32 U9 1.851213 1_555
O33 W0 1.942890 1_554
O33 U9 2.389706 1_555
O33 U7 2.566107 1_554
O34 U4 1.851213 1_555
O35 U6 1.853952 1_555
O36 U4 1.842612 1_555
O37 W7 1.865405 1_555
O37 U1 2.321249 1_555
O38 U5 1.856524 1_555
O39 W7 1.792223 1_555
O40 W3 1.970635 1_555
O40 U9 2.329229 1_555
O40 U15 2.457659 1_555
O41 U2 1.862430 1_555
O42 U15 1.862430 1_555
O43 W2 1.958398 1_555
O43 U11 2.368362 1_555
O43 U12 2.408637 1_555
O44 W4 1.895836 1_555
O44 U0 2.480585 1_555
O44 U8 2.586429 1_554
O45 U9 1.842612 1_555
O46 W5 1.865405 1_555
O46 U5 2.321249 1_556
O47 U14 2.203594 1_556
O47 U12 2.205093 1_555
O47 U10 2.234394 1_556
O48 W3 1.792223 1_555
O49 W2 1.770245 1_555
O50 U1 1.839888 1_555
O51 W2 1.942890 1_555
O51 U12 2.389706 1_555
O51 U13 2.566107 1_555
O52 U5 1.839888 1_556
O53 U13 1.839888 1_555
O54 U6 1.848448 1_555
O55 U8 2.203594 1_554
O55 U0 2.205093 1_555
O55 U3 2.234394 1_554
O56 W5 1.792223 1_555
O57 U7 2.279003 1_555
O57 U15 2.304399 1_555
O57 U11 2.311109 1_555
O58 W6 1.792223 1_555
O59 U14 1.853952 1_555
O60 U0 1.851213 1_555
O61 U11 1.848448 1_555
O62 U7 1.839888 1_554
O63 W3 1.865405 1_555
O63 U7 2.321249 1_554
O64 W6 1.889896 1_455
O64 U1 2.239380 1_555
O65 W0 1.895836 1_555
O65 U12 2.480585 1_555
O65 U14 2.586429 1_556
O66 U11 2.203594 1_555
O66 U9 2.205093 1_555
O66 U15 2.234394 1_555
O67 W2 1.895836 1_555
O67 U9 2.480585 1_555
O67 U11 2.586429 1_555
O68 U14 1.848448 1_555
O69 W1 1.770245 1_555
O70 W6 1.970635 1_555
O70 U12 2.329229 1_555
O70 U10 2.457659 1_556
O71 U5 2.279003 1_555
O71 U2 2.304399 1_555
O71 U6 2.311109 1_555
O72 W3 1.889896 1_555
O72 U5 2.239380 1_555
O73 U10 1.861121 1_556
O74 U8 1.853952 1_555
O75 U13 1.856524 1_555
O76 U12 1.851213 1_555
O77 U1 1.856524 1_555
O78 W1 1.895836 1_555
O78 U4 2.480585 1_555
O78 U6 2.586429 1_555
O79 U10 1.862430 1_555
