# generated using pymatgen
data_K2NaTlO3
_symmetry_space_group_name_H-M   'P 1'
_cell_length_a   7.02618500
_cell_length_b   6.52136700
_cell_length_c   12.11741832
_cell_angle_alpha   84.75507302
_cell_angle_beta   90.00000000
_cell_angle_gamma   90.00000000
_symmetry_Int_Tables_number   1
_chemical_formula_structural   K2NaTlO3
_chemical_formula_sum   'K8 Na4 Tl4 O12'
_cell_volume   552.89940907
_cell_formula_units_Z   4
loop_
 _symmetry_equiv_pos_site_id
 _symmetry_equiv_pos_as_xyz
  1  'x, y, z'
loop_
 _atom_site_type_symbol
 _atom_site_label
 _atom_site_symmetry_multiplicity
 _atom_site_fract_x
 _atom_site_fract_y
 _atom_site_fract_z
 _atom_site_occupancy
  K  K0  1  0.16634900  0.57850100  0.85265000  1
  K  K1  1  0.64033400  0.93045400  0.14189100  1
  K  K2  1  0.14033400  0.06954600  0.35810900  1
  K  K3  1  0.33365100  0.57850100  0.35265000  1
  K  K4  1  0.66634900  0.42149900  0.64735000  1
  K  K5  1  0.35966600  0.06954600  0.85810900  1
  K  K6  1  0.83365100  0.42149900  0.14735000  1
  K  K7  1  0.85966600  0.93045400  0.64189100  1
  Na  Na0  1  0.12506300  0.35910300  0.58664100  1
  Na  Na1  1  0.87493700  0.64089700  0.41335900  1
  Na  Na2  1  0.62506300  0.64089700  0.91335900  1
  Na  Na3  1  0.37493700  0.35910300  0.08664100  1
  Tl  Tl0  1  0.62599400  0.14753900  0.40935300  1
  Tl  Tl1  1  0.87400600  0.14753900  0.90935300  1
  Tl  Tl2  1  0.12599400  0.85246100  0.09064700  1
  Tl  Tl3  1  0.37400600  0.85246100  0.59064700  1
  O  O0  1  0.49336900  0.24507500  0.25527800  1
  O  O1  1  0.11831600  0.71604000  0.53539400  1
  O  O2  1  0.38168400  0.71604000  0.03539400  1
  O  O3  1  0.61831600  0.28396000  0.96460600  1
  O  O4  1  0.90028800  0.80595300  0.95794900  1
  O  O5  1  0.09971200  0.19404700  0.04205100  1
  O  O6  1  0.40028800  0.19404700  0.54205100  1
  O  O7  1  0.00663100  0.24507500  0.75527800  1
  O  O8  1  0.50663100  0.75492500  0.74472200  1
  O  O9  1  0.99336900  0.75492500  0.24472200  1
  O  O10  1  0.88168400  0.28396000  0.46460600  1
  O  O11  1  0.59971200  0.80595300  0.45794900  1
loop_
_geom_bond_atom_site_label_1
_geom_bond_atom_site_label_2
_geom_bond_distance
_geom_bond_site_symmetry_2
K0 O4 2.769274 1_455
K0 O7 2.801526 1_555
K0 O2 2.891410 1_556
K0 O8 2.911238 1_555
K0 O5 3.274195 1_556
K1 O2 2.693146 1_555
K1 O0 2.771126 1_565
K1 O9 2.958885 1_555
K1 O3 3.007993 1_564
K1 O4 3.048626 1_554
K2 O10 2.693146 1_455
K2 O9 2.771126 1_445
K2 O0 2.958885 1_555
K2 O1 3.007993 1_545
K2 O6 3.048626 1_555
K3 O11 2.769274 1_555
K3 O0 2.801526 1_555
K3 O1 2.891410 1_555
K3 O9 2.911238 1_455
K3 O6 3.274195 1_555
K4 O6 2.769274 1_555
K4 O8 2.801526 1_555
K4 O10 2.891410 1_555
K4 O7 2.911238 1_655
K4 O11 3.274195 1_555
K5 O3 2.693146 1_555
K5 O8 2.771126 1_545
K5 O7 2.958885 1_555
K5 O2 3.007993 1_546
K5 O5 3.048626 1_556
K6 O5 2.769274 1_655
K6 O9 2.801526 1_555
K6 O3 2.891410 1_554
K6 O0 2.911238 1_555
K6 O4 3.274195 1_554
K7 O1 2.693146 1_655
K7 O7 2.771126 1_665
K7 O8 2.958885 1_555
K7 O10 3.007993 1_565
K7 O11 3.048626 1_555
Na0 O7 2.267875 1_555
Na0 O6 2.301391 1_555
Na0 O10 2.341689 1_455
Na0 O1 2.354116 1_555
Na1 O9 2.267875 1_555
Na1 O11 2.301391 1_555
Na1 O1 2.341689 1_655
Na1 O10 2.354116 1_555
Na2 O8 2.267875 1_555
Na2 O4 2.301391 1_555
Na2 O2 2.341689 1_556
Na2 O3 2.354116 1_555
Na3 O0 2.267875 1_555
Na3 O5 2.301391 1_555
Na3 O3 2.341689 1_554
Na3 O2 2.354116 1_555
O0 Tl0 2.131072 1_555
O1 Tl3 2.139192 1_555
O2 Tl2 2.139192 1_555
O3 Tl1 2.139192 1_555
O4 Tl1 2.259041 1_565
O4 Tl2 2.298174 1_656
O5 Tl2 2.259041 1_545
O5 Tl1 2.298174 1_454
O6 Tl3 2.259041 1_545
O6 Tl0 2.298174 1_555
O7 Tl1 2.131072 1_455
O8 Tl3 2.131072 1_555
O9 Tl2 2.131072 1_655
O10 Tl0 2.139192 1_555
O11 Tl0 2.259041 1_565
O11 Tl3 2.298174 1_555
