# generated using pymatgen
data_Sr4Cr3O9
_symmetry_space_group_name_H-M   'P 1'
_cell_length_a   9.74735400
_cell_length_b   9.74735384
_cell_length_c   7.94132100
_cell_angle_alpha   90.00000000
_cell_angle_beta   90.00000000
_cell_angle_gamma   120.00000054
_symmetry_Int_Tables_number   1
_chemical_formula_structural   Sr4Cr3O9
_chemical_formula_sum   'Sr12 Cr9 O27'
_cell_volume   653.42666200
_cell_formula_units_Z   3
loop_
 _symmetry_equiv_pos_site_id
 _symmetry_equiv_pos_as_xyz
  1  'x, y, z'
loop_
 _atom_site_type_symbol
 _atom_site_label
 _atom_site_symmetry_multiplicity
 _atom_site_fract_x
 _atom_site_fract_y
 _atom_site_fract_z
 _atom_site_occupancy
  Sr  Sr0  1  0.69419200  0.66430900  0.00299000  1
  Sr  Sr1  1  0.02613400  0.69358600  0.75610700  1
  Sr  Sr2  1  0.34045300  0.34756800  0.25054200  1
  Sr  Sr3  1  0.65243200  0.99288500  0.25054200  1
  Sr  Sr4  1  0.66745200  0.97386600  0.75610700  1
  Sr  Sr5  1  0.00711500  0.65954700  0.25054200  1
  Sr  Sr6  1  0.33569100  0.02988300  0.00299000  1
  Sr  Sr7  1  0.97011700  0.30580800  0.00299000  1
  Sr  Sr8  1  0.35511400  0.99903700  0.51036700  1
  Sr  Sr9  1  0.30641400  0.33254800  0.75610700  1
  Sr  Sr10  1  0.00096300  0.35607700  0.51036700  1
  Sr  Sr11  1  0.64392300  0.64488600  0.51036700  1
  Cr  Cr0  1  0.00000000  0.00000000  0.86603400  1
  Cr  Cr1  1  0.66666700  0.33333300  0.42155900  1
  Cr  Cr2  1  0.33333300  0.66666700  0.33431300  1
  Cr  Cr3  1  0.66666700  0.33333300  0.76188800  1
  Cr  Cr4  1  0.00000000  0.00000000  0.19396100  1
  Cr  Cr5  1  0.33333300  0.66666700  0.65681500  1
  Cr  Cr6  1  0.00000000  0.00000000  0.52637000  1
  Cr  Cr7  1  0.66666700  0.33333300  0.09841300  1
  Cr  Cr8  1  0.33333300  0.66666700  0.99778300  1
  O  O0  1  0.67461400  0.49560100  0.26439200  1
  O  O1  1  0.17429500  0.67335300  0.49701400  1
  O  O2  1  0.82988100  0.87640000  0.34681100  1
  O  O3  1  0.04651900  0.17011900  0.34681100  1
  O  O4  1  0.83506000  0.47711200  0.93908800  1
  O  O5  1  0.15785800  0.16073500  0.02983700  1
  O  O6  1  0.34118200  0.82471800  0.82245800  1
  O  O7  1  0.33530400  0.82018900  0.16732900  1
  O  O8  1  0.00287700  0.84214200  0.02983700  1
  O  O9  1  0.50439900  0.17901300  0.26439200  1
  O  O10  1  0.52288800  0.35794900  0.93908800  1
  O  O11  1  0.12360000  0.95348100  0.34681100  1
  O  O12  1  0.64205100  0.16494000  0.93908800  1
  O  O13  1  0.17981100  0.51511500  0.16732900  1
  O  O14  1  0.83926500  0.99712300  0.02983700  1
  O  O15  1  0.49905900  0.82570500  0.49701400  1
  O  O16  1  0.48488500  0.66469600  0.16732900  1
  O  O17  1  0.85402400  0.83166400  0.70573900  1
  O  O18  1  0.50542000  0.31740100  0.57594900  1
  O  O19  1  0.97764000  0.14597600  0.70573900  1
  O  O20  1  0.81198100  0.49458000  0.57594900  1
  O  O21  1  0.82098700  0.32538600  0.26439200  1
  O  O22  1  0.17528200  0.51646400  0.82245800  1
  O  O23  1  0.48353600  0.65881800  0.82245800  1
  O  O24  1  0.68259900  0.18801900  0.57594900  1
  O  O25  1  0.32664700  0.50094100  0.49701400  1
  O  O26  1  0.16833600  0.02236000  0.70573900  1
loop_
_geom_bond_atom_site_label_1
_geom_bond_atom_site_label_2
_geom_bond_distance
_geom_bond_site_symmetry_2
Cr0 O17 2.000655 1_445
Cr0 O19 2.000655 1_455
Cr0 O26 2.000655 1_555
Cr0 O5 2.025744 1_556
Cr0 O8 2.025744 1_546
Cr0 O14 2.025744 1_446
Cr1 O24 1.937413 1_555
Cr1 O20 1.937418 1_555
Cr1 O18 1.937421 1_555
Cr1 O21 1.985689 1_555
Cr1 O9 1.985693 1_555
Cr1 O0 1.985696 1_555
Cr2 O7 1.992336 1_555
Cr2 O13 1.992340 1_555
Cr2 O16 1.992343 1_555
Cr2 O1 2.043970 1_555
Cr2 O15 2.043978 1_555
Cr2 O25 2.043986 1_555
Cr3 O12 2.082811 1_555
Cr3 O4 2.082817 1_555
Cr3 O10 2.082825 1_555
Cr3 O24 2.104922 1_555
Cr3 O20 2.104926 1_555
Cr3 O18 2.104929 1_555
Cr4 O3 1.917487 1_555
Cr4 O2 1.917487 1_445
Cr4 O11 1.917487 1_545
Cr4 O5 2.027382 1_555
Cr4 O8 2.027382 1_545
Cr4 O14 2.027382 1_445
Cr5 O6 1.997927 1_555
Cr5 O22 1.997931 1_555
Cr5 O23 1.997935 1_555
Cr5 O1 2.029491 1_555
Cr5 O15 2.029499 1_555
Cr5 O25 2.029506 1_555
Cr6 O3 2.058316 1_555
Cr6 O2 2.058316 1_445
Cr6 O11 2.058316 1_545
Cr6 O17 2.100285 1_445
Cr6 O19 2.100285 1_455
Cr6 O26 2.100285 1_555
Cr7 O12 1.989659 1_554
Cr7 O4 1.989665 1_554
Cr7 O10 1.989674 1_554
Cr7 O21 2.030404 1_555
Cr7 O9 2.030408 1_555
Cr7 O0 2.030411 1_555
Cr8 O7 2.005935 1_556
Cr8 O13 2.005939 1_556
Cr8 O16 2.005943 1_556
Cr8 O6 2.049367 1_555
Cr8 O22 2.049370 1_555
Cr8 O23 2.049374 1_555
O0 Sr11 2.541232 1_555
O0 Sr0 2.595400 1_555
O0 Sr5 2.809037 1_655
O0 Sr2 2.829048 1_555
O1 Sr5 2.507063 1_555
O1 Sr1 2.577370 1_555
O1 Sr10 2.684194 1_555
O1 Sr8 2.756866 1_555
O2 Sr11 2.444298 1_555
O2 Sr3 2.613284 1_555
O3 Sr10 2.444298 1_555
O3 Sr2 2.613284 1_555
O4 Sr1 2.470369 1_655
O4 Sr7 2.641366 1_556
O4 Sr0 2.824497 1_556
O4 Sr5 3.018280 1_656
O5 Sr2 2.512947 1_555
O5 Sr6 2.624466 1_555
O5 Sr9 2.683607 1_554
O5 Sr7 2.825176 1_455
O6 Sr6 2.482852 1_566
O6 Sr1 2.723337 1_555
O6 Sr4 2.807456 1_555
O6 Sr8 2.969401 1_555
O7 Sr6 2.423487 1_565
O7 Sr3 2.760816 1_555
O7 Sr5 2.848314 1_555
O7 Sr8 3.187612 1_555
O8 Sr5 2.512947 1_555
O8 Sr0 2.624466 1_455
O8 Sr1 2.683607 1_554
O8 Sr6 2.825176 1_565
O9 Sr8 2.541232 1_545
O9 Sr6 2.595400 1_555
O9 Sr2 2.809037 1_555
O9 Sr3 2.829048 1_545
O10 Sr9 2.470366 1_555
O10 Sr0 2.641358 1_556
O10 Sr6 2.824505 1_556
O10 Sr2 3.018277 1_556
O11 Sr8 2.444298 1_555
O11 Sr5 2.613284 1_555
O12 Sr4 2.470373 1_545
O12 Sr6 2.641357 1_556
O12 Sr7 2.824506 1_556
O12 Sr3 3.018283 1_546
O13 Sr7 2.423487 1_455
O13 Sr5 2.760816 1_555
O13 Sr2 2.848314 1_555
O13 Sr10 3.187612 1_555
O14 Sr3 2.512947 1_555
O14 Sr7 2.624466 1_565
O14 Sr4 2.683607 1_554
O14 Sr0 2.825176 1_555
O15 Sr3 2.507061 1_555
O15 Sr4 2.577367 1_555
O15 Sr8 2.684202 1_555
O15 Sr11 2.756858 1_555
O16 Sr0 2.423487 1_555
O16 Sr2 2.760816 1_555
O16 Sr3 2.848314 1_555
O16 Sr11 3.187612 1_555
O17 Sr11 2.487431 1_555
O17 Sr1 2.654001 1_655
O17 Sr4 2.812333 1_555
O17 Sr0 2.849397 1_556
O18 Sr9 2.473425 1_555
O18 Sr8 2.738822 1_545
O18 Sr11 2.823818 1_555
O18 Sr2 3.134138 1_555
O19 Sr10 2.487431 1_655
O19 Sr4 2.654001 1_545
O19 Sr9 2.812333 1_655
O19 Sr7 2.849397 1_556
O20 Sr1 2.473425 1_655
O20 Sr11 2.738822 1_555
O20 Sr10 2.823819 1_655
O20 Sr5 3.134138 1_655
O21 Sr10 2.541232 1_655
O21 Sr7 2.595400 1_555
O21 Sr3 2.809037 1_545
O21 Sr5 2.829048 1_655
O22 Sr7 2.482852 1_456
O22 Sr9 2.723337 1_555
O22 Sr1 2.807456 1_555
O22 Sr10 2.969401 1_555
O23 Sr0 2.482852 1_556
O23 Sr4 2.723337 1_555
O23 Sr9 2.807456 1_555
O23 Sr11 2.969401 1_555
O24 Sr4 2.473425 1_545
O24 Sr10 2.738822 1_655
O24 Sr8 2.823819 1_545
O24 Sr3 3.134138 1_545
O25 Sr2 2.507057 1_555
O25 Sr9 2.577364 1_555
O25 Sr11 2.684193 1_555
O25 Sr10 2.756867 1_555
O26 Sr8 2.487431 1_545
O26 Sr9 2.654001 1_555
O26 Sr1 2.812333 1_545
O26 Sr6 2.849397 1_556
