# generated using pymatgen
data_La5Sb4(O4F)3
_symmetry_space_group_name_H-M   'P 1'
_cell_length_a   12.29337400
_cell_length_b   12.29337400
_cell_length_c   11.62368400
_cell_angle_alpha   90.00000000
_cell_angle_beta   90.00000000
_cell_angle_gamma   90.00000000
_symmetry_Int_Tables_number   1
_chemical_formula_structural   La5Sb4(O4F)3
_chemical_formula_sum   'La20 Sb16 O48 F12'
_cell_volume   1756.65300684
_cell_formula_units_Z   4
loop_
 _symmetry_equiv_pos_site_id
 _symmetry_equiv_pos_as_xyz
  1  'x, y, z'
loop_
 _atom_site_type_symbol
 _atom_site_label
 _atom_site_symmetry_multiplicity
 _atom_site_fract_x
 _atom_site_fract_y
 _atom_site_fract_z
 _atom_site_occupancy
  La  La0  1  0.14788500  0.32887600  0.60507300  1
  La  La1  1  0.17112400  0.35211500  0.10507300  1
  La  La2  1  0.35211500  0.82887600  0.89492700  1
  La  La3  1  0.00000000  0.50000000  0.35127200  1
  La  La4  1  0.67112400  0.14788500  0.39492700  1
  La  La5  1  0.17112400  0.64788500  0.60507300  1
  La  La6  1  0.64788500  0.17112400  0.89492700  1
  La  La7  1  0.00000000  0.50000000  0.85127200  1
  La  La8  1  0.50000000  0.00000000  0.64872800  1
  La  La9  1  0.64788500  0.82887600  0.39492700  1
  La  La10  1  0.67112400  0.85211500  0.89492700  1
  La  La11  1  0.35211500  0.17112400  0.39492700  1
  La  La12  1  0.82887600  0.35211500  0.60507300  1
  La  La13  1  0.82887600  0.64788500  0.10507300  1
  La  La14  1  0.32887600  0.14788500  0.89492700  1
  La  La15  1  0.85211500  0.67112400  0.60507300  1
  La  La16  1  0.85211500  0.32887600  0.10507300  1
  La  La17  1  0.14788500  0.67112400  0.10507300  1
  La  La18  1  0.50000000  0.00000000  0.14872800  1
  La  La19  1  0.32887600  0.85211500  0.39492700  1
  Sb  Sb0  1  0.79925500  0.98614000  0.12926000  1
  Sb  Sb1  1  0.01386000  0.79925500  0.87074000  1
  Sb  Sb2  1  0.20074500  0.01386000  0.12926000  1
  Sb  Sb3  1  0.98614000  0.79925500  0.37074000  1
  Sb  Sb4  1  0.79925500  0.01386000  0.62926000  1
  Sb  Sb5  1  0.01386000  0.20074500  0.37074000  1
  Sb  Sb6  1  0.20074500  0.98614000  0.62926000  1
  Sb  Sb7  1  0.29925500  0.48614000  0.87074000  1
  Sb  Sb8  1  0.29925500  0.51386000  0.37074000  1
  Sb  Sb9  1  0.51386000  0.29925500  0.12926000  1
  Sb  Sb10  1  0.98614000  0.20074500  0.87074000  1
  Sb  Sb11  1  0.48614000  0.29925500  0.62926000  1
  Sb  Sb12  1  0.48614000  0.70074500  0.12926000  1
  Sb  Sb13  1  0.70074500  0.51386000  0.87074000  1
  Sb  Sb14  1  0.51386000  0.70074500  0.62926000  1
  Sb  Sb15  1  0.70074500  0.48614000  0.37074000  1
  O  O0  1  0.47356100  0.80872900  0.25707400  1
  O  O1  1  0.80872900  0.52643900  0.74292600  1
  O  O2  1  0.47907800  0.17345300  0.02611200  1
  O  O3  1  0.69127100  0.02643900  0.75707400  1
  O  O4  1  0.80043200  0.83778400  0.06300800  1
  O  O5  1  0.19127100  0.47356100  0.74292600  1
  O  O6  1  0.33778400  0.69956800  0.06300800  1
  O  O7  1  0.19127100  0.52643900  0.24292600  1
  O  O8  1  0.30872900  0.97356100  0.75707400  1
  O  O9  1  0.17345300  0.47907800  0.47388800  1
  O  O10  1  0.02643900  0.69127100  0.74292600  1
  O  O11  1  0.32654700  0.02092200  0.52611200  1
  O  O12  1  0.33778400  0.30043200  0.56300800  1
  O  O13  1  0.80043200  0.16221600  0.56300800  1
  O  O14  1  0.66221600  0.30043200  0.06300800  1
  O  O15  1  0.19956800  0.16221600  0.06300800  1
  O  O16  1  0.02092200  0.32654700  0.97388800  1
  O  O17  1  0.19956800  0.83778400  0.56300800  1
  O  O18  1  0.52092200  0.17345300  0.52611200  1
  O  O19  1  0.67345300  0.97907800  0.52611200  1
  O  O20  1  0.97356100  0.69127100  0.24292600  1
  O  O21  1  0.17345300  0.52092200  0.97388800  1
  O  O22  1  0.66221600  0.69956800  0.56300800  1
  O  O23  1  0.30043200  0.33778400  0.93699200  1
  O  O24  1  0.97356100  0.30872900  0.74292600  1
  O  O25  1  0.97907800  0.32654700  0.47388800  1
  O  O26  1  0.30043200  0.66221600  0.43699200  1
  O  O27  1  0.82654700  0.52092200  0.47388800  1
  O  O28  1  0.52643900  0.80872900  0.75707400  1
  O  O29  1  0.47907800  0.82654700  0.52611200  1
  O  O30  1  0.97907800  0.67345300  0.97388800  1
  O  O31  1  0.69956800  0.66221600  0.93699200  1
  O  O32  1  0.02643900  0.30872900  0.24292600  1
  O  O33  1  0.69127100  0.97356100  0.25707400  1
  O  O34  1  0.83778400  0.80043200  0.43699200  1
  O  O35  1  0.47356100  0.19127100  0.75707400  1
  O  O36  1  0.80872900  0.47356100  0.24292600  1
  O  O37  1  0.67345300  0.02092200  0.02611200  1
  O  O38  1  0.82654700  0.47907800  0.97388800  1
  O  O39  1  0.30872900  0.02643900  0.25707400  1
  O  O40  1  0.52643900  0.19127100  0.25707400  1
  O  O41  1  0.16221600  0.19956800  0.43699200  1
  O  O42  1  0.32654700  0.97907800  0.02611200  1
  O  O43  1  0.52092200  0.82654700  0.02611200  1
  O  O44  1  0.16221600  0.80043200  0.93699200  1
  O  O45  1  0.02092200  0.67345300  0.47388800  1
  O  O46  1  0.69956800  0.33778400  0.43699200  1
  O  O47  1  0.83778400  0.19956800  0.93699200  1
  F  F0  1  0.50000000  0.00000000  0.36950100  1
  F  F1  1  0.80518600  0.80518600  0.75000000  1
  F  F2  1  0.30518600  0.69481400  0.75000000  1
  F  F3  1  0.50000000  0.00000000  0.86950100  1
  F  F4  1  0.00000000  0.50000000  0.13049900  1
  F  F5  1  0.30518600  0.30518600  0.25000000  1
  F  F6  1  0.80518600  0.19481400  0.25000000  1
  F  F7  1  0.69481400  0.69481400  0.25000000  1
  F  F8  1  0.69481400  0.30518600  0.75000000  1
  F  F9  1  0.00000000  0.50000000  0.63049900  1
  F  F10  1  0.19481400  0.80518600  0.25000000  1
  F  F11  1  0.19481400  0.19481400  0.75000000  1
loop_
_geom_bond_atom_site_label_1
_geom_bond_atom_site_label_2
_geom_bond_distance
_geom_bond_site_symmetry_2
La0 O12 2.410649 1_555
La0 O9 2.415263 1_555
La0 O5 2.452689 1_555
La0 O41 2.524874 1_555
La0 O25 2.575361 1_455
La0 O24 2.687281 1_455
La1 O15 2.410649 1_555
La1 O16 2.415263 1_554
La1 O32 2.452689 1_555
La1 O23 2.524874 1_554
La1 O21 2.575361 1_554
La1 O7 2.687281 1_555
La2 O44 2.410649 1_555
La2 O42 2.415263 1_556
La2 O8 2.452689 1_555
La2 O6 2.524874 1_556
La2 O43 2.575361 1_556
La2 O28 2.687281 1_555
La3 O9 2.577652 1_555
La3 O45 2.577652 1_555
La3 O25 2.577652 1_455
La3 O27 2.577652 1_455
La3 O32 2.687117 1_555
La3 O20 2.687117 1_455
La3 O7 2.687117 1_555
La3 O36 2.687117 1_455
La4 O46 2.410649 1_555
La4 O18 2.415263 1_555
La4 O40 2.452689 1_555
La4 O13 2.524874 1_555
La4 O19 2.575361 1_545
La4 O33 2.687281 1_545
La5 O17 2.410649 1_555
La5 O45 2.415263 1_555
La5 O10 2.452689 1_555
La5 O26 2.524874 1_555
La5 O9 2.575361 1_555
La5 O5 2.687281 1_555
La6 O47 2.410649 1_555
La6 O37 2.415263 1_556
La6 O3 2.452689 1_555
La6 O14 2.524874 1_556
La6 O2 2.575361 1_556
La6 O35 2.687281 1_555
La7 O30 2.577652 1_455
La7 O21 2.577652 1_555
La7 O16 2.577652 1_555
La7 O38 2.577652 1_455
La7 O10 2.687117 1_555
La7 O24 2.687117 1_455
La7 O5 2.687117 1_555
La7 O1 2.687117 1_455
La8 O19 2.577652 1_545
La8 O11 2.577652 1_555
La8 O18 2.577652 1_555
La8 O29 2.577652 1_545
La8 O3 2.687117 1_555
La8 O8 2.687117 1_545
La8 O35 2.687117 1_555
La8 O28 2.687117 1_545
La9 O34 2.410649 1_555
La9 O19 2.415263 1_555
La9 O33 2.452689 1_555
La9 O22 2.524874 1_555
La9 O29 2.575361 1_555
La9 O0 2.687281 1_555
La10 O31 2.410649 1_555
La10 O43 2.415263 1_556
La10 O28 2.452689 1_555
La10 O4 2.524874 1_556
La10 O37 2.575361 1_566
La10 O3 2.687281 1_565
La11 O41 2.410649 1_555
La11 O11 2.415263 1_555
La11 O39 2.452689 1_555
La11 O12 2.524874 1_555
La11 O18 2.575361 1_555
La11 O40 2.687281 1_555
La12 O13 2.410649 1_555
La12 O25 2.415263 1_555
La12 O24 2.452689 1_555
La12 O46 2.524874 1_555
La12 O27 2.575361 1_555
La12 O1 2.687281 1_555
La13 O4 2.410649 1_555
La13 O30 2.415263 1_554
La13 O20 2.452689 1_555
La13 O31 2.524874 1_554
La13 O38 2.575361 1_554
La13 O36 2.687281 1_555
La14 O23 2.410649 1_555
La14 O2 2.415263 1_556
La14 O35 2.452689 1_555
La14 O15 2.524874 1_556
La14 O42 2.575361 1_546
La14 O8 2.687281 1_545
La15 O22 2.410649 1_555
La15 O27 2.415263 1_555
La15 O1 2.452689 1_555
La15 O34 2.524874 1_555
La15 O45 2.575361 1_655
La15 O10 2.687281 1_655
La16 O14 2.410649 1_555
La16 O38 2.415263 1_554
La16 O36 2.452689 1_555
La16 O47 2.524874 1_554
La16 O16 2.575361 1_654
La16 O32 2.687281 1_655
La17 O6 2.410649 1_555
La17 O21 2.415263 1_554
La17 O7 2.452689 1_555
La17 O44 2.524874 1_554
La17 O30 2.575361 1_454
La17 O20 2.687281 1_455
La18 O2 2.577652 1_555
La18 O37 2.577652 1_555
La18 O42 2.577652 1_545
La18 O43 2.577652 1_545
La18 O39 2.687117 1_555
La18 O40 2.687117 1_555
La18 O33 2.687117 1_545
La18 O0 2.687117 1_545
La19 O26 2.410649 1_555
La19 O29 2.415263 1_555
La19 O0 2.452689 1_555
La19 O17 2.524874 1_555
La19 O11 2.575361 1_565
La19 O39 2.687281 1_565
O0 Sb12 1.998337 1_555
O1 Sb13 1.998337 1_555
O2 Sb9 2.003021 1_555
O3 Sb4 1.998337 1_555
O4 Sb0 1.979768 1_555
O5 Sb7 1.998337 1_555
O6 Sb12 1.979768 1_555
O7 Sb8 1.998337 1_555
O8 Sb6 1.998337 1_555
O9 Sb8 2.003021 1_555
O10 Sb1 1.998337 1_555
O11 Sb6 2.003021 1_545
O12 Sb11 1.979768 1_555
O13 Sb4 1.979768 1_555
O14 Sb9 1.979768 1_555
O15 Sb2 1.979768 1_555
O16 Sb10 2.003021 1_455
O17 Sb6 1.979768 1_555
O18 Sb11 2.003021 1_555
O19 Sb4 2.003021 1_565
O20 Sb3 1.998337 1_555
O21 Sb7 2.003021 1_555
O22 Sb14 1.979768 1_555
O23 Sb7 1.979768 1_555
O24 Sb10 1.998337 1_555
O25 Sb5 2.003021 1_655
O26 Sb8 1.979768 1_555
O27 Sb15 2.003021 1_555
O28 Sb14 1.998337 1_555
O29 Sb14 2.003021 1_555
O30 Sb1 2.003021 1_655
O31 Sb13 1.979768 1_555
O32 Sb5 1.998337 1_555
O33 Sb0 1.998337 1_555
O34 Sb3 1.979768 1_555
O35 Sb11 1.998337 1_555
O36 Sb15 1.998337 1_555
O37 Sb0 2.003021 1_545
O38 Sb13 2.003021 1_555
O39 Sb2 1.998337 1_555
O40 Sb9 1.998337 1_555
O41 Sb5 1.979768 1_555
O42 Sb2 2.003021 1_565
O43 Sb12 2.003021 1_555
O44 Sb1 1.979768 1_555
O45 Sb3 2.003021 1_455
O46 Sb15 1.979768 1_555
O47 Sb10 1.979768 1_555
F0 La18 2.566196 1_555
F0 La4 2.796070 1_555
F0 La9 2.796070 1_545
F0 La11 2.796070 1_555
F0 La19 2.796070 1_545
F1 La10 2.426275 1_555
F1 La15 2.426275 1_555
F2 La2 2.426275 1_555
F2 La5 2.426275 1_555
F3 La8 2.566196 1_555
F3 La10 2.796070 1_545
F3 La6 2.796070 1_555
F3 La14 2.796070 1_555
F3 La2 2.796070 1_545
F4 La3 2.566196 1_555
F4 La17 2.796070 1_555
F4 La13 2.796070 1_455
F4 La1 2.796070 1_555
F4 La16 2.796070 1_455
F5 La1 2.426275 1_555
F5 La11 2.426275 1_555
F6 La16 2.426275 1_555
F6 La4 2.426275 1_555
F7 La9 2.426275 1_555
F7 La13 2.426275 1_555
F8 La6 2.426275 1_555
F8 La12 2.426275 1_555
F9 La7 2.566196 1_555
F9 La15 2.796070 1_455
F9 La5 2.796070 1_555
F9 La0 2.796070 1_555
F9 La12 2.796070 1_455
F10 La19 2.426275 1_555
F10 La17 2.426275 1_555
F11 La14 2.426275 1_555
F11 La0 2.426275 1_555
