# generated using pymatgen
data_Co6Te3(ClO6)2
_symmetry_space_group_name_H-M   'P 1'
_cell_length_a   8.37184300
_cell_length_b   8.37206593
_cell_length_c   18.48406782
_cell_angle_alpha   90.00000000
_cell_angle_beta   90.00000000
_cell_angle_gamma   89.99997529
_symmetry_Int_Tables_number   1
_chemical_formula_structural   Co6Te3(ClO6)2
_chemical_formula_sum   'Co24 Te12 Cl8 O48'
_cell_volume   1295.54131824
_cell_formula_units_Z   4
loop_
 _symmetry_equiv_pos_site_id
 _symmetry_equiv_pos_as_xyz
  1  'x, y, z'
loop_
 _atom_site_type_symbol
 _atom_site_label
 _atom_site_symmetry_multiplicity
 _atom_site_fract_x
 _atom_site_fract_y
 _atom_site_fract_z
 _atom_site_occupancy
  Co  Co0  1  0.30204333  0.68215131  0.83182395  1
  Co  Co1  1  0.81785618  0.19797118  0.33181725  1
  Co  Co2  1  -0.00000000  0.50000000  0.91702049  1
  Co  Co3  1  0.31785241  0.30203007  0.66818362  1
  Co  Co4  1  0.50000000  0.00000000  0.58297927  1
  Co  Co5  1  0.68214759  0.69796993  0.66818362  1
  Co  Co6  1  0.69795667  0.31784869  0.83182395  1
  Co  Co7  1  -0.00000000  0.50000000  0.58297984  1
  Co  Co8  1  0.19795803  0.18215035  0.83182203  1
  Co  Co9  1  0.18214382  0.80202882  0.66818275  1
  Co  Co10  1  0.80204197  0.81784965  0.16817797  1
  Co  Co11  1  0.80204197  0.81784965  0.83182203  1
  Co  Co12  1  0.19795803  0.18215035  0.16817797  1
  Co  Co13  1  -0.00000000  0.50000000  0.08297951  1
  Co  Co14  1  0.81785618  0.19797118  0.66818275  1
  Co  Co15  1  0.50000000  0.00000000  0.41702073  1
  Co  Co16  1  0.50000000  0.00000000  0.91701549  1
  Co  Co17  1  0.50000000  0.00000000  0.08298451  1
  Co  Co18  1  0.31785241  0.30203007  0.33181638  1
  Co  Co19  1  0.69795667  0.31784869  0.16817605  1
  Co  Co20  1  -0.00000000  0.50000000  0.41702016  1
  Co  Co21  1  0.68214759  0.69796993  0.33181638  1
  Co  Co22  1  0.30204333  0.68215131  0.16817605  1
  Co  Co23  1  0.18214382  0.80202882  0.33181725  1
  Te  Te0  1  0.31202346  0.67995461  0.50000000  1
  Te  Te1  1  0.81201723  0.82005127  0.50000000  1
  Te  Te2  1  0.67994471  0.68800044  0.00000000  1
  Te  Te3  1  0.18798277  0.17994873  0.50000000  1
  Te  Te4  1  -0.00000000  0.50000000  0.24997735  1
  Te  Te5  1  0.50000000  0.00000000  0.75001699  1
  Te  Te6  1  0.32005529  0.31199956  0.00000000  1
  Te  Te7  1  -0.00000000  0.50000000  0.75002265  1
  Te  Te8  1  0.17995569  0.81203182  0.00000000  1
  Te  Te9  1  0.82004431  0.18796818  0.00000000  1
  Te  Te10  1  0.50000000  0.00000000  0.24998301  1
  Te  Te11  1  0.68797654  0.32004539  0.50000000  1
  Cl  Cl0  1  -0.00000000  0.00000000  0.85540688  1
  Cl  Cl1  1  0.50000000  0.50000000  0.85540651  1
  Cl  Cl2  1  -0.00000000  0.00000000  0.35539928  1
  Cl  Cl3  1  -0.00000000  0.00000000  0.14459312  1
  Cl  Cl4  1  -0.00000000  0.00000000  0.64460072  1
  Cl  Cl5  1  0.50000000  0.50000000  0.35539925  1
  Cl  Cl6  1  0.50000000  0.50000000  0.14459349  1
  Cl  Cl7  1  0.50000000  0.50000000  0.64460075  1
  O  O0  1  0.35626733  0.90341599  0.50000000  1
  O  O1  1  0.16454608  0.66454466  0.75000303  1
  O  O2  1  0.15975302  0.68994462  0.57526632  1
  O  O3  1  0.38408226  0.89852843  0.17213324  1
  O  O4  1  0.81005190  0.34025012  0.07526496  1
  O  O5  1  0.31005367  0.15973442  0.07526517  1
  O  O6  1  0.65975545  0.81005512  0.57526758  1
  O  O7  1  0.10147448  0.38405985  0.67213602  1
  O  O8  1  0.38408226  0.89852843  0.82786676  1
  O  O9  1  0.14373131  0.40341080  0.50000000  1
  O  O10  1  0.18994810  0.65974988  0.07526496  1
  O  O11  1  0.61591774  0.10147157  0.17213324  1
  O  O12  1  0.11591996  0.39853094  0.17212981  1
  O  O13  1  0.16454608  0.66454466  0.24999697  1
  O  O14  1  0.84024698  0.31005538  0.57526632  1
  O  O15  1  0.68994633  0.84026558  0.07526517  1
  O  O16  1  0.89852552  0.61594015  0.32786398  1
  O  O17  1  0.40343082  0.85624885  0.00000000  1
  O  O18  1  0.83545392  0.33545534  0.24999697  1
  O  O19  1  0.11591996  0.39853094  0.82787019  1
  O  O20  1  0.66454809  0.83545823  0.74999951  1
  O  O21  1  0.34024455  0.18994488  0.57526758  1
  O  O22  1  0.64373267  0.09658401  0.50000000  1
  O  O23  1  0.18994810  0.65974988  0.92473504  1
  O  O24  1  0.39852302  0.88405916  0.32786555  1
  O  O25  1  0.85626869  0.59658920  0.50000000  1
  O  O26  1  0.39852302  0.88405916  0.67213445  1
  O  O27  1  0.65975545  0.81005512  0.42473242  1
  O  O28  1  0.34024455  0.18994488  0.42473242  1
  O  O29  1  0.10147448  0.38405985  0.32786398  1
  O  O30  1  0.68994633  0.84026558  0.92473483  1
  O  O31  1  0.33545191  0.16454177  0.25000049  1
  O  O32  1  0.15975302  0.68994462  0.42473368  1
  O  O33  1  0.84024698  0.31005538  0.42473368  1
  O  O34  1  0.66454809  0.83545823  0.25000049  1
  O  O35  1  0.88408004  0.60146906  0.82787019  1
  O  O36  1  0.89852552  0.61594015  0.67213602  1
  O  O37  1  0.59656918  0.14375115  0.00000000  1
  O  O38  1  0.60147698  0.11594084  0.67213445  1
  O  O39  1  0.81005190  0.34025012  0.92473504  1
  O  O40  1  0.83545392  0.33545534  0.75000303  1
  O  O41  1  0.61591774  0.10147157  0.82786676  1
  O  O42  1  0.33545191  0.16454177  0.74999951  1
  O  O43  1  0.31005367  0.15973442  0.92473483  1
  O  O44  1  0.09658304  0.35624822  0.00000000  1
  O  O45  1  0.90341696  0.64375178  0.00000000  1
  O  O46  1  0.60147698  0.11594084  0.32786555  1
  O  O47  1  0.88408004  0.60146906  0.17212981  1
loop_
_geom_bond_atom_site_label_1
_geom_bond_atom_site_label_2
_geom_bond_distance
_geom_bond_site_symmetry_2
Co0 O1 1.906325 1_555
Co0 O8 1.938733 1_555
Co0 O23 1.966018 1_555
Co1 O18 1.906262 1_555
Co1 O46 1.938682 1_555
Co1 O33 1.966063 1_555
Co2 O39 2.082752 1_455
Co2 O23 2.082752 1_555
Co2 O35 2.092583 1_455
Co2 O19 2.092583 1_555
Co2 O45 2.110627 1_456
Co2 O44 2.110627 1_556
Co3 O42 1.906220 1_555
Co3 O7 1.938670 1_555
Co3 O21 1.966062 1_555
Co4 O6 2.082767 1_545
Co4 O21 2.082767 1_555
Co4 O38 2.092765 1_555
Co4 O26 2.092765 1_545
Co4 O0 2.110526 1_545
Co4 O22 2.110526 1_555
Co5 O20 1.906220 1_555
Co5 O36 1.938670 1_555
Co5 O6 1.966062 1_555
Co6 O40 1.906325 1_555
Co6 O41 1.938733 1_555
Co6 O39 1.966018 1_555
Co7 O14 2.082755 1_455
Co7 O2 2.082755 1_555
Co7 O7 2.092768 1_555
Co7 O36 2.092768 1_455
Co7 O9 2.110544 1_555
Co7 O25 2.110544 1_455
Co8 O42 1.906333 1_555
Co8 O19 1.938753 1_555
Co8 O43 1.966059 1_555
Co9 O1 1.906262 1_555
Co9 O26 1.938682 1_555
Co9 O2 1.966063 1_555
Co10 O34 1.906333 1_555
Co10 O47 1.938753 1_555
Co10 O15 1.966059 1_555
Co11 O20 1.906333 1_555
Co11 O35 1.938753 1_555
Co11 O30 1.966059 1_555
Co12 O31 1.906333 1_555
Co12 O12 1.938753 1_555
Co12 O5 1.966059 1_555
Co13 O4 2.082752 1_455
Co13 O10 2.082752 1_555
Co13 O47 2.092583 1_455
Co13 O12 2.092583 1_555
Co13 O45 2.110627 1_455
Co13 O44 2.110627 1_555
Co14 O40 1.906262 1_555
Co14 O38 1.938682 1_555
Co14 O14 1.966063 1_555
Co15 O27 2.082767 1_545
Co15 O28 2.082767 1_555
Co15 O46 2.092765 1_555
Co15 O24 2.092765 1_545
Co15 O22 2.110526 1_555
Co15 O0 2.110526 1_545
Co16 O43 2.082663 1_555
Co16 O30 2.082663 1_545
Co16 O8 2.092560 1_545
Co16 O41 2.092560 1_555
Co16 O37 2.110647 1_556
Co16 O17 2.110647 1_546
Co17 O5 2.082663 1_555
Co17 O15 2.082663 1_545
Co17 O3 2.092560 1_545
Co17 O11 2.092560 1_555
Co17 O17 2.110647 1_545
Co17 O37 2.110647 1_555
Co18 O31 1.906220 1_555
Co18 O29 1.938670 1_555
Co18 O28 1.966062 1_555
Co19 O18 1.906325 1_555
Co19 O11 1.938733 1_555
Co19 O4 1.966018 1_555
Co20 O32 2.082755 1_555
Co20 O33 2.082755 1_455
Co20 O16 2.092768 1_455
Co20 O29 2.092768 1_555
Co20 O9 2.110544 1_555
Co20 O25 2.110544 1_455
Co21 O34 1.906220 1_555
Co21 O16 1.938670 1_555
Co21 O27 1.966062 1_555
Co22 O13 1.906325 1_555
Co22 O3 1.938733 1_555
Co22 O10 1.966018 1_555
Co23 O13 1.906262 1_555
Co23 O24 1.938682 1_555
Co23 O32 1.966063 1_555
Cl0 Co8 2.293938 1_555
Cl0 Co11 2.293938 1_445
Cl1 Co6 2.293926 1_555
Cl1 Co0 2.293926 1_555
Cl2 Co1 2.293976 1_455
Cl2 Co23 2.293976 1_545
Cl3 Co12 2.293938 1_555
Cl3 Co10 2.293938 1_445
Cl4 Co14 2.293976 1_455
Cl4 Co9 2.293976 1_545
Cl5 Co21 2.293993 1_555
Cl5 Co18 2.293993 1_555
Cl6 Co19 2.293926 1_555
Cl6 Co22 2.293926 1_555
Cl7 Co5 2.293993 1_555
Cl7 Co3 2.293993 1_555
O0 Te0 1.907149 1_555
O1 Te7 1.948173 1_555
O2 Te0 1.888805 1_555
O3 Te10 1.932388 1_565
O4 Te9 1.888875 1_555
O5 Te6 1.888787 1_555
O6 Te1 1.888776 1_555
O7 Te7 1.933003 1_555
O8 Te5 1.932388 1_565
O9 Te3 1.907166 1_555
O10 Te8 1.888875 1_555
O11 Te10 1.932388 1_555
O12 Te4 1.932357 1_555
O13 Te4 1.948173 1_555
O14 Te11 1.888805 1_555
O15 Te2 1.888787 1_555
O16 Te4 1.933003 1_655
O17 Te8 1.907171 1_555
O18 Te4 1.948173 1_655
O19 Te7 1.932357 1_555
O20 Te5 1.948167 1_565
O21 Te3 1.888776 1_555
O22 Te11 1.907149 1_555
O23 Te8 1.888875 1_556
O24 Te10 1.932959 1_565
O25 Te1 1.907166 1_555
O26 Te5 1.932959 1_565
O27 Te1 1.888776 1_555
O28 Te3 1.888776 1_555
O29 Te4 1.933003 1_555
O30 Te2 1.888787 1_556
O31 Te10 1.948167 1_555
O32 Te0 1.888805 1_555
O33 Te11 1.888805 1_555
O34 Te10 1.948167 1_565
O35 Te7 1.932357 1_655
O36 Te7 1.933003 1_655
O37 Te9 1.907171 1_555
O38 Te5 1.932959 1_555
O39 Te9 1.888875 1_556
O40 Te7 1.948173 1_655
O41 Te5 1.932388 1_555
O42 Te5 1.948167 1_555
O43 Te6 1.888787 1_556
O44 Te6 1.907199 1_555
O45 Te2 1.907199 1_555
O46 Te10 1.932959 1_555
O47 Te4 1.932357 1_655
