# generated using pymatgen
data_Mg3Mn3(BO5)2
_symmetry_space_group_name_H-M   'P 1'
_cell_length_a   6.08870300
_cell_length_b   5.50822400
_cell_length_c   10.94727604
_cell_angle_alpha   83.81693463
_cell_angle_beta   90.00000000
_cell_angle_gamma   90.00000000
_symmetry_Int_Tables_number   1
_chemical_formula_structural   Mg3Mn3(BO5)2
_chemical_formula_sum   'Mg6 Mn6 B4 O20'
_cell_volume   365.01332249
_cell_formula_units_Z   2
loop_
 _symmetry_equiv_pos_site_id
 _symmetry_equiv_pos_as_xyz
  1  'x, y, z'
loop_
 _atom_site_type_symbol
 _atom_site_label
 _atom_site_symmetry_multiplicity
 _atom_site_fract_x
 _atom_site_fract_y
 _atom_site_fract_z
 _atom_site_occupancy
  Mg  Mg0  1  0.00000000  0.00000000  0.00000000  1
  Mg  Mg1  1  0.25000000  0.79480200  0.77412100  1
  Mg  Mg2  1  0.75000000  0.20519800  0.22587900  1
  Mg  Mg3  1  0.50000000  0.00000000  0.00000000  1
  Mg  Mg4  1  0.25000000  0.50362700  0.50061300  1
  Mg  Mg5  1  0.75000000  0.49637300  0.49938700  1
  Mn  Mn0  1  0.75000000  0.79712700  0.77164100  1
  Mn  Mn1  1  0.25000000  0.20287300  0.22835900  1
  Mn  Mn2  1  0.50000000  0.50000000  0.00000000  1
  Mn  Mn3  1  0.50000000  0.00000000  0.50000000  1
  Mn  Mn4  1  0.00000000  0.00000000  0.50000000  1
  Mn  Mn5  1  0.00000000  0.50000000  0.00000000  1
  B  B0  1  0.00395800  0.30185600  0.73612800  1
  B  B1  1  0.99604200  0.69814400  0.26387200  1
  B  B2  1  0.50395800  0.69814400  0.26387200  1
  B  B3  1  0.49604200  0.30185600  0.73612800  1
  O  O0  1  0.25000000  0.17895600  0.41209500  1
  O  O1  1  0.50656900  0.48836100  0.20264000  1
  O  O2  1  0.49372600  0.06977800  0.80240100  1
  O  O3  1  0.00656900  0.51163900  0.79736000  1
  O  O4  1  0.75000000  0.74975500  0.96723500  1
  O  O5  1  0.25000000  0.74944600  0.97164100  1
  O  O6  1  0.99975400  0.67302700  0.39095200  1
  O  O7  1  0.00024600  0.32697300  0.60904800  1
  O  O8  1  0.00627400  0.06977800  0.80240100  1
  O  O9  1  0.75000000  0.17363400  0.41199700  1
  O  O10  1  0.25000000  0.25024500  0.03276500  1
  O  O11  1  0.99343100  0.48836100  0.20264000  1
  O  O12  1  0.49975400  0.32697300  0.60904800  1
  O  O13  1  0.50024600  0.67302700  0.39095200  1
  O  O14  1  0.75000000  0.25055400  0.02835900  1
  O  O15  1  0.25000000  0.82636600  0.58800300  1
  O  O16  1  0.99372600  0.93022200  0.19759900  1
  O  O17  1  0.50627400  0.93022200  0.19759900  1
  O  O18  1  0.75000000  0.82104400  0.58790500  1
  O  O19  1  0.49343100  0.51163900  0.79736000  1
loop_
_geom_bond_atom_site_label_1
_geom_bond_atom_site_label_2
_geom_bond_distance
_geom_bond_site_symmetry_2
Mg0 O14 2.100093 1_455
Mg0 O5 2.100093 1_544
Mg0 O10 2.110019 1_555
Mg0 O4 2.110019 1_444
Mg0 O16 2.156246 1_445
Mg0 O8 2.156246 1_554
Mg1 O15 2.026146 1_555
Mg1 O19 2.146822 1_555
Mg1 O3 2.146822 1_555
Mg1 O5 2.149794 1_555
Mg1 O8 2.166365 1_565
Mg1 O2 2.166365 1_565
Mg2 O9 2.026146 1_555
Mg2 O11 2.146822 1_555
Mg2 O1 2.146822 1_555
Mg2 O14 2.149794 1_555
Mg2 O16 2.166365 1_545
Mg2 O17 2.166365 1_545
Mg3 O14 2.100093 1_555
Mg3 O5 2.100093 1_544
Mg3 O10 2.110019 1_555
Mg3 O4 2.110019 1_544
Mg3 O17 2.156246 1_545
Mg3 O2 2.156246 1_554
Mg4 O13 2.095739 1_555
Mg4 O6 2.095739 1_455
Mg4 O12 2.102285 1_555
Mg4 O7 2.102285 1_555
Mg4 O15 2.107576 1_555
Mg4 O0 2.123807 1_555
Mg5 O7 2.095739 1_655
Mg5 O12 2.095739 1_555
Mg5 O6 2.102285 1_555
Mg5 O13 2.102285 1_555
Mg5 O9 2.107576 1_555
Mg5 O18 2.123807 1_555
Mn0 O18 2.001509 1_555
Mn0 O4 2.128982 1_555
Mn0 O3 2.212948 1_655
Mn0 O19 2.212948 1_555
Mn0 O8 2.216433 1_665
Mn0 O2 2.216433 1_565
Mn1 O0 2.001509 1_555
Mn1 O10 2.128982 1_555
Mn1 O1 2.212948 1_555
Mn1 O11 2.212948 1_455
Mn1 O17 2.216433 1_545
Mn1 O16 2.216433 1_445
Mn2 O5 2.051683 1_554
Mn2 O14 2.051683 1_555
Mn2 O10 2.057170 1_555
Mn2 O4 2.057170 1_554
Mn2 O19 2.212731 1_554
Mn2 O1 2.212731 1_555
Mn3 O9 1.990325 1_555
Mn3 O15 1.990325 1_545
Mn3 O0 2.002600 1_555
Mn3 O18 2.002600 1_545
Mn3 O12 2.265392 1_555
Mn3 O13 2.265392 1_545
Mn4 O9 1.990325 1_455
Mn4 O15 1.990325 1_545
Mn4 O0 2.002600 1_555
Mn4 O18 2.002600 1_445
Mn4 O7 2.265392 1_555
Mn4 O6 2.265392 1_445
Mn5 O5 2.051683 1_554
Mn5 O14 2.051683 1_455
Mn5 O10 2.057170 1_555
Mn5 O4 2.057170 1_454
Mn5 O3 2.212731 1_554
Mn5 O11 2.212731 1_455
B0 O7 1.383319 1_555
B0 O3 1.397030 1_555
B0 O8 1.400331 1_555
B1 O6 1.383319 1_555
B1 O11 1.397030 1_555
B1 O16 1.400331 1_555
B2 O13 1.383319 1_555
B2 O1 1.397030 1_555
B2 O17 1.400331 1_555
B3 O12 1.383319 1_555
B3 O19 1.397030 1_555
B3 O2 1.400331 1_555
