# generated using pymatgen
data_Tl10Hg3Cl16
_symmetry_space_group_name_H-M   'P 1'
_cell_length_a   13.38840010
_cell_length_b   13.38889971
_cell_length_c   13.38876936
_cell_angle_alpha   143.16511150
_cell_angle_beta   143.16492268
_cell_angle_gamma   53.07817068
_symmetry_Int_Tables_number   1
_chemical_formula_structural   Tl10Hg3Cl16
_chemical_formula_sum   'Tl10 Hg3 Cl16'
_cell_volume   857.28103839
_cell_formula_units_Z   1
loop_
 _symmetry_equiv_pos_site_id
 _symmetry_equiv_pos_as_xyz
  1  'x, y, z'
loop_
 _atom_site_type_symbol
 _atom_site_label
 _atom_site_symmetry_multiplicity
 _atom_site_fract_x
 _atom_site_fract_y
 _atom_site_fract_z
 _atom_site_occupancy
  Tl  Tl0  1  0.92175030  0.45508857  0.19870054  1
  Tl  Tl1  1  0.45510811  0.25640544  0.53334952  1
  Tl  Tl2  1  0.74360871  0.27690806  0.19866842  1
  Tl  Tl3  1  0.73374054  0.73378062  0.00014435  1
  Tl  Tl4  1  0.07825556  0.54498158  0.80138492  1
  Tl  Tl5  1  0.54495646  0.74360776  0.46671121  1
  Tl  Tl6  1  0.27688096  0.07825561  0.53328465  1
  Tl  Tl7  1  0.72301737  0.92174965  0.46663666  1
  Tl  Tl8  1  0.26631168  0.26619336  -0.00010827  1
  Tl  Tl9  1  0.25638642  0.72300969  0.80126600  1
  Hg  Hg0  1  -0.00001383  0.00000509  0.99999744  1
  Hg  Hg1  1  0.25000255  0.74996087  0.49997471  1
  Hg  Hg2  1  0.75000033  0.25002728  0.50003465  1
  Cl  Cl0  1  0.39905348  0.39905326  -0.00001195  1
  Cl  Cl1  1  0.64933389  0.48028752  0.49934233  1
  Cl  Cl2  1  0.32573529  0.85149982  0.17722018  1
  Cl  Cl3  1  0.01904595  0.85001500  0.49931911  1
  Cl  Cl4  1  0.48028030  0.98093474  0.83094901  1
  Cl  Cl5  1  0.14995342  0.64932676  0.16903033  1
  Cl  Cl6  1  0.85001792  0.35069575  0.83098741  1
  Cl  Cl7  1  0.51972903  0.01903613  0.16903776  1
  Cl  Cl8  1  0.35069849  0.51972051  0.50070766  1
  Cl  Cl9  1  0.09913112  0.09912568  -0.00000578  1
  Cl  Cl10  1  0.85149073  0.67428449  0.52577109  1
  Cl  Cl11  1  0.67427734  0.14851003  0.82278000  1
  Cl  Cl12  1  0.98091536  0.14996025  0.50062930  1
  Cl  Cl13  1  0.60093792  0.60093908  0.00000549  1
  Cl  Cl14  1  0.14850318  0.32572884  0.47421806  1
  Cl  Cl15  1  0.90089343  0.90091057  -0.00002180  1
loop_
_geom_bond_atom_site_label_1
_geom_bond_atom_site_label_2
_geom_bond_distance
_geom_bond_site_symmetry_2
Cl0 Tl6 3.047510 1_554
Cl0 Tl4 3.047582 1_554
Cl0 Tl2 3.047586 1_555
Cl0 Tl5 3.047678 1_555
Cl0 Tl8 3.180193 1_555
Cl1 Hg2 2.520846 1_555
Cl1 Tl5 3.184707 1_555
Cl2 Hg0 3.028665 1_564
Cl2 Tl4 3.119841 1_554
Cl2 Tl9 3.120090 1_554
Cl3 Hg1 2.520835 1_555
Cl3 Tl7 3.185166 1_455
Cl4 Hg1 2.520907 1_555
Cl4 Tl2 3.184757 1_566
Cl5 Hg1 2.520707 1_555
Cl5 Tl4 3.184693 1_554
Cl6 Hg2 2.520789 1_555
Cl6 Tl0 3.184853 1_556
Cl7 Hg2 2.520926 1_555
Cl7 Tl9 3.185117 1_544
Cl8 Hg1 2.520827 1_555
Cl8 Tl1 3.184593 1_555
Cl9 Hg0 2.374840 1_554
Cl10 Hg0 3.028526 1_665
Cl10 Tl5 3.119810 1_555
Cl10 Tl7 3.120161 1_555
Cl11 Hg0 3.028426 1_655
Cl11 Tl0 3.119994 1_556
Cl11 Tl2 3.120115 1_556
Cl12 Hg2 2.520748 1_555
Cl12 Tl6 3.184721 1_655
Cl13 Tl9 3.047308 1_554
Cl13 Tl7 3.047371 1_555
Cl13 Tl1 3.047402 1_554
Cl13 Tl0 3.047448 1_555
Cl13 Tl3 3.180192 1_555
Cl14 Hg0 3.028455 1_554
Cl14 Tl6 3.120031 1_555
Cl14 Tl1 3.120155 1_555
Cl15 Hg0 2.373634 1_664
