# generated using pymatgen
data_BaFeF5
_symmetry_space_group_name_H-M   'P 1'
_cell_length_a   11.45790382
_cell_length_b   11.45790382
_cell_length_c   11.45790382
_cell_angle_alpha   96.62131502
_cell_angle_beta   96.62131502
_cell_angle_gamma   140.29883899
_symmetry_Int_Tables_number   1
_chemical_formula_structural   BaFeF5
_chemical_formula_sum   'Ba8 Fe8 F40'
_cell_volume   903.78580143
_cell_formula_units_Z   8
loop_
 _symmetry_equiv_pos_site_id
 _symmetry_equiv_pos_as_xyz
  1  'x, y, z'
loop_
 _atom_site_type_symbol
 _atom_site_label
 _atom_site_symmetry_multiplicity
 _atom_site_fract_x
 _atom_site_fract_y
 _atom_site_fract_z
 _atom_site_occupancy
  Ba  Ba0  1  0.77291400  0.04573700  0.83176000  1
  Ba  Ba1  1  0.04573700  0.21397800  0.27282300  1
  Ba  Ba2  1  0.94115400  0.77291400  0.72717700  1
  Ba  Ba3  1  0.21397800  0.94115400  0.16824000  1
  Ba  Ba4  1  0.42360300  0.73790500  0.17833900  1
  Ba  Ba5  1  0.73790500  0.55956600  0.31430200  1
  Ba  Ba6  1  0.24526400  0.42360300  0.68569800  1
  Ba  Ba7  1  0.55956600  0.24526400  0.82166100  1
  Fe  Fe0  1  0.73669400  0.73669400  0.00000000  1
  Fe  Fe1  1  0.24058900  0.24058900  0.00000000  1
  Fe  Fe2  1  0.98669900  0.48669900  0.50000000  1
  Fe  Fe3  1  0.48669900  0.98669900  0.50000000  1
  Fe  Fe4  1  0.81003900  0.32615900  0.15032400  1
  Fe  Fe5  1  0.32615900  0.17583500  0.51612000  1
  Fe  Fe6  1  0.65971500  0.81003800  0.48388000  1
  Fe  Fe7  1  0.17583500  0.65971500  0.84967600  1
  F  F0  1  0.98855100  0.98855100  0.00000000  1
  F  F1  1  0.48849800  0.48849800  0.00000000  1
  F  F2  1  0.70457800  0.86791500  0.07533100  1
  F  F3  1  0.86791500  0.79258300  0.16333600  1
  F  F4  1  0.62924700  0.70457800  0.83666400  1
  F  F5  1  0.79258300  0.62924700  0.92466900  1
  F  F6  1  0.18124200  0.34636900  0.07152200  1
  F  F7  1  0.34636900  0.27484700  0.16512700  1
  F  F8  1  0.10972100  0.18124200  0.83487300  1
  F  F9  1  0.27484700  0.10972100  0.92847800  1
  F  F10  1  0.73682200  0.23682200  0.50000000  1
  F  F11  1  0.23682200  0.73682200  0.50000000  1
  F  F12  1  0.86918700  0.43340100  0.33102600  1
  F  F13  1  0.43340100  0.10237600  0.56421400  1
  F  F14  1  0.53816200  0.86918700  0.43578600  1
  F  F15  1  0.10237600  0.53816200  0.66897400  1
  F  F16  1  0.37931500  0.92175000  0.32371900  1
  F  F17  1  0.92175000  0.59803100  0.54243600  1
  F  F18  1  0.05559500  0.37931500  0.45756400  1
  F  F19  1  0.59803100  0.05559500  0.67628100  1
  F  F20  1  0.56772100  0.22037900  0.13667700  1
  F  F21  1  0.22037900  0.08370200  0.65265800  1
  F  F22  1  0.43104400  0.56772100  0.34734200  1
  F  F23  1  0.08370200  0.43104400  0.86332300  1
  F  F24  1  0.91262200  0.56155900  0.14279700  1
  F  F25  1  0.56155900  0.41876300  0.64893700  1
  F  F26  1  0.76982500  0.91262200  0.35106300  1
  F  F27  1  0.41876300  0.76982500  0.85720300  1
  F  F28  1  0.71939900  0.10894000  0.18594700  1
  F  F29  1  0.10894000  0.92299300  0.38954200  1
  F  F30  1  0.53345100  0.71939900  0.61045800  1
  F  F31  1  0.92299300  0.53345100  0.81405300  1
  F  F32  1  0.06244700  0.45044200  0.19033500  1
  F  F33  1  0.45044200  0.26010700  0.38799500  1
  F  F34  1  0.87211200  0.06244700  0.61200500  1
  F  F35  1  0.26010700  0.87211200  0.80966500  1
  F  F36  1  0.73954500  0.22538000  0.97286100  1
  F  F37  1  0.22538000  0.25251900  0.48583500  1
  F  F38  1  0.76668400  0.73954500  0.51416500  1
  F  F39  1  0.25251900  0.76668400  0.02713900  1
loop_
_geom_bond_atom_site_label_1
_geom_bond_atom_site_label_2
_geom_bond_distance
_geom_bond_site_symmetry_2
Ba0 F19 2.602502 1_555
Ba0 F27 2.700133 1_545
Ba0 F23 2.728663 1_655
Ba0 F36 2.753691 1_555
Ba0 F8 2.835526 1_655
Ba0 F34 2.846894 1_555
Ba0 F4 2.857172 1_545
Ba0 F30 2.891595 1_545
Ba1 F18 2.602502 1_555
Ba1 F26 2.700145 1_445
Ba1 F22 2.728660 1_555
Ba1 F37 2.753697 1_555
Ba1 F6 2.835513 1_555
Ba1 F32 2.846883 1_555
Ba1 F2 2.857172 1_445
Ba1 F28 2.891583 1_455
Ba2 F17 2.602502 1_555
Ba2 F25 2.700137 1_555
Ba2 F21 2.728663 1_665
Ba2 F38 2.753691 1_555
Ba2 F9 2.835518 1_665
Ba2 F35 2.846894 1_655
Ba2 F5 2.857172 1_555
Ba2 F31 2.891601 1_555
Ba3 F16 2.602502 1_555
Ba3 F24 2.700140 1_455
Ba3 F20 2.728656 1_565
Ba3 F39 2.753682 1_555
Ba3 F7 2.835521 1_565
Ba3 F33 2.846895 1_565
Ba3 F3 2.857172 1_455
Ba3 F29 2.891606 1_555
Ba4 F28 2.691236 1_565
Ba4 F32 2.693290 1_555
Ba4 F39 2.701096 1_555
Ba4 F14 2.780744 1_555
Ba4 F2 2.806893 1_555
Ba4 F6 2.848740 1_555
Ba4 F16 2.915486 1_555
Ba4 F22 2.940719 1_555
Ba4 F26 2.952435 1_555
Ba5 F29 2.691236 1_655
Ba5 F33 2.693290 1_555
Ba5 F38 2.701096 1_555
Ba5 F12 2.780744 1_555
Ba5 F3 2.806895 1_555
Ba5 F7 2.848740 1_555
Ba5 F17 2.915495 1_555
Ba5 F20 2.940719 1_555
Ba5 F24 2.952435 1_555
Ba6 F30 2.691240 1_555
Ba6 F34 2.693290 1_455
Ba6 F37 2.701096 1_555
Ba6 F15 2.780744 1_555
Ba6 F4 2.806896 1_555
Ba6 F8 2.848742 1_555
Ba6 F18 2.915500 1_555
Ba6 F23 2.940719 1_555
Ba6 F27 2.952430 1_555
Ba7 F31 2.691236 1_555
Ba7 F35 2.693290 1_545
Ba7 F36 2.701096 1_555
Ba7 F13 2.780744 1_555
Ba7 F5 2.806896 1_555
Ba7 F9 2.848744 1_555
Ba7 F19 2.915495 1_555
Ba7 F21 2.940719 1_555
Ba7 F25 2.952443 1_555
F0 Fe0 1.959821 1_555
F0 Fe1 1.961230 1_665
F1 Fe1 1.929100 1_555
F1 Fe0 1.931333 1_555
F2 Fe0 1.940696 1_555
F3 Fe0 1.940691 1_555
F4 Fe0 1.940686 1_556
F5 Fe0 1.940686 1_556
F6 Fe1 1.941802 1_555
F7 Fe1 1.941802 1_555
F8 Fe1 1.941798 1_556
F9 Fe1 1.941792 1_556
F10 Fe2 1.944414 1_555
F10 Fe3 1.946328 1_545
F11 Fe3 1.944414 1_555
F11 Fe2 1.946328 1_455
F12 Fe2 1.948124 1_555
F12 Fe4 2.016006 1_555
F13 Fe3 1.948134 1_545
F13 Fe5 2.015995 1_555
F14 Fe3 1.948134 1_555
F14 Fe6 2.016006 1_555
F15 Fe2 1.948124 1_455
F15 Fe7 2.016006 1_555
F16 Fe3 1.954126 1_555
F17 Fe2 1.954129 1_555
F18 Fe2 1.954118 1_455
F19 Fe3 1.954129 1_545
F20 Fe4 1.969816 1_555
F21 Fe5 1.969816 1_555
F22 Fe6 1.969813 1_555
F23 Fe7 1.969816 1_555
F24 Fe4 1.965337 1_555
F25 Fe5 1.965340 1_555
F26 Fe6 1.965339 1_555
F27 Fe7 1.965347 1_555
F28 Fe4 1.947888 1_555
F29 Fe5 1.947883 1_565
F30 Fe6 1.947882 1_555
F31 Fe7 1.947883 1_655
F32 Fe4 1.951542 1_455
F33 Fe5 1.951542 1_555
F34 Fe6 1.951547 1_545
F35 Fe7 1.951542 1_555
F36 Fe4 1.940334 1_556
F37 Fe5 1.940334 1_555
F38 Fe6 1.940323 1_555
F39 Fe7 1.940334 1_554
