# generated using pymatgen
data_NaMg2V3O10
_symmetry_space_group_name_H-M   'P 1'
_cell_length_a   6.73945116
_cell_length_b   6.76728446
_cell_length_c   9.59977170
_cell_angle_alpha   104.81658234
_cell_angle_beta   100.34118177
_cell_angle_gamma   101.83195688
_symmetry_Int_Tables_number   1
_chemical_formula_structural   NaMg2V3O10
_chemical_formula_sum   'Na2 Mg4 V6 O20'
_cell_volume   401.63398356
_cell_formula_units_Z   2
loop_
 _symmetry_equiv_pos_site_id
 _symmetry_equiv_pos_as_xyz
  1  'x, y, z'
loop_
 _atom_site_type_symbol
 _atom_site_label
 _atom_site_symmetry_multiplicity
 _atom_site_fract_x
 _atom_site_fract_y
 _atom_site_fract_z
 _atom_site_occupancy
  Na  Na0  1  0.64151810  0.01829026  0.36582350  1
  Na  Na1  1  0.35848190  0.98170974  0.63417650  1
  Mg  Mg0  1  0.75703151  0.43089891  0.70478864  1
  Mg  Mg1  1  0.24296849  0.56910109  0.29521136  1
  Mg  Mg2  1  0.20991966  0.18346999  0.01836243  1
  Mg  Mg3  1  0.79008034  0.81653001  0.98163757  1
  V  V0  1  0.11233312  0.04830577  0.30921184  1
  V  V1  1  0.88766688  0.95169423  0.69078816  1
  V  V2  1  0.22714066  0.42748483  0.61433568  1
  V  V3  1  0.77285934  0.57251517  0.38566432  1
  V  V4  1  0.77009180  0.33758528  0.04533211  1
  V  V5  1  0.22990820  0.66241472  0.95466789  1
  O  O0  1  0.06485033  0.19285828  0.48123401  1
  O  O1  1  0.72663580  0.10604106  0.65293954  1
  O  O2  1  0.52258400  0.23935131  0.04183347  1
  O  O3  1  0.22684268  0.24394302  0.24439478  1
  O  O4  1  0.86873588  0.91040613  0.20887486  1
  O  O5  1  0.87219474  0.13071912  0.98521422  1
  O  O6  1  0.09473059  0.51897432  0.75701408  1
  O  O7  1  0.90526941  0.48102568  0.24298592  1
  O  O8  1  0.72254820  0.39461869  0.47623047  1
  O  O9  1  0.27745180  0.60538131  0.52376953  1
  O  O10  1  0.13126412  0.08959387  0.79112514  1
  O  O11  1  0.78763225  0.49775026  0.93292282  1
  O  O12  1  0.47741600  0.76064869  0.95816653  1
  O  O13  1  0.93514967  0.80714172  0.51876599  1
  O  O14  1  0.77315732  0.75605698  0.75560522  1
  O  O15  1  0.27336420  0.89395894  0.34706046  1
  O  O16  1  0.55678097  0.63500129  0.32128576  1
  O  O17  1  0.12780526  0.86928088  0.01478578  1
  O  O18  1  0.44321903  0.36499871  0.67871424  1
  O  O19  1  0.21236775  0.50224974  0.06707718  1
loop_
_geom_bond_atom_site_label_1
_geom_bond_atom_site_label_2
_geom_bond_distance
_geom_bond_site_symmetry_2
Na0 O8 2.397648 1_555
Na0 O15 2.408828 1_545
Na0 O4 2.423269 1_545
Na0 O16 2.444291 1_545
Na0 O1 2.595024 1_555
Na0 O0 2.752533 1_655
Na1 O9 2.397648 1_555
Na1 O1 2.408828 1_565
Na1 O10 2.423269 1_565
Na1 O18 2.444291 1_565
Na1 O15 2.595024 1_555
Na1 O13 2.752533 1_455
Mg0 O18 2.024971 1_555
Mg0 O11 2.082381 1_555
Mg0 O1 2.083690 1_555
Mg0 O14 2.103711 1_555
Mg0 O8 2.108651 1_555
Mg0 O6 2.160461 1_655
Mg1 O16 2.024971 1_555
Mg1 O19 2.082381 1_555
Mg1 O15 2.083690 1_555
Mg1 O3 2.103711 1_555
Mg1 O9 2.108651 1_555
Mg1 O7 2.160461 1_455
Mg2 O2 2.023164 1_555
Mg2 O10 2.044790 1_554
Mg2 O17 2.074007 1_545
Mg2 O3 2.080053 1_555
Mg2 O19 2.083136 1_555
Mg2 O5 2.181263 1_454
Mg3 O12 2.023164 1_555
Mg3 O4 2.044790 1_556
Mg3 O5 2.074007 1_565
Mg3 O14 2.080053 1_555
Mg3 O11 2.083136 1_555
Mg3 O17 2.181263 1_656
O0 V2 1.760241 1_555
O0 V0 1.810596 1_555
O1 V1 1.708273 1_545
O2 V4 1.655062 1_555
O3 V0 1.705952 1_555
O4 V0 1.684679 1_665
O5 V4 1.700222 1_556
O6 V2 1.813104 1_555
O6 V5 1.856666 1_555
O7 V3 1.813104 1_555
O7 V4 1.856666 1_555
O8 V3 1.671504 1_555
O9 V2 1.671504 1_555
O10 V1 1.684679 1_445
O11 V4 1.716012 1_556
O12 V5 1.655062 1_555
O13 V3 1.760241 1_555
O13 V1 1.810596 1_555
O14 V1 1.705952 1_555
O15 V0 1.708273 1_565
O16 V3 1.656652 1_555
O17 V5 1.700222 1_554
O18 V2 1.656652 1_555
O19 V5 1.716012 1_554
