# generated using pymatgen
data_Na3Co2SbO6
_symmetry_space_group_name_H-M   'P 1'
_cell_length_a   5.34243480
_cell_length_b   5.58400102
_cell_length_c   5.20736463
_cell_angle_alpha   99.96889317
_cell_angle_beta   118.56115524
_cell_angle_gamma   99.65619119
_symmetry_Int_Tables_number   1
_chemical_formula_structural   Na3Co2SbO6
_chemical_formula_sum   'Na3 Co2 Sb1 O6'
_cell_volume   128.62454190
_cell_formula_units_Z   1
loop_
 _symmetry_equiv_pos_site_id
 _symmetry_equiv_pos_as_xyz
  1  'x, y, z'
loop_
 _atom_site_type_symbol
 _atom_site_label
 _atom_site_symmetry_multiplicity
 _atom_site_fract_x
 _atom_site_fract_y
 _atom_site_fract_z
 _atom_site_occupancy
  Na  Na0  1  0.50006113  0.49939298  0.50020195  1
  Na  Na1  1  0.82202899  0.49626484  0.17327512  1
  Na  Na2  1  0.17823325  0.50405885  0.82699262  1
  Co  Co0  1  0.66921871  0.00021461  0.33550537  1
  Co  Co1  1  0.33075951  -0.00007977  0.66436636  1
  Sb  Sb0  1  -0.00006797  -0.00002375  0.99978521  1
  O  O0  1  0.75038791  0.19798339  0.73838917  1
  O  O1  1  0.25016678  0.80243247  0.26178762  1
  O  O2  1  0.93194118  0.78663222  0.61280140  1
  O  O3  1  0.38030004  0.20136705  0.05049118  1
  O  O4  1  0.61928676  0.79898694  0.94909756  1
  O  O5  1  0.06768371  0.21277117  0.38730745  1
loop_
_geom_bond_atom_site_label_1
_geom_bond_atom_site_label_2
_geom_bond_distance
_geom_bond_site_symmetry_2
Na0 O5 2.319168 1_555
Na0 O2 2.319334 1_555
Na0 O3 2.350259 1_555
Na0 O4 2.352339 1_555
Na0 O0 2.459967 1_555
Na0 O1 2.467290 1_555
Na1 O2 2.307143 1_555
Na1 O5 2.319429 1_655
Na1 O4 2.341327 1_554
Na1 O3 2.361915 1_555
Na1 O0 2.387591 1_554
Na1 O1 2.402978 1_655
Na2 O5 2.309128 1_555
Na2 O2 2.316817 1_455
Na2 O3 2.338510 1_556
Na2 O4 2.360441 1_555
Na2 O1 2.386856 1_556
Na2 O0 2.401371 1_455
Co0 O0 1.994076 1_555
Co0 O4 1.996487 1_544
Co0 O5 2.122651 1_655
Co0 O1 2.140357 1_545
Co0 O2 2.167345 1_545
Co0 O3 2.194359 1_555
Co1 O1 1.993363 1_545
Co1 O3 1.996614 1_556
Co1 O2 2.126316 1_445
Co1 O0 2.142883 1_555
Co1 O5 2.164423 1_555
Co1 O4 2.191839 1_545
O0 Sb0 2.032995 1_655
O1 Sb0 2.034003 1_564
O2 Sb0 1.983883 1_665
O3 Sb0 2.020216 1_554
O4 Sb0 2.020701 1_665
O5 Sb0 1.985507 1_554
