# generated using pymatgen
data_K2NbCl6
_symmetry_space_group_name_H-M   'P 1'
_cell_length_a   6.93987664
_cell_length_b   6.84766566
_cell_length_c   10.48052084
_cell_angle_alpha   90.00000000
_cell_angle_beta   90.00000000
_cell_angle_gamma   90.03374798
_symmetry_Int_Tables_number   1
_chemical_formula_structural   K2NbCl6
_chemical_formula_sum   'K4 Nb2 Cl12'
_cell_volume   498.05475269
_cell_formula_units_Z   2
loop_
 _symmetry_equiv_pos_site_id
 _symmetry_equiv_pos_as_xyz
  1  'x, y, z'
loop_
 _atom_site_type_symbol
 _atom_site_label
 _atom_site_symmetry_multiplicity
 _atom_site_fract_x
 _atom_site_fract_y
 _atom_site_fract_z
 _atom_site_occupancy
  K  K0  1  0.50000000  -0.00000000  0.75013569  1
  K  K1  1  -0.00000000  0.50000000  0.74988866  1
  K  K2  1  0.50000000  -0.00000000  0.24986431  1
  K  K3  1  -0.00000000  0.50000000  0.25011134  1
  Nb  Nb0  1  -0.00000000  -0.00000000  0.00000000  1
  Nb  Nb1  1  0.50000000  0.50000000  0.50000000  1
  Cl  Cl0  1  0.50000000  0.50000000  0.73488233  1
  Cl  Cl1  1  -0.00000000  -0.00000000  0.76512126  1
  Cl  Cl2  1  0.69737394  0.20859353  0.50000000  1
  Cl  Cl3  1  0.50000000  0.50000000  0.26511767  1
  Cl  Cl4  1  0.80245423  0.70853933  0.00000000  1
  Cl  Cl5  1  0.19754577  0.29146067  0.00000000  1
  Cl  Cl6  1  0.70870570  0.19445898  0.00000000  1
  Cl  Cl7  1  0.20859747  0.30543910  0.50000000  1
  Cl  Cl8  1  0.29129430  0.80554102  0.00000000  1
  Cl  Cl9  1  0.30262606  0.79140647  0.50000000  1
  Cl  Cl10  1  0.79140253  0.69456090  0.50000000  1
  Cl  Cl11  1  -0.00000000  -0.00000000  0.23487874  1
loop_
_geom_bond_atom_site_label_1
_geom_bond_atom_site_label_2
_geom_bond_distance
_geom_bond_site_symmetry_2
Cl0 Nb1 2.461689 1_555
Cl0 K0 3.427563 1_555
Cl0 K0 3.427563 1_565
Cl0 K1 3.473501 1_555
Cl0 K1 3.473501 1_655
Cl1 Nb0 2.461652 1_556
Cl1 K1 3.427553 1_545
Cl1 K1 3.427553 1_555
Cl1 K0 3.473491 1_555
Cl1 K0 3.473491 1_455
Cl2 Nb1 2.421007 1_555
Cl2 K0 3.284313 1_555
Cl2 K2 3.284313 1_555
Cl3 Nb1 2.461689 1_555
Cl3 K2 3.427563 1_555
Cl3 K2 3.427563 1_565
Cl3 K3 3.473501 1_555
Cl3 K3 3.473501 1_655
Cl4 Nb0 2.420657 1_665
Cl4 K3 3.285148 1_655
Cl4 K1 3.285148 1_654
Cl5 Nb0 2.420657 1_555
Cl5 K3 3.285148 1_555
Cl5 K1 3.285148 1_554
Cl6 Nb0 2.421354 1_655
Cl6 K0 3.275108 1_554
Cl6 K2 3.275108 1_555
Cl7 Nb1 2.421055 1_555
Cl7 K3 3.275957 1_555
Cl7 K1 3.275957 1_555
Cl8 Nb0 2.421354 1_565
Cl8 K0 3.275108 1_564
Cl8 K2 3.275108 1_565
Cl9 Nb1 2.421007 1_555
Cl9 K2 3.284313 1_565
Cl9 K0 3.284313 1_565
Cl10 Nb1 2.421055 1_555
Cl10 K1 3.275957 1_655
Cl10 K3 3.275957 1_655
Cl11 Nb0 2.461652 1_555
Cl11 K3 3.427553 1_545
Cl11 K3 3.427553 1_555
Cl11 K2 3.473491 1_455
Cl11 K2 3.473491 1_555
