# generated using pymatgen
data_YInO3
_symmetry_space_group_name_H-M   'P 1'
_cell_length_a   6.29052238
_cell_length_b   6.29052234
_cell_length_c   12.28582555
_cell_angle_alpha   90.00000511
_cell_angle_beta   89.99999218
_cell_angle_gamma   120.00012759
_symmetry_Int_Tables_number   1
_chemical_formula_structural   YInO3
_chemical_formula_sum   'Y6 In6 O18'
_cell_volume   421.02495557
_cell_formula_units_Z   6
loop_
 _symmetry_equiv_pos_site_id
 _symmetry_equiv_pos_as_xyz
  1  'x, y, z'
loop_
 _atom_site_type_symbol
 _atom_site_label
 _atom_site_symmetry_multiplicity
 _atom_site_fract_x
 _atom_site_fract_y
 _atom_site_fract_z
 _atom_site_occupancy
  Y  Y0  1  -0.00000033  -0.00000004  0.27113548  1
  Y  Y1  1  -0.00000002  0.00000029  0.77113527  1
  Y  Y2  1  0.33333338  0.66666645  0.23585119  1
  Y  Y3  1  0.66666667  0.33333339  0.73585102  1
  Y  Y4  1  0.33333337  0.66666672  0.73585092  1
  Y  Y5  1  0.66666668  0.33333348  0.23585112  1
  In  In0  1  0.33337182  0.00000035  0.00118912  1
  In  In1  1  0.33337116  0.33337115  0.50118923  1
  In  In2  1  -0.00000041  0.66662816  0.50118914  1
  In  In3  1  0.00000041  0.33337192  0.00118924  1
  In  In4  1  0.66662882  0.66662880  0.00118900  1
  In  In5  1  0.66662813  -0.00000051  0.50118920  1
  O  O0  1  0.30593189  -0.00000011  0.17254027  1
  O  O1  1  0.30593167  0.30593173  0.67254014  1
  O  O2  1  0.00000005  0.69406835  0.67254023  1
  O  O3  1  0.00000000  0.30593169  0.17254023  1
  O  O4  1  0.69406805  0.69406791  0.17254015  1
  O  O5  1  0.69406848  0.00000024  0.67254008  1
  O  O6  1  0.63785185  -0.00000020  0.33164169  1
  O  O7  1  0.63785133  0.63785147  0.83164175  1
  O  O8  1  0.00000014  0.36214850  0.83164175  1
  O  O9  1  -0.00000004  0.63785158  0.33164177  1
  O  O10  1  0.36214870  0.36214877  0.33164173  1
  O  O11  1  0.36214831  0.00000015  0.83164187  1
  O  O12  1  0.00000008  0.00000013  0.46917525  1
  O  O13  1  -0.00000017  -0.00000037  0.96917517  1
  O  O14  1  0.33333325  0.66666655  0.02953635  1
  O  O15  1  0.66666680  0.33333333  0.52953619  1
  O  O16  1  0.33333354  0.66666694  0.52953615  1
  O  O17  1  0.66666640  0.33333318  0.02953631  1
loop_
_geom_bond_atom_site_label_1
_geom_bond_atom_site_label_2
_geom_bond_distance
_geom_bond_site_symmetry_2
In0 O11 2.090879 1_554
In0 O0 2.112255 1_555
In0 O17 2.125441 1_555
In0 O14 2.125450 1_545
In0 O13 2.133647 1_554
In1 O10 2.090882 1_555
In1 O1 2.112252 1_555
In1 O15 2.125449 1_555
In1 O16 2.125450 1_555
In1 O12 2.133640 1_555
In2 O9 2.090880 1_555
In2 O2 2.112254 1_555
In2 O15 2.125441 1_455
In2 O16 2.125450 1_555
In2 O12 2.133648 1_565
In3 O8 2.090882 1_554
In3 O3 2.112253 1_555
In3 O14 2.125441 1_555
In3 O17 2.125450 1_455
In3 O13 2.133650 1_554
In4 O7 2.090879 1_554
In4 O4 2.112255 1_555
In4 O17 2.125449 1_555
In4 O14 2.125449 1_555
In4 O13 2.133639 1_664
In5 O6 2.090882 1_555
In5 O5 2.112252 1_555
In5 O16 2.125439 1_545
In5 O15 2.125449 1_555
In5 O12 2.133647 1_655
O0 Y0 2.273962 1_555
O0 Y5 2.322258 1_555
O0 Y2 2.322263 1_545
O1 Y1 2.273955 1_555
O1 Y4 2.322261 1_555
O1 Y3 2.322262 1_555
O2 Y1 2.273959 1_565
O2 Y3 2.322258 1_455
O2 Y4 2.322261 1_555
O3 Y0 2.273959 1_555
O3 Y2 2.322258 1_555
O3 Y5 2.322263 1_455
O4 Y0 2.273958 1_665
O4 Y5 2.322260 1_555
O4 Y2 2.322261 1_555
O5 Y1 2.273958 1_655
O5 Y4 2.322259 1_545
O5 Y3 2.322262 1_555
O6 Y2 2.331206 1_545
O6 Y5 2.331211 1_555
O6 Y0 2.396316 1_655
O7 Y4 2.331210 1_555
O7 Y3 2.331210 1_555
O7 Y1 2.396319 1_665
O8 Y4 2.331207 1_555
O8 Y3 2.331210 1_455
O8 Y1 2.396319 1_555
O9 Y5 2.331205 1_455
O9 Y2 2.331209 1_555
O9 Y0 2.396321 1_565
O10 Y2 2.331207 1_555
O10 Y5 2.331208 1_555
O10 Y0 2.396319 1_555
O11 Y3 2.331207 1_555
O11 Y4 2.331211 1_545
O11 Y1 2.396321 1_555
O12 Y0 2.433082 1_555
O13 Y1 2.433084 1_555
O14 Y2 2.534748 1_555
O15 Y3 2.534748 1_555
O16 Y4 2.534747 1_555
O17 Y5 2.534748 1_555
