# generated using pymatgen
data_TaSi2
_symmetry_space_group_name_H-M   'P 1'
_cell_length_a   4.76862017
_cell_length_b   4.76863314
_cell_length_c   6.52140995
_cell_angle_alpha   90.00000000
_cell_angle_beta   90.00000000
_cell_angle_gamma   119.99994092
_symmetry_Int_Tables_number   1
_chemical_formula_structural   TaSi2
_chemical_formula_sum   'Ta3 Si6'
_cell_volume   128.42779780
_cell_formula_units_Z   3
loop_
 _symmetry_equiv_pos_site_id
 _symmetry_equiv_pos_as_xyz
  1  'x, y, z'
loop_
 _atom_site_type_symbol
 _atom_site_label
 _atom_site_symmetry_multiplicity
 _atom_site_fract_x
 _atom_site_fract_y
 _atom_site_fract_z
 _atom_site_occupancy
  Ta  Ta0  1  -0.00000003  0.49999999  0.16664520  1
  Ta  Ta1  1  0.50000000  0.50000000  0.83334674  1
  Ta  Ta2  1  0.50000001  0.00000001  0.50000809  1
  Si  Si0  1  0.84138317  0.68276733  0.50000230  1
  Si  Si1  1  0.15861684  0.84138311  0.83331966  1
  Si  Si2  1  0.68276590  0.84138243  0.16667803  1
  Si  Si3  1  0.15861683  0.31723267  0.50000230  1
  Si  Si4  1  0.84138317  0.15861689  0.83331966  1
  Si  Si5  1  0.31723410  0.15861757  0.16667803  1
loop_
_geom_bond_atom_site_label_1
_geom_bond_atom_site_label_2
_geom_bond_distance
_geom_bond_site_symmetry_2
Si0 Si1 2.537975 1_655
Si0 Si2 2.538011 1_555
Si0 Ta1 2.591653 1_555
Si0 Ta0 2.591724 1_655
Si0 Si3 2.620190 1_665
Si0 Ta2 2.720528 1_565
Si0 Ta2 2.720531 1_665
Si0 Ta2 2.819665 1_555
Si0 Si3 2.822005 1_555
Si0 Si3 2.822014 1_655
Si1 Si5 2.538208 1_566
Si1 Ta2 2.591473 1_565
Si1 Ta0 2.591551 1_556
Si1 Si4 2.620192 1_465
Si1 Ta1 2.720532 1_455
Si1 Ta1 2.720539 1_565
Si1 Ta1 2.819654 1_555
Si1 Si4 2.822004 1_565
Si1 Si4 2.822011 1_455
Si2 Si4 2.538208 1_564
Si2 Ta2 2.591575 1_565
Si2 Ta1 2.591581 1_554
Si2 Si5 2.620194 1_665
Si2 Ta0 2.720531 1_655
Si2 Ta0 2.720542 1_665
Si2 Ta0 2.819652 1_555
Si2 Si5 2.822006 1_555
Si2 Si5 2.822007 1_565
Si3 Si4 2.537975 1_455
Si3 Si5 2.538011 1_555
Si3 Ta1 2.591653 1_555
Si3 Ta0 2.591724 1_555
Si3 Ta2 2.720528 1_555
Si3 Ta2 2.720531 1_455
Si3 Ta2 2.819665 1_565
Si4 Ta2 2.591473 1_555
Si4 Ta0 2.591551 1_656
Si4 Ta1 2.720532 1_655
Si4 Ta1 2.720539 1_545
Si4 Ta1 2.819654 1_555
Si5 Ta2 2.591575 1_555
Si5 Ta1 2.591581 1_554
Si5 Ta0 2.720532 1_555
Si5 Ta0 2.720542 1_545
Si5 Ta0 2.819651 1_655
