# generated using pymatgen
data_EuGeS3
_symmetry_space_group_name_H-M   'P 1'
_cell_length_a   8.41611227
_cell_length_b   8.48566184
_cell_length_c   11.77012284
_cell_angle_alpha   69.18407749
_cell_angle_beta   80.70013195
_cell_angle_gamma   75.42701155
_symmetry_Int_Tables_number   1
_chemical_formula_structural   EuGeS3
_chemical_formula_sum   'Eu6 Ge6 S18'
_cell_volume   758.00854765
_cell_formula_units_Z   6
loop_
 _symmetry_equiv_pos_site_id
 _symmetry_equiv_pos_as_xyz
  1  'x, y, z'
loop_
 _atom_site_type_symbol
 _atom_site_label
 _atom_site_symmetry_multiplicity
 _atom_site_fract_x
 _atom_site_fract_y
 _atom_site_fract_z
 _atom_site_occupancy
  Eu  Eu0  1  0.75310072  0.73989728  0.50010159  1
  Eu  Eu1  1  0.57211585  0.94565834  0.81538308  1
  Eu  Eu2  1  0.24689928  0.26010272  0.49989841  1
  Eu  Eu3  1  0.10877948  0.74028794  0.13600850  1
  Eu  Eu4  1  0.89122052  0.25971206  0.86399150  1
  Eu  Eu5  1  0.42788415  0.05434166  0.18461692  1
  Ge  Ge0  1  0.09311438  0.84116301  0.80308248  1
  Ge  Ge1  1  0.76990673  0.27638986  0.47102332  1
  Ge  Ge2  1  0.90688562  0.15883699  0.19691752  1
  Ge  Ge3  1  0.23009327  0.72361014  0.52897668  1
  Ge  Ge4  1  0.44516743  0.48218822  0.81283543  1
  Ge  Ge5  1  0.55483257  0.51781178  0.18716457  1
  S  S0  1  0.39102829  0.90695090  0.45778956  1
  S  S1  1  0.21642030  0.57857061  0.91916293  1
  S  S2  1  -0.00536172  0.18057385  0.36027957  1
  S  S3  1  0.64617578  0.62155350  0.76736343  1
  S  S4  1  0.11798275  0.65542162  0.40303338  1
  S  S5  1  0.88010725  0.88841764  0.92896259  1
  S  S6  1  0.35980238  0.46206366  0.64590137  1
  S  S7  1  0.00536172  0.81942615  0.63972043  1
  S  S8  1  0.64019762  0.53793634  0.35409863  1
  S  S9  1  0.11989275  0.11158236  0.07103741  1
  S  S10  1  0.60897171  0.09304910  0.54221044  1
  S  S11  1  0.22546094  0.04858609  0.76446314  1
  S  S12  1  0.54455566  0.21661109  0.92252109  1
  S  S13  1  0.45544434  0.78338891  0.07747891  1
  S  S14  1  0.78357970  0.42142939  0.08083707  1
  S  S15  1  0.77453906  0.95141391  0.23553686  1
  S  S16  1  0.88201725  0.34457838  0.59696662  1
  S  S17  1  0.35382422  0.37844650  0.23263657  1
loop_
_geom_bond_atom_site_label_1
_geom_bond_atom_site_label_2
_geom_bond_distance
_geom_bond_site_symmetry_2
Eu0 S15 2.993296 1_555
Eu0 S3 3.001395 1_555
Eu0 S0 3.059110 1_555
Eu0 S16 3.095158 1_555
Eu0 S4 3.096753 1_655
Eu0 S10 3.119209 1_565
Eu0 S8 3.198976 1_555
Eu0 S7 3.209387 1_655
Eu1 S3 2.898288 1_555
Eu1 S11 2.923109 1_565
Eu1 S12 2.937371 1_565
Eu1 S5 2.960894 1_555
Eu1 S10 3.002207 1_565
Eu1 S13 3.009839 1_556
Eu2 S11 2.993296 1_555
Eu2 S17 3.001395 1_555
Eu2 S10 3.059110 1_555
Eu2 S4 3.095158 1_555
Eu2 S16 3.096753 1_455
Eu2 S0 3.119209 1_545
Eu2 S6 3.198976 1_555
Eu2 S2 3.209387 1_555
Eu3 S13 2.971340 1_555
Eu3 S4 2.973969 1_555
Eu3 S9 2.988824 1_565
Eu3 S5 3.056782 1_454
Eu3 S17 3.172378 1_555
Eu3 S1 3.214730 1_554
Eu3 S15 3.222646 1_455
Eu4 S12 2.971340 1_555
Eu4 S16 2.973969 1_555
Eu4 S5 2.988824 1_545
Eu4 S9 3.056782 1_656
Eu4 S3 3.172378 1_555
Eu4 S14 3.214730 1_556
Eu4 S11 3.222646 1_655
Eu5 S17 2.898288 1_555
Eu5 S15 2.923109 1_545
Eu5 S13 2.937371 1_545
Eu5 S9 2.960894 1_555
Eu5 S0 3.002207 1_545
Eu5 S12 3.009839 1_554
Ge0 S5 2.184445 1_455
Ge0 S11 2.190798 1_565
Ge0 S1 2.244919 1_555
Ge0 S7 2.248593 1_555
Ge1 S10 2.173504 1_555
Ge1 S16 2.181488 1_555
Ge1 S8 2.259842 1_555
Ge1 S2 2.262727 1_655
Ge2 S9 2.184445 1_655
Ge2 S15 2.190798 1_545
Ge2 S14 2.244919 1_555
Ge2 S2 2.248593 1_655
Ge3 S0 2.173504 1_555
Ge3 S4 2.181488 1_555
Ge3 S6 2.259842 1_555
Ge3 S7 2.262727 1_555
Ge4 S12 2.185790 1_555
Ge4 S3 2.193437 1_555
Ge4 S1 2.257832 1_555
Ge4 S6 2.272081 1_555
Ge5 S13 2.185790 1_555
Ge5 S17 2.193437 1_555
Ge5 S14 2.257832 1_555
Ge5 S8 2.272081 1_555
