# generated using pymatgen
data_Ba3Er2(PS4)4
_symmetry_space_group_name_H-M   'P 1'
_cell_length_a   10.39632400
_cell_length_b   12.72353600
_cell_length_c   19.42011800
_cell_angle_alpha   90.00000000
_cell_angle_beta   90.00000000
_cell_angle_gamma   90.00000000
_symmetry_Int_Tables_number   1
_chemical_formula_structural   Ba3Er2(PS4)4
_chemical_formula_sum   'Ba12 Er8 P16 S64'
_cell_volume   2568.85442088
_cell_formula_units_Z   4
loop_
 _symmetry_equiv_pos_site_id
 _symmetry_equiv_pos_as_xyz
  1  'x, y, z'
loop_
 _atom_site_type_symbol
 _atom_site_label
 _atom_site_symmetry_multiplicity
 _atom_site_fract_x
 _atom_site_fract_y
 _atom_site_fract_z
 _atom_site_occupancy
  Ba  Ba0  1  0.38265400  0.75000000  0.50000000  1
  Ba  Ba1  1  0.88265400  0.75000000  0.00000000  1
  Ba  Ba2  1  0.78937200  0.39075600  0.77288900  1
  Ba  Ba3  1  0.61734600  0.25000000  0.50000000  1
  Ba  Ba4  1  0.78937200  0.10924400  0.22711100  1
  Ba  Ba5  1  0.71062800  0.60924400  0.27288900  1
  Ba  Ba6  1  0.21062800  0.60924400  0.22711100  1
  Ba  Ba7  1  0.21062800  0.89075600  0.77288900  1
  Ba  Ba8  1  0.28937200  0.10924400  0.27288900  1
  Ba  Ba9  1  0.28937200  0.39075600  0.72711100  1
  Ba  Ba10  1  0.71062800  0.89075600  0.72711100  1
  Ba  Ba11  1  0.11734600  0.25000000  0.00000000  1
  Er  Er0  1  0.37135400  0.61253600  0.92665100  1
  Er  Er1  1  0.62864600  0.11253600  0.92665100  1
  Er  Er2  1  0.87135400  0.88746400  0.42665100  1
  Er  Er3  1  0.12864600  0.11253600  0.57334900  1
  Er  Er4  1  0.12864600  0.38746400  0.42665100  1
  Er  Er5  1  0.37135400  0.88746400  0.07334900  1
  Er  Er6  1  0.87135400  0.61253600  0.57334900  1
  Er  Er7  1  0.62864600  0.38746400  0.07334900  1
  P  P0  1  0.00461900  0.86000500  0.60173800  1
  P  P1  1  0.43649900  0.45159400  0.36909800  1
  P  P2  1  0.93649900  0.04840600  0.86909800  1
  P  P3  1  0.99538100  0.13999500  0.39826200  1
  P  P4  1  0.56350100  0.54840600  0.63090200  1
  P  P5  1  0.43649900  0.04840600  0.63090200  1
  P  P6  1  0.06350100  0.95159400  0.13090200  1
  P  P7  1  0.49538100  0.13999500  0.10173800  1
  P  P8  1  0.93649900  0.45159400  0.13090200  1
  P  P9  1  0.99538100  0.36000500  0.60173800  1
  P  P10  1  0.06350100  0.54840600  0.86909800  1
  P  P11  1  0.50461900  0.63999500  0.10173800  1
  P  P12  1  0.56350100  0.95159400  0.36909800  1
  P  P13  1  0.50461900  0.86000500  0.89826200  1
  P  P14  1  0.00461900  0.63999500  0.39826200  1
  P  P15  1  0.49538100  0.36000500  0.89826200  1
  S  S0  1  0.06457800  0.72937900  0.65060400  1
  S  S1  1  0.06977200  0.38742700  0.85284700  1
  S  S2  1  0.93022800  0.61257300  0.14715300  1
  S  S3  1  0.00365800  0.01401200  0.33360200  1
  S  S4  1  0.56977200  0.11257300  0.35284700  1
  S  S5  1  0.38852600  0.40203300  0.98380400  1
  S  S6  1  0.79001900  0.11377100  0.80924600  1
  S  S7  1  0.17925800  0.17054500  0.43232800  1
  S  S8  1  0.56457800  0.72937900  0.84939600  1
  S  S9  1  0.49634200  0.98598800  0.83360200  1
  S  S10  1  0.88852600  0.40203300  0.51619600  1
  S  S11  1  0.38550200  0.60564400  0.64960100  1
  S  S12  1  0.43542200  0.27062100  0.15060400  1
  S  S13  1  0.67925800  0.32945500  0.93232800  1
  S  S14  1  0.87857200  0.08518200  0.96755800  1
  S  S15  1  0.61147400  0.59796700  0.01619600  1
  S  S16  1  0.70998100  0.61377100  0.69075400  1
  S  S17  1  0.37857200  0.41481800  0.46755800  1
  S  S18  1  0.49634200  0.51401200  0.16639800  1
  S  S19  1  0.43022800  0.88742700  0.64715300  1
  S  S20  1  0.88852600  0.09796700  0.48380400  1
  S  S21  1  0.93022800  0.88742700  0.85284700  1
  S  S22  1  0.29001900  0.11377100  0.69075400  1
  S  S23  1  0.11449800  0.39435600  0.14960100  1
  S  S24  1  0.62142800  0.91481800  0.46755800  1
  S  S25  1  0.37857200  0.08518200  0.53244200  1
  S  S26  1  0.38852600  0.09796700  0.01619600  1
  S  S27  1  0.29001900  0.38622900  0.30924600  1
  S  S28  1  0.87857200  0.41481800  0.03244200  1
  S  S29  1  0.32074200  0.67054500  0.06767200  1
  S  S30  1  0.38550200  0.89435600  0.35039900  1
  S  S31  1  0.12142800  0.91481800  0.03244200  1
  S  S32  1  0.06977200  0.11257300  0.14715300  1
  S  S33  1  0.61449800  0.39435600  0.35039900  1
  S  S34  1  0.12142800  0.58518200  0.96755800  1
  S  S35  1  0.99634200  0.98598800  0.66639800  1
  S  S36  1  0.88550200  0.60564400  0.85039900  1
  S  S37  1  0.88550200  0.89435600  0.14960100  1
  S  S38  1  0.82074200  0.67054500  0.43232800  1
  S  S39  1  0.56457800  0.77062100  0.15060400  1
  S  S40  1  0.32074200  0.82945500  0.93232800  1
  S  S41  1  0.43022800  0.61257300  0.35284700  1
  S  S42  1  0.61147400  0.90203300  0.98380400  1
  S  S43  1  0.67925800  0.17054500  0.06767200  1
  S  S44  1  0.82074200  0.82945500  0.56767200  1
  S  S45  1  0.11147400  0.90203300  0.51619600  1
  S  S46  1  0.20998100  0.88622900  0.19075400  1
  S  S47  1  0.50365800  0.48598800  0.83360200  1
  S  S48  1  0.93542200  0.22937900  0.65060400  1
  S  S49  1  0.79001900  0.38622900  0.19075400  1
  S  S50  1  0.06457800  0.77062100  0.34939600  1
  S  S51  1  0.17925800  0.32945500  0.56767200  1
  S  S52  1  0.00365800  0.48598800  0.66639800  1
  S  S53  1  0.11449800  0.10564400  0.85039900  1
  S  S54  1  0.11147400  0.59796700  0.48380400  1
  S  S55  1  0.70998100  0.88622900  0.30924600  1
  S  S56  1  0.99634200  0.51401200  0.33360200  1
  S  S57  1  0.93542200  0.27062100  0.34939600  1
  S  S58  1  0.56977200  0.38742700  0.64715300  1
  S  S59  1  0.61449800  0.10564400  0.64960100  1
  S  S60  1  0.43542200  0.22937900  0.84939600  1
  S  S61  1  0.50365800  0.01401200  0.16639800  1
  S  S62  1  0.20998100  0.61377100  0.80924600  1
  S  S63  1  0.62142800  0.58518200  0.53244200  1
loop_
_geom_bond_atom_site_label_1
_geom_bond_atom_site_label_2
_geom_bond_distance
_geom_bond_site_symmetry_2
Ba0 S63 3.310105 1_555
Ba0 S24 3.310105 1_555
Ba0 S41 3.386545 1_555
Ba0 S19 3.386545 1_555
Ba0 S45 3.433531 1_555
Ba0 S54 3.433531 1_555
Ba0 S11 3.437296 1_555
Ba0 S30 3.437296 1_555
Ba1 S34 3.310105 1_654
Ba1 S31 3.310105 1_655
Ba1 S21 3.386545 1_554
Ba1 S2 3.386545 1_555
Ba1 S42 3.433531 1_554
Ba1 S15 3.433531 1_555
Ba1 S36 3.437296 1_554
Ba1 S37 3.437296 1_555
Ba2 S52 3.272327 1_655
Ba2 S36 3.277206 1_555
Ba2 S1 3.303171 1_655
Ba2 S58 3.343121 1_555
Ba2 S16 3.358143 1_555
Ba2 S13 3.392063 1_555
Ba2 S47 3.417819 1_555
Ba2 S48 3.487276 1_555
Ba2 S6 3.594266 1_555
Ba3 S25 3.310105 1_555
Ba3 S17 3.310105 1_555
Ba3 S4 3.386545 1_555
Ba3 S58 3.386545 1_555
Ba3 S10 3.433531 1_555
Ba3 S20 3.433531 1_555
Ba3 S33 3.437296 1_555
Ba3 S59 3.437296 1_555
Ba4 S3 3.272327 1_655
Ba4 S37 3.277206 1_545
Ba4 S32 3.303171 1_655
Ba4 S4 3.343121 1_555
Ba4 S55 3.358143 1_545
Ba4 S43 3.392063 1_555
Ba4 S61 3.417819 1_555
Ba4 S57 3.487276 1_555
Ba4 S49 3.594266 1_555
Ba5 S18 3.272327 1_555
Ba5 S33 3.277206 1_555
Ba5 S41 3.303171 1_555
Ba5 S2 3.343121 1_555
Ba5 S49 3.358143 1_555
Ba5 S38 3.392063 1_555
Ba5 S56 3.417819 1_555
Ba5 S39 3.487276 1_555
Ba5 S55 3.594266 1_555
Ba6 S56 3.272327 1_455
Ba6 S23 3.277206 1_555
Ba6 S2 3.303171 1_455
Ba6 S41 3.343121 1_555
Ba6 S27 3.358143 1_555
Ba6 S29 3.392063 1_555
Ba6 S18 3.417819 1_555
Ba6 S50 3.487276 1_555
Ba6 S46 3.594266 1_555
Ba7 S35 3.272327 1_455
Ba7 S53 3.277206 1_565
Ba7 S21 3.303171 1_455
Ba7 S19 3.343121 1_555
Ba7 S22 3.358143 1_565
Ba7 S40 3.392063 1_555
Ba7 S9 3.417819 1_555
Ba7 S0 3.487276 1_555
Ba7 S62 3.594266 1_555
Ba8 S61 3.272327 1_555
Ba8 S30 3.277206 1_545
Ba8 S4 3.303171 1_555
Ba8 S32 3.343121 1_555
Ba8 S46 3.358143 1_545
Ba8 S7 3.392063 1_555
Ba8 S3 3.417819 1_555
Ba8 S12 3.487276 1_555
Ba8 S27 3.594266 1_555
Ba9 S47 3.272327 1_555
Ba9 S11 3.277206 1_555
Ba9 S58 3.303171 1_555
Ba9 S1 3.343121 1_555
Ba9 S62 3.358143 1_555
Ba9 S51 3.392063 1_555
Ba9 S52 3.417819 1_555
Ba9 S60 3.487276 1_555
Ba9 S22 3.594266 1_555
Ba10 S9 3.272327 1_555
Ba10 S59 3.277206 1_565
Ba10 S19 3.303171 1_555
Ba10 S21 3.343121 1_555
Ba10 S6 3.358143 1_565
Ba10 S44 3.392063 1_555
Ba10 S35 3.417819 1_555
Ba10 S8 3.487276 1_555
Ba10 S16 3.594266 1_555
Ba11 S14 3.310105 1_454
Ba11 S28 3.310105 1_455
Ba11 S1 3.386545 1_554
Ba11 S32 3.386545 1_555
Ba11 S26 3.433531 1_555
Ba11 S5 3.433531 1_554
Ba11 S53 3.437296 1_554
Ba11 S23 3.437296 1_555
Er0 S34 2.739244 1_555
Er0 S47 2.783848 1_555
Er0 S40 2.811848 1_555
Er0 S62 2.830789 1_555
Er0 S29 2.884753 1_556
Er0 S5 2.904704 1_555
Er0 S8 2.914859 1_555
Er0 S15 3.047988 1_556
Er1 S14 2.739244 1_555
Er1 S9 2.783848 1_545
Er1 S13 2.811848 1_555
Er1 S6 2.830789 1_555
Er1 S43 2.884753 1_556
Er1 S42 2.904704 1_545
Er1 S60 2.914859 1_555
Er1 S26 3.047988 1_556
Er2 S24 2.739244 1_555
Er2 S3 2.783848 1_665
Er2 S38 2.811848 1_555
Er2 S55 2.830789 1_555
Er2 S44 2.884753 1_555
Er2 S20 2.904704 1_565
Er2 S50 2.914859 1_655
Er2 S45 3.047988 1_655
Er3 S25 2.739244 1_555
Er3 S35 2.783848 1_445
Er3 S51 2.811848 1_555
Er3 S22 2.830789 1_555
Er3 S7 2.884753 1_555
Er3 S45 2.904704 1_545
Er3 S48 2.914859 1_455
Er3 S20 3.047988 1_455
Er4 S17 2.739244 1_555
Er4 S56 2.783848 1_455
Er4 S7 2.811848 1_555
Er4 S27 2.830789 1_555
Er4 S51 2.884753 1_555
Er4 S54 2.904704 1_555
Er4 S57 2.914859 1_455
Er4 S10 3.047988 1_455
Er5 S31 2.739244 1_555
Er5 S61 2.783848 1_565
Er5 S29 2.811848 1_555
Er5 S46 2.830789 1_555
Er5 S40 2.884753 1_554
Er5 S26 2.904704 1_565
Er5 S39 2.914859 1_555
Er5 S42 3.047988 1_554
Er6 S63 2.739244 1_555
Er6 S52 2.783848 1_655
Er6 S44 2.811848 1_555
Er6 S16 2.830789 1_555
Er6 S38 2.884753 1_555
Er6 S10 2.904704 1_555
Er6 S0 2.914859 1_655
Er6 S54 3.047988 1_655
Er7 S28 2.739244 1_555
Er7 S18 2.783848 1_555
Er7 S43 2.811848 1_555
Er7 S49 2.830789 1_555
Er7 S13 2.884753 1_554
Er7 S15 2.904704 1_555
Er7 S12 2.914859 1_555
Er7 S5 3.047988 1_554
P0 S0 2.012825 1_555
P0 S35 2.038049 1_455
P0 S44 2.059890 1_455
P0 S45 2.068756 1_555
P1 S33 2.021565 1_555
P1 S17 2.058585 1_555
P1 S41 2.073419 1_555
P1 S27 2.088488 1_555
P2 S53 2.021565 1_655
P2 S14 2.058585 1_555
P2 S21 2.073419 1_545
P2 S6 2.088488 1_555
P3 S57 2.012825 1_555
P3 S3 2.038049 1_655
P3 S7 2.059890 1_655
P3 S20 2.068756 1_555
P4 S11 2.021565 1_555
P4 S63 2.058585 1_555
P4 S58 2.073419 1_555
P4 S16 2.088488 1_555
P5 S59 2.021565 1_555
P5 S25 2.058585 1_555
P5 S19 2.073419 1_545
P5 S22 2.088488 1_555
P6 S37 2.021565 1_455
P6 S31 2.058585 1_555
P6 S32 2.073419 1_565
P6 S46 2.088488 1_555
P7 S12 2.012825 1_555
P7 S61 2.038049 1_555
P7 S43 2.059890 1_555
P7 S26 2.068756 1_555
P8 S23 2.021565 1_655
P8 S28 2.058585 1_555
P8 S2 2.073419 1_555
P8 S49 2.088488 1_555
P9 S48 2.012825 1_555
P9 S52 2.038049 1_655
P9 S51 2.059890 1_655
P9 S10 2.068756 1_555
P10 S36 2.021565 1_455
P10 S34 2.058585 1_555
P10 S1 2.073419 1_555
P10 S62 2.088488 1_555
P11 S39 2.012825 1_555
P11 S18 2.038049 1_555
P11 S29 2.059890 1_555
P11 S15 2.068756 1_555
P12 S30 2.021565 1_555
P12 S24 2.058585 1_555
P12 S4 2.073419 1_565
P12 S55 2.088488 1_555
P13 S8 2.012825 1_555
P13 S9 2.038049 1_555
P13 S40 2.059890 1_555
P13 S42 2.068756 1_555
P14 S50 2.012825 1_555
P14 S56 2.038049 1_455
P14 S38 2.059890 1_455
P14 S54 2.068756 1_555
P15 S60 2.012825 1_555
P15 S47 2.038049 1_555
P15 S13 2.059890 1_555
P15 S5 2.068756 1_555
