# generated using pymatgen
data_NaSb3(PO5)2
_symmetry_space_group_name_H-M   'P 1'
_cell_length_a   6.77785000
_cell_length_b   14.24831700
_cell_length_c   21.37760200
_cell_angle_alpha   90.00000000
_cell_angle_beta   90.00000000
_cell_angle_gamma   90.00000000
_symmetry_Int_Tables_number   1
_chemical_formula_structural   NaSb3(PO5)2
_chemical_formula_sum   'Na8 Sb24 P16 O80'
_cell_volume   2064.49820404
_cell_formula_units_Z   8
loop_
 _symmetry_equiv_pos_site_id
 _symmetry_equiv_pos_as_xyz
  1  'x, y, z'
loop_
 _atom_site_type_symbol
 _atom_site_label
 _atom_site_symmetry_multiplicity
 _atom_site_fract_x
 _atom_site_fract_y
 _atom_site_fract_z
 _atom_site_occupancy
  Na  Na0  1  0.18395000  0.88657300  0.43811400  1
  Na  Na1  1  0.69828800  0.36975400  0.63409400  1
  Na  Na2  1  0.30171200  0.63024600  0.13409400  1
  Na  Na3  1  0.69828800  0.13024600  0.13409400  1
  Na  Na4  1  0.81605000  0.11342700  0.93811400  1
  Na  Na5  1  0.30171200  0.86975400  0.63409400  1
  Na  Na6  1  0.18395000  0.61342700  0.93811400  1
  Na  Na7  1  0.81605000  0.38657300  0.43811400  1
  Sb  Sb0  1  0.46502200  0.64049400  0.79171300  1
  Sb  Sb1  1  0.29481400  0.26788700  0.49698700  1
  Sb  Sb2  1  0.98935400  0.10802500  0.28156700  1
  Sb  Sb3  1  0.64109300  0.48985100  0.91515400  1
  Sb  Sb4  1  0.29481400  0.23211300  0.99698700  1
  Sb  Sb5  1  0.70518600  0.73211300  0.99698700  1
  Sb  Sb6  1  0.98935400  0.39197500  0.78156700  1
  Sb  Sb7  1  0.53497800  0.35950600  0.29171300  1
  Sb  Sb8  1  0.46502200  0.85950600  0.29171300  1
  Sb  Sb9  1  0.01064600  0.60802500  0.28156700  1
  Sb  Sb10  1  0.78744800  0.98961700  0.57417700  1
  Sb  Sb11  1  0.21255200  0.01038300  0.07417700  1
  Sb  Sb12  1  0.01064600  0.89197500  0.78156700  1
  Sb  Sb13  1  0.78744800  0.51038300  0.07417700  1
  Sb  Sb14  1  0.35890700  0.98985100  0.91515400  1
  Sb  Sb15  1  0.84034600  0.74394200  0.65589400  1
  Sb  Sb16  1  0.53497800  0.14049400  0.79171300  1
  Sb  Sb17  1  0.21255200  0.48961700  0.57417700  1
  Sb  Sb18  1  0.15965400  0.25605800  0.15589400  1
  Sb  Sb19  1  0.84034600  0.75605800  0.15589400  1
  Sb  Sb20  1  0.70518600  0.76788700  0.49698700  1
  Sb  Sb21  1  0.64109300  0.01014900  0.41515400  1
  Sb  Sb22  1  0.35890700  0.51014900  0.41515400  1
  Sb  Sb23  1  0.15965400  0.24394200  0.65589400  1
  P  P0  1  0.30488400  0.03653200  0.53763000  1
  P  P1  1  0.96544600  0.60524500  0.80882500  1
  P  P2  1  0.51589900  0.64376000  0.26404400  1
  P  P3  1  0.18948500  0.78050300  0.03407200  1
  P  P4  1  0.48410100  0.14376000  0.26404400  1
  P  P5  1  0.81051500  0.28050300  0.03407200  1
  P  P6  1  0.03455400  0.10524500  0.80882500  1
  P  P7  1  0.48410100  0.35624000  0.76404400  1
  P  P8  1  0.69511600  0.96346800  0.03763000  1
  P  P9  1  0.51589900  0.85624000  0.76404400  1
  P  P10  1  0.96544600  0.89475500  0.30882500  1
  P  P11  1  0.30488400  0.46346800  0.03763000  1
  P  P12  1  0.69511600  0.53653200  0.53763000  1
  P  P13  1  0.18948500  0.71949700  0.53407200  1
  P  P14  1  0.03455400  0.39475500  0.30882500  1
  P  P15  1  0.81051500  0.21949700  0.53407200  1
  O  O0  1  0.55891500  0.80709500  0.70049600  1
  O  O1  1  0.07716600  0.44786600  0.37093400  1
  O  O2  1  0.12477200  0.72606800  0.60366800  1
  O  O3  1  0.87522800  0.22606800  0.60366800  1
  O  O4  1  0.46732000  0.72105500  0.31483900  1
  O  O5  1  0.24710700  0.17421400  0.08278800  1
  O  O6  1  0.66612000  0.42099200  0.75690500  1
  O  O7  1  0.02771700  0.75728100  0.48855900  1
  O  O8  1  0.50491500  0.10064400  0.88012500  1
  O  O9  1  0.97228300  0.25728100  0.48855900  1
  O  O10  1  0.87522800  0.27393200  0.10366800  1
  O  O11  1  0.44108500  0.30709500  0.70049600  1
  O  O12  1  0.00070400  0.96997400  0.25571300  1
  O  O13  1  0.84511800  0.33536600  0.31754500  1
  O  O14  1  0.46601900  0.99794300  0.58283800  1
  O  O15  1  0.69117700  0.91590500  0.78748500  1
  O  O16  1  0.00836900  0.14860200  0.19299400  1
  O  O17  1  0.26070700  0.06820400  0.98813600  1
  O  O18  1  0.24710700  0.32578600  0.58278800  1
  O  O19  1  0.99163100  0.64860200  0.19299400  1
  O  O20  1  0.63398600  0.52757000  0.46770200  1
  O  O21  1  0.33388000  0.92099200  0.75690500  1
  O  O22  1  0.15488200  0.83536600  0.31754500  1
  O  O23  1  0.79569500  0.82891700  0.28938300  1
  O  O24  1  0.99929600  0.46997400  0.25571300  1
  O  O25  1  0.62463300  0.21927700  0.02412500  1
  O  O26  1  0.30882300  0.41590500  0.78748500  1
  O  O27  1  0.92283400  0.55213400  0.87093400  1
  O  O28  1  0.26894700  0.14239600  0.55315300  1
  O  O29  1  0.23380900  0.61437300  0.51728200  1
  O  O30  1  0.69117700  0.58409500  0.28748500  1
  O  O31  1  0.79569500  0.67108300  0.78938300  1
  O  O32  1  0.00070400  0.53002600  0.75571300  1
  O  O33  1  0.37536700  0.78072300  0.52412500  1
  O  O34  1  0.49508500  0.60064400  0.88012500  1
  O  O35  1  0.84511800  0.16463400  0.81754500  1
  O  O36  1  0.26894700  0.35760400  0.05315300  1
  O  O37  1  0.20430500  0.32891700  0.28938300  1
  O  O38  1  0.11728000  0.52280600  0.04836000  1
  O  O39  1  0.23380900  0.88562700  0.01728200  1
  O  O40  1  0.62463300  0.28072300  0.52412500  1
  O  O41  1  0.02771700  0.74271900  0.98855900  1
  O  O42  1  0.73929300  0.56820400  0.98813600  1
  O  O43  1  0.37536700  0.71927700  0.02412500  1
  O  O44  1  0.75289300  0.82578600  0.58278800  1
  O  O45  1  0.50491500  0.39935600  0.38012500  1
  O  O46  1  0.49508500  0.89935600  0.38012500  1
  O  O47  1  0.11728000  0.97719400  0.54836000  1
  O  O48  1  0.53268000  0.27894500  0.81483900  1
  O  O49  1  0.26070700  0.43179600  0.48813600  1
  O  O50  1  0.44108500  0.19290500  0.20049600  1
  O  O51  1  0.46732000  0.77894500  0.81483900  1
  O  O52  1  0.00836900  0.35139800  0.69299400  1
  O  O53  1  0.73105300  0.64239600  0.55315300  1
  O  O54  1  0.30882300  0.08409500  0.28748500  1
  O  O55  1  0.99163100  0.85139800  0.69299400  1
  O  O56  1  0.66612000  0.07900800  0.25690500  1
  O  O57  1  0.99929600  0.03002600  0.75571300  1
  O  O58  1  0.36601400  0.02757000  0.46770200  1
  O  O59  1  0.63398600  0.97243000  0.96770200  1
  O  O60  1  0.20430500  0.17108300  0.78938300  1
  O  O61  1  0.88272000  0.02280600  0.04836000  1
  O  O62  1  0.88272000  0.47719400  0.54836000  1
  O  O63  1  0.53398100  0.49794300  0.58283800  1
  O  O64  1  0.46601900  0.50205700  0.08283800  1
  O  O65  1  0.36601400  0.47243000  0.96770200  1
  O  O66  1  0.97228300  0.24271900  0.98855900  1
  O  O67  1  0.53398100  0.00205700  0.08283800  1
  O  O68  1  0.53268000  0.22105500  0.31483900  1
  O  O69  1  0.73929300  0.93179600  0.48813600  1
  O  O70  1  0.55891500  0.69290500  0.20049600  1
  O  O71  1  0.76619100  0.38562700  0.01728200  1
  O  O72  1  0.92283400  0.94786600  0.37093400  1
  O  O73  1  0.33388000  0.57900800  0.25690500  1
  O  O74  1  0.12477200  0.77393200  0.10366800  1
  O  O75  1  0.15488200  0.66463400  0.81754500  1
  O  O76  1  0.76619100  0.11437300  0.51728200  1
  O  O77  1  0.75289300  0.67421400  0.08278800  1
  O  O78  1  0.07716600  0.05213400  0.87093400  1
  O  O79  1  0.73105300  0.85760400  0.05315300  1
loop_
_geom_bond_atom_site_label_1
_geom_bond_atom_site_label_2
_geom_bond_distance
_geom_bond_site_symmetry_2
Na0 O7 2.382840 1_555
Na0 O72 2.440783 1_455
Na0 O58 2.441066 1_565
Na0 O46 2.452976 1_555
Na0 O22 2.685989 1_555
Na0 O33 2.709005 1_555
Na0 O47 2.725044 1_555
Na1 O63 2.403509 1_555
Na1 O11 2.418910 1_555
Na1 O3 2.460222 1_555
Na1 O52 2.463921 1_655
Na1 O62 2.695405 1_555
Na1 O40 2.717541 1_555
Na1 O6 2.733728 1_555
Na2 O64 2.403509 1_555
Na2 O70 2.418910 1_555
Na2 O74 2.460222 1_555
Na2 O19 2.463921 1_455
Na2 O38 2.695405 1_555
Na2 O43 2.717541 1_555
Na2 O73 2.733728 1_555
Na3 O67 2.403509 1_555
Na3 O50 2.418910 1_555
Na3 O10 2.460222 1_555
Na3 O16 2.463921 1_655
Na3 O61 2.695405 1_555
Na3 O25 2.717541 1_555
Na3 O56 2.733728 1_555
Na4 O66 2.382840 1_555
Na4 O78 2.440783 1_655
Na4 O59 2.441066 1_545
Na4 O8 2.452976 1_555
Na4 O35 2.685989 1_555
Na4 O25 2.709005 1_556
Na4 O61 2.725044 1_556
Na5 O14 2.403509 1_555
Na5 O0 2.418910 1_555
Na5 O2 2.460222 1_555
Na5 O55 2.463921 1_455
Na5 O47 2.695405 1_555
Na5 O33 2.717541 1_555
Na5 O21 2.733728 1_555
Na6 O41 2.382840 1_555
Na6 O27 2.440783 1_455
Na6 O65 2.441066 1_555
Na6 O34 2.452976 1_555
Na6 O75 2.685989 1_555
Na6 O43 2.709005 1_556
Na6 O38 2.725044 1_556
Na7 O9 2.382840 1_555
Na7 O1 2.440783 1_655
Na7 O20 2.441066 1_555
Na7 O45 2.452976 1_555
Na7 O13 2.685989 1_555
Na7 O40 2.709005 1_555
Na7 O62 2.725044 1_555
O0 P9 1.555913 1_555
O0 Sb15 2.314597 1_555
O1 P14 1.555305 1_555
O1 Sb22 2.308185 1_555
O2 P13 1.553926 1_555
O2 Sb15 2.242266 1_455
O3 P15 1.553926 1_555
O3 Sb23 2.242266 1_655
O4 P2 1.581282 1_555
O4 Sb8 2.033758 1_555
O5 Sb4 2.037028 1_554
O5 Sb18 2.038054 1_555
O5 Sb11 2.353247 1_555
O6 P7 1.548065 1_555
O6 Sb6 2.290990 1_555
O7 P13 1.561620 1_555
O7 Sb20 2.198678 1_455
O8 Sb16 1.983973 1_555
O8 Sb14 2.008015 1_545
O9 P15 1.561620 1_555
O9 Sb1 2.198678 1_655
O10 P5 1.553926 1_555
O10 Sb18 2.242266 1_655
O11 P7 1.555913 1_555
O11 Sb23 2.314597 1_555
O12 P10 1.579523 1_455
O12 Sb2 2.044617 1_465
O13 P14 1.548990 1_655
O13 Sb7 2.200457 1_555
O14 P0 1.558558 1_565
O14 Sb10 2.189667 1_555
O15 P9 1.544406 1_555
O15 Sb12 2.195641 1_655
O16 Sb2 1.983969 1_455
O16 Sb18 2.006142 1_555
O17 Sb14 2.030643 1_545
O17 Sb11 2.041683 1_556
O17 Sb4 2.354456 1_555
O18 Sb1 2.037028 1_555
O18 Sb23 2.038054 1_555
O18 Sb17 2.353247 1_555
O19 Sb9 1.983969 1_655
O19 Sb19 2.006142 1_555
O20 P12 1.556496 1_555
O20 Sb22 2.190817 1_555
O21 P9 1.548065 1_555
O21 Sb12 2.290990 1_555
O22 P10 1.548990 1_455
O22 Sb8 2.200457 1_555
O23 P10 1.541589 1_555
O23 Sb8 2.283780 1_555
O24 P14 1.579523 1_655
O24 Sb9 2.044617 1_655
O25 P5 1.547107 1_555
O25 Sb4 2.316747 1_554
O26 P7 1.544406 1_555
O26 Sb6 2.195641 1_455
O27 P1 1.555305 1_555
O27 Sb3 2.308185 1_555
O28 P0 1.563545 1_555
O28 Sb1 2.160897 1_555
O29 P13 1.569270 1_555
O29 Sb17 2.158662 1_555
O30 P2 1.544406 1_555
O30 Sb9 2.195641 1_655
O31 P1 1.541589 1_555
O31 Sb0 2.283780 1_555
O32 P1 1.579523 1_455
O32 Sb6 2.044617 1_455
O33 P13 1.547107 1_555
O33 Sb20 2.316747 1_555
O34 Sb0 1.983973 1_555
O34 Sb3 2.008015 1_555
O35 P6 1.548990 1_655
O35 Sb16 2.200457 1_555
O36 P11 1.563545 1_555
O36 Sb4 2.160897 1_554
O37 P14 1.541589 1_555
O37 Sb7 2.283780 1_555
O38 P11 1.544109 1_555
O38 Sb13 2.309464 1_455
O39 P3 1.569270 1_555
O39 Sb11 2.158662 1_565
O40 P15 1.547107 1_555
O40 Sb1 2.316747 1_555
O41 P3 1.561620 1_556
O41 Sb5 2.198678 1_455
O42 Sb3 2.030643 1_555
O42 Sb13 2.041683 1_556
O42 Sb5 2.354456 1_555
O43 P3 1.547107 1_555
O43 Sb5 2.316747 1_554
O44 Sb20 2.037028 1_555
O44 Sb15 2.038054 1_555
O44 Sb10 2.353247 1_555
O45 Sb7 1.983973 1_555
O45 Sb22 2.008015 1_555
O46 Sb8 1.983973 1_555
O46 Sb21 2.008015 1_565
O47 P0 1.544109 1_565
O47 Sb10 2.309464 1_455
O48 P7 1.581282 1_555
O48 Sb16 2.033758 1_555
O49 Sb22 2.030643 1_555
O49 Sb17 2.041683 1_555
O49 Sb1 2.354456 1_555
O50 P4 1.555913 1_555
O50 Sb18 2.314597 1_555
O51 P9 1.581282 1_555
O51 Sb0 2.033758 1_555
O52 Sb6 1.983969 1_455
O52 Sb23 2.006142 1_555
O53 P12 1.563545 1_555
O53 Sb20 2.160897 1_555
O54 P4 1.544406 1_555
O54 Sb2 2.195641 1_455
O55 Sb12 1.983969 1_655
O55 Sb15 2.006142 1_555
O56 P4 1.548065 1_555
O56 Sb2 2.290990 1_555
O57 P6 1.579523 1_655
O57 Sb12 2.044617 1_645
O58 P0 1.556496 1_555
O58 Sb21 2.190817 1_555
O59 P8 1.556496 1_556
O59 Sb14 2.190817 1_555
O60 P6 1.541589 1_555
O60 Sb16 2.283780 1_555
O61 P8 1.544109 1_545
O61 Sb11 2.309464 1_655
O62 P12 1.544109 1_555
O62 Sb17 2.309464 1_655
O63 P12 1.558558 1_555
O63 Sb17 2.189667 1_555
O64 P11 1.558558 1_555
O64 Sb13 2.189667 1_555
O65 P11 1.556496 1_556
O65 Sb3 2.190817 1_555
O66 P5 1.561620 1_556
O66 Sb4 2.198678 1_655
O67 P8 1.558558 1_545
O67 Sb11 2.189667 1_555
O68 P4 1.581282 1_555
O68 Sb7 2.033758 1_555
O69 Sb21 2.030643 1_565
O69 Sb10 2.041683 1_555
O69 Sb20 2.354456 1_555
O70 P2 1.555913 1_555
O70 Sb19 2.314597 1_555
O71 P5 1.569270 1_555
O71 Sb13 2.158662 1_555
O72 P10 1.555305 1_555
O72 Sb21 2.308185 1_565
O73 P2 1.548065 1_555
O73 Sb9 2.290990 1_555
O74 P3 1.553926 1_555
O74 Sb19 2.242266 1_455
O75 P1 1.548990 1_455
O75 Sb0 2.200457 1_555
O76 P15 1.569270 1_555
O76 Sb10 2.158662 1_545
O77 Sb5 2.037028 1_554
O77 Sb19 2.038054 1_555
O77 Sb13 2.353247 1_555
O78 P6 1.555305 1_555
O78 Sb14 2.308185 1_545
O79 P8 1.563545 1_555
O79 Sb5 2.160897 1_554
