# generated using pymatgen
data_Ce5Ge2Rh
_symmetry_space_group_name_H-M   'P 1'
_cell_length_a   7.85026600
_cell_length_b   8.81276900
_cell_length_c   11.79816100
_cell_angle_alpha   90.00000000
_cell_angle_beta   90.00000000
_cell_angle_gamma   90.00000000
_symmetry_Int_Tables_number   1
_chemical_formula_structural   Ce5Ge2Rh
_chemical_formula_sum   'Ce20 Ge8 Rh4'
_cell_volume   816.22722722
_cell_formula_units_Z   4
loop_
 _symmetry_equiv_pos_site_id
 _symmetry_equiv_pos_as_xyz
  1  'x, y, z'
loop_
 _atom_site_type_symbol
 _atom_site_label
 _atom_site_symmetry_multiplicity
 _atom_site_fract_x
 _atom_site_fract_y
 _atom_site_fract_z
 _atom_site_occupancy
  Ce  Ce0  1  0.70121400  0.46132100  0.06878200  1
  Ce  Ce1  1  0.20121400  0.53867900  0.43121800  1
  Ce  Ce2  1  0.29878600  0.96132100  0.93121800  1
  Ce  Ce3  1  0.79878600  0.03867900  0.56878200  1
  Ce  Ce4  1  0.29878600  0.53867900  0.93121800  1
  Ce  Ce5  1  0.79878600  0.46132100  0.56878200  1
  Ce  Ce6  1  0.70121400  0.03867900  0.06878200  1
  Ce  Ce7  1  0.20121400  0.96132100  0.43121800  1
  Ce  Ce8  1  0.97047200  0.75000000  0.00202100  1
  Ce  Ce9  1  0.47047200  0.25000000  0.49797900  1
  Ce  Ce10  1  0.02952800  0.25000000  0.99797900  1
  Ce  Ce11  1  0.52952800  0.75000000  0.50202100  1
  Ce  Ce12  1  0.35885000  0.75000000  0.20845500  1
  Ce  Ce13  1  0.85885000  0.25000000  0.29154500  1
  Ce  Ce14  1  0.64115000  0.25000000  0.79154500  1
  Ce  Ce15  1  0.14115000  0.75000000  0.70845500  1
  Ce  Ce16  1  0.84120200  0.75000000  0.28454200  1
  Ce  Ce17  1  0.34120200  0.25000000  0.21545800  1
  Ce  Ce18  1  0.15879800  0.25000000  0.71545800  1
  Ce  Ce19  1  0.65879800  0.75000000  0.78454200  1
  Ge  Ge0  1  0.57347500  0.49578600  0.32686600  1
  Ge  Ge1  1  0.07347500  0.50421400  0.17313400  1
  Ge  Ge2  1  0.42652500  0.99578600  0.67313400  1
  Ge  Ge3  1  0.92652500  0.00421400  0.82686600  1
  Ge  Ge4  1  0.42652500  0.50421400  0.67313400  1
  Ge  Ge5  1  0.92652500  0.49578600  0.82686600  1
  Ge  Ge6  1  0.57347500  0.00421400  0.32686600  1
  Ge  Ge7  1  0.07347500  0.99578600  0.17313400  1
  Rh  Rh0  1  0.57271700  0.75000000  0.01964500  1
  Rh  Rh1  1  0.07271700  0.25000000  0.48035500  1
  Rh  Rh2  1  0.42728300  0.25000000  0.98035500  1
  Rh  Rh3  1  0.92728300  0.75000000  0.51964500  1
loop_
_geom_bond_atom_site_label_1
_geom_bond_atom_site_label_2
_geom_bond_distance
_geom_bond_site_symmetry_2
Ce0 Rh0 2.797477 1_555
Ce0 Rh2 3.030021 1_554
Ce0 Ge1 3.193551 1_655
Ce0 Ge0 3.220147 1_555
Ce0 Ge5 3.371496 1_554
Ce1 Rh1 2.797477 1_555
Ce1 Rh3 3.030021 1_455
Ce1 Ge0 3.193551 1_555
Ce1 Ge1 3.220147 1_555
Ce1 Ge4 3.371496 1_555
Ce2 Rh2 2.797477 1_565
Ce2 Rh0 3.030021 1_556
Ce2 Ge3 3.193551 1_465
Ce2 Ge2 3.220147 1_555
Ce2 Ge7 3.371496 1_556
Ce3 Rh3 2.797477 1_545
Ce3 Rh1 3.030021 1_655
Ce3 Ge2 3.193551 1_545
Ce3 Ge3 3.220147 1_555
Ce3 Ge6 3.371496 1_555
Ce4 Rh2 2.797477 1_555
Ce4 Rh0 3.030021 1_556
Ce4 Ge5 3.193551 1_455
Ce4 Ge4 3.220147 1_555
Ce4 Ge1 3.371496 1_556
Ce5 Rh3 2.797477 1_555
Ce5 Rh1 3.030021 1_655
Ce5 Ge4 3.193551 1_555
Ce5 Ge5 3.220147 1_555
Ce5 Ge0 3.371496 1_555
Ce6 Rh0 2.797477 1_545
Ce6 Rh2 3.030021 1_554
Ce6 Ge7 3.193551 1_645
Ce6 Ge6 3.220147 1_555
Ce6 Ge3 3.371496 1_554
Ce7 Rh1 2.797477 1_565
Ce7 Rh3 3.030021 1_455
Ce7 Ge6 3.193551 1_565
Ce7 Ge7 3.220147 1_555
Ce7 Ge2 3.371496 1_555
Ce8 Ge3 3.067336 1_564
Ce8 Ge5 3.067336 1_554
Ce8 Ge7 3.069407 1_655
Ce8 Ge1 3.069407 1_655
Ce8 Rh0 3.129398 1_555
Ce9 Ge4 3.067336 1_555
Ce9 Ge2 3.067336 1_545
Ce9 Ge0 3.069407 1_555
Ce9 Ge6 3.069407 1_555
Ce9 Rh1 3.129398 1_555
Ce10 Ge1 3.067336 1_556
Ce10 Ge7 3.067336 1_546
Ce10 Ge3 3.069407 1_455
Ce10 Ge5 3.069407 1_455
Ce10 Rh2 3.129398 1_555
Ce11 Ge6 3.067336 1_565
Ce11 Ge0 3.067336 1_555
Ce11 Ge2 3.069407 1_555
Ce11 Ge4 3.069407 1_555
Ce11 Rh3 3.129398 1_555
Ce12 Rh0 2.789444 1_555
Ce12 Ge6 3.132018 1_565
Ce12 Ge0 3.132018 1_555
Ce12 Ge7 3.143925 1_555
Ce12 Ge1 3.143925 1_555
Ce13 Rh1 2.789444 1_655
Ce13 Ge1 3.132018 1_655
Ce13 Ge7 3.132018 1_645
Ce13 Ge0 3.143925 1_555
Ce13 Ge6 3.143925 1_555
Ce14 Rh2 2.789444 1_555
Ce14 Ge4 3.132018 1_555
Ce14 Ge2 3.132018 1_545
Ce14 Ge3 3.143925 1_555
Ce14 Ge5 3.143925 1_555
Ce15 Rh3 2.789444 1_455
Ce15 Ge3 3.132018 1_465
Ce15 Ge5 3.132018 1_455
Ce15 Ge2 3.143925 1_555
Ce15 Ge4 3.143925 1_555
Ce16 Rh3 2.854912 1_555
Ce16 Ge6 3.112183 1_565
Ce16 Ge0 3.112183 1_555
Ce16 Ge7 3.121582 1_655
Ce16 Ge1 3.121582 1_655
Ce17 Rh2 2.854912 1_554
Ce17 Ge1 3.112183 1_555
Ce17 Ge7 3.112183 1_545
Ce17 Ge0 3.121582 1_555
Ce17 Ge6 3.121582 1_555
Ce18 Rh1 2.854912 1_555
Ce18 Ge4 3.112183 1_555
Ce18 Ge2 3.112183 1_545
Ce18 Ge5 3.121582 1_455
Ce18 Ge3 3.121582 1_455
Ce19 Rh0 2.854912 1_556
Ce19 Ge3 3.112183 1_565
Ce19 Ge5 3.112183 1_555
Ce19 Ge2 3.121582 1_555
Ce19 Ge4 3.121582 1_555
