# generated using pymatgen
data_Gd(CoGe)2
_symmetry_space_group_name_H-M   'P 1'
_cell_length_a   3.95038028
_cell_length_b   3.95038019
_cell_length_c   5.76754519
_cell_angle_alpha   110.02721498
_cell_angle_beta   110.02722074
_cell_angle_gamma   89.99998865
_symmetry_Int_Tables_number   1
_chemical_formula_structural   Gd(CoGe)2
_chemical_formula_sum   'Gd1 Co2 Ge2'
_cell_volume   78.74491562
_cell_formula_units_Z   1
loop_
 _symmetry_equiv_pos_site_id
 _symmetry_equiv_pos_as_xyz
  1  'x, y, z'
loop_
 _atom_site_type_symbol
 _atom_site_label
 _atom_site_symmetry_multiplicity
 _atom_site_fract_x
 _atom_site_fract_y
 _atom_site_fract_z
 _atom_site_occupancy
  Gd  Gd0  1  -0.00000000  -0.00000000  0.00000000  1
  Co  Co0  1  0.75000000  0.25000000  0.50000000  1
  Co  Co1  1  0.25000000  0.75000000  0.50000000  1
  Ge  Ge0  1  0.37005327  0.37005327  0.74010554  1
  Ge  Ge1  1  0.62994673  0.62994673  0.25989446  1
loop_
_geom_bond_atom_site_label_1
_geom_bond_atom_site_label_2
_geom_bond_distance
_geom_bond_site_symmetry_2
Gd0 Ge0 3.085864 1_444
Gd0 Ge1 3.085864 1_555
Gd0 Ge1 3.085866 1_545
Gd0 Ge0 3.085866 1_454
Gd0 Ge1 3.085867 1_455
Gd0 Ge0 3.085867 1_544
Gd0 Ge1 3.085870 1_445
Gd0 Ge0 3.085870 1_554
Co0 Ge1 2.317166 1_555
Co0 Ge0 2.317166 1_555
Co0 Ge0 2.317169 1_655
Co0 Ge1 2.317169 1_545
Co0 Gd0 3.204189 1_555
Co0 Gd0 3.204190 1_666
Co0 Gd0 3.204190 1_656
Co0 Gd0 3.204190 1_655
Co1 Ge0 2.317166 1_555
Co1 Ge1 2.317166 1_555
Co1 Ge1 2.317169 1_455
Co1 Ge0 2.317169 1_565
Co1 Gd0 3.204189 1_666
Co1 Gd0 3.204190 1_555
Co1 Gd0 3.204190 1_565
Co1 Gd0 3.204190 1_566
Ge0 Ge1 2.622840 1_556
