# generated using pymatgen
data_EuAu5
_symmetry_space_group_name_H-M   'P 1'
_cell_length_a   5.59156007
_cell_length_b   5.59156351
_cell_length_c   4.67011622
_cell_angle_alpha   90.00000000
_cell_angle_beta   90.00000000
_cell_angle_gamma   119.99996901
_symmetry_Int_Tables_number   1
_chemical_formula_structural   EuAu5
_chemical_formula_sum   'Eu1 Au5'
_cell_volume   126.45171181
_cell_formula_units_Z   1
loop_
 _symmetry_equiv_pos_site_id
 _symmetry_equiv_pos_as_xyz
  1  'x, y, z'
loop_
 _atom_site_type_symbol
 _atom_site_label
 _atom_site_symmetry_multiplicity
 _atom_site_fract_x
 _atom_site_fract_y
 _atom_site_fract_z
 _atom_site_occupancy
  Eu  Eu0  1  -0.00000000  -0.00000000  -0.00000000  1
  Au  Au0  1  0.33333300  0.66666700  -0.00000000  1
  Au  Au1  1  0.66666700  0.33333300  0.00000000  1
  Au  Au2  1  0.50000000  -0.00000000  0.50000000  1
  Au  Au3  1  0.50000000  0.50000000  0.50000000  1
  Au  Au4  1  -0.00000000  0.50000000  0.50000000  1
loop_
_geom_bond_atom_site_label_1
_geom_bond_atom_site_label_2
_geom_bond_distance
_geom_bond_site_symmetry_2
Au0 Au4 2.838654 1_554
Au0 Au4 2.838654 1_555
Au0 Au2 2.838654 1_565
Au0 Au2 2.838654 1_564
Au0 Au3 2.838656 1_555
Au0 Au3 2.838656 1_554
Au0 Eu0 3.228286 1_565
Au0 Au1 3.228286 1_455
Au0 Au1 3.228288 1_565
Au0 Eu0 3.228291 1_665
Au0 Eu0 3.228293 1_555
Au0 Au1 3.228296 1_555
Au1 Au4 2.838654 1_655
Au1 Au4 2.838654 1_654
Au1 Au2 2.838654 1_554
Au1 Au2 2.838654 1_555
Au1 Au3 2.838656 1_555
Au1 Au3 2.838656 1_554
Au1 Eu0 3.228286 1_655
Au1 Eu0 3.228291 1_555
Au1 Eu0 3.228293 1_665
Au2 Au3 2.795782 1_545
Au2 Au3 2.795782 1_555
Au2 Au4 2.795782 1_545
Au2 Au4 2.795782 1_655
Au2 Eu0 3.642648 1_555
Au2 Eu0 3.642648 1_556
Au2 Eu0 3.642648 1_655
Au2 Eu0 3.642648 1_656
Au3 Au4 2.795780 1_655
Au3 Au4 2.795780 1_555
Au3 Eu0 3.642649 1_556
Au3 Eu0 3.642649 1_555
Au3 Eu0 3.642649 1_665
Au3 Eu0 3.642649 1_666
Au4 Eu0 3.642649 1_555
Au4 Eu0 3.642649 1_556
Au4 Eu0 3.642649 1_566
Au4 Eu0 3.642649 1_565
