# generated using pymatgen
data_Na5Li(PO4)2
_symmetry_space_group_name_H-M   'P 1'
_cell_length_a   10.25525100
_cell_length_b   10.26950300
_cell_length_c   14.93637100
_cell_angle_alpha   90.00000000
_cell_angle_beta   90.00000000
_cell_angle_gamma   90.00000000
_symmetry_Int_Tables_number   1
_chemical_formula_structural   Na5Li(PO4)2
_chemical_formula_sum   'Na40 Li8 P16 O64'
_cell_volume   1573.04379083
_cell_formula_units_Z   8
loop_
 _symmetry_equiv_pos_site_id
 _symmetry_equiv_pos_as_xyz
  1  'x, y, z'
loop_
 _atom_site_type_symbol
 _atom_site_label
 _atom_site_symmetry_multiplicity
 _atom_site_fract_x
 _atom_site_fract_y
 _atom_site_fract_z
 _atom_site_occupancy
  Na  Na0  1  0.24301000  0.74323400  0.60526000  1
  Na  Na1  1  0.51549300  0.49029000  0.88666000  1
  Na  Na2  1  0.75699000  0.25676600  0.39474000  1
  Na  Na3  1  0.93415300  0.76708500  0.25000000  1
  Na  Na4  1  0.01549300  0.00971000  0.11334000  1
  Na  Na5  1  0.98450700  0.99029000  0.88666000  1
  Na  Na6  1  0.22497400  0.75296100  0.13687900  1
  Na  Na7  1  0.72200200  0.99736700  0.00200700  1
  Na  Na8  1  0.22497400  0.75296100  0.36312100  1
  Na  Na9  1  0.48450700  0.50971000  0.38666000  1
  Na  Na10  1  0.72200200  0.99736700  0.49799300  1
  Na  Na11  1  0.77799800  0.49736700  0.00200700  1
  Na  Na12  1  0.48407900  0.21315400  0.75000000  1
  Na  Na13  1  0.56584700  0.26708500  0.25000000  1
  Na  Na14  1  0.74301000  0.75676600  0.10526000  1
  Na  Na15  1  0.77799800  0.49736700  0.49799300  1
  Na  Na16  1  0.48450700  0.50971000  0.11334000  1
  Na  Na17  1  0.51549300  0.49029000  0.61334000  1
  Na  Na18  1  0.06584700  0.23291500  0.75000000  1
  Na  Na19  1  0.74301000  0.75676600  0.39474000  1
  Na  Na20  1  0.01592100  0.71315400  0.75000000  1
  Na  Na21  1  0.24301000  0.74323400  0.89474000  1
  Na  Na22  1  0.98407900  0.28684600  0.25000000  1
  Na  Na23  1  0.25699000  0.24323400  0.60526000  1
  Na  Na24  1  0.22200200  0.50263300  0.99799300  1
  Na  Na25  1  0.77502600  0.24703900  0.86312100  1
  Na  Na26  1  0.27502600  0.25296100  0.13687900  1
  Na  Na27  1  0.27502600  0.25296100  0.36312100  1
  Na  Na28  1  0.01549300  0.00971000  0.38666000  1
  Na  Na29  1  0.43415300  0.73291500  0.75000000  1
  Na  Na30  1  0.27799800  0.00263300  0.50200700  1
  Na  Na31  1  0.72497400  0.74703900  0.63687900  1
  Na  Na32  1  0.51592100  0.78684600  0.25000000  1
  Na  Na33  1  0.75699000  0.25676600  0.10526000  1
  Na  Na34  1  0.98450700  0.99029000  0.61334000  1
  Na  Na35  1  0.72497400  0.74703900  0.86312100  1
  Na  Na36  1  0.27799800  0.00263300  0.99799300  1
  Na  Na37  1  0.22200200  0.50263300  0.50200700  1
  Na  Na38  1  0.77502600  0.24703900  0.63687900  1
  Na  Na39  1  0.25699000  0.24323400  0.89474000  1
  Li  Li0  1  0.99600200  0.48957300  0.63984800  1
  Li  Li1  1  0.50399800  0.98957300  0.63984800  1
  Li  Li2  1  0.50399800  0.98957300  0.86015200  1
  Li  Li3  1  0.99600200  0.48957300  0.86015200  1
  Li  Li4  1  0.49600200  0.01042700  0.36015200  1
  Li  Li5  1  0.49600200  0.01042700  0.13984800  1
  Li  Li6  1  0.00399800  0.51042700  0.36015200  1
  Li  Li7  1  0.00399800  0.51042700  0.13984800  1
  P  P0  1  0.72511700  0.49721200  0.75000000  1
  P  P1  1  0.49450700  0.75143600  0.50070800  1
  P  P2  1  0.49450700  0.75143600  0.99929200  1
  P  P3  1  0.99450700  0.74856400  0.49929200  1
  P  P4  1  0.27488300  0.50278800  0.25000000  1
  P  P5  1  0.77488300  0.99721200  0.75000000  1
  P  P6  1  0.75230700  0.02053800  0.25000000  1
  P  P7  1  0.25230700  0.47946200  0.75000000  1
  P  P8  1  0.24769300  0.97946200  0.75000000  1
  P  P9  1  0.00549300  0.25143600  0.99929200  1
  P  P10  1  0.50549300  0.24856400  0.00070800  1
  P  P11  1  0.74769300  0.52053800  0.25000000  1
  P  P12  1  0.22511700  0.00278800  0.25000000  1
  P  P13  1  0.00549300  0.25143600  0.50070800  1
  P  P14  1  0.50549300  0.24856400  0.49929200  1
  P  P15  1  0.99450700  0.74856400  0.00070800  1
  O  O0  1  0.13110900  0.18023600  0.03066000  1
  O  O1  1  0.86889100  0.81976400  0.53066000  1
  O  O2  1  0.18999900  0.49289300  0.33626300  1
  O  O3  1  0.68999900  0.00710700  0.66373700  1
  O  O4  1  0.18999900  0.49289300  0.16373700  1
  O  O5  1  0.39405800  0.35159000  0.01109700  1
  O  O6  1  0.35137400  0.63440500  0.25000000  1
  O  O7  1  0.46666000  0.81834200  0.59262800  1
  O  O8  1  0.81022800  0.95698700  0.16421300  1
  O  O9  1  0.36889100  0.68023600  0.03066000  1
  O  O10  1  0.62458300  0.61195500  0.75000000  1
  O  O11  1  0.89405800  0.14841000  0.51109700  1
  O  O12  1  0.81000100  0.50710700  0.66373700  1
  O  O13  1  0.89989200  0.50306300  0.25000000  1
  O  O14  1  0.89405800  0.14841000  0.98890300  1
  O  O15  1  0.31000100  0.99289300  0.33626300  1
  O  O16  1  0.96666000  0.68165800  0.40737200  1
  O  O17  1  0.12458300  0.88804500  0.25000000  1
  O  O18  1  0.87541700  0.11195500  0.75000000  1
  O  O19  1  0.46666000  0.81834200  0.90737200  1
  O  O20  1  0.14862600  0.13440500  0.25000000  1
  O  O21  1  0.37541700  0.38804500  0.25000000  1
  O  O22  1  0.68977200  0.45698700  0.16421300  1
  O  O23  1  0.85137400  0.86559500  0.75000000  1
  O  O24  1  0.68999900  0.00710700  0.83626300  1
  O  O25  1  0.54031400  0.85548300  0.43126600  1
  O  O26  1  0.86889100  0.81976400  0.96934000  1
  O  O27  1  0.71553300  0.66986100  0.25000000  1
  O  O28  1  0.81000100  0.50710700  0.83626300  1
  O  O29  1  0.64862600  0.36559500  0.75000000  1
  O  O30  1  0.53334000  0.18165800  0.40737200  1
  O  O31  1  0.95968600  0.35548300  0.43126600  1
  O  O32  1  0.96666000  0.68165800  0.09262800  1
  O  O33  1  0.60594200  0.64841000  0.98890300  1
  O  O34  1  0.04031400  0.64451700  0.56873400  1
  O  O35  1  0.39405800  0.35159000  0.48890300  1
  O  O36  1  0.10594200  0.85159000  0.01109700  1
  O  O37  1  0.03334000  0.31834200  0.59262800  1
  O  O38  1  0.60010800  0.00306300  0.25000000  1
  O  O39  1  0.45968600  0.14451700  0.93126600  1
  O  O40  1  0.39989200  0.99693700  0.75000000  1
  O  O41  1  0.18977200  0.04301300  0.83578700  1
  O  O42  1  0.31022800  0.54301300  0.66421300  1
  O  O43  1  0.63110900  0.31976400  0.96934000  1
  O  O44  1  0.53334000  0.18165800  0.09262800  1
  O  O45  1  0.95968600  0.35548300  0.06873400  1
  O  O46  1  0.60594200  0.64841000  0.51109700  1
  O  O47  1  0.28446700  0.33013900  0.75000000  1
  O  O48  1  0.78446700  0.16986100  0.25000000  1
  O  O49  1  0.63110900  0.31976400  0.53066000  1
  O  O50  1  0.10010800  0.49693700  0.75000000  1
  O  O51  1  0.31022800  0.54301300  0.83578700  1
  O  O52  1  0.31000100  0.99289300  0.16373700  1
  O  O53  1  0.18977200  0.04301300  0.66421300  1
  O  O54  1  0.54031400  0.85548300  0.06873400  1
  O  O55  1  0.45968600  0.14451700  0.56873400  1
  O  O56  1  0.81022800  0.95698700  0.33578700  1
  O  O57  1  0.03334000  0.31834200  0.90737200  1
  O  O58  1  0.21553300  0.83013900  0.75000000  1
  O  O59  1  0.13110900  0.18023600  0.46934000  1
  O  O60  1  0.36889100  0.68023600  0.46934000  1
  O  O61  1  0.04031400  0.64451700  0.93126600  1
  O  O62  1  0.68977200  0.45698700  0.33578700  1
  O  O63  1  0.10594200  0.85159000  0.48890300  1
loop_
_geom_bond_atom_site_label_1
_geom_bond_atom_site_label_2
_geom_bond_distance
_geom_bond_site_symmetry_2
Na0 O42 2.340594 1_555
Na0 O58 2.355775 1_555
Na0 O34 2.376209 1_555
Na0 O7 2.427154 1_555
Na0 O60 2.491305 1_555
Na0 O63 2.496921 1_555
Na1 O51 2.302553 1_555
Na1 O33 2.414400 1_555
Na1 O43 2.449011 1_555
Na1 O10 2.641818 1_555
Na1 O5 2.652221 1_556
Na1 O29 2.769552 1_555
Na2 O62 2.340594 1_555
Na2 O48 2.355775 1_555
Na2 O31 2.376209 1_555
Na2 O30 2.427154 1_555
Na2 O49 2.491305 1_555
Na2 O11 2.496921 1_555
Na3 O17 2.314499 1_655
Na3 O27 2.454275 1_555
Na3 O32 2.530996 1_555
Na3 O16 2.530996 1_555
Na3 O8 2.657116 1_555
Na3 O56 2.657116 1_555
Na3 O13 2.734045 1_555
Na4 O8 2.302553 1_445
Na4 O36 2.414400 1_545
Na4 O0 2.449011 1_555
Na4 O17 2.641818 1_545
Na4 O14 2.652221 1_454
Na4 O20 2.769552 1_555
Na5 O41 2.302553 1_665
Na5 O14 2.414400 1_565
Na5 O26 2.449011 1_555
Na5 O18 2.641818 1_565
Na5 O36 2.652221 1_656
Na5 O23 2.769552 1_555
Na6 O9 2.291974 1_555
Na6 O17 2.416443 1_555
Na6 O6 2.453047 1_555
Na6 O36 2.458788 1_555
Na6 O52 2.644329 1_555
Na6 O4 2.724443 1_555
Na6 O32 2.826771 1_455
Na7 O14 2.357480 1_564
Na7 O26 2.415337 1_554
Na7 O24 2.499277 1_564
Na7 O54 2.566735 1_555
Na7 O8 2.619236 1_555
Na8 O60 2.291974 1_555
Na8 O17 2.416443 1_555
Na8 O6 2.453047 1_555
Na8 O63 2.458788 1_555
Na8 O15 2.644329 1_555
Na8 O2 2.724443 1_555
Na8 O16 2.826771 1_455
Na9 O62 2.302553 1_555
Na9 O35 2.414400 1_555
Na9 O60 2.449011 1_555
Na9 O21 2.641818 1_555
Na9 O46 2.652221 1_555
Na9 O6 2.769552 1_555
Na10 O11 2.357480 1_565
Na10 O1 2.415337 1_555
Na10 O3 2.499277 1_565
Na10 O25 2.566735 1_555
Na10 O56 2.619236 1_555
Na11 O33 2.357480 1_554
Na11 O43 2.415337 1_554
Na11 O28 2.499277 1_554
Na11 O45 2.566735 1_555
Na11 O22 2.619236 1_555
Na12 O29 2.301809 1_555
Na12 O47 2.373565 1_555
Na12 O40 2.382383 1_545
Na12 O55 2.808867 1_555
Na12 O39 2.808867 1_555
Na13 O21 2.314499 1_555
Na13 O48 2.454275 1_555
Na13 O30 2.530996 1_555
Na13 O44 2.530996 1_555
Na13 O62 2.657116 1_555
Na13 O22 2.657116 1_555
Na13 O38 2.734045 1_555
Na14 O8 2.340594 1_555
Na14 O27 2.355775 1_555
Na14 O54 2.376209 1_555
Na14 O32 2.427154 1_555
Na14 O26 2.491305 1_554
Na14 O33 2.496921 1_554
Na15 O46 2.357480 1_555
Na15 O49 2.415337 1_555
Na15 O12 2.499277 1_555
Na15 O31 2.566735 1_555
Na15 O62 2.619236 1_555
Na16 O22 2.302553 1_555
Na16 O5 2.414400 1_555
Na16 O9 2.449011 1_555
Na16 O21 2.641818 1_555
Na16 O33 2.652221 1_554
Na16 O6 2.769552 1_555
Na17 O42 2.302553 1_555
Na17 O46 2.414400 1_555
Na17 O49 2.449011 1_555
Na17 O10 2.641818 1_555
Na17 O35 2.652221 1_555
Na17 O29 2.769552 1_555
Na18 O18 2.314499 1_455
Na18 O47 2.454275 1_555
Na18 O37 2.530996 1_555
Na18 O57 2.530996 1_555
Na18 O41 2.657116 1_555
Na18 O53 2.657116 1_555
Na18 O50 2.734045 1_555
Na19 O56 2.340594 1_555
Na19 O27 2.355775 1_555
Na19 O25 2.376209 1_555
Na19 O16 2.427154 1_555
Na19 O1 2.491305 1_555
Na19 O46 2.496921 1_555
Na20 O23 2.301809 1_455
Na20 O58 2.373565 1_555
Na20 O50 2.382383 1_555
Na20 O34 2.808867 1_555
Na20 O61 2.808867 1_555
Na21 O51 2.340594 1_555
Na21 O58 2.355775 1_555
Na21 O61 2.376209 1_555
Na21 O19 2.427154 1_555
Na21 O9 2.491305 1_556
Na21 O36 2.496921 1_556
Na22 O20 2.301809 1_655
Na22 O48 2.373565 1_555
Na22 O13 2.382383 1_555
Na22 O45 2.808867 1_555
Na22 O31 2.808867 1_555
Na23 O53 2.340594 1_555
Na23 O47 2.355775 1_555
Na23 O55 2.376209 1_555
Na23 O37 2.427154 1_555
Na23 O59 2.491305 1_555
Na23 O35 2.496921 1_555
Na24 O5 2.357480 1_556
Na24 O9 2.415337 1_556
Na24 O4 2.499277 1_556
Na24 O61 2.566735 1_555
Na24 O51 2.619236 1_555
Na25 O43 2.291974 1_555
Na25 O18 2.416443 1_555
Na25 O29 2.453047 1_555
Na25 O14 2.458788 1_555
Na25 O24 2.644329 1_555
Na25 O28 2.724443 1_555
Na25 O57 2.826771 1_655
Na26 O0 2.291974 1_555
Na26 O21 2.416443 1_555
Na26 O20 2.453047 1_555
Na26 O5 2.458788 1_555
Na26 O4 2.644329 1_555
Na26 O52 2.724443 1_545
Na26 O44 2.826771 1_555
Na27 O59 2.291974 1_555
Na27 O21 2.416443 1_555
Na27 O20 2.453047 1_555
Na27 O35 2.458788 1_555
Na27 O2 2.644329 1_555
Na27 O15 2.724443 1_545
Na27 O30 2.826771 1_555
Na28 O56 2.302553 1_445
Na28 O63 2.414400 1_545
Na28 O59 2.449011 1_555
Na28 O17 2.641818 1_545
Na28 O11 2.652221 1_455
Na28 O20 2.769552 1_555
Na29 O10 2.314499 1_555
Na29 O58 2.454275 1_555
Na29 O19 2.530996 1_555
Na29 O7 2.530996 1_555
Na29 O42 2.657116 1_555
Na29 O51 2.657116 1_555
Na29 O40 2.734045 1_555
Na30 O63 2.357480 1_545
Na30 O59 2.415337 1_555
Na30 O15 2.499277 1_545
Na30 O55 2.566735 1_555
Na30 O53 2.619236 1_555
Na31 O1 2.291974 1_555
Na31 O10 2.416443 1_555
Na31 O23 2.453047 1_555
Na31 O46 2.458788 1_555
Na31 O12 2.644329 1_555
Na31 O3 2.724443 1_565
Na31 O7 2.826771 1_555
Na32 O6 2.301809 1_555
Na32 O27 2.373565 1_555
Na32 O38 2.382383 1_565
Na32 O54 2.808867 1_555
Na32 O25 2.808867 1_555
Na33 O22 2.340594 1_555
Na33 O48 2.355775 1_555
Na33 O45 2.376209 1_555
Na33 O44 2.427154 1_555
Na33 O43 2.491305 1_554
Na33 O14 2.496921 1_554
Na34 O53 2.302553 1_665
Na34 O11 2.414400 1_565
Na34 O1 2.449011 1_555
Na34 O18 2.641818 1_565
Na34 O63 2.652221 1_655
Na34 O23 2.769552 1_555
Na35 O26 2.291974 1_555
Na35 O10 2.416443 1_555
Na35 O23 2.453047 1_555
Na35 O33 2.458788 1_555
Na35 O28 2.644329 1_555
Na35 O24 2.724443 1_565
Na35 O19 2.826771 1_555
Na36 O36 2.357480 1_546
Na36 O0 2.415337 1_556
Na36 O52 2.499277 1_546
Na36 O39 2.566735 1_555
Na36 O41 2.619236 1_555
Na37 O35 2.357480 1_555
Na37 O60 2.415337 1_555
Na37 O2 2.499277 1_555
Na37 O34 2.566735 1_555
Na37 O42 2.619236 1_555
Na38 O49 2.291974 1_555
Na38 O18 2.416443 1_555
Na38 O29 2.453047 1_555
Na38 O11 2.458788 1_555
Na38 O3 2.644329 1_555
Na38 O12 2.724443 1_555
Na38 O37 2.826771 1_655
Na39 O41 2.340594 1_555
Na39 O47 2.355775 1_555
Na39 O39 2.376209 1_555
Na39 O57 2.427154 1_555
Na39 O0 2.491305 1_556
Na39 O5 2.496921 1_556
Li0 O37 1.932934 1_655
Li0 O12 1.948909 1_555
Li0 O50 1.962773 1_655
Li0 O34 1.966381 1_655
Li1 O7 1.932934 1_555
Li1 O3 1.948909 1_565
Li1 O40 1.962773 1_555
Li1 O55 1.966381 1_565
Li2 O19 1.932934 1_555
Li2 O24 1.948909 1_565
Li2 O40 1.962773 1_555
Li2 O39 1.966381 1_565
Li3 O57 1.932934 1_655
Li3 O28 1.948909 1_555
Li3 O50 1.962773 1_655
Li3 O61 1.966381 1_655
Li4 O30 1.932934 1_555
Li4 O15 1.948909 1_545
Li4 O38 1.962773 1_555
Li4 O25 1.966381 1_545
Li5 O44 1.932934 1_555
Li5 O52 1.948909 1_545
Li5 O38 1.962773 1_555
Li5 O54 1.966381 1_545
Li6 O16 1.932934 1_455
Li6 O2 1.948909 1_555
Li6 O13 1.962773 1_455
Li6 O31 1.966381 1_455
Li7 O32 1.932934 1_455
Li7 O4 1.948909 1_555
Li7 O13 1.962773 1_455
Li7 O45 1.966381 1_455
O0 P9 1.553600 1_554
O1 P3 1.553600 1_555
O2 P4 1.558277 1_555
O3 P5 1.558277 1_545
O4 P4 1.558277 1_555
O5 P10 1.565080 1_555
O6 P4 1.562777 1_555
O7 P1 1.561616 1_555
O8 P6 1.555832 1_565
O9 P2 1.553600 1_554
O10 P0 1.565721 1_555
O11 P13 1.565080 1_655
O12 P0 1.558277 1_555
O13 P11 1.571122 1_555
O14 P9 1.565080 1_655
O15 P12 1.558277 1_565
O16 P3 1.561616 1_555
O17 P12 1.565721 1_565
O18 P5 1.565721 1_545
O19 P2 1.561616 1_555
O20 P12 1.562777 1_555
O21 P4 1.565721 1_555
O22 P11 1.555832 1_555
O23 P5 1.562777 1_555
O24 P5 1.558277 1_545
O25 P1 1.561474 1_555
O26 P15 1.553600 1_556
O27 P11 1.568539 1_555
O28 P0 1.558277 1_555
O29 P0 1.562777 1_555
O30 P14 1.561616 1_555
O31 P13 1.561474 1_655
O32 P15 1.561616 1_555
O33 P2 1.565080 1_555
O34 P3 1.561474 1_455
O35 P14 1.565080 1_555
O36 P15 1.565080 1_455
O37 P13 1.561616 1_555
O38 P6 1.571122 1_555
O39 P10 1.561474 1_556
O40 P8 1.571122 1_555
O41 P8 1.555832 1_545
O42 P7 1.555832 1_555
O43 P10 1.553600 1_556
O44 P10 1.561616 1_555
O45 P9 1.561474 1_654
O46 P1 1.565080 1_555
O47 P7 1.568539 1_555
O48 P6 1.568539 1_555
O49 P14 1.553600 1_555
O50 P7 1.571122 1_555
O51 P7 1.555832 1_555
O52 P12 1.558277 1_565
O53 P8 1.555832 1_545
O54 P2 1.561474 1_554
O55 P14 1.561474 1_555
O56 P6 1.555832 1_565
O57 P9 1.561616 1_555
O58 P8 1.568539 1_555
O59 P13 1.553600 1_555
O60 P1 1.553600 1_555
O61 P15 1.561474 1_456
O62 P11 1.555832 1_555
O63 P3 1.565080 1_455
