# generated using pymatgen
data_K2SrV3O9
_symmetry_space_group_name_H-M   'P 1'
_cell_length_a   5.50696400
_cell_length_b   10.43427300
_cell_length_c   16.37073100
_cell_angle_alpha   90.00000000
_cell_angle_beta   90.00000000
_cell_angle_gamma   90.00000000
_symmetry_Int_Tables_number   1
_chemical_formula_structural   K2SrV3O9
_chemical_formula_sum   'K8 Sr4 V12 O36'
_cell_volume   940.68128788
_cell_formula_units_Z   4
loop_
 _symmetry_equiv_pos_site_id
 _symmetry_equiv_pos_as_xyz
  1  'x, y, z'
loop_
 _atom_site_type_symbol
 _atom_site_label
 _atom_site_symmetry_multiplicity
 _atom_site_fract_x
 _atom_site_fract_y
 _atom_site_fract_z
 _atom_site_occupancy
  K  K0  1  0.25000000  0.52861000  0.06816500  1
  K  K1  1  0.75000000  0.47139000  0.93183500  1
  K  K2  1  0.25000000  0.02861000  0.43183500  1
  K  K3  1  0.75000000  0.97139000  0.56816500  1
  K  K4  1  0.25000000  0.47134000  0.78859000  1
  K  K5  1  0.25000000  0.97134000  0.71141000  1
  K  K6  1  0.75000000  0.02866000  0.28859000  1
  K  K7  1  0.75000000  0.52866000  0.21141000  1
  Sr  Sr0  1  0.25000000  0.46656100  0.38442400  1
  Sr  Sr1  1  0.75000000  0.03343900  0.88442400  1
  Sr  Sr2  1  0.75000000  0.53343900  0.61557600  1
  Sr  Sr3  1  0.25000000  0.96656100  0.11557600  1
  V  V0  1  0.75000000  0.20883900  0.09414400  1
  V  V1  1  0.25000000  0.29116100  0.59414400  1
  V  V2  1  0.75000000  0.70883900  0.40585600  1
  V  V3  1  0.75000000  0.80975000  0.04297300  1
  V  V4  1  0.75000000  0.24880100  0.72749800  1
  V  V5  1  0.75000000  0.30975000  0.45702700  1
  V  V6  1  0.25000000  0.69025000  0.54297300  1
  V  V7  1  0.25000000  0.75119900  0.27250200  1
  V  V8  1  0.25000000  0.79116100  0.90585600  1
  V  V9  1  0.25000000  0.19025000  0.95702700  1
  V  V10  1  0.75000000  0.74880100  0.77250200  1
  V  V11  1  0.25000000  0.25119900  0.22749800  1
  O  O0  1  0.50221400  0.17320300  0.17924500  1
  O  O1  1  0.00221400  0.82679700  0.82075500  1
  O  O2  1  0.98964600  0.14069500  0.01426100  1
  O  O3  1  0.75000000  0.08548000  0.71842800  1
  O  O4  1  0.00221400  0.32679700  0.67924500  1
  O  O5  1  0.75000000  0.40307500  0.37012800  1
  O  O6  1  0.25000000  0.72596000  0.16984000  1
  O  O7  1  0.99778600  0.67320300  0.32075500  1
  O  O8  1  0.25000000  0.13335500  0.58200800  1
  O  O9  1  0.25000000  0.63335500  0.91799200  1
  O  O10  1  0.75000000  0.36664500  0.08200800  1
  O  O11  1  0.25000000  0.41452000  0.21842800  1
  O  O12  1  0.25000000  0.84997600  0.56001000  1
  O  O13  1  0.01035400  0.35930500  0.51426100  1
  O  O14  1  0.50221400  0.67320300  0.32075500  1
  O  O15  1  0.75000000  0.77404000  0.66984000  1
  O  O16  1  0.75000000  0.86664500  0.41799200  1
  O  O17  1  0.75000000  0.58548000  0.78157200  1
  O  O18  1  0.25000000  0.09692500  0.87012800  1
  O  O19  1  0.49778600  0.82679700  0.82075500  1
  O  O20  1  0.25000000  0.22596000  0.33016000  1
  O  O21  1  0.25000000  0.34997600  0.93999000  1
  O  O22  1  0.25000000  0.59692500  0.62987200  1
  O  O23  1  0.75000000  0.27404000  0.83016000  1
  O  O24  1  0.51035400  0.14069500  0.01426100  1
  O  O25  1  0.99778600  0.17320300  0.17924500  1
  O  O26  1  0.48964600  0.85930500  0.98573900  1
  O  O27  1  0.51035400  0.64069500  0.48573900  1
  O  O28  1  0.25000000  0.91452000  0.28157200  1
  O  O29  1  0.49778600  0.32679700  0.67924500  1
  O  O30  1  0.75000000  0.65002400  0.06001000  1
  O  O31  1  0.01035400  0.85930500  0.98573900  1
  O  O32  1  0.98964600  0.64069500  0.48573900  1
  O  O33  1  0.75000000  0.15002400  0.43999000  1
  O  O34  1  0.75000000  0.90307500  0.12987200  1
  O  O35  1  0.48964600  0.35930500  0.51426100  1
loop_
_geom_bond_atom_site_label_1
_geom_bond_atom_site_label_2
_geom_bond_distance
_geom_bond_site_symmetry_2
K0 O6 2.647803 1_555
K0 O9 2.690437 1_554
K0 O11 2.732827 1_555
K0 O21 2.806621 1_554
K0 O30 3.033882 1_455
K0 O30 3.033882 1_555
K0 O10 3.238684 1_555
K0 O10 3.238684 1_455
K1 O23 2.647803 1_555
K1 O10 2.690437 1_556
K1 O17 2.732827 1_555
K1 O30 2.806621 1_556
K1 O21 3.033882 1_555
K1 O21 3.033882 1_655
K1 O9 3.238684 1_555
K1 O9 3.238684 1_655
K2 O20 2.647803 1_555
K2 O8 2.690437 1_555
K2 O28 2.732827 1_545
K2 O12 2.806621 1_545
K2 O33 3.033882 1_455
K2 O33 3.033882 1_555
K2 O16 3.238684 1_545
K2 O16 3.238684 1_445
K3 O15 2.647803 1_555
K3 O16 2.690437 1_555
K3 O3 2.732827 1_565
K3 O33 2.806621 1_565
K3 O12 3.033882 1_655
K3 O12 3.033882 1_555
K3 O8 3.238684 1_665
K3 O8 3.238684 1_565
K4 O29 2.709422 1_555
K4 O4 2.709422 1_555
K4 O9 2.710251 1_555
K4 O21 2.783296 1_555
K4 O22 2.910057 1_555
K4 O17 3.002210 1_455
K4 O17 3.002210 1_555
K5 O19 2.709422 1_555
K5 O1 2.709422 1_555
K5 O8 2.710251 1_565
K5 O12 2.783296 1_555
K5 O18 2.910057 1_565
K5 O3 3.002210 1_565
K5 O3 3.002210 1_465
K6 O25 2.709422 1_555
K6 O0 2.709422 1_555
K6 O16 2.710251 1_545
K6 O33 2.783296 1_555
K6 O34 2.910057 1_545
K6 O28 3.002210 1_545
K6 O28 3.002210 1_645
K7 O7 2.709422 1_555
K7 O14 2.709422 1_555
K7 O10 2.710251 1_555
K7 O30 2.783296 1_555
K7 O5 2.910057 1_555
K7 O11 3.002210 1_555
K7 O11 3.002210 1_655
O0 V11 1.793170 1_555
O0 V0 1.985237 1_555
O0 Sr3 2.768495 1_545
O1 V10 1.793170 1_455
O1 V8 1.985237 1_555
O1 Sr1 2.768495 1_465
O2 V9 1.789114 1_654
O2 V0 1.989328 1_555
O2 Sr1 2.740803 1_554
O2 Sr3 2.847450 1_645
O3 V4 1.710592 1_555
O3 Sr1 2.771197 1_555
O4 V4 1.793170 1_455
O4 V1 1.985237 1_555
O4 Sr2 2.768495 1_455
O5 V5 1.723959 1_555
O5 Sr0 2.841698 1_555
O5 Sr0 2.841698 1_655
O6 V7 1.701160 1_555
O6 Sr3 2.663033 1_555
O7 V7 1.793170 1_655
O7 V2 1.985237 1_555
O7 Sr0 2.768495 1_655
O8 V1 1.658534 1_555
O9 V8 1.658534 1_555
O10 V0 1.658534 1_555
O11 V11 1.710592 1_555
O11 Sr0 2.771197 1_555
O12 V6 1.689801 1_555
O13 V5 1.789114 1_455
O13 V1 1.989328 1_555
O13 Sr0 2.740803 1_555
O13 Sr2 2.847450 1_455
O14 V7 1.793170 1_555
O14 V2 1.985237 1_555
O14 Sr0 2.768495 1_555
O15 V10 1.701160 1_555
O15 Sr2 2.663033 1_555
O16 V2 1.658534 1_555
O17 V10 1.710592 1_555
O17 Sr2 2.771197 1_555
O18 V9 1.723959 1_555
O18 Sr1 2.841698 1_455
O18 Sr1 2.841698 1_555
O19 V10 1.793170 1_555
O19 V8 1.985237 1_555
O19 Sr1 2.768495 1_565
O20 V11 1.701160 1_555
O20 Sr0 2.663033 1_555
O21 V9 1.689801 1_555
O22 V6 1.723959 1_555
O22 Sr2 2.841698 1_455
O22 Sr2 2.841698 1_555
O23 V4 1.701160 1_555
O23 Sr1 2.663033 1_555
O24 V9 1.789114 1_554
O24 V0 1.989328 1_555
O24 Sr1 2.740803 1_554
O24 Sr3 2.847450 1_545
O25 V11 1.793170 1_655
O25 V0 1.985237 1_555
O25 Sr3 2.768495 1_645
O26 V3 1.789114 1_556
O26 V8 1.989328 1_555
O26 Sr3 2.740803 1_556
O26 Sr1 2.847450 1_565
O27 V6 1.789114 1_555
O27 V2 1.989328 1_555
O27 Sr2 2.740803 1_555
O27 Sr0 2.847450 1_555
O28 V7 1.710592 1_555
O28 Sr3 2.771197 1_555
O29 V4 1.793170 1_555
O29 V1 1.985237 1_555
O29 Sr2 2.768495 1_555
O30 V3 1.689801 1_555
O31 V3 1.789114 1_456
O31 V8 1.989328 1_555
O31 Sr3 2.740803 1_556
O31 Sr1 2.847450 1_465
O32 V6 1.789114 1_655
O32 V2 1.989328 1_555
O32 Sr2 2.740803 1_555
O32 Sr0 2.847450 1_655
O33 V5 1.689801 1_555
O34 V3 1.723959 1_555
O34 Sr3 2.841698 1_555
O34 Sr3 2.841698 1_655
O35 V5 1.789114 1_555
O35 V1 1.989328 1_555
O35 Sr0 2.740803 1_555
O35 Sr2 2.847450 1_555
