# generated using pymatgen
data_Ca2CdSb2
_symmetry_space_group_name_H-M   'P 1'
_cell_length_a   4.63267324
_cell_length_b   7.33703429
_cell_length_c   17.60715877
_cell_angle_alpha   90.00000000
_cell_angle_beta   90.00000000
_cell_angle_gamma   90.00000000
_symmetry_Int_Tables_number   1
_chemical_formula_structural   Ca2CdSb2
_chemical_formula_sum   'Ca8 Cd4 Sb8'
_cell_volume   598.46877771
_cell_formula_units_Z   4
loop_
 _symmetry_equiv_pos_site_id
 _symmetry_equiv_pos_as_xyz
  1  'x, y, z'
loop_
 _atom_site_type_symbol
 _atom_site_label
 _atom_site_symmetry_multiplicity
 _atom_site_fract_x
 _atom_site_fract_y
 _atom_site_fract_z
 _atom_site_occupancy
  Ca  Ca0  1  0.75000000  0.77504595  0.44682710  1
  Ca  Ca1  1  0.25000000  0.72495405  0.94682710  1
  Ca  Ca2  1  0.25000000  0.53456341  0.72704344  1
  Ca  Ca3  1  0.75000000  0.96543659  0.22704344  1
  Ca  Ca4  1  0.75000000  0.27504595  0.05317290  1
  Ca  Ca5  1  0.25000000  0.22495405  0.55317290  1
  Ca  Ca6  1  0.75000000  0.46543659  0.27295656  1
  Ca  Ca7  1  0.25000000  0.03456341  0.77295656  1
  Cd  Cd0  1  0.25000000  0.63625758  0.15135203  1
  Cd  Cd1  1  0.75000000  0.86374242  0.65135203  1
  Cd  Cd2  1  0.75000000  0.36374242  0.84864797  1
  Cd  Cd3  1  0.25000000  0.13625758  0.34864797  1
  Sb  Sb0  1  0.75000000  0.25333629  0.68379047  1
  Sb  Sb1  1  0.25000000  0.74666371  0.31620953  1
  Sb  Sb2  1  0.25000000  0.24666371  0.18379047  1
  Sb  Sb3  1  0.75000000  0.75424147  0.07152962  1
  Sb  Sb4  1  0.75000000  0.75333629  0.81620953  1
  Sb  Sb5  1  0.25000000  0.24575853  0.92847038  1
  Sb  Sb6  1  0.75000000  0.25424147  0.42847038  1
  Sb  Sb7  1  0.25000000  0.74575853  0.57152962  1
loop_
_geom_bond_atom_site_label_1
_geom_bond_atom_site_label_2
_geom_bond_distance
_geom_bond_site_symmetry_2
Ca0 Sb7 3.198828 1_555
Ca0 Sb7 3.198828 1_655
Ca0 Sb1 3.270761 1_655
Ca0 Sb1 3.270761 1_555
Ca0 Sb6 3.530699 1_565
Ca0 Cd1 3.659432 1_555
Ca0 Sb6 3.834805 1_555
Ca1 Sb3 3.198828 1_556
Ca1 Sb3 3.198828 1_456
Ca1 Sb4 3.270761 1_555
Ca1 Sb4 3.270761 1_455
Ca1 Sb5 3.530699 1_555
Ca1 Cd0 3.659432 1_556
Ca1 Sb5 3.834805 1_565
Ca2 Sb7 3.146203 1_555
Ca2 Sb0 3.194198 1_455
Ca2 Sb0 3.194198 1_555
Ca2 Sb4 3.225939 1_455
Ca2 Sb4 3.225939 1_555
Ca2 Cd2 3.394198 1_555
Ca2 Cd2 3.394198 1_455
Ca2 Cd1 3.602043 1_455
Ca2 Cd1 3.602043 1_555
Ca3 Sb3 3.146203 1_555
Ca3 Sb2 3.194198 1_665
Ca3 Sb2 3.194198 1_565
Ca3 Sb1 3.225939 1_555
Ca3 Sb1 3.225939 1_655
Ca3 Cd3 3.394198 1_665
Ca3 Cd3 3.394198 1_565
Ca3 Cd0 3.602043 1_655
Ca3 Cd0 3.602043 1_555
Ca4 Sb5 3.198828 1_554
Ca4 Sb5 3.198828 1_654
Ca4 Sb2 3.270761 1_655
Ca4 Sb2 3.270761 1_555
Ca4 Sb3 3.530699 1_555
Ca4 Cd2 3.659432 1_554
Ca4 Sb3 3.834805 1_545
Ca5 Sb6 3.198828 1_455
Ca5 Sb6 3.198828 1_555
Ca5 Sb0 3.270761 1_555
Ca5 Sb0 3.270761 1_455
Ca5 Sb7 3.530699 1_545
Ca5 Cd3 3.659432 1_555
Ca5 Sb7 3.834805 1_555
Ca6 Sb6 3.146203 1_555
Ca6 Sb1 3.194198 1_655
Ca6 Sb1 3.194198 1_555
Ca6 Sb2 3.225939 1_555
Ca6 Sb2 3.225939 1_655
Ca6 Cd0 3.394198 1_555
Ca6 Cd0 3.394198 1_655
Ca6 Cd3 3.602043 1_555
Ca6 Cd3 3.602043 1_655
Ca7 Sb5 3.146203 1_555
Ca7 Sb4 3.194198 1_445
Ca7 Sb4 3.194198 1_545
Ca7 Sb0 3.225939 1_555
Ca7 Sb0 3.225939 1_455
Ca7 Cd1 3.394198 1_445
Ca7 Cd1 3.394198 1_545
Ca7 Cd2 3.602043 1_555
Ca7 Cd2 3.602043 1_455
Cd0 Sb3 2.844301 1_455
Cd0 Sb3 2.844301 1_555
Cd0 Sb2 2.914966 1_555
Cd0 Sb1 3.013585 1_555
Cd1 Sb7 2.844301 1_655
Cd1 Sb7 2.844301 1_555
Cd1 Sb0 2.914966 1_565
Cd1 Sb4 3.013585 1_555
Cd2 Sb5 2.844301 1_555
Cd2 Sb5 2.844301 1_655
Cd2 Sb4 2.914966 1_555
Cd2 Sb0 3.013585 1_555
Cd3 Sb6 2.844301 1_455
Cd3 Sb6 2.844301 1_555
Cd3 Sb1 2.914966 1_545
Cd3 Sb2 3.013585 1_555
