# generated using pymatgen
data_GaH20C2S2NO14
_symmetry_space_group_name_H-M   'P 1'
_cell_length_a   10.62989200
_cell_length_b   6.51158100
_cell_length_c   12.46441372
_cell_angle_alpha   68.86256985
_cell_angle_beta   90.00000000
_cell_angle_gamma   90.00000000
_symmetry_Int_Tables_number   1
_chemical_formula_structural   GaH20C2S2NO14
_chemical_formula_sum   'Ga2 H40 C4 S4 N2 O28'
_cell_volume   804.70664297
_cell_formula_units_Z   2
loop_
 _symmetry_equiv_pos_site_id
 _symmetry_equiv_pos_as_xyz
  1  'x, y, z'
loop_
 _atom_site_type_symbol
 _atom_site_label
 _atom_site_symmetry_multiplicity
 _atom_site_fract_x
 _atom_site_fract_y
 _atom_site_fract_z
 _atom_site_occupancy
  Ga  Ga0  1  0.74532200  0.50781200  0.50090100  1
  Ga  Ga1  1  0.25467800  0.50781200  0.00090100  1
  H  H0  1  0.19775300  0.75784700  0.50495900  1
  H  H1  1  0.06739000  0.49935100  0.14237900  1
  H  H2  1  0.27185500  0.08010200  0.11944500  1
  H  H3  1  0.80224700  0.75784700  0.00495900  1
  H  H4  1  0.41267200  0.18728800  0.09623100  1
  H  H5  1  0.22227800  0.32903300  0.84116800  1
  H  H6  1  0.28342000  0.68557100  0.15836000  1
  H  H7  1  0.93261000  0.49935100  0.64237900  1
  H  H8  1  0.68358400  0.17926300  0.87834800  1
  H  H9  1  0.69373400  0.09775000  0.08437400  1
  H  H10  1  0.85040800  0.13643000  0.88034100  1
  H  H11  1  0.78773200  0.35934700  0.91703300  1
  H  H12  1  0.44744000  0.74386900  0.88674700  1
  H  H13  1  0.25256200  0.70814400  0.64864200  1
  H  H14  1  0.58732800  0.18728800  0.59623100  1
  H  H15  1  0.72814500  0.08010200  0.61944500  1
  H  H16  1  0.40412600  0.51819900  0.17311400  1
  H  H17  1  0.31641600  0.17926300  0.37834800  1
  H  H18  1  0.63927800  0.80048500  0.03008800  1
  H  H19  1  0.77772200  0.32903300  0.34116800  1
  H  H20  1  0.14959200  0.13643000  0.38034100  1
  H  H21  1  0.56255600  0.51558400  0.35761800  1
  H  H22  1  0.74743800  0.70814400  0.14864200  1
  H  H23  1  0.85003900  0.04419400  0.08423800  1
  H  H24  1  0.10569800  0.50406800  0.82455600  1
  H  H25  1  0.06111300  0.26752000  0.11553000  1
  H  H26  1  0.89430200  0.50406800  0.32455600  1
  H  H27  1  0.23107200  0.93388000  0.88443800  1
  H  H28  1  0.59587400  0.51819900  0.67311400  1
  H  H29  1  0.55256000  0.74386900  0.38674700  1
  H  H30  1  0.76892800  0.93388000  0.38443800  1
  H  H31  1  0.14996100  0.04419400  0.58423800  1
  H  H32  1  0.36072200  0.80048500  0.53008800  1
  H  H33  1  0.30626600  0.09775000  0.58437400  1
  H  H34  1  0.21226800  0.35934700  0.41703300  1
  H  H35  1  0.90677200  0.81710900  0.40494000  1
  H  H36  1  0.43744400  0.51558400  0.85761800  1
  H  H37  1  0.93888700  0.26752000  0.61553000  1
  H  H38  1  0.09322800  0.81710900  0.90494000  1
  H  H39  1  0.71658000  0.68557100  0.65836000  1
  C  C0  1  0.73606200  0.80955900  0.05757100  1
  C  C1  1  0.26393800  0.80955900  0.55757100  1
  C  C2  1  0.77211100  0.19073500  0.92051000  1
  C  C3  1  0.22788900  0.19073500  0.42051000  1
  S  S0  1  0.06450200  0.83402700  0.23471300  1
  S  S1  1  0.57154700  0.17571000  0.26364600  1
  S  S2  1  0.42845300  0.17571000  0.76364600  1
  S  S3  1  0.93549800  0.83402700  0.73471300  1
  N  N0  1  0.23550600  0.04203700  0.54327100  1
  N  N1  1  0.76449400  0.04203700  0.04327100  1
  O  O0  1  0.18164500  0.80603900  0.93757100  1
  O  O1  1  0.00060400  0.02824300  0.14739400  1
  O  O2  1  0.17625200  0.42525100  0.87602100  1
  O  O3  1  0.79763000  0.84690000  0.70860000  1
  O  O4  1  0.32313300  0.20461800  0.06647300  1
  O  O5  1  0.82374800  0.42525100  0.37602100  1
  O  O6  1  0.98859200  0.62519600  0.72803400  1
  O  O7  1  0.55506100  0.16479000  0.14647300  1
  O  O8  1  0.67686700  0.20461800  0.56647300  1
  O  O9  1  0.47828000  0.39154100  0.76281400  1
  O  O10  1  0.04400300  0.83581000  0.35200800  1
  O  O11  1  0.20237000  0.84690000  0.20860000  1
  O  O12  1  0.81835500  0.80603900  0.43757100  1
  O  O13  1  0.49526900  0.99101500  0.85120100  1
  O  O14  1  0.71012100  0.16251000  0.28990900  1
  O  O15  1  0.28987900  0.16251000  0.78990900  1
  O  O16  1  0.41576500  0.58619600  0.91437800  1
  O  O17  1  0.99939600  0.02824300  0.64739400  1
  O  O18  1  0.52172000  0.39154100  0.26281400  1
  O  O19  1  0.09693900  0.42181800  0.09059400  1
  O  O20  1  0.95599700  0.83581000  0.85200800  1
  O  O21  1  0.66439000  0.60285900  0.62026900  1
  O  O22  1  0.50473100  0.99101500  0.35120100  1
  O  O23  1  0.33561000  0.60285900  0.12026900  1
  O  O24  1  0.90306100  0.42181800  0.59059400  1
  O  O25  1  0.44493900  0.16479000  0.64647300  1
  O  O26  1  0.58423500  0.58619600  0.41437800  1
  O  O27  1  0.01140800  0.62519600  0.22803400  1
loop_
_geom_bond_atom_site_label_1
_geom_bond_atom_site_label_2
_geom_bond_distance
_geom_bond_site_symmetry_2
Ga0 O12 1.972648 1_555
Ga0 O24 1.980759 1_555
Ga0 O8 1.982803 1_555
Ga0 O26 1.989647 1_555
Ga0 O21 2.000246 1_555
Ga0 O5 2.002596 1_555
Ga1 O0 1.972648 1_554
Ga1 O19 1.980759 1_555
Ga1 O4 1.982803 1_555
Ga1 O16 1.989647 1_554
Ga1 O23 2.000246 1_555
Ga1 O2 2.002596 1_554
H1 O19 1.002597 1_555
H1 O27 1.672258 1_555
H2 O4 1.002177 1_555
H2 O11 1.693908 1_545
H4 O4 1.012931 1_555
H4 O7 1.624313 1_555
H5 O2 1.008429 1_555
H5 O15 1.612452 1_555
H6 O23 1.003837 1_555
H6 O11 1.646943 1_555
H7 O24 1.002597 1_555
H7 O6 1.672258 1_555
H9 N1 1.045893 1_555
H12 O16 1.015419 1_555
H12 O13 1.590733 1_555
H14 O8 1.012931 1_555
H14 O25 1.624313 1_555
H15 O8 1.002177 1_555
H15 O3 1.693908 1_545
H16 O23 1.003158 1_555
H16 O18 1.681590 1_555
H19 O5 1.008429 1_555
H19 O14 1.612452 1_555
H21 O26 0.999827 1_555
H21 O18 1.710427 1_555
H23 N1 1.045467 1_555
H24 O2 0.999964 1_555
H24 O6 1.713109 1_455
H25 O19 1.012859 1_555
H25 O1 1.597731 1_555
H26 O5 0.999964 1_555
H26 O27 1.713109 1_655
H27 O0 1.004994 1_555
H27 O15 1.652363 1_565
H28 O21 1.003158 1_555
H28 O9 1.681590 1_555
H29 O26 1.015419 1_555
H29 O22 1.590733 1_555
H30 O12 1.004994 1_555
H30 O14 1.652363 1_565
H31 N0 1.045467 1_555
H33 N0 1.045893 1_555
H35 O12 1.016278 1_555
H35 O10 1.587492 1_655
H36 O16 0.999827 1_555
H36 O9 1.710427 1_555
H37 O24 1.012859 1_555
H37 O17 1.597731 1_555
H38 O0 1.016278 1_555
H38 O20 1.587492 1_455
H39 O21 1.003837 1_555
H39 O3 1.646943 1_555
C0 H18 1.092645 1_555
C0 H3 1.094374 1_555
C0 H22 1.094823 1_555
C0 N1 1.490001 1_565
C1 H32 1.092645 1_555
C1 H0 1.094374 1_555
C1 H13 1.094823 1_555
C1 N0 1.490001 1_565
C2 H8 1.093440 1_555
C2 H10 1.093672 1_555
C2 H11 1.095712 1_555
C2 N1 1.488923 1_556
C3 H17 1.093440 1_555
C3 H20 1.093672 1_555
C3 H34 1.095712 1_555
C3 N0 1.488923 1_555
O1 S0 1.500859 1_545
O3 S3 1.497011 1_555
O6 S3 1.502070 1_555
O7 S1 1.497900 1_555
O9 S2 1.498427 1_555
O10 S0 1.482343 1_555
O11 S0 1.497011 1_555
O13 S2 1.481633 1_565
O14 S1 1.504680 1_555
O15 S2 1.504680 1_555
O17 S3 1.500859 1_545
O18 S1 1.498427 1_555
O20 S3 1.482343 1_555
O22 S1 1.481633 1_565
O25 S2 1.497900 1_555
O27 S0 1.502070 1_555
