# generated using pymatgen
data_Ti(FeO2)2
_symmetry_space_group_name_H-M   'P 1'
_cell_length_a   6.18217188
_cell_length_b   6.18217188
_cell_length_c   20.15547246
_cell_angle_alpha   82.83359769
_cell_angle_beta   82.83359769
_cell_angle_gamma   58.39222280
_symmetry_Int_Tables_number   1
_chemical_formula_structural   Ti(FeO2)2
_chemical_formula_sum   'Ti8 Fe16 O32'
_cell_volume   649.31982074
_cell_formula_units_Z   8
loop_
 _symmetry_equiv_pos_site_id
 _symmetry_equiv_pos_as_xyz
  1  'x, y, z'
loop_
 _atom_site_type_symbol
 _atom_site_label
 _atom_site_symmetry_multiplicity
 _atom_site_fract_x
 _atom_site_fract_y
 _atom_site_fract_z
 _atom_site_occupancy
  Ti  Ti0  1  0.83561100  0.83561100  0.96904400  1
  Ti  Ti1  1  0.36971300  0.36971300  0.87168100  1
  Ti  Ti2  1  0.12113400  0.12113400  0.62063100  1
  Ti  Ti3  1  0.24403000  0.24403000  0.74669200  1
  Ti  Ti4  1  0.87429100  0.87429100  0.36948000  1
  Ti  Ti5  1  0.99413500  0.99413500  0.49611700  1
  Ti  Ti6  1  0.60668000  0.60668000  0.12504000  1
  Ti  Ti7  1  0.74780000  0.74780000  0.24461400  1
  Fe  Fe0  1  0.49665000  0.49665000  0.00134100  1
  Fe  Fe1  1  0.58452900  0.58452900  0.72261400  1
  Fe  Fe2  1  0.36823500  0.87775900  0.87707400  1
  Fe  Fe3  1  0.87775900  0.36823500  0.87707400  1
  Fe  Fe4  1  0.33604800  0.33604800  0.47117700  1
  Fe  Fe5  1  0.12511500  0.62557500  0.62564800  1
  Fe  Fe6  1  0.91220100  0.91220100  0.77958200  1
  Fe  Fe7  1  0.08813900  0.08813900  0.21861900  1
  Fe  Fe8  1  0.62557500  0.12511500  0.62564800  1
  Fe  Fe9  1  0.87838700  0.37760100  0.37458300  1
  Fe  Fe10  1  0.66323500  0.66323500  0.52740400  1
  Fe  Fe11  1  0.37760100  0.87838700  0.37458300  1
  Fe  Fe12  1  0.62630000  0.12602800  0.12329500  1
  Fe  Fe13  1  0.41571300  0.41571300  0.28331900  1
  Fe  Fe14  1  0.12602800  0.62630000  0.12329500  1
  Fe  Fe15  1  0.16496200  0.16496200  0.03229500  1
  O  O0  1  0.67873900  0.17713800  0.93500300  1
  O  O1  1  0.54021900  0.54021900  0.82573900  1
  O  O2  1  0.17713800  0.67873900  0.93500300  1
  O  O3  1  0.67965200  0.67965200  0.93999500  1
  O  O4  1  0.41226300  0.96381500  0.68867400  1
  O  O5  1  0.08647000  0.08647000  0.80861000  1
  O  O6  1  0.20884200  0.20884200  0.93025300  1
  O  O7  1  0.96381500  0.41226300  0.68867400  1
  O  O8  1  0.53218000  0.08900200  0.81302800  1
  O  O9  1  0.29098000  0.29098000  0.57266100  1
  O  O10  1  0.41299400  0.41299400  0.69341400  1
  O  O11  1  0.08900200  0.53218000  0.81302800  1
  O  O12  1  0.16511200  0.71635200  0.43771000  1
  O  O13  1  0.83836400  0.83836400  0.55769000  1
  O  O14  1  0.95987600  0.95987600  0.67915100  1
  O  O15  1  0.28652100  0.83962000  0.56302900  1
  O  O16  1  0.04230700  0.04230700  0.32039300  1
  O  O17  1  0.71635200  0.16511200  0.43771000  1
  O  O18  1  0.16392100  0.16392100  0.44155700  1
  O  O19  1  0.83962000  0.28652100  0.56302900  1
  O  O20  1  0.91214500  0.47001100  0.18768700  1
  O  O21  1  0.59139800  0.59139800  0.30853500  1
  O  O22  1  0.71344600  0.71344600  0.42832600  1
  O  O23  1  0.47001100  0.91214500  0.18768700  1
  O  O24  1  0.03751500  0.59144400  0.31258100  1
  O  O25  1  0.80349400  0.80349400  0.06057500  1
  O  O26  1  0.91395300  0.91395300  0.18975900  1
  O  O27  1  0.59144400  0.03751500  0.31258100  1
  O  O28  1  0.33204000  0.33204000  0.06436500  1
  O  O29  1  0.80077700  0.33293900  0.06995700  1
  O  O30  1  0.45659900  0.45659900  0.18278600  1
  O  O31  1  0.33293900  0.80077700  0.06995700  1
loop_
_geom_bond_atom_site_label_1
_geom_bond_atom_site_label_2
_geom_bond_distance
_geom_bond_site_symmetry_2
Fe0 O28 2.031079 1_555
Fe0 O3 2.175394 1_554
Fe0 O29 2.185616 1_555
Fe0 O31 2.185616 1_555
Fe0 O2 2.215707 1_554
Fe0 O0 2.215707 1_554
Fe1 O10 2.021323 1_555
Fe1 O4 2.065017 1_555
Fe1 O7 2.065017 1_555
Fe1 O1 2.065166 1_555
Fe2 O5 2.098308 1_565
Fe2 O6 2.116368 1_565
Fe2 O1 2.119921 1_555
Fe2 O3 2.136570 1_555
Fe2 O8 2.244876 1_565
Fe2 O2 2.256948 1_555
Fe3 O5 2.098308 1_655
Fe3 O6 2.116368 1_655
Fe3 O1 2.119921 1_555
Fe3 O3 2.136570 1_555
Fe3 O11 2.244876 1_655
Fe3 O0 2.256948 1_555
Fe4 O18 2.031023 1_555
Fe4 O9 2.033750 1_555
Fe4 O12 2.068161 1_555
Fe4 O17 2.068161 1_555
Fe5 O13 2.112135 1_455
Fe5 O10 2.113546 1_555
Fe5 O9 2.127313 1_555
Fe5 O14 2.132121 1_455
Fe5 O7 2.234171 1_455
Fe5 O15 2.234452 1_555
Fe6 O14 2.016086 1_555
Fe6 O5 2.048150 1_665
Fe6 O11 2.065338 1_655
Fe6 O8 2.065338 1_565
Fe7 O16 2.040228 1_555
Fe7 O26 2.045881 1_445
Fe7 O20 2.062874 1_455
Fe7 O23 2.062874 1_545
Fe8 O13 2.112135 1_545
Fe8 O10 2.113546 1_555
Fe8 O9 2.127313 1_555
Fe8 O14 2.132121 1_545
Fe8 O4 2.234171 1_545
Fe8 O19 2.234452 1_555
Fe9 O21 2.087870 1_555
Fe9 O18 2.094902 1_655
Fe9 O22 2.142501 1_555
Fe9 O16 2.145569 1_655
Fe9 O24 2.218444 1_655
Fe9 O17 2.234350 1_555
Fe10 O22 1.993051 1_555
Fe10 O15 2.060252 1_555
Fe10 O19 2.060252 1_555
Fe10 O13 2.067726 1_555
Fe11 O21 2.087870 1_555
Fe11 O18 2.094902 1_565
Fe11 O22 2.142501 1_555
Fe11 O16 2.145569 1_565
Fe11 O27 2.218444 1_565
Fe11 O12 2.234350 1_555
Fe12 O28 2.018739 1_555
Fe12 O26 2.094799 1_545
Fe12 O30 2.182903 1_555
Fe12 O25 2.183528 1_545
Fe12 O29 2.183874 1_555
Fe12 O23 2.228107 1_545
Fe13 O30 2.011224 1_555
Fe13 O21 2.032132 1_555
Fe13 O24 2.036672 1_555
Fe13 O27 2.036672 1_555
Fe14 O28 2.018739 1_555
Fe14 O26 2.094799 1_455
Fe14 O30 2.182903 1_555
Fe14 O25 2.183528 1_455
Fe14 O31 2.183874 1_555
Fe14 O20 2.228107 1_455
Fe15 O28 2.000771 1_555
Fe15 O31 2.010768 1_545
Fe15 O29 2.010768 1_455
Fe15 O6 2.043512 1_554
O0 Ti0 1.878148 1_545
O0 Ti1 2.131022 1_555
O1 Ti1 1.938376 1_555
O2 Ti0 1.878148 1_455
O2 Ti1 2.131022 1_555
O3 Ti0 1.859612 1_555
O4 Ti3 1.939991 1_565
O4 Ti2 2.124687 1_565
O5 Ti3 1.960357 1_555
O6 Ti1 1.955191 1_555
O7 Ti3 1.939991 1_655
O7 Ti2 2.124687 1_655
O8 Ti1 1.951038 1_555
O8 Ti3 2.089141 1_555
O9 Ti2 1.946527 1_555
O10 Ti3 1.979734 1_555
O11 Ti1 1.951038 1_555
O11 Ti3 2.089141 1_555
O12 Ti5 1.934808 1_455
O12 Ti4 2.125746 1_455
O13 Ti5 1.941808 1_555
O14 Ti2 1.958043 1_665
O15 Ti2 1.940346 1_565
O15 Ti5 2.115554 1_455
O16 Ti4 1.937723 1_445
O17 Ti5 1.934808 1_545
O17 Ti4 2.125746 1_545
O18 Ti5 1.997921 1_445
O19 Ti2 1.940346 1_655
O19 Ti5 2.115554 1_545
O20 Ti7 1.915691 1_555
O20 Ti6 2.128547 1_555
O21 Ti7 1.971807 1_555
O22 Ti4 1.957606 1_555
O23 Ti7 1.915691 1_555
O23 Ti6 2.128547 1_555
O24 Ti4 1.937305 1_455
O24 Ti7 2.118014 1_455
O25 Ti0 1.827801 1_554
O25 Ti6 2.326383 1_555
O26 Ti7 1.967713 1_555
O27 Ti4 1.937305 1_545
O27 Ti7 2.118014 1_545
O29 Ti6 1.882607 1_555
O30 Ti6 1.854688 1_555
O31 Ti6 1.882607 1_555
