# generated using pymatgen
data_Zn3(BO3)2
_symmetry_space_group_name_H-M   'P 1'
_cell_length_a   12.54097291
_cell_length_b   12.54097291
_cell_length_c   8.48316326
_cell_angle_alpha   76.82810111
_cell_angle_beta   76.82810111
_cell_angle_gamma   23.39913239
_symmetry_Int_Tables_number   1
_chemical_formula_structural   Zn3(BO3)2
_chemical_formula_sum   'Zn12 B8 O24'
_cell_volume   515.30907351
_cell_formula_units_Z   4
loop_
 _symmetry_equiv_pos_site_id
 _symmetry_equiv_pos_as_xyz
  1  'x, y, z'
loop_
 _atom_site_type_symbol
 _atom_site_label
 _atom_site_symmetry_multiplicity
 _atom_site_fract_x
 _atom_site_fract_y
 _atom_site_fract_z
 _atom_site_occupancy
  Zn  Zn0  1  0.44446000  0.80992500  0.62011500  1
  Zn  Zn1  1  0.19007500  0.55554000  0.87988500  1
  Zn  Zn2  1  0.55554000  0.19007500  0.37988500  1
  Zn  Zn3  1  0.80992500  0.44446000  0.12011500  1
  Zn  Zn4  1  0.87386800  0.22407900  0.82509300  1
  Zn  Zn5  1  0.77592100  0.12613200  0.67490700  1
  Zn  Zn6  1  0.12613200  0.77592100  0.17490700  1
  Zn  Zn7  1  0.22407900  0.87386800  0.32509300  1
  Zn  Zn8  1  0.51851100  0.90069100  0.28778800  1
  Zn  Zn9  1  0.09930900  0.48148900  0.21221200  1
  Zn  Zn10  1  0.48148900  0.09930900  0.71221200  1
  Zn  Zn11  1  0.90069100  0.51851100  0.78778800  1
  B  B0  1  0.61082000  0.25857600  0.03727600  1
  B  B1  1  0.74142400  0.38918000  0.46272400  1
  B  B2  1  0.38918000  0.74142400  0.96272400  1
  B  B3  1  0.25857600  0.61082000  0.53727600  1
  B  B4  1  0.00228000  0.37250500  0.47982200  1
  B  B5  1  0.62749500  0.99772000  0.02017800  1
  B  B6  1  0.99772000  0.62749500  0.52017800  1
  B  B7  1  0.37250500  0.00228000  0.97982200  1
  O  O0  1  0.76357300  0.16434000  0.89905400  1
  O  O1  1  0.83566000  0.23642700  0.60094600  1
  O  O2  1  0.23642700  0.83566000  0.10094600  1
  O  O3  1  0.16434000  0.76357300  0.39905400  1
  O  O4  1  0.49448300  0.66758100  0.46015700  1
  O  O5  1  0.33241900  0.50551700  0.03984300  1
  O  O6  1  0.50551700  0.33241900  0.53984300  1
  O  O7  1  0.66758100  0.49448300  0.96015700  1
  O  O8  1  0.26153600  0.89919200  0.81996300  1
  O  O9  1  0.10080800  0.73846400  0.68003700  1
  O  O10  1  0.73846400  0.10080800  0.18003700  1
  O  O11  1  0.89919200  0.26153600  0.31996300  1
  O  O12  1  0.83850400  0.48897000  0.62021600  1
  O  O13  1  0.51103000  0.16149600  0.87978400  1
  O  O14  1  0.16149600  0.51103000  0.37978400  1
  O  O15  1  0.48897000  0.83850400  0.12021600  1
  O  O16  1  0.47112200  0.09772400  0.16005600  1
  O  O17  1  0.90227600  0.52887800  0.33994400  1
  O  O18  1  0.52887800  0.90227600  0.83994400  1
  O  O19  1  0.09772400  0.47112200  0.66005600  1
  O  O20  1  0.27051800  0.09699100  0.47955900  1
  O  O21  1  0.90300900  0.72948200  0.02044100  1
  O  O22  1  0.72948200  0.90300900  0.52044100  1
  O  O23  1  0.09699100  0.27051800  0.97955900  1
loop_
_geom_bond_atom_site_label_1
_geom_bond_atom_site_label_2
_geom_bond_distance
_geom_bond_site_symmetry_2
B0 O0 1.376101 1_554
B0 O10 1.386301 1_555
B0 O5 1.389477 1_555
B1 O1 1.376101 1_555
B1 O11 1.386301 1_555
B1 O4 1.389477 1_555
B2 O2 1.376101 1_556
B2 O8 1.386301 1_555
B2 O7 1.389477 1_555
B3 O3 1.376101 1_555
B3 O9 1.386301 1_555
B3 O6 1.389477 1_555
B4 O20 1.385711 1_555
B4 O17 1.389248 1_455
B4 O12 1.393504 1_455
B5 O21 1.385711 1_555
B5 O16 1.389248 1_565
B5 O13 1.393504 1_564
B6 O22 1.385711 1_555
B6 O19 1.389248 1_655
B6 O14 1.393504 1_655
B7 O23 1.385711 1_555
B7 O18 1.389248 1_545
B7 O15 1.393504 1_546
O0 Zn5 2.003506 1_555
O0 Zn4 2.039745 1_555
O1 Zn4 2.003506 1_555
O1 Zn5 2.039745 1_555
O2 Zn7 2.003506 1_555
O2 Zn6 2.039745 1_555
O3 Zn6 2.003506 1_555
O3 Zn7 2.039745 1_555
O4 Zn7 1.955044 1_555
O4 Zn0 2.020398 1_555
O5 Zn6 1.955044 1_555
O5 Zn1 2.020398 1_554
O6 Zn5 1.955044 1_555
O6 Zn2 2.020398 1_555
O7 Zn4 1.955044 1_555
O7 Zn3 2.020398 1_556
O8 Zn0 1.941302 1_555
O8 Zn4 1.965776 1_465
O9 Zn1 1.941302 1_555
O9 Zn5 1.965776 1_465
O10 Zn2 1.941302 1_555
O10 Zn6 1.965776 1_645
O11 Zn3 1.941302 1_555
O11 Zn7 1.965776 1_645
O12 Zn11 2.010436 1_555
O12 Zn0 2.027840 1_555
O13 Zn10 2.010436 1_555
O13 Zn1 2.027840 1_555
O14 Zn9 2.010436 1_555
O14 Zn2 2.027840 1_555
O15 Zn8 2.010436 1_555
O15 Zn3 2.027840 1_555
O16 Zn9 1.984844 1_555
O16 Zn8 2.002706 1_545
O17 Zn8 1.984844 1_555
O17 Zn9 2.002706 1_655
O18 Zn11 1.984844 1_555
O18 Zn10 2.002706 1_565
O19 Zn10 1.984844 1_555
O19 Zn11 2.002706 1_455
O20 Zn8 1.960991 1_545
O20 Zn0 1.988755 1_545
O21 Zn9 1.960991 1_655
O21 Zn1 1.988755 1_654
O22 Zn10 1.960991 1_565
O22 Zn2 1.988755 1_565
O23 Zn11 1.960991 1_455
O23 Zn3 1.988755 1_456
