# generated using pymatgen
data_CuGeO3
_symmetry_space_group_name_H-M   'P 1'
_cell_length_a   8.76871000
_cell_length_b   9.93576800
_cell_length_c   11.92274000
_cell_angle_alpha   90.00000000
_cell_angle_beta   90.00000000
_cell_angle_gamma   90.00000000
_symmetry_Int_Tables_number   1
_chemical_formula_structural   CuGeO3
_chemical_formula_sum   'Cu16 Ge16 O48'
_cell_volume   1038.75522857
_cell_formula_units_Z   16
loop_
 _symmetry_equiv_pos_site_id
 _symmetry_equiv_pos_as_xyz
  1  'x, y, z'
loop_
 _atom_site_type_symbol
 _atom_site_label
 _atom_site_symmetry_multiplicity
 _atom_site_fract_x
 _atom_site_fract_y
 _atom_site_fract_z
 _atom_site_occupancy
  Cu  Cu0  1  0.50000000  0.50000000  0.74728000  1
  Cu  Cu1  1  0.50000000  0.00000000  0.00000000  1
  Cu  Cu2  1  0.50000000  0.50000000  0.50000000  1
  Cu  Cu3  1  0.00000000  0.50000000  0.24735800  1
  Cu  Cu4  1  0.50000000  0.00000000  0.24735800  1
  Cu  Cu5  1  0.00000000  0.00000000  0.00000000  1
  Cu  Cu6  1  0.50000000  0.00000000  0.50000000  1
  Cu  Cu7  1  0.50000000  0.50000000  0.25272000  1
  Cu  Cu8  1  0.00000000  0.00000000  0.25272000  1
  Cu  Cu9  1  0.00000000  0.00000000  0.74728000  1
  Cu  Cu10  1  0.50000000  0.00000000  0.75264200  1
  Cu  Cu11  1  0.50000000  0.50000000  0.00000000  1
  Cu  Cu12  1  0.00000000  0.50000000  0.75264200  1
  Cu  Cu13  1  0.00000000  0.50000000  0.50000000  1
  Cu  Cu14  1  0.00000000  0.50000000  0.00000000  1
  Cu  Cu15  1  0.00000000  0.00000000  0.50000000  1
  Ge  Ge0  1  0.75044400  0.20298200  0.87489400  1
  Ge  Ge1  1  0.25122600  0.29715500  0.62512300  1
  Ge  Ge2  1  0.24955600  0.79701800  0.12510600  1
  Ge  Ge3  1  0.74955600  0.70298200  0.12510600  1
  Ge  Ge4  1  0.24877400  0.79715500  0.37487700  1
  Ge  Ge5  1  0.24877400  0.79715500  0.62512300  1
  Ge  Ge6  1  0.75044400  0.20298200  0.12510600  1
  Ge  Ge7  1  0.74877400  0.70284500  0.62512300  1
  Ge  Ge8  1  0.25044400  0.29701800  0.87489400  1
  Ge  Ge9  1  0.74877400  0.70284500  0.37487700  1
  Ge  Ge10  1  0.25044400  0.29701800  0.12510600  1
  Ge  Ge11  1  0.74955600  0.70298200  0.87489400  1
  Ge  Ge12  1  0.25122600  0.29715500  0.37487700  1
  Ge  Ge13  1  0.24955600  0.79701800  0.87489400  1
  Ge  Ge14  1  0.75122600  0.20284500  0.37487700  1
  Ge  Ge15  1  0.75122600  0.20284500  0.62512300  1
  O  O0  1  0.08046600  0.39357300  0.12427200  1
  O  O1  1  0.74813600  0.80409100  0.00000000  1
  O  O2  1  0.91488500  0.09944100  0.12595100  1
  O  O3  1  0.75037000  0.30450800  0.74996500  1
  O  O4  1  0.08908600  0.40336600  0.62596300  1
  O  O5  1  0.25116600  0.69614100  0.50000000  1
  O  O6  1  0.24883400  0.19614100  0.50000000  1
  O  O7  1  0.08908600  0.40336600  0.37403700  1
  O  O8  1  0.75116600  0.80385900  0.50000000  1
  O  O9  1  0.91953400  0.60642700  0.87572800  1
  O  O10  1  0.92322100  0.10879400  0.37574900  1
  O  O11  1  0.07677900  0.89120600  0.37574900  1
  O  O12  1  0.58908600  0.09663400  0.37403700  1
  O  O13  1  0.91953400  0.60642700  0.12427200  1
  O  O14  1  0.58046600  0.10642700  0.87572800  1
  O  O15  1  0.57677900  0.60879400  0.62425100  1
  O  O16  1  0.75037000  0.30450800  0.25003400  1
  O  O17  1  0.57677900  0.60879400  0.37574900  1
  O  O18  1  0.91488500  0.09944100  0.87404900  1
  O  O19  1  0.58511500  0.59944100  0.87404900  1
  O  O20  1  0.08511500  0.90055900  0.87404900  1
  O  O21  1  0.75186400  0.30409100  0.00000000  1
  O  O22  1  0.74883400  0.30385900  0.50000000  1
  O  O23  1  0.74963000  0.80450800  0.74996500  1
  O  O24  1  0.41953400  0.89357300  0.12427200  1
  O  O25  1  0.42322100  0.39120600  0.37574900  1
  O  O26  1  0.74963000  0.80450800  0.25003400  1
  O  O27  1  0.25186400  0.19590900  0.00000000  1
  O  O28  1  0.25037000  0.19549200  0.25003400  1
  O  O29  1  0.92322100  0.10879400  0.62425100  1
  O  O30  1  0.41953400  0.89357300  0.87572800  1
  O  O31  1  0.24963000  0.69549200  0.74996500  1
  O  O32  1  0.58908600  0.09663400  0.62596300  1
  O  O33  1  0.08511500  0.90055900  0.12595100  1
  O  O34  1  0.91091400  0.59663400  0.62596300  1
  O  O35  1  0.41091400  0.90336600  0.37403700  1
  O  O36  1  0.41488500  0.40055900  0.87404900  1
  O  O37  1  0.08046600  0.39357300  0.87572800  1
  O  O38  1  0.24813600  0.69590900  0.00000000  1
  O  O39  1  0.58046600  0.10642700  0.12427200  1
  O  O40  1  0.91091400  0.59663400  0.37403700  1
  O  O41  1  0.07677900  0.89120600  0.62425100  1
  O  O42  1  0.25037000  0.19549200  0.74996500  1
  O  O43  1  0.41091400  0.90336600  0.62596300  1
  O  O44  1  0.42322100  0.39120600  0.62425100  1
  O  O45  1  0.58511500  0.59944100  0.12595100  1
  O  O46  1  0.24963000  0.69549200  0.25003400  1
  O  O47  1  0.41488500  0.40055900  0.12595100  1
loop_
_geom_bond_atom_site_label_1
_geom_bond_atom_site_label_2
_geom_bond_distance
_geom_bond_site_symmetry_2
Cu0 O44 1.942512 1_555
Cu0 O15 1.942512 1_555
Cu0 O36 1.953883 1_555
Cu0 O19 1.953883 1_555
Cu1 O39 1.952265 1_555
Cu1 O24 1.952265 1_545
Cu1 O14 1.952265 1_554
Cu1 O30 1.952265 1_544
Cu2 O25 1.953538 1_555
Cu2 O17 1.953538 1_555
Cu2 O15 1.953538 1_555
Cu2 O44 1.953538 1_555
Cu3 O0 1.941555 1_555
Cu3 O13 1.941555 1_455
Cu3 O7 1.952760 1_555
Cu3 O40 1.952760 1_455
Cu4 O39 1.941555 1_555
Cu4 O24 1.941555 1_545
Cu4 O35 1.952760 1_545
Cu4 O12 1.952760 1_555
Cu5 O33 1.946348 1_545
Cu5 O2 1.946348 1_455
Cu5 O20 1.946348 1_544
Cu5 O18 1.946348 1_454
Cu6 O12 1.946165 1_555
Cu6 O35 1.946165 1_545
Cu6 O43 1.946165 1_545
Cu6 O32 1.946165 1_555
Cu7 O17 1.942512 1_555
Cu7 O25 1.942512 1_555
Cu7 O47 1.953883 1_555
Cu7 O45 1.953883 1_555
Cu8 O11 1.942512 1_545
Cu8 O10 1.942512 1_455
Cu8 O33 1.953883 1_545
Cu8 O2 1.953883 1_455
Cu9 O41 1.942512 1_545
Cu9 O29 1.942512 1_455
Cu9 O20 1.953883 1_545
Cu9 O18 1.953883 1_455
Cu10 O14 1.941555 1_555
Cu10 O30 1.941555 1_545
Cu10 O32 1.952760 1_555
Cu10 O43 1.952760 1_545
Cu11 O47 1.946348 1_555
Cu11 O45 1.946348 1_555
Cu11 O36 1.946348 1_554
Cu11 O19 1.946348 1_554
Cu12 O37 1.941555 1_555
Cu12 O9 1.941555 1_455
Cu12 O34 1.952760 1_455
Cu12 O4 1.952760 1_555
Cu13 O7 1.946165 1_555
Cu13 O40 1.946165 1_455
Cu13 O34 1.946165 1_455
Cu13 O4 1.946165 1_555
Cu14 O0 1.952265 1_555
Cu14 O37 1.952265 1_554
Cu14 O13 1.952265 1_455
Cu14 O9 1.952265 1_454
Cu15 O11 1.953538 1_545
Cu15 O41 1.953538 1_545
Cu15 O10 1.953538 1_455
Cu15 O29 1.953538 1_455
Ge0 O18 1.771334 1_555
Ge0 O14 1.772569 1_555
Ge0 O21 1.798404 1_556
Ge0 O3 1.798931 1_555
Ge1 O4 1.770630 1_555
Ge1 O44 1.774241 1_555
Ge1 O6 1.798124 1_555
Ge1 O42 1.798852 1_555
Ge2 O33 1.771334 1_555
Ge2 O24 1.772569 1_555
Ge2 O38 1.798404 1_555
Ge2 O46 1.798921 1_555
Ge3 O45 1.771334 1_555
Ge3 O13 1.772569 1_555
Ge3 O1 1.798404 1_555
Ge3 O26 1.798921 1_555
Ge4 O35 1.770630 1_555
Ge4 O11 1.774241 1_555
Ge4 O5 1.798124 1_555
Ge4 O46 1.798862 1_555
Ge5 O43 1.770630 1_555
Ge5 O41 1.774241 1_555
Ge5 O5 1.798124 1_555
Ge5 O31 1.798852 1_555
Ge6 O2 1.771334 1_555
Ge6 O39 1.772569 1_555
Ge6 O21 1.798404 1_555
Ge6 O16 1.798921 1_555
Ge7 O34 1.770630 1_555
Ge7 O15 1.774241 1_555
Ge7 O8 1.798124 1_555
Ge7 O23 1.798852 1_555
Ge8 O36 1.771334 1_555
Ge8 O37 1.772569 1_555
Ge8 O27 1.798404 1_556
Ge8 O42 1.798931 1_555
Ge9 O40 1.770630 1_555
Ge9 O17 1.774241 1_555
Ge9 O8 1.798124 1_555
Ge9 O26 1.798862 1_555
Ge10 O47 1.771334 1_555
Ge10 O0 1.772569 1_555
Ge10 O27 1.798404 1_555
Ge10 O28 1.798921 1_555
Ge11 O19 1.771334 1_555
Ge11 O9 1.772569 1_555
Ge11 O1 1.798404 1_556
Ge11 O23 1.798931 1_555
Ge12 O7 1.770630 1_555
Ge12 O25 1.774241 1_555
Ge12 O6 1.798124 1_555
Ge12 O28 1.798862 1_555
Ge13 O20 1.771334 1_555
Ge13 O30 1.772569 1_555
Ge13 O38 1.798404 1_556
Ge13 O31 1.798931 1_555
Ge14 O12 1.770630 1_555
Ge14 O10 1.774241 1_555
Ge14 O22 1.798124 1_555
Ge14 O16 1.798862 1_555
Ge15 O32 1.770630 1_555
Ge15 O29 1.774241 1_555
Ge15 O22 1.798124 1_555
Ge15 O3 1.798852 1_555
