# generated using pymatgen
data_CaHf4O9
_symmetry_space_group_name_H-M   'P 1'
_cell_length_a   11.48200194
_cell_length_b   11.48200194
_cell_length_c   12.03851775
_cell_angle_alpha   67.88418410
_cell_angle_beta   67.88418410
_cell_angle_gamma   79.18231461
_symmetry_Int_Tables_number   1
_chemical_formula_structural   CaHf4O9
_chemical_formula_sum   'Ca8 Hf32 O72'
_cell_volume   1360.20791663
_cell_formula_units_Z   8
loop_
 _symmetry_equiv_pos_site_id
 _symmetry_equiv_pos_as_xyz
  1  'x, y, z'
loop_
 _atom_site_type_symbol
 _atom_site_label
 _atom_site_symmetry_multiplicity
 _atom_site_fract_x
 _atom_site_fract_y
 _atom_site_fract_z
 _atom_site_occupancy
  Ca  Ca0  1  0.88654900  0.51145200  0.14974200  1
  Ca  Ca1  1  0.48854800  0.11345100  0.35025800  1
  Ca  Ca2  1  0.51145200  0.88654900  0.64974200  1
  Ca  Ca3  1  0.06306100  0.93693900  0.25000000  1
  Ca  Ca4  1  0.93693900  0.06306100  0.75000000  1
  Ca  Ca5  1  0.56387300  0.43612700  0.25000000  1
  Ca  Ca6  1  0.43612700  0.56387300  0.75000000  1
  Ca  Ca7  1  0.11345100  0.48854800  0.85025800  1
  Hf  Hf0  1  0.37475000  0.99349100  0.17755100  1
  Hf  Hf1  1  0.06409000  0.15140300  0.93576300  1
  Hf  Hf2  1  0.84859700  0.93591000  0.56423700  1
  Hf  Hf3  1  0.18525100  0.81474900  0.75000000  1
  Hf  Hf4  1  0.69587800  0.06502800  0.05082800  1
  Hf  Hf5  1  0.93591000  0.84859700  0.06423700  1
  Hf  Hf6  1  0.41666300  0.78903200  0.44882900  1
  Hf  Hf7  1  0.51568900  0.66520500  0.95040100  1
  Hf  Hf8  1  0.68759000  0.31241000  0.75000000  1
  Hf  Hf9  1  0.88275200  0.74346200  0.84888100  1
  Hf  Hf10  1  0.30412200  0.93497200  0.94917200  1
  Hf  Hf11  1  0.00650900  0.62525000  0.32244900  1
  Hf  Hf12  1  0.74920800  0.64133000  0.62024800  1
  Hf  Hf13  1  0.66520500  0.51568900  0.45040100  1
  Hf  Hf14  1  0.48431100  0.33479500  0.04959900  1
  Hf  Hf15  1  0.74346200  0.88275200  0.34888100  1
  Hf  Hf16  1  0.99349100  0.37475000  0.67755100  1
  Hf  Hf17  1  0.62525000  0.00650900  0.82244900  1
  Hf  Hf18  1  0.64133000  0.74920800  0.12024800  1
  Hf  Hf19  1  0.81474900  0.18525100  0.25000000  1
  Hf  Hf20  1  0.06502800  0.69587800  0.55082800  1
  Hf  Hf21  1  0.33479500  0.48431100  0.54959900  1
  Hf  Hf22  1  0.25653800  0.11724800  0.65111900  1
  Hf  Hf23  1  0.11724800  0.25653800  0.15111900  1
  Hf  Hf24  1  0.35867000  0.25079200  0.87975200  1
  Hf  Hf25  1  0.58333700  0.21096800  0.55117100  1
  Hf  Hf26  1  0.15140300  0.06409000  0.43576300  1
  Hf  Hf27  1  0.21096800  0.58333700  0.05117100  1
  Hf  Hf28  1  0.25079200  0.35867000  0.37975200  1
  Hf  Hf29  1  0.31241000  0.68759000  0.25000000  1
  Hf  Hf30  1  0.78903200  0.41666300  0.94882900  1
  Hf  Hf31  1  0.93497200  0.30412200  0.44917200  1
  O  O0  1  0.26781600  0.68233600  0.47767400  1
  O  O1  1  0.90053500  0.55273600  0.92021900  1
  O  O2  1  0.60667200  0.93729300  0.02012300  1
  O  O3  1  0.55273600  0.90053500  0.42021900  1
  O  O4  1  0.10558700  0.95469300  0.02140700  1
  O  O5  1  0.65029000  0.49189500  0.63703300  1
  O  O6  1  0.44726400  0.09946500  0.57978100  1
  O  O7  1  0.50810500  0.34971000  0.86296700  1
  O  O8  1  0.51558400  0.39369300  0.49219600  1
  O  O9  1  0.32733200  0.42054000  0.73709100  1
  O  O10  1  0.64062300  0.22038000  0.36867500  1
  O  O11  1  0.60630700  0.48441600  0.00780400  1
  O  O12  1  0.31764400  0.27410400  0.05866100  1
  O  O13  1  0.42054000  0.32733200  0.23709100  1
  O  O14  1  0.67811900  0.04006500  0.62196500  1
  O  O15  1  0.32188100  0.95993500  0.37803500  1
  O  O16  1  0.06270700  0.39332800  0.47987700  1
  O  O17  1  0.49189500  0.65029000  0.13703300  1
  O  O18  1  0.00658800  0.85169500  0.87192100  1
  O  O19  1  0.86876400  0.73506700  0.67210500  1
  O  O20  1  0.72589600  0.68235600  0.44133900  1
  O  O21  1  0.57946000  0.67266800  0.76290900  1
  O  O22  1  0.27899500  0.87679700  0.15088300  1
  O  O23  1  0.50473500  0.11605200  0.14304400  1
  O  O24  1  0.77962000  0.35937700  0.13132500  1
  O  O25  1  0.95993500  0.32188100  0.87803500  1
  O  O26  1  0.72045600  0.07364000  0.21393900  1
  O  O27  1  0.27410400  0.31764400  0.55866100  1
  O  O28  1  0.09946500  0.44726400  0.07978100  1
  O  O29  1  0.54340900  0.19359300  0.74579200  1
  O  O30  1  0.87679700  0.27899500  0.65088300  1
  O  O31  1  0.12320300  0.72100500  0.34911700  1
  O  O32  1  0.35937700  0.77962000  0.63132500  1
  O  O33  1  0.80640700  0.45659100  0.75420800  1
  O  O34  1  0.18926000  0.07575500  0.24081100  1
  O  O35  1  0.22038000  0.64062300  0.86867500  1
  O  O36  1  0.16381700  0.27416900  0.95643400  1
  O  O37  1  0.73506700  0.86876400  0.17210500  1
  O  O38  1  0.07575500  0.18926000  0.74081100  1
  O  O39  1  0.39332800  0.06270700  0.97987700  1
  O  O40  1  0.04006500  0.67811900  0.12196500  1
  O  O41  1  0.04530700  0.89441300  0.47859300  1
  O  O42  1  0.85169500  0.00658800  0.37192100  1
  O  O43  1  0.13123600  0.26493300  0.32789500  1
  O  O44  1  0.48441600  0.60630700  0.50780400  1
  O  O45  1  0.88394800  0.49526500  0.35695600  1
  O  O46  1  0.19359300  0.54340900  0.24579200  1
  O  O47  1  0.93729300  0.60667200  0.52012300  1
  O  O48  1  0.95469300  0.10558700  0.52140700  1
  O  O49  1  0.68235600  0.72589600  0.94133900  1
  O  O50  1  0.14830500  0.99341200  0.62807900  1
  O  O51  1  0.27954400  0.92636000  0.78606100  1
  O  O52  1  0.07364000  0.72045600  0.71393900  1
  O  O53  1  0.73218400  0.31766400  0.52232600  1
  O  O54  1  0.11605200  0.50473500  0.64304400  1
  O  O55  1  0.68233600  0.26781600  0.97767400  1
  O  O56  1  0.92636000  0.27954400  0.28606100  1
  O  O57  1  0.49526500  0.88394800  0.85695600  1
  O  O58  1  0.27416900  0.16381700  0.45643400  1
  O  O59  1  0.34971000  0.50810500  0.36296700  1
  O  O60  1  0.26493300  0.13123600  0.82789500  1
  O  O61  1  0.81074000  0.92424500  0.75918900  1
  O  O62  1  0.99341200  0.14830500  0.12807900  1
  O  O63  1  0.83618300  0.72583100  0.04356600  1
  O  O64  1  0.89441300  0.04530700  0.97859300  1
  O  O65  1  0.45659100  0.80640700  0.25420800  1
  O  O66  1  0.72100500  0.12320300  0.84911700  1
  O  O67  1  0.39369300  0.51558400  0.99219600  1
  O  O68  1  0.72583100  0.83618300  0.54356600  1
  O  O69  1  0.31766400  0.73218400  0.02232600  1
  O  O70  1  0.92424500  0.81074000  0.25918900  1
  O  O71  1  0.67266800  0.57946000  0.26290900  1
loop_
_geom_bond_atom_site_label_1
_geom_bond_atom_site_label_2
_geom_bond_distance
_geom_bond_site_symmetry_2
Ca0 O28 2.338762 1_655
Ca0 O63 2.383365 1_555
Ca0 O45 2.419732 1_555
Ca0 O24 2.430369 1_555
Ca0 O71 2.461442 1_555
Ca0 O1 2.567792 1_554
Ca0 O56 2.609612 1_555
Ca0 O40 2.687285 1_655
Ca1 O3 2.338762 1_545
Ca1 O58 2.383365 1_555
Ca1 O23 2.419732 1_555
Ca1 O10 2.430369 1_555
Ca1 O13 2.461442 1_555
Ca1 O6 2.567792 1_555
Ca1 O26 2.609612 1_555
Ca1 O15 2.687285 1_545
Ca2 O6 2.338762 1_565
Ca2 O68 2.383365 1_555
Ca2 O57 2.419732 1_555
Ca2 O32 2.430369 1_555
Ca2 O21 2.461442 1_555
Ca2 O3 2.567792 1_555
Ca2 O51 2.609612 1_555
Ca2 O14 2.687285 1_565
Ca3 O70 2.294743 1_455
Ca3 O34 2.294743 1_565
Ca3 O31 2.407906 1_555
Ca3 O22 2.407906 1_555
Ca3 O42 2.481302 1_465
Ca3 O62 2.481302 1_465
Ca3 O4 2.540914 1_555
Ca3 O41 2.540914 1_555
Ca4 O61 2.294743 1_545
Ca4 O38 2.294743 1_655
Ca4 O66 2.407906 1_555
Ca4 O30 2.407906 1_555
Ca4 O18 2.481302 1_645
Ca4 O50 2.481302 1_645
Ca4 O64 2.540914 1_555
Ca4 O48 2.540914 1_555
Ca5 O71 2.324554 1_555
Ca5 O13 2.324554 1_555
Ca5 O59 2.478850 1_555
Ca5 O17 2.478850 1_555
Ca5 O10 2.533373 1_555
Ca5 O24 2.533373 1_555
Ca5 O8 2.619258 1_555
Ca5 O11 2.619258 1_555
Ca6 O21 2.324554 1_555
Ca6 O9 2.324554 1_555
Ca6 O7 2.478850 1_555
Ca6 O5 2.478850 1_555
Ca6 O35 2.533373 1_555
Ca6 O32 2.533373 1_555
Ca6 O67 2.619258 1_555
Ca6 O44 2.619258 1_555
Ca7 O1 2.338762 1_455
Ca7 O36 2.383365 1_555
Ca7 O54 2.419732 1_555
Ca7 O35 2.430369 1_555
Ca7 O9 2.461442 1_555
Ca7 O28 2.567792 1_556
Ca7 O52 2.609612 1_555
Ca7 O25 2.687285 1_455
Hf0 O22 2.061504 1_555
Hf0 O23 2.064415 1_565
Hf0 O34 2.138553 1_565
Hf0 O39 2.144174 1_564
Hf0 O15 2.150933 1_555
Hf0 O65 2.179820 1_555
Hf1 O36 2.108227 1_555
Hf1 O25 2.113647 1_455
Hf1 O62 2.134038 1_456
Hf1 O4 2.145679 1_546
Hf1 O38 2.175318 1_555
Hf1 O60 2.197511 1_555
Hf1 O64 2.281889 1_455
Hf2 O68 2.108227 1_555
Hf2 O14 2.113647 1_565
Hf2 O42 2.134038 1_565
Hf2 O41 2.145679 1_655
Hf2 O61 2.175318 1_555
Hf2 O19 2.197511 1_555
Hf2 O48 2.281889 1_565
Hf3 O32 2.044876 1_555
Hf3 O35 2.044876 1_555
Hf3 O52 2.072809 1_555
Hf3 O51 2.072809 1_555
Hf3 O18 2.101799 1_555
Hf3 O50 2.101799 1_555
Hf4 O64 2.113257 1_554
Hf4 O26 2.125823 1_555
Hf4 O23 2.136564 1_555
Hf4 O2 2.143363 1_545
Hf4 O55 2.155104 1_554
Hf4 O66 2.179351 1_554
Hf4 O37 2.247009 1_545
Hf5 O63 2.108227 1_555
Hf5 O40 2.113647 1_655
Hf5 O18 2.134038 1_654
Hf5 O64 2.145679 1_564
Hf5 O70 2.175318 1_555
Hf5 O37 2.197511 1_555
Hf5 O4 2.281889 1_655
Hf6 O32 2.007704 1_555
Hf6 O44 2.047607 1_555
Hf6 O3 2.052424 1_555
Hf6 O15 2.097348 1_555
Hf6 O0 2.135662 1_555
Hf6 O65 2.147788 1_555
Hf7 O21 2.066785 1_555
Hf7 O17 2.101813 1_556
Hf7 O49 2.108502 1_555
Hf7 O11 2.125960 1_556
Hf7 O69 2.207628 1_556
Hf7 O67 2.210973 1_555
Hf7 O57 2.340680 1_555
Hf8 O5 2.068078 1_555
Hf8 O7 2.068078 1_555
Hf8 O30 2.090599 1_555
Hf8 O66 2.090599 1_555
Hf8 O33 2.359525 1_555
Hf8 O29 2.359525 1_555
Hf8 O55 2.570701 1_555
Hf8 O53 2.570701 1_555
Hf9 O1 2.030532 1_555
Hf9 O61 2.121003 1_555
Hf9 O63 2.135341 1_556
Hf9 O49 2.156550 1_555
Hf9 O18 2.205188 1_655
Hf9 O52 2.222049 1_655
Hf9 O19 2.231953 1_555
Hf10 O4 2.113257 1_556
Hf10 O51 2.125823 1_555
Hf10 O57 2.136564 1_555
Hf10 O39 2.143363 1_565
Hf10 O69 2.155104 1_556
Hf10 O22 2.179351 1_556
Hf10 O60 2.247009 1_565
Hf11 O31 2.061504 1_555
Hf11 O45 2.064415 1_455
Hf11 O70 2.138553 1_455
Hf11 O47 2.144174 1_455
Hf11 O40 2.150933 1_555
Hf11 O46 2.179820 1_555
Hf12 O68 2.082255 1_555
Hf12 O47 2.086539 1_555
Hf12 O20 2.134296 1_555
Hf12 O21 2.135287 1_555
Hf12 O5 2.138336 1_555
Hf12 O19 2.266788 1_555
Hf12 O33 2.286986 1_555
Hf13 O71 2.066785 1_555
Hf13 O5 2.101813 1_555
Hf13 O20 2.108502 1_555
Hf13 O44 2.125960 1_555
Hf13 O53 2.207628 1_555
Hf13 O8 2.210973 1_555
Hf13 O45 2.340680 1_555
Hf14 O13 2.066785 1_555
Hf14 O7 2.101813 1_554
Hf14 O12 2.108502 1_555
Hf14 O67 2.125960 1_554
Hf14 O55 2.207628 1_554
Hf14 O11 2.210973 1_555
Hf14 O23 2.340680 1_555
Hf15 O3 2.030532 1_555
Hf15 O70 2.121003 1_555
Hf15 O68 2.135341 1_555
Hf15 O20 2.156550 1_555
Hf15 O42 2.205188 1_565
Hf15 O26 2.222049 1_565
Hf15 O37 2.231953 1_555
Hf16 O30 2.061504 1_555
Hf16 O54 2.064415 1_655
Hf16 O38 2.138553 1_655
Hf16 O16 2.144174 1_655
Hf16 O25 2.150933 1_555
Hf16 O33 2.179820 1_555
Hf17 O66 2.061504 1_555
Hf17 O57 2.064415 1_545
Hf17 O61 2.138553 1_545
Hf17 O2 2.144174 1_546
Hf17 O14 2.150933 1_555
Hf17 O29 2.179820 1_555
Hf18 O63 2.082255 1_555
Hf18 O2 2.086539 1_555
Hf18 O49 2.134296 1_554
Hf18 O71 2.135287 1_555
Hf18 O17 2.138336 1_555
Hf18 O37 2.266788 1_555
Hf18 O65 2.286986 1_555
Hf19 O24 2.044876 1_555
Hf19 O10 2.044876 1_555
Hf19 O26 2.072809 1_555
Hf19 O56 2.072809 1_555
Hf19 O42 2.101799 1_555
Hf19 O62 2.101799 1_555
Hf20 O41 2.113257 1_555
Hf20 O52 2.125823 1_555
Hf20 O54 2.136564 1_555
Hf20 O47 2.143363 1_455
Hf20 O0 2.155104 1_555
Hf20 O31 2.179351 1_555
Hf20 O19 2.247009 1_455
Hf21 O9 2.066785 1_555
Hf21 O59 2.101813 1_555
Hf21 O27 2.108502 1_555
Hf21 O8 2.125960 1_555
Hf21 O0 2.207628 1_555
Hf21 O44 2.210973 1_555
Hf21 O54 2.340680 1_555
Hf22 O6 2.030532 1_555
Hf22 O38 2.121003 1_555
Hf22 O58 2.135341 1_555
Hf22 O27 2.156550 1_555
Hf22 O50 2.205188 1_545
Hf22 O51 2.222049 1_545
Hf22 O60 2.231953 1_555
Hf23 O28 2.030532 1_555
Hf23 O34 2.121003 1_555
Hf23 O36 2.135341 1_554
Hf23 O12 2.156550 1_555
Hf23 O62 2.205188 1_455
Hf23 O56 2.222049 1_455
Hf23 O43 2.231953 1_555
Hf24 O36 2.082255 1_555
Hf24 O39 2.086539 1_555
Hf24 O12 2.134296 1_556
Hf24 O9 2.135287 1_555
Hf24 O7 2.138336 1_555
Hf24 O60 2.266788 1_555
Hf24 O29 2.286986 1_555
Hf25 O10 2.007704 1_555
Hf25 O8 2.047607 1_555
Hf25 O6 2.052424 1_555
Hf25 O14 2.097348 1_555
Hf25 O53 2.135662 1_555
Hf25 O29 2.147788 1_555
Hf26 O58 2.108227 1_555
Hf26 O15 2.113647 1_545
Hf26 O50 2.134038 1_545
Hf26 O48 2.145679 1_455
Hf26 O34 2.175318 1_555
Hf26 O43 2.197511 1_555
Hf26 O41 2.281889 1_545
Hf27 O35 2.007704 1_554
Hf27 O67 2.047607 1_554
Hf27 O28 2.052424 1_555
Hf27 O40 2.097348 1_555
Hf27 O69 2.135662 1_555
Hf27 O46 2.147788 1_555
Hf28 O58 2.082255 1_555
Hf28 O16 2.086539 1_555
Hf28 O27 2.134296 1_555
Hf28 O13 2.135287 1_555
Hf28 O59 2.138336 1_555
Hf28 O43 2.266788 1_555
Hf28 O46 2.286986 1_555
Hf29 O17 2.068078 1_555
Hf29 O59 2.068078 1_555
Hf29 O22 2.090599 1_555
Hf29 O31 2.090599 1_555
Hf29 O65 2.359525 1_555
Hf29 O46 2.359525 1_555
Hf29 O0 2.570701 1_555
Hf29 O69 2.570701 1_555
Hf30 O24 2.007704 1_556
Hf30 O11 2.047607 1_556
Hf30 O1 2.052424 1_555
Hf30 O25 2.097348 1_555
Hf30 O55 2.135662 1_555
Hf30 O33 2.147788 1_555
Hf31 O48 2.113257 1_555
Hf31 O56 2.125823 1_555
Hf31 O45 2.136564 1_555
Hf31 O16 2.143363 1_655
Hf31 O53 2.155104 1_555
Hf31 O30 2.179351 1_555
Hf31 O43 2.247009 1_655
