# generated using pymatgen
data_Na2Be(SiO3)2
_symmetry_space_group_name_H-M   'P 1'
_cell_length_a   15.09747039
_cell_length_b   11.23609457
_cell_length_c   11.21512129
_cell_angle_alpha   84.51386089
_cell_angle_beta   47.80198063
_cell_angle_gamma   47.68415848
_symmetry_Int_Tables_number   1
_chemical_formula_structural   Na2Be(SiO3)2
_chemical_formula_sum   'Na12 Be6 Si12 O36'
_cell_volume   791.14721870
_cell_formula_units_Z   6
loop_
 _symmetry_equiv_pos_site_id
 _symmetry_equiv_pos_as_xyz
  1  'x, y, z'
loop_
 _atom_site_type_symbol
 _atom_site_label
 _atom_site_symmetry_multiplicity
 _atom_site_fract_x
 _atom_site_fract_y
 _atom_site_fract_z
 _atom_site_occupancy
  Na  Na0  1  0.44865000  0.11235300  0.89828300  1
  Na  Na1  1  0.99589000  0.33350500  0.18813100  1
  Na  Na2  1  0.01133200  0.01133200  0.48866800  1
  Na  Na3  1  0.39042300  0.39042300  0.60957700  1
  Na  Na4  1  0.76752600  0.06186900  0.91649500  1
  Na  Na5  1  0.33350500  0.99589000  0.48247400  1
  Na  Na6  1  0.70928600  0.35171700  0.13764700  1
  Na  Na7  1  0.06186900  0.76752600  0.25411000  1
  Na  Na8  1  0.11235300  0.44865000  0.54071400  1
  Na  Na9  1  0.64042400  0.64042300  0.85957700  1
  Na  Na10  1  0.76133200  0.76133200  0.23866800  1
  Na  Na11  1  0.35171700  0.70928600  0.80135000  1
  Be  Be0  1  0.92392200  0.22780100  0.73974800  1
  Be  Be1  1  0.22780100  0.92392200  0.10852900  1
  Be  Be2  1  0.14147100  0.51025200  0.02219900  1
  Be  Be3  1  0.51025200  0.14147100  0.32607800  1
  Be  Be4  1  0.61488400  0.61488400  0.38511600  1
  Be  Be5  1  0.86488400  0.86488400  0.63511600  1
  Si  Si0  1  0.82183700  0.20215100  0.31158500  1
  Si  Si1  1  0.28713700  0.56304000  0.41224300  1
  Si  Si2  1  0.91013700  0.91013700  0.08986300  1
  Si  Si3  1  0.56304000  0.28713700  0.73758000  1
  Si  Si4  1  0.93841500  0.58557300  0.42816300  1
  Si  Si5  1  0.58557300  0.93841500  0.04784900  1
  Si  Si6  1  0.83775700  0.51242000  0.96286300  1
  Si  Si7  1  0.50040500  0.50040500  0.99959500  1
  Si  Si8  1  0.20215100  0.82183700  0.66442700  1
  Si  Si9  1  0.25040500  0.25040500  0.74959500  1
  Si  Si10  1  0.51242000  0.83775700  0.68696000  1
  Si  Si11  1  0.16013700  0.16013700  0.33986300  1
  O  O0  1  0.07088400  0.47215900  0.19581600  1
  O  O1  1  0.47215900  0.07088400  0.26114100  1
  O  O2  1  0.13250900  0.78218400  0.83932200  1
  O  O3  1  0.00401500  0.41067800  0.46781600  1
  O  O4  1  0.68842900  0.63685800  0.20232500  1
  O  O5  1  0.78619500  0.67723500  0.91216800  1
  O  O6  1  0.04767500  0.77761200  0.56157100  1
  O  O7  1  0.78218400  0.13250900  0.24598500  1
  O  O8  1  0.74694100  0.33438300  0.78926200  1
  O  O9  1  0.77761200  0.04767500  0.61314200  1
  O  O10  1  0.98885900  0.05418400  0.77784100  1
  O  O11  1  0.67038700  0.97570400  0.88397600  1
  O  O12  1  0.63685800  0.68842900  0.47238800  1
  O  O13  1  0.46073800  0.12058600  0.50305900  1
  O  O14  1  0.41067800  0.00401500  0.11749100  1
  O  O15  1  0.36602400  0.78006700  0.57961300  1
  O  O16  1  0.81099800  0.41974600  0.91050800  1
  O  O17  1  0.10932500  0.13067200  0.26673800  1
  O  O18  1  0.33783200  0.62559800  0.46380500  1
  O  O19  1  0.97570400  0.67038700  0.46993300  1
  O  O20  1  0.98326200  0.75673500  0.14067500  1
  O  O21  1  0.13067200  0.10932500  0.49326500  1
  O  O22  1  0.33438300  0.74694100  0.12941400  1
  O  O23  1  0.67723500  0.78619500  0.62440200  1
  O  O24  1  0.12058600  0.46073800  0.91561700  1
  O  O25  1  0.78006700  0.36602400  0.27429600  1
  O  O26  1  0.31305600  0.09464900  0.80905600  1
  O  O27  1  0.62559800  0.33783200  0.57276500  1
  O  O28  1  0.75673500  0.98326200  0.11932800  1
  O  O29  1  0.39125200  0.33949200  0.83025400  1
  O  O30  1  0.05418400  0.98885900  0.17911600  1
  O  O31  1  0.09464900  0.31305600  0.78323900  1
  O  O32  1  0.44094400  0.46676100  0.93694400  1
  O  O33  1  0.33949200  0.39125200  0.43900200  1
  O  O34  1  0.41974600  0.81099800  0.85874800  1
  O  O35  1  0.46676100  0.44094400  0.15535100  1
loop_
_geom_bond_atom_site_label_1
_geom_bond_atom_site_label_2
_geom_bond_distance
_geom_bond_site_symmetry_2
Na0 O29 2.320475 1_555
Na0 O23 2.378718 1_545
Na0 O0 2.444311 1_556
Na0 O11 2.448449 1_545
Na0 O14 2.515641 1_556
Na1 O17 2.300663 1_655
Na1 O12 2.357944 1_555
Na1 O26 2.395093 1_654
Na1 O25 2.432878 1_555
Na1 O0 2.499652 1_655
Na2 O8 2.286424 1_455
Na2 O22 2.286424 1_545
Na2 O6 2.473455 1_545
Na2 O9 2.473455 1_455
Na2 O17 2.695912 1_555
Na2 O21 2.695912 1_555
Na3 O33 2.492795 1_555
Na3 O29 2.492795 1_555
Na3 O24 2.530178 1_555
Na3 O13 2.530178 1_555
Na3 O2 2.605723 1_555
Na3 O7 2.605723 1_555
Na3 O27 2.894570 1_555
Na3 O18 2.894570 1_555
Na4 O28 2.300663 1_546
Na4 O6 2.357944 1_645
Na4 O35 2.395093 1_556
Na4 O11 2.432878 1_545
Na4 O10 2.499652 1_555
Na5 O21 2.300663 1_565
Na5 O4 2.357944 1_555
Na5 O31 2.395093 1_565
Na5 O15 2.432878 1_555
Na5 O1 2.499652 1_565
Na6 O16 2.320475 1_554
Na6 O18 2.378718 1_555
Na6 O10 2.444311 1_554
Na6 O25 2.448449 1_555
Na6 O7 2.515641 1_555
Na7 O20 2.300663 1_455
Na7 O9 2.357944 1_465
Na7 O32 2.395093 1_554
Na7 O19 2.432878 1_455
Na7 O30 2.499652 1_555
Na8 O33 2.320475 1_555
Na8 O5 2.378718 1_455
Na8 O1 2.444311 1_555
Na8 O19 2.448449 1_455
Na8 O3 2.515641 1_555
Na9 O16 2.492787 1_555
Na9 O34 2.492807 1_555
Na9 O8 2.530185 1_555
Na9 O22 2.530188 1_556
Na9 O14 2.605716 1_566
Na9 O3 2.605719 1_655
Na9 O5 2.894555 1_555
Na9 O23 2.894570 1_555
Na10 O24 2.286424 1_654
Na10 O13 2.286424 1_565
Na10 O4 2.473455 1_555
Na10 O12 2.473455 1_555
Na10 O28 2.695912 1_555
Na10 O20 2.695912 1_555
Na11 O34 2.320475 1_555
Na11 O27 2.378718 1_555
Na11 O30 2.444311 1_556
Na11 O15 2.448449 1_555
Na11 O2 2.515641 1_555
Be0 O21 1.635275 1_655
Be0 O16 1.636602 1_555
Be0 O8 1.645426 1_555
Be0 O10 1.666564 1_555
Be1 O17 1.635275 1_565
Be1 O34 1.636602 1_554
Be1 O22 1.645426 1_555
Be1 O30 1.666564 1_555
Be2 O20 1.635275 1_455
Be2 O29 1.636602 1_554
Be2 O24 1.645426 1_554
Be2 O0 1.666564 1_555
Be3 O28 1.635275 1_545
Be3 O33 1.636602 1_555
Be3 O13 1.645426 1_555
Be3 O1 1.666564 1_555
Be4 O25 1.641442 1_555
Be4 O15 1.641442 1_555
Be4 O12 1.646479 1_555
Be4 O4 1.646479 1_555
Be5 O11 1.641442 1_555
Be5 O19 1.641442 1_555
Be5 O6 1.646479 1_655
Be5 O9 1.646479 1_565
O0 Si4 1.617499 1_455
O1 Si5 1.617499 1_545
O2 Si2 1.683526 1_456
O2 Si8 1.686560 1_555
O3 Si11 1.683526 1_555
O3 Si4 1.686560 1_455
O4 Si6 1.609378 1_554
O5 Si5 1.672104 1_556
O5 Si6 1.676579 1_555
O6 Si1 1.609378 1_555
O7 Si2 1.683526 1_545
O7 Si0 1.686560 1_555
O8 Si7 1.611160 1_555
O9 Si3 1.609378 1_555
O10 Si8 1.617499 1_645
O11 Si5 1.614484 1_556
O12 Si10 1.609378 1_555
O13 Si9 1.611160 1_555
O14 Si11 1.683526 1_555
O14 Si5 1.686560 1_545
O15 Si8 1.614484 1_555
O16 Si6 1.610670 1_555
O17 Si11 1.615462 1_555
O18 Si8 1.672104 1_555
O18 Si1 1.676579 1_555
O19 Si4 1.614484 1_555
O20 Si2 1.615462 1_555
O21 Si11 1.615462 1_555
O22 Si7 1.611160 1_554
O23 Si4 1.672104 1_555
O23 Si10 1.676579 1_555
O24 Si9 1.611160 1_555
O25 Si0 1.614484 1_555
O26 Si10 1.669545 1_545
O26 Si9 1.672593 1_555
O27 Si0 1.672104 1_555
O27 Si3 1.676579 1_555
O28 Si2 1.615462 1_555
O29 Si3 1.610670 1_555
O30 Si0 1.617499 1_465
O31 Si6 1.669545 1_455
O31 Si9 1.672593 1_555
O32 Si3 1.669545 1_555
O32 Si7 1.672593 1_555
O33 Si1 1.610670 1_555
O34 Si10 1.610670 1_555
O35 Si1 1.669545 1_555
O35 Si7 1.672593 1_554
