# generated using pymatgen
data_SnPbO3
_symmetry_space_group_name_H-M   'P 1'
_cell_length_a   7.60615248
_cell_length_b   7.60615248
_cell_length_c   7.60615248
_cell_angle_alpha   60.00000000
_cell_angle_beta   60.00000000
_cell_angle_gamma   60.00000000
_symmetry_Int_Tables_number   1
_chemical_formula_structural   SnPbO3
_chemical_formula_sum   'Sn4 Pb4 O12'
_cell_volume   311.15736504
_cell_formula_units_Z   4
loop_
 _symmetry_equiv_pos_site_id
 _symmetry_equiv_pos_as_xyz
  1  'x, y, z'
loop_
 _atom_site_type_symbol
 _atom_site_label
 _atom_site_symmetry_multiplicity
 _atom_site_fract_x
 _atom_site_fract_y
 _atom_site_fract_z
 _atom_site_occupancy
  Sn  Sn0  1  0.12500000  0.62500000  0.12500000  1
  Sn  Sn1  1  0.12500000  0.12500000  0.62500000  1
  Sn  Sn2  1  0.62500000  0.12500000  0.12500000  1
  Sn  Sn3  1  0.12500000  0.12500000  0.12500000  1
  Pb  Pb0  1  0.62500000  0.12500000  0.62500000  1
  Pb  Pb1  1  0.62500000  0.62500000  0.12500000  1
  Pb  Pb2  1  0.12500000  0.62500000  0.62500000  1
  Pb  Pb3  1  0.62500000  0.62500000  0.62500000  1
  O  O0  1  0.79383100  0.79383100  0.20616900  1
  O  O1  1  0.04383100  0.45616900  0.45616900  1
  O  O2  1  0.45616900  0.04383100  0.04383100  1
  O  O3  1  0.04383100  0.04383100  0.45616900  1
  O  O4  1  0.04383100  0.45616900  0.04383100  1
  O  O5  1  0.45616900  0.04383100  0.45616900  1
  O  O6  1  0.20616900  0.79383100  0.20616900  1
  O  O7  1  0.20616900  0.79383100  0.79383100  1
  O  O8  1  0.79383100  0.20616900  0.20616900  1
  O  O9  1  0.79383100  0.20616900  0.79383100  1
  O  O10  1  0.45616900  0.45616900  0.04383100  1
  O  O11  1  0.20616900  0.20616900  0.79383100  1
loop_
_geom_bond_atom_site_label_1
_geom_bond_atom_site_label_2
_geom_bond_distance
_geom_bond_site_symmetry_2
O0 Sn2 2.092408 1_565
O0 Sn0 2.092408 1_655
O0 Pb1 2.629439 1_555
O0 Pb3 2.629439 1_555
O1 Sn1 2.092408 1_555
O1 Sn0 2.092408 1_555
O1 Pb3 2.629439 1_455
O1 Pb2 2.629439 1_555
O2 Sn3 2.092408 1_555
O2 Sn2 2.092408 1_555
O2 Pb0 2.629439 1_554
O2 Pb1 2.629439 1_545
O3 Sn3 2.092408 1_555
O3 Sn1 2.092408 1_555
O3 Pb2 2.629439 1_545
O3 Pb0 2.629439 1_455
O4 Sn3 2.092408 1_555
O4 Sn0 2.092408 1_555
O4 Pb2 2.629439 1_554
O4 Pb1 2.629439 1_455
O5 Sn1 2.092408 1_555
O5 Sn2 2.092408 1_555
O5 Pb0 2.629439 1_555
O5 Pb3 2.629439 1_545
O6 Sn0 2.092408 1_555
O6 Sn3 2.092408 1_565
O6 Pb1 2.629439 1_555
O6 Pb2 2.629439 1_555
O7 Sn1 2.092408 1_565
O7 Sn0 2.092408 1_556
O7 Pb3 2.629439 1_555
O7 Pb2 2.629439 1_555
O8 Sn2 2.092408 1_555
O8 Sn3 2.092408 1_655
O8 Pb0 2.629439 1_555
O8 Pb1 2.629439 1_555
O9 Sn2 2.092408 1_556
O9 Sn1 2.092408 1_655
O9 Pb3 2.629439 1_555
O9 Pb0 2.629439 1_555
O10 Sn0 2.092408 1_555
O10 Sn2 2.092408 1_555
O10 Pb3 2.629439 1_554
O10 Pb1 2.629439 1_555
O11 Sn1 2.092408 1_555
O11 Sn3 2.092408 1_556
O11 Pb0 2.629439 1_555
O11 Pb2 2.629439 1_555
