# generated using pymatgen
data_BaTeF6
_symmetry_space_group_name_H-M   'P 1'
_cell_length_a   10.74036353
_cell_length_b   8.82827185
_cell_length_c   8.77532906
_cell_angle_alpha   75.20090866
_cell_angle_beta   52.62297448
_cell_angle_gamma   52.17624720
_symmetry_Int_Tables_number   1
_chemical_formula_structural   BaTeF6
_chemical_formula_sum   'Ba4 Te4 F24'
_cell_volume   513.16155671
_cell_formula_units_Z   4
loop_
 _symmetry_equiv_pos_site_id
 _symmetry_equiv_pos_as_xyz
  1  'x, y, z'
loop_
 _atom_site_type_symbol
 _atom_site_label
 _atom_site_symmetry_multiplicity
 _atom_site_fract_x
 _atom_site_fract_y
 _atom_site_fract_z
 _atom_site_occupancy
  Ba  Ba0  1  0.21089917  0.02387608  0.63584618  1
  Ba  Ba1  1  0.12935134  0.63588215  0.02380651  1
  Ba  Ba2  1  0.22619912  0.03907696  0.12052251  1
  Ba  Ba3  1  0.61405945  0.12073619  0.03905040  1
  Te  Te0  1  0.72963104  0.48350164  0.55841559  1
  Te  Te1  1  0.69183998  0.02167844  0.52023511  1
  Te  Te2  1  0.22842291  0.55822005  0.48361018  1
  Te  Te3  1  0.76641362  0.52041294  0.02160031  1
  F  F0  1  0.31282636  0.28538786  0.46412762  1
  F  F1  1  0.72091597  0.96274900  0.28894670  1
  F  F2  1  0.93748985  0.47666380  0.74442537  1
  F  F3  1  0.56407655  0.40350977  0.76728937  1
  F  F4  1  0.29730281  0.48656824  0.66625893  1
  F  F5  1  0.77337687  0.31224716  0.40878924  1
  F  F6  1  0.27121040  0.83304531  0.89713151  1
  F  F7  1  0.48269830  0.98533230  0.68592432  1
  F  F8  1  0.26529178  0.76697312  0.40382227  1
  F  F9  1  0.84628322  0.68610427  0.98477300  1
  F  F10  1  0.93727547  0.46431240  0.28543950  1
  F  F11  1  0.99860779  0.89729168  0.83314413  1
  F  F12  1  0.84126076  0.74456056  0.47665201  1
  F  F13  1  0.41699360  0.97882955  0.25127694  1
  F  F14  1  0.50553319  0.40851745  0.31253255  1
  F  F15  1  0.54945534  0.66595416  0.48704542  1
  F  F16  1  0.76324132  0.95252179  0.70037785  1
  F  F17  1  0.58387102  0.70061548  0.95257675  1
  F  F18  1  0.78561393  0.31268582  0.93722533  1
  F  F19  1  0.35276310  0.25146099  0.97889711  1
  F  F20  1  0.96491491  0.93682554  0.31235840  1
  F  F21  1  0.96113597  0.22241218  0.52906164  1
  F  F22  1  0.02760210  0.28900391  0.96241055  1
  F  F23  1  0.28744279  0.52904218  0.22242369  1
loop_
_geom_bond_atom_site_label_1
_geom_bond_atom_site_label_2
_geom_bond_distance
_geom_bond_site_symmetry_2
Ba0 F11 2.605576 1_445
Ba0 F13 2.642554 1_545
Ba0 F6 2.646983 1_545
Ba0 F15 2.676349 1_545
Ba0 F21 2.755456 1_455
Ba0 F0 2.849371 1_555
Ba0 F22 2.914105 1_555
Ba0 F18 2.975507 1_455
Ba0 F8 2.986754 1_545
Ba0 F7 3.015561 1_545
Ba0 F2 3.108337 1_455
Ba1 F6 2.606659 1_554
Ba1 F19 2.641627 1_554
Ba1 F11 2.646223 1_454
Ba1 F4 2.675999 1_554
Ba1 F23 2.756727 1_555
Ba1 F10 2.850709 1_455
Ba1 F1 2.914889 1_455
Ba1 F20 2.973527 1_455
Ba1 F3 2.987787 1_554
Ba1 F9 3.015060 1_454
Ba1 F12 3.108743 1_455
Ba2 F19 2.606214 1_554
Ba2 F6 2.641493 1_544
Ba2 F13 2.646671 1_545
Ba2 F17 2.674962 1_544
Ba2 F22 2.756851 1_554
Ba2 F20 2.849382 1_445
Ba2 F21 2.915222 1_455
Ba2 F10 2.975299 1_455
Ba2 F7 2.987377 1_544
Ba2 F8 3.017738 1_545
Ba2 F5 3.108499 1_455
Ba3 F13 2.606165 1_545
Ba3 F11 2.642406 1_544
Ba3 F19 2.646052 1_554
Ba3 F16 2.675834 1_544
Ba3 F1 2.757046 1_545
Ba3 F18 2.849925 1_554
Ba3 F23 2.913707 1_555
Ba3 F0 2.973934 1_555
Ba3 F9 2.987370 1_544
Ba3 F3 3.012771 1_554
Ba3 F14 3.107950 1_555
F0 Te2 1.999192 1_555
F1 Te1 2.014499 1_565
F2 Te3 1.903901 1_556
F3 Te0 1.985409 1_555
F4 Te2 1.965743 1_555
F5 Te0 1.903800 1_555
F7 Te1 1.985707 1_565
F8 Te2 1.985612 1_555
F9 Te3 1.985170 1_556
F10 Te0 1.999596 1_555
F12 Te1 1.903798 1_565
F14 Te2 1.903435 1_555
F15 Te0 1.965893 1_555
F16 Te1 1.965803 1_565
F17 Te3 1.966151 1_556
F18 Te3 1.999572 1_556
F20 Te1 1.999640 1_565
F21 Te0 2.014505 1_555
F22 Te3 2.014207 1_456
F23 Te2 2.014647 1_555
