# generated using pymatgen
data_B
_symmetry_space_group_name_H-M   'P 1'
_cell_length_a   11.56067157
_cell_length_b   11.56067191
_cell_length_c   11.56067117
_cell_angle_alpha   53.48443029
_cell_angle_beta   53.48443079
_cell_angle_gamma   53.48442760
_symmetry_Int_Tables_number   1
_chemical_formula_structural   B
_chemical_formula_sum   B108
_cell_volume   925.95576800
_cell_formula_units_Z   108
loop_
 _symmetry_equiv_pos_site_id
 _symmetry_equiv_pos_as_xyz
  1  'x, y, z'
loop_
 _atom_site_type_symbol
 _atom_site_label
 _atom_site_symmetry_multiplicity
 _atom_site_fract_x
 _atom_site_fract_y
 _atom_site_fract_z
 _atom_site_occupancy
  B  B0  1  0.97522579  0.29588624  0.13261054  1
  B  B1  1  0.13261054  0.97522579  0.29588624  1
  B  B2  1  0.29588624  0.13261054  0.97522579  1
  B  B3  1  0.70411376  0.02477421  0.86738946  1
  B  B4  1  0.86738946  0.70411376  0.02477421  1
  B  B5  1  0.02477421  0.86738946  0.70411376  1
  B  B6  1  0.02477421  0.70411376  0.86738946  1
  B  B7  1  0.86738946  0.02477421  0.70411376  1
  B  B8  1  0.70411376  0.86738946  0.02477421  1
  B  B9  1  0.29588624  0.97522579  0.13261054  1
  B  B10  1  0.13261054  0.29588624  0.97522579  1
  B  B11  1  0.97522579  0.13261054  0.29588624  1
  B  B12  1  0.64212020  0.47500132  0.93966140  1
  B  B13  1  0.93966140  0.64212020  0.47500132  1
  B  B14  1  0.47500132  0.93966140  0.64212020  1
  B  B15  1  0.52499868  0.35787980  0.06033860  1
  B  B16  1  0.06033860  0.52499868  0.35787980  1
  B  B17  1  0.35787980  0.06033860  0.52499868  1
  B  B18  1  0.35787980  0.52499868  0.06033860  1
  B  B19  1  0.06033860  0.35787980  0.52499868  1
  B  B20  1  0.52499868  0.06033860  0.35787980  1
  B  B21  1  0.47500132  0.64212020  0.93966140  1
  B  B22  1  0.93966140  0.47500132  0.64212020  1
  B  B23  1  0.64212020  0.93966140  0.47500132  1
  B  B24  1  0.79328757  0.32361956  0.05499702  1
  B  B25  1  0.05499702  0.79328757  0.32361956  1
  B  B26  1  0.32361956  0.05499702  0.79328757  1
  B  B27  1  0.67638044  0.20671243  0.94500298  1
  B  B28  1  0.94500298  0.67638044  0.20671243  1
  B  B29  1  0.20671243  0.94500298  0.67638044  1
  B  B30  1  0.20671243  0.67638044  0.94500298  1
  B  B31  1  0.94500298  0.20671243  0.67638044  1
  B  B32  1  0.67638044  0.94500298  0.20671243  1
  B  B33  1  0.32361956  0.79328757  0.05499702  1
  B  B34  1  0.05499702  0.32361956  0.79328757  1
  B  B35  1  0.79328757  0.05499702  0.32361956  1
  B  B36  1  0.69521098  0.46336472  0.25508214  1
  B  B37  1  0.25508214  0.69521098  0.46336472  1
  B  B38  1  0.46336472  0.25508214  0.69521098  1
  B  B39  1  0.53663528  0.30478902  0.74491786  1
  B  B40  1  0.74491786  0.53663528  0.30478902  1
  B  B41  1  0.30478902  0.74491786  0.53663528  1
  B  B42  1  0.30478902  0.53663528  0.74491786  1
  B  B43  1  0.74491786  0.30478902  0.53663528  1
  B  B44  1  0.53663528  0.74491786  0.30478902  1
  B  B45  1  0.46336472  0.69521098  0.25508214  1
  B  B46  1  0.25508214  0.46336472  0.69521098  1
  B  B47  1  0.69521098  0.25508214  0.46336472  1
  B  B48  1  0.04628718  0.63622041  0.04628718  1
  B  B49  1  0.04628718  0.04628718  0.63622041  1
  B  B50  1  0.63622041  0.04628718  0.04628718  1
  B  B51  1  0.36377959  0.95371282  0.95371282  1
  B  B52  1  0.95371282  0.36377959  0.95371282  1
  B  B53  1  0.95371282  0.95371282  0.36377959  1
  B  B54  1  0.23624049  0.68868115  0.23624049  1
  B  B55  1  0.23624049  0.23624049  0.68868115  1
  B  B56  1  0.68868115  0.23624049  0.23624049  1
  B  B57  1  0.31131885  0.76375951  0.76375951  1
  B  B58  1  0.76375951  0.31131885  0.76375951  1
  B  B59  1  0.76375951  0.76375951  0.31131885  1
  B  B60  1  0.66398618  0.49689163  0.66398618  1
  B  B61  1  0.66398618  0.66398618  0.49689163  1
  B  B62  1  0.49689163  0.66398618  0.66398618  1
  B  B63  1  0.50310837  0.33601382  0.33601382  1
  B  B64  1  0.33601382  0.50310837  0.33601382  1
  B  B65  1  0.33601382  0.33601382  0.50310837  1
  B  B66  1  0.46315450  0.77645549  0.46315450  1
  B  B67  1  0.46315450  0.46315450  0.77645549  1
  B  B68  1  0.77645549  0.46315450  0.46315450  1
  B  B69  1  0.22354451  0.53684550  0.53684550  1
  B  B70  1  0.53684550  0.22354451  0.53684550  1
  B  B71  1  0.53684550  0.53684550  0.22354451  1
  B  B72  1  0.11954607  0.82897319  0.11954607  1
  B  B73  1  0.11954607  0.11954607  0.82897319  1
  B  B74  1  0.82897319  0.11954607  0.11954607  1
  B  B75  1  0.17102681  0.88045393  0.88045393  1
  B  B76  1  0.88045393  0.17102681  0.88045393  1
  B  B77  1  0.88045393  0.88045393  0.17102681  1
  B  B78  1  0.32138696  0.84783785  0.32138696  1
  B  B79  1  0.32138696  0.32138696  0.84783785  1
  B  B80  1  0.84783785  0.32138696  0.32138696  1
  B  B81  1  0.15216215  0.67861304  0.67861304  1
  B  B82  1  0.67861304  0.15216215  0.67861304  1
  B  B83  1  0.67861304  0.67861304  0.15216215  1
  B  B84  1  0.84704913  0.43641096  0.84704913  1
  B  B85  1  0.84704913  0.84704913  0.43641096  1
  B  B86  1  0.43641096  0.84704913  0.84704913  1
  B  B87  1  0.56358904  0.15295087  0.15295087  1
  B  B88  1  0.15295087  0.56358904  0.15295087  1
  B  B89  1  0.15295087  0.15295087  0.56358904  1
  B  B90  1  0.25626621  0.80445053  0.25626621  1
  B  B91  1  0.25626621  0.25626621  0.80445053  1
  B  B92  1  0.80445053  0.25626621  0.25626621  1
  B  B93  1  0.19554947  0.74373379  0.74373379  1
  B  B94  1  0.74373379  0.19554947  0.74373379  1
  B  B95  1  0.74373379  0.74373379  0.19554947  1
  B  B96  1  0.50049375  0.88844738  0.50049375  1
  B  B97  1  0.50049375  0.50049375  0.88844738  1
  B  B98  1  0.88844738  0.50049375  0.50049375  1
  B  B99  1  0.11155262  0.49950625  0.49950625  1
  B  B100  1  0.49950625  0.11155262  0.49950625  1
  B  B101  1  0.49950625  0.49950625  0.11155262  1
  B  B102  1  0.94541099  0.21697565  0.94541099  1
  B  B103  1  0.94541099  0.94541099  0.21697565  1
  B  B104  1  0.21697565  0.94541099  0.94541099  1
  B  B105  1  0.78302435  0.05458901  0.05458901  1
  B  B106  1  0.05458901  0.78302435  0.05458901  1
  B  B107  1  0.05458901  0.05458901  0.78302435  1
loop_
_geom_bond_atom_site_label_1
_geom_bond_atom_site_label_2
_geom_bond_distance
_geom_bond_site_symmetry_2
B0 B10 1.637443 1_654
B0 B11 1.698733 1_555
B0 B92 1.757642 1_555
B0 B52 1.844786 1_554
B0 B80 1.855429 1_555
B1 B11 1.637443 1_465
B1 B9 1.698733 1_555
B1 B90 1.757642 1_555
B1 B53 1.844786 1_455
B1 B78 1.855429 1_555
B2 B9 1.637443 1_546
B2 B91 1.757642 1_555
B2 B51 1.844786 1_545
B2 B79 1.855429 1_555
B3 B8 1.637443 1_546
B3 B7 1.698733 1_555
B3 B94 1.757642 1_555
B3 B50 1.844786 1_556
B3 B82 1.855429 1_555
B4 B6 1.637443 1_654
B4 B8 1.698733 1_555
B4 B95 1.757642 1_555
B4 B48 1.844786 1_655
B4 B83 1.855429 1_555
B5 B7 1.637443 1_465
B5 B6 1.698733 1_555
B5 B93 1.757642 1_555
B5 B81 1.855429 1_555
B6 B93 1.757642 1_555
B6 B81 1.855429 1_555
B7 B94 1.757642 1_555
B7 B82 1.855429 1_555
B8 B95 1.757642 1_555
B8 B83 1.855429 1_555
B9 B90 1.757642 1_555
B10 B2 1.698733 1_555
B10 B91 1.757642 1_555
B10 B52 1.844786 1_455
B10 B79 1.855429 1_555
B11 B92 1.757642 1_555
B11 B53 1.844786 1_545
B11 B80 1.855429 1_555
B12 B21 1.738717 1_555
B12 B84 1.802775 1_555
B12 B15 1.816232 1_556
B12 B97 1.868126 1_555
B12 B24 2.061792 1_556
B13 B99 1.721176 1_655
B13 B22 1.738717 1_555
B13 B85 1.802775 1_555
B13 B16 1.816232 1_655
B13 B98 1.868126 1_555
B13 B25 2.061792 1_655
B14 B23 1.738717 1_555
B14 B86 1.802775 1_555
B14 B17 1.816232 1_565
B14 B96 1.868126 1_555
B14 B26 2.061792 1_565
B15 B97 1.721176 1_554
B15 B18 1.738717 1_555
B15 B87 1.802775 1_555
B15 B27 2.061792 1_554
B16 B98 1.721176 1_455
B16 B19 1.738717 1_555
B16 B88 1.802775 1_555
B16 B99 1.868126 1_555
B16 B28 2.061792 1_455
B17 B96 1.721176 1_545
B17 B20 1.738717 1_555
B17 B89 1.802775 1_555
B17 B29 2.061792 1_545
B18 B97 1.721176 1_554
B18 B88 1.802775 1_555
B18 B21 1.816232 1_554
B18 B30 2.061792 1_554
B19 B98 1.721176 1_455
B19 B89 1.802775 1_555
B19 B22 1.816232 1_455
B19 B99 1.868126 1_555
B19 B31 2.061792 1_455
B20 B96 1.721176 1_545
B20 B87 1.802775 1_555
B20 B23 1.816232 1_545
B20 B32 2.061792 1_545
B21 B86 1.802775 1_555
B21 B97 1.868126 1_555
B21 B33 2.061792 1_556
B22 B99 1.721176 1_655
B22 B84 1.802775 1_555
B22 B98 1.868126 1_555
B22 B34 2.061792 1_655
B23 B85 1.802775 1_555
B23 B96 1.868126 1_555
B23 B35 2.061792 1_565
B24 B56 1.671083 1_555
B24 B52 1.679167 1_554
B24 B84 1.822531 1_554
B24 B74 1.845510 1_555
B24 B92 2.029432 1_555
B25 B54 1.671083 1_555
B25 B53 1.679167 1_455
B25 B85 1.822531 1_455
B25 B72 1.845510 1_555
B25 B90 2.029432 1_555
B26 B55 1.671083 1_555
B26 B51 1.679167 1_545
B26 B86 1.822531 1_545
B26 B73 1.845510 1_555
B26 B91 2.029432 1_555
B27 B58 1.671083 1_555
B27 B50 1.679167 1_556
B27 B87 1.822531 1_556
B27 B76 1.845510 1_555
B27 B94 2.029432 1_555
B28 B59 1.671083 1_555
B28 B48 1.679167 1_655
B28 B88 1.822531 1_655
B28 B77 1.845510 1_555
B28 B95 2.029432 1_555
B29 B57 1.671083 1_555
B29 B49 1.679167 1_565
B29 B89 1.822531 1_565
B29 B75 1.845510 1_555
B29 B93 2.029433 1_555
B30 B57 1.671083 1_555
B30 B48 1.679167 1_556
B30 B88 1.822531 1_556
B30 B75 1.845510 1_555
B30 B93 2.029432 1_555
B31 B58 1.671083 1_555
B31 B49 1.679167 1_655
B31 B89 1.822531 1_655
B31 B76 1.845510 1_555
B31 B94 2.029432 1_555
B32 B59 1.671083 1_555
B32 B50 1.679167 1_565
B32 B87 1.822531 1_565
B32 B77 1.845510 1_555
B32 B95 2.029432 1_555
B33 B54 1.671083 1_555
B33 B51 1.679167 1_554
B33 B86 1.822531 1_554
B33 B72 1.845510 1_555
B33 B90 2.029432 1_555
B34 B55 1.671083 1_555
B34 B52 1.679167 1_455
B34 B84 1.822531 1_455
B34 B73 1.845510 1_555
B34 B91 2.029432 1_555
B35 B56 1.671083 1_555
B35 B53 1.679167 1_545
B35 B85 1.822531 1_545
B35 B74 1.845510 1_555
B35 B92 2.029433 1_555
B36 B71 1.667737 1_555
B36 B40 1.711574 1_555
B36 B80 1.749472 1_555
B36 B92 1.926264 1_555
B36 B83 1.955659 1_555
B36 B47 2.166988 1_555
B37 B69 1.667738 1_555
B37 B41 1.711574 1_555
B37 B78 1.749472 1_555
B37 B90 1.926263 1_555
B37 B81 1.955658 1_555
B37 B45 2.166988 1_555
B38 B70 1.667737 1_555
B38 B39 1.711574 1_555
B38 B79 1.749472 1_555
B38 B91 1.926264 1_555
B38 B82 1.955658 1_555
B38 B46 2.166988 1_555
B39 B67 1.667738 1_555
B39 B82 1.749472 1_555
B39 B94 1.926263 1_555
B39 B79 1.955659 1_555
B39 B43 2.166988 1_555
B40 B68 1.667737 1_555
B40 B83 1.749472 1_555
B40 B95 1.926264 1_555
B40 B80 1.955659 1_555
B40 B44 2.166988 1_555
B41 B66 1.667738 1_555
B41 B81 1.749472 1_555
B41 B93 1.926263 1_555
B41 B78 1.955658 1_555
B41 B42 2.166988 1_555
B42 B67 1.667737 1_555
B42 B46 1.711574 1_555
B42 B81 1.749472 1_555
B42 B93 1.926264 1_555
B42 B79 1.955659 1_555
B43 B68 1.667738 1_555
B43 B47 1.711574 1_555
B43 B82 1.749472 1_555
B43 B94 1.926263 1_555
B43 B80 1.955658 1_555
B44 B66 1.667737 1_555
B44 B45 1.711574 1_555
B44 B83 1.749472 1_555
B44 B95 1.926264 1_555
B44 B78 1.955658 1_555
B45 B71 1.667738 1_555
B45 B78 1.749472 1_555
B45 B90 1.926263 1_555
B45 B83 1.955659 1_555
B46 B69 1.667737 1_555
B46 B79 1.749472 1_555
B46 B91 1.926264 1_555
B46 B81 1.955659 1_555
B47 B70 1.667738 1_555
B47 B80 1.749472 1_555
B47 B92 1.926263 1_555
B47 B82 1.955658 1_555
B48 B88 1.758206 1_555
B48 B6 1.844786 1_554
B49 B89 1.758207 1_555
B49 B7 1.844786 1_455
B49 B5 1.844786 1_545
B50 B87 1.758206 1_555
B50 B8 1.844786 1_545
B51 B86 1.758206 1_555
B51 B9 1.844786 1_556
B52 B84 1.758206 1_555
B53 B85 1.758207 1_555
B54 B90 1.643078 1_555
B54 B64 1.719564 1_555
B54 B72 1.796809 1_555
B55 B91 1.643078 1_555
B55 B65 1.719564 1_555
B55 B73 1.796809 1_555
B56 B92 1.643078 1_555
B56 B63 1.719564 1_555
B56 B74 1.796809 1_555
B57 B93 1.643078 1_555
B57 B62 1.719564 1_555
B57 B75 1.796809 1_555
B58 B94 1.643078 1_555
B58 B60 1.719564 1_555
B58 B76 1.796809 1_555
B59 B95 1.643078 1_555
B59 B61 1.719564 1_555
B59 B77 1.796809 1_555
B60 B62 1.738464 1_555
B60 B61 1.738464 1_555
B60 B68 2.028487 1_555
B60 B67 2.028487 1_555
B60 B97 2.122687 1_555
B60 B98 2.122687 1_555
B61 B62 1.738464 1_555
B61 B66 2.028487 1_555
B61 B68 2.028487 1_555
B61 B98 2.122687 1_555
B61 B96 2.122687 1_555
B62 B66 2.028487 1_555
B62 B67 2.028487 1_555
B62 B97 2.122687 1_555
B62 B96 2.122687 1_555
B63 B64 1.738464 1_555
B63 B65 1.738464 1_555
B63 B70 2.028487 1_555
B63 B71 2.028487 1_555
B64 B65 1.738464 1_555
B64 B69 2.028487 1_555
B64 B71 2.028487 1_555
B64 B99 2.122687 1_555
B65 B70 2.028487 1_555
B65 B69 2.028487 1_555
B65 B99 2.122687 1_555
B66 B96 1.897605 1_555
B67 B97 1.897605 1_555
B68 B98 1.897605 1_555
B69 B99 1.897605 1_555
B78 B90 1.720002 1_555
B78 B9 1.855429 1_555
B79 B91 1.720002 1_555
B80 B92 1.720002 1_555
B81 B93 1.720002 1_555
B82 B94 1.720002 1_555
B83 B95 1.720002 1_555
B100 B23 1.721176 1_545
B100 B14 1.721176 1_545
B100 B20 1.868126 1_555
B100 B17 1.868126 1_555
B100 B70 1.897605 1_555
B100 B65 2.122687 1_555
B100 B63 2.122687 1_555
B101 B21 1.721176 1_554
B101 B12 1.721176 1_554
B101 B18 1.868126 1_555
B101 B15 1.868126 1_555
B101 B71 1.897605 1_555
B101 B63 2.122687 1_555
B101 B64 2.122687 1_555
B102 B24 1.686651 1_556
B102 B34 1.686651 1_655
B102 B73 1.736156 1_655
B102 B74 1.736156 1_556
B102 B76 1.740857 1_555
B102 B52 1.815874 1_555
B102 B84 1.922079 1_555
B103 B25 1.686651 1_655
B103 B35 1.686651 1_565
B103 B74 1.736156 1_565
B103 B72 1.736156 1_655
B103 B77 1.740857 1_555
B103 B53 1.815874 1_555
B103 B85 1.922079 1_555
B104 B33 1.686651 1_556
B104 B26 1.686651 1_565
B104 B73 1.736156 1_565
B104 B72 1.736156 1_556
B104 B75 1.740857 1_555
B104 B51 1.815874 1_555
B104 B86 1.922079 1_555
B105 B27 1.686651 1_554
B105 B32 1.686651 1_545
B105 B77 1.736156 1_545
B105 B76 1.736156 1_554
B105 B74 1.740857 1_555
B105 B50 1.815874 1_555
B105 B87 1.922079 1_555
B106 B30 1.686651 1_554
B106 B28 1.686651 1_455
B106 B77 1.736156 1_455
B106 B75 1.736156 1_554
B106 B72 1.740857 1_555
B106 B48 1.815874 1_555
B106 B88 1.922079 1_555
B107 B31 1.686651 1_455
B107 B29 1.686651 1_545
B107 B75 1.736156 1_545
B107 B76 1.736156 1_455
B107 B73 1.740857 1_555
B107 B49 1.815874 1_555
B107 B89 1.922079 1_555
