# generated using pymatgen
data_K3EuV2O8
_symmetry_space_group_name_H-M   'P 1'
_cell_length_a   6.06311700
_cell_length_b   7.66398300
_cell_length_c   10.04985099
_cell_angle_alpha   88.86121011
_cell_angle_beta   90.00000000
_cell_angle_gamma   90.00000000
_symmetry_Int_Tables_number   1
_chemical_formula_structural   K3EuV2O8
_chemical_formula_sum   'K6 Eu2 V4 O16'
_cell_volume   466.90047552
_cell_formula_units_Z   2
loop_
 _symmetry_equiv_pos_site_id
 _symmetry_equiv_pos_as_xyz
  1  'x, y, z'
loop_
 _atom_site_type_symbol
 _atom_site_label
 _atom_site_symmetry_multiplicity
 _atom_site_fract_x
 _atom_site_fract_y
 _atom_site_fract_z
 _atom_site_occupancy
  K  K0  1  0.25000000  0.00362800  0.30733500  1
  K  K1  1  0.75000000  0.99637200  0.69266500  1
  K  K2  1  0.25000000  0.31015200  0.58180100  1
  K  K3  1  0.75000000  0.68984800  0.41819900  1
  K  K4  1  0.25000000  0.85968300  0.91912900  1
  K  K5  1  0.75000000  0.14031700  0.08087100  1
  Eu  Eu0  1  0.25000000  0.51355400  0.21653600  1
  Eu  Eu1  1  0.75000000  0.48644600  0.78346400  1
  V  V0  1  0.25000000  0.31172000  0.92728600  1
  V  V1  1  0.75000000  0.68828000  0.07271400  1
  V  V2  1  0.25000000  0.74026500  0.59042900  1
  V  V3  1  0.75000000  0.25973500  0.40957100  1
  O  O0  1  0.25000000  0.52779800  0.97126900  1
  O  O1  1  0.75000000  0.47220200  0.02873100  1
  O  O2  1  0.25000000  0.19559900  0.07683600  1
  O  O3  1  0.75000000  0.80440100  0.92316400  1
  O  O4  1  0.51471100  0.73795200  0.16716100  1
  O  O5  1  0.01471100  0.26204800  0.83283900  1
  O  O6  1  0.48528900  0.26204800  0.83283900  1
  O  O7  1  0.98528900  0.73795200  0.16716100  1
  O  O8  1  0.25000000  0.96328200  0.59426400  1
  O  O9  1  0.75000000  0.03671800  0.40573600  1
  O  O10  1  0.25000000  0.67132500  0.42489900  1
  O  O11  1  0.75000000  0.32867500  0.57510100  1
  O  O12  1  0.51203800  0.33900500  0.32948500  1
  O  O13  1  0.01203800  0.66099500  0.67051500  1
  O  O14  1  0.48796200  0.66099500  0.67051500  1
  O  O15  1  0.98796200  0.33900500  0.32948500  1
loop_
_geom_bond_atom_site_label_1
_geom_bond_atom_site_label_2
_geom_bond_distance
_geom_bond_site_symmetry_2
K0 O2 2.719417 1_555
K0 O10 2.786099 1_545
K0 O8 2.894008 1_545
K0 O7 2.969902 1_445
K0 O4 2.969902 1_545
K0 O15 3.033651 1_455
K0 O12 3.033651 1_555
K0 O9 3.200404 1_455
K0 O9 3.200404 1_555
K1 O3 2.719417 1_555
K1 O11 2.786099 1_565
K1 O9 2.894008 1_565
K1 O5 2.969902 1_665
K1 O6 2.969902 1_565
K1 O13 3.033651 1_655
K1 O14 3.033651 1_555
K1 O8 3.200404 1_655
K1 O8 3.200404 1_555
K2 O8 2.658867 1_545
K2 O6 2.915319 1_555
K2 O5 2.915319 1_555
K2 O12 2.996791 1_555
K2 O15 2.996791 1_455
K2 O11 3.035565 1_455
K2 O11 3.035565 1_555
K2 O10 3.158305 1_555
K2 O14 3.194019 1_555
K2 O13 3.194019 1_555
K3 O9 2.658867 1_565
K3 O4 2.915319 1_555
K3 O7 2.915319 1_555
K3 O13 2.996791 1_655
K3 O14 2.996791 1_555
K3 O10 3.035565 1_655
K3 O10 3.035565 1_555
K3 O11 3.158305 1_555
K3 O15 3.194019 1_555
K3 O12 3.194019 1_555
K4 O0 2.586755 1_555
K5 O1 2.586755 1_555
Eu0 O12 2.354118 1_555
Eu0 O15 2.354118 1_455
Eu0 O7 2.397060 1_455
Eu0 O4 2.397060 1_555
Eu0 O10 2.438771 1_555
Eu0 O0 2.465145 1_554
Eu0 O2 2.836390 1_555
Eu1 O13 2.354118 1_655
Eu1 O14 2.354118 1_555
Eu1 O5 2.397060 1_655
Eu1 O6 2.397060 1_555
Eu1 O11 2.438771 1_555
Eu1 O1 2.465145 1_556
Eu1 O3 2.836390 1_555
O0 V0 1.722462 1_555
O1 V1 1.722462 1_555
O2 V0 1.731392 1_554
O3 V1 1.731392 1_556
O4 V1 1.759366 1_555
O5 V0 1.759366 1_555
O6 V0 1.759366 1_555
O7 V1 1.759366 1_555
O8 V2 1.710399 1_555
O9 V3 1.710399 1_555
O10 V2 1.755420 1_555
O11 V3 1.755420 1_555
O12 V3 1.754732 1_555
O13 V2 1.754732 1_555
O14 V2 1.754732 1_555
O15 V3 1.754732 1_555
