# generated using pymatgen
data_KGeAuS3
_symmetry_space_group_name_H-M   'P 1'
_cell_length_a   11.49870900
_cell_length_b   10.79969200
_cell_length_c   11.57936685
_cell_angle_alpha   65.67066714
_cell_angle_beta   90.00000000
_cell_angle_gamma   90.00000000
_symmetry_Int_Tables_number   1
_chemical_formula_structural   KGeAuS3
_chemical_formula_sum   'K8 Ge8 Au8 S24'
_cell_volume   1310.25369591
_cell_formula_units_Z   8
loop_
 _symmetry_equiv_pos_site_id
 _symmetry_equiv_pos_as_xyz
  1  'x, y, z'
loop_
 _atom_site_type_symbol
 _atom_site_label
 _atom_site_symmetry_multiplicity
 _atom_site_fract_x
 _atom_site_fract_y
 _atom_site_fract_z
 _atom_site_occupancy
  K  K0  1  0.73382000  0.67179200  0.71058000  1
  K  K1  1  0.76615800  0.03413700  0.87613900  1
  K  K2  1  0.23382000  0.82820800  0.78942000  1
  K  K3  1  0.23384200  0.96586300  0.12386100  1
  K  K4  1  0.26615800  0.46586300  0.62386100  1
  K  K5  1  0.73384200  0.53413700  0.37613900  1
  K  K6  1  0.26618000  0.32820800  0.28942000  1
  K  K7  1  0.76618000  0.17179200  0.21058000  1
  Ge  Ge0  1  0.00138500  0.58327200  0.08241200  1
  Ge  Ge1  1  0.50368800  0.60726400  0.05746800  1
  Ge  Ge2  1  0.00368800  0.89273600  0.44253200  1
  Ge  Ge3  1  0.49861500  0.08327200  0.58241200  1
  Ge  Ge4  1  0.50138500  0.91672800  0.41758800  1
  Ge  Ge5  1  0.99631200  0.10726400  0.55746800  1
  Ge  Ge6  1  0.49631200  0.39273600  0.94253200  1
  Ge  Ge7  1  0.99861500  0.41672800  0.91758800  1
  Au  Au0  1  0.08882900  0.63020200  0.35703800  1
  Au  Au1  1  0.91874800  0.83475000  0.18040600  1
  Au  Au2  1  0.41874800  0.66525000  0.31959400  1
  Au  Au3  1  0.91117100  0.36979800  0.64296200  1
  Au  Au4  1  0.41117100  0.13020200  0.85703800  1
  Au  Au5  1  0.08125200  0.16525000  0.81959400  1
  Au  Au6  1  0.58882900  0.86979800  0.14296200  1
  Au  Au7  1  0.58125200  0.33475000  0.68040600  1
  S  S0  1  0.99897500  0.81091200  0.00509900  1
  S  S1  1  0.49897500  0.68908800  0.49490100  1
  S  S2  1  0.85441000  0.48914700  0.01131100  1
  S  S3  1  0.34085800  0.65280000  0.13841600  1
  S  S4  1  0.99332100  0.52765000  0.70707000  1
  S  S5  1  0.52829400  0.37542300  0.14361000  1
  S  S6  1  0.64559000  0.98914700  0.51131100  1
  S  S7  1  0.02829400  0.12457700  0.35639000  1
  S  S8  1  0.65914200  0.34720000  0.86158400  1
  S  S9  1  0.16577500  0.78807800  0.42543200  1
  S  S10  1  0.84085800  0.84720000  0.36158400  1
  S  S11  1  0.50102500  0.31091200  0.50509900  1
  S  S12  1  0.35441000  0.01085300  0.48868900  1
  S  S13  1  0.00667900  0.47235000  0.29293000  1
  S  S14  1  0.47170600  0.62457700  0.85639000  1
  S  S15  1  0.49332100  0.97235000  0.79293000  1
  S  S16  1  0.15914200  0.15280000  0.63841600  1
  S  S17  1  0.97170600  0.87542300  0.64361000  1
  S  S18  1  0.14559000  0.51085300  0.98868900  1
  S  S19  1  0.33422500  0.28807800  0.92543200  1
  S  S20  1  0.50667900  0.02765000  0.20707000  1
  S  S21  1  0.00102500  0.18908800  0.99490100  1
  S  S22  1  0.66577500  0.71192200  0.07456800  1
  S  S23  1  0.83422500  0.21192200  0.57456800  1
loop_
_geom_bond_atom_site_label_1
_geom_bond_atom_site_label_2
_geom_bond_distance
_geom_bond_site_symmetry_2
K0 S8 3.321561 1_555
K0 S4 3.373556 1_555
K0 S14 3.389000 1_555
K0 S17 3.393342 1_555
K0 S6 3.403518 1_555
K0 S2 3.504301 1_556
K0 S1 3.630412 1_555
K1 S23 3.311905 1_555
K1 S15 3.427221 1_545
K1 S22 3.483224 1_546
K1 S0 3.498896 1_546
K1 S8 3.536126 1_555
K1 S21 3.725755 1_655
K2 S16 3.321561 1_565
K2 S15 3.373556 1_555
K2 S17 3.389000 1_455
K2 S14 3.393342 1_555
K2 S18 3.403518 1_555
K2 S12 3.504301 1_565
K2 S0 3.630412 1_456
K3 S9 3.311905 1_555
K3 S20 3.427221 1_565
K3 S19 3.483224 1_564
K3 S21 3.498896 1_564
K3 S3 3.536126 1_555
K3 S0 3.725755 1_455
K4 S19 3.311905 1_555
K4 S4 3.427221 1_455
K4 S9 3.483224 1_555
K4 S1 3.498896 1_555
K4 S16 3.536126 1_555
K4 S11 3.725755 1_555
K5 S22 3.311905 1_555
K5 S13 3.427221 1_655
K5 S23 3.483224 1_555
K5 S11 3.498896 1_555
K5 S10 3.536126 1_555
K5 S1 3.725755 1_555
K6 S3 3.321561 1_555
K6 S13 3.373556 1_555
K6 S5 3.389000 1_555
K6 S7 3.393342 1_555
K6 S12 3.403518 1_555
K6 S18 3.504301 1_554
K6 S11 3.630412 1_555
K7 S10 3.321561 1_545
K7 S20 3.373556 1_555
K7 S7 3.389000 1_655
K7 S5 3.393342 1_555
K7 S2 3.403518 1_555
K7 S6 3.504301 1_545
K7 S21 3.630412 1_654
Ge0 S13 2.230439 1_555
Ge0 S0 2.243369 1_455
Ge0 S18 2.288745 1_554
Ge0 S2 2.292793 1_455
Ge1 S22 2.230437 1_555
Ge1 S3 2.237380 1_555
Ge1 S14 2.287517 1_554
Ge1 S5 2.299184 1_555
Ge2 S9 2.230437 1_555
Ge2 S10 2.237380 1_455
Ge2 S17 2.287517 1_455
Ge2 S7 2.299184 1_565
Ge3 S15 2.230439 1_545
Ge3 S11 2.243369 1_555
Ge3 S12 2.288745 1_555
Ge3 S6 2.292793 1_545
Ge4 S20 2.230439 1_565
Ge4 S1 2.243369 1_555
Ge4 S6 2.288745 1_555
Ge4 S12 2.292793 1_565
Ge5 S23 2.230437 1_555
Ge5 S16 2.237380 1_655
Ge5 S7 2.287517 1_655
Ge5 S17 2.299184 1_545
Ge6 S19 2.230437 1_555
Ge6 S8 2.237380 1_555
Ge6 S5 2.287517 1_556
Ge6 S14 2.299184 1_555
Ge7 S4 2.230439 1_555
Ge7 S21 2.243369 1_655
Ge7 S2 2.288745 1_556
Ge7 S18 2.292793 1_655
Au0 S13 2.322123 1_555
Au0 S9 2.330171 1_555
Au0 Au1 3.027400 1_455
Au0 K4 3.512173 1_555
Au0 K3 3.891890 1_555
Au1 S10 2.335371 1_555
Au1 S0 2.338497 1_555
Au1 K1 3.725232 1_564
Au1 K5 3.759604 1_555
Au1 K3 3.846711 1_655
Au2 S3 2.335371 1_555
Au2 S1 2.338497 1_555
Au2 Au6 3.027400 1_555
Au2 K4 3.725232 1_555
Au2 K3 3.759604 1_555
Au2 K5 3.846711 1_555
Au3 S4 2.322123 1_555
Au3 S23 2.330171 1_555
Au3 Au5 3.027400 1_655
Au3 K5 3.512173 1_555
Au3 K1 3.891890 1_555
Au4 S15 2.322123 1_545
Au4 S19 2.330171 1_555
Au4 Au7 3.027400 1_555
Au4 K3 3.512173 1_546
Au4 K4 3.891890 1_555
Au5 S16 2.335371 1_555
Au5 S21 2.338497 1_555
Au5 K3 3.725232 1_546
Au5 K4 3.759604 1_555
Au5 K1 3.846711 1_455
Au6 S20 2.322123 1_565
Au6 S22 2.330171 1_555
Au6 K1 3.512173 1_564
Au6 K5 3.891890 1_555
Au7 S8 2.335371 1_555
Au7 S11 2.338497 1_555
Au7 K5 3.725232 1_555
Au7 K1 3.759604 1_555
Au7 K4 3.846711 1_555
