# generated using pymatgen
data_ZnGa3N3O
_symmetry_space_group_name_H-M   'P 1'
_cell_length_a   6.48369700
_cell_length_b   6.48469004
_cell_length_c   10.52516153
_cell_angle_alpha   90.17314494
_cell_angle_beta   89.97257466
_cell_angle_gamma   119.99509256
_symmetry_Int_Tables_number   1
_chemical_formula_structural   ZnGa3N3O
_chemical_formula_sum   'Zn4 Ga12 N12 O4'
_cell_volume   383.25737193
_cell_formula_units_Z   4
loop_
 _symmetry_equiv_pos_site_id
 _symmetry_equiv_pos_as_xyz
  1  'x, y, z'
loop_
 _atom_site_type_symbol
 _atom_site_label
 _atom_site_symmetry_multiplicity
 _atom_site_fract_x
 _atom_site_fract_y
 _atom_site_fract_z
 _atom_site_occupancy
  Zn  Zn0  1  0.16080100  0.17836800  0.73781200  1
  Zn  Zn1  1  0.32834700  0.34398400  0.99282200  1
  Zn  Zn2  1  0.33416600  0.83308400  0.49454300  1
  Zn  Zn3  1  0.66648700  0.16679400  0.73657900  1
  Ga  Ga0  1  0.16235700  0.66081300  0.74670100  1
  Ga  Ga1  1  0.67752400  0.65938500  0.74513200  1
  Ga  Ga2  1  0.83982500  0.82518600  0.00054300  1
  Ga  Ga3  1  0.33548100  0.82410600  0.00076900  1
  Ga  Ga4  1  0.83421100  0.82949800  0.50029000  1
  Ga  Ga5  1  0.16144600  0.16180100  0.25684900  1
  Ga  Ga6  1  0.33041300  0.33611700  0.50170500  1
  Ga  Ga7  1  0.66721700  0.66711100  0.25515500  1
  Ga  Ga8  1  0.67707300  0.16090300  0.25504500  1
  Ga  Ga9  1  0.16068800  0.67735000  0.25651400  1
  Ga  Ga10  1  0.82954700  0.34003900  0.00178400  1
  Ga  Ga11  1  0.83293900  0.33726600  0.50203800  1
  N  N0  1  0.33082200  0.34260300  0.68649200  1
  N  N1  1  0.82699700  0.34156900  0.68631300  1
  N  N2  1  0.16046200  0.67892800  0.93546100  1
  N  N3  1  0.16233200  0.66262300  0.43652300  1
  N  N4  1  0.67471900  0.66287500  0.43665100  1
  N  N5  1  0.16226100  0.17582400  0.43731600  1
  N  N6  1  0.83275300  0.33401600  0.18646400  1
  N  N7  1  0.66673100  0.16631800  0.43757400  1
  N  N8  1  0.83668000  0.82600000  0.68680000  1
  N  N9  1  0.66614000  0.66790200  0.93724400  1
  N  N10  1  0.33436900  0.83274400  0.18720000  1
  N  N11  1  0.83269500  0.83308500  0.18636500  1
  O  O0  1  0.33504200  0.33165000  0.19356000  1
  O  O1  1  0.67919700  0.16021000  0.95023900  1
  O  O2  1  0.16067300  0.15957000  0.94888800  1
  O  O3  1  0.33960600  0.82227900  0.69861000  1
loop_
_geom_bond_atom_site_label_1
_geom_bond_atom_site_label_2
_geom_bond_distance
_geom_bond_site_symmetry_2
Ga0 O3 1.213580 1_555
Ga0 N2 1.990240 1_555
Ga0 N1 2.215909 1_455
Ga1 N8 1.223845 1_555
Ga1 N9 2.024915 1_555
Ga1 N0 2.242883 1_555
Ga2 N9 1.265107 1_554
Ga2 N11 1.957451 1_555
Ga2 O2 2.195653 1_664
Ga3 N2 1.255059 1_554
Ga3 N10 1.962959 1_555
Ga3 O1 2.269149 1_564
Ga4 N4 1.250838 1_555
Ga4 N8 1.963413 1_555
Ga4 N5 2.288798 1_665
Ga5 O0 1.299193 1_555
Ga5 N5 1.901229 1_555
Ga5 N11 2.255344 1_445
Ga6 N5 1.261641 1_555
Ga6 N0 1.945215 1_555
Ga6 N4 2.284717 1_555
Ga7 N11 1.297353 1_555
Ga7 N4 1.911547 1_555
Ga7 O0 2.258182 1_555
Ga8 N6 1.292800 1_555
Ga8 N7 1.923112 1_555
Ga8 N10 2.289146 1_545
Ga9 N10 1.298007 1_555
Ga9 N3 1.897621 1_555
Ga9 N6 2.297778 1_455
Ga10 O1 1.210188 1_554
Ga10 N6 1.944627 1_555
Ga10 N2 2.283326 1_654
Ga11 N7 1.285401 1_555
Ga11 N1 1.940282 1_555
Ga11 N3 2.233866 1_655
N0 Zn0 1.212548 1_555
N1 Zn3 1.212950 1_555
N3 Zn2 1.265417 1_555
N7 Zn2 2.241945 1_545
N8 Zn0 2.262354 1_665
N9 Zn1 2.226550 1_555
O0 Zn1 2.115842 1_554
O1 Zn3 2.251670 1_555
O2 Zn1 1.234124 1_555
O2 Zn0 2.225296 1_555
O3 Zn2 2.150073 1_555
O3 Zn3 2.214466 1_565
