# generated using pymatgen
data_Ba2Zn(BO2)6
_symmetry_space_group_name_H-M   'P 1'
_cell_length_a   7.23302300
_cell_length_b   7.27401891
_cell_length_c   12.29310236
_cell_angle_alpha   96.03434984
_cell_angle_beta   94.39228293
_cell_angle_gamma   119.72552315
_symmetry_Int_Tables_number   1
_chemical_formula_structural   Ba2Zn(BO2)6
_chemical_formula_sum   'Ba4 Zn2 B12 O24'
_cell_volume   552.31905980
_cell_formula_units_Z   2
loop_
 _symmetry_equiv_pos_site_id
 _symmetry_equiv_pos_as_xyz
  1  'x, y, z'
loop_
 _atom_site_type_symbol
 _atom_site_label
 _atom_site_symmetry_multiplicity
 _atom_site_fract_x
 _atom_site_fract_y
 _atom_site_fract_z
 _atom_site_occupancy
  Ba  Ba0  1  0.34492000  0.68092400  0.04966700  1
  Ba  Ba1  1  0.26352200  0.58305100  0.71414400  1
  Ba  Ba2  1  0.65508000  0.31907600  0.95033300  1
  Ba  Ba3  1  0.73647800  0.41694900  0.28585600  1
  Zn  Zn0  1  0.88864300  0.85968100  0.58368300  1
  Zn  Zn1  1  0.11135700  0.14031900  0.41631700  1
  B  B0  1  0.74721500  0.42718200  0.62324800  1
  B  B1  1  0.24967500  0.07979000  0.12386100  1
  B  B2  1  0.37865700  0.95196900  0.36786300  1
  B  B3  1  0.36485400  0.17417900  0.61800500  1
  B  B4  1  0.62134300  0.04803100  0.63213700  1
  B  B5  1  0.25278500  0.57281800  0.37675200  1
  B  B6  1  0.99687500  0.21668700  0.13009000  1
  B  B7  1  0.13717000  0.17102100  0.87075000  1
  B  B8  1  0.86283000  0.82897900  0.12925000  1
  B  B9  1  0.75032500  0.92021000  0.87613900  1
  B  B10  1  0.00312500  0.78331300  0.86991000  1
  B  B11  1  0.63514600  0.82582100  0.38199500  1
  O  O0  1  0.16205300  0.13746700  0.59230900  1
  O  O1  1  0.41038100  0.01295300  0.63325300  1
  O  O2  1  0.21264300  0.74152300  0.36667200  1
  O  O3  1  0.46392500  0.61510600  0.37365000  1
  O  O4  1  0.44551100  0.10946800  0.11756700  1
  O  O5  1  0.78735700  0.25847700  0.63332800  1
  O  O6  1  0.03785000  0.62051400  0.87467700  1
  O  O7  1  0.83157000  0.00691700  0.13642800  1
  O  O8  1  0.58961900  0.98704700  0.36674700  1
  O  O9  1  0.55448900  0.89053200  0.88243300  1
  O  O10  1  0.83794700  0.86253300  0.40769100  1
  O  O11  1  0.16843000  0.99308300  0.86357200  1
  O  O12  1  0.69628200  0.63184200  0.12656800  1
  O  O13  1  0.91096500  0.61602900  0.60937900  1
  O  O14  1  0.20617100  0.24891100  0.12766600  1
  O  O15  1  0.07413300  0.87135300  0.12395800  1
  O  O16  1  0.30371800  0.36815800  0.87343200  1
  O  O17  1  0.35409000  0.12267700  0.37241200  1
  O  O18  1  0.92586700  0.12864700  0.87604200  1
  O  O19  1  0.08903500  0.38397100  0.39062100  1
  O  O20  1  0.96215000  0.37948600  0.12532300  1
  O  O21  1  0.53607500  0.38489400  0.62635000  1
  O  O22  1  0.79382900  0.75108900  0.87233400  1
  O  O23  1  0.64591000  0.87732300  0.62758800  1
loop_
_geom_bond_atom_site_label_1
_geom_bond_atom_site_label_2
_geom_bond_distance
_geom_bond_site_symmetry_2
Ba0 O9 2.773661 1_554
Ba0 O6 2.802718 1_554
Ba0 O4 2.837956 1_565
Ba0 O12 2.843007 1_555
Ba0 O20 2.853217 1_455
Ba0 O16 2.854960 1_554
Ba0 O15 3.047529 1_555
Ba0 O14 3.074912 1_555
Ba0 O7 3.125117 1_565
Ba1 O16 2.714641 1_555
Ba1 O9 2.721002 1_555
Ba1 O6 2.730307 1_555
Ba1 O13 2.896121 1_455
Ba1 O23 2.902127 1_555
Ba1 O5 3.056460 1_455
Ba1 O1 3.068791 1_565
Ba1 O0 3.120753 1_555
Ba1 O21 3.153653 1_555
Ba2 O4 2.773661 1_556
Ba2 O20 2.802718 1_556
Ba2 O9 2.837956 1_545
Ba2 O16 2.843007 1_555
Ba2 O6 2.853217 1_655
Ba2 O12 2.854960 1_556
Ba2 O18 3.047529 1_555
Ba2 O22 3.074912 1_555
Ba2 O11 3.125117 1_545
Ba3 O12 2.714641 1_555
Ba3 O4 2.721002 1_555
Ba3 O20 2.730307 1_555
Ba3 O19 2.896121 1_655
Ba3 O17 2.902127 1_555
Ba3 O2 3.056460 1_655
Ba3 O8 3.068791 1_545
Ba3 O10 3.120753 1_555
Ba3 O3 3.153653 1_555
B0 O13 1.336253 1_555
B0 O21 1.404947 1_555
B0 O5 1.409039 1_555
B1 O4 1.332694 1_555
B1 O14 1.410179 1_555
B1 O15 1.415078 1_545
B2 O17 1.335043 1_565
B2 O2 1.398260 1_555
B2 O8 1.418265 1_555
B3 O0 1.358534 1_555
B3 O1 1.392366 1_555
B3 O21 1.399504 1_555
B4 O23 1.335043 1_545
B4 O5 1.398260 1_555
B4 O1 1.418265 1_555
B5 O19 1.336253 1_555
B5 O3 1.404947 1_555
B5 O2 1.409039 1_555
B6 O20 1.332724 1_555
B6 O7 1.412074 1_555
B6 O14 1.415639 1_655
B7 O16 1.333959 1_555
B7 O18 1.409750 1_455
B7 O11 1.415432 1_545
B8 O12 1.333959 1_555
B8 O15 1.409750 1_655
B8 O7 1.415432 1_565
B9 O9 1.332694 1_555
B9 O22 1.410179 1_555
B9 O18 1.415078 1_565
B10 O6 1.332724 1_555
B10 O11 1.412074 1_555
B10 O22 1.415639 1_455
B11 O10 1.358534 1_555
B11 O8 1.392366 1_555
B11 O3 1.399504 1_555
O0 Zn0 1.991248 1_445
O0 Zn1 2.170492 1_555
O10 Zn1 1.991248 1_665
O10 Zn0 2.170492 1_555
O13 Zn0 1.913288 1_555
O17 Zn1 1.935006 1_555
O19 Zn1 1.913288 1_555
O23 Zn0 1.935006 1_555
