# generated using pymatgen
data_Li8Bi2(MoO4)7
_symmetry_space_group_name_H-M   'P 1'
_cell_length_a   15.44339073
_cell_length_b   15.44339073
_cell_length_c   15.44339073
_cell_angle_alpha   91.73865224
_cell_angle_beta   91.73865224
_cell_angle_gamma   159.93748761
_symmetry_Int_Tables_number   1
_chemical_formula_structural   Li8Bi2(MoO4)7
_chemical_formula_sum   'Li16 Bi4 Mo14 O56'
_cell_volume   1244.19636550
_cell_formula_units_Z   2
loop_
 _symmetry_equiv_pos_site_id
 _symmetry_equiv_pos_as_xyz
  1  'x, y, z'
loop_
 _atom_site_type_symbol
 _atom_site_label
 _atom_site_symmetry_multiplicity
 _atom_site_fract_x
 _atom_site_fract_y
 _atom_site_fract_z
 _atom_site_occupancy
  Li  Li0  1  0.41975900  0.91541900  0.99988500  1
  Li  Li1  1  0.42382900  0.11973700  0.55597300  1
  Li  Li2  1  0.50146300  0.74615100  0.24226300  1
  Li  Li3  1  0.57389300  0.12914300  0.69322100  1
  Li  Li4  1  0.74080000  0.49853700  0.24468700  1
  Li  Li5  1  0.11932700  0.42610700  0.55524900  1
  Li  Li6  1  0.13214400  0.57617100  0.69590700  1
  Li  Li7  1  0.25384900  0.49611200  0.75531300  1
  Li  Li8  1  0.56376300  0.86785600  0.44402700  1
  Li  Li9  1  0.91553300  0.41987300  0.00011500  1
  Li  Li10  1  0.88026300  0.43623700  0.30409300  1
  Li  Li11  1  0.87085700  0.56407800  0.44475100  1
  Li  Li12  1  0.50388800  0.25920000  0.75773700  1
  Li  Li13  1  0.43592200  0.88067300  0.30677900  1
  Li  Li14  1  0.58012700  0.58024100  0.49566000  1
  Li  Li15  1  0.08458100  0.08446700  0.50434000  1
  Bi  Bi0  1  0.99899200  0.13958000  0.14111900  1
  Bi  Bi1  1  0.14212700  0.00100800  0.14058900  1
  Bi  Bi2  1  0.86042000  0.00153900  0.85941100  1
  Bi  Bi3  1  0.99846100  0.85787300  0.85888100  1
  Mo  Mo0  1  0.29763300  0.10971300  0.37927300  1
  Mo  Mo1  1  0.10919100  0.29824300  0.37910900  1
  Mo  Mo2  1  0.70175700  0.08086600  0.81094700  1
  Mo  Mo3  1  0.08164000  0.70236700  0.81208100  1
  Mo  Mo4  1  0.37059800  0.63148900  0.00119200  1
  Mo  Mo5  1  0.36851100  0.36970300  0.73910900  1
  Mo  Mo6  1  0.63059400  0.62940200  0.26089100  1
  Mo  Mo7  1  0.50000000  0.50000000  0.00000000  1
  Mo  Mo8  1  0.89028700  0.26956000  0.18791900  1
  Mo  Mo9  1  0.63029700  0.36940600  0.99880800  1
  Mo  Mo10  1  0.26991800  0.89080900  0.18905300  1
  Mo  Mo11  1  0.25000000  0.75000000  0.50000000  1
  Mo  Mo12  1  0.91913400  0.73008200  0.62089100  1
  Mo  Mo13  1  0.73044000  0.91836000  0.62072700  1
  O  O0  1  0.09395900  0.65477200  0.90944800  1
  O  O1  1  0.23328300  0.60593900  0.00072000  1
  O  O2  1  0.76286000  0.40610400  0.75060100  1
  O  O3  1  0.33906200  0.33777800  0.09281000  1
  O  O4  1  0.39406100  0.39478200  0.62734400  1
  O  O5  1  0.13065200  0.31907800  0.00012300  1
  O  O6  1  0.39247700  0.11507800  0.16799400  1
  O  O7  1  0.49162000  0.39009200  0.24239300  1
  O  O8  1  0.05300700  0.88527300  0.27724500  1
  O  O9  1  0.24851000  0.34073400  0.44064200  1
  O  O10  1  0.19213200  0.75149000  0.09222400  1
  O  O11  1  0.90009200  0.80786800  0.55935800  1
  O  O12  1  0.24387200  0.14611800  0.75736100  1
  O  O13  1  0.92615300  0.18737100  0.44682700  1
  O  O14  1  0.07505700  0.52418300  0.25573400  1
  O  O15  1  0.44329500  0.87366900  0.43300500  1
  O  O16  1  0.81548900  0.90604100  0.56081400  1
  O  O17  1  0.51348900  0.75612800  0.90224500  1
  O  O18  1  0.94708400  0.22448300  0.83200600  1
  O  O19  1  0.77551700  0.60752300  0.72260100  1
  O  O20  1  0.68092200  0.68104500  0.81157300  1
  O  O21  1  0.35016800  0.59638600  0.35454900  1
  O  O22  1  0.60990800  0.85230100  0.10152700  1
  O  O23  1  0.74054400  0.47932600  0.55317300  1
  O  O24  1  0.38875600  0.48651100  0.24263900  1
  O  O25  1  0.44066400  0.01028900  0.56699500  1
  O  O26  1  0.66222200  0.75503200  0.00128400  1
  O  O27  1  0.31895500  0.13052800  0.99987700  1
  O  O28  1  0.75077300  0.50838000  0.89847300  1
  O  O29  1  0.98774100  0.23714000  0.64324300  1
  O  O30  1  0.81262900  0.25945600  0.73878200  1
  O  O31  1  0.74532400  0.18451100  0.09055200  1
  O  O32  1  0.00438100  0.64983200  0.24621800  1
  O  O33  1  0.76743800  0.76671700  0.37265600  1
  O  O34  1  0.86947200  0.86934800  0.18842700  1
  O  O35  1  0.40361400  0.75816300  0.75378200  1
  O  O36  1  0.24183700  0.99561900  0.64545100  1
  O  O37  1  0.12633100  0.55933600  0.56962600  1
  O  O38  1  0.22423800  0.94699300  0.83226600  1
  O  O39  1  0.18067700  0.92494300  0.44912600  1
  O  O40  1  0.24496800  0.24625200  0.90719000  1
  O  O41  1  0.52067400  0.07384700  0.26121800  1
  O  O42  1  0.75374800  0.66093800  0.99871600  1
  O  O43  1  0.88492200  0.05291600  0.27739900  1
  O  O44  1  0.11472700  0.39197200  0.16773400  1
  O  O45  1  0.65550300  0.01225900  0.24939900  1
  O  O46  1  0.60521800  0.23256200  0.99928000  1
  O  O47  1  0.26844900  0.81932300  0.74426600  1
  O  O48  1  0.47581700  0.73155100  0.55087400  1
  O  O49  1  0.14769900  0.24922700  0.75760700  1
  O  O50  1  0.98971100  0.55670500  0.43037400  1
  O  O51  1  0.60802800  0.77576200  0.72275500  1
  O  O52  1  0.85388200  0.61124400  0.09775500  1
  O  O53  1  0.65926600  0.09990800  0.90777600  1
  O  O54  1  0.59389600  0.34449700  0.35675700  1
  O  O55  1  0.34522800  0.25467600  0.43918600  1
loop_
_geom_bond_atom_site_label_1
_geom_bond_atom_site_label_2
_geom_bond_distance
_geom_bond_site_symmetry_2
Li0 O31 2.115813 1_566
Li0 O53 2.142318 1_565
Li0 O10 2.145825 1_556
Li0 O0 2.157181 1_555
Li0 O1 2.298924 1_556
Li0 O46 2.417157 1_565
Li1 O36 1.938694 1_545
Li1 O23 1.940131 1_555
Li1 O25 1.947779 1_555
Li1 O39 1.993549 1_545
Li2 O45 2.037300 1_565
Li2 O21 2.037808 1_555
Li2 O44 2.177856 1_555
Li2 O43 2.179704 1_565
Li2 O22 2.344223 1_555
Li2 O24 2.449100 1_555
Li3 O2 1.939039 1_555
Li3 O47 1.954387 1_545
Li3 O25 1.961405 1_555
Li3 O30 1.988943 1_555
Li4 O54 2.037328 1_555
Li4 O32 2.037807 1_655
Li4 O8 2.177858 1_655
Li4 O6 2.179698 1_555
Li4 O7 2.344208 1_555
Li4 O52 2.449083 1_555
Li5 O29 1.939044 1_455
Li5 O48 1.954393 1_555
Li5 O37 1.961393 1_555
Li5 O13 1.988935 1_455
Li6 O35 1.938699 1_555
Li6 O30 1.940138 1_455
Li6 O37 1.947748 1_555
Li6 O47 1.993553 1_555
Li7 O29 2.037322 1_455
Li7 O35 2.037810 1_555
Li7 O51 2.177862 1_555
Li7 O18 2.179694 1_455
Li7 O49 2.344206 1_555
Li7 O17 2.449087 1_555
Li8 O21 1.938699 1_555
Li8 O13 1.940138 1_565
Li8 O15 1.947748 1_555
Li8 O48 1.993553 1_555
Li9 O0 2.115816 1_654
Li9 O10 2.142322 1_655
Li9 O53 2.145822 1_554
Li9 O31 2.157178 1_555
Li9 O46 2.298924 1_554
Li9 O1 2.417163 1_655
Li10 O32 1.938690 1_655
Li10 O41 1.940136 1_555
Li10 O50 1.947746 1_555
Li10 O14 1.993567 1_655
Li11 O54 1.939039 1_555
Li11 O39 1.954389 1_655
Li11 O50 1.961424 1_555
Li11 O23 1.988929 1_555
Li12 O2 2.037300 1_555
Li12 O36 2.037808 1_545
Li12 O38 2.177856 1_545
Li12 O19 2.179704 1_555
Li12 O28 2.344220 1_555
Li12 O12 2.449112 1_555
Li13 O45 1.939048 1_565
Li13 O14 1.954389 1_555
Li13 O15 1.961408 1_555
Li13 O41 1.988929 1_565
Li14 O55 2.115809 1_555
Li14 O9 2.142330 1_555
Li14 O11 2.145814 1_555
Li14 O16 2.157195 1_555
Li14 O33 2.298924 1_555
Li14 O4 2.417161 1_555
Li15 O16 2.115812 1_445
Li15 O11 2.142330 1_445
Li15 O9 2.145814 1_555
Li15 O55 2.157198 1_555
Li15 O4 2.298924 1_555
Li15 O33 2.417161 1_445
Bi0 O43 2.300136 1_555
Bi0 O44 2.307948 1_655
Bi0 O22 2.386100 1_545
Bi0 O24 2.393149 1_655
Bi0 O34 2.557885 1_545
Bi0 O5 2.570231 1_655
Bi0 O26 2.738007 1_545
Bi0 O3 2.772047 1_655
Bi1 O6 2.300135 1_555
Bi1 O8 2.307934 1_545
Bi1 O7 2.386090 1_555
Bi1 O52 2.393143 1_445
Bi1 O27 2.557885 1_554
Bi1 O34 2.570217 1_445
Bi1 O3 2.738013 1_555
Bi1 O42 2.772057 1_444
Bi2 O18 2.300132 1_555
Bi2 O51 2.307936 1_545
Bi2 O49 2.386086 1_655
Bi2 O17 2.393155 1_545
Bi2 O5 2.557879 1_656
Bi2 O20 2.570231 1_545
Bi2 O40 2.738010 1_655
Bi2 O26 2.772060 1_546
Bi3 O19 2.300136 1_555
Bi3 O38 2.307948 1_655
Bi3 O28 2.386104 1_555
Bi3 O12 2.393155 1_665
Bi3 O20 2.557871 1_555
Bi3 O27 2.570234 1_665
Bi3 O42 2.738007 1_555
Bi3 O40 2.772047 1_665
Mo0 O55 1.774806 1_555
Mo0 O39 1.786351 1_545
Mo0 O54 1.791293 1_555
Mo0 O8 1.864521 1_545
Mo1 O9 1.774415 1_555
Mo1 O21 1.787298 1_555
Mo1 O13 1.791985 1_455
Mo1 O43 1.863943 1_455
Mo2 O53 1.774428 1_555
Mo2 O35 1.787293 1_545
Mo2 O30 1.791975 1_555
Mo2 O18 1.863944 1_555
Mo3 O0 1.774800 1_555
Mo3 O47 1.786361 1_555
Mo3 O2 1.791304 1_455
Mo3 O38 1.864520 1_555
Mo4 O1 1.754899 1_555
Mo4 O17 1.820185 1_554
Mo4 O22 1.828653 1_555
Mo4 O5 1.847666 1_555
Mo5 O4 1.754900 1_555
Mo5 O12 1.820171 1_555
Mo5 O49 1.828664 1_555
Mo5 O20 1.847659 1_555
Mo6 O33 1.754900 1_555
Mo6 O24 1.820185 1_555
Mo6 O7 1.828664 1_555
Mo6 O34 1.847656 1_555
Mo7 O42 1.801245 1_554
Mo7 O40 1.801245 1_554
Mo7 O3 1.801245 1_555
Mo7 O26 1.801245 1_555
Mo8 O31 1.774801 1_555
Mo8 O14 1.786358 1_655
Mo8 O45 1.791308 1_555
Mo8 O44 1.864518 1_655
Mo9 O46 1.754901 1_555
Mo9 O52 1.820186 1_556
Mo9 O28 1.828650 1_555
Mo9 O27 1.847659 1_555
Mo10 O10 1.774427 1_555
Mo10 O32 1.787289 1_555
Mo10 O41 1.791977 1_565
Mo10 O6 1.863947 1_565
Mo11 O25 1.796062 1_565
Mo11 O50 1.796063 1_455
Mo11 O37 1.796073 1_555
Mo11 O15 1.796073 1_555
Mo12 O11 1.774415 1_555
Mo12 O36 1.787298 1_655
Mo12 O23 1.791985 1_555
Mo12 O19 1.863943 1_555
Mo13 O16 1.774805 1_555
Mo13 O48 1.786351 1_555
Mo13 O29 1.791298 1_565
Mo13 O51 1.864521 1_555
