# generated using pymatgen
data_Mg8BPt4
_symmetry_space_group_name_H-M   'P 1'
_cell_length_a   8.65863784
_cell_length_b   8.65863790
_cell_length_c   8.65863879
_cell_angle_alpha   60.00023746
_cell_angle_beta   60.00023732
_cell_angle_gamma   60.00023170
_symmetry_Int_Tables_number   1
_chemical_formula_structural   Mg8BPt4
_chemical_formula_sum   'Mg16 B2 Pt8'
_cell_volume   459.02474351
_cell_formula_units_Z   2
loop_
 _symmetry_equiv_pos_site_id
 _symmetry_equiv_pos_as_xyz
  1  'x, y, z'
loop_
 _atom_site_type_symbol
 _atom_site_label
 _atom_site_symmetry_multiplicity
 _atom_site_fract_x
 _atom_site_fract_y
 _atom_site_fract_z
 _atom_site_occupancy
  Mg  Mg0  1  0.44997978  0.05002111  0.05002116  1
  Mg  Mg1  1  0.44997985  0.44997980  0.05001997  1
  Mg  Mg2  1  0.19998014  0.80002018  0.80002017  1
  Mg  Mg3  1  0.62499997  0.12500008  0.62499997  1
  Mg  Mg4  1  0.19997892  0.80002023  0.19997883  1
  Mg  Mg5  1  0.80002015  0.80002016  0.19998021  1
  Mg  Mg6  1  0.80002020  0.19997889  0.19997890  1
  Mg  Mg7  1  0.05002114  0.44997974  0.05002112  1
  Mg  Mg8  1  0.62499996  0.62499999  0.12500004  1
  Mg  Mg9  1  0.44997981  0.05001987  0.44997982  1
  Mg  Mg10  1  0.05002105  0.05002126  0.44997975  1
  Mg  Mg11  1  0.80002017  0.19998010  0.80002014  1
  Mg  Mg12  1  0.62499997  0.62499998  0.62499999  1
  Mg  Mg13  1  0.19997882  0.19997897  0.80002021  1
  Mg  Mg14  1  0.12500004  0.62499997  0.62500000  1
  Mg  Mg15  1  0.05001990  0.44997979  0.44997983  1
  B  B0  1  0.75000020  0.75000020  0.75000019  1
  B  B1  1  0.49999981  0.49999979  0.49999980  1
  Pt  Pt0  1  0.40078428  0.79764715  0.40078416  1
  Pt  Pt1  1  0.40078418  0.40078415  0.40078411  1
  Pt  Pt2  1  0.79764717  0.40078416  0.40078424  1
  Pt  Pt3  1  0.45235278  0.84921576  0.84921585  1
  Pt  Pt4  1  0.84921586  0.45235278  0.84921580  1
  Pt  Pt5  1  0.84921577  0.84921584  0.45235276  1
  Pt  Pt6  1  0.84921583  0.84921587  0.84921588  1
  Pt  Pt7  1  0.40078424  0.40078418  0.79764712  1
loop_
_geom_bond_atom_site_label_1
_geom_bond_atom_site_label_2
_geom_bond_distance
_geom_bond_site_symmetry_2
Mg0 Pt0 2.679767 1_545
Mg0 Pt7 2.679768 1_554
Mg0 Pt3 2.999699 1_544
Mg0 Pt6 2.999704 1_544
Mg1 Pt7 2.679758 1_554
Mg1 Pt1 2.679764 1_555
Mg1 Pt3 2.999696 1_554
Mg1 Pt4 2.999697 1_554
Mg2 Pt3 2.679756 1_555
Mg2 Pt6 2.679765 1_455
Mg2 Pt7 2.999697 1_555
Mg2 Pt0 2.999697 1_555
Mg3 Pt7 2.781633 1_555
Mg3 Pt2 2.781634 1_555
Mg3 Pt5 2.781635 1_545
Mg3 Pt3 2.781635 1_545
Mg3 Pt1 2.781638 1_555
Mg3 Pt6 2.781638 1_545
Mg4 Pt3 2.679767 1_554
Mg4 Pt5 2.679768 1_455
Mg4 Pt0 2.999698 1_555
Mg4 Pt1 2.999704 1_555
Mg5 Pt5 2.679756 1_555
Mg5 Pt6 2.679766 1_554
Mg5 Pt0 2.999696 1_555
Mg5 Pt2 2.999697 1_555
Mg6 Pt5 2.679767 1_545
Mg6 Pt4 2.679767 1_554
Mg6 Pt2 2.999698 1_555
Mg6 Pt1 2.999704 1_555
Mg7 Pt7 2.679768 1_554
Mg7 Pt2 2.679768 1_455
Mg7 Pt4 2.999698 1_454
Mg7 Pt6 2.999705 1_454
Mg8 Pt0 2.781634 1_555
Mg8 Pt3 2.781634 1_554
Mg8 Pt2 2.781635 1_555
Mg8 Pt4 2.781635 1_554
Mg8 Pt1 2.781638 1_555
Mg8 Pt6 2.781638 1_554
Mg9 Pt0 2.679756 1_545
Mg9 Pt1 2.679765 1_555
Mg9 Pt5 2.999696 1_545
Mg9 Pt3 2.999697 1_545
Mg10 Pt2 2.679766 1_455
Mg10 Pt0 2.679768 1_545
Mg10 Pt5 2.999699 1_445
Mg10 Pt6 2.999705 1_445
Mg11 Pt4 2.679757 1_555
Mg11 Pt6 2.679764 1_545
Mg11 Pt7 2.999696 1_555
Mg11 Pt2 2.999696 1_555
Mg12 Pt0 2.781633 1_555
Mg12 Pt7 2.781633 1_555
Mg12 Pt2 2.781633 1_555
Mg12 Pt3 2.781634 1_555
Mg12 Pt5 2.781634 1_555
Mg12 Pt4 2.781634 1_555
Mg13 Pt4 2.679766 1_455
Mg13 Pt3 2.679768 1_545
Mg13 Pt7 2.999698 1_555
Mg13 Pt1 2.999705 1_555
Mg14 Pt7 2.781634 1_555
Mg14 Pt4 2.781634 1_455
Mg14 Pt0 2.781635 1_555
Mg14 Pt5 2.781635 1_455
Mg14 Pt1 2.781638 1_555
Mg14 Pt6 2.781638 1_455
Mg15 Pt2 2.679757 1_455
Mg15 Pt1 2.679765 1_555
Mg15 Pt5 2.999697 1_455
Mg15 Pt4 2.999697 1_455
B0 Pt6 2.104286 1_555
B0 Pt3 2.104299 1_555
B0 Pt4 2.104299 1_555
B0 Pt5 2.104299 1_555
B0 Mg12 2.651156 1_555
B0 Mg14 2.651162 1_655
B0 Mg3 2.651163 1_565
B0 Mg8 2.651163 1_556
B1 Pt1 2.104285 1_555
B1 Pt2 2.104298 1_555
B1 Pt0 2.104298 1_555
B1 Pt7 2.104298 1_555
B1 Mg12 2.651155 1_555
B1 Mg3 2.651161 1_555
B1 Mg14 2.651162 1_555
B1 Mg8 2.651162 1_555
