# generated using pymatgen
data_Y11(Ni10C)6
_symmetry_space_group_name_H-M   'P 1'
_cell_length_a   10.79328154
_cell_length_b   10.79328154
_cell_length_c   10.79328154
_cell_angle_alpha   109.47122063
_cell_angle_beta   109.47122063
_cell_angle_gamma   109.47122063
_symmetry_Int_Tables_number   1
_chemical_formula_structural   Y11(Ni10C)6
_chemical_formula_sum   'Y11 Ni60 C6'
_cell_volume   967.91813234
_cell_formula_units_Z   1
loop_
 _symmetry_equiv_pos_site_id
 _symmetry_equiv_pos_as_xyz
  1  'x, y, z'
loop_
 _atom_site_type_symbol
 _atom_site_label
 _atom_site_symmetry_multiplicity
 _atom_site_fract_x
 _atom_site_fract_y
 _atom_site_fract_z
 _atom_site_occupancy
  Y  Y0  1  0.00000000  0.00000000  0.33686900  1
  Y  Y1  1  0.00000000  0.33686900  0.00000000  1
  Y  Y2  1  0.33686900  0.00000000  0.00000000  1
  Y  Y3  1  0.66313100  0.66313100  0.66313100  1
  Y  Y4  1  0.00000000  0.00000000  0.66313100  1
  Y  Y5  1  0.00000000  0.66313100  0.00000000  1
  Y  Y6  1  0.66313100  0.00000000  0.00000000  1
  Y  Y7  1  0.33686900  0.33686900  0.33686900  1
  Y  Y8  1  0.50000000  0.50000000  0.00000000  1
  Y  Y9  1  0.50000000  0.00000000  0.50000000  1
  Y  Y10  1  0.00000000  0.50000000  0.50000000  1
  Ni  Ni0  1  0.00000000  0.76628500  0.41826400  1
  Ni  Ni1  1  0.23371500  0.23371500  0.65197800  1
  Ni  Ni2  1  0.76628500  0.00000000  0.41826400  1
  Ni  Ni3  1  0.00000000  0.41826400  0.76628500  1
  Ni  Ni4  1  0.76628500  0.41826400  0.00000000  1
  Ni  Ni5  1  0.23371500  0.65197800  0.23371500  1
  Ni  Ni6  1  0.65197800  0.23371500  0.23371500  1
  Ni  Ni7  1  0.41826400  0.76628500  0.00000000  1
  Ni  Ni8  1  0.41826400  0.00000000  0.76628500  1
  Ni  Ni9  1  0.34802200  0.58173600  0.58173600  1
  Ni  Ni10  1  0.58173600  0.58173600  0.34802200  1
  Ni  Ni11  1  0.58173600  0.34802200  0.58173600  1
  Ni  Ni12  1  0.00000000  0.23371500  0.58173600  1
  Ni  Ni13  1  0.76628500  0.76628500  0.34802200  1
  Ni  Ni14  1  0.23371500  0.00000000  0.58173600  1
  Ni  Ni15  1  0.00000000  0.58173600  0.23371500  1
  Ni  Ni16  1  0.23371500  0.58173600  0.00000000  1
  Ni  Ni17  1  0.76628500  0.34802200  0.76628500  1
  Ni  Ni18  1  0.34802200  0.76628500  0.76628500  1
  Ni  Ni19  1  0.58173600  0.23371500  0.00000000  1
  Ni  Ni20  1  0.58173600  0.00000000  0.23371500  1
  Ni  Ni21  1  0.65197800  0.41826400  0.41826400  1
  Ni  Ni22  1  0.41826400  0.41826400  0.65197800  1
  Ni  Ni23  1  0.41826400  0.65197800  0.41826400  1
  Ni  Ni24  1  0.14692300  0.32185700  0.46878000  1
  Ni  Ni25  1  0.67814300  0.82506600  0.14692300  1
  Ni  Ni26  1  0.17493400  0.85307700  0.32185700  1
  Ni  Ni27  1  0.85307700  0.17493400  0.32185700  1
  Ni  Ni28  1  0.32185700  0.14692300  0.46878000  1
  Ni  Ni29  1  0.82506600  0.67814300  0.14692300  1
  Ni  Ni30  1  0.85307700  0.32185700  0.17493400  1
  Ni  Ni31  1  0.32185700  0.46878000  0.14692300  1
  Ni  Ni32  1  0.82506600  0.14692300  0.67814300  1
  Ni  Ni33  1  0.14692300  0.46878000  0.32185700  1
  Ni  Ni34  1  0.67814300  0.14692300  0.82506600  1
  Ni  Ni35  1  0.17493400  0.32185700  0.85307700  1
  Ni  Ni36  1  0.14692300  0.67814300  0.82506600  1
  Ni  Ni37  1  0.32185700  0.17493400  0.85307700  1
  Ni  Ni38  1  0.46878000  0.14692300  0.32185700  1
  Ni  Ni39  1  0.14692300  0.82506600  0.67814300  1
  Ni  Ni40  1  0.32185700  0.85307700  0.17493400  1
  Ni  Ni41  1  0.46878000  0.32185700  0.14692300  1
  Ni  Ni42  1  0.85307700  0.67814300  0.53122000  1
  Ni  Ni43  1  0.67814300  0.53122000  0.85307700  1
  Ni  Ni44  1  0.53122000  0.85307700  0.67814300  1
  Ni  Ni45  1  0.85307700  0.53122000  0.67814300  1
  Ni  Ni46  1  0.67814300  0.85307700  0.53122000  1
  Ni  Ni47  1  0.53122000  0.67814300  0.85307700  1
  Ni  Ni48  1  0.85848700  0.85848700  0.00000000  1
  Ni  Ni49  1  0.14151300  0.00000000  0.14151300  1
  Ni  Ni50  1  0.00000000  0.14151300  0.14151300  1
  Ni  Ni51  1  0.14151300  0.14151300  0.00000000  1
  Ni  Ni52  1  0.85848700  0.00000000  0.85848700  1
  Ni  Ni53  1  0.00000000  0.85848700  0.85848700  1
  Ni  Ni54  1  0.75000000  0.25000000  0.50000000  1
  Ni  Ni55  1  0.75000000  0.50000000  0.25000000  1
  Ni  Ni56  1  0.50000000  0.25000000  0.75000000  1
  Ni  Ni57  1  0.25000000  0.50000000  0.75000000  1
  Ni  Ni58  1  0.25000000  0.75000000  0.50000000  1
  Ni  Ni59  1  0.50000000  0.75000000  0.25000000  1
  C  C0  1  0.71157200  0.71157200  0.00000000  1
  C  C1  1  0.28842800  0.00000000  0.28842800  1
  C  C2  1  0.00000000  0.28842800  0.28842800  1
  C  C3  1  0.28842800  0.28842800  0.00000000  1
  C  C4  1  0.71157200  0.00000000  0.71157200  1
  C  C5  1  0.00000000  0.71157200  0.71157200  1
loop_
_geom_bond_atom_site_label_1
_geom_bond_atom_site_label_2
_geom_bond_distance
_geom_bond_site_symmetry_2
Ni0 Ni15 2.300036 1_555
Ni0 Ni14 2.379722 1_565
Ni0 Ni13 2.379722 1_455
Ni0 Ni39 2.441821 1_555
Ni0 Ni42 2.441821 1_455
Ni0 Ni26 2.511117 1_555
Ni0 Ni29 2.511117 1_455
Ni0 Ni55 2.631101 1_455
Ni0 Ni58 2.631101 1_555
Ni0 Y0 2.934701 1_565
Ni0 Y4 2.983905 1_565
Ni0 Y10 3.275517 1_555
Ni1 Ni22 2.300036 1_555
Ni1 Ni14 2.379722 1_555
Ni1 Ni12 2.379722 1_555
Ni1 Ni35 2.441830 1_555
Ni1 Ni37 2.441830 1_555
Ni1 Ni24 2.511109 1_555
Ni1 Ni28 2.511109 1_555
Ni1 Ni57 2.631101 1_555
Ni1 Ni56 2.631101 1_555
Ni1 Y0 2.934695 1_555
Ni1 Y4 2.983911 1_555
Ni1 Y8 3.275523 1_556
Ni2 Ni20 2.300036 1_555
Ni2 Ni46 2.441821 1_545
Ni2 Ni32 2.441821 1_555
Ni2 Ni27 2.511117 1_555
Ni2 Ni25 2.511117 1_545
Ni2 Ni59 2.631101 1_545
Ni2 Ni54 2.631101 1_555
Ni2 Y0 2.934701 1_655
Ni2 Y4 2.983905 1_655
Ni2 Y9 3.275517 1_555
Ni3 Ni45 2.441821 1_455
Ni3 Ni36 2.441821 1_555
Ni3 Ni35 2.511117 1_555
Ni3 Ni32 2.511117 1_455
Ni3 Ni57 2.631101 1_555
Ni3 Ni54 2.631101 1_455
Ni3 Y1 2.934701 1_556
Ni3 Y5 2.983905 1_556
Ni3 Y10 3.275517 1_555
Ni4 Ni43 2.441821 1_554
Ni4 Ni55 2.631101 1_555
Ni4 Ni56 2.631101 1_554
Ni4 Y1 2.934701 1_655
Ni4 Y5 2.983905 1_655
Ni4 Y8 3.275517 1_555
Ni5 Ni58 2.631101 1_555
Ni5 Ni59 2.631101 1_555
Ni5 Y1 2.934695 1_555
Ni5 Y5 2.983911 1_555
Ni5 Y9 3.275523 1_565
Ni6 Y2 2.934695 1_555
Ni6 Y6 2.983911 1_555
Ni6 Y10 3.275523 1_655
Ni7 Y2 2.934701 1_565
Ni7 Y6 2.983905 1_565
Ni7 Y8 3.275517 1_555
Ni8 Y2 2.934701 1_556
Ni8 Y6 2.983905 1_556
Ni8 Y9 3.275517 1_555
Ni9 Y3 2.934691 1_555
Ni9 Y7 2.983899 1_555
Ni9 Y10 3.275527 1_555
Ni10 Ni13 2.300036 1_555
Ni10 Ni23 2.379712 1_555
Ni10 Ni21 2.379712 1_555
Ni10 Ni31 2.441824 1_555
Ni10 Ni41 2.441824 1_555
Ni10 Ni42 2.511115 1_555
Ni10 Ni46 2.511115 1_555
Ni10 Ni59 2.631107 1_555
Ni10 Ni55 2.631107 1_555
Ni10 Y3 2.934691 1_555
Ni10 Y7 2.983899 1_555
Ni10 Y8 3.275527 1_555
Ni11 Ni17 2.300036 1_555
Ni11 Ni22 2.379712 1_555
Ni11 Ni21 2.379712 1_555
Ni11 Ni38 2.441824 1_555
Ni11 Ni28 2.441824 1_555
Ni11 Ni43 2.511115 1_555
Ni11 Ni45 2.511115 1_555
Ni11 Ni56 2.631107 1_555
Ni11 Ni54 2.631107 1_555
Ni11 Y3 2.934691 1_555
Ni11 Y7 2.983899 1_555
Ni11 Y9 3.275527 1_555
Ni12 Ni3 2.300036 1_555
Ni12 Ni2 2.379722 1_455
Ni12 Ni27 2.441821 1_455
Ni12 Ni24 2.441821 1_555
Ni12 Ni35 2.511117 1_555
Ni12 Ni32 2.511117 1_455
Ni12 Ni54 2.631101 1_455
Ni12 Ni57 2.631101 1_555
Ni12 Y4 2.934701 1_555
Ni12 Y0 2.983905 1_555
Ni12 Y10 3.275517 1_555
Ni13 Ni2 2.379722 1_565
Ni13 Ni25 2.441830 1_555
Ni13 Ni29 2.441830 1_555
Ni13 Ni46 2.511109 1_555
Ni13 Ni42 2.511109 1_555
Ni13 Ni55 2.631101 1_555
Ni13 Ni59 2.631101 1_555
Ni13 Y4 2.934695 1_665
Ni13 Y0 2.983911 1_665
Ni13 Y8 3.275523 1_555
Ni14 Ni8 2.300036 1_555
Ni14 Ni26 2.441821 1_545
Ni14 Ni28 2.441821 1_555
Ni14 Ni37 2.511117 1_555
Ni14 Ni39 2.511117 1_545
Ni14 Ni56 2.631101 1_555
Ni14 Ni58 2.631101 1_545
Ni14 Y4 2.934701 1_555
Ni14 Y0 2.983905 1_555
Ni14 Y9 3.275517 1_555
Ni15 Ni4 2.379722 1_455
Ni15 Ni5 2.379722 1_555
Ni15 Ni30 2.441821 1_455
Ni15 Ni33 2.441821 1_555
Ni15 Ni26 2.511117 1_555
Ni15 Ni29 2.511117 1_455
Ni15 Ni55 2.631101 1_455
Ni15 Ni58 2.631101 1_555
Ni15 Y5 2.934701 1_555
Ni15 Y1 2.983905 1_555
Ni15 Y10 3.275517 1_555
Ni16 Ni7 2.300036 1_555
Ni16 Ni3 2.379722 1_554
Ni16 Ni5 2.379722 1_555
Ni16 Ni31 2.441821 1_555
Ni16 Ni35 2.441821 1_554
Ni16 Ni40 2.511117 1_555
Ni16 Ni36 2.511117 1_554
Ni16 Ni57 2.631101 1_554
Ni16 Ni59 2.631101 1_555
Ni16 Y5 2.934701 1_555
Ni16 Y1 2.983905 1_555
Ni16 Y8 3.275517 1_555
Ni17 Ni3 2.379722 1_655
Ni17 Ni4 2.379722 1_556
Ni17 Ni34 2.441830 1_555
Ni17 Ni32 2.441830 1_555
Ni17 Ni43 2.511109 1_555
Ni17 Ni45 2.511109 1_555
Ni17 Ni56 2.631101 1_555
Ni17 Ni54 2.631101 1_555
Ni17 Y5 2.934695 1_656
Ni17 Y1 2.983911 1_656
Ni17 Y9 3.275523 1_555
Ni18 Ni9 2.300036 1_555
Ni18 Ni8 2.379722 1_565
Ni18 Ni7 2.379722 1_556
Ni18 Ni36 2.441830 1_555
Ni18 Ni39 2.441830 1_555
Ni18 Ni44 2.511109 1_555
Ni18 Ni47 2.511109 1_555
Ni18 Ni58 2.631101 1_555
Ni18 Ni57 2.631101 1_555
Ni18 Y6 2.934695 1_566
Ni18 Y2 2.983911 1_566
Ni18 Y10 3.275523 1_555
Ni19 Ni4 2.300036 1_555
Ni19 Ni8 2.379722 1_554
Ni19 Ni6 2.379722 1_555
Ni19 Ni37 2.441821 1_554
Ni19 Ni41 2.441821 1_555
Ni19 Ni30 2.511117 1_555
Ni19 Ni34 2.511117 1_554
Ni19 Ni56 2.631101 1_554
Ni19 Ni55 2.631101 1_555
Ni19 Y6 2.934701 1_555
Ni19 Y2 2.983905 1_555
Ni19 Y8 3.275517 1_555
Ni20 Ni7 2.379722 1_545
Ni20 Ni6 2.379722 1_555
Ni20 Ni40 2.441821 1_545
Ni20 Ni38 2.441821 1_555
Ni20 Ni27 2.511117 1_555
Ni20 Ni25 2.511117 1_545
Ni20 Ni54 2.631101 1_555
Ni20 Ni59 2.631101 1_545
Ni20 Y6 2.934701 1_555
Ni20 Y2 2.983905 1_555
Ni20 Y9 3.275517 1_555
Ni21 Ni6 2.300036 1_555
Ni21 Ni45 2.441824 1_555
Ni21 Ni42 2.441824 1_555
Ni21 Ni41 2.511115 1_555
Ni21 Ni38 2.511115 1_555
Ni21 Ni54 2.631107 1_555
Ni21 Ni55 2.631107 1_555
Ni21 Y7 2.934691 1_555
Ni21 Y3 2.983899 1_555
Ni21 Y10 3.275527 1_655
Ni22 Ni9 2.379712 1_555
Ni22 Ni47 2.441824 1_555
Ni22 Ni43 2.441824 1_555
Ni22 Ni28 2.511115 1_555
Ni22 Ni24 2.511115 1_555
Ni22 Ni57 2.631107 1_555
Ni22 Ni56 2.631107 1_555
Ni22 Y7 2.934691 1_555
Ni22 Y3 2.983899 1_555
Ni22 Y8 3.275527 1_556
Ni23 Ni5 2.300036 1_555
Ni23 Ni9 2.379712 1_555
Ni23 Ni44 2.441824 1_555
Ni23 Ni46 2.441824 1_555
Ni23 Ni33 2.511115 1_555
Ni23 Ni31 2.511115 1_555
Ni23 Ni59 2.631107 1_555
Ni23 Ni58 2.631107 1_555
Ni23 Y7 2.934691 1_555
Ni23 Y3 2.983899 1_555
Ni23 Y9 3.275527 1_565
Ni24 Ni9 2.441824 1_555
Ni24 Ni57 2.565073 1_555
Ni24 Y0 2.852134 1_555
Ni24 Y7 2.852134 1_555
Ni24 Y10 2.877884 1_555
Ni25 Ni7 2.441821 1_555
Ni25 Ni59 2.565073 1_555
Ni25 Y0 2.852134 1_665
Ni25 Y6 2.852134 1_565
Ni25 Y8 2.877884 1_555
Ni26 Ni5 2.441830 1_555
Ni26 Ni58 2.565073 1_555
Ni26 Y5 2.852134 1_555
Ni26 Y0 2.852134 1_565
Ni26 Y9 2.877884 1_565
Ni27 Ni6 2.441830 1_555
Ni27 Ni54 2.565073 1_555
Ni27 Y6 2.852134 1_555
Ni27 Y0 2.852134 1_655
Ni27 Y10 2.877884 1_655
Ni28 Ni56 2.565073 1_555
Ni28 Y0 2.852134 1_555
Ni28 Y7 2.852134 1_555
Ni28 Y9 2.877884 1_555
Ni29 Ni4 2.441821 1_555
Ni29 Ni55 2.565073 1_555
Ni29 Y0 2.852134 1_665
Ni29 Y5 2.852134 1_655
Ni29 Y8 2.877884 1_555
Ni30 Ni6 2.441830 1_555
Ni30 Ni4 2.511117 1_555
Ni30 Ni55 2.565073 1_555
Ni30 Y1 2.852134 1_655
Ni30 Y6 2.852134 1_555
Ni30 Y10 2.877884 1_655
Ni31 Ni5 2.511109 1_555
Ni31 Ni59 2.565073 1_555
Ni31 Y1 2.852134 1_555
Ni31 Y7 2.852134 1_555
Ni31 Y8 2.877884 1_555
Ni32 Ni54 2.565073 1_555
Ni32 Y1 2.852134 1_656
Ni32 Y4 2.852134 1_655
Ni32 Y9 2.877884 1_555
Ni33 Ni9 2.441824 1_555
Ni33 Ni5 2.511109 1_555
Ni33 Ni58 2.565073 1_555
Ni33 Y1 2.852134 1_555
Ni33 Y7 2.852134 1_555
Ni33 Y10 2.877884 1_555
Ni34 Ni8 2.441821 1_555
Ni34 Ni4 2.511117 1_556
Ni34 Ni56 2.565073 1_555
Ni34 Y1 2.852134 1_656
Ni34 Y6 2.852134 1_556
Ni34 Y9 2.877884 1_555
Ni35 Ni57 2.565073 1_555
Ni35 Y4 2.852134 1_555
Ni35 Y1 2.852134 1_556
Ni35 Y8 2.877884 1_556
Ni36 Ni7 2.511117 1_556
Ni36 Ni57 2.565073 1_555
Ni36 Y2 2.852134 1_566
Ni36 Y5 2.852134 1_556
Ni36 Y10 2.877884 1_555
Ni37 Ni8 2.511117 1_555
Ni37 Ni56 2.565073 1_555
Ni37 Y4 2.852134 1_555
Ni37 Y2 2.852134 1_556
Ni37 Y8 2.877884 1_556
Ni38 Ni6 2.511109 1_555
Ni38 Ni54 2.565073 1_555
Ni38 Y2 2.852134 1_555
Ni38 Y7 2.852134 1_555
Ni38 Y9 2.877884 1_555
Ni39 Ni8 2.511117 1_565
Ni39 Ni58 2.565073 1_555
Ni39 Y2 2.852134 1_566
Ni39 Y4 2.852134 1_565
Ni39 Y10 2.877884 1_555
Ni40 Ni5 2.441830 1_555
Ni40 Ni7 2.511117 1_555
Ni40 Ni59 2.565073 1_555
Ni40 Y5 2.852134 1_555
Ni40 Y2 2.852134 1_565
Ni40 Y9 2.877884 1_565
Ni41 Ni6 2.511109 1_555
Ni41 Ni55 2.565073 1_555
Ni41 Y2 2.852134 1_555
Ni41 Y7 2.852134 1_555
Ni41 Y8 2.877884 1_555
Ni42 Ni55 2.565073 1_555
Ni42 Y4 2.852134 1_665
Ni42 Y3 2.852134 1_555
Ni42 Y10 2.877884 1_655
Ni43 Ni56 2.565073 1_555
Ni43 Y3 2.852134 1_555
Ni43 Y5 2.852134 1_656
Ni43 Y8 2.877884 1_556
Ni44 Ni8 2.441821 1_565
Ni44 Ni9 2.511115 1_555
Ni44 Ni58 2.565073 1_555
Ni44 Y3 2.852134 1_555
Ni44 Y6 2.852134 1_566
Ni44 Y9 2.877884 1_565
Ni45 Ni54 2.565073 1_555
Ni45 Y3 2.852134 1_555
Ni45 Y5 2.852134 1_656
Ni45 Y10 2.877884 1_655
Ni46 Ni59 2.565073 1_555
Ni46 Y4 2.852134 1_665
Ni46 Y3 2.852134 1_555
Ni46 Y9 2.877884 1_565
Ni47 Ni7 2.441821 1_556
Ni47 Ni9 2.511115 1_555
Ni47 Ni57 2.565073 1_555
Ni47 Y3 2.852134 1_555
Ni47 Y6 2.852134 1_566
Ni47 Y8 2.877884 1_556
Ni48 Y0 2.987618 1_665
Ni48 Y3 2.987618 1_554
Ni48 Y6 2.987618 1_565
Ni48 Y5 2.987618 1_655
Ni49 Y0 2.987618 1_555
Ni49 Y7 2.987618 1_555
Ni49 Y2 2.987618 1_555
Ni49 Y5 2.987618 1_545
Ni50 Y0 2.987618 1_555
Ni50 Y7 2.987618 1_555
Ni50 Y1 2.987618 1_555
Ni50 Y6 2.987618 1_455
Ni51 Y4 2.987618 1_554
Ni51 Y7 2.987618 1_555
Ni51 Y1 2.987618 1_555
Ni51 Y2 2.987618 1_555
Ni52 Y3 2.987618 1_545
Ni52 Y6 2.987618 1_556
Ni52 Y1 2.987618 1_656
Ni52 Y4 2.987618 1_655
Ni53 Y2 2.987618 1_566
Ni53 Y4 2.987618 1_565
Ni53 Y3 2.987618 1_455
Ni53 Y5 2.987618 1_556
Ni54 Ni6 2.631101 1_555
Ni54 Y10 3.115752 1_655
Ni54 Y9 3.115752 1_555
Ni55 Ni6 2.631101 1_555
Ni55 Y8 3.115752 1_555
Ni55 Y10 3.115752 1_655
Ni56 Ni8 2.631101 1_555
Ni56 Y8 3.115752 1_556
Ni56 Y9 3.115752 1_555
Ni57 Ni7 2.631101 1_556
Ni57 Ni9 2.631107 1_555
Ni57 Y10 3.115752 1_555
Ni57 Y8 3.115752 1_556
Ni58 Ni8 2.631101 1_565
Ni58 Ni9 2.631107 1_555
Ni58 Y10 3.115752 1_555
Ni58 Y9 3.115752 1_565
Ni59 Ni7 2.631101 1_555
Ni59 Y8 3.115752 1_555
Ni59 Y9 3.115752 1_565
C0 Ni48 1.831003 1_555
C0 Ni29 1.877901 1_555
C0 Ni25 1.877901 1_555
C0 Ni43 1.877901 1_554
C0 Ni47 1.877901 1_554
C0 Y8 2.636824 1_555
C1 Ni49 1.831003 1_555
C1 Ni28 1.877901 1_555
C1 Ni40 1.877901 1_545
C1 Ni38 1.877901 1_555
C1 Ni26 1.877901 1_545
C1 Y9 2.636824 1_555
C2 Ni50 1.831003 1_555
C2 Ni33 1.877901 1_555
C2 Ni24 1.877901 1_555
C2 Ni30 1.877901 1_455
C2 Ni27 1.877901 1_455
C2 Y10 2.636824 1_555
C3 Ni51 1.831003 1_555
C3 Ni31 1.877901 1_555
C3 Ni41 1.877901 1_555
C3 Ni35 1.877901 1_554
C3 Ni37 1.877901 1_554
C3 Y8 2.636824 1_555
C4 Ni52 1.831003 1_555
C4 Ni32 1.877901 1_555
C4 Ni34 1.877901 1_555
C4 Ni46 1.877901 1_545
C4 Ni44 1.877901 1_545
C4 Y9 2.636824 1_555
C5 Ni53 1.831003 1_555
C5 Ni39 1.877901 1_555
C5 Ni36 1.877901 1_555
C5 Ni42 1.877901 1_455
C5 Ni45 1.877901 1_455
C5 Y10 2.636824 1_555
