# generated using pymatgen
data_K2MoSeO6
_symmetry_space_group_name_H-M   'P 1'
_cell_length_a   15.31453257
_cell_length_b   6.07754060
_cell_length_c   7.55668904
_cell_angle_alpha   67.93171252
_cell_angle_beta   90.00000000
_cell_angle_gamma   90.00000000
_symmetry_Int_Tables_number   1
_chemical_formula_structural   K2MoSeO6
_chemical_formula_sum   'K8 Mo4 Se4 O24'
_cell_volume   651.80777940
_cell_formula_units_Z   4
loop_
 _symmetry_equiv_pos_site_id
 _symmetry_equiv_pos_as_xyz
  1  'x, y, z'
loop_
 _atom_site_type_symbol
 _atom_site_label
 _atom_site_symmetry_multiplicity
 _atom_site_fract_x
 _atom_site_fract_y
 _atom_site_fract_z
 _atom_site_occupancy
  K  K0  1  0.05531987  0.89106331  0.31370758  1
  K  K1  1  0.19841108  0.35570608  0.38940395  1
  K  K2  1  0.94468013  0.10893669  0.68629242  1
  K  K3  1  0.44468013  0.89106331  0.81370758  1
  K  K4  1  0.80158892  0.64429392  0.61059605  1
  K  K5  1  0.69841108  0.64429392  0.11059605  1
  K  K6  1  0.55531987  0.10893669  0.18629242  1
  K  K7  1  0.30158892  0.35570608  0.88940395  1
  Mo  Mo0  1  0.93714291  0.46481493  0.18479437  1
  Mo  Mo1  1  0.43714291  0.53518507  0.31520563  1
  Mo  Mo2  1  0.06285709  0.53518507  0.81520563  1
  Mo  Mo3  1  0.56285709  0.46481493  0.68479437  1
  Se  Se0  1  0.82678180  0.09827117  0.11982839  1
  Se  Se1  1  0.67321820  0.09827117  0.61982839  1
  Se  Se2  1  0.17321820  0.90172883  0.88017161  1
  Se  Se3  1  0.32678180  0.90172883  0.38017161  1
  O  O0  1  0.22858069  0.94938469  0.27848937  1
  O  O1  1  0.02235020  0.37507729  0.34920737  1
  O  O2  1  0.13707263  0.40933127  0.70738186  1
  O  O3  1  0.33634856  0.59439424  0.49441610  1
  O  O4  1  0.16365144  0.59439424  0.99441610  1
  O  O5  1  0.51935276  0.71253094  0.49218925  1
  O  O6  1  0.27141931  0.94938469  0.77848937  1
  O  O7  1  0.01935276  0.28746906  0.00781075  1
  O  O8  1  0.52235020  0.62492271  0.15079263  1
  O  O9  1  0.60465832  0.10442928  0.80346954  1
  O  O10  1  0.39534168  0.89557072  0.19653046  1
  O  O11  1  0.98064724  0.71253094  0.99218925  1
  O  O12  1  0.48064724  0.28746906  0.50781075  1
  O  O13  1  0.47764980  0.37507729  0.84920737  1
  O  O14  1  0.77141931  0.05061531  0.72151063  1
  O  O15  1  0.89534168  0.10442928  0.30346954  1
  O  O16  1  0.63707263  0.59066873  0.79261814  1
  O  O17  1  0.36292737  0.40933127  0.20738186  1
  O  O18  1  0.97764980  0.62492271  0.65079263  1
  O  O19  1  0.72858069  0.05061531  0.22151063  1
  O  O20  1  0.86292737  0.59066873  0.29261814  1
  O  O21  1  0.83634856  0.40560576  0.00558390  1
  O  O22  1  0.10465832  0.89557072  0.69653046  1
  O  O23  1  0.66365144  0.40560576  0.50558390  1
loop_
_geom_bond_atom_site_label_1
_geom_bond_atom_site_label_2
_geom_bond_distance
_geom_bond_site_symmetry_2
K0 O0 2.676968 1_555
K0 O7 2.695591 1_565
K0 O18 2.724632 1_455
K0 O15 2.759455 1_465
K0 O22 2.999990 1_555
K0 O1 3.086876 1_555
K0 O1 3.094020 1_565
K0 O11 3.220096 1_454
K1 O1 2.710947 1_555
K1 O2 2.711239 1_555
K1 O17 2.830045 1_555
K1 O4 2.836053 1_554
K1 O3 2.839277 1_555
K1 O0 2.927342 1_545
K1 O22 3.223552 1_545
K2 O14 2.676968 1_555
K2 O11 2.695591 1_545
K2 O1 2.724632 1_655
K2 O22 2.759455 1_645
K2 O15 2.999990 1_555
K2 O18 3.086876 1_555
K2 O18 3.094020 1_545
K2 O7 3.220096 1_656
K3 O6 2.676968 1_555
K3 O12 2.695591 1_565
K3 O8 2.724632 1_556
K3 O9 2.759455 1_565
K3 O10 2.999990 1_556
K3 O13 3.086876 1_555
K3 O13 3.094020 1_565
K3 O5 3.220096 1_555
K4 O18 2.710947 1_555
K4 O20 2.711239 1_555
K4 O16 2.830045 1_555
K4 O21 2.836053 1_556
K4 O23 2.839277 1_555
K4 O14 2.927342 1_565
K4 O15 3.223552 1_565
K5 O8 2.710947 1_555
K5 O16 2.711239 1_554
K5 O20 2.830045 1_555
K5 O23 2.836053 1_555
K5 O21 2.839277 1_555
K5 O19 2.927342 1_565
K5 O9 3.223552 1_564
K6 O19 2.676968 1_555
K6 O5 2.695591 1_545
K6 O13 2.724632 1_554
K6 O10 2.759455 1_545
K6 O9 2.999990 1_554
K6 O8 3.086876 1_555
K6 O8 3.094020 1_545
K6 O12 3.220096 1_555
K7 O13 2.710947 1_555
K7 O17 2.711239 1_556
K7 O2 2.830045 1_555
K7 O3 2.836053 1_555
K7 O4 2.839277 1_555
K7 O6 2.927342 1_545
K7 O10 3.223552 1_546
Mo0 O20 1.734657 1_555
Mo0 O1 1.742032 1_655
Mo0 O11 1.783892 1_554
Mo0 O15 2.129632 1_555
Mo0 O21 2.170804 1_555
Mo0 O7 2.370368 1_655
Mo1 O17 1.734657 1_555
Mo1 O8 1.742032 1_555
Mo1 O12 1.783892 1_555
Mo1 O10 2.129632 1_555
Mo1 O3 2.170804 1_555
Mo1 O5 2.370368 1_555
Mo2 O2 1.734657 1_555
Mo2 O18 1.742032 1_455
Mo2 O7 1.783892 1_556
Mo2 O22 2.129632 1_555
Mo2 O4 2.170804 1_555
Mo2 O11 2.370368 1_455
Mo3 O16 1.734657 1_555
Mo3 O13 1.742032 1_555
Mo3 O5 1.783892 1_555
Mo3 O9 2.129632 1_555
Mo3 O23 2.170804 1_555
Mo3 O12 2.370368 1_555
O0 Se3 1.663970 1_555
O3 Se3 1.744678 1_555
O4 Se2 1.744678 1_555
O6 Se2 1.663970 1_555
O9 Se1 1.751746 1_555
O10 Se3 1.751746 1_555
O14 Se1 1.663970 1_555
O15 Se0 1.751746 1_555
O19 Se0 1.663970 1_555
O21 Se0 1.744678 1_555
O22 Se2 1.751746 1_555
O23 Se1 1.744678 1_555
