# generated using pymatgen
data_K3Ta2S11
_symmetry_space_group_name_H-M   'P 1'
_cell_length_a   7.63345851
_cell_length_b   8.81592314
_cell_length_c   24.66286444
_cell_angle_alpha   90.00000000
_cell_angle_beta   99.27075487
_cell_angle_gamma   90.00000000
_symmetry_Int_Tables_number   1
_chemical_formula_structural   K3Ta2S11
_chemical_formula_sum   'K12 Ta8 S44'
_cell_volume   1638.03268792
_cell_formula_units_Z   4
loop_
 _symmetry_equiv_pos_site_id
 _symmetry_equiv_pos_as_xyz
  1  'x, y, z'
loop_
 _atom_site_type_symbol
 _atom_site_label
 _atom_site_symmetry_multiplicity
 _atom_site_fract_x
 _atom_site_fract_y
 _atom_site_fract_z
 _atom_site_occupancy
  K  K0  1  0.69890401  0.76153316  0.49038449  1
  K  K1  1  0.30109599  0.26153316  0.00961551  1
  K  K2  1  0.76687013  0.24362824  0.67049853  1
  K  K3  1  0.30109599  0.23846684  0.50961551  1
  K  K4  1  0.69890401  0.73846684  0.99038449  1
  K  K5  1  0.73562904  0.70894327  0.18453090  1
  K  K6  1  0.73562904  0.79105673  0.68453090  1
  K  K7  1  0.23312887  0.74362824  0.82950147  1
  K  K8  1  0.76687013  0.25637276  0.17049853  1
  K  K9  1  0.26437096  0.20894327  0.31546910  1
  K  K10  1  0.26437096  0.29105673  0.81546910  1
  K  K11  1  0.23312887  0.75637176  0.32950147  1
  Ta  Ta0  1  0.72517261  0.32776775  0.92211258  1
  Ta  Ta1  1  0.27482739  0.67223225  0.07788742  1
  Ta  Ta2  1  0.82494887  0.46082620  0.33008731  1
  Ta  Ta3  1  0.27482739  0.82776775  0.57788742  1
  Ta  Ta4  1  0.82494887  0.03917380  0.83008731  1
  Ta  Ta5  1  0.17505113  0.53917380  0.66991269  1
  Ta  Ta6  1  0.72517261  0.17223225  0.42211258  1
  Ta  Ta7  1  0.17505113  0.96082620  0.16991269  1
  S  S0  1  0.50627452  0.51434570  0.08490773  1
  S  S1  1  0.67351725  0.37671474  0.48424655  1
  S  S2  1  -0.00180824  0.97485993  0.23350922  1
  S  S3  1  0.24918861  0.67864834  0.17784639  1
  S  S4  1  0.46941137  0.53242845  0.72642329  1
  S  S5  1  0.50627452  0.98565430  0.58490773  1
  S  S6  1  0.06377289  0.95267491  0.62755060  1
  S  S7  1  0.32648275  0.62328526  0.51575345  1
  S  S8  1  0.93622711  0.04732509  0.37244940  1
  S  S9  1  0.93622711  0.45267491  0.87244940  1
  S  S10  1  0.97848835  0.63141254  0.58979133  1
  S  S11  1  0.67351725  0.12328526  0.98424655  1
  S  S12  1  0.75081139  0.32135166  0.82215361  1
  S  S13  1  0.43440569  0.58762243  0.59752547  1
  S  S14  1  0.00180824  0.47485993  0.26649078  1
  S  S15  1  0.00180824  0.02514007  0.76649078  1
  S  S16  1  0.46941137  0.96757155  0.22642329  1
  S  S17  1  -0.00180824  0.52514007  0.73350922  1
  S  S18  1  0.02610088  0.10008332  0.09118645  1
  S  S19  1  0.62606153  0.82422468  0.80584665  1
  S  S20  1  0.91263026  0.08624398  0.50786598  1
  S  S21  1  0.43440569  0.91237757  0.09752547  1
  S  S22  1  0.91263026  0.41375602  0.00786598  1
  S  S23  1  0.06377289  0.54732509  0.12755060  1
  S  S24  1  0.08736974  0.91375602  0.49213402  1
  S  S25  1  0.02151165  0.36858746  0.41020867  1
  S  S26  1  0.53058863  0.46757155  0.27357671  1
  S  S27  1  0.32648275  0.87671474  0.01575345  1
  S  S28  1  0.75081139  0.17864834  0.32215361  1
  S  S29  1  0.37393847  0.17577532  0.19415335  1
  S  S30  1  0.24918861  0.82135166  0.67784639  1
  S  S31  1  0.02610088  0.39991668  0.59118645  1
  S  S32  1  0.56559431  0.08762243  0.90247453  1
  S  S33  1  0.62606153  0.67577532  0.30584665  1
  S  S34  1  0.49372548  0.01434570  0.41509227  1
  S  S35  1  0.97848835  0.86858746  0.08979133  1
  S  S36  1  0.37393847  0.32422468  0.69415335  1
  S  S37  1  0.53058863  0.03242845  0.77357671  1
  S  S38  1  0.02151165  0.13141254  0.91020867  1
  S  S39  1  0.08736974  0.58624398  0.99213402  1
  S  S40  1  0.49372548  0.48565430  0.91509227  1
  S  S41  1  0.97389912  0.89991668  0.90881355  1
  S  S42  1  0.56559431  0.41237757  0.40247453  1
  S  S43  1  0.97389912  0.60008332  0.40881255  1
loop_
_geom_bond_atom_site_label_1
_geom_bond_atom_site_label_2
_geom_bond_distance
_geom_bond_site_symmetry_2
K0 S34 3.151441 1_565
K0 S10 3.193036 1_555
K0 S7 3.245282 1_555
K0 S24 3.248813 1_655
K0 S20 3.288704 1_565
K0 S1 3.400040 1_555
K0 S43 3.440983 1_555
K0 S5 3.550367 1_555
K1 S0 3.151441 1_555
K1 S38 3.193036 1_554
K1 S11 3.245282 1_554
K1 S22 3.248813 1_455
K1 S39 3.288704 1_554
K1 S27 3.400040 1_545
K1 S18 3.440966 1_555
K1 S40 3.550367 1_554
K2 S36 3.225767 1_555
K2 S17 3.287569 1_655
K2 S31 3.299620 1_655
K2 S15 3.341139 1_655
K2 S5 3.497491 1_545
K2 S6 3.689350 1_645
K3 S5 3.151441 1_545
K3 S25 3.193036 1_555
K3 S1 3.245282 1_555
K3 S20 3.248813 1_455
K3 S24 3.288704 1_545
K3 S7 3.400040 1_555
K3 S31 3.440966 1_555
K3 S34 3.550367 1_555
K4 S40 3.151441 1_555
K4 S35 3.193036 1_556
K4 S27 3.245282 1_556
K4 S39 3.248813 1_655
K4 S22 3.288704 1_556
K4 S11 3.400040 1_565
K4 S41 3.440966 1_555
K4 S0 3.550367 1_556
K5 S2 3.192473 1_655
K5 S33 3.247052 1_555
K5 S0 3.264836 1_555
K5 S16 3.327501 1_555
K5 S14 3.339128 1_655
K5 S23 3.378389 1_655
K5 S21 3.393872 1_555
K5 S35 3.503242 1_555
K5 S26 3.592803 1_555
K5 S3 3.699905 1_555
K6 S17 3.192473 1_655
K6 S19 3.247052 1_555
K6 S5 3.264836 1_555
K6 S4 3.327501 1_555
K6 S15 3.339128 1_665
K6 S6 3.378389 1_655
K6 S13 3.393872 1_555
K6 S10 3.503242 1_555
K6 S37 3.592803 1_565
K6 S30 3.699905 1_555
K7 S19 3.225775 1_555
K7 S15 3.287565 1_565
K7 S41 3.299614 1_455
K7 S17 3.341135 1_555
K7 S40 3.497494 1_555
K7 S9 3.689345 1_455
K8 S29 3.225769 1_555
K8 S2 3.287576 1_645
K8 S18 3.299623 1_655
K8 S14 3.341134 1_655
K8 S0 3.497485 1_555
K8 S23 3.689344 1_655
K9 S14 3.192473 1_555
K9 S29 3.247052 1_555
K9 S34 3.264836 1_555
K9 S26 3.327501 1_555
K9 S2 3.339128 1_545
K9 S8 3.378389 1_455
K9 S42 3.393872 1_555
K9 S25 3.503242 1_555
K9 S16 3.592803 1_545
K9 S28 3.699905 1_555
K10 S15 3.192473 1_555
K10 S36 3.247052 1_555
K10 S40 3.264836 1_555
K10 S37 3.327501 1_555
K10 S17 3.339128 1_555
K10 S9 3.378389 1_455
K10 S32 3.393872 1_555
K10 S38 3.503242 1_555
K10 S4 3.592803 1_555
K10 S12 3.699905 1_555
K11 S33 3.225775 1_555
K11 S14 3.287565 1_555
K11 S43 3.299597 1_455
K11 S2 3.341135 1_555
K11 S34 3.497494 1_565
K11 S8 3.689345 1_465
S0 Ta1 2.233881 1_555
S1 S42 2.075917 1_555
S1 Ta6 2.438884 1_555
S2 Ta7 2.231660 1_555
S3 Ta1 2.504903 1_555
S3 Ta7 2.551729 1_555
S4 Ta5 2.446610 1_555
S5 Ta3 2.233881 1_555
S6 Ta3 2.438066 1_555
S7 Ta3 2.438884 1_555
S8 Ta6 2.438066 1_555
S9 Ta0 2.438066 1_555
S10 S31 2.072273 1_655
S10 Ta5 2.421150 1_655
S10 Ta3 2.900650 1_655
S11 S32 2.075917 1_555
S11 Ta0 2.438884 1_555
S12 S9 2.077646 1_555
S12 Ta0 2.504903 1_555
S12 Ta4 2.551729 1_555
S13 S7 2.075917 1_555
S13 Ta3 2.451624 1_555
S13 Ta5 2.903091 1_555
S14 Ta2 2.231660 1_455
S15 Ta4 2.231660 1_455
S16 S29 2.084886 1_565
S16 Ta7 2.446610 1_555
S17 Ta5 2.231660 1_555
S18 S35 2.072273 1_445
S18 Ta7 2.420444 1_545
S19 S37 2.084886 1_565
S19 Ta4 2.441481 1_565
S20 S24 2.099723 1_645
S20 Ta6 2.473883 1_555
S21 S27 2.075917 1_555
S21 Ta1 2.451624 1_555
S21 Ta7 2.903091 1_555
S22 S39 2.099723 1_654
S22 Ta0 2.473883 1_554
S23 S3 2.077646 1_555
S23 Ta1 2.438066 1_555
S24 Ta3 2.473883 1_555
S25 S43 2.072273 1_455
S25 Ta2 2.421150 1_455
S25 Ta6 2.900650 1_455
S26 S33 2.084886 1_555
S26 Ta2 2.446610 1_555
S27 Ta1 2.438884 1_555
S28 S8 2.077646 1_555
S28 Ta6 2.504903 1_555
S28 Ta2 2.551729 1_555
S29 Ta7 2.441481 1_545
S30 S6 2.077646 1_555
S30 Ta3 2.504903 1_555
S30 Ta5 2.551729 1_555
S31 Ta5 2.420444 1_555
S32 Ta0 2.451624 1_555
S32 Ta4 2.903091 1_555
S33 Ta2 2.441481 1_555
S34 Ta6 2.233881 1_555
S35 Ta7 2.421150 1_655
S35 Ta1 2.900650 1_655
S36 S4 2.084886 1_555
S36 Ta5 2.441481 1_555
S37 Ta4 2.446610 1_555
S38 S41 2.072273 1_445
S38 Ta4 2.421150 1_455
S38 Ta0 2.900650 1_455
S39 Ta1 2.473883 1_556
S40 Ta0 2.233881 1_555
S41 Ta4 2.420444 1_565
S42 Ta6 2.451624 1_555
S42 Ta2 2.903091 1_555
S43 Ta2 2.420426 1_555
