# generated using pymatgen
data_ScAsO4
_symmetry_space_group_name_H-M   'P 1'
_cell_length_a   5.67078758
_cell_length_b   5.67081614
_cell_length_c   5.67081524
_cell_angle_alpha   106.99922378
_cell_angle_beta   107.00145298
_cell_angle_gamma   114.53499435
_symmetry_Int_Tables_number   1
_chemical_formula_structural   ScAsO4
_chemical_formula_sum   'Sc2 As2 O8'
_cell_volume   139.55219608
_cell_formula_units_Z   2
loop_
 _symmetry_equiv_pos_site_id
 _symmetry_equiv_pos_as_xyz
  1  'x, y, z'
loop_
 _atom_site_type_symbol
 _atom_site_label
 _atom_site_symmetry_multiplicity
 _atom_site_fract_x
 _atom_site_fract_y
 _atom_site_fract_z
 _atom_site_occupancy
  Sc  Sc0  1  0.12499611  0.87499153  0.25000459  1
  Sc  Sc1  1  0.87499983  0.12500621  0.74999562  1
  As  As0  1  0.37503016  0.62502489  0.75000626  1
  As  As1  1  0.62493665  0.37496035  0.24997529  1
  O  O0  1  0.19093182  0.62776584  0.93685801  1
  O  O1  1  0.19093182  0.25407380  0.56316597  1
  O  O2  1  0.25406627  0.19091044  0.06315683  1
  O  O3  1  0.80907252  0.37224123  0.06314548  1
  O  O4  1  0.62775657  0.19092287  0.43683470  1
  O  O5  1  0.74594961  0.80909979  0.93684982  1
  O  O6  1  0.80907252  0.74592704  0.43683129  1
  O  O7  1  0.37225613  0.80907801  0.56317712  1
loop_
_geom_bond_atom_site_label_1
_geom_bond_atom_site_label_2
_geom_bond_distance
_geom_bond_site_symmetry_2
As0 O7 1.691916 1_555
As0 O5 1.692070 1_555
As0 O0 1.692230 1_555
As0 O1 1.692235 1_555
As1 O2 1.691846 1_555
As1 O4 1.692004 1_555
As1 O3 1.692291 1_555
As1 O6 1.692296 1_555
O0 Sc0 2.150978 1_556
O0 Sc1 2.311351 1_455
O1 Sc0 2.150978 1_545
O1 Sc1 2.311358 1_455
O2 Sc1 2.150939 1_454
O2 Sc0 2.311371 1_545
O3 Sc1 2.150984 1_554
O3 Sc0 2.311306 1_655
O4 Sc1 2.150951 1_555
O4 Sc0 2.311349 1_545
O5 Sc0 2.150878 1_656
O5 Sc1 2.311329 1_565
O6 Sc1 2.150997 1_565
O6 Sc0 2.311306 1_655
O7 Sc0 2.151030 1_555
O7 Sc1 2.311282 1_565
