# generated using pymatgen
data_Mg2Tl
_symmetry_space_group_name_H-M   'P 1'
_cell_length_a   8.05503885
_cell_length_b   8.05503738
_cell_length_c   3.69830434
_cell_angle_alpha   90.00000000
_cell_angle_beta   90.00000000
_cell_angle_gamma   119.99999392
_symmetry_Int_Tables_number   1
_chemical_formula_structural   Mg2Tl
_chemical_formula_sum   'Mg6 Tl3'
_cell_volume   207.81098691
_cell_formula_units_Z   3
loop_
 _symmetry_equiv_pos_site_id
 _symmetry_equiv_pos_as_xyz
  1  'x, y, z'
loop_
 _atom_site_type_symbol
 _atom_site_label
 _atom_site_symmetry_multiplicity
 _atom_site_fract_x
 _atom_site_fract_y
 _atom_site_fract_z
 _atom_site_occupancy
  Mg  Mg0  1  0.27900692  -0.00000000  0.00000000  1
  Mg  Mg1  1  0.37858100  0.37858100  0.50000000  1
  Mg  Mg2  1  -0.00000000  0.27900692  0.00000000  1
  Mg  Mg3  1  0.62141900  -0.00000000  0.50000000  1
  Mg  Mg4  1  -0.00000000  0.62141900  0.50000000  1
  Mg  Mg5  1  0.72099308  0.72099308  -0.00000000  1
  Tl  Tl0  1  0.33333300  0.66666700  -0.00000000  1
  Tl  Tl1  1  0.00000000  -0.00000000  0.50000000  1
  Tl  Tl2  1  0.66666700  0.33333300  0.00000000  1
loop_
_geom_bond_atom_site_label_1
_geom_bond_atom_site_label_2
_geom_bond_distance
_geom_bond_site_symmetry_2
Mg0 Tl1 2.910365 1_554
Mg0 Tl1 2.910365 1_555
Mg0 Tl0 2.928434 1_545
Mg0 Tl2 2.928440 1_555
Mg0 Mg1 3.303957 1_554
Mg0 Mg1 3.303957 1_555
Mg0 Mg4 3.303957 1_545
Mg0 Mg4 3.303957 1_544
Mg0 Mg3 3.320650 1_555
Mg0 Mg3 3.320650 1_554
Mg1 Tl1 3.049485 1_555
Mg1 Tl0 3.127764 1_556
Mg1 Tl0 3.127764 1_555
Mg1 Tl2 3.127764 1_555
Mg1 Tl2 3.127764 1_556
Mg1 Mg2 3.303957 1_555
Mg1 Mg2 3.303957 1_556
Mg1 Mg5 3.320650 1_555
Mg1 Mg5 3.320650 1_556
Mg2 Tl1 2.910364 1_555
Mg2 Tl1 2.910364 1_554
Mg2 Tl2 2.928435 1_455
Mg2 Tl0 2.928439 1_555
Mg2 Mg3 3.303957 1_455
Mg2 Mg3 3.303957 1_454
Mg2 Mg4 3.320649 1_555
Mg2 Mg4 3.320649 1_554
Mg3 Tl1 3.049485 1_655
Mg3 Tl2 3.127757 1_555
Mg3 Tl2 3.127757 1_556
Mg3 Tl0 3.127760 1_546
Mg3 Tl0 3.127760 1_545
Mg3 Mg5 3.303957 1_546
Mg3 Mg5 3.303957 1_545
Mg4 Tl1 3.049484 1_565
Mg4 Tl0 3.127758 1_556
Mg4 Tl0 3.127758 1_555
Mg4 Tl2 3.127760 1_456
Mg4 Tl2 3.127760 1_455
Mg4 Mg5 3.303957 1_456
Mg4 Mg5 3.303957 1_455
Mg5 Tl1 2.910365 1_665
Mg5 Tl1 2.910365 1_664
Mg5 Tl2 2.928442 1_555
Mg5 Tl0 2.928443 1_555
