# generated using pymatgen
data_LiCoP2O7
_symmetry_space_group_name_H-M   'P 1'
_cell_length_a   6.23604011
_cell_length_b   10.34382803
_cell_length_c   9.05089111
_cell_angle_alpha   64.70023907
_cell_angle_beta   106.64718223
_cell_angle_gamma   94.58829652
_symmetry_Int_Tables_number   1
_chemical_formula_structural   LiCoP2O7
_chemical_formula_sum   'Li4 Co4 P8 O28'
_cell_volume   505.09573364
_cell_formula_units_Z   4
loop_
 _symmetry_equiv_pos_site_id
 _symmetry_equiv_pos_as_xyz
  1  'x, y, z'
loop_
 _atom_site_type_symbol
 _atom_site_label
 _atom_site_symmetry_multiplicity
 _atom_site_fract_x
 _atom_site_fract_y
 _atom_site_fract_z
 _atom_site_occupancy
  Li  Li0  1  0.53515000  0.01829500  0.49774800  1
  Li  Li1  1  0.35800000  0.61783500  0.92509200  1
  Li  Li2  1  0.02504200  0.51149800  0.17361300  1
  Li  Li3  1  0.93456600  0.47265100  0.84415000  1
  Co  Co0  1  0.70962700  0.77770000  0.09960800  1
  Co  Co1  1  0.62681900  0.75390000  0.48086400  1
  Co  Co2  1  0.29282600  0.22629400  0.89621500  1
  Co  Co3  1  0.37301500  0.25354100  0.51035400  1
  P  P0  1  0.29937600  0.96408800  0.80777600  1
  P  P1  1  0.41573600  0.46657700  0.69174500  1
  P  P2  1  0.70410500  0.04349600  0.18174500  1
  P  P3  1  0.89284200  0.29772900  0.56134700  1
  P  P4  1  0.10386200  0.21184300  0.18580900  1
  P  P5  1  0.90633300  0.79258200  0.80615700  1
  P  P6  1  0.10704800  0.70759700  0.42986400  1
  P  P7  1  0.57889300  0.54029200  0.30178100  1
  O  O0  1  0.63572600  0.57322000  0.13305200  1
  O  O1  1  0.31651500  0.18875300  0.33658500  1
  O  O2  1  0.62297500  0.55268200  0.66239100  1
  O  O3  1  0.56062700  0.69580400  0.28928500  1
  O  O4  1  0.31371500  0.79453800  0.45267400  1
  O  O5  1  0.05501400  0.28147400  0.47077800  1
  O  O6  1  0.43757400  0.31174300  0.70388300  1
  O  O7  1  0.15469200  0.15304100  0.07047500  1
  O  O8  1  0.94459400  0.72921800  0.51654800  1
  O  O9  1  0.02883500  0.64562600  0.89029100  1
  O  O10  1  0.37248500  0.45436800  0.33007600  1
  O  O11  1  0.99651800  0.29187100  0.73884300  1
  O  O12  1  0.93437500  0.09624000  0.27213100  1
  O  O13  1  0.06586800  0.91464600  0.71636700  1
  O  O14  1  0.35290300  0.44055600  0.85487300  1
  O  O15  1  0.68885300  0.81356300  0.66018700  1
  O  O16  1  0.20691900  0.54184700  0.53394300  1
  O  O17  1  0.60754900  0.95356400  0.33208300  1
  O  O18  1  0.00033400  0.70868700  0.25403000  1
  O  O19  1  0.75193800  0.96232500  0.08797300  1
  O  O20  1  0.42923500  0.81852200  0.92611800  1
  O  O21  1  0.99934100  0.36245200  0.09465000  1
  O  O22  1  0.68662500  0.21006300  0.53716200  1
  O  O23  1  0.57249600  0.18596800  0.05915300  1
  O  O24  1  0.78968100  0.46343900  0.45545600  1
  O  O25  1  0.85615400  0.84180500  0.92902800  1
  O  O26  1  0.25690300  0.04059000  0.90709100  1
  O  O27  1  0.39868500  0.05434200  0.66064600  1
loop_
_geom_bond_atom_site_label_1
_geom_bond_atom_site_label_2
_geom_bond_distance
_geom_bond_site_symmetry_2
Li0 O1 2.035278 1_555
Li0 O17 2.048104 1_545
Li0 O27 2.067975 1_555
Li0 O15 2.102659 1_545
Li0 O22 2.250827 1_555
Li1 O9 2.010457 1_555
Li1 O0 2.067114 1_556
Li1 O20 2.091230 1_555
Li1 O14 2.177784 1_555
Li2 O21 1.936468 1_455
Li2 O10 2.186478 1_555
Li2 O9 2.343040 1_554
Li2 O0 2.444084 1_455
Li2 O18 2.469261 1_555
Li3 O21 1.985685 1_556
Li3 O9 2.012713 1_655
Li3 O2 2.104543 1_555
Li3 O11 2.530680 1_555
Li3 O14 2.625120 1_655
Co0 O19 1.868472 1_555
Co0 O25 1.869385 1_554
Co0 O18 1.911035 1_655
Co0 O20 1.918236 1_554
Co0 O3 2.018219 1_555
Co0 O0 2.038245 1_555
Co1 O15 1.903400 1_555
Co1 O17 1.913934 1_555
Co1 O8 1.933966 1_555
Co1 O4 1.951506 1_555
Co1 O3 1.994733 1_555
Co1 O2 2.030721 1_555
Co2 O7 1.859114 1_556
Co2 O23 1.872825 1_556
Co2 O26 1.879326 1_555
Co2 O11 1.941650 1_455
Co2 O6 2.020864 1_555
Co2 O14 2.104989 1_555
Co3 O1 1.895369 1_555
Co3 O27 1.911536 1_555
Co3 O5 1.934055 1_555
Co3 O22 1.965045 1_555
Co3 O6 2.012748 1_555
Co3 O10 2.019555 1_555
O0 P7 1.555640 1_555
O1 P4 1.553426 1_555
O2 P1 1.531125 1_555
O3 P7 1.574726 1_555
O4 P6 1.527462 1_555
O5 P3 1.530675 1_455
O6 P1 1.572132 1_555
O7 P4 1.524207 1_555
O8 P6 1.527576 1_655
O9 P5 1.528808 1_455
O10 P7 1.524341 1_555
O11 P3 1.526588 1_555
O12 P2 1.616162 1_555
O12 P4 1.621668 1_655
O13 P0 1.618234 1_555
O13 P5 1.621618 1_455
O14 P1 1.542992 1_555
O15 P5 1.551546 1_555
O16 P1 1.577320 1_555
O16 P6 1.633713 1_555
O17 P2 1.541862 1_565
O18 P6 1.534527 1_555
O19 P2 1.519358 1_565
O20 P0 1.545920 1_555
O21 P4 1.512707 1_655
O22 P3 1.531583 1_555
O23 P2 1.533193 1_555
O24 P7 1.571306 1_555
O24 P3 1.639974 1_555
O25 P5 1.517478 1_555
O26 P0 1.510714 1_545
O27 P0 1.531611 1_545
