# generated using pymatgen
data_CsAgCl2
_symmetry_space_group_name_H-M   'P 1'
_cell_length_a   5.06837042
_cell_length_b   5.06837042
_cell_length_c   9.85872638
_cell_angle_alpha   90.00000000
_cell_angle_beta   90.00000000
_cell_angle_gamma   90.00000000
_symmetry_Int_Tables_number   1
_chemical_formula_structural   CsAgCl2
_chemical_formula_sum   'Cs2 Ag2 Cl4'
_cell_volume   253.25469689
_cell_formula_units_Z   2
loop_
 _symmetry_equiv_pos_site_id
 _symmetry_equiv_pos_as_xyz
  1  'x, y, z'
loop_
 _atom_site_type_symbol
 _atom_site_label
 _atom_site_symmetry_multiplicity
 _atom_site_fract_x
 _atom_site_fract_y
 _atom_site_fract_z
 _atom_site_occupancy
  Cs  Cs0  1  0.25000000  0.25000000  0.70471874  1
  Cs  Cs1  1  0.75000000  0.75000000  0.29528126  1
  Ag  Ag0  1  0.75000000  0.75000000  0.90106535  1
  Ag  Ag1  1  0.25000000  0.25000000  0.09893465  1
  Cl  Cl0  1  0.75000000  0.75000000  0.64527789  1
  Cl  Cl1  1  0.25000000  0.25000000  0.35472211  1
  Cl  Cl2  1  0.25000000  0.75000000  -0.00000000  1
  Cl  Cl3  1  0.75000000  0.25000000  0.00000000  1
loop_
_geom_bond_atom_site_label_1
_geom_bond_atom_site_label_2
_geom_bond_distance
_geom_bond_site_symmetry_2
Ag0 Cl0 2.521739 1_555
Ag0 Cl3 2.715408 1_556
Ag0 Cl3 2.715408 1_566
Ag0 Cl2 2.715408 1_556
Ag0 Cl2 2.715408 1_656
Ag1 Cl1 2.521739 1_555
Ag1 Cl3 2.715408 1_555
Ag1 Cl2 2.715408 1_555
Ag1 Cl2 2.715408 1_545
Ag1 Cl3 2.715408 1_455
Cl0 Cs1 3.450521 1_555
Cl0 Cs0 3.631473 1_555
Cl0 Cs0 3.631473 1_655
Cl0 Cs0 3.631473 1_665
Cl0 Cs0 3.631473 1_565
Cl1 Cs0 3.450521 1_555
Cl1 Cs1 3.631473 1_555
Cl1 Cs1 3.631473 1_545
Cl1 Cs1 3.631473 1_445
Cl1 Cs1 3.631473 1_455
