# generated using pymatgen
data_K2P3
_symmetry_space_group_name_H-M   'P 1'
_cell_length_a   8.31741688
_cell_length_b   8.47729130
_cell_length_c   10.23762194
_cell_angle_alpha   78.50522492
_cell_angle_beta   66.03252770
_cell_angle_gamma   60.62192076
_symmetry_Int_Tables_number   1
_chemical_formula_structural   K2P3
_chemical_formula_sum   'K8 P12'
_cell_volume   574.78159120
_cell_formula_units_Z   4
loop_
 _symmetry_equiv_pos_site_id
 _symmetry_equiv_pos_as_xyz
  1  'x, y, z'
loop_
 _atom_site_type_symbol
 _atom_site_label
 _atom_site_symmetry_multiplicity
 _atom_site_fract_x
 _atom_site_fract_y
 _atom_site_fract_z
 _atom_site_occupancy
  K  K0  1  0.24963339  0.25000000  0.50073422  1
  K  K1  1  0.50036661  0.25000000  0.99926578  1
  K  K2  1  0.98831449  0.75000000  0.02337003  1
  K  K3  1  0.26168551  0.75000000  0.47662997  1
  K  K4  1  0.73831449  0.25000000  0.52337003  1
  K  K5  1  0.49963339  0.75000000  0.00073422  1
  K  K6  1  0.75036661  0.75000000  0.49926578  1
  K  K7  1  0.01168551  0.25000000  0.97662997  1
  P  P0  1  0.42011893  0.60446153  0.75405019  1
  P  P1  1  0.02009873  0.95980454  0.25000000  1
  P  P2  1  0.27009873  0.45980454  0.75000000  1
  P  P3  1  0.17416913  0.10446153  0.24594981  1
  P  P4  1  0.97990127  0.04019546  0.75000000  1
  P  P5  1  0.27862866  0.89553847  0.74594981  1
  P  P6  1  0.72137134  0.10446153  0.25405019  1
  P  P7  1  0.72990127  0.54019546  0.25000000  1
  P  P8  1  0.97542253  0.60446153  0.74594981  1
  P  P9  1  0.57988107  0.39553847  0.24594981  1
  P  P10  1  0.82583087  0.89553847  0.75405019  1
  P  P11  1  0.02457747  0.39553847  0.25405019  1
loop_
_geom_bond_atom_site_label_1
_geom_bond_atom_site_label_2
_geom_bond_distance
_geom_bond_site_symmetry_2
K0 P6 3.425920 1_555
K0 P11 3.425930 1_555
K0 P9 3.477404 1_555
K0 P3 3.477409 1_555
K0 P2 3.487595 1_555
K0 P4 3.487601 1_455
K0 P5 3.487693 1_545
K0 P8 3.487694 1_455
K1 P3 3.425909 1_556
K1 P9 3.425914 1_556
K1 P6 3.477420 1_556
K1 P11 3.477421 1_556
K1 P2 3.487585 1_555
K1 P4 3.487591 1_555
K1 P0 3.487692 1_555
K1 P10 3.487693 1_545
K2 P10 3.314557 1_554
K2 P0 3.314563 1_654
K2 P4 3.336993 1_564
K2 P2 3.336993 1_654
K2 P7 3.349716 1_555
K2 P1 3.349721 1_655
K2 P8 3.372504 1_554
K2 P5 3.372513 1_654
K2 P11 3.399800 1_655
K2 P6 3.399800 1_565
K3 P5 3.314548 1_555
K3 P8 3.314549 1_455
K3 P2 3.336993 1_555
K3 P4 3.336993 1_465
K3 P7 3.349706 1_555
K3 P1 3.349710 1_555
K3 P0 3.372517 1_555
K3 P10 3.372523 1_455
K3 P9 3.399799 1_555
K3 P3 3.399799 1_565
K4 P6 3.314548 1_555
K4 P11 3.314549 1_655
K4 P7 3.336993 1_555
K4 P1 3.336993 1_645
K4 P2 3.349706 1_555
K4 P4 3.349710 1_555
K4 P9 3.372517 1_555
K4 P3 3.372523 1_655
K4 P0 3.399799 1_555
K4 P10 3.399799 1_545
K5 P10 3.425909 1_554
K5 P0 3.425914 1_554
K5 P5 3.477420 1_554
K5 P8 3.477421 1_554
K5 P7 3.487585 1_555
K5 P1 3.487591 1_555
K5 P9 3.487692 1_555
K5 P3 3.487693 1_565
K6 P5 3.425920 1_555
K6 P8 3.425930 1_555
K6 P0 3.477404 1_555
K6 P10 3.477409 1_555
K6 P7 3.487595 1_555
K6 P1 3.487601 1_655
K6 P6 3.487693 1_565
K6 P11 3.487694 1_655
K7 P3 3.314557 1_556
K7 P9 3.314563 1_456
K7 P1 3.336993 1_546
K7 P7 3.336993 1_456
K7 P2 3.349716 1_555
K7 P4 3.349721 1_455
K7 P11 3.372504 1_556
K7 P6 3.372513 1_456
K7 P8 3.399800 1_455
K7 P5 3.399800 1_545
P0 P2 2.150833 1_555
P0 P5 2.151557 1_555
P1 P3 2.150833 1_565
P1 P6 2.150833 1_465
P2 P8 2.150826 1_455
P4 P5 2.150833 1_645
P6 P9 2.151557 1_555
P7 P9 2.150833 1_555
P10 P4 2.150833 1_565
P10 P8 2.151557 1_555
P11 P7 2.150826 1_455
P11 P3 2.151557 1_555
