# generated using pymatgen
data_Cs3Mo4P3O16
_symmetry_space_group_name_H-M   'P 1'
_cell_length_a   7.86879600
_cell_length_b   7.86879600
_cell_length_c   7.86879600
_cell_angle_alpha   90.00000000
_cell_angle_beta   90.00000000
_cell_angle_gamma   90.00000000
_symmetry_Int_Tables_number   1
_chemical_formula_structural   Cs3Mo4P3O16
_chemical_formula_sum   'Cs3 Mo4 P3 O16'
_cell_volume   487.21972114
_cell_formula_units_Z   1
loop_
 _symmetry_equiv_pos_site_id
 _symmetry_equiv_pos_as_xyz
  1  'x, y, z'
loop_
 _atom_site_type_symbol
 _atom_site_label
 _atom_site_symmetry_multiplicity
 _atom_site_fract_x
 _atom_site_fract_y
 _atom_site_fract_z
 _atom_site_occupancy
  Cs  Cs0  1  0.00000000  0.50000000  0.00000000  1
  Cs  Cs1  1  0.00000000  0.00000000  0.50000000  1
  Cs  Cs2  1  0.50000000  0.00000000  0.00000000  1
  Mo  Mo0  1  0.38191200  0.38191200  0.38191200  1
  Mo  Mo1  1  0.61808800  0.61808800  0.38191200  1
  Mo  Mo2  1  0.61808800  0.38191200  0.61808800  1
  Mo  Mo3  1  0.38191200  0.61808800  0.61808800  1
  P  P0  1  0.50000000  0.00000000  0.50000000  1
  P  P1  1  0.50000000  0.50000000  0.00000000  1
  P  P2  1  0.00000000  0.50000000  0.50000000  1
  O  O0  1  0.38354600  0.38354600  0.11074200  1
  O  O1  1  0.88925800  0.61645400  0.38354600  1
  O  O2  1  0.64293100  0.64293100  0.64293100  1
  O  O3  1  0.64293100  0.35706900  0.35706900  1
  O  O4  1  0.11074200  0.38354600  0.38354600  1
  O  O5  1  0.38354600  0.61645400  0.88925800  1
  O  O6  1  0.61645400  0.61645400  0.11074200  1
  O  O7  1  0.35706900  0.35706900  0.64293100  1
  O  O8  1  0.61645400  0.88925800  0.38354600  1
  O  O9  1  0.88925800  0.38354600  0.61645400  1
  O  O10  1  0.38354600  0.11074200  0.38354600  1
  O  O11  1  0.61645400  0.38354600  0.88925800  1
  O  O12  1  0.35706900  0.64293100  0.35706900  1
  O  O13  1  0.38354600  0.88925800  0.61645400  1
  O  O14  1  0.11074200  0.61645400  0.61645400  1
  O  O15  1  0.61645400  0.11074200  0.61645400  1
loop_
_geom_bond_atom_site_label_1
_geom_bond_atom_site_label_2
_geom_bond_distance
_geom_bond_site_symmetry_2
Cs0 O4 3.272254 1_555
Cs0 O1 3.272254 1_455
Cs0 O9 3.272254 1_454
Cs0 O6 3.272254 1_455
Cs0 O0 3.272254 1_555
Cs0 O14 3.272254 1_554
Cs0 O11 3.272254 1_454
Cs0 O5 3.272254 1_554
Cs1 O4 3.272254 1_555
Cs1 O9 3.272254 1_455
Cs1 O8 3.272254 1_445
Cs1 O14 3.272254 1_545
Cs1 O10 3.272254 1_555
Cs1 O15 3.272254 1_455
Cs1 O1 3.272254 1_445
Cs1 O13 3.272254 1_545
Cs2 O8 3.272254 1_545
Cs2 O10 3.272254 1_555
Cs2 O11 3.272254 1_554
Cs2 O5 3.272254 1_544
Cs2 O0 3.272254 1_555
Cs2 O6 3.272254 1_545
Cs2 O15 3.272254 1_554
Cs2 O13 3.272254 1_544
Mo0 O3 2.072427 1_555
Mo0 O7 2.072427 1_555
Mo0 O12 2.072427 1_555
Mo0 O0 2.133859 1_555
Mo0 O10 2.133859 1_555
Mo0 O4 2.133859 1_555
Mo1 O3 2.072427 1_555
Mo1 O12 2.072427 1_555
Mo1 O2 2.072427 1_555
Mo1 O6 2.133859 1_555
Mo1 O8 2.133859 1_555
Mo1 O1 2.133859 1_555
Mo2 O3 2.072427 1_555
Mo2 O7 2.072427 1_555
Mo2 O2 2.072427 1_555
Mo2 O15 2.133859 1_555
Mo2 O11 2.133859 1_555
Mo2 O9 2.133859 1_555
Mo3 O7 2.072427 1_555
Mo3 O12 2.072427 1_555
Mo3 O2 2.072427 1_555
Mo3 O14 2.133859 1_555
Mo3 O5 2.133859 1_555
Mo3 O13 2.133859 1_555
O0 P1 1.561651 1_555
O1 P2 1.561651 1_655
O4 P2 1.561651 1_555
O5 P1 1.561651 1_556
O6 P1 1.561651 1_555
O8 P0 1.561651 1_565
O9 P2 1.561651 1_655
O10 P0 1.561651 1_555
O11 P1 1.561651 1_556
O13 P0 1.561651 1_565
O14 P2 1.561651 1_555
O15 P0 1.561651 1_555
