# generated using pymatgen
data_La6Mn5O18
_symmetry_space_group_name_H-M   'P 1'
_cell_length_a   7.86912600
_cell_length_b   9.44279254
_cell_length_c   11.21681735
_cell_angle_alpha   107.40992447
_cell_angle_beta   89.98073764
_cell_angle_gamma   113.25935591
_symmetry_Int_Tables_number   1
_chemical_formula_structural   La6Mn5O18
_chemical_formula_sum   'La12 Mn10 O36'
_cell_volume   724.03404771
_cell_formula_units_Z   2
loop_
 _symmetry_equiv_pos_site_id
 _symmetry_equiv_pos_as_xyz
  1  'x, y, z'
loop_
 _atom_site_type_symbol
 _atom_site_label
 _atom_site_symmetry_multiplicity
 _atom_site_fract_x
 _atom_site_fract_y
 _atom_site_fract_z
 _atom_site_occupancy
  La  La0  1  0.89895800  0.31548300  0.07773500  1
  La  La1  1  0.10104200  0.68451700  0.92226500  1
  La  La2  1  0.42312100  0.30631800  0.07532000  1
  La  La3  1  0.24451700  0.99703000  0.75131600  1
  La  La4  1  0.40086600  0.31648800  0.58028900  1
  La  La5  1  0.57687900  0.69368200  0.92468000  1
  La  La6  1  0.74443100  0.99685700  0.74737100  1
  La  La7  1  0.59913400  0.68351200  0.41971100  1
  La  La8  1  0.75548300  0.00297000  0.24868400  1
  La  La9  1  0.92521600  0.30577600  0.57842400  1
  La  La10  1  0.07478400  0.69422400  0.42157600  1
  La  La11  1  0.25556900  0.00314300  0.25262900  1
  Mn  Mn0  1  0.33020900  0.65931500  0.16800000  1
  Mn  Mn1  1  0.66979100  0.34068500  0.83200000  1
  Mn  Mn2  1  0.83111100  0.66298800  0.16225900  1
  Mn  Mn3  1  0.00000000  0.00000000  0.00000000  1
  Mn  Mn4  1  0.16888900  0.33701200  0.83774100  1
  Mn  Mn5  1  0.33116200  0.66446600  0.66416600  1
  Mn  Mn6  1  0.50000000  0.00000000  0.50000000  1
  Mn  Mn7  1  0.66883800  0.33553400  0.33583400  1
  Mn  Mn8  1  0.83009200  0.66110800  0.66737500  1
  Mn  Mn9  1  0.16990800  0.33889200  0.33262500  1
  O  O0  1  0.62858300  0.20066900  0.92688900  1
  O  O1  1  0.76823200  0.00490600  0.03474200  1
  O  O2  1  0.58231600  0.66244200  0.13156000  1
  O  O3  1  0.96362800  0.85489200  0.10424900  1
  O  O4  1  0.86687600  0.80710700  0.84327800  1
  O  O5  1  0.80263200  0.52897500  0.98460900  1
  O  O6  1  0.94746700  0.84196900  0.61429800  1
  O  O7  1  0.19736800  0.47102500  0.01539100  1
  O  O8  1  0.07961900  0.66314100  0.69940100  1
  O  O9  1  0.13312400  0.19289300  0.15672200  1
  O  O10  1  0.91640000  0.33294200  0.79985700  1
  O  O11  1  0.03637200  0.14510800  0.89575100  1
  O  O12  1  0.29037400  0.52682600  0.77847000  1
  O  O13  1  0.41768400  0.33755800  0.86844000  1
  O  O14  1  0.20796900  0.47065000  0.51530900  1
  O  O15  1  0.23176800  0.99509400  0.96525800  1
  O  O16  1  0.13021300  0.19759400  0.67267600  1
  O  O17  1  0.37141700  0.79933100  0.07311100  1
  O  O18  1  0.30352400  0.52932000  0.27994900  1
  O  O19  1  0.53620200  0.14679600  0.67784700  1
  O  O20  1  0.41847800  0.33315600  0.36623500  1
  O  O21  1  0.44691100  0.84357700  0.80879900  1
  O  O22  1  0.26924500  0.00625500  0.46683900  1
  O  O23  1  0.36564700  0.81032600  0.56025800  1
  O  O24  1  0.63435300  0.18967400  0.43974200  1
  O  O25  1  0.73075500  0.99374500  0.53316100  1
  O  O26  1  0.55308900  0.15642300  0.19120100  1
  O  O27  1  0.58152200  0.66684400  0.63376500  1
  O  O28  1  0.46379800  0.85320400  0.32215300  1
  O  O29  1  0.69647600  0.47068000  0.72005100  1
  O  O30  1  0.86978700  0.80240600  0.32732400  1
  O  O31  1  0.79203100  0.52935000  0.48469100  1
  O  O32  1  0.70962600  0.47317400  0.22153000  1
  O  O33  1  0.08360000  0.66705800  0.20014300  1
  O  O34  1  0.92038100  0.33685900  0.30059900  1
  O  O35  1  0.05253300  0.15803100  0.38570200  1
loop_
_geom_bond_atom_site_label_1
_geom_bond_atom_site_label_2
_geom_bond_distance
_geom_bond_site_symmetry_2
La0 O0 2.376542 1_554
La0 O34 2.447395 1_555
La0 O7 2.459674 1_655
La0 O1 2.581261 1_555
La0 O11 2.707702 1_654
La0 O32 2.711422 1_555
La0 O9 2.796421 1_655
La0 O5 2.863104 1_554
La0 O33 2.912337 1_655
La1 O17 2.376542 1_556
La1 O8 2.447395 1_555
La1 O5 2.459674 1_455
La1 O15 2.581261 1_555
La1 O3 2.707702 1_456
La1 O12 2.711422 1_555
La1 O4 2.796421 1_455
La1 O7 2.863104 1_556
La1 O10 2.912337 1_455
La2 O9 2.417006 1_555
La2 O13 2.427634 1_554
La2 O32 2.430179 1_555
La2 O0 2.580587 1_554
La2 O15 2.600638 1_544
La2 O26 2.642744 1_555
La3 O15 2.407038 1_555
La3 O6 2.433647 1_455
La3 O19 2.465764 1_565
La3 O21 2.726619 1_555
La3 O16 2.742182 1_565
La3 O8 2.762971 1_555
La3 O23 2.770267 1_555
La3 O11 2.777425 1_565
La3 O13 2.816935 1_565
La4 O16 2.382571 1_555
La4 O29 2.439330 1_555
La4 O20 2.453058 1_555
La4 O22 2.578300 1_555
La4 O19 2.701306 1_555
La4 O14 2.708383 1_555
La4 O24 2.810893 1_555
La4 O12 2.891876 1_555
La4 O27 2.902487 1_555
La5 O4 2.417006 1_555
La5 O2 2.427634 1_556
La5 O12 2.430179 1_555
La5 O17 2.580587 1_556
La5 O1 2.600638 1_566
La5 O21 2.642744 1_555
La6 O25 2.396059 1_555
La6 O21 2.443441 1_555
La6 O11 2.464916 1_665
La6 O27 2.729084 1_555
La6 O6 2.730823 1_555
La6 O0 2.766770 1_565
La6 O10 2.782107 1_565
La6 O19 2.791339 1_565
La6 O4 2.795317 1_555
La7 O30 2.382571 1_555
La7 O18 2.439330 1_555
La7 O27 2.453058 1_555
La7 O25 2.578300 1_555
La7 O28 2.701306 1_555
La7 O31 2.708383 1_555
La7 O23 2.810893 1_555
La7 O32 2.891876 1_555
La7 O20 2.902487 1_555
La8 O1 2.407038 1_555
La8 O35 2.433647 1_655
La8 O28 2.465764 1_545
La8 O26 2.726619 1_555
La8 O30 2.742182 1_545
La8 O34 2.762971 1_555
La8 O24 2.770267 1_555
La8 O3 2.777425 1_545
La8 O2 2.816935 1_545
La9 O14 2.407981 1_655
La9 O24 2.420855 1_555
La9 O10 2.423306 1_555
La9 O16 2.590827 1_655
La9 O25 2.612528 1_545
La9 O35 2.630763 1_655
La10 O31 2.407981 1_455
La10 O23 2.420855 1_555
La10 O33 2.423306 1_555
La10 O30 2.590827 1_455
La10 O22 2.612528 1_565
La10 O6 2.630763 1_455
La11 O22 2.396059 1_555
La11 O26 2.443441 1_555
La11 O3 2.464916 1_445
La11 O20 2.729084 1_555
La11 O35 2.730823 1_555
La11 O17 2.766770 1_545
La11 O33 2.782107 1_545
La11 O28 2.791339 1_545
La11 O9 2.795317 1_555
Mn0 O17 1.867972 1_555
Mn0 O18 1.961209 1_555
Mn0 O7 1.973879 1_555
Mn0 O33 1.999267 1_555
Mn0 O28 2.008397 1_555
Mn0 O2 2.015952 1_555
Mn1 O0 1.867972 1_555
Mn1 O29 1.961209 1_555
Mn1 O5 1.973879 1_555
Mn1 O10 1.999267 1_555
Mn1 O19 2.008397 1_555
Mn1 O13 2.015952 1_555
Mn2 O30 1.865251 1_555
Mn2 O5 1.972225 1_554
Mn2 O32 1.981888 1_555
Mn2 O2 1.985698 1_555
Mn2 O3 2.001816 1_555
Mn2 O33 2.014989 1_655
Mn3 O15 1.880358 1_544
Mn3 O1 1.880358 1_455
Mn3 O3 1.993902 1_445
Mn3 O11 1.993902 1_554
Mn3 O9 2.020772 1_555
Mn3 O4 2.020772 1_444
Mn4 O16 1.865251 1_555
Mn4 O7 1.972225 1_556
Mn4 O12 1.981888 1_555
Mn4 O13 1.985698 1_555
Mn4 O11 2.001816 1_555
Mn4 O10 2.014989 1_455
Mn5 O21 1.861303 1_555
Mn5 O14 1.961730 1_555
Mn5 O27 1.991815 1_555
Mn5 O23 1.998580 1_555
Mn5 O8 2.014286 1_555
Mn5 O12 2.025721 1_555
Mn6 O25 1.880805 1_545
Mn6 O22 1.880805 1_555
Mn6 O23 2.002722 1_545
Mn6 O24 2.002722 1_555
Mn6 O19 2.003971 1_555
Mn6 O28 2.003971 1_545
Mn7 O26 1.861303 1_555
Mn7 O31 1.961730 1_555
Mn7 O20 1.991815 1_555
Mn7 O24 1.998580 1_555
Mn7 O34 2.014286 1_555
Mn7 O32 2.025721 1_555
Mn8 O6 1.867217 1_555
Mn8 O29 1.957091 1_555
Mn8 O4 1.983654 1_555
Mn8 O8 1.987852 1_655
Mn8 O31 2.004265 1_555
Mn8 O27 2.016804 1_555
Mn9 O35 1.867217 1_555
Mn9 O18 1.957091 1_555
Mn9 O9 1.983654 1_555
Mn9 O34 1.987852 1_455
Mn9 O14 2.004265 1_555
Mn9 O20 2.016804 1_555
