# generated using pymatgen
data_RbTh3F13
_symmetry_space_group_name_H-M   'P 1'
_cell_length_a   7.44653702
_cell_length_b   8.16248444
_cell_length_c   8.65974154
_cell_angle_alpha   90.00000000
_cell_angle_beta   90.00000000
_cell_angle_gamma   90.00000000
_symmetry_Int_Tables_number   1
_chemical_formula_structural   RbTh3F13
_chemical_formula_sum   'Rb2 Th6 F26'
_cell_volume   526.35851077
_cell_formula_units_Z   2
loop_
 _symmetry_equiv_pos_site_id
 _symmetry_equiv_pos_as_xyz
  1  'x, y, z'
loop_
 _atom_site_type_symbol
 _atom_site_label
 _atom_site_symmetry_multiplicity
 _atom_site_fract_x
 _atom_site_fract_y
 _atom_site_fract_z
 _atom_site_occupancy
  Rb  Rb0  1  0.89410987  0.50000000  0.69293493  1
  Rb  Rb1  1  0.10589013  0.50000000  0.19293493  1
  Th  Th0  1  0.60312061  0.25309870  0.33458452  1
  Th  Th1  1  0.60312061  0.74690130  0.33458452  1
  Th  Th2  1  0.39687939  0.74690130  0.83458452  1
  Th  Th3  1  0.39687939  0.25309870  0.83458452  1
  Th  Th4  1  0.10784605  0.00000000  0.50045248  1
  Th  Th5  1  0.89215395  0.00000000  0.00045248  1
  F  F0  1  0.69590091  0.82606513  0.86490642  1
  F  F1  1  0.56329172  0.50000000  0.84730275  1
  F  F2  1  0.11539450  0.80411063  0.95719113  1
  F  F3  1  0.82583933  0.74426757  0.14356834  1
  F  F4  1  0.36240690  0.00000000  0.67864695  1
  F  F5  1  0.03219954  0.00000000  0.23689673  1
  F  F6  1  0.88460550  0.19588937  0.45719113  1
  F  F7  1  0.43670828  0.50000000  0.34730275  1
  F  F8  1  0.96780046  0.00000000  0.73689673  1
  F  F9  1  0.45221789  0.69573903  0.09693154  1
  F  F10  1  0.77255234  0.50000000  0.36832430  1
  F  F11  1  0.45221789  0.30426097  0.09693154  1
  F  F12  1  0.54778211  0.69573903  0.59693154  1
  F  F13  1  0.59836201  0.00000000  0.45957794  1
  F  F14  1  0.30409909  0.82606513  0.36490642  1
  F  F15  1  0.22744766  0.50000000  0.86832430  1
  F  F16  1  0.82583933  0.25573243  0.14356834  1
  F  F17  1  0.17416067  0.74426757  0.64356834  1
  F  F18  1  0.17416067  0.25573243  0.64356834  1
  F  F19  1  0.30409909  0.17393487  0.36490642  1
  F  F20  1  0.69590091  0.17393487  0.86490642  1
  F  F21  1  0.63759310  0.00000000  0.17864695  1
  F  F22  1  0.40163799  0.00000000  0.95957794  1
  F  F23  1  0.11539450  0.19588937  0.95719113  1
  F  F24  1  0.54778211  0.30426097  0.59693154  1
  F  F25  1  0.88460550  0.80411063  0.45719113  1
loop_
_geom_bond_atom_site_label_1
_geom_bond_atom_site_label_2
_geom_bond_distance
_geom_bond_site_symmetry_2
F0 Th2 2.333360 1_555
F0 Th5 2.351417 1_566
F0 Rb0 3.388197 1_555
F1 Th2 2.368392 1_555
F1 Th3 2.368392 1_555
F1 Rb0 2.802781 1_555
F2 Th5 2.336759 1_466
F2 Th2 2.395608 1_555
F2 Rb1 3.214725 1_556
F3 Th1 2.342487 1_555
F3 Th5 2.477321 1_565
F3 Rb1 2.916684 1_655
F4 Th4 2.444279 1_555
F4 Th3 2.481415 1_555
F4 Th2 2.481415 1_545
F5 Th5 2.297823 1_455
F5 Th4 2.350812 1_555
F6 Th4 2.336759 1_655
F6 Th0 2.395608 1_555
F6 Rb0 3.214725 1_555
F7 Th0 2.368392 1_555
F7 Th1 2.368392 1_555
F7 Rb1 2.802781 1_555
F8 Th4 2.297823 1_655
F8 Th5 2.350812 1_556
F9 Th2 2.346390 1_554
F9 Th1 2.381707 1_555
F9 Rb1 3.145602 1_555
F10 Th0 2.395569 1_555
F10 Th1 2.395569 1_555
F10 Rb1 2.910019 1_655
F10 Rb0 2.953189 1_555
F11 Th3 2.346390 1_554
F11 Th0 2.381707 1_555
F11 Rb1 3.145602 1_555
F12 Th1 2.346390 1_555
F12 Th2 2.381707 1_555
F12 Rb0 3.145602 1_555
F13 Th0 2.332567 1_555
F13 Th1 2.332567 1_545
F14 Th1 2.333360 1_555
F14 Th4 2.351417 1_565
F14 Rb1 3.388197 1_555
F15 Th2 2.395569 1_555
F15 Th3 2.395569 1_555
F15 Rb0 2.910019 1_455
F15 Rb1 2.953189 1_556
F16 Th0 2.342487 1_555
F16 Th5 2.477321 1_555
F16 Rb1 2.916684 1_655
F17 Th2 2.342487 1_555
F17 Th4 2.477321 1_565
F17 Rb0 2.916684 1_455
F18 Th3 2.342487 1_555
F18 Th4 2.477321 1_555
F18 Rb0 2.916684 1_455
F19 Th0 2.333360 1_555
F19 Th4 2.351417 1_555
F19 Rb1 3.388197 1_555
F20 Th3 2.333360 1_555
F20 Th5 2.351417 1_556
F20 Rb0 3.388197 1_555
F21 Th5 2.444279 1_555
F21 Th1 2.481415 1_545
F21 Th0 2.481415 1_555
F22 Th2 2.332567 1_545
F22 Th3 2.332567 1_555
F23 Th5 2.336759 1_456
F23 Th3 2.395608 1_555
F23 Rb1 3.214725 1_556
F24 Th0 2.346390 1_555
F24 Th3 2.381707 1_555
F24 Rb0 3.145602 1_555
F25 Th4 2.336759 1_665
F25 Th1 2.395608 1_555
F25 Rb0 3.214725 1_555
