# generated using pymatgen
data_Sr3SiO5
_symmetry_space_group_name_H-M   'P 1'
_cell_length_a   6.95771690
_cell_length_b   6.95771690
_cell_length_c   10.80115392
_cell_angle_alpha   90.00000000
_cell_angle_beta   90.00000000
_cell_angle_gamma   90.00000000
_symmetry_Int_Tables_number   1
_chemical_formula_structural   Sr3SiO5
_chemical_formula_sum   'Sr12 Si4 O20'
_cell_volume   522.88196524
_cell_formula_units_Z   4
loop_
 _symmetry_equiv_pos_site_id
 _symmetry_equiv_pos_as_xyz
  1  'x, y, z'
loop_
 _atom_site_type_symbol
 _atom_site_label
 _atom_site_symmetry_multiplicity
 _atom_site_fract_x
 _atom_site_fract_y
 _atom_site_fract_z
 _atom_site_occupancy
  Sr  Sr0  1  0.50000000  -0.00000000  0.49125654  1
  Sr  Sr1  1  0.00000000  0.50000000  0.00874346  1
  Sr  Sr2  1  0.00000000  0.50000000  0.50874346  1
  Sr  Sr3  1  0.50000000  -0.00000000  0.99125654  1
  Sr  Sr4  1  0.18786321  0.18786321  0.25000000  1
  Sr  Sr5  1  0.31213679  0.68786321  0.25000000  1
  Sr  Sr6  1  0.68786321  0.31213679  0.25000000  1
  Sr  Sr7  1  0.81213679  0.81213679  0.25000000  1
  Sr  Sr8  1  0.31213679  0.31213679  0.75000000  1
  Sr  Sr9  1  0.18786321  0.81213679  0.75000000  1
  Sr  Sr10  1  0.81213679  0.18786321  0.75000000  1
  Sr  Sr11  1  0.68786321  0.68786321  0.75000000  1
  Si  Si0  1  0.50000000  0.50000000  0.50000000  1
  Si  Si1  1  0.00000000  -0.00000000  0.50000000  1
  Si  Si2  1  0.00000000  -0.00000000  0.00000000  1
  Si  Si3  1  0.50000000  0.50000000  0.00000000  1
  O  O0  1  0.50000000  -0.00000000  0.72057036  1
  O  O1  1  0.00000000  0.50000000  0.77942964  1
  O  O2  1  0.00000000  0.50000000  0.27942964  1
  O  O3  1  0.50000000  -0.00000000  0.22057036  1
  O  O4  1  0.90116289  0.15838824  0.09208849  1
  O  O5  1  0.09883711  0.84161176  0.09208849  1
  O  O6  1  0.15838824  0.90116289  0.40791151  1
  O  O7  1  0.65838824  0.59883711  0.09208849  1
  O  O8  1  0.34161176  0.40116289  0.09208849  1
  O  O9  1  0.59883711  0.65838824  0.40791151  1
  O  O10  1  0.40116289  0.34161176  0.40791151  1
  O  O11  1  0.84161176  0.09883711  0.40791151  1
  O  O12  1  0.59883711  0.34161176  0.90791151  1
  O  O13  1  0.40116289  0.65838824  0.90791151  1
  O  O14  1  0.34161176  0.59883711  0.59208849  1
  O  O15  1  0.84161176  0.90116289  0.90791151  1
  O  O16  1  0.65838824  0.40116289  0.59208849  1
  O  O17  1  0.09883711  0.15838824  0.59208849  1
  O  O18  1  0.90116289  0.84161176  0.59208849  1
  O  O19  1  0.15838824  0.09883711  0.90791151  1
loop_
_geom_bond_atom_site_label_1
_geom_bond_atom_site_label_2
_geom_bond_distance
_geom_bond_site_symmetry_2
O0 Sr0 2.476854 1_555
O0 Sr9 2.554621 1_545
O0 Sr11 2.554621 1_545
O0 Sr10 2.554621 1_555
O0 Sr8 2.554621 1_555
O0 Sr3 2.923723 1_555
O1 Sr1 2.476854 1_556
O1 Sr11 2.554621 1_455
O1 Sr10 2.554621 1_455
O1 Sr9 2.554621 1_555
O1 Sr8 2.554621 1_555
O1 Sr2 2.923723 1_555
O2 Sr2 2.476854 1_555
O2 Sr6 2.554621 1_455
O2 Sr7 2.554621 1_455
O2 Sr4 2.554621 1_555
O2 Sr5 2.554621 1_555
O2 Sr1 2.923723 1_555
O3 Sr3 2.476854 1_554
O3 Sr5 2.554621 1_545
O3 Sr6 2.554621 1_555
O3 Sr4 2.554621 1_555
O3 Sr7 2.554621 1_545
O3 Sr0 2.923723 1_555
O4 Si2 1.636064 1_655
O4 Sr6 2.501198 1_555
O4 Sr4 2.632559 1_655
O4 Sr1 2.632995 1_655
O4 Sr7 3.016073 1_545
O4 Sr3 3.192376 1_554
O5 Si2 1.636064 1_565
O5 Sr5 2.501198 1_555
O5 Sr7 2.632559 1_455
O5 Sr1 2.632995 1_555
O5 Sr4 3.016073 1_565
O5 Sr3 3.192376 1_564
O6 Si1 1.636064 1_565
O6 Sr5 2.501198 1_555
O6 Sr4 2.632559 1_565
O6 Sr0 2.632995 1_565
O6 Sr7 3.016073 1_455
O6 Sr2 3.192376 1_555
O7 Si3 1.636064 1_555
O7 Sr7 2.501198 1_555
O7 Sr6 2.632559 1_555
O7 Sr1 2.632995 1_655
O7 Sr5 3.016073 1_555
O7 Sr3 3.192376 1_564
O8 Si3 1.636064 1_555
O8 Sr4 2.501198 1_555
O8 Sr5 2.632559 1_555
O8 Sr1 2.632995 1_555
O8 Sr6 3.016073 1_555
O8 Sr3 3.192376 1_554
O9 Si0 1.636064 1_555
O9 Sr7 2.501198 1_555
O9 Sr5 2.632559 1_555
O9 Sr0 2.632995 1_565
O9 Sr6 3.016073 1_555
O9 Sr2 3.192376 1_655
O10 Si0 1.636064 1_555
O10 Sr4 2.501198 1_555
O10 Sr6 2.632559 1_555
O10 Sr0 2.632995 1_555
O10 Sr5 3.016073 1_555
O10 Sr2 3.192376 1_555
O11 Si1 1.636064 1_655
O11 Sr6 2.501198 1_555
O11 Sr7 2.632559 1_545
O11 Sr0 2.632995 1_555
O11 Sr4 3.016073 1_655
O11 Sr2 3.192376 1_655
O12 Si3 1.636064 1_556
O12 Sr10 2.501198 1_555
O12 Sr8 2.632559 1_555
O12 Sr3 2.632995 1_555
O12 Sr11 3.016073 1_555
O12 Sr1 3.192376 1_656
O13 Si3 1.636064 1_556
O13 Sr9 2.501198 1_555
O13 Sr11 2.632559 1_555
O13 Sr3 2.632995 1_565
O13 Sr8 3.016073 1_555
O13 Sr1 3.192376 1_556
O14 Si0 1.636064 1_555
O14 Sr9 2.501198 1_555
O14 Sr8 2.632559 1_555
O14 Sr2 2.632995 1_555
O14 Sr11 3.016073 1_555
O14 Sr0 3.192376 1_565
O15 Si2 1.636064 1_666
O15 Sr11 2.501198 1_555
O15 Sr10 2.632559 1_565
O15 Sr3 2.632995 1_565
O15 Sr9 3.016073 1_655
O15 Sr1 3.192376 1_656
O16 Si0 1.636064 1_555
O16 Sr10 2.501198 1_555
O16 Sr11 2.632559 1_555
O16 Sr2 2.632995 1_655
O16 Sr8 3.016073 1_555
O16 Sr0 3.192376 1_555
O17 Si1 1.636064 1_555
O17 Sr8 2.501198 1_555
O17 Sr10 2.632559 1_455
O17 Sr2 2.632995 1_555
O17 Sr9 3.016073 1_545
O17 Sr0 3.192376 1_555
O18 Si1 1.636064 1_665
O18 Sr11 2.501198 1_555
O18 Sr9 2.632559 1_655
O18 Sr2 2.632995 1_655
O18 Sr10 3.016073 1_565
O18 Sr0 3.192376 1_565
O19 Si2 1.636064 1_556
O19 Sr8 2.501198 1_555
O19 Sr9 2.632559 1_545
O19 Sr3 2.632995 1_555
O19 Sr10 3.016073 1_455
O19 Sr1 3.192376 1_556
