# generated using pymatgen
data_PCF3
_symmetry_space_group_name_H-M   'P 1'
_cell_length_a   11.38107800
_cell_length_b   11.38107800
_cell_length_c   6.34677400
_cell_angle_alpha   90.00000000
_cell_angle_beta   90.00000000
_cell_angle_gamma   90.00000000
_symmetry_Int_Tables_number   1
_chemical_formula_structural   PCF3
_chemical_formula_sum   'P8 C8 F24'
_cell_volume   822.09088606
_cell_formula_units_Z   8
loop_
 _symmetry_equiv_pos_site_id
 _symmetry_equiv_pos_as_xyz
  1  'x, y, z'
loop_
 _atom_site_type_symbol
 _atom_site_label
 _atom_site_symmetry_multiplicity
 _atom_site_fract_x
 _atom_site_fract_y
 _atom_site_fract_z
 _atom_site_occupancy
  P  P0  1  0.50000000  0.70888300  0.42469600  1
  P  P1  1  0.20888300  0.00000000  0.92469600  1
  P  P2  1  0.79111700  0.00000000  0.92469600  1
  P  P3  1  0.50000000  0.29111700  0.42469600  1
  P  P4  1  0.00000000  0.20888300  0.07530400  1
  P  P5  1  0.00000000  0.79111700  0.07530400  1
  P  P6  1  0.70888300  0.50000000  0.57530400  1
  P  P7  1  0.29111700  0.50000000  0.57530400  1
  C  C0  1  0.50000000  0.75651400  0.69607700  1
  C  C1  1  0.25651400  0.00000000  0.19607700  1
  C  C2  1  0.74348600  0.00000000  0.19607700  1
  C  C3  1  0.50000000  0.24348600  0.69607700  1
  C  C4  1  0.00000000  0.25651400  0.80392300  1
  C  C5  1  0.00000000  0.74348600  0.80392300  1
  C  C6  1  0.75651400  0.50000000  0.30392300  1
  C  C7  1  0.24348600  0.50000000  0.30392300  1
  F  F0  1  0.50000000  0.68323400  0.85814600  1
  F  F1  1  0.18323400  0.00000000  0.35814600  1
  F  F2  1  0.81676600  0.00000000  0.35814600  1
  F  F3  1  0.50000000  0.31676600  0.85814600  1
  F  F4  1  0.00000000  0.18323400  0.64185400  1
  F  F5  1  0.00000000  0.81676600  0.64185400  1
  F  F6  1  0.68323400  0.50000000  0.14185400  1
  F  F7  1  0.31676600  0.50000000  0.14185400  1
  F  F8  1  0.60510500  0.78866500  0.33405500  1
  F  F9  1  0.28866500  0.89489500  0.83405500  1
  F  F10  1  0.71133500  0.10510500  0.83405500  1
  F  F11  1  0.39489500  0.21133500  0.33405500  1
  F  F12  1  0.89489500  0.28866500  0.16594500  1
  F  F13  1  0.10510500  0.71133500  0.16594500  1
  F  F14  1  0.78866500  0.60510500  0.66594500  1
  F  F15  1  0.21133500  0.39489500  0.66594500  1
  F  F16  1  0.89489500  0.71133500  0.16594500  1
  F  F17  1  0.21133500  0.60510500  0.66594500  1
  F  F18  1  0.78866500  0.39489500  0.66594500  1
  F  F19  1  0.10510500  0.28866500  0.16594500  1
  F  F20  1  0.60510500  0.21133500  0.33405500  1
  F  F21  1  0.39489500  0.78866500  0.33405500  1
  F  F22  1  0.71133500  0.89489500  0.83405500  1
  F  F23  1  0.28866500  0.10510500  0.83405500  1
loop_
_geom_bond_atom_site_label_1
_geom_bond_atom_site_label_2
_geom_bond_distance
_geom_bond_site_symmetry_2
C0 F0 1.324241 1_555
C0 P0 1.805687 1_555
C1 F1 1.324241 1_555
C1 P1 1.805687 1_554
C2 F2 1.324241 1_555
C2 P2 1.805687 1_554
C3 F3 1.324241 1_555
C3 P3 1.805687 1_555
C4 F4 1.324241 1_555
C4 P4 1.805687 1_556
C5 F5 1.324241 1_555
C5 P5 1.805687 1_556
C6 F6 1.324241 1_555
C6 P6 1.805687 1_555
C7 F7 1.324241 1_555
C7 P7 1.805687 1_555
F8 P0 1.608208 1_555
F9 P1 1.608208 1_565
F10 P2 1.608208 1_555
F11 P3 1.608208 1_555
F12 P4 1.608208 1_655
F13 P5 1.608208 1_555
F14 P6 1.608208 1_555
F15 P7 1.608208 1_555
F16 P5 1.608208 1_655
F17 P7 1.608208 1_555
F18 P6 1.608208 1_555
F19 P4 1.608208 1_555
F20 P3 1.608208 1_555
F21 P0 1.608208 1_555
F22 P2 1.608208 1_565
F23 P1 1.608208 1_555
