# generated using pymatgen
data_Na2SnSe3
_symmetry_space_group_name_H-M   'P 1'
_cell_length_a   16.26889108
_cell_length_b   6.19176558
_cell_length_c   7.27797700
_cell_angle_alpha   67.10772164
_cell_angle_beta   90.00000000
_cell_angle_gamma   90.00000000
_symmetry_Int_Tables_number   1
_chemical_formula_structural   Na2SnSe3
_chemical_formula_sum   'Na8 Sn4 Se12'
_cell_volume   675.39043177
_cell_formula_units_Z   4
loop_
 _symmetry_equiv_pos_site_id
 _symmetry_equiv_pos_as_xyz
  1  'x, y, z'
loop_
 _atom_site_type_symbol
 _atom_site_label
 _atom_site_symmetry_multiplicity
 _atom_site_fract_x
 _atom_site_fract_y
 _atom_site_fract_z
 _atom_site_occupancy
  Na  Na0  1  0.97363466  0.32559555  0.76494479  1
  Na  Na1  1  0.66594628  0.51303763  0.44986498  1
  Na  Na2  1  0.52636534  0.82559555  0.76494479  1
  Na  Na3  1  0.02636534  0.67440445  0.23505521  1
  Na  Na4  1  0.16594628  0.98696237  0.55013502  1
  Na  Na5  1  0.47363466  0.17440445  0.23505521  1
  Na  Na6  1  0.33405372  0.48696237  0.55013502  1
  Na  Na7  1  0.83405372  0.01303763  0.44986498  1
  Sn  Sn0  1  0.33416065  0.87145730  0.95491913  1
  Sn  Sn1  1  0.16583935  0.37145730  0.95491913  1
  Sn  Sn2  1  0.66583935  0.12854270  0.04508087  1
  Sn  Sn3  1  0.83416065  0.62854270  0.04508087  1
  Se  Se0  1  0.14416473  0.46567284  0.59136604  1
  Se  Se1  1  0.35583527  0.96567284  0.59136604  1
  Se  Se2  1  0.64416473  0.03432716  0.40863396  1
  Se  Se3  1  0.55411846  0.32287087  0.80351890  1
  Se  Se4  1  0.18171693  0.75591683  0.01386566  1
  Se  Se5  1  0.31828307  0.25591683  0.01386566  1
  Se  Se6  1  0.94588154  0.82287087  0.80351890  1
  Se  Se7  1  0.44588154  0.67712913  0.19648110  1
  Se  Se8  1  0.68171693  0.74408317  0.98613434  1
  Se  Se9  1  0.85583527  0.53432716  0.40863396  1
  Se  Se10  1  0.05411846  0.17712913  0.19648110  1
  Se  Se11  1  0.81828307  0.24408317  0.98613434  1
loop_
_geom_bond_atom_site_label_1
_geom_bond_atom_site_label_2
_geom_bond_distance
_geom_bond_site_symmetry_2
Na0 Se11 2.932892 1_555
Na0 Se0 3.031942 1_655
Na0 Se6 3.048284 1_545
Na0 Se9 3.075792 1_555
Na0 Se10 3.190203 1_656
Na0 Se6 3.230403 1_555
Na1 Se3 2.993888 1_555
Na1 Se9 3.101664 1_555
Na1 Se2 3.113404 1_555
Na1 Se8 3.121985 1_554
Na1 Se2 3.143269 1_565
Na2 Se8 2.932892 1_555
Na2 Se1 3.031942 1_555
Na2 Se3 3.048284 1_555
Na2 Se2 3.075792 1_565
Na2 Se7 3.190203 1_556
Na2 Se3 3.230403 1_565
Na3 Se4 2.932892 1_555
Na3 Se9 3.031942 1_455
Na3 Se10 3.048284 1_565
Na3 Se0 3.075792 1_555
Na3 Se6 3.190203 1_454
Na3 Se10 3.230403 1_555
Na4 Se10 2.993888 1_565
Na4 Se1 3.101664 1_555
Na4 Se0 3.113404 1_565
Na4 Se4 3.121985 1_556
Na4 Se0 3.143269 1_555
Na5 Se5 2.932892 1_555
Na5 Se2 3.031942 1_555
Na5 Se7 3.048284 1_555
Na5 Se1 3.075792 1_545
Na5 Se3 3.190203 1_554
Na5 Se7 3.230403 1_545
Na6 Se7 2.993888 1_555
Na6 Se0 3.101664 1_555
Na6 Se1 3.113404 1_555
Na6 Se5 3.121985 1_556
Na6 Se1 3.143269 1_545
Na7 Se6 2.993888 1_545
Na7 Se2 3.101664 1_555
Na7 Se9 3.113404 1_545
Na7 Se11 3.121985 1_554
Na7 Se9 3.143269 1_555
Se0 Sn1 2.502945 1_555
Se1 Sn0 2.502945 1_555
Se2 Sn2 2.502945 1_555
Se3 Sn2 2.489264 1_556
Se4 Sn0 2.570587 1_554
Se4 Sn1 2.590755 1_554
Se5 Sn1 2.570587 1_554
Se5 Sn0 2.590755 1_544
Se6 Sn3 2.489264 1_556
Se7 Sn0 2.489264 1_554
Se8 Sn3 2.570587 1_556
Se8 Sn2 2.590755 1_566
Se9 Sn3 2.502945 1_555
Se10 Sn1 2.489264 1_554
Se11 Sn2 2.570587 1_556
Se11 Sn3 2.590755 1_556
