# generated using pymatgen
data_Ca5Y7Al16Cr2(SiO24)2
_symmetry_space_group_name_H-M   'P 1'
_cell_length_a   10.52280164
_cell_length_b   10.51998991
_cell_length_c   10.50145092
_cell_angle_alpha   109.33782658
_cell_angle_beta   109.54505068
_cell_angle_gamma   109.62932563
_symmetry_Int_Tables_number   1
_chemical_formula_structural   Ca5Y7Al16Cr2(SiO24)2
_chemical_formula_sum   'Ca5 Y7 Al16 Cr2 Si2 O48'
_cell_volume   893.80464790
_cell_formula_units_Z   1
loop_
 _symmetry_equiv_pos_site_id
 _symmetry_equiv_pos_as_xyz
  1  'x, y, z'
loop_
 _atom_site_type_symbol
 _atom_site_label
 _atom_site_symmetry_multiplicity
 _atom_site_fract_x
 _atom_site_fract_y
 _atom_site_fract_z
 _atom_site_occupancy
  Ca  Ca0  1  0.63176800  0.25191800  0.87495500  1
  Ca  Ca1  1  0.75617600  0.62863700  0.87063200  1
  Ca  Ca2  1  0.87341300  0.75110900  0.62616100  1
  Ca  Ca3  1  0.74866300  0.12412100  0.37428600  1
  Ca  Ca4  1  0.87843800  0.62128500  0.24602400  1
  Y  Y0  1  0.25496200  0.88038800  0.62932000  1
  Y  Y1  1  0.12246500  0.37342600  0.75043000  1
  Y  Y2  1  0.12336700  0.24962600  0.37711500  1
  Y  Y3  1  0.24408700  0.36989800  0.12609500  1
  Y  Y4  1  0.62922000  0.88070400  0.75776800  1
  Y  Y5  1  0.37605800  0.74940000  0.12229100  1
  Y  Y6  1  0.37816100  0.12468100  0.25120300  1
  Al  Al0  1  0.12394500  0.75034500  0.87775400  1
  Al  Al1  1  0.99709300  0.00475200  0.49980100  1
  Al  Al2  1  0.99970700  0.49855800  0.99859800  1
  Al  Al3  1  0.37696700  0.62669000  0.74853100  1
  Al  Al4  1  0.24681800  0.12126800  0.87354400  1
  Al  Al5  1  0.25392000  0.62628700  0.37581100  1
  Al  Al6  1  0.99496100  0.99300600  0.99321200  1
  Al  Al7  1  0.37106500  0.24398800  0.62136600  1
  Al  Al8  1  0.49903300  0.49776000  0.49915600  1
  Al  Al9  1  0.50238000  0.00325300  0.50896100  1
  Al  Al10  1  0.75046500  0.88105800  0.12537700  1
  Al  Al11  1  0.74333100  0.37308400  0.62370600  1
  Al  Al12  1  0.62115100  0.37333000  0.24905600  1
  Al  Al13  1  0.50156600  0.00197900  0.00214000  1
  Al  Al14  1  0.87504800  0.12460900  0.75018100  1
  Al  Al15  1  0.87599300  0.25067400  0.12041200  1
  Cr  Cr0  1  0.99580900  0.50117700  0.49957800  1
  Cr  Cr1  1  0.50947500  0.50072300  0.99792800  1
  Si  Si0  1  0.12549200  0.87337800  0.25109700  1
  Si  Si1  1  0.62628900  0.75277900  0.37754300  1
  O  O0  1  0.10096800  0.98295600  0.67329400  1
  O  O1  1  0.02311300  0.31971300  0.90340000  1
  O  O2  1  0.12229000  0.59746100  0.91832600  1
  O  O3  1  0.08542600  0.69589400  0.68022400  1
  O  O4  1  0.08594700  0.88687300  0.39402600  1
  O  O5  1  0.10441900  0.61993000  0.42572700  1
  O  O6  1  0.17933400  0.47868800  0.59987100  1
  O  O7  1  0.41711900  0.82014700  0.80185100  1
  O  O8  1  0.30442500  0.32364400  0.92485000  1
  O  O9  1  0.38249900  0.58008800  0.90118000  1
  O  O10  1  0.02157000  0.19607900  0.12251000  1
  O  O11  1  0.30975900  0.91462400  0.30215600  1
  O  O12  1  0.17956500  0.20226400  0.58328100  1
  O  O13  1  0.20555300  0.58241100  0.18058600  1
  O  O14  1  0.40013100  0.82174900  0.52148500  1
  O  O15  1  0.29811900  0.47790800  0.38049400  1
  O  O16  1  0.32019400  0.90080500  0.02472300  1
  O  O17  1  0.11797700  0.00708200  0.20145300  1
  O  O18  1  0.51523800  0.61993500  0.69112400  1
  O  O19  1  0.39503200  0.07496900  0.88299900  1
  O  O20  1  0.51054900  0.39991800  0.81933800  1
  O  O21  1  0.37663500  0.29658800  0.47744000  1
  O  O22  1  0.57488300  0.88693600  0.38218100  1
  O  O23  1  0.19684800  0.11741800  0.01996100  1
  O  O24  1  0.80142400  0.88405500  0.98202500  1
  O  O25  1  0.41597800  0.09654300  0.61763700  1
  O  O26  1  0.61001500  0.69880600  0.50436900  1
  O  O27  1  0.49371100  0.60783400  0.19260300  1
  O  O28  1  0.59286500  0.91289900  0.11554300  1
  O  O29  1  0.47548600  0.37930700  0.29705500  1
  O  O30  1  0.88086500  0.98339700  0.80432200  1
  O  O31  1  0.68175100  0.09644200  0.98362100  1
  O  O32  1  0.69003500  0.51173100  0.60674600  1
  O  O33  1  0.59335300  0.17421600  0.47888100  1
  O  O34  1  0.80853100  0.42290400  0.82092900  1
  O  O35  1  0.80636400  0.80652200  0.41293900  1
  O  O36  1  0.67967200  0.07612800  0.69553000  1
  O  O37  1  0.98509300  0.80440100  0.88275300  1
  O  O38  1  0.61363800  0.42019000  0.09875800  1
  O  O39  1  0.69067400  0.67931000  0.07884400  1
  O  O40  1  0.57731900  0.18022400  0.19633000  1
  O  O41  1  0.81994700  0.51340200  0.39849200  1
  O  O42  1  0.90274600  0.38911300  0.58320200  1
  O  O43  1  0.92319800  0.12225500  0.60300700  1
  O  O44  1  0.92569400  0.31115200  0.32184200  1
  O  O45  1  0.89184600  0.40555600  0.08428900  1
  O  O46  1  0.99926000  0.69349300  0.10845600  1
  O  O47  1  0.90565400  0.02215300  0.31931100  1
loop_
_geom_bond_atom_site_label_1
_geom_bond_atom_site_label_2
_geom_bond_distance
_geom_bond_site_symmetry_2
Ca0 O45 2.363106 1_556
Ca0 O25 2.367574 1_555
Ca0 O31 2.380457 1_555
Ca0 O20 2.414622 1_555
Ca0 O34 2.480174 1_555
Ca0 O36 2.485653 1_555
Ca0 O38 2.542698 1_556
Ca0 O19 2.609093 1_555
Ca1 O24 2.345450 1_555
Ca1 O34 2.346390 1_555
Ca1 O32 2.356626 1_555
Ca1 O37 2.425722 1_555
Ca1 O39 2.454278 1_556
Ca1 O18 2.553790 1_555
Ca1 O46 2.582720 1_556
Ca1 O20 2.606119 1_555
Ca2 O37 2.322553 1_555
Ca2 O26 2.399622 1_555
Ca2 O3 2.424570 1_655
Ca2 O35 2.436210 1_555
Ca2 O30 2.494653 1_555
Ca2 O32 2.497721 1_555
Ca2 O0 2.532019 1_655
Ca2 O41 2.545829 1_555
Ca3 O33 2.356169 1_555
Ca3 O28 2.362533 1_545
Ca3 O47 2.373107 1_555
Ca3 O42 2.397107 1_555
Ca3 O43 2.499291 1_555
Ca3 O40 2.506501 1_555
Ca3 O44 2.566396 1_555
Ca3 O22 2.598004 1_545
Ca4 O46 2.363760 1_555
Ca4 O38 2.370823 1_555
Ca4 O41 2.371508 1_555
Ca4 O4 2.396729 1_655
Ca4 O45 2.424418 1_555
Ca4 O5 2.500834 1_655
Ca4 O39 2.560816 1_555
Ca4 O35 2.658077 1_555
Al0 O37 1.746650 1_455
Al0 O16 1.790370 1_556
Al0 O2 1.791245 1_555
Al0 O3 1.813793 1_555
Al1 O43 1.905179 1_555
Al1 O0 1.918162 1_645
Al1 O47 1.918271 1_555
Al1 O12 1.938959 1_655
Al1 O35 1.977923 1_545
Al1 O4 2.051228 1_645
Al2 O45 1.890933 1_556
Al2 O34 1.894992 1_555
Al2 O1 1.957127 1_655
Al2 O2 1.965640 1_655
Al2 O13 1.988055 1_656
Al2 O46 1.994912 1_556
Al3 O18 1.764512 1_555
Al3 O7 1.772913 1_555
Al3 O6 1.796869 1_555
Al3 O9 1.814022 1_555
Al4 O19 1.765876 1_555
Al4 O0 1.791249 1_545
Al4 O23 1.791708 1_556
Al4 O8 1.828953 1_555
Al5 O14 1.775367 1_555
Al5 O15 1.782860 1_555
Al5 O13 1.786752 1_555
Al5 O5 1.805105 1_555
Al6 O37 1.884093 1_555
Al6 O30 1.891719 1_555
Al6 O24 1.912456 1_555
Al6 O23 1.947863 1_666
Al6 O10 1.977016 1_666
Al6 O17 2.059734 1_666
Al7 O25 1.759418 1_555
Al7 O12 1.778632 1_555
Al7 O21 1.784780 1_555
Al7 O20 1.802619 1_555
Al8 O32 1.873472 1_555
Al8 O18 1.910967 1_555
Al8 O29 1.951350 1_555
Al8 O15 1.958171 1_555
Al8 O21 1.960154 1_555
Al8 O26 2.015223 1_555
Al9 O36 1.872299 1_555
Al9 O25 1.908992 1_555
Al9 O33 1.916433 1_555
Al9 O14 1.923937 1_545
Al9 O22 2.019872 1_545
Al9 O11 2.034237 1_545
Al10 O24 1.764930 1_554
Al10 O28 1.776142 1_555
Al10 O47 1.778146 1_565
Al10 O39 1.830142 1_555
Al11 O34 1.767405 1_555
Al11 O32 1.768743 1_555
Al11 O33 1.802513 1_555
Al11 O42 1.832541 1_555
Al12 O40 1.760924 1_555
Al12 O29 1.779955 1_555
Al12 O38 1.788418 1_555
Al12 O41 1.791938 1_555
Al13 O40 1.919841 1_555
Al13 O19 1.920372 1_554
Al13 O31 1.931100 1_554
Al13 O28 1.948817 1_545
Al13 O7 1.953325 1_544
Al13 O16 1.984143 1_545
Al14 O36 1.768734 1_555
Al14 O30 1.769475 1_545
Al14 O43 1.775688 1_555
Al14 O1 1.793349 1_655
Al15 O45 1.759432 1_555
Al15 O31 1.771321 1_554
Al15 O10 1.803862 1_655
Al15 O44 1.815973 1_555
Cr0 O41 1.871872 1_555
Cr0 O42 1.898792 1_555
Cr0 O3 1.901500 1_655
Cr0 O44 1.908118 1_555
Cr0 O5 1.934885 1_655
Cr0 O6 2.001459 1_655
Cr1 O39 1.827334 1_556
Cr1 O20 1.829511 1_555
Cr1 O38 1.865961 1_556
Cr1 O9 1.979296 1_555
Cr1 O8 1.989869 1_555
Cr1 O27 2.074494 1_556
O0 Y0 2.312751 1_555
O1 Y1 2.306682 1_555
O1 Y3 2.423585 1_556
O2 Y5 2.304638 1_556
O2 Y1 2.432375 1_555
O3 Y0 2.496850 1_555
O4 Si0 1.662130 1_555
O4 Y0 2.554606 1_555
O5 Y0 2.350768 1_555
O6 Y1 2.330570 1_555
O6 Y2 2.453012 1_555
O7 Y4 2.352204 1_555
O7 Y0 2.452416 1_555
O8 Y3 2.351712 1_556
O8 Y1 2.501568 1_555
O9 Y1 2.354870 1_555
O9 Y5 2.452774 1_556
O10 Y2 2.300941 1_555
O10 Y3 2.417951 1_555
O11 Si0 1.679439 1_555
O11 Y6 2.379019 1_565
O11 Y5 2.568607 1_555
O12 Y2 2.311079 1_555
O12 Y1 2.454329 1_555
O13 Y3 2.325294 1_555
O13 Y5 2.451419 1_555
O14 Y0 2.307460 1_555
O14 Y4 2.515329 1_555
O15 Y3 2.300175 1_555
O15 Y2 2.466357 1_555
O16 Y5 2.288932 1_555
O16 Y6 2.435148 1_565
O17 Si0 1.670106 1_545
O17 Y6 2.374563 1_555
O17 Y2 2.575293 1_555
O18 Y4 2.325981 1_555
O19 Y0 2.278965 1_545
O21 Y2 2.312730 1_555
O21 Y6 2.472816 1_555
O22 Si1 1.664893 1_555
O22 Y5 2.334468 1_555
O23 Y3 2.307767 1_555
O23 Y6 2.494427 1_555
O24 Y4 2.424403 1_555
O25 Y0 2.406644 1_545
O26 Si1 1.647321 1_555
O26 Y4 2.606105 1_555
O27 Si1 1.685189 1_555
O27 Y5 2.377240 1_555
O27 Y3 2.617286 1_555
O28 Y5 2.391812 1_555
O29 Y6 2.329944 1_555
O29 Y3 2.440787 1_555
O30 Y4 2.297841 1_555
O31 Y4 2.407643 1_545
O33 Y6 2.423896 1_555
O35 Si1 1.648694 1_555
O36 Y4 2.307452 1_545
O40 Y6 2.296460 1_555
O42 Y1 2.487656 1_655
O43 Y1 2.274128 1_655
O44 Y2 2.329825 1_655
O46 Si0 1.640685 1_655
O47 Y2 2.401575 1_655
