# generated using pymatgen
data_Ba3SrSb2O9
_symmetry_space_group_name_H-M   'P 1'
_cell_length_a   6.17291100
_cell_length_b   6.18029569
_cell_length_c   15.37468885
_cell_angle_alpha   91.14029064
_cell_angle_beta   91.88897973
_cell_angle_gamma   119.41923729
_symmetry_Int_Tables_number   1
_chemical_formula_structural   Ba3SrSb2O9
_chemical_formula_sum   'Ba6 Sr2 Sb4 O18'
_cell_volume   510.19776812
_cell_formula_units_Z   2
loop_
 _symmetry_equiv_pos_site_id
 _symmetry_equiv_pos_as_xyz
  1  'x, y, z'
loop_
 _atom_site_type_symbol
 _atom_site_label
 _atom_site_symmetry_multiplicity
 _atom_site_fract_x
 _atom_site_fract_y
 _atom_site_fract_z
 _atom_site_occupancy
  Ba  Ba0  1  0.31900200  0.64740500  0.40679200  1
  Ba  Ba1  1  0.68099800  0.35259500  0.59320800  1
  Ba  Ba2  1  0.65596200  0.33084100  0.90279400  1
  Ba  Ba3  1  0.97958200  0.00202700  0.25044700  1
  Ba  Ba4  1  0.02041800  0.99797300  0.74955300  1
  Ba  Ba5  1  0.34403800  0.66915900  0.09720600  1
  Sr  Sr0  1  0.00000000  0.00000000  0.00000000  1
  Sr  Sr1  1  0.00000000  0.00000000  0.50000000  1
  Sb  Sb0  1  0.30086500  0.63957900  0.84392800  1
  Sb  Sb1  1  0.63678800  0.30515800  0.34324600  1
  Sb  Sb2  1  0.36321200  0.69484200  0.65675400  1
  Sb  Sb3  1  0.69913500  0.36042100  0.15607200  1
  O  O0  1  0.22392200  0.41971900  0.56868200  1
  O  O1  1  0.89405400  0.22628800  0.10240300  1
  O  O2  1  0.25950600  0.90718600  0.59580100  1
  O  O3  1  0.77607800  0.58028100  0.43131800  1
  O  O4  1  0.56941000  0.75524200  0.93447600  1
  O  O5  1  0.46417500  0.50819400  0.75297700  1
  O  O6  1  0.90114700  0.69338700  0.11132700  1
  O  O7  1  0.43059000  0.24475800  0.06552400  1
  O  O8  1  0.09885300  0.30661300  0.88867300  1
  O  O9  1  0.69913700  0.85305900  0.61294700  1
  O  O10  1  0.10594600  0.77371200  0.89759700  1
  O  O11  1  0.05092300  0.53606400  0.72918400  1
  O  O12  1  0.53582500  0.49180600  0.24702300  1
  O  O13  1  0.94907700  0.46393600  0.27081600  1
  O  O14  1  0.74049400  0.09281400  0.40419900  1
  O  O15  1  0.30086300  0.14694100  0.38705300  1
  O  O16  1  0.51648700  0.05323100  0.23172400  1
  O  O17  1  0.48351300  0.94676900  0.76827600  1
loop_
_geom_bond_atom_site_label_1
_geom_bond_atom_site_label_2
_geom_bond_distance
_geom_bond_site_symmetry_2
Ba0 O14 2.706271 1_565
Ba0 O13 2.813889 1_455
Ba0 O0 2.818530 1_555
Ba0 O15 3.048205 1_555
Ba0 O3 3.059583 1_555
Ba0 O15 3.163951 1_565
Ba0 O12 3.183900 1_555
Ba0 O3 3.204685 1_455
Ba0 O2 3.408972 1_555
Ba1 O2 2.706271 1_545
Ba1 O11 2.813889 1_655
Ba1 O3 2.818530 1_555
Ba1 O9 3.048205 1_555
Ba1 O0 3.059583 1_555
Ba1 O9 3.163951 1_545
Ba1 O5 3.183900 1_555
Ba1 O0 3.204685 1_655
Ba1 O14 3.408972 1_555
Ba2 O10 2.787120 1_655
Ba2 O8 2.825581 1_655
Ba2 O7 2.834332 1_556
Ba2 O17 2.867407 1_545
Ba2 O4 2.957271 1_555
Ba2 O5 3.017303 1_555
Ba2 O4 3.375882 1_545
Ba3 O15 2.655580 1_655
Ba3 O6 2.703698 1_545
Ba3 O1 2.854068 1_555
Ba3 O13 2.963012 1_555
Ba3 O12 2.991316 1_545
Ba3 O14 3.011928 1_555
Ba3 O16 3.031986 1_555
Ba3 O16 3.194298 1_655
Ba3 O13 3.259300 1_545
Ba3 O12 3.280695 1_655
Ba4 O9 2.655580 1_455
Ba4 O8 2.703698 1_565
Ba4 O10 2.854068 1_555
Ba4 O11 2.963012 1_555
Ba4 O5 2.991316 1_565
Ba4 O2 3.011928 1_555
Ba4 O17 3.031986 1_555
Ba4 O17 3.194298 1_455
Ba4 O11 3.259300 1_565
Ba4 O5 3.280695 1_455
Ba5 O1 2.787120 1_455
Ba5 O6 2.825581 1_455
Ba5 O4 2.834332 1_554
Ba5 O16 2.867407 1_565
Ba5 O7 2.957271 1_555
Ba5 O12 3.017303 1_555
Ba5 O7 3.375882 1_565
O0 Sb2 1.964521 1_555
O0 Sr1 2.454953 1_555
O1 Sb3 1.958039 1_555
O1 Sr0 2.396067 1_655
O2 Sb2 1.960873 1_555
O2 Sr1 2.417724 1_565
O3 Sb1 1.964521 1_555
O3 Sr1 2.454953 1_665
O4 Sb0 1.959892 1_555
O4 Sr0 2.486147 1_666
O5 Sb0 2.117279 1_555
O5 Sb2 2.149675 1_555
O6 Sb3 1.963390 1_555
O6 Sr0 2.440256 1_665
O7 Sb3 1.959892 1_555
O7 Sr0 2.486147 1_555
O8 Sb0 1.963390 1_555
O8 Sr0 2.440256 1_556
O9 Sb2 1.958588 1_555
O9 Sr1 2.430620 1_665
O10 Sb0 1.958039 1_555
O10 Sr0 2.396067 1_566
O11 Sb2 2.060539 1_555
O11 Sb0 2.169777 1_555
O12 Sb3 2.117279 1_555
O12 Sb1 2.149675 1_555
O13 Sb1 2.060539 1_555
O13 Sb3 2.169777 1_555
O14 Sb1 1.960873 1_555
O14 Sr1 2.417724 1_655
O15 Sb1 1.958588 1_555
O15 Sr1 2.430620 1_555
O16 Sb3 2.073632 1_555
O16 Sb1 2.142313 1_555
O17 Sb0 2.073632 1_555
O17 Sb2 2.142313 1_555
