# generated using pymatgen
data_Sr(BrO3)2
_symmetry_space_group_name_H-M   'P 1'
_cell_length_a   7.42743662
_cell_length_b   6.99196756
_cell_length_c   6.99196776
_cell_angle_alpha   114.24118983
_cell_angle_beta   74.15111132
_cell_angle_gamma   74.15111538
_symmetry_Int_Tables_number   1
_chemical_formula_structural   Sr(BrO3)2
_chemical_formula_sum   'Sr2 Br4 O12'
_cell_volume   286.14590349
_cell_formula_units_Z   2
loop_
 _symmetry_equiv_pos_site_id
 _symmetry_equiv_pos_as_xyz
  1  'x, y, z'
loop_
 _atom_site_type_symbol
 _atom_site_label
 _atom_site_symmetry_multiplicity
 _atom_site_fract_x
 _atom_site_fract_y
 _atom_site_fract_z
 _atom_site_occupancy
  Sr  Sr0  1  0.99613277  0.38117453  0.62980960  1
  Sr  Sr1  1  0.49613277  0.62980960  0.38117453  1
  Br  Br0  1  0.95150719  0.78285452  0.41133855  1
  Br  Br1  1  0.45150719  0.41133855  0.78285452  1
  Br  Br2  1  0.02549193  0.09972553  0.97470879  1
  Br  Br3  1  0.52549193  0.97470879  0.09972553  1
  O  O0  1  0.12764583  0.61350257  0.45017811  1
  O  O1  1  0.62764583  0.45017811  0.61350257  1
  O  O2  1  0.23786636  0.54008547  0.76589832  1
  O  O3  1  0.73786636  0.76589832  0.54008547  1
  O  O4  1  0.90905087  0.04922063  0.60121662  1
  O  O5  1  0.40905087  0.60121662  0.04922063  1
  O  O6  1  0.89267371  0.37211052  0.03844609  1
  O  O7  1  0.39267371  0.03844609  0.37211052  1
  O  O8  1  0.75702100  0.77082357  0.01915454  1
  O  O9  1  0.25702100  0.01915454  0.77082357  1
  O  O10  1  0.06890935  0.13754222  0.20481182  1
  O  O11  1  0.56890935  0.20481182  0.13754222  1
loop_
_geom_bond_atom_site_label_1
_geom_bond_atom_site_label_2
_geom_bond_distance
_geom_bond_site_symmetry_2
Br0 O4 1.658553 1_565
Br0 O3 1.659076 1_555
Br0 O0 1.673130 1_655
Br1 O5 1.658553 1_556
Br1 O2 1.659076 1_555
Br1 O1 1.673130 1_555
Br2 O10 1.656204 1_556
Br2 O9 1.667100 1_555
Br2 O6 1.683939 1_456
Br3 O11 1.656204 1_565
Br3 O8 1.667100 1_555
Br3 O7 1.683939 1_565
O0 Sr0 2.653742 1_455
O0 Sr1 2.689023 1_555
O1 Sr1 2.653742 1_555
O1 Sr0 2.689023 1_555
O2 Sr0 2.553087 1_455
O3 Sr1 2.553087 1_555
O4 Sr0 2.520906 1_555
O5 Sr1 2.520906 1_555
O6 Sr1 2.713755 1_555
O6 Sr0 2.781011 1_554
O7 Sr0 2.713755 1_455
O7 Sr1 2.781011 1_545
O8 Sr0 2.571696 1_554
O9 Sr1 2.571696 1_545
O10 Sr0 2.547010 1_455
O11 Sr1 2.547010 1_555
