# generated using pymatgen
data_RbCuCl3
_symmetry_space_group_name_H-M   'P 1'
_cell_length_a   6.99294500
_cell_length_b   7.03708621
_cell_length_c   12.56544249
_cell_angle_alpha   90.53775336
_cell_angle_beta   90.00000000
_cell_angle_gamma   119.79272299
_symmetry_Int_Tables_number   1
_chemical_formula_structural   RbCuCl3
_chemical_formula_sum   'Rb4 Cu4 Cl12'
_cell_volume   536.58596993
_cell_formula_units_Z   4
loop_
 _symmetry_equiv_pos_site_id
 _symmetry_equiv_pos_as_xyz
  1  'x, y, z'
loop_
 _atom_site_type_symbol
 _atom_site_label
 _atom_site_symmetry_multiplicity
 _atom_site_fract_x
 _atom_site_fract_y
 _atom_site_fract_z
 _atom_site_occupancy
  Rb  Rb0  1  0.68475900  0.33305300  0.37476600  1
  Rb  Rb1  1  0.35170600  0.66694700  0.12523400  1
  Rb  Rb2  1  0.31524100  0.66694700  0.62523400  1
  Rb  Rb3  1  0.64829400  0.33305300  0.87476600  1
  Cu  Cu0  1  0.04498500  0.00000000  0.25000000  1
  Cu  Cu1  1  0.00000000  0.00000000  0.00000000  1
  Cu  Cu2  1  0.00000000  0.00000000  0.50000000  1
  Cu  Cu3  1  0.95501400  0.00000000  0.75000000  1
  Cl  Cl0  1  0.12300300  0.85788400  0.86234800  1
  Cl  Cl1  1  0.73488100  0.85788400  0.36234800  1
  Cl  Cl2  1  0.85311600  0.67447600  0.08887000  1
  Cl  Cl3  1  0.26511900  0.14211600  0.63765200  1
  Cl  Cl4  1  0.81194600  0.17334900  0.65043100  1
  Cl  Cl5  1  0.82136000  0.67447600  0.58887000  1
  Cl  Cl6  1  0.18805400  0.82665100  0.34956900  1
  Cl  Cl7  1  0.36140300  0.17334900  0.15043100  1
  Cl  Cl8  1  0.63859700  0.82665100  0.84956900  1
  Cl  Cl9  1  0.87699700  0.14211600  0.13765200  1
  Cl  Cl10  1  0.14688400  0.32552400  0.91113000  1
  Cl  Cl11  1  0.17864000  0.32552400  0.41113000  1
loop_
_geom_bond_atom_site_label_1
_geom_bond_atom_site_label_2
_geom_bond_distance
_geom_bond_site_symmetry_2
Cl0 Cu1 2.356715 1_566
Cl0 Cu3 2.359458 1_465
Cl0 Rb3 3.533142 1_565
Cl0 Rb3 3.537225 1_455
Cl0 Rb2 3.769537 1_555
Cl1 Cu2 2.356715 1_665
Cl1 Cu0 2.359453 1_665
Cl1 Rb0 3.533142 1_565
Cl1 Rb0 3.537225 1_555
Cl1 Rb1 3.769537 1_555
Cl2 Cu1 2.293331 1_665
Cl2 Cu0 2.829432 1_665
Cl2 Rb3 3.394236 1_554
Cl2 Rb1 3.510243 1_555
Cl2 Rb1 3.542892 1_655
Cl3 Cu2 2.356715 1_555
Cl3 Cu3 2.359458 1_455
Cl3 Rb2 3.533142 1_545
Cl3 Rb2 3.537225 1_555
Cl3 Rb3 3.769537 1_555
Cl4 Cu3 2.301256 1_555
Cl4 Cu2 2.888126 1_655
Cl4 Rb3 3.425981 1_555
Cl4 Rb2 3.524867 1_655
Cl4 Rb2 3.541572 1_545
Cl4 Rb0 3.888282 1_555
Cl5 Cu2 2.293331 1_665
Cl5 Cu3 2.829432 1_565
Cl5 Rb0 3.394236 1_555
Cl5 Rb2 3.510243 1_655
Cl5 Rb2 3.542892 1_555
Cl6 Cu0 2.301261 1_565
Cl6 Cu2 2.888126 1_565
Cl6 Rb1 3.425981 1_555
Cl6 Rb0 3.524867 1_455
Cl6 Rb0 3.541572 1_565
Cl6 Rb2 3.888282 1_555
Cl7 Cu0 2.301260 1_555
Cl7 Cu1 2.888126 1_555
Cl7 Rb0 3.425981 1_555
Cl7 Rb1 3.524867 1_555
Cl7 Rb1 3.541572 1_545
Cl7 Rb3 3.888282 1_554
Cl8 Cu3 2.301256 1_565
Cl8 Cu1 2.888126 1_666
Cl8 Rb2 3.425981 1_555
Cl8 Rb3 3.524867 1_555
Cl8 Rb3 3.541572 1_565
Cl8 Rb1 3.888282 1_556
Cl9 Cu1 2.356715 1_655
Cl9 Cu0 2.359454 1_655
Cl9 Rb1 3.533142 1_545
Cl9 Rb1 3.537225 1_655
Cl9 Rb0 3.769537 1_555
Cl10 Cu1 2.293331 1_556
Cl10 Cu3 2.829432 1_455
Cl10 Rb1 3.394236 1_556
Cl10 Rb3 3.510243 1_555
Cl10 Rb3 3.542892 1_455
Cl11 Cu2 2.293331 1_555
Cl11 Cu0 2.829432 1_555
Cl11 Rb2 3.394236 1_555
Cl11 Rb0 3.510243 1_455
Cl11 Rb0 3.542892 1_555
