# generated using pymatgen
data_Cu3(AsO4)2
_symmetry_space_group_name_H-M   'P 1'
_cell_length_a   5.08989333
_cell_length_b   5.41720227
_cell_length_c   11.57892098
_cell_angle_alpha   90.00000000
_cell_angle_beta   90.00000000
_cell_angle_gamma   111.72005364
_symmetry_Int_Tables_number   1
_chemical_formula_structural   Cu3(AsO4)2
_chemical_formula_sum   'Cu6 As4 O16'
_cell_volume   296.59852541
_cell_formula_units_Z   2
loop_
 _symmetry_equiv_pos_site_id
 _symmetry_equiv_pos_as_xyz
  1  'x, y, z'
loop_
 _atom_site_type_symbol
 _atom_site_label
 _atom_site_symmetry_multiplicity
 _atom_site_fract_x
 _atom_site_fract_y
 _atom_site_fract_z
 _atom_site_occupancy
  Cu  Cu0  1  0.24379693  0.86209306  0.16267372  1
  Cu  Cu1  1  0.74379693  0.86209306  0.33732628  1
  Cu  Cu2  1  0.00000000  0.50000000  0.50000000  1
  Cu  Cu3  1  0.25620307  0.13790694  0.66267372  1
  Cu  Cu4  1  0.50000000  0.50000000  0.00000000  1
  Cu  Cu5  1  0.75620307  0.13790694  0.83732628  1
  As  As0  1  0.89202951  0.26599654  0.11544233  1
  As  As1  1  0.60797049  0.73400346  0.61544233  1
  As  As2  1  0.39202951  0.26599654  0.38455767  1
  As  As3  1  0.10797049  0.73400346  0.88455767  1
  O  O0  1  0.78838995  0.72862744  0.48878924  1
  O  O1  1  0.67035033  0.99209303  0.18753700  1
  O  O2  1  0.17035033  0.99209303  0.31246300  1
  O  O3  1  0.69742673  0.21996664  0.41734601  1
  O  O4  1  0.40651367  0.54304751  0.31443019  1
  O  O5  1  0.28838995  0.72862744  0.01121076  1
  O  O6  1  0.82964967  0.00790697  0.68753700  1
  O  O7  1  0.30257327  0.78003336  0.58265399  1
  O  O8  1  0.21161005  0.27137256  0.51121076  1
  O  O9  1  0.90651367  0.54304751  0.18556981  1
  O  O10  1  0.80257327  0.78003336  0.91734601  1
  O  O11  1  0.19742673  0.21996664  0.08265399  1
  O  O12  1  0.59348633  0.45695249  0.68556981  1
  O  O13  1  0.32964967  0.00790697  0.81246300  1
  O  O14  1  0.09348633  0.45695249  0.81443019  1
  O  O15  1  0.71161005  0.27137256  0.98878924  1
loop_
_geom_bond_atom_site_label_1
_geom_bond_atom_site_label_2
_geom_bond_distance
_geom_bond_site_symmetry_2
Cu0 O5 1.942024 1_555
Cu0 O9 1.951545 1_455
Cu0 O2 1.959259 1_555
Cu0 O1 2.039826 1_555
Cu0 O11 2.238594 1_565
Cu1 O0 1.942024 1_555
Cu1 O4 1.951545 1_555
Cu1 O1 1.959259 1_555
Cu1 O2 2.039826 1_655
Cu1 O3 2.238594 1_565
Cu2 O0 1.923072 1_455
Cu2 O8 1.923072 1_555
Cu2 O3 1.964647 1_455
Cu2 O7 1.964647 1_555
Cu3 O8 1.942024 1_555
Cu3 O12 1.951545 1_555
Cu3 O13 1.959259 1_555
Cu3 O6 2.039826 1_455
Cu3 O7 2.238594 1_545
Cu4 O5 1.923072 1_555
Cu4 O15 1.923072 1_554
Cu4 O10 1.964647 1_554
Cu4 O11 1.964647 1_555
Cu5 O15 1.942024 1_555
Cu5 O14 1.951545 1_655
Cu5 O6 1.959259 1_555
Cu5 O13 2.039826 1_555
Cu5 O10 2.238594 1_545
As0 O9 1.683868 1_555
As0 O11 1.705719 1_655
As0 O1 1.712442 1_545
As0 O15 1.736257 1_554
As1 O12 1.683868 1_555
As1 O7 1.705719 1_555
As1 O6 1.712442 1_565
As1 O0 1.736257 1_555
As2 O4 1.683868 1_555
As2 O3 1.705719 1_555
As2 O2 1.712442 1_545
As2 O8 1.736257 1_555
As3 O14 1.683868 1_555
As3 O10 1.705719 1_455
As3 O13 1.712442 1_565
As3 O5 1.736257 1_556
