# generated using pymatgen
data_GaH20C2S2NO14
_symmetry_space_group_name_H-M   'P 1'
_cell_length_a   10.97395800
_cell_length_b   6.31477100
_cell_length_c   11.45068347
_cell_angle_alpha   76.41580349
_cell_angle_beta   90.00000000
_cell_angle_gamma   90.00000000
_symmetry_Int_Tables_number   1
_chemical_formula_structural   GaH20C2S2NO14
_chemical_formula_sum   'Ga2 H40 C4 S4 N2 O28'
_cell_volume   771.31204049
_cell_formula_units_Z   2
loop_
 _symmetry_equiv_pos_site_id
 _symmetry_equiv_pos_as_xyz
  1  'x, y, z'
loop_
 _atom_site_type_symbol
 _atom_site_label
 _atom_site_symmetry_multiplicity
 _atom_site_fract_x
 _atom_site_fract_y
 _atom_site_fract_z
 _atom_site_occupancy
  Ga  Ga0  1  0.49567300  0.25624400  0.25623100  1
  Ga  Ga1  1  0.99567300  0.74375600  0.74376900  1
  H  H0  1  0.99135500  0.48328300  0.29662500  1
  H  H1  1  0.64412600  0.01292500  0.16207500  1
  H  H2  1  0.84443800  0.50566100  0.65702200  1
  H  H3  1  0.31282200  0.39943000  0.11013700  1
  H  H4  1  0.17870200  0.89069400  0.60428200  1
  H  H5  1  0.04319400  0.05443100  0.30335600  1
  H  H6  1  0.00660800  0.04705400  0.86849200  1
  H  H7  1  0.90335000  0.90067900  0.33079000  1
  H  H8  1  0.64070400  0.44434300  0.06903300  1
  H  H9  1  0.81282200  0.60057000  0.88986300  1
  H  H10  1  0.46739900  0.89932400  0.43166400  1
  H  H11  1  0.49135500  0.51671700  0.70337500  1
  H  H12  1  0.68602600  0.38040000  0.36272200  1
  H  H13  1  0.99668100  0.53314200  0.13536800  1
  H  H14  1  0.14412600  0.98707500  0.83792500  1
  H  H15  1  0.96739900  0.10067600  0.56833600  1
  H  H16  1  0.48138700  0.56130900  0.37773900  1
  H  H17  1  0.40335000  0.09932100  0.66921000  1
  H  H18  1  0.54319400  0.94556900  0.69664400  1
  H  H19  1  0.34759000  0.06354100  0.43577400  1
  H  H20  1  0.04472800  0.78008500  0.39190800  1
  H  H21  1  0.48796400  0.07696700  0.86732100  1
  H  H22  1  0.49668100  0.46685800  0.86463200  1
  H  H23  1  0.61568700  0.19546100  0.80999400  1
  H  H24  1  0.34443800  0.49433900  0.34297800  1
  H  H25  1  0.86595900  0.61594300  0.20817700  1
  H  H26  1  0.80631700  0.86914100  0.85303600  1
  H  H27  1  0.30631700  0.13085900  0.14696400  1
  H  H28  1  0.02526500  0.38702800  0.92612300  1
  H  H29  1  0.11568700  0.80453900  0.19000600  1
  H  H30  1  0.98796400  0.92303300  0.13267900  1
  H  H31  1  0.52526500  0.61297200  0.07387700  1
  H  H32  1  0.18602600  0.61960000  0.63727800  1
  H  H33  1  0.36595900  0.38405700  0.79182300  1
  H  H34  1  0.84759000  0.93645900  0.56422600  1
  H  H35  1  0.98138700  0.43869100  0.62226100  1
  H  H36  1  0.67870200  0.10930600  0.39571800  1
  H  H37  1  0.54472800  0.21991500  0.60809200  1
  H  H38  1  0.50660800  0.95294600  0.13150800  1
  H  H39  1  0.14070400  0.55565700  0.93096700  1
  C  C0  1  0.50155800  0.10698700  0.68385200  1
  C  C1  1  0.46476800  0.40585900  0.78804500  1
  C  C2  1  0.96476800  0.59414100  0.21195500  1
  C  C3  1  0.00155800  0.89301300  0.31614800  1
  S  S0  1  0.67791500  0.66626500  0.49732300  1
  S  S1  1  0.31026900  0.84203300  0.00715600  1
  S  S2  1  0.17791500  0.33373500  0.50267700  1
  S  S3  1  0.81026900  0.15796700  0.99284400  1
  N  N0  1  0.52244500  0.18973600  0.79382400  1
  N  N1  1  0.02244500  0.81026400  0.20617600  1
  O  O0  1  0.04135700  0.32617700  0.51705300  1
  O  O1  1  0.70797400  0.52205700  0.61596500  1
  O  O2  1  0.83624100  0.73533500  0.82789700  1
  O  O3  1  0.42294100  0.03656200  0.39142000  1
  O  O4  1  0.44776600  0.84436500  0.01745100  1
  O  O5  1  0.23399900  0.41316800  0.60221800  1
  O  O6  1  0.72299300  0.89336500  0.49310100  1
  O  O7  1  0.06709100  0.52610600  0.88649200  1
  O  O8  1  0.76753700  0.38401700  0.99063900  1
  O  O9  1  0.77682400  0.00717200  0.10789500  1
  O  O10  1  0.65567000  0.24696800  0.33487400  1
  O  O11  1  0.73399900  0.58683200  0.39778200  1
  O  O12  1  0.56709100  0.47389400  0.11350800  1
  O  O13  1  0.54135700  0.67382300  0.48294700  1
  O  O14  1  0.55627200  0.01057400  0.19009300  1
  O  O15  1  0.94776600  0.15563500  0.98254900  1
  O  O16  1  0.75707700  0.08689000  0.88823500  1
  O  O17  1  0.25707700  0.91311000  0.11176500  1
  O  O18  1  0.92294100  0.96343800  0.60858000  1
  O  O19  1  0.20797400  0.47794300  0.38403500  1
  O  O20  1  0.22299300  0.10663500  0.50689900  1
  O  O21  1  0.93372700  0.49588400  0.68340400  1
  O  O22  1  0.26753700  0.61598300  0.00936100  1
  O  O23  1  0.27682400  0.99282800  0.89210500  1
  O  O24  1  0.33624100  0.26466500  0.17210300  1
  O  O25  1  0.05627200  0.98942600  0.80990700  1
  O  O26  1  0.15567000  0.75303200  0.66512600  1
  O  O27  1  0.43372700  0.50411600  0.31659600  1
loop_
_geom_bond_atom_site_label_1
_geom_bond_atom_site_label_2
_geom_bond_distance
_geom_bond_site_symmetry_2
Ga0 O10 1.967846 1_555
Ga0 O27 1.974377 1_555
Ga0 O3 1.987223 1_555
Ga0 O24 1.991948 1_555
Ga0 O14 1.993580 1_555
Ga0 O12 2.029526 1_555
Ga1 O26 1.967846 1_655
Ga1 O21 1.974377 1_555
Ga1 O18 1.987223 1_555
Ga1 O2 1.991948 1_555
Ga1 O25 1.993580 1_655
Ga1 O7 2.029526 1_655
H1 O14 1.015092 1_555
H1 O9 1.586627 1_555
H2 O21 1.022948 1_555
H2 O1 1.565738 1_555
H3 O24 1.005028 1_555
H3 O22 1.645392 1_555
H4 O26 1.010183 1_555
H4 O20 1.620143 1_565
H6 O25 0.997079 1_545
H6 O15 1.735937 1_455
H8 O12 0.995692 1_555
H8 O8 1.746090 1_554
H9 O2 1.005028 1_555
H9 O8 1.645392 1_555
H10 O3 1.006889 1_565
H10 O13 1.624341 1_555
H12 O10 1.024125 1_555
H12 O11 1.543844 1_555
H14 O25 1.015092 1_555
H14 O23 1.586627 1_555
H15 O18 1.006889 1_545
H15 O0 1.624341 1_655
H16 O27 1.006453 1_555
H16 O13 1.670720 1_555
H19 O3 1.005673 1_555
H19 O20 1.646521 1_555
H21 N0 1.037803 1_555
H23 N0 1.041989 1_555
H24 O27 1.022948 1_555
H24 O19 1.565738 1_555
H26 O2 1.009407 1_555
H26 O16 1.614156 1_565
H27 O24 1.009407 1_555
H27 O17 1.614156 1_545
H28 O7 1.000356 1_555
H28 O15 1.682963 1_455
H29 N1 1.041989 1_555
H30 N1 1.037803 1_655
H31 O12 1.000356 1_555
H31 O4 1.682963 1_555
H32 O26 1.024125 1_555
H32 O5 1.543844 1_555
H34 O18 1.005673 1_555
H34 O6 1.646521 1_555
H35 O21 1.006453 1_555
H35 O0 1.670720 1_655
H36 O10 1.010183 1_555
H36 O6 1.620143 1_545
H38 O14 0.997079 1_565
H38 O4 1.735937 1_555
H39 O7 0.995692 1_555
H39 O22 1.746090 1_556
C0 H37 1.093129 1_555
C0 H17 1.093512 1_555
C0 H18 1.095032 1_545
C0 N0 1.490104 1_555
C1 H33 1.092607 1_555
C1 H11 1.093778 1_555
C1 H22 1.094892 1_555
C1 N0 1.491698 1_555
C2 H25 1.092607 1_555
C2 H0 1.093778 1_555
C2 H13 1.094892 1_555
C2 N1 1.491698 1_655
C3 H20 1.093129 1_555
C3 H7 1.093512 1_455
C3 H5 1.095032 1_565
C3 N1 1.490104 1_555
O0 S2 1.507127 1_555
O1 S0 1.484098 1_555
O4 S1 1.513825 1_555
O5 S2 1.482613 1_555
O6 S0 1.507010 1_555
O8 S3 1.497076 1_555
O9 S3 1.479102 1_554
O11 S0 1.482613 1_555
O13 S0 1.507127 1_555
O15 S3 1.513825 1_555
O16 S3 1.493176 1_555
O17 S1 1.493176 1_555
O19 S2 1.484098 1_555
O20 S2 1.507010 1_555
O22 S1 1.497076 1_555
O23 S1 1.479102 1_556
