# generated using pymatgen
data_BaBiBO4
_symmetry_space_group_name_H-M   'P 1'
_cell_length_a   5.20234800
_cell_length_b   8.81672500
_cell_length_c   9.86375400
_cell_angle_alpha   90.00000000
_cell_angle_beta   90.00000000
_cell_angle_gamma   90.00000000
_symmetry_Int_Tables_number   1
_chemical_formula_structural   BaBiBO4
_chemical_formula_sum   'Ba4 Bi4 B4 O16'
_cell_volume   452.42742991
_cell_formula_units_Z   4
loop_
 _symmetry_equiv_pos_site_id
 _symmetry_equiv_pos_as_xyz
  1  'x, y, z'
loop_
 _atom_site_type_symbol
 _atom_site_label
 _atom_site_symmetry_multiplicity
 _atom_site_fract_x
 _atom_site_fract_y
 _atom_site_fract_z
 _atom_site_occupancy
  Ba  Ba0  1  0.25000000  0.00838000  0.81696200  1
  Ba  Ba1  1  0.75000000  0.49162000  0.31696200  1
  Ba  Ba2  1  0.75000000  0.99162000  0.18303800  1
  Ba  Ba3  1  0.25000000  0.50838000  0.68303800  1
  Bi  Bi0  1  0.75000000  0.30490900  0.93872400  1
  Bi  Bi1  1  0.25000000  0.69509100  0.06127600  1
  Bi  Bi2  1  0.25000000  0.19509100  0.43872400  1
  Bi  Bi3  1  0.75000000  0.80490900  0.56127600  1
  B  B0  1  0.75000000  0.19993300  0.55614500  1
  B  B1  1  0.25000000  0.80006700  0.44385500  1
  B  B2  1  0.25000000  0.30006700  0.05614500  1
  B  B3  1  0.75000000  0.69993300  0.94385500  1
  O  O0  1  0.98653000  0.70635800  0.87726000  1
  O  O1  1  0.25000000  0.81189700  0.58540800  1
  O  O2  1  0.01347000  0.79364200  0.37726000  1
  O  O3  1  0.51347000  0.70635800  0.87726000  1
  O  O4  1  0.48653000  0.79364200  0.37726000  1
  O  O5  1  0.75000000  0.57456100  0.58387300  1
  O  O6  1  0.75000000  0.68810300  0.08540800  1
  O  O7  1  0.75000000  0.18810300  0.41459200  1
  O  O8  1  0.01347000  0.29364200  0.12274000  1
  O  O9  1  0.51347000  0.20635800  0.62274000  1
  O  O10  1  0.75000000  0.07456100  0.91612700  1
  O  O11  1  0.25000000  0.92543900  0.08387300  1
  O  O12  1  0.98653000  0.20635800  0.62274000  1
  O  O13  1  0.25000000  0.42543900  0.41612700  1
  O  O14  1  0.48653000  0.29364200  0.12274000  1
  O  O15  1  0.25000000  0.31189700  0.91459200  1
loop_
_geom_bond_atom_site_label_1
_geom_bond_atom_site_label_2
_geom_bond_distance
_geom_bond_site_symmetry_2
Ba0 O11 2.732416 1_546
Ba0 O10 2.839601 1_455
Ba0 O10 2.839601 1_555
Ba0 O15 2.844025 1_555
Ba0 O1 2.866637 1_545
Ba0 O9 2.931838 1_555
Ba0 O12 2.931838 1_455
Ba0 O0 3.053392 1_445
Ba0 O3 3.053392 1_545
Ba1 O5 2.732416 1_555
Ba1 O13 2.839601 1_555
Ba1 O13 2.839601 1_655
Ba1 O7 2.844025 1_555
Ba1 O6 2.866637 1_555
Ba1 O14 2.931838 1_555
Ba1 O8 2.931838 1_655
Ba1 O4 3.053392 1_555
Ba1 O2 3.053392 1_655
Ba2 O10 2.732416 1_564
Ba2 O11 2.839601 1_655
Ba2 O11 2.839601 1_555
Ba2 O6 2.844025 1_555
Ba2 O7 2.866637 1_565
Ba2 O4 2.931838 1_555
Ba2 O2 2.931838 1_655
Ba2 O14 3.053392 1_565
Ba2 O8 3.053392 1_665
Ba3 O13 2.732416 1_555
Ba3 O5 2.839601 1_555
Ba3 O5 2.839601 1_455
Ba3 O1 2.844025 1_555
Ba3 O15 2.866637 1_555
Ba3 O0 2.931838 1_455
Ba3 O3 2.931838 1_555
Ba3 O12 3.053392 1_455
Ba3 O9 3.053392 1_555
Bi0 O10 2.043109 1_555
Bi0 O14 2.276649 1_556
Bi0 O8 2.276649 1_656
Bi0 O15 2.612769 1_655
Bi0 O15 2.612769 1_555
Bi1 O11 2.043109 1_555
Bi1 O3 2.276649 1_554
Bi1 O0 2.276649 1_454
Bi1 O6 2.612769 1_555
Bi1 O6 2.612769 1_455
Bi2 O13 2.043109 1_555
Bi2 O9 2.276649 1_555
Bi2 O12 2.276649 1_455
Bi2 O7 2.612769 1_455
Bi2 O7 2.612769 1_555
Bi3 O5 2.043109 1_555
Bi3 O4 2.276649 1_555
Bi3 O2 2.276649 1_655
Bi3 O1 2.612769 1_555
Bi3 O1 2.612769 1_655
B0 O9 1.396014 1_555
B0 O12 1.396014 1_555
B0 O7 1.400134 1_555
B1 O2 1.396014 1_555
B1 O4 1.396014 1_555
B1 O1 1.400134 1_555
B2 O8 1.396014 1_555
B2 O14 1.396014 1_555
B2 O15 1.400134 1_554
B3 O0 1.396014 1_555
B3 O3 1.396014 1_555
B3 O6 1.400134 1_556
