# generated using pymatgen
data_Cs(BCl)6
_symmetry_space_group_name_H-M   'P 1'
_cell_length_a   16.44175908
_cell_length_b   16.44175908
_cell_length_c   16.44175877
_cell_angle_alpha   34.47512011
_cell_angle_beta   34.47512011
_cell_angle_gamma   34.47512167
_symmetry_Int_Tables_number   1
_chemical_formula_structural   Cs(BCl)6
_chemical_formula_sum   'Cs4 B24 Cl24'
_cell_volume   1270.45253246
_cell_formula_units_Z   4
loop_
 _symmetry_equiv_pos_site_id
 _symmetry_equiv_pos_as_xyz
  1  'x, y, z'
loop_
 _atom_site_type_symbol
 _atom_site_label
 _atom_site_symmetry_multiplicity
 _atom_site_fract_x
 _atom_site_fract_y
 _atom_site_fract_z
 _atom_site_occupancy
  Cs  Cs0  1  0.20840000  0.20840000  0.20840000  1
  Cs  Cs1  1  0.37316000  0.37316000  0.37316000  1
  Cs  Cs2  1  0.62684000  0.62684000  0.62684000  1
  Cs  Cs3  1  0.79160000  0.79160000  0.79160000  1
  B  B0  1  0.34839900  0.44782600  0.68291700  1
  B  B1  1  0.65160100  0.55217400  0.31708300  1
  B  B2  1  0.12512600  0.91478400  0.04814200  1
  B  B3  1  0.56014500  0.49903100  0.35321300  1
  B  B4  1  0.91478400  0.04814200  0.12512600  1
  B  B5  1  0.49903100  0.35321300  0.56014500  1
  B  B6  1  0.64678700  0.43985500  0.50096900  1
  B  B7  1  0.02371200  0.14664400  0.80870200  1
  B  B8  1  0.14664400  0.80870200  0.02371200  1
  B  B9  1  0.50096900  0.64678700  0.43985500  1
  B  B10  1  0.68291700  0.34839900  0.44782600  1
  B  B11  1  0.04814200  0.12512600  0.91478400  1
  B  B12  1  0.35321300  0.56014500  0.49903100  1
  B  B13  1  0.97628800  0.85335600  0.19129800  1
  B  B14  1  0.87487400  0.08521600  0.95185800  1
  B  B15  1  0.55217400  0.31708300  0.65160100  1
  B  B16  1  0.80870200  0.02371200  0.14664400  1
  B  B17  1  0.08521600  0.95185800  0.87487400  1
  B  B18  1  0.95185800  0.87487400  0.08521600  1
  B  B19  1  0.85335600  0.19129800  0.97628800  1
  B  B20  1  0.31708300  0.65160100  0.55217400  1
  B  B21  1  0.43985500  0.50096900  0.64678700  1
  B  B22  1  0.44782600  0.68291700  0.34839900  1
  B  B23  1  0.19129800  0.97628800  0.85335600  1
  Cl  Cl0  1  0.87393500  0.18740000  0.39385400  1
  Cl  Cl1  1  0.04868700  0.30084600  0.60578600  1
  Cl  Cl2  1  0.39385400  0.87393500  0.18740000  1
  Cl  Cl3  1  0.60614600  0.12606500  0.81260000  1
  Cl  Cl4  1  0.39421400  0.95131300  0.69915400  1
  Cl  Cl5  1  0.82392500  0.09768200  0.25804300  1
  Cl  Cl6  1  0.60578600  0.04868700  0.30084600  1
  Cl  Cl7  1  0.50152300  0.80255700  0.37558000  1
  Cl  Cl8  1  0.95131300  0.69915400  0.39421400  1
  Cl  Cl9  1  0.49847700  0.19744300  0.62442000  1
  Cl  Cl10  1  0.74195700  0.17607500  0.90231800  1
  Cl  Cl11  1  0.17607500  0.90231800  0.74195700  1
  Cl  Cl12  1  0.18740000  0.39385400  0.87393500  1
  Cl  Cl13  1  0.37558000  0.50152300  0.80255700  1
  Cl  Cl14  1  0.90231800  0.74195700  0.17607500  1
  Cl  Cl15  1  0.62442000  0.49847700  0.19744300  1
  Cl  Cl16  1  0.69915400  0.39421400  0.95131300  1
  Cl  Cl17  1  0.80255700  0.37558000  0.50152300  1
  Cl  Cl18  1  0.25804300  0.82392500  0.09768200  1
  Cl  Cl19  1  0.09768200  0.25804300  0.82392500  1
  Cl  Cl20  1  0.12606500  0.81260000  0.60614600  1
  Cl  Cl21  1  0.19744300  0.62442000  0.49847700  1
  Cl  Cl22  1  0.30084600  0.60578700  0.04868700  1
  Cl  Cl23  1  0.81260000  0.60614600  0.12606500  1
loop_
_geom_bond_atom_site_label_1
_geom_bond_atom_site_label_2
_geom_bond_distance
_geom_bond_site_symmetry_2
B0 Cl12 1.796992 1_555
B1 Cl23 1.796992 1_555
B2 Cl18 1.793610 1_555
B3 Cl15 1.799004 1_555
B4 Cl5 1.793610 1_555
B5 Cl9 1.799004 1_555
B6 Cl17 1.799004 1_555
B7 Cl1 1.799731 1_555
B8 Cl22 1.799723 1_555
B9 Cl7 1.799004 1_555
B10 Cl0 1.796992 1_555
B11 Cl19 1.793610 1_555
B12 Cl21 1.799004 1_555
B13 Cl8 1.799731 1_555
B14 Cl10 1.793610 1_555
B15 Cl3 1.796992 1_555
B16 Cl6 1.799731 1_555
B17 Cl11 1.793610 1_555
B18 Cl14 1.793610 1_555
B19 Cl16 1.799731 1_555
B20 Cl20 1.796992 1_555
B21 Cl13 1.799004 1_555
B22 Cl2 1.796992 1_555
B23 Cl4 1.799731 1_555
Cl0 Cs0 3.661467 1_655
Cl0 Cs3 4.087890 1_545
Cl1 Cs1 3.717763 1_555
Cl1 Cs2 3.842180 1_455
Cl2 Cs0 3.661467 1_565
Cl2 Cs3 4.087890 1_554
Cl3 Cs3 3.661467 1_545
Cl3 Cs0 4.087890 1_556
Cl4 Cs2 3.717763 1_555
Cl4 Cs1 3.842180 1_565
Cl5 Cs1 3.832226 1_555
Cl6 Cs1 3.717763 1_555
Cl6 Cs2 3.842180 1_545
Cl7 Cs0 3.726561 1_565
Cl7 Cs2 3.768272 1_555
Cl8 Cs2 3.717763 1_555
Cl8 Cs1 3.842180 1_655
Cl9 Cs3 3.726561 1_545
Cl9 Cs1 3.768272 1_555
Cl10 Cs2 3.832226 1_555
Cl11 Cs2 3.832226 1_555
Cl12 Cs0 3.661467 1_556
Cl12 Cs3 4.087890 1_455
Cl13 Cs0 3.726561 1_556
Cl13 Cs2 3.768272 1_555
Cl14 Cs2 3.832226 1_555
Cl15 Cs3 3.726561 1_554
Cl15 Cs1 3.768272 1_555
Cl16 Cs2 3.717763 1_555
Cl16 Cs1 3.842180 1_556
Cl17 Cs0 3.726561 1_655
Cl17 Cs2 3.768272 1_555
Cl18 Cs1 3.832226 1_555
Cl19 Cs1 3.832226 1_555
Cl20 Cs3 3.661467 1_455
Cl20 Cs0 4.087890 1_565
Cl21 Cs3 3.726561 1_455
Cl21 Cs1 3.768272 1_555
Cl22 Cs1 3.717756 1_555
Cl22 Cs2 3.842184 1_554
Cl23 Cs3 3.661467 1_554
Cl23 Cs0 4.087890 1_655
