# generated using pymatgen
data_MnSO3
_symmetry_space_group_name_H-M   'P 1'
_cell_length_a   8.04348687
_cell_length_b   8.04342912
_cell_length_c   8.04298081
_cell_angle_alpha   109.25440238
_cell_angle_beta   109.26197314
_cell_angle_gamma   109.26371617
_symmetry_Int_Tables_number   1
_chemical_formula_structural   MnSO3
_chemical_formula_sum   'Mn6 S6 O18'
_cell_volume   403.67386953
_cell_formula_units_Z   6
loop_
 _symmetry_equiv_pos_site_id
 _symmetry_equiv_pos_as_xyz
  1  'x, y, z'
loop_
 _atom_site_type_symbol
 _atom_site_label
 _atom_site_symmetry_multiplicity
 _atom_site_fract_x
 _atom_site_fract_y
 _atom_site_fract_z
 _atom_site_occupancy
  Mn  Mn0  1  0.31851300  0.63455300  0.81365800  1
  Mn  Mn1  1  0.68139200  0.36518500  0.18609700  1
  Mn  Mn2  1  0.63451400  0.81404000  0.31884000  1
  Mn  Mn3  1  0.36532500  0.18613800  0.68136300  1
  Mn  Mn4  1  0.81405600  0.31860100  0.63436100  1
  Mn  Mn5  1  0.18605600  0.68127900  0.36544300  1
  S  S0  1  0.21058700  0.35270900  0.02458600  1
  S  S1  1  0.64730800  0.97544400  0.78944400  1
  S  S2  1  0.02457900  0.21059300  0.35270500  1
  S  S3  1  0.78941400  0.64731900  0.97541400  1
  S  S4  1  0.97544400  0.78943600  0.64733000  1
  S  S5  1  0.35268500  0.02455800  0.21057900  1
  O  O0  1  0.55547000  0.22959300  0.34096100  1
  O  O1  1  0.77041900  0.65905200  0.44454800  1
  O  O2  1  0.44453100  0.77041400  0.65901700  1
  O  O3  1  0.34096400  0.55546100  0.22958700  1
  O  O4  1  0.22961100  0.34095300  0.55548300  1
  O  O5  1  0.65905400  0.44454000  0.77039800  1
  O  O6  1  0.87969200  0.58559800  0.13253900  1
  O  O7  1  0.86748100  0.12034000  0.41442300  1
  O  O8  1  0.13254500  0.87969100  0.58559200  1
  O  O9  1  0.58558200  0.13251300  0.87965100  1
  O  O10  1  0.41440400  0.86746500  0.12032200  1
  O  O11  1  0.12033200  0.41441500  0.86746700  1
  O  O12  1  0.01957900  0.62802400  0.68858100  1
  O  O13  1  0.98040200  0.37198200  0.31143000  1
  O  O14  1  0.62799100  0.68852300  0.01961100  1
  O  O15  1  0.37199600  0.31146900  0.98045700  1
  O  O16  1  0.31150000  0.98046000  0.37204500  1
  O  O17  1  0.68857300  0.01965200  0.62807000  1
loop_
_geom_bond_atom_site_label_1
_geom_bond_atom_site_label_2
_geom_bond_distance
_geom_bond_site_symmetry_2
Mn0 O2 2.183099 1_555
Mn0 O10 2.220823 1_556
Mn0 O11 2.227501 1_555
Mn0 O4 2.252112 1_555
Mn0 O12 2.254370 1_555
Mn0 O14 2.284965 1_556
Mn1 O0 2.183159 1_555
Mn1 O9 2.219058 1_554
Mn1 O6 2.227977 1_555
Mn1 O13 2.254081 1_555
Mn1 O1 2.254198 1_555
Mn1 O15 2.284519 1_554
Mn2 O1 2.184628 1_555
Mn2 O7 2.219545 1_565
Mn2 O10 2.226651 1_555
Mn2 O3 2.252301 1_555
Mn2 O14 2.256863 1_555
Mn2 O17 2.282365 1_565
Mn3 O4 2.183242 1_555
Mn3 O8 2.219397 1_545
Mn3 O9 2.227542 1_555
Mn3 O5 2.253131 1_555
Mn3 O15 2.255176 1_555
Mn3 O16 2.283852 1_545
Mn4 O5 2.186332 1_555
Mn4 O11 2.219227 1_655
Mn4 O7 2.224893 1_555
Mn4 O0 2.252165 1_555
Mn4 O17 2.255643 1_555
Mn4 O12 2.282760 1_655
Mn5 O3 2.184407 1_555
Mn5 O6 2.219462 1_455
Mn5 O8 2.227057 1_555
Mn5 O2 2.252298 1_555
Mn5 O16 2.256124 1_555
Mn5 O13 2.282958 1_455
O0 S5 1.560739 1_555
O1 S4 1.560660 1_555
O2 S1 1.560681 1_555
O3 S0 1.560523 1_555
O4 S2 1.560676 1_555
O5 S3 1.560688 1_555
O6 S3 1.554675 1_554
O7 S2 1.554466 1_655
O8 S4 1.554609 1_455
O9 S1 1.554358 1_545
O10 S5 1.554586 1_565
O11 S0 1.554492 1_556
O12 S4 1.559551 1_455
O13 S2 1.559596 1_655
O14 S3 1.559748 1_554
O15 S0 1.559521 1_556
O16 S5 1.559552 1_565
O17 S1 1.559476 1_545
