# generated using pymatgen
data_Li2Ni(PO3)5
_symmetry_space_group_name_H-M   'P 1'
_cell_length_a   9.29001900
_cell_length_b   5.14693000
_cell_length_c   13.18349359
_cell_angle_alpha   70.31838151
_cell_angle_beta   90.00000000
_cell_angle_gamma   90.00000000
_symmetry_Int_Tables_number   1
_chemical_formula_structural   Li2Ni(PO3)5
_chemical_formula_sum   'Li4 Ni2 P10 O30'
_cell_volume   593.54271017
_cell_formula_units_Z   2
loop_
 _symmetry_equiv_pos_site_id
 _symmetry_equiv_pos_as_xyz
  1  'x, y, z'
loop_
 _atom_site_type_symbol
 _atom_site_label
 _atom_site_symmetry_multiplicity
 _atom_site_fract_x
 _atom_site_fract_y
 _atom_site_fract_z
 _atom_site_occupancy
  Li  Li0  1  0.34225000  0.05267900  0.05273800  1
  Li  Li1  1  0.35131100  0.94872800  0.44965700  1
  Li  Li2  1  0.65775000  0.05267900  0.55273800  1
  Li  Li3  1  0.64868900  0.94872800  0.94965700  1
  Ni  Ni0  1  0.00217700  0.00651400  0.49716000  1
  Ni  Ni1  1  0.99782300  0.00651400  0.99716000  1
  P  P0  1  0.81466200  0.41327100  0.08552400  1
  P  P1  1  0.50916900  0.45485200  0.14212200  1
  P  P2  1  0.99923900  0.00724600  0.24719200  1
  P  P3  1  0.51255100  0.54646700  0.35849400  1
  P  P4  1  0.81833400  0.59765400  0.41019900  1
  P  P5  1  0.18533800  0.41327100  0.58552400  1
  P  P6  1  0.49083100  0.45485200  0.64212200  1
  P  P7  1  0.00076100  0.00724600  0.74719200  1
  P  P8  1  0.48744900  0.54646700  0.85849400  1
  P  P9  1  0.18166600  0.59765400  0.91019900  1
  O  O0  1  0.86216700  0.29287300  0.00171300  1
  O  O1  1  0.82036200  0.72322000  0.05439700  1
  O  O2  1  0.48703400  0.73989400  0.06202100  1
  O  O3  1  0.65140800  0.31179100  0.11596700  1
  O  O4  1  0.07765500  0.96598500  0.15383400  1
  O  O5  1  0.38830200  0.25271800  0.15798100  1
  O  O6  1  0.89130200  0.26937100  0.19994900  1
  O  O7  1  0.56256200  0.50064300  0.24995100  1
  O  O8  1  0.89258500  0.74341000  0.29500800  1
  O  O9  1  0.39003100  0.74428300  0.34485000  1
  O  O10  1  0.07847200  0.04951200  0.33994100  1
  O  O11  1  0.65433200  0.69595100  0.38141300  1
  O  O12  1  0.49473700  0.26118300  0.43943400  1
  O  O13  1  0.82524200  0.28796000  0.44115400  1
  O  O14  1  0.86685300  0.71839500  0.49370100  1
  O  O15  1  0.13783300  0.29287300  0.50171300  1
  O  O16  1  0.17963800  0.72322000  0.55439700  1
  O  O17  1  0.51296600  0.73989400  0.56202100  1
  O  O18  1  0.34859200  0.31179100  0.61596700  1
  O  O19  1  0.92234500  0.96598500  0.65383400  1
  O  O20  1  0.61169800  0.25271800  0.65798100  1
  O  O21  1  0.10869800  0.26937100  0.69994900  1
  O  O22  1  0.43743800  0.50064300  0.74995100  1
  O  O23  1  0.10741500  0.74341000  0.79500800  1
  O  O24  1  0.60996900  0.74428300  0.84485000  1
  O  O25  1  0.92152800  0.04951200  0.83994100  1
  O  O26  1  0.34566800  0.69595100  0.88141300  1
  O  O27  1  0.50526300  0.26118300  0.93943400  1
  O  O28  1  0.17475800  0.28796000  0.94115400  1
  O  O29  1  0.13314700  0.71839500  0.99370100  1
loop_
_geom_bond_atom_site_label_1
_geom_bond_atom_site_label_2
_geom_bond_distance
_geom_bond_site_symmetry_2
Li0 O5 2.032336 1_555
Li0 O2 2.069574 1_545
Li0 O27 2.143956 1_554
Li0 O28 2.202658 1_554
Li1 O9 2.031049 1_555
Li1 O12 2.057619 1_565
Li1 O17 2.128976 1_555
Li1 O16 2.172062 1_555
Li2 O20 2.032336 1_555
Li2 O17 2.069574 1_545
Li2 O12 2.143956 1_555
Li2 O13 2.202658 1_555
Li3 O24 2.031049 1_555
Li3 O27 2.057619 1_565
Li3 O2 2.128976 1_556
Li3 O1 2.172062 1_556
Ni0 O15 1.955430 1_555
Ni0 O14 1.956314 1_445
Ni0 O10 2.130361 1_555
Ni0 O19 2.137675 1_445
Ni0 O13 2.150572 1_455
Ni0 O16 2.161540 1_545
Ni1 O0 1.955430 1_556
Ni1 O29 1.956314 1_645
Ni1 O25 2.130361 1_555
Ni1 O4 2.137675 1_646
Ni1 O28 2.150572 1_655
Ni1 O1 2.161540 1_546
O0 P0 1.503604 1_555
O1 P0 1.508369 1_555
O2 P1 1.505403 1_555
O3 P1 1.605677 1_555
O3 P0 1.610236 1_555
O4 P2 1.505551 1_465
O5 P1 1.496787 1_555
O6 P0 1.605781 1_555
O6 P2 1.627135 1_555
O7 P3 1.595779 1_555
O7 P1 1.596278 1_555
O8 P4 1.605435 1_555
O8 P2 1.626810 1_565
O9 P3 1.497045 1_555
O10 P2 1.504472 1_455
O11 P3 1.604592 1_555
O11 P4 1.609955 1_555
O12 P3 1.505541 1_555
O13 P4 1.507729 1_555
O14 P4 1.504009 1_555
O15 P5 1.503604 1_555
O16 P5 1.508369 1_555
O17 P6 1.505403 1_555
O18 P6 1.605677 1_555
O18 P5 1.610236 1_555
O19 P7 1.505551 1_665
O20 P6 1.496787 1_555
O21 P5 1.605781 1_555
O21 P7 1.627135 1_555
O22 P8 1.595779 1_555
O22 P6 1.596278 1_555
O23 P9 1.605435 1_555
O23 P7 1.626810 1_565
O24 P8 1.497045 1_555
O25 P7 1.504472 1_655
O26 P8 1.604592 1_555
O26 P9 1.609955 1_555
O27 P8 1.505541 1_555
O28 P9 1.507729 1_555
O29 P9 1.504009 1_555
