# generated using pymatgen
data_K3Fe(CN)6
_symmetry_space_group_name_H-M   'P 1'
_cell_length_a   10.53803200
_cell_length_b   7.11207100
_cell_length_c   8.43281545
_cell_angle_alpha   72.82641675
_cell_angle_beta   90.00000000
_cell_angle_gamma   90.00000000
_symmetry_Int_Tables_number   1
_chemical_formula_structural   K3Fe(CN)6
_chemical_formula_sum   'K6 Fe2 C12 N12'
_cell_volume   603.83748019
_cell_formula_units_Z   2
loop_
 _symmetry_equiv_pos_site_id
 _symmetry_equiv_pos_as_xyz
  1  'x, y, z'
loop_
 _atom_site_type_symbol
 _atom_site_label
 _atom_site_symmetry_multiplicity
 _atom_site_fract_x
 _atom_site_fract_y
 _atom_site_fract_z
 _atom_site_occupancy
  K  K0  1  0.27190900  0.50133800  0.87525400  1
  K  K1  1  0.77190900  0.49866200  0.62474600  1
  K  K2  1  0.72809100  0.49866200  0.12474600  1
  K  K3  1  0.22809100  0.50133800  0.37525400  1
  K  K4  1  0.00000000  0.00000000  0.50000000  1
  K  K5  1  0.50000000  0.00000000  0.00000000  1
  Fe  Fe0  1  0.00000000  0.00000000  0.00000000  1
  Fe  Fe1  1  0.50000000  0.00000000  0.50000000  1
  C  C0  1  0.83589200  0.11903200  0.97160100  1
  C  C1  1  0.33589200  0.88096800  0.52839900  1
  C  C2  1  0.16410800  0.88096800  0.02839900  1
  C  C3  1  0.66410800  0.11903200  0.47160100  1
  C  C4  1  0.05174900  0.18251100  0.79445500  1
  C  C5  1  0.55174900  0.81748900  0.70554500  1
  C  C6  1  0.94825100  0.81748900  0.20554500  1
  C  C7  1  0.44825100  0.18251100  0.29445500  1
  C  C8  1  0.05455000  0.18325700  0.11271700  1
  C  C9  1  0.55455000  0.81674300  0.38728300  1
  C  C10  1  0.94545000  0.81674300  0.88728300  1
  C  C11  1  0.44545000  0.18325700  0.61271700  1
  N  N0  1  0.73622200  0.19762900  0.95212900  1
  N  N1  1  0.23622200  0.80237100  0.54787100  1
  N  N2  1  0.26377800  0.80237100  0.04787100  1
  N  N3  1  0.76377800  0.19762900  0.45212900  1
  N  N4  1  0.08279900  0.29312000  0.66647900  1
  N  N5  1  0.58279900  0.70688000  0.83352100  1
  N  N6  1  0.91720100  0.70688000  0.33352100  1
  N  N7  1  0.41720100  0.29312000  0.16647900  1
  N  N8  1  0.08863400  0.29394800  0.18390300  1
  N  N9  1  0.58863400  0.70605200  0.31609700  1
  N  N10  1  0.91136600  0.70605200  0.81609700  1
  N  N11  1  0.41136600  0.29394800  0.68390300  1
loop_
_geom_bond_atom_site_label_1
_geom_bond_atom_site_label_2
_geom_bond_distance
_geom_bond_site_symmetry_2
K0 N11 2.888698 1_555
K0 N7 2.901850 1_556
K0 N2 2.924106 1_556
K0 N1 2.975986 1_555
K0 N8 3.226929 1_556
K0 N4 3.286880 1_555
K1 N10 2.888698 1_555
K1 N6 2.901850 1_555
K1 N3 2.924106 1_555
K1 N0 2.975986 1_555
K1 N9 3.226929 1_555
K1 N5 3.286880 1_555
K2 N9 2.888698 1_555
K2 N5 2.901850 1_554
K2 N0 2.924106 1_554
K2 N3 2.975986 1_555
K2 N10 3.226929 1_554
K2 N6 3.286880 1_555
K3 N8 2.888698 1_555
K3 N4 2.901850 1_555
K3 N1 2.924106 1_555
K3 N2 2.975986 1_555
K3 N11 3.226929 1_555
K3 N7 3.286880 1_555
K4 N3 2.828455 1_455
K4 N1 2.828455 1_545
K4 N4 2.967567 1_555
K4 N6 2.967567 1_445
K4 N10 3.009561 1_445
K4 N8 3.009561 1_555
K5 N0 2.828455 1_554
K5 N2 2.828455 1_545
K5 N5 2.967567 1_544
K5 N7 2.967567 1_555
K5 N9 3.009561 1_545
K5 N11 3.009561 1_554
C0 N0 1.178308 1_555
C0 Fe0 1.909198 1_656
C1 N1 1.178308 1_555
C1 Fe1 1.909198 1_565
C2 N2 1.178308 1_555
C2 Fe0 1.909198 1_565
C3 N3 1.178308 1_555
C3 Fe1 1.909198 1_555
C4 N4 1.178653 1_555
C4 Fe0 1.912598 1_556
C5 N5 1.178653 1_555
C5 Fe1 1.912598 1_565
C6 N6 1.178653 1_555
C6 Fe0 1.912598 1_665
C7 N7 1.178653 1_555
C7 Fe1 1.912598 1_555
C8 N8 1.178216 1_555
C8 Fe0 1.914214 1_555
C9 N9 1.178216 1_555
C9 Fe1 1.914214 1_565
C10 N10 1.178216 1_555
C10 Fe0 1.914214 1_666
C11 N11 1.178216 1_555
C11 Fe1 1.914214 1_555
