# generated using pymatgen
data_Ni5Te4(ClO6)2
_symmetry_space_group_name_H-M   'P 1'
_cell_length_a   10.27646531
_cell_length_b   10.27646531
_cell_length_c   16.41661004
_cell_angle_alpha   56.26763948
_cell_angle_beta   56.26763948
_cell_angle_gamma   29.94865504
_symmetry_Int_Tables_number   1
_chemical_formula_structural   Ni5Te4(ClO6)2
_chemical_formula_sum   'Ni10 Te8 Cl4 O24'
_cell_volume   708.21094588
_cell_formula_units_Z   2
loop_
 _symmetry_equiv_pos_site_id
 _symmetry_equiv_pos_as_xyz
  1  'x, y, z'
loop_
 _atom_site_type_symbol
 _atom_site_label
 _atom_site_symmetry_multiplicity
 _atom_site_fract_x
 _atom_site_fract_y
 _atom_site_fract_z
 _atom_site_occupancy
  Ni  Ni0  1  0.87691000  0.30424100  0.02682800  1
  Ni  Ni1  1  0.69575900  0.12309000  0.47317200  1
  Ni  Ni2  1  0.75969900  0.24030100  0.25000000  1
  Ni  Ni3  1  0.12309000  0.69575900  0.97317200  1
  Ni  Ni4  1  0.20918800  0.77321300  0.12099000  1
  Ni  Ni5  1  0.79081200  0.22678700  0.87901000  1
  Ni  Ni6  1  0.22678700  0.79081200  0.37901000  1
  Ni  Ni7  1  0.77321300  0.20918800  0.62099000  1
  Ni  Ni8  1  0.30424100  0.87691000  0.52682800  1
  Ni  Ni9  1  0.24030100  0.75969900  0.75000000  1
  Te  Te0  1  0.14217900  0.56224400  0.37992200  1
  Te  Te1  1  0.56224400  0.14217900  0.87992200  1
  Te  Te2  1  0.43775600  0.85782100  0.12007800  1
  Te  Te3  1  0.55296700  0.19583900  0.13803500  1
  Te  Te4  1  0.80416100  0.44703300  0.36196500  1
  Te  Te5  1  0.19583900  0.55296700  0.63803500  1
  Te  Te6  1  0.85782100  0.43775600  0.62007800  1
  Te  Te7  1  0.44703300  0.80416100  0.86196500  1
  Cl  Cl0  1  0.54984600  0.92250400  0.40704000  1
  Cl  Cl1  1  0.07749700  0.45015400  0.09296000  1
  Cl  Cl2  1  0.92250300  0.54984600  0.90704000  1
  Cl  Cl3  1  0.45015400  0.07749600  0.59296000  1
  O  O0  1  0.75408700  0.05132500  0.02009200  1
  O  O1  1  0.45252100  0.77998900  0.25007400  1
  O  O2  1  0.30743400  0.55169700  0.06920100  1
  O  O3  1  0.91103700  0.93524400  0.85524600  1
  O  O4  1  0.20617400  0.87465800  0.85666000  1
  O  O5  1  0.44830300  0.69256600  0.43079900  1
  O  O6  1  0.69256600  0.44830300  0.93079900  1
  O  O7  1  0.44444200  0.42652000  0.36872900  1
  O  O8  1  0.57348000  0.55555800  0.13127100  1
  O  O9  1  0.94867500  0.24591300  0.47990800  1
  O  O10  1  0.06475600  0.08896300  0.64475400  1
  O  O11  1  0.93524400  0.91103700  0.35524600  1
  O  O12  1  0.77998900  0.45252100  0.75007400  1
  O  O13  1  0.54747900  0.22001100  0.74992600  1
  O  O14  1  0.79382600  0.12534200  0.14334000  1
  O  O15  1  0.24591300  0.94867500  0.97990800  1
  O  O16  1  0.55169700  0.30743400  0.56920100  1
  O  O17  1  0.08896300  0.06475600  0.14475400  1
  O  O18  1  0.55555800  0.57348000  0.63127100  1
  O  O19  1  0.42652000  0.44444200  0.86872900  1
  O  O20  1  0.05132500  0.75408700  0.52009200  1
  O  O21  1  0.12534200  0.79382600  0.64334000  1
  O  O22  1  0.87465800  0.20617400  0.35666000  1
  O  O23  1  0.22001100  0.54747900  0.24992600  1
loop_
_geom_bond_atom_site_label_1
_geom_bond_atom_site_label_2
_geom_bond_distance
_geom_bond_site_symmetry_2
Ni0 O6 2.032333 1_554
Ni0 O15 2.048059 1_644
Ni0 O8 2.087456 1_555
Ni0 O17 2.157184 1_655
Ni0 O14 2.183656 1_555
Ni1 O16 2.032333 1_555
Ni1 O20 2.048059 1_645
Ni1 O7 2.087456 1_555
Ni1 O11 2.157184 1_545
Ni1 O22 2.183656 1_555
Ni2 O17 2.019768 1_655
Ni2 O11 2.019768 1_545
Ni2 O7 2.083893 1_555
Ni2 O8 2.083893 1_555
Ni2 O22 2.341376 1_555
Ni2 O14 2.341376 1_555
Ni3 O2 2.032333 1_556
Ni3 O0 2.048059 1_466
Ni3 O19 2.087456 1_555
Ni3 O3 2.157184 1_455
Ni3 O4 2.183656 1_555
Ni4 O2 2.034086 1_555
Ni4 O23 2.057897 1_555
Ni4 O15 2.080443 1_554
Ni4 O14 2.101664 1_465
Ni4 O8 2.194973 1_555
Ni4 O17 2.236748 1_565
Ni5 O6 2.034086 1_555
Ni5 O12 2.057897 1_555
Ni5 O0 2.080443 1_556
Ni5 O4 2.101664 1_645
Ni5 O19 2.194973 1_555
Ni5 O3 2.236748 1_545
Ni6 O5 2.034086 1_555
Ni6 O1 2.057897 1_555
Ni6 O20 2.080443 1_555
Ni6 O22 2.101664 1_465
Ni6 O7 2.194973 1_555
Ni6 O11 2.236748 1_455
Ni7 O16 2.034086 1_555
Ni7 O13 2.057897 1_555
Ni7 O9 2.080443 1_555
Ni7 O21 2.101664 1_645
Ni7 O18 2.194973 1_555
Ni7 O10 2.236748 1_655
Ni8 O5 2.032333 1_555
Ni8 O9 2.048059 1_465
Ni8 O18 2.087456 1_555
Ni8 O10 2.157184 1_565
Ni8 O21 2.183656 1_555
Ni9 O3 2.019768 1_455
Ni9 O10 2.019768 1_565
Ni9 O19 2.083893 1_555
Ni9 O18 2.083893 1_555
Ni9 O4 2.341376 1_555
Ni9 O21 2.341376 1_555
Cl0 Ni8 2.443478 1_555
Cl1 Ni3 2.443472 1_554
Cl2 Ni0 2.443472 1_556
Cl3 Ni1 2.443478 1_555
O0 Te3 1.912098 1_555
O1 Te2 1.862975 1_555
O2 Te3 1.898322 1_555
O3 Te1 1.915458 1_565
O4 Te7 1.928941 1_555
O5 Te4 1.898322 1_555
O6 Te7 1.898322 1_555
O7 Te0 1.941773 1_555
O8 Te2 1.941773 1_555
O9 Te4 1.912098 1_555
O10 Te6 1.915458 1_455
O11 Te0 1.915458 1_655
O12 Te6 1.862975 1_555
O13 Te1 1.862975 1_555
O14 Te3 1.928941 1_555
O15 Te7 1.912098 1_555
O16 Te5 1.898322 1_555
O17 Te2 1.915458 1_545
O18 Te6 1.941773 1_555
O19 Te1 1.941773 1_555
O20 Te5 1.912098 1_555
O21 Te5 1.928941 1_555
O22 Te4 1.928941 1_555
O23 Te0 1.862975 1_555
