# generated using pymatgen
data_Ti6Ni16Ge7
_symmetry_space_group_name_H-M   'P 1'
_cell_length_a   8.06939369
_cell_length_b   8.06939369
_cell_length_c   8.06939369
_cell_angle_alpha   60.00000000
_cell_angle_beta   60.00000000
_cell_angle_gamma   60.00000000
_symmetry_Int_Tables_number   1
_chemical_formula_structural   Ti6Ni16Ge7
_chemical_formula_sum   'Ti6 Ni16 Ge7'
_cell_volume   371.54182984
_cell_formula_units_Z   1
loop_
 _symmetry_equiv_pos_site_id
 _symmetry_equiv_pos_as_xyz
  1  'x, y, z'
loop_
 _atom_site_type_symbol
 _atom_site_label
 _atom_site_symmetry_multiplicity
 _atom_site_fract_x
 _atom_site_fract_y
 _atom_site_fract_z
 _atom_site_occupancy
  Ti  Ti0  1  0.19729100  0.80270900  0.80270900  1
  Ti  Ti1  1  0.19729100  0.80270900  0.19729100  1
  Ti  Ti2  1  0.80270900  0.19729100  0.19729100  1
  Ti  Ti3  1  0.80270900  0.19729100  0.80270900  1
  Ti  Ti4  1  0.80270900  0.80270900  0.19729100  1
  Ti  Ti5  1  0.19729100  0.19729100  0.80270900  1
  Ni  Ni0  1  0.38217100  0.38217100  0.38217100  1
  Ni  Ni1  1  0.49530400  0.83489900  0.83489900  1
  Ni  Ni2  1  0.61782900  0.61782900  0.14651300  1
  Ni  Ni3  1  0.16510100  0.16510100  0.50469600  1
  Ni  Ni4  1  0.83489900  0.83489900  0.49530400  1
  Ni  Ni5  1  0.16510100  0.16510100  0.16510100  1
  Ni  Ni6  1  0.83489900  0.83489900  0.83489900  1
  Ni  Ni7  1  0.38217100  0.38217100  0.85348700  1
  Ni  Ni8  1  0.83489900  0.49530400  0.83489900  1
  Ni  Ni9  1  0.61782900  0.61782900  0.61782900  1
  Ni  Ni10  1  0.38217100  0.85348700  0.38217100  1
  Ni  Ni11  1  0.14651300  0.61782900  0.61782900  1
  Ni  Ni12  1  0.61782900  0.14651300  0.61782900  1
  Ni  Ni13  1  0.16510100  0.50469600  0.16510100  1
  Ni  Ni14  1  0.85348700  0.38217100  0.38217100  1
  Ni  Ni15  1  0.50469600  0.16510100  0.16510100  1
  Ge  Ge0  1  0.00000000  0.00000000  0.50000000  1
  Ge  Ge1  1  0.50000000  0.00000000  0.50000000  1
  Ge  Ge2  1  0.50000000  0.50000000  0.50000000  1
  Ge  Ge3  1  0.00000000  0.50000000  0.00000000  1
  Ge  Ge4  1  0.50000000  0.50000000  0.00000000  1
  Ge  Ge5  1  0.50000000  0.00000000  0.00000000  1
  Ge  Ge6  1  0.00000000  0.50000000  0.50000000  1
loop_
_geom_bond_atom_site_label_1
_geom_bond_atom_site_label_2
_geom_bond_distance
_geom_bond_site_symmetry_2
Ni0 Ni15 2.591991 1_555
Ni0 Ni3 2.591991 1_555
Ni0 Ni13 2.591991 1_555
Ni0 Ni2 2.689293 1_555
Ni0 Ni11 2.689293 1_555
Ni0 Ni12 2.689293 1_555
Ni0 Ti1 2.840334 1_555
Ni0 Ti2 2.840334 1_555
Ni0 Ti5 2.840334 1_555
Ni1 Ni2 2.591984 1_556
Ni1 Ni12 2.591984 1_565
Ni1 Ni9 2.591991 1_555
Ni1 Ti1 2.689736 1_556
Ni1 Ti5 2.689736 1_565
Ni1 Ti0 2.689741 1_555
Ni2 Ni8 2.591984 1_554
Ni2 Ni6 2.591988 1_554
Ni2 Ti2 2.840334 1_555
Ni2 Ti1 2.840334 1_555
Ni2 Ti4 2.840334 1_555
Ni3 Ti3 2.689736 1_455
Ni3 Ti0 2.689736 1_545
Ni3 Ti5 2.689741 1_555
Ni4 Ni9 2.591991 1_555
Ni4 Ti1 2.689736 1_655
Ni4 Ti2 2.689736 1_565
Ni4 Ti4 2.689741 1_555
Ni5 Ni7 2.591988 1_554
Ni5 Ti2 2.689733 1_455
Ni5 Ti1 2.689733 1_545
Ni5 Ti5 2.689733 1_554
Ni6 Ti0 2.689733 1_655
Ni6 Ti3 2.689733 1_565
Ni6 Ti4 2.689733 1_556
Ni7 Ni9 2.689293 1_555
Ni7 Ti5 2.840334 1_555
Ni7 Ti0 2.840334 1_555
Ni7 Ti3 2.840334 1_555
Ni8 Ni9 2.591991 1_555
Ni8 Ti5 2.689736 1_655
Ni8 Ti2 2.689736 1_556
Ni8 Ti3 2.689741 1_555
Ni9 Ti4 2.840334 1_555
Ni9 Ti0 2.840334 1_555
Ni9 Ti3 2.840334 1_555
Ni10 Ni3 2.591984 1_565
Ni10 Ni15 2.591984 1_565
Ni10 Ni5 2.591988 1_565
Ni10 Ni9 2.689293 1_555
Ni10 Ni11 2.689293 1_555
Ni10 Ni2 2.689293 1_555
Ni10 Ti4 2.840334 1_555
Ni10 Ti1 2.840334 1_555
Ni10 Ti0 2.840334 1_555
Ni11 Ni4 2.591984 1_455
Ni11 Ni8 2.591984 1_455
Ni11 Ni6 2.591988 1_455
Ni11 Ni7 2.689293 1_555
Ni11 Ti1 2.840334 1_555
Ni11 Ti5 2.840334 1_555
Ni11 Ti0 2.840334 1_555
Ni12 Ni4 2.591984 1_545
Ni12 Ni6 2.591988 1_545
Ni12 Ni14 2.689293 1_555
Ni12 Ni7 2.689293 1_555
Ni12 Ti5 2.840334 1_555
Ni12 Ti2 2.840334 1_555
Ni12 Ti3 2.840334 1_555
Ni13 Ni7 2.591984 1_554
Ni13 Ni14 2.591984 1_455
Ni13 Ti4 2.689736 1_455
Ni13 Ti0 2.689736 1_554
Ni13 Ti1 2.689741 1_555
Ni14 Ni3 2.591984 1_655
Ni14 Ni5 2.591988 1_655
Ni14 Ni9 2.689293 1_555
Ni14 Ni2 2.689293 1_555
Ni14 Ti4 2.840334 1_555
Ni14 Ti2 2.840334 1_555
Ni14 Ti3 2.840334 1_555
Ni15 Ni7 2.591984 1_554
Ni15 Ti4 2.689736 1_545
Ni15 Ti3 2.689736 1_554
Ni15 Ti2 2.689741 1_555
Ge0 Ni3 2.329634 1_555
Ge0 Ni4 2.329634 1_445
Ge0 Ni6 2.329639 1_445
Ge0 Ni5 2.329639 1_555
Ge0 Ni12 2.521528 1_455
Ge0 Ni11 2.521528 1_545
Ge0 Ni14 2.521528 1_455
Ge0 Ni10 2.521528 1_545
Ge0 Ti0 2.915682 1_545
Ge0 Ti1 2.915682 1_545
Ge0 Ti2 2.915682 1_455
Ge0 Ti3 2.915682 1_455
Ge1 Ni1 2.329641 1_545
Ge1 Ni4 2.329641 1_545
Ge1 Ni3 2.329641 1_555
Ge1 Ni15 2.329641 1_555
Ge1 Ni12 2.521528 1_555
Ge1 Ni0 2.521528 1_555
Ge1 Ni9 2.521528 1_545
Ge1 Ni10 2.521528 1_545
Ge1 Ti0 2.915682 1_545
Ge1 Ti2 2.915682 1_555
Ge1 Ti4 2.915682 1_545
Ge1 Ti5 2.915682 1_555
Ge2 Ni9 2.328996 1_555
Ge2 Ni12 2.328996 1_555
Ge2 Ni2 2.328996 1_555
Ge2 Ni10 2.328996 1_555
Ge2 Ni7 2.328996 1_555
Ge2 Ni14 2.328996 1_555
Ge2 Ni11 2.328996 1_555
Ge2 Ni0 2.328996 1_555
Ge3 Ni8 2.329634 1_454
Ge3 Ni13 2.329634 1_555
Ge3 Ni6 2.329639 1_454
Ge3 Ni5 2.329639 1_555
Ge3 Ni14 2.521528 1_455
Ge3 Ni2 2.521528 1_455
Ge3 Ni7 2.521528 1_554
Ge3 Ni11 2.521528 1_554
Ge3 Ti0 2.915682 1_554
Ge3 Ti2 2.915682 1_455
Ge3 Ti5 2.915682 1_554
Ge3 Ti4 2.915682 1_455
Ge4 Ni1 2.329641 1_554
Ge4 Ni15 2.329641 1_555
Ge4 Ni8 2.329641 1_554
Ge4 Ni13 2.329641 1_555
Ge4 Ni2 2.521528 1_555
Ge4 Ni0 2.521528 1_555
Ge4 Ni9 2.521528 1_554
Ge4 Ni7 2.521528 1_554
Ge4 Ti0 2.915682 1_554
Ge4 Ti3 2.915682 1_554
Ge4 Ti1 2.915682 1_555
Ge4 Ti2 2.915682 1_555
Ge5 Ni15 2.329634 1_555
Ge5 Ni1 2.329634 1_544
Ge5 Ni6 2.329639 1_544
Ge5 Ni5 2.329639 1_555
Ge5 Ni10 2.521528 1_545
Ge5 Ni7 2.521528 1_554
Ge5 Ni12 2.521528 1_554
Ge5 Ni2 2.521528 1_545
Ge5 Ti1 2.915682 1_545
Ge5 Ti3 2.915682 1_554
Ge5 Ti5 2.915682 1_554
Ge5 Ti4 2.915682 1_545
Ge6 Ni8 2.329641 1_455
Ge6 Ni4 2.329641 1_455
Ge6 Ni3 2.329641 1_555
Ge6 Ni13 2.329641 1_555
Ge6 Ni11 2.521528 1_555
Ge6 Ni14 2.521528 1_455
Ge6 Ni0 2.521528 1_555
Ge6 Ni9 2.521528 1_455
Ge6 Ti1 2.915682 1_555
Ge6 Ti5 2.915682 1_555
Ge6 Ti3 2.915682 1_455
Ge6 Ti4 2.915682 1_455
