# generated using pymatgen
data_K2Ge2S5
_symmetry_space_group_name_H-M   'P 1'
_cell_length_a   10.83856259
_cell_length_b   10.83856004
_cell_length_c   8.81138623
_cell_angle_alpha   79.87570659
_cell_angle_beta   79.87557564
_cell_angle_gamma   90.10235953
_symmetry_Int_Tables_number   1
_chemical_formula_structural   K2Ge2S5
_chemical_formula_sum   'K8 Ge8 S20'
_cell_volume   1002.55619071
_cell_formula_units_Z   4
loop_
 _symmetry_equiv_pos_site_id
 _symmetry_equiv_pos_as_xyz
  1  'x, y, z'
loop_
 _atom_site_type_symbol
 _atom_site_label
 _atom_site_symmetry_multiplicity
 _atom_site_fract_x
 _atom_site_fract_y
 _atom_site_fract_z
 _atom_site_occupancy
  K  K0  1  0.47021760  0.21361296  0.87962595  1
  K  K1  1  0.78638681  0.52977913  0.62036939  1
  K  K2  1  0.52978978  0.78639028  0.12036382  1
  K  K3  1  0.21360185  0.47021590  0.37963765  1
  K  K4  1  0.78727421  0.94138281  0.61679550  1
  K  K5  1  0.05863052  0.21272300  0.88320023  1
  K  K6  1  0.21272901  0.05862066  0.38320342  1
  K  K7  1  0.94136930  0.78727755  0.11680195  1
  Ge  Ge0  1  0.52567128  0.26657811  0.40534241  1
  Ge  Ge1  1  0.73342209  0.47432813  0.09465759  1
  Ge  Ge2  1  0.47432851  0.73342209  0.59465667  1
  Ge  Ge3  1  0.26657804  0.52567145  0.90534305  1
  Ge  Ge4  1  0.26940727  0.86837488  0.89058525  1
  Ge  Ge5  1  0.13162518  0.73059235  0.60941556  1
  Ge  Ge6  1  0.73059298  0.13162484  0.10941520  1
  Ge  Ge7  1  0.86837375  0.26940757  0.39058339  1
  S  S0  1  0.54092269  0.11301801  0.26001280  1
  S  S1  1  0.88698227  0.45907709  0.23998770  1
  S  S2  1  0.45907740  0.88698205  0.73998729  1
  S  S3  1  0.11301794  0.54092286  0.76001268  1
  S  S4  1  0.32035022  0.75541882  0.44986845  1
  S  S5  1  0.24458099  0.67964867  0.05013131  1
  S  S6  1  0.67964949  0.24458118  0.55013068  1
  S  S7  1  0.75541941  0.32035103  0.94986942  1
  S  S8  1  0.34981978  0.24274744  0.55842143  1
  S  S9  1  0.75725322  0.65018008  0.94157774  1
  S  S10  1  0.65018121  0.75725274  0.44157799  1
  S  S11  1  0.24274781  0.34981948  0.05842314  1
  S  S12  1  0.75371487  0.99187007  0.96721318  1
  S  S13  1  0.00812916  0.24628206  0.53278700  1
  S  S14  1  0.24628598  0.00813117  0.03278712  1
  S  S15  1  0.99186817  0.75371437  0.46721360  1
  S  S16  1  0.88619104  0.11380911  0.24999889  1
  S  S17  1  0.11380889  0.88619089  0.75000079  1
  S  S18  1  0.54433640  0.45566391  0.25000040  1
  S  S19  1  0.45566389  0.54433628  0.74999933  1
loop_
_geom_bond_atom_site_label_1
_geom_bond_atom_site_label_2
_geom_bond_distance
_geom_bond_site_symmetry_2
K0 S11 3.194525 1_556
K0 S14 3.231814 1_556
K0 S8 3.286133 1_555
K0 S6 3.321474 1_555
K0 S7 3.491199 1_555
K0 S0 3.554072 1_556
K0 S19 3.578343 1_555
K1 S10 3.194530 1_555
K1 S15 3.231830 1_555
K1 S9 3.286180 1_555
K1 S7 3.321487 1_555
K1 S6 3.491140 1_555
K1 S1 3.554014 1_555
K1 S19 3.578345 1_555
K2 S9 3.194457 1_554
K2 S12 3.231738 1_554
K2 S10 3.286171 1_555
K2 S4 3.321577 1_555
K2 S5 3.491244 1_555
K2 S2 3.554013 1_554
K2 S18 3.578379 1_555
K3 S8 3.194535 1_555
K3 S13 3.231753 1_555
K3 S11 3.286195 1_555
K3 S5 3.321548 1_555
K3 S4 3.491205 1_555
K3 S3 3.553962 1_555
K3 S18 3.578468 1_555
K4 S12 3.188305 1_555
K4 S10 3.233196 1_555
K4 S15 3.274598 1_555
K4 S16 3.426206 1_565
K4 S6 3.475779 1_565
K4 S2 3.548162 1_555
K5 S13 3.188322 1_555
K5 S11 3.233151 1_556
K5 S14 3.274508 1_556
K5 S16 3.426269 1_456
K5 S7 3.475920 1_455
K5 S3 3.548175 1_555
K6 S14 3.188303 1_555
K6 S8 3.233160 1_555
K6 S13 3.274590 1_555
K6 S17 3.426231 1_545
K6 S4 3.475800 1_545
K6 S0 3.548125 1_555
K7 S15 3.188296 1_555
K7 S9 3.233156 1_554
K7 S12 3.274511 1_554
K7 S17 3.426286 1_654
K7 S5 3.475930 1_655
K7 S1 3.548179 1_555
Ge0 S8 2.119137 1_555
Ge0 S18 2.242664 1_555
Ge0 S6 2.261138 1_555
Ge0 S0 2.261226 1_555
Ge1 S9 2.119147 1_554
Ge1 S18 2.242664 1_555
Ge1 S7 2.261125 1_554
Ge1 S1 2.261232 1_555
Ge2 S10 2.119146 1_555
Ge2 S19 2.242666 1_555
Ge2 S4 2.261139 1_555
Ge2 S2 2.261231 1_555
Ge3 S11 2.119148 1_556
Ge3 S19 2.242669 1_555
Ge3 S5 2.261127 1_556
Ge3 S3 2.261233 1_555
Ge4 S14 2.117905 1_566
Ge4 S2 2.230027 1_555
Ge4 S17 2.251104 1_555
Ge4 S5 2.255427 1_556
Ge5 S15 2.117914 1_455
Ge5 S3 2.230020 1_555
Ge5 S17 2.251107 1_555
Ge5 S4 2.255419 1_555
Ge6 S12 2.117892 1_544
Ge6 S0 2.230027 1_555
Ge6 S16 2.251096 1_555
Ge6 S7 2.255426 1_554
Ge7 S13 2.117911 1_655
Ge7 S1 2.230015 1_555
Ge7 S16 2.251102 1_555
Ge7 S6 2.255413 1_555
