# generated using pymatgen
data_VCdO3
_symmetry_space_group_name_H-M   'P 1'
_cell_length_a   3.58967774
_cell_length_b   5.26484532
_cell_length_c   14.28396924
_cell_angle_alpha   90.00000000
_cell_angle_beta   90.00000000
_cell_angle_gamma   90.00000000
_symmetry_Int_Tables_number   1
_chemical_formula_structural   VCdO3
_chemical_formula_sum   'V4 Cd4 O12'
_cell_volume   269.95413521
_cell_formula_units_Z   4
loop_
 _symmetry_equiv_pos_site_id
 _symmetry_equiv_pos_as_xyz
  1  'x, y, z'
loop_
 _atom_site_type_symbol
 _atom_site_label
 _atom_site_symmetry_multiplicity
 _atom_site_fract_x
 _atom_site_fract_y
 _atom_site_fract_z
 _atom_site_occupancy
  V  V0  1  0.75000000  0.58099694  0.41860907  1
  V  V1  1  0.75000000  0.91900306  0.91860907  1
  V  V2  1  0.25000000  0.41900306  0.58139093  1
  V  V3  1  0.25000000  0.08099694  0.08139093  1
  Cd  Cd0  1  0.75000000  0.62572419  0.17921407  1
  Cd  Cd1  1  0.25000000  0.12572419  0.32078593  1
  Cd  Cd2  1  0.25000000  0.37427581  0.82078593  1
  Cd  Cd3  1  0.75000000  0.87427581  0.67921407  1
  O  O0  1  0.25000000  0.88731582  0.19250523  1
  O  O1  1  0.75000000  0.89100680  0.38929182  1
  O  O2  1  0.75000000  0.53898042  0.55593697  1
  O  O3  1  0.75000000  0.96101958  0.05593697  1
  O  O4  1  0.25000000  0.46101958  0.44406303  1
  O  O5  1  0.75000000  0.11268418  0.80749477  1
  O  O6  1  0.25000000  0.39100680  0.11070818  1
  O  O7  1  0.25000000  0.03898042  0.94406303  1
  O  O8  1  0.25000000  0.61268418  0.69250523  1
  O  O9  1  0.25000000  0.10899320  0.61070818  1
  O  O10  1  0.75000000  0.38731582  0.30749577  1
  O  O11  1  0.75000000  0.60899320  0.88929182  1
loop_
_geom_bond_atom_site_label_1
_geom_bond_atom_site_label_2
_geom_bond_distance
_geom_bond_site_symmetry_2
Cd0 O10 2.221052 1_555
Cd0 O0 2.270304 1_555
Cd0 O0 2.270304 1_655
Cd0 O6 2.388736 1_555
Cd0 O6 2.388736 1_655
Cd0 O3 2.493377 1_555
Cd1 O0 2.221040 1_545
Cd1 O10 2.270302 1_555
Cd1 O10 2.270302 1_455
Cd1 O1 2.388736 1_445
Cd1 O1 2.388736 1_545
Cd1 O4 2.493377 1_555
Cd2 O8 2.221040 1_555
Cd2 O5 2.270304 1_555
Cd2 O5 2.270304 1_455
Cd2 O11 2.388736 1_455
Cd2 O11 2.388736 1_555
Cd2 O7 2.493377 1_555
Cd3 O5 2.221040 1_565
Cd3 O8 2.270304 1_555
Cd3 O8 2.270304 1_655
Cd3 O9 2.388736 1_565
Cd3 O9 2.388736 1_665
Cd3 O2 2.493377 1_555
O0 V3 1.886490 1_565
O1 V0 1.685020 1_555
O2 V2 1.937172 1_555
O2 V2 1.937172 1_655
O2 V0 1.974021 1_555
O3 V3 1.937172 1_665
O3 V3 1.937172 1_565
O3 V1 1.974021 1_554
O4 V0 1.937172 1_455
O4 V0 1.937172 1_555
O4 V2 1.974021 1_555
O5 V1 1.886490 1_545
O6 V3 1.685020 1_555
O7 V1 1.937172 1_445
O7 V1 1.937172 1_545
O7 V3 1.974021 1_556
O8 V2 1.886490 1_555
O9 V2 1.685020 1_555
O10 V0 1.886478 1_555
O11 V1 1.685020 1_555
