# generated using pymatgen
data_Ca2CuTe4(ClO5)2
_symmetry_space_group_name_H-M   'P 1'
_cell_length_a   5.43945400
_cell_length_b   7.33398346
_cell_length_c   8.83337955
_cell_angle_alpha   72.28942942
_cell_angle_beta   79.24064201
_cell_angle_gamma   77.87802752
_symmetry_Int_Tables_number   1
_chemical_formula_structural   Ca2CuTe4(ClO5)2
_chemical_formula_sum   'Ca2 Cu1 Te4 Cl2 O10'
_cell_volume   325.33717410
_cell_formula_units_Z   1
loop_
 _symmetry_equiv_pos_site_id
 _symmetry_equiv_pos_as_xyz
  1  'x, y, z'
loop_
 _atom_site_type_symbol
 _atom_site_label
 _atom_site_symmetry_multiplicity
 _atom_site_fract_x
 _atom_site_fract_y
 _atom_site_fract_z
 _atom_site_occupancy
  Ca  Ca0  1  0.82866200  0.89945100  0.89472300  1
  Ca  Ca1  1  0.17133800  0.10054900  0.10527700  1
  Cu  Cu0  1  0.00000000  0.00000000  0.50000000  1
  Te  Te0  1  0.39240900  0.18089000  0.60700800  1
  Te  Te1  1  0.38285800  0.59101500  0.14638200  1
  Te  Te2  1  0.61714200  0.40898500  0.85361800  1
  Te  Te3  1  0.60759100  0.81911000  0.39299200  1
  Cl  Cl0  1  0.87885300  0.40316500  0.34673900  1
  Cl  Cl1  1  0.12114700  0.59683500  0.65326100  1
  O  O0  1  0.67030500  0.60266300  0.97300400  1
  O  O1  1  0.34349400  0.04704400  0.37818300  1
  O  O2  1  0.16637500  0.80139900  0.03582600  1
  O  O3  1  0.10544300  0.05393200  0.67956000  1
  O  O4  1  0.83362500  0.19860100  0.96417400  1
  O  O5  1  0.32969500  0.39733700  0.02699600  1
  O  O6  1  0.54645600  0.82798600  0.17780200  1
  O  O7  1  0.65650600  0.95295600  0.62181700  1
  O  O8  1  0.89455700  0.94606800  0.32044000  1
  O  O9  1  0.45354400  0.17201400  0.82219800  1
loop_
_geom_bond_atom_site_label_1
_geom_bond_atom_site_label_2
_geom_bond_distance
_geom_bond_site_symmetry_2
Ca0 O2 2.280328 1_656
Ca0 O3 2.345308 1_665
Ca0 O0 2.367949 1_555
Ca0 O4 2.457749 1_565
Ca0 O9 2.562337 1_565
Ca0 O7 2.637285 1_555
Ca0 O6 2.644078 1_556
Ca1 O4 2.280328 1_454
Ca1 O8 2.345308 1_445
Ca1 O5 2.367949 1_555
Ca1 O2 2.457749 1_545
Ca1 O6 2.562337 1_545
Ca1 O1 2.637285 1_555
Ca1 O9 2.644078 1_554
Cu0 O8 1.953929 1_445
Cu0 O3 1.953929 1_555
Cu0 O7 2.015470 1_445
Cu0 O1 2.015470 1_555
Cl0 Cu0 2.844125 1_655
Cl1 Cu0 2.844125 1_565
O0 Te1 1.969762 1_556
O0 Te2 2.100275 1_555
O1 Te3 1.950329 1_545
O1 Te0 2.576376 1_555
O2 Te1 1.862942 1_555
O3 Te0 1.894217 1_555
O4 Te2 1.862942 1_555
O5 Te2 1.969762 1_554
O5 Te1 2.100275 1_555
O6 Te3 1.969697 1_555
O6 Te1 2.219142 1_555
O7 Te0 1.950329 1_565
O7 Te3 2.576376 1_555
O8 Te3 1.894217 1_555
O9 Te0 1.969697 1_555
O9 Te2 2.219142 1_555
