# generated using pymatgen
data_CsUGa(PO5)2
_symmetry_space_group_name_H-M   'P 1'
_cell_length_a   7.94227500
_cell_length_b   8.64539590
_cell_length_c   9.09602911
_cell_angle_alpha   113.78987686
_cell_angle_beta   109.92436415
_cell_angle_gamma   83.57661204
_symmetry_Int_Tables_number   1
_chemical_formula_structural   CsUGa(PO5)2
_chemical_formula_sum   'Cs2 U2 Ga2 P4 O20'
_cell_volume   537.05560317
_cell_formula_units_Z   2
loop_
 _symmetry_equiv_pos_site_id
 _symmetry_equiv_pos_as_xyz
  1  'x, y, z'
loop_
 _atom_site_type_symbol
 _atom_site_label
 _atom_site_symmetry_multiplicity
 _atom_site_fract_x
 _atom_site_fract_y
 _atom_site_fract_z
 _atom_site_occupancy
  Cs  Cs0  1  0.33280800  0.30405300  0.48422700  1
  Cs  Cs1  1  0.66719200  0.69594700  0.51577300  1
  U  U0  1  0.78503200  0.07850400  0.33389800  1
  U  U1  1  0.21496800  0.92149600  0.66610200  1
  Ga  Ga0  1  0.75458500  0.42192900  0.98791500  1
  Ga  Ga1  1  0.24541500  0.57807100  0.01208500  1
  P  P0  1  0.95726600  0.32515700  0.71611100  1
  P  P1  1  0.04273400  0.67484300  0.28388900  1
  P  P2  1  0.47295200  0.26387400  0.05629700  1
  P  P3  1  0.52704800  0.73612600  0.94370300  1
  O  O0  1  0.36738500  0.99210900  0.59366800  1
  O  O1  1  0.55618800  0.22749100  0.21826200  1
  O  O2  1  0.32005700  0.13645600  0.92682200  1
  O  O3  1  0.88748000  0.54097100  0.21253100  1
  O  O4  1  0.05494300  0.84599100  0.72655200  1
  O  O5  1  0.20024700  0.64573700  0.42400500  1
  O  O6  1  0.97566200  0.85209000  0.37609600  1
  O  O7  1  0.40234700  0.44831800  0.11583400  1
  O  O8  1  0.90837300  0.32308100  0.86631200  1
  O  O9  1  0.79975300  0.35426300  0.57599500  1
  O  O10  1  0.67994300  0.86354400  0.07317800  1
  O  O11  1  0.02433800  0.14791000  0.62390400  1
  O  O12  1  0.94505700  0.15400900  0.27344800  1
  O  O13  1  0.44381200  0.77250900  0.78173800  1
  O  O14  1  0.09162700  0.67691900  0.13368800  1
  O  O15  1  0.61746800  0.25570900  0.97254800  1
  O  O16  1  0.38253200  0.74429100  0.02745200  1
  O  O17  1  0.11252000  0.45902900  0.78746900  1
  O  O18  1  0.59765300  0.55168200  0.88416600  1
  O  O19  1  0.63261500  0.00789100  0.40633200  1
loop_
_geom_bond_atom_site_label_1
_geom_bond_atom_site_label_2
_geom_bond_distance
_geom_bond_site_symmetry_2
Cs0 O12 3.115417 1_455
Cs0 O0 3.186445 1_545
Cs0 O5 3.217316 1_555
Cs0 O1 3.287707 1_555
Cs0 O19 3.324133 1_555
Cs0 O18 3.427953 1_555
Cs0 O17 3.499643 1_555
Cs0 O9 3.549218 1_555
Cs1 O4 3.115417 1_655
Cs1 O19 3.186445 1_565
Cs1 O9 3.217316 1_555
Cs1 O13 3.287707 1_555
Cs1 O0 3.324133 1_555
Cs1 O7 3.427953 1_555
Cs1 O3 3.499643 1_555
Cs1 O5 3.549218 1_555
Ga0 O15 1.831650 1_555
Ga0 O8 1.835840 1_555
Ga0 O3 1.850525 1_556
Ga0 O18 1.855260 1_555
Ga1 O16 1.831650 1_555
Ga1 O14 1.835840 1_555
Ga1 O17 1.850525 1_554
Ga1 O7 1.855260 1_555
O0 U1 1.818139 1_555
O1 P2 1.539460 1_555
O1 U0 2.309786 1_555
O2 P2 1.533955 1_556
O2 U1 2.284030 1_545
O3 P1 1.564943 1_655
O4 U1 1.815297 1_555
O5 P1 1.534376 1_555
O5 U1 2.489594 1_555
O6 P1 1.555753 1_655
O6 U0 2.412086 1_565
O6 U1 2.547951 1_655
O7 P2 1.568653 1_555
O8 P0 1.549401 1_555
O9 P0 1.534376 1_555
O9 U0 2.489594 1_555
O10 P3 1.533955 1_554
O10 U0 2.284030 1_565
O11 P0 1.555753 1_455
O11 U1 2.412086 1_545
O11 U0 2.547951 1_455
O12 U0 1.815297 1_555
O13 P3 1.539460 1_555
O13 U1 2.309786 1_555
O14 P1 1.549401 1_555
O15 P2 1.561130 1_556
O16 P3 1.561130 1_554
O17 P0 1.564943 1_455
O18 P3 1.568653 1_555
O19 U0 1.818139 1_555
