# generated using pymatgen
data_Cs2Lu7CCl18
_symmetry_space_group_name_H-M   'P 1'
_cell_length_a   10.78157432
_cell_length_b   10.78157432
_cell_length_c   10.78157473
_cell_angle_alpha   54.90568935
_cell_angle_beta   54.90568935
_cell_angle_gamma   54.90569536
_symmetry_Int_Tables_number   1
_chemical_formula_structural   Cs2Lu7CCl18
_chemical_formula_sum   'Cs2 Lu7 C1 Cl18'
_cell_volume   781.11870612
_cell_formula_units_Z   1
loop_
 _symmetry_equiv_pos_site_id
 _symmetry_equiv_pos_as_xyz
  1  'x, y, z'
loop_
 _atom_site_type_symbol
 _atom_site_label
 _atom_site_symmetry_multiplicity
 _atom_site_fract_x
 _atom_site_fract_y
 _atom_site_fract_z
 _atom_site_occupancy
  Cs  Cs0  1  0.22220400  0.22220400  0.22220400  1
  Cs  Cs1  1  0.77779600  0.77779600  0.77779600  1
  Lu  Lu0  1  0.22371000  0.82259700  0.10824700  1
  Lu  Lu1  1  0.82259700  0.10824700  0.22371000  1
  Lu  Lu2  1  0.17740300  0.89175300  0.77629000  1
  Lu  Lu3  1  0.77629000  0.17740300  0.89175300  1
  Lu  Lu4  1  0.50000000  0.50000000  0.50000000  1
  Lu  Lu5  1  0.89175300  0.77629000  0.17740300  1
  Lu  Lu6  1  0.10824700  0.22371000  0.82259700  1
  C  C0  1  0.00000000  0.00000000  0.00000000  1
  Cl  Cl0  1  0.87039100  0.42195900  0.71524900  1
  Cl  Cl1  1  0.64311700  0.21644300  0.47474300  1
  Cl  Cl2  1  0.65646100  0.94697800  0.06717000  1
  Cl  Cl3  1  0.05302200  0.93283000  0.34353900  1
  Cl  Cl4  1  0.47474300  0.64311700  0.21644300  1
  Cl  Cl5  1  0.71524900  0.87039100  0.42195900  1
  Cl  Cl6  1  0.57804100  0.28475100  0.12960900  1
  Cl  Cl7  1  0.78355700  0.52525700  0.35688300  1
  Cl  Cl8  1  0.06717000  0.65646100  0.94697800  1
  Cl  Cl9  1  0.42195900  0.71524900  0.87039100  1
  Cl  Cl10  1  0.28475100  0.12960900  0.57804100  1
  Cl  Cl11  1  0.12960900  0.57804100  0.28475100  1
  Cl  Cl12  1  0.93283000  0.34353900  0.05302200  1
  Cl  Cl13  1  0.35688300  0.78355700  0.52525700  1
  Cl  Cl14  1  0.21644300  0.47474300  0.64311700  1
  Cl  Cl15  1  0.52525700  0.35688300  0.78355700  1
  Cl  Cl16  1  0.34353900  0.05302200  0.93283000  1
  Cl  Cl17  1  0.94697800  0.06717000  0.65646100  1
loop_
_geom_bond_atom_site_label_1
_geom_bond_atom_site_label_2
_geom_bond_distance
_geom_bond_site_symmetry_2
C0 Lu6 2.490644 1_554
C0 Lu5 2.490644 1_445
C0 Lu1 2.490644 1_455
C0 Lu2 2.490644 1_544
C0 Lu0 2.490644 1_545
C0 Lu3 2.490644 1_454
Cl0 Lu3 2.586372 1_555
Cl0 Lu6 2.598110 1_655
Cl0 Cs1 3.737214 1_555
Cl1 Lu4 2.617518 1_555
Cl1 Lu1 2.728228 1_555
Cl1 Cs1 3.865454 1_545
Cl2 Lu5 2.611213 1_555
Cl2 Lu3 2.626098 1_564
Cl2 Cs1 3.725479 1_554
Cl2 Cs0 3.774873 1_565
Cl3 Lu0 2.611212 1_555
Cl3 Lu1 2.626098 1_465
Cl3 Cs0 3.725478 1_565
Cl3 Cs1 3.774872 1_455
Cl4 Lu4 2.617518 1_555
Cl4 Lu0 2.728228 1_555
Cl4 Cs1 3.865454 1_554
Cl5 Lu5 2.586372 1_555
Cl5 Lu1 2.598109 1_565
Cl5 Cs1 3.737214 1_555
Cl6 Lu1 2.586372 1_555
Cl6 Lu3 2.598110 1_554
Cl6 Cs0 3.737214 1_555
Cl7 Lu4 2.617518 1_555
Cl7 Lu5 2.728228 1_555
Cl7 Cs0 3.865455 1_655
Cl8 Lu2 2.611212 1_555
Cl8 Lu5 2.626098 1_456
Cl8 Cs1 3.725479 1_455
Cl8 Cs0 3.774873 1_556
Cl9 Lu2 2.586372 1_555
Cl9 Lu0 2.598110 1_556
Cl9 Cs1 3.737214 1_555
Cl10 Lu6 2.586372 1_555
Cl10 Lu2 2.598109 1_545
Cl10 Cs0 3.737214 1_555
Cl11 Lu0 2.586372 1_555
Cl11 Lu5 2.598110 1_455
Cl11 Cs0 3.737214 1_555
Cl12 Lu1 2.611212 1_555
Cl12 Lu6 2.626098 1_654
Cl12 Cs0 3.725479 1_655
Cl12 Cs1 3.774873 1_554
Cl13 Lu4 2.617518 1_555
Cl13 Lu2 2.728228 1_555
Cl13 Cs0 3.865454 1_565
Cl14 Lu4 2.617518 1_555
Cl14 Lu6 2.728228 1_555
Cl14 Cs1 3.865455 1_455
Cl15 Lu4 2.617518 1_555
Cl15 Lu3 2.728228 1_555
Cl15 Cs0 3.865454 1_556
Cl16 Lu6 2.611213 1_555
Cl16 Lu0 2.626098 1_546
Cl16 Cs0 3.725479 1_556
Cl16 Cs1 3.774873 1_545
Cl17 Lu3 2.611212 1_555
Cl17 Lu2 2.626098 1_645
Cl17 Cs1 3.725478 1_545
Cl17 Cs0 3.774872 1_655
