# generated using pymatgen
data_K4GeSe4
_symmetry_space_group_name_H-M   'P 1'
_cell_length_a   13.31687839
_cell_length_b   13.31687839
_cell_length_c   13.31687839
_cell_angle_alpha   90.00000000
_cell_angle_beta   90.00000000
_cell_angle_gamma   90.00000000
_symmetry_Int_Tables_number   1
_chemical_formula_structural   K4GeSe4
_chemical_formula_sum   'K32 Ge8 Se32'
_cell_volume   2361.60522674
_cell_formula_units_Z   8
loop_
 _symmetry_equiv_pos_site_id
 _symmetry_equiv_pos_as_xyz
  1  'x, y, z'
loop_
 _atom_site_type_symbol
 _atom_site_label
 _atom_site_symmetry_multiplicity
 _atom_site_fract_x
 _atom_site_fract_y
 _atom_site_fract_z
 _atom_site_occupancy
  K  K0  1  0.41117076  0.14873208  0.36784810  1
  K  K1  1  0.85044785  0.85044785  0.14955215  1
  K  K2  1  0.85126792  0.36784810  0.58882924  1
  K  K3  1  0.86784810  0.35126792  0.08882924  1
  K  K4  1  0.85126792  0.63215190  0.41117076  1
  K  K5  1  0.35126792  0.08882924  0.86784810  1
  K  K6  1  0.91117076  0.86784810  0.64873208  1
  K  K7  1  0.85044785  0.14955215  0.85044785  1
  K  K8  1  0.64955215  0.35044785  0.35044785  1
  K  K9  1  0.14955215  0.85044785  0.85044785  1
  K  K10  1  0.64955215  0.64955215  0.64955215  1
  K  K11  1  0.08882924  0.86784810  0.35126792  1
  K  K12  1  0.35044785  0.64955215  0.35044785  1
  K  K13  1  0.36784810  0.58882924  0.85126792  1
  K  K14  1  0.13215190  0.64873208  0.08882924  1
  K  K15  1  0.63215190  0.58882924  0.14873208  1
  K  K16  1  0.58882924  0.85126792  0.36784810  1
  K  K17  1  0.14873208  0.36784810  0.41117076  1
  K  K18  1  0.64873208  0.91117076  0.86784810  1
  K  K19  1  0.14873208  0.63215190  0.58882924  1
  K  K20  1  0.63215190  0.41117076  0.85126792  1
  K  K21  1  0.13215190  0.35126792  0.91117076  1
  K  K22  1  0.35126792  0.91117076  0.13215190  1
  K  K23  1  0.58882924  0.14873208  0.63215190  1
  K  K24  1  0.64873208  0.08882924  0.13215190  1
  K  K25  1  0.86784810  0.64873208  0.91117076  1
  K  K26  1  0.08882924  0.13215190  0.64873208  1
  K  K27  1  0.14955215  0.14955215  0.14955215  1
  K  K28  1  0.35044785  0.35044785  0.64955215  1
  K  K29  1  0.91117076  0.13215190  0.35126792  1
  K  K30  1  0.36784810  0.41117076  0.14873208  1
  K  K31  1  0.41117076  0.85126792  0.63215190  1
  Ge  Ge0  1  0.50000000  0.50000000  0.50000000  1
  Ge  Ge1  1  -0.00000000  0.50000000  0.25000000  1
  Ge  Ge2  1  -0.00000000  0.50000000  0.75000000  1
  Ge  Ge3  1  0.50000000  0.25000000  0.00000000  1
  Ge  Ge4  1  -0.00000000  -0.00000000  0.00000000  1
  Ge  Ge5  1  0.75000000  -0.00000000  0.50000000  1
  Ge  Ge6  1  0.50000000  0.75000000  0.00000000  1
  Ge  Ge7  1  0.25000000  -0.00000000  0.50000000  1
  Se  Se0  1  0.88701154  0.59765762  0.15330789  1
  Se  Se1  1  0.09765762  0.38701154  0.65330789  1
  Se  Se2  1  0.84669211  0.11298846  0.59765762  1
  Se  Se3  1  0.40234238  0.15330789  0.11298846  1
  Se  Se4  1  0.61298846  0.34669211  0.09765762  1
  Se  Se5  1  0.61298846  0.65330789  0.90234238  1
  Se  Se6  1  0.60264715  0.39735285  0.60264715  1
  Se  Se7  1  0.38701154  0.65330789  0.09765762  1
  Se  Se8  1  0.84669211  0.88701154  0.40234238  1
  Se  Se9  1  0.15330789  0.88701154  0.59765762  1
  Se  Se10  1  0.39735285  0.39735285  0.39735285  1
  Se  Se11  1  0.90234238  0.38701154  0.34669211  1
  Se  Se12  1  0.90234238  0.61298846  0.65330789  1
  Se  Se13  1  0.10264715  0.10264715  0.89735285  1
  Se  Se14  1  0.65330789  0.09765762  0.38701154  1
  Se  Se15  1  0.60264715  0.60264715  0.39735285  1
  Se  Se16  1  0.15330789  0.11298846  0.40234238  1
  Se  Se17  1  0.59765762  0.15330789  0.88701154  1
  Se  Se18  1  0.34669211  0.09765762  0.61298846  1
  Se  Se19  1  0.89735285  0.10264715  0.10264715  1
  Se  Se20  1  0.34669211  0.90234238  0.38701154  1
  Se  Se21  1  0.89735285  0.89735285  0.89735285  1
  Se  Se22  1  0.88701154  0.40234238  0.84669211  1
  Se  Se23  1  0.59765762  0.84669211  0.11298846  1
  Se  Se24  1  0.10264715  0.89735285  0.10264715  1
  Se  Se25  1  0.38701154  0.34669211  0.90234238  1
  Se  Se26  1  0.11298846  0.59765762  0.84669211  1
  Se  Se27  1  0.65330789  0.90234238  0.61298846  1
  Se  Se28  1  0.09765762  0.61298846  0.34669211  1
  Se  Se29  1  0.39735285  0.60264715  0.60264715  1
  Se  Se30  1  0.11298846  0.40234238  0.15330789  1
  Se  Se31  1  0.40234238  0.84669211  0.88701154  1
loop_
_geom_bond_atom_site_label_1
_geom_bond_atom_site_label_2
_geom_bond_distance
_geom_bond_site_symmetry_2
K0 Se14 3.305329 1_555
K0 Se10 3.339159 1_555
K0 Se3 3.396517 1_555
K0 Se20 3.401221 1_545
K0 Se18 3.443383 1_555
K0 Se16 3.497062 1_555
K1 Se0 3.401776 1_555
K1 Se23 3.401776 1_555
K1 Se8 3.401776 1_555
K1 Se19 3.472736 1_565
K1 Se24 3.472736 1_655
K1 Se21 3.472736 1_554
K2 Se11 3.305329 1_555
K2 Se6 3.339159 1_555
K2 Se2 3.396517 1_555
K2 Se1 3.401221 1_655
K2 Se12 3.443383 1_555
K2 Se22 3.497062 1_555
K3 Se22 3.305329 1_554
K3 Se19 3.339159 1_555
K3 Se4 3.396517 1_555
K3 Se0 3.401221 1_555
K3 Se30 3.443383 1_655
K3 Se11 3.497062 1_555
K4 Se12 3.305329 1_555
K4 Se15 3.339159 1_555
K4 Se8 3.396517 1_555
K4 Se28 3.401221 1_655
K4 Se11 3.443383 1_555
K4 Se0 3.497062 1_555
K5 Se31 3.305329 1_545
K5 Se13 3.339159 1_555
K5 Se18 3.396517 1_555
K5 Se17 3.401221 1_555
K5 Se3 3.443383 1_556
K5 Se25 3.497062 1_555
K6 Se9 3.305329 1_655
K6 Se21 3.339159 1_555
K6 Se12 3.396517 1_555
K6 Se8 3.401221 1_555
K6 Se2 3.443383 1_565
K6 Se27 3.497062 1_555
K7 Se2 3.401776 1_555
K7 Se22 3.401776 1_555
K7 Se17 3.401776 1_555
K7 Se13 3.472736 1_655
K7 Se19 3.472736 1_556
K7 Se21 3.472736 1_545
K8 Se4 3.401776 1_555
K8 Se14 3.401776 1_555
K8 Se11 3.401776 1_555
K8 Se10 3.472736 1_555
K8 Se6 3.472736 1_555
K8 Se15 3.472736 1_555
K9 Se31 3.401776 1_555
K9 Se9 3.401776 1_555
K9 Se26 3.401776 1_555
K9 Se13 3.472736 1_565
K9 Se24 3.472736 1_556
K9 Se21 3.472736 1_455
K10 Se5 3.401776 1_555
K10 Se27 3.401776 1_555
K10 Se12 3.401776 1_555
K10 Se6 3.472736 1_555
K10 Se15 3.472736 1_555
K10 Se29 3.472736 1_555
K11 Se8 3.305329 1_455
K11 Se24 3.339159 1_555
K11 Se28 3.396517 1_555
K11 Se9 3.401221 1_555
K11 Se16 3.443383 1_565
K11 Se20 3.497062 1_555
K12 Se7 3.401776 1_555
K12 Se28 3.401776 1_555
K12 Se20 3.401776 1_555
K12 Se10 3.472736 1_555
K12 Se29 3.472736 1_555
K12 Se15 3.472736 1_555
K13 Se25 3.305329 1_555
K13 Se29 3.339159 1_555
K13 Se26 3.396517 1_555
K13 Se7 3.401221 1_556
K13 Se5 3.443383 1_555
K13 Se31 3.497062 1_555
K14 Se26 3.305329 1_554
K14 Se24 3.339159 1_555
K14 Se7 3.396517 1_555
K14 Se30 3.401221 1_555
K14 Se0 3.443383 1_455
K14 Se28 3.497062 1_555
K15 Se4 3.305329 1_555
K15 Se15 3.339159 1_555
K15 Se0 3.396517 1_555
K15 Se5 3.401221 1_554
K15 Se7 3.443383 1_555
K15 Se23 3.497062 1_555
K16 Se20 3.305329 1_555
K16 Se15 3.339159 1_555
K16 Se23 3.396517 1_555
K16 Se14 3.401221 1_565
K16 Se27 3.443383 1_555
K16 Se8 3.497062 1_555
K17 Se1 3.305329 1_555
K17 Se10 3.339159 1_555
K17 Se16 3.396517 1_555
K17 Se11 3.401221 1_455
K17 Se28 3.443383 1_555
K17 Se30 3.497062 1_555
K18 Se17 3.305329 1_565
K18 Se21 3.339159 1_555
K18 Se27 3.396517 1_555
K18 Se31 3.401221 1_555
K18 Se23 3.443383 1_556
K18 Se5 3.497062 1_555
K19 Se28 3.305329 1_555
K19 Se29 3.339159 1_555
K19 Se9 3.396517 1_555
K19 Se12 3.401221 1_455
K19 Se1 3.443383 1_555
K19 Se26 3.497062 1_555
K20 Se5 3.305329 1_555
K20 Se6 3.339159 1_555
K20 Se22 3.396517 1_555
K20 Se4 3.401221 1_556
K20 Se25 3.443383 1_555
K20 Se17 3.497062 1_555
K21 Se30 3.305329 1_556
K21 Se13 3.339159 1_555
K21 Se25 3.396517 1_555
K21 Se26 3.401221 1_555
K21 Se22 3.443383 1_455
K21 Se1 3.497062 1_555
K22 Se3 3.305329 1_565
K22 Se24 3.339159 1_555
K22 Se20 3.396517 1_555
K22 Se23 3.401221 1_555
K22 Se31 3.443383 1_554
K22 Se7 3.497062 1_555
K23 Se18 3.305329 1_555
K23 Se6 3.339159 1_555
K23 Se17 3.396517 1_555
K23 Se27 3.401221 1_545
K23 Se14 3.443383 1_555
K23 Se2 3.497062 1_555
K24 Se23 3.305329 1_545
K24 Se19 3.339159 1_555
K24 Se14 3.396517 1_555
K24 Se3 3.401221 1_555
K24 Se17 3.443383 1_554
K24 Se4 3.497062 1_555
K25 Se0 3.305329 1_556
K25 Se21 3.339159 1_555
K25 Se5 3.396517 1_555
K25 Se22 3.401221 1_555
K25 Se26 3.443383 1_655
K25 Se12 3.497062 1_555
K26 Se2 3.305329 1_455
K26 Se13 3.339159 1_555
K26 Se1 3.396517 1_555
K26 Se16 3.401221 1_555
K26 Se9 3.443383 1_545
K26 Se18 3.497062 1_555
K27 Se16 3.401776 1_555
K27 Se30 3.401776 1_555
K27 Se3 3.401776 1_555
K27 Se13 3.472736 1_554
K27 Se19 3.472736 1_455
K27 Se24 3.472736 1_545
K28 Se25 3.401776 1_555
K28 Se18 3.401776 1_555
K28 Se1 3.401776 1_555
K28 Se10 3.472736 1_555
K28 Se6 3.472736 1_555
K28 Se29 3.472736 1_555
K29 Se16 3.305329 1_655
K29 Se19 3.339159 1_555
K29 Se11 3.396517 1_555
K29 Se2 3.401221 1_555
K29 Se8 3.443383 1_545
K29 Se14 3.497062 1_555
K30 Se7 3.305329 1_555
K30 Se10 3.339159 1_555
K30 Se30 3.396517 1_555
K30 Se25 3.401221 1_554
K30 Se4 3.443383 1_555
K30 Se3 3.497062 1_555
K31 Se27 3.305329 1_555
K31 Se29 3.339159 1_555
K31 Se31 3.396517 1_555
K31 Se18 3.401221 1_565
K31 Se20 3.443383 1_555
K31 Se9 3.497062 1_555
Ge0 Se10 2.367609 1_555
Ge0 Se29 2.367609 1_555
Ge0 Se15 2.367609 1_555
Ge0 Se6 2.367609 1_555
Ge0 K8 3.449497 1_555
Ge0 K10 3.449497 1_555
Ge0 K12 3.449497 1_555
Ge0 K28 3.449497 1_555
Ge1 Se0 2.369236 1_455
Ge1 Se30 2.369236 1_555
Ge1 Se11 2.369236 1_455
Ge1 Se28 2.369236 1_555
Ge1 K4 3.409781 1_455
Ge1 K3 3.409781 1_455
Ge1 K14 3.409781 1_555
Ge1 K17 3.409781 1_555
Ge2 Se22 2.369236 1_455
Ge2 Se26 2.369236 1_555
Ge2 Se1 2.369236 1_555
Ge2 Se12 2.369236 1_455
Ge2 K21 3.409781 1_555
Ge2 K19 3.409781 1_555
Ge2 K25 3.409781 1_455
Ge2 K2 3.409781 1_455
Ge3 Se17 2.369236 1_554
Ge3 Se3 2.369236 1_555
Ge3 Se25 2.369236 1_554
Ge3 Se4 2.369236 1_555
Ge3 K5 3.409781 1_554
Ge3 K20 3.409781 1_554
Ge3 K24 3.409781 1_555
Ge3 K30 3.409781 1_555
Ge4 Se13 2.367609 1_554
Ge4 Se24 2.367609 1_545
Ge4 Se19 2.367609 1_455
Ge4 Se21 2.367609 1_444
Ge4 K9 3.449497 1_544
Ge4 K1 3.449497 1_445
Ge4 K27 3.449497 1_555
Ge4 K7 3.449497 1_454
Ge5 Se8 2.369236 1_545
Ge5 Se2 2.369236 1_555
Ge5 Se14 2.369236 1_555
Ge5 Se27 2.369236 1_545
Ge5 K29 3.409781 1_555
Ge5 K23 3.409781 1_555
Ge5 K6 3.409781 1_545
Ge5 K16 3.409781 1_545
Ge6 Se31 2.369236 1_554
Ge6 Se7 2.369236 1_555
Ge6 Se23 2.369236 1_555
Ge6 Se5 2.369236 1_554
Ge6 K15 3.409781 1_555
Ge6 K22 3.409781 1_555
Ge6 K18 3.409781 1_554
Ge6 K13 3.409781 1_554
Ge7 Se9 2.369236 1_545
Ge7 Se16 2.369236 1_555
Ge7 Se20 2.369236 1_545
Ge7 Se18 2.369236 1_555
Ge7 K11 3.409781 1_545
Ge7 K31 3.409781 1_545
Ge7 K26 3.409781 1_555
Ge7 K0 3.409781 1_555
