# generated using pymatgen
data_Sc6Si7Ni16
_symmetry_space_group_name_H-M   'P 1'
_cell_length_a   8.02617726
_cell_length_b   8.02619530
_cell_length_c   8.02618372
_cell_angle_alpha   60.00397069
_cell_angle_beta   60.00388865
_cell_angle_gamma   60.00394198
_symmetry_Int_Tables_number   1
_chemical_formula_structural   Sc6Si7Ni16
_chemical_formula_sum   'Sc6 Si7 Ni16'
_cell_volume   365.63797957
_cell_formula_units_Z   1
loop_
 _symmetry_equiv_pos_site_id
 _symmetry_equiv_pos_as_xyz
  1  'x, y, z'
loop_
 _atom_site_type_symbol
 _atom_site_label
 _atom_site_symmetry_multiplicity
 _atom_site_fract_x
 _atom_site_fract_y
 _atom_site_fract_z
 _atom_site_occupancy
  Sc  Sc0  1  0.70850341  0.70850236  0.29149704  1
  Sc  Sc1  1  0.29149552  0.70850398  0.29149967  1
  Sc  Sc2  1  0.70850465  0.29149591  0.29149878  1
  Sc  Sc3  1  0.29149663  0.29149833  0.70850262  1
  Sc  Sc4  1  0.70850422  0.29149640  0.70850075  1
  Sc  Sc5  1  0.29149550  0.70850398  0.70850138  1
  Si  Si0  1  0.99999996  0.99999979  1.00000003  1
  Si  Si1  1  0.99999659  0.99999647  0.50000352  1
  Si  Si2  1  0.50000329  0.99999651  0.50000362  1
  Si  Si3  1  0.99999653  0.50000338  0.50000335  1
  Si  Si4  1  0.50000326  0.50000358  0.99999670  1
  Si  Si5  1  0.99999658  0.50000337  0.99999653  1
  Si  Si6  1  0.50000322  0.99999656  0.99999658  1
  Ni  Ni0  1  0.88053132  0.88054216  0.35839323  1
  Ni  Ni1  1  0.88053410  0.35839164  0.88053762  1
  Ni  Ni2  1  0.35839298  0.88054113  0.88053374  1
  Ni  Ni3  1  0.88052792  0.88053931  0.88053125  1
  Ni  Ni4  1  0.11942581  0.11941480  0.64173556  1
  Ni  Ni5  1  0.11942326  0.64173713  0.11941914  1
  Ni  Ni6  1  0.64173560  0.11941612  0.11942340  1
  Ni  Ni7  1  0.11942928  0.11941810  0.11942503  1
  Ni  Ni8  1  0.66947965  0.66948499  0.99154896  1
  Ni  Ni9  1  0.66947958  0.99155432  0.66948016  1
  Ni  Ni10  1  0.99154533  0.66948610  0.66948117  1
  Ni  Ni11  1  0.66949082  0.66949616  0.66949133  1
  Ni  Ni12  1  0.33056839  0.33056274  0.00830755  1
  Ni  Ni13  1  0.33056825  0.00830244  0.33056768  1
  Ni  Ni14  1  0.00831194  0.33056119  0.33056652  1
  Ni  Ni15  1  0.33055741  0.33055207  0.33055707  1
loop_
_geom_bond_atom_site_label_1
_geom_bond_atom_site_label_2
_geom_bond_distance
_geom_bond_site_symmetry_2
Sc0 Si3 2.876565 1_555
Sc0 Si2 2.876574 1_555
Sc0 Si5 2.876621 1_554
Sc0 Si6 2.876629 1_554
Sc1 Si3 2.876567 1_455
Sc1 Si4 2.876589 1_554
Sc1 Si1 2.876605 1_455
Sc1 Si6 2.876628 1_554
Sc2 Si2 2.876575 1_545
Sc2 Si4 2.876589 1_554
Sc2 Si1 2.876607 1_545
Sc2 Si5 2.876621 1_554
Sc3 Si3 2.876566 1_455
Sc3 Si2 2.876576 1_545
Sc3 Si5 2.876618 1_455
Sc3 Si6 2.876630 1_545
Sc4 Si3 2.876565 1_555
Sc4 Si4 2.876587 1_555
Sc4 Si1 2.876610 1_545
Sc4 Si6 2.876631 1_545
Sc5 Si2 2.876573 1_555
Sc5 Si4 2.876587 1_555
Sc5 Si1 2.876607 1_455
Sc5 Si5 2.876621 1_455
Ni0 Si0 2.348793 1_554
Ni0 Si1 2.495784 1_555
Ni0 Si2 2.495969 1_555
Ni0 Si3 2.496046 1_555
Ni0 Ni9 2.526626 1_555
Ni0 Ni10 2.526642 1_555
Ni0 Ni11 2.526653 1_555
Ni0 Ni6 2.711577 1_565
Ni0 Ni7 2.711624 1_665
Ni0 Ni5 2.711654 1_655
Ni0 Sc0 2.736831 1_555
Ni0 Sc2 2.736962 1_565
Ni0 Sc1 2.737027 1_655
Ni1 Si0 2.348789 1_545
Ni1 Si5 2.495806 1_555
Ni1 Si4 2.495988 1_555
Ni1 Si3 2.496013 1_555
Ni1 Ni8 2.526668 1_555
Ni1 Ni10 2.526676 1_555
Ni1 Ni11 2.526684 1_555
Ni1 Ni6 2.711625 1_556
Ni1 Ni4 2.711653 1_655
Ni1 Ni7 2.711674 1_656
Ni1 Sc4 2.736818 1_555
Ni1 Sc2 2.737006 1_556
Ni1 Sc3 2.737015 1_655
Ni2 Si0 2.348789 1_455
Ni2 Si6 2.495775 1_555
Ni2 Si2 2.495985 1_555
Ni2 Si4 2.496038 1_555
Ni2 Ni9 2.526627 1_555
Ni2 Ni8 2.526637 1_555
Ni2 Ni4 2.711576 1_565
Ni2 Ni7 2.711592 1_566
Ni2 Ni5 2.711623 1_556
Ni2 Sc5 2.736851 1_555
Ni2 Sc3 2.736984 1_565
Ni2 Sc1 2.737038 1_556
Ni3 Si0 2.348660 1_555
Ni3 Si6 2.495937 1_555
Ni3 Si1 2.495959 1_555
Ni3 Si5 2.496017 1_555
Ni3 Ni9 2.526542 1_555
Ni3 Ni8 2.526557 1_555
Ni3 Ni6 2.711596 1_566
Ni3 Ni4 2.711621 1_665
Ni3 Ni5 2.711678 1_656
Ni3 Sc4 2.737010 1_565
Ni3 Sc0 2.737063 1_556
Ni3 Sc5 2.737075 1_655
Ni4 Si0 2.347949 1_445
Ni4 Si1 2.496140 1_445
Ni4 Si2 2.496323 1_545
Ni4 Si3 2.496403 1_455
Ni4 Sc3 2.736699 1_555
Ni4 Sc5 2.736827 1_545
Ni4 Sc4 2.736894 1_455
Ni5 Si0 2.347942 1_454
Ni5 Si5 2.496163 1_454
Ni5 Si4 2.496340 1_554
Ni5 Si3 2.496370 1_455
Ni5 Sc1 2.736686 1_555
Ni5 Sc5 2.736867 1_554
Ni5 Sc0 2.736881 1_455
Ni6 Si0 2.347946 1_544
Ni6 Si6 2.496135 1_544
Ni6 Si2 2.496344 1_545
Ni6 Si4 2.496395 1_554
Ni6 Sc2 2.736716 1_555
Ni6 Sc0 2.736845 1_545
Ni6 Sc4 2.736900 1_554
Ni7 Si0 2.347817 1_444
Ni7 Si6 2.496289 1_544
Ni7 Si1 2.496321 1_445
Ni7 Si5 2.496370 1_454
Ni7 Sc1 2.736875 1_545
Ni7 Sc3 2.736925 1_554
Ni7 Sc2 2.736940 1_455
Ni8 Si4 2.317528 1_555
Ni8 Si6 2.317674 1_555
Ni8 Si5 2.317706 1_555
Ni8 Ni9 2.585142 1_555
Ni8 Sc0 2.756407 1_556
Ni8 Sc1 2.756583 1_556
Ni8 Sc2 2.756612 1_556
Ni9 Si2 2.317517 1_555
Ni9 Si6 2.317690 1_555
Ni9 Si1 2.317692 1_555
Ni9 Sc4 2.756382 1_565
Ni9 Sc2 2.756548 1_565
Ni9 Sc3 2.756560 1_565
Ni10 Si3 2.317532 1_555
Ni10 Si1 2.317675 1_555
Ni10 Si5 2.317707 1_555
Ni10 Ni3 2.526563 1_555
Ni10 Ni11 2.584785 1_555
Ni10 Ni8 2.585118 1_555
Ni10 Ni9 2.585124 1_555
Ni10 Sc5 2.756407 1_655
Ni10 Sc1 2.756570 1_655
Ni10 Sc3 2.756609 1_655
Ni11 Si2 2.317711 1_555
Ni11 Si4 2.317742 1_555
Ni11 Si3 2.317743 1_555
Ni11 Ni2 2.526654 1_555
Ni11 Ni8 2.584804 1_555
Ni11 Ni9 2.584812 1_555
Ni11 Sc0 2.756589 1_555
Ni11 Sc5 2.756597 1_555
Ni11 Sc4 2.756624 1_555
Ni12 Si4 2.317570 1_554
Ni12 Si6 2.317716 1_544
Ni12 Si5 2.317750 1_454
Ni12 Ni7 2.527509 1_555
Ni12 Ni6 2.527586 1_555
Ni12 Ni5 2.527619 1_555
Ni12 Ni15 2.586347 1_555
Ni12 Ni14 2.586651 1_555
Ni12 Ni13 2.586677 1_555
Ni12 Sc3 2.755736 1_554
Ni12 Sc4 2.755909 1_554
Ni12 Sc5 2.755941 1_554
Ni13 Si2 2.317558 1_545
Ni13 Si6 2.317733 1_544
Ni13 Si1 2.317735 1_445
Ni13 Ni7 2.527498 1_555
Ni13 Ni4 2.527576 1_555
Ni13 Ni6 2.527577 1_555
Ni13 Ni15 2.586352 1_555
Ni13 Ni14 2.586653 1_555
Ni13 Sc1 2.755710 1_545
Ni13 Sc5 2.755879 1_545
Ni13 Sc0 2.755888 1_545
Ni14 Si3 2.317573 1_455
Ni14 Si1 2.317717 1_445
Ni14 Si5 2.317750 1_454
Ni14 Ni7 2.527515 1_555
Ni14 Ni4 2.527592 1_555
Ni14 Ni5 2.527629 1_555
Ni14 Ni15 2.586325 1_555
Ni14 Sc2 2.755738 1_455
Ni14 Sc4 2.755905 1_455
Ni14 Sc0 2.755946 1_455
Ni15 Si2 2.317753 1_545
Ni15 Si4 2.317783 1_554
Ni15 Si3 2.317784 1_455
Ni15 Ni4 2.527606 1_555
Ni15 Ni6 2.527608 1_555
Ni15 Ni5 2.527638 1_555
Ni15 Sc3 2.755911 1_555
Ni15 Sc2 2.755922 1_555
Ni15 Sc1 2.755951 1_555
