# generated using pymatgen
data_RbMnCl3
_symmetry_space_group_name_H-M   'P 1'
_cell_length_a   7.15589593
_cell_length_b   7.15589569
_cell_length_c   17.79950594
_cell_angle_alpha   90.00000314
_cell_angle_beta   90.00000480
_cell_angle_gamma   119.99790552
_symmetry_Int_Tables_number   1
_chemical_formula_structural   RbMnCl3
_chemical_formula_sum   'Rb6 Mn6 Cl18'
_cell_volume   789.36117597
_cell_formula_units_Z   6
loop_
 _symmetry_equiv_pos_site_id
 _symmetry_equiv_pos_as_xyz
  1  'x, y, z'
loop_
 _atom_site_type_symbol
 _atom_site_label
 _atom_site_symmetry_multiplicity
 _atom_site_fract_x
 _atom_site_fract_y
 _atom_site_fract_z
 _atom_site_occupancy
  Rb  Rb0  1  0.00000012  -0.00000029  0.25000116  1
  Rb  Rb1  1  0.33333315  0.66666717  0.41548308  1
  Rb  Rb2  1  0.66666663  0.33333304  0.58451694  1
  Rb  Rb3  1  -0.00000059  0.00000026  0.74999865  1
  Rb  Rb4  1  0.66666705  0.33333320  0.91548252  1
  Rb  Rb5  1  0.33333298  0.66666634  0.08451747  1
  Mn  Mn0  1  0.33333316  0.66666859  0.66115283  1
  Mn  Mn1  1  0.66666785  0.33333429  0.16115279  1
  Mn  Mn2  1  0.33333536  0.66666669  0.83884741  1
  Mn  Mn3  1  0.00000038  -0.00000015  0.00000008  1
  Mn  Mn4  1  0.66666511  0.33333231  0.33884736  1
  Mn  Mn5  1  0.00000030  0.00000023  0.50000021  1
  Cl  Cl0  1  0.16595450  0.83404510  0.91806870  1
  Cl  Cl1  1  0.16595462  0.33190922  0.58193096  1
  Cl  Cl2  1  0.83404540  0.16595429  0.08193112  1
  Cl  Cl3  1  0.01262866  0.50631732  0.74999760  1
  Cl  Cl4  1  0.66809091  0.83404555  0.58193091  1
  Cl  Cl5  1  0.50631149  0.49368784  0.25000223  1
  Cl  Cl6  1  0.83404558  0.66809097  0.41806911  1
  Cl  Cl7  1  0.33190751  0.16595006  0.08193128  1
  Cl  Cl8  1  0.33190867  0.16595408  0.41806917  1
  Cl  Cl9  1  0.98737168  0.49368214  0.25000247  1
  Cl  Cl10  1  0.49368332  0.98737241  0.74999745  1
  Cl  Cl11  1  0.83404974  0.66809248  0.08193118  1
  Cl  Cl12  1  0.83404555  0.16595426  0.41806949  1
  Cl  Cl13  1  0.66809292  0.83404989  0.91806875  1
  Cl  Cl14  1  0.49368817  0.50631187  0.74999756  1
  Cl  Cl15  1  0.16595002  0.33190724  0.91806866  1
  Cl  Cl16  1  0.16595448  0.83404558  0.58193044  1
  Cl  Cl17  1  0.50631730  0.01262802  0.25000240  1
loop_
_geom_bond_atom_site_label_1
_geom_bond_atom_site_label_2
_geom_bond_distance
_geom_bond_site_symmetry_2
Cl0 Mn2 2.508409 1_555
Cl0 Mn3 2.521409 1_566
Cl0 Rb4 3.578366 1_455
Cl0 Rb4 3.578370 1_565
Cl0 Rb5 3.616809 1_556
Cl0 Rb3 3.630461 1_565
Cl1 Mn0 2.508469 1_555
Cl1 Mn5 2.521456 1_555
Cl1 Rb2 3.578254 1_455
Cl1 Rb2 3.578256 1_555
Cl1 Rb1 3.616836 1_555
Cl1 Rb3 3.630459 1_555
Cl2 Mn1 2.508404 1_555
Cl2 Mn3 2.521409 1_655
Cl2 Rb5 3.578367 1_655
Cl2 Rb5 3.578370 1_545
Cl2 Rb4 3.616807 1_554
Cl2 Rb0 3.630457 1_655
Cl3 Mn0 2.539880 1_555
Cl3 Mn2 2.539947 1_555
Cl3 Rb3 3.578784 1_565
Cl3 Rb3 3.578824 1_555
Cl3 Rb2 3.643173 1_455
Cl3 Rb4 3.643233 1_455
Cl4 Mn0 2.508462 1_555
Cl4 Mn5 2.521458 1_665
Cl4 Rb2 3.578252 1_565
Cl4 Rb2 3.578258 1_555
Cl4 Rb1 3.616835 1_555
Cl4 Rb3 3.630457 1_665
Cl5 Mn4 2.539857 1_555
Cl5 Mn1 2.539909 1_555
Cl5 Rb0 3.578914 1_555
Cl5 Rb0 3.578918 1_665
Cl5 Rb1 3.643120 1_555
Cl5 Rb5 3.643174 1_555
Cl6 Mn4 2.508464 1_555
Cl6 Mn5 2.521461 1_665
Cl6 Rb1 3.578251 1_655
Cl6 Rb1 3.578259 1_555
Cl6 Rb2 3.616836 1_555
Cl6 Rb0 3.630462 1_665
Cl7 Mn1 2.508471 1_555
Cl7 Mn3 2.521452 1_555
Cl7 Rb5 3.578229 1_545
Cl7 Rb5 3.578281 1_555
Cl7 Rb4 3.616855 1_554
Cl7 Rb0 3.630485 1_555
Cl8 Mn4 2.508454 1_555
Cl8 Mn5 2.521457 1_555
Cl8 Rb1 3.578248 1_545
Cl8 Rb1 3.578261 1_555
Cl8 Rb2 3.616834 1_555
Cl8 Rb0 3.630461 1_555
Cl9 Mn4 2.539892 1_555
Cl9 Mn1 2.539931 1_555
Cl9 Rb0 3.578777 1_655
Cl9 Rb0 3.578831 1_665
Cl9 Rb1 3.643170 1_655
Cl9 Rb5 3.643233 1_655
Cl10 Mn0 2.539875 1_555
Cl10 Mn2 2.539944 1_555
Cl10 Rb3 3.578785 1_565
Cl10 Rb3 3.578822 1_665
Cl10 Rb2 3.643166 1_565
Cl10 Rb4 3.643232 1_565
Cl11 Mn1 2.508461 1_555
Cl11 Mn3 2.521452 1_665
Cl11 Rb5 3.578228 1_655
Cl11 Rb5 3.578282 1_555
Cl11 Rb4 3.616852 1_554
Cl11 Rb0 3.630486 1_665
Cl12 Mn4 2.508413 1_555
Cl12 Mn5 2.521402 1_655
Cl12 Rb1 3.578366 1_545
Cl12 Rb1 3.578370 1_655
Cl12 Rb2 3.616791 1_555
Cl12 Rb0 3.630431 1_655
Cl13 Mn2 2.508455 1_555
Cl13 Mn3 2.521455 1_666
Cl13 Rb4 3.578228 1_565
Cl13 Rb4 3.578282 1_555
Cl13 Rb5 3.616856 1_556
Cl13 Rb3 3.630485 1_665
Cl14 Mn0 2.539866 1_555
Cl14 Mn2 2.539902 1_555
Cl14 Rb3 3.578915 1_665
Cl14 Rb3 3.578917 1_555
Cl14 Rb2 3.643115 1_555
Cl14 Rb4 3.643179 1_555
Cl15 Mn2 2.508464 1_555
Cl15 Mn3 2.521455 1_556
Cl15 Rb4 3.578226 1_455
Cl15 Rb4 3.578284 1_555
Cl15 Rb5 3.616854 1_556
Cl15 Rb3 3.630485 1_555
Cl16 Mn0 2.508401 1_555
Cl16 Mn5 2.521397 1_565
Cl16 Rb2 3.578367 1_565
Cl16 Rb2 3.578370 1_455
Cl16 Rb1 3.616788 1_555
Cl16 Rb3 3.630432 1_565
Cl17 Mn4 2.539881 1_555
Cl17 Mn1 2.539943 1_555
Cl17 Rb0 3.578779 1_655
Cl17 Rb0 3.578828 1_555
Cl17 Rb1 3.643169 1_545
Cl17 Rb5 3.643233 1_545
