# generated using pymatgen
data_Cr(PO3)4
_symmetry_space_group_name_H-M   'P 1'
_cell_length_a   13.56785100
_cell_length_b   5.15852000
_cell_length_c   7.44267410
_cell_angle_alpha   79.47271047
_cell_angle_beta   90.00000000
_cell_angle_gamma   90.00000000
_symmetry_Int_Tables_number   1
_chemical_formula_structural   Cr(PO3)4
_chemical_formula_sum   'Cr2 P8 O24'
_cell_volume   512.14498095
_cell_formula_units_Z   2
loop_
 _symmetry_equiv_pos_site_id
 _symmetry_equiv_pos_as_xyz
  1  'x, y, z'
loop_
 _atom_site_type_symbol
 _atom_site_label
 _atom_site_symmetry_multiplicity
 _atom_site_fract_x
 _atom_site_fract_y
 _atom_site_fract_z
 _atom_site_occupancy
  Cr  Cr0  1  0.23262200  0.99661600  0.50703600  1
  Cr  Cr1  1  0.73262200  0.00338400  0.49296400  1
  P  P0  1  0.17788100  0.63298400  0.89861300  1
  P  P1  1  0.67788100  0.36701600  0.10138700  1
  P  P2  1  0.59594900  0.52437000  0.43331900  1
  P  P3  1  0.09594900  0.47563000  0.56668100  1
  P  P4  1  0.87035200  0.48083200  0.55727900  1
  P  P5  1  0.37035200  0.51916800  0.44272100  1
  P  P6  1  0.32156500  0.28135400  0.13021200  1
  P  P7  1  0.82156500  0.71864600  0.86978800  1
  O  O0  1  0.61150600  0.79685800  0.47596000  1
  O  O1  1  0.11150600  0.20314200  0.52404000  1
  O  O2  1  0.35154500  0.52862400  0.22912000  1
  O  O3  1  0.85154500  0.47137600  0.77088000  1
  O  O4  1  0.26857800  0.42671000  0.94925200  1
  O  O5  1  0.76857800  0.57329000  0.05074800  1
  O  O6  1  0.10855000  0.46644700  0.78095600  1
  O  O7  1  0.60855000  0.53355300  0.21904400  1
  O  O8  1  0.48369800  0.44692000  0.47241300  1
  O  O9  1  0.98369800  0.55308000  0.52758700  1
  O  O10  1  0.62595300  0.30359300  0.94216000  1
  O  O11  1  0.12595300  0.69640700  0.05784000  1
  O  O12  1  0.65534300  0.30399600  0.54233900  1
  O  O13  1  0.15534300  0.69600400  0.45766100  1
  O  O14  1  0.31393300  0.29466600  0.55588200  1
  O  O15  1  0.81393300  0.70533400  0.44411800  1
  O  O16  1  0.85465700  0.21070100  0.51157500  1
  O  O17  1  0.35465700  0.78929900  0.48842500  1
  O  O18  1  0.72602200  0.14180800  0.23714900  1
  O  O19  1  0.22602200  0.85819200  0.76285100  1
  O  O20  1  0.24055500  0.12711900  0.25178300  1
  O  O21  1  0.74055500  0.87288100  0.74821700  1
  O  O22  1  0.40734600  0.12545000  0.08987000  1
  O  O23  1  0.90734600  0.87455000  0.91013000  1
loop_
_geom_bond_atom_site_label_1
_geom_bond_atom_site_label_2
_geom_bond_distance
_geom_bond_site_symmetry_2
Cr0 O20 1.899095 1_565
Cr0 O19 1.909486 1_555
Cr0 O13 1.961468 1_555
Cr0 O1 1.975013 1_565
Cr0 O14 1.979240 1_565
Cr0 O17 1.989612 1_555
Cr1 O21 1.899095 1_545
Cr1 O18 1.909486 1_555
Cr1 O12 1.961468 1_555
Cr1 O0 1.975013 1_545
Cr1 O15 1.979240 1_545
Cr1 O16 1.989612 1_555
O0 P2 1.511320 1_555
O1 P3 1.511320 1_555
O2 P5 1.602030 1_555
O2 P6 1.636304 1_555
O3 P4 1.602030 1_555
O3 P7 1.636304 1_555
O4 P6 1.588711 1_556
O4 P0 1.625433 1_555
O5 P7 1.588711 1_554
O5 P1 1.625433 1_555
O6 P3 1.595992 1_555
O6 P0 1.632361 1_555
O7 P2 1.595992 1_555
O7 P1 1.632361 1_555
O8 P2 1.587875 1_555
O8 P5 1.588288 1_555
O9 P3 1.587875 1_655
O9 P4 1.588288 1_555
O10 P1 1.466121 1_556
O11 P0 1.466121 1_554
O12 P2 1.504338 1_555
O13 P3 1.504338 1_555
O14 P5 1.509995 1_555
O15 P4 1.509995 1_555
O16 P4 1.508654 1_555
O17 P5 1.508654 1_555
O18 P1 1.538930 1_555
O19 P0 1.538930 1_555
O20 P6 1.548141 1_555
O21 P7 1.548141 1_555
O22 P6 1.476401 1_555
O23 P7 1.476401 1_555
