# generated using pymatgen
data_Sr(AsPt)2
_symmetry_space_group_name_H-M   'P 1'
_cell_length_a   4.52563800
_cell_length_b   8.99836200
_cell_length_c   10.09417957
_cell_angle_alpha   89.20627133
_cell_angle_beta   90.00000000
_cell_angle_gamma   90.00000000
_symmetry_Int_Tables_number   1
_chemical_formula_structural   Sr(AsPt)2
_chemical_formula_sum   'Sr4 As8 Pt8'
_cell_volume   411.02915227
_cell_formula_units_Z   4
loop_
 _symmetry_equiv_pos_site_id
 _symmetry_equiv_pos_as_xyz
  1  'x, y, z'
loop_
 _atom_site_type_symbol
 _atom_site_label
 _atom_site_symmetry_multiplicity
 _atom_site_fract_x
 _atom_site_fract_y
 _atom_site_fract_z
 _atom_site_occupancy
  Sr  Sr0  1  0.76040800  0.62627500  0.75146800  1
  Sr  Sr1  1  0.73959200  0.12627500  0.75146800  1
  Sr  Sr2  1  0.26040800  0.87372500  0.24853200  1
  Sr  Sr3  1  0.23959200  0.37372500  0.24853200  1
  As  As0  1  0.25435300  0.62358700  0.99941500  1
  As  As1  1  0.24564700  0.12358700  0.99941500  1
  As  As2  1  0.20539600  0.38630300  0.62859300  1
  As  As3  1  0.74564700  0.37641300  0.00058500  1
  As  As4  1  0.79460400  0.61369700  0.37140700  1
  As  As5  1  0.75435300  0.87641300  0.00058500  1
  As  As6  1  0.29460400  0.88630300  0.62859300  1
  As  As7  1  0.70539600  0.11369700  0.37140700  1
  Pt  Pt0  1  0.67726800  0.35868500  0.49784500  1
  Pt  Pt1  1  0.82273200  0.85868500  0.49784500  1
  Pt  Pt2  1  0.74661100  0.12573600  0.12039000  1
  Pt  Pt3  1  0.32273200  0.64131500  0.50215500  1
  Pt  Pt4  1  0.75338900  0.62573600  0.12039000  1
  Pt  Pt5  1  0.25338900  0.87426400  0.87961000  1
  Pt  Pt6  1  0.24661100  0.37426400  0.87961000  1
  Pt  Pt7  1  0.17726800  0.14131500  0.50215500  1
loop_
_geom_bond_atom_site_label_1
_geom_bond_atom_site_label_2
_geom_bond_distance
_geom_bond_site_symmetry_2
As0 Pt5 2.544608 1_555
As0 Pt6 2.563624 1_555
As0 Pt4 2.567653 1_556
As0 Pt4 2.575331 1_456
As0 Sr3 3.350562 1_556
As0 Sr0 3.355609 1_455
As0 Sr0 3.392365 1_555
As0 Sr2 3.398115 1_556
As1 Pt6 2.544608 1_555
As1 Pt5 2.563624 1_545
As1 Pt2 2.567653 1_456
As1 Pt2 2.575331 1_556
As1 Sr2 3.350562 1_546
As1 Sr1 3.355609 1_555
As1 Sr1 3.392365 1_455
As1 Sr3 3.398115 1_556
As2 Pt0 2.524511 1_555
As2 Pt6 2.541480 1_555
As2 Pt7 2.565706 1_555
As2 Pt3 2.663711 1_555
As2 Pt0 2.743239 1_455
As2 Sr0 3.214191 1_455
As2 Sr1 3.372936 1_455
As2 Sr0 3.547460 1_555
As2 Sr1 3.574558 1_555
As3 Pt2 2.544608 1_555
As3 Pt4 2.563624 1_555
As3 Pt6 2.567653 1_554
As3 Pt6 2.575331 1_654
As3 Sr0 3.350562 1_554
As3 Sr3 3.355609 1_655
As3 Sr3 3.392365 1_555
As3 Sr1 3.398115 1_554
As4 Pt3 2.524511 1_555
As4 Pt4 2.541480 1_555
As4 Pt1 2.565706 1_555
As4 Pt0 2.663711 1_555
As4 Pt3 2.743239 1_655
As4 Sr3 3.214191 1_655
As4 Sr2 3.372936 1_655
As4 Sr3 3.547460 1_555
As4 Sr2 3.574558 1_555
As5 Pt4 2.544608 1_555
As5 Pt2 2.563624 1_565
As5 Pt5 2.567653 1_654
As5 Pt5 2.575331 1_554
As5 Sr1 3.350562 1_564
As5 Sr2 3.355609 1_555
As5 Sr2 3.392365 1_655
As5 Sr0 3.398115 1_554
As6 Pt1 2.524511 1_455
As6 Pt5 2.541480 1_555
As6 Pt3 2.565706 1_555
As6 Pt7 2.663711 1_565
As6 Pt1 2.743239 1_555
As6 Sr1 3.214191 1_565
As6 Sr0 3.372936 1_555
As6 Sr1 3.547460 1_465
As6 Sr0 3.574558 1_455
As7 Pt7 2.524511 1_655
As7 Pt2 2.541480 1_555
As7 Pt0 2.565706 1_555
As7 Pt1 2.663711 1_545
As7 Pt7 2.743239 1_555
As7 Sr2 3.214191 1_545
As7 Sr3 3.372936 1_555
As7 Sr2 3.547460 1_645
As7 Sr3 3.574558 1_655
Pt0 Pt7 2.990939 1_655
Pt0 Pt7 2.990939 1_555
Pt0 Pt3 3.007871 1_555
Pt0 Sr3 3.204002 1_555
Pt0 Sr1 3.295298 1_555
Pt0 Sr0 3.558708 1_555
Pt0 Sr3 3.580306 1_655
Pt1 Pt3 2.990939 1_555
Pt1 Pt3 2.990939 1_655
Pt1 Pt7 3.007871 1_665
Pt1 Sr2 3.204002 1_655
Pt1 Sr0 3.295298 1_555
Pt1 Sr1 3.558708 1_565
Pt1 Sr2 3.580306 1_555
Pt2 Sr2 3.402339 1_545
Pt2 Sr3 3.422024 1_655
Pt2 Sr3 3.463779 1_555
Pt2 Sr2 3.484405 1_645
Pt3 Sr0 3.204002 1_555
Pt3 Sr2 3.295298 1_555
Pt3 Sr3 3.558708 1_555
Pt3 Sr0 3.580306 1_455
Pt4 Sr3 3.402339 1_655
Pt4 Sr2 3.422024 1_555
Pt4 Sr2 3.463779 1_655
Pt4 Sr3 3.484405 1_555
Pt5 Sr1 3.402339 1_565
Pt5 Sr0 3.422024 1_455
Pt5 Sr0 3.463779 1_555
Pt5 Sr1 3.484405 1_465
Pt6 Sr0 3.402339 1_455
Pt6 Sr1 3.422024 1_555
Pt6 Sr1 3.463779 1_455
Pt6 Sr0 3.484405 1_555
Pt7 Sr1 3.204002 1_455
Pt7 Sr3 3.295298 1_555
Pt7 Sr2 3.558708 1_545
Pt7 Sr1 3.580306 1_555
