# generated using pymatgen
data_YOs2
_symmetry_space_group_name_H-M   'P 1'
_cell_length_a   5.27752988
_cell_length_b   5.27753009
_cell_length_c   8.93129150
_cell_angle_alpha   90.00000000
_cell_angle_beta   90.00000000
_cell_angle_gamma   120.00000510
_symmetry_Int_Tables_number   1
_chemical_formula_structural   YOs2
_chemical_formula_sum   'Y4 Os8'
_cell_volume   215.43005497
_cell_formula_units_Z   4
loop_
 _symmetry_equiv_pos_site_id
 _symmetry_equiv_pos_as_xyz
  1  'x, y, z'
loop_
 _atom_site_type_symbol
 _atom_site_label
 _atom_site_symmetry_multiplicity
 _atom_site_fract_x
 _atom_site_fract_y
 _atom_site_fract_z
 _atom_site_occupancy
  Y  Y0  1  0.33333300  0.66666700  0.43434908  1
  Y  Y1  1  0.66666700  0.33333300  0.56565092  1
  Y  Y2  1  0.66666700  0.33333300  0.93434908  1
  Y  Y3  1  0.33333300  0.66666700  0.06565092  1
  Os  Os0  1  0.17121199  0.34242198  0.75000000  1
  Os  Os1  1  0.17121199  0.82878801  0.75000000  1
  Os  Os2  1  0.34242198  0.17121199  0.25000000  1
  Os  Os3  1  0.82878801  0.65757802  0.25000000  1
  Os  Os4  1  0.65757802  0.82878801  0.75000000  1
  Os  Os5  1  0.00000000  -0.00000000  0.00000000  1
  Os  Os6  1  0.82878801  0.17121199  0.25000000  1
  Os  Os7  1  0.00000000  -0.00000000  0.50000000  1
loop_
_geom_bond_atom_site_label_1
_geom_bond_atom_site_label_2
_geom_bond_distance
_geom_bond_site_symmetry_2
Y0 Y1 3.264859 1_455
Y0 Y1 3.264859 1_565
Y0 Y1 3.264867 1_555
Y0 Y3 3.292951 1_555
Y1 Y2 3.292951 1_555
Y2 Y3 3.264859 1_656
Y2 Y3 3.264859 1_546
Y2 Y3 3.264867 1_556
Os0 Os4 2.566811 1_555
Os0 Os1 2.566811 1_555
Os0 Os4 2.710718 1_445
Os0 Os1 2.710719 1_545
Os0 Os5 2.726687 1_556
Os0 Os7 2.726687 1_555
Os0 Y1 3.110574 1_555
Os0 Y2 3.110574 1_555
Os0 Y1 3.110579 1_455
Os0 Y2 3.110579 1_455
Os0 Y3 3.184950 1_556
Os0 Y0 3.184950 1_555
Os1 Os4 2.566811 1_555
Os1 Os4 2.710719 1_455
Os1 Os5 2.726692 1_566
Os1 Os7 2.726692 1_565
Os1 Y1 3.110577 1_455
Os1 Y2 3.110577 1_455
Os1 Y1 3.110577 1_565
Os1 Y2 3.110577 1_565
Os1 Y0 3.184944 1_555
Os1 Y3 3.184944 1_556
Os2 Os3 2.566811 1_555
Os2 Os6 2.566811 1_555
Os2 Os3 2.710718 1_445
Os2 Os6 2.710719 1_455
Os2 Os7 2.726687 1_555
Os2 Os5 2.726687 1_555
Os2 Y3 3.110575 1_555
Os2 Y0 3.110575 1_555
Os2 Y0 3.110579 1_545
Os2 Y3 3.110579 1_545
Os2 Y2 3.184950 1_554
Os2 Y1 3.184950 1_555
Os3 Os6 2.566811 1_555
Os3 Os6 2.710719 1_565
Os3 Os7 2.726687 1_665
Os3 Os5 2.726687 1_665
Os3 Y3 3.110574 1_555
Os3 Y0 3.110574 1_555
Os3 Y0 3.110579 1_655
Os3 Y3 3.110579 1_655
Os3 Y2 3.184950 1_554
Os3 Y1 3.184950 1_555
Os4 Os5 2.726687 1_666
Os4 Os7 2.726687 1_665
Os4 Y1 3.110575 1_555
Os4 Y2 3.110575 1_555
Os4 Y1 3.110579 1_565
Os4 Y2 3.110579 1_565
Os4 Y3 3.184950 1_556
Os4 Y0 3.184950 1_555
Os5 Os6 2.726692 1_455
Os5 Y2 3.102885 1_454
Os5 Y3 3.102885 1_545
Os5 Y2 3.102889 1_554
Os5 Y3 3.102889 1_445
Os5 Y3 3.102889 1_555
Os5 Y2 3.102889 1_444
Os6 Os7 2.726692 1_655
Os6 Y0 3.110577 1_655
Os6 Y3 3.110577 1_655
Os6 Y0 3.110577 1_545
Os6 Y3 3.110577 1_545
Os6 Y2 3.184944 1_554
Os6 Y1 3.184944 1_555
Os7 Y1 3.102885 1_455
Os7 Y0 3.102885 1_545
Os7 Y1 3.102889 1_555
Os7 Y0 3.102889 1_445
Os7 Y0 3.102889 1_555
Os7 Y1 3.102889 1_445
