# generated using pymatgen
data_BaSr4U3O14
_symmetry_space_group_name_H-M   'P 1'
_cell_length_a   8.06465950
_cell_length_b   8.06465950
_cell_length_c   11.00993014
_cell_angle_alpha   90.00000000
_cell_angle_beta   90.00000000
_cell_angle_gamma   89.93867669
_symmetry_Int_Tables_number   1
_chemical_formula_structural   BaSr4U3O14
_chemical_formula_sum   'Ba2 Sr8 U6 O28'
_cell_volume   716.07149523
_cell_formula_units_Z   2
loop_
 _symmetry_equiv_pos_site_id
 _symmetry_equiv_pos_as_xyz
  1  'x, y, z'
loop_
 _atom_site_type_symbol
 _atom_site_label
 _atom_site_symmetry_multiplicity
 _atom_site_fract_x
 _atom_site_fract_y
 _atom_site_fract_z
 _atom_site_occupancy
  Ba  Ba0  1  0.00000000  0.00000000  0.50000000  1
  Ba  Ba1  1  0.50000000  0.50000000  0.00000000  1
  Sr  Sr0  1  0.77082582  0.27082582  0.75000000  1
  Sr  Sr1  1  0.24868937  0.24868937  0.77552523  1
  Sr  Sr2  1  0.25131063  0.25131063  0.27552523  1
  Sr  Sr3  1  0.74868937  0.74868937  0.72447477  1
  Sr  Sr4  1  0.75131063  0.75131063  0.22447477  1
  Sr  Sr5  1  0.72917418  0.22917418  0.25000000  1
  Sr  Sr6  1  0.27082582  0.77082582  0.75000000  1
  Sr  Sr7  1  0.22917418  0.72917418  0.25000000  1
  U  U0  1  0.50000000  0.50000000  0.50000000  1
  U  U1  1  0.00000000  0.00000000  0.00000000  1
  U  U2  1  0.00000000  0.50000000  0.50000000  1
  U  U3  1  0.50000000  0.00000000  0.00000000  1
  U  U4  1  0.50000000  0.00000000  0.50000000  1
  U  U5  1  0.00000000  0.50000000  0.00000000  1
  O  O0  1  0.53248437  0.19182149  0.88244774  1
  O  O1  1  0.69182149  0.03248437  0.61755226  1
  O  O2  1  0.03248437  0.69182149  0.61755226  1
  O  O3  1  0.24618844  0.99318338  0.92643849  1
  O  O4  1  0.43553991  0.43553991  0.66417315  1
  O  O5  1  0.46722501  0.18493747  0.12431849  1
  O  O6  1  0.30817851  0.96751563  0.38244774  1
  O  O7  1  0.46751563  0.80817851  0.11755226  1
  O  O8  1  0.18493747  0.46722501  0.12431849  1
  O  O9  1  0.31506253  0.03277499  0.62431849  1
  O  O10  1  0.75381156  0.00681662  0.07356151  1
  O  O11  1  0.80817851  0.46751563  0.11755226  1
  O  O12  1  0.53277499  0.81506253  0.87568151  1
  O  O13  1  0.03277499  0.31506253  0.62431849  1
  O  O14  1  0.56446009  0.56446009  0.33582685  1
  O  O15  1  0.00681662  0.75381156  0.07356151  1
  O  O16  1  0.93553991  0.93553991  0.83582685  1
  O  O17  1  0.06446009  0.06446009  0.16417315  1
  O  O18  1  0.49318338  0.74618844  0.57356151  1
  O  O19  1  0.99318338  0.24618844  0.92643849  1
  O  O20  1  0.25381156  0.50681662  0.42643849  1
  O  O21  1  0.74618844  0.49318338  0.57356151  1
  O  O22  1  0.96751563  0.30817851  0.38244774  1
  O  O23  1  0.50681662  0.25381156  0.42643849  1
  O  O24  1  0.96722501  0.68493747  0.37568151  1
  O  O25  1  0.81506253  0.53277499  0.87568151  1
  O  O26  1  0.19182149  0.53248437  0.88244774  1
  O  O27  1  0.68493747  0.96722501  0.37568151  1
loop_
_geom_bond_atom_site_label_1
_geom_bond_atom_site_label_2
_geom_bond_distance
_geom_bond_site_symmetry_2
Ba0 O2 2.814123 1_545
Ba0 O1 2.814123 1_455
Ba0 O6 2.814123 1_545
Ba0 O22 2.814123 1_455
Ba0 O24 2.898409 1_445
Ba0 O27 2.898409 1_445
Ba0 O9 2.898409 1_555
Ba0 O13 2.898409 1_555
Ba1 O26 2.814123 1_554
Ba1 O7 2.814123 1_555
Ba1 O0 2.814123 1_554
Ba1 O11 2.814123 1_555
Ba1 O12 2.898409 1_554
Ba1 O25 2.898409 1_554
Ba1 O8 2.898409 1_555
Ba1 O5 2.898409 1_555
O0 U3 2.034132 1_556
O0 Sr0 2.495931 1_555
O0 Sr1 2.613829 1_555
O1 U4 2.034132 1_555
O1 Sr0 2.495931 1_555
O1 Sr3 2.613829 1_545
O2 U2 2.034132 1_555
O2 Sr6 2.495931 1_555
O2 Sr3 2.613829 1_455
O3 U1 2.144914 1_566
O3 U3 2.202051 1_566
O3 Sr1 2.647106 1_565
O3 Sr6 2.651041 1_555
O4 U0 1.951473 1_555
O4 Sr1 2.459531 1_555
O4 Sr6 3.156140 1_555
O4 Sr0 3.156140 1_555
O5 U3 2.041301 1_555
O5 Sr2 2.467397 1_555
O5 Sr5 2.550769 1_555
O6 U4 2.034132 1_565
O6 Sr7 2.495931 1_555
O6 Sr2 2.613829 1_565
O7 U3 2.034132 1_565
O7 Sr7 2.495931 1_555
O7 Sr4 2.613829 1_555
O8 U5 2.041301 1_555
O8 Sr2 2.467397 1_555
O8 Sr7 2.550769 1_555
O9 U4 2.041301 1_555
O9 Sr1 2.467397 1_555
O9 Sr6 2.550769 1_545
O10 U1 2.144914 1_655
O10 U3 2.202051 1_555
O10 Sr4 2.647106 1_545
O10 Sr5 2.651041 1_555
O11 U5 2.034132 1_655
O11 Sr5 2.495931 1_555
O11 Sr4 2.613829 1_555
O12 U3 2.041301 1_566
O12 Sr3 2.467397 1_555
O12 Sr6 2.550769 1_555
O13 U2 2.041301 1_555
O13 Sr1 2.467397 1_555
O13 Sr0 2.550769 1_455
O14 U0 1.951473 1_555
O14 Sr4 2.459531 1_555
O14 Sr7 3.156140 1_555
O14 Sr5 3.156140 1_555
O15 U1 2.144914 1_565
O15 U5 2.202051 1_555
O15 Sr4 2.647106 1_455
O15 Sr7 2.651041 1_555
O16 U1 1.951473 1_666
O16 Sr3 2.459531 1_555
O16 Sr0 3.156140 1_565
O16 Sr6 3.156140 1_655
O17 U1 1.951473 1_555
O17 Sr2 2.459531 1_555
O17 Sr5 3.156140 1_455
O17 Sr7 3.156140 1_545
O18 U0 2.144914 1_555
O18 U4 2.202051 1_565
O18 Sr3 2.647106 1_555
O18 Sr6 2.651041 1_555
O19 U1 2.144914 1_656
O19 U5 2.202051 1_656
O19 Sr1 2.647106 1_655
O19 Sr0 2.651041 1_555
O20 U0 2.144914 1_555
O20 U2 2.202051 1_555
O20 Sr2 2.647106 1_555
O20 Sr7 2.651041 1_555
O21 U0 2.144914 1_555
O21 U2 2.202051 1_655
O21 Sr3 2.647106 1_555
O21 Sr0 2.651041 1_555
O22 U2 2.034132 1_655
O22 Sr5 2.495931 1_555
O22 Sr2 2.613829 1_655
O23 U0 2.144914 1_555
O23 U4 2.202051 1_555
O23 Sr2 2.647106 1_555
O23 Sr5 2.651041 1_555
O24 U2 2.041301 1_655
O24 Sr4 2.467397 1_555
O24 Sr7 2.550769 1_655
O25 U5 2.041301 1_656
O25 Sr3 2.467397 1_555
O25 Sr0 2.550769 1_555
O26 U5 2.034132 1_556
O26 Sr6 2.495931 1_555
O26 Sr1 2.613829 1_555
O27 U4 2.041301 1_565
O27 Sr4 2.467397 1_555
O27 Sr5 2.550769 1_565
