# generated using pymatgen
data_Mn3B7ClO13
_symmetry_space_group_name_H-M   'P 1'
_cell_length_a   8.77641000
_cell_length_b   8.77834200
_cell_length_c   12.43100500
_cell_angle_alpha   90.00000000
_cell_angle_beta   90.00000000
_cell_angle_gamma   90.00000000
_symmetry_Int_Tables_number   1
_chemical_formula_structural   Mn3B7ClO13
_chemical_formula_sum   'Mn12 B28 Cl4 O52'
_cell_volume   957.71357095
_cell_formula_units_Z   4
loop_
 _symmetry_equiv_pos_site_id
 _symmetry_equiv_pos_as_xyz
  1  'x, y, z'
loop_
 _atom_site_type_symbol
 _atom_site_label
 _atom_site_symmetry_multiplicity
 _atom_site_fract_x
 _atom_site_fract_y
 _atom_site_fract_z
 _atom_site_occupancy
  Mn  Mn0  1  0.48082700  0.53578200  0.49909800  1
  Mn  Mn1  1  0.76119700  0.25229900  0.21956600  1
  Mn  Mn2  1  0.98082700  0.46421800  0.49909800  1
  Mn  Mn3  1  0.73880300  0.25229900  0.71956600  1
  Mn  Mn4  1  0.98223000  0.03613800  0.50313400  1
  Mn  Mn5  1  0.26119700  0.74770100  0.21956600  1
  Mn  Mn6  1  0.51917300  0.46421800  0.99909800  1
  Mn  Mn7  1  0.01917300  0.53578200  0.99909800  1
  Mn  Mn8  1  0.51777000  0.03613800  0.00313400  1
  Mn  Mn9  1  0.23880300  0.74770100  0.71956600  1
  Mn  Mn10  1  0.48223000  0.96386200  0.50313400  1
  Mn  Mn11  1  0.01777000  0.96386200  0.00313400  1
  B  B0  1  0.75350500  0.59914400  0.66870900  1
  B  B1  1  0.00294900  0.50471100  0.24880800  1
  B  B2  1  0.45851400  0.24918400  0.35153600  1
  B  B3  1  0.25778600  0.24683700  0.49607700  1
  B  B4  1  0.00204100  0.99660600  0.25041600  1
  B  B5  1  0.50204100  0.00339400  0.25041600  1
  B  B6  1  0.90471700  0.75004300  0.81985600  1
  B  B7  1  0.24649500  0.40085600  0.16870900  1
  B  B8  1  0.24611800  0.09788000  0.16959700  1
  B  B9  1  0.04148600  0.24918400  0.85153600  1
  B  B10  1  0.59528300  0.75004300  0.31985600  1
  B  B11  1  0.54148600  0.75081600  0.85153600  1
  B  B12  1  0.25388200  0.09788000  0.66959700  1
  B  B13  1  0.75778600  0.75316300  0.49607700  1
  B  B14  1  0.75388200  0.90212000  0.66959700  1
  B  B15  1  0.74649500  0.59914400  0.16870900  1
  B  B16  1  0.99795900  0.00339400  0.75041600  1
  B  B17  1  0.25350500  0.40085600  0.66870900  1
  B  B18  1  0.95851400  0.75081600  0.35153600  1
  B  B19  1  0.50294900  0.49528900  0.24880800  1
  B  B20  1  0.24221400  0.24683700  0.99607700  1
  B  B21  1  0.99705100  0.49528900  0.74880800  1
  B  B22  1  0.49705100  0.50471100  0.74880800  1
  B  B23  1  0.40471700  0.24995700  0.81985600  1
  B  B24  1  0.09528300  0.24995700  0.31985600  1
  B  B25  1  0.74611800  0.90212000  0.16959700  1
  B  B26  1  0.74221400  0.75316300  0.99607700  1
  B  B27  1  0.49795900  0.99660600  0.75041600  1
  Cl  Cl0  1  0.77356500  0.25015400  0.51064400  1
  Cl  Cl1  1  0.22643500  0.74984600  0.01064400  1
  Cl  Cl2  1  0.27356500  0.74984600  0.51064400  1
  Cl  Cl3  1  0.72643500  0.25015400  0.01064400  1
  O  O0  1  0.61510200  0.67680600  0.93475100  1
  O  O1  1  0.47002900  0.84170200  0.27416700  1
  O  O2  1  0.97002900  0.15829800  0.27416700  1
  O  O3  1  0.81515600  0.63695700  0.06487500  1
  O  O4  1  0.88489800  0.67680600  0.43475100  1
  O  O5  1  0.64321300  0.81777400  0.42217300  1
  O  O6  1  0.66036200  0.48788800  0.72629700  1
  O  O7  1  0.53239900  0.90771200  0.85138000  1
  O  O8  1  0.04167100  0.66741000  0.27770400  1
  O  O9  1  0.52997100  0.15829800  0.77416700  1
  O  O10  1  0.17941500  0.12433800  0.06290100  1
  O  O11  1  0.38489800  0.32319400  0.43475100  1
  O  O12  1  0.59303200  0.53519500  0.15311700  1
  O  O13  1  0.83597800  0.02382200  0.72417500  1
  O  O14  1  0.40696800  0.46480500  0.65311700  1
  O  O15  1  0.90696800  0.53519500  0.65311700  1
  O  O16  1  0.82058500  0.87566200  0.56290100  1
  O  O17  1  0.35678700  0.18222600  0.92217300  1
  O  O18  1  0.04596900  0.40610800  0.33902700  1
  O  O19  1  0.33963800  0.51211200  0.22629700  1
  O  O20  1  0.45403100  0.40610800  0.83902700  1
  O  O21  1  0.66402200  0.02382200  0.22417500  1
  O  O22  1  0.02997100  0.84170200  0.77416700  1
  O  O23  1  0.11510200  0.32319400  0.93475100  1
  O  O24  1  0.31515600  0.36304300  0.06487500  1
  O  O25  1  0.46760100  0.09228800  0.35138000  1
  O  O26  1  0.96760100  0.90771200  0.35138000  1
  O  O27  1  0.95403100  0.59389200  0.83902700  1
  O  O28  1  0.18484400  0.36304300  0.56487500  1
  O  O29  1  0.27223300  0.25003800  0.73567300  1
  O  O30  1  0.59223100  0.94287600  0.65932000  1
  O  O31  1  0.68484400  0.63695700  0.56487500  1
  O  O32  1  0.67941500  0.87566200  0.06290100  1
  O  O33  1  0.09223100  0.05712400  0.65932000  1
  O  O34  1  0.54596900  0.59389200  0.33902700  1
  O  O35  1  0.33597800  0.97617800  0.72417500  1
  O  O36  1  0.09303200  0.46480500  0.15311700  1
  O  O37  1  0.45832900  0.66741000  0.77770400  1
  O  O38  1  0.83963800  0.48788800  0.22629700  1
  O  O39  1  0.54167100  0.33259000  0.27770400  1
  O  O40  1  0.72776700  0.74996200  0.23567300  1
  O  O41  1  0.40776900  0.05712400  0.15932000  1
  O  O42  1  0.95832900  0.33259000  0.77770400  1
  O  O43  1  0.16036200  0.51211200  0.72629700  1
  O  O44  1  0.22776700  0.25003800  0.23567300  1
  O  O45  1  0.32058500  0.12433800  0.56290100  1
  O  O46  1  0.03239900  0.09228800  0.85138000  1
  O  O47  1  0.16402200  0.97617800  0.22417500  1
  O  O48  1  0.77223300  0.74996200  0.73567300  1
  O  O49  1  0.90776900  0.94287600  0.15932000  1
  O  O50  1  0.14321300  0.18222600  0.42217300  1
  O  O51  1  0.85678700  0.81777400  0.92217300  1
loop_
_geom_bond_atom_site_label_1
_geom_bond_atom_site_label_2
_geom_bond_distance
_geom_bond_site_symmetry_2
Mn0 O14 2.115213 1_555
Mn0 O34 2.132263 1_555
Mn0 O31 2.159496 1_555
Mn0 O11 2.198009 1_555
Mn1 O2 2.121496 1_555
Mn1 O39 2.175102 1_555
Mn1 O21 2.180197 1_555
Mn1 O38 2.181260 1_555
Mn2 O15 2.115213 1_555
Mn2 O18 2.132263 1_655
Mn2 O28 2.159496 1_655
Mn2 O4 2.198009 1_555
Mn3 O9 2.121496 1_555
Mn3 O42 2.175102 1_555
Mn3 O13 2.180197 1_555
Mn3 O6 2.181260 1_555
Mn4 O16 2.132855 1_545
Mn4 O50 2.157226 1_655
Mn4 O33 2.176137 1_655
Mn4 O26 2.201398 1_545
Mn5 O1 2.121496 1_555
Mn5 O8 2.175102 1_555
Mn5 O47 2.180197 1_555
Mn5 O19 2.181260 1_555
Mn6 O12 2.115213 1_556
Mn6 O20 2.132263 1_555
Mn6 O24 2.159496 1_556
Mn6 O0 2.198009 1_555
Mn7 O36 2.115213 1_556
Mn7 O27 2.132263 1_455
Mn7 O3 2.159496 1_456
Mn7 O23 2.198009 1_555
Mn8 O32 2.132855 1_545
Mn8 O17 2.157226 1_554
Mn8 O41 2.176137 1_555
Mn8 O7 2.201398 1_544
Mn9 O22 2.121496 1_555
Mn9 O37 2.175102 1_555
Mn9 O35 2.180197 1_555
Mn9 O43 2.181260 1_555
Mn10 O45 2.132855 1_565
Mn10 O5 2.157226 1_555
Mn10 O30 2.176137 1_555
Mn10 O25 2.201398 1_565
Mn11 O10 2.132855 1_565
Mn11 O51 2.157226 1_454
Mn11 O49 2.176137 1_455
Mn11 O46 2.201398 1_564
B0 O6 1.461011 1_555
B0 O31 1.462658 1_555
B0 O15 1.471977 1_555
B0 O48 1.572498 1_555
B1 O18 1.466137 1_555
B1 O38 1.467794 1_455
B1 O36 1.470635 1_555
B1 O8 1.511408 1_555
B2 O25 1.379595 1_555
B2 O11 1.381881 1_555
B2 O39 1.382415 1_555
B3 O45 1.466343 1_555
B3 O50 1.475402 1_555
B3 O28 1.477101 1_555
B3 O11 1.508306 1_555
B4 O47 1.469539 1_555
B4 O2 1.476742 1_465
B4 O49 1.479651 1_455
B4 O26 1.508486 1_455
B5 O21 1.469539 1_555
B5 O1 1.476742 1_545
B5 O41 1.479651 1_555
B5 O25 1.508486 1_555
B6 O27 1.457071 1_555
B6 O51 1.465672 1_555
B6 O22 1.475940 1_655
B6 O48 1.564311 1_555
B7 O19 1.461011 1_555
B7 O24 1.462658 1_555
B7 O36 1.471977 1_555
B7 O44 1.572498 1_555
B8 O47 1.456294 1_545
B8 O10 1.468273 1_555
B8 O41 1.468698 1_555
B8 O44 1.576294 1_555
B9 O46 1.379595 1_555
B9 O23 1.381881 1_555
B9 O42 1.382415 1_455
B10 O34 1.457071 1_555
B10 O5 1.465672 1_555
B10 O1 1.475940 1_555
B10 O40 1.564311 1_555
B11 O7 1.379595 1_555
B11 O0 1.381881 1_555
B11 O37 1.382415 1_555
B12 O35 1.456294 1_545
B12 O45 1.468273 1_555
B12 O33 1.468698 1_555
B12 O29 1.576294 1_555
B13 O16 1.466343 1_555
B13 O5 1.475402 1_555
B13 O31 1.477101 1_555
B13 O4 1.508306 1_555
B14 O13 1.456294 1_565
B14 O16 1.468273 1_555
B14 O30 1.468698 1_555
B14 O48 1.576294 1_555
B15 O38 1.461011 1_555
B15 O3 1.462658 1_555
B15 O12 1.471977 1_555
B15 O40 1.572498 1_555
B16 O13 1.469539 1_555
B16 O22 1.476742 1_645
B16 O33 1.479651 1_655
B16 O46 1.508486 1_655
B17 O43 1.461011 1_555
B17 O28 1.462658 1_555
B17 O14 1.471977 1_555
B17 O29 1.572498 1_555
B18 O26 1.379595 1_555
B18 O4 1.381881 1_555
B18 O8 1.382415 1_655
B19 O34 1.466137 1_555
B19 O19 1.467794 1_555
B19 O12 1.470635 1_555
B19 O39 1.511408 1_555
B20 O10 1.466343 1_556
B20 O17 1.475402 1_555
B20 O24 1.477101 1_556
B20 O23 1.508306 1_555
B21 O27 1.466137 1_555
B21 O43 1.467794 1_655
B21 O15 1.470635 1_555
B21 O42 1.511408 1_555
B22 O20 1.466137 1_555
B22 O6 1.467794 1_555
B22 O14 1.470635 1_555
B22 O37 1.511408 1_555
B23 O20 1.457071 1_555
B23 O17 1.465672 1_555
B23 O9 1.475940 1_555
B23 O29 1.564311 1_555
B24 O18 1.457071 1_555
B24 O50 1.465672 1_555
B24 O2 1.475940 1_455
B24 O44 1.564311 1_555
B25 O21 1.456294 1_565
B25 O32 1.468273 1_555
B25 O49 1.468698 1_555
B25 O40 1.576294 1_555
B26 O32 1.466343 1_556
B26 O51 1.475402 1_555
B26 O3 1.477101 1_556
B26 O0 1.508306 1_555
B27 O35 1.469539 1_555
B27 O9 1.476742 1_565
B27 O30 1.479651 1_555
B27 O7 1.508486 1_555
Cl0 Mn3 2.615036 1_555
Cl0 Mn2 2.619263 1_555
Cl0 Mn4 2.625265 1_555
Cl1 Mn5 2.615036 1_555
Cl1 Mn7 2.619263 1_554
Cl1 Mn11 2.625265 1_555
Cl2 Mn9 2.615036 1_555
Cl2 Mn0 2.619263 1_555
Cl2 Mn10 2.625265 1_555
Cl3 Mn1 2.615036 1_555
Cl3 Mn6 2.619263 1_554
Cl3 Mn8 2.625265 1_555
