# generated using pymatgen
data_Ce9Sb16Cl3
_symmetry_space_group_name_H-M   'P 1'
_cell_length_a   20.75378832
_cell_length_b   20.75378832
_cell_length_c   4.31765500
_cell_angle_alpha   90.00000000
_cell_angle_beta   90.00000000
_cell_angle_gamma   120.00000101
_symmetry_Int_Tables_number   1
_chemical_formula_structural   Ce9Sb16Cl3
_chemical_formula_sum   'Ce18 Sb32 Cl6'
_cell_volume   1610.54672885
_cell_formula_units_Z   2
loop_
 _symmetry_equiv_pos_site_id
 _symmetry_equiv_pos_as_xyz
  1  'x, y, z'
loop_
 _atom_site_type_symbol
 _atom_site_label
 _atom_site_symmetry_multiplicity
 _atom_site_fract_x
 _atom_site_fract_y
 _atom_site_fract_z
 _atom_site_occupancy
  Ce  Ce0  1  0.30889400  0.76935000  0.75000000  1
  Ce  Ce1  1  0.46045600  0.69110600  0.75000000  1
  Ce  Ce2  1  0.00950200  0.60828900  0.25000000  1
  Ce  Ce3  1  0.53954400  0.30889400  0.25000000  1
  Ce  Ce4  1  0.69110600  0.23065000  0.25000000  1
  Ce  Ce5  1  0.39171100  0.40121300  0.25000000  1
  Ce  Ce6  1  0.60828900  0.59878700  0.75000000  1
  Ce  Ce7  1  0.85667800  0.76069100  0.75000000  1
  Ce  Ce8  1  0.90401300  0.14332200  0.75000000  1
  Ce  Ce9  1  0.76935000  0.46045600  0.25000000  1
  Ce  Ce10  1  0.09598700  0.85667800  0.25000000  1
  Ce  Ce11  1  0.23065000  0.53954400  0.75000000  1
  Ce  Ce12  1  0.14332200  0.23930900  0.25000000  1
  Ce  Ce13  1  0.76069100  0.90401300  0.25000000  1
  Ce  Ce14  1  0.40121300  0.00950200  0.75000000  1
  Ce  Ce15  1  0.99049800  0.39171100  0.75000000  1
  Ce  Ce16  1  0.23930900  0.09598700  0.75000000  1
  Ce  Ce17  1  0.59878700  0.99049800  0.25000000  1
  Sb  Sb0  1  0.28072100  0.00167500  0.25000000  1
  Sb  Sb1  1  0.50753500  0.40498200  0.75000000  1
  Sb  Sb2  1  0.42741700  0.17970400  0.75000000  1
  Sb  Sb3  1  0.75228700  0.57258300  0.75000000  1
  Sb  Sb4  1  0.12758100  0.35409900  0.75000000  1
  Sb  Sb5  1  0.77348100  0.12758100  0.25000000  1
  Sb  Sb6  1  0.57258300  0.82029600  0.25000000  1
  Sb  Sb7  1  0.49200400  0.86296000  0.75000000  1
  Sb  Sb8  1  0.99832500  0.27904600  0.25000000  1
  Sb  Sb9  1  0.71927900  0.99832500  0.75000000  1
  Sb  Sb10  1  0.86296000  0.37095600  0.25000000  1
  Sb  Sb11  1  0.10255200  0.50753500  0.25000000  1
  Sb  Sb12  1  0.37095600  0.50799600  0.75000000  1
  Sb  Sb13  1  0.27904600  0.28072100  0.75000000  1
  Sb  Sb14  1  0.82029600  0.24771300  0.75000000  1
  Sb  Sb15  1  0.49246500  0.59501800  0.25000000  1
  Sb  Sb16  1  0.00167500  0.72095400  0.75000000  1
  Sb  Sb17  1  0.24771300  0.42741700  0.25000000  1
  Sb  Sb18  1  0.72095400  0.71927900  0.25000000  1
  Sb  Sb19  1  0.22651900  0.87241900  0.75000000  1
  Sb  Sb20  1  0.62904400  0.49200400  0.25000000  1
  Sb  Sb21  1  0.40498200  0.89744800  0.25000000  1
  Sb  Sb22  1  0.59501800  0.10255200  0.75000000  1
  Sb  Sb23  1  0.87241900  0.64590100  0.25000000  1
  Sb  Sb24  1  0.35409900  0.22651900  0.25000000  1
  Sb  Sb25  1  0.17970400  0.75228700  0.25000000  1
  Sb  Sb26  1  0.64590100  0.77348100  0.75000000  1
  Sb  Sb27  1  0.50799600  0.13704000  0.25000000  1
  Sb  Sb28  1  0.89744800  0.49246500  0.75000000  1
  Sb  Sb29  1  0.13704000  0.62904400  0.75000000  1
  Sb  Sb30  1  0.66666700  0.33333300  0.75000000  1
  Sb  Sb31  1  0.33333300  0.66666700  0.25000000  1
  Cl  Cl0  1  0.14889600  0.09970200  0.25000000  1
  Cl  Cl1  1  0.95080500  0.85110400  0.25000000  1
  Cl  Cl2  1  0.04919500  0.14889600  0.75000000  1
  Cl  Cl3  1  0.09970200  0.95080500  0.75000000  1
  Cl  Cl4  1  0.85110400  0.90029800  0.75000000  1
  Cl  Cl5  1  0.90029800  0.04919500  0.25000000  1
loop_
_geom_bond_atom_site_label_1
_geom_bond_atom_site_label_2
_geom_bond_distance
_geom_bond_site_symmetry_2
Ce0 Sb21 3.225440 1_556
Ce0 Sb21 3.225440 1_555
Ce0 Sb31 3.246550 1_556
Ce0 Sb31 3.246550 1_555
Ce0 Sb29 3.288505 1_555
Ce0 Sb7 3.291369 1_555
Ce0 Sb25 3.320423 1_556
Ce0 Sb25 3.320423 1_555
Ce0 Sb19 3.339953 1_555
Ce1 Sb15 3.225429 1_555
Ce1 Sb15 3.225429 1_556
Ce1 Sb31 3.246566 1_556
Ce1 Sb31 3.246566 1_555
Ce1 Sb7 3.288505 1_555
Ce1 Sb12 3.291369 1_555
Ce1 Sb6 3.320423 1_555
Ce1 Sb6 3.320423 1_556
Ce1 Sb26 3.339971 1_555
Ce2 Sb28 3.202620 1_455
Ce2 Sb28 3.202620 1_454
Ce2 Sb16 3.245619 1_555
Ce2 Sb16 3.245619 1_554
Ce2 Sb29 3.272919 1_555
Ce2 Sb29 3.272919 1_554
Ce2 Sb25 3.294261 1_555
Ce2 Sb23 3.305159 1_455
Ce2 Sb11 3.484216 1_555
Ce3 Sb1 3.225429 1_554
Ce3 Sb1 3.225429 1_555
Ce3 Sb30 3.246566 1_555
Ce3 Sb30 3.246566 1_554
Ce3 Sb27 3.288505 1_555
Ce3 Sb20 3.291369 1_555
Ce3 Sb2 3.320423 1_555
Ce3 Sb2 3.320423 1_554
Ce3 Sb24 3.339971 1_555
Ce4 Sb22 3.225440 1_554
Ce4 Sb22 3.225440 1_555
Ce4 Sb30 3.246550 1_554
Ce4 Sb30 3.246550 1_555
Ce4 Sb10 3.288505 1_555
Ce4 Sb27 3.291369 1_555
Ce4 Sb14 3.320423 1_554
Ce4 Sb14 3.320423 1_555
Ce4 Sb5 3.339953 1_555
Ce5 Sb1 3.202627 1_554
Ce5 Sb1 3.202627 1_555
Ce5 Sb13 3.245619 1_554
Ce5 Sb13 3.245619 1_555
Ce5 Sb12 3.272920 1_554
Ce5 Sb12 3.272920 1_555
Ce5 Sb17 3.294261 1_555
Ce5 Sb24 3.305139 1_555
Ce5 Sb15 3.484234 1_555
Ce6 Sb15 3.202627 1_556
Ce6 Sb15 3.202627 1_555
Ce6 Sb18 3.245619 1_556
Ce6 Sb18 3.245619 1_555
Ce6 Sb20 3.272920 1_556
Ce6 Sb20 3.272920 1_555
Ce6 Sb3 3.294261 1_555
Ce6 Sb26 3.305139 1_555
Ce6 Sb1 3.484234 1_555
Ce7 Cl1 2.886526 1_555
Ce7 Cl1 2.886526 1_556
Ce7 Cl4 2.956913 1_555
Ce7 Sb18 3.303420 1_555
Ce7 Sb18 3.303420 1_556
Ce7 Sb23 3.349778 1_556
Ce7 Sb23 3.349778 1_555
Ce7 Sb3 3.387723 1_555
Ce7 Sb16 3.495329 1_655
Ce8 Cl5 2.886520 1_556
Ce8 Cl5 2.886520 1_555
Ce8 Cl2 2.956933 1_655
Ce8 Sb8 3.303420 1_555
Ce8 Sb8 3.303420 1_556
Ce8 Sb5 3.349794 1_556
Ce8 Sb5 3.349794 1_555
Ce8 Sb14 3.387723 1_555
Ce8 Sb9 3.495329 1_545
Ce9 Sb28 3.225444 1_554
Ce9 Sb28 3.225444 1_555
Ce9 Sb30 3.246561 1_554
Ce9 Sb30 3.246561 1_555
Ce9 Sb20 3.288505 1_555
Ce9 Sb10 3.291369 1_555
Ce9 Sb3 3.320423 1_554
Ce9 Sb3 3.320423 1_555
Ce9 Sb23 3.339970 1_555
Ce10 Cl3 2.886520 1_555
Ce10 Cl3 2.886520 1_554
Ce10 Cl1 2.956933 1_455
Ce10 Sb16 3.303420 1_554
Ce10 Sb16 3.303420 1_555
Ce10 Sb19 3.349794 1_554
Ce10 Sb19 3.349794 1_555
Ce10 Sb25 3.387723 1_555
Ce10 Sb0 3.495329 1_565
Ce11 Sb11 3.225444 1_555
Ce11 Sb11 3.225444 1_556
Ce11 Sb31 3.246561 1_556
Ce11 Sb31 3.246561 1_555
Ce11 Sb12 3.288505 1_555
Ce11 Sb29 3.291369 1_555
Ce11 Sb17 3.320423 1_555
Ce11 Sb17 3.320423 1_556
Ce11 Sb4 3.339970 1_555
Ce12 Cl2 2.886526 1_555
Ce12 Cl2 2.886526 1_554
Ce12 Cl0 2.956913 1_555
Ce12 Sb13 3.303420 1_554
Ce12 Sb13 3.303420 1_555
Ce12 Sb4 3.349778 1_555
Ce12 Sb4 3.349778 1_554
Ce12 Sb17 3.387723 1_555
Ce12 Sb8 3.495329 1_455
Ce13 Cl4 2.886533 1_554
Ce13 Cl4 2.886533 1_555
Ce13 Cl5 2.956924 1_565
Ce13 Sb9 3.303420 1_554
Ce13 Sb9 3.303420 1_555
Ce13 Sb26 3.349788 1_554
Ce13 Sb26 3.349788 1_555
Ce13 Sb6 3.387723 1_555
Ce13 Sb18 3.495329 1_555
Ce14 Sb21 3.202612 1_546
Ce14 Sb21 3.202612 1_545
Ce14 Sb0 3.245619 1_556
Ce14 Sb0 3.245619 1_555
Ce14 Sb27 3.272919 1_555
Ce14 Sb27 3.272919 1_556
Ce14 Sb2 3.294261 1_555
Ce14 Sb19 3.305145 1_545
Ce14 Sb22 3.484234 1_555
Ce15 Sb11 3.202620 1_655
Ce15 Sb11 3.202620 1_656
Ce15 Sb8 3.245619 1_556
Ce15 Sb8 3.245619 1_555
Ce15 Sb10 3.272919 1_556
Ce15 Sb10 3.272919 1_555
Ce15 Sb14 3.294261 1_555
Ce15 Sb4 3.305159 1_655
Ce15 Sb28 3.484216 1_555
Ce16 Cl0 2.886533 1_556
Ce16 Cl0 2.886533 1_555
Ce16 Cl3 2.956924 1_545
Ce16 Sb0 3.303420 1_555
Ce16 Sb0 3.303420 1_556
Ce16 Sb24 3.349788 1_556
Ce16 Sb24 3.349788 1_555
Ce16 Sb2 3.387723 1_555
Ce16 Sb13 3.495329 1_555
Ce17 Sb22 3.202612 1_565
Ce17 Sb22 3.202612 1_564
Ce17 Sb9 3.245619 1_554
Ce17 Sb9 3.245619 1_555
Ce17 Sb7 3.272919 1_554
Ce17 Sb7 3.272919 1_555
Ce17 Sb6 3.294261 1_555
Ce17 Sb5 3.305145 1_565
Ce17 Sb21 3.484234 1_555
Sb0 Sb19 3.178745 1_545
Sb0 Sb19 3.178745 1_544
Sb1 Sb20 3.118850 1_556
Sb1 Sb20 3.118850 1_555
Sb2 Sb24 3.065658 1_556
Sb2 Sb24 3.065658 1_555
Sb2 Sb27 3.118001 1_556
Sb2 Sb27 3.118001 1_555
Sb4 Sb8 3.178743 1_456
Sb4 Sb8 3.178743 1_455
Sb5 Sb9 3.178745 1_545
Sb5 Sb9 3.178745 1_544
Sb6 Sb7 3.118001 1_554
Sb6 Sb7 3.118001 1_555
Sb10 Sb14 3.118001 1_555
Sb10 Sb14 3.118001 1_554
Sb10 Sb28 3.118846 1_555
Sb10 Sb28 3.118846 1_554
Sb11 Sb29 3.118846 1_555
Sb11 Sb29 3.118846 1_554
Sb12 Sb17 3.118001 1_555
Sb12 Sb17 3.118001 1_556
Sb12 Sb15 3.118850 1_555
Sb12 Sb15 3.118850 1_556
Sb13 Sb24 3.178731 1_555
Sb13 Sb24 3.178731 1_556
Sb14 Sb5 3.065645 1_556
Sb14 Sb5 3.065645 1_555
Sb16 Sb23 3.178743 1_456
Sb16 Sb23 3.178743 1_455
Sb17 Sb4 3.065647 1_555
Sb17 Sb4 3.065647 1_554
Sb18 Sb26 3.178731 1_554
Sb18 Sb26 3.178731 1_555
Sb19 Sb25 3.065645 1_556
Sb19 Sb25 3.065645 1_555
Sb20 Sb3 3.118001 1_554
Sb20 Sb3 3.118001 1_555
Sb21 Sb7 3.118861 1_555
Sb21 Sb7 3.118861 1_554
Sb22 Sb27 3.118861 1_556
Sb22 Sb27 3.118861 1_555
Sb23 Sb3 3.065647 1_555
Sb23 Sb3 3.065647 1_554
Sb25 Sb29 3.118001 1_554
Sb25 Sb29 3.118001 1_555
Sb26 Sb6 3.065658 1_555
Sb26 Sb6 3.065658 1_556
