# generated using pymatgen
data_Ca3(SiAs2)2
_symmetry_space_group_name_H-M   'P 1'
_cell_length_a   17.71115055
_cell_length_b   7.15571536
_cell_length_c   7.29465113
_cell_angle_alpha   68.32156842
_cell_angle_beta   90.00000000
_cell_angle_gamma   90.00000000
_symmetry_Int_Tables_number   1
_chemical_formula_structural   Ca3(SiAs2)2
_chemical_formula_sum   'Ca12 Si8 As16'
_cell_volume   859.10662104
_cell_formula_units_Z   4
loop_
 _symmetry_equiv_pos_site_id
 _symmetry_equiv_pos_as_xyz
  1  'x, y, z'
loop_
 _atom_site_type_symbol
 _atom_site_label
 _atom_site_symmetry_multiplicity
 _atom_site_fract_x
 _atom_site_fract_y
 _atom_site_fract_z
 _atom_site_occupancy
  Ca  Ca0  1  0.06012804  0.01170901  0.74516577  1
  Ca  Ca1  1  0.56012804  0.48829099  0.25483423  1
  Ca  Ca2  1  0.93987196  0.98829099  0.25483423  1
  Ca  Ca3  1  0.43987196  0.51170901  0.74516577  1
  Ca  Ca4  1  0.05964529  0.49751886  0.26135143  1
  Ca  Ca5  1  0.55964529  0.00248114  0.73864857  1
  Ca  Ca6  1  0.94035471  0.50248114  0.73864857  1
  Ca  Ca7  1  0.44035471  0.99751886  0.26135143  1
  Ca  Ca8  1  0.18390952  0.51322254  0.78143080  1
  Ca  Ca9  1  0.68390952  0.98677746  0.21856920  1
  Ca  Ca10  1  0.81609048  0.48677746  0.21856920  1
  Ca  Ca11  1  0.31609048  0.01322254  0.78143080  1
  Si  Si0  1  0.25981593  0.57994538  0.31553174  1
  Si  Si1  1  0.75981593  0.92005462  0.68446826  1
  Si  Si2  1  0.74018407  0.42005462  0.68446826  1
  Si  Si3  1  0.24018407  0.07994538  0.31553174  1
  Si  Si4  1  0.62968594  0.52928376  0.78757826  1
  Si  Si5  1  0.12968594  0.97071624  0.21242174  1
  Si  Si6  1  0.37031406  0.47071624  0.21242174  1
  Si  Si7  1  0.87031406  0.02928376  0.78757826  1
  As  As0  1  0.19719027  0.27179892  0.50343285  1
  As  As1  1  0.69719027  0.22820108  0.49656715  1
  As  As2  1  0.80280973  0.72820108  0.49656715  1
  As  As3  1  0.30280973  0.77179892  0.50343285  1
  As  As4  1  0.31292363  0.27794767  0.03896655  1
  As  As5  1  0.81292363  0.22205233  0.96103345  1
  As  As6  1  0.68707637  0.72205233  0.96103345  1
  As  As7  1  0.18707637  0.77794767  0.03896655  1
  As  As8  1  0.06172563  0.24814357  0.00816082  1
  As  As9  1  0.56172563  0.25185643  0.99183918  1
  As  As10  1  0.93827437  0.75185643  0.99183918  1
  As  As11  1  0.43827437  0.74814357  0.00816082  1
  As  As12  1  0.06809322  0.75842524  0.49779245  1
  As  As13  1  0.56809322  0.74157476  0.50220755  1
  As  As14  1  0.93190678  0.24157476  0.50220755  1
  As  As15  1  0.43190678  0.25842524  0.49779245  1
loop_
_geom_bond_atom_site_label_1
_geom_bond_atom_site_label_2
_geom_bond_distance
_geom_bond_site_symmetry_2
Si0 Si6 2.332600 1_555
Si1 Si7 2.332600 1_565
Si2 Si4 2.332600 1_555
Si3 Si5 2.332600 1_545
As0 Si3 2.394474 1_555
As0 Si0 2.395450 1_555
As0 Ca11 3.032904 1_555
As0 Ca4 3.091033 1_555
As0 Ca8 3.120959 1_555
As0 Ca0 3.168838 1_555
As1 Si2 2.394474 1_555
As1 Si1 2.395450 1_545
As1 Ca10 3.032904 1_555
As1 Ca5 3.091033 1_555
As1 Ca9 3.120959 1_545
As1 Ca1 3.168838 1_555
As2 Si1 2.394474 1_555
As2 Si2 2.395450 1_555
As2 Ca9 3.032904 1_555
As2 Ca6 3.091033 1_555
As2 Ca10 3.120959 1_555
As2 Ca2 3.168838 1_555
As3 Si0 2.394474 1_555
As3 Si3 2.395450 1_565
As3 Ca8 3.032904 1_555
As3 Ca7 3.091033 1_555
As3 Ca11 3.120959 1_565
As3 Ca3 3.168838 1_555
As4 Si3 2.371811 1_555
As4 Si6 2.413779 1_555
As4 Ca8 3.041078 1_554
As4 Ca7 3.057316 1_545
As4 Ca11 3.122485 1_554
As4 Ca3 3.130174 1_554
As5 Si2 2.371811 1_555
As5 Si7 2.413779 1_555
As5 Ca9 3.041078 1_546
As5 Ca6 3.057316 1_555
As5 Ca10 3.122485 1_556
As5 Ca2 3.130174 1_546
As6 Si1 2.371811 1_555
As6 Si4 2.413779 1_555
As6 Ca10 3.041078 1_556
As6 Ca5 3.057316 1_565
As6 Ca9 3.122485 1_556
As6 Ca1 3.130174 1_556
As7 Si0 2.371811 1_555
As7 Si5 2.413779 1_555
As7 Ca11 3.041078 1_564
As7 Ca4 3.057316 1_555
As7 Ca8 3.122485 1_554
As7 Ca0 3.130174 1_564
As8 Si5 2.329074 1_545
As8 Ca8 2.949344 1_554
As8 Ca2 2.980119 1_445
As8 Ca0 2.990252 1_554
As8 Ca4 3.005284 1_555
As8 Ca6 3.025698 1_454
As9 Si4 2.329074 1_555
As9 Ca9 2.949344 1_546
As9 Ca3 2.980119 1_555
As9 Ca1 2.990252 1_556
As9 Ca5 3.005284 1_555
As9 Ca7 3.025698 1_546
As10 Si7 2.329074 1_565
As10 Ca10 2.949344 1_556
As10 Ca0 2.980119 1_665
As10 Ca2 2.990252 1_556
As10 Ca6 3.005284 1_555
As10 Ca4 3.025698 1_656
As11 Si6 2.329074 1_555
As11 Ca11 2.949344 1_564
As11 Ca1 2.980119 1_555
As11 Ca3 2.990252 1_554
As11 Ca7 3.005284 1_555
As11 Ca5 3.025698 1_564
As12 Si5 2.344096 1_555
As12 Ca2 2.974906 1_455
As12 Ca4 2.976864 1_555
As12 Ca8 2.980784 1_555
As12 Ca0 2.996208 1_565
As12 Ca6 3.030232 1_455
As13 Si4 2.344096 1_555
As13 Ca3 2.974906 1_555
As13 Ca5 2.976864 1_565
As13 Ca9 2.980784 1_555
As13 Ca1 2.996208 1_555
As13 Ca7 3.030232 1_555
As14 Si7 2.344096 1_555
As14 Ca0 2.974906 1_655
As14 Ca6 2.976864 1_555
As14 Ca10 2.980784 1_555
As14 Ca2 2.996208 1_545
As14 Ca4 3.030232 1_655
As15 Si6 2.344096 1_555
As15 Ca1 2.974906 1_555
As15 Ca7 2.976864 1_545
As15 Ca11 2.980784 1_555
As15 Ca3 2.996208 1_555
As15 Ca5 3.030232 1_555
