# generated using pymatgen
data_FeCuPO5
_symmetry_space_group_name_H-M   'P 1'
_cell_length_a   6.48247000
_cell_length_b   7.21389300
_cell_length_c   7.68350200
_cell_angle_alpha   90.00000000
_cell_angle_beta   90.00000000
_cell_angle_gamma   90.00000000
_symmetry_Int_Tables_number   1
_chemical_formula_structural   FeCuPO5
_chemical_formula_sum   'Fe4 Cu4 P4 O20'
_cell_volume   359.31009624
_cell_formula_units_Z   4
loop_
 _symmetry_equiv_pos_site_id
 _symmetry_equiv_pos_as_xyz
  1  'x, y, z'
loop_
 _atom_site_type_symbol
 _atom_site_label
 _atom_site_symmetry_multiplicity
 _atom_site_fract_x
 _atom_site_fract_y
 _atom_site_fract_z
 _atom_site_occupancy
  Fe  Fe0  1  0.25000000  0.78437600  0.66772100  1
  Fe  Fe1  1  0.25000000  0.71562400  0.16772100  1
  Fe  Fe2  1  0.75000000  0.21562400  0.33227900  1
  Fe  Fe3  1  0.75000000  0.28437600  0.83227900  1
  Cu  Cu0  1  0.00000000  0.50000000  0.50000000  1
  Cu  Cu1  1  0.50000000  0.00000000  0.00000000  1
  Cu  Cu2  1  0.50000000  0.50000000  0.50000000  1
  Cu  Cu3  1  0.00000000  0.00000000  0.00000000  1
  P  P0  1  0.25000000  0.37016900  0.89011200  1
  P  P1  1  0.25000000  0.12983100  0.39011200  1
  P  P2  1  0.75000000  0.62983100  0.10988800  1
  P  P3  1  0.75000000  0.87016900  0.60988800  1
  O  O0  1  0.25000000  0.86851700  0.91741500  1
  O  O1  1  0.25000000  0.63148300  0.41741500  1
  O  O2  1  0.75000000  0.13148300  0.08258500  1
  O  O3  1  0.75000000  0.36851700  0.58258500  1
  O  O4  1  0.25000000  0.50385200  0.73403500  1
  O  O5  1  0.25000000  0.99614800  0.23403500  1
  O  O6  1  0.75000000  0.49614800  0.26596500  1
  O  O7  1  0.75000000  0.00385200  0.76596500  1
  O  O8  1  0.25000000  0.02880800  0.56547000  1
  O  O9  1  0.25000000  0.47119200  0.06547000  1
  O  O10  1  0.75000000  0.97119200  0.43453000  1
  O  O11  1  0.75000000  0.52880800  0.93453000  1
  O  O12  1  0.05675500  0.24145600  0.87448100  1
  O  O13  1  0.44324500  0.25854400  0.37448100  1
  O  O14  1  0.55675500  0.75854400  0.12551900  1
  O  O15  1  0.94324500  0.74145600  0.62551900  1
  O  O16  1  0.94324500  0.75854400  0.12551900  1
  O  O17  1  0.55675500  0.74145600  0.62551900  1
  O  O18  1  0.44324500  0.24145600  0.87448100  1
  O  O19  1  0.05675500  0.25854400  0.37448100  1
loop_
_geom_bond_atom_site_label_1
_geom_bond_atom_site_label_2
_geom_bond_distance
_geom_bond_site_symmetry_2
Fe0 O8 1.930411 1_565
Fe0 O0 2.012254 1_555
Fe0 O17 2.038446 1_555
Fe0 O15 2.038446 1_455
Fe0 O4 2.086829 1_555
Fe0 O1 2.217049 1_555
Fe1 O9 1.930411 1_555
Fe1 O1 2.012254 1_555
Fe1 O16 2.038446 1_455
Fe1 O14 2.038446 1_555
Fe1 O5 2.086829 1_555
Fe1 O0 2.217049 1_554
Fe2 O10 1.930411 1_545
Fe2 O2 2.012254 1_555
Fe2 O19 2.038446 1_655
Fe2 O13 2.038446 1_555
Fe2 O6 2.086829 1_555
Fe2 O3 2.217049 1_555
Fe3 O11 1.930411 1_555
Fe3 O3 2.012254 1_555
Fe3 O12 2.038446 1_655
Fe3 O18 2.038446 1_555
Fe3 O7 2.086829 1_555
Fe3 O2 2.217049 1_556
Cu0 O1 1.982096 1_555
Cu0 O3 1.982096 1_455
Cu0 O15 2.024716 1_455
Cu0 O19 2.024716 1_555
Cu0 O4 2.420894 1_555
Cu0 O6 2.420894 1_455
Cu1 O2 1.982096 1_555
Cu1 O0 1.982096 1_544
Cu1 O18 2.024716 1_554
Cu1 O14 2.024716 1_545
Cu1 O7 2.420894 1_554
Cu1 O5 2.420894 1_545
Cu2 O1 1.982096 1_555
Cu2 O3 1.982096 1_555
Cu2 O17 2.024716 1_555
Cu2 O13 2.024716 1_555
Cu2 O4 2.420894 1_555
Cu2 O6 2.420894 1_555
Cu3 O2 1.982096 1_455
Cu3 O0 1.982096 1_544
Cu3 O12 2.024716 1_554
Cu3 O16 2.024716 1_445
Cu3 O5 2.420894 1_545
Cu3 O7 2.420894 1_454
O4 P0 1.538877 1_555
O5 P1 1.538877 1_565
O6 P2 1.538877 1_555
O7 P3 1.538877 1_545
O8 P1 1.531827 1_555
O9 P0 1.531827 1_554
O10 P3 1.531827 1_555
O11 P2 1.531827 1_556
O12 P0 1.563920 1_555
O13 P1 1.563920 1_555
O14 P2 1.563920 1_555
O15 P3 1.563920 1_555
O16 P2 1.563920 1_555
O17 P3 1.563920 1_555
O18 P0 1.563920 1_555
O19 P1 1.563920 1_555
