# generated using pymatgen
data_GdNi
_symmetry_space_group_name_H-M   'P 1'
_cell_length_a   3.77066415
_cell_length_b   4.17482976
_cell_length_c   5.49474196
_cell_angle_alpha   90.00000000
_cell_angle_beta   110.06679687
_cell_angle_gamma   90.00000000
_symmetry_Int_Tables_number   1
_chemical_formula_structural   GdNi
_chemical_formula_sum   'Gd2 Ni2'
_cell_volume   81.24658667
_cell_formula_units_Z   2
loop_
 _symmetry_equiv_pos_site_id
 _symmetry_equiv_pos_as_xyz
  1  'x, y, z'
loop_
 _atom_site_type_symbol
 _atom_site_label
 _atom_site_symmetry_multiplicity
 _atom_site_fract_x
 _atom_site_fract_y
 _atom_site_fract_z
 _atom_site_occupancy
  Gd  Gd0  1  0.86084263  0.25000000  0.72168625  1
  Gd  Gd1  1  0.13915737  0.75000000  0.27831375  1
  Ni  Ni0  1  0.43004308  0.75000000  0.86008615  1
  Ni  Ni1  1  0.56995692  0.25000000  0.13991385  1
loop_
_geom_bond_atom_site_label_1
_geom_bond_atom_site_label_2
_geom_bond_distance
_geom_bond_site_symmetry_2
Gd0 Ni1 2.865970 1_556
Gd0 Ni1 2.865974 1_656
Gd0 Ni0 2.902069 1_545
Gd0 Ni0 2.902069 1_555
Gd0 Ni0 2.902071 1_645
Gd0 Ni0 2.902071 1_655
Gd0 Ni1 3.002629 1_555
Gd1 Ni0 2.865970 1_554
Gd1 Ni0 2.865974 1_454
Gd1 Ni1 2.902069 1_555
Gd1 Ni1 2.902069 1_565
Gd1 Ni1 2.902071 1_465
Gd1 Ni1 2.902071 1_455
Gd1 Ni0 3.002629 1_555
Ni0 Ni1 2.538332 1_566
Ni0 Ni1 2.538332 1_556
