# generated using pymatgen
data_Ba6Na2Si4O15
_symmetry_space_group_name_H-M   'P 1'
_cell_length_a   7.89757861
_cell_length_b   9.56894386
_cell_length_c   11.52774735
_cell_angle_alpha   72.42236976
_cell_angle_beta   90.00000000
_cell_angle_gamma   90.00000000
_symmetry_Int_Tables_number   1
_chemical_formula_structural   Ba6Na2Si4O15
_chemical_formula_sum   'Ba12 Na4 Si8 O30'
_cell_volume   830.49294300
_cell_formula_units_Z   2
loop_
 _symmetry_equiv_pos_site_id
 _symmetry_equiv_pos_as_xyz
  1  'x, y, z'
loop_
 _atom_site_type_symbol
 _atom_site_label
 _atom_site_symmetry_multiplicity
 _atom_site_fract_x
 _atom_site_fract_y
 _atom_site_fract_z
 _atom_site_occupancy
  Ba  Ba0  1  0.97947356  0.33287823  0.91581334  1
  Ba  Ba1  1  0.99527271  0.65848027  0.58556378  1
  Ba  Ba2  1  0.50283085  0.00209845  0.22462080  1
  Ba  Ba3  1  0.99716915  0.00209845  0.72462080  1
  Ba  Ba4  1  0.00283085  0.99790155  0.27537920  1
  Ba  Ba5  1  0.47947356  0.66712177  0.58418666  1
  Ba  Ba6  1  0.52052644  0.33287823  0.41581334  1
  Ba  Ba7  1  0.02052644  0.66712177  0.08418666  1
  Ba  Ba8  1  0.00472729  0.34151973  0.41443622  1
  Ba  Ba9  1  0.49527271  0.34151973  0.91443622  1
  Ba  Ba10  1  0.50472729  0.65848027  0.08556378  1
  Ba  Ba11  1  0.49716915  0.99790155  0.77537920  1
  Na  Na0  1  0.25004787  0.32154997  0.66893228  1
  Na  Na1  1  0.75004787  0.67845003  0.83106772  1
  Na  Na2  1  0.24995213  0.32154997  0.16893228  1
  Na  Na3  1  0.74995213  0.67845003  0.33106772  1
  Si  Si0  1  0.25605390  0.62034148  0.34506248  1
  Si  Si1  1  0.74394610  0.37965852  0.65493752  1
  Si  Si2  1  0.20886353  0.03720721  0.99020425  1
  Si  Si3  1  0.29113647  0.03720721  0.49020425  1
  Si  Si4  1  0.24394610  0.62034148  0.84506248  1
  Si  Si5  1  0.79113647  0.96279279  0.00979575  1
  Si  Si6  1  0.75605390  0.37965852  0.15493752  1
  Si  Si7  1  0.70886353  0.96279279  0.50979575  1
  O  O0  1  0.92318904  0.29007879  0.68142074  1
  O  O1  1  0.30887877  0.88390048  0.02754218  1
  O  O2  1  0.42318904  0.70992121  0.81857926  1
  O  O3  1  0.75865470  0.86355550  0.14890656  1
  O  O4  1  0.57681096  0.29007879  0.18142074  1
  O  O5  1  0.93098446  0.28488397  0.17522387  1
  O  O6  1  0.75265239  0.48749556  0.01247611  1
  O  O7  1  0.23800149  0.51191934  0.75707719  1
  O  O8  1  0.75621755  0.86452263  0.92003670  1
  O  O9  1  0.69112123  0.11609952  0.97245782  1
  O  O10  1  0.24378245  0.13547737  0.07996330  1
  O  O11  1  0.26199851  0.51191934  0.25707719  1
  O  O12  1  0.25865470  0.13644450  0.35109344  1
  O  O13  1  0.19112123  0.88390048  0.52754218  1
  O  O14  1  0.24134530  0.13644450  0.85109344  1
  O  O15  1  0.74134530  0.86355550  0.64890656  1
  O  O16  1  0.25265239  0.51250444  0.48752389  1
  O  O17  1  0.25621755  0.13547737  0.57996330  1
  O  O18  1  0.74734761  0.48749556  0.51247611  1
  O  O19  1  0.76199851  0.48808066  0.24292281  1
  O  O20  1  0.73800149  0.48808066  0.74292281  1
  O  O21  1  0.43098446  0.71511603  0.32477613  1
  O  O22  1  0.74378245  0.86452263  0.42003670  1
  O  O23  1  0.56901554  0.28488397  0.67522387  1
  O  O24  1  0.07681096  0.70992121  0.31857926  1
  O  O25  1  -0.00000000  -0.00000000  -0.00000000  1
  O  O26  1  0.80887877  0.11609952  0.47245782  1
  O  O27  1  0.24734761  0.51250444  0.98752389  1
  O  O28  1  0.06901554  0.71511603  0.82477613  1
  O  O29  1  0.50000000  -0.00000000  0.50000000  1
loop_
_geom_bond_atom_site_label_1
_geom_bond_atom_site_label_2
_geom_bond_distance
_geom_bond_site_symmetry_2
Ba0 O6 2.763210 1_556
Ba0 O20 2.833168 1_555
Ba0 O0 2.886971 1_555
Ba0 O5 2.910440 1_556
Ba0 O7 2.925542 1_655
Ba0 O27 2.995254 1_655
Ba0 O9 3.016156 1_555
Ba0 O14 3.035464 1_655
Ba0 O25 3.040903 1_656
Ba0 O10 3.057298 1_656
Ba1 O13 2.573154 1_655
Ba1 O7 2.806418 1_655
Ba1 O18 2.837823 1_555
Ba1 O20 2.879418 1_555
Ba1 O16 2.883355 1_655
Ba1 O28 3.023205 1_655
Ba1 O22 3.033287 1_555
Ba1 O24 3.035517 1_655
Ba1 O15 3.044859 1_555
Ba2 O21 2.698358 1_545
Ba2 O3 2.701882 1_545
Ba2 O10 2.703658 1_555
Ba2 O4 2.711862 1_555
Ba2 O12 2.937518 1_555
Ba2 O22 2.938995 1_545
Ba2 O9 3.152126 1_554
Ba2 O29 3.168574 1_555
Ba2 O1 3.215415 1_545
Ba3 O28 2.698358 1_645
Ba3 O15 2.701882 1_545
Ba3 O17 2.703658 1_655
Ba3 O0 2.711862 1_555
Ba3 O14 2.937518 1_655
Ba3 O8 2.938995 1_545
Ba3 O26 3.152126 1_555
Ba3 O25 3.168574 1_656
Ba3 O13 3.215415 1_645
Ba4 O5 2.698358 1_465
Ba4 O12 2.701882 1_565
Ba4 O22 2.703658 1_455
Ba4 O24 2.711862 1_555
Ba4 O3 2.937518 1_455
Ba4 O10 2.938995 1_565
Ba4 O13 3.152126 1_555
Ba4 O25 3.168574 1_565
Ba4 O26 3.215415 1_465
Ba5 O16 2.763210 1_555
Ba5 O7 2.833168 1_555
Ba5 O2 2.886971 1_555
Ba5 O21 2.910440 1_555
Ba5 O20 2.925542 1_555
Ba5 O18 2.995254 1_555
Ba5 O13 3.016156 1_555
Ba5 O15 3.035464 1_555
Ba5 O29 3.040903 1_565
Ba5 O22 3.057298 1_555
Ba6 O18 2.763210 1_555
Ba6 O19 2.833168 1_555
Ba6 O4 2.886971 1_555
Ba6 O23 2.910440 1_555
Ba6 O11 2.925542 1_555
Ba6 O16 2.995254 1_555
Ba6 O26 3.016156 1_555
Ba6 O12 3.035464 1_555
Ba6 O29 3.040903 1_555
Ba6 O17 3.057298 1_555
Ba7 O27 2.763210 1_554
Ba7 O11 2.833168 1_555
Ba7 O24 2.886971 1_555
Ba7 O28 2.910440 1_554
Ba7 O19 2.925542 1_455
Ba7 O6 2.995254 1_455
Ba7 O1 3.016156 1_555
Ba7 O3 3.035464 1_455
Ba7 O25 3.040903 1_565
Ba7 O8 3.057298 1_454
Ba8 O26 2.573154 1_455
Ba8 O19 2.806418 1_455
Ba8 O16 2.837823 1_555
Ba8 O11 2.879418 1_555
Ba8 O18 2.883355 1_455
Ba8 O5 3.023205 1_455
Ba8 O17 3.033287 1_555
Ba8 O0 3.035517 1_455
Ba8 O12 3.044859 1_555
Ba9 O9 2.573154 1_555
Ba9 O20 2.806418 1_555
Ba9 O27 2.837823 1_555
Ba9 O7 2.879418 1_555
Ba9 O6 2.883355 1_556
Ba9 O23 3.023205 1_555
Ba9 O10 3.033287 1_556
Ba9 O4 3.035517 1_556
Ba9 O14 3.044859 1_555
Ba10 O1 2.573154 1_555
Ba10 O11 2.806418 1_555
Ba10 O6 2.837823 1_555
Ba10 O19 2.879418 1_555
Ba10 O27 2.883355 1_554
Ba10 O21 3.023205 1_555
Ba10 O8 3.033287 1_554
Ba10 O2 3.035517 1_554
Ba10 O3 3.044859 1_555
Ba11 O23 2.698358 1_565
Ba11 O14 2.701882 1_565
Ba11 O8 2.703658 1_555
Ba11 O2 2.711862 1_555
Ba11 O15 2.937518 1_555
Ba11 O17 2.938995 1_565
Ba11 O1 3.152126 1_556
Ba11 O29 3.168574 1_565
Ba11 O9 3.215415 1_565
Na0 O14 2.303293 1_555
Na0 O17 2.308131 1_555
Na0 O16 2.324754 1_555
Na0 O7 2.340485 1_555
Na0 O23 2.541400 1_555
Na0 O0 2.597849 1_455
Na1 O15 2.303293 1_555
Na1 O8 2.308131 1_555
Na1 O6 2.324754 1_556
Na1 O20 2.340485 1_555
Na1 O28 2.541400 1_655
Na1 O2 2.597849 1_555
Na2 O12 2.303293 1_555
Na2 O10 2.308131 1_555
Na2 O27 2.324754 1_554
Na2 O11 2.340485 1_555
Na2 O5 2.541400 1_455
Na2 O4 2.597849 1_555
Na3 O3 2.303293 1_555
Na3 O22 2.308131 1_555
Na3 O18 2.324754 1_555
Na3 O19 2.340485 1_555
Na3 O21 2.541400 1_555
Na3 O24 2.597849 1_655
O0 Si1 1.635172 1_555
O1 Si2 1.606187 1_564
O2 Si4 1.635172 1_555
O3 Si5 1.618461 1_555
O4 Si6 1.635172 1_555
O5 Si6 1.630235 1_555
O6 Si6 1.654987 1_555
O7 Si4 1.656173 1_555
O8 Si5 1.618215 1_556
O9 Si5 1.606187 1_546
O10 Si2 1.618215 1_554
O11 Si0 1.656173 1_555
O12 Si3 1.618461 1_555
O13 Si3 1.606187 1_565
O14 Si2 1.618461 1_555
O15 Si7 1.618461 1_555
O16 Si0 1.654987 1_555
O17 Si3 1.618215 1_555
O18 Si1 1.654987 1_555
O19 Si6 1.656173 1_555
O20 Si1 1.656173 1_555
O21 Si0 1.630235 1_555
O22 Si7 1.618215 1_555
O23 Si1 1.630235 1_555
O24 Si0 1.635172 1_555
O25 Si2 1.684082 1_554
O25 Si5 1.684082 1_445
O26 Si7 1.606187 1_545
O27 Si4 1.654987 1_555
O28 Si4 1.630235 1_555
O29 Si3 1.684082 1_555
O29 Si7 1.684082 1_545
