# generated using pymatgen
data_LiCuPO4
_symmetry_space_group_name_H-M   'P 1'
_cell_length_a   9.25373100
_cell_length_b   4.87457900
_cell_length_c   7.60903236
_cell_angle_alpha   57.37572370
_cell_angle_beta   90.00000000
_cell_angle_gamma   90.00000000
_symmetry_Int_Tables_number   1
_chemical_formula_structural   LiCuPO4
_chemical_formula_sum   'Li4 Cu4 P4 O16'
_cell_volume   289.07534339
_cell_formula_units_Z   4
loop_
 _symmetry_equiv_pos_site_id
 _symmetry_equiv_pos_as_xyz
  1  'x, y, z'
loop_
 _atom_site_type_symbol
 _atom_site_label
 _atom_site_symmetry_multiplicity
 _atom_site_fract_x
 _atom_site_fract_y
 _atom_site_fract_z
 _atom_site_occupancy
  Li  Li0  1  0.35140100  0.34454800  0.68143200  1
  Li  Li1  1  0.85140100  0.65545200  0.81856800  1
  Li  Li2  1  0.14859900  0.34454800  0.18143200  1
  Li  Li3  1  0.64859900  0.65545200  0.31856800  1
  Cu  Cu0  1  0.00000000  0.50000000  0.50000000  1
  Cu  Cu1  1  0.50000000  0.00000000  0.50000000  1
  Cu  Cu2  1  0.00000000  0.00000000  0.00000000  1
  Cu  Cu3  1  0.50000000  0.50000000  0.00000000  1
  P  P0  1  0.17435800  0.85405600  0.68132100  1
  P  P1  1  0.67435800  0.14594400  0.81867900  1
  P  P2  1  0.32564200  0.85405600  0.18132100  1
  P  P3  1  0.82564200  0.14594400  0.31867900  1
  O  O0  1  0.11869200  0.17641400  0.48930000  1
  O  O1  1  0.59530200  0.23143600  0.61406800  1
  O  O2  1  0.15394100  0.55350100  0.66325600  1
  O  O3  1  0.33997900  0.90414100  0.70013900  1
  O  O4  1  0.83997900  0.09585900  0.79986100  1
  O  O5  1  0.65394100  0.44649900  0.83674400  1
  O  O6  1  0.09530200  0.76856400  0.88593200  1
  O  O7  1  0.38130800  0.17641400  0.98930000  1
  O  O8  1  0.61869200  0.82358600  0.01070000  1
  O  O9  1  0.90469800  0.23143600  0.11406800  1
  O  O10  1  0.34605900  0.55350100  0.16325600  1
  O  O11  1  0.16002100  0.90414100  0.20013900  1
  O  O12  1  0.66002100  0.09585900  0.29986100  1
  O  O13  1  0.84605900  0.44649900  0.33674400  1
  O  O14  1  0.40469800  0.76856400  0.38593200  1
  O  O15  1  0.88130800  0.82358600  0.51070000  1
loop_
_geom_bond_atom_site_label_1
_geom_bond_atom_site_label_2
_geom_bond_distance
_geom_bond_site_symmetry_2
Li0 O7 2.041028 1_555
Li0 O2 2.059978 1_555
Li0 O3 2.076219 1_545
Li0 O14 2.135390 1_555
Li0 O1 2.442438 1_555
Li1 O15 2.041028 1_555
Li1 O5 2.059978 1_555
Li1 O4 2.076219 1_565
Li1 O9 2.135390 1_556
Li1 O6 2.442438 1_655
Li2 O0 2.041028 1_555
Li2 O10 2.059978 1_555
Li2 O11 2.076219 1_545
Li2 O6 2.135390 1_554
Li2 O9 2.442438 1_455
Li3 O8 2.041028 1_555
Li3 O13 2.059978 1_555
Li3 O12 2.076219 1_565
Li3 O1 2.135390 1_555
Li3 O14 2.442438 1_555
Cu0 O0 1.959459 1_555
Cu0 O15 1.959459 1_455
Cu0 O2 1.997429 1_555
Cu0 O13 1.997429 1_455
Cu0 O4 2.536337 1_455
Cu0 O11 2.536337 1_555
Cu1 O1 1.964589 1_555
Cu1 O14 1.964589 1_545
Cu1 O3 1.990709 1_545
Cu1 O12 1.990709 1_555
Cu2 O9 1.964589 1_455
Cu2 O6 1.964589 1_544
Cu2 O11 1.990709 1_545
Cu2 O4 1.990709 1_454
Cu3 O8 1.959459 1_555
Cu3 O7 1.959459 1_554
Cu3 O10 1.997429 1_555
Cu3 O5 1.997429 1_554
Cu3 O12 2.536337 1_555
Cu3 O3 2.536337 1_554
O0 P0 1.547172 1_545
O1 P1 1.559865 1_555
O2 P0 1.555054 1_555
O3 P0 1.570574 1_555
O4 P1 1.570574 1_555
O5 P1 1.555054 1_555
O6 P0 1.559865 1_555
O7 P2 1.547172 1_546
O8 P1 1.547172 1_564
O9 P3 1.559865 1_555
O10 P2 1.555054 1_555
O11 P2 1.570574 1_555
O12 P3 1.570574 1_555
O13 P3 1.555054 1_555
O14 P2 1.559865 1_555
O15 P3 1.547172 1_565
