# generated using pymatgen
data_RbIn3S5
_symmetry_space_group_name_H-M   'P 1'
_cell_length_a   3.80838090
_cell_length_b   12.46901091
_cell_length_c   15.47096617
_cell_angle_alpha   67.21424420
_cell_angle_beta   90.00000000
_cell_angle_gamma   90.00000000
_symmetry_Int_Tables_number   1
_chemical_formula_structural   RbIn3S5
_chemical_formula_sum   'Rb3 In9 S15'
_cell_volume   677.33208089
_cell_formula_units_Z   3
loop_
 _symmetry_equiv_pos_site_id
 _symmetry_equiv_pos_as_xyz
  1  'x, y, z'
loop_
 _atom_site_type_symbol
 _atom_site_label
 _atom_site_symmetry_multiplicity
 _atom_site_fract_x
 _atom_site_fract_y
 _atom_site_fract_z
 _atom_site_occupancy
  Rb  Rb0  1  -0.00000000  0.50000000  -0.00000000  1
  Rb  Rb1  1  0.50000000  0.13714099  0.57392537  1
  Rb  Rb2  1  0.50000000  0.86285901  0.42607463  1
  In  In0  1  0.50000000  0.17520295  0.83453282  1
  In  In1  1  0.50000000  0.82479705  0.16546718  1
  In  In2  1  0.50000000  0.50000000  0.50000000  1
  In  In3  1  0.00000000  0.48226017  0.71333423  1
  In  In4  1  0.00000000  0.51773983  0.28666577  1
  In  In5  1  0.50000000  0.77792225  0.72802990  1
  In  In6  1  0.50000000  0.22207775  0.27197010  1
  In  In7  1  -0.00000000  0.88284085  0.93011938  1
  In  In8  1  0.00000000  0.11715915  0.06988062  1
  S  S0  1  0.00000000  0.26894762  0.89793067  1
  S  S1  1  -0.00000000  0.73105238  0.10206933  1
  S  S2  1  0.50000000  0.56026289  0.78752162  1
  S  S3  1  0.50000000  0.43973711  0.21247838  1
  S  S4  1  -0.00000000  0.06760838  0.78224076  1
  S  S5  1  -0.00000000  0.93239162  0.21775924  1
  S  S6  1  -0.00000000  0.61813508  0.54085000  1
  S  S7  1  -0.00000000  0.38186492  0.45915000  1
  S  S8  1  0.50000000  0.76893879  0.89242775  1
  S  S9  1  0.50000000  0.23106121  0.10757225  1
  S  S10  1  -0.00000000  0.87526946  0.62841186  1
  S  S11  1  0.00000000  0.12473054  0.37158814  1
  S  S12  1  0.50000000  0.35860397  0.67975680  1
  S  S13  1  0.50000000  0.64139603  0.32024320  1
  S  S14  1  0.50000000  0.00000000  -0.00000000  1
loop_
_geom_bond_atom_site_label_1
_geom_bond_atom_site_label_2
_geom_bond_distance
_geom_bond_site_symmetry_2
Rb0 S2 3.617083 1_454
Rb0 S3 3.617083 1_555
Rb0 S2 3.617083 1_554
Rb0 S3 3.617083 1_455
Rb0 S9 3.649404 1_555
Rb0 S9 3.649404 1_455
Rb0 S8 3.649404 1_454
Rb0 S8 3.649404 1_554
Rb0 S1 3.783857 1_555
Rb0 S0 3.783857 1_554
Rb1 S7 3.448690 1_555
Rb1 S7 3.448690 1_655
Rb1 S4 3.549650 1_555
Rb1 S4 3.549650 1_655
Rb1 S10 3.586999 1_645
Rb1 S10 3.586999 1_545
Rb1 S12 3.715959 1_555
Rb1 S11 3.718092 1_555
Rb1 S11 3.718092 1_655
Rb2 S6 3.448690 1_555
Rb2 S6 3.448690 1_655
Rb2 S5 3.549650 1_555
Rb2 S5 3.549650 1_655
Rb2 S11 3.586999 1_565
Rb2 S11 3.586999 1_665
Rb2 S13 3.715959 1_555
Rb2 S10 3.718092 1_555
Rb2 S10 3.718092 1_655
In0 S12 2.592664 1_555
In0 S0 2.615786 1_555
In0 S0 2.615786 1_655
In0 S4 2.630782 1_655
In0 S4 2.630782 1_555
In0 S14 2.644621 1_556
In1 S13 2.592664 1_555
In1 S1 2.615786 1_555
In1 S1 2.615786 1_655
In1 S5 2.630782 1_655
In1 S5 2.630782 1_555
In1 S14 2.644621 1_565
In2 S7 2.629875 1_555
In2 S7 2.629875 1_655
In2 S6 2.629875 1_555
In2 S6 2.629875 1_655
In2 S13 2.654170 1_555
In2 S12 2.654170 1_555
In3 S6 2.547432 1_555
In3 S2 2.598832 1_555
In3 S2 2.598832 1_455
In3 S12 2.625560 1_455
In3 S12 2.625560 1_555
In3 S0 3.057268 1_555
In4 S7 2.547432 1_555
In4 S3 2.598832 1_455
In4 S3 2.598832 1_555
In4 S13 2.625560 1_455
In4 S13 2.625560 1_555
In4 S1 3.057268 1_555
In5 S10 2.454700 1_555
In5 S10 2.454700 1_655
In5 S8 2.502144 1_555
In5 S2 2.505606 1_555
In6 S11 2.454700 1_555
In6 S11 2.454700 1_655
In6 S9 2.502144 1_555
In6 S3 2.505606 1_555
In7 S4 2.541515 1_565
In7 S8 2.573823 1_455
In7 S8 2.573823 1_555
In7 S1 2.599822 1_556
In7 S14 2.855207 1_466
In7 S14 2.855207 1_566
In8 S5 2.541515 1_545
In8 S9 2.573823 1_555
In8 S9 2.573823 1_455
In8 S0 2.599822 1_554
In8 S14 2.855207 1_455
In8 S14 2.855207 1_555
