# generated using pymatgen
data_U2CuAs2(H4O5)4
_symmetry_space_group_name_H-M   'P 1'
_cell_length_a   7.16610400
_cell_length_b   7.16610400
_cell_length_c   17.68416000
_cell_angle_alpha   90.00000000
_cell_angle_beta   90.00000000
_cell_angle_gamma   90.00000000
_symmetry_Int_Tables_number   1
_chemical_formula_structural   U2CuAs2(H4O5)4
_chemical_formula_sum   'U4 Cu2 As4 H32 O40'
_cell_volume   908.13549148
_cell_formula_units_Z   2
loop_
 _symmetry_equiv_pos_site_id
 _symmetry_equiv_pos_as_xyz
  1  'x, y, z'
loop_
 _atom_site_type_symbol
 _atom_site_label
 _atom_site_symmetry_multiplicity
 _atom_site_fract_x
 _atom_site_fract_y
 _atom_site_fract_z
 _atom_site_occupancy
  U  U0  1  0.50000000  0.00000000  0.05629400  1
  U  U1  1  0.00000000  0.50000000  0.94370600  1
  U  U2  1  0.50000000  0.00000000  0.55533600  1
  U  U3  1  0.00000000  0.50000000  0.44466400  1
  Cu  Cu0  1  0.50000000  0.00000000  0.31079100  1
  Cu  Cu1  1  0.00000000  0.50000000  0.68920900  1
  As  As0  1  0.50000000  0.50000000  0.00000000  1
  As  As1  1  0.00000000  0.00000000  0.00000000  1
  As  As2  1  0.50000000  0.50000000  0.50000000  1
  As  As3  1  0.00000000  0.00000000  0.50000000  1
  H  H0  1  0.62412800  0.31852700  0.85298500  1
  H  H1  1  0.18147300  0.12412800  0.85298500  1
  H  H2  1  0.81852700  0.87587200  0.85298500  1
  H  H3  1  0.37587200  0.68147300  0.85298500  1
  H  H4  1  0.87587200  0.18147300  0.14701500  1
  H  H5  1  0.31852700  0.37587200  0.14701500  1
  H  H6  1  0.68147300  0.62412800  0.14701500  1
  H  H7  1  0.12412800  0.81852700  0.14701500  1
  H  H8  1  0.82510100  0.09332000  0.35582000  1
  H  H9  1  0.40668000  0.32510100  0.35582000  1
  H  H10  1  0.59332000  0.67489900  0.35582000  1
  H  H11  1  0.17489900  0.90668000  0.35582000  1
  H  H12  1  0.67489900  0.40668000  0.64418000  1
  H  H13  1  0.09332000  0.17489900  0.64418000  1
  H  H14  1  0.90668000  0.82510100  0.64418000  1
  H  H15  1  0.32510100  0.59332000  0.64418000  1
  H  H16  1  0.81986600  0.11829200  0.26604300  1
  H  H17  1  0.38170800  0.31986600  0.26604300  1
  H  H18  1  0.61829200  0.68013400  0.26604300  1
  H  H19  1  0.18013400  0.88170800  0.26604300  1
  H  H20  1  0.68013400  0.38170800  0.73395700  1
  H  H21  1  0.11829200  0.18013400  0.73395700  1
  H  H22  1  0.88170800  0.81986600  0.73395700  1
  H  H23  1  0.31986600  0.61829200  0.73395700  1
  H  H24  1  0.47199900  0.21464900  0.80307400  1
  H  H25  1  0.28535100  0.97199900  0.80307400  1
  H  H26  1  0.71464900  0.02800100  0.80307400  1
  H  H27  1  0.52800100  0.78535100  0.80307400  1
  H  H28  1  0.02800100  0.28535100  0.19692600  1
  H  H29  1  0.21464900  0.52800100  0.19692600  1
  H  H30  1  0.78535100  0.47199900  0.19692600  1
  H  H31  1  0.97199900  0.71464900  0.19692600  1
  O  O0  1  0.50000000  0.00000000  0.45185400  1
  O  O1  1  0.00000000  0.50000000  0.54814600  1
  O  O2  1  0.50000000  0.00000000  0.95376700  1
  O  O3  1  0.00000000  0.50000000  0.04623300  1
  O  O4  1  0.50000000  0.00000000  0.65760200  1
  O  O5  1  0.00000000  0.50000000  0.34239800  1
  O  O6  1  0.50000000  0.00000000  0.15961500  1
  O  O7  1  0.00000000  0.50000000  0.84038500  1
  O  O8  1  0.55091500  0.68330400  0.05931500  1
  O  O9  1  0.81669600  0.05091500  0.05931500  1
  O  O10  1  0.18330400  0.94908500  0.05931500  1
  O  O11  1  0.44908500  0.31669600  0.05931500  1
  O  O12  1  0.94908500  0.81669600  0.94068500  1
  O  O13  1  0.68330400  0.44908500  0.94068500  1
  O  O14  1  0.31669600  0.55091500  0.94068500  1
  O  O15  1  0.05091500  0.18330400  0.94068500  1
  O  O16  1  0.44069300  0.68286600  0.55841500  1
  O  O17  1  0.81713400  0.94069300  0.55841500  1
  O  O18  1  0.18286600  0.05930700  0.55841500  1
  O  O19  1  0.55930700  0.31713400  0.55841500  1
  O  O20  1  0.05930700  0.81713400  0.44158500  1
  O  O21  1  0.68286600  0.55930700  0.44158500  1
  O  O22  1  0.31713400  0.44069300  0.44158500  1
  O  O23  1  0.94069300  0.18286600  0.44158500  1
  O  O24  1  0.77522700  0.03602400  0.30896700  1
  O  O25  1  0.46397600  0.27522700  0.30896700  1
  O  O26  1  0.53602400  0.72477300  0.30896700  1
  O  O27  1  0.22477300  0.96397600  0.30896700  1
  O  O28  1  0.72477300  0.46397600  0.69103300  1
  O  O29  1  0.03602400  0.22477300  0.69103300  1
  O  O30  1  0.96397600  0.77522700  0.69103300  1
  O  O31  1  0.27522700  0.53602400  0.69103300  1
  O  O32  1  0.60607100  0.25258500  0.80442500  1
  O  O33  1  0.24741500  0.10607100  0.80442500  1
  O  O34  1  0.75258500  0.89392900  0.80442500  1
  O  O35  1  0.39392900  0.74741500  0.80442500  1
  O  O36  1  0.89392900  0.24741500  0.19557500  1
  O  O37  1  0.25258500  0.39392900  0.19557500  1
  O  O38  1  0.74741500  0.60607100  0.19557500  1
  O  O39  1  0.10607100  0.75258500  0.19557500  1
loop_
_geom_bond_atom_site_label_1
_geom_bond_atom_site_label_2
_geom_bond_distance
_geom_bond_site_symmetry_2
Cu0 O24 1.989390 1_555
Cu0 O25 1.989390 1_555
Cu0 O27 1.989390 1_545
Cu0 O26 1.989390 1_545
Cu0 O0 2.494581 1_555
Cu0 O6 2.673421 1_555
Cu1 O31 1.989390 1_555
Cu1 O30 1.989390 1_455
Cu1 O29 1.989390 1_555
Cu1 O28 1.989390 1_455
Cu1 O1 2.494581 1_555
Cu1 O7 2.673421 1_555
As0 O11 1.720137 1_555
As0 O13 1.720137 1_554
As0 O8 1.720137 1_555
As0 O14 1.720137 1_554
As1 O15 1.720137 1_554
As1 O9 1.720137 1_455
As1 O10 1.720137 1_545
As1 O12 1.720137 1_444
As2 O19 1.721918 1_555
As2 O21 1.721918 1_555
As2 O22 1.721918 1_555
As2 O16 1.721918 1_555
As3 O20 1.721918 1_545
As3 O17 1.721918 1_445
As3 O18 1.721918 1_555
As3 O23 1.721918 1_455
H0 O32 0.988678 1_555
H1 O33 0.988678 1_555
H2 O34 0.988678 1_555
H3 O35 0.988678 1_555
H4 O36 0.988678 1_555
H5 O37 0.988678 1_555
H6 O38 0.988678 1_555
H7 O39 0.988678 1_555
H8 O24 0.991375 1_555
H9 O25 0.991375 1_555
H10 O26 0.991375 1_555
H11 O27 0.991375 1_555
H12 O28 0.991375 1_555
H13 O29 0.991375 1_555
H14 O30 0.991375 1_555
H15 O31 0.991375 1_555
H16 O24 1.012957 1_555
H16 O36 1.640371 1_555
H17 O25 1.012957 1_555
H17 O37 1.640371 1_555
H18 O26 1.012957 1_555
H18 O38 1.640371 1_555
H19 O27 1.012957 1_555
H19 O39 1.640371 1_555
H20 O28 1.012957 1_555
H20 O32 1.640371 1_555
H21 O29 1.012957 1_555
H21 O33 1.640371 1_555
H22 O30 1.012957 1_555
H22 O34 1.640371 1_555
H23 O31 1.012957 1_555
H23 O35 1.640371 1_555
H24 O32 0.998780 1_555
H25 O33 0.998780 1_565
H26 O34 0.998780 1_545
H27 O35 0.998780 1_555
H28 O36 0.998780 1_455
H29 O37 0.998780 1_555
H30 O38 0.998780 1_555
H31 O39 0.998780 1_655
O0 U2 1.829992 1_555
O1 U3 1.829992 1_555
O2 U0 1.813104 1_556
O3 U1 1.813104 1_554
O4 U2 1.808488 1_555
O5 U3 1.808488 1_555
O6 U0 1.827145 1_555
O7 U1 1.827145 1_555
O8 U0 2.299239 1_565
O9 U0 2.299239 1_555
O10 U0 2.299239 1_565
O11 U0 2.299239 1_555
O12 U1 2.299239 1_655
O13 U1 2.299239 1_655
O14 U1 2.299239 1_555
O15 U1 2.299239 1_555
O16 U2 2.312654 1_565
O17 U2 2.312654 1_565
O18 U2 2.312654 1_555
O19 U2 2.312654 1_555
O20 U3 2.312654 1_555
O21 U3 2.312654 1_655
O22 U3 2.312654 1_555
O23 U3 2.312654 1_655
