# generated using pymatgen
data_LaNi5As3
_symmetry_space_group_name_H-M   'P 1'
_cell_length_a   3.91615200
_cell_length_b   11.24035300
_cell_length_c   24.36450600
_cell_angle_alpha   90.00000000
_cell_angle_beta   90.00000000
_cell_angle_gamma   90.00000000
_symmetry_Int_Tables_number   1
_chemical_formula_structural   LaNi5As3
_chemical_formula_sum   'La8 Ni40 As24'
_cell_volume   1072.49950558
_cell_formula_units_Z   8
loop_
 _symmetry_equiv_pos_site_id
 _symmetry_equiv_pos_as_xyz
  1  'x, y, z'
loop_
 _atom_site_type_symbol
 _atom_site_label
 _atom_site_symmetry_multiplicity
 _atom_site_fract_x
 _atom_site_fract_y
 _atom_site_fract_z
 _atom_site_occupancy
  La  La0  1  0.25000000  0.08762400  0.33766700  1
  La  La1  1  0.75000000  0.08658300  0.10355100  1
  La  La2  1  0.75000000  0.58658300  0.39644900  1
  La  La3  1  0.25000000  0.91341700  0.89644900  1
  La  La4  1  0.25000000  0.58762400  0.16233300  1
  La  La5  1  0.75000000  0.41237600  0.83766700  1
  La  La6  1  0.75000000  0.91237600  0.66233300  1
  La  La7  1  0.25000000  0.41341700  0.60355100  1
  Ni  Ni0  1  0.75000000  0.47966600  0.26971300  1
  Ni  Ni1  1  0.75000000  0.66201000  0.74871600  1
  Ni  Ni2  1  0.25000000  0.33799000  0.25128400  1
  Ni  Ni3  1  0.25000000  0.11726200  0.58928700  1
  Ni  Ni4  1  0.25000000  0.02033400  0.76971300  1
  Ni  Ni5  1  0.75000000  0.97966600  0.23028700  1
  Ni  Ni6  1  0.25000000  0.20762300  0.48949900  1
  Ni  Ni7  1  0.25000000  0.47930600  0.03371600  1
  Ni  Ni8  1  0.75000000  0.19530700  0.23317400  1
  Ni  Ni9  1  0.25000000  0.58982400  0.49601400  1
  Ni  Ni10  1  0.25000000  0.61726200  0.91071300  1
  Ni  Ni11  1  0.25000000  0.30469300  0.73317400  1
  Ni  Ni12  1  0.75000000  0.60284000  0.64983200  1
  Ni  Ni13  1  0.25000000  0.27908000  0.15264100  1
  Ni  Ni14  1  0.75000000  0.02069400  0.53371600  1
  Ni  Ni15  1  0.75000000  0.29237700  0.98949900  1
  Ni  Ni16  1  0.75000000  0.88273800  0.41071300  1
  Ni  Ni17  1  0.75000000  0.10284000  0.85016800  1
  Ni  Ni18  1  0.25000000  0.39716000  0.35016800  1
  Ni  Ni19  1  0.75000000  0.41017600  0.50398600  1
  Ni  Ni20  1  0.75000000  0.28715400  0.41341200  1
  Ni  Ni21  1  0.25000000  0.83799000  0.24871600  1
  Ni  Ni22  1  0.25000000  0.21284600  0.91341200  1
  Ni  Ni23  1  0.75000000  0.78715400  0.08658800  1
  Ni  Ni24  1  0.75000000  0.91017600  0.99601400  1
  Ni  Ni25  1  0.25000000  0.97930600  0.46628400  1
  Ni  Ni26  1  0.25000000  0.52033400  0.73028700  1
  Ni  Ni27  1  0.75000000  0.52069400  0.96628400  1
  Ni  Ni28  1  0.25000000  0.71284600  0.58658800  1
  Ni  Ni29  1  0.25000000  0.70762300  0.01050100  1
  Ni  Ni30  1  0.25000000  0.08982400  0.00398600  1
  Ni  Ni31  1  0.75000000  0.16201000  0.75128400  1
  Ni  Ni32  1  0.75000000  0.72092000  0.84735900  1
  Ni  Ni33  1  0.75000000  0.38273800  0.08928700  1
  Ni  Ni34  1  0.25000000  0.77908000  0.34735900  1
  Ni  Ni35  1  0.25000000  0.80469300  0.76682600  1
  Ni  Ni36  1  0.75000000  0.79237700  0.51050100  1
  Ni  Ni37  1  0.75000000  0.69530700  0.26682600  1
  Ni  Ni38  1  0.75000000  0.22092000  0.65264100  1
  Ni  Ni39  1  0.25000000  0.89716000  0.14983200  1
  As  As0  1  0.75000000  0.59990700  0.55283700  1
  As  As1  1  0.75000000  0.72688100  0.94355100  1
  As  As2  1  0.75000000  0.41182500  0.70338000  1
  As  As3  1  0.75000000  0.08849100  0.44005200  1
  As  As4  1  0.25000000  0.77311900  0.44355100  1
  As  As5  1  0.25000000  0.08817500  0.20338000  1
  As  As6  1  0.25000000  0.62320600  0.81445600  1
  As  As7  1  0.25000000  0.12320600  0.68554400  1
  As  As8  1  0.25000000  0.70102300  0.68264000  1
  As  As9  1  0.75000000  0.58849100  0.05994800  1
  As  As10  1  0.25000000  0.27311900  0.05644900  1
  As  As11  1  0.75000000  0.79897700  0.18264000  1
  As  As12  1  0.75000000  0.29897700  0.31736000  1
  As  As13  1  0.75000000  0.87679400  0.31445600  1
  As  As14  1  0.75000000  0.22688100  0.55644900  1
  As  As15  1  0.75000000  0.37679400  0.18554400  1
  As  As16  1  0.25000000  0.20102300  0.81736000  1
  As  As17  1  0.25000000  0.40009300  0.44716300  1
  As  As18  1  0.25000000  0.41150900  0.94005200  1
  As  As19  1  0.25000000  0.90009300  0.05283700  1
  As  As20  1  0.25000000  0.58817500  0.29662000  1
  As  As21  1  0.75000000  0.09990700  0.94716300  1
  As  As22  1  0.25000000  0.91150900  0.55994800  1
  As  As23  1  0.75000000  0.91182500  0.79662000  1
loop_
_geom_bond_atom_site_label_1
_geom_bond_atom_site_label_2
_geom_bond_distance
_geom_bond_site_symmetry_2
La0 Ni25 3.361904 1_545
La0 Ni8 3.432321 1_555
La0 Ni8 3.432321 1_455
La0 Ni34 3.476173 1_545
La0 Ni5 3.485890 1_445
La0 Ni5 3.485890 1_545
La0 Ni18 3.492600 1_555
La0 Ni20 3.502854 1_555
La0 Ni20 3.502854 1_455
La0 Ni16 3.507886 1_445
La0 Ni16 3.507886 1_545
La0 Ni2 3.514172 1_555
La0 Ni21 3.545483 1_545
La1 Ni39 3.104672 1_545
La1 Ni39 3.104672 1_645
La1 Ni30 3.117715 1_655
La1 Ni30 3.117715 1_555
La1 Ni13 3.153784 1_555
La1 Ni13 3.153784 1_655
La2 Ni18 3.104672 1_555
La2 Ni18 3.104672 1_655
La2 Ni9 3.117715 1_555
La2 Ni9 3.117715 1_655
La2 Ni34 3.153784 1_555
La2 Ni34 3.153784 1_655
La3 Ni17 3.104672 1_465
La3 Ni17 3.104672 1_565
La3 Ni24 3.117715 1_555
La3 Ni24 3.117715 1_455
La3 Ni32 3.153784 1_455
La3 Ni32 3.153784 1_555
La4 Ni7 3.361904 1_555
La4 Ni37 3.432321 1_555
La4 Ni37 3.432321 1_455
La4 Ni13 3.476173 1_555
La4 Ni0 3.485890 1_455
La4 Ni0 3.485890 1_555
La4 Ni39 3.492600 1_555
La4 Ni23 3.502854 1_455
La4 Ni23 3.502854 1_555
La4 Ni33 3.507886 1_555
La4 Ni33 3.507886 1_455
La4 Ni21 3.514172 1_555
La4 Ni2 3.545483 1_555
La5 Ni27 3.361904 1_555
La5 Ni11 3.432321 1_655
La5 Ni11 3.432321 1_555
La5 Ni32 3.476173 1_555
La5 Ni26 3.485890 1_555
La5 Ni26 3.485890 1_655
La5 Ni17 3.492600 1_555
La5 Ni22 3.502854 1_555
La5 Ni22 3.502854 1_655
La5 Ni10 3.507886 1_555
La5 Ni10 3.507886 1_655
La5 Ni31 3.514172 1_555
La5 Ni1 3.545483 1_555
La6 Ni14 3.361904 1_565
La6 Ni35 3.432321 1_655
La6 Ni35 3.432321 1_555
La6 Ni38 3.476173 1_565
La6 Ni4 3.485890 1_665
La6 Ni4 3.485890 1_565
La6 Ni12 3.492600 1_555
La6 Ni28 3.502854 1_655
La6 Ni28 3.502854 1_555
La6 Ni3 3.507886 1_665
La6 Ni3 3.507886 1_565
La6 Ni1 3.514172 1_555
La6 Ni31 3.545483 1_565
La7 Ni12 3.104672 1_555
La7 Ni12 3.104672 1_455
La7 Ni19 3.117715 1_555
La7 Ni19 3.117715 1_455
La7 Ni38 3.153784 1_555
La7 Ni38 3.153784 1_455
Ni0 Ni2 2.563531 1_655
Ni0 Ni2 2.563531 1_555
Ni1 Ni32 2.492938 1_555
Ni1 Ni12 2.499376 1_555
Ni1 Ni26 2.563531 1_655
Ni1 Ni26 2.563531 1_555
Ni1 Ni35 2.569232 1_555
Ni1 Ni35 2.569232 1_655
Ni2 Ni8 2.569232 1_555
Ni2 Ni8 2.569232 1_455
Ni11 Ni31 2.569232 1_455
Ni11 Ni31 2.569232 1_555
Ni13 Ni2 2.492938 1_555
Ni17 Ni31 2.499376 1_555
Ni18 Ni2 2.499376 1_555
Ni21 Ni34 2.492938 1_555
Ni21 Ni39 2.499376 1_555
Ni21 Ni5 2.563531 1_555
Ni21 Ni5 2.563531 1_455
Ni21 Ni37 2.569232 1_455
Ni21 Ni37 2.569232 1_555
Ni31 Ni38 2.492938 1_555
Ni31 Ni4 2.563531 1_655
Ni31 Ni4 2.563531 1_555
As0 Ni12 2.363465 1_555
As0 Ni36 2.396751 1_555
As0 Ni9 2.400760 1_555
As0 Ni9 2.400760 1_655
As0 Ni19 2.442297 1_555
As0 Ni28 2.474237 1_655
As0 Ni28 2.474237 1_555
As0 La7 3.123289 1_555
As0 La7 3.123289 1_655
As1 Ni32 2.344628 1_555
As1 Ni27 2.382880 1_555
As1 Ni24 2.424608 1_555
As1 Ni10 2.447938 1_555
As1 Ni10 2.447938 1_655
As1 Ni29 2.557684 1_656
As1 Ni29 2.557684 1_556
As1 La3 3.089881 1_555
As1 La3 3.089881 1_655
As2 Ni26 2.398220 1_655
As2 Ni26 2.398220 1_555
As2 Ni11 2.410626 1_655
As2 Ni11 2.410626 1_555
As2 Ni38 2.476468 1_555
As2 Ni12 2.512389 1_555
As2 Ni1 3.021325 1_555
As2 Ni31 3.040916 1_555
As2 La7 3.122561 1_555
As2 La7 3.122561 1_655
As2 La5 3.271842 1_555
As3 Ni20 2.325461 1_555
As3 Ni25 2.397657 1_645
As3 Ni25 2.397657 1_545
As3 Ni14 2.405954 1_555
As3 Ni16 2.420688 1_545
As3 Ni6 2.660571 1_655
As3 Ni6 2.660571 1_555
As3 La0 3.171275 1_555
As3 La0 3.171275 1_655
As4 Ni34 2.344628 1_555
As4 Ni25 2.382880 1_555
As4 Ni9 2.424608 1_555
As4 Ni16 2.447938 1_555
As4 Ni16 2.447938 1_455
As4 Ni36 2.557684 1_555
As4 Ni36 2.557684 1_455
As4 La2 3.089881 1_555
As4 La2 3.089881 1_455
As5 Ni5 2.398220 1_445
As5 Ni5 2.398220 1_545
As5 Ni8 2.410626 1_455
As5 Ni8 2.410626 1_555
As5 Ni13 2.476468 1_555
As5 Ni39 2.512389 1_545
As5 Ni21 3.021325 1_545
As5 Ni2 3.040916 1_555
As5 La1 3.122561 1_455
As5 La1 3.122561 1_555
As5 La0 3.271842 1_555
As6 Ni10 2.346206 1_555
As6 Ni35 2.346961 1_555
As6 Ni26 2.354270 1_555
As6 Ni32 2.383921 1_455
As6 Ni32 2.383921 1_555
As6 Ni1 2.567065 1_455
As6 Ni1 2.567065 1_555
As6 La5 3.125676 1_555
As6 La5 3.125676 1_455
As7 Ni3 2.346206 1_555
As7 Ni11 2.346961 1_555
As7 Ni4 2.354270 1_555
As7 Ni38 2.383921 1_455
As7 Ni38 2.383921 1_555
As7 Ni31 2.567065 1_555
As7 Ni31 2.567065 1_455
As7 La6 3.125676 1_545
As7 La6 3.125676 1_445
As8 Ni26 2.339374 1_555
As8 Ni28 2.344030 1_555
As8 Ni35 2.359049 1_555
As8 Ni12 2.385578 1_555
As8 Ni12 2.385578 1_455
As8 Ni1 2.572580 1_555
As8 Ni1 2.572580 1_455
As8 La6 3.118129 1_455
As8 La6 3.118129 1_555
As9 Ni23 2.325461 1_555
As9 Ni7 2.397657 1_655
As9 Ni7 2.397657 1_555
As9 Ni27 2.405954 1_554
As9 Ni33 2.420688 1_555
As9 Ni29 2.660571 1_655
As9 Ni29 2.660571 1_555
As9 La4 3.171275 1_555
As9 La4 3.171275 1_655
As10 Ni13 2.344628 1_555
As10 Ni7 2.382880 1_555
As10 Ni30 2.424608 1_555
As10 Ni33 2.447938 1_455
As10 Ni33 2.447938 1_555
As10 Ni15 2.557684 1_554
As10 Ni15 2.557684 1_454
As10 La1 3.089881 1_455
As10 La1 3.089881 1_555
As11 Ni5 2.339374 1_555
As11 Ni23 2.344030 1_555
As11 Ni37 2.359049 1_555
As11 Ni39 2.385578 1_655
As11 Ni39 2.385578 1_555
As11 Ni21 2.572580 1_555
As11 Ni21 2.572580 1_655
As11 La4 3.118129 1_555
As11 La4 3.118129 1_655
As12 Ni0 2.339374 1_555
As12 Ni20 2.344030 1_555
As12 Ni8 2.359049 1_555
As12 Ni18 2.385578 1_555
As12 Ni18 2.385578 1_655
As12 Ni2 2.572580 1_655
As12 Ni2 2.572580 1_555
As12 La0 3.118129 1_555
As12 La0 3.118129 1_655
As13 Ni16 2.346206 1_555
As13 Ni37 2.346961 1_555
As13 Ni5 2.354270 1_555
As13 Ni34 2.383921 1_655
As13 Ni34 2.383921 1_555
As13 Ni21 2.567065 1_655
As13 Ni21 2.567065 1_555
As13 La0 3.125676 1_665
As13 La0 3.125676 1_565
As14 Ni38 2.344628 1_555
As14 Ni14 2.382880 1_555
As14 Ni19 2.424608 1_555
As14 Ni3 2.447938 1_655
As14 Ni3 2.447938 1_555
As14 Ni6 2.557684 1_655
As14 Ni6 2.557684 1_555
As14 La7 3.089881 1_555
As14 La7 3.089881 1_655
As15 Ni33 2.346206 1_555
As15 Ni8 2.346961 1_555
As15 Ni0 2.354270 1_555
As15 Ni13 2.383921 1_555
As15 Ni13 2.383921 1_655
As15 Ni2 2.567065 1_655
As15 Ni2 2.567065 1_555
As15 La4 3.125676 1_555
As15 La4 3.125676 1_655
As16 Ni4 2.339374 1_555
As16 Ni22 2.344030 1_555
As16 Ni11 2.359049 1_555
As16 Ni17 2.385578 1_455
As16 Ni17 2.385578 1_555
As16 Ni31 2.572580 1_555
As16 Ni31 2.572580 1_455
As16 La5 3.118129 1_455
As16 La5 3.118129 1_555
As17 Ni18 2.363465 1_555
As17 Ni6 2.396751 1_555
As17 Ni19 2.400760 1_455
As17 Ni19 2.400760 1_555
As17 Ni9 2.442297 1_555
As17 Ni20 2.474237 1_555
As17 Ni20 2.474237 1_455
As17 La2 3.123289 1_455
As17 La2 3.123289 1_555
As18 Ni22 2.325461 1_555
As18 Ni27 2.397657 1_555
As18 Ni27 2.397657 1_455
As18 Ni7 2.405954 1_556
As18 Ni10 2.420688 1_555
As18 Ni15 2.660571 1_555
As18 Ni15 2.660571 1_455
As18 La5 3.171275 1_555
As18 La5 3.171275 1_455
As19 Ni39 2.363465 1_555
As19 Ni29 2.396751 1_555
As19 Ni24 2.400760 1_454
As19 Ni24 2.400760 1_554
As19 Ni30 2.442297 1_565
As19 Ni23 2.474237 1_555
As19 Ni23 2.474237 1_455
As19 La1 3.123289 1_565
As19 La1 3.123289 1_465
As20 Ni0 2.398220 1_555
As20 Ni0 2.398220 1_455
As20 Ni37 2.410626 1_455
As20 Ni37 2.410626 1_555
As20 Ni34 2.476468 1_555
As20 Ni18 2.512389 1_555
As20 Ni2 3.021325 1_555
As20 Ni21 3.040916 1_555
As20 La2 3.122561 1_455
As20 La2 3.122561 1_555
As20 La4 3.271842 1_555
As21 Ni17 2.363465 1_555
As21 Ni15 2.396751 1_555
As21 Ni30 2.400760 1_656
As21 Ni30 2.400760 1_556
As21 Ni24 2.442297 1_545
As21 Ni22 2.474237 1_555
As21 Ni22 2.474237 1_655
As21 La3 3.123289 1_545
As21 La3 3.123289 1_645
As22 Ni28 2.325461 1_555
As22 Ni14 2.397657 1_465
As22 Ni14 2.397657 1_565
As22 Ni25 2.405954 1_555
As22 Ni3 2.420688 1_565
As22 Ni36 2.660571 1_455
As22 Ni36 2.660571 1_555
As22 La6 3.171275 1_455
As22 La6 3.171275 1_555
As23 Ni4 2.398220 1_665
As23 Ni4 2.398220 1_565
As23 Ni35 2.410626 1_555
As23 Ni35 2.410626 1_655
As23 Ni32 2.476468 1_555
As23 Ni17 2.512389 1_565
As23 Ni31 3.021325 1_565
As23 Ni1 3.040916 1_555
As23 La3 3.122561 1_555
As23 La3 3.122561 1_655
As23 La6 3.271842 1_555
