# generated using pymatgen
data_LiV2O5
_symmetry_space_group_name_H-M   'P 1'
_cell_length_a   3.56758400
_cell_length_b   4.91394270
_cell_length_c   11.60682369
_cell_angle_alpha   90.06153491
_cell_angle_beta   90.00000000
_cell_angle_gamma   90.00001166
_symmetry_Int_Tables_number   1
_chemical_formula_structural   LiV2O5
_chemical_formula_sum   'Li2 V4 O10'
_cell_volume   203.47798706
_cell_formula_units_Z   2
loop_
 _symmetry_equiv_pos_site_id
 _symmetry_equiv_pos_as_xyz
  1  'x, y, z'
loop_
 _atom_site_type_symbol
 _atom_site_label
 _atom_site_symmetry_multiplicity
 _atom_site_fract_x
 _atom_site_fract_y
 _atom_site_fract_z
 _atom_site_occupancy
  Li  Li0  1  0.00000000  0.67769300  0.68876300  1
  Li  Li1  1  0.50000000  0.32246500  0.18953700  1
  V  V0  1  0.50000000  0.13831000  0.60112300  1
  V  V1  1  0.50000000  0.07140300  0.89943500  1
  V  V2  1  0.00000000  0.86140700  0.10102000  1
  V  V3  1  0.00000000  0.92849800  0.39911100  1
  O  O0  1  0.00000000  0.52808900  0.13055500  1
  O  O1  1  0.50000000  0.47220600  0.62999100  1
  O  O2  1  0.50000000  0.40112900  0.89338100  1
  O  O3  1  0.99999900  0.59875000  0.39233900  1
  O  O4  1  0.00000000  0.95012600  0.93124200  1
  O  O5  1  0.50000000  0.04938000  0.43123600  1
  O  O6  1  0.50000000  0.00666300  0.07475400  1
  O  O7  1  0.00000000  0.99287000  0.57464500  1
  O  O8  1  0.50000000  0.96528100  0.75275300  1
  O  O9  1  0.00000000  0.03573000  0.25271600  1
loop_
_geom_bond_atom_site_label_1
_geom_bond_atom_site_label_2
_geom_bond_distance
_geom_bond_site_symmetry_2
Li0 O7 2.038994 1_555
Li0 O1 2.159946 1_455
Li0 O1 2.159947 1_555
Li0 O8 2.393408 1_555
Li0 O8 2.393408 1_455
Li1 O6 2.044181 1_555
Li1 O0 2.161718 1_655
Li1 O0 2.161718 1_555
Li1 O9 2.388964 1_555
Li1 O9 2.388965 1_655
O0 V2 1.673756 1_555
O1 V0 1.674257 1_555
O2 V1 1.621853 1_555
O3 V3 1.622184 1_655
O4 V1 1.916725 1_565
O4 V1 1.916725 1_465
O4 V2 2.018689 1_556
O5 V3 1.916589 1_545
O5 V3 1.916589 1_645
O5 V0 2.019233 1_555
O6 V2 1.945457 1_545
O6 V2 1.945458 1_645
O6 V1 2.059952 1_554
O7 V0 1.945935 1_565
O7 V0 1.945935 1_465
O7 V3 2.061466 1_555
O8 V1 1.780050 1_565
O8 V0 1.955389 1_565
O9 V3 1.779549 1_545
O9 V2 1.957203 1_545
