# generated using pymatgen
data_Na2MnF5
_symmetry_space_group_name_H-M   'P 1'
_cell_length_a   5.19064127
_cell_length_b   7.66154754
_cell_length_c   10.74436034
_cell_angle_alpha   71.40746608
_cell_angle_beta   90.00046297
_cell_angle_gamma   89.99971504
_symmetry_Int_Tables_number   1
_chemical_formula_structural   Na2MnF5
_chemical_formula_sum   'Na8 Mn4 F20'
_cell_volume   404.98538557
_cell_formula_units_Z   4
loop_
 _symmetry_equiv_pos_site_id
 _symmetry_equiv_pos_as_xyz
  1  'x, y, z'
loop_
 _atom_site_type_symbol
 _atom_site_label
 _atom_site_symmetry_multiplicity
 _atom_site_fract_x
 _atom_site_fract_y
 _atom_site_fract_z
 _atom_site_occupancy
  Na  Na0  1  0.93796727  0.34388261  0.31746036  1
  Na  Na1  1  0.43796174  0.65611118  0.18254236  1
  Na  Na2  1  0.06203794  0.65612239  0.68254148  1
  Na  Na3  1  0.56202255  0.34386222  0.81746854  1
  Na  Na4  1  0.48722799  0.14987204  0.13007575  1
  Na  Na5  1  0.98724081  0.85013961  0.36992401  1
  Na  Na6  1  0.51278482  0.85012926  0.86991556  1
  Na  Na7  1  0.01279542  0.14987684  0.63008540  1
  Mn  Mn0  1  0.50001167  0.50003039  0.49996942  1
  Mn  Mn1  1  0.00000146  0.49999250  0.00001647  1
  Mn  Mn2  1  0.49999188  0.00001727  0.49998931  1
  Mn  Mn3  1  -0.00004032  -0.00004027  0.00002062  1
  F  F0  1  0.75105214  0.49501516  0.62442397  1
  F  F1  1  0.25106680  0.50498796  0.87557253  1
  F  F2  1  0.24893117  0.50500194  0.37554996  1
  F  F3  1  0.74892294  0.49501539  0.12444499  1
  F  F4  1  0.71624049  0.62211199  0.36156373  1
  F  F5  1  0.21621046  0.37790538  0.13841757  1
  F  F6  1  0.28384477  0.37793522  0.63838987  1
  F  F7  1  0.78381859  0.62210287  0.86158401  1
  F  F8  1  0.67187612  0.25095328  0.49626732  1
  F  F9  1  0.17187725  0.74904670  0.00373356  1
  F  F10  1  0.32815035  0.74907007  0.50372823  1
  F  F11  1  0.82814219  0.25093167  0.99627200  1
  F  F12  1  0.84934888  0.04929733  0.83203680  1
  F  F13  1  0.34937089  0.95069328  0.66797064  1
  F  F14  1  0.15062730  0.95068245  0.16799015  1
  F  F15  1  0.65064691  0.04930938  0.33201935  1
  F  F16  1  0.69597163  0.88997933  0.07324809  1
  F  F17  1  0.19603419  0.10999537  0.42675508  1
  F  F18  1  0.30389844  0.10995386  0.92676303  1
  F  F19  1  0.80396330  0.89001432  0.57325879  1
loop_
_geom_bond_atom_site_label_1
_geom_bond_atom_site_label_2
_geom_bond_distance
_geom_bond_site_symmetry_2
F0 Mn0 1.858686 1_555
F0 Na2 2.238455 1_655
F0 Na3 2.252612 1_555
F1 Mn1 1.858742 1_556
F1 Na3 2.238365 1_555
F1 Na2 2.252450 1_555
F2 Mn0 1.858633 1_555
F2 Na0 2.238296 1_455
F2 Na1 2.252240 1_555
F3 Mn1 1.858702 1_655
F3 Na1 2.238207 1_555
F3 Na0 2.252354 1_555
F4 Mn0 1.859853 1_555
F4 Na5 2.266943 1_555
F4 Na1 2.352545 1_555
F4 Na0 2.595619 1_555
F5 Mn1 1.859750 1_555
F5 Na4 2.266967 1_555
F5 Na0 2.352605 1_455
F5 Na1 2.595625 1_555
F6 Mn0 1.859786 1_555
F6 Na7 2.267115 1_555
F6 Na3 2.352620 1_555
F6 Na2 2.595750 1_555
F7 Mn1 1.859928 1_656
F7 Na6 2.266946 1_555
F7 Na2 2.352530 1_655
F7 Na3 2.595919 1_555
F8 Mn2 2.108275 1_555
F8 Mn0 2.118362 1_555
F8 Na7 2.255733 1_655
F8 Na0 2.287638 1_555
F9 Mn3 2.108206 1_565
F9 Mn1 2.118285 1_555
F9 Na6 2.255715 1_554
F9 Na1 2.287611 1_555
F10 Mn2 2.108209 1_565
F10 Mn0 2.118282 1_555
F10 Na5 2.255607 1_455
F10 Na2 2.287761 1_555
F11 Mn3 2.108291 1_656
F11 Mn1 2.118385 1_656
F11 Na4 2.255637 1_556
F11 Na3 2.287677 1_555
F12 Mn3 1.891178 1_656
F12 Na7 2.226116 1_655
F12 Na6 2.269381 1_545
F12 Na3 2.667724 1_555
F13 Mn2 1.891201 1_565
F13 Na6 2.225971 1_555
F13 Na7 2.269480 1_565
F13 Na2 2.667789 1_555
F14 Mn3 1.891212 1_565
F14 Na5 2.225824 1_455
F14 Na4 2.269615 1_565
F14 Na1 2.667824 1_555
F15 Mn2 1.891191 1_555
F15 Na4 2.225968 1_555
F15 Na5 2.269482 1_545
F15 Na0 2.667794 1_555
F16 Mn3 1.842841 1_665
F16 Na1 2.245300 1_555
F16 Na6 2.489069 1_554
F16 Na4 2.507360 1_565
F17 Mn2 1.842703 1_555
F17 Na0 2.245549 1_455
F17 Na7 2.489260 1_555
F17 Na5 2.507247 1_445
F18 Mn3 1.842747 1_556
F18 Na3 2.245849 1_555
F18 Na4 2.489367 1_556
F18 Na6 2.507331 1_545
F19 Mn2 1.842932 1_565
F19 Na2 2.245561 1_655
F19 Na5 2.489360 1_555
F19 Na7 2.507356 1_665
