# generated using pymatgen
data_Fe(MoS2)2
_symmetry_space_group_name_H-M   'P 1'
_cell_length_a   6.42226378
_cell_length_b   6.75607797
_cell_length_c   11.96209952
_cell_angle_alpha   80.44803168
_cell_angle_beta   74.46868686
_cell_angle_gamma   61.63547120
_symmetry_Int_Tables_number   1
_chemical_formula_structural   Fe(MoS2)2
_chemical_formula_sum   'Fe4 Mo8 S16'
_cell_volume   439.57765436
_cell_formula_units_Z   4
loop_
 _symmetry_equiv_pos_site_id
 _symmetry_equiv_pos_as_xyz
  1  'x, y, z'
loop_
 _atom_site_type_symbol
 _atom_site_label
 _atom_site_symmetry_multiplicity
 _atom_site_fract_x
 _atom_site_fract_y
 _atom_site_fract_z
 _atom_site_occupancy
  Fe  Fe0  1  0.29947800  0.19426800  0.95096500  1
  Fe  Fe1  1  0.55307400  0.69405300  0.45092800  1
  Fe  Fe2  1  0.05491500  0.68531900  0.45108200  1
  Fe  Fe3  1  0.81028900  0.18610500  0.95117100  1
  Mo  Mo0  1  0.66156300  0.24197700  0.21146300  1
  Mo  Mo1  1  0.88682300  0.74311700  0.71002400  1
  Mo  Mo2  1  0.70309400  0.63690600  0.19244400  1
  Mo  Mo3  1  0.47006000  0.13754800  0.69078000  1
  Mo  Mo4  1  0.22551400  0.62931200  0.19114500  1
  Mo  Mo5  1  0.95219700  0.13119900  0.68991600  1
  Mo  Mo6  1  0.13532800  0.24738200  0.21209200  1
  Mo  Mo7  1  0.40307300  0.74918500  0.71074700  1
  S  S0  1  0.59698300  0.51266600  0.05134200  1
  S  S1  1  0.84029000  0.01321000  0.54967400  1
  S  S2  1  0.76573500  0.36621700  0.35273200  1
  S  S3  1  0.51566200  0.86691100  0.85110000  1
  S  S4  1  0.79748500  0.84750000  0.31402000  1
  S  S5  1  0.04198200  0.34828000  0.81197000  1
  S  S6  1  0.56403100  0.03190500  0.08986500  1
  S  S7  1  0.31551000  0.53216600  0.58784000  1
  S  S8  1  0.28889400  0.85133600  0.31661600  1
  S  S9  1  0.54249900  0.35249100  0.81555900  1
  S  S10  1  0.07251800  0.02599800  0.08709300  1
  S  S11  1  0.81414500  0.52733500  0.58577000  1
  S  S12  1  0.08600100  0.52225800  0.05543400  1
  S  S13  1  0.33557200  0.02407500  0.55452800  1
  S  S14  1  0.27667500  0.35446200  0.34735300  1
  S  S15  1  0.02061000  0.85662400  0.84654500  1
loop_
_geom_bond_atom_site_label_1
_geom_bond_atom_site_label_2
_geom_bond_distance
_geom_bond_site_symmetry_2
Fe0 S3 2.305889 1_545
Fe0 S12 2.338065 1_556
Fe0 S10 2.399502 1_556
Fe0 S5 2.417697 1_555
Fe0 S9 2.420525 1_555
Fe0 S6 2.446782 1_556
Fe1 S2 2.298013 1_555
Fe1 S13 2.342880 1_565
Fe1 S11 2.394282 1_555
Fe1 S8 2.401923 1_555
Fe1 S4 2.413862 1_555
Fe1 S7 2.420561 1_555
Fe2 S1 2.300748 1_465
Fe2 S14 2.348152 1_555
Fe2 S4 2.399213 1_455
Fe2 S11 2.406104 1_455
Fe2 S7 2.409741 1_555
Fe2 S8 2.410726 1_555
Fe3 S0 2.303621 1_556
Fe3 S15 2.346986 1_645
Fe3 S10 2.408664 1_656
Fe3 S5 2.409146 1_655
Fe3 S9 2.430001 1_555
Fe3 S6 2.434296 1_556
Mo0 S2 2.370145 1_555
Mo0 S0 2.393200 1_555
Mo0 S14 2.408994 1_555
Mo0 S10 2.503344 1_655
Mo0 S6 2.557377 1_555
Mo0 S4 2.578327 1_545
Mo1 S3 2.376824 1_555
Mo1 S1 2.392798 1_565
Mo1 S15 2.405494 1_655
Mo1 S11 2.507903 1_555
Mo1 S7 2.560346 1_655
Mo1 S5 2.577093 1_655
Mo2 S0 2.376462 1_555
Mo2 S2 2.394362 1_555
Mo2 S12 2.405510 1_655
Mo2 S8 2.513508 1_555
Mo2 S4 2.546601 1_555
Mo2 S6 2.580792 1_565
Mo3 S1 2.373130 1_555
Mo3 S3 2.394790 1_545
Mo3 S13 2.405806 1_555
Mo3 S9 2.507250 1_555
Mo3 S5 2.553118 1_555
Mo3 S7 2.580704 1_555
Mo4 S0 2.371423 1_555
Mo4 S14 2.375954 1_555
Mo4 S12 2.397012 1_555
Mo4 S8 2.514540 1_555
Mo4 S4 2.568078 1_455
Mo4 S10 2.596741 1_565
Mo5 S1 2.366456 1_555
Mo5 S15 2.378569 1_645
Mo5 S13 2.401921 1_655
Mo5 S9 2.511469 1_555
Mo5 S5 2.565184 1_655
Mo5 S11 2.594454 1_555
Mo6 S2 2.368128 1_455
Mo6 S12 2.380080 1_555
Mo6 S14 2.400914 1_555
Mo6 S10 2.504811 1_555
Mo6 S6 2.565082 1_555
Mo6 S8 2.595790 1_545
Mo7 S3 2.369380 1_555
Mo7 S13 2.376164 1_565
Mo7 S15 2.399881 1_555
Mo7 S11 2.514255 1_555
Mo7 S7 2.563036 1_555
Mo7 S9 2.600469 1_555
