# generated using pymatgen
data_Ca4TiN4
_symmetry_space_group_name_H-M   'P 1'
_cell_length_a   5.98416738
_cell_length_b   6.02358300
_cell_length_c   8.97972950
_cell_angle_alpha   71.67327669
_cell_angle_beta   79.46258877
_cell_angle_gamma   68.01418844
_symmetry_Int_Tables_number   1
_chemical_formula_structural   Ca4TiN4
_chemical_formula_sum   'Ca8 Ti2 N8'
_cell_volume   284.13965142
_cell_formula_units_Z   2
loop_
 _symmetry_equiv_pos_site_id
 _symmetry_equiv_pos_as_xyz
  1  'x, y, z'
loop_
 _atom_site_type_symbol
 _atom_site_label
 _atom_site_symmetry_multiplicity
 _atom_site_fract_x
 _atom_site_fract_y
 _atom_site_fract_z
 _atom_site_occupancy
  Ca  Ca0  1  0.23534515  0.95451874  0.60717960  1
  Ca  Ca1  1  0.77408415  0.57770167  0.17626194  1
  Ca  Ca2  1  0.73752813  0.22872504  0.98085612  1
  Ca  Ca3  1  0.27111296  0.51939776  0.42711726  1
  Ca  Ca4  1  0.76465485  0.04548126  0.39282040  1
  Ca  Ca5  1  0.22591585  0.42229833  0.82373806  1
  Ca  Ca6  1  0.72888704  0.48060224  0.57288274  1
  Ca  Ca7  1  0.26247187  0.77127496  0.01914388  1
  Ti  Ti0  1  0.71582131  0.84793307  0.75598347  1
  Ti  Ti1  1  0.28417869  0.15206693  0.24401653  1
  N  N0  1  0.97040895  0.70874663  0.60939605  1
  N  N1  1  0.51213063  0.17588115  0.63693536  1
  N  N2  1  0.02959105  0.29125337  0.39060395  1
  N  N3  1  0.51832594  0.63469434  0.80402962  1
  N  N4  1  0.11617452  0.16841184  0.07320792  1
  N  N5  1  0.48786937  0.82411885  0.36306464  1
  N  N6  1  0.48167406  0.36530566  0.19597038  1
  N  N7  1  0.88382548  0.83158816  0.92679208  1
loop_
_geom_bond_atom_site_label_1
_geom_bond_atom_site_label_2
_geom_bond_distance
_geom_bond_site_symmetry_2
Ca0 N2 2.436713 1_565
Ca0 N3 2.492833 1_555
Ca0 N0 2.536329 1_455
Ca0 N1 2.575335 1_565
Ca0 N5 2.586165 1_555
Ca1 N7 2.418236 1_554
Ca1 N2 2.456037 1_655
Ca1 N6 2.480048 1_555
Ca1 N5 2.561630 1_555
Ca1 N4 2.843969 1_655
Ca2 N6 2.393092 1_556
Ca2 N7 2.394051 1_545
Ca2 N4 2.415654 1_656
Ca2 N3 2.477912 1_555
Ca3 N0 2.403768 1_455
Ca3 N2 2.455370 1_555
Ca3 N6 2.477249 1_555
Ca3 N1 2.493850 1_555
Ca3 N5 2.495655 1_555
Ca4 N0 2.436713 1_545
Ca4 N6 2.492833 1_555
Ca4 N2 2.536329 1_655
Ca4 N5 2.575335 1_545
Ca4 N1 2.586165 1_555
Ca5 N4 2.418236 1_556
Ca5 N0 2.456037 1_455
Ca5 N3 2.480048 1_555
Ca5 N1 2.561630 1_555
Ca5 N7 2.843969 1_455
Ca6 N2 2.403768 1_655
Ca6 N0 2.455370 1_555
Ca6 N3 2.477249 1_555
Ca6 N5 2.493850 1_555
Ca6 N1 2.495655 1_555
Ca7 N3 2.393092 1_554
Ca7 N4 2.394051 1_565
Ca7 N7 2.415654 1_454
Ca7 N6 2.477912 1_555
N0 Ti0 1.939276 1_555
N1 Ti0 1.968888 1_545
N2 Ti1 1.939276 1_555
N3 Ti0 1.958156 1_555
N4 Ti1 1.941126 1_555
N5 Ti1 1.968888 1_565
N6 Ti1 1.958156 1_555
N7 Ti0 1.941126 1_555
