# generated using pymatgen
data_LiSn2(PO4)3
_symmetry_space_group_name_H-M   'P 1'
_cell_length_a   8.42312857
_cell_length_b   8.45040255
_cell_length_c   8.88471783
_cell_angle_alpha   118.09681889
_cell_angle_beta   90.32945604
_cell_angle_gamma   119.47336587
_symmetry_Int_Tables_number   1
_chemical_formula_structural   LiSn2(PO4)3
_chemical_formula_sum   'Li2 Sn4 P6 O24'
_cell_volume   461.87710734
_cell_formula_units_Z   2
loop_
 _symmetry_equiv_pos_site_id
 _symmetry_equiv_pos_as_xyz
  1  'x, y, z'
loop_
 _atom_site_type_symbol
 _atom_site_label
 _atom_site_symmetry_multiplicity
 _atom_site_fract_x
 _atom_site_fract_y
 _atom_site_fract_z
 _atom_site_occupancy
  Li  Li0  1  0.77410695  0.24686406  0.42690906  1
  Li  Li1  1  0.22589305  0.75313594  0.57309094  1
  Sn  Sn0  1  0.64348198  0.79216528  0.43937612  1
  Sn  Sn1  1  0.86503707  0.21036304  0.06915863  1
  Sn  Sn2  1  0.13496293  0.78963696  0.93084137  1
  Sn  Sn3  1  0.35651802  0.20783472  0.56062388  1
  P  P0  1  0.03886838  0.00726189  0.75296758  1
  P  P1  1  0.46220252  0.71736067  0.74836375  1
  P  P2  1  0.96113162  0.99273811  0.24703242  1
  P  P3  1  0.53779748  0.28263933  0.25163625  1
  P  P4  1  0.74943487  0.29061201  0.74646038  1
  P  P5  1  0.25056513  0.70938799  0.25353962  1
  O  O0  1  0.25674468  0.88445776  0.43074934  1
  O  O1  1  0.83134283  0.83858473  0.30057187  1
  O  O2  1  0.88318192  0.12552308  0.24917190  1
  O  O3  1  0.73658220  0.33707970  0.23377777  1
  O  O4  1  0.38063900  0.08680488  0.07794639  1
  O  O5  1  0.74325532  0.11554224  0.56925066  1
  O  O6  1  0.26341780  0.66292030  0.76622223  1
  O  O7  1  0.16460080  0.15445124  0.37601800  1
  O  O8  1  0.61936100  0.91319512  0.92205361  1
  O  O9  1  0.55208908  0.25320488  0.73678297  1
  O  O10  1  0.96079022  0.86114343  0.05718614  1
  O  O11  1  0.03920978  0.13885657  0.94281386  1
  O  O12  1  0.83539920  0.84554876  0.62398200  1
  O  O13  1  0.44791092  0.74679512  0.26321703  1
  O  O14  1  0.16865717  0.16141527  0.69942813  1
  O  O15  1  0.11085413  0.50242406  0.24876187  1
  O  O16  1  0.47806573  0.52877982  0.69408697  1
  O  O17  1  0.46843765  0.76552298  0.59905727  1
  O  O18  1  0.88914587  0.49757594  0.75123813  1
  O  O19  1  0.11681808  0.87447692  0.75082810  1
  O  O20  1  0.52193427  0.47122018  0.30591303  1
  O  O21  1  0.53156235  0.23447702  0.40094273  1
  O  O22  1  0.81806954  0.29720366  0.90714500  1
  O  O23  1  0.18193046  0.70279634  0.09285500  1
loop_
_geom_bond_atom_site_label_1
_geom_bond_atom_site_label_2
_geom_bond_distance
_geom_bond_site_symmetry_2
Li0 O2 1.951343 1_555
Li0 O5 1.985023 1_555
Li0 O21 1.999841 1_555
Li0 O3 2.255775 1_555
Li0 O18 2.434804 1_555
Li1 O19 1.951343 1_555
Li1 O0 1.985023 1_555
Li1 O17 1.999841 1_555
Li1 O6 2.255775 1_555
Li1 O15 2.434804 1_555
O0 P5 1.549053 1_555
O0 Sn3 2.064966 1_565
O1 P2 1.518755 1_555
O1 Sn0 2.011457 1_555
O2 P2 1.547763 1_545
O2 Sn1 2.068909 1_555
O3 P3 1.534343 1_555
O3 Sn1 2.034606 1_555
O4 P3 1.512524 1_555
O4 Sn2 2.015029 1_544
O5 P4 1.549053 1_555
O5 Sn0 2.064966 1_545
O6 P1 1.534343 1_555
O6 Sn2 2.034606 1_555
O7 P2 1.521732 1_445
O7 Sn3 2.015403 1_555
O8 P1 1.512524 1_555
O8 Sn1 2.015029 1_566
O9 P4 1.525170 1_555
O9 Sn3 2.023341 1_555
O10 P2 1.520431 1_555
O10 Sn2 2.007464 1_654
O11 P0 1.520431 1_555
O11 Sn1 2.007464 1_456
O12 P0 1.521732 1_665
O12 Sn0 2.015403 1_555
O13 P5 1.525170 1_555
O13 Sn0 2.023341 1_555
O14 P0 1.518755 1_555
O14 Sn3 2.011457 1_555
O15 P5 1.532848 1_555
O15 Sn1 2.036786 1_455
O16 P1 1.508753 1_555
O16 Sn3 2.008555 1_555
O17 P1 1.554487 1_555
O17 Sn0 2.058067 1_555
O18 P4 1.532848 1_555
O18 Sn2 2.036786 1_655
O19 P0 1.547763 1_565
O19 Sn2 2.068909 1_555
O20 P3 1.508753 1_555
O20 Sn0 2.008555 1_555
O21 P3 1.554487 1_555
O21 Sn3 2.058067 1_555
O22 P4 1.503126 1_555
O22 Sn1 2.010259 1_556
O23 P5 1.503126 1_555
O23 Sn2 2.010259 1_554
