# generated using pymatgen
data_SiNi2(P2O7)2
_symmetry_space_group_name_H-M   'P 1'
_cell_length_a   8.88591993
_cell_length_b   8.88591993
_cell_length_c   12.34018390
_cell_angle_alpha   76.95620553
_cell_angle_beta   76.95620553
_cell_angle_gamma   32.50807014
_symmetry_Int_Tables_number   1
_chemical_formula_structural   SiNi2(P2O7)2
_chemical_formula_sum   'Si2 Ni4 P8 O28'
_cell_volume   508.97115190
_cell_formula_units_Z   2
loop_
 _symmetry_equiv_pos_site_id
 _symmetry_equiv_pos_as_xyz
  1  'x, y, z'
loop_
 _atom_site_type_symbol
 _atom_site_label
 _atom_site_symmetry_multiplicity
 _atom_site_fract_x
 _atom_site_fract_y
 _atom_site_fract_z
 _atom_site_occupancy
  Si  Si0  1  0.65934400  0.34065600  0.75000000  1
  Si  Si1  1  0.34065600  0.65934400  0.25000000  1
  Ni  Ni0  1  0.89770300  0.59739100  0.37100400  1
  Ni  Ni1  1  0.40260900  0.10229700  0.12899600  1
  Ni  Ni2  1  0.59739100  0.89770300  0.87100400  1
  Ni  Ni3  1  0.10229700  0.40260900  0.62899600  1
  P  P0  1  0.99429300  0.25885600  0.86354300  1
  P  P1  1  0.19800300  0.52946700  0.91612400  1
  P  P2  1  0.00570700  0.74114400  0.13645700  1
  P  P3  1  0.47053300  0.80199700  0.58387600  1
  P  P4  1  0.25885600  0.99429300  0.36354300  1
  P  P5  1  0.52946700  0.19800300  0.41612400  1
  P  P6  1  0.74114400  0.00570700  0.63645700  1
  P  P7  1  0.80199700  0.47053300  0.08387600  1
  O  O0  1  0.80563900  0.10318900  0.67773500  1
  O  O1  1  0.62314600  0.18696300  0.51849200  1
  O  O2  1  0.10318900  0.80563900  0.17773500  1
  O  O3  1  0.69835400  0.01350100  0.12050100  1
  O  O4  1  0.30164600  0.98649900  0.87949900  1
  O  O5  1  0.46797200  0.40463200  0.33233900  1
  O  O6  1  0.19436100  0.89681100  0.32226500  1
  O  O7  1  0.49777600  0.89083900  0.29293700  1
  O  O8  1  0.40463200  0.46797200  0.83233900  1
  O  O9  1  0.89083900  0.49777600  0.79293700  1
  O  O10  1  0.81303700  0.37685400  0.98150800  1
  O  O11  1  0.91780800  0.77216100  0.86815100  1
  O  O12  1  0.77216100  0.91780800  0.36815100  1
  O  O13  1  0.01350100  0.69835400  0.62050100  1
  O  O14  1  0.26098700  0.32978900  0.45558500  1
  O  O15  1  0.22783900  0.08219200  0.63184900  1
  O  O16  1  0.98649900  0.30164600  0.37949900  1
  O  O17  1  0.32978900  0.26098700  0.95558500  1
  O  O18  1  0.37685400  0.81303700  0.48150800  1
  O  O19  1  0.08219200  0.22783900  0.13184900  1
  O  O20  1  0.10916100  0.50222400  0.20706300  1
  O  O21  1  0.73901300  0.67021100  0.54441500  1
  O  O22  1  0.50222400  0.10916100  0.70706300  1
  O  O23  1  0.59536800  0.53202800  0.16766100  1
  O  O24  1  0.89681100  0.19436100  0.82226500  1
  O  O25  1  0.18696300  0.62314600  0.01849200  1
  O  O26  1  0.53202800  0.59536800  0.66766100  1
  O  O27  1  0.67021100  0.73901300  0.04441500  1
loop_
_geom_bond_atom_site_label_1
_geom_bond_atom_site_label_2
_geom_bond_distance
_geom_bond_site_symmetry_2
Ni0 O16 1.988827 1_555
Ni0 O12 1.991892 1_555
Ni0 O14 2.149023 1_655
Ni0 O21 2.170340 1_555
Ni0 O20 2.171377 1_655
Ni0 O7 2.266841 1_555
Ni1 O3 1.988827 1_555
Ni1 O19 1.991892 1_555
Ni1 O27 2.149023 1_545
Ni1 O17 2.170340 1_554
Ni1 O7 2.171377 1_545
Ni1 O20 2.266841 1_555
Ni2 O4 1.988827 1_555
Ni2 O11 1.991892 1_555
Ni2 O17 2.149023 1_565
Ni2 O27 2.170340 1_556
Ni2 O22 2.171377 1_565
Ni2 O9 2.266841 1_555
Ni3 O13 1.988827 1_555
Ni3 O15 1.991892 1_555
Ni3 O21 2.149023 1_455
Ni3 O14 2.170340 1_555
Ni3 O9 2.171377 1_455
Ni3 O22 2.266841 1_555
O0 P6 1.583183 1_555
O0 Si0 1.623972 1_555
O1 P5 1.606026 1_555
O1 P6 1.610871 1_555
O2 P2 1.583183 1_555
O2 Si1 1.623972 1_555
O3 P2 1.494784 1_645
O4 P0 1.494784 1_465
O5 P5 1.563558 1_555
O5 Si1 1.611554 1_555
O6 P4 1.583183 1_555
O6 Si1 1.623972 1_555
O7 P4 1.531765 1_555
O8 P1 1.563558 1_555
O8 Si0 1.611554 1_555
O9 P0 1.531765 1_555
O10 P7 1.606026 1_556
O10 P0 1.610871 1_555
O11 P1 1.494370 1_655
O12 P5 1.494370 1_565
O13 P6 1.494784 1_465
O14 P5 1.523478 1_555
O15 P3 1.494370 1_545
O16 P4 1.494784 1_645
O17 P1 1.523478 1_555
O18 P3 1.606026 1_555
O18 P4 1.610871 1_555
O19 P7 1.494370 1_455
O20 P2 1.531765 1_555
O21 P3 1.523478 1_555
O22 P6 1.531765 1_555
O23 P7 1.563558 1_555
O23 Si1 1.611554 1_555
O24 P0 1.583183 1_555
O24 Si0 1.623972 1_555
O25 P1 1.606026 1_554
O25 P2 1.610871 1_555
O26 P3 1.563558 1_555
O26 Si0 1.611554 1_555
O27 P7 1.523478 1_555
