# generated using pymatgen
data_Pr6Ti2S7O6
_symmetry_space_group_name_H-M   'P 1'
_cell_length_a   3.93272500
_cell_length_b   12.14015200
_cell_length_c   16.68130846
_cell_angle_alpha   82.27334884
_cell_angle_beta   90.00000000
_cell_angle_gamma   90.00000000
_symmetry_Int_Tables_number   1
_chemical_formula_structural   Pr6Ti2S7O6
_chemical_formula_sum   'Pr12 Ti4 S14 O12'
_cell_volume   789.19940154
_cell_formula_units_Z   2
loop_
 _symmetry_equiv_pos_site_id
 _symmetry_equiv_pos_as_xyz
  1  'x, y, z'
loop_
 _atom_site_type_symbol
 _atom_site_label
 _atom_site_symmetry_multiplicity
 _atom_site_fract_x
 _atom_site_fract_y
 _atom_site_fract_z
 _atom_site_occupancy
  Pr  Pr0  1  0.75000000  0.40634700  0.11920600  1
  Pr  Pr1  1  0.25000000  0.93582300  0.89157000  1
  Pr  Pr2  1  0.25000000  0.59365300  0.88079400  1
  Pr  Pr3  1  0.25000000  0.28114600  0.87652400  1
  Pr  Pr4  1  0.75000000  0.02399500  0.37585000  1
  Pr  Pr5  1  0.25000000  0.52594500  0.29092100  1
  Pr  Pr6  1  0.25000000  0.32206800  0.52719500  1
  Pr  Pr7  1  0.75000000  0.71885400  0.12347600  1
  Pr  Pr8  1  0.75000000  0.67793200  0.47280500  1
  Pr  Pr9  1  0.75000000  0.06417700  0.10843000  1
  Pr  Pr10  1  0.75000000  0.47405500  0.70907900  1
  Pr  Pr11  1  0.25000000  0.97600500  0.62415000  1
  Ti  Ti0  1  0.25000000  0.22186500  0.23553800  1
  Ti  Ti1  1  0.75000000  0.20333200  0.68728300  1
  Ti  Ti2  1  0.25000000  0.79666800  0.31271700  1
  Ti  Ti3  1  0.75000000  0.77813500  0.76446200  1
  S  S0  1  0.25000000  0.20273600  0.37427300  1
  S  S1  1  0.75000000  0.44751400  0.42006800  1
  S  S2  1  0.75000000  0.11584200  0.53708500  1
  S  S3  1  0.25000000  0.00311500  0.24481000  1
  S  S4  1  0.25000000  0.55248600  0.57993200  1
  S  S5  1  0.75000000  0.09887000  0.93246700  1
  S  S6  1  0.25000000  0.57870600  0.05873700  1
  S  S7  1  0.25000000  0.90113000  0.06753300  1
  S  S8  1  0.75000000  0.76637100  0.92902000  1
  S  S9  1  0.75000000  0.79726400  0.62572700  1
  S  S10  1  0.75000000  0.99688500  0.75519000  1
  S  S11  1  0.25000000  0.88415800  0.46291500  1
  S  S12  1  0.75000000  0.42129400  0.94126300  1
  S  S13  1  0.25000000  0.23362900  0.07098000  1
  O  O0  1  0.25000000  0.18059000  0.67125400  1
  O  O1  1  0.75000000  0.62813500  0.78917200  1
  O  O2  1  0.25000000  0.79427800  0.78286800  1
  O  O3  1  0.25000000  0.45172000  0.78613100  1
  O  O4  1  0.75000000  0.33288100  0.61429100  1
  O  O5  1  0.75000000  0.54828000  0.21386900  1
  O  O6  1  0.25000000  0.66711900  0.38570900  1
  O  O7  1  0.75000000  0.27293200  0.77704700  1
  O  O8  1  0.25000000  0.72706800  0.22295300  1
  O  O9  1  0.25000000  0.37186500  0.21082800  1
  O  O10  1  0.75000000  0.81941000  0.32874600  1
  O  O11  1  0.75000000  0.20572200  0.21713200  1
loop_
_geom_bond_atom_site_label_1
_geom_bond_atom_site_label_2
_geom_bond_distance
_geom_bond_site_symmetry_2
Pr0 S6 2.948715 1_555
Pr0 S6 2.948715 1_655
Pr0 S12 2.949412 1_554
Pr0 S13 3.060066 1_555
Pr0 S13 3.060066 1_655
Pr1 S8 2.853637 1_455
Pr1 S8 2.853637 1_555
Pr1 S7 2.908764 1_556
Pr1 S5 2.934825 1_565
Pr1 S5 2.934825 1_465
Pr1 S10 3.022952 1_555
Pr1 S10 3.022952 1_455
Pr2 S12 2.948715 1_555
Pr2 S12 2.948715 1_455
Pr2 S6 2.949412 1_556
Pr2 S8 3.060066 1_455
Pr2 S8 3.060066 1_555
Pr3 S12 2.902021 1_455
Pr3 S12 2.902021 1_555
Pr3 S5 3.013123 1_555
Pr3 S5 3.013123 1_455
Pr3 S13 3.217409 1_556
Pr4 S11 2.862679 1_645
Pr4 S11 2.862679 1_545
Pr4 S0 2.925846 1_655
Pr4 S0 2.925846 1_555
Pr4 S3 2.976251 1_555
Pr4 S3 2.976251 1_655
Pr4 S2 3.046921 1_555
Pr5 S1 2.977046 1_555
Pr5 S1 2.977046 1_455
Pr6 S1 2.940671 1_455
Pr6 S1 2.940671 1_555
Pr6 S4 3.043117 1_555
Pr6 S0 3.098349 1_555
Pr6 S2 3.170303 1_555
Pr6 S2 3.170303 1_455
Pr7 S6 2.902021 1_555
Pr7 S6 2.902021 1_655
Pr7 S7 3.013123 1_555
Pr7 S7 3.013123 1_655
Pr7 S8 3.217409 1_554
Pr8 S4 2.940671 1_655
Pr8 S4 2.940671 1_555
Pr8 S1 3.043117 1_555
Pr8 S9 3.098349 1_555
Pr8 S11 3.170303 1_655
Pr8 S11 3.170303 1_555
Pr9 S13 2.853637 1_555
Pr9 S13 2.853637 1_655
Pr9 S5 2.908764 1_554
Pr9 S7 2.934825 1_645
Pr9 S7 2.934825 1_545
Pr9 S3 3.022952 1_655
Pr9 S3 3.022952 1_555
Pr10 S4 2.977046 1_655
Pr10 S4 2.977046 1_555
Pr11 S2 2.862679 1_465
Pr11 S2 2.862679 1_565
Pr11 S9 2.925846 1_555
Pr11 S9 2.925846 1_455
Pr11 S10 2.976251 1_455
Pr11 S10 2.976251 1_555
Pr11 S11 3.046921 1_555
S0 Ti0 2.294627 1_555
S2 Ti1 2.849781 1_555
S3 Ti2 2.607931 1_545
S3 Ti0 2.639317 1_555
S8 Ti3 2.729513 1_555
S9 Ti3 2.294627 1_555
S10 Ti1 2.607931 1_565
S10 Ti3 2.639317 1_555
S11 Ti2 2.849781 1_555
S13 Ti0 2.729513 1_555
O0 Ti1 2.008520 1_555
O0 Ti1 2.008520 1_455
O0 Pr11 2.703870 1_545
O0 Pr6 2.759534 1_555
O1 Ti3 1.812234 1_555
O1 Pr10 2.440498 1_555
O1 Pr2 2.491127 1_555
O1 Pr2 2.491127 1_655
O2 Ti3 2.003856 1_555
O2 Ti3 2.003856 1_455
O2 Pr1 2.660583 1_555
O2 Pr2 2.744235 1_555
O2 Pr11 3.210381 1_555
O3 Pr10 2.344879 1_555
O3 Pr10 2.344879 1_455
O3 Pr3 2.392123 1_555
O3 Pr2 2.488823 1_555
O4 Ti1 1.855035 1_555
O4 Pr6 2.458850 1_655
O4 Pr6 2.458850 1_555
O4 Pr10 2.483186 1_555
O5 Pr5 2.344879 1_555
O5 Pr5 2.344879 1_655
O5 Pr7 2.392123 1_555
O5 Pr0 2.488823 1_555
O6 Ti2 1.855035 1_555
O6 Pr8 2.458850 1_555
O6 Pr8 2.458850 1_455
O6 Pr5 2.483186 1_555
O7 Ti1 1.815574 1_555
O7 Pr10 2.550063 1_555
O7 Pr3 2.583535 1_555
O7 Pr3 2.583535 1_655
O8 Ti2 1.815574 1_555
O8 Pr5 2.550063 1_555
O8 Pr7 2.583535 1_455
O8 Pr7 2.583535 1_555
O9 Ti0 1.812234 1_555
O9 Pr5 2.440498 1_555
O9 Pr0 2.491127 1_555
O9 Pr0 2.491127 1_455
O10 Ti2 2.008520 1_655
O10 Ti2 2.008520 1_555
O10 Pr4 2.703870 1_565
O10 Pr8 2.759534 1_555
O11 Ti0 2.003856 1_555
O11 Ti0 2.003856 1_655
O11 Pr9 2.660583 1_555
O11 Pr0 2.744235 1_555
O11 Pr4 3.210381 1_555
