# generated using pymatgen
data_In5Se5Cl
_symmetry_space_group_name_H-M   'P 1'
_cell_length_a   4.17703300
_cell_length_b   9.39284800
_cell_length_c   15.65610320
_cell_angle_alpha   87.11695217
_cell_angle_beta   90.00000000
_cell_angle_gamma   90.00000000
_symmetry_Int_Tables_number   1
_chemical_formula_structural   In5Se5Cl
_chemical_formula_sum   'In10 Se10 Cl2'
_cell_volume   613.47777526
_cell_formula_units_Z   2
loop_
 _symmetry_equiv_pos_site_id
 _symmetry_equiv_pos_as_xyz
  1  'x, y, z'
loop_
 _atom_site_type_symbol
 _atom_site_label
 _atom_site_symmetry_multiplicity
 _atom_site_fract_x
 _atom_site_fract_y
 _atom_site_fract_z
 _atom_site_occupancy
  In  In0  1  0.75000000  0.23227900  0.70832700  1
  In  In1  1  0.25000000  0.39250500  0.14378200  1
  In  In2  1  0.25000000  0.04876400  0.34852800  1
  In  In3  1  0.75000000  0.60749500  0.85621800  1
  In  In4  1  0.75000000  0.95123600  0.65147200  1
  In  In5  1  0.25000000  0.76772100  0.29167300  1
  In  In6  1  0.75000000  0.87006500  0.06328000  1
  In  In7  1  0.25000000  0.66116400  0.55406000  1
  In  In8  1  0.75000000  0.33883600  0.44594000  1
  In  In9  1  0.25000000  0.12993500  0.93672000  1
  Se  Se0  1  0.75000000  0.67955200  0.19564300  1
  Se  Se1  1  0.25000000  0.04106000  0.10333000  1
  Se  Se2  1  0.75000000  0.46725900  0.60243100  1
  Se  Se3  1  0.25000000  0.32044800  0.80435700  1
  Se  Se4  1  0.75000000  0.95894000  0.89667000  1
  Se  Se5  1  0.25000000  0.16343900  0.50147600  1
  Se  Se6  1  0.75000000  0.21111200  0.28968400  1
  Se  Se7  1  0.75000000  0.83656100  0.49852400  1
  Se  Se8  1  0.25000000  0.78888800  0.71031600  1
  Se  Se9  1  0.25000000  0.53274100  0.39756900  1
  Cl  Cl0  1  0.25000000  0.67276200  0.00216600  1
  Cl  Cl1  1  0.75000000  0.32723800  0.99783400  1
loop_
_geom_bond_atom_site_label_1
_geom_bond_atom_site_label_2
_geom_bond_distance
_geom_bond_site_symmetry_2
In0 Se2 2.692958 1_555
In0 Se3 2.726422 1_555
In0 Se3 2.726422 1_655
In2 Se5 2.674625 1_555
In2 Se6 2.719313 1_555
In2 Se6 2.719313 1_455
In4 Se7 2.674625 1_555
In4 Se8 2.719313 1_555
In4 Se8 2.719313 1_655
In5 Se9 2.692958 1_555
In5 Se0 2.726422 1_455
In5 Se0 2.726422 1_555
In6 Se0 2.668991 1_555
In6 Se4 2.698501 1_554
In6 Se1 2.726908 1_665
In6 Se1 2.726908 1_565
In7 Se7 2.772720 1_455
In7 Se7 2.772720 1_555
In7 Se8 2.778340 1_555
In7 Se9 2.784788 1_555
In7 Se2 2.848485 1_455
In7 Se2 2.848485 1_555
In8 Se5 2.772720 1_555
In8 Se5 2.772720 1_655
In8 Se6 2.778340 1_555
In8 Se2 2.784788 1_555
In8 Se9 2.848485 1_655
In8 Se9 2.848485 1_555
In9 Se3 2.668991 1_555
In9 Se1 2.698501 1_556
In9 Se4 2.726908 1_545
In9 Se4 2.726908 1_445
Cl0 In6 2.981651 1_555
Cl0 In6 2.981651 1_455
Cl0 In3 3.178011 1_454
Cl0 In3 3.178011 1_554
Cl1 In9 2.981651 1_655
Cl1 In9 2.981651 1_555
Cl1 In1 3.178011 1_656
Cl1 In1 3.178011 1_556
