# generated using pymatgen
data_Ba3LiOs2O9
_symmetry_space_group_name_H-M   'P 1'
_cell_length_a   5.84527616
_cell_length_b   5.84527508
_cell_length_c   14.09025581
_cell_angle_alpha   89.99998273
_cell_angle_beta   90.00001042
_cell_angle_gamma   120.00002535
_symmetry_Int_Tables_number   1
_chemical_formula_structural   Ba3LiOs2O9
_chemical_formula_sum   'Ba6 Li2 Os4 O18'
_cell_volume   416.92639133
_cell_formula_units_Z   2
loop_
 _symmetry_equiv_pos_site_id
 _symmetry_equiv_pos_as_xyz
  1  'x, y, z'
loop_
 _atom_site_type_symbol
 _atom_site_label
 _atom_site_symmetry_multiplicity
 _atom_site_fract_x
 _atom_site_fract_y
 _atom_site_fract_z
 _atom_site_occupancy
  Ba  Ba0  1  0.00000016  0.00000017  0.24999869  1
  Ba  Ba1  1  0.99999984  0.99999997  0.75003252  1
  Ba  Ba2  1  0.33333290  0.66666672  0.91318278  1
  Ba  Ba3  1  0.66666670  0.33333305  0.41317586  1
  Ba  Ba4  1  0.66666704  0.33333325  0.08677801  1
  Ba  Ba5  1  0.33333296  0.66666685  0.58680501  1
  Li  Li0  1  0.00000000  0.99999998  -0.00000196  1
  Li  Li1  1  0.99999997  0.00000002  0.49998958  1
  Os  Os0  1  0.33333331  0.66666634  0.15996911  1
  Os  Os1  1  0.66666655  0.33333333  0.65999262  1
  Os  Os2  1  0.66666671  0.33333356  0.84002279  1
  Os  Os3  1  0.33333356  0.66666646  0.34001308  1
  O  O0  1  0.49258916  0.98517865  0.25000760  1
  O  O1  1  0.50741988  0.49258047  0.75002714  1
  O  O2  1  0.98516041  0.49258047  0.75002719  1
  O  O3  1  0.01482126  0.50741046  0.25000761  1
  O  O4  1  0.49258895  0.50741028  0.25000764  1
  O  O5  1  0.50741990  0.01483958  0.75002710  1
  O  O6  1  0.17635370  0.35270662  0.41250296  1
  O  O7  1  0.82364186  0.17635838  0.91250922  1
  O  O8  1  0.35271614  0.17635803  0.91250907  1
  O  O9  1  0.64729307  0.82364611  0.41250287  1
  O  O10  1  0.17635364  0.82364649  0.41250305  1
  O  O11  1  0.82364162  0.64728349  0.58748828  1
  O  O12  1  0.82364165  0.17635834  0.58748820  1
  O  O13  1  0.82364188  0.64728386  0.91250912  1
  O  O14  1  0.35271649  0.17635853  0.58748829  1
  O  O15  1  0.64730743  0.82365380  0.08747887  1
  O  O16  1  0.17634668  0.35269306  0.08747892  1
  O  O17  1  0.17634658  0.82365368  0.08747877  1
loop_
_geom_bond_atom_site_label_1
_geom_bond_atom_site_label_2
_geom_bond_distance
_geom_bond_site_symmetry_2
Ba0 O6 2.903567 1_555
Ba0 O9 2.903568 1_445
Ba0 O10 2.903570 1_545
Ba0 O16 2.903696 1_555
Ba0 O15 2.903697 1_445
Ba0 O17 2.903699 1_545
Ba0 O4 2.923596 1_555
Ba0 O3 2.923599 1_555
Ba0 O0 2.923600 1_545
Ba0 O3 2.923602 1_545
Ba0 O0 2.923602 1_445
Ba0 O4 2.923603 1_445
Ba1 O13 2.903289 1_555
Ba1 O8 2.903289 1_665
Ba1 O7 2.903292 1_565
Ba1 O11 2.904042 1_555
Ba1 O14 2.904042 1_665
Ba1 O12 2.904043 1_565
Ba1 O1 2.923600 1_555
Ba1 O2 2.923601 1_555
Ba1 O5 2.923602 1_565
Ba1 O1 2.923604 1_665
Ba1 O2 2.923604 1_565
Ba1 O5 2.923605 1_665
Ba2 O2 2.896788 1_455
Ba2 O5 2.896789 1_565
Ba2 O1 2.896791 1_555
Ba2 O7 2.924297 1_455
Ba2 O13 2.924298 1_455
Ba2 O8 2.924298 1_565
Ba2 O7 2.924300 1_565
Ba2 O8 2.924301 1_555
Ba2 O13 2.924302 1_555
Ba2 O17 2.925314 1_556
Ba2 O16 2.925315 1_556
Ba2 O15 2.925318 1_556
Ba3 O0 2.896874 1_545
Ba3 O3 2.896874 1_655
Ba3 O4 2.896875 1_555
Ba3 O10 2.924296 1_545
Ba3 O6 2.924297 1_555
Ba3 O9 2.924297 1_555
Ba3 O10 2.924298 1_655
Ba3 O9 2.924299 1_545
Ba3 O6 2.924300 1_655
Ba3 O12 2.925441 1_555
Ba3 O14 2.925444 1_555
Ba3 O11 2.925445 1_555
Ba4 O3 2.897559 1_655
Ba4 O0 2.897560 1_545
Ba4 O4 2.897563 1_555
Ba4 O15 2.924295 1_545
Ba4 O16 2.924296 1_655
Ba4 O17 2.924296 1_655
Ba4 O17 2.924296 1_545
Ba4 O15 2.924299 1_555
Ba4 O16 2.924299 1_555
Ba4 O7 2.924927 1_554
Ba4 O13 2.924930 1_554
Ba4 O8 2.924932 1_554
Ba5 O5 2.897532 1_565
Ba5 O2 2.897533 1_455
Ba5 O1 2.897534 1_555
Ba5 O11 2.924299 1_455
Ba5 O12 2.924299 1_455
Ba5 O14 2.924300 1_565
Ba5 O12 2.924300 1_565
Ba5 O14 2.924301 1_555
Ba5 O11 2.924303 1_555
Ba5 O10 2.925344 1_555
Ba5 O6 2.925349 1_555
Ba5 O9 2.925350 1_555
Li0 O15 2.169555 1_455
Li0 O17 2.169556 1_555
Li0 O16 2.169558 1_565
Li0 O13 2.169718 1_454
Li0 O8 2.169718 1_564
Li0 O7 2.169719 1_464
Li1 O6 2.169659 1_655
Li1 O9 2.169662 1_545
Li1 O10 2.169662 1_645
Li1 O11 2.169797 1_545
Li1 O14 2.169798 1_655
Li1 O12 2.169799 1_555
O0 Os3 2.051348 1_555
O0 Os0 2.051637 1_555
O1 Os2 2.051190 1_555
O1 Os1 2.051529 1_555
O2 Os2 2.051189 1_555
O2 Os1 2.051529 1_555
O3 Os3 2.051349 1_555
O3 Os0 2.051636 1_555
O4 Os3 2.051347 1_555
O4 Os0 2.051635 1_555
O5 Os2 2.051191 1_555
O5 Os1 2.051528 1_555
O6 Os3 1.889226 1_555
O7 Os2 1.889160 1_555
O8 Os2 1.889160 1_555
O9 Os3 1.889225 1_555
O10 Os3 1.889229 1_555
O11 Os1 1.889295 1_555
O12 Os1 1.889297 1_555
O13 Os2 1.889159 1_555
O14 Os1 1.889295 1_555
O15 Os0 1.889290 1_555
O16 Os0 1.889286 1_555
O17 Os0 1.889291 1_555
