# generated using pymatgen
data_PuH18C3S3(O2F)9
_symmetry_space_group_name_H-M   'P 1'
_cell_length_a   14.07100407
_cell_length_b   14.07100407
_cell_length_c   7.38538200
_cell_angle_alpha   90.00000000
_cell_angle_beta   90.00000000
_cell_angle_gamma   120.00000032
_symmetry_Int_Tables_number   1
_chemical_formula_structural   PuH18C3S3(O2F)9
_chemical_formula_sum   'Pu2 H36 C6 S6 O36 F18'
_cell_volume   1266.35004782
_cell_formula_units_Z   2
loop_
 _symmetry_equiv_pos_site_id
 _symmetry_equiv_pos_as_xyz
  1  'x, y, z'
loop_
 _atom_site_type_symbol
 _atom_site_label
 _atom_site_symmetry_multiplicity
 _atom_site_fract_x
 _atom_site_fract_y
 _atom_site_fract_z
 _atom_site_occupancy
  Pu  Pu0  1  0.33333300  0.66666700  0.75000000  1
  Pu  Pu1  1  0.66666700  0.33333300  0.25000000  1
  H  H0  1  0.09799100  0.45519500  0.64248700  1
  H  H1  1  0.64279600  0.09799100  0.14248700  1
  H  H2  1  0.45519500  0.35720400  0.14248700  1
  H  H3  1  0.54480500  0.64279600  0.64248700  1
  H  H4  1  0.35720400  0.90200900  0.64248700  1
  H  H5  1  0.90200900  0.54480500  0.14248700  1
  H  H6  1  0.90200900  0.54480500  0.35751300  1
  H  H7  1  0.35720400  0.90200900  0.85751300  1
  H  H8  1  0.54480500  0.64279600  0.85751300  1
  H  H9  1  0.45519500  0.35720400  0.35751300  1
  H  H10  1  0.64279600  0.09799100  0.35751300  1
  H  H11  1  0.09799100  0.45519500  0.85751300  1
  H  H12  1  0.27557700  0.50646300  0.42133500  1
  H  H13  1  0.76911400  0.27557700  0.92133500  1
  H  H14  1  0.50646300  0.23088600  0.92133500  1
  H  H15  1  0.49353700  0.76911400  0.42133500  1
  H  H16  1  0.23088600  0.72442300  0.42133500  1
  H  H17  1  0.72442300  0.49353700  0.92133500  1
  H  H18  1  0.72442300  0.49353700  0.57866500  1
  H  H19  1  0.23088600  0.72442300  0.07866500  1
  H  H20  1  0.49353700  0.76911400  0.07866500  1
  H  H21  1  0.50646300  0.23088600  0.57866500  1
  H  H22  1  0.76911400  0.27557700  0.57866500  1
  H  H23  1  0.27557700  0.50646300  0.07866500  1
  H  H24  1  0.36292700  0.49286400  0.53507600  1
  H  H25  1  0.87006300  0.36292700  0.03507600  1
  H  H26  1  0.49286400  0.12993700  0.03507600  1
  H  H27  1  0.50713600  0.87006300  0.53507600  1
  H  H28  1  0.12993700  0.63707300  0.53507600  1
  H  H29  1  0.63707300  0.50713600  0.03507600  1
  H  H30  1  0.63707300  0.50713600  0.46492400  1
  H  H31  1  0.12993700  0.63707300  0.96492400  1
  H  H32  1  0.50713600  0.87006300  0.96492400  1
  H  H33  1  0.49286400  0.12993700  0.46492400  1
  H  H34  1  0.87006300  0.36292700  0.46492400  1
  H  H35  1  0.36292700  0.49286400  0.96492400  1
  C  C0  1  0.00587700  0.22912700  0.25000000  1
  C  C1  1  0.77675000  0.00587700  0.75000000  1
  C  C2  1  0.22912700  0.22325000  0.75000000  1
  C  C3  1  0.77087300  0.77675000  0.25000000  1
  C  C4  1  0.22325000  0.99412300  0.25000000  1
  C  C5  1  0.99412300  0.77087300  0.75000000  1
  S  S0  1  0.05845900  0.38036300  0.25000000  1
  S  S1  1  0.67809600  0.05845900  0.75000000  1
  S  S2  1  0.38036300  0.32190400  0.75000000  1
  S  S3  1  0.61963700  0.67809600  0.25000000  1
  S  S4  1  0.32190400  0.94154100  0.25000000  1
  S  S5  1  0.94154100  0.61963700  0.75000000  1
  O  O0  1  0.14264200  0.49132500  0.75000000  1
  O  O1  1  0.65131700  0.14264200  0.25000000  1
  O  O2  1  0.49132500  0.34868300  0.25000000  1
  O  O3  1  0.50867500  0.65131700  0.75000000  1
  O  O4  1  0.34868300  0.85735800  0.75000000  1
  O  O5  1  0.85735800  0.50867500  0.25000000  1
  O  O6  1  0.33689200  0.54451000  0.50737200  1
  O  O7  1  0.79238200  0.33689200  0.00737200  1
  O  O8  1  0.54451000  0.20761800  0.00737200  1
  O  O9  1  0.45549000  0.79238200  0.50737200  1
  O  O10  1  0.20761800  0.66310800  0.50737200  1
  O  O11  1  0.66310800  0.45549000  0.00737200  1
  O  O12  1  0.66310800  0.45549000  0.49262800  1
  O  O13  1  0.20761800  0.66310800  0.99262800  1
  O  O14  1  0.45549000  0.79238200  0.99262800  1
  O  O15  1  0.54451000  0.20761800  0.49262800  1
  O  O16  1  0.79238200  0.33689200  0.49262800  1
  O  O17  1  0.33689200  0.54451000  0.99262800  1
  O  O18  1  0.01465100  0.39937400  0.41750300  1
  O  O19  1  0.61527600  0.01465100  0.91750300  1
  O  O20  1  0.39937400  0.38472400  0.91750300  1
  O  O21  1  0.60062600  0.61527600  0.41750300  1
  O  O22  1  0.38472400  0.98534900  0.41750300  1
  O  O23  1  0.98534900  0.60062600  0.91750300  1
  O  O24  1  0.98534900  0.60062600  0.58249700  1
  O  O25  1  0.38472400  0.98534900  0.08249700  1
  O  O26  1  0.60062600  0.61527600  0.08249700  1
  O  O27  1  0.39937400  0.38472400  0.58249700  1
  O  O28  1  0.61527600  0.01465100  0.58249700  1
  O  O29  1  0.01465100  0.39937400  0.08249700  1
  O  O30  1  0.17814600  0.42919000  0.25000000  1
  O  O31  1  0.74895600  0.17814600  0.75000000  1
  O  O32  1  0.42919000  0.25104400  0.75000000  1
  O  O33  1  0.57081000  0.74895600  0.25000000  1
  O  O34  1  0.25104400  0.82185400  0.25000000  1
  O  O35  1  0.82185400  0.57081000  0.75000000  1
  F  F0  1  0.04131500  0.20027100  0.39875000  1
  F  F1  1  0.84104400  0.04131500  0.89875000  1
  F  F2  1  0.20027100  0.15895600  0.89875000  1
  F  F3  1  0.79972900  0.84104400  0.39875000  1
  F  F4  1  0.15895600  0.95868500  0.39875000  1
  F  F5  1  0.95868500  0.79972900  0.89875000  1
  F  F6  1  0.95868500  0.79972900  0.60125000  1
  F  F7  1  0.15895600  0.95868500  0.10125000  1
  F  F8  1  0.79972900  0.84104400  0.10125000  1
  F  F9  1  0.20027100  0.15895600  0.60125000  1
  F  F10  1  0.84104400  0.04131500  0.60125000  1
  F  F11  1  0.04131500  0.20027100  0.10125000  1
  F  F12  1  0.89476500  0.17462500  0.25000000  1
  F  F13  1  0.72014000  0.89476500  0.75000000  1
  F  F14  1  0.17462500  0.27986000  0.75000000  1
  F  F15  1  0.82537500  0.72014000  0.25000000  1
  F  F16  1  0.27986000  0.10523500  0.25000000  1
  F  F17  1  0.10523500  0.82537500  0.75000000  1
loop_
_geom_bond_atom_site_label_1
_geom_bond_atom_site_label_2
_geom_bond_distance
_geom_bond_site_symmetry_2
H0 O0 0.981968 1_555
H1 O1 0.981968 1_555
H2 O2 0.981968 1_555
H3 O3 0.981968 1_555
H4 O4 0.981968 1_555
H5 O5 0.981968 1_555
H6 O5 0.981968 1_555
H7 O4 0.981968 1_555
H8 O3 0.981968 1_555
H9 O2 0.981968 1_555
H10 O1 0.981968 1_555
H11 O0 0.981968 1_555
H12 O6 0.986324 1_555
H13 O7 0.986324 1_556
H14 O8 0.986324 1_556
H15 O9 0.986324 1_555
H16 O10 0.986324 1_555
H17 O11 0.986324 1_556
H18 O12 0.986324 1_555
H19 O13 0.986324 1_554
H20 O14 0.986324 1_554
H21 O15 0.986324 1_555
H22 O16 0.986324 1_555
H23 O17 0.986324 1_554
H24 O6 0.985088 1_555
H25 O7 0.985088 1_555
H26 O8 0.985088 1_555
H27 O9 0.985088 1_555
H28 O10 0.985088 1_555
H29 O11 0.985088 1_555
H30 O12 0.985088 1_555
H31 O13 0.985088 1_555
H32 O14 0.985088 1_555
H33 O15 0.985088 1_555
H34 O16 0.985088 1_555
H35 O17 0.985088 1_555
C0 F11 1.350129 1_555
C0 F0 1.350129 1_555
C0 F12 1.354075 1_455
C1 F10 1.350129 1_555
C1 F1 1.350129 1_555
C1 F13 1.354075 1_545
C2 F2 1.350129 1_555
C2 F9 1.350129 1_555
C2 F14 1.354075 1_555
C3 F8 1.350129 1_555
C3 F3 1.350129 1_555
C3 F15 1.354075 1_555
C4 F4 1.350129 1_555
C4 F7 1.350129 1_555
C4 F16 1.354075 1_565
C5 F5 1.350129 1_555
C5 F6 1.350129 1_555
C5 F17 1.354075 1_655
O0 Pu0 2.582009 1_555
O1 Pu1 2.582003 1_555
O2 Pu1 2.582017 1_555
O3 Pu0 2.582017 1_555
O4 Pu0 2.582003 1_555
O5 Pu1 2.582009 1_555
O6 Pu0 2.500803 1_555
O7 Pu1 2.500793 1_555
O8 Pu1 2.500797 1_555
O9 Pu0 2.500797 1_555
O10 Pu0 2.500793 1_555
O11 Pu1 2.500803 1_555
O12 Pu1 2.500803 1_555
O13 Pu0 2.500793 1_555
O14 Pu0 2.500797 1_555
O15 Pu1 2.500797 1_555
O16 Pu1 2.500793 1_555
O17 Pu0 2.500803 1_555
O18 S0 1.465190 1_555
O19 S1 1.465196 1_555
O20 S2 1.465197 1_555
O21 S3 1.465197 1_555
O22 S4 1.465196 1_555
O23 S5 1.465190 1_555
O24 S5 1.465190 1_555
O25 S4 1.465196 1_555
O26 S3 1.465197 1_555
O27 S2 1.465197 1_555
O28 S1 1.465196 1_555
O29 S0 1.465190 1_555
O30 S0 1.466702 1_555
O31 S1 1.466702 1_555
O32 S2 1.466702 1_555
O33 S3 1.466702 1_555
O34 S4 1.466702 1_555
O35 S5 1.466702 1_555
