# generated using pymatgen
data_In2Ag2GeS6
_symmetry_space_group_name_H-M   'P 1'
_cell_length_a   7.22913177
_cell_length_b   7.22913177
_cell_length_c   12.41255408
_cell_angle_alpha   73.26717226
_cell_angle_beta   73.26717226
_cell_angle_gamma   61.47299740
_symmetry_Int_Tables_number   1
_chemical_formula_structural   In2Ag2GeS6
_chemical_formula_sum   'In4 Ag4 Ge2 S12'
_cell_volume   537.00502594
_cell_formula_units_Z   2
loop_
 _symmetry_equiv_pos_site_id
 _symmetry_equiv_pos_as_xyz
  1  'x, y, z'
loop_
 _atom_site_type_symbol
 _atom_site_label
 _atom_site_symmetry_multiplicity
 _atom_site_fract_x
 _atom_site_fract_y
 _atom_site_fract_z
 _atom_site_occupancy
  In  In0  1  0.67760600  0.49259300  0.56039400  1
  In  In1  1  0.82576400  0.70275600  0.75462400  1
  In  In2  1  0.70275600  0.82576400  0.25462400  1
  In  In3  1  0.49259300  0.67760600  0.06039400  1
  Ag  Ag0  1  0.18709300  0.01829200  0.75716300  1
  Ag  Ag1  1  0.19109500  0.60956100  0.41202000  1
  Ag  Ag2  1  0.60956100  0.19109500  0.91202000  1
  Ag  Ag3  1  0.01829200  0.18709300  0.25716300  1
  Ge  Ge0  1  0.06283600  0.59937800  0.99931000  1
  Ge  Ge1  1  0.59937800  0.06283600  0.49931000  1
  S  S0  1  0.48618500  0.93397500  0.87200800  1
  S  S1  1  0.40280600  0.88122800  0.55470800  1
  S  S2  1  0.82960000  0.35760600  0.74167100  1
  S  S3  1  0.15672800  0.65079200  0.81011200  1
  S  S4  1  0.40396900  0.36117500  0.57454100  1
  S  S5  1  0.36117500  0.40396900  0.07454100  1
  S  S6  1  0.88122800  0.40280600  0.05470800  1
  S  S7  1  0.65079200  0.15672800  0.31011200  1
  S  S8  1  0.35760600  0.82960000  0.24167100  1
  S  S9  1  0.93397500  0.48618500  0.37200800  1
  S  S10  1  0.91334400  0.89661700  0.55625000  1
  S  S11  1  0.89661700  0.91334400  0.05625000  1
loop_
_geom_bond_atom_site_label_1
_geom_bond_atom_site_label_2
_geom_bond_distance
_geom_bond_site_symmetry_2
In0 S4 2.519021 1_555
In0 S2 2.521456 1_555
In0 S9 2.527801 1_555
In0 S1 2.545650 1_555
In1 S3 2.506266 1_655
In1 S0 2.523242 1_555
In1 S10 2.527989 1_555
In1 S2 2.532718 1_555
In2 S7 2.506266 1_565
In2 S9 2.523242 1_555
In2 S11 2.527989 1_555
In2 S8 2.532718 1_555
In3 S5 2.519021 1_555
In3 S8 2.521456 1_555
In3 S0 2.527801 1_554
In3 S6 2.545650 1_555
Ag0 S2 2.586977 1_455
Ag0 S3 2.647027 1_545
Ag0 S0 2.663513 1_545
Ag0 S1 2.725819 1_545
Ag1 S4 2.593146 1_555
Ag1 S9 2.620538 1_455
Ag1 S8 2.622358 1_555
Ag1 S10 2.762703 1_455
Ag2 S5 2.593146 1_556
Ag2 S0 2.620538 1_545
Ag2 S2 2.622358 1_555
Ag2 S11 2.762703 1_546
Ag3 S8 2.586977 1_545
Ag3 S7 2.647027 1_455
Ag3 S9 2.663513 1_455
Ag3 S6 2.725819 1_455
Ge0 S6 2.217047 1_456
Ge0 S11 2.219156 1_456
Ge0 S3 2.221367 1_555
Ge0 S5 2.238105 1_556
Ge1 S1 2.217047 1_545
Ge1 S10 2.219156 1_545
Ge1 S7 2.221367 1_555
Ge1 S4 2.238105 1_555
