# generated using pymatgen
data_BaY2CuO5
_symmetry_space_group_name_H-M   'P 1'
_cell_length_a   5.71688500
_cell_length_b   7.24591700
_cell_length_c   12.28199800
_cell_angle_alpha   90.00000000
_cell_angle_beta   90.00000000
_cell_angle_gamma   90.00000000
_symmetry_Int_Tables_number   1
_chemical_formula_structural   BaY2CuO5
_chemical_formula_sum   'Ba4 Y8 Cu4 O20'
_cell_volume   508.77039658
_cell_formula_units_Z   4
loop_
 _symmetry_equiv_pos_site_id
 _symmetry_equiv_pos_as_xyz
  1  'x, y, z'
loop_
 _atom_site_type_symbol
 _atom_site_label
 _atom_site_symmetry_multiplicity
 _atom_site_fract_x
 _atom_site_fract_y
 _atom_site_fract_z
 _atom_site_occupancy
  Ba  Ba0  1  0.75000000  0.06983900  0.09526600  1
  Ba  Ba1  1  0.25000000  0.93016100  0.90473400  1
  Ba  Ba2  1  0.25000000  0.56983900  0.40473400  1
  Ba  Ba3  1  0.75000000  0.43016100  0.59526600  1
  Y  Y0  1  0.25000000  0.11436700  0.28737100  1
  Y  Y1  1  0.75000000  0.88563300  0.71262900  1
  Y  Y2  1  0.75000000  0.61436700  0.21262900  1
  Y  Y3  1  0.25000000  0.38563300  0.78737100  1
  Y  Y4  1  0.25000000  0.39664400  0.07412100  1
  Y  Y5  1  0.75000000  0.60335600  0.92587900  1
  Y  Y6  1  0.75000000  0.89664400  0.42587900  1
  Y  Y7  1  0.25000000  0.10335600  0.57412100  1
  Cu  Cu0  1  0.75000000  0.28372200  0.33955500  1
  Cu  Cu1  1  0.25000000  0.71627800  0.66044500  1
  Cu  Cu2  1  0.25000000  0.78372200  0.16044500  1
  Cu  Cu3  1  0.75000000  0.21627800  0.83955500  1
  O  O0  1  0.50657400  0.16329200  0.43231200  1
  O  O1  1  0.00657400  0.83670800  0.56768800  1
  O  O2  1  0.49342600  0.66329200  0.06768800  1
  O  O3  1  0.99342600  0.33670800  0.93231200  1
  O  O4  1  0.49342600  0.83670800  0.56768800  1
  O  O5  1  0.99342600  0.16329200  0.43231200  1
  O  O6  1  0.50657400  0.33670800  0.93231200  1
  O  O7  1  0.00657400  0.66329200  0.06768800  1
  O  O8  1  0.50419300  0.35587800  0.22800600  1
  O  O9  1  0.00419300  0.64412200  0.77199400  1
  O  O10  1  0.49580700  0.85587800  0.27199400  1
  O  O11  1  0.99580700  0.14412200  0.72800600  1
  O  O12  1  0.49580700  0.64412200  0.77199400  1
  O  O13  1  0.99580700  0.35587800  0.22800600  1
  O  O14  1  0.50419300  0.14412200  0.72800600  1
  O  O15  1  0.00419300  0.85587800  0.27199400  1
  O  O16  1  0.25000000  0.08383800  0.10001700  1
  O  O17  1  0.75000000  0.91616200  0.89998300  1
  O  O18  1  0.75000000  0.58383800  0.39998300  1
  O  O19  1  0.25000000  0.41616200  0.60001700  1
loop_
_geom_bond_atom_site_label_1
_geom_bond_atom_site_label_2
_geom_bond_distance
_geom_bond_site_symmetry_2
Ba0 O17 2.644350 1_544
Ba0 O16 2.860837 1_555
Ba0 O16 2.860837 1_655
Ba0 O13 2.988039 1_555
Ba0 O8 2.988039 1_555
Ba0 O15 3.037552 1_645
Ba0 O10 3.037552 1_545
Ba0 O3 3.111511 1_554
Ba0 O6 3.111511 1_554
Ba0 O7 3.308174 1_645
Ba0 O2 3.308174 1_545
Ba1 O16 2.644350 1_566
Ba1 O17 2.860837 1_455
Ba1 O17 2.860837 1_555
Ba1 O12 2.988039 1_555
Ba1 O9 2.988039 1_555
Ba1 O11 3.037552 1_465
Ba1 O14 3.037552 1_565
Ba1 O2 3.111511 1_556
Ba1 O7 3.111511 1_556
Ba1 O6 3.308174 1_565
Ba1 O3 3.308174 1_465
Ba2 O19 2.644350 1_555
Ba2 O18 2.860837 1_455
Ba2 O18 2.860837 1_555
Ba2 O10 2.988039 1_555
Ba2 O15 2.988039 1_555
Ba2 O8 3.037552 1_555
Ba2 O13 3.037552 1_455
Ba2 O4 3.111511 1_555
Ba2 O1 3.111511 1_555
Ba2 O0 3.308174 1_555
Ba2 O5 3.308174 1_455
Ba3 O18 2.644350 1_555
Ba3 O19 2.860837 1_555
Ba3 O19 2.860837 1_655
Ba3 O14 2.988039 1_555
Ba3 O11 2.988039 1_555
Ba3 O12 3.037552 1_555
Ba3 O9 3.037552 1_655
Ba3 O5 3.111511 1_555
Ba3 O0 3.111511 1_555
Ba3 O4 3.308174 1_555
Ba3 O1 3.308174 1_655
Cu0 O5 1.999001 1_555
Cu0 O0 1.999001 1_555
Cu0 O8 2.031036 1_555
Cu0 O13 2.031036 1_555
Cu0 O18 2.297777 1_555
Cu1 O4 1.999001 1_555
Cu1 O1 1.999001 1_555
Cu1 O12 2.031036 1_555
Cu1 O9 2.031036 1_555
Cu1 O19 2.297777 1_555
Cu2 O2 1.999001 1_555
Cu2 O7 1.999001 1_555
Cu2 O15 2.031036 1_555
Cu2 O10 2.031036 1_555
Cu2 O16 2.297777 1_565
Cu3 O3 1.999001 1_555
Cu3 O6 1.999001 1_555
Cu3 O14 2.031036 1_555
Cu3 O11 2.031036 1_555
Cu3 O17 2.297777 1_545
O0 Y7 2.318110 1_555
O0 Y0 2.333704 1_555
O0 Y6 2.382424 1_545
O1 Y6 2.318110 1_455
O1 Y1 2.333704 1_455
O1 Y7 2.382424 1_565
O2 Y5 2.318110 1_554
O2 Y2 2.333704 1_555
O2 Y4 2.382424 1_555
O3 Y4 2.318110 1_656
O3 Y3 2.333704 1_655
O3 Y5 2.382424 1_555
O4 Y6 2.318110 1_555
O4 Y1 2.333704 1_555
O4 Y7 2.382424 1_565
O5 Y7 2.318110 1_655
O5 Y0 2.333704 1_655
O5 Y6 2.382424 1_545
O6 Y4 2.318110 1_556
O6 Y3 2.333704 1_555
O6 Y5 2.382424 1_555
O7 Y5 2.318110 1_454
O7 Y2 2.333704 1_455
O7 Y4 2.382424 1_555
O8 Y2 2.349146 1_555
O8 Y0 2.388676 1_555
O8 Y4 2.402328 1_555
O9 Y3 2.349146 1_555
O9 Y1 2.388676 1_455
O9 Y5 2.402328 1_455
O10 Y0 2.349146 1_565
O10 Y2 2.388676 1_555
O10 Y6 2.402328 1_555
O11 Y1 2.349146 1_545
O11 Y3 2.388676 1_655
O11 Y7 2.402328 1_655
O12 Y3 2.349146 1_555
O12 Y1 2.388676 1_555
O12 Y5 2.402328 1_555
O13 Y2 2.349146 1_555
O13 Y0 2.388676 1_655
O13 Y4 2.402328 1_655
O14 Y1 2.349146 1_545
O14 Y3 2.388676 1_555
O14 Y7 2.402328 1_555
O15 Y0 2.349146 1_565
O15 Y2 2.388676 1_455
O15 Y6 2.402328 1_455
O16 Y4 2.288773 1_555
O16 Y0 2.311690 1_555
O17 Y5 2.288773 1_555
O17 Y1 2.311690 1_555
O18 Y6 2.288773 1_555
O18 Y2 2.311690 1_555
O19 Y7 2.288773 1_555
O19 Y3 2.311690 1_555
