# generated using pymatgen
data_CrFe(BiO3)2
_symmetry_space_group_name_H-M   'P 1'
_cell_length_a   5.61230527
_cell_length_b   5.61209181
_cell_length_c   9.85418893
_cell_angle_alpha   73.45728445
_cell_angle_beta   73.45807227
_cell_angle_gamma   59.99838310
_symmetry_Int_Tables_number   1
_chemical_formula_structural   CrFe(BiO3)2
_chemical_formula_sum   'Cr2 Fe2 Bi4 O12'
_cell_volume   253.84665671
_cell_formula_units_Z   2
loop_
 _symmetry_equiv_pos_site_id
 _symmetry_equiv_pos_as_xyz
  1  'x, y, z'
loop_
 _atom_site_type_symbol
 _atom_site_label
 _atom_site_symmetry_multiplicity
 _atom_site_fract_x
 _atom_site_fract_y
 _atom_site_fract_z
 _atom_site_occupancy
  Cr  Cr0  1  0.88710500  0.88711100  0.33874200  1
  Cr  Cr1  1  0.38765000  0.38763900  0.83706100  1
  Fe  Fe0  1  0.13481400  0.13480300  0.59562800  1
  Fe  Fe1  1  0.63517600  0.63518800  0.09451800  1
  Bi  Bi0  1  0.74589000  0.74584800  0.76224800  1
  Bi  Bi1  1  0.24594100  0.24592400  0.26208300  1
  Bi  Bi2  1  0.99720400  0.99724300  0.00825700  1
  Bi  Bi3  1  0.49746300  0.49752000  0.50741000  1
  O  O0  1  0.00147400  0.45240800  0.94594300  1
  O  O1  1  0.50120500  0.95049700  0.44505900  1
  O  O2  1  0.60019400  0.00146400  0.94596500  1
  O  O3  1  0.10329200  0.50119500  0.44507600  1
  O  O4  1  0.45238700  0.60021800  0.94594900  1
  O  O5  1  0.95045700  0.10332900  0.44506000  1
  O  O6  1  0.35039300  0.20318000  0.69719900  1
  O  O7  1  0.84793900  0.70501000  0.19714900  1
  O  O8  1  0.74925200  0.35035500  0.69720200  1
  O  O9  1  0.24993900  0.84790000  0.19715900  1
  O  O10  1  0.20321300  0.74923400  0.69716400  1
  O  O11  1  0.70501500  0.24993300  0.19712900  1
loop_
_geom_bond_atom_site_label_1
_geom_bond_atom_site_label_2
_geom_bond_distance
_geom_bond_site_symmetry_2
Cr0 O5 2.015935 1_565
Cr0 O3 2.016050 1_655
Cr0 O1 2.016058 1_555
Cr0 O9 2.061683 1_655
Cr0 O11 2.061748 1_565
Cr0 O7 2.061762 1_555
Cr1 O2 2.022549 1_555
Cr1 O0 2.022561 1_555
Cr1 O4 2.022635 1_555
Cr1 O6 2.051320 1_555
Cr1 O8 2.051498 1_555
Cr1 O10 2.051540 1_555
Fe0 O6 1.996372 1_555
Fe0 O10 1.996453 1_545
Fe0 O8 1.996509 1_455
Fe0 O3 2.123402 1_555
Fe0 O1 2.123506 1_545
Fe0 O5 2.123526 1_455
Fe1 O7 1.995867 1_555
Fe1 O9 1.995955 1_555
Fe1 O11 1.995975 1_555
Fe1 O2 2.110297 1_564
Fe1 O0 2.110555 1_654
Fe1 O4 2.110566 1_554
Bi0 O4 2.337540 1_555
Bi0 O0 2.337712 1_655
Bi0 O2 2.338143 1_565
Bi0 O8 2.469608 1_555
Bi0 O6 2.470066 1_565
Bi0 O10 2.470586 1_655
Bi1 O5 2.333332 1_455
Bi1 O1 2.333569 1_545
Bi1 O3 2.333893 1_555
Bi1 O9 2.480918 1_545
Bi1 O7 2.481269 1_455
Bi1 O11 2.481747 1_555
Bi2 O11 2.367198 1_565
Bi2 O7 2.367246 1_555
Bi2 O9 2.367630 1_655
Bi2 O2 2.461652 1_564
Bi2 O4 2.461962 1_654
Bi2 O0 2.462183 1_664
Bi3 O10 2.373186 1_555
Bi3 O6 2.373370 1_555
Bi3 O8 2.373818 1_555
Bi3 O3 2.447964 1_555
Bi3 O5 2.448468 1_555
Bi3 O1 2.448887 1_555
