# generated using pymatgen
data_Ba7Fe6CuF34
_symmetry_space_group_name_H-M   'P 1'
_cell_length_a   10.37828031
_cell_length_b   10.37828031
_cell_length_c   7.81951088
_cell_angle_alpha   80.36750044
_cell_angle_beta   80.36750044
_cell_angle_gamma   67.96042627
_symmetry_Int_Tables_number   1
_chemical_formula_structural   Ba7Fe6CuF34
_chemical_formula_sum   'Ba7 Fe6 Cu1 F34'
_cell_volume   764.62425872
_cell_formula_units_Z   1
loop_
 _symmetry_equiv_pos_site_id
 _symmetry_equiv_pos_as_xyz
  1  'x, y, z'
loop_
 _atom_site_type_symbol
 _atom_site_label
 _atom_site_symmetry_multiplicity
 _atom_site_fract_x
 _atom_site_fract_y
 _atom_site_fract_z
 _atom_site_occupancy
  Ba  Ba0  1  0.44043100  0.84119400  0.69898100  1
  Ba  Ba1  1  0.15880600  0.55956900  0.30101900  1
  Ba  Ba2  1  0.55956900  0.15880600  0.30101900  1
  Ba  Ba3  1  0.84119400  0.44043100  0.69898100  1
  Ba  Ba4  1  0.73563800  0.73563800  0.12572300  1
  Ba  Ba5  1  0.26436200  0.26436200  0.87427700  1
  Ba  Ba6  1  0.00000000  0.00000000  0.00000000  1
  Fe  Fe0  1  0.35287600  0.86671500  0.19952400  1
  Fe  Fe1  1  0.13328500  0.64712400  0.80047600  1
  Fe  Fe2  1  0.64712400  0.13328500  0.80047600  1
  Fe  Fe3  1  0.86671500  0.35287600  0.19952400  1
  Fe  Fe4  1  0.82643900  0.82643900  0.54105000  1
  Fe  Fe5  1  0.17356100  0.17356100  0.45895000  1
  Cu  Cu0  1  0.50000000  0.50000000  0.50000000  1
  F  F0  1  0.56051200  0.56051200  0.67414300  1
  F  F1  1  0.43948800  0.43948800  0.32585700  1
  F  F2  1  0.88887400  0.88887400  0.30581600  1
  F  F3  1  0.11112600  0.11112600  0.69418400  1
  F  F4  1  0.74627200  0.74627200  0.75936700  1
  F  F5  1  0.25372800  0.25372800  0.24063300  1
  F  F6  1  0.35574300  0.11999700  0.54445000  1
  F  F7  1  0.88000300  0.64425700  0.45555000  1
  F  F8  1  0.64425700  0.88000300  0.45555000  1
  F  F9  1  0.11999700  0.35574300  0.54445000  1
  F  F10  1  0.23118500  0.98551000  0.38600200  1
  F  F11  1  0.01449000  0.76881500  0.61399800  1
  F  F12  1  0.76881500  0.01449000  0.61399800  1
  F  F13  1  0.98551000  0.23118500  0.38600200  1
  F  F14  1  0.24653800  0.51358000  0.97148900  1
  F  F15  1  0.48642000  0.75346200  0.02851100  1
  F  F16  1  0.75346200  0.48642000  0.02851100  1
  F  F17  1  0.51358000  0.24653800  0.97148900  1
  F  F18  1  0.00456800  0.26362800  0.00711400  1
  F  F19  1  0.73637200  0.99543200  0.99288600  1
  F  F20  1  0.99543200  0.73637200  0.99288600  1
  F  F21  1  0.26362800  0.00456800  0.00711400  1
  F  F22  1  0.04089400  0.51594400  0.80327500  1
  F  F23  1  0.48405600  0.95910600  0.19672500  1
  F  F24  1  0.95910600  0.48405600  0.19672500  1
  F  F25  1  0.51594400  0.04089400  0.80327500  1
  F  F26  1  0.79354200  0.20683000  0.20094600  1
  F  F27  1  0.79317000  0.20645800  0.79905400  1
  F  F28  1  0.20645800  0.79317000  0.79905400  1
  F  F29  1  0.20683000  0.79354200  0.20094600  1
  F  F30  1  0.27613200  0.55427200  0.61438000  1
  F  F31  1  0.44572800  0.72386800  0.38562000  1
  F  F32  1  0.72386800  0.44572800  0.38562000  1
  F  F33  1  0.55427200  0.27613200  0.61438000  1
loop_
_geom_bond_atom_site_label_1
_geom_bond_atom_site_label_2
_geom_bond_distance
_geom_bond_site_symmetry_2
Ba0 F28 2.626586 1_555
Ba0 F15 2.645149 1_556
Ba0 F8 2.701048 1_555
Ba0 F0 2.731338 1_555
Ba0 F25 2.751946 1_565
Ba0 F6 2.807430 1_565
Ba0 F31 2.897061 1_555
Ba0 F4 3.044267 1_555
Ba0 F21 3.098373 1_566
Ba0 F10 3.325590 1_555
Ba1 F29 2.626586 1_555
Ba1 F14 2.645149 1_554
Ba1 F9 2.701048 1_555
Ba1 F1 2.731338 1_555
Ba1 F24 2.751946 1_455
Ba1 F7 2.807430 1_455
Ba1 F30 2.897061 1_555
Ba1 F5 3.044267 1_555
Ba1 F20 3.098373 1_454
Ba1 F11 3.325590 1_555
Ba2 F26 2.626586 1_555
Ba2 F17 2.645149 1_554
Ba2 F6 2.701048 1_555
Ba2 F1 2.731338 1_555
Ba2 F23 2.751946 1_545
Ba2 F8 2.807430 1_545
Ba2 F33 2.897061 1_555
Ba2 F5 3.044267 1_555
Ba2 F19 3.098373 1_544
Ba2 F12 3.325590 1_555
Ba3 F27 2.626586 1_555
Ba3 F16 2.645149 1_556
Ba3 F7 2.701048 1_555
Ba3 F0 2.731338 1_555
Ba3 F22 2.751946 1_655
Ba3 F9 2.807430 1_655
Ba3 F32 2.897061 1_555
Ba3 F4 3.044267 1_555
Ba3 F18 3.098373 1_656
Ba3 F13 3.325590 1_555
Ba4 F20 2.724720 1_554
Ba4 F19 2.724720 1_554
Ba4 F15 2.748386 1_555
Ba4 F16 2.748386 1_555
Ba4 F23 2.811668 1_555
Ba4 F24 2.811668 1_555
Ba4 F4 2.833468 1_554
Ba4 F7 3.033827 1_555
Ba4 F8 3.033827 1_555
Ba4 F2 3.230863 1_555
Ba4 F32 3.368111 1_555
Ba4 F31 3.368111 1_555
Ba5 F21 2.724720 1_556
Ba5 F18 2.724720 1_556
Ba5 F14 2.748386 1_555
Ba5 F17 2.748386 1_555
Ba5 F22 2.811668 1_555
Ba5 F25 2.811668 1_555
Ba5 F5 2.833468 1_556
Ba5 F6 3.033827 1_555
Ba5 F9 3.033827 1_555
Ba5 F3 3.230863 1_555
Ba5 F30 3.368111 1_555
Ba5 F33 3.368111 1_555
Ba6 F2 2.744262 1_445
Ba6 F3 2.744262 1_554
Ba6 F18 2.764096 1_555
Ba6 F21 2.764096 1_555
Ba6 F19 2.764096 1_444
Ba6 F20 2.764096 1_444
Ba6 F28 2.866695 1_544
Ba6 F27 2.866695 1_454
Ba6 F26 2.866695 1_455
Ba6 F29 2.866695 1_545
Cu0 F1 1.873880 1_555
Cu0 F0 1.873880 1_555
Cu0 F32 2.237469 1_555
Cu0 F31 2.237469 1_555
Cu0 F30 2.237469 1_555
Cu0 F33 2.237469 1_555
F2 Fe4 1.934046 1_555
F3 Fe5 1.934046 1_555
F4 Fe4 1.966621 1_555
F5 Fe5 1.966621 1_555
F6 Fe5 1.959778 1_555
F7 Fe4 1.959778 1_555
F8 Fe4 1.959778 1_555
F9 Fe5 1.959778 1_555
F10 Fe5 1.968349 1_565
F10 Fe0 2.014461 1_555
F11 Fe4 1.968349 1_455
F11 Fe1 2.014461 1_555
F12 Fe4 1.968349 1_545
F12 Fe2 2.014461 1_555
F13 Fe5 1.968349 1_655
F13 Fe3 2.014461 1_555
F14 Fe1 1.942621 1_555
F15 Fe0 1.942621 1_555
F16 Fe3 1.942621 1_555
F17 Fe2 1.942621 1_555
F18 Fe3 1.979881 1_455
F19 Fe2 1.979881 1_565
F20 Fe1 1.979881 1_655
F21 Fe0 1.979881 1_545
F22 Fe1 1.932892 1_555
F23 Fe0 1.932892 1_555
F24 Fe3 1.932892 1_555
F25 Fe2 1.932892 1_555
F26 Fe3 1.931211 1_555
F27 Fe2 1.931211 1_555
F28 Fe1 1.931211 1_555
F29 Fe0 1.931211 1_555
F30 Fe1 1.979683 1_555
F31 Fe0 1.979683 1_555
F32 Fe3 1.979683 1_555
F33 Fe2 1.979683 1_555
