# generated using pymatgen
data_Y5Sn3
_symmetry_space_group_name_H-M   'P 1'
_cell_length_a   8.95534086
_cell_length_b   8.95534026
_cell_length_c   6.59869988
_cell_angle_alpha   90.00000000
_cell_angle_beta   90.00000000
_cell_angle_gamma   120.00000604
_symmetry_Int_Tables_number   1
_chemical_formula_structural   Y5Sn3
_chemical_formula_sum   'Y10 Sn6'
_cell_volume   458.30352128
_cell_formula_units_Z   2
loop_
 _symmetry_equiv_pos_site_id
 _symmetry_equiv_pos_as_xyz
  1  'x, y, z'
loop_
 _atom_site_type_symbol
 _atom_site_label
 _atom_site_symmetry_multiplicity
 _atom_site_fract_x
 _atom_site_fract_y
 _atom_site_fract_z
 _atom_site_occupancy
  Y  Y0  1  0.76017697  0.76017697  0.25000000  1
  Y  Y1  1  0.00000000  0.23982303  0.25000000  1
  Y  Y2  1  0.76017697  -0.00000000  0.75000000  1
  Y  Y3  1  0.33333300  0.66666700  0.50000000  1
  Y  Y4  1  0.23982303  0.00000000  0.25000000  1
  Y  Y5  1  0.66666700  0.33333300  0.50000000  1
  Y  Y6  1  -0.00000000  0.76017697  0.75000000  1
  Y  Y7  1  0.33333300  0.66666700  -0.00000000  1
  Y  Y8  1  0.23982303  0.23982303  0.75000000  1
  Y  Y9  1  0.66666700  0.33333300  -0.00000000  1
  Sn  Sn0  1  0.60564643  0.60564643  0.75000000  1
  Sn  Sn1  1  0.39435357  0.00000000  0.75000000  1
  Sn  Sn2  1  0.60564643  -0.00000000  0.25000000  1
  Sn  Sn3  1  0.00000000  0.39435357  0.75000000  1
  Sn  Sn4  1  0.39435357  0.39435357  0.25000000  1
  Sn  Sn5  1  -0.00000000  0.60564643  0.25000000  1
loop_
_geom_bond_atom_site_label_1
_geom_bond_atom_site_label_2
_geom_bond_distance
_geom_bond_site_symmetry_2
Y0 Y1 3.719920 1_665
Y0 Y4 3.719920 1_665
Y0 Y9 3.851416 1_555
Y0 Y5 3.851416 1_555
Y0 Y3 3.851416 1_555
Y0 Y7 3.851416 1_555
Y0 Y2 3.936790 1_565
Y0 Y2 3.936790 1_564
Y0 Y6 3.936790 1_655
Y0 Y6 3.936790 1_654
Y1 Y4 3.719920 1_555
Y1 Y5 3.851408 1_455
Y1 Y9 3.851408 1_455
Y1 Y7 3.851413 1_555
Y1 Y3 3.851413 1_555
Y1 Y2 3.936789 1_454
Y1 Y2 3.936789 1_455
Y1 Y8 3.936790 1_554
Y1 Y8 3.936790 1_555
Y2 Y8 3.719920 1_655
Y2 Y6 3.719920 1_645
Y2 Y9 3.851408 1_556
Y2 Y5 3.851408 1_555
Y2 Y7 3.851414 1_546
Y2 Y3 3.851414 1_545
Y3 Y7 3.299350 1_555
Y3 Y7 3.299350 1_556
Y3 Y4 3.851408 1_565
Y3 Y6 3.851408 1_555
Y3 Y8 3.851416 1_555
Y4 Y7 3.851408 1_545
Y4 Y5 3.851414 1_555
Y4 Y9 3.851414 1_555
Y4 Y6 3.936789 1_544
Y4 Y6 3.936789 1_545
Y4 Y8 3.936790 1_554
Y4 Y8 3.936790 1_555
Y5 Y9 3.299350 1_556
Y5 Y9 3.299350 1_555
Y5 Y6 3.851413 1_655
Y5 Y8 3.851416 1_555
Y6 Y8 3.719920 1_565
Y6 Y7 3.851408 1_556
Y6 Y9 3.851413 1_456
Y7 Y8 3.851416 1_554
Y8 Y9 3.851416 1_556
Sn0 Y2 3.082182 1_565
Sn0 Y6 3.082183 1_655
Sn0 Y9 3.209320 1_556
Sn0 Y5 3.209320 1_555
Sn0 Y3 3.209320 1_555
Sn0 Y7 3.209320 1_556
Sn0 Y8 3.276073 1_555
Sn0 Y0 3.577823 1_556
Sn0 Y0 3.577823 1_555
Sn1 Y6 3.082182 1_545
Sn1 Y8 3.082183 1_555
Sn1 Y3 3.209312 1_545
Sn1 Y7 3.209312 1_546
Sn1 Y9 3.209315 1_556
Sn1 Y5 3.209315 1_555
Sn1 Y2 3.276073 1_555
Sn1 Y4 3.577823 1_555
Sn1 Y4 3.577823 1_556
Sn2 Y1 3.082182 1_655
Sn2 Y0 3.082183 1_545
Sn2 Y5 3.209312 1_555
Sn2 Y9 3.209312 1_555
Sn2 Y7 3.209315 1_545
Sn2 Y3 3.209315 1_545
Sn2 Y4 3.276073 1_555
Sn2 Y2 3.577823 1_555
Sn2 Y2 3.577823 1_554
Sn3 Y2 3.082182 1_455
Sn3 Y8 3.082183 1_555
Sn3 Y9 3.209313 1_456
Sn3 Y5 3.209313 1_455
Sn3 Y7 3.209315 1_556
Sn3 Y3 3.209315 1_555
Sn3 Y6 3.276073 1_555
Sn3 Y1 3.577823 1_555
Sn3 Y1 3.577823 1_556
Sn4 Y4 3.082182 1_555
Sn4 Y1 3.082183 1_555
Sn4 Y3 3.209320 1_555
Sn4 Y7 3.209320 1_555
Sn4 Y5 3.209320 1_555
Sn4 Y9 3.209320 1_555
Sn4 Y0 3.276073 1_555
Sn4 Y8 3.577823 1_555
Sn4 Y8 3.577823 1_554
Sn5 Y4 3.082182 1_565
Sn5 Y0 3.082183 1_455
Sn5 Y3 3.209313 1_555
Sn5 Y7 3.209313 1_555
Sn5 Y5 3.209315 1_455
Sn5 Y9 3.209315 1_455
Sn5 Y1 3.276073 1_555
Sn5 Y6 3.577823 1_554
Sn5 Y6 3.577823 1_555
