# generated using pymatgen
data_BaLaCuSe3
_symmetry_space_group_name_H-M   'P 1'
_cell_length_a   4.30995900
_cell_length_b   11.24739400
_cell_length_c   14.03239300
_cell_angle_alpha   90.00000000
_cell_angle_beta   90.00000000
_cell_angle_gamma   90.00000000
_symmetry_Int_Tables_number   1
_chemical_formula_structural   BaLaCuSe3
_chemical_formula_sum   'Ba4 La4 Cu4 Se12'
_cell_volume   680.23157477
_cell_formula_units_Z   4
loop_
 _symmetry_equiv_pos_site_id
 _symmetry_equiv_pos_as_xyz
  1  'x, y, z'
loop_
 _atom_site_type_symbol
 _atom_site_label
 _atom_site_symmetry_multiplicity
 _atom_site_fract_x
 _atom_site_fract_y
 _atom_site_fract_z
 _atom_site_occupancy
  Ba  Ba0  1  0.75000000  0.22830700  0.49589000  1
  Ba  Ba1  1  0.25000000  0.77169300  0.50411000  1
  Ba  Ba2  1  0.75000000  0.72830700  0.00411000  1
  Ba  Ba3  1  0.25000000  0.27169300  0.99589000  1
  La  La0  1  0.75000000  0.49031300  0.74024000  1
  La  La1  1  0.25000000  0.50968700  0.25976000  1
  La  La2  1  0.75000000  0.99031300  0.75976000  1
  La  La3  1  0.25000000  0.00968700  0.24024000  1
  Cu  Cu0  1  0.75000000  0.25861600  0.21652200  1
  Cu  Cu1  1  0.25000000  0.74138400  0.78347800  1
  Cu  Cu2  1  0.75000000  0.75861600  0.28347800  1
  Cu  Cu3  1  0.25000000  0.24138400  0.71652200  1
  Se  Se0  1  0.75000000  0.44214400  0.11781700  1
  Se  Se1  1  0.25000000  0.55785600  0.88218300  1
  Se  Se2  1  0.75000000  0.94214400  0.38218300  1
  Se  Se3  1  0.25000000  0.05785600  0.61781700  1
  Se  Se4  1  0.75000000  0.24453800  0.81829600  1
  Se  Se5  1  0.25000000  0.75546200  0.18170400  1
  Se  Se6  1  0.75000000  0.74453800  0.68170400  1
  Se  Se7  1  0.25000000  0.25546200  0.31829600  1
  Se  Se8  1  0.75000000  0.08795800  0.10551700  1
  Se  Se9  1  0.25000000  0.91204200  0.89448300  1
  Se  Se10  1  0.75000000  0.58795800  0.39448300  1
  Se  Se11  1  0.25000000  0.41204200  0.60551700  1
loop_
_geom_bond_atom_site_label_1
_geom_bond_atom_site_label_2
_geom_bond_distance
_geom_bond_site_symmetry_2
Ba0 Se7 3.308720 1_655
Ba0 Se7 3.308720 1_555
Ba0 Se3 3.353594 1_555
Ba0 Se3 3.353594 1_655
Ba0 Se11 3.358717 1_555
Ba0 Se11 3.358717 1_655
Ba0 Se2 3.592379 1_545
Ba1 Se6 3.308720 1_555
Ba1 Se6 3.308720 1_455
Ba1 Se2 3.353594 1_455
Ba1 Se2 3.353594 1_555
Ba1 Se10 3.358717 1_455
Ba1 Se10 3.358717 1_555
Ba1 Se3 3.592379 1_565
Ba2 Se5 3.308720 1_655
Ba2 Se5 3.308720 1_555
Ba2 Se1 3.353594 1_654
Ba2 Se1 3.353594 1_554
Ba2 Se9 3.358717 1_554
Ba2 Se9 3.358717 1_654
Ba2 Se0 3.592379 1_555
Ba3 Se4 3.308720 1_555
Ba3 Se4 3.308720 1_455
Ba3 Se0 3.353594 1_456
Ba3 Se0 3.353594 1_556
Ba3 Se8 3.358717 1_556
Ba3 Se8 3.358717 1_456
Ba3 Se1 3.592379 1_555
La0 Se4 2.973419 1_555
La0 Se6 2.975011 1_555
La0 Se11 2.998813 1_655
La0 Se11 2.998813 1_555
La0 Se1 3.031224 1_555
La0 Se1 3.031224 1_655
La1 Se5 2.973419 1_555
La1 Se7 2.975011 1_555
La1 Se10 2.998813 1_455
La1 Se10 2.998813 1_555
La1 Se0 3.031224 1_555
La1 Se0 3.031224 1_455
La2 Se6 2.973419 1_555
La2 Se4 2.975011 1_565
La2 Se9 2.998813 1_555
La2 Se9 2.998813 1_655
La2 Se3 3.031224 1_565
La2 Se3 3.031224 1_665
La3 Se7 2.973419 1_555
La3 Se5 2.975011 1_545
La3 Se8 2.998813 1_555
La3 Se8 2.998813 1_455
La3 Se2 3.031224 1_545
La3 Se2 3.031224 1_445
Cu0 Se8 2.471971 1_555
Cu0 Se0 2.485836 1_555
Cu0 Se7 2.585490 1_655
Cu0 Se7 2.585490 1_555
Cu1 Se9 2.471971 1_555
Cu1 Se1 2.485836 1_555
Cu1 Se6 2.585490 1_455
Cu1 Se6 2.585490 1_555
Cu2 Se10 2.471971 1_555
Cu2 Se2 2.485836 1_555
Cu2 Se5 2.585490 1_655
Cu2 Se5 2.585490 1_555
Cu3 Se11 2.471971 1_555
Cu3 Se3 2.485836 1_555
Cu3 Se4 2.585490 1_555
Cu3 Se4 2.585490 1_455
