# generated using pymatgen
data_KSbSe2
_symmetry_space_group_name_H-M   'P 1'
_cell_length_a   6.50380692
_cell_length_b   6.50898764
_cell_length_c   12.50765620
_cell_angle_alpha   99.11823692
_cell_angle_beta   99.10652346
_cell_angle_gamma   103.15798158
_symmetry_Int_Tables_number   1
_chemical_formula_structural   KSbSe2
_chemical_formula_sum   'K4 Sb4 Se8'
_cell_volume   498.56382346
_cell_formula_units_Z   4
loop_
 _symmetry_equiv_pos_site_id
 _symmetry_equiv_pos_as_xyz
  1  'x, y, z'
loop_
 _atom_site_type_symbol
 _atom_site_label
 _atom_site_symmetry_multiplicity
 _atom_site_fract_x
 _atom_site_fract_y
 _atom_site_fract_z
 _atom_site_occupancy
  K  K0  1  0.83250655  0.88407223  0.72713016  1
  K  K1  1  0.67702609  0.34667402  0.90615394  1
  K  K2  1  0.18819080  0.29352606  0.16264051  1
  K  K3  1  0.31708634  0.93552040  0.46983601  1
  Sb  Sb0  1  0.17507771  0.41924947  0.66818567  1
  Sb  Sb1  1  0.76098183  0.83689535  0.22945043  1
  Sb  Sb2  1  0.74641151  0.39004918  0.40427364  1
  Sb  Sb3  1  0.33622743  0.81374400  0.96552252  1
  Se  Se0  1  0.19404054  0.40182987  0.90916135  1
  Se  Se1  1  0.76221517  0.36136077  0.64171671  1
  Se  Se2  1  0.72579192  0.42981925  0.18055761  1
  Se  Se3  1  0.15143321  0.40067709  0.43772895  1
  Se  Se4  1  0.31591689  0.83128956  0.72365775  1
  Se  Se5  1  0.35633013  0.82887255  0.19493482  1
  Se  Se6  1  0.77921161  0.79708753  0.45240838  1
  Se  Se7  1  0.74855326  0.86933366  0.99164256  1
loop_
_geom_bond_atom_site_label_1
_geom_bond_atom_site_label_2
_geom_bond_distance
_geom_bond_site_symmetry_2
K0 Se4 3.245761 1_655
K0 Se4 3.291160 1_555
K0 Se1 3.303233 1_555
K0 Se6 3.341362 1_555
K0 Se7 3.449871 1_555
K0 Se1 3.541976 1_565
K0 Se0 3.786266 1_665
K1 Se0 3.247194 1_555
K1 Se0 3.292903 1_655
K1 Se7 3.301870 1_555
K1 Se2 3.340911 1_556
K1 Se1 3.451343 1_555
K1 Se7 3.544959 1_545
K1 Se4 3.777414 1_545
K2 Se5 3.343715 1_555
K2 Se2 3.353558 1_455
K2 Se0 3.359221 1_554
K2 Se2 3.367373 1_555
K2 Se3 3.458003 1_555
K2 Se5 3.501323 1_545
K2 Se7 3.601643 1_444
K3 Se3 3.339723 1_555
K3 Se4 3.350686 1_555
K3 Se6 3.357230 1_555
K3 Se6 3.370216 1_455
K3 Se5 3.459967 1_555
K3 Se3 3.496065 1_565
K3 Se1 3.629566 1_565
Sb0 Se4 2.569818 1_555
Sb0 Se1 2.584608 1_455
Sb0 Se3 2.843888 1_555
Sb0 Se0 3.018199 1_555
Sb1 Se2 2.571588 1_555
Sb1 Se5 2.585728 1_555
Sb1 Se6 2.827770 1_555
Sb1 Se7 3.004829 1_554
Sb2 Se6 2.573677 1_555
Sb2 Se3 2.584135 1_655
Sb2 Se2 2.835720 1_555
Sb2 Se1 2.992217 1_555
Sb3 Se0 2.570301 1_555
Sb3 Se7 2.583128 1_555
Sb3 Se5 2.836571 1_556
Sb3 Se4 3.028526 1_555
