# generated using pymatgen
data_Cs3AuO
_symmetry_space_group_name_H-M   'P 1'
_cell_length_a   7.85221889
_cell_length_b   7.85221808
_cell_length_c   7.08932365
_cell_angle_alpha   90.00000000
_cell_angle_beta   90.00000000
_cell_angle_gamma   119.99999909
_symmetry_Int_Tables_number   1
_chemical_formula_structural   Cs3AuO
_chemical_formula_sum   'Cs6 Au2 O2'
_cell_volume   378.54733207
_cell_formula_units_Z   2
loop_
 _symmetry_equiv_pos_site_id
 _symmetry_equiv_pos_as_xyz
  1  'x, y, z'
loop_
 _atom_site_type_symbol
 _atom_site_label
 _atom_site_symmetry_multiplicity
 _atom_site_fract_x
 _atom_site_fract_y
 _atom_site_fract_z
 _atom_site_occupancy
  Cs  Cs0  1  0.16031002  0.32061804  0.25000000  1
  Cs  Cs1  1  0.83968998  0.16031002  0.75000000  1
  Cs  Cs2  1  0.32061804  0.16031002  0.75000000  1
  Cs  Cs3  1  0.67938196  0.83968998  0.25000000  1
  Cs  Cs4  1  0.16031002  0.83968998  0.25000000  1
  Cs  Cs5  1  0.83968998  0.67938196  0.75000000  1
  Au  Au0  1  0.66666700  0.33333300  0.25000000  1
  Au  Au1  1  0.33333300  0.66666700  0.75000000  1
  O  O0  1  0.00000000  -0.00000000  -0.00000000  1
  O  O1  1  0.00000000  -0.00000000  0.50000000  1
loop_
_geom_bond_atom_site_label_1
_geom_bond_atom_site_label_2
_geom_bond_distance
_geom_bond_site_symmetry_2
Cs0 O0 2.809760 1_555
Cs0 O1 2.809760 1_555
Cs1 O1 2.809770 1_655
Cs1 O0 2.809770 1_656
Cs2 O0 2.809760 1_556
Cs2 O1 2.809760 1_555
Cs3 O0 2.809760 1_665
Cs3 O1 2.809760 1_665
Cs4 O1 2.809770 1_565
Cs4 O0 2.809770 1_565
Cs5 O0 2.809760 1_666
Cs5 O1 2.809760 1_665
Au0 Cs3 3.927057 1_555
Au0 Cs0 3.927058 1_555
Au0 Cs4 3.927061 1_655
Au0 Cs4 3.927061 1_545
Au0 Cs3 3.927065 1_545
Au0 Cs0 3.927065 1_655
Au0 Cs1 4.254659 1_554
Au0 Cs1 4.254659 1_555
Au0 Cs5 4.254670 1_554
Au0 Cs5 4.254670 1_555
Au0 Cs2 4.254671 1_554
Au0 Cs2 4.254671 1_555
Au1 Cs2 3.927057 1_555
Au1 Cs5 3.927058 1_555
Au1 Cs1 3.927061 1_455
Au1 Cs1 3.927061 1_565
Au1 Cs2 3.927065 1_565
Au1 Cs5 3.927065 1_455
Au1 Cs4 4.254659 1_555
Au1 Cs4 4.254659 1_556
Au1 Cs0 4.254670 1_555
Au1 Cs0 4.254670 1_556
Au1 Cs3 4.254671 1_555
Au1 Cs3 4.254671 1_556
