# generated using pymatgen
data_ZnSiO3
_symmetry_space_group_name_H-M   'P 1'
_cell_length_a   6.88675400
_cell_length_b   6.88675400
_cell_length_c   5.37290662
_cell_angle_alpha   73.72493080
_cell_angle_beta   73.72493080
_cell_angle_gamma   86.56440031
_symmetry_Int_Tables_number   1
_chemical_formula_structural   ZnSiO3
_chemical_formula_sum   'Zn4 Si4 O12'
_cell_volume   234.76130992
_cell_formula_units_Z   4
loop_
 _symmetry_equiv_pos_site_id
 _symmetry_equiv_pos_as_xyz
  1  'x, y, z'
loop_
 _atom_site_type_symbol
 _atom_site_label
 _atom_site_symmetry_multiplicity
 _atom_site_fract_x
 _atom_site_fract_y
 _atom_site_fract_z
 _atom_site_occupancy
  Zn  Zn0  1  0.11600500  0.88399500  0.75000000  1
  Zn  Zn1  1  0.76852600  0.23147400  0.75000000  1
  Zn  Zn2  1  0.23147400  0.76852600  0.25000000  1
  Zn  Zn3  1  0.88399500  0.11600500  0.25000000  1
  Si  Si0  1  0.38490700  0.21748300  0.23263000  1
  Si  Si1  1  0.61509300  0.78251700  0.76737000  1
  Si  Si2  1  0.21748300  0.38490700  0.73263000  1
  Si  Si3  1  0.78251700  0.61509300  0.26737000  1
  O  O0  1  0.32820000  0.37560800  0.97017700  1
  O  O1  1  0.37560800  0.32820000  0.47017700  1
  O  O2  1  0.62439200  0.67180000  0.52982300  1
  O  O3  1  0.85539100  0.38428100  0.37426700  1
  O  O4  1  0.38428100  0.85539100  0.87426700  1
  O  O5  1  0.96571500  0.78843100  0.14110200  1
  O  O6  1  0.78843100  0.96571500  0.64110200  1
  O  O7  1  0.67180000  0.62439200  0.02982300  1
  O  O8  1  0.14460900  0.61571900  0.62573300  1
  O  O9  1  0.61571900  0.14460900  0.12573300  1
  O  O10  1  0.03428500  0.21156900  0.85889800  1
  O  O11  1  0.21156900  0.03428500  0.35889800  1
loop_
_geom_bond_atom_site_label_1
_geom_bond_atom_site_label_2
_geom_bond_distance
_geom_bond_site_symmetry_2
O0 Si2 1.645679 1_555
O0 Si0 1.650407 1_556
O1 Si0 1.645679 1_555
O1 Si2 1.650407 1_555
O2 Si1 1.645679 1_555
O2 Si3 1.650407 1_555
O3 Si3 1.631760 1_555
O3 Zn1 1.936121 1_555
O3 Zn3 2.114736 1_555
O4 Si1 1.631760 1_555
O4 Zn2 1.936121 1_556
O4 Zn0 2.114736 1_555
O5 Si3 1.650405 1_555
O5 Zn0 2.001880 1_654
O5 Zn2 2.058158 1_655
O5 Zn3 2.480190 1_565
O6 Si1 1.650405 1_555
O6 Zn3 2.001880 1_565
O6 Zn1 2.058158 1_565
O6 Zn0 2.480190 1_655
O7 Si3 1.645679 1_555
O7 Si1 1.650407 1_554
O8 Si2 1.631760 1_555
O8 Zn2 1.936121 1_555
O8 Zn0 2.114736 1_555
O9 Si0 1.631760 1_555
O9 Zn1 1.936121 1_554
O9 Zn3 2.114736 1_555
O10 Si2 1.650405 1_555
O10 Zn3 2.001880 1_456
O10 Zn1 2.058158 1_455
O10 Zn0 2.480190 1_545
O11 Si0 1.650405 1_555
O11 Zn0 2.001880 1_545
O11 Zn2 2.058158 1_545
O11 Zn3 2.480190 1_455
