# generated using pymatgen
data_SiO2
_symmetry_space_group_name_H-M   'P 1'
_cell_length_a   8.23370500
_cell_length_b   8.23370500
_cell_length_c   5.56095700
_cell_angle_alpha   90.00000000
_cell_angle_beta   90.00000000
_cell_angle_gamma   90.00000000
_symmetry_Int_Tables_number   1
_chemical_formula_structural   SiO2
_chemical_formula_sum   'Si8 O16'
_cell_volume   376.99895179
_cell_formula_units_Z   8
loop_
 _symmetry_equiv_pos_site_id
 _symmetry_equiv_pos_as_xyz
  1  'x, y, z'
loop_
 _atom_site_type_symbol
 _atom_site_label
 _atom_site_symmetry_multiplicity
 _atom_site_fract_x
 _atom_site_fract_y
 _atom_site_fract_z
 _atom_site_occupancy
  Si  Si0  1  0.31381200  0.93119500  0.50000000  1
  Si  Si1  1  0.68618800  0.93119500  0.00000000  1
  Si  Si2  1  0.68618800  0.06880500  0.50000000  1
  Si  Si3  1  0.93119500  0.68618800  0.00000000  1
  Si  Si4  1  0.93119500  0.31381200  0.50000000  1
  Si  Si5  1  0.31381200  0.06880500  0.00000000  1
  Si  Si6  1  0.06880500  0.31381200  0.00000000  1
  Si  Si7  1  0.06880500  0.68618800  0.50000000  1
  O  O0  1  0.26596400  0.73403600  0.50000000  1
  O  O1  1  0.73403600  0.73403600  0.00000000  1
  O  O2  1  0.23643600  0.00000000  0.25000000  1
  O  O3  1  0.73403600  0.26596400  0.50000000  1
  O  O4  1  0.26596400  0.26596400  0.00000000  1
  O  O5  1  0.23643600  0.00000000  0.75000000  1
  O  O6  1  0.00000000  0.23643600  0.75000000  1
  O  O7  1  0.00000000  0.76356400  0.75000000  1
  O  O8  1  0.00000000  0.76356400  0.25000000  1
  O  O9  1  0.00000000  0.50000000  0.50000000  1
  O  O10  1  0.76356400  0.00000000  0.75000000  1
  O  O11  1  0.00000000  0.23643600  0.25000000  1
  O  O12  1  0.50000000  0.00000000  0.00000000  1
  O  O13  1  0.76356400  0.00000000  0.25000000  1
  O  O14  1  0.50000000  0.00000000  0.50000000  1
  O  O15  1  0.00000000  0.50000000  0.00000000  1
loop_
_geom_bond_atom_site_label_1
_geom_bond_atom_site_label_2
_geom_bond_distance
_geom_bond_site_symmetry_2
O0 Si0 1.670470 1_555
O0 Si7 1.670470 1_555
O1 Si3 1.670470 1_555
O1 Si1 1.670470 1_555
O2 Si5 1.630827 1_555
O2 Si0 1.630827 1_545
O3 Si4 1.670470 1_555
O3 Si2 1.670470 1_555
O4 Si5 1.670470 1_555
O4 Si6 1.670470 1_555
O5 Si5 1.630827 1_556
O5 Si0 1.630827 1_545
O6 Si6 1.630827 1_556
O6 Si4 1.630827 1_455
O7 Si7 1.630827 1_555
O7 Si3 1.630827 1_456
O8 Si7 1.630827 1_555
O8 Si3 1.630827 1_455
O9 Si7 1.634346 1_555
O9 Si4 1.634346 1_455
O10 Si2 1.630827 1_555
O10 Si1 1.630827 1_546
O11 Si6 1.630827 1_555
O11 Si4 1.630827 1_455
O12 Si5 1.634346 1_555
O12 Si1 1.634346 1_545
O13 Si2 1.630827 1_555
O13 Si1 1.630827 1_545
O14 Si2 1.634346 1_555
O14 Si0 1.634346 1_545
O15 Si6 1.634346 1_555
O15 Si3 1.634346 1_455
