# generated using pymatgen
data_Tl3CO3F
_symmetry_space_group_name_H-M   'P 1'
_cell_length_a   6.24972800
_cell_length_b   7.62867100
_cell_length_c   7.64527269
_cell_angle_alpha   60.10808876
_cell_angle_beta   90.00000000
_cell_angle_gamma   90.00000000
_symmetry_Int_Tables_number   1
_chemical_formula_structural   Tl3CO3F
_chemical_formula_sum   'Tl6 C2 O6 F2'
_cell_volume   316.01347851
_cell_formula_units_Z   2
loop_
 _symmetry_equiv_pos_site_id
 _symmetry_equiv_pos_as_xyz
  1  'x, y, z'
loop_
 _atom_site_type_symbol
 _atom_site_label
 _atom_site_symmetry_multiplicity
 _atom_site_fract_x
 _atom_site_fract_y
 _atom_site_fract_z
 _atom_site_occupancy
  Tl  Tl0  1  0.25000000  0.33431700  0.41693400  1
  Tl  Tl1  1  0.75000000  0.08454100  0.75072500  1
  Tl  Tl2  1  0.75000000  0.66568300  0.58306600  1
  Tl  Tl3  1  0.25000000  0.91545900  0.24927500  1
  Tl  Tl4  1  0.25000000  0.74663600  0.83358700  1
  Tl  Tl5  1  0.75000000  0.25336400  0.16641300  1
  C  C0  1  0.25000000  0.32877800  0.83309900  1
  C  C1  1  0.75000000  0.67122200  0.16690100  1
  O  O0  1  0.25000000  0.30628200  0.01383100  1
  O  O1  1  0.25000000  0.17029300  0.81014500  1
  O  O2  1  0.25000000  0.50969200  0.67516400  1
  O  O3  1  0.75000000  0.69371800  0.98616900  1
  O  O4  1  0.75000000  0.82970700  0.18985500  1
  O  O5  1  0.75000000  0.49030800  0.32483600  1
  F  F0  1  0.00000000  0.00000000  0.50000000  1
  F  F1  1  0.50000000  0.00000000  0.50000000  1
loop_
_geom_bond_atom_site_label_1
_geom_bond_atom_site_label_2
_geom_bond_distance
_geom_bond_site_symmetry_2
C0 O2 1.304498 1_555
C0 O0 1.304730 1_556
C0 O1 1.305384 1_555
C1 O5 1.304498 1_555
C1 O3 1.304730 1_554
C1 O4 1.305384 1_555
O0 Tl3 2.603851 1_545
O1 Tl0 2.617950 1_555
O2 Tl4 2.629909 1_555
O3 Tl1 2.603851 1_565
O4 Tl2 2.617950 1_555
O5 Tl5 2.629909 1_555
F0 Tl2 2.781123 1_445
F0 Tl0 2.781123 1_555
F0 Tl1 2.786342 1_455
F0 Tl3 2.786342 1_545
F0 Tl4 2.787127 1_545
F0 Tl5 2.787127 1_455
F1 Tl2 2.781123 1_545
F1 Tl0 2.781123 1_555
F1 Tl1 2.786342 1_555
F1 Tl3 2.786342 1_545
F1 Tl4 2.787127 1_545
F1 Tl5 2.787127 1_555
