# generated using pymatgen
data_Er2PbSe4
_symmetry_space_group_name_H-M   'P 1'
_cell_length_a   4.11240900
_cell_length_b   12.56748300
_cell_length_c   14.94341200
_cell_angle_alpha   90.00000000
_cell_angle_beta   90.00000000
_cell_angle_gamma   90.00000000
_symmetry_Int_Tables_number   1
_chemical_formula_structural   Er2PbSe4
_chemical_formula_sum   'Er8 Pb4 Se16'
_cell_volume   772.31483627
_cell_formula_units_Z   4
loop_
 _symmetry_equiv_pos_site_id
 _symmetry_equiv_pos_as_xyz
  1  'x, y, z'
loop_
 _atom_site_type_symbol
 _atom_site_label
 _atom_site_symmetry_multiplicity
 _atom_site_fract_x
 _atom_site_fract_y
 _atom_site_fract_z
 _atom_site_occupancy
  Er  Er0  1  0.25000000  0.43913400  0.61039300  1
  Er  Er1  1  0.75000000  0.08151100  0.59656800  1
  Er  Er2  1  0.25000000  0.91848900  0.40343200  1
  Er  Er3  1  0.25000000  0.93913400  0.88960700  1
  Er  Er4  1  0.75000000  0.58151100  0.90343200  1
  Er  Er5  1  0.25000000  0.41848900  0.09656800  1
  Er  Er6  1  0.75000000  0.56086600  0.38960700  1
  Er  Er7  1  0.75000000  0.06086600  0.11039300  1
  Pb  Pb0  1  0.75000000  0.23617600  0.32972100  1
  Pb  Pb1  1  0.25000000  0.76382400  0.67027900  1
  Pb  Pb2  1  0.75000000  0.73617600  0.17027900  1
  Pb  Pb3  1  0.25000000  0.26382400  0.82972100  1
  Se  Se0  1  0.25000000  0.13040800  0.46988600  1
  Se  Se1  1  0.25000000  0.02353500  0.71407100  1
  Se  Se2  1  0.75000000  0.58953700  0.57687900  1
  Se  Se3  1  0.75000000  0.36959200  0.96988600  1
  Se  Se4  1  0.75000000  0.86959200  0.53011400  1
  Se  Se5  1  0.25000000  0.20717400  0.16976200  1
  Se  Se6  1  0.75000000  0.97646500  0.28592900  1
  Se  Se7  1  0.25000000  0.41046300  0.42312100  1
  Se  Se8  1  0.75000000  0.08953700  0.92312100  1
  Se  Se9  1  0.75000000  0.47646500  0.21407100  1
  Se  Se10  1  0.25000000  0.52353500  0.78592900  1
  Se  Se11  1  0.75000000  0.29282600  0.66976200  1
  Se  Se12  1  0.25000000  0.91046300  0.07687900  1
  Se  Se13  1  0.25000000  0.63040800  0.03011400  1
  Se  Se14  1  0.75000000  0.79282600  0.83023800  1
  Se  Se15  1  0.25000000  0.70717400  0.33023800  1
loop_
_geom_bond_atom_site_label_1
_geom_bond_atom_site_label_2
_geom_bond_distance
_geom_bond_site_symmetry_2
Er0 Se7 2.821584 1_555
Er0 Se10 2.829451 1_555
Er0 Se2 2.837534 1_455
Er0 Se2 2.837534 1_555
Er0 Se11 2.897578 1_555
Er0 Se11 2.897578 1_455
Er1 Se1 2.800361 1_655
Er1 Se1 2.800361 1_555
Er1 Se4 2.842403 1_545
Er1 Se0 2.861692 1_555
Er1 Se0 2.861692 1_655
Er1 Se11 2.872117 1_555
Er2 Se6 2.800361 1_555
Er2 Se6 2.800361 1_455
Er2 Se0 2.842403 1_565
Er2 Se4 2.861692 1_455
Er2 Se4 2.861692 1_555
Er2 Se15 2.872117 1_555
Er3 Se12 2.821584 1_556
Er3 Se1 2.829451 1_565
Er3 Se8 2.837534 1_465
Er3 Se8 2.837534 1_565
Er3 Se14 2.897578 1_555
Er3 Se14 2.897578 1_455
Er4 Se10 2.800361 1_655
Er4 Se10 2.800361 1_555
Er4 Se3 2.842403 1_555
Er4 Se13 2.861692 1_656
Er4 Se13 2.861692 1_556
Er4 Se14 2.872117 1_555
Er5 Se9 2.800361 1_555
Er5 Se9 2.800361 1_455
Er5 Se13 2.842403 1_555
Er5 Se3 2.861692 1_454
Er5 Se3 2.861692 1_554
Er5 Se5 2.872117 1_555
Er6 Se2 2.821584 1_555
Er6 Se9 2.829451 1_555
Er6 Se7 2.837534 1_555
Er6 Se7 2.837534 1_655
Er6 Se15 2.897578 1_655
Er6 Se15 2.897578 1_555
Er7 Se8 2.821584 1_554
Er7 Se6 2.829451 1_545
Er7 Se12 2.837534 1_545
Er7 Se12 2.837534 1_645
Er7 Se5 2.897578 1_555
Er7 Se5 2.897578 1_655
Pb0 Se5 3.174038 1_655
Pb0 Se5 3.174038 1_555
Pb0 Se0 3.222105 1_555
Pb0 Se0 3.222105 1_655
Pb0 Se7 3.312646 1_555
Pb0 Se7 3.312646 1_655
Pb0 Se6 3.328870 1_545
Pb1 Se14 3.174038 1_455
Pb1 Se14 3.174038 1_555
Pb1 Se4 3.222105 1_455
Pb1 Se4 3.222105 1_555
Pb1 Se2 3.312646 1_555
Pb1 Se2 3.312646 1_455
Pb1 Se1 3.328870 1_565
Pb2 Se15 3.174038 1_655
Pb2 Se15 3.174038 1_555
Pb2 Se13 3.222105 1_655
Pb2 Se13 3.222105 1_555
Pb2 Se12 3.312646 1_555
Pb2 Se12 3.312646 1_655
Pb2 Se9 3.328870 1_555
Pb3 Se11 3.174038 1_455
Pb3 Se11 3.174038 1_555
Pb3 Se3 3.222105 1_455
Pb3 Se3 3.222105 1_555
Pb3 Se8 3.312646 1_455
Pb3 Se8 3.312646 1_555
Pb3 Se10 3.328870 1_555
