# generated using pymatgen
data_KTh2(PO4)3
_symmetry_space_group_name_H-M   'P 1'
_cell_length_a   9.56026706
_cell_length_b   9.56026706
_cell_length_c   8.23383192
_cell_angle_alpha   78.81059450
_cell_angle_beta   78.81059450
_cell_angle_gamma   42.36745654
_symmetry_Int_Tables_number   1
_chemical_formula_structural   KTh2(PO4)3
_chemical_formula_sum   'K2 Th4 P6 O24'
_cell_volume   496.03410470
_cell_formula_units_Z   2
loop_
 _symmetry_equiv_pos_site_id
 _symmetry_equiv_pos_as_xyz
  1  'x, y, z'
loop_
 _atom_site_type_symbol
 _atom_site_label
 _atom_site_symmetry_multiplicity
 _atom_site_fract_x
 _atom_site_fract_y
 _atom_site_fract_z
 _atom_site_occupancy
  K  K0  1  0.59758600  0.40241400  0.25000000  1
  K  K1  1  0.40241400  0.59758600  0.75000000  1
  Th  Th0  1  0.75166100  0.94064400  0.03457600  1
  Th  Th1  1  0.05935600  0.24833900  0.46542400  1
  Th  Th2  1  0.24833900  0.05935600  0.96542400  1
  Th  Th3  1  0.94064400  0.75166100  0.53457600  1
  P  P0  1  0.60020500  0.78109500  0.31494600  1
  P  P1  1  0.21890500  0.39979500  0.18505400  1
  P  P2  1  0.39979500  0.21890500  0.68505400  1
  P  P3  1  0.78109500  0.60020500  0.81494600  1
  P  P4  1  0.09746900  0.90253100  0.25000000  1
  P  P5  1  0.90253100  0.09746900  0.75000000  1
  O  O0  1  0.89629900  0.96041200  0.24577100  1
  O  O1  1  0.03958800  0.10370100  0.25422900  1
  O  O2  1  0.10370100  0.03958800  0.75422900  1
  O  O3  1  0.96041200  0.89629900  0.74577100  1
  O  O4  1  0.24595700  0.80634400  0.09100100  1
  O  O5  1  0.19365600  0.75404300  0.40899900  1
  O  O6  1  0.75404300  0.19365600  0.90899900  1
  O  O7  1  0.80634400  0.24595700  0.59100100  1
  O  O8  1  0.72514600  0.82576300  0.32986500  1
  O  O9  1  0.17423700  0.27485400  0.17013500  1
  O  O10  1  0.27485400  0.17423700  0.67013500  1
  O  O11  1  0.82576300  0.72514600  0.82986500  1
  O  O12  1  0.73620200  0.54764200  0.34472700  1
  O  O13  1  0.45235800  0.26379800  0.15527300  1
  O  O14  1  0.26379800  0.45235800  0.65527300  1
  O  O15  1  0.54764200  0.73620200  0.84472700  1
  O  O16  1  0.55198600  0.85496700  0.12690900  1
  O  O17  1  0.14503300  0.44801400  0.37309100  1
  O  O18  1  0.44801400  0.14503300  0.87309100  1
  O  O19  1  0.85496700  0.55198600  0.62690900  1
  O  O20  1  0.39661700  0.91160300  0.42626600  1
  O  O21  1  0.08839700  0.60338300  0.07373400  1
  O  O22  1  0.60338300  0.08839700  0.57373400  1
  O  O23  1  0.91160300  0.39661700  0.92626600  1
loop_
_geom_bond_atom_site_label_1
_geom_bond_atom_site_label_2
_geom_bond_distance
_geom_bond_site_symmetry_2
K0 O12 2.798660 1_555
K0 O13 2.798660 1_555
K0 O1 2.863469 1_655
K0 O0 2.863469 1_545
K0 O5 2.913850 1_555
K0 O4 2.913850 1_555
K0 O7 3.199619 1_555
K0 O6 3.199619 1_554
K1 O15 2.798660 1_555
K1 O14 2.798660 1_555
K1 O2 2.863469 1_565
K1 O3 2.863469 1_455
K1 O6 2.913850 1_555
K1 O7 2.913850 1_555
K1 O4 3.199619 1_556
K1 O5 3.199619 1_555
O0 P4 1.565943 1_655
O0 Th0 2.533506 1_555
O0 Th3 2.667684 1_555
O1 P4 1.565943 1_545
O1 Th1 2.533506 1_555
O1 Th2 2.667684 1_554
O2 P5 1.565943 1_455
O2 Th2 2.533506 1_555
O2 Th1 2.667684 1_555
O3 P5 1.565943 1_565
O3 Th3 2.533506 1_555
O3 Th0 2.667684 1_556
O4 P4 1.546523 1_555
O4 Th2 2.453999 1_564
O5 P4 1.546523 1_555
O5 Th3 2.453999 1_455
O6 P5 1.546523 1_555
O6 Th0 2.453999 1_546
O7 P5 1.546523 1_555
O7 Th1 2.453999 1_655
O8 P0 1.566925 1_555
O8 Th3 2.512980 1_555
O8 Th0 2.513530 1_555
O9 P1 1.566925 1_555
O9 Th2 2.512980 1_554
O9 Th1 2.513530 1_555
O10 P2 1.566925 1_555
O10 Th1 2.512980 1_555
O10 Th2 2.513530 1_555
O11 P3 1.566925 1_555
O11 Th0 2.512980 1_556
O11 Th3 2.513530 1_555
O12 P0 1.534672 1_555
O12 Th1 2.396875 1_655
O13 P1 1.534672 1_555
O13 Th0 2.396875 1_545
O14 P2 1.534672 1_555
O14 Th3 2.396875 1_455
O15 P3 1.534672 1_555
O15 Th2 2.396875 1_565
O16 P0 1.574787 1_555
O16 Th2 2.474052 1_564
O16 Th0 2.529536 1_555
O17 P1 1.574787 1_555
O17 Th3 2.474052 1_455
O17 Th1 2.529536 1_555
O18 P2 1.574787 1_555
O18 Th0 2.474052 1_546
O18 Th2 2.529536 1_555
O19 P3 1.574787 1_555
O19 Th1 2.474052 1_655
O19 Th3 2.529536 1_555
O20 P0 1.532373 1_555
O20 Th1 2.350543 1_565
O21 P1 1.532373 1_555
O21 Th0 2.350543 1_455
O22 P2 1.532373 1_555
O22 Th3 2.350543 1_545
O23 P3 1.532373 1_555
O23 Th2 2.350543 1_655
