# generated using pymatgen
data_Rb2Co2O3
_symmetry_space_group_name_H-M   'P 1'
_cell_length_a   6.05770986
_cell_length_b   7.69849248
_cell_length_c   11.82148437
_cell_angle_alpha   90.00000000
_cell_angle_beta   90.00000000
_cell_angle_gamma   90.00000000
_symmetry_Int_Tables_number   1
_chemical_formula_structural   Rb2Co2O3
_chemical_formula_sum   'Rb8 Co8 O12'
_cell_volume   551.29768750
_cell_formula_units_Z   4
loop_
 _symmetry_equiv_pos_site_id
 _symmetry_equiv_pos_as_xyz
  1  'x, y, z'
loop_
 _atom_site_type_symbol
 _atom_site_label
 _atom_site_symmetry_multiplicity
 _atom_site_fract_x
 _atom_site_fract_y
 _atom_site_fract_z
 _atom_site_occupancy
  Rb  Rb0  1  0.25000000  0.00797544  0.37795532  1
  Rb  Rb1  1  0.75000000  0.99202456  0.62204468  1
  Rb  Rb2  1  0.75000000  0.50797544  0.12204468  1
  Rb  Rb3  1  0.25000000  0.49202456  0.87795532  1
  Rb  Rb4  1  0.25000000  0.87476867  0.05963810  1
  Rb  Rb5  1  0.75000000  0.12523133  0.94036190  1
  Rb  Rb6  1  0.75000000  0.37476867  0.44036190  1
  Rb  Rb7  1  0.25000000  0.62523133  0.55963810  1
  Co  Co0  1  0.25000000  0.57684035  0.26558490  1
  Co  Co1  1  0.75000000  0.42315965  0.73441510  1
  Co  Co2  1  0.75000000  0.07684035  0.23441510  1
  Co  Co3  1  0.25000000  0.92315965  0.76558490  1
  Co  Co4  1  0.25000000  0.28083505  0.15583104  1
  Co  Co5  1  0.75000000  0.71916495  0.84416896  1
  Co  Co6  1  0.75000000  0.78083505  0.34416896  1
  Co  Co7  1  0.25000000  0.21916495  0.65583104  1
  O  O0  1  0.25000000  0.51885068  0.11632721  1
  O  O1  1  0.75000000  0.48114932  0.88367279  1
  O  O2  1  0.75000000  0.01885068  0.38367279  1
  O  O3  1  0.25000000  0.98114932  0.61632721  1
  O  O4  1  -0.00725655  0.16347823  0.15367678  1
  O  O5  1  0.49274345  0.83652177  0.84632322  1
  O  O6  1  0.00725655  0.66347823  0.34632322  1
  O  O7  1  0.50725655  0.33652177  0.65367678  1
  O  O8  1  0.00725655  0.83652177  0.84632322  1
  O  O9  1  0.50725655  0.16347823  0.15367678  1
  O  O10  1  -0.00725655  0.33652177  0.65367678  1
  O  O11  1  0.49274345  0.66347823  0.34632322  1
loop_
_geom_bond_atom_site_label_1
_geom_bond_atom_site_label_2
_geom_bond_distance
_geom_bond_site_symmetry_2
Co0 O0 1.820049 1_555
Co0 O6 1.875663 1_555
Co0 O11 1.875663 1_555
Co1 O1 1.820049 1_555
Co1 O10 1.875663 1_655
Co1 O7 1.875663 1_555
Co2 O2 1.820049 1_555
Co2 O4 1.875663 1_655
Co2 O9 1.875663 1_555
Co3 O3 1.820049 1_555
Co3 O8 1.875663 1_555
Co3 O5 1.875663 1_555
Co4 O9 1.801520 1_555
Co4 O4 1.801520 1_555
Co4 O0 1.890934 1_555
Co5 O8 1.801520 1_655
Co5 O5 1.801520 1_555
Co5 O1 1.890934 1_555
Co6 O6 1.801520 1_655
Co6 O11 1.801520 1_555
Co6 O2 1.890934 1_565
Co7 O7 1.801520 1_555
Co7 O10 1.801520 1_555
Co7 O3 1.890934 1_545
O0 Rb4 2.820793 1_555
O0 Rb3 2.825467 1_554
O0 Rb2 3.030766 1_455
O0 Rb2 3.030766 1_555
O1 Rb5 2.820793 1_555
O1 Rb2 2.825467 1_556
O1 Rb3 3.030766 1_555
O1 Rb3 3.030766 1_655
O2 Rb6 2.820793 1_555
O2 Rb1 2.825467 1_545
O2 Rb0 3.030766 1_655
O2 Rb0 3.030766 1_555
O3 Rb7 2.820793 1_555
O3 Rb0 2.825467 1_565
O3 Rb1 3.030766 1_455
O3 Rb1 3.030766 1_555
O4 Rb4 2.933337 1_545
O4 Rb5 2.933929 1_454
O4 Rb2 3.055453 1_455
O5 Rb5 2.933337 1_565
O5 Rb4 2.933929 1_556
O5 Rb3 3.055453 1_555
O6 Rb6 2.933337 1_455
O6 Rb7 2.933929 1_555
O6 Rb0 3.055453 1_565
O7 Rb7 2.933337 1_555
O7 Rb6 2.933929 1_555
O7 Rb1 3.055453 1_545
O8 Rb5 2.933337 1_465
O8 Rb4 2.933929 1_556
O8 Rb3 3.055453 1_555
O9 Rb4 2.933337 1_545
O9 Rb5 2.933929 1_554
O9 Rb2 3.055453 1_555
O10 Rb7 2.933337 1_555
O10 Rb6 2.933929 1_455
O10 Rb1 3.055453 1_445
O11 Rb6 2.933337 1_555
O11 Rb7 2.933929 1_555
O11 Rb0 3.055453 1_565
