# generated using pymatgen
data_Na2Th(PO4)2
_symmetry_space_group_name_H-M   'P 1'
_cell_length_a   22.01863900
_cell_length_b   7.11375400
_cell_length_c   9.26446987
_cell_angle_alpha   68.49086393
_cell_angle_beta   90.00000000
_cell_angle_gamma   90.00000000
_symmetry_Int_Tables_number   1
_chemical_formula_structural   Na2Th(PO4)2
_chemical_formula_sum   'Na16 Th8 P16 O64'
_cell_volume   1350.08311168
_cell_formula_units_Z   8
loop_
 _symmetry_equiv_pos_site_id
 _symmetry_equiv_pos_as_xyz
  1  'x, y, z'
loop_
 _atom_site_type_symbol
 _atom_site_label
 _atom_site_symmetry_multiplicity
 _atom_site_fract_x
 _atom_site_fract_y
 _atom_site_fract_z
 _atom_site_occupancy
  Na  Na0  1  0.06091700  0.14786900  0.46076000  1
  Na  Na1  1  0.93908300  0.85213100  0.53924000  1
  Na  Na2  1  0.43998900  0.35696600  0.54227000  1
  Na  Na3  1  0.56091700  0.85213100  0.03924000  1
  Na  Na4  1  0.31298200  0.62929000  0.50451200  1
  Na  Na5  1  0.68709200  0.11965800  0.98721800  1
  Na  Na6  1  0.31290800  0.88034200  0.01278200  1
  Na  Na7  1  0.68701800  0.37071000  0.49548800  1
  Na  Na8  1  0.81298200  0.37071000  0.99548800  1
  Na  Na9  1  0.43908300  0.14786900  0.96076000  1
  Na  Na10  1  0.06001100  0.35696600  0.04227000  1
  Na  Na11  1  0.81290800  0.11965800  0.48721800  1
  Na  Na12  1  0.18709200  0.88034200  0.51278200  1
  Na  Na13  1  0.18701800  0.62929000  0.00451200  1
  Na  Na14  1  0.93998900  0.64303400  0.95773000  1
  Na  Na15  1  0.56001100  0.64303400  0.45773000  1
  Th  Th0  1  0.95350800  0.24256300  0.75285100  1
  Th  Th1  1  0.67869100  0.74476700  0.74393800  1
  Th  Th2  1  0.45350800  0.75743700  0.74714900  1
  Th  Th3  1  0.82130900  0.74476700  0.24393800  1
  Th  Th4  1  0.32130900  0.25523300  0.25606200  1
  Th  Th5  1  0.17869100  0.25523300  0.75606200  1
  Th  Th6  1  0.54649200  0.24256300  0.25285100  1
  Th  Th7  1  0.04649200  0.75743700  0.24714900  1
  P  P0  1  0.81670700  0.92659300  0.87291300  1
  P  P1  1  0.68458200  0.55789000  0.11448500  1
  P  P2  1  0.55869900  0.43425900  0.85090800  1
  P  P3  1  0.31670700  0.07340700  0.62708700  1
  P  P4  1  0.44130100  0.56574100  0.14909200  1
  P  P5  1  0.18458200  0.44211000  0.38551500  1
  P  P6  1  0.81541800  0.55789000  0.61448500  1
  P  P7  1  0.94130100  0.43425900  0.35090800  1
  P  P8  1  0.93752900  0.06965300  0.14457700  1
  P  P9  1  0.18329300  0.07340700  0.12708700  1
  P  P10  1  0.05869900  0.56574100  0.64909200  1
  P  P11  1  0.06247100  0.93034700  0.85542300  1
  P  P12  1  0.68329300  0.92659300  0.37291300  1
  P  P13  1  0.31541800  0.44211000  0.88551500  1
  P  P14  1  0.56247100  0.06965300  0.64457700  1
  P  P15  1  0.43752900  0.93034700  0.35542300  1
  O  O0  1  0.16825200  0.22179900  0.49099500  1
  O  O1  1  0.55519300  0.89502300  0.58066800  1
  O  O2  1  0.62910200  0.45974400  0.21913200  1
  O  O3  1  0.61689500  0.46022900  0.75302100  1
  O  O4  1  0.94480700  0.89502300  0.08066800  1
  O  O5  1  0.29986100  0.54810200  0.00076700  1
  O  O6  1  0.88310500  0.46022900  0.25302100  1
  O  O7  1  0.11689500  0.53977100  0.74697900  1
  O  O8  1  0.66771200  0.70675300  0.48121000  1
  O  O9  1  0.06265600  0.72555800  0.99514100  1
  O  O10  1  0.56265600  0.27444200  0.50485900  1
  O  O11  1  0.49427900  0.94777700  0.25032500  1
  O  O12  1  0.00071500  0.55114500  0.74990300  1
  O  O13  1  0.49928500  0.55114500  0.24990300  1
  O  O14  1  0.79986100  0.45189800  0.49923300  1
  O  O15  1  0.05987000  0.76741300  0.50647600  1
  O  O16  1  0.99427900  0.05222300  0.24967500  1
  O  O17  1  0.12910200  0.54025600  0.28086800  1
  O  O18  1  0.87837800  0.03885300  0.23915800  1
  O  O19  1  0.50071500  0.44885500  0.75009700  1
  O  O20  1  0.69885400  0.03634400  0.48577600  1
  O  O21  1  0.00572100  0.94777700  0.75032500  1
  O  O22  1  0.87089800  0.45974400  0.71913200  1
  O  O23  1  0.50572100  0.05222300  0.74967500  1
  O  O24  1  0.43734400  0.72555800  0.49514100  1
  O  O25  1  0.38310500  0.53977100  0.24697900  1
  O  O26  1  0.66825200  0.77820100  0.00900500  1
  O  O27  1  0.62162200  0.03885300  0.73915800  1
  O  O28  1  0.94013000  0.23258700  0.49352400  1
  O  O29  1  0.83228800  0.70675300  0.98121000  1
  O  O30  1  0.05519300  0.10497700  0.91933200  1
  O  O31  1  0.33174800  0.22179900  0.99099500  1
  O  O32  1  0.73740400  0.93868100  0.26341400  1
  O  O33  1  0.83174800  0.77820100  0.50900500  1
  O  O34  1  0.44714900  0.38296800  0.09432700  1
  O  O35  1  0.76259600  0.93868100  0.76341400  1
  O  O36  1  0.55285100  0.61703200  0.90567300  1
  O  O37  1  0.99928500  0.44885500  0.25009700  1
  O  O38  1  0.94714900  0.61703200  0.40567300  1
  O  O39  1  0.70013900  0.45189800  0.99923300  1
  O  O40  1  0.93734400  0.27444200  0.00485900  1
  O  O41  1  0.55987000  0.23258700  0.99352400  1
  O  O42  1  0.62707300  0.01953900  0.26914900  1
  O  O43  1  0.73892200  0.54541500  0.22338800  1
  O  O44  1  0.12162200  0.96114700  0.76084200  1
  O  O45  1  0.20013900  0.54810200  0.50076700  1
  O  O46  1  0.44480700  0.10497700  0.41933200  1
  O  O47  1  0.33228800  0.29324700  0.51879000  1
  O  O48  1  0.19885400  0.96365600  0.01422400  1
  O  O49  1  0.12707300  0.98046100  0.23085100  1
  O  O50  1  0.05285100  0.38296800  0.59432700  1
  O  O51  1  0.30114600  0.96365600  0.51422400  1
  O  O52  1  0.16771200  0.29324700  0.01879000  1
  O  O53  1  0.23740400  0.06131900  0.23658600  1
  O  O54  1  0.80114600  0.03634400  0.98577600  1
  O  O55  1  0.37089800  0.54025600  0.78086800  1
  O  O56  1  0.26107800  0.45458500  0.77661200  1
  O  O57  1  0.26259600  0.06131900  0.73658600  1
  O  O58  1  0.23892200  0.45458500  0.27661200  1
  O  O59  1  0.37837800  0.96114700  0.26084200  1
  O  O60  1  0.44013000  0.76741300  0.00647600  1
  O  O61  1  0.37292700  0.98046100  0.73085100  1
  O  O62  1  0.87292700  0.01953900  0.76914900  1
  O  O63  1  0.76107800  0.54541500  0.72338800  1
loop_
_geom_bond_atom_site_label_1
_geom_bond_atom_site_label_2
_geom_bond_distance
_geom_bond_site_symmetry_2
Na0 O50 2.424333 1_555
Na0 O0 2.459390 1_555
Na0 O15 2.581536 1_545
Na0 O37 2.677836 1_455
Na0 O16 2.723216 1_455
Na0 O28 2.768171 1_455
Na0 O21 2.810643 1_545
Na0 O44 2.927800 1_545
Na1 O38 2.424333 1_555
Na1 O33 2.459390 1_555
Na1 O28 2.581536 1_565
Na1 O12 2.677836 1_655
Na1 O21 2.723216 1_655
Na1 O15 2.768171 1_655
Na1 O16 2.810643 1_565
Na1 O18 2.927800 1_565
Na2 O47 2.439009 1_555
Na2 O46 2.453366 1_555
Na2 O24 2.495951 1_555
Na2 O19 2.616344 1_555
Na2 O23 2.726163 1_555
Na2 O10 2.812321 1_555
Na2 O25 2.852234 1_555
Na2 O13 2.864564 1_555
Na2 O61 2.995832 1_545
Na3 O36 2.424333 1_554
Na3 O26 2.459390 1_555
Na3 O41 2.581536 1_564
Na3 O13 2.677836 1_555
Na3 O11 2.723216 1_555
Na3 O60 2.768171 1_555
Na3 O23 2.810643 1_564
Na3 O27 2.927800 1_564
Na4 O47 2.383473 1_555
Na4 O51 2.427072 1_555
Na4 O45 2.554006 1_555
Na4 O56 2.628317 1_555
Na4 O55 2.719070 1_555
Na4 O24 2.816224 1_555
Na5 O26 2.398653 1_546
Na5 O39 2.423602 1_555
Na5 O54 2.581462 1_555
Na5 O32 2.648869 1_546
Na5 O42 2.777015 1_556
Na5 O41 2.920656 1_555
Na5 O27 2.942568 1_555
Na5 O3 3.018547 1_555
Na6 O31 2.398653 1_564
Na6 O5 2.423602 1_555
Na6 O48 2.581462 1_555
Na6 O57 2.648869 1_564
Na6 O61 2.777015 1_554
Na6 O60 2.920656 1_555
Na6 O59 2.942568 1_555
Na6 O25 3.018547 1_555
Na7 O8 2.383473 1_555
Na7 O20 2.427072 1_555
Na7 O14 2.554006 1_555
Na7 O43 2.628317 1_555
Na7 O2 2.719070 1_555
Na7 O10 2.816224 1_555
Na8 O29 2.383473 1_555
Na8 O54 2.427072 1_555
Na8 O39 2.554006 1_555
Na8 O63 2.628317 1_555
Na8 O22 2.719070 1_555
Na8 O40 2.816224 1_556
Na9 O34 2.424333 1_556
Na9 O31 2.459390 1_555
Na9 O60 2.581536 1_546
Na9 O19 2.677836 1_555
Na9 O23 2.723216 1_555
Na9 O41 2.768171 1_555
Na9 O11 2.810643 1_546
Na9 O59 2.927800 1_546
Na10 O52 2.439009 1_555
Na10 O30 2.453366 1_554
Na10 O9 2.495951 1_554
Na10 O37 2.616344 1_455
Na10 O16 2.726163 1_455
Na10 O40 2.812321 1_455
Na10 O7 2.852234 1_554
Na10 O12 2.864564 1_554
Na10 O49 2.995832 1_545
Na11 O33 2.398653 1_545
Na11 O14 2.423602 1_555
Na11 O20 2.581462 1_555
Na11 O35 2.648869 1_545
Na11 O62 2.777015 1_555
Na11 O28 2.920656 1_555
Na11 O18 2.942568 1_555
Na11 O6 3.018547 1_555
Na12 O0 2.398653 1_565
Na12 O45 2.423602 1_555
Na12 O51 2.581462 1_555
Na12 O53 2.648869 1_565
Na12 O49 2.777015 1_555
Na12 O15 2.920656 1_555
Na12 O44 2.942568 1_555
Na12 O7 3.018547 1_555
Na13 O52 2.383473 1_555
Na13 O48 2.427072 1_555
Na13 O5 2.554006 1_555
Na13 O58 2.628317 1_555
Na13 O17 2.719070 1_555
Na13 O9 2.816224 1_554
Na14 O29 2.439009 1_555
Na14 O4 2.453366 1_556
Na14 O40 2.495951 1_556
Na14 O12 2.616344 1_655
Na14 O21 2.726163 1_655
Na14 O9 2.812321 1_655
Na14 O6 2.852234 1_556
Na14 O37 2.864564 1_556
Na14 O62 2.995832 1_565
Na15 O8 2.439009 1_555
Na15 O1 2.453366 1_555
Na15 O10 2.495951 1_555
Na15 O13 2.616344 1_555
Na15 O11 2.726163 1_555
Na15 O24 2.812321 1_555
Na15 O3 2.852234 1_555
Na15 O19 2.864564 1_555
Na15 O42 2.995832 1_565
O0 P5 1.554800 1_555
O0 Th5 2.562847 1_555
O1 P14 1.568073 1_565
O1 Th2 2.691247 1_555
O2 P1 1.556702 1_555
O2 Th6 2.332215 1_555
O3 P2 1.541320 1_555
O3 Th1 2.414684 1_555
O4 P8 1.568073 1_565
O4 Th7 2.691247 1_655
O5 P13 1.554448 1_554
O5 Th4 2.558166 1_555
O6 P7 1.541320 1_555
O6 Th3 2.414684 1_555
O7 P10 1.541320 1_555
O7 Th5 2.414684 1_555
O8 P12 1.555469 1_555
O8 Th1 2.557101 1_555
O9 P11 1.554040 1_555
O9 Th7 2.453014 1_556
O10 P14 1.554040 1_555
O10 Th6 2.453014 1_555
O11 P15 1.560861 1_555
O11 Th6 2.399126 1_565
O12 P10 1.562686 1_555
O12 Th0 2.419918 1_455
O13 P4 1.562686 1_555
O13 Th6 2.419918 1_555
O14 P6 1.554448 1_555
O14 Th3 2.558166 1_555
O15 P10 1.553900 1_555
O15 Th7 2.447237 1_555
O16 P8 1.560861 1_555
O16 Th7 2.399126 1_645
O17 P5 1.556702 1_555
O17 Th7 2.332215 1_555
O18 P8 1.539913 1_555
O18 Th3 2.426874 1_545
O19 P2 1.562686 1_555
O19 Th2 2.419918 1_555
O20 P12 1.555281 1_545
O20 Th1 2.565534 1_545
O21 P11 1.560861 1_555
O21 Th0 2.399126 1_465
O22 P6 1.556702 1_555
O22 Th0 2.332215 1_555
O23 P14 1.560861 1_555
O23 Th2 2.399126 1_545
O24 P15 1.554040 1_555
O24 Th2 2.453014 1_555
O25 P4 1.541320 1_555
O25 Th4 2.414684 1_555
O26 P1 1.554800 1_555
O26 Th1 2.562847 1_554
O27 P14 1.539913 1_555
O27 Th1 2.426874 1_545
O28 P7 1.553900 1_555
O28 Th0 2.447237 1_555
O29 P0 1.555469 1_555
O29 Th3 2.557101 1_556
O30 P11 1.568073 1_545
O30 Th0 2.691247 1_455
O31 P13 1.554800 1_555
O31 Th4 2.562847 1_556
O32 P12 1.546638 1_555
O32 Th3 2.351837 1_555
O33 P6 1.554800 1_555
O33 Th3 2.562847 1_555
O34 P4 1.564696 1_555
O34 Th6 2.619840 1_555
O35 P0 1.546638 1_555
O35 Th1 2.351837 1_555
O36 P2 1.564696 1_555
O36 Th2 2.619840 1_555
O37 P7 1.562686 1_555
O37 Th7 2.419918 1_655
O38 P7 1.564696 1_555
O38 Th7 2.619840 1_655
O39 P1 1.554448 1_556
O39 Th1 2.558166 1_555
O40 P8 1.554040 1_555
O40 Th0 2.453014 1_554
O41 P2 1.553900 1_555
O41 Th6 2.447237 1_556
O42 P12 1.558069 1_545
O42 Th6 2.347833 1_555
O43 P1 1.546529 1_555
O43 Th3 2.352899 1_555
O44 P11 1.539913 1_555
O44 Th5 2.426874 1_565
O45 P5 1.554448 1_555
O45 Th5 2.558166 1_555
O46 P15 1.568073 1_545
O46 Th6 2.691247 1_555
O47 P3 1.555469 1_555
O47 Th4 2.557101 1_555
O48 P9 1.555281 1_565
O48 Th5 2.565534 1_564
O49 P9 1.558069 1_565
O49 Th7 2.347833 1_555
O50 P10 1.564696 1_555
O50 Th0 2.619840 1_455
O51 P3 1.555281 1_565
O51 Th4 2.565534 1_565
O52 P9 1.555469 1_555
O52 Th5 2.557101 1_554
O53 P9 1.546638 1_555
O53 Th4 2.351837 1_555
O54 P0 1.555281 1_545
O54 Th3 2.565534 1_546
O55 P13 1.556702 1_555
O55 Th2 2.332215 1_555
O56 P13 1.546529 1_555
O56 Th5 2.352899 1_555
O57 P3 1.546638 1_555
O57 Th5 2.351837 1_555
O58 P5 1.546529 1_555
O58 Th4 2.352899 1_555
O59 P15 1.539913 1_555
O59 Th4 2.426874 1_565
O60 P4 1.553900 1_555
O60 Th2 2.447237 1_554
O61 P3 1.558069 1_565
O61 Th2 2.347833 1_555
O62 P0 1.558069 1_545
O62 Th0 2.347833 1_555
O63 P6 1.546529 1_555
O63 Th1 2.352899 1_555
