# generated using pymatgen
data_KUN3O11
_symmetry_space_group_name_H-M   'P 1'
_cell_length_a   8.46434035
_cell_length_b   8.46434035
_cell_length_c   8.15060405
_cell_angle_alpha   68.80142424
_cell_angle_beta   68.80142424
_cell_angle_gamma   70.62718005
_symmetry_Int_Tables_number   1
_chemical_formula_structural   KUN3O11
_chemical_formula_sum   'K2 U2 N6 O22'
_cell_volume   493.84460204
_cell_formula_units_Z   2
loop_
 _symmetry_equiv_pos_site_id
 _symmetry_equiv_pos_as_xyz
  1  'x, y, z'
loop_
 _atom_site_type_symbol
 _atom_site_label
 _atom_site_symmetry_multiplicity
 _atom_site_fract_x
 _atom_site_fract_y
 _atom_site_fract_z
 _atom_site_occupancy
  K  K0  1  0.00000000  0.50000000  0.50000000  1
  K  K1  1  0.50000000  0.00000000  0.00000000  1
  U  U0  1  0.76143200  0.23856800  0.25000000  1
  U  U1  1  0.23856800  0.76143200  0.75000000  1
  N  N0  1  0.75534600  0.92530400  0.56492700  1
  N  N1  1  0.07469600  0.24465400  0.93507300  1
  N  N2  1  0.92530400  0.75534600  0.06492700  1
  N  N3  1  0.24465400  0.07469600  0.43507300  1
  N  N4  1  0.53827400  0.46172600  0.75000000  1
  N  N5  1  0.46172600  0.53827400  0.25000000  1
  O  O0  1  0.79317600  0.74904800  0.19366200  1
  O  O1  1  0.74904800  0.79317600  0.69366200  1
  O  O2  1  0.66367700  0.33632300  0.75000000  1
  O  O3  1  0.93107000  0.87901800  0.91431500  1
  O  O4  1  0.60307100  0.53802000  0.11719800  1
  O  O5  1  0.85635200  0.33473700  0.34452400  1
  O  O6  1  0.39692900  0.46198000  0.88280200  1
  O  O7  1  0.87901800  0.93107000  0.41431500  1
  O  O8  1  0.25095200  0.20682400  0.30633800  1
  O  O9  1  0.14364800  0.66526300  0.65547600  1
  O  O10  1  0.33473700  0.85635200  0.84452400  1
  O  O11  1  0.36152500  0.93096100  0.42968100  1
  O  O12  1  0.53802000  0.60307100  0.61719800  1
  O  O13  1  0.46198000  0.39692900  0.38280200  1
  O  O14  1  0.66526300  0.14364800  0.15547600  1
  O  O15  1  0.12098200  0.06893000  0.58568500  1
  O  O16  1  0.06893000  0.12098200  0.08568500  1
  O  O17  1  0.20682400  0.25095200  0.80633800  1
  O  O18  1  0.06903900  0.63847500  0.07031900  1
  O  O19  1  0.93096100  0.36152500  0.92968100  1
  O  O20  1  0.63847500  0.06903900  0.57031900  1
  O  O21  1  0.33632300  0.66367700  0.25000000  1
loop_
_geom_bond_atom_site_label_1
_geom_bond_atom_site_label_2
_geom_bond_distance
_geom_bond_site_symmetry_2
K0 O5 2.926715 1_455
K0 O9 2.926715 1_555
K0 O19 3.160079 1_455
K0 O18 3.160079 1_555
K0 O8 3.173726 1_555
K0 O1 3.173726 1_455
K0 O21 3.248884 1_555
K0 O2 3.248884 1_455
K0 O17 3.263285 1_555
K0 O0 3.263285 1_455
K0 O7 3.323412 1_455
K0 O15 3.323412 1_555
K1 O10 2.926715 1_544
K1 O14 2.926715 1_555
K1 O20 3.160079 1_554
K1 O11 3.160079 1_545
K1 O0 3.173726 1_545
K1 O17 3.173726 1_554
K1 O2 3.248884 1_554
K1 O21 3.248884 1_545
K1 O1 3.263285 1_544
K1 O8 3.263285 1_555
K1 O3 3.323412 1_544
K1 O16 3.323412 1_555
N0 O1 1.226788 1_555
N0 O7 1.290873 1_555
N0 O20 1.292077 1_565
N1 O17 1.226788 1_555
N1 O16 1.290873 1_556
N1 O19 1.292077 1_455
N2 O0 1.226788 1_555
N2 O3 1.290873 1_554
N2 O18 1.292077 1_655
N3 O8 1.226788 1_555
N3 O15 1.290873 1_555
N3 O11 1.292077 1_545
N4 O2 1.227149 1_555
N4 O12 1.290898 1_555
N4 O6 1.290898 1_555
N5 O21 1.227149 1_555
N5 O13 1.290898 1_555
N5 O4 1.290898 1_555
O4 U0 2.490785 1_555
O5 U0 1.799099 1_555
O6 U1 2.490785 1_555
O9 U1 1.799099 1_555
O10 U1 1.799099 1_555
O12 U1 2.490785 1_555
O13 U0 2.490785 1_555
O14 U0 1.799099 1_555
