# generated using pymatgen
data_Rb2Ge2S5
_symmetry_space_group_name_H-M   'P 1'
_cell_length_a   11.02820752
_cell_length_b   11.02820752
_cell_length_c   9.16331148
_cell_angle_alpha   79.67341733
_cell_angle_beta   79.67341733
_cell_angle_gamma   90.16568784
_symmetry_Int_Tables_number   1
_chemical_formula_structural   Rb2Ge2S5
_chemical_formula_sum   'Rb8 Ge8 S20'
_cell_volume   1077.93637702
_cell_formula_units_Z   4
loop_
 _symmetry_equiv_pos_site_id
 _symmetry_equiv_pos_as_xyz
  1  'x, y, z'
loop_
 _atom_site_type_symbol
 _atom_site_label
 _atom_site_symmetry_multiplicity
 _atom_site_fract_x
 _atom_site_fract_y
 _atom_site_fract_z
 _atom_site_occupancy
  Rb  Rb0  1  0.47644763  0.21028919  0.87287561  1
  Rb  Rb1  1  0.78971081  0.52355237  0.62712439  1
  Rb  Rb2  1  0.52355237  0.78971081  0.12712439  1
  Rb  Rb3  1  0.21028919  0.47644763  0.37287561  1
  Rb  Rb4  1  0.79136465  0.94252659  0.62590020  1
  Rb  Rb5  1  0.05747341  0.20863535  0.87409980  1
  Rb  Rb6  1  0.20863535  0.05747341  0.37409980  1
  Rb  Rb7  1  0.94252659  0.79136465  0.12590020  1
  Ge  Ge0  1  0.52638106  0.26689686  0.39997385  1
  Ge  Ge1  1  0.73310314  0.47361894  0.10002615  1
  Ge  Ge2  1  0.47361894  0.73310314  0.60002615  1
  Ge  Ge3  1  0.26689686  0.52638106  0.89997385  1
  Ge  Ge4  1  0.26983434  0.86370252  0.88576395  1
  Ge  Ge5  1  0.13629748  0.73016566  0.61423605  1
  Ge  Ge6  1  0.73016566  0.13629748  0.11423605  1
  Ge  Ge7  1  0.86370252  0.26983434  0.38576395  1
  S  S0  1  0.54328516  0.11613479  0.25953080  1
  S  S1  1  0.88386521  0.45671484  0.24046920  1
  S  S2  1  0.45671484  0.88386521  0.74046920  1
  S  S3  1  0.11613479  0.54328516  0.75953080  1
  S  S4  1  0.32233044  0.75505475  0.46132338  1
  S  S5  1  0.24494525  0.67766956  0.03867662  1
  S  S6  1  0.67766956  0.24494525  0.53867662  1
  S  S7  1  0.75505475  0.32233044  0.96132338  1
  S  S8  1  0.35341355  0.24327971  0.54806200  1
  S  S9  1  0.75672029  0.64658645  0.95193800  1
  S  S10  1  0.64658645  0.75672029  0.45193800  1
  S  S11  1  0.24327971  0.35341355  0.04806200  1
  S  S12  1  0.75334742  0.00256268  0.97241353  1
  S  S13  1  -0.00256268  0.24665258  0.52758647  1
  S  S14  1  0.24665258  -0.00256268  0.02758647  1
  S  S15  1  0.00256268  0.75334742  0.47241353  1
  S  S16  1  0.88268915  0.11731085  0.25000000  1
  S  S17  1  0.11731085  0.88268915  0.75000000  1
  S  S18  1  0.54658813  0.45341187  0.25000000  1
  S  S19  1  0.45341187  0.54658813  0.75000000  1
loop_
_geom_bond_atom_site_label_1
_geom_bond_atom_site_label_2
_geom_bond_distance
_geom_bond_site_symmetry_2
Rb0 S11 3.336540 1_556
Rb0 S14 3.380345 1_556
Rb0 S6 3.404077 1_555
Rb0 S8 3.448863 1_555
Rb0 S7 3.585241 1_555
Rb0 S19 3.701105 1_555
Rb0 S0 3.714350 1_556
Rb1 S10 3.336540 1_555
Rb1 S15 3.380345 1_655
Rb1 S7 3.404077 1_555
Rb1 S9 3.448863 1_555
Rb1 S6 3.585241 1_555
Rb1 S19 3.701105 1_555
Rb1 S1 3.714350 1_555
Rb2 S9 3.336540 1_554
Rb2 S12 3.380345 1_564
Rb2 S4 3.404077 1_555
Rb2 S10 3.448863 1_555
Rb2 S5 3.585241 1_555
Rb2 S18 3.701105 1_555
Rb2 S2 3.714350 1_554
Rb3 S8 3.336540 1_555
Rb3 S13 3.380345 1_555
Rb3 S5 3.404077 1_555
Rb3 S11 3.448863 1_555
Rb3 S4 3.585241 1_555
Rb3 S18 3.701105 1_555
Rb3 S3 3.714350 1_555
Rb4 S12 3.312723 1_565
Rb4 S10 3.369543 1_555
Rb4 S15 3.414865 1_655
Rb4 S6 3.572379 1_565
Rb4 S16 3.599863 1_565
Rb4 S2 3.673517 1_555
Rb5 S13 3.312723 1_555
Rb5 S11 3.369543 1_556
Rb5 S14 3.414865 1_556
Rb5 S7 3.572379 1_455
Rb5 S16 3.599863 1_456
Rb5 S3 3.673517 1_555
Rb6 S14 3.312723 1_555
Rb6 S8 3.369543 1_555
Rb6 S13 3.414865 1_555
Rb6 S4 3.572379 1_545
Rb6 S17 3.599863 1_545
Rb6 S0 3.673517 1_555
Rb7 S15 3.312723 1_655
Rb7 S9 3.369543 1_554
Rb7 S12 3.414865 1_564
Rb7 S5 3.572379 1_655
Rb7 S17 3.599863 1_654
Rb7 S1 3.673517 1_555
Ge0 S8 2.119026 1_555
Ge0 S18 2.245730 1_555
Ge0 S6 2.260522 1_555
Ge0 S0 2.266754 1_555
Ge1 S9 2.119026 1_554
Ge1 S18 2.245730 1_555
Ge1 S7 2.260522 1_554
Ge1 S1 2.266754 1_555
Ge2 S10 2.119026 1_555
Ge2 S19 2.245730 1_555
Ge2 S4 2.260522 1_555
Ge2 S2 2.266754 1_555
Ge3 S11 2.119026 1_556
Ge3 S19 2.245730 1_555
Ge3 S5 2.260522 1_556
Ge3 S3 2.266754 1_555
Ge4 S14 2.121238 1_566
Ge4 S2 2.230926 1_555
Ge4 S5 2.252998 1_556
Ge4 S17 2.253817 1_555
Ge5 S15 2.121238 1_555
Ge5 S3 2.230926 1_555
Ge5 S4 2.252998 1_555
Ge5 S17 2.253817 1_555
Ge6 S12 2.121238 1_554
Ge6 S0 2.230926 1_555
Ge6 S7 2.252998 1_554
Ge6 S16 2.253817 1_555
Ge7 S13 2.121238 1_655
Ge7 S1 2.230926 1_555
Ge7 S6 2.252998 1_555
Ge7 S16 2.253817 1_555
