# generated using pymatgen
data_ErGeBiO5
_symmetry_space_group_name_H-M   'P 1'
_cell_length_a   5.37334000
_cell_length_b   11.08048700
_cell_length_c   15.42219900
_cell_angle_alpha   90.00000000
_cell_angle_beta   90.00000000
_cell_angle_gamma   90.00000000
_symmetry_Int_Tables_number   1
_chemical_formula_structural   ErGeBiO5
_chemical_formula_sum   'Er8 Ge8 Bi8 O40'
_cell_volume   918.22576109
_cell_formula_units_Z   8
loop_
 _symmetry_equiv_pos_site_id
 _symmetry_equiv_pos_as_xyz
  1  'x, y, z'
loop_
 _atom_site_type_symbol
 _atom_site_label
 _atom_site_symmetry_multiplicity
 _atom_site_fract_x
 _atom_site_fract_y
 _atom_site_fract_z
 _atom_site_occupancy
  Er  Er0  1  0.01021700  0.85885900  0.55326100  1
  Er  Er1  1  0.51021700  0.14114100  0.94673900  1
  Er  Er2  1  0.48978300  0.35885900  0.44673900  1
  Er  Er3  1  0.48978300  0.85885900  0.05326100  1
  Er  Er4  1  0.98978300  0.14114100  0.44673900  1
  Er  Er5  1  0.51021700  0.64114100  0.55326100  1
  Er  Er6  1  0.01021700  0.35885900  0.94673900  1
  Er  Er7  1  0.98978300  0.64114100  0.05326100  1
  Ge  Ge0  1  0.00640400  0.40301900  0.59541700  1
  Ge  Ge1  1  0.99359600  0.59698100  0.40458300  1
  Ge  Ge2  1  0.50640400  0.59698100  0.90458300  1
  Ge  Ge3  1  0.49359600  0.90301900  0.40458300  1
  Ge  Ge4  1  0.99359600  0.09698100  0.09541700  1
  Ge  Ge5  1  0.00640400  0.90301900  0.90458300  1
  Ge  Ge6  1  0.49359600  0.40301900  0.09541700  1
  Ge  Ge7  1  0.50640400  0.09698100  0.59541700  1
  Bi  Bi0  1  0.54309500  0.64670800  0.23716800  1
  Bi  Bi1  1  0.04309500  0.35329200  0.26283200  1
  Bi  Bi2  1  0.54309500  0.14670800  0.26283200  1
  Bi  Bi3  1  0.45690500  0.85329200  0.73716800  1
  Bi  Bi4  1  0.95690500  0.14670800  0.76283200  1
  Bi  Bi5  1  0.45690500  0.35329200  0.76283200  1
  Bi  Bi6  1  0.95690500  0.64670800  0.73716800  1
  Bi  Bi7  1  0.04309500  0.85329200  0.23716800  1
  O  O0  1  0.19508700  0.97572600  0.12612800  1
  O  O1  1  0.24983800  0.23501400  0.84995500  1
  O  O2  1  0.69508700  0.52427400  0.12612800  1
  O  O3  1  0.75016200  0.76498600  0.15004500  1
  O  O4  1  0.19844600  0.95873800  0.43890000  1
  O  O5  1  0.93460800  0.67008100  0.30246500  1
  O  O6  1  0.80155400  0.04126200  0.56110000  1
  O  O7  1  0.93460800  0.17008100  0.19753500  1
  O  O8  1  0.19844600  0.45873800  0.06110000  1
  O  O9  1  0.75016200  0.26498600  0.34995500  1
  O  O10  1  0.80155400  0.54126200  0.93890000  1
  O  O11  1  0.06539200  0.82991900  0.80246500  1
  O  O12  1  0.25016200  0.23501400  0.34995500  1
  O  O13  1  0.85649900  0.30860800  0.51989600  1
  O  O14  1  0.85649900  0.80860800  0.98010400  1
  O  O15  1  0.43460800  0.32991900  0.19753500  1
  O  O16  1  0.80491300  0.02427400  0.87387200  1
  O  O17  1  0.74983800  0.76498600  0.65004500  1
  O  O18  1  0.69844600  0.04126200  0.06110000  1
  O  O19  1  0.64350100  0.80860800  0.48010400  1
  O  O20  1  0.74983800  0.26498600  0.84995500  1
  O  O21  1  0.69508700  0.02427400  0.37387200  1
  O  O22  1  0.35649900  0.19139200  0.51989600  1
  O  O23  1  0.24983800  0.73501400  0.65004500  1
  O  O24  1  0.06539200  0.32991900  0.69753500  1
  O  O25  1  0.30155400  0.95873800  0.93890000  1
  O  O26  1  0.64350100  0.30860800  0.01989600  1
  O  O27  1  0.14350100  0.19139200  0.01989600  1
  O  O28  1  0.56539200  0.67008100  0.80246500  1
  O  O29  1  0.30491300  0.47572600  0.87387200  1
  O  O30  1  0.69844600  0.54126200  0.43890000  1
  O  O31  1  0.30491300  0.97572600  0.62612800  1
  O  O32  1  0.30155400  0.45873800  0.56110000  1
  O  O33  1  0.19508700  0.47572600  0.37387200  1
  O  O34  1  0.56539200  0.17008100  0.69753500  1
  O  O35  1  0.80491300  0.52427400  0.62612800  1
  O  O36  1  0.35649900  0.69139200  0.98010400  1
  O  O37  1  0.14350100  0.69139200  0.48010400  1
  O  O38  1  0.43460800  0.82991900  0.30246500  1
  O  O39  1  0.25016200  0.73501400  0.15004500  1
loop_
_geom_bond_atom_site_label_1
_geom_bond_atom_site_label_2
_geom_bond_distance
_geom_bond_site_symmetry_2
Er0 O37 2.286734 1_555
Er0 O17 2.295070 1_455
Er0 O6 2.314443 1_465
Er0 O4 2.314822 1_555
Er0 O31 2.333927 1_555
Er0 O19 2.337903 1_455
Er0 O23 2.401843 1_555
Er1 O26 2.286734 1_556
Er1 O1 2.295070 1_555
Er1 O25 2.314443 1_545
Er1 O18 2.314822 1_556
Er1 O16 2.333927 1_555
Er1 O27 2.337903 1_556
Er1 O20 2.401843 1_555
Er2 O22 2.286734 1_555
Er2 O9 2.295070 1_555
Er2 O30 2.314443 1_555
Er2 O32 2.314822 1_555
Er2 O33 2.333927 1_555
Er2 O13 2.337903 1_555
Er2 O12 2.401843 1_555
Er3 O36 2.286734 1_554
Er3 O3 2.295070 1_555
Er3 O18 2.314443 1_565
Er3 O25 2.314822 1_554
Er3 O0 2.333927 1_555
Er3 O14 2.337903 1_554
Er3 O39 2.401843 1_555
Er4 O13 2.286734 1_555
Er4 O12 2.295070 1_655
Er4 O4 2.314443 1_645
Er4 O6 2.314822 1_555
Er4 O21 2.333927 1_555
Er4 O22 2.337903 1_655
Er4 O9 2.401843 1_555
Er5 O19 2.286734 1_555
Er5 O23 2.295070 1_555
Er5 O32 2.314443 1_555
Er5 O30 2.314822 1_555
Er5 O35 2.333927 1_555
Er5 O37 2.337903 1_555
Er5 O17 2.401843 1_555
Er6 O27 2.286734 1_556
Er6 O20 2.295070 1_455
Er6 O10 2.314443 1_455
Er6 O8 2.314822 1_556
Er6 O29 2.333927 1_555
Er6 O26 2.337903 1_456
Er6 O1 2.401843 1_555
Er7 O14 2.286734 1_554
Er7 O39 2.295070 1_655
Er7 O8 2.314443 1_655
Er7 O10 2.314822 1_554
Er7 O2 2.333927 1_555
Er7 O36 2.337903 1_654
Er7 O3 2.401843 1_555
Ge0 O13 1.760599 1_455
Ge0 O32 1.782269 1_555
Ge0 O35 1.789326 1_455
Ge0 O24 1.799111 1_555
Ge1 O37 1.760599 1_655
Ge1 O30 1.782269 1_555
Ge1 O33 1.789326 1_655
Ge1 O5 1.799111 1_555
Ge2 O36 1.760599 1_555
Ge2 O10 1.782269 1_555
Ge2 O29 1.789326 1_555
Ge2 O28 1.799111 1_555
Ge3 O19 1.760599 1_555
Ge3 O4 1.782269 1_555
Ge3 O21 1.789326 1_565
Ge3 O38 1.799111 1_555
Ge4 O27 1.760599 1_655
Ge4 O18 1.782269 1_555
Ge4 O0 1.789326 1_645
Ge4 O7 1.799111 1_555
Ge5 O14 1.760599 1_455
Ge5 O25 1.782269 1_555
Ge5 O16 1.789326 1_465
Ge5 O11 1.799111 1_555
Ge6 O26 1.760599 1_555
Ge6 O8 1.782269 1_555
Ge6 O2 1.789326 1_555
Ge6 O15 1.799111 1_555
Ge7 O22 1.760599 1_555
Ge7 O6 1.782269 1_555
Ge7 O31 1.789326 1_545
Ge7 O34 1.799111 1_555
Bi0 O3 2.181954 1_555
Bi0 O39 2.289173 1_555
Bi0 O2 2.332389 1_555
Bi0 O38 2.339890 1_555
Bi0 O5 2.346670 1_555
Bi1 O12 2.181954 1_555
Bi1 O9 2.289173 1_455
Bi1 O33 2.332389 1_555
Bi1 O7 2.339890 1_455
Bi1 O15 2.346670 1_555
Bi2 O9 2.181954 1_555
Bi2 O12 2.289173 1_555
Bi2 O21 2.332389 1_555
Bi2 O15 2.339890 1_555
Bi2 O7 2.346670 1_555
Bi3 O23 2.181954 1_555
Bi3 O17 2.289173 1_555
Bi3 O31 2.332389 1_555
Bi3 O28 2.339890 1_555
Bi3 O11 2.346670 1_555
Bi4 O20 2.181954 1_555
Bi4 O1 2.289173 1_655
Bi4 O16 2.332389 1_555
Bi4 O24 2.339890 1_655
Bi4 O34 2.346670 1_555
Bi5 O1 2.181954 1_555
Bi5 O20 2.289173 1_555
Bi5 O29 2.332389 1_555
Bi5 O34 2.339890 1_555
Bi5 O24 2.346670 1_555
Bi6 O17 2.181954 1_555
Bi6 O23 2.289173 1_655
Bi6 O35 2.332389 1_555
Bi6 O11 2.339890 1_655
Bi6 O28 2.346670 1_555
Bi7 O39 2.181954 1_555
Bi7 O3 2.289173 1_455
Bi7 O0 2.332389 1_555
Bi7 O5 2.339890 1_455
Bi7 O38 2.346670 1_555
