# generated using pymatgen
data_LiNi6P7O24
_symmetry_space_group_name_H-M   'P 1'
_cell_length_a   26.38660500
_cell_length_b   5.25083900
_cell_length_c   6.40251461
_cell_angle_alpha   72.64312514
_cell_angle_beta   90.00000000
_cell_angle_gamma   90.00000000
_symmetry_Int_Tables_number   1
_chemical_formula_structural   LiNi6P7O24
_chemical_formula_sum   'Li2 Ni12 P14 O48'
_cell_volume   846.68695240
_cell_formula_units_Z   2
loop_
 _symmetry_equiv_pos_site_id
 _symmetry_equiv_pos_as_xyz
  1  'x, y, z'
loop_
 _atom_site_type_symbol
 _atom_site_label
 _atom_site_symmetry_multiplicity
 _atom_site_fract_x
 _atom_site_fract_y
 _atom_site_fract_z
 _atom_site_occupancy
  Li  Li0  1  0.25000000  0.13502800  0.53683300  1
  Li  Li1  1  0.75000000  0.86497200  0.46316700  1
  Ni  Ni0  1  0.90288800  0.79643700  0.08827400  1
  Ni  Ni1  1  0.09711200  0.20356300  0.91172600  1
  Ni  Ni2  1  0.54782900  0.18919000  0.31068600  1
  Ni  Ni3  1  0.31717500  0.87517300  0.27466300  1
  Ni  Ni4  1  0.68282500  0.12482700  0.72533700  1
  Ni  Ni5  1  0.04782900  0.81081000  0.68931400  1
  Ni  Ni6  1  0.81717500  0.12482700  0.72533700  1
  Ni  Ni7  1  0.95217100  0.18919000  0.31068600  1
  Ni  Ni8  1  0.18282500  0.87517300  0.27466300  1
  Ni  Ni9  1  0.40288800  0.20356300  0.91172600  1
  Ni  Ni10  1  0.45217100  0.81081000  0.68931400  1
  Ni  Ni11  1  0.59711200  0.79643700  0.08827400  1
  P  P0  1  0.88951900  0.68545900  0.61676800  1
  P  P1  1  0.75000000  0.53597500  0.90544000  1
  P  P2  1  0.47600000  0.71054900  0.20471300  1
  P  P3  1  0.11048100  0.31454100  0.38323200  1
  P  P4  1  0.38951900  0.31454100  0.38323200  1
  P  P5  1  0.66705300  0.24338100  0.19538700  1
  P  P6  1  0.97600000  0.28945100  0.79528700  1
  P  P7  1  0.02400000  0.71054900  0.20471300  1
  P  P8  1  0.16705300  0.75661900  0.80461300  1
  P  P9  1  0.25000000  0.46402500  0.09456000  1
  P  P10  1  0.52400000  0.28945100  0.79528700  1
  P  P11  1  0.83294700  0.24338100  0.19538700  1
  P  P12  1  0.61048100  0.68545900  0.61676800  1
  P  P13  1  0.33294700  0.75661900  0.80461300  1
  O  O0  1  0.54831400  0.12171400  0.01197700  1
  O  O1  1  0.75000000  0.34307900  0.76792300  1
  O  O2  1  0.97737100  0.13860600  0.62451300  1
  O  O3  1  0.90463600  0.86276300  0.38634900  1
  O  O4  1  0.29693800  0.50666900  0.93633500  1
  O  O5  1  0.69422900  0.10713300  0.41031900  1
  O  O6  1  0.66416300  0.05761600  0.04958200  1
  O  O7  1  0.80577100  0.10713300  0.41031900  1
  O  O8  1  0.02713800  0.41488900  0.82769200  1
  O  O9  1  0.34895900  0.51492500  0.38550600  1
  O  O10  1  0.15104100  0.51492500  0.38550600  1
  O  O11  1  0.59536400  0.86276300  0.38634900  1
  O  O12  1  0.62301000  0.85789800  0.76803100  1
  O  O13  1  0.47286200  0.41488900  0.82769200  1
  O  O14  1  0.16416300  0.94238400  0.95041800  1
  O  O15  1  0.12301000  0.14210200  0.23196900  1
  O  O16  1  0.20306200  0.50666900  0.93633500  1
  O  O17  1  0.25000000  0.65692100  0.23207700  1
  O  O18  1  0.94178700  0.54888900  0.71199900  1
  O  O19  1  0.11845800  0.60602600  0.78481000  1
  O  O20  1  0.47737100  0.86139400  0.37548700  1
  O  O21  1  0.55821300  0.54888900  0.71199900  1
  O  O22  1  0.61845800  0.39397400  0.21519000  1
  O  O23  1  0.95168600  0.12171400  0.01197700  1
  O  O24  1  0.05821300  0.45111100  0.28800100  1
  O  O25  1  0.75000000  0.83157400  0.77712500  1
  O  O26  1  0.79693800  0.49333100  0.06366500  1
  O  O27  1  0.30577100  0.89286700  0.58968100  1
  O  O28  1  0.19422900  0.89286700  0.58968100  1
  O  O29  1  0.44178700  0.45111100  0.28800100  1
  O  O30  1  0.87699000  0.85789800  0.76803100  1
  O  O31  1  0.65104100  0.48507500  0.61449400  1
  O  O32  1  0.45168600  0.87828600  0.98802300  1
  O  O33  1  0.97286200  0.58511100  0.17230800  1
  O  O34  1  0.83583700  0.05761600  0.04958200  1
  O  O35  1  0.38154200  0.60602600  0.78481000  1
  O  O36  1  0.33583700  0.94238400  0.95041800  1
  O  O37  1  0.52262900  0.13860600  0.62451300  1
  O  O38  1  0.88154200  0.39397400  0.21519000  1
  O  O39  1  0.04831400  0.87828600  0.98802300  1
  O  O40  1  0.37699000  0.14210200  0.23196900  1
  O  O41  1  0.09536400  0.13723700  0.61365100  1
  O  O42  1  0.40463600  0.13723700  0.61365100  1
  O  O43  1  0.70306200  0.49333100  0.06366500  1
  O  O44  1  0.02262900  0.86139400  0.37548700  1
  O  O45  1  0.84895900  0.48507500  0.61449400  1
  O  O46  1  0.52713800  0.58511100  0.17230800  1
  O  O47  1  0.25000000  0.16842600  0.22287500  1
loop_
_geom_bond_atom_site_label_1
_geom_bond_atom_site_label_2
_geom_bond_distance
_geom_bond_site_symmetry_2
Li0 O27 1.907944 1_545
Li0 O28 1.907944 1_545
Li0 O47 1.964947 1_555
Li1 O7 1.907944 1_565
Li1 O5 1.907944 1_565
Li1 O25 1.964947 1_555
Ni0 O3 2.040117 1_555
Ni0 O23 2.077488 1_565
Ni0 O30 2.092919 1_554
Ni0 O38 2.102113 1_555
Ni0 O33 2.138614 1_555
Ni0 O34 2.206733 1_565
Ni1 O41 2.040117 1_555
Ni1 O39 2.077488 1_545
Ni1 O15 2.092919 1_556
Ni1 O19 2.102113 1_555
Ni1 O8 2.138614 1_555
Ni1 O14 2.206733 1_545
Ni2 O0 2.046362 1_555
Ni2 O37 2.057059 1_555
Ni2 O11 2.061638 1_545
Ni2 O46 2.075086 1_555
Ni2 O22 2.147332 1_555
Ni2 O20 2.482949 1_545
Ni3 O9 1.996052 1_555
Ni3 O36 2.059032 1_554
Ni3 O27 2.068550 1_555
Ni3 O40 2.074052 1_565
Ni3 O17 2.171620 1_555
Ni3 O47 2.306123 1_565
Ni4 O31 1.996052 1_555
Ni4 O6 2.059032 1_556
Ni4 O5 2.068550 1_555
Ni4 O12 2.074052 1_545
Ni4 O1 2.171620 1_555
Ni4 O25 2.306123 1_545
Ni5 O39 2.046362 1_555
Ni5 O44 2.057059 1_555
Ni5 O41 2.061638 1_565
Ni5 O8 2.075086 1_555
Ni5 O19 2.147332 1_555
Ni5 O2 2.482949 1_465
Ni6 O45 1.996052 1_555
Ni6 O34 2.059032 1_556
Ni6 O7 2.068550 1_555
Ni6 O30 2.074052 1_545
Ni6 O1 2.171620 1_555
Ni6 O25 2.306123 1_545
Ni7 O23 2.046362 1_555
Ni7 O2 2.057059 1_555
Ni7 O3 2.061638 1_545
Ni7 O33 2.075086 1_555
Ni7 O38 2.147332 1_555
Ni7 O44 2.482949 1_645
Ni8 O10 1.996052 1_555
Ni8 O14 2.059032 1_554
Ni8 O28 2.068550 1_555
Ni8 O15 2.074052 1_565
Ni8 O17 2.171620 1_555
Ni8 O47 2.306123 1_565
Ni9 O42 2.040117 1_555
Ni9 O32 2.077488 1_545
Ni9 O40 2.092919 1_556
Ni9 O35 2.102113 1_555
Ni9 O13 2.138614 1_555
Ni9 O36 2.206733 1_545
Ni10 O32 2.046362 1_555
Ni10 O20 2.057059 1_555
Ni10 O42 2.061638 1_565
Ni10 O13 2.075086 1_555
Ni10 O35 2.147332 1_555
Ni10 O37 2.482949 1_565
Ni11 O11 2.040117 1_555
Ni11 O0 2.077488 1_565
Ni11 O12 2.092919 1_554
Ni11 O22 2.102113 1_555
Ni11 O46 2.138614 1_555
Ni11 O6 2.206733 1_565
O0 P10 1.543714 1_554
O1 P1 1.527473 1_555
O2 P6 1.529990 1_555
O3 P0 1.543628 1_555
O4 P9 1.573217 1_556
O4 P13 1.635896 1_555
O5 P5 1.527188 1_555
O6 P5 1.540133 1_555
O7 P11 1.527188 1_555
O8 P6 1.542457 1_455
O9 P4 1.503948 1_555
O10 P3 1.503948 1_555
O11 P12 1.543628 1_555
O12 P12 1.546043 1_555
O13 P10 1.542457 1_555
O14 P8 1.540133 1_555
O15 P3 1.546043 1_555
O16 P9 1.573217 1_556
O16 P8 1.635896 1_555
O17 P9 1.527473 1_555
O18 P6 1.587984 1_555
O18 P0 1.589733 1_555
O19 P8 1.531452 1_555
O20 P2 1.529990 1_555
O21 P10 1.587984 1_555
O21 P12 1.589733 1_555
O22 P5 1.531452 1_555
O23 P6 1.543714 1_554
O24 P7 1.587984 1_555
O24 P3 1.589733 1_555
O25 P1 1.524226 1_555
O26 P1 1.573217 1_554
O26 P11 1.635896 1_555
O27 P13 1.527188 1_555
O28 P8 1.527188 1_555
O29 P2 1.587984 1_555
O29 P4 1.589733 1_555
O30 P0 1.546043 1_555
O31 P12 1.503948 1_555
O32 P2 1.543714 1_556
O33 P7 1.542457 1_655
O34 P11 1.540133 1_555
O35 P13 1.531452 1_555
O36 P13 1.540133 1_555
O37 P10 1.529990 1_555
O38 P11 1.531452 1_555
O39 P7 1.543714 1_556
O40 P4 1.546043 1_555
O41 P3 1.543628 1_555
O42 P4 1.543628 1_555
O43 P1 1.573217 1_554
O43 P5 1.635896 1_555
O44 P7 1.529990 1_555
O45 P0 1.503948 1_555
O46 P2 1.542457 1_555
O47 P9 1.524226 1_555
