# generated using pymatgen
data_Cs7U8V2ClO32
_symmetry_space_group_name_H-M   'P 1'
_cell_length_a   7.74897800
_cell_length_b   11.97036500
_cell_length_c   21.59945300
_cell_angle_alpha   90.00000000
_cell_angle_beta   90.00000000
_cell_angle_gamma   90.00000000
_symmetry_Int_Tables_number   1
_chemical_formula_structural   Cs7U8V2ClO32
_chemical_formula_sum   'Cs14 U16 V4 Cl2 O64'
_cell_volume   2003.52411412
_cell_formula_units_Z   2
loop_
 _symmetry_equiv_pos_site_id
 _symmetry_equiv_pos_as_xyz
  1  'x, y, z'
loop_
 _atom_site_type_symbol
 _atom_site_label
 _atom_site_symmetry_multiplicity
 _atom_site_fract_x
 _atom_site_fract_y
 _atom_site_fract_z
 _atom_site_occupancy
  Cs  Cs0  1  0.54042600  0.50000000  0.27697700  1
  Cs  Cs1  1  0.44794000  0.69049000  0.10165900  1
  Cs  Cs2  1  0.45957400  0.00000000  0.22302300  1
  Cs  Cs3  1  0.74602100  0.50000000  0.50000000  1
  Cs  Cs4  1  0.55206000  0.19049000  0.39834100  1
  Cs  Cs5  1  0.55206000  0.19049000  0.60165900  1
  Cs  Cs6  1  0.44794000  0.30951000  0.89834100  1
  Cs  Cs7  1  0.54042600  0.50000000  0.72302300  1
  Cs  Cs8  1  0.45957400  0.00000000  0.77697700  1
  Cs  Cs9  1  0.55206000  0.80951000  0.39834100  1
  Cs  Cs10  1  0.25397900  0.00000000  0.00000000  1
  Cs  Cs11  1  0.44794000  0.69049000  0.89834100  1
  Cs  Cs12  1  0.55206000  0.80951000  0.60165900  1
  Cs  Cs13  1  0.44794000  0.30951000  0.10165900  1
  U  U0  1  0.05068700  0.69436600  0.32598100  1
  U  U1  1  0.94931300  0.19436600  0.17401900  1
  U  U2  1  0.94740800  0.71569500  0.00000000  1
  U  U3  1  0.00418600  0.00000000  0.65572200  1
  U  U4  1  0.99581400  0.50000000  0.84427800  1
  U  U5  1  0.00418600  0.00000000  0.34427800  1
  U  U6  1  0.94931300  0.80563400  0.82598100  1
  U  U7  1  0.05068700  0.69436600  0.67401900  1
  U  U8  1  0.05259200  0.78430500  0.50000000  1
  U  U9  1  0.94740800  0.28430500  0.00000000  1
  U  U10  1  0.94931300  0.19436600  0.82598100  1
  U  U11  1  0.05068700  0.30563400  0.32598100  1
  U  U12  1  0.05068700  0.30563400  0.67401900  1
  U  U13  1  0.05259200  0.21569500  0.50000000  1
  U  U14  1  0.94931300  0.80563400  0.17401900  1
  U  U15  1  0.99581400  0.50000000  0.15572200  1
  V  V0  1  0.77911800  0.00000000  0.08831200  1
  V  V1  1  0.22088200  0.50000000  0.58831200  1
  V  V2  1  0.22088200  0.50000000  0.41168800  1
  V  V3  1  0.77911800  0.00000000  0.91168800  1
  Cl  Cl0  1  0.88794400  0.00000000  0.50000000  1
  Cl  Cl1  1  0.11205600  0.50000000  0.00000000  1
  O  O0  1  0.12462200  0.62736000  0.56469400  1
  O  O1  1  0.71682600  0.77808800  0.81346900  1
  O  O2  1  0.75708000  0.50000000  0.84052800  1
  O  O3  1  0.56374400  0.00000000  0.91732200  1
  O  O4  1  0.28317400  0.72191200  0.68653100  1
  O  O5  1  0.97442800  0.33572200  0.89937100  1
  O  O6  1  0.87537800  0.12736000  0.06469400  1
  O  O7  1  0.82425300  0.26144700  0.50000000  1
  O  O8  1  0.98731400  0.14521400  0.27535400  1
  O  O9  1  0.76397300  0.00000000  0.65200800  1
  O  O10  1  0.87537800  0.87264000  0.06469400  1
  O  O11  1  0.56374400  0.00000000  0.08267800  1
  O  O12  1  0.97442800  0.66427800  0.89937100  1
  O  O13  1  0.02557200  0.16427800  0.39937100  1
  O  O14  1  0.82451700  0.65305400  0.34156000  1
  O  O15  1  0.72185900  0.33367100  0.00000000  1
  O  O16  1  0.75708000  0.50000000  0.15947200  1
  O  O17  1  0.82451700  0.65305400  0.65844000  1
  O  O18  1  0.02557200  0.16427800  0.60062900  1
  O  O19  1  0.87537800  0.87264000  0.93530600  1
  O  O20  1  0.76397300  0.00000000  0.34799200  1
  O  O21  1  0.28317400  0.72191200  0.31346900  1
  O  O22  1  0.72185900  0.66632900  0.00000000  1
  O  O23  1  0.27814100  0.83367100  0.50000000  1
  O  O24  1  0.87537800  0.12736000  0.93530600  1
  O  O25  1  0.97442800  0.66427800  0.10062900  1
  O  O26  1  0.84512000  0.00000000  0.16655600  1
  O  O27  1  0.12462200  0.62736000  0.43530600  1
  O  O28  1  0.17574700  0.23855300  0.00000000  1
  O  O29  1  0.02557200  0.83572200  0.60062900  1
  O  O30  1  0.24292000  0.00000000  0.34052800  1
  O  O31  1  0.98731400  0.85478600  0.72464600  1
  O  O32  1  0.43625600  0.50000000  0.41732200  1
  O  O33  1  0.23602700  0.50000000  0.15200800  1
  O  O34  1  0.82425300  0.73855300  0.50000000  1
  O  O35  1  0.28317400  0.27808800  0.31346900  1
  O  O36  1  0.71682600  0.22191200  0.81346900  1
  O  O37  1  0.17548300  0.84694600  0.15844000  1
  O  O38  1  0.15488000  0.50000000  0.66655600  1
  O  O39  1  0.82451700  0.34694600  0.34156000  1
  O  O40  1  0.98731400  0.14521400  0.72464600  1
  O  O41  1  0.12462200  0.37264000  0.43530600  1
  O  O42  1  0.17548300  0.15305400  0.84156000  1
  O  O43  1  0.97442800  0.33572200  0.10062900  1
  O  O44  1  0.43625600  0.50000000  0.58267800  1
  O  O45  1  0.84512000  0.00000000  0.83344400  1
  O  O46  1  0.01268600  0.35478600  0.22464600  1
  O  O47  1  0.17574700  0.76144700  0.00000000  1
  O  O48  1  0.27814100  0.16632900  0.50000000  1
  O  O49  1  0.12462200  0.37264000  0.56469400  1
  O  O50  1  0.17548300  0.84694600  0.84156000  1
  O  O51  1  0.01268600  0.35478600  0.77535400  1
  O  O52  1  0.82451700  0.34694600  0.65844000  1
  O  O53  1  0.15488000  0.50000000  0.33344400  1
  O  O54  1  0.01268600  0.64521400  0.77535400  1
  O  O55  1  0.28317400  0.27808800  0.68653100  1
  O  O56  1  0.01268600  0.64521400  0.22464600  1
  O  O57  1  0.17548300  0.15305400  0.15844000  1
  O  O58  1  0.98731400  0.85478600  0.27535400  1
  O  O59  1  0.24292000  0.00000000  0.65947200  1
  O  O60  1  0.71682600  0.77808800  0.18653100  1
  O  O61  1  0.71682600  0.22191200  0.18653100  1
  O  O62  1  0.02557200  0.83572200  0.39937100  1
  O  O63  1  0.23602700  0.50000000  0.84799200  1
loop_
_geom_bond_atom_site_label_1
_geom_bond_atom_site_label_2
_geom_bond_distance
_geom_bond_site_symmetry_2
Cs0 O16 3.043057 1_555
Cs0 O32 3.137009 1_555
Cs0 O14 3.185713 1_555
Cs0 O39 3.185713 1_555
Cs0 O53 3.226955 1_555
Cs0 O35 3.413409 1_555
Cs0 O21 3.413409 1_555
Cs0 O33 3.584671 1_555
Cs1 O60 2.966725 1_555
Cs1 O33 3.013084 1_555
Cs1 O22 3.067652 1_555
Cs1 O37 3.077190 1_555
Cs1 O47 3.160964 1_555
Cs1 O16 3.535153 1_555
Cs2 O30 3.043057 1_555
Cs2 O11 3.137009 1_555
Cs2 O57 3.185713 1_555
Cs2 O37 3.185713 1_545
Cs2 O26 3.226955 1_555
Cs2 O60 3.413409 1_545
Cs2 O61 3.413409 1_555
Cs2 O20 3.584671 1_555
Cs3 O34 2.919205 1_555
Cs3 O7 2.919205 1_555
Cs3 O44 2.991792 1_555
Cs3 O32 2.991792 1_555
Cs4 O35 2.966725 1_555
Cs4 O20 3.013084 1_555
Cs4 O48 3.067652 1_555
Cs4 O39 3.077190 1_555
Cs4 O7 3.160964 1_555
Cs4 O30 3.535153 1_555
Cs5 O55 2.966725 1_555
Cs5 O9 3.013084 1_555
Cs5 O48 3.067652 1_555
Cs5 O52 3.077190 1_555
Cs5 O7 3.160964 1_555
Cs5 O59 3.535153 1_555
Cs6 O36 2.966725 1_555
Cs6 O63 3.013084 1_555
Cs6 O15 3.067652 1_556
Cs6 O42 3.077190 1_555
Cs6 O28 3.160964 1_556
Cs6 O2 3.535153 1_555
Cs7 O2 3.043057 1_555
Cs7 O44 3.137009 1_555
Cs7 O17 3.185713 1_555
Cs7 O52 3.185713 1_555
Cs7 O38 3.226955 1_555
Cs7 O4 3.413409 1_555
Cs7 O55 3.413409 1_555
Cs7 O63 3.584671 1_555
Cs8 O59 3.043057 1_555
Cs8 O3 3.137009 1_555
Cs8 O42 3.185713 1_555
Cs8 O50 3.185713 1_545
Cs8 O45 3.226955 1_555
Cs8 O36 3.413409 1_555
Cs8 O1 3.413409 1_545
Cs8 O9 3.584671 1_555
Cs9 O21 2.966725 1_555
Cs9 O20 3.013084 1_565
Cs9 O23 3.067652 1_555
Cs9 O14 3.077190 1_555
Cs9 O34 3.160964 1_555
Cs9 O30 3.535153 1_565
Cs10 O28 2.919205 1_555
Cs10 O47 2.919205 1_545
Cs10 O3 2.991792 1_554
Cs10 O11 2.991792 1_555
Cs11 O1 2.966725 1_555
Cs11 O63 3.013084 1_555
Cs11 O22 3.067652 1_556
Cs11 O50 3.077190 1_555
Cs11 O47 3.160964 1_556
Cs11 O2 3.535153 1_555
Cs12 O4 2.966725 1_555
Cs12 O9 3.013084 1_565
Cs12 O23 3.067652 1_555
Cs12 O17 3.077190 1_555
Cs12 O34 3.160964 1_555
Cs12 O59 3.535153 1_565
Cs13 O61 2.966725 1_555
Cs13 O33 3.013084 1_555
Cs13 O15 3.067652 1_555
Cs13 O57 3.077190 1_555
Cs13 O28 3.160964 1_555
Cs13 O16 3.535153 1_555
Cl0 U13 2.879975 1_655
Cl0 U8 2.879975 1_645
Cl1 U2 2.879975 1_455
Cl1 U9 2.879975 1_455
O0 V1 1.772250 1_555
O0 U8 2.406993 1_555
O0 U7 2.558828 1_555
O1 U6 1.851296 1_555
O2 U4 1.851717 1_555
O3 V3 1.673359 1_555
O4 U7 1.851296 1_555
O5 U9 2.268677 1_556
O5 U4 2.304454 1_555
O5 U10 2.326763 1_555
O6 V0 1.772250 1_555
O6 U9 2.406993 1_555
O6 U1 2.558828 1_555
O7 U13 1.852214 1_655
O8 U11 2.263720 1_655
O8 U1 2.285530 1_555
O8 U5 2.292367 1_655
O9 U3 1.863133 1_655
O10 V0 1.772250 1_565
O10 U2 2.406993 1_555
O10 U14 2.558828 1_555
O11 V0 1.673359 1_555
O12 U2 2.268677 1_556
O12 U4 2.304454 1_555
O12 U6 2.326763 1_555
O13 U13 2.268677 1_555
O13 U5 2.304454 1_555
O13 U11 2.326763 1_555
O14 U0 1.851848 1_655
O15 U9 1.844969 1_555
O16 U15 1.851717 1_555
O17 U7 1.851848 1_655
O18 U13 2.268677 1_555
O18 U3 2.304454 1_555
O18 U12 2.326763 1_555
O19 V3 1.772250 1_565
O19 U2 2.406993 1_556
O19 U6 2.558828 1_555
O20 U5 1.863133 1_655
O21 U0 1.851296 1_555
O22 U2 1.844969 1_555
O23 U8 1.844969 1_555
O24 V3 1.772250 1_555
O24 U9 2.406993 1_556
O24 U10 2.558828 1_555
O25 U2 2.268677 1_555
O25 U15 2.304454 1_555
O25 U14 2.326763 1_555
O26 V0 1.765721 1_555
O26 U1 2.468011 1_555
O26 U14 2.468011 1_545
O27 V2 1.772250 1_555
O27 U8 2.406993 1_555
O27 U0 2.558828 1_555
O28 U9 1.852214 1_455
O29 U8 2.268677 1_555
O29 U3 2.304454 1_565
O29 U7 2.326763 1_555
O30 U5 1.851717 1_555
O31 U7 2.263720 1_655
O31 U6 2.285530 1_555
O31 U3 2.292367 1_665
O32 V2 1.673359 1_555
O33 U15 1.863133 1_455
O34 U8 1.852214 1_655
O35 U11 1.851296 1_555
O36 U10 1.851296 1_555
O37 U14 1.851848 1_455
O38 V1 1.765721 1_555
O38 U7 2.468011 1_555
O38 U12 2.468011 1_555
O39 U11 1.851848 1_655
O40 U12 2.263720 1_655
O40 U10 2.285530 1_555
O40 U3 2.292367 1_655
O41 V2 1.772250 1_555
O41 U13 2.406993 1_555
O41 U11 2.558828 1_555
O42 U10 1.851848 1_455
O43 U9 2.268677 1_555
O43 U15 2.304454 1_555
O43 U1 2.326763 1_555
O44 V1 1.673359 1_555
O45 V3 1.765721 1_555
O45 U10 2.468011 1_555
O45 U6 2.468011 1_545
O46 U1 2.263720 1_455
O46 U11 2.285530 1_555
O46 U15 2.292367 1_455
O47 U2 1.852214 1_455
O48 U13 1.844969 1_555
O49 V1 1.772250 1_555
O49 U13 2.406993 1_555
O49 U12 2.558828 1_555
O50 U6 1.851848 1_455
O51 U10 2.263720 1_455
O51 U12 2.285530 1_555
O51 U4 2.292367 1_455
O52 U12 1.851848 1_655
O53 V2 1.765721 1_555
O53 U0 2.468011 1_555
O53 U11 2.468011 1_555
O54 U6 2.263720 1_455
O54 U7 2.285530 1_555
O54 U4 2.292367 1_455
O55 U12 1.851296 1_555
O56 U14 2.263720 1_455
O56 U0 2.285530 1_555
O56 U15 2.292367 1_455
O57 U1 1.851848 1_455
O58 U0 2.263720 1_655
O58 U14 2.285530 1_555
O58 U5 2.292367 1_665
O59 U3 1.851717 1_555
O60 U14 1.851296 1_555
O61 U1 1.851296 1_555
O62 U8 2.268677 1_555
O62 U5 2.304454 1_565
O62 U0 2.326763 1_555
O63 U4 1.863133 1_455
