# generated using pymatgen
data_LaSO
_symmetry_space_group_name_H-M   'P 1'
_cell_length_a   5.94638200
_cell_length_b   5.95036800
_cell_length_c   13.33153000
_cell_angle_alpha   90.00000000
_cell_angle_beta   90.00000000
_cell_angle_gamma   90.00000000
_symmetry_Int_Tables_number   1
_chemical_formula_structural   LaSO
_chemical_formula_sum   'La8 S8 O8'
_cell_volume   471.71167461
_cell_formula_units_Z   8
loop_
 _symmetry_equiv_pos_site_id
 _symmetry_equiv_pos_as_xyz
  1  'x, y, z'
loop_
 _atom_site_type_symbol
 _atom_site_label
 _atom_site_symmetry_multiplicity
 _atom_site_fract_x
 _atom_site_fract_y
 _atom_site_fract_z
 _atom_site_occupancy
  La  La0  1  0.49849100  0.25005100  0.08885100  1
  La  La1  1  0.50150900  0.74994900  0.58885100  1
  La  La2  1  0.00150900  0.25005100  0.91114900  1
  La  La3  1  0.00150900  0.25005100  0.58885100  1
  La  La4  1  0.49849100  0.25005100  0.41114900  1
  La  La5  1  0.50150900  0.74994900  0.91114900  1
  La  La6  1  0.99849100  0.74994900  0.41114900  1
  La  La7  1  0.99849100  0.74994900  0.08885100  1
  S  S0  1  0.88176100  0.62548500  0.75000000  1
  S  S1  1  0.13280300  0.87613800  0.75000000  1
  S  S2  1  0.61823900  0.62548500  0.25000000  1
  S  S3  1  0.36719700  0.87613800  0.25000000  1
  S  S4  1  0.63280300  0.12386200  0.75000000  1
  S  S5  1  0.86719700  0.12386200  0.25000000  1
  S  S6  1  0.11823900  0.37451500  0.25000000  1
  S  S7  1  0.38176100  0.37451500  0.75000000  1
  O  O0  1  0.25000000  0.00489200  0.00000000  1
  O  O1  1  0.75000000  0.99510800  0.50000000  1
  O  O2  1  0.25000000  0.00489200  0.50000000  1
  O  O3  1  0.75000000  0.49444900  0.00000000  1
  O  O4  1  0.25000000  0.50555100  0.50000000  1
  O  O5  1  0.75000000  0.49444900  0.50000000  1
  O  O6  1  0.75000000  0.99510800  0.00000000  1
  O  O7  1  0.25000000  0.50555100  0.00000000  1
loop_
_geom_bond_atom_site_label_1
_geom_bond_atom_site_label_2
_geom_bond_distance
_geom_bond_site_symmetry_2
La0 O0 2.390505 1_555
La0 O3 2.398891 1_555
La0 O7 2.428544 1_555
La0 O6 2.437440 1_545
La0 S5 3.160092 1_555
La0 S2 3.180114 1_555
La0 S3 3.189869 1_545
La0 S6 3.205720 1_555
La1 O1 2.390505 1_555
La1 O4 2.398891 1_555
La1 O5 2.428544 1_555
La1 O2 2.437440 1_565
La1 S1 3.160092 1_555
La1 S7 3.180114 1_555
La1 S4 3.189869 1_565
La1 S0 3.205720 1_555
La2 O0 2.390505 1_556
La2 O3 2.398891 1_456
La2 O7 2.428544 1_556
La2 O6 2.437440 1_446
La2 S4 3.160092 1_455
La2 S0 3.180114 1_455
La2 S1 3.189869 1_545
La2 S7 3.205720 1_555
La3 O2 2.390505 1_555
La3 O5 2.398891 1_455
La3 O4 2.428544 1_555
La3 O1 2.437440 1_445
La3 S4 3.160092 1_455
La3 S0 3.180114 1_455
La3 S1 3.189869 1_545
La3 S7 3.205720 1_555
La4 O2 2.390505 1_555
La4 O5 2.398891 1_555
La4 O4 2.428544 1_555
La4 O1 2.437440 1_545
La4 S5 3.160092 1_555
La4 S2 3.180114 1_555
La4 S3 3.189869 1_545
La4 S6 3.205720 1_555
La5 O6 2.390505 1_556
La5 O7 2.398891 1_556
La5 O3 2.428544 1_556
La5 O0 2.437440 1_566
La5 S1 3.160092 1_555
La5 S7 3.180114 1_555
La5 S4 3.189869 1_565
La5 S0 3.205720 1_555
La6 O1 2.390505 1_555
La6 O4 2.398891 1_655
La6 O5 2.428544 1_555
La6 O2 2.437440 1_665
La6 S3 3.160092 1_655
La6 S6 3.180114 1_655
La6 S5 3.189869 1_565
La6 S2 3.205720 1_555
La7 O6 2.390505 1_555
La7 O7 2.398891 1_655
La7 O3 2.428544 1_555
La7 O0 2.437440 1_665
La7 S3 3.160092 1_655
La7 S6 3.180114 1_655
La7 S5 3.189869 1_565
La7 S2 3.205720 1_555
S0 S1 2.110197 1_655
S2 S3 2.110197 1_555
S4 S7 2.110197 1_555
S5 S6 2.110197 1_655
