# generated using pymatgen
data_K2PrCl5
_symmetry_space_group_name_H-M   'P 1'
_cell_length_a   8.01830459
_cell_length_b   8.78939670
_cell_length_c   12.74996107
_cell_angle_alpha   90.00000000
_cell_angle_beta   90.00000000
_cell_angle_gamma   90.00000000
_symmetry_Int_Tables_number   1
_chemical_formula_structural   K2PrCl5
_chemical_formula_sum   'K8 Pr4 Cl20'
_cell_volume   898.56702013
_cell_formula_units_Z   4
loop_
 _symmetry_equiv_pos_site_id
 _symmetry_equiv_pos_as_xyz
  1  'x, y, z'
loop_
 _atom_site_type_symbol
 _atom_site_label
 _atom_site_symmetry_multiplicity
 _atom_site_fract_x
 _atom_site_fract_y
 _atom_site_fract_z
 _atom_site_occupancy
  K  K0  1  0.95069952  0.49509624  0.82792257  1
  K  K1  1  0.95069952  0.00490376  0.82792257  1
  K  K2  1  0.45069952  0.50490376  0.67207743  1
  K  K3  1  0.45069952  0.99509624  0.67207743  1
  K  K4  1  0.04930048  0.50490376  0.17207743  1
  K  K5  1  0.54930048  0.49509624  0.32792257  1
  K  K6  1  0.04930048  0.99509624  0.17207743  1
  K  K7  1  0.54930048  0.00490376  0.32792257  1
  Pr  Pr0  1  0.07809512  0.25000000  0.49359655  1
  Pr  Pr1  1  0.92190488  0.75000000  0.50640345  1
  Pr  Pr2  1  0.42190488  0.25000000  0.99359655  1
  Pr  Pr3  1  0.57809512  0.75000000  0.00640345  1
  Cl  Cl0  1  0.83434565  0.04360894  0.57965334  1
  Cl  Cl1  1  0.66565435  0.04360894  0.07965334  1
  Cl  Cl2  1  0.16565435  0.54360894  0.42034666  1
  Cl  Cl3  1  0.57149406  0.75000000  0.50716229  1
  Cl  Cl4  1  0.42850594  0.25000000  0.49283771  1
  Cl  Cl5  1  0.16565435  0.95639106  0.42034666  1
  Cl  Cl6  1  0.92850594  0.75000000  0.00716229  1
  Cl  Cl7  1  0.33434565  0.54360894  0.92034666  1
  Cl  Cl8  1  0.33434565  0.95639106  0.92034666  1
  Cl  Cl9  1  0.83279496  0.75000000  0.29274456  1
  Cl  Cl10  1  0.16720504  0.25000000  0.70725544  1
  Cl  Cl11  1  0.83434565  0.45639106  0.57965334  1
  Cl  Cl12  1  0.33279496  0.25000000  0.20725544  1
  Cl  Cl13  1  0.86842483  0.25000000  0.31871795  1
  Cl  Cl14  1  0.07149406  0.25000000  0.99283771  1
  Cl  Cl15  1  0.66720504  0.75000000  0.79274456  1
  Cl  Cl16  1  0.63157517  0.25000000  0.81871795  1
  Cl  Cl17  1  0.66565435  0.45639106  0.07965334  1
  Cl  Cl18  1  0.36842483  0.75000000  0.18128205  1
  Cl  Cl19  1  0.13157517  0.75000000  0.68128205  1
loop_
_geom_bond_atom_site_label_1
_geom_bond_atom_site_label_2
_geom_bond_distance
_geom_bond_site_symmetry_2
Cl0 Pr1 2.832821 1_545
Cl0 Pr0 2.883502 1_655
Cl0 K1 3.317537 1_555
Cl0 K3 3.321657 1_545
Cl1 Pr3 2.832821 1_545
Cl1 Pr2 2.883502 1_554
Cl1 K7 3.317537 1_555
Cl1 K6 3.321657 1_645
Cl2 Pr0 2.832821 1_555
Cl2 Pr1 2.883502 1_455
Cl2 K4 3.317537 1_555
Cl2 K5 3.321657 1_555
Cl3 Pr1 2.809717 1_555
Cl3 K2 3.162292 1_555
Cl3 K3 3.162292 1_555
Cl3 K7 3.205289 1_565
Cl3 K5 3.205289 1_555
Cl4 Pr0 2.809717 1_555
Cl4 K7 3.162292 1_555
Cl4 K5 3.162292 1_555
Cl4 K3 3.205289 1_545
Cl4 K2 3.205289 1_555
Cl5 Pr0 2.832821 1_565
Cl5 Pr1 2.883502 1_455
Cl5 K6 3.317537 1_555
Cl5 K7 3.321657 1_565
Cl6 Pr3 2.809717 1_555
Cl6 K6 3.162292 1_655
Cl6 K4 3.162292 1_655
Cl6 K1 3.205289 1_564
Cl6 K0 3.205289 1_554
Cl7 Pr2 2.832821 1_555
Cl7 Pr3 2.883502 1_556
Cl7 K2 3.317537 1_555
Cl7 K0 3.321657 1_455
Cl8 Pr2 2.832821 1_565
Cl8 Pr3 2.883502 1_556
Cl8 K3 3.317537 1_555
Cl8 K1 3.321657 1_465
Cl9 Pr1 2.816288 1_555
Cl9 K4 3.165674 1_655
Cl9 K6 3.165674 1_655
Cl9 K7 3.223038 1_565
Cl9 K5 3.223038 1_555
Cl10 Pr0 2.816288 1_555
Cl10 K1 3.165674 1_455
Cl10 K0 3.165674 1_455
Cl10 K3 3.223038 1_545
Cl10 K2 3.223038 1_555
Cl11 Pr1 2.832821 1_555
Cl11 Pr0 2.883502 1_655
Cl11 K0 3.317537 1_555
Cl11 K2 3.321657 1_555
Cl12 Pr2 2.816288 1_554
Cl12 K7 3.165674 1_555
Cl12 K5 3.165674 1_555
Cl12 K4 3.223038 1_555
Cl12 K6 3.223038 1_545
Cl13 Pr0 2.792486 1_655
Cl13 K6 3.258629 1_645
Cl13 K4 3.258629 1_655
Cl13 K7 3.346969 1_555
Cl13 K5 3.346969 1_555
Cl14 Pr2 2.809717 1_555
Cl14 K1 3.162292 1_455
Cl14 K0 3.162292 1_455
Cl14 K4 3.205289 1_556
Cl14 K6 3.205289 1_546
Cl15 Pr3 2.816288 1_556
Cl15 K2 3.165674 1_555
Cl15 K3 3.165674 1_555
Cl15 K1 3.223038 1_565
Cl15 K0 3.223038 1_555
Cl16 Pr2 2.792486 1_555
Cl16 K3 3.258629 1_545
Cl16 K2 3.258629 1_555
Cl16 K1 3.346969 1_555
Cl16 K0 3.346969 1_555
Cl17 Pr3 2.832821 1_555
Cl17 Pr2 2.883502 1_554
Cl17 K5 3.317537 1_555
Cl17 K4 3.321657 1_655
Cl18 Pr3 2.792486 1_555
Cl18 K7 3.258629 1_565
Cl18 K5 3.258629 1_555
Cl18 K6 3.346969 1_555
Cl18 K4 3.346969 1_555
Cl19 Pr1 2.792486 1_455
Cl19 K1 3.258629 1_465
Cl19 K0 3.258629 1_455
Cl19 K2 3.346969 1_555
Cl19 K3 3.346969 1_555
