# generated using pymatgen
data_UMn2
_symmetry_space_group_name_H-M   'P 1'
_cell_length_a   5.04887611
_cell_length_b   5.04887611
_cell_length_c   5.04887611
_cell_angle_alpha   128.25911090
_cell_angle_beta   117.53840901
_cell_angle_gamma   85.32164779
_symmetry_Int_Tables_number   1
_chemical_formula_structural   UMn2
_chemical_formula_sum   'U2 Mn4'
_cell_volume   85.64759588
_cell_formula_units_Z   2
loop_
 _symmetry_equiv_pos_site_id
 _symmetry_equiv_pos_as_xyz
  1  'x, y, z'
loop_
 _atom_site_type_symbol
 _atom_site_label
 _atom_site_symmetry_multiplicity
 _atom_site_fract_x
 _atom_site_fract_y
 _atom_site_fract_z
 _atom_site_occupancy
  U  U0  1  0.61527000  0.86527000  0.75000000  1
  U  U1  1  0.38473000  0.13473000  0.25000000  1
  Mn  Mn0  1  0.50000000  0.50000000  0.00000000  1
  Mn  Mn1  1  0.00000000  0.50000000  0.50000000  1
  Mn  Mn2  1  0.00000000  0.00000000  0.50000000  1
  Mn  Mn3  1  0.00000000  0.50000000  0.00000000  1
loop_
_geom_bond_atom_site_label_1
_geom_bond_atom_site_label_2
_geom_bond_distance
_geom_bond_site_symmetry_2
U0 U1 2.789968 1_555
U0 U1 2.789968 1_566
U0 U1 3.294909 1_565
U0 U1 3.294909 1_666
Mn0 Mn2 2.524438 1_554
Mn0 Mn2 2.524438 1_665
Mn0 Mn3 2.524438 1_555
Mn0 Mn3 2.524438 1_655
Mn0 Mn1 2.617775 1_655
Mn0 Mn1 2.617775 1_554
Mn0 U0 2.750887 1_544
Mn0 U0 2.750887 1_555
Mn0 U1 2.750887 1_565
Mn0 U1 2.750887 1_554
Mn0 U1 3.011670 1_555
Mn0 U0 3.011670 1_554
Mn1 Mn2 2.524438 1_565
Mn1 Mn2 2.524438 1_555
Mn1 Mn3 2.524438 1_555
Mn1 Mn3 2.524438 1_556
Mn1 U0 2.750887 1_444
Mn1 U0 2.750887 1_455
Mn1 U1 2.750887 1_566
Mn1 U1 2.750887 1_555
Mn1 U1 3.011670 1_455
Mn1 U0 3.011670 1_555
Mn2 Mn3 2.203015 1_545
Mn2 Mn3 2.203015 1_556
Mn2 U1 2.966265 1_455
Mn2 U0 2.966265 1_545
Mn2 U0 2.966265 1_444
Mn2 U1 2.966265 1_556
Mn2 U0 3.061872 1_445
Mn2 U1 3.061872 1_555
Mn3 U0 2.966265 1_454
Mn3 U1 2.966265 1_454
Mn3 U0 2.966265 1_555
Mn3 U1 2.966265 1_555
Mn3 U0 3.061872 1_444
Mn3 U1 3.061872 1_565
