# generated using pymatgen
data_BaNa2Ti2(Si2O7)2
_symmetry_space_group_name_H-M   'P 1'
_cell_length_a   9.69841000
_cell_length_b   9.69841000
_cell_length_c   9.69841000
_cell_angle_alpha   129.87326336
_cell_angle_beta   114.19154954
_cell_angle_gamma   87.08352732
_symmetry_Int_Tables_number   1
_chemical_formula_structural   BaNa2Ti2(Si2O7)2
_chemical_formula_sum   'Ba2 Na4 Ti4 Si8 O28'
_cell_volume   608.67975681
_cell_formula_units_Z   2
loop_
 _symmetry_equiv_pos_site_id
 _symmetry_equiv_pos_as_xyz
  1  'x, y, z'
loop_
 _atom_site_type_symbol
 _atom_site_label
 _atom_site_symmetry_multiplicity
 _atom_site_fract_x
 _atom_site_fract_y
 _atom_site_fract_z
 _atom_site_occupancy
  Ba  Ba0  1  0.00138900  0.72831300  0.22692400  1
  Ba  Ba1  1  0.99861100  0.22553400  0.72692400  1
  Na  Na0  1  0.00000000  0.97835000  0.97835000  1
  Na  Na1  1  0.59323100  0.81215100  0.71892100  1
  Na  Na2  1  0.40676900  0.12569000  0.21892100  1
  Na  Na3  1  0.50000000  0.97835000  0.47835000  1
  Ti  Ti0  1  0.21768200  0.17180300  0.45412200  1
  Ti  Ti1  1  0.78231800  0.23644000  0.95412200  1
  Ti  Ti2  1  0.78086100  0.73703800  0.45617700  1
  Ti  Ti3  1  0.21913900  0.67531600  0.95617700  1
  Si  Si0  1  0.61611800  0.43236200  0.75832200  1
  Si  Si1  1  0.82619800  0.53742200  0.65320900  1
  Si  Si2  1  0.17380200  0.82701100  0.71122400  1
  Si  Si3  1  0.17403900  0.43236200  0.31624400  1
  Si  Si4  1  0.61578800  0.82701100  0.15320900  1
  Si  Si5  1  0.38388200  0.14220400  0.81624400  1
  Si  Si6  1  0.38421200  0.53742200  0.21122400  1
  Si  Si7  1  0.82596100  0.14220400  0.25832200  1
  O  O0  1  0.18316900  0.26629800  0.31741700  1
  O  O1  1  0.21641300  0.46337900  0.74696600  1
  O  O2  1  0.44888200  0.26629800  0.58312900  1
  O  O3  1  0.55111800  0.13424800  0.81741700  1
  O  O4  1  0.18487000  0.83102800  0.88488600  1
  O  O5  1  0.81513000  0.70001700  0.64615900  1
  O  O6  1  0.66175000  0.48701200  0.64786300  1
  O  O7  1  0.79661700  0.04113400  0.74451800  1
  O  O8  1  0.82127100  0.34199200  0.44876600  1
  O  O9  1  0.01933000  0.87894700  0.62165200  1
  O  O10  1  0.60677400  0.62749500  0.94876600  1
  O  O11  1  0.98067000  0.60232200  0.85961700  1
  O  O12  1  0.24270500  0.60232200  0.12165200  1
  O  O13  1  0.44614200  0.83102800  0.14615900  1
  O  O14  1  0.24043800  0.09232700  0.61256100  1
  O  O15  1  0.97976700  0.09232700  0.35188900  1
  O  O16  1  0.66085100  0.98611300  0.14786300  1
  O  O17  1  0.17872900  0.62749500  0.52072100  1
  O  O18  1  0.39322600  0.34199200  0.02072100  1
  O  O19  1  0.02023300  0.37212200  0.11256100  1
  O  O20  1  0.81683100  0.13424800  0.08312900  1
  O  O21  1  0.78358700  0.53055400  0.24696600  1
  O  O22  1  0.75956200  0.37212200  0.85188900  1
  O  O23  1  0.75729500  0.87894700  0.35961700  1
  O  O24  1  0.55385800  0.70001700  0.38488600  1
  O  O25  1  0.33825000  0.98611300  0.82526200  1
  O  O26  1  0.33914900  0.48701200  0.32526200  1
  O  O27  1  0.20338300  0.94790100  0.24451800  1
loop_
_geom_bond_atom_site_label_1
_geom_bond_atom_site_label_2
_geom_bond_distance
_geom_bond_site_symmetry_2
Ba0 O12 2.842641 1_555
Ba0 O11 2.842641 1_454
Ba0 O27 2.843757 1_555
Ba0 O22 2.895900 1_454
Ba0 O19 2.895904 1_555
Ba0 O15 2.936525 1_465
Ba0 O14 2.936527 1_565
Ba0 O9 3.021419 1_555
Ba0 O23 3.021419 1_455
Ba0 O21 3.066762 1_455
Ba0 O10 3.378999 1_454
Ba0 O17 3.378999 1_555
Ba1 O9 2.842632 1_645
Ba1 O23 2.842637 1_545
Ba1 O7 2.843757 1_555
Ba1 O14 2.895895 1_655
Ba1 O15 2.895904 1_555
Ba1 O22 2.936527 1_555
Ba1 O19 2.936531 1_656
Ba1 O12 3.021424 1_656
Ba1 O11 3.021428 1_555
Ba1 O1 3.066776 1_655
Ba1 O18 3.378997 1_656
Ba1 O8 3.379007 1_555
Na0 O5 2.342741 1_455
Na0 O4 2.342747 1_555
Na0 O0 2.389692 1_566
Na0 O20 2.389692 1_466
Na0 O7 2.717824 1_465
Na0 O27 2.717831 1_556
Na1 O5 2.516859 1_555
Na1 O24 2.516874 1_555
Na1 O20 2.683546 1_566
Na1 O3 2.683554 1_565
Na1 O7 2.867376 1_565
Na1 O6 2.869805 1_555
Na1 O26 2.869811 1_555
Na1 O16 3.075721 1_556
Na1 O25 3.075727 1_555
Na2 O4 2.516866 1_544
Na2 O13 2.516870 1_545
Na2 O2 2.683539 1_555
Na2 O0 2.683542 1_555
Na2 O27 2.867376 1_545
Na2 O16 2.869814 1_545
Na2 O25 2.869814 1_544
Na2 O6 3.075724 1_555
Na2 O26 3.075724 1_555
Na3 O13 2.342738 1_555
Na3 O24 2.342738 1_555
Na3 O2 2.389689 1_565
Na3 O3 2.389695 1_565
Na3 O27 2.717831 1_555
Na3 O7 2.717835 1_565
O0 Si3 1.615555 1_555
O0 Ti0 1.967921 1_555
O1 Ti3 1.719491 1_555
O1 Ti0 2.406337 1_555
O2 Si0 1.615549 1_555
O2 Ti0 1.967922 1_555
O3 Si5 1.615545 1_555
O3 Ti1 1.967921 1_555
O4 Si2 1.617976 1_555
O4 Ti3 1.992098 1_555
O5 Si1 1.617979 1_555
O5 Ti2 1.992100 1_555
O6 Si1 1.662660 1_555
O6 Si0 1.662787 1_555
O7 Ti1 1.733990 1_555
O7 Ti2 2.379595 1_545
O8 Si7 1.624528 1_555
O8 Si1 1.624529 1_555
O9 Si2 1.634131 1_555
O9 Ti2 2.066046 1_455
O10 Si0 1.624524 1_555
O10 Si4 1.624525 1_556
O11 Si1 1.634131 1_555
O11 Ti3 2.066046 1_655
O12 Si6 1.634125 1_555
O12 Ti3 2.066046 1_554
O13 Si4 1.617989 1_555
O13 Ti3 1.992098 1_554
O14 Si5 1.631733 1_555
O14 Ti0 2.056054 1_555
O15 Si7 1.631733 1_555
O15 Ti0 2.056051 1_655
O16 Si4 1.662656 1_555
O16 Si7 1.662794 1_565
O17 Si3 1.624520 1_555
O17 Si2 1.624529 1_555
O18 Si5 1.624524 1_554
O18 Si6 1.624533 1_555
O19 Si3 1.631730 1_555
O19 Ti1 2.056051 1_454
O20 Si7 1.615551 1_555
O20 Ti1 1.967912 1_554
O21 Ti2 1.719487 1_555
O21 Ti1 2.406337 1_554
O22 Si0 1.631740 1_555
O22 Ti1 2.056053 1_555
O23 Si4 1.634127 1_555
O23 Ti2 2.066046 1_555
O24 Si6 1.617985 1_555
O24 Ti2 1.992098 1_555
O25 Si2 1.662660 1_555
O25 Si5 1.662787 1_565
O26 Si6 1.662654 1_555
O26 Si3 1.662796 1_555
O27 Ti0 1.733982 1_565
O27 Ti3 2.379600 1_554
