# generated using pymatgen
data_Sr2Li3TaN4
_symmetry_space_group_name_H-M   'P 1'
_cell_length_a   7.04132900
_cell_length_b   8.74304700
_cell_length_c   9.03594400
_cell_angle_alpha   90.00000000
_cell_angle_beta   90.00000000
_cell_angle_gamma   90.00000000
_symmetry_Int_Tables_number   1
_chemical_formula_structural   Sr2Li3TaN4
_chemical_formula_sum   'Sr8 Li12 Ta4 N16'
_cell_volume   556.27684213
_cell_formula_units_Z   4
loop_
 _symmetry_equiv_pos_site_id
 _symmetry_equiv_pos_as_xyz
  1  'x, y, z'
loop_
 _atom_site_type_symbol
 _atom_site_label
 _atom_site_symmetry_multiplicity
 _atom_site_fract_x
 _atom_site_fract_y
 _atom_site_fract_z
 _atom_site_occupancy
  Sr  Sr0  1  0.00000000  0.24229100  0.75411300  1
  Sr  Sr1  1  0.00000000  0.75770900  0.24588700  1
  Sr  Sr2  1  0.50000000  0.74229100  0.74588700  1
  Sr  Sr3  1  0.50000000  0.25770900  0.25411300  1
  Sr  Sr4  1  0.26019900  0.00000000  0.00000000  1
  Sr  Sr5  1  0.23980100  0.50000000  0.50000000  1
  Sr  Sr6  1  0.73980100  0.00000000  0.00000000  1
  Sr  Sr7  1  0.76019900  0.50000000  0.50000000  1
  Li  Li0  1  0.23755900  0.01896700  0.36520000  1
  Li  Li1  1  0.23755900  0.98103300  0.63480000  1
  Li  Li2  1  0.26244100  0.51896700  0.13480000  1
  Li  Li3  1  0.26244100  0.48103300  0.86520000  1
  Li  Li4  1  0.76244100  0.98103300  0.63480000  1
  Li  Li5  1  0.76244100  0.01896700  0.36520000  1
  Li  Li6  1  0.73755900  0.48103300  0.86520000  1
  Li  Li7  1  0.73755900  0.51896700  0.13480000  1
  Li  Li8  1  0.00000000  0.20588000  0.42254100  1
  Li  Li9  1  0.00000000  0.79412000  0.57745900  1
  Li  Li10  1  0.50000000  0.70588000  0.07745900  1
  Li  Li11  1  0.50000000  0.29412000  0.92254100  1
  Ta  Ta0  1  0.00000000  0.28568300  0.13749300  1
  Ta  Ta1  1  0.00000000  0.71431700  0.86250700  1
  Ta  Ta2  1  0.50000000  0.78568300  0.36250700  1
  Ta  Ta3  1  0.50000000  0.21431700  0.63749300  1
  N  N0  1  0.23401900  0.30207700  0.01915200  1
  N  N1  1  0.23401900  0.69792300  0.98084800  1
  N  N2  1  0.26598100  0.80207700  0.48084800  1
  N  N3  1  0.26598100  0.19792300  0.51915200  1
  N  N4  1  0.76598100  0.69792300  0.98084800  1
  N  N5  1  0.76598100  0.30207700  0.01915200  1
  N  N6  1  0.73401900  0.19792300  0.51915200  1
  N  N7  1  0.73401900  0.80207700  0.48084800  1
  N  N8  1  0.00000000  0.07409500  0.22085800  1
  N  N9  1  0.00000000  0.92590500  0.77914200  1
  N  N10  1  0.50000000  0.57409500  0.27914200  1
  N  N11  1  0.50000000  0.42590500  0.72085800  1
  N  N12  1  0.00000000  0.45259900  0.28380300  1
  N  N13  1  0.00000000  0.54740100  0.71619700  1
  N  N14  1  0.50000000  0.95259900  0.21619700  1
  N  N15  1  0.50000000  0.04740100  0.78380300  1
loop_
_geom_bond_atom_site_label_1
_geom_bond_atom_site_label_2
_geom_bond_distance
_geom_bond_site_symmetry_2
Li0 N3 2.103153 1_555
Li0 N2 2.174380 1_545
Li0 N8 2.175190 1_555
Li0 N14 2.358878 1_545
Li1 N2 2.103153 1_555
Li1 N3 2.174380 1_565
Li1 N9 2.175190 1_555
Li1 N15 2.358878 1_565
Li2 N1 2.103153 1_554
Li2 N0 2.174380 1_555
Li2 N10 2.175190 1_555
Li2 N12 2.358878 1_555
Li3 N0 2.103153 1_556
Li3 N1 2.174380 1_555
Li3 N11 2.175190 1_555
Li3 N13 2.358878 1_555
Li4 N7 2.103153 1_555
Li4 N6 2.174380 1_565
Li4 N9 2.175190 1_655
Li4 N15 2.358878 1_565
Li5 N6 2.103153 1_555
Li5 N7 2.174380 1_545
Li5 N8 2.175190 1_655
Li5 N14 2.358878 1_545
Li6 N5 2.103153 1_556
Li6 N4 2.174380 1_555
Li6 N11 2.175190 1_555
Li6 N13 2.358878 1_655
Li7 N4 2.103153 1_554
Li7 N5 2.174380 1_555
Li7 N10 2.175190 1_555
Li7 N12 2.358878 1_655
Li8 N3 2.067492 1_555
Li8 N6 2.067492 1_455
Li8 N8 2.156084 1_555
Li8 N12 2.494907 1_555
Li9 N7 2.067492 1_455
Li9 N2 2.067492 1_555
Li9 N9 2.156084 1_555
Li9 N13 2.494907 1_555
Li10 N1 2.067492 1_554
Li10 N4 2.067492 1_554
Li10 N10 2.156084 1_555
Li10 N14 2.494907 1_555
Li11 N5 2.067492 1_556
Li11 N0 2.067492 1_556
Li11 N11 2.156084 1_555
Li11 N15 2.494907 1_555
N0 Ta0 1.969583 1_555
N0 Sr4 2.653149 1_555
N0 Sr3 2.857553 1_555
N0 Sr0 2.953629 1_554
N1 Ta1 1.969583 1_555
N1 Sr4 2.653149 1_566
N1 Sr2 2.857553 1_555
N1 Sr1 2.953629 1_556
N2 Ta2 1.969583 1_555
N2 Sr5 2.653149 1_555
N2 Sr1 2.857553 1_555
N2 Sr2 2.953629 1_555
N3 Ta3 1.969583 1_555
N3 Sr5 2.653149 1_555
N3 Sr0 2.857553 1_555
N3 Sr3 2.953629 1_555
N4 Ta1 1.969583 1_655
N4 Sr6 2.653149 1_566
N4 Sr2 2.857553 1_555
N4 Sr1 2.953629 1_656
N5 Ta0 1.969583 1_655
N5 Sr6 2.653149 1_555
N5 Sr3 2.857553 1_555
N5 Sr0 2.953629 1_654
N6 Ta3 1.969583 1_555
N6 Sr7 2.653149 1_555
N6 Sr0 2.857553 1_655
N6 Sr3 2.953629 1_555
N7 Ta2 1.969583 1_555
N7 Sr7 2.653149 1_555
N7 Sr1 2.857553 1_655
N7 Sr2 2.953629 1_555
N8 Ta0 1.997411 1_555
N8 Sr1 2.775408 1_545
N8 Sr6 2.785514 1_455
N8 Sr4 2.785514 1_555
N9 Ta1 1.997411 1_555
N9 Sr0 2.775408 1_565
N9 Sr6 2.785514 1_466
N9 Sr4 2.785514 1_566
N10 Ta2 1.997411 1_555
N10 Sr3 2.775408 1_555
N10 Sr7 2.785514 1_555
N10 Sr5 2.785514 1_555
N11 Ta3 1.997411 1_555
N11 Sr2 2.775408 1_555
N11 Sr7 2.785514 1_555
N11 Sr5 2.785514 1_555
N12 Ta0 1.969144 1_555
N12 Sr5 2.615182 1_555
N12 Sr7 2.615182 1_455
N12 Sr1 2.689502 1_555
N13 Ta1 1.969144 1_555
N13 Sr5 2.615182 1_555
N13 Sr7 2.615182 1_455
N13 Sr0 2.689502 1_555
N14 Ta2 1.969144 1_555
N14 Sr4 2.615182 1_565
N14 Sr6 2.615182 1_565
N14 Sr3 2.689502 1_565
N15 Ta3 1.969144 1_555
N15 Sr4 2.615182 1_556
N15 Sr6 2.615182 1_556
N15 Sr2 2.689502 1_545
