# generated using pymatgen
data_ThCd(MoO4)3
_symmetry_space_group_name_H-M   'P 1'
_cell_length_a   10.05845650
_cell_length_b   10.05845650
_cell_length_c   6.43034800
_cell_angle_alpha   90.00000000
_cell_angle_beta   90.00000000
_cell_angle_gamma   120.00000331
_symmetry_Int_Tables_number   1
_chemical_formula_structural   ThCd(MoO4)3
_chemical_formula_sum   'Th2 Cd2 Mo6 O24'
_cell_volume   563.41418697
_cell_formula_units_Z   2
loop_
 _symmetry_equiv_pos_site_id
 _symmetry_equiv_pos_as_xyz
  1  'x, y, z'
loop_
 _atom_site_type_symbol
 _atom_site_label
 _atom_site_symmetry_multiplicity
 _atom_site_fract_x
 _atom_site_fract_y
 _atom_site_fract_z
 _atom_site_occupancy
  Th  Th0  1  0.66666700  0.33333300  0.75000000  1
  Th  Th1  1  0.33333300  0.66666700  0.25000000  1
  Cd  Cd0  1  0.00000000  0.00000000  0.00000000  1
  Cd  Cd1  1  0.00000000  0.00000000  0.50000000  1
  Mo  Mo0  1  0.61208400  0.70876700  0.75000000  1
  Mo  Mo1  1  0.90331700  0.61208400  0.25000000  1
  Mo  Mo2  1  0.29123300  0.90331700  0.75000000  1
  Mo  Mo3  1  0.09668300  0.38791600  0.75000000  1
  Mo  Mo4  1  0.38791600  0.29123300  0.25000000  1
  Mo  Mo5  1  0.70876700  0.09668300  0.25000000  1
  O  O0  1  0.21227300  0.47151600  0.97586600  1
  O  O1  1  0.97464800  0.81941500  0.25000000  1
  O  O2  1  0.47151600  0.25924300  0.02413400  1
  O  O3  1  0.74075700  0.21227300  0.02413400  1
  O  O4  1  0.74075700  0.21227300  0.47586600  1
  O  O5  1  0.42972400  0.48525400  0.25000000  1
  O  O6  1  0.02535200  0.18058500  0.75000000  1
  O  O7  1  0.15523300  0.97464800  0.75000000  1
  O  O8  1  0.52848400  0.74075700  0.52413400  1
  O  O9  1  0.25924300  0.78772700  0.97586600  1
  O  O10  1  0.25924300  0.78772700  0.52413400  1
  O  O11  1  0.52848400  0.74075700  0.97586600  1
  O  O12  1  0.94447100  0.42972400  0.75000000  1
  O  O13  1  0.18058500  0.15523300  0.25000000  1
  O  O14  1  0.05552900  0.57027600  0.25000000  1
  O  O15  1  0.48525400  0.05552900  0.75000000  1
  O  O16  1  0.51474600  0.94447100  0.25000000  1
  O  O17  1  0.78772700  0.52848400  0.47586600  1
  O  O18  1  0.78772700  0.52848400  0.02413400  1
  O  O19  1  0.57027600  0.51474600  0.75000000  1
  O  O20  1  0.81941500  0.84476700  0.75000000  1
  O  O21  1  0.21227300  0.47151600  0.52413400  1
  O  O22  1  0.84476700  0.02535200  0.25000000  1
  O  O23  1  0.47151600  0.25924300  0.47586600  1
loop_
_geom_bond_atom_site_label_1
_geom_bond_atom_site_label_2
_geom_bond_distance
_geom_bond_site_symmetry_2
Cd0 O20 2.342116 1_444
Cd0 O13 2.342116 1_555
Cd0 O1 2.342116 1_445
Cd0 O6 2.342116 1_554
Cd0 O22 2.342116 1_455
Cd0 O7 2.342116 1_544
Cd1 O20 2.342116 1_445
Cd1 O13 2.342116 1_555
Cd1 O1 2.342116 1_445
Cd1 O6 2.342116 1_555
Cd1 O22 2.342116 1_455
Cd1 O7 2.342116 1_545
Mo0 O19 1.778966 1_555
Mo0 O11 1.786241 1_555
Mo0 O8 1.786241 1_555
Mo0 O20 1.835086 1_555
Mo1 O14 1.778956 1_655
Mo1 O18 1.786241 1_555
Mo1 O17 1.786241 1_555
Mo1 O1 1.835086 1_555
Mo2 O15 1.778963 1_565
Mo2 O10 1.786241 1_555
Mo2 O9 1.786241 1_555
Mo2 O7 1.835086 1_555
Mo3 O12 1.778956 1_455
Mo3 O21 1.786241 1_555
Mo3 O0 1.786241 1_555
Mo3 O6 1.835086 1_555
Mo4 O5 1.778966 1_555
Mo4 O23 1.786241 1_555
Mo4 O2 1.786241 1_555
Mo4 O13 1.835086 1_555
Mo5 O16 1.778963 1_545
Mo5 O3 1.786241 1_555
Mo5 O4 1.786241 1_555
Mo5 O22 1.835086 1_555
O0 Th1 2.460278 1_556
O2 Th0 2.460279 1_554
O3 Th0 2.460272 1_554
O4 Th0 2.460272 1_555
O5 Th1 2.457404 1_555
O8 Th1 2.460279 1_555
O9 Th1 2.460272 1_556
O10 Th1 2.460272 1_555
O11 Th1 2.460279 1_556
O12 Th0 2.457404 1_555
O14 Th1 2.457404 1_555
O15 Th0 2.457404 1_555
O16 Th1 2.457404 1_555
O17 Th0 2.460278 1_555
O18 Th0 2.460278 1_554
O19 Th0 2.457404 1_555
O21 Th1 2.460278 1_555
O23 Th0 2.460279 1_555
