# generated using pymatgen
data_Sb3Au3F22
_symmetry_space_group_name_H-M   'P 1'
_cell_length_a   10.96937200
_cell_length_b   10.44591800
_cell_length_c   15.83429772
_cell_angle_alpha   85.67050369
_cell_angle_beta   90.00000000
_cell_angle_gamma   90.00000000
_symmetry_Int_Tables_number   1
_chemical_formula_structural   Sb3Au3F22
_chemical_formula_sum   'Sb12 Au12 F88'
_cell_volume   1809.19804605
_cell_formula_units_Z   4
loop_
 _symmetry_equiv_pos_site_id
 _symmetry_equiv_pos_as_xyz
  1  'x, y, z'
loop_
 _atom_site_type_symbol
 _atom_site_label
 _atom_site_symmetry_multiplicity
 _atom_site_fract_x
 _atom_site_fract_y
 _atom_site_fract_z
 _atom_site_occupancy
  Sb  Sb0  1  0.12492200  0.10177200  0.03117300  1
  Sb  Sb1  1  0.37573600  0.09982500  0.52906100  1
  Sb  Sb2  1  0.87507800  0.10177200  0.53117300  1
  Sb  Sb3  1  0.63215600  0.36328200  0.72987400  1
  Sb  Sb4  1  0.37706900  0.64952500  0.94395700  1
  Sb  Sb5  1  0.87455700  0.36440700  0.23527300  1
  Sb  Sb6  1  0.86930000  0.64308200  0.93509500  1
  Sb  Sb7  1  0.62426400  0.09982500  0.02906100  1
  Sb  Sb8  1  0.36784400  0.36328200  0.22987400  1
  Sb  Sb9  1  0.62293100  0.64952500  0.44395700  1
  Sb  Sb10  1  0.12544300  0.36440700  0.73527300  1
  Sb  Sb11  1  0.13070000  0.64308200  0.43509500  1
  Au  Au0  1  0.88344700  0.05039900  0.86635900  1
  Au  Au1  1  0.37534500  0.62930700  0.68873800  1
  Au  Au2  1  0.63168200  0.86965900  0.73530600  1
  Au  Au3  1  0.36831800  0.86965900  0.23530600  1
  Au  Au4  1  0.86943700  0.86260000  0.23628200  1
  Au  Au5  1  0.61741900  0.05379700  0.36591800  1
  Au  Au6  1  0.87492900  0.68987600  0.60056400  1
  Au  Au7  1  0.11655300  0.05039900  0.36635900  1
  Au  Au8  1  0.62465500  0.62930700  0.18873800  1
  Au  Au9  1  0.13056300  0.86260000  0.73628200  1
  Au  Au10  1  0.38258100  0.05379700  0.86591800  1
  Au  Au11  1  0.12507100  0.68987600  0.10056400  1
  F  F0  1  0.28751800  0.94598500  0.78351000  1
  F  F1  1  0.53199400  0.53616100  0.72803600  1
  F  F2  1  0.71248200  0.94598500  0.28351000  1
  F  F3  1  0.21420000  0.11537500  0.91974000  1
  F  F4  1  0.78580000  0.11537500  0.41974000  1
  F  F5  1  0.72479700  0.20932100  0.73316500  1
  F  F6  1  0.01415500  0.27421200  0.27968700  1
  F  F7  1  0.19002900  0.39241400  0.84317800  1
  F  F8  1  0.91624400  0.34979800  0.12037600  1
  F  F9  1  0.98584500  0.27421200  0.77968700  1
  F  F10  1  0.05025500  0.52951700  0.73006000  1
  F  F11  1  0.03636100  0.62865500  0.54974600  1
  F  F12  1  0.28230600  0.46019000  0.68450400  1
  F  F13  1  0.53159100  0.79680400  0.18739600  1
  F  F14  1  0.22377700  0.21386400  0.73350400  1
  F  F15  1  0.23052000  0.03678600  0.58270100  1
  F  F16  1  0.47306200  0.08317300  0.62805200  1
  F  F17  1  0.94974500  0.52951700  0.23006000  1
  F  F18  1  0.48605700  0.27957300  0.76992200  1
  F  F19  1  0.08198600  0.47217400  0.42307800  1
  F  F20  1  0.01913100  0.70621500  0.88613800  1
  F  F21  1  0.83480300  0.81661200  0.96019700  1
  F  F22  1  0.16519700  0.81661200  0.46019700  1
  F  F23  1  0.08078200  0.93198300  0.00518200  1
  F  F24  1  0.51830200  0.16002100  0.45523500  1
  F  F25  1  0.51394300  0.27957300  0.26992200  1
  F  F26  1  0.77622300  0.21386400  0.23350400  1
  F  F27  1  0.71799900  0.74960000  0.65278700  1
  F  F28  1  0.78245800  0.66510400  0.83103800  1
  F  F29  1  0.40803000  0.47525900  0.92943300  1
  F  F30  1  0.04030900  0.98865000  0.81021800  1
  F  F31  1  0.98086900  0.70621500  0.38613800  1
  F  F32  1  0.73360100  0.58888900  0.00322500  1
  F  F33  1  0.71769400  0.46019000  0.18450400  1
  F  F34  1  0.98046000  0.15500600  0.95887600  1
  F  F35  1  0.59197000  0.47525900  0.42943300  1
  F  F36  1  0.91921800  0.93198300  0.50518200  1
  F  F37  1  0.72648200  0.66063000  0.34558900  1
  F  F38  1  0.78978300  0.95106800  0.77828500  1
  F  F39  1  0.27520300  0.20932100  0.23316500  1
  F  F40  1  0.28200100  0.74960000  0.15278700  1
  F  F41  1  0.67633000  0.81914000  0.46462500  1
  F  F42  1  0.46800600  0.53616100  0.22803600  1
  F  F43  1  0.45944800  0.99349300  0.31072200  1
  F  F44  1  0.96363900  0.62865500  0.04974600  1
  F  F45  1  0.76948000  0.03678600  0.08270100  1
  F  F46  1  0.84056900  0.27657300  0.53935600  1
  F  F47  1  0.51026600  0.71345400  0.87576900  1
  F  F48  1  0.21021700  0.95106800  0.27828500  1
  F  F49  1  0.57857100  0.93379700  0.99913600  1
  F  F50  1  0.26639900  0.58888900  0.50322500  1
  F  F51  1  0.48169800  0.16002100  0.95523500  1
  F  F52  1  0.72838200  0.03982000  0.58328200  1
  F  F53  1  0.22702300  0.73938000  0.65925900  1
  F  F54  1  0.71744700  0.11725700  0.91840800  1
  F  F55  1  0.27161800  0.03982000  0.08328200  1
  F  F56  1  0.22598700  0.59093500  0.01328900  1
  F  F57  1  0.01954000  0.15500600  0.45887600  1
  F  F58  1  0.66933400  0.39877000  0.84248000  1
  F  F59  1  0.53260200  0.64208700  0.54667200  1
  F  F60  1  0.77297700  0.73938000  0.15925900  1
  F  F61  1  0.23523900  0.47021100  0.19024700  1
  F  F62  1  0.15943100  0.27657300  0.03935600  1
  F  F63  1  0.65941400  0.27417000  0.03838500  1
  F  F64  1  0.34058600  0.27417000  0.53838500  1
  F  F65  1  0.46840900  0.79680400  0.68739600  1
  F  F66  1  0.80997100  0.39241400  0.34317800  1
  F  F67  1  0.21754200  0.66510400  0.33103800  1
  F  F68  1  0.96965300  0.08452900  0.63127900  1
  F  F69  1  0.33066600  0.39877000  0.34248000  1
  F  F70  1  0.54055200  0.99349300  0.81072200  1
  F  F71  1  0.52693800  0.08317300  0.12805200  1
  F  F72  1  0.76476100  0.47021100  0.69024700  1
  F  F73  1  0.46739800  0.64208700  0.04667200  1
  F  F74  1  0.95969100  0.98865000  0.31021800  1
  F  F75  1  0.91801400  0.47217400  0.92307800  1
  F  F76  1  0.77401300  0.59093500  0.51328900  1
  F  F77  1  0.42142900  0.93379700  0.49913600  1
  F  F78  1  0.03121400  0.78936800  0.18508600  1
  F  F79  1  0.32367000  0.81914000  0.96462500  1
  F  F80  1  0.03034700  0.08452900  0.13127900  1
  F  F81  1  0.48973400  0.71345400  0.37576900  1
  F  F82  1  0.08375600  0.34979800  0.62037600  1
  F  F83  1  0.42162700  0.35572200  0.11678800  1
  F  F84  1  0.57837300  0.35572200  0.61678800  1
  F  F85  1  0.28255300  0.11725700  0.41840800  1
  F  F86  1  0.27351800  0.66063000  0.84558900  1
  F  F87  1  0.96878600  0.78936800  0.68508600  1
loop_
_geom_bond_atom_site_label_1
_geom_bond_atom_site_label_2
_geom_bond_distance
_geom_bond_site_symmetry_2
Au0 F30 2.062426 1_645
Au0 F38 2.072584 1_545
Au0 F54 2.137669 1_555
Au0 F34 2.171229 1_555
Au1 F65 2.024423 1_555
Au1 F53 2.026338 1_555
Au1 F12 2.045672 1_555
Au1 F1 2.048220 1_555
Au2 F38 2.069147 1_555
Au2 F70 2.081302 1_555
Au2 F27 2.103341 1_555
Au2 F65 2.109394 1_555
Au3 F48 2.069147 1_555
Au3 F43 2.081302 1_555
Au3 F40 2.103341 1_555
Au3 F13 2.109394 1_555
Au4 F74 2.077791 1_555
Au4 F2 2.092971 1_555
Au4 F78 2.117818 1_655
Au4 F60 2.121505 1_555
Au5 F43 2.060713 1_545
Au5 F2 2.068884 1_545
Au5 F4 2.152756 1_555
Au5 F24 2.156489 1_555
Au6 F27 2.028348 1_555
Au6 F87 2.035011 1_555
Au6 F11 2.066378 1_655
Au6 F76 2.102142 1_555
Au7 F74 2.062426 1_445
Au7 F48 2.072584 1_545
Au7 F85 2.137669 1_555
Au7 F57 2.171229 1_555
Au8 F13 2.024423 1_555
Au8 F60 2.026338 1_555
Au8 F33 2.045672 1_555
Au8 F42 2.048220 1_555
Au9 F30 2.077791 1_555
Au9 F0 2.092971 1_555
Au9 F87 2.117818 1_455
Au9 F53 2.121505 1_555
Au10 F70 2.060713 1_545
Au10 F0 2.068884 1_545
Au10 F3 2.152756 1_555
Au10 F51 2.156489 1_555
Au11 F40 2.028348 1_555
Au11 F78 2.035011 1_555
Au11 F44 2.066378 1_455
Au11 F56 2.102142 1_555
F1 Sb3 2.112176 1_555
F3 Sb0 2.013639 1_556
F4 Sb2 2.013639 1_555
F5 Sb3 1.899807 1_555
F6 Sb5 1.904497 1_455
F7 Sb10 1.892697 1_555
F8 Sb5 1.893202 1_555
F9 Sb10 1.904497 1_655
F10 Sb10 1.907940 1_555
F11 Sb11 2.085195 1_555
F12 Sb10 2.118172 1_555
F14 Sb10 1.908898 1_555
F15 Sb1 1.899473 1_555
F16 Sb1 1.893616 1_555
F17 Sb5 1.907940 1_555
F18 Sb3 1.910859 1_555
F19 Sb11 1.886877 1_555
F20 Sb6 1.913093 1_455
F21 Sb6 1.922439 1_555
F22 Sb11 1.922439 1_555
F23 Sb0 1.913029 1_565
F24 Sb1 2.024003 1_555
F25 Sb8 1.910859 1_555
F26 Sb5 1.908898 1_555
F28 Sb6 1.902093 1_555
F29 Sb4 1.882866 1_555
F31 Sb11 1.913093 1_655
F32 Sb6 1.899415 1_554
F33 Sb5 2.118172 1_555
F34 Sb0 2.008669 1_656
F35 Sb9 1.882866 1_555
F36 Sb2 1.913029 1_565
F37 Sb9 1.924189 1_555
F39 Sb8 1.899807 1_555
F41 Sb9 1.917544 1_555
F42 Sb8 2.112176 1_555
F44 Sb6 2.085195 1_554
F45 Sb7 1.899473 1_555
F46 Sb2 1.878809 1_555
F47 Sb4 1.907259 1_555
F49 Sb7 1.899388 1_566
F50 Sb11 1.899415 1_555
F51 Sb7 2.024003 1_556
F52 Sb2 1.899576 1_555
F54 Sb7 2.024770 1_556
F55 Sb0 1.899576 1_555
F56 Sb4 2.055458 1_554
F57 Sb2 2.008669 1_455
F58 Sb3 1.892817 1_555
F59 Sb9 1.901049 1_555
F61 Sb8 1.910854 1_555
F62 Sb0 1.878809 1_555
F63 Sb7 1.878246 1_555
F64 Sb1 1.878246 1_555
F66 Sb5 1.892697 1_555
F67 Sb11 1.902093 1_555
F68 Sb2 1.891603 1_555
F69 Sb8 1.892817 1_555
F71 Sb7 1.893616 1_555
F72 Sb3 1.910854 1_555
F73 Sb4 1.901049 1_554
F75 Sb6 1.886877 1_555
F76 Sb9 2.055458 1_555
F77 Sb1 1.899388 1_565
F79 Sb4 1.917544 1_555
F80 Sb0 1.891603 1_555
F81 Sb9 1.907259 1_555
F82 Sb10 1.893202 1_555
F83 Sb8 1.892625 1_555
F84 Sb3 1.892625 1_555
F85 Sb1 2.024770 1_555
F86 Sb4 1.924189 1_555
