# generated using pymatgen
data_BaPb2BrF5
_symmetry_space_group_name_H-M   'P 1'
_cell_length_a   6.04260200
_cell_length_b   6.04260200
_cell_length_c   9.87400200
_cell_angle_alpha   90.00000000
_cell_angle_beta   90.00000000
_cell_angle_gamma   90.00000000
_symmetry_Int_Tables_number   1
_chemical_formula_structural   BaPb2BrF5
_chemical_formula_sum   'Ba2 Pb4 Br2 F10'
_cell_volume   360.52981942
_cell_formula_units_Z   2
loop_
 _symmetry_equiv_pos_site_id
 _symmetry_equiv_pos_as_xyz
  1  'x, y, z'
loop_
 _atom_site_type_symbol
 _atom_site_label
 _atom_site_symmetry_multiplicity
 _atom_site_fract_x
 _atom_site_fract_y
 _atom_site_fract_z
 _atom_site_occupancy
  Ba  Ba0  1  0.50000000  0.50000000  0.00000000  1
  Ba  Ba1  1  0.00000000  0.00000000  0.00000000  1
  Pb  Pb0  1  0.00000000  0.50000000  0.32154400  1
  Pb  Pb1  1  0.50000000  0.00000000  0.67845600  1
  Pb  Pb2  1  0.50000000  0.00000000  0.27602200  1
  Pb  Pb3  1  0.00000000  0.50000000  0.72397800  1
  Br  Br0  1  0.50000000  0.50000000  0.50000000  1
  Br  Br1  1  0.00000000  0.00000000  0.50000000  1
  F  F0  1  0.00000000  0.50000000  0.95959200  1
  F  F1  1  0.26549800  0.23450200  0.81187300  1
  F  F2  1  0.23450200  0.26549800  0.18812700  1
  F  F3  1  0.50000000  0.00000000  0.04040800  1
  F  F4  1  0.73450200  0.76549800  0.81187300  1
  F  F5  1  0.23450200  0.73450200  0.18812700  1
  F  F6  1  0.26549800  0.76549800  0.81187300  1
  F  F7  1  0.73450200  0.23450200  0.81187300  1
  F  F8  1  0.76549800  0.26549800  0.18812700  1
  F  F9  1  0.76549800  0.73450200  0.18812700  1
loop_
_geom_bond_atom_site_label_1
_geom_bond_atom_site_label_2
_geom_bond_distance
_geom_bond_site_symmetry_2
Ba0 F9 2.834118 1_555
Ba0 F8 2.834118 1_555
Ba0 F5 2.834118 1_555
Ba0 F2 2.834118 1_555
Ba0 F7 2.834118 1_554
Ba0 F4 2.834118 1_554
Ba0 F1 2.834118 1_554
Ba0 F6 2.834118 1_554
Ba0 F0 3.047532 1_554
Ba0 F3 3.047532 1_565
Ba0 F3 3.047532 1_555
Ba0 F0 3.047532 1_654
Ba1 F8 2.834118 1_455
Ba1 F2 2.834118 1_555
Ba1 F5 2.834118 1_545
Ba1 F9 2.834118 1_445
Ba1 F4 2.834118 1_444
Ba1 F6 2.834118 1_544
Ba1 F1 2.834118 1_554
Ba1 F7 2.834118 1_454
Ba1 F0 3.047532 1_554
Ba1 F0 3.047532 1_544
Ba1 F3 3.047532 1_455
Ba1 F3 3.047532 1_555
F0 Pb3 2.326453 1_555
F1 Pb1 2.398172 1_555
F1 Pb3 2.429147 1_555
F2 Pb0 2.398172 1_555
F2 Pb2 2.429147 1_555
F3 Pb2 2.326453 1_555
F4 Pb1 2.398172 1_565
F4 Pb3 2.429147 1_655
F5 Pb0 2.398172 1_555
F5 Pb2 2.429147 1_565
F6 Pb1 2.398172 1_565
F6 Pb3 2.429147 1_555
F7 Pb1 2.398172 1_555
F7 Pb3 2.429147 1_655
F8 Pb0 2.398172 1_655
F8 Pb2 2.429147 1_555
F9 Pb0 2.398172 1_655
F9 Pb2 2.429147 1_565
