# generated using pymatgen
data_Ag3F8
_symmetry_space_group_name_H-M   'P 1'
_cell_length_a   4.90640801
_cell_length_b   5.42999278
_cell_length_c   11.11237222
_cell_angle_alpha   90.00000512
_cell_angle_beta   90.00000003
_cell_angle_gamma   96.29847811
_symmetry_Int_Tables_number   1
_chemical_formula_structural   Ag3F8
_chemical_formula_sum   'Ag6 F16'
_cell_volume   294.26613915
_cell_formula_units_Z   2
loop_
 _symmetry_equiv_pos_site_id
 _symmetry_equiv_pos_as_xyz
  1  'x, y, z'
loop_
 _atom_site_type_symbol
 _atom_site_label
 _atom_site_symmetry_multiplicity
 _atom_site_fract_x
 _atom_site_fract_y
 _atom_site_fract_z
 _atom_site_occupancy
  Ag  Ag0  1  0.27543197  0.02416434  0.68504516  1
  Ag  Ag1  1  0.72456803  0.97583566  0.31495484  1
  Ag  Ag2  1  0.22456803  0.47583566  0.18504516  1
  Ag  Ag3  1  0.77543197  0.52416434  0.81495484  1
  Ag  Ag4  1  0.50000000  0.00000000  -0.00000000  1
  Ag  Ag5  1  -0.00000000  0.50000000  0.50000000  1
  F  F0  1  0.20298375  0.16809488  0.09157711  1
  F  F1  1  0.21270898  0.76726903  0.28275490  1
  F  F2  1  0.79701625  0.83190512  0.90842289  1
  F  F3  1  0.70298375  0.66809488  0.40842289  1
  F  F4  1  0.74844502  0.16129611  0.46631866  1
  F  F5  1  0.79399452  0.71197748  0.66771735  1
  F  F6  1  0.20600548  0.28802252  0.33228265  1
  F  F7  1  0.78729102  0.23273097  0.71724510  1
  F  F8  1  0.29399452  0.21197748  0.83228265  1
  F  F9  1  0.71270898  0.26726903  0.21724510  1
  F  F10  1  0.75155498  0.33870389  0.96631866  1
  F  F11  1  0.25155498  0.83870389  0.53368134  1
  F  F12  1  0.28729102  0.73273097  0.78275490  1
  F  F13  1  0.24844502  0.66129611  0.03368134  1
  F  F14  1  0.29701625  0.33190512  0.59157711  1
  F  F15  1  0.70600548  0.78802252  0.16771735  1
loop_
_geom_bond_atom_site_label_1
_geom_bond_atom_site_label_2
_geom_bond_distance
_geom_bond_site_symmetry_2
Ag0 F8 1.924829 1_555
Ag0 F12 1.925297 1_545
Ag0 F11 1.957332 1_545
Ag0 F14 1.960491 1_555
Ag1 F15 1.924829 1_555
Ag1 F9 1.925297 1_565
Ag1 F4 1.957332 1_565
Ag1 F3 1.960491 1_555
Ag2 F6 1.924830 1_555
Ag2 F1 1.925297 1_555
Ag2 F13 1.957332 1_555
Ag2 F0 1.960491 1_555
Ag3 F5 1.924830 1_555
Ag3 F7 1.925297 1_555
Ag3 F10 1.957332 1_555
Ag3 F2 1.960491 1_555
Ag4 F2 2.069840 1_544
Ag4 F0 2.069840 1_555
Ag4 F13 2.132571 1_545
Ag4 F10 2.132571 1_554
Ag4 F8 2.464809 1_554
Ag4 F15 2.464809 1_545
Ag5 F3 2.069840 1_455
Ag5 F14 2.069840 1_555
Ag5 F4 2.132571 1_455
Ag5 F11 2.132571 1_555
Ag5 F5 2.464809 1_455
Ag5 F6 2.464809 1_555
