# generated using pymatgen
data_Na10Be4Si4O17
_symmetry_space_group_name_H-M   'P 1'
_cell_length_a   7.35005400
_cell_length_b   7.35005400
_cell_length_c   7.35005400
_cell_angle_alpha   90.00000000
_cell_angle_beta   90.00000000
_cell_angle_gamma   90.00000000
_symmetry_Int_Tables_number   1
_chemical_formula_structural   Na10Be4Si4O17
_chemical_formula_sum   'Na10 Be4 Si4 O17'
_cell_volume   397.07412671
_cell_formula_units_Z   1
loop_
 _symmetry_equiv_pos_site_id
 _symmetry_equiv_pos_as_xyz
  1  'x, y, z'
loop_
 _atom_site_type_symbol
 _atom_site_label
 _atom_site_symmetry_multiplicity
 _atom_site_fract_x
 _atom_site_fract_y
 _atom_site_fract_z
 _atom_site_occupancy
  Na  Na0  1  0.34082600  0.65917400  0.34082600  1
  Na  Na1  1  0.65917400  0.65917400  0.65917400  1
  Na  Na2  1  0.00000000  0.00000000  0.50000000  1
  Na  Na3  1  0.65917400  0.34082600  0.34082600  1
  Na  Na4  1  0.50000000  0.50000000  0.00000000  1
  Na  Na5  1  0.34082600  0.34082600  0.65917400  1
  Na  Na6  1  0.00000000  0.50000000  0.50000000  1
  Na  Na7  1  0.00000000  0.50000000  0.00000000  1
  Na  Na8  1  0.50000000  0.00000000  0.50000000  1
  Na  Na9  1  0.50000000  0.00000000  0.00000000  1
  Be  Be0  1  0.86746300  0.86746300  0.86746300  1
  Be  Be1  1  0.13253700  0.86746300  0.13253700  1
  Be  Be2  1  0.86746300  0.13253700  0.13253700  1
  Be  Be3  1  0.13253700  0.13253700  0.86746300  1
  Si  Si0  1  0.78018600  0.78018600  0.21981400  1
  Si  Si1  1  0.21981400  0.21981400  0.21981400  1
  Si  Si2  1  0.78018600  0.21981400  0.78018600  1
  Si  Si3  1  0.21981400  0.78018600  0.78018600  1
  O  O0  1  0.26036600  0.99976200  0.26036600  1
  O  O1  1  0.34634800  0.65365200  0.65365200  1
  O  O2  1  0.99976200  0.73963400  0.73963400  1
  O  O3  1  0.73963400  0.99976200  0.73963400  1
  O  O4  1  0.00023800  0.26036600  0.73963400  1
  O  O5  1  0.99976200  0.26036600  0.26036600  1
  O  O6  1  0.26036600  0.26036600  0.99976200  1
  O  O7  1  0.65365200  0.65365200  0.34634800  1
  O  O8  1  0.73963400  0.26036600  0.00023800  1
  O  O9  1  0.73963400  0.73963400  0.99976200  1
  O  O10  1  0.26036600  0.00023800  0.73963400  1
  O  O11  1  0.65365200  0.34634800  0.65365200  1
  O  O12  1  0.34634800  0.34634800  0.34634800  1
  O  O13  1  0.00023800  0.73963400  0.26036600  1
  O  O14  1  0.73963400  0.00023800  0.26036600  1
  O  O15  1  0.26036600  0.73963400  0.00023800  1
  O  O16  1  0.00000000  0.00000000  0.00000000  1
loop_
_geom_bond_atom_site_label_1
_geom_bond_atom_site_label_2
_geom_bond_distance
_geom_bond_site_symmetry_2
Na0 O12 2.300004 1_555
Na0 O7 2.300004 1_555
Na0 O1 2.300004 1_555
Na0 O0 2.639353 1_555
Na0 O13 2.639353 1_555
Na0 O15 2.639353 1_555
Na1 O1 2.300004 1_555
Na1 O7 2.300004 1_555
Na1 O11 2.300004 1_555
Na1 O2 2.639353 1_555
Na1 O3 2.639353 1_555
Na1 O9 2.639353 1_555
Na2 O13 2.600870 1_545
Na2 O2 2.600870 1_445
Na2 O4 2.600870 1_555
Na2 O5 2.600870 1_455
Na2 O3 2.600870 1_445
Na2 O10 2.600870 1_555
Na2 O0 2.600870 1_545
Na2 O14 2.600870 1_455
Na3 O12 2.300004 1_555
Na3 O7 2.300004 1_555
Na3 O11 2.300004 1_555
Na3 O5 2.639353 1_555
Na3 O8 2.639353 1_555
Na3 O14 2.639353 1_555
Na4 O9 2.490887 1_554
Na4 O6 2.490887 1_554
Na4 O15 2.490887 1_555
Na4 O8 2.490887 1_555
Na5 O12 2.300004 1_555
Na5 O11 2.300004 1_555
Na5 O1 2.300004 1_555
Na5 O6 2.639353 1_555
Na5 O4 2.639353 1_555
Na5 O10 2.639353 1_555
Na6 O4 2.490887 1_555
Na6 O2 2.490887 1_455
Na6 O5 2.490887 1_455
Na6 O13 2.490887 1_555
Na7 O13 2.600870 1_555
Na7 O4 2.600870 1_554
Na7 O8 2.600870 1_455
Na7 O2 2.600870 1_454
Na7 O5 2.600870 1_455
Na7 O9 2.600870 1_454
Na7 O6 2.600870 1_554
Na7 O15 2.600870 1_555
Na8 O0 2.490887 1_545
Na8 O3 2.490887 1_545
Na8 O14 2.490887 1_555
Na8 O10 2.490887 1_555
Na9 O8 2.600870 1_555
Na9 O14 2.600870 1_555
Na9 O3 2.600870 1_544
Na9 O0 2.600870 1_545
Na9 O6 2.600870 1_554
Na9 O10 2.600870 1_554
Na9 O9 2.600870 1_544
Na9 O15 2.600870 1_545
Be0 O9 1.646536 1_555
Be0 O3 1.646536 1_555
Be0 O2 1.646536 1_555
Be0 O16 1.687284 1_666
Be1 O0 1.646536 1_555
Be1 O13 1.646536 1_555
Be1 O15 1.646536 1_555
Be1 O16 1.687284 1_565
Be2 O5 1.646536 1_555
Be2 O8 1.646536 1_555
Be2 O14 1.646536 1_555
Be2 O16 1.687284 1_655
Be3 O6 1.646536 1_555
Be3 O10 1.646536 1_555
Be3 O4 1.646536 1_555
Be3 O16 1.687284 1_556
O0 Si1 1.671419 1_565
O1 Si3 1.610862 1_555
O2 Si3 1.671419 1_655
O3 Si2 1.671419 1_565
O4 Si2 1.671419 1_455
O5 Si1 1.671419 1_655
O6 Si1 1.671419 1_556
O7 Si0 1.610862 1_555
O8 Si2 1.671419 1_554
O9 Si0 1.671419 1_556
O10 Si3 1.671419 1_545
O11 Si2 1.610862 1_555
O12 Si1 1.610862 1_555
O13 Si0 1.671419 1_455
O14 Si0 1.671419 1_545
O15 Si3 1.671419 1_554
