# generated using pymatgen
data_Gd2Te4O11
_symmetry_space_group_name_H-M   'P 1'
_cell_length_a   6.75065584
_cell_length_b   6.75065584
_cell_length_c   16.20379754
_cell_angle_alpha   75.57770072
_cell_angle_beta   75.57770072
_cell_angle_gamma   45.00492125
_symmetry_Int_Tables_number   1
_chemical_formula_structural   Gd2Te4O11
_chemical_formula_sum   'Gd4 Te8 O22'
_cell_volume   502.85849691
_cell_formula_units_Z   2
loop_
 _symmetry_equiv_pos_site_id
 _symmetry_equiv_pos_as_xyz
  1  'x, y, z'
loop_
 _atom_site_type_symbol
 _atom_site_label
 _atom_site_symmetry_multiplicity
 _atom_site_fract_x
 _atom_site_fract_y
 _atom_site_fract_z
 _atom_site_occupancy
  Gd  Gd0  1  0.62888639  0.13418182  0.03696109  1
  Gd  Gd1  1  0.86581818  0.37111361  0.46303891  1
  Gd  Gd2  1  0.37111361  0.86581818  0.96303891  1
  Gd  Gd3  1  0.13418182  0.62888639  0.53696109  1
  Te  Te0  1  0.59001404  0.15235650  0.37305209  1
  Te  Te1  1  0.84764350  0.40998596  0.12694791  1
  Te  Te2  1  0.40998596  0.84764350  0.62694791  1
  Te  Te3  1  0.15235650  0.59001404  0.87305209  1
  Te  Te4  1  0.15682084  0.60116830  0.19993682  1
  Te  Te5  1  0.39883170  0.84317916  0.30006318  1
  Te  Te6  1  0.84317916  0.39883170  0.80006318  1
  Te  Te7  1  0.60116830  0.15682084  0.69993682  1
  O  O0  1  0.68031503  0.81426157  0.37271283  1
  O  O1  1  0.18573843  0.31968497  0.12728717  1
  O  O2  1  0.31968497  0.18573843  0.62728717  1
  O  O3  1  0.81426157  0.68031503  0.87271283  1
  O  O4  1  0.25009873  0.33487331  0.44498737  1
  O  O5  1  0.66512669  0.74990127  0.05501263  1
  O  O6  1  0.74990127  0.66512669  0.55501263  1
  O  O7  1  0.33487331  0.25009873  0.94498737  1
  O  O8  1  0.81465641  0.04242257  0.45434628  1
  O  O9  1  0.95757743  0.18534359  0.04565372  1
  O  O10  1  0.18534359  0.95757743  0.54565372  1
  O  O11  1  0.04242257  0.81465641  0.95434628  1
  O  O12  1  0.43868260  0.60983908  0.40194881  1
  O  O13  1  0.39016092  0.56131740  0.09805119  1
  O  O14  1  0.56131740  0.39016092  0.59805119  1
  O  O15  1  0.60983908  0.43868260  0.90194881  1
  O  O16  1  0.09181777  0.20103273  0.33118044  1
  O  O17  1  0.79896727  0.90818223  0.16881956  1
  O  O18  1  0.90818223  0.79896727  0.66881956  1
  O  O19  1  0.20103273  0.09181777  0.83118044  1
  O  O20  1  0.15090672  0.84909328  0.25000000  1
  O  O21  1  0.84909328  0.15090672  0.75000000  1
loop_
_geom_bond_atom_site_label_1
_geom_bond_atom_site_label_2
_geom_bond_distance
_geom_bond_site_symmetry_2
Gd0 O11 2.302109 1_644
Gd0 O17 2.309144 1_545
Gd0 O7 2.338596 1_554
Gd0 O5 2.373861 1_545
Gd0 O13 2.438724 1_555
Gd0 O1 2.468629 1_555
Gd0 O9 2.515185 1_555
Gd0 O15 2.560132 1_554
Gd1 O10 2.302109 1_645
Gd1 O16 2.309144 1_655
Gd1 O6 2.338596 1_555
Gd1 O4 2.373861 1_655
Gd1 O12 2.438724 1_555
Gd1 O0 2.468629 1_555
Gd1 O8 2.515185 1_555
Gd1 O14 2.560132 1_555
Gd2 O9 2.302109 1_466
Gd2 O19 2.309144 1_565
Gd2 O5 2.338596 1_556
Gd2 O7 2.373861 1_565
Gd2 O15 2.438724 1_555
Gd2 O3 2.468629 1_555
Gd2 O11 2.515185 1_555
Gd2 O13 2.560132 1_556
Gd3 O8 2.302109 1_465
Gd3 O18 2.309144 1_455
Gd3 O4 2.338596 1_555
Gd3 O6 2.373861 1_455
Gd3 O14 2.438724 1_555
Gd3 O2 2.468629 1_555
Gd3 O10 2.515185 1_555
Gd3 O12 2.560132 1_555
O0 Te0 1.902092 1_565
O0 Te5 2.347322 1_555
O1 Te1 1.902092 1_455
O1 Te4 2.347322 1_555
O2 Te2 1.902092 1_545
O2 Te7 2.347322 1_555
O3 Te3 1.902092 1_655
O3 Te6 2.347322 1_555
O4 Te0 1.878095 1_555
O5 Te1 1.878095 1_555
O6 Te2 1.878095 1_555
O7 Te3 1.878095 1_555
O8 Te0 1.871457 1_555
O9 Te1 1.871457 1_555
O10 Te2 1.871457 1_555
O11 Te3 1.871457 1_555
O12 Te5 1.898891 1_555
O12 Te0 2.611734 1_555
O13 Te4 1.898891 1_555
O13 Te1 2.611734 1_555
O14 Te7 1.898891 1_555
O14 Te2 2.611734 1_555
O15 Te6 1.898891 1_555
O15 Te3 2.611734 1_555
O16 Te5 1.841661 1_545
O17 Te4 1.841661 1_655
O18 Te7 1.841661 1_565
O19 Te6 1.841661 1_455
O20 Te5 2.006608 1_555
O20 Te4 2.006608 1_555
O21 Te6 2.006608 1_555
O21 Te7 2.006608 1_555
