# generated using pymatgen
data_Ba5B4(O5F)2
_symmetry_space_group_name_H-M   'P 1'
_cell_length_a   11.11509333
_cell_length_b   11.11509333
_cell_length_c   8.73350921
_cell_angle_alpha   85.02128260
_cell_angle_beta   85.02128260
_cell_angle_gamma   37.79051606
_symmetry_Int_Tables_number   1
_chemical_formula_structural   Ba5B4(O5F)2
_chemical_formula_sum   'Ba10 B8 O20 F4'
_cell_volume   658.38828435
_cell_formula_units_Z   2
loop_
 _symmetry_equiv_pos_site_id
 _symmetry_equiv_pos_as_xyz
  1  'x, y, z'
loop_
 _atom_site_type_symbol
 _atom_site_label
 _atom_site_symmetry_multiplicity
 _atom_site_fract_x
 _atom_site_fract_y
 _atom_site_fract_z
 _atom_site_occupancy
  Ba  Ba0  1  0.44498100  0.55501900  0.75000000  1
  Ba  Ba1  1  0.20178600  0.96891500  0.39186400  1
  Ba  Ba2  1  0.55501900  0.44498100  0.25000000  1
  Ba  Ba3  1  0.18642600  0.41267800  0.80546800  1
  Ba  Ba4  1  0.81357400  0.58732200  0.19453200  1
  Ba  Ba5  1  0.03108500  0.79821400  0.10813600  1
  Ba  Ba6  1  0.58732200  0.81357400  0.69453200  1
  Ba  Ba7  1  0.96891500  0.20178600  0.89186400  1
  Ba  Ba8  1  0.79821400  0.03108500  0.60813600  1
  Ba  Ba9  1  0.41267800  0.18642600  0.30546800  1
  B  B0  1  0.94369600  0.68066500  0.41661300  1
  B  B1  1  0.77567700  0.41244700  0.50558000  1
  B  B2  1  0.31933500  0.05630400  0.08338700  1
  B  B3  1  0.05630400  0.31933500  0.58338700  1
  B  B4  1  0.58755300  0.22432300  0.99442000  1
  B  B5  1  0.22432300  0.58755300  0.49442000  1
  B  B6  1  0.68066500  0.94369600  0.91661300  1
  B  B7  1  0.41244700  0.77567700  0.00558000  1
  O  O0  1  0.35142100  0.94800300  0.96631600  1
  O  O1  1  0.94800300  0.35142100  0.46631600  1
  O  O2  1  0.19314100  0.72393700  0.41938600  1
  O  O3  1  0.27606300  0.80685900  0.08061400  1
  O  O4  1  0.57668400  0.04863300  0.78538100  1
  O  O5  1  0.40287500  0.40457100  0.54204100  1
  O  O6  1  0.72393700  0.19314100  0.91938600  1
  O  O7  1  0.25057900  0.18896100  0.55658900  1
  O  O8  1  0.04863300  0.57668400  0.28538100  1
  O  O9  1  0.59712500  0.59542900  0.45795900  1
  O  O10  1  0.40457100  0.40287500  0.04204100  1
  O  O11  1  0.18896100  0.25057900  0.05658900  1
  O  O12  1  0.81103900  0.74942100  0.94341100  1
  O  O13  1  0.74942100  0.81103900  0.44341100  1
  O  O14  1  0.80685900  0.27606300  0.58061400  1
  O  O15  1  0.95136700  0.42331600  0.71461900  1
  O  O16  1  0.64857900  0.05199700  0.03368400  1
  O  O17  1  0.59542900  0.59712500  0.95795900  1
  O  O18  1  0.05199700  0.64857900  0.53368400  1
  O  O19  1  0.42331600  0.95136700  0.21461900  1
  F  F0  1  0.25541100  0.90469200  0.69451700  1
  F  F1  1  0.90469200  0.25541100  0.19451700  1
  F  F2  1  0.74458900  0.09530800  0.30548300  1
  F  F3  1  0.09530800  0.74458900  0.80548300  1
loop_
_geom_bond_atom_site_label_1
_geom_bond_atom_site_label_2
_geom_bond_distance
_geom_bond_site_symmetry_2
Ba0 F3 2.585992 1_555
Ba0 F0 2.585992 1_555
Ba0 O6 2.834250 1_555
Ba0 O14 2.834250 1_555
Ba0 O5 2.868051 1_555
Ba0 O17 2.868051 1_555
Ba1 F0 2.669259 1_555
Ba1 O19 2.670029 1_555
Ba1 F1 2.725965 1_465
Ba1 O1 2.768081 1_465
Ba1 O2 2.788801 1_555
Ba1 O9 2.840561 1_555
Ba1 O3 3.070063 1_555
Ba1 O14 3.110734 1_465
Ba1 O7 3.344927 1_565
Ba2 F2 2.585992 1_555
Ba2 F1 2.585992 1_555
Ba2 O2 2.834250 1_555
Ba2 O3 2.834250 1_555
Ba2 O10 2.868051 1_555
Ba2 O9 2.868051 1_555
Ba3 O11 2.702162 1_556
Ba3 O15 2.706471 1_455
Ba3 O4 2.733083 1_555
Ba3 O18 2.843417 1_555
Ba3 O12 2.845571 1_455
Ba3 F3 2.954783 1_555
Ba3 O7 3.046794 1_555
Ba3 O5 3.133978 1_555
Ba3 O10 3.251580 1_556
Ba4 O12 2.702162 1_554
Ba4 O8 2.706471 1_655
Ba4 O19 2.733083 1_555
Ba4 O1 2.843417 1_555
Ba4 O11 2.845571 1_655
Ba4 F1 2.954783 1_555
Ba4 O13 3.046794 1_555
Ba4 O9 3.133978 1_555
Ba4 O17 3.251580 1_554
Ba5 F3 2.669259 1_554
Ba5 O8 2.670029 1_555
Ba5 F2 2.725965 1_465
Ba5 O16 2.768081 1_465
Ba5 O3 2.788801 1_555
Ba5 O10 2.840561 1_555
Ba5 O2 3.070063 1_555
Ba5 O6 3.110734 1_464
Ba5 O12 3.344927 1_454
Ba6 O13 2.702162 1_555
Ba6 O4 2.706471 1_565
Ba6 O15 2.733083 1_555
Ba6 O0 2.843417 1_555
Ba6 O7 2.845571 1_565
Ba6 F0 2.954783 1_555
Ba6 O12 3.046794 1_555
Ba6 O17 3.133978 1_555
Ba6 O9 3.251580 1_555
Ba7 F1 2.669259 1_556
Ba7 O15 2.670029 1_555
Ba7 F0 2.725965 1_645
Ba7 O0 2.768081 1_645
Ba7 O6 2.788801 1_555
Ba7 O17 2.840561 1_555
Ba7 O14 3.070063 1_555
Ba7 O3 3.110734 1_646
Ba7 O11 3.344927 1_656
Ba8 F2 2.669259 1_555
Ba8 O4 2.670029 1_555
Ba8 F3 2.725965 1_645
Ba8 O18 2.768081 1_645
Ba8 O14 2.788801 1_555
Ba8 O5 2.840561 1_555
Ba8 O6 3.070063 1_555
Ba8 O2 3.110734 1_645
Ba8 O13 3.344927 1_545
Ba9 O7 2.702162 1_555
Ba9 O19 2.706471 1_545
Ba9 O8 2.733083 1_555
Ba9 O16 2.843417 1_555
Ba9 O13 2.845571 1_545
Ba9 F2 2.954783 1_555
Ba9 O11 3.046794 1_555
Ba9 O10 3.133978 1_555
Ba9 O5 3.251580 1_555
B0 O13 1.357594 1_555
B0 O8 1.370063 1_655
B0 O18 1.446878 1_655
B1 O9 1.365679 1_555
B1 O14 1.372648 1_555
B1 O1 1.455821 1_555
B2 O11 1.357594 1_555
B2 O19 1.370063 1_545
B2 O0 1.446878 1_544
B3 O7 1.357594 1_555
B3 O15 1.370063 1_455
B3 O1 1.446878 1_455
B4 O10 1.365679 1_556
B4 O6 1.372648 1_555
B4 O16 1.455821 1_556
B5 O5 1.365679 1_555
B5 O2 1.372648 1_555
B5 O18 1.455821 1_555
B6 O12 1.357594 1_555
B6 O4 1.370063 1_565
B6 O16 1.446878 1_566
B7 O17 1.365679 1_554
B7 O3 1.372648 1_555
B7 O0 1.455821 1_554
