# generated using pymatgen
data_Mn2BiPO6
_symmetry_space_group_name_H-M   'P 1'
_cell_length_a   5.44104900
_cell_length_b   8.22162600
_cell_length_c   12.32741600
_cell_angle_alpha   90.00000000
_cell_angle_beta   90.00000000
_cell_angle_gamma   90.00000000
_symmetry_Int_Tables_number   1
_chemical_formula_structural   Mn2BiPO6
_chemical_formula_sum   'Mn8 Bi4 P4 O24'
_cell_volume   551.45795483
_cell_formula_units_Z   4
loop_
 _symmetry_equiv_pos_site_id
 _symmetry_equiv_pos_as_xyz
  1  'x, y, z'
loop_
 _atom_site_type_symbol
 _atom_site_label
 _atom_site_symmetry_multiplicity
 _atom_site_fract_x
 _atom_site_fract_y
 _atom_site_fract_z
 _atom_site_occupancy
  Mn  Mn0  1  0.75000000  0.29345500  0.09870100  1
  Mn  Mn1  1  0.75000000  0.20654500  0.59870100  1
  Mn  Mn2  1  0.25000000  0.70654500  0.90129900  1
  Mn  Mn3  1  0.25000000  0.30887900  0.89674400  1
  Mn  Mn4  1  0.75000000  0.69112100  0.10325600  1
  Mn  Mn5  1  0.25000000  0.19112100  0.39674400  1
  Mn  Mn6  1  0.25000000  0.79345500  0.40129900  1
  Mn  Mn7  1  0.75000000  0.80887900  0.60325600  1
  Bi  Bi0  1  0.75000000  0.51321500  0.40688600  1
  Bi  Bi1  1  0.25000000  0.48678500  0.59311400  1
  Bi  Bi2  1  0.75000000  0.98678500  0.90688600  1
  Bi  Bi3  1  0.25000000  0.01321500  0.09311400  1
  P  P0  1  0.25000000  0.47076300  0.19783200  1
  P  P1  1  0.25000000  0.02923700  0.69783200  1
  P  P2  1  0.75000000  0.52923700  0.80216800  1
  P  P3  1  0.75000000  0.97076300  0.30216800  1
  O  O0  1  0.48717400  0.00745100  0.62703500  1
  O  O1  1  0.98717400  0.99254900  0.37296500  1
  O  O2  1  0.75000000  0.79318000  0.25934100  1
  O  O3  1  0.51282600  0.99254900  0.37296500  1
  O  O4  1  0.50155900  0.66653900  0.50643500  1
  O  O5  1  0.49844100  0.33346100  0.49356500  1
  O  O6  1  0.25000000  0.29318000  0.24065900  1
  O  O7  1  0.75000000  0.70682000  0.75934100  1
  O  O8  1  0.25000000  0.90527000  0.79154300  1
  O  O9  1  0.99844100  0.66653900  0.50643500  1
  O  O10  1  0.51282600  0.50745100  0.87296500  1
  O  O11  1  0.99844100  0.83346100  0.00643500  1
  O  O12  1  0.49844100  0.16653900  0.99356500  1
  O  O13  1  0.00155900  0.33346100  0.49356500  1
  O  O14  1  0.25000000  0.59473000  0.29154300  1
  O  O15  1  0.01282600  0.49254900  0.12703500  1
  O  O16  1  0.98717400  0.50745100  0.87296500  1
  O  O17  1  0.75000000  0.09473000  0.20845700  1
  O  O18  1  0.75000000  0.40527000  0.70845700  1
  O  O19  1  0.00155900  0.16653900  0.99356500  1
  O  O20  1  0.50155900  0.83346100  0.00643500  1
  O  O21  1  0.48717400  0.49254900  0.12703500  1
  O  O22  1  0.01282600  0.00745100  0.62703500  1
  O  O23  1  0.25000000  0.20682000  0.74065900  1
loop_
_geom_bond_atom_site_label_1
_geom_bond_atom_site_label_2
_geom_bond_distance
_geom_bond_site_symmetry_2
Mn0 O17 2.121337 1_555
Mn0 O19 2.154535 1_654
Mn0 O12 2.154535 1_554
Mn0 O21 2.201455 1_555
Mn0 O15 2.201455 1_655
Mn1 O18 2.121337 1_555
Mn1 O5 2.154535 1_555
Mn1 O13 2.154535 1_655
Mn1 O22 2.201455 1_655
Mn1 O0 2.201455 1_555
Mn2 O8 2.121337 1_555
Mn2 O11 2.154535 1_456
Mn2 O20 2.154535 1_556
Mn2 O16 2.201455 1_455
Mn2 O10 2.201455 1_555
Mn3 O23 2.099126 1_555
Mn3 O12 2.149744 1_555
Mn3 O19 2.149744 1_555
Mn3 O16 2.190046 1_455
Mn3 O10 2.190046 1_555
Mn4 O2 2.099126 1_555
Mn4 O20 2.149744 1_555
Mn4 O11 2.149744 1_555
Mn4 O15 2.190046 1_655
Mn4 O21 2.190046 1_555
Mn5 O6 2.099126 1_555
Mn5 O5 2.149744 1_555
Mn5 O13 2.149744 1_555
Mn5 O3 2.190046 1_545
Mn5 O1 2.190046 1_445
Mn6 O14 2.121337 1_555
Mn6 O4 2.154535 1_555
Mn6 O9 2.154535 1_455
Mn6 O1 2.201455 1_455
Mn6 O3 2.201455 1_555
Mn7 O7 2.099126 1_555
Mn7 O9 2.149744 1_555
Mn7 O4 2.149744 1_555
Mn7 O0 2.190046 1_565
Mn7 O22 2.190046 1_665
Bi0 O4 2.218632 1_555
Bi0 O9 2.218632 1_555
Bi0 O5 2.280201 1_555
Bi0 O13 2.280201 1_655
Bi1 O13 2.218632 1_555
Bi1 O5 2.218632 1_555
Bi1 O4 2.280201 1_555
Bi1 O9 2.280201 1_455
Bi2 O11 2.218632 1_556
Bi2 O20 2.218632 1_556
Bi2 O12 2.280201 1_565
Bi2 O19 2.280201 1_665
Bi3 O12 2.218632 1_554
Bi3 O19 2.218632 1_554
Bi3 O11 2.280201 1_445
Bi3 O20 2.280201 1_545
O0 P1 1.568149 1_555
O1 P3 1.568149 1_555
O2 P3 1.552543 1_555
O3 P3 1.568149 1_555
O6 P0 1.552543 1_555
O7 P2 1.552543 1_555
O8 P1 1.540555 1_565
O10 P2 1.568149 1_555
O14 P0 1.540555 1_555
O15 P0 1.568149 1_555
O16 P2 1.568149 1_555
O17 P3 1.540555 1_545
O18 P2 1.540555 1_555
O21 P0 1.568149 1_555
O22 P1 1.568149 1_555
O23 P1 1.552543 1_555
