# generated using pymatgen
data_K5Au(IO)2
_symmetry_space_group_name_H-M   'P 1'
_cell_length_a   5.60007300
_cell_length_b   7.34781300
_cell_length_c   14.26065600
_cell_angle_alpha   90.00000000
_cell_angle_beta   90.00000000
_cell_angle_gamma   90.00000000
_symmetry_Int_Tables_number   1
_chemical_formula_structural   K5Au(IO)2
_chemical_formula_sum   'K10 Au2 I4 O4'
_cell_volume   586.80159713
_cell_formula_units_Z   2
loop_
 _symmetry_equiv_pos_site_id
 _symmetry_equiv_pos_as_xyz
  1  'x, y, z'
loop_
 _atom_site_type_symbol
 _atom_site_label
 _atom_site_symmetry_multiplicity
 _atom_site_fract_x
 _atom_site_fract_y
 _atom_site_fract_z
 _atom_site_occupancy
  K  K0  1  0.50000000  0.32996000  0.60131300  1
  K  K1  1  0.50000000  0.17004000  0.10131300  1
  K  K2  1  0.00000000  0.60042300  0.73812300  1
  K  K3  1  0.00000000  0.50000000  0.00000000  1
  K  K4  1  0.50000000  0.67004000  0.39868700  1
  K  K5  1  0.50000000  0.82996000  0.89868700  1
  K  K6  1  0.00000000  0.89957700  0.23812300  1
  K  K7  1  0.00000000  0.39957700  0.26187700  1
  K  K8  1  0.00000000  0.10042300  0.76187700  1
  K  K9  1  0.00000000  0.00000000  0.50000000  1
  Au  Au0  1  0.00000000  0.50000000  0.50000000  1
  Au  Au1  1  0.00000000  0.00000000  0.00000000  1
  I  I0  1  0.50000000  0.65006400  0.14564400  1
  I  I1  1  0.50000000  0.34993600  0.85435600  1
  I  I2  1  0.50000000  0.15006400  0.35435600  1
  I  I3  1  0.50000000  0.84993600  0.64564400  1
  O  O0  1  0.00000000  0.68066600  0.38976600  1
  O  O1  1  0.00000000  0.81933400  0.88976600  1
  O  O2  1  0.00000000  0.18066600  0.11023400  1
  O  O3  1  0.00000000  0.31933400  0.61023400  1
loop_
_geom_bond_atom_site_label_1
_geom_bond_atom_site_label_2
_geom_bond_distance
_geom_bond_site_symmetry_2
K0 O3 2.804012 1_655
K0 O3 2.804012 1_555
K1 O2 2.804012 1_655
K1 O2 2.804012 1_555
K2 O1 2.695154 1_555
K2 O3 2.755360 1_555
K3 O1 2.824329 1_554
K3 O2 2.824329 1_555
K4 O0 2.804012 1_555
K4 O0 2.804012 1_655
K5 O1 2.804012 1_555
K5 O1 2.804012 1_655
K6 O0 2.695154 1_555
K6 O2 2.755360 1_565
K7 O2 2.695154 1_555
K7 O0 2.755360 1_555
K8 O3 2.695154 1_555
K8 O1 2.755360 1_545
K9 O3 2.824329 1_555
K9 O0 2.824329 1_545
Au0 O0 2.057540 1_555
Au0 O3 2.057540 1_555
Au1 O2 2.057540 1_555
Au1 O1 2.057540 1_544
I0 K1 3.583334 1_555
I0 K6 3.597323 1_655
I0 K6 3.597323 1_555
I0 K4 3.611543 1_555
I0 K3 3.656483 1_655
I0 K3 3.656483 1_555
I0 K7 3.738350 1_655
I0 K7 3.738350 1_555
I0 K5 3.761665 1_554
I0 K1 3.872636 1_565
I1 K5 3.583334 1_555
I1 K8 3.597323 1_555
I1 K8 3.597323 1_655
I1 K0 3.611543 1_555
I1 K3 3.656483 1_656
I1 K3 3.656483 1_556
I1 K2 3.738350 1_555
I1 K2 3.738350 1_655
I1 K1 3.761665 1_556
I1 K5 3.872636 1_545
I2 K4 3.583334 1_545
I2 K7 3.597323 1_655
I2 K7 3.597323 1_555
I2 K1 3.611543 1_555
I2 K9 3.656483 1_555
I2 K9 3.656483 1_655
I2 K6 3.738350 1_645
I2 K6 3.738350 1_545
I2 K0 3.761665 1_555
I2 K4 3.872636 1_555
I3 K0 3.583334 1_565
I3 K2 3.597323 1_555
I3 K2 3.597323 1_655
I3 K5 3.611543 1_555
I3 K9 3.656483 1_565
I3 K9 3.656483 1_665
I3 K8 3.738350 1_565
I3 K8 3.738350 1_665
I3 K4 3.761665 1_555
I3 K0 3.872636 1_555
