# generated using pymatgen
data_CaBi2B2O7
_symmetry_space_group_name_H-M   'P 1'
_cell_length_a   5.56287000
_cell_length_b   8.98368900
_cell_length_c   12.76517000
_cell_angle_alpha   90.00000000
_cell_angle_beta   90.00000000
_cell_angle_gamma   90.00000000
_symmetry_Int_Tables_number   1
_chemical_formula_structural   CaBi2B2O7
_chemical_formula_sum   'Ca4 Bi8 B8 O28'
_cell_volume   637.94057103
_cell_formula_units_Z   4
loop_
 _symmetry_equiv_pos_site_id
 _symmetry_equiv_pos_as_xyz
  1  'x, y, z'
loop_
 _atom_site_type_symbol
 _atom_site_label
 _atom_site_symmetry_multiplicity
 _atom_site_fract_x
 _atom_site_fract_y
 _atom_site_fract_z
 _atom_site_occupancy
  Ca  Ca0  1  0.55392600  0.82573300  0.75000000  1
  Ca  Ca1  1  0.94607400  0.32573300  0.75000000  1
  Ca  Ca2  1  0.05392600  0.67426700  0.25000000  1
  Ca  Ca3  1  0.44607400  0.17426700  0.25000000  1
  Bi  Bi0  1  0.06644200  0.66761600  0.90835400  1
  Bi  Bi1  1  0.56644200  0.83238400  0.40835400  1
  Bi  Bi2  1  0.93355800  0.33238400  0.40835400  1
  Bi  Bi3  1  0.43355800  0.16761600  0.59164600  1
  Bi  Bi4  1  0.56644200  0.83238400  0.09164600  1
  Bi  Bi5  1  0.06644200  0.66761600  0.59164600  1
  Bi  Bi6  1  0.43355800  0.16761600  0.90835400  1
  Bi  Bi7  1  0.93355800  0.33238400  0.09164600  1
  B  B0  1  0.48496300  0.47620600  0.87991100  1
  B  B1  1  0.51503700  0.52379400  0.12008900  1
  B  B2  1  0.01503700  0.97620600  0.87991100  1
  B  B3  1  0.51503700  0.52379400  0.37991100  1
  B  B4  1  0.48496300  0.47620600  0.62008900  1
  B  B5  1  0.01503700  0.97620600  0.62008900  1
  B  B6  1  0.98496300  0.02379400  0.12008900  1
  B  B7  1  0.98496300  0.02379400  0.37991100  1
  O  O0  1  0.77009600  0.10748400  0.37871100  1
  O  O1  1  0.22990400  0.89251600  0.62128900  1
  O  O2  1  0.27009600  0.39251600  0.62128900  1
  O  O3  1  0.80415700  0.89817000  0.88923800  1
  O  O4  1  0.03593400  0.37261700  0.25000000  1
  O  O5  1  0.22990400  0.89251600  0.87871100  1
  O  O6  1  0.69584300  0.39817000  0.61076200  1
  O  O7  1  0.72990400  0.60748400  0.12128900  1
  O  O8  1  0.03703800  0.12855200  0.62457300  1
  O  O9  1  0.96296200  0.87144800  0.12457300  1
  O  O10  1  0.53703800  0.37144800  0.12457300  1
  O  O11  1  0.46296200  0.62855200  0.87542700  1
  O  O12  1  0.19584300  0.10183000  0.11076200  1
  O  O13  1  0.69584300  0.39817000  0.88923800  1
  O  O14  1  0.46296200  0.62855200  0.62457300  1
  O  O15  1  0.53593400  0.12738300  0.75000000  1
  O  O16  1  0.19584300  0.10183000  0.38923800  1
  O  O17  1  0.30415700  0.60183000  0.38923800  1
  O  O18  1  0.72990400  0.60748400  0.37871100  1
  O  O19  1  0.46406600  0.87261700  0.25000000  1
  O  O20  1  0.96406600  0.62738300  0.75000000  1
  O  O21  1  0.77009600  0.10748400  0.12128900  1
  O  O22  1  0.53703800  0.37144800  0.37542700  1
  O  O23  1  0.30415700  0.60183000  0.11076200  1
  O  O24  1  0.80415700  0.89817000  0.61076200  1
  O  O25  1  0.96296200  0.87144800  0.37542700  1
  O  O26  1  0.27009600  0.39251600  0.87871100  1
  O  O27  1  0.03703800  0.12855200  0.87542700  1
loop_
_geom_bond_atom_site_label_1
_geom_bond_atom_site_label_2
_geom_bond_distance
_geom_bond_site_symmetry_2
Ca0 O3 2.349529 1_555
Ca0 O24 2.349529 1_555
Ca0 O11 2.440793 1_555
Ca0 O14 2.440793 1_555
Ca0 O5 2.511660 1_555
Ca0 O1 2.511660 1_555
Ca0 O15 2.711777 1_565
Ca0 O20 2.894947 1_555
Ca1 O6 2.349529 1_555
Ca1 O13 2.349529 1_555
Ca1 O27 2.440793 1_655
Ca1 O8 2.440793 1_655
Ca1 O2 2.511660 1_655
Ca1 O26 2.511660 1_655
Ca1 O20 2.711777 1_555
Ca1 O15 2.894947 1_555
Ca2 O17 2.349529 1_555
Ca2 O23 2.349529 1_555
Ca2 O9 2.440793 1_455
Ca2 O25 2.440793 1_455
Ca2 O18 2.511660 1_455
Ca2 O7 2.511660 1_455
Ca2 O4 2.711777 1_555
Ca2 O19 2.894947 1_555
Ca3 O16 2.349529 1_555
Ca3 O12 2.349529 1_555
Ca3 O22 2.440793 1_555
Ca3 O10 2.440793 1_555
Ca3 O21 2.511660 1_555
Ca3 O0 2.511660 1_555
Ca3 O19 2.711777 1_545
Ca3 O4 2.894947 1_555
Bi0 O20 2.130985 1_455
Bi0 O5 2.247707 1_555
Bi0 O11 2.272737 1_555
Bi0 O3 2.545264 1_455
Bi0 O26 2.744910 1_555
Bi1 O19 2.130985 1_555
Bi1 O18 2.247707 1_555
Bi1 O25 2.272737 1_555
Bi1 O17 2.545264 1_555
Bi1 O0 2.744910 1_565
Bi2 O4 2.130985 1_655
Bi2 O0 2.247707 1_555
Bi2 O22 2.272737 1_555
Bi2 O16 2.545264 1_655
Bi2 O18 2.744910 1_555
Bi3 O15 2.130985 1_555
Bi3 O2 2.247707 1_555
Bi3 O8 2.272737 1_555
Bi3 O6 2.545264 1_555
Bi3 O1 2.744910 1_545
Bi4 O19 2.130985 1_555
Bi4 O7 2.247707 1_555
Bi4 O9 2.272737 1_555
Bi4 O23 2.545264 1_555
Bi4 O21 2.744910 1_565
Bi5 O20 2.130985 1_455
Bi5 O1 2.247707 1_555
Bi5 O14 2.272737 1_555
Bi5 O24 2.545264 1_455
Bi5 O2 2.744910 1_555
Bi6 O15 2.130985 1_555
Bi6 O26 2.247707 1_555
Bi6 O27 2.272737 1_555
Bi6 O13 2.545264 1_555
Bi6 O5 2.744910 1_545
Bi7 O4 2.130985 1_655
Bi7 O21 2.247707 1_555
Bi7 O10 2.272737 1_555
Bi7 O12 2.545264 1_655
Bi7 O7 2.744910 1_555
B0 O13 1.371790 1_555
B0 O11 1.375282 1_555
B0 O26 1.412159 1_555
B1 O23 1.371790 1_555
B1 O10 1.375282 1_555
B1 O7 1.412159 1_555
B2 O3 1.371790 1_455
B2 O27 1.375282 1_565
B2 O5 1.412159 1_555
B3 O17 1.371790 1_555
B3 O22 1.375282 1_555
B3 O18 1.412159 1_555
B4 O6 1.371790 1_555
B4 O14 1.375282 1_555
B4 O2 1.412159 1_555
B5 O24 1.371790 1_455
B5 O8 1.375282 1_565
B5 O1 1.412159 1_555
B6 O12 1.371790 1_655
B6 O9 1.375282 1_545
B6 O21 1.412159 1_555
B7 O16 1.371790 1_655
B7 O25 1.375282 1_545
B7 O0 1.412159 1_555
