# generated using pymatgen
data_CuAu
_symmetry_space_group_name_H-M   'P 1'
_cell_length_a   20.43527899
_cell_length_b   20.43527899
_cell_length_c   20.43527899
_cell_angle_alpha   169.71634798
_cell_angle_beta   168.63658328
_cell_angle_gamma   15.34861145
_symmetry_Int_Tables_number   1
_chemical_formula_structural   CuAu
_chemical_formula_sum   'Cu10 Au10'
_cell_volume   300.15821006
_cell_formula_units_Z   10
loop_
 _symmetry_equiv_pos_site_id
 _symmetry_equiv_pos_as_xyz
  1  'x, y, z'
loop_
 _atom_site_type_symbol
 _atom_site_label
 _atom_site_symmetry_multiplicity
 _atom_site_fract_x
 _atom_site_fract_y
 _atom_site_fract_z
 _atom_site_occupancy
  Cu  Cu0  1  0.97693000  0.22693000  0.75000000  1
  Cu  Cu1  1  0.87483200  0.12483200  0.75000000  1
  Cu  Cu2  1  0.42488500  0.17488500  0.25000000  1
  Cu  Cu3  1  0.67551500  0.92551500  0.75000000  1
  Cu  Cu4  1  0.77509400  0.02509400  0.75000000  1
  Cu  Cu5  1  0.02307000  0.77307000  0.25000000  1
  Cu  Cu6  1  0.12516800  0.87516800  0.25000000  1
  Cu  Cu7  1  0.57511500  0.82511500  0.75000000  1
  Cu  Cu8  1  0.32448500  0.07448500  0.25000000  1
  Cu  Cu9  1  0.22490600  0.97490600  0.25000000  1
  Au  Au0  1  0.52668500  0.27668500  0.25000000  1
  Au  Au1  1  0.92456800  0.67456800  0.25000000  1
  Au  Au2  1  0.62586100  0.37586100  0.25000000  1
  Au  Au3  1  0.37413900  0.62413900  0.75000000  1
  Au  Au4  1  0.72539400  0.47539400  0.25000000  1
  Au  Au5  1  0.27460600  0.52460600  0.75000000  1
  Au  Au6  1  0.07543200  0.32543200  0.75000000  1
  Au  Au7  1  0.82479500  0.57479500  0.25000000  1
  Au  Au8  1  0.17520500  0.42520500  0.75000000  1
  Au  Au9  1  0.47331500  0.72331500  0.75000000  1
loop_
_geom_bond_atom_site_label_1
_geom_bond_atom_site_label_2
_geom_bond_distance
_geom_bond_site_symmetry_2
Cu0 Cu5 2.616652 1_645
Cu0 Cu5 2.616652 1_656
Cu0 Cu2 2.921810 1_656
Cu0 Cu2 2.921810 1_555
Cu5 Cu7 2.921810 1_555
Cu5 Cu7 2.921810 1_454
Au0 Cu7 2.683685 1_544
Au0 Cu7 2.683685 1_555
Au0 Cu5 2.732889 1_645
Au0 Cu5 2.732889 1_555
Au0 Cu5 2.732889 1_544
Au0 Cu5 2.732889 1_656
Au0 Au6 2.826945 1_655
Au0 Au6 2.826945 1_554
Au0 Au9 2.833235 1_555
Au0 Au9 2.833235 1_544
Au0 Cu0 2.855611 1_454
Au0 Cu0 2.855611 1_555
Au1 Cu1 2.722591 1_554
Au1 Cu1 2.722591 1_565
Au1 Cu2 2.728993 1_565
Au1 Cu2 2.728993 1_554
Au1 Cu2 2.728993 1_666
Au1 Cu2 2.728993 1_655
Au1 Cu0 2.802207 1_554
Au1 Cu0 2.802207 1_565
Au1 Au9 2.826945 1_554
Au1 Au9 2.826945 1_655
Au2 Cu3 2.720134 1_544
Au2 Cu3 2.720134 1_555
Au2 Cu6 2.729108 1_555
Au2 Cu6 2.729108 1_645
Au2 Cu6 2.729108 1_656
Au2 Cu6 2.729108 1_544
Au2 Cu7 2.752999 1_555
Au2 Cu7 2.752999 1_544
Au3 Cu8 2.720134 1_555
Au3 Cu8 2.720134 1_566
Au3 Cu1 2.729108 1_555
Au3 Cu1 2.729108 1_566
Au3 Cu1 2.729108 1_454
Au3 Cu1 2.729108 1_465
Au3 Cu2 2.752999 1_555
Au3 Cu2 2.752999 1_566
Au4 Cu4 2.721512 1_565
Au4 Cu4 2.721512 1_554
Au4 Cu3 2.726879 1_555
Au4 Cu3 2.726879 1_544
Au4 Cu9 2.729035 1_555
Au4 Cu9 2.729035 1_544
Au4 Cu9 2.729035 1_656
Au4 Cu9 2.729035 1_645
Au5 Cu9 2.721512 1_556
Au5 Cu9 2.721512 1_545
Au5 Cu8 2.726879 1_566
Au5 Cu8 2.726879 1_555
Au5 Cu4 2.729035 1_465
Au5 Cu4 2.729035 1_454
Au5 Cu4 2.729035 1_566
Au5 Cu4 2.729035 1_555
Au6 Cu6 2.722591 1_545
Au6 Cu6 2.722591 1_556
Au6 Cu7 2.728993 1_545
Au6 Cu7 2.728993 1_455
Au6 Cu7 2.728993 1_556
Au6 Cu7 2.728993 1_444
Au6 Cu5 2.802207 1_556
Au6 Cu5 2.802207 1_545
Au7 Cu4 2.721542 1_565
Au7 Cu4 2.721542 1_554
Au7 Cu8 2.728992 1_655
Au7 Cu8 2.728992 1_666
Au7 Cu8 2.728992 1_554
Au7 Cu8 2.728992 1_565
Au7 Cu1 2.731624 1_554
Au7 Cu1 2.731624 1_565
Au8 Cu9 2.721542 1_556
Au8 Cu9 2.721542 1_545
Au8 Cu3 2.728992 1_444
Au8 Cu3 2.728992 1_455
Au8 Cu3 2.728992 1_545
Au8 Cu3 2.728992 1_556
Au8 Cu6 2.731624 1_556
Au8 Cu6 2.731624 1_545
Au9 Cu2 2.683685 1_555
Au9 Cu2 2.683685 1_566
Au9 Cu0 2.732889 1_555
Au9 Cu0 2.732889 1_566
Au9 Cu0 2.732889 1_454
Au9 Cu0 2.732889 1_465
Au9 Cu5 2.855611 1_656
Au9 Cu5 2.855611 1_555
