# generated using pymatgen
data_SClO2F
_symmetry_space_group_name_H-M   'P 1'
_cell_length_a   7.97947800
_cell_length_b   9.34627000
_cell_length_c   11.19383300
_cell_angle_alpha   90.00000000
_cell_angle_beta   90.00000000
_cell_angle_gamma   90.00000000
_symmetry_Int_Tables_number   1
_chemical_formula_structural   SClO2F
_chemical_formula_sum   'S8 Cl8 O16 F8'
_cell_volume   834.81766077
_cell_formula_units_Z   8
loop_
 _symmetry_equiv_pos_site_id
 _symmetry_equiv_pos_as_xyz
  1  'x, y, z'
loop_
 _atom_site_type_symbol
 _atom_site_label
 _atom_site_symmetry_multiplicity
 _atom_site_fract_x
 _atom_site_fract_y
 _atom_site_fract_z
 _atom_site_occupancy
  S  S0  1  0.00578900  0.19179600  0.55379800  1
  S  S1  1  0.51591400  0.09986400  0.19559300  1
  S  S2  1  0.48408600  0.09986400  0.69559300  1
  S  S3  1  0.51591400  0.59986400  0.30440700  1
  S  S4  1  0.99421100  0.69179600  0.44620200  1
  S  S5  1  0.99421100  0.19179600  0.05379800  1
  S  S6  1  0.00578900  0.69179600  0.94620200  1
  S  S7  1  0.48408600  0.59986400  0.80440700  1
  Cl  Cl0  1  0.51289400  0.44261900  0.92402100  1
  Cl  Cl1  1  0.51289400  0.94261900  0.57597900  1
  Cl  Cl2  1  0.00494200  0.34622200  0.17747600  1
  Cl  Cl3  1  0.99505800  0.84622200  0.82252400  1
  Cl  Cl4  1  0.99505800  0.34622200  0.67747600  1
  Cl  Cl5  1  0.48710600  0.44261900  0.42402100  1
  Cl  Cl6  1  0.00494200  0.84622200  0.32252400  1
  Cl  Cl7  1  0.48710600  0.94261900  0.07597900  1
  O  O0  1  0.53783900  0.73186000  0.85558200  1
  O  O1  1  0.93975800  0.06242000  0.60221700  1
  O  O2  1  0.93975800  0.56242000  0.89778300  1
  O  O3  1  0.83807400  0.69859900  0.50771700  1
  O  O4  1  0.46216100  0.23186000  0.14441800  1
  O  O5  1  0.16192600  0.19859900  0.49228300  1
  O  O6  1  0.06024200  0.06242000  0.10221700  1
  O  O7  1  0.53783900  0.23186000  0.64441800  1
  O  O8  1  0.67220700  0.08353300  0.25560200  1
  O  O9  1  0.32779300  0.58353300  0.74439800  1
  O  O10  1  0.46216100  0.73186000  0.35558200  1
  O  O11  1  0.67220700  0.58353300  0.24439800  1
  O  O12  1  0.83807400  0.19859900  0.99228300  1
  O  O13  1  0.06024200  0.56242000  0.39778300  1
  O  O14  1  0.16192600  0.69859900  0.00771700  1
  O  O15  1  0.32779300  0.08353300  0.75560200  1
  F  F0  1  0.86769500  0.25271100  0.46502500  1
  F  F1  1  0.62557800  0.05312500  0.78739900  1
  F  F2  1  0.37442200  0.05312500  0.28739900  1
  F  F3  1  0.86769500  0.75271100  0.03497500  1
  F  F4  1  0.13230500  0.75271100  0.53497500  1
  F  F5  1  0.37442200  0.55312500  0.21260100  1
  F  F6  1  0.13230500  0.25271100  0.96502500  1
  F  F7  1  0.62557800  0.55312500  0.71260100  1
loop_
_geom_bond_atom_site_label_1
_geom_bond_atom_site_label_2
_geom_bond_distance
_geom_bond_site_symmetry_2
Cl0 S7 2.001370 1_555
Cl1 S2 2.001370 1_565
Cl2 S5 2.001778 1_455
Cl3 S6 2.001778 1_655
Cl4 S0 2.001778 1_655
Cl5 S3 2.001370 1_555
Cl6 S4 2.001778 1_455
Cl7 S1 2.001370 1_565
O0 S7 1.426207 1_555
O1 S0 1.426008 1_655
O2 S6 1.426008 1_655
O3 S4 1.424936 1_555
O4 S1 1.426207 1_555
O5 S0 1.424936 1_555
O6 S5 1.426008 1_455
O7 S2 1.426207 1_555
O8 S1 1.424735 1_555
O9 S7 1.424735 1_555
O10 S3 1.426207 1_555
O11 S3 1.424735 1_555
O12 S5 1.424936 1_556
O13 S4 1.426008 1_455
O14 S6 1.424936 1_554
O15 S2 1.424735 1_555
F0 S0 1.589282 1_655
F1 S2 1.587963 1_555
F2 S1 1.587963 1_555
F3 S6 1.589282 1_654
F4 S4 1.589282 1_455
F5 S3 1.587963 1_555
F6 S5 1.589282 1_456
F7 S7 1.587963 1_555
