# generated using pymatgen
data_Na2MnPO4F
_symmetry_space_group_name_H-M   'P 1'
_cell_length_a   5.39585200
_cell_length_b   13.83818200
_cell_length_c   13.93814186
_cell_angle_alpha   59.92473671
_cell_angle_beta   90.00000000
_cell_angle_gamma   90.00000000
_symmetry_Int_Tables_number   1
_chemical_formula_structural   Na2MnPO4F
_chemical_formula_sum   'Na16 Mn8 P8 O32 F8'
_cell_volume   900.62647460
_cell_formula_units_Z   8
loop_
 _symmetry_equiv_pos_site_id
 _symmetry_equiv_pos_as_xyz
  1  'x, y, z'
loop_
 _atom_site_type_symbol
 _atom_site_label
 _atom_site_symmetry_multiplicity
 _atom_site_fract_x
 _atom_site_fract_y
 _atom_site_fract_z
 _atom_site_occupancy
  Na  Na0  1  0.23594100  0.92058900  0.66651300  1
  Na  Na1  1  0.23586500  0.16454600  0.17196900  1
  Na  Na2  1  0.75944300  0.33467200  0.33624300  1
  Na  Na3  1  0.26413500  0.16454600  0.67196900  1
  Na  Na4  1  0.73594100  0.07941100  0.83348700  1
  Na  Na5  1  0.25944300  0.66532800  0.16375700  1
  Na  Na6  1  0.23912600  0.42020600  0.91256400  1
  Na  Na7  1  0.26087400  0.42020600  0.41256400  1
  Na  Na8  1  0.73912600  0.57979400  0.58743600  1
  Na  Na9  1  0.24055700  0.66532800  0.66375700  1
  Na  Na10  1  0.76405900  0.07941100  0.33348700  1
  Na  Na11  1  0.76087400  0.57979400  0.08743600  1
  Na  Na12  1  0.76413500  0.83545400  0.82803100  1
  Na  Na13  1  0.73586500  0.83545400  0.32803100  1
  Na  Na14  1  0.74055700  0.33467200  0.83624300  1
  Na  Na15  1  0.26405900  0.92058900  0.16651300  1
  Mn  Mn0  1  0.22765600  0.42292600  0.17604600  1
  Mn  Mn1  1  0.77055500  0.07721700  0.59913200  1
  Mn  Mn2  1  0.72944500  0.07721700  0.09913200  1
  Mn  Mn3  1  0.27234400  0.42292600  0.67604600  1
  Mn  Mn4  1  0.22944500  0.92278300  0.40086800  1
  Mn  Mn5  1  0.72765600  0.57707400  0.32395400  1
  Mn  Mn6  1  0.77234400  0.57707400  0.82395400  1
  Mn  Mn7  1  0.27055500  0.92278300  0.90086800  1
  P  P0  1  0.78510500  0.33788000  0.58434000  1
  P  P1  1  0.78150600  0.83788900  0.07679400  1
  P  P2  1  0.71849400  0.83788900  0.57679400  1
  P  P3  1  0.21489500  0.66212000  0.41566000  1
  P  P4  1  0.21849400  0.16211100  0.92320600  1
  P  P5  1  0.28510500  0.66212000  0.91566000  1
  P  P6  1  0.28150600  0.16211100  0.42320600  1
  P  P7  1  0.71489500  0.33788000  0.08434000  1
  O  O0  1  0.06919300  0.85044100  0.05673500  1
  O  O1  1  0.64732200  0.38606600  0.64893000  1
  O  O2  1  0.28931700  0.59686000  0.54013200  1
  O  O3  1  0.28327100  0.78758700  0.36523100  1
  O  O4  1  0.85267800  0.38606600  0.14893000  1
  O  O5  1  0.69959900  0.90387100  0.13463200  1
  O  O6  1  0.42761900  0.34825400  0.09537800  1
  O  O7  1  0.92761900  0.65174600  0.40462200  1
  O  O8  1  0.43080700  0.85044100  0.55673500  1
  O  O9  1  0.71068300  0.40314000  0.45986800  1
  O  O10  1  0.14732200  0.61393400  0.85107000  1
  O  O11  1  0.85374200  0.88348100  0.46377100  1
  O  O12  1  0.80040100  0.90387100  0.63463200  1
  O  O13  1  0.19959900  0.09612900  0.36536800  1
  O  O14  1  0.71701200  0.71216000  0.15165300  1
  O  O15  1  0.57238100  0.65174600  0.90462200  1
  O  O16  1  0.14625800  0.11651900  0.53622900  1
  O  O17  1  0.35374200  0.11651900  0.03622900  1
  O  O18  1  0.07238100  0.34825400  0.59537800  1
  O  O19  1  0.93080700  0.14955900  0.94326500  1
  O  O20  1  0.35267800  0.61393400  0.35107000  1
  O  O21  1  0.78931700  0.40314000  0.95986800  1
  O  O22  1  0.78327100  0.21241300  0.13476900  1
  O  O23  1  0.21701200  0.28784000  0.34834700  1
  O  O24  1  0.28298800  0.28784000  0.84834700  1
  O  O25  1  0.71672900  0.21241300  0.63476900  1
  O  O26  1  0.30040100  0.09612900  0.86536800  1
  O  O27  1  0.78298800  0.71216000  0.65165300  1
  O  O28  1  0.21068300  0.59686000  0.04013200  1
  O  O29  1  0.21672900  0.78758700  0.86523100  1
  O  O30  1  0.56919300  0.14955900  0.44326500  1
  O  O31  1  0.64625800  0.88348100  0.96377100  1
  F  F0  1  0.49974900  0.50852800  0.75912400  1
  F  F1  1  0.99828100  0.99927800  0.23588300  1
  F  F2  1  0.49828100  0.00072200  0.26411700  1
  F  F3  1  0.99974900  0.49147200  0.74087600  1
  F  F4  1  0.00171900  0.00072200  0.76411700  1
  F  F5  1  0.00025100  0.50852800  0.25912400  1
  F  F6  1  0.50025100  0.49147200  0.24087600  1
  F  F7  1  0.50171900  0.99927800  0.73588300  1
loop_
_geom_bond_atom_site_label_1
_geom_bond_atom_site_label_2
_geom_bond_distance
_geom_bond_site_symmetry_2
Na0 O12 2.424258 1_455
Na0 O8 2.424412 1_555
Na0 O16 2.438901 1_565
Na0 O29 2.441398 1_555
Na1 O13 2.375523 1_555
Na1 O17 2.384545 1_555
Na1 O6 2.439845 1_555
Na1 O22 2.515427 1_455
Na2 O9 2.360575 1_555
Na2 O4 2.390424 1_555
Na2 O30 2.451745 1_555
Na2 O23 2.536673 1_655
Na3 O26 2.375523 1_555
Na3 O16 2.384545 1_555
Na3 O18 2.439845 1_555
Na3 O25 2.515427 1_555
Na4 O26 2.424258 1_555
Na4 O19 2.424412 1_555
Na4 O31 2.438901 1_545
Na4 O25 2.441398 1_555
Na5 O28 2.360575 1_555
Na5 O20 2.390424 1_555
Na5 O0 2.451745 1_555
Na5 O14 2.536673 1_555
Na6 O24 2.419819 1_555
Na6 O10 2.421556 1_555
Na6 O6 2.444530 1_556
Na6 O21 2.495046 1_455
Na7 O23 2.419819 1_555
Na7 O20 2.421556 1_555
Na7 O18 2.444530 1_555
Na7 O9 2.495046 1_555
Na8 O27 2.419819 1_555
Na8 O1 2.421556 1_555
Na8 O7 2.444530 1_555
Na8 O2 2.495046 1_555
Na9 O2 2.360575 1_555
Na9 O10 2.390424 1_555
Na9 O8 2.451745 1_555
Na9 O27 2.536673 1_455
Na10 O13 2.424258 1_655
Na10 O30 2.424412 1_555
Na10 O11 2.438901 1_545
Na10 O22 2.441398 1_555
Na11 O14 2.419819 1_555
Na11 O4 2.421556 1_555
Na11 O15 2.444530 1_554
Na11 O28 2.495046 1_655
Na12 O12 2.375523 1_555
Na12 O31 2.384545 1_555
Na12 O15 2.439845 1_555
Na12 O29 2.515427 1_655
Na13 O5 2.375523 1_555
Na13 O11 2.384545 1_555
Na13 O7 2.439845 1_555
Na13 O3 2.515427 1_555
Na14 O21 2.360575 1_555
Na14 O1 2.390424 1_555
Na14 O19 2.451745 1_555
Na14 O24 2.536673 1_555
Na15 O5 2.424258 1_555
Na15 O0 2.424412 1_555
Na15 O17 2.438901 1_565
Na15 O3 2.441398 1_555
Mn0 O6 2.158843 1_555
Mn0 O4 2.165661 1_455
Mn0 O23 2.183042 1_555
Mn0 O28 2.195536 1_555
Mn1 O16 2.167085 1_655
Mn1 O30 2.173163 1_555
Mn1 O25 2.182343 1_555
Mn1 O12 2.198942 1_545
Mn2 O17 2.167085 1_555
Mn2 O19 2.173163 1_554
Mn2 O22 2.182343 1_555
Mn2 O5 2.198942 1_545
Mn3 O18 2.158843 1_555
Mn3 O1 2.165661 1_555
Mn3 O24 2.183042 1_555
Mn3 O2 2.195536 1_555
Mn4 O11 2.167085 1_455
Mn4 O8 2.173163 1_555
Mn4 O3 2.182343 1_555
Mn4 O13 2.198942 1_565
Mn5 O7 2.158843 1_555
Mn5 O20 2.165661 1_555
Mn5 O14 2.183042 1_555
Mn5 O9 2.195536 1_555
Mn6 O15 2.158843 1_555
Mn6 O10 2.165661 1_655
Mn6 O27 2.183042 1_555
Mn6 O21 2.195536 1_555
Mn7 O31 2.167085 1_555
Mn7 O0 2.173163 1_556
Mn7 O29 2.182343 1_555
Mn7 O26 2.198942 1_565
O0 P1 1.571417 1_455
O1 P0 1.552257 1_555
O2 P3 1.554476 1_555
O3 P3 1.556127 1_555
O4 P7 1.552257 1_555
O5 P1 1.554561 1_555
O6 P7 1.571375 1_555
O7 P3 1.571375 1_655
O8 P2 1.571417 1_555
O9 P0 1.554476 1_555
O10 P5 1.552257 1_555
O11 P2 1.554393 1_555
O12 P2 1.554561 1_555
O13 P6 1.554561 1_555
O14 P1 1.554800 1_555
O15 P5 1.571375 1_555
O16 P6 1.554393 1_555
O17 P4 1.554393 1_554
O18 P0 1.571375 1_455
O19 P4 1.571417 1_655
O20 P3 1.552257 1_555
O21 P7 1.554476 1_556
O22 P7 1.556127 1_555
O23 P6 1.554800 1_555
O24 P4 1.554800 1_555
O25 P0 1.556127 1_555
O26 P4 1.554561 1_555
O27 P2 1.554800 1_555
O28 P5 1.554476 1_554
O29 P5 1.556127 1_555
O30 P6 1.571417 1_555
O31 P1 1.554393 1_556
F0 Mn6 2.176885 1_555
F0 Na6 2.329268 1_555
F0 Na9 2.353768 1_555
F0 Mn3 2.371606 1_555
F0 Na8 2.449915 1_555
F0 Na14 2.457630 1_555
F1 Mn2 2.200022 1_565
F1 Na15 2.287465 1_655
F1 Mn4 2.350463 1_655
F1 Na1 2.371804 1_665
F1 Na13 2.423970 1_555
F1 Na10 2.487898 1_565
F2 Mn4 2.200022 1_545
F2 Na10 2.287465 1_555
F2 Mn2 2.350463 1_555
F2 Na13 2.371804 1_545
F2 Na1 2.423970 1_555
F2 Na15 2.487898 1_545
F3 Mn3 2.176885 1_655
F3 Na8 2.329268 1_555
F3 Na14 2.353768 1_555
F3 Mn6 2.371606 1_555
F3 Na6 2.449915 1_655
F3 Na9 2.457630 1_655
F4 Mn7 2.200022 1_545
F4 Na4 2.287465 1_455
F4 Mn1 2.350463 1_455
F4 Na12 2.371804 1_445
F4 Na3 2.423970 1_555
F4 Na0 2.487898 1_545
F5 Mn5 2.176885 1_455
F5 Na7 2.329268 1_555
F5 Na5 2.353768 1_555
F5 Mn0 2.371606 1_555
F5 Na11 2.449915 1_455
F5 Na2 2.457630 1_455
F6 Mn0 2.176885 1_555
F6 Na11 2.329268 1_555
F6 Na2 2.353768 1_555
F6 Mn5 2.371606 1_555
F6 Na7 2.449915 1_555
F6 Na5 2.457630 1_555
F7 Mn1 2.200022 1_565
F7 Na0 2.287465 1_555
F7 Mn7 2.350463 1_555
F7 Na3 2.371804 1_565
F7 Na12 2.423970 1_555
F7 Na4 2.487898 1_565
