# generated using pymatgen
data_CsSi2SbO7
_symmetry_space_group_name_H-M   'P 1'
_cell_length_a   7.16473975
_cell_length_b   13.63755847
_cell_length_c   21.06560839
_cell_angle_alpha   90.00000000
_cell_angle_beta   90.00000000
_cell_angle_gamma   90.00000000
_symmetry_Int_Tables_number   1
_chemical_formula_structural   CsSi2SbO7
_chemical_formula_sum   'Cs12 Si24 Sb12 O84'
_cell_volume   2058.31126926
_cell_formula_units_Z   12
loop_
 _symmetry_equiv_pos_site_id
 _symmetry_equiv_pos_as_xyz
  1  'x, y, z'
loop_
 _atom_site_type_symbol
 _atom_site_label
 _atom_site_symmetry_multiplicity
 _atom_site_fract_x
 _atom_site_fract_y
 _atom_site_fract_z
 _atom_site_occupancy
  Cs  Cs0  1  0.22368937  0.84223446  0.83090658  1
  Cs  Cs1  1  0.22368937  0.65776554  0.33090658  1
  Cs  Cs2  1  0.21114914  0.86893458  0.16343916  1
  Cs  Cs3  1  0.71114914  0.36893458  0.33656084  1
  Cs  Cs4  1  0.22778849  0.85643172  0.50862550  1
  Cs  Cs5  1  0.72778849  0.35643172  0.99137450  1
  Cs  Cs6  1  0.72368937  0.34223446  0.66909342  1
  Cs  Cs7  1  0.72778849  0.14356828  0.49137450  1
  Cs  Cs8  1  0.21114914  0.63106542  0.66343916  1
  Cs  Cs9  1  0.22778849  0.64356828  0.00862550  1
  Cs  Cs10  1  0.71114914  0.13106542  0.83656084  1
  Cs  Cs11  1  0.72368937  0.15776554  0.16909342  1
  Si  Si0  1  0.70039422  0.63933770  0.73000620  1
  Si  Si1  1  0.22317710  0.38181253  0.92800033  1
  Si  Si2  1  0.22317710  0.11818747  0.42800033  1
  Si  Si3  1  0.72194810  0.84954765  0.42694773  1
  Si  Si4  1  0.75414055  0.65320194  0.58384211  1
  Si  Si5  1  0.75414055  0.84679806  0.08384211  1
  Si  Si6  1  0.69993307  0.86194756  0.75080837  1
  Si  Si7  1  0.75083258  0.62709209  0.40102632  1
  Si  Si8  1  0.22194810  0.15045235  0.57305227  1
  Si  Si9  1  0.22194810  0.34954765  0.07305227  1
  Si  Si10  1  0.25414055  0.15320194  0.91615789  1
  Si  Si11  1  0.25414055  0.34679806  0.41615789  1
  Si  Si12  1  0.72317710  0.61818747  0.07199967  1
  Si  Si13  1  0.19993307  0.36194756  0.74919163  1
  Si  Si14  1  0.19993307  0.13805244  0.24919163  1
  Si  Si15  1  0.75083258  0.87290791  0.90102632  1
  Si  Si16  1  0.25083258  0.12709209  0.09897368  1
  Si  Si17  1  0.20039422  0.13933770  0.76999380  1
  Si  Si18  1  0.70039422  0.86066230  0.23000620  1
  Si  Si19  1  0.25083258  0.37290791  0.59897368  1
  Si  Si20  1  0.72194810  0.65045235  0.92694773  1
  Si  Si21  1  0.69993307  0.63805244  0.25080837  1
  Si  Si22  1  0.20039422  0.36066230  0.26999380  1
  Si  Si23  1  0.72317710  0.88181253  0.57199967  1
  Sb  Sb0  1  0.99737463  0.49559461  0.49956046  1
  Sb  Sb1  1  0.46448864  0.01690922  0.66898515  1
  Sb  Sb2  1  0.99737463  0.00440539  0.99956046  1
  Sb  Sb3  1  0.46402757  0.98583568  0.33312635  1
  Sb  Sb4  1  0.96448864  0.51690922  0.83101485  1
  Sb  Sb5  1  0.96402757  0.48583568  0.16687365  1
  Sb  Sb6  1  0.96448864  0.98309078  0.33101485  1
  Sb  Sb7  1  0.96402757  0.01416432  0.66687365  1
  Sb  Sb8  1  0.49737463  0.50440539  0.50043954  1
  Sb  Sb9  1  0.46448864  0.48309078  0.16898515  1
  Sb  Sb10  1  0.49737463  0.99559461  0.00043954  1
  Sb  Sb11  1  0.46402757  0.51416432  0.83312635  1
  O  O0  1  0.89841560  0.95497753  0.58336196  1
  O  O1  1  0.78380265  0.72952365  0.08678172  1
  O  O2  1  0.05873875  0.42760338  0.58047915  1
  O  O3  1  0.74469997  0.05378670  0.01026180  1
  O  O4  1  0.02576704  0.42973784  0.25092132  1
  O  O5  1  0.71615324  0.07535846  0.67283360  1
  O  O6  1  0.93949946  0.61341559  0.54938738  1
  O  O7  1  0.74469997  0.44621330  0.51026180  1
  O  O8  1  0.26372498  0.23356275  0.06538926  1
  O  O9  1  0.04177510  0.40786126  0.88650493  1
  O  O10  1  0.28380265  0.22952365  0.41321828  1
  O  O11  1  0.75524181  0.88715190  0.15695925  1
  O  O12  1  0.04915010  0.13429991  0.62138988  1
  O  O13  1  0.88233162  0.87513995  0.27438130  1
  O  O14  1  0.62991425  0.75259820  0.73164244  1
  O  O15  1  0.54177510  0.90786126  0.61349507  1
  O  O16  1  0.55952012  0.62430177  0.54978847  1
  O  O17  1  0.12991425  0.25259820  0.76835756  1
  O  O18  1  0.93151834  0.56200635  0.41893479  1
  O  O19  1  0.54177510  0.59213874  0.11349507  1
  O  O20  1  0.25524181  0.38715190  0.34304075  1
  O  O21  1  0.39841560  0.04502247  0.41663804  1
  O  O22  1  0.21483630  0.95703990  0.66265187  1
  O  O23  1  0.21483630  0.54296010  0.16265187  1
  O  O24  1  0.26372498  0.26643725  0.56538926  1
  O  O25  1  0.43151834  0.06200635  0.08106521  1
  O  O26  1  0.91532400  0.59773556  0.90680131  1
  O  O27  1  0.37992562  0.10771855  0.29062039  1
  O  O28  1  0.76372498  0.76643725  0.93461074  1
  O  O29  1  0.16411874  0.39010589  0.00274011  1
  O  O30  1  0.38233162  0.12486005  0.72561870  1
  O  O31  1  0.76372498  0.73356275  0.43461074  1
  O  O32  1  0.28380265  0.27047635  0.91321828  1
  O  O33  1  0.39841560  0.45497753  0.91663804  1
  O  O34  1  0.87992562  0.89228145  0.70937961  1
  O  O35  1  0.66411874  0.89010589  0.49725989  1
  O  O36  1  0.54915010  0.86570009  0.37861012  1
  O  O37  1  0.75972605  0.85789187  0.82499953  1
  O  O38  1  0.55952012  0.87569823  0.04978847  1
  O  O39  1  0.43949946  0.11341559  0.95061262  1
  O  O40  1  0.24469997  0.94621330  0.98973820  1
  O  O41  1  0.37992562  0.39228145  0.79062039  1
  O  O42  1  0.52576704  0.57026216  0.74907868  1
  O  O43  1  0.12991425  0.24740180  0.26835756  1
  O  O44  1  0.55873875  0.57239662  0.41952085  1
  O  O45  1  0.21615324  0.57535846  0.82716640  1
  O  O46  1  0.05952012  0.12430177  0.95021153  1
  O  O47  1  0.24469997  0.55378670  0.48973820  1
  O  O48  1  0.02457280  0.43680724  0.75493803  1
  O  O49  1  0.71483630  0.45703990  0.83734813  1
  O  O50  1  0.04177510  0.09213874  0.38650493  1
  O  O51  1  0.41532400  0.40226444  0.09319869  1
  O  O52  1  0.04915010  0.36570009  0.12138988  1
  O  O53  1  0.87992562  0.60771855  0.20937961  1
  O  O54  1  0.43151834  0.43799365  0.58106521  1
  O  O55  1  0.02457280  0.06319276  0.25493803  1
  O  O56  1  0.25972605  0.35789187  0.67500047  1
  O  O57  1  0.52457280  0.93680724  0.74506197  1
  O  O58  1  0.25972605  0.14210813  0.17500047  1
  O  O59  1  0.75524181  0.61284810  0.65695925  1
  O  O60  1  0.88233162  0.62486005  0.77438130  1
  O  O61  1  0.21615324  0.92464154  0.32716640  1
  O  O62  1  0.05873875  0.07239662  0.08047915  1
  O  O63  1  0.71483630  0.04296010  0.33734813  1
  O  O64  1  0.62991425  0.74740180  0.23164244  1
  O  O65  1  0.93151834  0.93799365  0.91893479  1
  O  O66  1  0.05952012  0.37569823  0.45021153  1
  O  O67  1  0.78380265  0.77047635  0.58678172  1
  O  O68  1  0.89841560  0.54502247  0.08336196  1
  O  O69  1  0.71615324  0.42464154  0.17283360  1
  O  O70  1  0.54915010  0.63429991  0.87861012  1
  O  O71  1  0.02576704  0.07026216  0.75092132  1
  O  O72  1  0.25524181  0.11284810  0.84304075  1
  O  O73  1  0.66411874  0.60989411  0.99725989  1
  O  O74  1  0.52457280  0.56319276  0.24506197  1
  O  O75  1  0.93949946  0.88658441  0.04938738  1
  O  O76  1  0.52576704  0.92973784  0.24907868  1
  O  O77  1  0.38233162  0.37513995  0.22561870  1
  O  O78  1  0.43949946  0.38658441  0.45061262  1
  O  O79  1  0.91532400  0.90226444  0.40680131  1
  O  O80  1  0.75972605  0.64210813  0.32499953  1
  O  O81  1  0.16411874  0.10989411  0.50274011  1
  O  O82  1  0.55873875  0.92760338  0.91952085  1
  O  O83  1  0.41532400  0.09773556  0.59319869  1
loop_
_geom_bond_atom_site_label_1
_geom_bond_atom_site_label_2
_geom_bond_distance
_geom_bond_site_symmetry_2
Cs0 O65 3.086444 1_455
Cs0 O57 3.095302 1_555
Cs0 O82 3.256169 1_555
Cs1 O18 3.086444 1_455
Cs1 O74 3.095302 1_555
Cs1 O44 3.256169 1_555
Cs2 O76 3.003896 1_555
Cs2 O75 3.101348 1_455
Cs3 O4 3.003896 1_655
Cs3 O78 3.101348 1_555
Cs4 O0 3.139070 1_455
Cs4 O79 3.162840 1_455
Cs4 O35 3.168801 1_555
Cs4 O15 3.230027 1_555
Cs4 O21 3.444448 1_565
Cs4 O81 3.488783 1_565
Cs4 O22 3.524052 1_555
Cs4 O36 3.580317 1_555
Cs4 O67 3.768793 1_455
Cs5 O33 3.139070 1_555
Cs5 O51 3.162840 1_556
Cs5 O29 3.168801 1_656
Cs5 O9 3.230027 1_655
Cs5 O68 3.444448 1_556
Cs5 O73 3.488783 1_555
Cs5 O49 3.524052 1_555
Cs5 O52 3.580317 1_656
Cs5 O32 3.768793 1_555
Cs6 O54 3.086444 1_555
Cs6 O48 3.095302 1_655
Cs6 O2 3.256169 1_655
Cs7 O21 3.139070 1_555
Cs7 O83 3.162840 1_555
Cs7 O81 3.168801 1_655
Cs7 O50 3.230027 1_655
Cs7 O0 3.444448 1_545
Cs7 O35 3.488783 1_545
Cs7 O63 3.524052 1_555
Cs7 O12 3.580317 1_655
Cs7 O10 3.768793 1_555
Cs8 O42 3.003896 1_555
Cs8 O6 3.101348 1_455
Cs9 O68 3.139070 1_455
Cs9 O26 3.162840 1_454
Cs9 O73 3.168801 1_554
Cs9 O19 3.230027 1_555
Cs9 O33 3.444448 1_554
Cs9 O29 3.488783 1_555
Cs9 O23 3.524052 1_555
Cs9 O70 3.580317 1_554
Cs9 O1 3.768793 1_455
Cs10 O71 3.003896 1_655
Cs10 O39 3.101348 1_555
Cs11 O25 3.086444 1_555
Cs11 O55 3.095302 1_655
Cs11 O62 3.256169 1_655
O0 Si23 1.621498 1_555
O0 Sb7 1.991826 1_565
O1 Si12 1.609670 1_555
O1 Si5 1.614583 1_555
O2 Si19 1.613190 1_555
O2 Sb0 1.989655 1_455
O3 Sb2 1.944660 1_554
O3 Sb10 1.952606 1_545
O4 Si22 1.616856 1_555
O4 Sb5 1.978807 1_455
O5 Sb7 1.966274 1_555
O5 Sb1 1.973109 1_555
O6 Si4 1.607767 1_555
O6 Sb0 1.963530 1_555
O7 Sb0 1.944660 1_555
O7 Sb8 1.952606 1_555
O8 Si16 1.617825 1_555
O8 Si9 1.617896 1_555
O9 Si1 1.606085 1_555
O9 Sb4 1.970948 1_455
O10 Si2 1.609670 1_555
O10 Si11 1.614583 1_555
O11 Si18 1.628732 1_555
O11 Si5 1.635639 1_555
O12 Si8 1.618071 1_555
O12 Sb7 1.993541 1_455
O13 Si18 1.616172 1_555
O13 Sb6 1.984217 1_555
O14 Si6 1.624355 1_555
O14 Si0 1.625411 1_555
O15 Si23 1.606085 1_555
O15 Sb1 1.970948 1_565
O16 Si4 1.616882 1_555
O16 Sb8 1.988085 1_555
O17 Si13 1.624355 1_555
O17 Si17 1.625411 1_555
O18 Si7 1.614334 1_555
O18 Sb0 1.981812 1_555
O19 Si12 1.606085 1_555
O19 Sb9 1.970948 1_555
O20 Si22 1.628732 1_555
O20 Si11 1.635639 1_555
O21 Si2 1.621498 1_555
O21 Sb3 1.991826 1_545
O22 Sb7 1.960598 1_465
O22 Sb1 1.970749 1_565
O23 Sb5 1.960598 1_455
O23 Sb9 1.970749 1_555
O24 Si19 1.617825 1_555
O24 Si8 1.617896 1_555
O25 Si16 1.614334 1_555
O25 Sb10 1.981812 1_545
O26 Si20 1.617575 1_555
O26 Sb4 1.971766 1_555
O27 Si14 1.611162 1_555
O27 Sb3 1.981846 1_545
O28 Si15 1.617825 1_555
O28 Si20 1.617896 1_555
O29 Si1 1.634226 1_554
O29 Si9 1.634463 1_555
O30 Si17 1.616172 1_555
O30 Sb1 1.984217 1_555
O31 Si7 1.617825 1_555
O31 Si3 1.617896 1_555
O32 Si1 1.609670 1_555
O32 Si10 1.614583 1_555
O33 Si1 1.621498 1_555
O33 Sb11 1.991826 1_555
O34 Si6 1.611162 1_555
O34 Sb7 1.981846 1_565
O35 Si23 1.634226 1_555
O35 Si3 1.634463 1_555
O36 Si3 1.618071 1_555
O36 Sb3 1.993541 1_555
O37 Si15 1.615847 1_555
O37 Si6 1.621477 1_555
O38 Si5 1.616882 1_555
O38 Sb10 1.988085 1_555
O39 Si10 1.607767 1_555
O39 Sb10 1.963530 1_546
O40 Sb10 1.944660 1_556
O40 Sb2 1.952606 1_465
O41 Si13 1.611162 1_555
O41 Sb11 1.981846 1_555
O42 Si0 1.616856 1_555
O42 Sb11 1.978807 1_555
O43 Si14 1.624355 1_555
O43 Si22 1.625411 1_555
O44 Si7 1.613190 1_555
O44 Sb8 1.989655 1_555
O45 Sb11 1.966274 1_555
O45 Sb4 1.973109 1_455
O46 Si10 1.616882 1_555
O46 Sb2 1.988085 1_455
O47 Sb8 1.944660 1_555
O47 Sb0 1.952606 1_455
O48 Si13 1.623411 1_555
O48 Sb4 1.986703 1_455
O49 Sb11 1.960598 1_555
O49 Sb4 1.970749 1_555
O50 Si2 1.606085 1_555
O50 Sb6 1.970948 1_445
O51 Si9 1.617575 1_555
O51 Sb9 1.971766 1_555
O52 Si9 1.618071 1_555
O52 Sb5 1.993541 1_455
O53 Si21 1.611162 1_555
O53 Sb5 1.981846 1_555
O54 Si19 1.614334 1_555
O54 Sb8 1.981812 1_555
O55 Si14 1.623411 1_555
O55 Sb6 1.986703 1_445
O56 Si19 1.615847 1_555
O56 Si13 1.621477 1_555
O57 Si6 1.623411 1_555
O57 Sb1 1.986703 1_565
O58 Si16 1.615847 1_555
O58 Si14 1.621477 1_555
O59 Si0 1.628732 1_555
O59 Si4 1.635639 1_555
O60 Si0 1.616172 1_555
O60 Sb4 1.984217 1_555
O61 Sb3 1.966274 1_555
O61 Sb6 1.973109 1_455
O62 Si16 1.613190 1_555
O62 Sb2 1.989655 1_454
O63 Sb3 1.960598 1_545
O63 Sb6 1.970749 1_545
O64 Si21 1.624355 1_555
O64 Si18 1.625411 1_555
O65 Si15 1.614334 1_555
O65 Sb2 1.981812 1_565
O66 Si11 1.616882 1_555
O66 Sb0 1.988085 1_455
O67 Si23 1.609670 1_555
O67 Si4 1.614583 1_555
O68 Si12 1.621498 1_555
O68 Sb5 1.991826 1_555
O69 Sb5 1.966274 1_555
O69 Sb9 1.973109 1_555
O70 Si20 1.618071 1_555
O70 Sb11 1.993541 1_555
O71 Si17 1.616856 1_555
O71 Sb7 1.978807 1_455
O72 Si17 1.628732 1_555
O72 Si10 1.635639 1_555
O73 Si12 1.634226 1_556
O73 Si20 1.634463 1_555
O74 Si21 1.623411 1_555
O74 Sb9 1.986703 1_555
O75 Si5 1.607767 1_555
O75 Sb2 1.963530 1_564
O76 Si18 1.616856 1_555
O76 Sb3 1.978807 1_555
O77 Si22 1.616172 1_555
O77 Sb9 1.984217 1_555
O78 Si11 1.607767 1_555
O78 Sb8 1.963530 1_555
O79 Si3 1.617575 1_555
O79 Sb6 1.971766 1_555
O80 Si7 1.615847 1_555
O80 Si21 1.621477 1_555
O81 Si2 1.634226 1_555
O81 Si8 1.634463 1_555
O82 Si15 1.613190 1_555
O82 Sb10 1.989655 1_556
O83 Si8 1.617575 1_555
O83 Sb1 1.971766 1_555
