# generated using pymatgen
data_Ga8Cu3W2
_symmetry_space_group_name_H-M   'P 1'
_cell_length_a   10.31615892
_cell_length_b   10.31615892
_cell_length_c   10.31615892
_cell_angle_alpha   109.47122063
_cell_angle_beta   109.47122063
_cell_angle_gamma   109.47122063
_symmetry_Int_Tables_number   1
_chemical_formula_structural   Ga8Cu3W2
_chemical_formula_sum   'Ga32 Cu12 W8'
_cell_volume   845.14685713
_cell_formula_units_Z   4
loop_
 _symmetry_equiv_pos_site_id
 _symmetry_equiv_pos_as_xyz
  1  'x, y, z'
loop_
 _atom_site_type_symbol
 _atom_site_label
 _atom_site_symmetry_multiplicity
 _atom_site_fract_x
 _atom_site_fract_y
 _atom_site_fract_z
 _atom_site_occupancy
  Ga  Ga0  1  -0.00000000  0.20871604  0.50000000  1
  Ga  Ga1  1  0.01264421  0.00008686  0.76869263  1
  Ga  Ga2  1  0.24395157  0.73130737  0.73139422  1
  Ga  Ga3  1  0.73139422  0.24395157  0.73130737  1
  Ga  Ga4  1  0.48744265  0.75604843  0.98735579  1
  Ga  Ga5  1  0.23139422  0.23130737  0.74395157  1
  Ga  Ga6  1  0.98744265  0.48735579  0.25604843  1
  Ga  Ga7  1  0.74395157  0.23139422  0.23130737  1
  Ga  Ga8  1  0.50000000  0.00000000  0.70871604  1
  Ga  Ga9  1  0.98735579  0.48744265  0.75604843  1
  Ga  Ga10  1  0.70871604  0.50000000  -0.00000000  1
  Ga  Ga11  1  0.49991314  0.51255735  0.76860578  1
  Ga  Ga12  1  0.99991314  0.26860578  0.01255735  1
  Ga  Ga13  1  0.51255735  0.76860578  0.49991314  1
  Ga  Ga14  1  0.00008686  0.76869263  0.01264421  1
  Ga  Ga15  1  0.48735579  0.25604843  0.98744265  1
  Ga  Ga16  1  0.01255735  0.99991314  0.26860578  1
  Ga  Ga17  1  0.51264421  0.26869263  0.50008686  1
  Ga  Ga18  1  0.23130737  0.74395157  0.23139422  1
  Ga  Ga19  1  0.73130737  0.73139422  0.24395157  1
  Ga  Ga20  1  0.76860578  0.49991314  0.51255735  1
  Ga  Ga21  1  -0.00000000  0.70871604  0.50000000  1
  Ga  Ga22  1  0.76869263  0.01264421  0.00008686  1
  Ga  Ga23  1  0.26869263  0.50008686  0.51264421  1
  Ga  Ga24  1  0.29128396  0.29128396  0.29128396  1
  Ga  Ga25  1  0.79128396  0.79128396  0.79128396  1
  Ga  Ga26  1  0.26860578  0.01255735  0.99991314  1
  Ga  Ga27  1  0.50000000  0.00000000  0.20871604  1
  Ga  Ga28  1  0.25604843  0.98744265  0.48735579  1
  Ga  Ga29  1  0.75604843  0.98735579  0.48744265  1
  Ga  Ga30  1  0.20871604  0.50000000  -0.00000000  1
  Ga  Ga31  1  0.50008686  0.51264421  0.26869263  1
  Cu  Cu0  1  0.22929303  0.47929303  0.75000000  1
  Cu  Cu1  1  0.75000000  0.52070697  0.77070697  1
  Cu  Cu2  1  0.25000000  0.97929303  0.72929303  1
  Cu  Cu3  1  0.75000000  0.22929303  0.47929303  1
  Cu  Cu4  1  0.97929303  0.72929303  0.25000000  1
  Cu  Cu5  1  0.47929303  0.75000000  0.22929303  1
  Cu  Cu6  1  0.77070697  0.75000000  0.52070697  1
  Cu  Cu7  1  0.02070697  0.25000000  0.27070697  1
  Cu  Cu8  1  0.72929303  0.25000000  0.97929303  1
  Cu  Cu9  1  0.52070697  0.77070697  0.75000000  1
  Cu  Cu10  1  0.25000000  0.27070697  0.02070697  1
  Cu  Cu11  1  0.27070697  0.02070697  0.25000000  1
  W  W0  1  0.50000000  -0.00000000  0.45714797  1
  W  W1  1  0.54285203  0.54285203  0.54285203  1
  W  W2  1  0.95714797  0.50000000  0.00000000  1
  W  W3  1  -0.00000000  0.95714797  0.50000000  1
  W  W4  1  0.45714797  0.50000000  -0.00000000  1
  W  W5  1  0.50000000  0.00000000  0.95714797  1
  W  W6  1  0.04285203  0.04285203  0.04285203  1
  W  W7  1  0.00000000  0.45714797  0.50000000  1
loop_
_geom_bond_atom_site_label_1
_geom_bond_atom_site_label_2
_geom_bond_distance
_geom_bond_site_symmetry_2
Ga0 W7 2.562863 1_555
Ga0 W3 2.595216 1_545
Ga0 Ga5 2.705396 1_555
Ga0 Ga16 2.705396 1_545
Ga0 Ga29 2.705396 1_445
Ga1 W6 2.603804 1_556
Ga1 W3 2.607375 1_545
Ga1 Ga25 2.705397 1_445
Ga2 W7 2.603804 1_555
Ga2 W5 2.607375 1_565
Ga2 Ga21 2.705396 1_555
Ga3 W0 2.603804 1_555
Ga3 W2 2.607375 1_556
Ga3 Ga8 2.705396 1_555
Ga4 W5 2.603804 1_565
Ga4 W4 2.607375 1_556
Ga5 W3 2.603804 1_545
Ga5 W4 2.607375 1_556
Ga6 W7 2.603804 1_655
Ga6 W2 2.607375 1_555
Ga7 W5 2.603804 1_554
Ga7 W7 2.607375 1_655
Ga8 W5 2.562863 1_555
Ga8 W0 2.595216 1_555
Ga9 W2 2.603804 1_556
Ga9 W7 2.607375 1_655
Ga10 W2 2.562863 1_555
Ga10 W4 2.595216 1_555
Ga10 Ga19 2.705396 1_555
Ga10 Ga11 2.705396 1_554
Ga10 Ga15 2.705396 1_554
Ga11 W4 2.603804 1_556
Ga11 W1 2.607375 1_555
Ga12 W2 2.603804 1_555
Ga12 W6 2.607375 1_655
Ga12 Ga30 2.705396 1_655
Ga13 W0 2.603804 1_565
Ga13 W1 2.607375 1_555
Ga13 Ga8 2.705396 1_565
Ga14 W6 2.603804 1_565
Ga14 W2 2.607375 1_455
Ga14 Ga25 2.705397 1_454
Ga15 W4 2.603804 1_556
Ga15 W5 2.607375 1_555
Ga16 W3 2.603804 1_555
Ga16 W6 2.607375 1_565
Ga17 W1 2.603804 1_555
Ga17 W0 2.607375 1_555
Ga17 Ga24 2.705397 1_555
Ga18 W2 2.603804 1_455
Ga18 W0 2.607375 1_565
Ga18 Ga30 2.705396 1_555
Ga19 W4 2.603804 1_555
Ga19 W3 2.607375 1_655
Ga20 W7 2.603804 1_655
Ga20 W1 2.607375 1_555
Ga20 Ga21 2.705396 1_655
Ga21 W3 2.562863 1_555
Ga21 W7 2.595216 1_555
Ga21 Ga6 2.705396 1_455
Ga22 W6 2.603804 1_655
Ga22 W5 2.607375 1_554
Ga22 Ga25 2.705397 1_544
Ga23 W1 2.603804 1_555
Ga23 W7 2.607375 1_555
Ga23 Ga24 2.705397 1_555
Ga24 W6 2.562863 1_555
Ga24 W1 2.595216 1_555
Ga24 Ga31 2.705397 1_555
Ga25 W1 2.562863 1_555
Ga25 W6 2.595216 1_666
Ga26 W5 2.603804 1_555
Ga26 W6 2.607375 1_556
Ga26 Ga27 2.705396 1_556
Ga27 W0 2.562863 1_555
Ga27 W5 2.595216 1_554
Ga27 Ga7 2.705396 1_555
Ga27 Ga4 2.705396 1_544
Ga28 W0 2.603804 1_565
Ga28 W3 2.607375 1_555
Ga28 Ga8 2.705396 1_565
Ga29 W3 2.603804 1_655
Ga29 W0 2.607375 1_565
Ga30 W4 2.562863 1_555
Ga30 W2 2.595216 1_455
Ga30 Ga9 2.705396 1_454
Ga31 W1 2.603804 1_555
Ga31 W4 2.607375 1_555
Cu0 Ga5 2.545684 1_555
Cu0 Ga9 2.545684 1_455
Cu0 Ga30 2.601935 1_556
Cu0 Ga0 2.601935 1_555
Cu0 Ga11 2.628440 1_555
Cu0 Ga2 2.628441 1_555
Cu0 Ga23 2.676266 1_555
Cu0 Ga4 2.676266 1_555
Cu0 W7 2.734740 1_555
Cu0 W4 2.734740 1_556
Cu1 Ga14 2.545684 1_656
Cu1 Ga11 2.545684 1_555
Cu1 Ga10 2.601935 1_556
Cu1 Ga25 2.601935 1_555
Cu1 Ga9 2.628440 1_555
Cu1 Ga17 2.628440 1_555
Cu1 Ga20 2.676266 1_555
Cu1 Ga3 2.676266 1_555
Cu1 W1 2.734740 1_555
Cu1 W2 2.734740 1_556
Cu2 Ga2 2.545684 1_555
Cu2 Ga28 2.545684 1_555
Cu2 Ga21 2.601935 1_555
Cu2 Ga8 2.601935 1_565
Cu2 Ga26 2.628440 1_565
Cu2 Ga5 2.628441 1_565
Cu2 Ga1 2.676266 1_565
Cu2 Ga15 2.676266 1_565
Cu2 W3 2.734740 1_555
Cu2 W5 2.734740 1_565
Cu3 Ga7 2.545684 1_555
Cu3 Ga29 2.545684 1_545
Cu3 Ga27 2.601935 1_555
Cu3 Ga0 2.601935 1_655
Cu3 Ga20 2.628440 1_555
Cu3 Ga3 2.628441 1_555
Cu3 Ga17 2.676266 1_555
Cu3 Ga9 2.676266 1_555
Cu3 W0 2.734740 1_555
Cu3 W7 2.734740 1_655
Cu4 Ga19 2.545684 1_555
Cu4 Ga6 2.545684 1_555
Cu4 Ga21 2.601935 1_655
Cu4 Ga10 2.601935 1_555
Cu4 Ga16 2.628440 1_655
Cu4 Ga18 2.628441 1_655
Cu4 Ga14 2.676266 1_655
Cu4 Ga28 2.676266 1_655
Cu4 W2 2.734740 1_555
Cu4 W3 2.734740 1_655
Cu5 Ga18 2.545684 1_555
Cu5 Ga4 2.545684 1_554
Cu5 Ga30 2.601935 1_555
Cu5 Ga27 2.601935 1_565
Cu5 Ga13 2.628440 1_555
Cu5 Ga19 2.628441 1_555
Cu5 Ga31 2.676266 1_555
Cu5 Ga29 2.676266 1_555
Cu5 W4 2.734740 1_555
Cu5 W0 2.734740 1_565
Cu6 Ga1 2.545684 1_665
Cu6 Ga20 2.545684 1_555
Cu6 Ga25 2.601935 1_555
Cu6 Ga21 2.601935 1_655
Cu6 Ga29 2.628440 1_555
Cu6 Ga31 2.628440 1_555
Cu6 Ga13 2.676266 1_555
Cu6 Ga19 2.676266 1_555
Cu6 W1 2.734740 1_555
Cu6 W3 2.734740 1_655
Cu7 Ga23 2.545684 1_555
Cu7 Ga16 2.545684 1_545
Cu7 Ga24 2.601935 1_555
Cu7 Ga0 2.601935 1_555
Cu7 Ga6 2.628440 1_455
Cu7 Ga22 2.628440 1_455
Cu7 Ga12 2.676266 1_455
Cu7 Ga7 2.676266 1_455
Cu7 W7 2.734740 1_555
Cu7 W6 2.734740 1_555
Cu8 Ga3 2.545684 1_555
Cu8 Ga15 2.545684 1_555
Cu8 Ga8 2.601935 1_555
Cu8 Ga10 2.601935 1_556
Cu8 Ga12 2.628440 1_556
Cu8 Ga7 2.628441 1_556
Cu8 Ga22 2.676266 1_556
Cu8 Ga6 2.676266 1_556
Cu8 W2 2.734740 1_556
Cu8 W5 2.734740 1_555
Cu9 Ga22 2.545684 1_566
Cu9 Ga13 2.545684 1_555
Cu9 Ga8 2.601935 1_565
Cu9 Ga25 2.601935 1_555
Cu9 Ga4 2.628440 1_555
Cu9 Ga23 2.628440 1_555
Cu9 Ga11 2.676266 1_555
Cu9 Ga2 2.676266 1_555
Cu9 W1 2.734740 1_555
Cu9 W5 2.734740 1_565
Cu10 Ga31 2.545684 1_555
Cu10 Ga12 2.545684 1_455
Cu10 Ga24 2.601935 1_555
Cu10 Ga30 2.601935 1_555
Cu10 Ga15 2.628440 1_554
Cu10 Ga1 2.628440 1_554
Cu10 Ga26 2.676266 1_554
Cu10 Ga5 2.676266 1_554
Cu10 W4 2.734740 1_555
Cu10 W6 2.734740 1_555
Cu11 Ga17 2.545684 1_555
Cu11 Ga26 2.545684 1_554
Cu11 Ga24 2.601935 1_555
Cu11 Ga27 2.601935 1_555
Cu11 Ga28 2.628440 1_545
Cu11 Ga14 2.628440 1_545
Cu11 Ga16 2.676266 1_545
Cu11 Ga18 2.676266 1_545
Cu11 W6 2.734740 1_555
Cu11 W0 2.734740 1_555
