# generated using pymatgen
data_Cd(GaO2)2
_symmetry_space_group_name_H-M   'P 1'
_cell_length_a   6.17552206
_cell_length_b   6.17552206
_cell_length_c   30.46183700
_cell_angle_alpha   90.00000000
_cell_angle_beta   90.00000000
_cell_angle_gamma   120.00000062
_symmetry_Int_Tables_number   1
_chemical_formula_structural   Cd(GaO2)2
_chemical_formula_sum   'Cd12 Ga24 O48'
_cell_volume   1006.08360860
_cell_formula_units_Z   12
loop_
 _symmetry_equiv_pos_site_id
 _symmetry_equiv_pos_as_xyz
  1  'x, y, z'
loop_
 _atom_site_type_symbol
 _atom_site_label
 _atom_site_symmetry_multiplicity
 _atom_site_fract_x
 _atom_site_fract_y
 _atom_site_fract_z
 _atom_site_occupancy
  Cd  Cd0  1  0.33333300  0.66666700  0.95689400  1
  Cd  Cd1  1  0.66666700  0.33333300  0.98098900  1
  Cd  Cd2  1  0.66666700  0.33333300  0.78975300  1
  Cd  Cd3  1  0.00000000  0.00000000  0.81071500  1
  Cd  Cd4  1  0.00000000  0.00000000  0.62310000  1
  Cd  Cd5  1  0.00000000  0.00000000  0.49994800  1
  Cd  Cd6  1  0.66666700  0.33333300  0.66878100  1
  Cd  Cd7  1  0.33333300  0.66666700  0.45895100  1
  Cd  Cd8  1  0.66666700  0.33333300  0.29230300  1
  Cd  Cd9  1  0.33333300  0.66666700  0.33319700  1
  Cd  Cd10  1  0.00000000  0.00000000  0.12495200  1
  Cd  Cd11  1  0.66666700  0.33333300  0.16536500  1
  Ga  Ga0  1  0.00000000  0.00000000  0.00198600  1
  Ga  Ga1  1  0.82853200  0.17146800  0.89584200  1
  Ga  Ga2  1  0.34293600  0.17146800  0.89584200  1
  Ga  Ga3  1  0.33333300  0.66666700  0.83692100  1
  Ga  Ga4  1  0.82853200  0.65706400  0.89584200  1
  Ga  Ga5  1  0.16395600  0.83604400  0.72698600  1
  Ga  Ga6  1  0.67208900  0.83604400  0.72698600  1
  Ga  Ga7  1  0.16395600  0.32791100  0.72698600  1
  Ga  Ga8  1  0.50015300  0.49984700  0.56264200  1
  Ga  Ga9  1  0.99969400  0.49984700  0.56264200  1
  Ga  Ga10  1  0.33333300  0.66666700  0.64519800  1
  Ga  Ga11  1  0.50015300  0.00030600  0.56264200  1
  Ga  Ga12  1  0.83320600  0.16679400  0.39605100  1
  Ga  Ga13  1  0.66666700  0.33333300  0.47941300  1
  Ga  Ga14  1  0.33358700  0.16679400  0.39605100  1
  Ga  Ga15  1  0.83320600  0.66641300  0.39605100  1
  Ga  Ga16  1  0.16606300  0.83393700  0.22956100  1
  Ga  Ga17  1  0.00000000  0.00000000  0.31293000  1
  Ga  Ga18  1  0.66787300  0.83393700  0.22956100  1
  Ga  Ga19  1  0.16606300  0.33212700  0.22956100  1
  Ga  Ga20  1  0.49589900  0.50410100  0.06380800  1
  Ga  Ga21  1  0.00820200  0.50410100  0.06380800  1
  Ga  Ga22  1  0.33333300  0.66666700  0.14756100  1
  Ga  Ga23  1  0.49589900  0.99179800  0.06380800  1
  O  O0  1  0.51700700  0.03401400  0.92957700  1
  O  O1  1  0.96598600  0.48299300  0.92957700  1
  O  O2  1  0.66666700  0.33333300  0.86064200  1
  O  O3  1  0.51700700  0.48299300  0.92957700  1
  O  O4  1  0.16180400  0.83819600  0.86080600  1
  O  O5  1  0.84751300  0.69502600  0.75932600  1
  O  O6  1  0.00000000  0.00000000  0.93698500  1
  O  O7  1  0.67639300  0.83819600  0.86080600  1
  O  O8  1  0.30497400  0.15248700  0.75932600  1
  O  O9  1  0.00000000  0.00000000  0.69293400  1
  O  O10  1  0.16180400  0.32360700  0.86080600  1
  O  O11  1  0.84751300  0.15248700  0.75932600  1
  O  O12  1  0.47226500  0.52773500  0.69015000  1
  O  O13  1  0.19122700  0.38245500  0.60038500  1
  O  O14  1  0.33333300  0.66666700  0.77342200  1
  O  O15  1  0.61754500  0.80877300  0.60038500  1
  O  O16  1  0.05547100  0.52773500  0.69015000  1
  O  O17  1  0.33333300  0.66666700  0.52964300  1
  O  O18  1  0.47226500  0.94452900  0.69015000  1
  O  O19  1  0.19122700  0.80877300  0.60038500  1
  O  O20  1  0.80899500  0.19100500  0.52372200  1
  O  O21  1  0.52396800  0.04793600  0.43428900  1
  O  O22  1  0.66666700  0.33333300  0.59587800  1
  O  O23  1  0.95206400  0.47603200  0.43428900  1
  O  O24  1  0.38201100  0.19100500  0.52372200  1
  O  O25  1  0.66666700  0.33333300  0.36325600  1
  O  O26  1  0.80899500  0.61798900  0.52372200  1
  O  O27  1  0.52396800  0.47603200  0.43428900  1
  O  O28  1  0.85737400  0.71474800  0.26781200  1
  O  O29  1  0.14253700  0.85746300  0.35702000  1
  O  O30  1  0.00000000  0.00000000  0.42830700  1
  O  O31  1  0.71492600  0.85746300  0.35702000  1
  O  O32  1  0.28525200  0.14262600  0.26781200  1
  O  O33  1  0.00000000  0.00000000  0.19649600  1
  O  O34  1  0.14253700  0.28507400  0.35702000  1
  O  O35  1  0.85737400  0.14262600  0.26781200  1
  O  O36  1  0.19241700  0.38483400  0.10295900  1
  O  O37  1  0.47702300  0.52297700  0.19074600  1
  O  O38  1  0.33333300  0.66666700  0.26151300  1
  O  O39  1  0.04595300  0.52297700  0.19074600  1
  O  O40  1  0.33333300  0.66666700  0.02985600  1
  O  O41  1  0.61516600  0.80758300  0.10295900  1
  O  O42  1  0.47702300  0.95404700  0.19074600  1
  O  O43  1  0.19241700  0.80758300  0.10295900  1
  O  O44  1  0.83601000  0.16399000  0.02838200  1
  O  O45  1  0.32798100  0.16399000  0.02838200  1
  O  O46  1  0.66666700  0.33333300  0.09192000  1
  O  O47  1  0.83601000  0.67201900  0.02838200  1
loop_
_geom_bond_atom_site_label_1
_geom_bond_atom_site_label_2
_geom_bond_distance
_geom_bond_site_symmetry_2
Cd0 O0 2.133590 1_565
Cd0 O1 2.133590 1_455
Cd0 O3 2.133595 1_555
Cd0 O40 2.222557 1_556
Cd1 O1 2.239478 1_555
Cd1 O0 2.239478 1_555
Cd1 O3 2.239481 1_555
Cd1 O47 2.316286 1_556
Cd1 O45 2.316286 1_556
Cd1 O44 2.316286 1_556
Cd2 O11 2.144977 1_555
Cd2 O5 2.144981 1_555
Cd2 O8 2.144981 1_555
Cd2 O2 2.159409 1_555
Cd3 O8 2.260710 1_555
Cd3 O5 2.260710 1_445
Cd3 O11 2.260710 1_455
Cd3 O10 2.307290 1_555
Cd3 O7 2.307290 1_445
Cd3 O4 2.307294 1_545
Cd4 O9 2.127272 1_555
Cd4 O19 2.159293 1_545
Cd4 O15 2.159298 1_445
Cd4 O13 2.159298 1_555
Cd5 O20 2.167607 1_455
Cd5 O26 2.167612 1_445
Cd5 O24 2.167612 1_555
Cd5 O30 2.182316 1_555
Cd6 O16 2.178891 1_655
Cd6 O18 2.178891 1_545
Cd6 O12 2.178891 1_555
Cd6 O22 2.220759 1_555
Cd7 O17 2.153408 1_555
Cd7 O21 2.173075 1_565
Cd7 O23 2.173075 1_455
Cd7 O27 2.173080 1_555
Cd8 O25 2.161359 1_555
Cd8 O35 2.172008 1_555
Cd8 O28 2.172013 1_555
Cd8 O32 2.172013 1_555
Cd9 O29 2.166000 1_555
Cd9 O31 2.166005 1_555
Cd9 O34 2.166005 1_555
Cd9 O38 2.183626 1_555
Cd10 O41 2.164446 1_445
Cd10 O36 2.164446 1_555
Cd10 O43 2.164446 1_545
Cd10 O33 2.179362 1_555
Cd11 O39 2.170830 1_655
Cd11 O42 2.170830 1_545
Cd11 O37 2.170840 1_555
Cd11 O46 2.237270 1_555
Ga0 O44 1.929601 1_455
Ga0 O45 1.929605 1_555
Ga0 O47 1.929605 1_445
Ga0 O6 1.980050 1_554
Ga1 O0 1.960777 1_555
Ga1 O1 1.960777 1_555
Ga1 O2 2.036502 1_555
Ga1 O7 2.079418 1_545
Ga1 O10 2.079418 1_655
Ga1 O6 2.221390 1_655
Ga2 O3 1.960777 1_555
Ga2 O0 1.960777 1_555
Ga2 O2 2.036506 1_555
Ga2 O10 2.079414 1_555
Ga2 O4 2.079418 1_545
Ga2 O6 2.221390 1_555
Ga3 O14 1.934296 1_555
Ga3 O4 1.973728 1_555
Ga3 O7 1.973738 1_555
Ga3 O10 1.973738 1_555
Ga4 O3 1.960777 1_555
Ga4 O1 1.960777 1_555
Ga4 O2 2.036506 1_555
Ga4 O7 2.079414 1_555
Ga4 O4 2.079418 1_655
Ga4 O6 2.221390 1_665
Ga5 O8 1.961111 1_565
Ga5 O5 1.961111 1_455
Ga5 O16 2.014313 1_555
Ga5 O18 2.014313 1_555
Ga5 O9 2.037527 1_565
Ga5 O14 2.298516 1_555
Ga6 O5 1.961106 1_555
Ga6 O11 1.961110 1_565
Ga6 O12 2.014313 1_555
Ga6 O18 2.014313 1_555
Ga6 O9 2.037522 1_665
Ga6 O14 2.298525 1_555
Ga7 O8 1.961106 1_555
Ga7 O11 1.961110 1_455
Ga7 O12 2.014313 1_555
Ga7 O16 2.014313 1_555
Ga7 O9 2.037522 1_555
Ga7 O14 2.298525 1_555
Ga8 O15 2.025830 1_555
Ga8 O13 2.025830 1_555
Ga8 O26 2.045486 1_555
Ga8 O24 2.045486 1_555
Ga8 O17 2.048020 1_555
Ga8 O22 2.048727 1_555
Ga9 O13 2.025825 1_655
Ga9 O19 2.025829 1_655
Ga9 O26 2.045482 1_555
Ga9 O20 2.045486 1_555
Ga9 O17 2.048016 1_655
Ga9 O22 2.048723 1_555
Ga10 O18 2.020738 1_555
Ga10 O16 2.020738 1_555
Ga10 O12 2.020746 1_555
Ga10 O13 2.043011 1_555
Ga10 O15 2.043011 1_555
Ga10 O19 2.043011 1_555
Ga11 O15 2.025825 1_545
Ga11 O19 2.025829 1_545
Ga11 O24 2.045482 1_555
Ga11 O20 2.045486 1_555
Ga11 O17 2.048016 1_545
Ga11 O22 2.048723 1_555
Ga12 O23 2.034886 1_555
Ga12 O21 2.034886 1_555
Ga12 O30 2.036763 1_655
Ga12 O25 2.042355 1_555
Ga12 O34 2.049630 1_655
Ga12 O31 2.049630 1_545
Ga13 O26 2.034561 1_555
Ga13 O24 2.034561 1_555
Ga13 O20 2.034561 1_555
Ga13 O23 2.054058 1_555
Ga13 O21 2.054058 1_555
Ga13 O27 2.054062 1_555
Ga14 O27 2.034887 1_555
Ga14 O21 2.034891 1_555
Ga14 O30 2.036759 1_555
Ga14 O25 2.042365 1_555
Ga14 O34 2.049626 1_555
Ga14 O29 2.049630 1_545
Ga15 O27 2.034887 1_555
Ga15 O23 2.034891 1_555
Ga15 O30 2.036759 1_665
Ga15 O25 2.042365 1_555
Ga15 O31 2.049626 1_555
Ga15 O29 2.049630 1_655
Ga16 O28 2.032325 1_455
Ga16 O32 2.032325 1_565
Ga16 O38 2.036783 1_555
Ga16 O33 2.041960 1_565
Ga16 O39 2.052195 1_555
Ga16 O42 2.052195 1_555
Ga17 O34 2.031818 1_555
Ga17 O31 2.031818 1_445
Ga17 O29 2.031818 1_545
Ga17 O32 2.053360 1_555
Ga17 O28 2.053360 1_445
Ga17 O35 2.053360 1_455
Ga18 O35 2.032326 1_565
Ga18 O28 2.032330 1_555
Ga18 O38 2.036783 1_555
Ga18 O33 2.041965 1_665
Ga18 O37 2.052195 1_555
Ga18 O42 2.052195 1_555
Ga19 O35 2.032326 1_455
Ga19 O32 2.032330 1_555
Ga19 O38 2.036783 1_555
Ga19 O33 2.041965 1_555
Ga19 O37 2.052195 1_555
Ga19 O39 2.052195 1_555
Ga20 O46 2.017362 1_555
Ga20 O40 2.023185 1_555
Ga20 O41 2.024079 1_555
Ga20 O36 2.024079 1_555
Ga20 O47 2.115033 1_555
Ga20 O45 2.115033 1_555
Ga21 O46 2.017357 1_455
Ga21 O40 2.023181 1_555
Ga21 O43 2.024079 1_555
Ga21 O36 2.024079 1_555
Ga21 O47 2.115028 1_455
Ga21 O44 2.115033 1_455
Ga22 O42 2.023055 1_555
Ga22 O39 2.023055 1_555
Ga22 O37 2.023055 1_555
Ga22 O43 2.029250 1_555
Ga22 O36 2.029254 1_555
Ga22 O41 2.029254 1_555
Ga23 O46 2.017357 1_565
Ga23 O40 2.023181 1_555
Ga23 O43 2.024079 1_555
Ga23 O41 2.024079 1_555
Ga23 O45 2.115028 1_565
Ga23 O44 2.115033 1_565
