# generated using pymatgen
data_Li2NiPO4F
_symmetry_space_group_name_H-M   'P 1'
_cell_length_a   6.26607236
_cell_length_b   10.37594337
_cell_length_c   10.75762656
_cell_angle_alpha   90.00000000
_cell_angle_beta   90.00000000
_cell_angle_gamma   90.00000000
_symmetry_Int_Tables_number   1
_chemical_formula_structural   Li2NiPO4F
_chemical_formula_sum   'Li16 Ni8 P8 O32 F8'
_cell_volume   699.42228013
_cell_formula_units_Z   8
loop_
 _symmetry_equiv_pos_site_id
 _symmetry_equiv_pos_as_xyz
  1  'x, y, z'
loop_
 _atom_site_type_symbol
 _atom_site_label
 _atom_site_symmetry_multiplicity
 _atom_site_fract_x
 _atom_site_fract_y
 _atom_site_fract_z
 _atom_site_occupancy
  Li  Li0  1  0.50710952  0.23772567  0.66667087  1
  Li  Li1  1  0.49289048  0.26227433  0.16667087  1
  Li  Li2  1  0.25000000  0.72710543  0.58176640  1
  Li  Li3  1  0.49289048  0.76227433  0.33332913  1
  Li  Li4  1  0.75000000  0.52579128  0.77402120  1
  Li  Li5  1  0.00710952  0.26227433  0.16667087  1
  Li  Li6  1  0.25000000  0.22710543  0.91823360  1
  Li  Li7  1  0.25000000  0.47420872  0.22597880  1
  Li  Li8  1  0.00710952  0.76227433  0.33332913  1
  Li  Li9  1  0.75000000  0.27289457  0.41823360  1
  Li  Li10  1  0.99289048  0.23772567  0.66667087  1
  Li  Li11  1  0.99289048  0.73772567  0.83332913  1
  Li  Li12  1  0.75000000  0.77289457  0.08176640  1
  Li  Li13  1  0.50710952  0.73772567  0.83332913  1
  Li  Li14  1  0.25000000  0.97420872  0.27402120  1
  Li  Li15  1  0.75000000  0.02579128  0.72597880  1
  Ni  Ni0  1  0.00000000  0.50000000  0.50000000  1
  Ni  Ni1  1  0.50000000  0.50000000  0.50000000  1
  Ni  Ni2  1  0.00000000  -0.00000000  -0.00000000  1
  Ni  Ni3  1  0.50000000  -0.00000000  -0.00000000  1
  Ni  Ni4  1  -0.00000000  0.50000000  -0.00000000  1
  Ni  Ni5  1  0.50000000  0.50000000  -0.00000000  1
  Ni  Ni6  1  -0.00000000  -0.00000000  0.50000000  1
  Ni  Ni7  1  0.50000000  -0.00000000  0.50000000  1
  P  P0  1  0.25000000  0.97744229  0.74425142  1
  P  P1  1  0.75000000  0.02255771  0.25574858  1
  P  P2  1  0.75000000  0.24361839  0.92151022  1
  P  P3  1  0.75000000  0.74361839  0.57848978  1
  P  P4  1  0.25000000  0.75638161  0.07848978  1
  P  P5  1  0.75000000  0.52255771  0.24425142  1
  P  P6  1  0.25000000  0.25638161  0.42151022  1
  P  P7  1  0.25000000  0.47744229  0.75574858  1
  O  O0  1  0.75000000  0.17042772  0.25674950  1
  O  O1  1  0.75000000  0.39053585  0.94423153  1
  O  O2  1  0.25000000  0.60946415  0.05576847  1
  O  O3  1  0.95104681  0.69045879  0.51376036  1
  O  O4  1  0.75000000  0.89053585  0.55576847  1
  O  O5  1  0.54895319  0.69045879  0.51376036  1
  O  O6  1  0.94780737  0.96475389  0.31933016  1
  O  O7  1  0.05219263  0.53524611  0.81933016  1
  O  O8  1  0.45104681  0.80954121  0.01376036  1
  O  O9  1  0.55219263  0.96475389  0.31933016  1
  O  O10  1  0.25000000  0.52774713  0.62022421  1
  O  O11  1  0.25000000  0.28402017  0.28248844  1
  O  O12  1  0.25000000  0.82957228  0.74325050  1
  O  O13  1  0.94780737  0.46475389  0.18066984  1
  O  O14  1  0.25000000  0.10946415  0.44423153  1
  O  O15  1  0.25000000  0.78402017  0.21751156  1
  O  O16  1  0.55219263  0.46475389  0.18066984  1
  O  O17  1  0.75000000  0.67042772  0.24325050  1
  O  O18  1  0.54895319  0.19045879  0.98623964  1
  O  O19  1  0.95104681  0.19045879  0.98623964  1
  O  O20  1  0.75000000  0.97225287  0.12022421  1
  O  O21  1  0.44780737  0.53524611  0.81933016  1
  O  O22  1  0.04895319  0.30954121  0.48623964  1
  O  O23  1  0.04895319  0.80954121  0.01376036  1
  O  O24  1  0.75000000  0.47225287  0.37977579  1
  O  O25  1  0.75000000  0.21597983  0.78248844  1
  O  O26  1  0.45104681  0.30954121  0.48623964  1
  O  O27  1  0.25000000  0.02774713  0.87977579  1
  O  O28  1  0.44780737  0.03524611  0.68066984  1
  O  O29  1  0.05219263  0.03524611  0.68066984  1
  O  O30  1  0.75000000  0.71597983  0.71751156  1
  O  O31  1  0.25000000  0.32957228  0.75674950  1
  F  F0  1  0.75000000  0.45116753  0.61763158  1
  F  F1  1  0.75000000  0.12874477  0.52650686  1
  F  F2  1  0.25000000  0.54883247  0.38236842  1
  F  F3  1  0.25000000  0.04883247  0.11763158  1
  F  F4  1  0.75000000  0.62874477  0.97349314  1
  F  F5  1  0.75000000  0.95116753  0.88236842  1
  F  F6  1  0.25000000  0.87125523  0.47349314  1
  F  F7  1  0.25000000  0.37125523  0.02650686  1
loop_
_geom_bond_atom_site_label_1
_geom_bond_atom_site_label_2
_geom_bond_distance
_geom_bond_site_symmetry_2
Li0 O25 1.979804 1_555
Li0 O31 2.107786 1_555
Li0 O26 2.108599 1_555
Li0 O28 2.138834 1_555
Li1 O11 1.979804 1_555
Li1 O0 2.107786 1_555
Li1 O18 2.108599 1_554
Li1 O16 2.138834 1_555
Li2 O12 2.036710 1_555
Li2 O3 2.046683 1_455
Li2 O5 2.046683 1_555
Li2 O10 2.109497 1_555
Li3 O15 1.979804 1_555
Li3 O17 2.107786 1_555
Li3 O5 2.108599 1_555
Li3 O9 2.138834 1_555
Li4 O7 1.957747 1_655
Li4 O21 1.957747 1_555
Li4 O30 2.064898 1_555
Li4 O1 2.307015 1_555
Li5 O11 1.979804 1_555
Li5 O0 2.107786 1_455
Li5 O19 2.108599 1_454
Li5 O13 2.138834 1_455
Li6 O31 2.036710 1_555
Li6 O19 2.046683 1_455
Li6 O18 2.046683 1_555
Li6 O27 2.109497 1_555
Li7 O16 1.957747 1_555
Li7 O13 1.957747 1_455
Li7 O11 2.064898 1_555
Li7 O2 2.307015 1_555
Li8 O15 1.979804 1_555
Li8 O17 2.107786 1_455
Li8 O3 2.108599 1_455
Li8 O6 2.138834 1_455
Li9 O0 2.036710 1_555
Li9 O26 2.046683 1_555
Li9 O22 2.046683 1_655
Li9 O24 2.109497 1_555
Li10 O25 1.979804 1_555
Li10 O31 2.107786 1_655
Li10 O22 2.108599 1_655
Li10 O29 2.138834 1_655
Li11 O30 1.979804 1_555
Li11 O12 2.107786 1_655
Li11 O23 2.108599 1_656
Li11 O7 2.138834 1_655
Li12 O17 2.036710 1_555
Li12 O8 2.046683 1_555
Li12 O23 2.046683 1_655
Li12 O20 2.109497 1_555
Li13 O30 1.979804 1_555
Li13 O12 2.107786 1_555
Li13 O8 2.108599 1_556
Li13 O21 2.138834 1_555
Li14 O9 1.957747 1_555
Li14 O6 1.957747 1_455
Li14 O15 2.064898 1_555
Li14 O14 2.307015 1_565
Li15 O28 1.957747 1_555
Li15 O29 1.957747 1_655
Li15 O25 2.064898 1_555
Li15 O4 2.307015 1_545
Ni0 O22 2.005325 1_555
Ni0 O3 2.005325 1_455
Ni0 O24 2.051722 1_455
Ni0 O10 2.051722 1_555
Ni1 O26 2.005325 1_555
Ni1 O5 2.005325 1_555
Ni1 O24 2.051722 1_555
Ni1 O10 2.051722 1_555
Ni2 O23 2.005325 1_545
Ni2 O19 2.005325 1_454
Ni2 O27 2.051722 1_554
Ni2 O20 2.051722 1_445
Ni3 O8 2.005325 1_545
Ni3 O18 2.005325 1_554
Ni3 O27 2.051722 1_554
Ni3 O20 2.051722 1_545
Ni4 O13 2.004545 1_455
Ni4 O7 2.004545 1_554
Ni4 O1 2.025816 1_454
Ni4 O2 2.025816 1_555
Ni5 O16 2.004545 1_555
Ni5 O21 2.004545 1_554
Ni5 O1 2.025816 1_554
Ni5 O2 2.025816 1_555
Ni6 O6 2.004545 1_445
Ni6 O29 2.004545 1_555
Ni6 O4 2.025816 1_445
Ni6 O14 2.025816 1_555
Ni7 O28 2.004545 1_555
Ni7 O9 2.004545 1_545
Ni7 O4 2.025816 1_545
Ni7 O14 2.025816 1_555
O0 P1 1.534329 1_555
O1 P2 1.543879 1_555
O2 P4 1.543879 1_555
O3 P3 1.541478 1_555
O4 P3 1.543879 1_555
O5 P3 1.541478 1_555
O6 P1 1.537485 1_565
O7 P7 1.537485 1_555
O8 P4 1.541478 1_555
O9 P1 1.537485 1_565
O10 P7 1.548540 1_555
O11 P6 1.522791 1_555
O12 P0 1.534329 1_555
O13 P5 1.537485 1_555
O14 P6 1.543879 1_555
O15 P4 1.522791 1_555
O16 P5 1.537485 1_555
O17 P5 1.534329 1_555
O18 P2 1.541478 1_555
O19 P2 1.541478 1_555
O20 P1 1.548540 1_565
O21 P7 1.537485 1_555
O22 P6 1.541478 1_555
O23 P4 1.541478 1_555
O24 P5 1.548540 1_555
O25 P2 1.522791 1_555
O26 P6 1.541478 1_555
O27 P0 1.548540 1_545
O28 P0 1.537485 1_545
O29 P0 1.537485 1_545
O30 P3 1.522791 1_555
O31 P7 1.534329 1_555
F0 Li4 1.852008 1_555
F0 Ni0 2.076544 1_655
F0 Ni1 2.076544 1_555
F1 Li9 1.895722 1_555
F1 Ni6 2.078408 1_655
F1 Ni7 2.078408 1_555
F1 Li15 2.397037 1_555
F1 Li10 2.422522 1_555
F1 Li0 2.422522 1_555
F2 Li7 1.852008 1_555
F2 Ni0 2.076544 1_555
F2 Ni1 2.076544 1_555
F3 Li14 1.852008 1_545
F3 Ni2 2.076544 1_555
F3 Ni3 2.076544 1_555
F4 Li12 1.895722 1_556
F4 Ni5 2.078408 1_556
F4 Ni4 2.078408 1_656
F4 Li4 2.397037 1_555
F4 Li13 2.422522 1_555
F4 Li11 2.422522 1_555
F5 Li15 1.852008 1_565
F5 Ni2 2.076544 1_666
F5 Ni3 2.076544 1_566
F6 Li2 1.895722 1_555
F6 Ni7 2.078408 1_565
F6 Ni6 2.078408 1_565
F6 Li14 2.397037 1_555
F6 Li8 2.422522 1_555
F6 Li3 2.422522 1_555
F7 Li6 1.895722 1_554
F7 Ni4 2.078408 1_555
F7 Ni5 2.078408 1_555
F7 Li7 2.397037 1_555
F7 Li5 2.422522 1_555
F7 Li1 2.422522 1_555
