# generated using pymatgen
data_K2Mo(I2O7)2
_symmetry_space_group_name_H-M   'P 1'
_cell_length_a   7.29486037
_cell_length_b   7.29486037
_cell_length_c   17.81875259
_cell_angle_alpha   79.36238352
_cell_angle_beta   79.36238352
_cell_angle_gamma   51.50531085
_symmetry_Int_Tables_number   1
_chemical_formula_structural   K2Mo(I2O7)2
_chemical_formula_sum   'K4 Mo2 I8 O28'
_cell_volume   726.38875347
_cell_formula_units_Z   2
loop_
 _symmetry_equiv_pos_site_id
 _symmetry_equiv_pos_as_xyz
  1  'x, y, z'
loop_
 _atom_site_type_symbol
 _atom_site_label
 _atom_site_symmetry_multiplicity
 _atom_site_fract_x
 _atom_site_fract_y
 _atom_site_fract_z
 _atom_site_occupancy
  K  K0  1  0.82084400  0.81698600  0.46154000  1
  K  K1  1  0.18301400  0.17915600  0.03846000  1
  K  K2  1  0.17915600  0.18301400  0.53846000  1
  K  K3  1  0.81698600  0.82084400  0.96154000  1
  Mo  Mo0  1  0.10983900  0.89016100  0.75000000  1
  Mo  Mo1  1  0.89016100  0.10983900  0.25000000  1
  I  I0  1  0.38071500  0.54757000  0.59039100  1
  I  I1  1  0.45243000  0.61928500  0.90960900  1
  I  I2  1  0.61928500  0.45243000  0.40960900  1
  I  I3  1  0.54757000  0.38071500  0.09039100  1
  I  I4  1  0.27295300  0.30429100  0.32033400  1
  I  I5  1  0.69570900  0.72704700  0.17966600  1
  I  I6  1  0.72704700  0.69570900  0.67966600  1
  I  I7  1  0.30429100  0.27295300  0.82033400  1
  O  O0  1  0.19855000  0.84058700  0.63950900  1
  O  O1  1  0.15941300  0.80145000  0.86049100  1
  O  O2  1  0.80145000  0.15941300  0.36049100  1
  O  O3  1  0.84058700  0.19855000  0.13950900  1
  O  O4  1  0.37516400  0.72745800  0.50001300  1
  O  O5  1  0.27254200  0.62483600  0.99998700  1
  O  O6  1  0.62483600  0.27254200  0.49998700  1
  O  O7  1  0.72745800  0.37516400  0.00001300  1
  O  O8  1  0.12774800  0.56343600  0.58000800  1
  O  O9  1  0.43656400  0.87225200  0.91999200  1
  O  O10  1  0.87225200  0.43656400  0.41999200  1
  O  O11  1  0.56343600  0.12774800  0.08000800  1
  O  O12  1  0.50211200  0.28084900  0.24533700  1
  O  O13  1  0.71915100  0.49788800  0.25466300  1
  O  O14  1  0.49788800  0.71915100  0.75466300  1
  O  O15  1  0.28084900  0.50211200  0.74533700  1
  O  O16  1  0.26616000  0.46384300  0.39040800  1
  O  O17  1  0.53615700  0.73384000  0.10959200  1
  O  O18  1  0.73384000  0.53615700  0.60959200  1
  O  O19  1  0.46384300  0.26616000  0.89040800  1
  O  O20  1  0.43907600  0.01167500  0.36904600  1
  O  O21  1  0.98832500  0.56092400  0.13095400  1
  O  O22  1  0.56092400  0.98832500  0.63095400  1
  O  O23  1  0.01167500  0.43907600  0.86904600  1
  O  O24  1  0.04612200  0.16707100  0.73955500  1
  O  O25  1  0.83292900  0.95387800  0.76044500  1
  O  O26  1  0.95387800  0.83292900  0.26044500  1
  O  O27  1  0.16707100  0.04612200  0.23955500  1
loop_
_geom_bond_atom_site_label_1
_geom_bond_atom_site_label_2
_geom_bond_distance
_geom_bond_site_symmetry_2
K0 O2 2.737776 1_565
K0 O10 2.783972 1_555
K0 O8 2.835107 1_655
K0 O16 2.839585 1_655
K0 O6 2.849761 1_565
K0 O20 2.897559 1_565
K0 O18 3.250288 1_555
K0 O22 3.255727 1_555
K1 O3 2.737776 1_455
K1 O11 2.783972 1_555
K1 O9 2.835107 1_544
K1 O17 2.839585 1_545
K1 O7 2.849761 1_455
K1 O21 2.897559 1_455
K1 O19 3.250288 1_554
K1 O23 3.255727 1_554
K2 O0 2.737776 1_545
K2 O8 2.783972 1_555
K2 O10 2.835107 1_455
K2 O18 2.839585 1_455
K2 O4 2.849761 1_545
K2 O22 2.897559 1_545
K2 O16 3.250288 1_555
K2 O20 3.255727 1_555
K3 O1 2.737776 1_655
K3 O9 2.783972 1_555
K3 O11 2.835107 1_566
K3 O19 2.839585 1_565
K3 O5 2.849761 1_655
K3 O23 2.897559 1_655
K3 O17 3.250288 1_556
K3 O21 3.255727 1_556
Mo0 O24 1.747986 1_565
Mo0 O25 1.747986 1_455
Mo0 O0 1.981647 1_555
Mo0 O1 1.981647 1_555
Mo0 O15 2.286657 1_555
Mo0 O14 2.286657 1_555
Mo1 O26 1.747986 1_545
Mo1 O27 1.747986 1_655
Mo1 O3 1.981647 1_555
Mo1 O2 1.981647 1_555
Mo1 O12 2.286657 1_555
Mo1 O13 2.286657 1_555
I0 O8 1.818030 1_555
I0 O4 1.869448 1_555
I0 O0 1.956046 1_555
I0 O6 2.340470 1_555
I1 O9 1.818030 1_555
I1 O5 1.869448 1_555
I1 O1 1.956046 1_555
I1 O7 2.340470 1_556
I2 O10 1.818030 1_555
I2 O6 1.869448 1_555
I2 O2 1.956046 1_555
I2 O4 2.340470 1_555
I3 O11 1.818030 1_555
I3 O7 1.869448 1_555
I3 O3 1.956046 1_555
I3 O5 2.340470 1_554
I4 O20 1.806238 1_555
I4 O16 1.832518 1_555
I4 O12 1.874391 1_555
I5 O21 1.806238 1_555
I5 O17 1.832518 1_555
I5 O13 1.874391 1_555
I6 O22 1.806238 1_555
I6 O18 1.832518 1_555
I6 O14 1.874391 1_555
I7 O23 1.806238 1_555
I7 O19 1.832518 1_555
I7 O15 1.874391 1_555
