# generated using pymatgen
data_Gd2SiO5
_symmetry_space_group_name_H-M   'P 1'
_cell_length_a   7.04651892
_cell_length_b   6.74483205
_cell_length_c   9.13918973
_cell_angle_alpha   72.55090280
_cell_angle_beta   90.00000000
_cell_angle_gamma   90.00000000
_symmetry_Int_Tables_number   1
_chemical_formula_structural   Gd2SiO5
_chemical_formula_sum   'Gd8 Si4 O20'
_cell_volume   414.37583662
_cell_formula_units_Z   4
loop_
 _symmetry_equiv_pos_site_id
 _symmetry_equiv_pos_as_xyz
  1  'x, y, z'
loop_
 _atom_site_type_symbol
 _atom_site_label
 _atom_site_symmetry_multiplicity
 _atom_site_fract_x
 _atom_site_fract_y
 _atom_site_fract_z
 _atom_site_occupancy
  Gd  Gd0  1  0.85352974  0.41583274  0.88626213  1
  Gd  Gd1  1  0.35352974  0.08416726  0.11373787  1
  Gd  Gd2  1  0.14647026  0.58416726  0.11373787  1
  Gd  Gd3  1  0.64647026  0.91583274  0.88626213  1
  Gd  Gd4  1  0.37566706  0.23416764  0.47415815  1
  Gd  Gd5  1  0.87566706  0.26583236  0.52584185  1
  Gd  Gd6  1  0.62433294  0.76583236  0.52584185  1
  Gd  Gd7  1  0.12433294  0.73416764  0.47415815  1
  Si  Si0  1  0.41285465  0.45982594  0.79770888  1
  Si  Si1  1  0.91285465  0.04017406  0.20229112  1
  Si  Si2  1  0.58714535  0.54017406  0.20229112  1
  Si  Si3  1  0.08714535  0.95982594  0.79770888  1
  O  O0  1  0.56892712  0.64288199  0.79531683  1
  O  O1  1  0.06892712  0.85711801  0.20468317  1
  O  O2  1  0.43107288  0.35711801  0.20468317  1
  O  O3  1  0.93107288  0.14288199  0.79531683  1
  O  O4  1  0.54234784  0.25329858  0.86544084  1
  O  O5  1  0.04234784  0.24670142  0.13455916  1
  O  O6  1  0.45765216  0.74670142  0.13455916  1
  O  O7  1  0.95765216  0.75329858  0.86544084  1
  O  O8  1  0.36217336  0.50749994  0.61501104  1
  O  O9  1  0.86217336  0.99250006  0.38498896  1
  O  O10  1  0.63782664  0.49250006  0.38498896  1
  O  O11  1  0.13782664  0.00749994  0.61501104  1
  O  O12  1  0.23120192  0.44780250  0.90474480  1
  O  O13  1  0.73120192  0.05219750  0.09525520  1
  O  O14  1  0.76879808  0.55219750  0.09525520  1
  O  O15  1  0.26879808  0.94780250  0.90474480  1
  O  O16  1  0.62022508  0.05147428  0.61683164  1
  O  O17  1  0.12022508  0.44852572  0.38316836  1
  O  O18  1  0.37977492  0.94852572  0.38316836  1
  O  O19  1  0.87977492  0.55147428  0.61683164  1
loop_
_geom_bond_atom_site_label_1
_geom_bond_atom_site_label_2
_geom_bond_distance
_geom_bond_site_symmetry_2
Gd0 O3 2.301387 1_555
Gd0 O7 2.344277 1_555
Gd0 O19 2.362938 1_555
Gd0 O14 2.429856 1_556
Gd0 O4 2.484203 1_555
Gd0 O0 2.508896 1_555
Gd0 O5 2.582355 1_656
Gd0 O12 2.679413 1_655
Gd0 O13 2.756320 1_556
Gd1 O2 2.301387 1_555
Gd1 O6 2.344277 1_545
Gd1 O18 2.362938 1_545
Gd1 O15 2.429856 1_544
Gd1 O5 2.484203 1_555
Gd1 O1 2.508896 1_545
Gd1 O4 2.582355 1_554
Gd1 O13 2.679413 1_555
Gd1 O12 2.756320 1_554
Gd2 O1 2.301387 1_555
Gd2 O5 2.344277 1_555
Gd2 O17 2.362938 1_555
Gd2 O12 2.429856 1_554
Gd2 O6 2.484203 1_555
Gd2 O2 2.508896 1_555
Gd2 O7 2.582355 1_454
Gd2 O14 2.679413 1_455
Gd2 O15 2.756320 1_554
Gd3 O0 2.301387 1_555
Gd3 O4 2.344277 1_565
Gd3 O16 2.362938 1_565
Gd3 O13 2.429856 1_566
Gd3 O7 2.484203 1_555
Gd3 O3 2.508896 1_565
Gd3 O6 2.582355 1_556
Gd3 O15 2.679413 1_555
Gd3 O14 2.756320 1_556
Gd4 O16 2.285767 1_555
Gd4 O17 2.302337 1_555
Gd4 O18 2.316243 1_545
Gd4 O11 2.371279 1_555
Gd4 O2 2.383403 1_555
Gd4 O10 2.502220 1_555
Gd4 O8 2.547190 1_555
Gd5 O17 2.285767 1_655
Gd5 O16 2.302337 1_555
Gd5 O19 2.316243 1_555
Gd5 O10 2.371279 1_555
Gd5 O3 2.383403 1_555
Gd5 O11 2.502220 1_655
Gd5 O9 2.547190 1_545
Gd6 O18 2.285767 1_555
Gd6 O19 2.302337 1_555
Gd6 O16 2.316243 1_565
Gd6 O9 2.371279 1_555
Gd6 O0 2.383403 1_555
Gd6 O8 2.502220 1_555
Gd6 O10 2.547190 1_555
Gd7 O19 2.285767 1_455
Gd7 O18 2.302337 1_555
Gd7 O17 2.316243 1_555
Gd7 O8 2.371279 1_555
Gd7 O1 2.383403 1_555
Gd7 O9 2.502220 1_455
Gd7 O11 2.547190 1_565
O0 Si0 1.648702 1_555
O1 Si1 1.648702 1_465
O2 Si2 1.648702 1_555
O3 Si3 1.648702 1_645
O4 Si0 1.624529 1_555
O5 Si1 1.624529 1_455
O6 Si2 1.624529 1_555
O7 Si3 1.624529 1_655
O8 Si0 1.642218 1_555
O9 Si1 1.642218 1_565
O10 Si2 1.642218 1_555
O11 Si3 1.642218 1_545
O12 Si0 1.598239 1_555
O13 Si1 1.598239 1_555
O14 Si2 1.598239 1_555
O15 Si3 1.598239 1_555
