# generated using pymatgen
data_Na2Sr2Al2PO4F9
_symmetry_space_group_name_H-M   'P 1'
_cell_length_a   10.62911200
_cell_length_b   5.33846100
_cell_length_c   18.65512019
_cell_angle_alpha   74.43237180
_cell_angle_beta   90.00000000
_cell_angle_gamma   90.00000000
_symmetry_Int_Tables_number   1
_chemical_formula_structural   Na2Sr2Al2PO4F9
_chemical_formula_sum   'Na8 Sr8 Al8 P4 O16 F36'
_cell_volume   1019.71577839
_cell_formula_units_Z   4
loop_
 _symmetry_equiv_pos_site_id
 _symmetry_equiv_pos_as_xyz
  1  'x, y, z'
loop_
 _atom_site_type_symbol
 _atom_site_label
 _atom_site_symmetry_multiplicity
 _atom_site_fract_x
 _atom_site_fract_y
 _atom_site_fract_z
 _atom_site_occupancy
  Na  Na0  1  0.27984400  0.49862400  0.98115300  1
  Na  Na1  1  0.74294100  0.84458000  0.13184400  1
  Na  Na2  1  0.25705900  0.15542000  0.86815600  1
  Na  Na3  1  0.72015600  0.50137600  0.01884700  1
  Na  Na4  1  0.75705900  0.84458000  0.63184400  1
  Na  Na5  1  0.77984400  0.50137600  0.51884700  1
  Na  Na6  1  0.22015600  0.49862400  0.48115300  1
  Na  Na7  1  0.24294100  0.15542000  0.36815600  1
  Sr  Sr0  1  0.53882600  0.67554400  0.83156300  1
  Sr  Sr1  1  0.46117400  0.32445600  0.16843700  1
  Sr  Sr2  1  0.03882600  0.32445600  0.66843700  1
  Sr  Sr3  1  0.46339000  0.35720000  0.64303100  1
  Sr  Sr4  1  0.03661000  0.35720000  0.14303100  1
  Sr  Sr5  1  0.96339000  0.64280000  0.85696900  1
  Sr  Sr6  1  0.53661000  0.64280000  0.35696900  1
  Sr  Sr7  1  0.96117400  0.67554400  0.33156300  1
  Al  Al0  1  0.75295500  0.21417100  0.24101500  1
  Al  Al1  1  0.50000000  0.00000000  0.00000000  1
  Al  Al2  1  0.74704500  0.21417100  0.74101500  1
  Al  Al3  1  0.00000000  0.00000000  0.50000000  1
  Al  Al4  1  0.25295500  0.78582900  0.25898500  1
  Al  Al5  1  0.24704500  0.78582900  0.75898500  1
  Al  Al6  1  0.00000000  0.00000000  0.00000000  1
  Al  Al7  1  0.50000000  0.00000000  0.50000000  1
  P  P0  1  0.25039300  0.87300400  0.09053000  1
  P  P1  1  0.24960700  0.87300400  0.59053000  1
  P  P2  1  0.75039300  0.12699600  0.40947000  1
  P  P3  1  0.74960700  0.12699600  0.90947000  1
  O  O0  1  0.69837700  0.05449000  0.83898900  1
  O  O1  1  0.82714100  0.97688300  0.47792000  1
  O  O2  1  0.19837700  0.94551000  0.66101100  1
  O  O3  1  0.32714100  0.02311700  0.02208000  1
  O  O4  1  0.25570800  0.57625900  0.10086600  1
  O  O5  1  0.38702300  0.97763500  0.58029600  1
  O  O6  1  0.11297700  0.97763500  0.08029600  1
  O  O7  1  0.24429200  0.57625900  0.60086600  1
  O  O8  1  0.17285900  0.02311700  0.52208000  1
  O  O9  1  0.75570800  0.42374100  0.39913400  1
  O  O10  1  0.74429200  0.42374100  0.89913400  1
  O  O11  1  0.67285900  0.97688300  0.97792000  1
  O  O12  1  0.61297700  0.02236500  0.41970400  1
  O  O13  1  0.80162300  0.05449000  0.33898900  1
  O  O14  1  0.30162300  0.94551000  0.16101100  1
  O  O15  1  0.88702300  0.02236500  0.91970400  1
  F  F0  1  0.78639200  0.35625300  0.64331600  1
  F  F1  1  0.96603400  0.75276400  0.58842700  1
  F  F2  1  0.13537300  0.03994300  0.26032700  1
  F  F3  1  0.28639200  0.64374700  0.85668400  1
  F  F4  1  0.63537300  0.96005700  0.23967300  1
  F  F5  1  0.13086100  0.52630500  0.76760900  1
  F  F6  1  0.36913900  0.52630500  0.26760900  1
  F  F7  1  0.12437600  0.98147600  0.78890700  1
  F  F8  1  0.37562400  0.98147600  0.28890700  1
  F  F9  1  0.03396600  0.24723600  0.41157300  1
  F  F10  1  0.62437600  0.01852400  0.71109300  1
  F  F11  1  0.53396600  0.75276400  0.08842700  1
  F  F12  1  0.09128800  0.27100100  0.93874500  1
  F  F13  1  0.71360800  0.35625300  0.14331600  1
  F  F14  1  0.12491100  0.59314200  0.23628900  1
  F  F15  1  0.46614900  0.75144300  0.95197600  1
  F  F16  1  0.40871200  0.27100100  0.43874500  1
  F  F17  1  0.21360800  0.64374700  0.35668400  1
  F  F18  1  0.59128800  0.72899900  0.56125500  1
  F  F19  1  0.87508900  0.40685800  0.76371100  1
  F  F20  1  0.63086100  0.47369500  0.73239100  1
  F  F21  1  0.96614900  0.24855700  0.54802400  1
  F  F22  1  0.91022900  0.22975400  0.03705100  1
  F  F23  1  0.08977100  0.77024600  0.96294900  1
  F  F24  1  0.62491100  0.40685800  0.26371100  1
  F  F25  1  0.03385100  0.75144300  0.45197600  1
  F  F26  1  0.87562400  0.01852400  0.21109300  1
  F  F27  1  0.90871200  0.72899900  0.06125500  1
  F  F28  1  0.37508900  0.59314200  0.73628900  1
  F  F29  1  0.86913900  0.47369500  0.23239100  1
  F  F30  1  0.36462700  0.03994300  0.76032700  1
  F  F31  1  0.46603400  0.24723600  0.91157300  1
  F  F32  1  0.53385100  0.24855700  0.04802400  1
  F  F33  1  0.58977100  0.22975400  0.53705100  1
  F  F34  1  0.41022900  0.77024600  0.46294900  1
  F  F35  1  0.86462700  0.96005700  0.73967300  1
loop_
_geom_bond_atom_site_label_1
_geom_bond_atom_site_label_2
_geom_bond_distance
_geom_bond_site_symmetry_2
Na0 O4 2.392037 1_556
Na0 O3 2.497845 1_556
Na1 O11 2.865397 1_554
Na2 O3 2.865397 1_556
Na3 O10 2.392037 1_554
Na3 O11 2.497845 1_554
Na4 O1 2.865397 1_555
Na5 O9 2.392037 1_555
Na5 O1 2.497845 1_555
Na6 O7 2.392037 1_555
Na6 O8 2.497845 1_555
Na7 O8 2.865397 1_555
Al0 F24 1.823037 1_555
Al0 F13 1.824838 1_555
Al0 F29 1.830519 1_555
Al0 F26 1.848096 1_555
Al0 F4 1.849632 1_545
Al0 O13 1.870438 1_555
Al1 F15 1.825063 1_544
Al1 F32 1.825063 1_555
Al1 F11 1.850664 1_545
Al1 F31 1.850664 1_554
Al1 O3 1.894199 1_555
Al1 O11 1.894199 1_544
Al2 F19 1.823037 1_555
Al2 F0 1.824838 1_555
Al2 F20 1.830519 1_555
Al2 F10 1.848096 1_555
Al2 F35 1.849632 1_545
Al2 O0 1.870438 1_555
Al3 F21 1.825063 1_455
Al3 F25 1.825063 1_545
Al3 F9 1.850664 1_555
Al3 F1 1.850664 1_445
Al3 O1 1.894199 1_445
Al3 O8 1.894199 1_555
Al4 F14 1.823037 1_555
Al4 F17 1.824838 1_555
Al4 F6 1.830519 1_555
Al4 F8 1.848096 1_555
Al4 F2 1.849632 1_565
Al4 O14 1.870438 1_555
Al5 F28 1.823037 1_555
Al5 F3 1.824838 1_555
Al5 F5 1.830519 1_555
Al5 F7 1.848096 1_555
Al5 F30 1.849632 1_565
Al5 O2 1.870438 1_555
Al6 F23 1.829655 1_544
Al6 F22 1.829655 1_455
Al6 F12 1.858218 1_554
Al6 F27 1.858218 1_445
Al6 O6 1.898444 1_545
Al6 O15 1.898444 1_454
Al7 F33 1.829655 1_555
Al7 F34 1.829655 1_545
Al7 F18 1.858218 1_545
Al7 F16 1.858218 1_555
Al7 O12 1.898444 1_555
Al7 O5 1.898444 1_545
O0 P3 1.564701 1_555
O0 Sr0 2.671727 1_545
O1 P2 1.545636 1_565
O2 P1 1.564701 1_555
O2 Sr2 2.671727 1_565
O3 P0 1.545636 1_545
O4 P0 1.544663 1_555
O4 Sr4 2.629821 1_555
O4 Sr1 2.693688 1_555
O5 P1 1.557110 1_555
O5 Sr3 2.721632 1_565
O6 P0 1.557110 1_555
O6 Sr4 2.721632 1_565
O7 P1 1.544663 1_555
O7 Sr3 2.629821 1_555
O7 Sr2 2.693688 1_555
O8 P1 1.545636 1_545
O9 P2 1.544663 1_555
O9 Sr6 2.629821 1_555
O9 Sr7 2.693688 1_555
O10 P3 1.544663 1_555
O10 Sr5 2.629821 1_555
O10 Sr0 2.693688 1_555
O11 P3 1.545636 1_565
O12 P2 1.557110 1_555
O12 Sr6 2.721632 1_545
O13 P2 1.564701 1_555
O13 Sr7 2.671727 1_545
O14 P0 1.564701 1_555
O14 Sr1 2.671727 1_565
O15 P3 1.557110 1_555
O15 Sr5 2.721632 1_545
F0 Na5 2.243010 1_555
F0 Na4 2.576733 1_555
F0 Sr2 2.721218 1_655
F0 Na4 2.813917 1_545
F1 Na4 2.458287 1_555
F1 Sr2 2.494543 1_655
F2 Na7 2.529680 1_555
F2 Sr4 2.601803 1_555
F2 Sr7 2.755191 1_445
F3 Na0 2.243010 1_555
F3 Na2 2.576733 1_555
F3 Sr0 2.721218 1_555
F3 Na2 2.813917 1_565
F4 Na1 2.529680 1_555
F4 Sr6 2.601803 1_555
F4 Sr1 2.755191 1_565
F5 Sr2 2.571168 1_555
F5 Sr5 2.625039 1_455
F5 Na2 2.691544 1_555
F6 Sr1 2.571168 1_555
F6 Sr6 2.625039 1_555
F6 Na7 2.691544 1_555
F7 Na2 2.402868 1_565
F7 Sr5 2.564538 1_455
F7 Sr2 2.649794 1_565
F8 Na7 2.402868 1_565
F8 Sr6 2.564538 1_555
F8 Sr1 2.649794 1_565
F9 Na7 2.458287 1_555
F9 Sr7 2.494543 1_455
F10 Na4 2.402868 1_545
F10 Sr3 2.564538 1_555
F10 Sr0 2.649794 1_545
F11 Na1 2.458287 1_555
F11 Sr1 2.494543 1_555
F12 Na2 2.378144 1_555
F12 Sr5 2.547484 1_455
F12 Na0 2.575895 1_555
F13 Na3 2.243010 1_555
F13 Na1 2.576733 1_555
F13 Sr1 2.721218 1_555
F13 Na1 2.813917 1_545
F14 Sr4 2.582691 1_555
F14 Sr7 2.607884 1_455
F15 Na0 2.375913 1_555
F15 Sr0 2.509064 1_555
F16 Na7 2.378144 1_555
F16 Sr6 2.547484 1_555
F16 Na6 2.575895 1_555
F17 Na6 2.243010 1_555
F17 Na7 2.576733 1_555
F17 Sr7 2.721218 1_455
F17 Na7 2.813917 1_565
F18 Na4 2.378144 1_555
F18 Sr3 2.547484 1_555
F18 Na5 2.575895 1_555
F19 Sr5 2.582691 1_555
F19 Sr2 2.607884 1_655
F20 Sr0 2.571168 1_555
F20 Sr3 2.625039 1_555
F20 Na4 2.691544 1_555
F21 Na5 2.375913 1_555
F21 Sr2 2.509064 1_655
F22 Na3 2.456681 1_555
F22 Sr4 2.626443 1_655
F22 Na1 2.926644 1_545
F23 Na0 2.456681 1_555
F23 Sr5 2.626443 1_455
F23 Na2 2.926644 1_565
F24 Sr6 2.582691 1_555
F24 Sr1 2.607884 1_555
F25 Na6 2.375913 1_555
F25 Sr7 2.509064 1_455
F26 Na1 2.402868 1_545
F26 Sr4 2.564538 1_655
F26 Sr7 2.649794 1_545
F27 Na1 2.378144 1_555
F27 Sr4 2.547484 1_655
F27 Na3 2.575895 1_555
F28 Sr3 2.582691 1_555
F28 Sr0 2.607884 1_555
F29 Sr7 2.571168 1_555
F29 Sr4 2.625039 1_655
F29 Na1 2.691544 1_555
F30 Na2 2.529680 1_555
F30 Sr3 2.601803 1_555
F30 Sr0 2.755191 1_545
F31 Na2 2.458287 1_555
F31 Sr0 2.494543 1_555
F32 Na3 2.375913 1_555
F32 Sr1 2.509064 1_555
F33 Na5 2.456681 1_555
F33 Sr3 2.626443 1_555
F33 Na4 2.926644 1_545
F34 Na6 2.456681 1_555
F34 Sr6 2.626443 1_555
F34 Na7 2.926644 1_565
F35 Na4 2.529680 1_555
F35 Sr5 2.601803 1_555
F35 Sr2 2.755191 1_665
