# generated using pymatgen
data_Tl2Mo9S11
_symmetry_space_group_name_H-M   'P 1'
_cell_length_a   13.05151890
_cell_length_b   13.05151890
_cell_length_c   13.05151837
_cell_angle_alpha   42.25283464
_cell_angle_beta   42.25283464
_cell_angle_gamma   42.25283617
_symmetry_Int_Tables_number   1
_chemical_formula_structural   Tl2Mo9S11
_chemical_formula_sum   'Tl4 Mo18 S22'
_cell_volume   909.71598012
_cell_formula_units_Z   2
loop_
 _symmetry_equiv_pos_site_id
 _symmetry_equiv_pos_as_xyz
  1  'x, y, z'
loop_
 _atom_site_type_symbol
 _atom_site_label
 _atom_site_symmetry_multiplicity
 _atom_site_fract_x
 _atom_site_fract_y
 _atom_site_fract_z
 _atom_site_occupancy
  Tl  Tl0  1  0.33219100  0.33219100  0.33219100  1
  Tl  Tl1  1  0.77012200  0.77012200  0.77012200  1
  Tl  Tl2  1  0.22987800  0.22987800  0.22987800  1
  Tl  Tl3  1  0.66780900  0.66780900  0.66780900  1
  Mo  Mo0  1  0.54673300  0.69411300  0.35775400  1
  Mo  Mo1  1  0.25251000  0.92378100  0.11094800  1
  Mo  Mo2  1  0.87039300  0.20164300  0.01998200  1
  Mo  Mo3  1  0.88905200  0.74749000  0.07621900  1
  Mo  Mo4  1  0.64224600  0.45326700  0.30588700  1
  Mo  Mo5  1  0.12960700  0.79835700  0.98001800  1
  Mo  Mo6  1  0.20164300  0.01998200  0.87039300  1
  Mo  Mo7  1  0.01998200  0.87039300  0.20164300  1
  Mo  Mo8  1  0.07621900  0.88905200  0.74749000  1
  Mo  Mo9  1  0.79835700  0.98001800  0.12960700  1
  Mo  Mo10  1  0.92378100  0.11094800  0.25251000  1
  Mo  Mo11  1  0.98001800  0.12960700  0.79835700  1
  Mo  Mo12  1  0.35775400  0.54673300  0.69411300  1
  Mo  Mo13  1  0.69411300  0.35775400  0.54673300  1
  Mo  Mo14  1  0.30588700  0.64224600  0.45326700  1
  Mo  Mo15  1  0.74749000  0.07621900  0.88905200  1
  Mo  Mo16  1  0.11094800  0.25251000  0.92378100  1
  Mo  Mo17  1  0.45326700  0.30588700  0.64224600  1
  S  S0  1  0.58436300  0.58436300  0.58436300  1
  S  S1  1  0.40271800  0.06313600  0.80079100  1
  S  S2  1  0.93686400  0.19920900  0.59728200  1
  S  S3  1  0.94891600  0.67261300  0.28176200  1
  S  S4  1  0.84035700  0.49724900  0.24217500  1
  S  S5  1  0.80079100  0.40271800  0.06313600  1
  S  S6  1  0.32738700  0.71823800  0.05108400  1
  S  S7  1  0.41563700  0.41563700  0.41563700  1
  S  S8  1  0.85275400  0.85275400  0.85275400  1
  S  S9  1  0.24217500  0.84035700  0.49724900  1
  S  S10  1  0.06313600  0.80079100  0.40271800  1
  S  S11  1  0.28176200  0.94891600  0.67261300  1
  S  S12  1  0.59728200  0.93686400  0.19920900  1
  S  S13  1  0.14724600  0.14724600  0.14724600  1
  S  S14  1  0.75782500  0.15964300  0.50275100  1
  S  S15  1  0.15964300  0.50275100  0.75782500  1
  S  S16  1  0.49724900  0.24217500  0.84035700  1
  S  S17  1  0.67261300  0.28176200  0.94891600  1
  S  S18  1  0.05108400  0.32738700  0.71823800  1
  S  S19  1  0.71823800  0.05108400  0.32738700  1
  S  S20  1  0.19920900  0.59728200  0.93686400  1
  S  S21  1  0.50275100  0.75782500  0.15964300  1
loop_
_geom_bond_atom_site_label_1
_geom_bond_atom_site_label_2
_geom_bond_distance
_geom_bond_site_symmetry_2
Mo0 S0 2.424395 1_555
Mo0 S9 2.440805 1_555
Mo0 S21 2.452400 1_555
Mo0 S12 2.474496 1_555
Mo0 S4 2.483293 1_555
Mo1 S13 2.401751 1_565
Mo1 S10 2.465309 1_555
Mo1 S1 2.483738 1_564
Mo1 S21 2.514940 1_555
Mo1 S6 2.617940 1_555
Mo2 S5 2.435386 1_555
Mo2 S18 2.485386 1_654
Mo2 S19 2.492559 1_555
Mo2 S17 2.594165 1_554
Mo3 S8 2.401751 1_554
Mo3 S12 2.465309 1_555
Mo3 S20 2.483738 1_654
Mo3 S4 2.514940 1_555
Mo3 S3 2.617940 1_555
Mo4 S7 2.424395 1_555
Mo4 S21 2.440805 1_555
Mo4 S4 2.452400 1_555
Mo4 S5 2.474496 1_555
Mo4 S14 2.483293 1_555
Mo5 S20 2.435386 1_555
Mo5 S3 2.485386 1_456
Mo5 S11 2.492559 1_555
Mo5 S6 2.594165 1_556
Mo6 S1 2.435386 1_555
Mo6 S6 2.485386 1_546
Mo6 S18 2.492559 1_555
Mo6 S11 2.594165 1_545
Mo7 S10 2.435385 1_555
Mo7 S19 2.485386 1_465
Mo7 S6 2.492559 1_555
Mo7 S3 2.594165 1_455
Mo8 S8 2.401751 1_455
Mo8 S20 2.465309 1_555
Mo8 S2 2.483738 1_465
Mo8 S9 2.514940 1_555
Mo8 S11 2.617940 1_555
Mo9 S12 2.435386 1_555
Mo9 S17 2.485386 1_564
Mo9 S3 2.492559 1_555
Mo9 S19 2.594165 1_565
Mo10 S13 2.401751 1_655
Mo10 S5 2.465309 1_555
Mo10 S10 2.483738 1_645
Mo10 S14 2.514940 1_555
Mo10 S19 2.617940 1_555
Mo11 S2 2.435385 1_555
Mo11 S11 2.485386 1_645
Mo11 S17 2.492559 1_555
Mo11 S18 2.594165 1_655
Mo12 S0 2.424395 1_555
Mo12 S16 2.440805 1_555
Mo12 S15 2.452400 1_555
Mo12 S20 2.474496 1_555
Mo12 S9 2.483293 1_555
Mo13 S0 2.424395 1_555
Mo13 S4 2.440805 1_555
Mo13 S14 2.452400 1_555
Mo13 S2 2.474496 1_555
Mo13 S16 2.483293 1_555
Mo14 S7 2.424395 1_555
Mo14 S15 2.440805 1_555
Mo14 S9 2.452400 1_555
Mo14 S10 2.474496 1_555
Mo14 S21 2.483293 1_555
Mo15 S8 2.401751 1_545
Mo15 S2 2.465309 1_555
Mo15 S12 2.483738 1_546
Mo15 S16 2.514940 1_555
Mo15 S17 2.617940 1_555
Mo16 S13 2.401751 1_556
Mo16 S1 2.465309 1_555
Mo16 S5 2.483738 1_456
Mo16 S15 2.514940 1_555
Mo16 S18 2.617940 1_555
Mo17 S7 2.424395 1_555
Mo17 S14 2.440805 1_555
Mo17 S16 2.452400 1_555
Mo17 S1 2.474496 1_555
Mo17 S15 2.483293 1_555
S0 Tl3 2.970882 1_555
S1 Tl1 3.171213 1_545
S2 Tl2 3.171213 1_655
S5 Tl1 3.171213 1_554
S7 Tl0 2.970882 1_555
S8 Tl1 2.941902 1_555
S10 Tl1 3.171213 1_455
S12 Tl2 3.171213 1_565
S13 Tl2 2.941902 1_555
S20 Tl2 3.171213 1_556
