# generated using pymatgen
data_Y5Ga3
_symmetry_space_group_name_H-M   'P 1'
_cell_length_a   8.62571801
_cell_length_b   8.62572399
_cell_length_c   6.59151040
_cell_angle_alpha   90.00003562
_cell_angle_beta   89.99996052
_cell_angle_gamma   119.99847266
_symmetry_Int_Tables_number   1
_chemical_formula_structural   Y5Ga3
_chemical_formula_sum   'Y10 Ga6'
_cell_volume   424.73013011
_cell_formula_units_Z   2
loop_
 _symmetry_equiv_pos_site_id
 _symmetry_equiv_pos_as_xyz
  1  'x, y, z'
loop_
 _atom_site_type_symbol
 _atom_site_label
 _atom_site_symmetry_multiplicity
 _atom_site_fract_x
 _atom_site_fract_y
 _atom_site_fract_z
 _atom_site_occupancy
  Y  Y0  1  0.33333640  0.66666333  -0.00000017  1
  Y  Y1  1  0.66666379  0.33333665  0.50000005  1
  Y  Y2  1  0.66666366  0.33333680  -0.00000005  1
  Y  Y3  1  0.33333633  0.66666346  0.50000019  1
  Y  Y4  1  0.25473602  0.00001399  0.24999999  1
  Y  Y5  1  0.25472884  0.25472196  0.74999983  1
  Y  Y6  1  0.99998592  0.74526405  0.74999970  1
  Y  Y7  1  0.00000695  0.25473434  0.24999957  1
  Y  Y8  1  0.74527826  0.74527097  0.25000018  1
  Y  Y9  1  0.74526529  -0.00000676  0.75000008  1
  Ga  Ga0  1  0.60728858  0.00002950  0.24999964  1
  Ga  Ga1  1  0.60726225  0.60726132  0.74999947  1
  Ga  Ga2  1  -0.00002944  0.39271144  0.74999998  1
  Ga  Ga3  1  0.00003388  0.60729520  0.25000013  1
  Ga  Ga4  1  0.39273871  0.39273795  0.25000032  1
  Ga  Ga5  1  0.39270457  -0.00003420  0.75000011  1
loop_
_geom_bond_atom_site_label_1
_geom_bond_atom_site_label_2
_geom_bond_distance
_geom_bond_site_symmetry_2
Ga0 Y7 2.976556 1_655
Ga0 Y8 2.976755 1_545
Ga0 Y4 3.040952 1_555
Ga0 Y1 3.125882 1_555
Ga0 Y2 3.125882 1_555
Ga0 Y0 3.126247 1_545
Ga0 Y3 3.126249 1_545
Ga0 Y9 3.504112 1_554
Ga0 Y9 3.504119 1_555
Ga1 Y6 2.976588 1_555
Ga1 Y9 2.976656 1_565
Ga1 Y5 3.040951 1_555
Ga1 Y1 3.125929 1_555
Ga1 Y2 3.125933 1_556
Ga1 Y3 3.125941 1_555
Ga1 Y0 3.125941 1_556
Ga1 Y8 3.504173 1_555
Ga1 Y8 3.504182 1_556
Ga2 Y9 2.976557 1_455
Ga2 Y5 2.976751 1_555
Ga2 Y6 3.040955 1_455
Ga2 Y2 3.125878 1_456
Ga2 Y1 3.125878 1_455
Ga2 Y3 3.126244 1_555
Ga2 Y0 3.126244 1_556
Ga2 Y7 3.504116 1_556
Ga2 Y7 3.504119 1_555
Ga3 Y4 2.976556 1_565
Ga3 Y8 2.976639 1_455
Ga3 Y7 3.040977 1_555
Ga3 Y0 3.125864 1_555
Ga3 Y3 3.125864 1_555
Ga3 Y1 3.126281 1_455
Ga3 Y2 3.126283 1_455
Ga3 Y6 3.504107 1_455
Ga3 Y6 3.504114 1_454
Ga4 Y4 2.976592 1_555
Ga4 Y7 2.976652 1_555
Ga4 Y8 3.040950 1_555
Ga4 Y2 3.125931 1_555
Ga4 Y1 3.125932 1_555
Ga4 Y3 3.125940 1_555
Ga4 Y0 3.125943 1_555
Ga4 Y5 3.504175 1_555
Ga4 Y5 3.504181 1_554
Ga5 Y6 2.976553 1_445
Ga5 Y5 2.976643 1_555
Ga5 Y9 3.040971 1_555
Ga5 Y3 3.125863 1_545
Ga5 Y0 3.125865 1_546
Ga5 Y2 3.126287 1_556
Ga5 Y1 3.126288 1_555
Ga5 Y4 3.504108 1_556
Ga5 Y4 3.504111 1_555
