# generated using pymatgen
data_CsAlBP2HO9
_symmetry_space_group_name_H-M   'P 1'
_cell_length_a   8.70658616
_cell_length_b   9.26900314
_cell_length_c   9.47240890
_cell_angle_alpha   75.43276966
_cell_angle_beta   90.00000000
_cell_angle_gamma   90.00000000
_symmetry_Int_Tables_number   1
_chemical_formula_structural   CsAlBP2HO9
_chemical_formula_sum   'Cs4 Al4 B4 P8 H4 O36'
_cell_volume   739.86221863
_cell_formula_units_Z   4
loop_
 _symmetry_equiv_pos_site_id
 _symmetry_equiv_pos_as_xyz
  1  'x, y, z'
loop_
 _atom_site_type_symbol
 _atom_site_label
 _atom_site_symmetry_multiplicity
 _atom_site_fract_x
 _atom_site_fract_y
 _atom_site_fract_z
 _atom_site_occupancy
  Cs  Cs0  1  0.61788879  0.30557341  0.55679612  1
  Cs  Cs1  1  0.11788879  0.69442659  0.94320388  1
  Cs  Cs2  1  0.38211121  0.69442659  0.44320388  1
  Cs  Cs3  1  0.88211121  0.30557341  0.05679612  1
  Al  Al0  1  0.15350954  0.30276623  0.42844803  1
  Al  Al1  1  0.65350954  0.69723377  0.07155197  1
  Al  Al2  1  0.84649046  0.69723377  0.57155197  1
  Al  Al3  1  0.34649046  0.30276623  0.92844803  1
  B  B0  1  0.96570817  0.15720492  0.70209041  1
  B  B1  1  0.46570817  0.84279508  0.79790959  1
  B  B2  1  0.03429183  0.84279508  0.29790959  1
  B  B3  1  0.53429183  0.15720492  0.20209041  1
  P  P0  1  0.07262355  0.42938400  0.70147630  1
  P  P1  1  0.57262355  0.57061600  0.79852370  1
  P  P2  1  0.92737645  0.57061600  0.29852370  1
  P  P3  1  0.42737645  0.42938400  0.20147630  1
  P  P4  1  0.77235110  0.91113832  0.78146546  1
  P  P5  1  0.27235110  0.08886168  0.71853454  1
  P  P6  1  0.22764890  0.08886168  0.21853454  1
  P  P7  1  0.72764890  0.91113832  0.28146546  1
  H  H0  1  0.94740467  0.10735373  0.50018089  1
  H  H1  1  0.44740467  0.89264627  -0.00018089  1
  H  H2  1  0.05259533  0.89264627  0.49981911  1
  H  H3  1  0.55259533  0.10735373  0.00018089  1
  O  O0  1  0.94947025  0.30079035  0.73671018  1
  O  O1  1  0.44947025  0.69920965  0.76328982  1
  O  O2  1  0.05052975  0.69920965  0.26328982  1
  O  O3  1  0.55052975  0.30079035  0.23671018  1
  O  O4  1  0.10167509  0.07247393  0.76936329  1
  O  O5  1  0.60167509  0.92752607  0.73063671  1
  O  O6  1  0.89832491  0.92752607  0.23063671  1
  O  O7  1  0.39832491  0.07247393  0.26936329  1
  O  O8  1  0.18075097  0.40422121  0.83127216  1
  O  O9  1  0.68075097  0.59577879  0.66872784  1
  O  O10  1  0.81924903  0.59577879  0.16872784  1
  O  O11  1  0.31924903  0.40422121  0.33127216  1
  O  O12  1  0.82637797  0.07515674  0.75620603  1
  O  O13  1  0.32637797  0.92484326  0.74379397  1
  O  O14  1  0.17362203  0.92484326  0.24379397  1
  O  O15  1  0.67362203  0.07515674  0.25620603  1
  O  O16  1  0.78197924  0.83580641  0.94195870  1
  O  O17  1  0.28197924  0.16419359  0.55804130  1
  O  O18  1  0.21802076  0.16419359  0.05804130  1
  O  O19  1  0.71802076  0.83580641  0.44195870  1
  O  O20  1  0.86736883  0.83621661  0.68651128  1
  O  O21  1  0.36736883  0.16378339  0.81348872  1
  O  O22  1  0.13263117  0.16378339  0.31348872  1
  O  O23  1  0.63263117  0.83621661  0.18651128  1
  O  O24  1  0.98881145  0.57448921  0.69180566  1
  O  O25  1  0.48881145  0.42551079  0.80819434  1
  O  O26  1  0.01118855  0.42551079  0.30819434  1
  O  O27  1  0.51118855  0.57448921  0.19180566  1
  O  O28  1  0.15405887  0.42255067  0.56165738  1
  O  O29  1  0.65405887  0.57744933  0.93834262  1
  O  O30  1  0.84594113  0.57744933  0.43834262  1
  O  O31  1  0.34594113  0.42255067  0.06165738  1
  O  O32  1  0.97528323  0.18996486  0.53981844  1
  O  O33  1  0.47528323  0.81003514  0.96018156  1
  O  O34  1  0.02471677  0.81003514  0.46018156  1
  O  O35  1  0.52471677  0.18996486  0.03981844  1
loop_
_geom_bond_atom_site_label_1
_geom_bond_atom_site_label_2
_geom_bond_distance
_geom_bond_site_symmetry_2
Cs0 O12 3.065128 1_555
Cs0 O25 3.082428 1_555
Cs0 O3 3.099429 1_555
Cs0 O9 3.177107 1_555
Cs0 O30 3.182696 1_555
Cs0 O17 3.203604 1_555
Cs0 O21 3.284733 1_555
Cs0 O32 3.308083 1_555
Cs0 O11 3.343316 1_555
Cs0 O0 3.347052 1_555
Cs0 O5 3.479625 1_545
Cs1 O13 3.065128 1_555
Cs1 O24 3.082428 1_455
Cs1 O2 3.099429 1_556
Cs1 O8 3.177107 1_555
Cs1 O31 3.182696 1_556
Cs1 O16 3.203604 1_455
Cs1 O20 3.284733 1_455
Cs1 O33 3.308083 1_555
Cs1 O10 3.343316 1_456
Cs1 O1 3.347052 1_555
Cs1 O4 3.479625 1_565
Cs2 O14 3.065128 1_555
Cs2 O27 3.082428 1_555
Cs2 O1 3.099429 1_555
Cs2 O11 3.177107 1_555
Cs2 O28 3.182696 1_555
Cs2 O19 3.203604 1_555
Cs2 O23 3.284733 1_555
Cs2 O34 3.308083 1_555
Cs2 O9 3.343316 1_555
Cs2 O2 3.347052 1_555
Cs2 O7 3.479625 1_565
Cs3 O15 3.065128 1_555
Cs3 O26 3.082428 1_655
Cs3 O0 3.099429 1_554
Cs3 O10 3.177107 1_555
Cs3 O29 3.182696 1_554
Cs3 O18 3.203604 1_655
Cs3 O22 3.284733 1_655
Cs3 O35 3.308083 1_555
Cs3 O8 3.343316 1_654
Cs3 O3 3.347052 1_555
Cs3 O6 3.479625 1_545
Al0 O11 1.838074 1_555
Al0 O26 1.864261 1_555
Al0 O28 1.878738 1_555
Al0 O22 1.893156 1_555
Al0 O17 1.901221 1_555
Al0 O32 2.014735 1_455
Al1 O10 1.838074 1_555
Al1 O27 1.864261 1_555
Al1 O29 1.878738 1_554
Al1 O23 1.893156 1_555
Al1 O16 1.901221 1_554
Al1 O33 2.014735 1_554
Al2 O9 1.838074 1_555
Al2 O24 1.864261 1_555
Al2 O30 1.878738 1_555
Al2 O20 1.893156 1_555
Al2 O19 1.901221 1_555
Al2 O34 2.014735 1_655
Al3 O8 1.838074 1_555
Al3 O25 1.864261 1_555
Al3 O31 1.878738 1_556
Al3 O21 1.893156 1_555
Al3 O18 1.901221 1_556
Al3 O35 2.014735 1_556
B0 O12 1.454860 1_555
B0 O0 1.455455 1_555
B0 O4 1.473950 1_655
B0 O32 1.492335 1_555
B1 O13 1.454860 1_555
B1 O1 1.455455 1_555
B1 O5 1.473950 1_555
B1 O33 1.492335 1_555
B2 O14 1.454860 1_555
B2 O2 1.455455 1_555
B2 O6 1.473950 1_455
B2 O34 1.492335 1_555
B3 O15 1.454860 1_555
B3 O3 1.455455 1_555
B3 O7 1.473950 1_555
B3 O35 1.492335 1_555
H0 O32 0.964802 1_555
H1 O33 0.964802 1_554
H2 O34 0.964802 1_555
H3 O35 0.964802 1_555
O0 P0 1.575340 1_655
O1 P1 1.575340 1_555
O2 P2 1.575340 1_455
O3 P3 1.575340 1_555
O4 P5 1.557662 1_555
O5 P4 1.557662 1_555
O6 P7 1.557662 1_555
O7 P6 1.557662 1_555
O8 P0 1.519225 1_555
O9 P1 1.519225 1_555
O10 P2 1.519225 1_555
O11 P3 1.519225 1_555
O12 P4 1.551389 1_545
O13 P5 1.551389 1_565
O14 P6 1.551389 1_565
O15 P7 1.551389 1_545
O16 P4 1.507245 1_555
O17 P5 1.507245 1_555
O18 P6 1.507245 1_555
O19 P7 1.507245 1_555
O20 P4 1.513227 1_555
O21 P5 1.513227 1_555
O22 P6 1.513227 1_555
O23 P7 1.513227 1_555
O24 P0 1.512572 1_655
O25 P1 1.512572 1_555
O26 P2 1.512572 1_455
O27 P3 1.512572 1_555
O28 P0 1.517570 1_555
O29 P1 1.517570 1_555
O30 P2 1.517570 1_555
O31 P3 1.517570 1_555
