# generated using pymatgen
data_Ba2YbBiO6
_symmetry_space_group_name_H-M   'P 1'
_cell_length_a   10.44998407
_cell_length_b   8.55501696
_cell_length_c   6.04011787
_cell_angle_alpha   134.95086699
_cell_angle_beta   149.94500973
_cell_angle_gamma   35.27178252
_symmetry_Int_Tables_number   1
_chemical_formula_structural   Ba2YbBiO6
_chemical_formula_sum   'Ba2 Yb1 Bi1 O6'
_cell_volume   156.16784789
_cell_formula_units_Z   1
loop_
 _symmetry_equiv_pos_site_id
 _symmetry_equiv_pos_as_xyz
  1  'x, y, z'
loop_
 _atom_site_type_symbol
 _atom_site_label
 _atom_site_symmetry_multiplicity
 _atom_site_fract_x
 _atom_site_fract_y
 _atom_site_fract_z
 _atom_site_occupancy
  Ba  Ba0  1  0.49928676  0.75063030  0.00012430  1
  Ba  Ba1  1  0.50071324  0.24936970  0.99987570  1
  Yb  Yb0  1  0.00000000  0.50000000  0.00000000  1
  Bi  Bi0  1  0.00000000  0.00000000  0.00000000  1
  O  O0  1  0.96833421  0.75796898  0.94442531  1
  O  O1  1  0.49196311  0.72188334  0.45732090  1
  O  O2  1  0.96666014  0.78302744  0.47459989  1
  O  O3  1  0.03166579  0.24203102  0.05557469  1
  O  O4  1  0.50803689  0.27811666  0.54267910  1
  O  O5  1  0.03333986  0.21697256  0.52540011  1
loop_
_geom_bond_atom_site_label_1
_geom_bond_atom_site_label_2
_geom_bond_distance
_geom_bond_site_symmetry_2
Ba0 O4 2.834636 1_554
Ba0 O5 2.850101 1_564
Ba0 O0 2.856878 1_555
Ba0 O3 2.994070 1_565
Ba0 O2 3.000281 1_555
Ba0 O1 3.008082 1_555
Ba0 O2 3.045042 1_454
Ba0 O1 3.045093 1_554
Ba0 O3 3.050075 1_655
Ba0 O0 3.193835 1_453
Ba0 O5 3.204322 1_655
Ba0 O4 3.220371 1_565
Ba1 O1 2.834636 1_556
Ba1 O2 2.850101 1_546
Ba1 O3 2.856878 1_555
Ba1 O0 2.994070 1_545
Ba1 O5 3.000281 1_555
Ba1 O4 3.008082 1_555
Ba1 O5 3.045042 1_656
Ba1 O4 3.045093 1_556
Ba1 O0 3.050075 1_455
Ba1 O3 3.193835 1_657
Ba1 O2 3.204322 1_455
Ba1 O1 3.220371 1_545
Bi0 O1 2.109946 1_545
Bi0 O4 2.109946 1_454
Bi0 O3 2.110418 1_555
Bi0 O0 2.110418 1_444
Bi0 O2 2.111016 1_444
Bi0 O5 2.111016 1_555
O0 Yb0 2.180540 1_656
O1 Yb0 2.178287 1_656
O2 Yb0 2.178426 1_655
O3 Yb0 2.180540 1_555
O4 Yb0 2.178287 1_555
O5 Yb0 2.178426 1_556
