# generated using pymatgen
data_NaTa4O8
_symmetry_space_group_name_H-M   'P 1'
_cell_length_a   7.17049300
_cell_length_b   10.37701400
_cell_length_c   13.06583000
_cell_angle_alpha   90.00000000
_cell_angle_beta   90.00000000
_cell_angle_gamma   90.00000000
_symmetry_Int_Tables_number   1
_chemical_formula_structural   NaTa4O8
_chemical_formula_sum   'Na6 Ta24 O48'
_cell_volume   972.20628002
_cell_formula_units_Z   6
loop_
 _symmetry_equiv_pos_site_id
 _symmetry_equiv_pos_as_xyz
  1  'x, y, z'
loop_
 _atom_site_type_symbol
 _atom_site_label
 _atom_site_symmetry_multiplicity
 _atom_site_fract_x
 _atom_site_fract_y
 _atom_site_fract_z
 _atom_site_occupancy
  Na  Na0  1  0.00000000  0.50000000  0.00705900  1
  Na  Na1  1  0.00000000  0.50000000  0.24008500  1
  Na  Na2  1  0.50000000  0.00000000  0.47485200  1
  Na  Na3  1  0.00000000  0.50000000  0.52514800  1
  Na  Na4  1  0.50000000  0.00000000  0.75991500  1
  Na  Na5  1  0.50000000  0.00000000  0.99294100  1
  Ta  Ta0  1  0.00000000  0.00000000  0.22845100  1
  Ta  Ta1  1  0.00000000  0.00000000  0.52339200  1
  Ta  Ta2  1  0.00000000  0.00000000  0.72639300  1
  Ta  Ta3  1  0.50000000  0.50000000  0.77154900  1
  Ta  Ta4  1  0.26784800  0.71712700  0.87393100  1
  Ta  Ta5  1  0.26784800  0.28287300  0.87393100  1
  Ta  Ta6  1  0.50000000  0.50000000  0.97636600  1
  Ta  Ta7  1  0.00000000  0.00000000  0.02363400  1
  Ta  Ta8  1  0.23215200  0.78287300  0.12606900  1
  Ta  Ta9  1  0.76784800  0.78287300  0.12606900  1
  Ta  Ta10  1  0.50000000  0.50000000  0.27360700  1
  Ta  Ta11  1  0.26966400  0.71890900  0.37461400  1
  Ta  Ta12  1  0.26966400  0.28109100  0.37461400  1
  Ta  Ta13  1  0.50000000  0.50000000  0.47660800  1
  Ta  Ta14  1  0.23033600  0.21890900  0.62538600  1
  Ta  Ta15  1  0.76966400  0.21890900  0.62538600  1
  Ta  Ta16  1  0.76966400  0.78109100  0.62538600  1
  Ta  Ta17  1  0.23033600  0.78109100  0.62538600  1
  Ta  Ta18  1  0.73215200  0.71712700  0.87393100  1
  Ta  Ta19  1  0.73215200  0.28287300  0.87393100  1
  Ta  Ta20  1  0.23215200  0.21712700  0.12606900  1
  Ta  Ta21  1  0.76784800  0.21712700  0.12606900  1
  Ta  Ta22  1  0.73033600  0.71890900  0.37461400  1
  Ta  Ta23  1  0.73033600  0.28109100  0.37461400  1
  O  O0  1  0.30799800  0.36442600  0.51390100  1
  O  O1  1  0.00000000  0.32004500  0.62454900  1
  O  O2  1  0.31192600  0.36196000  0.73575700  1
  O  O3  1  0.00000000  0.32758800  0.87781400  1
  O  O4  1  0.30791200  0.63517100  0.01292400  1
  O  O5  1  0.30791200  0.36482900  0.01292400  1
  O  O6  1  0.50000000  0.82758800  0.12218600  1
  O  O7  1  0.00000000  0.32236500  0.12402500  1
  O  O8  1  0.30733400  0.63491800  0.23580600  1
  O  O9  1  0.18807400  0.13804000  0.26424300  1
  O  O10  1  0.81192600  0.13804000  0.26424300  1
  O  O11  1  0.30733400  0.36508200  0.23580600  1
  O  O12  1  0.81192600  0.86196000  0.26424300  1
  O  O13  1  0.18807400  0.86196000  0.26424300  1
  O  O14  1  0.50000000  0.17995500  0.37545100  1
  O  O15  1  0.50000000  0.82004500  0.37545100  1
  O  O16  1  0.00000000  0.33391500  0.37623400  1
  O  O17  1  0.80799800  0.13557400  0.48609900  1
  O  O18  1  0.19200200  0.13557400  0.48609900  1
  O  O19  1  0.19200200  0.86442600  0.48609900  1
  O  O20  1  0.80799800  0.86442600  0.48609900  1
  O  O21  1  0.69200200  0.36442600  0.51390100  1
  O  O22  1  0.30799800  0.63557400  0.51390100  1
  O  O23  1  0.50000000  0.16608500  0.62376600  1
  O  O24  1  0.50000000  0.83391500  0.62376600  1
  O  O25  1  0.68807400  0.36196000  0.73575700  1
  O  O26  1  0.31192600  0.63804000  0.73575700  1
  O  O27  1  0.80733400  0.13491800  0.76419400  1
  O  O28  1  0.19266600  0.13491800  0.76419400  1
  O  O29  1  0.19266600  0.86508200  0.76419400  1
  O  O30  1  0.80733400  0.86508200  0.76419400  1
  O  O31  1  0.00000000  0.67241200  0.87781400  1
  O  O32  1  0.50000000  0.17763500  0.87597500  1
  O  O33  1  0.50000000  0.82236500  0.87597500  1
  O  O34  1  0.80791200  0.13517100  0.98707600  1
  O  O35  1  0.19208800  0.13517100  0.98707600  1
  O  O36  1  0.69208800  0.63517100  0.01292400  1
  O  O37  1  0.19208800  0.86482900  0.98707600  1
  O  O38  1  0.80791200  0.86482900  0.98707600  1
  O  O39  1  0.69208800  0.36482900  0.01292400  1
  O  O40  1  0.00000000  0.67763500  0.12402500  1
  O  O41  1  0.50000000  0.17241200  0.12218600  1
  O  O42  1  0.69266600  0.63491800  0.23580600  1
  O  O43  1  0.69266600  0.36508200  0.23580600  1
  O  O44  1  0.00000000  0.66608500  0.37623400  1
  O  O45  1  0.69200200  0.63557400  0.51390100  1
  O  O46  1  0.00000000  0.67995500  0.62454900  1
  O  O47  1  0.68807400  0.63804000  0.73575700  1
loop_
_geom_bond_atom_site_label_1
_geom_bond_atom_site_label_2
_geom_bond_distance
_geom_bond_site_symmetry_2
Na0 O7 2.394453 1_555
Na0 O40 2.394453 1_555
Na0 O31 2.460212 1_554
Na0 O3 2.460212 1_554
Na0 O4 2.616887 1_555
Na0 O5 2.616887 1_555
Na0 O36 2.616887 1_455
Na0 O39 2.616887 1_455
Na1 O7 2.386915 1_555
Na1 O40 2.386915 1_555
Na1 O44 2.476857 1_555
Na1 O16 2.476857 1_555
Na1 O42 2.611457 1_455
Na1 O8 2.611457 1_555
Na1 O43 2.611457 1_455
Na1 O11 2.611457 1_555
Na2 O14 2.274628 1_555
Na2 O15 2.274628 1_545
Na2 O23 2.599236 1_555
Na2 O24 2.599236 1_545
Na2 O17 2.622650 1_555
Na2 O20 2.622650 1_545
Na2 O18 2.622650 1_555
Na2 O19 2.622650 1_545
Na3 O46 2.274628 1_555
Na3 O1 2.274628 1_555
Na3 O44 2.599236 1_555
Na3 O16 2.599236 1_555
Na3 O45 2.622650 1_455
Na3 O22 2.622650 1_555
Na3 O0 2.622650 1_555
Na3 O21 2.622650 1_455
Na4 O33 2.386915 1_545
Na4 O32 2.386915 1_555
Na4 O23 2.476857 1_555
Na4 O24 2.476857 1_545
Na4 O27 2.611457 1_555
Na4 O28 2.611457 1_555
Na4 O29 2.611457 1_545
Na4 O30 2.611457 1_545
Na5 O33 2.394453 1_545
Na5 O32 2.394453 1_555
Na5 O41 2.460212 1_556
Na5 O6 2.460212 1_546
Na5 O34 2.616887 1_555
Na5 O38 2.616887 1_545
Na5 O35 2.616887 1_555
Na5 O37 2.616887 1_545
O0 Ta13 2.027831 1_555
O0 Ta12 2.033572 1_555
O0 Ta14 2.170741 1_555
O1 Ta14 1.956887 1_555
O1 Ta15 1.956887 1_455
O2 Ta5 2.008168 1_555
O2 Ta3 2.022194 1_555
O2 Ta14 2.150689 1_555
O3 Ta5 1.976510 1_555
O3 Ta19 1.976510 1_455
O4 Ta6 2.023063 1_554
O4 Ta4 2.025803 1_554
O4 Ta8 2.197672 1_555
O5 Ta6 2.023063 1_554
O5 Ta5 2.025803 1_554
O5 Ta20 2.197672 1_555
O6 Ta9 1.976510 1_555
O6 Ta8 1.976510 1_555
O7 Ta21 1.991065 1_455
O7 Ta20 1.991065 1_555
O8 Ta10 2.027964 1_555
O8 Ta11 2.030247 1_555
O8 Ta8 2.168792 1_555
O9 Ta20 2.008168 1_555
O9 Ta0 2.022194 1_555
O9 Ta12 2.150689 1_555
O10 Ta21 2.008168 1_555
O10 Ta0 2.022194 1_655
O10 Ta23 2.150689 1_555
O11 Ta10 2.027964 1_555
O11 Ta12 2.030247 1_555
O11 Ta20 2.168792 1_555
O12 Ta9 2.008168 1_555
O12 Ta0 2.022194 1_665
O12 Ta22 2.150689 1_555
O13 Ta8 2.008168 1_555
O13 Ta0 2.022194 1_565
O13 Ta11 2.150689 1_555
O14 Ta12 1.956887 1_555
O14 Ta23 1.956887 1_555
O15 Ta11 1.956887 1_555
O15 Ta22 1.956887 1_555
O16 Ta12 2.009931 1_555
O16 Ta23 2.009931 1_455
O17 Ta1 2.027831 1_655
O17 Ta15 2.033572 1_555
O17 Ta23 2.170741 1_555
O18 Ta1 2.027831 1_555
O18 Ta14 2.033572 1_555
O18 Ta12 2.170741 1_555
O19 Ta1 2.027831 1_565
O19 Ta17 2.033572 1_555
O19 Ta11 2.170741 1_555
O20 Ta1 2.027831 1_665
O20 Ta16 2.033572 1_555
O20 Ta22 2.170741 1_555
O21 Ta13 2.027831 1_555
O21 Ta23 2.033572 1_555
O21 Ta15 2.170741 1_555
O22 Ta13 2.027831 1_555
O22 Ta11 2.033572 1_555
O22 Ta17 2.170741 1_555
O23 Ta15 2.009931 1_555
O23 Ta14 2.009931 1_555
O24 Ta16 2.009931 1_555
O24 Ta17 2.009931 1_555
O25 Ta19 2.008168 1_555
O25 Ta3 2.022194 1_555
O25 Ta15 2.150689 1_555
O26 Ta4 2.008168 1_555
O26 Ta3 2.022194 1_555
O26 Ta17 2.150689 1_555
O27 Ta2 2.027964 1_655
O27 Ta15 2.030247 1_555
O27 Ta19 2.168792 1_555
O28 Ta2 2.027964 1_555
O28 Ta14 2.030247 1_555
O28 Ta5 2.168792 1_555
O29 Ta2 2.027964 1_565
O29 Ta17 2.030247 1_555
O29 Ta4 2.168792 1_555
O30 Ta2 2.027964 1_665
O30 Ta16 2.030247 1_555
O30 Ta18 2.168792 1_555
O31 Ta4 1.976510 1_555
O31 Ta18 1.976510 1_455
O32 Ta19 1.991065 1_555
O32 Ta5 1.991065 1_555
O33 Ta18 1.991065 1_555
O33 Ta4 1.991065 1_555
O34 Ta7 2.023063 1_656
O34 Ta21 2.025803 1_556
O34 Ta19 2.197672 1_555
O35 Ta7 2.023063 1_556
O35 Ta20 2.025803 1_556
O35 Ta5 2.197672 1_555
O36 Ta6 2.023063 1_554
O36 Ta18 2.025803 1_554
O36 Ta9 2.197672 1_555
O37 Ta7 2.023063 1_566
O37 Ta8 2.025803 1_556
O37 Ta4 2.197672 1_555
O38 Ta7 2.023063 1_666
O38 Ta9 2.025803 1_556
O38 Ta18 2.197672 1_555
O39 Ta6 2.023063 1_554
O39 Ta19 2.025803 1_554
O39 Ta21 2.197672 1_555
O40 Ta8 1.991065 1_555
O40 Ta9 1.991065 1_455
O41 Ta21 1.976510 1_555
O41 Ta20 1.976510 1_555
O42 Ta10 2.027964 1_555
O42 Ta22 2.030247 1_555
O42 Ta9 2.168792 1_555
O43 Ta10 2.027964 1_555
O43 Ta23 2.030247 1_555
O43 Ta21 2.168792 1_555
O44 Ta11 2.009931 1_555
O44 Ta22 2.009931 1_455
O45 Ta13 2.027831 1_555
O45 Ta22 2.033572 1_555
O45 Ta16 2.170741 1_555
O46 Ta17 1.956887 1_555
O46 Ta16 1.956887 1_455
O47 Ta18 2.008168 1_555
O47 Ta3 2.022194 1_555
O47 Ta16 2.150689 1_555
