# generated using pymatgen
data_K3Sb7(SO3)3
_symmetry_space_group_name_H-M   'P 1'
_cell_length_a   14.60086165
_cell_length_b   14.60086165
_cell_length_c   5.72134600
_cell_angle_alpha   90.00000000
_cell_angle_beta   90.00000000
_cell_angle_gamma   119.99999839
_symmetry_Int_Tables_number   1
_chemical_formula_structural   K3Sb7(SO3)3
_chemical_formula_sum   'K6 Sb14 S6 O18'
_cell_volume   1056.29645624
_cell_formula_units_Z   2
loop_
 _symmetry_equiv_pos_site_id
 _symmetry_equiv_pos_as_xyz
  1  'x, y, z'
loop_
 _atom_site_type_symbol
 _atom_site_label
 _atom_site_symmetry_multiplicity
 _atom_site_fract_x
 _atom_site_fract_y
 _atom_site_fract_z
 _atom_site_occupancy
  K  K0  1  0.70485600  0.89666200  0.64007600  1
  K  K1  1  0.19180600  0.29514400  0.64007600  1
  K  K2  1  0.29514400  0.10333800  0.14007600  1
  K  K3  1  0.89666200  0.19180600  0.14007600  1
  K  K4  1  0.80819400  0.70485600  0.14007600  1
  K  K5  1  0.10333800  0.80819400  0.64007600  1
  Sb  Sb0  1  0.55416500  0.72008300  0.14629300  1
  Sb  Sb1  1  0.83408200  0.55416500  0.64629300  1
  Sb  Sb2  1  0.59957000  0.98540700  0.13581900  1
  Sb  Sb3  1  0.01459300  0.61416300  0.13581900  1
  Sb  Sb4  1  0.40043000  0.01459300  0.63581900  1
  Sb  Sb5  1  0.38583700  0.40043000  0.13581900  1
  Sb  Sb6  1  0.27991700  0.83408200  0.14629300  1
  Sb  Sb7  1  0.98540700  0.38583700  0.63581900  1
  Sb  Sb8  1  0.61416300  0.59957000  0.63581900  1
  Sb  Sb9  1  0.44583500  0.27991700  0.64629300  1
  Sb  Sb10  1  0.16591800  0.44583500  0.14629300  1
  Sb  Sb11  1  0.72008300  0.16591800  0.64629300  1
  Sb  Sb12  1  0.66666700  0.33333300  0.24612000  1
  Sb  Sb13  1  0.33333300  0.66666700  0.74612000  1
  S  S0  1  0.62682000  0.46226000  0.06944700  1
  S  S1  1  0.46226000  0.83544000  0.56944700  1
  S  S2  1  0.37318000  0.53774000  0.56944700  1
  S  S3  1  0.53774000  0.16456000  0.06944700  1
  S  S4  1  0.16456000  0.62682000  0.56944700  1
  S  S5  1  0.83544000  0.37318000  0.06944700  1
  O  O0  1  0.87707200  0.22732200  0.62722600  1
  O  O1  1  0.06317400  0.35780300  0.88965600  1
  O  O2  1  0.35025100  0.12292800  0.62722600  1
  O  O3  1  0.64974900  0.87707200  0.12722600  1
  O  O4  1  0.64841600  0.71285800  0.39047600  1
  O  O5  1  0.64219700  0.70537100  0.88965600  1
  O  O6  1  0.35780300  0.29462900  0.38965600  1
  O  O7  1  0.35158400  0.28714200  0.89047600  1
  O  O8  1  0.28714200  0.93555900  0.39047600  1
  O  O9  1  0.06444100  0.35158400  0.39047600  1
  O  O10  1  0.77267800  0.64974900  0.62722600  1
  O  O11  1  0.12292800  0.77267800  0.12722600  1
  O  O12  1  0.70537100  0.06317400  0.38965600  1
  O  O13  1  0.22732200  0.35025100  0.12722600  1
  O  O14  1  0.71285800  0.06444100  0.89047600  1
  O  O15  1  0.93682600  0.64219700  0.38965600  1
  O  O16  1  0.93555900  0.64841600  0.89047600  1
  O  O17  1  0.29462900  0.93682600  0.88965600  1
loop_
_geom_bond_atom_site_label_1
_geom_bond_atom_site_label_2
_geom_bond_distance
_geom_bond_site_symmetry_2
K0 O4 2.776524 1_555
K0 O14 2.789439 1_565
K0 O12 2.818748 1_565
K0 O5 2.849852 1_555
K0 O3 2.875290 1_556
K0 O3 3.018038 1_555
K0 S1 3.215993 1_555
K1 O9 2.776536 1_555
K1 O7 2.789451 1_555
K1 O6 2.818748 1_555
K1 O1 2.849852 1_555
K1 O13 2.875289 1_556
K1 O13 3.018037 1_555
K1 S2 3.215994 1_555
K2 O7 2.776524 1_554
K2 O8 2.789439 1_545
K2 O17 2.818748 1_544
K2 O6 2.849852 1_555
K2 O2 2.875290 1_555
K2 O2 3.018038 1_554
K2 S3 3.215993 1_555
K3 O14 2.776526 1_554
K3 O9 2.789444 1_655
K3 O1 2.818748 1_654
K3 O12 2.849852 1_555
K3 O0 2.875287 1_555
K3 O0 3.018035 1_554
K3 S5 3.215993 1_555
K4 O16 2.776536 1_554
K4 O4 2.789451 1_555
K4 O5 2.818748 1_554
K4 O15 2.849852 1_555
K4 O10 2.875289 1_555
K4 O10 3.018037 1_554
K4 S0 3.215994 1_555
K5 O8 2.776526 1_555
K5 O16 2.789444 1_455
K5 O15 2.818748 1_455
K5 O17 2.849852 1_555
K5 O11 2.875287 1_556
K5 O11 3.018035 1_555
K5 S4 3.215993 1_555
S0 Sb12 2.449292 1_555
S1 Sb13 2.449283 1_555
S2 Sb13 2.449292 1_555
S3 Sb12 2.449283 1_555
S4 Sb13 2.449279 1_555
S5 Sb12 2.449279 1_555
O0 Sb11 2.003676 1_555
O0 Sb7 2.049437 1_555
O1 Sb7 2.007670 1_455
O1 Sb10 2.032310 1_556
O2 Sb9 2.003674 1_555
O2 Sb4 2.049427 1_555
O3 Sb0 2.003674 1_555
O3 Sb2 2.049427 1_555
O4 Sb0 2.000460 1_555
O4 Sb8 2.032062 1_555
O5 Sb8 2.007670 1_555
O5 Sb0 2.032310 1_556
O6 Sb5 2.007670 1_555
O6 Sb9 2.032310 1_555
O7 Sb9 2.000460 1_555
O7 Sb5 2.032062 1_556
O8 Sb6 2.000471 1_555
O8 Sb4 2.032059 1_565
O9 Sb10 2.000466 1_555
O9 Sb7 2.032052 1_455
O10 Sb1 2.003662 1_555
O10 Sb8 2.049440 1_555
O11 Sb6 2.003676 1_555
O11 Sb3 2.049437 1_555
O12 Sb2 2.007670 1_545
O12 Sb11 2.032310 1_555
O13 Sb10 2.003662 1_555
O13 Sb5 2.049440 1_555
O14 Sb11 2.000471 1_555
O14 Sb2 2.032059 1_546
O15 Sb3 2.007670 1_655
O15 Sb1 2.032310 1_555
O16 Sb1 2.000466 1_555
O16 Sb3 2.032052 1_656
O17 Sb4 2.007670 1_565
O17 Sb6 2.032310 1_556
