# generated using pymatgen
data_W3O8
_symmetry_space_group_name_H-M   'P 1'
_cell_length_a   3.85081600
_cell_length_b   10.57970800
_cell_length_c   14.45089400
_cell_angle_alpha   90.00000000
_cell_angle_beta   90.00000000
_cell_angle_gamma   90.00000000
_symmetry_Int_Tables_number   1
_chemical_formula_structural   W3O8
_chemical_formula_sum   'W12 O32'
_cell_volume   588.73677478
_cell_formula_units_Z   4
loop_
 _symmetry_equiv_pos_site_id
 _symmetry_equiv_pos_as_xyz
  1  'x, y, z'
loop_
 _atom_site_type_symbol
 _atom_site_label
 _atom_site_symmetry_multiplicity
 _atom_site_fract_x
 _atom_site_fract_y
 _atom_site_fract_z
 _atom_site_occupancy
  W  W0  1  0.00000000  0.52611100  0.10907500  1
  W  W1  1  0.00000000  0.47388900  0.89092500  1
  W  W2  1  0.00000000  0.02611100  0.39092500  1
  W  W3  1  0.00000000  0.97388900  0.60907500  1
  W  W4  1  0.00000000  0.71489600  0.40908800  1
  W  W5  1  0.00000000  0.28510400  0.59091200  1
  W  W6  1  0.00000000  0.21489600  0.09091200  1
  W  W7  1  0.00000000  0.78510400  0.90908800  1
  W  W8  1  0.00000000  0.87260900  0.16144000  1
  W  W9  1  0.00000000  0.12739100  0.83856000  1
  W  W10  1  0.00000000  0.37260900  0.33856000  1
  W  W11  1  0.00000000  0.62739100  0.66144000  1
  O  O0  1  0.00000000  0.55402500  0.33647500  1
  O  O1  1  0.00000000  0.44597500  0.66352500  1
  O  O2  1  0.00000000  0.05402500  0.16352500  1
  O  O3  1  0.00000000  0.94597500  0.83647500  1
  O  O4  1  0.00000000  0.62109900  0.98476100  1
  O  O5  1  0.00000000  0.37890100  0.01523900  1
  O  O6  1  0.00000000  0.12109900  0.51523900  1
  O  O7  1  0.00000000  0.87890100  0.48476100  1
  O  O8  1  0.00000000  0.69228500  0.17119200  1
  O  O9  1  0.00000000  0.30771500  0.82880800  1
  O  O10  1  0.00000000  0.19228500  0.32880800  1
  O  O11  1  0.00000000  0.80771500  0.67119200  1
  O  O12  1  0.00000000  0.86788500  0.30626000  1
  O  O13  1  0.00000000  0.13211500  0.69374000  1
  O  O14  1  0.00000000  0.36788500  0.19374000  1
  O  O15  1  0.00000000  0.63211500  0.80626000  1
  O  O16  1  0.00000000  0.87371300  0.03029400  1
  O  O17  1  0.00000000  0.12628700  0.96970600  1
  O  O18  1  0.00000000  0.37371300  0.46970600  1
  O  O19  1  0.00000000  0.62628700  0.53029400  1
  O  O20  1  0.50000000  0.52287600  0.11125300  1
  O  O21  1  0.50000000  0.47712400  0.88874700  1
  O  O22  1  0.50000000  0.02287600  0.38874700  1
  O  O23  1  0.50000000  0.97712400  0.61125300  1
  O  O24  1  0.50000000  0.72002400  0.40494700  1
  O  O25  1  0.50000000  0.27997600  0.59505300  1
  O  O26  1  0.50000000  0.22002400  0.09505300  1
  O  O27  1  0.50000000  0.77997600  0.90494700  1
  O  O28  1  0.50000000  0.87288900  0.16940500  1
  O  O29  1  0.50000000  0.12711100  0.83059500  1
  O  O30  1  0.50000000  0.37288900  0.33059500  1
  O  O31  1  0.50000000  0.62711100  0.66940500  1
loop_
_geom_bond_atom_site_label_1
_geom_bond_atom_site_label_2
_geom_bond_distance
_geom_bond_site_symmetry_2
O0 W10 1.919565 1_555
O0 W4 1.999443 1_555
O1 W11 1.919565 1_555
O1 W5 1.999443 1_555
O2 W8 1.919565 1_545
O2 W6 1.999443 1_555
O3 W9 1.919565 1_565
O3 W7 1.999443 1_555
O4 W7 2.050974 1_555
O4 W0 2.058432 1_556
O4 W1 2.065040 1_555
O5 W6 2.050974 1_555
O5 W1 2.058432 1_554
O5 W0 2.065040 1_555
O6 W5 2.050974 1_555
O6 W2 2.058432 1_555
O6 W3 2.065040 1_545
O7 W4 2.050974 1_555
O7 W3 2.058432 1_555
O7 W2 2.065040 1_565
O8 W8 1.912973 1_555
O8 W0 1.973978 1_555
O9 W9 1.912973 1_555
O9 W1 1.973978 1_555
O10 W10 1.912973 1_555
O10 W2 1.973978 1_555
O11 W11 1.912973 1_555
O11 W3 1.973978 1_555
O12 W2 2.073437 1_565
O12 W8 2.093375 1_555
O12 W4 2.197240 1_555
O13 W3 2.073437 1_545
O13 W9 2.093375 1_555
O13 W5 2.197240 1_555
O14 W0 2.073437 1_555
O14 W10 2.093375 1_555
O14 W6 2.197240 1_555
O15 W1 2.073437 1_555
O15 W11 2.093375 1_555
O15 W7 2.197240 1_555
O16 W8 1.895213 1_555
O16 W7 1.986631 1_554
O17 W9 1.895213 1_555
O17 W6 1.986631 1_556
O18 W10 1.895213 1_555
O18 W5 1.986631 1_555
O19 W11 1.895213 1_555
O19 W4 1.986631 1_555
O20 W0 1.925969 1_555
O20 W0 1.925969 1_655
O21 W1 1.925969 1_655
O21 W1 1.925969 1_555
O22 W2 1.925969 1_555
O22 W2 1.925969 1_655
O23 W3 1.925969 1_655
O23 W3 1.925969 1_555
O24 W4 1.927102 1_655
O24 W4 1.927102 1_555
O25 W5 1.927102 1_655
O25 W5 1.927102 1_555
O26 W6 1.927102 1_555
O26 W6 1.927102 1_655
O27 W7 1.927102 1_655
O27 W7 1.927102 1_555
O28 W8 1.928848 1_555
O28 W8 1.928848 1_655
O29 W9 1.928848 1_655
O29 W9 1.928848 1_555
O30 W10 1.928848 1_555
O30 W10 1.928848 1_655
O31 W11 1.928848 1_655
O31 W11 1.928848 1_555
