# generated using pymatgen
data_Rb2Cd(PSe3)2
_symmetry_space_group_name_H-M   'P 1'
_cell_length_a   12.94495500
_cell_length_b   6.76315400
_cell_length_c   9.72549126
_cell_angle_alpha   54.57619634
_cell_angle_beta   90.00000000
_cell_angle_gamma   90.00000000
_symmetry_Int_Tables_number   1
_chemical_formula_structural   Rb2Cd(PSe3)2
_chemical_formula_sum   'Rb4 Cd2 P4 Se12'
_cell_volume   693.83913531
_cell_formula_units_Z   2
loop_
 _symmetry_equiv_pos_site_id
 _symmetry_equiv_pos_as_xyz
  1  'x, y, z'
loop_
 _atom_site_type_symbol
 _atom_site_label
 _atom_site_symmetry_multiplicity
 _atom_site_fract_x
 _atom_site_fract_y
 _atom_site_fract_z
 _atom_site_occupancy
  Rb  Rb0  1  0.17884500  0.27841800  0.97885500  1
  Rb  Rb1  1  0.67884500  0.72158200  0.52114500  1
  Rb  Rb2  1  0.82115500  0.72158200  0.02114500  1
  Rb  Rb3  1  0.32115500  0.27841800  0.47885500  1
  Cd  Cd0  1  0.00000000  0.00000000  0.50000000  1
  Cd  Cd1  1  0.50000000  0.00000000  0.00000000  1
  P  P0  1  0.04071000  0.64786100  0.37681200  1
  P  P1  1  0.54071000  0.35213900  0.12318800  1
  P  P2  1  0.95929000  0.35213900  0.62318800  1
  P  P3  1  0.45929000  0.64786100  0.87681200  1
  Se  Se0  1  0.17776900  0.75742400  0.45179100  1
  Se  Se1  1  0.67776900  0.24257600  0.04820900  1
  Se  Se2  1  0.82223100  0.24257600  0.54820900  1
  Se  Se3  1  0.32223100  0.75742400  0.95179100  1
  Se  Se4  1  0.93079800  0.95327600  0.23847700  1
  Se  Se5  1  0.43079800  0.04672400  0.26152300  1
  Se  Se6  1  0.06920200  0.04672400  0.76152300  1
  Se  Se7  1  0.56920200  0.95327600  0.73847700  1
  Se  Se8  1  0.42644300  0.46987800  0.75015600  1
  Se  Se9  1  0.92644300  0.53012200  0.74984400  1
  Se  Se10  1  0.57355700  0.53012200  0.24984400  1
  Se  Se11  1  0.07355700  0.46987800  0.25015600  1
loop_
_geom_bond_atom_site_label_1
_geom_bond_atom_site_label_2
_geom_bond_distance
_geom_bond_site_symmetry_2
Rb0 Se6 3.574487 1_555
Rb0 Se3 3.608456 1_555
Rb0 Se8 3.682129 1_555
Rb0 Se9 3.760150 1_455
Rb0 Se11 3.802212 1_556
Rb0 Se0 3.844984 1_546
Rb0 Se4 3.883900 1_446
Rb0 Se5 3.956853 1_556
Rb1 Se7 3.574487 1_555
Rb1 Se2 3.608456 1_555
Rb1 Se9 3.682129 1_555
Rb1 Se8 3.760150 1_555
Rb1 Se10 3.802212 1_555
Rb1 Se1 3.844984 1_565
Rb1 Se5 3.883900 1_565
Rb1 Se4 3.956853 1_555
Rb2 Se4 3.574487 1_555
Rb2 Se1 3.608456 1_555
Rb2 Se10 3.682129 1_555
Rb2 Se11 3.760150 1_655
Rb2 Se9 3.802212 1_554
Rb2 Se2 3.844984 1_564
Rb2 Se6 3.883900 1_664
Rb2 Se7 3.956853 1_554
Rb3 Se5 3.574487 1_555
Rb3 Se0 3.608456 1_555
Rb3 Se11 3.682129 1_555
Rb3 Se10 3.760150 1_555
Rb3 Se8 3.802212 1_555
Rb3 Se3 3.844984 1_545
Rb3 Se7 3.883900 1_545
Rb3 Se6 3.956853 1_555
Cd0 Se9 2.821047 1_445
Cd0 Se11 2.821047 1_555
Cd0 Se6 2.881518 1_555
Cd0 Se4 2.881518 1_445
Cd0 Se2 3.016386 1_455
Cd0 Se0 3.016386 1_545
Cd1 Se8 2.821047 1_554
Cd1 Se10 2.821047 1_545
Cd1 Se7 2.881518 1_544
Cd1 Se5 2.881518 1_555
Cd1 Se3 3.016386 1_544
Cd1 Se1 3.016386 1_555
P0 Se0 2.203419 1_555
P0 Se11 2.205882 1_555
P0 Se4 2.208959 1_455
P0 P2 2.301509 1_455
P1 Se1 2.203419 1_555
P1 Se10 2.205882 1_555
P1 Se5 2.208959 1_555
P1 P3 2.301509 1_554
P2 Se2 2.203419 1_555
P2 Se9 2.205882 1_555
P2 Se6 2.208959 1_655
P3 Se3 2.203419 1_555
P3 Se8 2.205882 1_555
P3 Se7 2.208959 1_555
