# generated using pymatgen
data_SrGaH4
_symmetry_space_group_name_H-M   'P 1'
_cell_length_a   4.73560100
_cell_length_b   7.46079800
_cell_length_c   8.78654400
_cell_angle_alpha   90.00000000
_cell_angle_beta   90.00000000
_cell_angle_gamma   90.00000000
_symmetry_Int_Tables_number   1
_chemical_formula_structural   SrGaH4
_chemical_formula_sum   'Sr4 Ga4 H16'
_cell_volume   310.44057092
_cell_formula_units_Z   4
loop_
 _symmetry_equiv_pos_site_id
 _symmetry_equiv_pos_as_xyz
  1  'x, y, z'
loop_
 _atom_site_type_symbol
 _atom_site_label
 _atom_site_symmetry_multiplicity
 _atom_site_fract_x
 _atom_site_fract_y
 _atom_site_fract_z
 _atom_site_occupancy
  Sr  Sr0  1  0.75000000  0.24858100  0.00470400  1
  Sr  Sr1  1  0.25000000  0.75141900  0.99529600  1
  Sr  Sr2  1  0.25000000  0.74858100  0.49529600  1
  Sr  Sr3  1  0.75000000  0.25141900  0.50470400  1
  Ga  Ga0  1  0.75000000  0.60419700  0.24260700  1
  Ga  Ga1  1  0.25000000  0.39580300  0.75739300  1
  Ga  Ga2  1  0.25000000  0.10419700  0.25739300  1
  Ga  Ga3  1  0.75000000  0.89580300  0.74260700  1
  H  H0  1  0.48578900  0.75154300  0.74390600  1
  H  H1  1  0.98578900  0.24845700  0.25609400  1
  H  H2  1  0.98578900  0.25154300  0.75609400  1
  H  H3  1  0.48578900  0.74845700  0.24390600  1
  H  H4  1  0.75000000  0.57845200  0.03899600  1
  H  H5  1  0.25000000  0.42154800  0.96100400  1
  H  H6  1  0.25000000  0.07845200  0.46100400  1
  H  H7  1  0.75000000  0.92154800  0.53899600  1
  H  H8  1  0.75000000  0.91994800  0.94610100  1
  H  H9  1  0.25000000  0.08005200  0.05389900  1
  H  H10  1  0.25000000  0.41994800  0.55389900  1
  H  H11  1  0.75000000  0.58005200  0.44610100  1
  H  H12  1  0.51421100  0.25154300  0.75609400  1
  H  H13  1  0.01421100  0.74845700  0.24390600  1
  H  H14  1  0.01421100  0.75154300  0.74390600  1
  H  H15  1  0.51421100  0.24845700  0.25609400  1
loop_
_geom_bond_atom_site_label_1
_geom_bond_atom_site_label_2
_geom_bond_distance
_geom_bond_site_symmetry_2
Ga0 H13 1.650466 1_655
Ga0 H3 1.650466 1_555
Ga0 H11 1.797061 1_555
Ga0 H4 1.799319 1_555
Ga1 H12 1.650466 1_555
Ga1 H2 1.650466 1_455
Ga1 H10 1.797061 1_555
Ga1 H5 1.799319 1_555
Ga2 H15 1.650466 1_555
Ga2 H1 1.650466 1_455
Ga2 H9 1.797061 1_555
Ga2 H6 1.799319 1_555
Ga3 H14 1.650466 1_655
Ga3 H0 1.650466 1_555
Ga3 H8 1.797061 1_555
Ga3 H7 1.799319 1_555
H0 Sr2 2.453363 1_555
H0 Sr1 2.475039 1_555
H1 Sr3 2.453363 1_555
H1 Sr0 2.475039 1_555
H2 Sr0 2.453363 1_556
H2 Sr3 2.475039 1_555
H3 Sr1 2.453363 1_554
H3 Sr2 2.475039 1_555
H4 Sr0 2.479477 1_555
H4 Sr1 2.723827 1_654
H4 Sr1 2.723827 1_554
H5 Sr1 2.479477 1_555
H5 Sr0 2.723827 1_556
H5 Sr0 2.723827 1_456
H6 Sr2 2.479477 1_545
H6 Sr3 2.723827 1_555
H6 Sr3 2.723827 1_455
H7 Sr3 2.479477 1_565
H7 Sr2 2.723827 1_555
H7 Sr2 2.723827 1_655
H8 Sr0 2.505350 1_566
H8 Sr1 2.715562 1_655
H8 Sr1 2.715562 1_555
H9 Sr1 2.505350 1_544
H9 Sr0 2.715562 1_555
H9 Sr0 2.715562 1_455
H10 Sr2 2.505350 1_555
H10 Sr3 2.715562 1_555
H10 Sr3 2.715562 1_455
H11 Sr3 2.505350 1_555
H11 Sr2 2.715562 1_555
H11 Sr2 2.715562 1_655
H12 Sr0 2.453363 1_556
H12 Sr3 2.475039 1_555
H13 Sr1 2.453363 1_554
H13 Sr2 2.475039 1_555
H14 Sr2 2.453363 1_555
H14 Sr1 2.475039 1_555
H15 Sr3 2.453363 1_555
H15 Sr0 2.475039 1_555
