# generated using pymatgen
data_Li2CrCl4
_symmetry_space_group_name_H-M   'P 1'
_cell_length_a   6.30811498
_cell_length_b   6.30811498
_cell_length_c   3.79776761
_cell_angle_alpha   86.75415589
_cell_angle_beta   86.75415589
_cell_angle_gamma   107.19520558
_symmetry_Int_Tables_number   1
_chemical_formula_structural   Li2CrCl4
_chemical_formula_sum   'Li2 Cr1 Cl4'
_cell_volume   143.70870798
_cell_formula_units_Z   1
loop_
 _symmetry_equiv_pos_site_id
 _symmetry_equiv_pos_as_xyz
  1  'x, y, z'
loop_
 _atom_site_type_symbol
 _atom_site_label
 _atom_site_symmetry_multiplicity
 _atom_site_fract_x
 _atom_site_fract_y
 _atom_site_fract_z
 _atom_site_occupancy
  Li  Li0  1  0.50000000  0.00000000  0.50000000  1
  Li  Li1  1  0.00000000  0.50000000  0.50000000  1
  Cr  Cr0  1  0.00000000  0.00000000  0.00000000  1
  Cl  Cl0  1  0.24177200  0.24177200  0.53573700  1
  Cl  Cl1  1  0.76323100  0.23676900  0.00000000  1
  Cl  Cl2  1  0.75822800  0.75822800  0.46426300  1
  Cl  Cl3  1  0.23676900  0.76323100  0.00000000  1
loop_
_geom_bond_atom_site_label_1
_geom_bond_atom_site_label_2
_geom_bond_distance
_geom_bond_site_symmetry_2
Cl0 Cr0 2.403430 1_556
Cl0 Li0 2.542661 1_555
Cl0 Li1 2.542661 1_555
Cl0 Cr0 2.849411 1_555
Cl1 Cr0 2.404250 1_655
Cl1 Li0 2.539520 1_555
Cl1 Li1 2.539520 1_654
Cl1 Li0 2.793851 1_554
Cl1 Li1 2.793851 1_655
Cl2 Cr0 2.403430 1_665
Cl2 Li0 2.542661 1_565
Cl2 Li1 2.542661 1_655
Cl2 Cr0 2.849411 1_666
Cl3 Cr0 2.404250 1_565
Cl3 Li1 2.539520 1_555
Cl3 Li0 2.539520 1_564
Cl3 Li1 2.793851 1_554
Cl3 Li0 2.793851 1_565
