# generated using pymatgen
data_SbSe(IF2)3
_symmetry_space_group_name_H-M   'P 1'
_cell_length_a   10.54241300
_cell_length_b   8.85151000
_cell_length_c   13.09297235
_cell_angle_alpha   81.98045202
_cell_angle_beta   90.00000000
_cell_angle_gamma   90.00000000
_symmetry_Int_Tables_number   1
_chemical_formula_structural   SbSe(IF2)3
_chemical_formula_sum   'Sb4 Se4 I12 F24'
_cell_volume   1209.83896148
_cell_formula_units_Z   4
loop_
 _symmetry_equiv_pos_site_id
 _symmetry_equiv_pos_as_xyz
  1  'x, y, z'
loop_
 _atom_site_type_symbol
 _atom_site_label
 _atom_site_symmetry_multiplicity
 _atom_site_fract_x
 _atom_site_fract_y
 _atom_site_fract_z
 _atom_site_occupancy
  Sb  Sb0  1  0.22106800  0.80000600  0.06716800  1
  Sb  Sb1  1  0.27893200  0.80000600  0.56716800  1
  Sb  Sb2  1  0.77893200  0.19999400  0.93283200  1
  Sb  Sb3  1  0.72106800  0.19999400  0.43283200  1
  Se  Se0  1  0.69151600  0.80023800  0.70761000  1
  Se  Se1  1  0.80848400  0.80023800  0.20761000  1
  Se  Se2  1  0.30848400  0.19976200  0.29239000  1
  Se  Se3  1  0.19151600  0.19976200  0.79239000  1
  I  I0  1  0.68124700  0.56079400  0.62007700  1
  I  I1  1  0.81875300  0.56079400  0.12007700  1
  I  I2  1  0.95150500  0.74193500  0.36489100  1
  I  I3  1  0.58465500  0.78966000  0.27961700  1
  I  I4  1  0.31875300  0.43920600  0.37992300  1
  I  I5  1  0.08465500  0.21034000  0.22038300  1
  I  I6  1  0.41534500  0.21034000  0.72038300  1
  I  I7  1  0.54849500  0.74193500  0.86489100  1
  I  I8  1  0.91534500  0.78966000  0.77961700  1
  I  I9  1  0.04849500  0.25806500  0.63510900  1
  I  I10  1  0.18124700  0.43920600  0.87992300  1
  I  I11  1  0.45150500  0.25806500  0.13510900  1
  F  F0  1  0.23487500  0.99631600  0.49412200  1
  F  F1  1  0.71501900  0.14139500  0.80679100  1
  F  F2  1  0.21501900  0.85860500  0.69320900  1
  F  F3  1  0.88708200  0.27616800  0.46381700  1
  F  F4  1  0.32134900  0.60072300  0.63510900  1
  F  F5  1  0.28498100  0.85860500  0.19320900  1
  F  F6  1  0.05473000  0.87257100  0.09536700  1
  F  F7  1  0.11291800  0.72383200  0.53618300  1
  F  F8  1  0.84062700  0.25994100  0.06102700  1
  F  F9  1  0.34062700  0.74005900  0.43897300  1
  F  F10  1  0.94527000  0.12742900  0.90463300  1
  F  F11  1  0.55473000  0.12742900  0.40463300  1
  F  F12  1  0.65937300  0.25994100  0.56102700  1
  F  F13  1  0.78498100  0.14139500  0.30679100  1
  F  F14  1  0.82134900  0.39927700  0.86489100  1
  F  F15  1  0.38708200  0.72383200  0.03618300  1
  F  F16  1  0.67865100  0.39927700  0.36489100  1
  F  F17  1  0.15937300  0.74005900  0.93897300  1
  F  F18  1  0.61291800  0.27616800  0.96381700  1
  F  F19  1  0.44527000  0.87257100  0.59536700  1
  F  F20  1  0.26512500  0.99631600  0.99412200  1
  F  F21  1  0.76512500  0.00368400  0.50587800  1
  F  F22  1  0.73487500  0.00368400  0.00587800  1
  F  F23  1  0.17865100  0.60072300  0.13510900  1
loop_
_geom_bond_atom_site_label_1
_geom_bond_atom_site_label_2
_geom_bond_distance
_geom_bond_site_symmetry_2
I0 Se0 2.548523 1_555
I1 Se1 2.548523 1_555
I2 Se1 2.546338 1_555
I3 Se1 2.537943 1_555
I4 Se2 2.548523 1_555
I5 Se2 2.537943 1_555
I6 Se3 2.537943 1_555
I7 Se0 2.546338 1_555
I8 Se0 2.537943 1_555
I9 Se3 2.546338 1_555
I10 Se3 2.548523 1_555
I11 Se2 2.546338 1_555
F0 Sb1 1.919924 1_555
F1 Sb2 1.919689 1_555
F2 Sb1 1.919689 1_555
F3 Sb3 1.938732 1_555
F4 Sb1 1.914415 1_555
F5 Sb0 1.919689 1_555
F6 Sb0 1.920982 1_555
F7 Sb1 1.938732 1_555
F8 Sb2 1.941728 1_554
F9 Sb1 1.941728 1_555
F10 Sb2 1.920982 1_555
F11 Sb3 1.920982 1_555
F12 Sb3 1.941728 1_555
F13 Sb3 1.919689 1_555
F14 Sb2 1.914415 1_555
F15 Sb0 1.938732 1_555
F16 Sb3 1.914415 1_555
F17 Sb0 1.941728 1_556
F18 Sb2 1.938732 1_555
F19 Sb1 1.920982 1_555
F20 Sb0 1.919924 1_556
F21 Sb3 1.919924 1_555
F22 Sb2 1.919924 1_554
F23 Sb0 1.914415 1_555
