# generated using pymatgen
data_PH6CNO3
_symmetry_space_group_name_H-M   'P 1'
_cell_length_a   9.19597800
_cell_length_b   9.24782500
_cell_length_c   10.18125100
_cell_angle_alpha   90.00000000
_cell_angle_beta   90.00000000
_cell_angle_gamma   90.00000000
_symmetry_Int_Tables_number   1
_chemical_formula_structural   PH6CNO3
_chemical_formula_sum   'P8 H48 C8 N8 O24'
_cell_volume   865.84204416
_cell_formula_units_Z   8
loop_
 _symmetry_equiv_pos_site_id
 _symmetry_equiv_pos_as_xyz
  1  'x, y, z'
loop_
 _atom_site_type_symbol
 _atom_site_label
 _atom_site_symmetry_multiplicity
 _atom_site_fract_x
 _atom_site_fract_y
 _atom_site_fract_z
 _atom_site_occupancy
  P  P0  1  0.23486400  0.12736400  0.06282900  1
  P  P1  1  0.73486400  0.37263600  0.93717100  1
  P  P2  1  0.76513600  0.62736400  0.43717100  1
  P  P3  1  0.26513600  0.87263600  0.56282900  1
  P  P4  1  0.76513600  0.87263600  0.93717100  1
  P  P5  1  0.26513600  0.62736400  0.06282900  1
  P  P6  1  0.23486400  0.37263600  0.56282900  1
  P  P7  1  0.73486400  0.12736400  0.43717100  1
  H  H0  1  0.18244200  0.00799600  0.32293800  1
  H  H1  1  0.68244200  0.49200400  0.67706200  1
  H  H2  1  0.81755800  0.50799600  0.17706200  1
  H  H3  1  0.31755800  0.99200400  0.82293800  1
  H  H4  1  0.81755800  0.99200400  0.67706200  1
  H  H5  1  0.31755800  0.50799600  0.32293800  1
  H  H6  1  0.18244200  0.49200400  0.82293800  1
  H  H7  1  0.68244200  0.00799600  0.17706200  1
  H  H8  1  0.00876200  0.05458100  0.35429000  1
  H  H9  1  0.50876200  0.44541900  0.64571000  1
  H  H10  1  0.99123800  0.55458100  0.14571000  1
  H  H11  1  0.49123800  0.94541900  0.85429000  1
  H  H12  1  0.99123800  0.94541900  0.64571000  1
  H  H13  1  0.49123800  0.55458100  0.35429000  1
  H  H14  1  0.00876200  0.44541900  0.85429000  1
  H  H15  1  0.50876200  0.05458100  0.14571000  1
  H  H16  1  0.14025100  0.18478100  0.34826400  1
  H  H17  1  0.64025100  0.31521900  0.65173600  1
  H  H18  1  0.85974900  0.68478100  0.15173600  1
  H  H19  1  0.35974900  0.81521900  0.84826400  1
  H  H20  1  0.85974900  0.81521900  0.65173600  1
  H  H21  1  0.35974900  0.68478100  0.34826400  1
  H  H22  1  0.14025100  0.31521900  0.84826400  1
  H  H23  1  0.64025100  0.18478100  0.15173600  1
  H  H24  1  0.00894500  0.01073400  0.12976300  1
  H  H25  1  0.50894500  0.48926600  0.87023700  1
  H  H26  1  0.99105500  0.51073400  0.37023700  1
  H  H27  1  0.49105500  0.98926600  0.62976300  1
  H  H28  1  0.99105500  0.98926600  0.87023700  1
  H  H29  1  0.49105500  0.51073400  0.12976300  1
  H  H30  1  0.00894500  0.48926600  0.62976300  1
  H  H31  1  0.50894500  0.01073400  0.37023700  1
  H  H32  1  0.00048300  0.20094000  0.15234200  1
  H  H33  1  0.50048300  0.29906000  0.84765800  1
  H  H34  1  0.99951700  0.70094000  0.34765800  1
  H  H35  1  0.49951700  0.79906000  0.65234200  1
  H  H36  1  0.99951700  0.79906000  0.84765800  1
  H  H37  1  0.49951700  0.70094000  0.15234200  1
  H  H38  1  0.00048300  0.29906000  0.65234200  1
  H  H39  1  0.50048300  0.20094000  0.34765800  1
  H  H40  1  0.25202100  0.35895600  0.11054800  1
  H  H41  1  0.75202100  0.14104400  0.88945200  1
  H  H42  1  0.74797900  0.85895600  0.38945200  1
  H  H43  1  0.24797900  0.64104400  0.61054800  1
  H  H44  1  0.74797900  0.64104400  0.88945200  1
  H  H45  1  0.24797900  0.85895600  0.11054800  1
  H  H46  1  0.25202100  0.14104400  0.61054800  1
  H  H47  1  0.75202100  0.35895600  0.38945200  1
  C  C0  1  0.07078400  0.10571600  0.16299800  1
  C  C1  1  0.57078400  0.39428400  0.83700200  1
  C  C2  1  0.92921600  0.60571600  0.33700200  1
  C  C3  1  0.42921600  0.89428400  0.66299800  1
  C  C4  1  0.92921600  0.89428400  0.83700200  1
  C  C5  1  0.42921600  0.60571600  0.16299800  1
  C  C6  1  0.07078400  0.39428400  0.66299800  1
  C  C7  1  0.57078400  0.10571600  0.33700200  1
  N  N0  1  0.10439800  0.08721300  0.30563300  1
  N  N1  1  0.60439800  0.41278700  0.69436700  1
  N  N2  1  0.89560200  0.58721300  0.19436700  1
  N  N3  1  0.39560200  0.91278700  0.80563300  1
  N  N4  1  0.89560200  0.91278700  0.69436700  1
  N  N5  1  0.39560200  0.58721300  0.30563300  1
  N  N6  1  0.10439800  0.41278700  0.80563300  1
  N  N7  1  0.60439800  0.08721300  0.19436700  1
  O  O0  1  0.33484400  0.99931100  0.09480400  1
  O  O1  1  0.83484400  0.50068900  0.90519600  1
  O  O2  1  0.66515600  0.49931100  0.40519600  1
  O  O3  1  0.16515600  0.00068900  0.59480400  1
  O  O4  1  0.66515600  0.00068900  0.90519600  1
  O  O5  1  0.16515600  0.49931100  0.09480400  1
  O  O6  1  0.33484400  0.50068900  0.59480400  1
  O  O7  1  0.83484400  0.99931100  0.40519600  1
  O  O8  1  0.31336700  0.26612300  0.12125900  1
  O  O9  1  0.81336700  0.23387700  0.87874100  1
  O  O10  1  0.68663300  0.76612300  0.37874100  1
  O  O11  1  0.18663300  0.73387700  0.62125900  1
  O  O12  1  0.68663300  0.73387700  0.87874100  1
  O  O13  1  0.18663300  0.76612300  0.12125900  1
  O  O14  1  0.31336700  0.23387700  0.62125900  1
  O  O15  1  0.81336700  0.26612300  0.37874100  1
  O  O16  1  0.19170300  0.14457100  0.92012300  1
  O  O17  1  0.69170300  0.35542900  0.07987700  1
  O  O18  1  0.80829700  0.64457100  0.57987700  1
  O  O19  1  0.30829700  0.85542900  0.42012300  1
  O  O20  1  0.80829700  0.85542900  0.07987700  1
  O  O21  1  0.30829700  0.64457100  0.92012300  1
  O  O22  1  0.19170300  0.35542900  0.42012300  1
  O  O23  1  0.69170300  0.14457100  0.57987700  1
loop_
_geom_bond_atom_site_label_1
_geom_bond_atom_site_label_2
_geom_bond_distance
_geom_bond_site_symmetry_2
H0 N0 1.040578 1_555
H1 N1 1.040578 1_555
H2 N2 1.040578 1_555
H3 N3 1.040578 1_555
H4 N4 1.040578 1_555
H5 N5 1.040578 1_555
H6 N6 1.040578 1_555
H7 N7 1.040578 1_555
H8 N0 1.053537 1_555
H9 N1 1.053537 1_555
H10 N2 1.053537 1_555
H11 N3 1.053537 1_555
H12 N4 1.053537 1_555
H13 N5 1.053537 1_555
H14 N6 1.053537 1_555
H15 N7 1.053537 1_555
H16 N0 1.054146 1_555
H17 N1 1.054146 1_555
H18 N2 1.054146 1_555
H19 N3 1.054146 1_555
H20 N4 1.054146 1_555
H21 N5 1.054146 1_555
H22 N6 1.054146 1_555
H23 N7 1.054146 1_555
H40 O8 1.033039 1_555
H40 O5 1.532494 1_555
H41 O9 1.033039 1_555
H41 O4 1.532494 1_555
H42 O10 1.033039 1_555
H42 O7 1.532494 1_555
H43 O11 1.033039 1_555
H43 O6 1.532494 1_555
H44 O12 1.033039 1_555
H44 O1 1.532494 1_555
H45 O13 1.033039 1_555
H45 O0 1.532494 1_555
H46 O14 1.033039 1_555
H46 O3 1.532494 1_555
H47 O15 1.033039 1_555
H47 O2 1.532494 1_555
C0 H32 1.097815 1_555
C0 H24 1.099740 1_555
C0 N0 1.494565 1_555
C0 P0 1.832177 1_555
C1 H33 1.097815 1_555
C1 H25 1.099740 1_555
C1 N1 1.494565 1_555
C1 P1 1.832177 1_555
C2 H34 1.097815 1_555
C2 H26 1.099740 1_555
C2 N2 1.494565 1_555
C2 P2 1.832177 1_555
C3 H35 1.097815 1_555
C3 H27 1.099740 1_555
C3 N3 1.494565 1_555
C3 P3 1.832177 1_555
C4 H36 1.097815 1_555
C4 H28 1.099740 1_555
C4 N4 1.494565 1_555
C4 P4 1.832177 1_555
C5 H37 1.097815 1_555
C5 H29 1.099740 1_555
C5 N5 1.494565 1_555
C5 P5 1.832177 1_555
C6 H38 1.097815 1_555
C6 H30 1.099740 1_555
C6 N6 1.494565 1_555
C6 P6 1.832177 1_555
C7 H39 1.097815 1_555
C7 H31 1.099740 1_555
C7 N7 1.494565 1_555
C7 P7 1.832177 1_555
O0 P0 1.534164 1_565
O1 P1 1.534164 1_555
O2 P2 1.534164 1_555
O3 P3 1.534164 1_545
O4 P4 1.534164 1_545
O5 P5 1.534164 1_555
O6 P6 1.534164 1_555
O7 P7 1.534164 1_565
O8 P0 1.587987 1_555
O9 P1 1.587987 1_555
O10 P2 1.587987 1_555
O11 P3 1.587987 1_555
O12 P4 1.587987 1_555
O13 P5 1.587987 1_555
O14 P6 1.587987 1_555
O15 P7 1.587987 1_555
O16 P0 1.514546 1_556
O17 P1 1.514546 1_554
O18 P2 1.514546 1_555
O19 P3 1.514546 1_555
O20 P4 1.514546 1_554
O21 P5 1.514546 1_556
O22 P6 1.514546 1_555
O23 P7 1.514546 1_555
