# generated using pymatgen
data_Na2Al2B2O7
_symmetry_space_group_name_H-M   'P 1'
_cell_length_a   4.87257052
_cell_length_b   4.87257052
_cell_length_c   15.59450900
_cell_angle_alpha   90.00000000
_cell_angle_beta   90.00000000
_cell_angle_gamma   120.00000704
_symmetry_Int_Tables_number   1
_chemical_formula_structural   Na2Al2B2O7
_chemical_formula_sum   'Na4 Al4 B4 O14'
_cell_volume   320.64064432
_cell_formula_units_Z   2
loop_
 _symmetry_equiv_pos_site_id
 _symmetry_equiv_pos_as_xyz
  1  'x, y, z'
loop_
 _atom_site_type_symbol
 _atom_site_label
 _atom_site_symmetry_multiplicity
 _atom_site_fract_x
 _atom_site_fract_y
 _atom_site_fract_z
 _atom_site_occupancy
  Na  Na0  1  0.00000000  0.00000000  0.25000000  1
  Na  Na1  1  0.00000000  0.00000000  0.50000000  1
  Na  Na2  1  0.00000000  0.00000000  0.00000000  1
  Na  Na3  1  0.00000000  0.00000000  0.75000000  1
  Al  Al0  1  0.33333300  0.66666700  0.63880300  1
  Al  Al1  1  0.66666700  0.33333300  0.13880300  1
  Al  Al2  1  0.33333300  0.66666700  0.86119700  1
  Al  Al3  1  0.66666700  0.33333300  0.36119700  1
  B  B0  1  0.66666700  0.33333300  0.89588100  1
  B  B1  1  0.33333300  0.66666700  0.39588100  1
  B  B2  1  0.33333300  0.66666700  0.10411900  1
  B  B3  1  0.66666700  0.33333300  0.60411900  1
  O  O0  1  0.96070100  0.60558500  0.89593000  1
  O  O1  1  0.39441500  0.03929900  0.60407000  1
  O  O2  1  0.96070100  0.35511600  0.60407000  1
  O  O3  1  0.35511600  0.39441500  0.39593000  1
  O  O4  1  0.03929900  0.64488400  0.39593000  1
  O  O5  1  0.64488400  0.03929900  0.89593000  1
  O  O6  1  0.60558500  0.64488400  0.10407000  1
  O  O7  1  0.03929900  0.39441500  0.10407000  1
  O  O8  1  0.35511600  0.96070100  0.10407000  1
  O  O9  1  0.64488400  0.60558500  0.60407000  1
  O  O10  1  0.39441500  0.35511600  0.89593000  1
  O  O11  1  0.60558500  0.96070100  0.39593000  1
  O  O12  1  0.66666700  0.33333300  0.25000000  1
  O  O13  1  0.33333300  0.66666700  0.75000000  1
loop_
_geom_bond_atom_site_label_1
_geom_bond_atom_site_label_2
_geom_bond_distance
_geom_bond_site_symmetry_2
Na0 O12 2.813177 1_455
Na0 O12 2.813181 1_555
Na0 O12 2.813181 1_445
Na0 O6 2.922478 1_445
Na0 O3 2.922478 1_555
Na0 O11 2.922478 1_445
Na0 O7 2.922478 1_555
Na0 O4 2.922478 1_545
Na0 O8 2.922478 1_545
Na1 O9 2.448654 1_445
Na1 O3 2.448654 1_555
Na1 O11 2.448654 1_445
Na1 O1 2.448654 1_555
Na1 O2 2.448654 1_455
Na1 O4 2.448654 1_545
Na2 O6 2.448654 1_445
Na2 O10 2.448654 1_554
Na2 O7 2.448654 1_555
Na2 O0 2.448654 1_444
Na2 O8 2.448654 1_545
Na2 O5 2.448654 1_454
Na3 O13 2.813177 1_545
Na3 O13 2.813181 1_445
Na3 O13 2.813181 1_555
Na3 O10 2.922478 1_555
Na3 O9 2.922478 1_445
Na3 O0 2.922478 1_445
Na3 O1 2.922478 1_555
Na3 O5 2.922478 1_455
Na3 O2 2.922478 1_455
Al0 O13 1.734063 1_555
Al0 O1 1.771509 1_565
Al0 O2 1.771511 1_455
Al0 O9 1.771514 1_555
Al1 O12 1.734063 1_555
Al1 O7 1.771509 1_655
Al1 O8 1.771511 1_545
Al1 O6 1.771514 1_555
Al2 O13 1.734063 1_555
Al2 O0 1.771509 1_455
Al2 O5 1.771511 1_565
Al2 O10 1.771514 1_555
Al3 O12 1.734063 1_555
Al3 O11 1.771509 1_545
Al3 O4 1.771511 1_655
Al3 O3 1.771514 1_555
B0 O5 1.382691 1_555
B0 O0 1.382693 1_555
B0 O10 1.382696 1_555
B1 O4 1.382691 1_555
B1 O11 1.382693 1_555
B1 O3 1.382696 1_555
B2 O8 1.382691 1_555
B2 O7 1.382693 1_555
B2 O6 1.382696 1_555
B3 O2 1.382691 1_555
B3 O1 1.382693 1_555
B3 O9 1.382696 1_555
