# generated using pymatgen
data_HgC2O2F3
_symmetry_space_group_name_H-M   'P 1'
_cell_length_a   8.94058714
_cell_length_b   8.94058714
_cell_length_c   8.53069606
_cell_angle_alpha   62.43338620
_cell_angle_beta   62.43338620
_cell_angle_gamma   65.44478976
_symmetry_Int_Tables_number   1
_chemical_formula_structural   HgC2O2F3
_chemical_formula_sum   'Hg4 C8 O8 F12'
_cell_volume   517.95761263
_cell_formula_units_Z   4
loop_
 _symmetry_equiv_pos_site_id
 _symmetry_equiv_pos_as_xyz
  1  'x, y, z'
loop_
 _atom_site_type_symbol
 _atom_site_label
 _atom_site_symmetry_multiplicity
 _atom_site_fract_x
 _atom_site_fract_y
 _atom_site_fract_z
 _atom_site_occupancy
  Hg  Hg0  1  0.25304500  0.94296600  0.10818000  1
  Hg  Hg1  1  0.74695500  0.05703400  0.89182000  1
  Hg  Hg2  1  0.94296600  0.25304500  0.60818000  1
  Hg  Hg3  1  0.05703400  0.74695500  0.39182000  1
  C  C0  1  0.14319600  0.36207000  0.21391700  1
  C  C1  1  0.47225500  0.23771100  0.51161700  1
  C  C2  1  0.63793000  0.85680400  0.28608300  1
  C  C3  1  0.52774500  0.76228900  0.48838300  1
  C  C4  1  0.76228900  0.52774500  0.98838300  1
  C  C5  1  0.85680400  0.63793000  0.78608300  1
  C  C6  1  0.36207000  0.14319600  0.71391700  1
  C  C7  1  0.23771100  0.47225500  0.01161700  1
  O  O0  1  0.43649400  0.07534600  0.83817800  1
  O  O1  1  0.14317700  0.21382800  0.23938200  1
  O  O2  1  0.85682300  0.78617200  0.76061800  1
  O  O3  1  0.78617200  0.85682300  0.26061800  1
  O  O4  1  0.21382800  0.14317700  0.73938200  1
  O  O5  1  0.07534600  0.43649400  0.33817800  1
  O  O6  1  0.56350600  0.92465400  0.16182200  1
  O  O7  1  0.92465400  0.56350600  0.66182200  1
  F  F0  1  0.59172300  0.58594900  0.52804300  1
  F  F1  1  0.80252900  0.53864500  0.11775200  1
  F  F2  1  0.19747100  0.46135500  0.88224800  1
  F  F3  1  0.19735200  0.64380600  0.98687800  1
  F  F4  1  0.41405100  0.40827700  0.97195700  1
  F  F5  1  0.80264800  0.35619400  0.01312200  1
  F  F6  1  0.46135500  0.19747100  0.38224800  1
  F  F7  1  0.58594900  0.59172300  0.02804300  1
  F  F8  1  0.40827700  0.41405100  0.47195700  1
  F  F9  1  0.35619400  0.80264800  0.51312200  1
  F  F10  1  0.53864500  0.80252900  0.61775200  1
  F  F11  1  0.64380600  0.19735200  0.48687800  1
loop_
_geom_bond_atom_site_label_1
_geom_bond_atom_site_label_2
_geom_bond_distance
_geom_bond_site_symmetry_2
Hg0 O0 2.233787 1_564
Hg1 O6 2.233787 1_546
Hg2 O5 2.233787 1_655
Hg3 O7 2.233787 1_455
C0 O1 1.239947 1_555
C0 O5 1.287086 1_555
C1 F11 1.355761 1_555
C1 F6 1.361268 1_555
C1 F8 1.364976 1_555
C2 O3 1.239947 1_555
C2 O6 1.287086 1_555
C3 F9 1.355761 1_555
C3 F10 1.361268 1_555
C3 F0 1.364976 1_555
C4 F5 1.355761 1_556
C4 F1 1.361268 1_556
C4 F7 1.364976 1_556
C5 O2 1.239947 1_555
C5 O7 1.287086 1_555
C6 O4 1.239947 1_555
C6 O0 1.287086 1_555
C7 F3 1.355761 1_554
C7 F2 1.361268 1_554
C7 F4 1.364976 1_554
