# generated using pymatgen
data_Yb3SiO
_symmetry_space_group_name_H-M   'P 1'
_cell_length_a   6.57434700
_cell_length_b   6.58953300
_cell_length_c   9.30523000
_cell_angle_alpha   90.00000000
_cell_angle_beta   90.00000000
_cell_angle_gamma   90.00000000
_symmetry_Int_Tables_number   1
_chemical_formula_structural   Yb3SiO
_chemical_formula_sum   'Yb12 Si4 O4'
_cell_volume   403.12002496
_cell_formula_units_Z   4
loop_
 _symmetry_equiv_pos_site_id
 _symmetry_equiv_pos_as_xyz
  1  'x, y, z'
loop_
 _atom_site_type_symbol
 _atom_site_label
 _atom_site_symmetry_multiplicity
 _atom_site_fract_x
 _atom_site_fract_y
 _atom_site_fract_z
 _atom_site_occupancy
  Yb  Yb0  1  0.76531900  0.23469100  0.01601100  1
  Yb  Yb1  1  0.23468100  0.76530900  0.51601100  1
  Yb  Yb2  1  0.99891400  0.53139400  0.25000000  1
  Yb  Yb3  1  0.26531900  0.26530900  0.01601100  1
  Yb  Yb4  1  0.23468100  0.76530900  0.98398900  1
  Yb  Yb5  1  0.26531900  0.26530900  0.48398900  1
  Yb  Yb6  1  0.00108600  0.46860600  0.75000000  1
  Yb  Yb7  1  0.49891400  0.96860600  0.25000000  1
  Yb  Yb8  1  0.50108600  0.03139400  0.75000000  1
  Yb  Yb9  1  0.76531900  0.23469100  0.48398900  1
  Yb  Yb10  1  0.73468100  0.73469100  0.51601100  1
  Yb  Yb11  1  0.73468100  0.73469100  0.98398900  1
  Si  Si0  1  0.50624800  0.49899300  0.25000000  1
  Si  Si1  1  0.99375200  0.99899300  0.75000000  1
  Si  Si2  1  0.49375200  0.50100700  0.75000000  1
  Si  Si3  1  0.00624800  0.00100700  0.25000000  1
  O  O0  1  0.00000000  0.50000000  0.50000000  1
  O  O1  1  0.50000000  0.00000000  0.00000000  1
  O  O2  1  0.50000000  0.00000000  0.50000000  1
  O  O3  1  0.00000000  0.50000000  0.00000000  1
loop_
_geom_bond_atom_site_label_1
_geom_bond_atom_site_label_2
_geom_bond_distance
_geom_bond_site_symmetry_2
Si0 Yb7 3.094906 1_555
Si0 Yb5 3.101745 1_555
Si0 Yb3 3.101745 1_555
Si0 Yb2 3.245987 1_555
Si0 Yb9 3.267256 1_555
Si0 Yb0 3.267256 1_555
Si0 Yb10 3.285532 1_555
Si0 Yb11 3.285532 1_554
Si0 Yb2 3.342216 1_455
Si0 Yb7 3.495335 1_545
Si0 Yb4 3.520556 1_554
Si0 Yb1 3.520556 1_555
Si1 Yb6 3.094906 1_665
Si1 Yb1 3.101745 1_655
Si1 Yb4 3.101745 1_655
Si1 Yb8 3.245987 1_565
Si1 Yb10 3.267256 1_555
Si1 Yb11 3.267256 1_555
Si1 Yb0 3.285532 1_566
Si1 Yb9 3.285532 1_565
Si1 Yb8 3.342216 1_665
Si1 Yb6 3.495335 1_655
Si1 Yb3 3.520556 1_666
Si1 Yb5 3.520556 1_665
Si2 Yb8 3.094906 1_555
Si2 Yb10 3.101745 1_555
Si2 Yb11 3.101745 1_555
Si2 Yb6 3.245987 1_555
Si2 Yb4 3.267256 1_555
Si2 Yb1 3.267256 1_555
Si2 Yb5 3.285532 1_555
Si2 Yb3 3.285532 1_556
Si2 Yb6 3.342216 1_655
Si2 Yb8 3.495335 1_565
Si2 Yb9 3.520556 1_555
Si2 Yb0 3.520556 1_556
Si3 Yb2 3.094906 1_445
Si3 Yb0 3.101745 1_455
Si3 Yb9 3.101745 1_455
Si3 Yb7 3.245987 1_545
Si3 Yb3 3.267256 1_555
Si3 Yb5 3.267256 1_555
Si3 Yb1 3.285532 1_545
Si3 Yb4 3.285532 1_544
Si3 Yb7 3.342216 1_445
Si3 Yb2 3.495335 1_455
Si3 Yb11 3.520556 1_444
Si3 Yb10 3.520556 1_445
O0 Yb6 2.335499 1_555
O0 Yb2 2.335499 1_455
O0 Yb10 2.335905 1_455
O0 Yb5 2.335905 1_555
O0 Yb9 2.336467 1_455
O0 Yb1 2.336467 1_555
O1 Yb8 2.335499 1_554
O1 Yb7 2.335499 1_545
O1 Yb4 2.335905 1_544
O1 Yb0 2.335905 1_555
O1 Yb11 2.336467 1_544
O1 Yb3 2.336467 1_555
O2 Yb7 2.335499 1_545
O2 Yb8 2.335499 1_555
O2 Yb1 2.335905 1_545
O2 Yb9 2.335905 1_555
O2 Yb5 2.336467 1_555
O2 Yb10 2.336467 1_545
O3 Yb6 2.335499 1_554
O3 Yb2 2.335499 1_455
O3 Yb11 2.335905 1_454
O3 Yb3 2.335905 1_555
O3 Yb0 2.336467 1_455
O3 Yb4 2.336467 1_554
