# generated using pymatgen
data_Tb3CuSiS7
_symmetry_space_group_name_H-M   'P 1'
_cell_length_a   9.94491832
_cell_length_b   9.94491832
_cell_length_c   5.70554100
_cell_angle_alpha   90.00000000
_cell_angle_beta   90.00000000
_cell_angle_gamma   120.00000215
_symmetry_Int_Tables_number   1
_chemical_formula_structural   Tb3CuSiS7
_chemical_formula_sum   'Tb6 Cu2 Si2 S14'
_cell_volume   488.68599632
_cell_formula_units_Z   2
loop_
 _symmetry_equiv_pos_site_id
 _symmetry_equiv_pos_as_xyz
  1  'x, y, z'
loop_
 _atom_site_type_symbol
 _atom_site_label
 _atom_site_symmetry_multiplicity
 _atom_site_fract_x
 _atom_site_fract_y
 _atom_site_fract_z
 _atom_site_occupancy
  Tb  Tb0  1  0.87473700  0.64364600  0.24812500  1
  Tb  Tb1  1  0.35635400  0.23109100  0.24812500  1
  Tb  Tb2  1  0.23109100  0.87473700  0.74812500  1
  Tb  Tb3  1  0.12526300  0.35635400  0.74812500  1
  Tb  Tb4  1  0.64364600  0.76890900  0.74812500  1
  Tb  Tb5  1  0.76890900  0.12526300  0.24812500  1
  Cu  Cu0  1  0.00000000  0.00000000  0.20050200  1
  Cu  Cu1  1  0.00000000  0.00000000  0.70050200  1
  Si  Si0  1  0.33333300  0.66666700  0.33667300  1
  Si  Si1  1  0.66666700  0.33333300  0.83667300  1
  S  S0  1  0.66666700  0.33333300  0.46674400  1
  S  S1  1  0.89206200  0.41396100  0.98657500  1
  S  S2  1  0.90872700  0.74324700  0.72342300  1
  S  S3  1  0.52189900  0.10793800  0.98657500  1
  S  S4  1  0.47810100  0.89206200  0.48657500  1
  S  S5  1  0.74324700  0.83452000  0.22342300  1
  S  S6  1  0.10793800  0.58603900  0.48657500  1
  S  S7  1  0.58603900  0.47810100  0.98657500  1
  S  S8  1  0.16548000  0.90872700  0.22342300  1
  S  S9  1  0.83452000  0.09127300  0.72342300  1
  S  S10  1  0.09127300  0.25675300  0.22342300  1
  S  S11  1  0.33333300  0.66666700  0.96674400  1
  S  S12  1  0.41396100  0.52189900  0.48657500  1
  S  S13  1  0.25675300  0.16548000  0.72342300  1
loop_
_geom_bond_atom_site_label_1
_geom_bond_atom_site_label_2
_geom_bond_distance
_geom_bond_site_symmetry_2
Cu0 S5 2.245684 1_445
Cu0 S10 2.245684 1_555
Cu0 S8 2.245684 1_545
Cu1 S13 2.245684 1_555
Cu1 S2 2.245684 1_445
Cu1 S9 2.245684 1_455
S0 Si1 2.110645 1_555
S0 Tb5 2.995905 1_555
S0 Tb0 2.995911 1_555
S0 Tb1 2.995913 1_555
S1 Si1 2.145126 1_555
S1 Tb0 2.804945 1_556
S1 Tb5 2.907518 1_556
S1 Tb3 2.980990 1_655
S2 Tb4 2.776215 1_555
S2 Tb2 2.795590 1_655
S2 Tb0 2.848615 1_555
S2 Tb0 3.118151 1_556
S3 Si1 2.145127 1_555
S3 Tb5 2.804945 1_556
S3 Tb1 2.907518 1_556
S3 Tb2 2.980990 1_545
S4 Si0 2.145127 1_555
S4 Tb2 2.804945 1_555
S4 Tb4 2.907518 1_555
S4 Tb5 2.980990 1_565
S5 Tb5 2.776215 1_565
S5 Tb0 2.795590 1_555
S5 Tb4 2.848615 1_554
S5 Tb4 3.118151 1_555
S6 Si0 2.145126 1_555
S6 Tb3 2.804945 1_555
S6 Tb2 2.907518 1_555
S6 Tb0 2.980990 1_455
S7 Si1 2.145134 1_555
S7 Tb1 2.804945 1_556
S7 Tb0 2.907518 1_556
S7 Tb4 2.980990 1_555
S8 Tb0 2.776215 1_455
S8 Tb1 2.795590 1_565
S8 Tb2 2.848615 1_554
S8 Tb2 3.118151 1_555
S9 Tb3 2.776215 1_655
S9 Tb4 2.795590 1_545
S9 Tb5 2.848615 1_555
S9 Tb5 3.118151 1_556
S10 Tb1 2.776215 1_555
S10 Tb5 2.795590 1_455
S10 Tb3 2.848615 1_554
S10 Tb3 3.118151 1_555
S11 Si0 2.110645 1_556
S11 Tb2 2.995905 1_555
S11 Tb3 2.995911 1_555
S11 Tb4 2.995913 1_555
S12 Si0 2.145134 1_555
S12 Tb4 2.804945 1_555
S12 Tb3 2.907518 1_555
S12 Tb1 2.980990 1_555
S13 Tb2 2.776215 1_545
S13 Tb3 2.795590 1_555
S13 Tb1 2.848615 1_555
S13 Tb1 3.118151 1_556
