# generated using pymatgen
data_V2Co(PO5)2
_symmetry_space_group_name_H-M   'P 1'
_cell_length_a   7.45642400
_cell_length_b   7.36114300
_cell_length_c   7.42467668
_cell_angle_alpha   60.26593662
_cell_angle_beta   90.00000000
_cell_angle_gamma   90.00000000
_symmetry_Int_Tables_number   1
_chemical_formula_structural   V2Co(PO5)2
_chemical_formula_sum   'V4 Co2 P4 O20'
_cell_volume   353.86825462
_cell_formula_units_Z   2
loop_
 _symmetry_equiv_pos_site_id
 _symmetry_equiv_pos_as_xyz
  1  'x, y, z'
loop_
 _atom_site_type_symbol
 _atom_site_label
 _atom_site_symmetry_multiplicity
 _atom_site_fract_x
 _atom_site_fract_y
 _atom_site_fract_z
 _atom_site_occupancy
  V  V0  1  0.77540600  0.74050100  0.46283400  1
  V  V1  1  0.72459400  0.74050100  0.96283400  1
  V  V2  1  0.27540600  0.25949900  0.03716600  1
  V  V3  1  0.22459400  0.25949900  0.53716600  1
  Co  Co0  1  0.00000000  0.00000000  0.00000000  1
  Co  Co1  1  0.50000000  0.00000000  0.50000000  1
  P  P0  1  0.12040100  0.74846700  0.75012800  1
  P  P1  1  0.87959900  0.25153300  0.24987200  1
  P  P2  1  0.62040100  0.25153300  0.74987200  1
  P  P3  1  0.37959900  0.74846700  0.25012800  1
  O  O0  1  0.66080900  0.76986800  0.72869800  1
  O  O1  1  0.24380500  0.55897400  0.86648600  1
  O  O2  1  0.16080900  0.23013200  0.77130200  1
  O  O3  1  0.49449100  0.72748800  0.09025500  1
  O  O4  1  0.75442800  0.05660600  0.35533900  1
  O  O5  1  0.74380500  0.44102600  0.63351400  1
  O  O6  1  0.00477900  0.21942800  0.09828800  1
  O  O7  1  0.50550900  0.27251200  0.90974500  1
  O  O8  1  0.75619500  0.44102600  0.13351400  1
  O  O9  1  0.74557200  0.05660600  0.85533900  1
  O  O10  1  0.00550900  0.72748800  0.59025500  1
  O  O11  1  0.99522100  0.78057200  0.90171200  1
  O  O12  1  0.25619500  0.55897400  0.36648600  1
  O  O13  1  0.99449100  0.27251200  0.40974500  1
  O  O14  1  0.24557200  0.94339400  0.64466100  1
  O  O15  1  0.25442800  0.94339400  0.14466100  1
  O  O16  1  0.49522100  0.21942800  0.59828800  1
  O  O17  1  0.83919100  0.76986800  0.22869800  1
  O  O18  1  0.50477900  0.78057200  0.40171200  1
  O  O19  1  0.33919100  0.23013200  0.27130200  1
loop_
_geom_bond_atom_site_label_1
_geom_bond_atom_site_label_2
_geom_bond_distance
_geom_bond_site_symmetry_2
Co0 O6 2.076550 1_555
Co0 O11 2.076550 1_444
Co0 O2 2.082643 1_554
Co0 O17 2.082643 1_445
Co0 O15 2.117160 1_545
Co0 O9 2.117160 1_454
Co1 O18 2.076550 1_545
Co1 O16 2.076550 1_555
Co1 O0 2.082643 1_545
Co1 O19 2.082643 1_555
Co1 O4 2.117160 1_555
Co1 O14 2.117160 1_545
O0 V1 1.709428 1_555
O0 V0 2.257577 1_555
O1 P0 1.530809 1_555
O1 V2 1.936499 1_556
O2 V3 1.709428 1_555
O2 V2 2.257577 1_556
O3 P3 1.532504 1_555
O3 V1 1.938580 1_554
O4 P1 1.558404 1_555
O4 V0 2.057599 1_545
O5 P2 1.530809 1_555
O5 V0 1.936499 1_555
O6 P1 1.567668 1_455
O6 V2 2.057214 1_555
O7 P2 1.532504 1_555
O7 V2 1.938580 1_556
O8 P1 1.530809 1_555
O8 V1 1.936499 1_554
O9 P2 1.558404 1_555
O9 V1 2.057599 1_545
O10 P0 1.532504 1_555
O10 V0 1.938580 1_455
O11 P0 1.567668 1_655
O11 V1 2.057214 1_555
O12 P3 1.530809 1_555
O12 V3 1.936499 1_555
O13 P1 1.532504 1_555
O13 V3 1.938580 1_655
O14 P0 1.558404 1_555
O14 V3 2.057599 1_565
O15 P3 1.558404 1_555
O15 V2 2.057599 1_565
O16 P2 1.567668 1_555
O16 V3 2.057214 1_555
O17 V0 1.709428 1_555
O17 V1 2.257577 1_554
O18 P3 1.567668 1_555
O18 V0 2.057214 1_555
O19 V2 1.709428 1_555
O19 V3 2.257577 1_555
