# generated using pymatgen
data_CuH8C2Br3NO
_symmetry_space_group_name_H-M   'P 1'
_cell_length_a   6.49513600
_cell_length_b   8.42661715
_cell_length_c   8.97404085
_cell_angle_alpha   68.47096724
_cell_angle_beta   79.87585609
_cell_angle_gamma   76.94177665
_symmetry_Int_Tables_number   1
_chemical_formula_structural   CuH8C2Br3NO
_chemical_formula_sum   'Cu2 H16 C4 Br6 N2 O2'
_cell_volume   442.74108452
_cell_formula_units_Z   2
loop_
 _symmetry_equiv_pos_site_id
 _symmetry_equiv_pos_as_xyz
  1  'x, y, z'
loop_
 _atom_site_type_symbol
 _atom_site_label
 _atom_site_symmetry_multiplicity
 _atom_site_fract_x
 _atom_site_fract_y
 _atom_site_fract_z
 _atom_site_occupancy
  Cu  Cu0  1  0.26088500  0.06754900  0.39204500  1
  Cu  Cu1  1  0.73911500  0.93245100  0.60795500  1
  H  H0  1  0.85275400  0.19805600  0.05953900  1
  H  H1  1  0.35477400  0.62929200  0.72435000  1
  H  H2  1  0.69131300  0.53481800  0.60296900  1
  H  H3  1  0.87384800  0.46752100  0.84813500  1
  H  H4  1  0.12615200  0.53247900  0.15186500  1
  H  H5  1  0.45627600  0.63594600  0.29001100  1
  H  H6  1  0.54372400  0.36405400  0.70998900  1
  H  H7  1  0.30868700  0.46518200  0.39703100  1
  H  H8  1  0.92294100  0.29321200  0.77126200  1
  H  H9  1  0.07705900  0.70678800  0.22873800  1
  H  H10  1  0.66681100  0.15503900  0.97956600  1
  H  H11  1  0.60910300  0.32168100  0.05199400  1
  H  H12  1  0.33318900  0.84496100  0.02043400  1
  H  H13  1  0.14724600  0.80194400  0.94046100  1
  H  H14  1  0.64522600  0.37070800  0.27565000  1
  H  H15  1  0.39089700  0.67831900  0.94800600  1
  C  C0  1  0.62230400  0.46084800  0.72309000  1
  C  C1  1  0.19893500  0.62780300  0.17149600  1
  C  C2  1  0.37769600  0.53915200  0.27691000  1
  C  C3  1  0.80106500  0.37219700  0.82850400  1
  Br  Br0  1  0.62596700  0.90971400  0.36656100  1
  Br  Br1  1  0.91931400  0.24494400  0.43720600  1
  Br  Br2  1  0.08068600  0.75505600  0.56279400  1
  Br  Br3  1  0.37403300  0.09028600  0.63343900  1
  Br  Br4  1  0.78154500  0.88570600  0.88696600  1
  Br  Br5  1  0.21845500  0.11429400  0.11303400  1
  N  N0  1  0.27475900  0.74523400  0.00997600  1
  N  N1  1  0.72524100  0.25476600  0.99002400  1
  O  O0  1  0.52772900  0.42606000  0.20656100  1
  O  O1  1  0.47227100  0.57394000  0.79343900  1
loop_
_geom_bond_atom_site_label_1
_geom_bond_atom_site_label_2
_geom_bond_distance
_geom_bond_site_symmetry_2
H0 N1 1.042815 1_554
H1 O1 0.988748 1_555
H10 N1 1.036131 1_555
H11 N1 1.042448 1_554
H12 N0 1.036131 1_555
H13 N0 1.042815 1_556
H14 O0 0.988748 1_555
H15 N0 1.042448 1_556
C0 H2 1.102126 1_555
C0 H6 1.104170 1_555
C0 O1 1.435963 1_555
C1 H9 1.096995 1_555
C1 H4 1.097484 1_555
C1 N0 1.496426 1_555
C2 H7 1.102126 1_555
C2 H5 1.104170 1_555
C2 O0 1.435963 1_555
C3 H8 1.096995 1_555
C3 H3 1.097484 1_555
C3 N1 1.496426 1_555
Br0 Cu0 2.459989 1_565
Br0 Cu1 2.489482 1_555
Br1 H14 2.306833 1_555
Br1 Cu0 2.439404 1_655
Br1 Cu1 2.907345 1_545
Br2 H1 2.306833 1_555
Br2 Cu1 2.439404 1_455
Br2 Cu0 2.907345 1_565
Br3 Cu1 2.459989 1_545
Br3 Cu0 2.489482 1_555
Br4 Cu1 2.443372 1_555
Br5 Cu0 2.443372 1_555
