# generated using pymatgen
data_Na2Cu3H8(CO2)8
_symmetry_space_group_name_H-M   'P 1'
_cell_length_a   7.82264500
_cell_length_b   7.98001664
_cell_length_c   8.92071914
_cell_angle_alpha   112.92611444
_cell_angle_beta   109.25221342
_cell_angle_gamma   97.82352047
_symmetry_Int_Tables_number   1
_chemical_formula_structural   Na2Cu3H8(CO2)8
_chemical_formula_sum   'Na2 Cu3 H8 C8 O16'
_cell_volume   461.24483629
_cell_formula_units_Z   1
loop_
 _symmetry_equiv_pos_site_id
 _symmetry_equiv_pos_as_xyz
  1  'x, y, z'
loop_
 _atom_site_type_symbol
 _atom_site_label
 _atom_site_symmetry_multiplicity
 _atom_site_fract_x
 _atom_site_fract_y
 _atom_site_fract_z
 _atom_site_occupancy
  Na  Na0  1  0.53969500  0.26563700  0.01824200  1
  Na  Na1  1  0.46030500  0.73436300  0.98175800  1
  Cu  Cu0  1  0.89068700  0.03730400  0.08380900  1
  Cu  Cu1  1  0.10931300  0.96269600  0.91619100  1
  Cu  Cu2  1  0.00000000  0.50000000  0.50000000  1
  H  H0  1  0.34885700  0.46512100  0.33386400  1
  H  H1  1  0.65114300  0.53487900  0.66613600  1
  H  H2  1  0.79682000  0.24156100  0.74225000  1
  H  H3  1  0.20318000  0.75843900  0.25775000  1
  H  H4  1  0.85546700  0.79798900  0.42085400  1
  H  H5  1  0.14453300  0.20201100  0.57914600  1
  H  H6  1  0.57930500  0.07239300  0.37775400  1
  H  H7  1  0.42069500  0.92760700  0.62224600  1
  C  C0  1  0.24558400  0.32259600  0.23544500  1
  C  C1  1  0.75441600  0.67740400  0.76455500  1
  C  C2  1  0.85449300  0.16633700  0.81934300  1
  C  C3  1  0.14550700  0.83366300  0.18065700  1
  C  C4  1  0.74510100  0.66028300  0.31851700  1
  C  C5  1  0.25489900  0.33971700  0.68148300  1
  C  C6  1  0.69106900  0.14386000  0.35224400  1
  C  C7  1  0.30893100  0.85614000  0.64775600  1
  O  O0  1  0.09677200  0.28219500  0.25822200  1
  O  O1  1  0.90322800  0.71780500  0.74177800  1
  O  O2  1  0.28974700  0.22009400  0.11309200  1
  O  O3  1  0.71025300  0.77990600  0.88690800  1
  O  O4  1  0.78742100  0.16339600  0.93061400  1
  O  O5  1  0.21257900  0.83660400  0.06938600  1
  O  O6  1  0.97970500  0.09455100  0.78443800  1
  O  O7  1  0.02029500  0.90544900  0.21556200  1
  O  O8  1  0.78369400  0.50634500  0.31405300  1
  O  O9  1  0.21630600  0.49365500  0.68594700  1
  O  O10  1  0.59106500  0.65618800  0.21216100  1
  O  O11  1  0.40893500  0.34381200  0.78783900  1
  O  O12  1  0.81732400  0.29049000  0.49066900  1
  O  O13  1  0.18267600  0.70951000  0.50933100  1
  O  O14  1  0.67684600  0.07148300  0.19349300  1
  O  O15  1  0.32315400  0.92851700  0.80650700  1
loop_
_geom_bond_atom_site_label_1
_geom_bond_atom_site_label_2
_geom_bond_distance
_geom_bond_site_symmetry_2
Na0 O11 2.333714 1_554
Na0 O2 2.410013 1_555
Na0 O4 2.442254 1_554
Na0 O8 2.455123 1_555
Na0 O15 2.522885 1_544
Na0 O14 2.688722 1_555
Na0 O10 2.804903 1_555
Na1 O10 2.333714 1_556
Na1 O3 2.410013 1_555
Na1 O5 2.442254 1_556
Na1 O9 2.455123 1_555
Na1 O14 2.522885 1_566
Na1 O15 2.688722 1_555
Na1 O11 2.804903 1_555
Cu0 O0 1.989499 1_655
Cu0 O7 1.996140 1_645
Cu0 O3 2.015314 1_544
Cu0 O4 2.024168 1_554
Cu0 O14 2.196751 1_555
Cu1 O1 1.989499 1_455
Cu1 O6 1.996140 1_465
Cu1 O2 2.015314 1_566
Cu1 O5 2.024168 1_556
Cu1 O15 2.196751 1_555
Cu2 O8 1.963434 1_455
Cu2 O9 1.963434 1_555
Cu2 O12 2.001731 1_455
Cu2 O13 2.001731 1_555
Cu2 O1 2.600051 1_455
Cu2 O0 2.600051 1_555
C0 H0 1.105078 1_555
C0 O0 1.266967 1_555
C0 O2 1.268769 1_555
C1 H1 1.105078 1_555
C1 O1 1.266967 1_555
C1 O3 1.268769 1_555
C2 H2 1.107975 1_555
C2 O6 1.264687 1_555
C2 O4 1.272547 1_555
C3 H3 1.107975 1_555
C3 O7 1.264687 1_555
C3 O5 1.272547 1_555
C4 H4 1.107583 1_555
C4 O10 1.250758 1_555
C4 O8 1.293269 1_555
C5 H5 1.107583 1_555
C5 O11 1.250758 1_555
C5 O9 1.293269 1_555
C6 H6 1.112652 1_555
C6 O14 1.262087 1_555
C6 O12 1.274700 1_555
C7 H7 1.112652 1_555
C7 O15 1.262087 1_555
C7 O13 1.274700 1_555
