# generated using pymatgen
data_ZnSnAs2
_symmetry_space_group_name_H-M   'P 1'
_cell_length_a   5.86348283
_cell_length_b   5.86348201
_cell_length_c   7.20082947
_cell_angle_alpha   114.02525600
_cell_angle_beta   114.02525108
_cell_angle_gamma   90.00000761
_symmetry_Int_Tables_number   1
_chemical_formula_structural   ZnSnAs2
_chemical_formula_sum   'Zn2 Sn2 As4'
_cell_volume   202.41208264
_cell_formula_units_Z   2
loop_
 _symmetry_equiv_pos_site_id
 _symmetry_equiv_pos_as_xyz
  1  'x, y, z'
loop_
 _atom_site_type_symbol
 _atom_site_label
 _atom_site_symmetry_multiplicity
 _atom_site_fract_x
 _atom_site_fract_y
 _atom_site_fract_z
 _atom_site_occupancy
  Zn  Zn0  1  0.00000000  -0.00000000  0.00000000  1
  Zn  Zn1  1  0.25000000  0.75000000  0.50000000  1
  Sn  Sn0  1  0.50000000  0.50000000  0.00000000  1
  Sn  Sn1  1  0.75000000  0.25000000  0.50000000  1
  As  As0  1  0.35172530  0.37500000  0.25000000  1
  As  As1  1  0.89827470  0.87500000  0.25000000  1
  As  As2  1  0.12500000  0.64827470  0.75000000  1
  As  As3  1  0.62500000  0.10172530  0.75000000  1
loop_
_geom_bond_atom_site_label_1
_geom_bond_atom_site_label_2
_geom_bond_distance
_geom_bond_site_symmetry_2
As0 Zn1 2.466260 1_555
As0 Zn0 2.466260 1_555
As0 Sn0 2.623477 1_555
As0 Sn1 2.623478 1_555
As1 Zn0 2.466260 1_665
As1 Zn1 2.466260 1_655
As1 Sn1 2.623477 1_565
As1 Sn0 2.623477 1_555
As2 Zn1 2.466260 1_555
As2 Zn0 2.466260 1_566
As2 Sn1 2.623477 1_455
As2 Sn0 2.623478 1_556
As3 Zn1 2.466260 1_545
As3 Zn0 2.466260 1_656
As3 Sn1 2.623477 1_555
As3 Sn0 2.623477 1_556
