# generated using pymatgen
data_Sr2CoWO6
_symmetry_space_group_name_H-M   'P 1'
_cell_length_a   5.68111253
_cell_length_b   5.68361333
_cell_length_c   5.69141214
_cell_angle_alpha   119.87852195
_cell_angle_beta   90.07790906
_cell_angle_gamma   119.93787784
_symmetry_Int_Tables_number   1
_chemical_formula_structural   Sr2CoWO6
_chemical_formula_sum   'Sr2 Co1 W1 O6'
_cell_volume   130.21787483
_cell_formula_units_Z   1
loop_
 _symmetry_equiv_pos_site_id
 _symmetry_equiv_pos_as_xyz
  1  'x, y, z'
loop_
 _atom_site_type_symbol
 _atom_site_label
 _atom_site_symmetry_multiplicity
 _atom_site_fract_x
 _atom_site_fract_y
 _atom_site_fract_z
 _atom_site_occupancy
  Sr  Sr0  1  0.75038000  0.50062400  0.25107500  1
  Sr  Sr1  1  0.24962000  0.49937600  0.74892500  1
  Co  Co0  1  0.50000000  0.00000000  0.50000000  1
  W  W0  1  0.00000000  0.00000000  0.00000000  1
  O  O0  1  0.24156400  0.48335000  0.24166600  1
  O  O1  1  0.75843600  0.51665000  0.75833400  1
  O  O2  1  0.75774000  0.99979500  0.75760500  1
  O  O3  1  0.24225900  0.00020400  0.24239500  1
  O  O4  1  0.75818200  0.00024800  0.24199000  1
  O  O5  1  0.24181800  0.99975200  0.75800900  1
loop_
_geom_bond_atom_site_label_1
_geom_bond_atom_site_label_2
_geom_bond_distance
_geom_bond_site_symmetry_2
Co0 O3 2.071509 1_555
Co0 O2 2.071509 1_545
Co0 O5 2.076908 1_545
Co0 O4 2.076913 1_555
Co0 O0 2.080729 1_545
Co0 O1 2.080729 1_555
O0 W0 1.946618 1_555
O0 Sr0 2.840397 1_455
O0 Sr1 2.842315 1_555
O0 Sr0 2.842426 1_555
O0 Sr1 2.850561 1_554
O1 W0 1.946618 1_666
O1 Sr1 2.840397 1_655
O1 Sr0 2.842315 1_555
O1 Sr1 2.842426 1_555
O1 Sr0 2.850561 1_556
O2 W0 1.946553 1_666
O2 Sr1 2.844217 1_555
O2 Sr1 2.845007 1_665
O2 Sr0 2.845021 1_555
O2 Sr0 2.854163 1_566
O3 W0 1.946553 1_555
O3 Sr0 2.844223 1_555
O3 Sr0 2.845001 1_445
O3 Sr1 2.845021 1_555
O3 Sr1 2.854163 1_544
O4 W0 1.946617 1_655
O4 Sr0 2.841121 1_555
O4 Sr1 2.843367 1_655
O4 Sr0 2.844122 1_545
O4 Sr1 2.852313 1_544
O5 W0 1.946621 1_566
O5 Sr1 2.841124 1_555
O5 Sr0 2.843365 1_455
O5 Sr1 2.844119 1_565
O5 Sr0 2.852316 1_566
