# generated using pymatgen
data_PrAl22O34
_symmetry_space_group_name_H-M   'P 1'
_cell_length_a   9.81432700
_cell_length_b   11.30103201
_cell_length_c   11.80841927
_cell_angle_alpha   103.84135879
_cell_angle_beta   98.04262887
_cell_angle_gamma   89.99822551
_symmetry_Int_Tables_number   1
_chemical_formula_structural   PrAl22O34
_chemical_formula_sum   'Pr2 Al44 O68'
_cell_volume   1258.39484176
_cell_formula_units_Z   2
loop_
 _symmetry_equiv_pos_site_id
 _symmetry_equiv_pos_as_xyz
  1  'x, y, z'
loop_
 _atom_site_type_symbol
 _atom_site_label
 _atom_site_symmetry_multiplicity
 _atom_site_fract_x
 _atom_site_fract_y
 _atom_site_fract_z
 _atom_site_occupancy
  Pr  Pr0  1  0.00000000  0.50000000  0.50000000  1
  Pr  Pr1  1  0.50000000  0.00000000  0.50000000  1
  Al  Al0  1  0.00076000  0.75111800  0.00217900  1
  Al  Al1  1  0.95002100  0.42737500  0.20516700  1
  Al  Al2  1  0.95294600  0.67830400  0.21657200  1
  Al  Al3  1  0.99924000  0.24888200  0.99782100  1
  Al  Al4  1  0.82373300  0.48751000  0.94919800  1
  Al  Al5  1  0.77217100  0.41070400  0.64895400  1
  Al  Al6  1  0.72235900  0.33633700  0.35128500  1
  Al  Al7  1  0.45034800  0.17988800  0.21661400  1
  Al  Al8  1  0.70324500  0.05301300  0.21603800  1
  Al  Al9  1  0.95189800  0.92983700  0.21635400  1
  Al  Al10  1  0.95070600  0.17828800  0.21584800  1
  Al  Al11  1  0.50000000  0.00000000  0.00000000  1
  Al  Al12  1  0.67423800  0.26190600  0.05139900  1
  Al  Al13  1  0.82614900  0.98605800  0.94970000  1
  Al  Al14  1  0.55010700  0.07473100  0.79440100  1
  Al  Al15  1  0.79569000  0.19523400  0.78308500  1
  Al  Al16  1  0.77788200  0.91072200  0.64863700  1
  Al  Al17  1  0.72752300  0.83625300  0.35107000  1
  Al  Al18  1  0.20431000  0.80476600  0.21691500  1
  Al  Al19  1  0.45325600  0.67971900  0.21583100  1
  Al  Al20  1  0.70406600  0.55353700  0.21671600  1
  Al  Al21  1  0.44989300  0.92526900  0.20559900  1
  Al  Al22  1  0.50000000  0.50000000  0.00000000  1
  Al  Al23  1  0.67584800  0.76219000  0.04974600  1
  Al  Al24  1  0.32576200  0.73809400  0.94860100  1
  Al  Al25  1  0.54794500  0.57172800  0.78418200  1
  Al  Al26  1  0.54965200  0.82011200  0.78338600  1
  Al  Al27  1  0.29675500  0.94698700  0.78396200  1
  Al  Al28  1  0.79700900  0.69496900  0.78424500  1
  Al  Al29  1  0.27764100  0.66366300  0.64871500  1
  Al  Al30  1  0.22782900  0.58929600  0.35104600  1
  Al  Al31  1  0.20299100  0.30503100  0.21575500  1
  Al  Al32  1  0.45205500  0.42827200  0.21581800  1
  Al  Al33  1  0.17626700  0.51249000  0.05080200  1
  Al  Al34  1  0.32415200  0.23781000  0.95025400  1
  Al  Al35  1  0.04705400  0.32169600  0.78342800  1
  Al  Al36  1  0.04997900  0.57262500  0.79483300  1
  Al  Al37  1  0.29593400  0.44646300  0.78328400  1
  Al  Al38  1  0.54674400  0.32028100  0.78416900  1
  Al  Al39  1  0.27247700  0.16374700  0.64893000  1
  Al  Al40  1  0.22211800  0.08927800  0.35136300  1
  Al  Al41  1  0.17385100  0.01394200  0.05030000  1
  Al  Al42  1  0.04929400  0.82171200  0.78415200  1
  Al  Al43  1  0.04810200  0.07016300  0.78364600  1
  O  O0  1  0.95499500  0.67474500  0.71276300  1
  O  O1  1  0.85147100  0.52793400  0.11100000  1
  O  O2  1  0.90465500  0.34359300  0.89883800  1
  O  O3  1  0.90668200  0.60731800  0.90077300  1
  O  O4  1  0.95174200  0.17894400  0.71573200  1
  O  O5  1  0.69934400  0.30041200  0.70852300  1
  O  O6  1  0.95481100  0.43019200  0.70616400  1
  O  O7  1  0.78158500  0.39090900  0.50013300  1
  O  O8  1  0.79673000  0.19650800  0.28895000  1
  O  O9  1  0.80484500  0.44917000  0.29391900  1
  O  O10  1  0.85199900  0.02723500  0.11084000  1
  O  O11  1  0.59386500  0.14161400  0.10134500  1
  O  O12  1  0.85946500  0.27564700  0.09888000  1
  O  O13  1  0.40629600  0.09317200  0.90052900  1
  O  O14  1  0.90705900  0.84125400  0.89924700  1
  O  O15  1  0.64066800  0.97584400  0.90064600  1
  O  O16  1  0.90287500  0.10657100  0.89873600  1
  O  O17  1  0.64818900  0.22188300  0.88953600  1
  O  O18  1  0.45494800  0.93157900  0.71253300  1
  O  O19  1  0.70371300  0.80182700  0.71067500  1
  O  O20  1  0.69519400  0.05226400  0.70585700  1
  O  O21  1  0.45495600  0.17293700  0.70623200  1
  O  O22  1  0.95396400  0.92625000  0.70785400  1
  O  O23  1  0.71836700  0.89104900  0.49987500  1
  O  O24  1  0.54504400  0.82706300  0.29376800  1
  O  O25  1  0.30480600  0.94773600  0.29414300  1
  O  O26  1  0.80027600  0.69614400  0.29187500  1
  O  O27  1  0.79832500  0.94673800  0.28912800  1
  O  O28  1  0.54505200  0.06842100  0.28746700  1
  O  O29  1  0.35181100  0.77811700  0.11046400  1
  O  O30  1  0.59440900  0.64417900  0.10058600  1
  O  O31  1  0.59370400  0.90682800  0.09947100  1
  O  O32  1  0.86013800  0.77453400  0.09940100  1
  O  O33  1  0.35933200  0.02415600  0.09935400  1
  O  O34  1  0.14053500  0.72435300  0.90112000  1
  O  O35  1  0.40333100  0.59268300  0.89885600  1
  O  O36  1  0.63964000  0.47526000  0.90110900  1
  O  O37  1  0.40613500  0.85838600  0.89865500  1
  O  O38  1  0.64836800  0.72249100  0.88869200  1
  O  O39  1  0.45182100  0.42893800  0.71589100  1
  O  O40  1  0.19515500  0.55083000  0.70608100  1
  O  O41  1  0.20327000  0.80349200  0.71105000  1
  O  O42  1  0.70165300  0.55213800  0.71127700  1
  O  O43  1  0.45383200  0.67763800  0.70781800  1
  O  O44  1  0.21841500  0.60909100  0.49986700  1
  O  O45  1  0.04518900  0.56980800  0.29383600  1
  O  O46  1  0.29834700  0.44786200  0.28872300  1
  O  O47  1  0.54616800  0.32236200  0.29218200  1
  O  O48  1  0.30065600  0.69958800  0.29147700  1
  O  O49  1  0.54817900  0.57106200  0.28410900  1
  O  O50  1  0.35163200  0.27750900  0.11130800  1
  O  O51  1  0.09331800  0.39268200  0.09922700  1
  O  O52  1  0.09534500  0.65640700  0.10116200  1
  O  O53  1  0.36036000  0.52474000  0.09889100  1
  O  O54  1  0.59666900  0.40731700  0.10114400  1
  O  O55  1  0.13986200  0.22546600  0.90059900  1
  O  O56  1  0.40559100  0.35582100  0.89941400  1
  O  O57  1  0.14852900  0.47206600  0.88900000  1
  O  O58  1  0.20167500  0.05326200  0.71087200  1
  O  O59  1  0.19972400  0.30385600  0.70812500  1
  O  O60  1  0.28163300  0.10895100  0.50012500  1
  O  O61  1  0.04603600  0.07375000  0.29214600  1
  O  O62  1  0.29628700  0.19817300  0.28932500  1
  O  O63  1  0.04500500  0.32525500  0.28723700  1
  O  O64  1  0.09712500  0.89342900  0.10126400  1
  O  O65  1  0.09294100  0.15874600  0.10075300  1
  O  O66  1  0.14800100  0.97276500  0.88916000  1
  O  O67  1  0.04825800  0.82105600  0.28426800  1
loop_
_geom_bond_atom_site_label_1
_geom_bond_atom_site_label_2
_geom_bond_distance
_geom_bond_site_symmetry_2
Al0 O32 1.894912 1_455
Al0 O64 1.907893 1_555
Al0 O14 1.907935 1_454
Al0 O52 1.915310 1_555
Al0 O34 1.919046 1_554
Al0 O3 1.920139 1_454
Al1 O63 1.849951 1_655
Al1 O45 1.865385 1_655
Al1 O9 1.866383 1_555
Al1 O1 1.940877 1_555
Al1 O51 1.988498 1_655
Al1 O12 1.990857 1_555
Al2 O67 1.813949 1_655
Al2 O26 1.833964 1_555
Al2 O45 1.859947 1_655
Al2 O1 2.018110 1_555
Al2 O52 2.059902 1_655
Al2 O32 2.072170 1_555
Al3 O55 1.894912 1_655
Al3 O16 1.907893 1_555
Al3 O65 1.907935 1_656
Al3 O2 1.915310 1_555
Al3 O12 1.919046 1_556
Al3 O51 1.920139 1_656
Al4 O36 1.811431 1_555
Al4 O2 1.816288 1_555
Al4 O3 1.823097 1_555
Al4 O1 1.835793 1_556
Al5 O7 1.733251 1_555
Al5 O5 1.766194 1_555
Al5 O42 1.776217 1_555
Al5 O6 1.818762 1_555
Al6 O7 1.732936 1_555
Al6 O47 1.764009 1_555
Al6 O8 1.779148 1_555
Al6 O9 1.818514 1_555
Al7 O62 1.828773 1_555
Al7 O47 1.830548 1_555
Al7 O28 1.854001 1_555
Al7 O50 2.005298 1_555
Al7 O11 2.068448 1_555
Al7 O33 2.073781 1_555
Al8 O8 1.823132 1_555
Al8 O27 1.824457 1_545
Al8 O28 1.856968 1_555
Al8 O10 2.023275 1_555
Al8 O11 2.056975 1_555
Al8 O31 2.068258 1_545
Al9 O67 1.818843 1_655
Al9 O27 1.824975 1_555
Al9 O61 1.836280 1_665
Al9 O10 2.009849 1_565
Al9 O32 2.071458 1_555
Al9 O64 2.078987 1_655
Al10 O8 1.830611 1_555
Al10 O61 1.831962 1_655
Al10 O63 1.854063 1_655
Al10 O10 2.010284 1_555
Al10 O65 2.057133 1_655
Al10 O12 2.073918 1_555
Al11 O11 1.901910 1_555
Al11 O37 1.901910 1_544
Al11 O13 1.903558 1_554
Al11 O31 1.903558 1_545
Al11 O33 1.912292 1_555
Al11 O15 1.912292 1_544
Al12 O54 1.813345 1_555
Al12 O12 1.821074 1_555
Al12 O11 1.825365 1_555
Al12 O17 1.836523 1_554
Al13 O16 1.817431 1_565
Al13 O14 1.824620 1_555
Al13 O15 1.826355 1_555
Al13 O10 1.828346 1_566
Al14 O18 1.850163 1_545
Al14 O21 1.862388 1_555
Al14 O20 1.864084 1_555
Al14 O17 1.938489 1_555
Al14 O15 1.992875 1_545
Al14 O13 1.993987 1_555
Al15 O4 1.811863 1_555
Al15 O5 1.830255 1_555
Al15 O20 1.859668 1_555
Al15 O17 2.023470 1_555
Al15 O16 2.056270 1_555
Al15 O2 2.077875 1_555
Al16 O23 1.732753 1_555
Al16 O22 1.763335 1_555
Al16 O19 1.778085 1_555
Al16 O20 1.819332 1_565
Al17 O23 1.732824 1_555
Al17 O26 1.765088 1_555
Al17 O27 1.776537 1_555
Al17 O24 1.817495 1_555
Al18 O67 1.811863 1_555
Al18 O48 1.830255 1_555
Al18 O25 1.859668 1_555
Al18 O29 2.023470 1_555
Al18 O64 2.056270 1_555
Al18 O52 2.077875 1_555
Al19 O49 1.813619 1_555
Al19 O48 1.835672 1_555
Al19 O24 1.861733 1_555
Al19 O29 2.022663 1_555
Al19 O30 2.048986 1_555
Al19 O53 2.072718 1_555
Al20 O49 1.810652 1_555
Al20 O26 1.832421 1_555
Al20 O9 1.860800 1_555
Al20 O1 2.016791 1_555
Al20 O54 2.054894 1_555
Al20 O30 2.084967 1_555
Al21 O28 1.850163 1_565
Al21 O24 1.862388 1_555
Al21 O25 1.864084 1_555
Al21 O29 1.938489 1_555
Al21 O33 1.992875 1_565
Al21 O31 1.993987 1_555
Al22 O36 1.900414 1_554
Al22 O53 1.900414 1_555
Al22 O30 1.921016 1_555
Al22 O56 1.921016 1_554
Al22 O35 1.924858 1_554
Al22 O54 1.924858 1_555
Al23 O30 1.815287 1_555
Al23 O32 1.816238 1_555
Al23 O38 1.827314 1_554
Al23 O31 1.827471 1_555
Al24 O35 1.813345 1_555
Al24 O34 1.821074 1_555
Al24 O37 1.825365 1_555
Al24 O29 1.836523 1_556
Al25 O39 1.819018 1_555
Al25 O42 1.827028 1_555
Al25 O43 1.839048 1_555
Al25 O38 2.012696 1_555
Al25 O36 2.068148 1_555
Al25 O35 2.070852 1_555
Al26 O19 1.828773 1_555
Al26 O43 1.830548 1_555
Al26 O18 1.854001 1_555
Al26 O38 2.005298 1_555
Al26 O37 2.068448 1_555
Al26 O15 2.073781 1_555
Al27 O41 1.823132 1_555
Al27 O58 1.824457 1_565
Al27 O18 1.856968 1_555
Al27 O66 2.023275 1_555
Al27 O37 2.056975 1_555
Al27 O13 2.068258 1_565
Al28 O19 1.825029 1_555
Al28 O42 1.825564 1_555
Al28 O0 1.855465 1_555
Al28 O38 2.016412 1_555
Al28 O14 2.063782 1_555
Al28 O3 2.066593 1_555
Al29 O44 1.732936 1_555
Al29 O43 1.764009 1_555
Al29 O41 1.779148 1_555
Al29 O40 1.818514 1_555
Al30 O44 1.733251 1_555
Al30 O48 1.766194 1_555
Al30 O46 1.776217 1_555
Al30 O45 1.818762 1_555
Al31 O62 1.825029 1_555
Al31 O46 1.825564 1_555
Al31 O63 1.855465 1_555
Al31 O50 2.016412 1_555
Al31 O65 2.063782 1_555
Al31 O51 2.066593 1_555
Al32 O49 1.819018 1_555
Al32 O46 1.827028 1_555
Al32 O47 1.839048 1_555
Al32 O50 2.012696 1_555
Al32 O53 2.068148 1_555
Al32 O54 2.070852 1_555
Al33 O53 1.811431 1_555
Al33 O52 1.816288 1_555
Al33 O51 1.823097 1_555
Al33 O57 1.835793 1_554
Al34 O56 1.815287 1_555
Al34 O55 1.816238 1_555
Al34 O50 1.827314 1_556
Al34 O13 1.827471 1_555
Al35 O4 1.813949 1_455
Al35 O59 1.833964 1_555
Al35 O6 1.859947 1_455
Al35 O57 2.018110 1_555
Al35 O2 2.059902 1_455
Al35 O55 2.072170 1_555
Al36 O0 1.849951 1_455
Al36 O6 1.865385 1_455
Al36 O40 1.866383 1_555
Al36 O57 1.940877 1_555
Al36 O3 1.988498 1_455
Al36 O34 1.990857 1_555
Al37 O39 1.810652 1_555
Al37 O59 1.832421 1_555
Al37 O40 1.860800 1_555
Al37 O57 2.016791 1_555
Al37 O35 2.054894 1_555
Al37 O56 2.084967 1_555
Al38 O39 1.813619 1_555
Al38 O5 1.835672 1_555
Al38 O21 1.861733 1_555
Al38 O17 2.022663 1_555
Al38 O56 2.048986 1_555
Al38 O36 2.072718 1_555
Al39 O60 1.732824 1_555
Al39 O59 1.765088 1_555
Al39 O58 1.776537 1_555
Al39 O21 1.817495 1_555
Al40 O60 1.732753 1_555
Al40 O61 1.763335 1_555
Al40 O62 1.778085 1_555
Al40 O25 1.819332 1_545
Al41 O64 1.817431 1_545
Al41 O65 1.824620 1_555
Al41 O33 1.826355 1_555
Al41 O66 1.828346 1_544
Al42 O41 1.830611 1_555
Al42 O22 1.831962 1_455
Al42 O0 1.854063 1_455
Al42 O66 2.010284 1_555
Al42 O14 2.057133 1_455
Al42 O34 2.073918 1_555
Al43 O4 1.818843 1_455
Al43 O58 1.824975 1_555
Al43 O22 1.836280 1_445
Al43 O66 2.009849 1_545
Al43 O55 2.071458 1_555
Al43 O16 2.078987 1_455
O0 Pr0 2.888530 1_655
O6 Pr0 2.822548 1_655
O7 Pr0 2.473244 1_655
O9 Pr0 2.819095 1_655
O18 Pr1 2.886329 1_565
O20 Pr1 2.817413 1_555
O21 Pr1 2.823030 1_555
O23 Pr1 2.471606 1_565
O24 Pr1 2.823030 1_565
O25 Pr1 2.817413 1_565
O28 Pr1 2.886329 1_555
O40 Pr0 2.819095 1_555
O44 Pr0 2.473244 1_555
O45 Pr0 2.822548 1_555
O60 Pr1 2.471606 1_555
O63 Pr0 2.888530 1_555
