# generated using pymatgen
data_BaZr(PO4)2
_symmetry_space_group_name_H-M   'P 1'
_cell_length_a   5.26568815
_cell_length_b   5.26568805
_cell_length_c   7.54116969
_cell_angle_alpha   90.00000000
_cell_angle_beta   90.00000000
_cell_angle_gamma   120.00000662
_symmetry_Int_Tables_number   1
_chemical_formula_structural   BaZr(PO4)2
_chemical_formula_sum   'Ba1 Zr1 P2 O8'
_cell_volume   181.08379118
_cell_formula_units_Z   1
loop_
 _symmetry_equiv_pos_site_id
 _symmetry_equiv_pos_as_xyz
  1  'x, y, z'
loop_
 _atom_site_type_symbol
 _atom_site_label
 _atom_site_symmetry_multiplicity
 _atom_site_fract_x
 _atom_site_fract_y
 _atom_site_fract_z
 _atom_site_occupancy
  Ba  Ba0  1  0.00000000  0.00000000  -0.00000000  1
  Zr  Zr0  1  0.00000000  0.00000000  0.50000000  1
  P  P0  1  0.33333300  0.66666700  0.74499418  1
  P  P1  1  0.66666700  0.33333300  0.25500582  1
  O  O0  1  0.82393037  0.64786174  0.32831019  1
  O  O1  1  0.17606963  0.82393037  0.67168981  1
  O  O2  1  0.17606963  0.35213826  0.67168981  1
  O  O3  1  0.35213826  0.17606963  0.32831019  1
  O  O4  1  0.82393037  0.17606963  0.32831019  1
  O  O5  1  0.66666700  0.33333300  0.05631097  1
  O  O6  1  0.33333300  0.66666700  0.94368903  1
  O  O7  1  0.64786174  0.82393037  0.67168981  1
loop_
_geom_bond_atom_site_label_1
_geom_bond_atom_site_label_2
_geom_bond_distance
_geom_bond_site_symmetry_2
Ba0 O2 2.951013 1_554
Ba0 O0 2.951013 1_445
Ba0 O7 2.951013 1_444
Ba0 O3 2.951013 1_555
Ba0 O1 2.951016 1_544
Ba0 O4 2.951016 1_455
Ba0 O6 3.069658 1_544
Ba0 O5 3.069658 1_455
Ba0 O6 3.069662 1_554
Ba0 O5 3.069662 1_445
Ba0 O6 3.069662 1_444
Ba0 O5 3.069662 1_555
O0 P1 1.537161 1_555
O0 Zr0 2.062775 1_665
O1 P0 1.537152 1_555
O1 Zr0 2.062778 1_565
O2 P0 1.537161 1_555
O2 Zr0 2.062775 1_555
O3 P1 1.537161 1_555
O3 Zr0 2.062775 1_555
O4 P1 1.537152 1_555
O4 Zr0 2.062778 1_655
O5 P1 1.498392 1_555
O6 P0 1.498392 1_555
O7 P0 1.537161 1_555
O7 Zr0 2.062775 1_665
