# generated using pymatgen
data_KPSe3
_symmetry_space_group_name_H-M   'P 1'
_cell_length_a   7.30874671
_cell_length_b   7.30874691
_cell_length_c   18.97090961
_cell_angle_alpha   90.00000000
_cell_angle_beta   90.00000000
_cell_angle_gamma   120.00000769
_symmetry_Int_Tables_number   1
_chemical_formula_structural   KPSe3
_chemical_formula_sum   'K6 P6 Se18'
_cell_volume   877.61611077
_cell_formula_units_Z   6
loop_
 _symmetry_equiv_pos_site_id
 _symmetry_equiv_pos_as_xyz
  1  'x, y, z'
loop_
 _atom_site_type_symbol
 _atom_site_label
 _atom_site_symmetry_multiplicity
 _atom_site_fract_x
 _atom_site_fract_y
 _atom_site_fract_z
 _atom_site_occupancy
  K  K0  1  0.28355962  0.73548840  0.41230000  1
  K  K1  1  0.73548840  0.28355962  0.58770000  1
  K  K2  1  0.71644038  0.45192978  0.92103400  1
  K  K3  1  0.45192978  0.71644038  0.07896600  1
  K  K4  1  0.26451160  0.54806922  0.74563300  1
  K  K5  1  0.54806922  0.26451160  0.25436700  1
  P  P0  1  0.93564630  0.06987266  0.38754396  1
  P  P1  1  0.06987266  0.93564630  0.61245604  1
  P  P2  1  0.86577465  0.93012734  0.27912204  1
  P  P3  1  0.93012734  0.86577465  0.72087796  1
  P  P4  1  0.13422535  0.06435370  0.05421096  1
  P  P5  1  0.06435370  0.13422535  0.94578904  1
  Se  Se0  1  0.00105798  0.72925534  0.05996167  1
  Se  Se1  1  0.92521970  0.18049032  0.10987057  1
  Se  Se2  1  0.81950968  0.74472938  0.44320457  1
  Se  Se3  1  0.25527062  0.07478030  0.77653757  1
  Se  Se4  1  0.99894202  0.72819636  0.27337233  1
  Se  Se5  1  0.53880749  0.79585683  0.25302469  1
  Se  Se6  1  0.18049032  0.92521970  0.89012943  1
  Se  Se7  1  0.27180364  0.27074466  0.60670533  1
  Se  Se8  1  0.74472938  0.81950968  0.55679543  1
  Se  Se9  1  0.27074466  0.27180364  0.39329467  1
  Se  Se10  1  0.46119251  0.25704834  0.08030831  1
  Se  Se11  1  0.25704834  0.46119251  0.91969169  1
  Se  Se12  1  0.20414317  0.74295166  0.58635869  1
  Se  Se13  1  0.79585683  0.53880749  0.74697531  1
  Se  Se14  1  0.72925534  0.00105798  0.94003833  1
  Se  Se15  1  0.07478030  0.25527062  0.22346243  1
  Se  Se16  1  0.74295166  0.20414317  0.41364131  1
  Se  Se17  1  0.72819636  0.99894202  0.72662767  1
loop_
_geom_bond_atom_site_label_1
_geom_bond_atom_site_label_2
_geom_bond_distance
_geom_bond_site_symmetry_2
K0 Se4 3.341482 1_455
K0 Se12 3.357840 1_555
K0 Se9 3.362494 1_555
K0 Se16 3.392031 1_565
K0 Se5 3.461483 1_555
K0 Se2 3.475698 1_455
K1 Se17 3.341482 1_545
K1 Se16 3.357840 1_555
K1 Se7 3.362494 1_555
K1 Se12 3.392031 1_655
K1 Se13 3.461483 1_555
K1 Se8 3.475698 1_545
K2 Se0 3.341482 1_656
K2 Se13 3.357838 1_555
K2 Se14 3.362507 1_555
K2 Se11 3.392032 1_555
K2 Se10 3.461468 1_556
K2 Se6 3.475694 1_655
K3 Se14 3.341482 1_564
K3 Se5 3.357838 1_555
K3 Se0 3.362507 1_555
K3 Se10 3.392032 1_555
K3 Se11 3.461468 1_554
K3 Se1 3.475694 1_565
K4 Se7 3.341478 1_555
K4 Se11 3.357836 1_555
K4 Se17 3.362504 1_555
K4 Se13 3.392035 1_455
K4 Se12 3.461476 1_555
K4 Se3 3.475683 1_555
K5 Se9 3.341478 1_555
K5 Se10 3.357836 1_555
K5 Se4 3.362504 1_555
K5 Se5 3.392035 1_545
K5 Se16 3.461476 1_555
K5 Se15 3.475683 1_555
P0 Se16 2.138625 1_555
P0 Se9 2.138643 1_655
P0 P2 2.238989 1_545
P0 Se2 2.337861 1_545
P1 Se12 2.138625 1_555
P1 Se7 2.138643 1_565
P1 P3 2.238989 1_455
P1 Se8 2.337861 1_455
P2 Se5 2.138638 1_555
P2 Se4 2.138643 1_555
P2 Se15 2.337851 1_665
P3 Se13 2.138638 1_555
P3 Se17 2.138643 1_555
P3 Se3 2.337851 1_665
P4 Se10 2.138637 1_555
P4 Se0 2.138643 1_545
P4 P5 2.238984 1_554
P4 Se1 2.337847 1_455
P5 Se11 2.138637 1_555
P5 Se14 2.138643 1_455
P5 Se6 2.337847 1_545
Se1 Se15 2.353704 1_655
Se2 Se8 2.353687 1_555
Se3 Se6 2.353704 1_545
