# generated using pymatgen
data_CaCr2(PO4)2
_symmetry_space_group_name_H-M   'P 1'
_cell_length_a   9.18332053
_cell_length_b   9.18332053
_cell_length_c   17.04907190
_cell_angle_alpha   62.24569939
_cell_angle_beta   62.24569939
_cell_angle_gamma   32.19824213
_symmetry_Int_Tables_number   1
_chemical_formula_structural   CaCr2(PO4)2
_chemical_formula_sum   'Ca4 Cr8 P8 O32'
_cell_volume   670.12830923
_cell_formula_units_Z   4
loop_
 _symmetry_equiv_pos_site_id
 _symmetry_equiv_pos_as_xyz
  1  'x, y, z'
loop_
 _atom_site_type_symbol
 _atom_site_label
 _atom_site_symmetry_multiplicity
 _atom_site_fract_x
 _atom_site_fract_y
 _atom_site_fract_z
 _atom_site_occupancy
  Ca  Ca0  1  0.47005200  0.83129200  0.86212300  1
  Ca  Ca1  1  0.16870800  0.52994800  0.63787700  1
  Ca  Ca2  1  0.83129200  0.47005200  0.36212300  1
  Ca  Ca3  1  0.52994800  0.16870800  0.13787700  1
  Cr  Cr0  1  0.15890200  0.64519400  0.96317500  1
  Cr  Cr1  1  0.35480600  0.84109800  0.53682500  1
  Cr  Cr2  1  0.84109800  0.35480600  0.03682500  1
  Cr  Cr3  1  0.50000000  0.00000000  0.00000000  1
  Cr  Cr4  1  0.64519400  0.15890200  0.46317500  1
  Cr  Cr5  1  0.69216000  0.30784000  0.25000000  1
  Cr  Cr6  1  0.30784000  0.69216000  0.75000000  1
  Cr  Cr7  1  0.00000000  0.50000000  0.50000000  1
  P  P0  1  0.05249000  0.51422000  0.86703100  1
  P  P1  1  0.76857200  0.19869500  0.60763800  1
  P  P2  1  0.94751000  0.48578000  0.13296900  1
  P  P3  1  0.19869500  0.76857200  0.10763800  1
  P  P4  1  0.51422000  0.05249000  0.36703100  1
  P  P5  1  0.48578000  0.94751000  0.63296900  1
  P  P6  1  0.23142800  0.80130500  0.39236200  1
  P  P7  1  0.80130500  0.23142800  0.89236200  1
  O  O0  1  0.69809400  0.80485700  0.10541100  1
  O  O1  1  0.82519600  0.34208500  0.92597600  1
  O  O2  1  0.80485700  0.69809400  0.60541100  1
  O  O3  1  0.80616300  0.34838800  0.53164900  1
  O  O4  1  0.19264200  0.36115600  0.05155800  1
  O  O5  1  0.55805800  0.35119400  0.68866200  1
  O  O6  1  0.65161200  0.19383700  0.96835100  1
  O  O7  1  0.89289100  0.06575500  0.13179200  1
  O  O8  1  0.19383700  0.65161200  0.46835100  1
  O  O9  1  0.65791500  0.17480400  0.57402400  1
  O  O10  1  0.87263000  0.37462700  0.14348900  1
  O  O11  1  0.60735900  0.95229400  0.28459500  1
  O  O12  1  0.17480400  0.65791500  0.07402400  1
  O  O13  1  0.06575500  0.89289100  0.63179200  1
  O  O14  1  0.30190600  0.19514300  0.89458900  1
  O  O15  1  0.12737000  0.62537300  0.85651100  1
  O  O16  1  0.95229400  0.60735900  0.78459500  1
  O  O17  1  0.34838800  0.80616300  0.03164900  1
  O  O18  1  0.37462700  0.87263000  0.64348900  1
  O  O19  1  0.39264100  0.04770600  0.71540500  1
  O  O20  1  0.93424500  0.10710900  0.36820800  1
  O  O21  1  0.36115600  0.19264200  0.55155800  1
  O  O22  1  0.10710900  0.93424500  0.86820800  1
  O  O23  1  0.35119400  0.55805800  0.18866200  1
  O  O24  1  0.34208500  0.82519600  0.42597600  1
  O  O25  1  0.19514300  0.30190600  0.39458900  1
  O  O26  1  0.04770600  0.39264100  0.21540500  1
  O  O27  1  0.63884400  0.80735800  0.44844200  1
  O  O28  1  0.80735800  0.63884400  0.94844200  1
  O  O29  1  0.64880600  0.44194200  0.81133800  1
  O  O30  1  0.44194200  0.64880600  0.31133800  1
  O  O31  1  0.62537300  0.12737000  0.35651100  1
loop_
_geom_bond_atom_site_label_1
_geom_bond_atom_site_label_2
_geom_bond_distance
_geom_bond_site_symmetry_2
Ca0 O19 2.312393 1_565
Ca0 O1 2.441156 1_555
Ca0 O14 2.459647 1_565
Ca0 O22 2.539649 1_555
Ca0 O17 2.542195 1_556
Ca0 O16 2.693526 1_555
Ca0 O28 2.728110 1_555
Ca0 O29 2.802643 1_555
Ca1 O16 2.312393 1_455
Ca1 O9 2.441156 1_555
Ca1 O2 2.459647 1_455
Ca1 O13 2.539649 1_555
Ca1 O8 2.542195 1_555
Ca1 O19 2.693526 1_555
Ca1 O21 2.728110 1_555
Ca1 O5 2.802643 1_555
Ca2 O26 2.312393 1_655
Ca2 O24 2.441156 1_555
Ca2 O25 2.459647 1_655
Ca2 O20 2.539649 1_555
Ca2 O3 2.542195 1_555
Ca2 O11 2.693526 1_555
Ca2 O27 2.728110 1_555
Ca2 O30 2.802643 1_555
Ca3 O11 2.312393 1_545
Ca3 O12 2.441156 1_555
Ca3 O0 2.459647 1_545
Ca3 O7 2.539649 1_555
Ca3 O6 2.542195 1_554
Ca3 O26 2.693526 1_555
Ca3 O4 2.728110 1_555
Ca3 O23 2.802643 1_555
Cr0 O12 2.024383 1_556
Cr0 O15 2.076522 1_555
Cr0 O22 2.114586 1_555
Cr0 O4 2.139330 1_556
Cr0 O6 2.439634 1_555
Cr1 O24 2.024383 1_555
Cr1 O18 2.076522 1_555
Cr1 O13 2.114586 1_555
Cr1 O27 2.139330 1_555
Cr1 O3 2.439634 1_555
Cr2 O1 2.024383 1_554
Cr2 O10 2.076522 1_555
Cr2 O7 2.114586 1_555
Cr2 O28 2.139330 1_554
Cr2 O17 2.439634 1_555
Cr3 O0 2.068479 1_545
Cr3 O14 2.068479 1_554
Cr3 O4 2.073786 1_555
Cr3 O28 2.073786 1_544
Cr4 O9 2.024383 1_555
Cr4 O31 2.076522 1_555
Cr4 O20 2.114586 1_555
Cr4 O21 2.139330 1_555
Cr4 O8 2.439634 1_555
Cr5 O31 2.073748 1_555
Cr5 O10 2.073748 1_555
Cr5 O30 2.193815 1_555
Cr5 O23 2.193815 1_555
Cr5 O20 2.485785 1_555
Cr5 O7 2.485785 1_555
Cr6 O15 2.073748 1_555
Cr6 O18 2.073748 1_555
Cr6 O29 2.193815 1_555
Cr6 O5 2.193815 1_555
Cr6 O22 2.485785 1_555
Cr6 O13 2.485785 1_555
Cr7 O2 2.068479 1_455
Cr7 O25 2.068479 1_555
Cr7 O21 2.073786 1_555
Cr7 O27 2.073786 1_455
O0 P2 1.553828 1_555
O1 P7 1.563987 1_555
O2 P5 1.553828 1_555
O3 P1 1.554102 1_555
O4 P2 1.585254 1_455
O5 P1 1.529495 1_555
O6 P7 1.554102 1_555
O7 P3 1.582039 1_645
O8 P6 1.554102 1_555
O9 P1 1.563987 1_555
O10 P2 1.565096 1_555
O11 P4 1.518687 1_565
O12 P3 1.563987 1_555
O13 P1 1.582039 1_465
O14 P0 1.553828 1_555
O15 P0 1.565096 1_555
O16 P0 1.518687 1_655
O17 P3 1.554102 1_555
O18 P5 1.565096 1_555
O19 P5 1.518687 1_545
O20 P6 1.582039 1_645
O21 P5 1.585254 1_545
O22 P7 1.582039 1_465
O23 P3 1.529495 1_555
O24 P6 1.563987 1_555
O25 P4 1.553828 1_555
O26 P2 1.518687 1_455
O27 P4 1.585254 1_565
O28 P0 1.585254 1_655
O29 P7 1.529495 1_555
O30 P6 1.529495 1_555
O31 P4 1.565096 1_555
