# generated using pymatgen
data_KThP3O10
_symmetry_space_group_name_H-M   'P 1'
_cell_length_a   8.33132500
_cell_length_b   10.14071600
_cell_length_c   10.35876600
_cell_angle_alpha   90.00000000
_cell_angle_beta   90.00000000
_cell_angle_gamma   90.00000000
_symmetry_Int_Tables_number   1
_chemical_formula_structural   KThP3O10
_chemical_formula_sum   'K4 Th4 P12 O40'
_cell_volume   875.16656832
_cell_formula_units_Z   4
loop_
 _symmetry_equiv_pos_site_id
 _symmetry_equiv_pos_as_xyz
  1  'x, y, z'
loop_
 _atom_site_type_symbol
 _atom_site_label
 _atom_site_symmetry_multiplicity
 _atom_site_fract_x
 _atom_site_fract_y
 _atom_site_fract_z
 _atom_site_occupancy
  K  K0  1  0.84628700  0.01302700  0.42623000  1
  K  K1  1  0.65371300  0.98697300  0.92623000  1
  K  K2  1  0.15371300  0.51302700  0.07377000  1
  K  K3  1  0.34628700  0.48697300  0.57377000  1
  Th  Th0  1  0.38922600  0.00279900  0.59843200  1
  Th  Th1  1  0.11077400  0.99720100  0.09843200  1
  Th  Th2  1  0.61077400  0.50279900  0.90156800  1
  Th  Th3  1  0.88922600  0.49720100  0.40156800  1
  P  P0  1  0.72837200  0.25225300  0.63602800  1
  P  P1  1  0.27162800  0.75225300  0.86397200  1
  P  P2  1  0.77162800  0.74774700  0.13602800  1
  P  P3  1  0.30086500  0.23001100  0.87463400  1
  P  P4  1  0.80086500  0.26998900  0.12536600  1
  P  P5  1  0.69913500  0.73001100  0.62536600  1
  P  P6  1  0.97483000  0.62096400  0.73892800  1
  P  P7  1  0.02517000  0.12096400  0.76107200  1
  P  P8  1  0.19913500  0.76998900  0.37463400  1
  P  P9  1  0.47483000  0.87903600  0.26107200  1
  P  P10  1  0.22837200  0.24774700  0.36397200  1
  P  P11  1  0.52517000  0.37903600  0.23892800  1
  O  O0  1  0.13017900  0.25007900  0.79693600  1
  O  O1  1  0.60236900  0.63092900  0.70491500  1
  O  O2  1  0.12195300  0.36252000  0.40499900  1
  O  O3  1  0.10236900  0.86907100  0.29508500  1
  O  O4  1  0.90477000  0.55711200  0.85841500  1
  O  O5  1  0.14710400  0.14134500  0.28447800  1
  O  O6  1  0.35289600  0.85865500  0.78447800  1
  O  O7  1  0.25625000  0.17682200  0.00823700  1
  O  O8  1  0.99057400  0.53437100  0.62054600  1
  O  O9  1  0.37094600  0.36835100  0.87848700  1
  O  O10  1  0.89763100  0.36907100  0.20491500  1
  O  O11  1  0.67533700  0.69695600  0.02111600  1
  O  O12  1  0.62905400  0.86835100  0.62151300  1
  O  O13  1  0.87094600  0.13164900  0.12151300  1
  O  O14  1  0.74375000  0.67682200  0.49176300  1
  O  O15  1  0.37804700  0.63748000  0.90499900  1
  O  O16  1  0.09523000  0.05711200  0.64158500  1
  O  O17  1  0.86982100  0.75007900  0.70306400  1
  O  O18  1  0.59523000  0.44288800  0.35841500  1
  O  O19  1  0.64710400  0.35865500  0.71552200  1
  O  O20  1  0.35323500  0.31882400  0.26248300  1
  O  O21  1  0.62195300  0.13748000  0.59500100  1
  O  O22  1  0.63017900  0.24992100  0.20306400  1
  O  O23  1  0.64676500  0.81882400  0.23751700  1
  O  O24  1  0.12905400  0.63164900  0.37848700  1
  O  O25  1  0.24375000  0.82317800  0.50823700  1
  O  O26  1  0.87804700  0.86252000  0.09500100  1
  O  O27  1  0.39763100  0.13092900  0.79508500  1
  O  O28  1  0.00942600  0.03437100  0.87945400  1
  O  O29  1  0.40477000  0.94288800  0.14158500  1
  O  O30  1  0.75625000  0.32317800  0.99176300  1
  O  O31  1  0.82466300  0.30304400  0.52111600  1
  O  O32  1  0.50942600  0.46562900  0.12054600  1
  O  O33  1  0.17533700  0.80304400  0.97888400  1
  O  O34  1  0.32466300  0.19695600  0.47888400  1
  O  O35  1  0.49057400  0.96562900  0.37945400  1
  O  O36  1  0.85323500  0.18117600  0.73751700  1
  O  O37  1  0.36982100  0.74992100  0.29693600  1
  O  O38  1  0.14676500  0.68117600  0.76248300  1
  O  O39  1  0.85289600  0.64134500  0.21552200  1
loop_
_geom_bond_atom_site_label_1
_geom_bond_atom_site_label_2
_geom_bond_distance
_geom_bond_site_symmetry_2
K0 O21 2.853475 1_555
K0 O3 2.920346 1_645
K0 O35 3.041134 1_545
K0 O16 3.078629 1_655
K0 O12 3.085456 1_545
K0 O31 3.106109 1_555
K0 O5 3.182829 1_655
K0 O23 3.234645 1_545
K0 O13 3.384176 1_555
K1 O26 2.853475 1_556
K1 O27 2.920346 1_565
K1 O28 3.041134 1_665
K1 O29 3.078629 1_556
K1 O13 3.085456 1_566
K1 O11 3.106109 1_556
K1 O6 3.182829 1_555
K1 O36 3.234645 1_565
K1 O12 3.384176 1_555
K2 O15 2.853475 1_554
K2 O10 2.920346 1_455
K2 O32 3.041134 1_555
K2 O4 3.078629 1_454
K2 O9 3.085456 1_554
K2 O33 3.106109 1_554
K2 O39 3.182829 1_455
K2 O20 3.234645 1_555
K2 O24 3.384176 1_555
K3 O2 2.853475 1_555
K3 O1 2.920346 1_555
K3 O8 3.041134 1_455
K3 O18 3.078629 1_555
K3 O24 3.085456 1_555
K3 O34 3.106109 1_555
K3 O19 3.182829 1_555
K3 O38 3.234645 1_555
K3 O9 3.384176 1_555
O0 P7 1.617937 1_555
O0 P3 1.646635 1_555
O1 P5 1.529220 1_555
O1 Th2 2.417202 1_555
O2 P10 1.523586 1_555
O2 Th3 2.371918 1_455
O3 P8 1.529220 1_555
O3 Th1 2.417202 1_555
O4 P6 1.513920 1_555
O4 Th2 2.550022 1_555
O5 P10 1.516817 1_555
O5 Th1 2.437699 1_545
O6 P1 1.516817 1_555
O6 Th0 2.437699 1_565
O7 P3 1.531156 1_554
O7 Th1 2.379014 1_545
O8 P6 1.513962 1_555
O8 Th3 2.449571 1_555
O9 P3 1.520042 1_555
O9 Th2 2.430713 1_555
O10 P4 1.529220 1_555
O10 Th3 2.417202 1_555
O11 P2 1.525052 1_555
O11 Th2 2.387346 1_554
O12 P5 1.520042 1_555
O12 Th0 2.430713 1_565
O13 P4 1.520042 1_555
O13 Th1 2.430713 1_645
O14 P5 1.531156 1_555
O14 Th3 2.379014 1_555
O15 P1 1.523586 1_555
O15 Th2 2.371918 1_555
O16 P7 1.513920 1_555
O16 Th0 2.550022 1_555
O17 P6 1.617937 1_555
O17 P5 1.646635 1_555
O18 P11 1.513920 1_555
O18 Th3 2.550022 1_555
O19 P0 1.516817 1_555
O19 Th2 2.437699 1_555
O20 P11 1.576154 1_555
O20 P10 1.645271 1_555
O21 P0 1.523586 1_555
O21 Th0 2.371918 1_555
O22 P11 1.617937 1_555
O22 P4 1.646635 1_555
O23 P9 1.576154 1_555
O23 P2 1.645271 1_555
O24 P8 1.520042 1_555
O24 Th3 2.430713 1_455
O25 P8 1.531156 1_555
O25 Th0 2.379014 1_565
O26 P2 1.523586 1_555
O26 Th1 2.371918 1_655
O27 P3 1.529220 1_555
O27 Th0 2.417202 1_555
O28 P7 1.513962 1_555
O28 Th1 2.449571 1_546
O29 P9 1.513920 1_555
O29 Th1 2.550022 1_555
O30 P4 1.531156 1_556
O30 Th2 2.379014 1_555
O31 P0 1.525052 1_555
O31 Th3 2.387346 1_555
O32 P11 1.513962 1_555
O32 Th2 2.449571 1_554
O33 P1 1.525052 1_555
O33 Th1 2.387346 1_556
O34 P10 1.525052 1_555
O34 Th0 2.387346 1_555
O35 P9 1.513962 1_555
O35 Th0 2.449571 1_565
O36 P7 1.576154 1_655
O36 P0 1.645271 1_555
O37 P9 1.617937 1_555
O37 P8 1.646635 1_555
O38 P6 1.576154 1_455
O38 P1 1.645271 1_555
O39 P2 1.516817 1_555
O39 Th3 2.437699 1_555
