# generated using pymatgen
data_Hf6Ni16Ge7
_symmetry_space_group_name_H-M   'P 1'
_cell_length_a   8.12649749
_cell_length_b   8.12650271
_cell_length_c   8.12651757
_cell_angle_alpha   60.00132582
_cell_angle_beta   60.00131083
_cell_angle_gamma   60.00124612
_symmetry_Int_Tables_number   1
_chemical_formula_structural   Hf6Ni16Ge7
_chemical_formula_sum   'Hf6 Ni16 Ge7'
_cell_volume   379.49784539
_cell_formula_units_Z   1
loop_
 _symmetry_equiv_pos_site_id
 _symmetry_equiv_pos_as_xyz
  1  'x, y, z'
loop_
 _atom_site_type_symbol
 _atom_site_label
 _atom_site_symmetry_multiplicity
 _atom_site_fract_x
 _atom_site_fract_y
 _atom_site_fract_z
 _atom_site_occupancy
  Hf  Hf0  1  0.20504880  0.79495286  0.79494854  1
  Hf  Hf1  1  0.79495224  0.79495033  0.20505206  1
  Hf  Hf2  1  0.79495194  0.20504514  0.20505279  1
  Hf  Hf3  1  0.20504884  0.20505025  0.79494894  1
  Hf  Hf4  1  0.79495273  0.20504936  0.79494820  1
  Hf  Hf5  1  0.20504465  0.79495110  0.20505273  1
  Ni  Ni0  1  0.61854813  0.61854437  0.14435798  1
  Ni  Ni1  1  0.16781186  0.49654691  0.16782856  1
  Ni  Ni2  1  0.85564111  0.38144863  0.38146357  1
  Ni  Ni3  1  0.50346586  0.83218466  0.83216434  1
  Ni  Ni4  1  0.49654560  0.16781608  0.16782666  1
  Ni  Ni5  1  0.83218124  0.83217729  0.50346341  1
  Ni  Ni6  1  0.16781436  0.16782040  0.49654927  1
  Ni  Ni7  1  0.14434845  0.61855253  0.61854259  1
  Ni  Ni8  1  0.16780910  0.16781459  0.16782610  1
  Ni  Ni9  1  0.38145569  0.38145697  0.85563176  1
  Ni  Ni10  1  0.61855707  0.61855338  0.61854247  1
  Ni  Ni11  1  0.38144703  0.85563893  0.38146463  1
  Ni  Ni12  1  0.38144670  0.38144884  0.38146283  1
  Ni  Ni13  1  0.83218728  0.83218441  0.83216561  1
  Ni  Ni14  1  0.61855472  0.14435074  0.61853945  1
  Ni  Ni15  1  0.83218570  0.50346566  0.83216414  1
  Ge  Ge0  1  0.50000310  -0.00000073  0.50000304  1
  Ge  Ge1  1  0.50000137  0.50000177  0.99999829  1
  Ge  Ge2  1  0.49999972  0.49999656  0.50000352  1
  Ge  Ge3  1  0.99999548  0.99999739  0.50000370  1
  Ge  Ge4  1  -0.00000048  0.50000216  0.99999652  1
  Ge  Ge5  1  -0.00000200  0.50000263  0.50000243  1
  Ge  Ge6  1  0.50000271  -0.00000021  0.99999486  1
loop_
_geom_bond_atom_site_label_1
_geom_bond_atom_site_label_2
_geom_bond_distance
_geom_bond_site_symmetry_2
Hf0 Ni13 2.760912 1_455
Hf0 Ni3 2.760919 1_555
Hf0 Ni6 2.760945 1_565
Hf0 Ni1 2.761030 1_556
Hf0 Ni11 2.796821 1_555
Hf0 Ni7 2.796890 1_555
Hf0 Ni9 2.796900 1_555
Hf0 Ni10 2.796972 1_555
Hf1 Ni1 2.760914 1_655
Hf1 Ni5 2.760919 1_555
Hf1 Ni4 2.760955 1_565
Hf1 Ni13 2.761057 1_554
Hf1 Ni10 2.796861 1_555
Hf1 Ni0 2.796880 1_555
Hf1 Ni2 2.796935 1_555
Hf1 Ni11 2.796957 1_555
Hf2 Ni8 2.760851 1_655
Hf2 Ni4 2.760870 1_555
Hf2 Ni5 2.760982 1_545
Hf2 Ni15 2.761118 1_554
Hf2 Ni14 2.796828 1_555
Hf2 Ni2 2.796883 1_555
Hf2 Ni0 2.796908 1_555
Hf2 Ni12 2.796966 1_555
Hf3 Ni6 2.760866 1_555
Hf3 Ni8 2.760963 1_556
Hf3 Ni15 2.760968 1_455
Hf3 Ni3 2.760986 1_545
Hf3 Ni9 2.796841 1_555
Hf3 Ni12 2.796843 1_555
Hf3 Ni7 2.796923 1_555
Hf3 Ni14 2.796947 1_555
Hf4 Ni6 2.760914 1_655
Hf4 Ni15 2.760920 1_555
Hf4 Ni13 2.760932 1_545
Hf4 Ni4 2.761025 1_556
Hf4 Ni2 2.796823 1_555
Hf4 Ni14 2.796883 1_555
Hf4 Ni9 2.796906 1_555
Hf4 Ni10 2.796944 1_555
Hf5 Ni1 2.760863 1_555
Hf5 Ni8 2.760888 1_565
Hf5 Ni5 2.760959 1_455
Hf5 Ni3 2.761117 1_554
Hf5 Ni7 2.796848 1_555
Hf5 Ni11 2.796875 1_555
Hf5 Ni0 2.796936 1_555
Hf5 Ni12 2.796949 1_555
Ni0 Ni15 2.582604 1_554
Ni0 Ni3 2.582618 1_554
Ni0 Ni13 2.582644 1_554
Ni0 Ni12 2.724908 1_555
Ni0 Ni2 2.724917 1_555
Ni0 Ni11 2.724933 1_555
Ni1 Ni12 2.582504 1_555
Ni1 Ni2 2.582528 1_455
Ni1 Ni9 2.582671 1_554
Ni2 Ni6 2.582490 1_655
Ni2 Ni8 2.582547 1_655
Ni4 Ni9 2.582658 1_554
Ni5 Ni7 2.582422 1_655
Ni7 Ni9 2.724905 1_555
Ni8 Ni9 2.582690 1_554
Ni10 Ni15 2.582403 1_555
Ni10 Ni5 2.582409 1_555
Ni10 Ni3 2.582415 1_555
Ni10 Ni2 2.724832 1_555
Ni10 Ni11 2.724856 1_555
Ni10 Ni9 2.724913 1_555
Ni11 Ni6 2.582542 1_565
Ni11 Ni4 2.582573 1_565
Ni11 Ni8 2.582588 1_565
Ni11 Ni7 2.724839 1_555
Ni12 Ni6 2.582476 1_555
Ni12 Ni4 2.582501 1_555
Ni12 Ni7 2.724831 1_555
Ni12 Ni14 2.724837 1_555
Ni13 Ni7 2.582460 1_655
Ni13 Ni14 2.582490 1_565
Ni14 Ni5 2.582452 1_545
Ni14 Ni3 2.582458 1_545
Ni14 Ni2 2.724835 1_555
Ni14 Ni9 2.724917 1_555
Ni15 Ni7 2.582426 1_655
Ge0 Ni3 2.345942 1_545
Ge0 Ni4 2.346035 1_555
Ge0 Ni5 2.346047 1_545
Ge0 Ni6 2.346106 1_555
Ge0 Ni14 2.533822 1_555
Ge0 Ni11 2.533925 1_545
Ge0 Ni10 2.533926 1_545
Ge0 Ni12 2.533950 1_555
Ge0 Hf2 2.919240 1_555
Ge0 Hf3 2.919251 1_555
Ge0 Hf1 2.919265 1_545
Ge0 Hf0 2.919268 1_545
Ge1 Ni4 2.346093 1_556
Ge1 Ni3 2.346094 1_555
Ge1 Ni15 2.346101 1_555
Ge1 Ni1 2.346115 1_556
Ge1 Ni0 2.533887 1_556
Ge1 Ni9 2.533941 1_555
Ge1 Ni10 2.533996 1_555
Ge1 Ni12 2.534056 1_556
Ge1 Hf0 2.919277 1_555
Ge1 Hf4 2.919279 1_555
Ge1 Hf5 2.919287 1_556
Ge1 Hf2 2.919294 1_556
Ge2 Ni9 2.359730 1_555
Ge2 Ni12 2.359752 1_555
Ge2 Ni2 2.359810 1_555
Ge2 Ni11 2.359818 1_555
Ge2 Ni10 2.359829 1_555
Ge2 Ni14 2.359841 1_555
Ge2 Ni0 2.359845 1_555
Ge2 Ni7 2.359875 1_555
Ge3 Ni13 2.345953 1_555
Ge3 Ni5 2.345978 1_555
Ge3 Ni8 2.346049 1_665
Ge3 Ni6 2.346056 1_665
Ge3 Ni14 2.533894 1_565
Ge3 Ni7 2.533923 1_655
Ge3 Ni2 2.533965 1_565
Ge3 Ni11 2.533966 1_655
Ge3 Hf2 2.919218 1_565
Ge3 Hf4 2.919228 1_565
Ge3 Hf5 2.919233 1_655
Ge3 Hf0 2.919236 1_655
Ge4 Ni15 2.346045 1_455
Ge4 Ni1 2.346071 1_556
Ge4 Ni13 2.346095 1_455
Ge4 Ni8 2.346110 1_556
Ge4 Ni0 2.533967 1_456
Ge4 Ni7 2.533987 1_555
Ge4 Ni9 2.533999 1_555
Ge4 Ni2 2.534076 1_456
Ge4 Hf3 2.919244 1_555
Ge4 Hf0 2.919247 1_555
Ge4 Hf1 2.919266 1_456
Ge4 Hf2 2.919271 1_456
Ge5 Ni15 2.345945 1_455
Ge5 Ni1 2.346013 1_555
Ge5 Ni5 2.346026 1_455
Ge5 Ni6 2.346060 1_555
Ge5 Ni7 2.533828 1_555
Ge5 Ni2 2.533890 1_455
Ge5 Ni10 2.533891 1_455
Ge5 Ni12 2.533943 1_555
Ge5 Hf5 2.919241 1_555
Ge5 Hf1 2.919246 1_455
Ge5 Hf3 2.919252 1_555
Ge5 Hf4 2.919258 1_455
Ge6 Ni3 2.346044 1_545
Ge6 Ni4 2.346089 1_556
Ge6 Ni13 2.346108 1_545
Ge6 Ni8 2.346154 1_556
Ge6 Ni0 2.533996 1_546
Ge6 Ni14 2.533997 1_555
Ge6 Ni9 2.534007 1_555
Ge6 Ni11 2.534094 1_546
Ge6 Hf4 2.919245 1_555
Ge6 Hf3 2.919246 1_555
Ge6 Hf1 2.919282 1_546
Ge6 Hf5 2.919282 1_546
