# generated using pymatgen
data_SiO2
_symmetry_space_group_name_H-M   'P 1'
_cell_length_a   18.88696391
_cell_length_b   18.88696391
_cell_length_c   18.88696391
_cell_angle_alpha   148.06054259
_cell_angle_beta   148.06054259
_cell_angle_gamma   45.79600069
_symmetry_Int_Tables_number   1
_chemical_formula_structural   SiO2
_chemical_formula_sum   'Si32 O64'
_cell_volume   1879.20454894
_cell_formula_units_Z   32
loop_
 _symmetry_equiv_pos_site_id
 _symmetry_equiv_pos_as_xyz
  1  'x, y, z'
loop_
 _atom_site_type_symbol
 _atom_site_label
 _atom_site_symmetry_multiplicity
 _atom_site_fract_x
 _atom_site_fract_y
 _atom_site_fract_z
 _atom_site_occupancy
  Si  Si0  1  0.68731600  0.84054200  0.84677400  1
  Si  Si1  1  0.99376800  0.84054200  0.15322600  1
  Si  Si2  1  0.15664800  0.12500000  0.53164800  1
  Si  Si3  1  0.15664800  0.62500000  0.03164800  1
  Si  Si4  1  0.59054200  0.24376800  0.65322600  1
  Si  Si5  1  0.04239100  0.75673200  0.28565900  1
  Si  Si6  1  0.24326800  0.95760900  0.71434100  1
  Si  Si7  1  0.22163000  0.57036900  0.65126000  1
  Si  Si8  1  0.27892700  0.49326800  0.78565900  1
  Si  Si9  1  0.50673200  0.72107300  0.21434100  1
  Si  Si10  1  0.87500000  0.84335200  0.46835200  1
  Si  Si11  1  0.91910900  0.57036900  0.34874000  1
  Si  Si12  1  0.42963100  0.08089100  0.65126000  1
  Si  Si13  1  0.50673200  0.29239100  0.78565900  1
  Si  Si14  1  0.06268400  0.40945800  0.65322600  1
  Si  Si15  1  0.15945800  0.00623200  0.84677400  1
  Si  Si16  1  0.59335200  0.12500000  0.96835200  1
  Si  Si17  1  0.83089100  0.67963100  0.15126000  1
  Si  Si18  1  0.59054200  0.93731600  0.34677400  1
  Si  Si19  1  0.32036900  0.47163000  0.15126000  1
  Si  Si20  1  0.15945800  0.31268400  0.15322600  1
  Si  Si21  1  0.70760900  0.49326800  0.21434100  1
  Si  Si22  1  0.42963100  0.77837000  0.34874000  1
  Si  Si23  1  0.75623200  0.40945800  0.34677400  1
  Si  Si24  1  0.47107300  0.75673200  0.71434100  1
  Si  Si25  1  0.24326800  0.52892700  0.28565900  1
  Si  Si26  1  0.52837000  0.67963100  0.84874000  1
  Si  Si27  1  0.37500000  0.40664800  0.53164800  1
  Si  Si28  1  0.37500000  0.84335200  0.96835200  1
  Si  Si29  1  0.59335200  0.62500000  0.46835200  1
  Si  Si30  1  0.87500000  0.40664800  0.03164800  1
  Si  Si31  1  0.32036900  0.16910900  0.84874000  1
  O  O0  1  0.44282400  0.53390900  0.65233200  1
  O  O1  1  0.67405200  0.99259000  0.93638300  1
  O  O2  1  0.28390900  0.69282400  0.15233200  1
  O  O3  1  0.12191900  0.62191900  0.24383900  1
  O  O4  1  0.30717600  0.71609100  0.84766800  1
  O  O5  1  0.07594800  0.25741000  0.56361700  1
  O  O6  1  0.54049200  0.69282400  0.40891500  1
  O  O7  1  0.41826400  0.91826400  0.50000000  1
  O  O8  1  0.62808100  0.37191900  0.00000000  1
  O  O9  1  0.02849200  0.79982700  0.22866400  1
  O  O10  1  0.83259900  0.83259900  0.00000000  1
  O  O11  1  0.57116300  0.79982700  0.77133600  1
  O  O12  1  0.20017300  0.42883700  0.22866400  1
  O  O13  1  0.27391100  0.10686100  0.83295100  1
  O  O14  1  0.19096000  0.52391100  0.66704900  1
  O  O15  1  0.62808100  0.62808100  0.25616100  1
  O  O16  1  0.44282400  0.79049200  0.90891500  1
  O  O17  1  0.91740100  0.41740100  0.50000000  1
  O  O18  1  0.17883700  0.45017300  0.72866400  1
  O  O19  1  0.20950800  0.11842300  0.65233200  1
  O  O20  1  0.30717600  0.45950900  0.59108500  1
  O  O21  1  0.20017300  0.97150800  0.77133600  1
  O  O22  1  0.12191900  0.87808100  0.50000000  1
  O  O23  1  0.88157700  0.53390900  0.09108500  1
  O  O24  1  0.48766900  0.30620700  0.56361700  1
  O  O25  1  0.86842300  0.71609100  0.40891500  1
  O  O26  1  0.26233100  0.32594800  0.31853800  1
  O  O27  1  0.16740100  0.16740100  0.00000000  1
  O  O28  1  0.37808100  0.87808100  0.75616100  1
  O  O29  1  0.85686100  0.52391100  0.33295100  1
  O  O30  1  0.69379300  0.25741000  0.18146200  1
  O  O31  1  0.54982700  0.27849200  0.72866400  1
  O  O32  1  0.54982700  0.82116300  0.27133600  1
  O  O33  1  0.07594800  0.51233100  0.81853800  1
  O  O34  1  0.89313900  0.72608900  0.16704900  1
  O  O35  1  0.58259900  0.08259900  0.50000000  1
  O  O36  1  0.86842300  0.45950900  0.15233200  1
  O  O37  1  0.33173600  0.33173600  0.00000000  1
  O  O38  1  0.00741000  0.94379300  0.68146200  1
  O  O39  1  0.48766900  0.92405200  0.18146200  1
  O  O40  1  0.27391100  0.44096000  0.16704900  1
  O  O41  1  0.05620700  0.73766900  0.06361700  1
  O  O42  1  0.69379300  0.51233100  0.43638300  1
  O  O43  1  0.26233100  0.94379300  0.93638300  1
  O  O44  1  0.05620700  0.99259000  0.31853800  1
  O  O45  1  0.37191900  0.37191900  0.74383900  1
  O  O46  1  0.20950800  0.55717600  0.09108500  1
  O  O47  1  0.74259000  0.30620700  0.81853800  1
  O  O48  1  0.67405200  0.73766900  0.68146200  1
  O  O49  1  0.74259000  0.92405200  0.43638300  1
  O  O50  1  0.37191900  0.62808100  0.00000000  1
  O  O51  1  0.46609100  0.11842300  0.90891500  1
  O  O52  1  0.47608900  0.14313900  0.66704900  1
  O  O53  1  0.72150800  0.45017300  0.27133600  1
  O  O54  1  0.55904000  0.72608900  0.83295100  1
  O  O55  1  0.08173600  0.58173600  0.50000000  1
  O  O56  1  0.28390900  0.13157700  0.59108500  1
  O  O57  1  0.00741000  0.32594800  0.06361700  1
  O  O58  1  0.37808100  0.62191900  0.50000000  1
  O  O59  1  0.47608900  0.80904000  0.33295100  1
  O  O60  1  0.54049200  0.13157700  0.84766800  1
  O  O61  1  0.46609100  0.55717600  0.34766800  1
  O  O62  1  0.88157700  0.79049200  0.34766800  1
  O  O63  1  0.66826400  0.66826400  0.00000000  1
loop_
_geom_bond_atom_site_label_1
_geom_bond_atom_site_label_2
_geom_bond_distance
_geom_bond_site_symmetry_2
O0 Si26 1.626867 1_555
O0 Si27 1.628806 1_555
O1 Si16 1.620437 1_565
O1 Si0 1.625266 1_555
O2 Si22 1.626867 1_555
O2 Si3 1.628806 1_555
O3 Si25 1.621846 1_555
O3 Si5 1.621851 1_555
O4 Si7 1.626867 1_555
O4 Si28 1.628806 1_555
O5 Si2 1.620437 1_555
O5 Si14 1.625266 1_555
O6 Si22 1.626859 1_555
O6 Si29 1.628806 1_555
O7 Si12 1.621001 1_565
O7 Si22 1.621002 1_555
O8 Si13 1.621850 1_554
O8 Si21 1.621850 1_555
O9 Si5 1.612350 1_555
O9 Si1 1.619218 1_455
O10 Si1 1.616244 1_555
O10 Si0 1.616244 1_554
O11 Si24 1.612336 1_555
O11 Si0 1.619231 1_555
O12 Si25 1.612336 1_555
O12 Si20 1.619231 1_555
O13 Si31 1.624937 1_555
O13 Si6 1.629857 1_545
O14 Si7 1.624936 1_555
O14 Si8 1.629872 1_555
O15 Si9 1.621846 1_555
O15 Si21 1.621851 1_555
O16 Si26 1.626859 1_555
O16 Si28 1.628806 1_555
O17 Si14 1.616244 1_655
O17 Si23 1.616244 1_555
O18 Si8 1.612336 1_555
O18 Si14 1.619231 1_555
O19 Si31 1.626872 1_555
O19 Si2 1.628806 1_555
O20 Si7 1.626859 1_555
O20 Si27 1.628796 1_555
O21 Si6 1.612350 1_555
O21 Si15 1.619218 1_565
O22 Si5 1.621850 1_555
O22 Si6 1.621850 1_555
O23 Si17 1.626872 1_555
O23 Si30 1.628806 1_555
O24 Si27 1.620437 1_555
O24 Si4 1.625266 1_555
O25 Si11 1.626872 1_555
O25 Si10 1.628806 1_555
O26 Si27 1.620437 1_555
O26 Si20 1.625266 1_555
O27 Si20 1.616244 1_555
O27 Si15 1.616244 1_554
O28 Si24 1.621846 1_555
O28 Si6 1.621851 1_555
O29 Si11 1.624937 1_555
O29 Si21 1.629857 1_555
O30 Si16 1.620437 1_554
O30 Si23 1.625266 1_555
O31 Si13 1.612350 1_555
O31 Si4 1.619218 1_555
O32 Si9 1.612336 1_555
O32 Si18 1.619231 1_555
O33 Si3 1.620437 1_556
O33 Si14 1.625266 1_555
O34 Si17 1.624937 1_555
O34 Si5 1.629857 1_655
O35 Si4 1.616244 1_555
O35 Si18 1.616244 1_545
O36 Si11 1.626876 1_555
O36 Si30 1.628794 1_555
O37 Si31 1.621001 1_554
O37 Si19 1.621002 1_555
O38 Si10 1.620437 1_455
O38 Si15 1.625266 1_565
O39 Si28 1.620437 1_554
O39 Si18 1.625266 1_555
O40 Si19 1.624936 1_555
O40 Si25 1.629872 1_555
O41 Si3 1.620437 1_555
O41 Si1 1.625266 1_455
O42 Si29 1.620437 1_555
O42 Si23 1.625266 1_555
O43 Si28 1.620437 1_555
O43 Si15 1.625266 1_565
O44 Si2 1.620437 1_565
O44 Si1 1.625266 1_455
O45 Si8 1.621846 1_555
O45 Si13 1.621851 1_555
O46 Si19 1.626859 1_555
O46 Si3 1.628806 1_555
O47 Si30 1.620437 1_556
O47 Si4 1.625266 1_555
O48 Si29 1.620437 1_555
O48 Si0 1.625266 1_555
O49 Si10 1.620437 1_555
O49 Si18 1.625266 1_555
O50 Si9 1.621850 1_555
O50 Si8 1.621850 1_554
O51 Si31 1.626872 1_555
O51 Si16 1.628806 1_555
O52 Si12 1.624937 1_555
O52 Si13 1.629857 1_555
O53 Si21 1.612350 1_555
O53 Si23 1.619218 1_555
O54 Si26 1.624936 1_555
O54 Si24 1.629872 1_555
O55 Si11 1.621001 1_455
O55 Si7 1.621002 1_555
O56 Si12 1.626872 1_555
O56 Si2 1.628806 1_555
O57 Si30 1.620437 1_455
O57 Si20 1.625266 1_555
O58 Si24 1.621850 1_555
O58 Si25 1.621850 1_555
O59 Si22 1.624936 1_555
O59 Si9 1.629872 1_555
O60 Si12 1.626872 1_555
O60 Si16 1.628806 1_555
O61 Si19 1.626867 1_555
O61 Si29 1.628806 1_555
O62 Si17 1.626872 1_555
O62 Si10 1.628806 1_555
O63 Si17 1.621001 1_555
O63 Si26 1.621002 1_554
