# generated using pymatgen
data_Rb2NiF6
_symmetry_space_group_name_H-M   'P 1'
_cell_length_a   5.91080892
_cell_length_b   5.91080899
_cell_length_c   5.91080875
_cell_angle_alpha   60.00000139
_cell_angle_beta   60.00000099
_cell_angle_gamma   59.99999783
_symmetry_Int_Tables_number   1
_chemical_formula_structural   Rb2NiF6
_chemical_formula_sum   'Rb2 Ni1 F6'
_cell_volume   146.02450926
_cell_formula_units_Z   1
loop_
 _symmetry_equiv_pos_site_id
 _symmetry_equiv_pos_as_xyz
  1  'x, y, z'
loop_
 _atom_site_type_symbol
 _atom_site_label
 _atom_site_symmetry_multiplicity
 _atom_site_fract_x
 _atom_site_fract_y
 _atom_site_fract_z
 _atom_site_occupancy
  Rb  Rb0  1  0.75000000  0.75000000  0.75000000  1
  Rb  Rb1  1  0.25000000  0.25000000  0.25000000  1
  Ni  Ni0  1  -0.00000000  0.00000000  -0.00000000  1
  F  F0  1  0.21364720  0.78635280  0.78635280  1
  F  F1  1  0.21364720  0.78635280  0.21364720  1
  F  F2  1  0.78635280  0.21364720  0.78635280  1
  F  F3  1  0.78635280  0.21364720  0.21364720  1
  F  F4  1  0.78635280  0.78635280  0.21364720  1
  F  F5  1  0.21364720  0.21364720  0.78635280  1
loop_
_geom_bond_atom_site_label_1
_geom_bond_atom_site_label_2
_geom_bond_distance
_geom_bond_site_symmetry_2
F0 Ni0 1.785908 1_566
F0 Rb0 2.970986 1_555
F0 Rb0 2.970986 1_455
F0 Rb1 2.970986 1_565
F0 Rb1 2.970986 1_556
F1 Ni0 1.785908 1_565
F1 Rb0 2.970986 1_554
F1 Rb0 2.970986 1_455
F1 Rb1 2.970986 1_565
F1 Rb1 2.970986 1_555
F2 Ni0 1.785908 1_656
F2 Rb1 2.970986 1_556
F2 Rb1 2.970986 1_655
F2 Rb0 2.970986 1_545
F2 Rb0 2.970986 1_555
F3 Ni0 1.785908 1_655
F3 Rb1 2.970986 1_555
F3 Rb1 2.970986 1_655
F3 Rb0 2.970986 1_545
F3 Rb0 2.970986 1_554
F4 Ni0 1.785908 1_665
F4 Rb1 2.970986 1_565
F4 Rb0 2.970986 1_554
F4 Rb0 2.970986 1_555
F4 Rb1 2.970986 1_655
F5 Ni0 1.785908 1_556
F5 Rb0 2.970986 1_545
F5 Rb1 2.970986 1_556
F5 Rb1 2.970986 1_555
F5 Rb0 2.970986 1_455
