# generated using pymatgen
data_Al2NiO4
_symmetry_space_group_name_H-M   'P 1'
_cell_length_a   5.76768382
_cell_length_b   5.76768382
_cell_length_c   18.96640607
_cell_angle_alpha   81.20849701
_cell_angle_beta   81.20849701
_cell_angle_gamma   59.90176821
_symmetry_Int_Tables_number   1
_chemical_formula_structural   Al2NiO4
_chemical_formula_sum   'Al16 Ni8 O32'
_cell_volume   537.30860104
_cell_formula_units_Z   8
loop_
 _symmetry_equiv_pos_site_id
 _symmetry_equiv_pos_as_xyz
  1  'x, y, z'
loop_
 _atom_site_type_symbol
 _atom_site_label
 _atom_site_symmetry_multiplicity
 _atom_site_fract_x
 _atom_site_fract_y
 _atom_site_fract_z
 _atom_site_occupancy
  Al  Al0  1  0.99887100  0.99887100  0.00252600  1
  Al  Al1  1  0.12211800  0.63161900  0.12529900  1
  Al  Al2  1  0.63161900  0.12211800  0.12529900  1
  Al  Al3  1  0.25020200  0.25020200  0.25260500  1
  Al  Al4  1  0.15098100  0.15098100  0.53401200  1
  Al  Al5  1  0.37551200  0.87999200  0.37548700  1
  Al  Al6  1  0.87999200  0.37551200  0.37548700  1
  Al  Al7  1  0.39858900  0.39858900  0.78088700  1
  Al  Al8  1  0.60073300  0.60073300  0.21975000  1
  Al  Al9  1  0.62470100  0.12516000  0.62433600  1
  Al  Al10  1  0.12516000  0.62470100  0.62433600  1
  Al  Al11  1  0.85107600  0.85107600  0.46609300  1
  Al  Al12  1  0.87117400  0.37543200  0.87328900  1
  Al  Al13  1  0.37543200  0.87117400  0.87328900  1
  Al  Al14  1  0.09857300  0.09857300  0.71632700  1
  Al  Al15  1  0.34842300  0.34842300  0.97005500  1
  Ni  Ni0  1  0.65540600  0.65540600  0.02931400  1
  Ni  Ni1  1  0.12314100  0.12314100  0.12514700  1
  Ni  Ni2  1  0.90603400  0.90603400  0.28385800  1
  Ni  Ni3  1  0.37565600  0.37565600  0.37539500  1
  Ni  Ni4  1  0.62506200  0.62506200  0.62466000  1
  Ni  Ni5  1  0.50117900  0.50117900  0.49935600  1
  Ni  Ni6  1  0.87214600  0.87214600  0.87398900  1
  Ni  Ni7  1  0.74867700  0.74867700  0.74976600  1
  O  O0  1  0.27670400  0.81286500  0.06285800  1
  O  O1  1  0.92944300  0.92944300  0.17954000  1
  O  O2  1  0.81286500  0.27670400  0.06285800  1
  O  O3  1  0.82762400  0.82762400  0.06617500  1
  O  O4  1  0.52443000  0.06661700  0.31383000  1
  O  O5  1  0.43222200  0.43222200  0.18644900  1
  O  O6  1  0.44048400  0.95894300  0.18817400  1
  O  O7  1  0.18182600  0.18182600  0.43749100  1
  O  O8  1  0.06661700  0.52443000  0.31383000  1
  O  O9  1  0.31952400  0.31952400  0.06753200  1
  O  O10  1  0.95894300  0.44048400  0.18817400  1
  O  O11  1  0.08280000  0.08280000  0.31724300  1
  O  O12  1  0.80178300  0.29939000  0.56676800  1
  O  O13  1  0.69021300  0.69021300  0.43164500  1
  O  O14  1  0.70379800  0.19848400  0.43300700  1
  O  O15  1  0.29939000  0.80178300  0.56676800  1
  O  O16  1  0.57095900  0.57095900  0.31670700  1
  O  O17  1  0.42978000  0.42978000  0.68341300  1
  O  O18  1  0.19848400  0.70379800  0.43300700  1
  O  O19  1  0.31349200  0.31349200  0.56750600  1
  O  O20  1  0.05408100  0.54487000  0.81570500  1
  O  O21  1  0.93621700  0.93621700  0.68306100  1
  O  O22  1  0.67681600  0.67681600  0.92425000  1
  O  O23  1  0.95059100  0.44726800  0.68364400  1
  O  O24  1  0.54487000  0.05408100  0.81570500  1
  O  O25  1  0.82010400  0.82010400  0.56522100  1
  O  O26  1  0.55694000  0.55694000  0.81592300  1
  O  O27  1  0.44726800  0.95059100  0.68364400  1
  O  O28  1  0.17858600  0.17858600  0.93721000  1
  O  O29  1  0.18696900  0.70752300  0.93813500  1
  O  O30  1  0.06819600  0.06819600  0.81583300  1
  O  O31  1  0.70752300  0.18696900  0.93813500  1
loop_
_geom_bond_atom_site_label_1
_geom_bond_atom_site_label_2
_geom_bond_distance
_geom_bond_site_symmetry_2
Al0 O0 1.867937 1_655
Al0 O2 1.867937 1_565
Al0 O3 1.912566 1_555
Al0 O31 1.971315 1_564
Al0 O29 1.971315 1_654
Al0 O28 1.994004 1_664
Al1 O1 1.876196 1_455
Al1 O0 1.877204 1_555
Al1 O3 1.920774 1_455
Al1 O10 1.954177 1_455
Al1 O9 1.975588 1_555
Al1 O5 2.007506 1_555
Al2 O1 1.876196 1_545
Al2 O2 1.877204 1_555
Al2 O3 1.920774 1_545
Al2 O6 1.954177 1_545
Al2 O9 1.975588 1_555
Al2 O5 2.007506 1_555
Al3 O4 1.864700 1_555
Al3 O8 1.864700 1_555
Al3 O11 1.891763 1_555
Al3 O10 1.971871 1_455
Al3 O6 1.971871 1_545
Al3 O5 2.019599 1_555
Al4 O15 1.796129 1_545
Al4 O12 1.796129 1_455
Al4 O7 1.802010 1_555
Al4 O19 1.845495 1_555
Al5 O4 1.870654 1_565
Al5 O18 1.904396 1_555
Al5 O11 1.906111 1_565
Al5 O13 1.966996 1_555
Al5 O16 1.974495 1_555
Al5 O7 1.983752 1_565
Al6 O8 1.870654 1_655
Al6 O14 1.904396 1_555
Al6 O11 1.906111 1_655
Al6 O13 1.966996 1_555
Al6 O16 1.974495 1_555
Al6 O7 1.983752 1_655
Al7 O20 1.784358 1_555
Al7 O24 1.784358 1_555
Al7 O17 1.819799 1_555
Al7 O26 1.821410 1_555
Al8 O16 1.810288 1_555
Al8 O6 1.832266 1_555
Al8 O10 1.832266 1_555
Al8 O5 1.900234 1_555
Al9 O12 1.896912 1_555
Al9 O27 1.913568 1_545
Al9 O19 1.959983 1_555
Al9 O17 1.960071 1_555
Al9 O25 1.962371 1_545
Al9 O21 1.983240 1_545
Al10 O15 1.896912 1_555
Al10 O23 1.913568 1_455
Al10 O19 1.959983 1_555
Al10 O17 1.960071 1_555
Al10 O25 1.962371 1_455
Al10 O21 1.983240 1_455
Al11 O18 1.789351 1_655
Al11 O14 1.789351 1_565
Al11 O13 1.839158 1_555
Al11 O25 1.850752 1_555
Al12 O22 1.854851 1_555
Al12 O20 1.901671 1_655
Al12 O30 1.952193 1_655
Al12 O31 1.962308 1_555
Al12 O26 1.978930 1_555
Al12 O28 2.029742 1_655
Al13 O22 1.854851 1_555
Al13 O24 1.901671 1_565
Al13 O30 1.952193 1_565
Al13 O29 1.962308 1_555
Al13 O26 1.978930 1_555
Al13 O28 2.029742 1_565
Al14 O27 1.793462 1_545
Al14 O23 1.793462 1_455
Al14 O21 1.841880 1_445
Al14 O30 1.857908 1_555
Al15 O9 1.820180 1_556
Al15 O31 1.837948 1_555
Al15 O29 1.837948 1_555
Al15 O28 1.908567 1_555
Ni0 O2 1.939769 1_555
Ni0 O0 1.939769 1_555
Ni0 O22 1.966254 1_554
Ni0 O3 1.968800 1_555
Ni1 O1 2.026748 1_445
Ni1 O2 2.029637 1_455
Ni1 O0 2.029637 1_545
Ni1 O6 2.064024 1_545
Ni1 O10 2.064024 1_455
Ni1 O9 2.071249 1_555
Ni2 O4 1.938857 1_565
Ni2 O8 1.938857 1_655
Ni2 O1 1.950907 1_555
Ni2 O11 1.979145 1_665
Ni3 O4 2.018106 1_555
Ni3 O8 2.018106 1_555
Ni3 O14 2.042374 1_555
Ni3 O18 2.042374 1_555
Ni3 O16 2.069505 1_555
Ni3 O7 2.082131 1_555
Ni4 O12 2.034921 1_555
Ni4 O15 2.034921 1_555
Ni4 O23 2.046607 1_555
Ni4 O27 2.046607 1_555
Ni4 O17 2.069785 1_555
Ni4 O25 2.072635 1_555
Ni5 O14 2.042790 1_555
Ni5 O18 2.042790 1_555
Ni5 O12 2.047971 1_555
Ni5 O15 2.047971 1_555
Ni5 O19 2.081901 1_555
Ni5 O13 2.088770 1_555
Ni6 O22 2.015841 1_555
Ni6 O20 2.045204 1_655
Ni6 O24 2.045204 1_565
Ni6 O29 2.066832 1_655
Ni6 O31 2.066832 1_565
Ni6 O30 2.072134 1_665
Ni7 O23 2.034842 1_555
Ni7 O27 2.034842 1_555
Ni7 O24 2.048391 1_565
Ni7 O20 2.048391 1_655
Ni7 O21 2.068211 1_555
Ni7 O26 2.097291 1_555
