# generated using pymatgen
data_NaMn3F10
_symmetry_space_group_name_H-M   'P 1'
_cell_length_a   10.17362251
_cell_length_b   8.63715231
_cell_length_c   7.48674090
_cell_angle_alpha   77.88600187
_cell_angle_beta   56.09180036
_cell_angle_gamma   46.01852189
_symmetry_Int_Tables_number   1
_chemical_formula_structural   NaMn3F10
_chemical_formula_sum   'Na2 Mn6 F20'
_cell_volume   375.10961233
_cell_formula_units_Z   2
loop_
 _symmetry_equiv_pos_site_id
 _symmetry_equiv_pos_as_xyz
  1  'x, y, z'
loop_
 _atom_site_type_symbol
 _atom_site_label
 _atom_site_symmetry_multiplicity
 _atom_site_fract_x
 _atom_site_fract_y
 _atom_site_fract_z
 _atom_site_occupancy
  Na  Na0  1  0.99112330  0.00881837  0.00893836  1
  Na  Na1  1  0.24126867  0.25877967  0.25861757  1
  Mn  Mn0  1  0.50561615  0.49426214  0.49458800  1
  Mn  Mn1  1  0.75557734  0.74431954  0.74433485  1
  Mn  Mn2  1  0.25806422  0.24252221  0.74174122  1
  Mn  Mn3  1  0.75724460  0.74203780  0.24257624  1
  Mn  Mn4  1  0.50802219  0.49277616  0.99217764  1
  Mn  Mn5  1  0.00730274  0.99198265  0.49289057  1
  F  F0  1  0.14860128  0.12335709  0.84805931  1
  F  F1  1  0.87966363  0.84827478  0.12343016  1
  F  F2  1  0.40164474  0.37043401  0.10155653  1
  F  F3  1  0.12685280  0.10113642  0.37048117  1
  F  F4  1  0.80736698  0.19888784  0.78584501  1
  F  F5  1  0.20790576  0.78601412  0.19891266  1
  F  F6  1  0.46403341  0.04200589  0.44240313  1
  F  F7  1  0.05128274  0.44260648  0.04173340  1
  F  F8  1  0.84055963  0.65673718  0.46043027  1
  F  F9  1  0.04212393  0.46056008  0.65639491  1
  F  F10  1  0.78961324  0.20794085  0.40925576  1
  F  F11  1  0.59334158  0.40923992  0.20797898  1
  F  F12  1  0.63502882  0.62856340  0.36411054  1
  F  F13  1  0.37216984  0.36416191  0.62843741  1
  F  F14  1  0.88552309  0.87810080  0.61524111  1
  F  F15  1  0.62125795  0.61515758  0.87827326  1
  F  F16  1  0.47451234  0.02826444  0.82457670  1
  F  F17  1  0.67260925  0.82462807  0.02822914  1
  F  F18  1  0.42558131  0.57744328  0.77554023  1
  F  F19  1  0.22171149  0.77538433  0.57764288  1
loop_
_geom_bond_atom_site_label_1
_geom_bond_atom_site_label_2
_geom_bond_distance
_geom_bond_site_symmetry_2
F0 Mn2 1.786660 1_555
F0 Na0 2.131750 1_456
F1 Mn3 1.786871 1_555
F1 Na0 2.131621 1_565
F2 Mn4 1.787378 1_554
F2 Na1 2.131578 1_555
F3 Mn5 1.787250 1_545
F3 Na1 2.131948 1_555
F4 Mn5 1.939207 1_645
F4 Mn4 1.940280 1_555
F4 Na0 2.655223 1_556
F5 Mn5 1.939923 1_555
F5 Mn4 1.940439 1_554
F5 Na0 2.654575 1_465
F6 Mn2 1.939585 1_555
F6 Mn3 1.939823 1_545
F6 Na1 2.653248 1_555
F7 Mn2 1.940274 1_554
F7 Mn3 1.940850 1_455
F7 Na1 2.655337 1_555
F8 Mn1 1.885134 1_555
F8 Mn3 2.022936 1_555
F8 Na1 2.561798 1_655
F9 Mn1 1.884527 1_455
F9 Mn2 2.023927 1_555
F9 Na1 2.559981 1_555
F10 Mn0 1.884635 1_555
F10 Mn5 2.023814 1_645
F10 Na0 2.560160 1_555
F11 Mn0 1.885349 1_555
F11 Mn4 2.022363 1_554
F11 Na0 2.560310 1_555
F12 Mn3 1.841307 1_555
F12 Mn0 2.060038 1_555
F13 Mn2 1.841771 1_555
F13 Mn0 2.058712 1_555
F14 Mn5 1.841106 1_655
F14 Mn1 2.060161 1_555
F15 Mn4 1.840778 1_555
F15 Mn1 2.058230 1_555
F16 Mn1 1.874596 1_545
F16 Mn2 2.010131 1_555
F16 Na1 2.775784 1_556
F17 Mn1 1.874851 1_554
F17 Mn3 2.008401 1_555
F17 Na1 2.776506 1_565
F18 Mn0 1.874680 1_555
F18 Mn4 2.009209 1_555
F18 Na0 2.777601 1_466
F19 Mn0 1.874673 1_555
F19 Mn5 2.009736 1_555
F19 Na0 2.776087 1_466
