# generated using pymatgen
data_Er2Tc2O7
_symmetry_space_group_name_H-M   'P 1'
_cell_length_a   7.25699164
_cell_length_b   7.25699164
_cell_length_c   7.25699164
_cell_angle_alpha   60.00000000
_cell_angle_beta   60.00000000
_cell_angle_gamma   60.00000000
_symmetry_Int_Tables_number   1
_chemical_formula_structural   Er2Tc2O7
_chemical_formula_sum   'Er4 Tc4 O14'
_cell_volume   270.24325959
_cell_formula_units_Z   2
loop_
 _symmetry_equiv_pos_site_id
 _symmetry_equiv_pos_as_xyz
  1  'x, y, z'
loop_
 _atom_site_type_symbol
 _atom_site_label
 _atom_site_symmetry_multiplicity
 _atom_site_fract_x
 _atom_site_fract_y
 _atom_site_fract_z
 _atom_site_occupancy
  Er  Er0  1  0.62500000  0.12500000  0.12500000  1
  Er  Er1  1  0.12500000  0.62500000  0.12500000  1
  Er  Er2  1  0.12500000  0.12500000  0.12500000  1
  Er  Er3  1  0.12500000  0.12500000  0.62500000  1
  Tc  Tc0  1  0.62500000  0.12500000  0.62500000  1
  Tc  Tc1  1  0.12500000  0.62500000  0.62500000  1
  Tc  Tc2  1  0.62500000  0.62500000  0.12500000  1
  Tc  Tc3  1  0.62500000  0.62500000  0.62500000  1
  O  O0  1  0.00000000  0.00000000  0.00000000  1
  O  O1  1  0.53512200  0.96487800  0.96487800  1
  O  O2  1  0.71487800  0.71487800  0.28512200  1
  O  O3  1  0.71487800  0.28512200  0.71487800  1
  O  O4  1  0.53512200  0.53512200  0.96487800  1
  O  O5  1  0.28512200  0.71487800  0.28512200  1
  O  O6  1  0.28512200  0.71487800  0.71487800  1
  O  O7  1  0.96487800  0.53512200  0.96487800  1
  O  O8  1  0.25000000  0.25000000  0.25000000  1
  O  O9  1  0.28512200  0.28512200  0.71487800  1
  O  O10  1  0.53512200  0.96487800  0.53512200  1
  O  O11  1  0.96487800  0.96487800  0.53512200  1
  O  O12  1  0.96487800  0.53512200  0.53512200  1
  O  O13  1  0.71487800  0.28512200  0.28512200  1
loop_
_geom_bond_atom_site_label_1
_geom_bond_atom_site_label_2
_geom_bond_distance
_geom_bond_site_symmetry_2
Er0 O0 2.221991 1_655
Er0 O8 2.221991 1_555
Er0 O4 2.447857 1_554
Er0 O13 2.447857 1_555
Er0 O1 2.447857 1_544
Er0 O10 2.447857 1_545
Er0 O2 2.447857 1_545
Er0 O3 2.447857 1_554
Er1 O8 2.221991 1_555
Er1 O0 2.221991 1_565
Er1 O4 2.447857 1_554
Er1 O2 2.447857 1_455
Er1 O12 2.447857 1_455
Er1 O5 2.447857 1_555
Er1 O7 2.447857 1_454
Er1 O6 2.447857 1_554
Er2 O8 2.221991 1_555
Er2 O0 2.221991 1_555
Er2 O5 2.447857 1_545
Er2 O9 2.447857 1_554
Er2 O1 2.447857 1_544
Er2 O7 2.447857 1_454
Er2 O11 2.447857 1_445
Er2 O13 2.447857 1_455
Er3 O8 2.221991 1_555
Er3 O0 2.221991 1_556
Er3 O3 2.447857 1_455
Er3 O10 2.447857 1_545
Er3 O9 2.447857 1_555
Er3 O6 2.447857 1_545
Er3 O12 2.447857 1_455
Er3 O11 2.447857 1_445
O1 Tc2 2.035274 1_556
O1 Tc0 2.035274 1_565
O2 Tc2 2.035274 1_555
O2 Tc3 2.035274 1_555
O3 Tc0 2.035274 1_555
O3 Tc3 2.035274 1_555
O4 Tc3 2.035274 1_555
O4 Tc2 2.035274 1_556
O5 Tc2 2.035274 1_555
O5 Tc1 2.035274 1_555
O6 Tc1 2.035274 1_555
O6 Tc3 2.035274 1_555
O7 Tc1 2.035274 1_655
O7 Tc2 2.035274 1_556
O9 Tc0 2.035274 1_555
O9 Tc1 2.035274 1_555
O10 Tc3 2.035274 1_555
O10 Tc0 2.035274 1_565
O11 Tc1 2.035274 1_655
O11 Tc0 2.035274 1_565
O12 Tc1 2.035274 1_655
O12 Tc3 2.035274 1_555
O13 Tc0 2.035274 1_555
O13 Tc2 2.035274 1_555
