# generated using pymatgen
data_TlSbAu
_symmetry_space_group_name_H-M   'P 1'
_cell_length_a   6.60508210
_cell_length_b   6.65196104
_cell_length_c   14.63646578
_cell_angle_alpha   90.00000000
_cell_angle_beta   90.00000000
_cell_angle_gamma   90.00000000
_symmetry_Int_Tables_number   1
_chemical_formula_structural   TlSbAu
_chemical_formula_sum   'Tl8 Sb8 Au8'
_cell_volume   643.07872023
_cell_formula_units_Z   8
loop_
 _symmetry_equiv_pos_site_id
 _symmetry_equiv_pos_as_xyz
  1  'x, y, z'
loop_
 _atom_site_type_symbol
 _atom_site_label
 _atom_site_symmetry_multiplicity
 _atom_site_fract_x
 _atom_site_fract_y
 _atom_site_fract_z
 _atom_site_occupancy
  Tl  Tl0  1  0.36557480  0.12405813  0.03290645  1
  Tl  Tl1  1  0.86557480  0.87594187  0.96709355  1
  Tl  Tl2  1  0.86557480  0.37594187  0.53290645  1
  Tl  Tl3  1  0.36557480  0.62405813  0.46709355  1
  Tl  Tl4  1  0.58938775  0.42115892  0.29521433  1
  Tl  Tl5  1  0.08938775  0.57884108  0.70478567  1
  Tl  Tl6  1  0.08938775  0.07884108  0.79521433  1
  Tl  Tl7  1  0.58938775  0.92115892  0.20478567  1
  Sb  Sb0  1  0.35811355  0.10506595  0.57247210  1
  Sb  Sb1  1  0.85811355  0.89493405  0.42752790  1
  Sb  Sb2  1  0.85811355  0.39493405  0.07247210  1
  Sb  Sb3  1  0.35811355  0.60506595  0.92752790  1
  Sb  Sb4  1  0.11124252  0.15356419  0.31938335  1
  Sb  Sb5  1  0.61124252  0.84643581  0.68061665  1
  Sb  Sb6  1  0.61124252  0.34643581  0.81938335  1
  Sb  Sb7  1  0.11124252  0.65356419  0.18061665  1
  Au  Au0  1  0.47630333  0.03675354  0.39154915  1
  Au  Au1  1  0.97630333  0.96324646  0.60845085  1
  Au  Au2  1  0.97630333  0.46324646  0.89154915  1
  Au  Au3  1  0.47630333  0.53675354  0.10845085  1
  Au  Au4  1  0.00067706  0.03850696  0.14218088  1
  Au  Au5  1  0.50067706  0.96149304  0.85781912  1
  Au  Au6  1  0.50067706  0.46149304  0.64218088  1
  Au  Au7  1  0.00067706  0.53850696  0.35781912  1
loop_
_geom_bond_atom_site_label_1
_geom_bond_atom_site_label_2
_geom_bond_distance
_geom_bond_site_symmetry_2
Au0 Sb1 2.743572 1_545
Au0 Sb4 2.744738 1_555
Au0 Sb0 2.797892 1_555
Au0 Tl7 2.936239 1_545
Au0 Tl4 3.014053 1_555
Au0 Tl3 3.048572 1_545
Au1 Sb0 2.743572 1_665
Au1 Sb5 2.744738 1_555
Au1 Sb1 2.797892 1_555
Au1 Tl6 2.936239 1_665
Au1 Tl5 3.014053 1_655
Au1 Tl2 3.048572 1_565
Au2 Sb3 2.743572 1_655
Au2 Sb6 2.744738 1_555
Au2 Sb2 2.797892 1_556
Au2 Tl5 2.936239 1_655
Au2 Tl6 3.014053 1_655
Au2 Tl1 3.048572 1_555
Au3 Sb2 2.743572 1_555
Au3 Sb7 2.744738 1_555
Au3 Sb3 2.797892 1_554
Au3 Tl4 2.936239 1_555
Au3 Tl7 3.014053 1_555
Au3 Tl0 3.048572 1_555
Au4 Sb7 2.721508 1_545
Au4 Sb2 2.747551 1_455
Au4 Sb4 2.801063 1_555
Au4 Tl1 2.921114 1_444
Au4 Tl0 2.948029 1_555
Au4 Tl7 2.971342 1_445
Au5 Sb6 2.721508 1_565
Au5 Sb3 2.747551 1_555
Au5 Sb5 2.801063 1_555
Au5 Tl0 2.921114 1_566
Au5 Tl1 2.948029 1_555
Au5 Tl6 2.971342 1_565
Au6 Sb5 2.721508 1_555
Au6 Sb0 2.747551 1_555
Au6 Sb6 2.801063 1_555
Au6 Tl3 2.921114 1_555
Au6 Tl2 2.948029 1_555
Au6 Tl5 2.971342 1_555
Au7 Sb4 2.721508 1_555
Au7 Sb1 2.747551 1_455
Au7 Sb7 2.801063 1_555
Au7 Tl2 2.921114 1_455
Au7 Tl3 2.948029 1_555
Au7 Tl4 2.971342 1_455
