# generated using pymatgen
data_CoH4SeO5
_symmetry_space_group_name_H-M   'P 1'
_cell_length_a   10.12029000
_cell_length_b   6.58006300
_cell_length_c   8.87454895
_cell_angle_alpha   54.88554404
_cell_angle_beta   90.00000000
_cell_angle_gamma   90.00000000
_symmetry_Int_Tables_number   1
_chemical_formula_structural   CoH4SeO5
_chemical_formula_sum   'Co4 H16 Se4 O20'
_cell_volume   483.42048809
_cell_formula_units_Z   4
loop_
 _symmetry_equiv_pos_site_id
 _symmetry_equiv_pos_as_xyz
  1  'x, y, z'
loop_
 _atom_site_type_symbol
 _atom_site_label
 _atom_site_symmetry_multiplicity
 _atom_site_fract_x
 _atom_site_fract_y
 _atom_site_fract_z
 _atom_site_occupancy
  Co  Co0  1  0.62627800  0.83900300  0.51694300  1
  Co  Co1  1  0.12627800  0.16099700  0.98305700  1
  Co  Co2  1  0.37372200  0.16099700  0.48305700  1
  Co  Co3  1  0.87372200  0.83900300  0.01694300  1
  H  H0  1  0.52936000  0.74251200  0.89464100  1
  H  H1  1  0.02936000  0.25748800  0.60535900  1
  H  H2  1  0.47064000  0.25748800  0.10535900  1
  H  H3  1  0.97064000  0.74251200  0.39464100  1
  H  H4  1  0.71257800  0.60562300  0.86926400  1
  H  H5  1  0.21257800  0.39437700  0.63073600  1
  H  H6  1  0.28742200  0.39437700  0.13073600  1
  H  H7  1  0.78742200  0.60562300  0.36926400  1
  H  H8  1  0.58357300  0.45800800  0.87923800  1
  H  H9  1  0.08357300  0.54199200  0.62076200  1
  H  H10  1  0.41642700  0.54199200  0.12076200  1
  H  H11  1  0.91642700  0.45800800  0.37923800  1
  H  H12  1  0.88873100  0.14440800  0.62480300  1
  H  H13  1  0.38873100  0.85559200  0.87519700  1
  H  H14  1  0.11126900  0.85559200  0.37519700  1
  H  H15  1  0.61126900  0.14440800  0.12480300  1
  Se  Se0  1  0.12093000  0.76342900  0.82070100  1
  Se  Se1  1  0.62093000  0.23657100  0.67929900  1
  Se  Se2  1  0.87907000  0.23657100  0.17929900  1
  Se  Se3  1  0.37907000  0.76342900  0.32070100  1
  O  O0  1  0.46953200  0.79566000  0.95538500  1
  O  O1  1  0.96953200  0.20434000  0.54461500  1
  O  O2  1  0.53046800  0.20434000  0.04461500  1
  O  O3  1  0.03046800  0.79566000  0.45538500  1
  O  O4  1  0.57151900  0.14423600  0.53552600  1
  O  O5  1  0.07151900  0.85576400  0.96447400  1
  O  O6  1  0.42848100  0.85576400  0.46447400  1
  O  O7  1  0.92848100  0.14423600  0.03552600  1
  O  O8  1  0.17492200  0.46151000  0.98917700  1
  O  O9  1  0.67492100  0.53849000  0.51082300  1
  O  O10  1  0.82507800  0.53849000  0.01082300  1
  O  O11  1  0.32507800  0.46151000  0.48917700  1
  O  O12  1  0.62743300  0.62986800  0.79883700  1
  O  O13  1  0.12743300  0.37013200  0.70116300  1
  O  O14  1  0.37256700  0.37013200  0.20116300  1
  O  O15  1  0.87256700  0.62986800  0.29883700  1
  O  O16  1  0.23497500  0.93182700  0.22760500  1
  O  O17  1  0.73497500  0.06817300  0.27239500  1
  O  O18  1  0.76502500  0.06817300  0.77239500  1
  O  O19  1  0.26502500  0.93182700  0.72760500  1
loop_
_geom_bond_atom_site_label_1
_geom_bond_atom_site_label_2
_geom_bond_distance
_geom_bond_site_symmetry_2
Co0 O6 2.043761 1_555
Co0 O12 2.047387 1_555
Co0 O9 2.068558 1_555
Co0 O17 2.104543 1_565
Co0 O4 2.179275 1_565
Co1 O7 2.043761 1_456
Co1 O13 2.047387 1_555
Co1 O8 2.068560 1_555
Co1 O16 2.104543 1_546
Co1 O5 2.179275 1_545
Co2 O4 2.043761 1_555
Co2 O14 2.047387 1_555
Co2 O11 2.068560 1_555
Co2 O19 2.104543 1_545
Co2 O6 2.179275 1_545
Co3 O5 2.043761 1_654
Co3 O15 2.047387 1_555
Co3 O10 2.068560 1_555
Co3 O18 2.104543 1_564
Co3 O7 2.179275 1_565
H0 O0 0.998193 1_555
H1 O1 0.998193 1_455
H2 O2 0.998193 1_555
H3 O3 0.998193 1_655
H4 O12 1.021710 1_555
H4 O10 1.559227 1_556
H5 O13 1.021710 1_555
H5 O11 1.559227 1_555
H6 O14 1.021710 1_555
H6 O8 1.559227 1_554
H7 O15 1.021710 1_555
H7 O9 1.559234 1_555
H8 O12 1.027959 1_555
H8 O2 1.552634 1_556
H9 O13 1.027959 1_555
H9 O3 1.552634 1_555
H10 O14 1.027959 1_555
H10 O0 1.552634 1_554
H11 O15 1.027959 1_555
H11 O1 1.552634 1_555
H12 O1 1.003877 1_555
H12 O18 1.666949 1_555
H13 O0 1.003877 1_555
H13 O19 1.666949 1_555
H14 O3 1.003877 1_555
H14 O16 1.666949 1_555
H15 O2 1.003877 1_555
H15 O17 1.666949 1_555
O4 Se1 1.771719 1_555
O5 Se0 1.771719 1_555
O6 Se3 1.771719 1_555
O7 Se2 1.771719 1_555
O8 Se0 1.750332 1_555
O9 Se1 1.750329 1_555
O10 Se2 1.750332 1_555
O11 Se3 1.750332 1_555
O16 Se3 1.727371 1_555
O17 Se2 1.727371 1_555
O18 Se1 1.727371 1_555
O19 Se0 1.727371 1_555
