# generated using pymatgen
data_Ag(BCl)6
_symmetry_space_group_name_H-M   'P 1'
_cell_length_a   12.43005590
_cell_length_b   12.43005590
_cell_length_c   12.43005590
_cell_angle_alpha   90.00000000
_cell_angle_beta   90.00000000
_cell_angle_gamma   90.00000000
_symmetry_Int_Tables_number   1
_chemical_formula_structural   Ag(BCl)6
_chemical_formula_sum   'Ag8 B48 Cl48'
_cell_volume   1920.52181759
_cell_formula_units_Z   8
loop_
 _symmetry_equiv_pos_site_id
 _symmetry_equiv_pos_as_xyz
  1  'x, y, z'
loop_
 _atom_site_type_symbol
 _atom_site_label
 _atom_site_symmetry_multiplicity
 _atom_site_fract_x
 _atom_site_fract_y
 _atom_site_fract_z
 _atom_site_occupancy
  Ag  Ag0  1  0.63335408  0.63335408  0.63335408  1
  Ag  Ag1  1  0.63335408  0.86664592  0.13335408  1
  Ag  Ag2  1  0.13335408  0.86664592  0.36664592  1
  Ag  Ag3  1  0.86664592  0.36664592  0.13335408  1
  Ag  Ag4  1  0.36664592  0.36664592  0.36664592  1
  Ag  Ag5  1  0.13335408  0.63335408  0.86664592  1
  Ag  Ag6  1  0.86664592  0.13335408  0.63335408  1
  Ag  Ag7  1  0.36664592  0.13335408  0.86664592  1
  B  B0  1  0.90598562  0.07213505  0.06623792  1
  B  B1  1  0.13091580  0.47228817  0.53063021  1
  B  B2  1  0.42786495  0.56623792  0.90598562  1
  B  B3  1  0.07213505  0.06623792  0.90598562  1
  B  B4  1  0.40598562  0.07213505  0.43376208  1
  B  B5  1  0.59401438  0.92786495  0.56623792  1
  B  B6  1  0.02771183  0.03063021  0.13091580  1
  B  B7  1  0.03063021  0.13091580  0.02771183  1
  B  B8  1  0.57213505  0.06623792  0.59401438  1
  B  B9  1  0.47228817  0.53063021  0.13091580  1
  B  B10  1  0.92786495  0.56623792  0.59401438  1
  B  B11  1  0.42786495  0.93376208  0.40598562  1
  B  B12  1  0.46936979  0.63091580  0.02771183  1
  B  B13  1  0.46936979  0.86908420  0.52771183  1
  B  B14  1  0.93376208  0.40598562  0.42786495  1
  B  B15  1  0.09401438  0.92786495  0.93376208  1
  B  B16  1  0.06623792  0.59401438  0.57213505  1
  B  B17  1  0.07213505  0.43376208  0.40598562  1
  B  B18  1  0.09401438  0.57213505  0.43376208  1
  B  B19  1  0.63091580  0.02771183  0.46936979  1
  B  B20  1  0.53063021  0.36908420  0.97228817  1
  B  B21  1  0.06623792  0.90598562  0.07213505  1
  B  B22  1  0.52771183  0.03063021  0.36908420  1
  B  B23  1  0.90598562  0.42786495  0.56623792  1
  B  B24  1  0.03063021  0.36908420  0.52771183  1
  B  B25  1  0.92786495  0.93376208  0.09401438  1
  B  B26  1  0.63091580  0.47228817  0.96936979  1
  B  B27  1  0.97228817  0.53063021  0.36908420  1
  B  B28  1  0.86908420  0.52771183  0.46936979  1
  B  B29  1  0.40598562  0.42786495  0.93376208  1
  B  B30  1  0.02771183  0.46936979  0.63091580  1
  B  B31  1  0.59401438  0.57213505  0.06623792  1
  B  B32  1  0.56623792  0.59401438  0.92786495  1
  B  B33  1  0.43376208  0.40598562  0.07213505  1
  B  B34  1  0.56623792  0.90598562  0.42786495  1
  B  B35  1  0.97228817  0.96936979  0.86908420  1
  B  B36  1  0.36908420  0.52771183  0.03063021  1
  B  B37  1  0.96936979  0.63091580  0.47228817  1
  B  B38  1  0.52771183  0.46936979  0.86908420  1
  B  B39  1  0.43376208  0.09401438  0.57213505  1
  B  B40  1  0.96936979  0.86908420  0.97228817  1
  B  B41  1  0.13091580  0.02771183  0.03063021  1
  B  B42  1  0.86908420  0.97228817  0.96936979  1
  B  B43  1  0.57213505  0.43376208  0.09401438  1
  B  B44  1  0.93376208  0.09401438  0.92786495  1
  B  B45  1  0.36908420  0.97228817  0.53063021  1
  B  B46  1  0.53063021  0.13091580  0.47228817  1
  B  B47  1  0.47228817  0.96936979  0.63091580  1
  Cl  Cl0  1  0.80367483  0.14761820  0.13263645  1
  Cl  Cl1  1  0.72946984  0.55391867  0.44316799  1
  Cl  Cl2  1  0.64761820  0.36736355  0.19632517  1
  Cl  Cl3  1  0.05683201  0.22946984  0.55391867  1
  Cl  Cl4  1  0.94608133  0.55683201  0.22946984  1
  Cl  Cl5  1  0.55391867  0.44316799  0.72946984  1
  Cl  Cl6  1  0.55683201  0.22946984  0.94608133  1
  Cl  Cl7  1  0.05683201  0.27053016  0.05391867  1
  Cl  Cl8  1  0.44316799  0.72946984  0.55391867  1
  Cl  Cl9  1  0.94316799  0.77053016  0.44608133  1
  Cl  Cl10  1  0.19632517  0.64761820  0.36736355  1
  Cl  Cl11  1  0.85238180  0.86736355  0.19632517  1
  Cl  Cl12  1  0.44608133  0.55683201  0.27053016  1
  Cl  Cl13  1  0.05391867  0.44316799  0.77053016  1
  Cl  Cl14  1  0.44608133  0.94316799  0.77053016  1
  Cl  Cl15  1  0.94608133  0.94316799  0.72946984  1
  Cl  Cl16  1  0.36736355  0.30367483  0.14761820  1
  Cl  Cl17  1  0.13263645  0.69632517  0.64761820  1
  Cl  Cl18  1  0.13263645  0.80367483  0.14761820  1
  Cl  Cl19  1  0.63263645  0.69632517  0.85238180  1
  Cl  Cl20  1  0.35238180  0.63263645  0.80367483  1
  Cl  Cl21  1  0.30367483  0.14761820  0.36736355  1
  Cl  Cl22  1  0.22946984  0.94608133  0.55683201  1
  Cl  Cl23  1  0.69632517  0.64761820  0.13263645  1
  Cl  Cl24  1  0.14761820  0.36736355  0.30367483  1
  Cl  Cl25  1  0.35238180  0.86736355  0.30367483  1
  Cl  Cl26  1  0.44316799  0.77053016  0.05391867  1
  Cl  Cl27  1  0.85238180  0.63263645  0.69632517  1
  Cl  Cl28  1  0.55391867  0.05683201  0.22946984  1
  Cl  Cl29  1  0.64761820  0.13263645  0.69632517  1
  Cl  Cl30  1  0.86736355  0.19632517  0.85238180  1
  Cl  Cl31  1  0.27053016  0.05391867  0.05683201  1
  Cl  Cl32  1  0.30367483  0.35238180  0.86736355  1
  Cl  Cl33  1  0.19632517  0.85238180  0.86736355  1
  Cl  Cl34  1  0.69632517  0.85238180  0.63263645  1
  Cl  Cl35  1  0.27053016  0.44608133  0.55683201  1
  Cl  Cl36  1  0.63263645  0.80367483  0.35238180  1
  Cl  Cl37  1  0.86736355  0.30367483  0.35238180  1
  Cl  Cl38  1  0.36736355  0.19632517  0.64761820  1
  Cl  Cl39  1  0.94316799  0.72946984  0.94608133  1
  Cl  Cl40  1  0.05391867  0.05683201  0.27053016  1
  Cl  Cl41  1  0.80367483  0.35238180  0.63263645  1
  Cl  Cl42  1  0.14761820  0.13263645  0.80367483  1
  Cl  Cl43  1  0.77053016  0.05391867  0.44316799  1
  Cl  Cl44  1  0.77053016  0.44608133  0.94316799  1
  Cl  Cl45  1  0.55683201  0.27053016  0.44608133  1
  Cl  Cl46  1  0.22946984  0.55391867  0.05683201  1
  Cl  Cl47  1  0.72946984  0.94608133  0.94316799  1
loop_
_geom_bond_atom_site_label_1
_geom_bond_atom_site_label_2
_geom_bond_distance
_geom_bond_site_symmetry_2
Ag0 Cl5 2.826819 1_555
Ag0 Cl1 2.826819 1_555
Ag0 Cl8 2.826819 1_555
Ag0 Cl27 2.832826 1_555
Ag0 Cl34 2.832826 1_555
Ag0 Cl19 2.832826 1_555
Ag1 Cl28 2.826819 1_565
Ag1 Cl26 2.826819 1_555
Ag1 Cl47 2.826819 1_554
Ag1 Cl11 2.832826 1_555
Ag1 Cl23 2.832826 1_555
Ag1 Cl36 2.832826 1_555
Ag2 Cl40 2.826819 1_565
Ag2 Cl9 2.826819 1_455
Ag2 Cl22 2.826819 1_555
Ag2 Cl10 2.832826 1_555
Ag2 Cl25 2.832826 1_555
Ag2 Cl18 2.832826 1_555
Ag3 Cl7 2.826819 1_655
Ag3 Cl44 2.826819 1_554
Ag3 Cl4 2.826819 1_555
Ag3 Cl2 2.832826 1_555
Ag3 Cl37 2.832826 1_555
Ag3 Cl0 2.832826 1_555
Ag4 Cl45 2.826819 1_555
Ag4 Cl12 2.826819 1_555
Ag4 Cl35 2.826819 1_555
Ag4 Cl24 2.832826 1_555
Ag4 Cl21 2.832826 1_555
Ag4 Cl16 2.832826 1_555
Ag5 Cl46 2.826819 1_556
Ag5 Cl13 2.826819 1_555
Ag5 Cl39 2.826819 1_455
Ag5 Cl33 2.832826 1_555
Ag5 Cl17 2.832826 1_555
Ag5 Cl20 2.832826 1_555
Ag6 Cl3 2.826819 1_655
Ag6 Cl43 2.826819 1_555
Ag6 Cl15 2.826819 1_545
Ag6 Cl30 2.832826 1_555
Ag6 Cl29 2.832826 1_555
Ag6 Cl41 2.832826 1_555
Ag7 Cl31 2.826819 1_556
Ag7 Cl14 2.826819 1_545
Ag7 Cl6 2.826819 1_555
Ag7 Cl38 2.832826 1_555
Ag7 Cl42 2.832826 1_555
Ag7 Cl32 2.832826 1_555
B0 Cl0 1.782921 1_555
B1 Cl35 1.795509 1_555
B2 Cl20 1.782921 1_555
B3 Cl42 1.782921 1_555
B4 Cl21 1.782921 1_555
B5 Cl34 1.782921 1_555
B6 Cl40 1.795509 1_555
B7 Cl7 1.795509 1_555
B8 Cl29 1.782921 1_555
B9 Cl12 1.795509 1_555
B10 Cl27 1.782921 1_555
B11 Cl25 1.782921 1_555
B12 Cl26 1.795509 1_555
B13 Cl8 1.795509 1_555
B14 Cl37 1.782921 1_555
B15 Cl33 1.782921 1_555
B16 Cl17 1.782921 1_555
B17 Cl24 1.782921 1_555
B18 Cl10 1.782921 1_555
B19 Cl43 1.795509 1_555
B20 Cl6 1.795509 1_555
B21 Cl18 1.782921 1_555
B22 Cl28 1.795509 1_555
B23 Cl41 1.782921 1_555
B24 Cl3 1.795509 1_555
B25 Cl11 1.782921 1_555
B26 Cl44 1.795509 1_555
B27 Cl4 1.795509 1_555
B28 Cl1 1.795509 1_555
B29 Cl32 1.782921 1_555
B30 Cl13 1.795509 1_555
B31 Cl23 1.782921 1_555
B32 Cl19 1.782921 1_555
B33 Cl16 1.782921 1_555
B34 Cl36 1.782921 1_555
B35 Cl15 1.795509 1_555
B36 Cl46 1.795509 1_555
B37 Cl9 1.795509 1_555
B38 Cl5 1.795509 1_555
B39 Cl38 1.782921 1_555
B40 Cl39 1.795509 1_555
B41 Cl31 1.795509 1_555
B42 Cl47 1.795509 1_555
B43 Cl2 1.782921 1_555
B44 Cl30 1.782921 1_555
B45 Cl22 1.795509 1_555
B46 Cl45 1.795509 1_555
B47 Cl14 1.795509 1_555
