# generated using pymatgen
data_Ca3MnCoO6
_symmetry_space_group_name_H-M   'P 1'
_cell_length_a   6.40256339
_cell_length_b   6.41116513
_cell_length_c   6.39927121
_cell_angle_alpha   91.99047971
_cell_angle_beta   91.94515786
_cell_angle_gamma   92.00886311
_symmetry_Int_Tables_number   1
_chemical_formula_structural   Ca3MnCoO6
_chemical_formula_sum   'Ca6 Mn2 Co2 O12'
_cell_volume   262.19413682
_cell_formula_units_Z   2
loop_
 _symmetry_equiv_pos_site_id
 _symmetry_equiv_pos_as_xyz
  1  'x, y, z'
loop_
 _atom_site_type_symbol
 _atom_site_label
 _atom_site_symmetry_multiplicity
 _atom_site_fract_x
 _atom_site_fract_y
 _atom_site_fract_z
 _atom_site_occupancy
  Ca  Ca0  1  0.88810400  0.24856400  0.61176900  1
  Ca  Ca1  1  0.61043000  0.88912700  0.24921700  1
  Ca  Ca2  1  0.25220200  0.61103900  0.88947400  1
  Ca  Ca3  1  0.11188900  0.74972300  0.38834100  1
  Ca  Ca4  1  0.38965900  0.11066000  0.75203300  1
  Ca  Ca5  1  0.74823900  0.38865800  0.11074200  1
  Mn  Mn0  1  0.49948400  0.50081200  0.49980500  1
  Mn  Mn1  1  0.00022600  0.00056800  0.99919400  1
  Co  Co0  1  0.75382200  0.74683600  0.74941400  1
  Co  Co1  1  0.24715300  0.24869800  0.25421800  1
  O  O0  1  0.95587900  0.08378300  0.28713400  1
  O  O1  1  0.28679600  0.95331600  0.08165900  1
  O  O2  1  0.08460800  0.28701500  0.95496800  1
  O  O3  1  0.78723100  0.58462100  0.45614500  1
  O  O4  1  0.45422400  0.78691100  0.58375800  1
  O  O5  1  0.58166500  0.45385500  0.78688900  1
  O  O6  1  0.54470900  0.21372300  0.41475500  1
  O  O7  1  0.41784900  0.54671900  0.21322000  1
  O  O8  1  0.21207900  0.41739600  0.54437300  1
  O  O9  1  0.91488800  0.71325600  0.04406600  1
  O  O10  1  0.04518900  0.91824900  0.71200600  1
  O  O11  1  0.71369500  0.04649200  0.91683800  1
loop_
_geom_bond_atom_site_label_1
_geom_bond_atom_site_label_2
_geom_bond_distance
_geom_bond_site_symmetry_2
Ca0 O0 2.358165 1_555
Ca0 O8 2.365580 1_655
Ca0 O10 2.471343 1_645
Ca0 O2 2.494018 1_655
Ca0 O6 2.496215 1_555
Ca0 O3 2.500756 1_555
Ca0 O11 2.637939 1_555
Ca0 O5 2.658075 1_555
Ca1 O1 2.356316 1_555
Ca1 O6 2.359758 1_565
Ca1 O7 2.479569 1_555
Ca1 O11 2.485322 1_564
Ca1 O4 2.491916 1_555
Ca1 O0 2.501441 1_565
Ca1 O9 2.649460 1_555
Ca1 O3 2.660609 1_555
Ca2 O7 2.351126 1_556
Ca2 O2 2.361622 1_555
Ca2 O5 2.468432 1_555
Ca2 O1 2.477277 1_556
Ca2 O8 2.496585 1_555
Ca2 O9 2.504305 1_456
Ca2 O4 2.644713 1_555
Ca2 O10 2.676172 1_555
Ca3 O3 2.359728 1_455
Ca3 O10 2.361489 1_555
Ca3 O8 2.479529 1_555
Ca3 O4 2.486227 1_555
Ca3 O0 2.491293 1_465
Ca3 O9 2.500832 1_455
Ca3 O7 2.648317 1_555
Ca3 O1 2.652175 1_555
Ca4 O11 2.350990 1_555
Ca4 O4 2.360873 1_545
Ca4 O1 2.469069 1_546
Ca4 O5 2.481914 1_555
Ca4 O10 2.490076 1_545
Ca4 O6 2.505798 1_555
Ca4 O2 2.646590 1_555
Ca4 O8 2.676113 1_555
Ca5 O5 2.355517 1_554
Ca5 O9 2.363936 1_555
Ca5 O7 2.475865 1_555
Ca5 O11 2.481757 1_554
Ca5 O2 2.501087 1_654
Ca5 O3 2.504783 1_555
Ca5 O6 2.638557 1_555
Ca5 O0 2.663751 1_555
Mn0 O7 1.925185 1_555
Mn0 O4 1.927788 1_555
Mn0 O5 1.930396 1_555
Mn0 O8 1.931489 1_555
Mn0 O3 1.933100 1_555
Mn0 O6 1.935523 1_555
Mn1 O11 1.926904 1_455
Mn1 O10 1.928233 1_545
Mn1 O1 1.928997 1_546
Mn1 O2 1.929115 1_555
Mn1 O0 1.933466 1_456
Mn1 O9 1.936699 1_446
Co0 O3 2.134625 1_555
Co0 O9 2.139366 1_556
Co0 O10 2.156374 1_655
Co0 O5 2.169041 1_555
Co0 O4 2.187391 1_555
Co0 O11 2.194308 1_565
Co1 O0 2.131666 1_455
Co1 O8 2.138608 1_555
Co1 O6 2.155978 1_555
Co1 O2 2.173909 1_554
Co1 O1 2.185753 1_545
Co1 O7 2.195851 1_555
