# generated using pymatgen
data_BaV2ZnO7
_symmetry_space_group_name_H-M   'P 1'
_cell_length_a   15.41664300
_cell_length_b   5.66717100
_cell_length_c   8.94942124
_cell_angle_alpha   57.61062029
_cell_angle_beta   90.00000000
_cell_angle_gamma   90.00000000
_symmetry_Int_Tables_number   1
_chemical_formula_structural   BaV2ZnO7
_chemical_formula_sum   'Ba4 V8 Zn4 O28'
_cell_volume   660.25745460
_cell_formula_units_Z   4
loop_
 _symmetry_equiv_pos_site_id
 _symmetry_equiv_pos_as_xyz
  1  'x, y, z'
loop_
 _atom_site_type_symbol
 _atom_site_label
 _atom_site_symmetry_multiplicity
 _atom_site_fract_x
 _atom_site_fract_y
 _atom_site_fract_z
 _atom_site_occupancy
  Ba  Ba0  1  0.78471800  0.43005700  0.35462700  1
  Ba  Ba1  1  0.71528200  0.43005700  0.85462700  1
  Ba  Ba2  1  0.21528200  0.56994300  0.64537300  1
  Ba  Ba3  1  0.28471800  0.56994300  0.14537300  1
  V  V0  1  0.86619400  0.91864800  0.83309900  1
  V  V1  1  0.63380600  0.91864800  0.33309900  1
  V  V2  1  0.13380600  0.08135200  0.16690100  1
  V  V3  1  0.36619400  0.08135200  0.66690100  1
  V  V4  1  0.06201700  0.91691200  0.78730900  1
  V  V5  1  0.43798300  0.91691200  0.28730900  1
  V  V6  1  0.93798300  0.08308800  0.21269100  1
  V  V7  1  0.56201700  0.08308800  0.71269100  1
  Zn  Zn0  1  0.55077200  0.57747600  0.13112700  1
  Zn  Zn1  1  0.94922800  0.57747600  0.63112700  1
  Zn  Zn2  1  0.44922800  0.42252400  0.86887300  1
  Zn  Zn3  1  0.05077200  0.42252400  0.36887300  1
  O  O0  1  0.78308600  0.76805700  0.97762100  1
  O  O1  1  0.71691400  0.76805700  0.47762100  1
  O  O2  1  0.21691400  0.23194300  0.02237900  1
  O  O3  1  0.28308600  0.23194300  0.52237900  1
  O  O4  1  0.97165000  0.81440100  0.94117000  1
  O  O5  1  0.52835000  0.81440100  0.44117000  1
  O  O6  1  0.02835000  0.18559900  0.05883000  1
  O  O7  1  0.47165000  0.18559900  0.55883000  1
  O  O8  1  0.16019200  0.84595000  0.88354600  1
  O  O9  1  0.33980800  0.84595000  0.38354600  1
  O  O10  1  0.83980800  0.15405000  0.11645400  1
  O  O11  1  0.66019200  0.15405000  0.61645400  1
  O  O12  1  0.05197700  0.74029500  0.67918700  1
  O  O13  1  0.44802300  0.74029500  0.17918700  1
  O  O14  1  0.94802300  0.25970500  0.32081300  1
  O  O15  1  0.55197700  0.25970500  0.82081300  1
  O  O16  1  0.05387700  0.27995300  0.63069700  1
  O  O17  1  0.44612300  0.27995300  0.13069700  1
  O  O18  1  0.94612300  0.72004700  0.36930300  1
  O  O19  1  0.55387700  0.72004700  0.86930300  1
  O  O20  1  0.85658400  0.28470200  0.71034100  1
  O  O21  1  0.64341600  0.28470200  0.21034100  1
  O  O22  1  0.14341600  0.71529800  0.28965900  1
  O  O23  1  0.35658400  0.71529800  0.78965900  1
  O  O24  1  0.86181500  0.80124100  0.69123200  1
  O  O25  1  0.63818500  0.80124100  0.19123200  1
  O  O26  1  0.13818500  0.19875900  0.30876800  1
  O  O27  1  0.36181500  0.19875900  0.80876800  1
loop_
_geom_bond_atom_site_label_1
_geom_bond_atom_site_label_2
_geom_bond_distance
_geom_bond_site_symmetry_2
Ba0 O14 2.770375 1_555
Ba0 O11 2.774186 1_555
Ba0 O0 2.851249 1_554
Ba0 O21 2.868967 1_555
Ba0 O1 2.869196 1_555
Ba0 O25 2.893285 1_555
Ba0 O18 3.023424 1_555
Ba0 O20 3.038239 1_555
Ba1 O15 2.770375 1_555
Ba1 O10 2.774186 1_556
Ba1 O1 2.851249 1_555
Ba1 O20 2.868967 1_555
Ba1 O0 2.869196 1_555
Ba1 O24 2.893285 1_555
Ba1 O19 3.023424 1_555
Ba1 O21 3.038239 1_556
Ba2 O12 2.770375 1_555
Ba2 O9 2.774186 1_555
Ba2 O2 2.851249 1_556
Ba2 O23 2.868967 1_555
Ba2 O3 2.869196 1_555
Ba2 O27 2.893285 1_555
Ba2 O16 3.023424 1_555
Ba2 O22 3.038239 1_555
Ba3 O13 2.770375 1_555
Ba3 O8 2.774186 1_554
Ba3 O3 2.851249 1_555
Ba3 O22 2.868967 1_555
Ba3 O2 2.869196 1_555
Ba3 O26 2.893285 1_555
Ba3 O17 3.023424 1_555
Ba3 O23 3.038239 1_554
O0 V0 1.691219 1_555
O1 V1 1.691219 1_555
O2 V2 1.691219 1_555
O3 V3 1.691219 1_555
O4 V0 1.820837 1_555
O4 V4 1.821375 1_655
O5 V1 1.820837 1_555
O5 V5 1.821375 1_555
O6 V2 1.820837 1_555
O6 V6 1.821375 1_455
O7 V3 1.820837 1_555
O7 V7 1.821375 1_555
O8 V4 1.680240 1_555
O9 V5 1.680240 1_555
O10 V6 1.680240 1_555
O11 V7 1.680240 1_555
O12 V4 1.731969 1_555
O12 Zn1 1.992685 1_455
O13 V5 1.731969 1_555
O13 Zn0 1.992685 1_555
O14 V6 1.731969 1_555
O14 Zn3 1.992685 1_655
O15 V7 1.731969 1_555
O15 Zn2 1.992685 1_555
O16 V4 1.767423 1_545
O16 Zn3 2.029110 1_555
O16 Zn1 2.335123 1_455
O17 V5 1.767423 1_545
O17 Zn2 2.029110 1_554
O17 Zn0 2.335123 1_555
O18 V6 1.767423 1_565
O18 Zn1 2.029110 1_555
O18 Zn3 2.335123 1_655
O19 V7 1.767423 1_565
O19 Zn0 2.029110 1_556
O19 Zn2 2.335123 1_555
O20 V0 1.758056 1_545
O20 Zn1 2.008802 1_555
O21 V1 1.758056 1_545
O21 Zn0 2.008802 1_555
O22 V2 1.758056 1_565
O22 Zn3 2.008802 1_555
O23 V3 1.758056 1_565
O23 Zn2 2.008802 1_555
O24 V0 1.721701 1_555
O24 Zn1 2.108153 1_555
O25 V1 1.721701 1_555
O25 Zn0 2.108153 1_555
O26 V2 1.721701 1_555
O26 Zn3 2.108153 1_555
O27 V3 1.721701 1_555
O27 Zn2 2.108153 1_555
