# generated using pymatgen
data_Er2Hf2O7
_symmetry_space_group_name_H-M   'P 1'
_cell_length_a   7.39188499
_cell_length_b   7.39188499
_cell_length_c   7.39188499
_cell_angle_alpha   60.00000000
_cell_angle_beta   60.00000000
_cell_angle_gamma   60.00000000
_symmetry_Int_Tables_number   1
_chemical_formula_structural   Er2Hf2O7
_chemical_formula_sum   'Er4 Hf4 O14'
_cell_volume   285.59500334
_cell_formula_units_Z   2
loop_
 _symmetry_equiv_pos_site_id
 _symmetry_equiv_pos_as_xyz
  1  'x, y, z'
loop_
 _atom_site_type_symbol
 _atom_site_label
 _atom_site_symmetry_multiplicity
 _atom_site_fract_x
 _atom_site_fract_y
 _atom_site_fract_z
 _atom_site_occupancy
  Er  Er0  1  0.62500000  0.62500000  0.12500000  1
  Er  Er1  1  0.62500000  0.62500000  0.62500000  1
  Er  Er2  1  0.12500000  0.62500000  0.62500000  1
  Er  Er3  1  0.62500000  0.12500000  0.62500000  1
  Hf  Hf0  1  0.12500000  0.12500000  0.12500000  1
  Hf  Hf1  1  0.62500000  0.12500000  0.12500000  1
  Hf  Hf2  1  0.12500000  0.12500000  0.62500000  1
  Hf  Hf3  1  0.12500000  0.62500000  0.12500000  1
  O  O0  1  0.03540400  0.46459600  0.03540400  1
  O  O1  1  0.21459600  0.78540400  0.78540400  1
  O  O2  1  0.21459600  0.78540400  0.21459600  1
  O  O3  1  0.03540400  0.03540400  0.46459600  1
  O  O4  1  0.78540400  0.78540400  0.21459600  1
  O  O5  1  0.78540400  0.21459600  0.21459600  1
  O  O6  1  0.46459600  0.03540400  0.03540400  1
  O  O7  1  0.46459600  0.03540400  0.46459600  1
  O  O8  1  0.21459600  0.21459600  0.78540400  1
  O  O9  1  0.75000000  0.75000000  0.75000000  1
  O  O10  1  0.03540400  0.46459600  0.46459600  1
  O  O11  1  0.46459600  0.46459600  0.03540400  1
  O  O12  1  0.78540400  0.21459600  0.78540400  1
  O  O13  1  0.50000000  0.50000000  0.50000000  1
loop_
_geom_bond_atom_site_label_1
_geom_bond_atom_site_label_2
_geom_bond_distance
_geom_bond_site_symmetry_2
Er0 O9 2.263293 1_554
Er0 O13 2.263293 1_555
Er0 O5 2.495338 1_555
Er0 O6 2.495338 1_565
Er0 O0 2.495338 1_655
Er0 O2 2.495338 1_555
Er0 O4 2.495338 1_555
Er0 O11 2.495338 1_555
Er1 O9 2.263293 1_555
Er1 O13 2.263293 1_555
Er1 O4 2.495338 1_555
Er1 O1 2.495338 1_555
Er1 O10 2.495338 1_655
Er1 O11 2.495338 1_556
Er1 O7 2.495338 1_565
Er1 O12 2.495338 1_555
Er2 O9 2.263293 1_455
Er2 O13 2.263293 1_555
Er2 O1 2.495338 1_555
Er2 O8 2.495338 1_555
Er2 O10 2.495338 1_555
Er2 O2 2.495338 1_555
Er2 O0 2.495338 1_556
Er2 O3 2.495338 1_565
Er3 O9 2.263293 1_545
Er3 O13 2.263293 1_555
Er3 O8 2.495338 1_555
Er3 O5 2.495338 1_555
Er3 O12 2.495338 1_555
Er3 O6 2.495338 1_556
Er3 O3 2.495338 1_655
Er3 O7 2.495338 1_555
Hf0 O2 2.071771 1_545
Hf0 O3 2.071771 1_555
Hf0 O6 2.071771 1_555
Hf0 O0 2.071771 1_555
Hf0 O5 2.071771 1_455
Hf0 O8 2.071771 1_554
Hf1 O12 2.071771 1_554
Hf1 O6 2.071771 1_555
Hf1 O7 2.071771 1_555
Hf1 O4 2.071771 1_545
Hf1 O11 2.071771 1_555
Hf1 O5 2.071771 1_555
Hf2 O1 2.071771 1_545
Hf2 O3 2.071771 1_555
Hf2 O7 2.071771 1_555
Hf2 O10 2.071771 1_555
Hf2 O12 2.071771 1_455
Hf2 O8 2.071771 1_555
Hf3 O0 2.071771 1_555
Hf3 O4 2.071771 1_455
Hf3 O10 2.071771 1_555
Hf3 O1 2.071771 1_554
Hf3 O2 2.071771 1_555
Hf3 O11 2.071771 1_555
