# generated using pymatgen
data_Tm6CoBi2
_symmetry_space_group_name_H-M   'P 1'
_cell_length_a   8.20542708
_cell_length_b   8.20542071
_cell_length_c   4.08603941
_cell_angle_alpha   90.00000000
_cell_angle_beta   90.00000000
_cell_angle_gamma   120.00156905
_symmetry_Int_Tables_number   1
_chemical_formula_structural   Tm6CoBi2
_chemical_formula_sum   'Tm6 Co1 Bi2'
_cell_volume   238.24750390
_cell_formula_units_Z   1
loop_
 _symmetry_equiv_pos_site_id
 _symmetry_equiv_pos_as_xyz
  1  'x, y, z'
loop_
 _atom_site_type_symbol
 _atom_site_label
 _atom_site_symmetry_multiplicity
 _atom_site_fract_x
 _atom_site_fract_y
 _atom_site_fract_z
 _atom_site_occupancy
  Tm  Tm0  1  -0.00000176  0.60979267  0.50000000  1
  Tm  Tm1  1  0.23354221  0.00000523  -0.00000000  1
  Tm  Tm2  1  0.39020112  0.39020119  0.50000000  1
  Tm  Tm3  1  0.00000046  0.23354064  -0.00000000  1
  Tm  Tm4  1  0.76645502  0.76645960  -0.00000000  1
  Tm  Tm5  1  0.60979056  -0.00000160  0.50000000  1
  Co  Co0  1  0.00001329  0.00000948  0.50000000  1
  Bi  Bi0  1  0.66666816  0.33333224  -0.00000000  1
  Bi  Bi1  1  0.33333193  0.66666056  -0.00000000  1
loop_
_geom_bond_atom_site_label_1
_geom_bond_atom_site_label_2
_geom_bond_distance
_geom_bond_site_symmetry_2
Co0 Tm1 2.801042 1_555
Co0 Tm1 2.801042 1_556
Co0 Tm3 2.801078 1_556
Co0 Tm3 2.801078 1_555
Co0 Tm4 2.801140 1_445
Co0 Tm4 2.801140 1_446
Co0 Tm2 3.201597 1_555
Co0 Tm0 3.201831 1_545
Co0 Tm5 3.201899 1_455
Bi0 Tm1 3.223443 1_555
Bi0 Tm4 3.223532 1_555
Bi0 Tm3 3.223533 1_655
Bi0 Tm0 3.255139 1_655
Bi0 Tm0 3.255139 1_654
Bi0 Tm5 3.255179 1_554
Bi0 Tm5 3.255179 1_555
Bi0 Tm2 3.255231 1_555
Bi0 Tm2 3.255231 1_554
Bi1 Tm3 3.223419 1_555
Bi1 Tm4 3.223471 1_555
Bi1 Tm1 3.223620 1_565
Bi1 Tm5 3.255165 1_565
Bi1 Tm5 3.255165 1_564
Bi1 Tm2 3.255182 1_555
Bi1 Tm2 3.255182 1_554
Bi1 Tm0 3.255202 1_555
Bi1 Tm0 3.255202 1_554
