# generated using pymatgen
data_Sr2DySbO6
_symmetry_space_group_name_H-M   'P 1'
_cell_length_a   5.92359800
_cell_length_b   5.86820500
_cell_length_c   10.16983640
_cell_angle_alpha   54.97925776
_cell_angle_beta   90.00000000
_cell_angle_gamma   90.00000000
_symmetry_Int_Tables_number   1
_chemical_formula_structural   Sr2DySbO6
_chemical_formula_sum   'Sr4 Dy2 Sb2 O12'
_cell_volume   289.50709355
_cell_formula_units_Z   2
loop_
 _symmetry_equiv_pos_site_id
 _symmetry_equiv_pos_as_xyz
  1  'x, y, z'
loop_
 _atom_site_type_symbol
 _atom_site_label
 _atom_site_symmetry_multiplicity
 _atom_site_fract_x
 _atom_site_fract_y
 _atom_site_fract_z
 _atom_site_occupancy
  Sr  Sr0  1  0.46697400  0.24181600  0.25052300  1
  Sr  Sr1  1  0.03302600  0.24181600  0.75052300  1
  Sr  Sr2  1  0.53302600  0.75818400  0.74947700  1
  Sr  Sr3  1  0.96697400  0.75818400  0.24947700  1
  Dy  Dy0  1  0.50000000  0.50000000  0.50000000  1
  Dy  Dy1  1  0.00000000  0.50000000  0.00000000  1
  Sb  Sb0  1  0.00000000  0.00000000  0.50000000  1
  Sb  Sb1  1  0.50000000  0.00000000  0.00000000  1
  O  O0  1  0.47903900  0.31233700  0.76431600  1
  O  O1  1  0.22629200  0.15566600  0.04173000  1
  O  O2  1  0.29952500  0.76709700  0.96049000  1
  O  O3  1  0.72629200  0.84433400  0.45827000  1
  O  O4  1  0.70047500  0.23290300  0.03951000  1
  O  O5  1  0.52096100  0.68766300  0.23568400  1
  O  O6  1  0.20047500  0.76709700  0.46049000  1
  O  O7  1  0.27370800  0.15566600  0.54173000  1
  O  O8  1  0.77370800  0.84433400  0.95827000  1
  O  O9  1  0.97903900  0.68766300  0.73568400  1
  O  O10  1  0.02096100  0.31233700  0.26431600  1
  O  O11  1  0.79952500  0.23290300  0.53951000  1
loop_
_geom_bond_atom_site_label_1
_geom_bond_atom_site_label_2
_geom_bond_distance
_geom_bond_site_symmetry_2
Dy0 O11 2.245732 1_555
Dy0 O6 2.245732 1_555
Dy0 O5 2.248602 1_555
Dy0 O0 2.248602 1_555
Dy0 O7 2.252918 1_555
Dy0 O3 2.252918 1_555
Dy1 O2 2.245732 1_554
Dy1 O4 2.245732 1_455
Dy1 O10 2.248602 1_555
Dy1 O9 2.248602 1_454
Dy1 O8 2.252918 1_454
Dy1 O1 2.252918 1_555
O0 Sb1 2.019301 1_556
O0 Sr2 2.552845 1_555
O0 Sr1 2.690303 1_555
O1 Sb1 2.021936 1_555
O1 Sr3 2.570563 1_445
O1 Sr0 2.833561 1_555
O1 Sr1 2.935722 1_554
O2 Sb1 2.017404 1_566
O2 Sr2 2.578737 1_555
O2 Sr1 2.825731 1_565
O2 Sr0 2.958073 1_556
O3 Sb0 2.021936 1_665
O3 Sr0 2.570563 1_565
O3 Sr3 2.833561 1_555
O3 Sr2 2.935722 1_555
O4 Sb1 2.017404 1_555
O4 Sr0 2.578737 1_555
O4 Sr3 2.825731 1_545
O4 Sr2 2.958073 1_554
O5 Sb1 2.019301 1_565
O5 Sr0 2.552845 1_555
O5 Sr3 2.690303 1_555
O6 Sb0 2.017404 1_565
O6 Sr3 2.578737 1_455
O6 Sr0 2.825731 1_565
O6 Sr1 2.958073 1_555
O7 Sb0 2.021936 1_555
O7 Sr2 2.570563 1_545
O7 Sr1 2.833561 1_555
O7 Sr0 2.935722 1_555
O8 Sb1 2.021936 1_566
O8 Sr1 2.570563 1_665
O8 Sr2 2.833561 1_555
O8 Sr3 2.935722 1_556
O9 Sb0 2.019301 1_665
O9 Sr1 2.552845 1_655
O9 Sr2 2.690303 1_555
O10 Sb0 2.019301 1_555
O10 Sr3 2.552845 1_455
O10 Sr0 2.690303 1_555
O11 Sb0 2.017404 1_655
O11 Sr1 2.578737 1_655
O11 Sr2 2.825731 1_545
O11 Sr3 2.958073 1_555
