# generated using pymatgen
data_Lu2Si5Ir3
_symmetry_space_group_name_H-M   'P 1'
_cell_length_a   8.05665025
_cell_length_b   8.05942825
_cell_length_c   8.05559763
_cell_angle_alpha   138.25998195
_cell_angle_beta   103.60890297
_cell_angle_gamma   91.09932795
_symmetry_Int_Tables_number   1
_chemical_formula_structural   Lu2Si5Ir3
_chemical_formula_sum   'Lu4 Si10 Ir6'
_cell_volume   322.76076710
_cell_formula_units_Z   2
loop_
 _symmetry_equiv_pos_site_id
 _symmetry_equiv_pos_as_xyz
  1  'x, y, z'
loop_
 _atom_site_type_symbol
 _atom_site_label
 _atom_site_symmetry_multiplicity
 _atom_site_fract_x
 _atom_site_fract_y
 _atom_site_fract_z
 _atom_site_occupancy
  Lu  Lu0  1  0.64141107  0.36852195  0.27258220  1
  Lu  Lu1  1  0.35858831  0.63147583  0.72741686  1
  Lu  Lu2  1  0.90437405  0.13141110  0.77284010  1
  Lu  Lu3  1  0.09562466  0.86858743  0.22715684  1
  Si  Si0  1  0.27413143  0.02439422  0.75011148  1
  Si  Si1  1  0.45032945  0.10574040  0.34453050  1
  Si  Si2  1  0.27393135  0.52385210  0.24985390  1
  Si  Si3  1  -0.00011740  0.74982112  0.74998733  1
  Si  Si4  1  0.72606896  0.47614885  0.75014822  1
  Si  Si5  1  0.23861574  0.39407636  0.84444380  1
  Si  Si6  1  0.54966900  0.89425863  0.65546968  1
  Si  Si7  1  0.76138533  0.60592390  0.15555765  1
  Si  Si8  1  0.72586804  0.97560595  0.24988877  1
  Si  Si9  1  0.00011824  0.25017922  0.25001149  1
  Ir  Ir0  1  0.74324392  0.86005502  0.88337060  1
  Ir  Ir1  1  0.02344087  0.64018642  0.38366590  1
  Ir  Ir2  1  0.97656115  0.35981418  0.61633473  1
  Ir  Ir3  1  0.25675705  0.13994609  0.11662937  1
  Ir  Ir4  1  0.50006639  0.75003525  0.25007106  1
  Ir  Ir5  1  0.49993137  0.24996501  0.74993050  1
loop_
_geom_bond_atom_site_label_1
_geom_bond_atom_site_label_2
_geom_bond_distance
_geom_bond_site_symmetry_2
Lu0 Si7 2.921194 1_555
Lu0 Si1 3.052523 1_555
Lu0 Si3 3.061109 1_655
Lu0 Si9 3.064141 1_655
Lu0 Si6 3.110456 1_544
Lu0 Si6 3.114909 1_555
Lu0 Si4 3.127328 1_555
Lu0 Si8 3.130746 1_545
Lu0 Si0 3.250596 1_554
Lu0 Si2 3.255053 1_555
Lu1 Si5 2.921187 1_555
Lu1 Si6 3.052520 1_555
Lu1 Si9 3.061102 1_555
Lu1 Si3 3.064136 1_555
Lu1 Si1 3.110464 1_566
Lu1 Si1 3.114899 1_555
Lu1 Si2 3.127321 1_555
Lu1 Si0 3.130758 1_565
Lu1 Si8 3.250598 1_556
Lu1 Si4 3.255052 1_555
Lu2 Si6 2.921604 1_545
Lu2 Si5 3.048557 1_655
Lu2 Si9 3.061411 1_656
Lu2 Si3 3.065390 1_645
Lu2 Si7 3.111100 1_545
Lu2 Si7 3.114880 1_556
Lu2 Si2 3.122737 1_656
Lu2 Si0 3.125939 1_655
Lu2 Si8 3.252251 1_545
Lu2 Si4 3.256382 1_555
Lu3 Si1 2.921593 1_565
Lu3 Si7 3.048554 1_455
Lu3 Si3 3.061406 1_554
Lu3 Si9 3.065390 1_565
Lu3 Si5 3.111119 1_565
Lu3 Si5 3.114879 1_554
Lu3 Si4 3.122717 1_454
Lu3 Si8 3.125938 1_455
Lu3 Si0 3.252268 1_565
Lu3 Si2 3.256395 1_555
Si0 Si5 2.508498 1_555
Si0 Si6 2.510328 1_545
Si1 Si4 2.509247 1_555
Si1 Si8 2.510334 1_545
Si2 Si5 2.508837 1_554
Si2 Si6 2.509232 1_555
Si4 Si7 2.508833 1_556
Si7 Si8 2.508505 1_555
Ir0 Si6 2.302837 1_555
Ir0 Si8 2.387551 1_556
Ir0 Si4 2.387981 1_555
Ir0 Si9 2.430539 1_666
Ir0 Si3 2.431122 1_655
Ir0 Lu1 3.011812 1_555
Ir0 Lu0 3.076005 1_566
Ir0 Lu0 3.076194 1_555
Ir0 Lu2 3.256053 1_565
Ir0 Lu3 3.426759 1_656
Ir1 Si7 2.303277 1_455
Ir1 Si0 2.386381 1_565
Ir1 Si2 2.387858 1_555
Ir1 Si3 2.429736 1_555
Ir1 Si9 2.430258 1_555
Ir1 Lu3 3.013910 1_555
Ir1 Lu2 3.075849 1_465
Ir1 Lu2 3.076246 1_454
Ir1 Lu0 3.254121 1_455
Ir1 Lu1 3.426750 1_555
Ir2 Si5 2.303276 1_655
Ir2 Si8 2.386393 1_545
Ir2 Si4 2.387875 1_555
Ir2 Si9 2.429745 1_655
Ir2 Si3 2.430265 1_655
Ir2 Lu2 3.013906 1_555
Ir2 Lu3 3.075846 1_645
Ir2 Lu3 3.076231 1_656
Ir2 Lu1 3.254098 1_655
Ir2 Lu0 3.426757 1_555
Ir3 Si1 2.302840 1_555
Ir3 Si0 2.387541 1_554
Ir3 Si2 2.387971 1_555
Ir3 Si3 2.430543 1_544
Ir3 Si9 2.431119 1_555
Ir3 Lu0 3.011795 1_555
Ir3 Lu1 3.076015 1_544
Ir3 Lu1 3.076189 1_555
Ir3 Lu3 3.256058 1_545
Ir3 Lu2 3.426773 1_454
Ir4 Si6 2.424647 1_555
Ir4 Si5 2.425679 1_554
Ir4 Si7 2.426861 1_555
Ir4 Si1 2.426964 1_565
Ir4 Si8 2.548110 1_555
Ir4 Si2 2.551193 1_555
Ir4 Lu1 3.410998 1_554
Ir4 Lu2 3.411161 1_565
Ir4 Lu0 3.413681 1_555
Ir4 Lu3 3.415270 1_555
Ir5 Si1 2.424654 1_555
Ir5 Si7 2.425692 1_556
Ir5 Si5 2.426836 1_555
Ir5 Si6 2.426969 1_545
Ir5 Si0 2.548093 1_555
Ir5 Si4 2.551208 1_555
Ir5 Lu0 3.410992 1_556
Ir5 Lu3 3.411168 1_545
Ir5 Lu1 3.413671 1_555
Ir5 Lu2 3.415281 1_555
