# generated using pymatgen
data_Sm2EuBeO5
_symmetry_space_group_name_H-M   'P 1'
_cell_length_a   6.56484200
_cell_length_b   7.21523000
_cell_length_c   9.54022547
_cell_angle_alpha   89.60608271
_cell_angle_beta   90.00000000
_cell_angle_gamma   90.00000000
_symmetry_Int_Tables_number   1
_chemical_formula_structural   Sm2EuBeO5
_chemical_formula_sum   'Sm8 Eu4 Be4 O20'
_cell_volume   451.87970076
_cell_formula_units_Z   4
loop_
 _symmetry_equiv_pos_site_id
 _symmetry_equiv_pos_as_xyz
  1  'x, y, z'
loop_
 _atom_site_type_symbol
 _atom_site_label
 _atom_site_symmetry_multiplicity
 _atom_site_fract_x
 _atom_site_fract_y
 _atom_site_fract_z
 _atom_site_occupancy
  Sm  Sm0  1  0.40514200  0.24957400  0.02228600  1
  Sm  Sm1  1  0.08110400  0.52246400  0.82387000  1
  Sm  Sm2  1  0.90514200  0.75042600  0.47771400  1
  Sm  Sm3  1  0.09485800  0.24957400  0.52228600  1
  Sm  Sm4  1  0.58110400  0.47753600  0.67613000  1
  Sm  Sm5  1  0.59485800  0.75042600  0.97771400  1
  Sm  Sm6  1  0.41889600  0.52246400  0.32387000  1
  Sm  Sm7  1  0.91889600  0.47753600  0.17613000  1
  Eu  Eu0  1  0.58023100  0.02076900  0.67267400  1
  Eu  Eu1  1  0.41976900  0.97923100  0.32732600  1
  Eu  Eu2  1  0.91976900  0.02076900  0.17267400  1
  Eu  Eu3  1  0.08023100  0.97923100  0.82732600  1
  Be  Be0  1  0.19296500  0.74614300  0.09979900  1
  Be  Be1  1  0.69296500  0.25385700  0.40020100  1
  Be  Be2  1  0.80703500  0.25385700  0.90020100  1
  Be  Be3  1  0.30703500  0.74614300  0.59979900  1
  O  O0  1  0.47931700  0.26801100  0.49057100  1
  O  O1  1  0.52068300  0.73198900  0.50942900  1
  O  O2  1  0.33372600  0.27280600  0.77927500  1
  O  O3  1  0.30699300  0.94019000  0.06657300  1
  O  O4  1  0.02068300  0.26801100  0.99057100  1
  O  O5  1  0.66627400  0.72719400  0.22072500  1
  O  O6  1  0.68328300  0.44309500  0.93101500  1
  O  O7  1  0.69300700  0.05981000  0.93342700  1
  O  O8  1  0.13364000  0.73259900  0.27411400  1
  O  O9  1  0.16627400  0.27280600  0.27927500  1
  O  O10  1  0.31671700  0.55690500  0.06898500  1
  O  O11  1  0.18328300  0.55690500  0.56898500  1
  O  O12  1  0.97931700  0.73198900  0.00942900  1
  O  O13  1  0.63364000  0.26740100  0.22588600  1
  O  O14  1  0.81671700  0.44309500  0.43101500  1
  O  O15  1  0.80699300  0.05981000  0.43342700  1
  O  O16  1  0.19300700  0.94019000  0.56657300  1
  O  O17  1  0.36636000  0.73259900  0.77411400  1
  O  O18  1  0.86636000  0.26740100  0.72588600  1
  O  O19  1  0.83372600  0.72719400  0.72072500  1
loop_
_geom_bond_atom_site_label_1
_geom_bond_atom_site_label_2
_geom_bond_distance
_geom_bond_site_symmetry_2
Eu0 O0 2.568428 1_555
Eu0 O7 2.612561 1_555
Eu0 O1 2.639008 1_545
Eu0 O18 2.639154 1_555
Eu0 O2 2.643002 1_555
Eu0 O17 2.683900 1_545
Eu0 O19 2.730023 1_545
Eu0 O15 2.737933 1_555
Eu0 O16 2.798716 1_545
Eu1 O1 2.568428 1_555
Eu1 O3 2.612561 1_555
Eu1 O0 2.639008 1_565
Eu1 O8 2.639154 1_555
Eu1 O5 2.643002 1_555
Eu1 O13 2.683900 1_565
Eu1 O9 2.730023 1_565
Eu1 O16 2.737933 1_555
Eu1 O15 2.798716 1_565
Eu2 O4 2.568428 1_654
Eu2 O15 2.612561 1_555
Eu2 O12 2.639008 1_545
Eu2 O13 2.639154 1_555
Eu2 O9 2.643002 1_655
Eu2 O8 2.683900 1_645
Eu2 O5 2.730023 1_545
Eu2 O7 2.737933 1_554
Eu2 O3 2.798716 1_645
Eu3 O12 2.568428 1_456
Eu3 O16 2.612561 1_555
Eu3 O4 2.639008 1_565
Eu3 O17 2.639154 1_555
Eu3 O19 2.643002 1_455
Eu3 O18 2.683900 1_465
Eu3 O2 2.730023 1_565
Eu3 O3 2.737933 1_556
Eu3 O7 2.798716 1_465
Be0 O3 1.617098 1_555
Be0 O10 1.617485 1_555
Be0 O12 1.649889 1_455
Be0 O8 1.710140 1_555
Be1 O15 1.617098 1_555
Be1 O14 1.617485 1_555
Be1 O0 1.649889 1_555
Be1 O13 1.710140 1_555
Be2 O7 1.617098 1_555
Be2 O6 1.617485 1_555
Be2 O4 1.649889 1_655
Be2 O18 1.710140 1_555
Be3 O16 1.617098 1_555
Be3 O11 1.617485 1_555
Be3 O1 1.649889 1_555
Be3 O17 1.710140 1_555
O0 Sm4 2.429534 1_555
O0 Sm6 2.452980 1_555
O0 Sm3 2.545354 1_555
O1 Sm6 2.429534 1_555
O1 Sm4 2.452980 1_555
O1 Sm2 2.545354 1_555
O2 Sm0 2.370115 1_556
O2 Sm4 2.401610 1_555
O2 Sm1 2.487315 1_555
O2 Sm3 2.916124 1_555
O3 Sm0 2.358764 1_565
O3 Sm5 2.486081 1_554
O4 Sm7 2.429534 1_456
O4 Sm1 2.452980 1_555
O4 Sm0 2.545354 1_556
O5 Sm5 2.370115 1_554
O5 Sm6 2.401610 1_555
O5 Sm7 2.487315 1_555
O5 Sm2 2.916124 1_555
O6 Sm5 2.337989 1_555
O6 Sm0 2.454634 1_556
O6 Sm4 2.533056 1_555
O6 Sm7 2.816128 1_556
O6 Sm1 2.861011 1_655
O7 Sm5 2.358764 1_545
O7 Sm0 2.486081 1_556
O8 Sm6 2.453786 1_555
O8 Sm2 2.458255 1_455
O8 Sm7 2.504347 1_455
O9 Sm3 2.370115 1_555
O9 Sm7 2.401610 1_455
O9 Sm6 2.487315 1_555
O9 Sm0 2.916124 1_555
O10 Sm0 2.337989 1_555
O10 Sm5 2.454634 1_554
O10 Sm6 2.533056 1_555
O10 Sm1 2.816128 1_554
O10 Sm7 2.861011 1_455
O11 Sm3 2.337989 1_555
O11 Sm2 2.454634 1_455
O11 Sm1 2.533056 1_555
O11 Sm6 2.816128 1_555
O11 Sm4 2.861011 1_555
O12 Sm1 2.429534 1_654
O12 Sm7 2.452980 1_555
O12 Sm5 2.545354 1_554
O13 Sm7 2.453786 1_555
O13 Sm0 2.458255 1_555
O13 Sm6 2.504347 1_555
O14 Sm2 2.337989 1_555
O14 Sm3 2.454634 1_655
O14 Sm7 2.533056 1_555
O14 Sm4 2.816128 1_555
O14 Sm6 2.861011 1_555
O15 Sm2 2.358764 1_545
O15 Sm3 2.486081 1_655
O16 Sm3 2.358764 1_565
O16 Sm2 2.486081 1_455
O17 Sm1 2.453786 1_555
O17 Sm5 2.458255 1_555
O17 Sm4 2.504347 1_555
O18 Sm4 2.453786 1_555
O18 Sm3 2.458255 1_655
O18 Sm1 2.504347 1_655
O19 Sm2 2.370115 1_555
O19 Sm1 2.401610 1_655
O19 Sm4 2.487315 1_555
O19 Sm5 2.916124 1_555
