# generated using pymatgen
data_Er2CdS4
_symmetry_space_group_name_H-M   'P 1'
_cell_length_a   32.68307389
_cell_length_b   32.68307389
_cell_length_c   32.68307322
_cell_angle_alpha   13.99091066
_cell_angle_beta   13.99091066
_cell_angle_gamma   13.99091185
_symmetry_Int_Tables_number   1
_chemical_formula_structural   Er2CdS4
_chemical_formula_sum   'Er20 Cd10 S40'
_cell_volume   1776.02614799
_cell_formula_units_Z   10
loop_
 _symmetry_equiv_pos_site_id
 _symmetry_equiv_pos_as_xyz
  1  'x, y, z'
loop_
 _atom_site_type_symbol
 _atom_site_label
 _atom_site_symmetry_multiplicity
 _atom_site_fract_x
 _atom_site_fract_y
 _atom_site_fract_z
 _atom_site_occupancy
  Er  Er0  1  0.99980000  0.99980000  0.99980000  1
  Er  Er1  1  0.39960300  0.39960300  0.39960300  1
  Er  Er2  1  0.38023700  0.87218800  0.87218800  1
  Er  Er3  1  0.87218800  0.38023700  0.87218800  1
  Er  Er4  1  0.77896300  0.27291500  0.27291500  1
  Er  Er5  1  0.87218800  0.87218800  0.38023700  1
  Er  Er6  1  0.27291500  0.77896300  0.27291500  1
  Er  Er7  1  0.17496600  0.67497500  0.67497500  1
  Er  Er8  1  0.27291500  0.27291500  0.77896300  1
  Er  Er9  1  0.47489200  0.47489200  0.47489200  1
  Er  Er10  1  0.67497500  0.17496600  0.67497500  1
  Er  Er11  1  0.67497500  0.67497500  0.17496600  1
  Er  Er12  1  0.57498700  0.07494200  0.07494200  1
  Er  Er13  1  0.87496700  0.87496700  0.87496700  1
  Er  Er14  1  0.07494200  0.57498700  0.07494200  1
  Er  Er15  1  0.97588500  0.47447400  0.47447400  1
  Er  Er16  1  0.07494200  0.07494200  0.57498700  1
  Er  Er17  1  0.47447400  0.97588500  0.47447400  1
  Er  Er18  1  0.27489300  0.27489300  0.27489300  1
  Er  Er19  1  0.47447400  0.47447400  0.97588500  1
  Cd  Cd0  1  0.35039100  0.35039100  0.35039100  1
  Cd  Cd1  1  0.67569300  0.67569300  0.67569300  1
  Cd  Cd2  1  0.75053300  0.75053300  0.75053300  1
  Cd  Cd3  1  0.79984400  0.79984400  0.79984400  1
  Cd  Cd4  1  0.07557600  0.07557600  0.07557600  1
  Cd  Cd5  1  0.15012500  0.15012500  0.15012500  1
  Cd  Cd6  1  0.19991100  0.19991100  0.19991100  1
  Cd  Cd7  1  0.54997100  0.54997100  0.54997100  1
  Cd  Cd8  1  0.59991600  0.59991600  0.59991600  1
  Cd  Cd9  1  0.94986000  0.94986000  0.94986000  1
  S  S0  1  0.53489400  0.53489400  0.00725200  1
  S  S1  1  0.53489400  0.00725200  0.53489400  1
  S  S2  1  0.72351600  0.72351600  0.72351600  1
  S  S3  1  0.00725200  0.53489400  0.53489400  1
  S  S4  1  0.93506800  0.93506800  0.40698300  1
  S  S5  1  0.74504800  0.21380900  0.21380900  1
  S  S6  1  0.02659300  0.02659300  0.02659300  1
  S  S7  1  0.21380900  0.74504800  0.21380900  1
  S  S8  1  0.12349100  0.12349100  0.12349100  1
  S  S9  1  0.93506800  0.40698300  0.93506800  1
  S  S10  1  0.21380900  0.21380900  0.74504800  1
  S  S11  1  0.40698300  0.93506800  0.93506800  1
  S  S12  1  0.14660300  0.61332800  0.61332800  1
  S  S13  1  0.33624200  0.33624200  0.80419200  1
  S  S14  1  0.33624200  0.80419200  0.33624200  1
  S  S15  1  0.42649800  0.42649800  0.42649800  1
  S  S16  1  0.61332800  0.14660300  0.61332800  1
  S  S17  1  0.52339300  0.52339300  0.52339300  1
  S  S18  1  0.61332800  0.61332800  0.14660300  1
  S  S19  1  0.80419200  0.33624200  0.33624200  1
  S  S20  1  0.73625000  0.73625000  0.20422200  1
  S  S21  1  0.54600400  0.01374000  0.01374000  1
  S  S22  1  0.01374000  0.54600400  0.01374000  1
  S  S23  1  0.82659500  0.82659500  0.82659500  1
  S  S24  1  0.92339200  0.92339200  0.92339200  1
  S  S25  1  0.73625000  0.20422200  0.73625000  1
  S  S26  1  0.01374000  0.01374000  0.54600400  1
  S  S27  1  0.20422200  0.73625000  0.73625000  1
  S  S28  1  0.13617400  0.13617400  0.60424400  1
  S  S29  1  0.94598100  0.41376700  0.41376700  1
  S  S30  1  0.22663300  0.22663300  0.22663300  1
  S  S31  1  0.41376700  0.94598100  0.41376700  1
  S  S32  1  0.32341300  0.32341300  0.32341300  1
  S  S33  1  0.13617400  0.60424400  0.13617400  1
  S  S34  1  0.41376700  0.41376700  0.94598100  1
  S  S35  1  0.60424400  0.13617400  0.13617400  1
  S  S36  1  0.34366700  0.81453800  0.81453800  1
  S  S37  1  0.81453800  0.34366700  0.81453800  1
  S  S38  1  0.62665800  0.62665800  0.62665800  1
  S  S39  1  0.81453800  0.81453800  0.34366700  1
loop_
_geom_bond_atom_site_label_1
_geom_bond_atom_site_label_2
_geom_bond_distance
_geom_bond_site_symmetry_2
Er0 S39 2.580459 1_556
Er0 S36 2.580459 1_655
Er0 S37 2.580459 1_565
Er0 S6 2.600925 1_666
Er1 S10 2.584109 1_555
Er1 S5 2.584109 1_555
Er1 S7 2.584109 1_555
Er1 S15 2.610827 1_555
Er2 S1 2.699433 1_565
Er2 S0 2.699433 1_556
Er2 S2 2.705935 1_555
Er2 S7 2.735239 1_556
Er2 S10 2.735239 1_565
Er2 S6 2.749095 1_566
Er3 S3 2.699433 1_655
Er3 S0 2.699433 1_556
Er3 S2 2.705935 1_555
Er3 S5 2.735239 1_556
Er3 S10 2.735239 1_655
Er3 S6 2.749095 1_656
Er4 S9 2.704534 1_554
Er4 S4 2.704535 1_545
Er4 S8 2.709114 1_655
Er4 S16 2.735278 1_555
Er4 S18 2.735278 1_555
Er4 S15 2.749280 1_555
Er5 S3 2.699433 1_655
Er5 S1 2.699433 1_565
Er5 S2 2.705934 1_555
Er5 S7 2.735239 1_655
Er5 S5 2.735239 1_565
Er5 S6 2.749095 1_665
Er6 S11 2.704534 1_554
Er6 S4 2.704535 1_455
Er6 S8 2.709114 1_565
Er6 S12 2.735278 1_555
Er6 S18 2.735278 1_555
Er6 S15 2.749280 1_555
Er7 S14 2.720534 1_555
Er7 S13 2.720534 1_555
Er7 S23 2.722848 1_455
Er7 S17 2.725211 1_555
Er7 S22 2.726239 1_556
Er7 S26 2.726239 1_565
Er8 S11 2.704535 1_545
Er8 S9 2.704535 1_455
Er8 S8 2.709114 1_556
Er8 S12 2.735278 1_555
Er8 S16 2.735278 1_555
Er8 S15 2.749280 1_555
Er9 S18 2.714771 1_555
Er9 S12 2.714772 1_555
Er9 S16 2.714772 1_555
Er9 S13 2.730806 1_555
Er9 S19 2.730806 1_555
Er9 S14 2.730806 1_555
Er10 S19 2.720534 1_555
Er10 S13 2.720534 1_555
Er10 S23 2.722848 1_545
Er10 S17 2.725211 1_555
Er10 S21 2.726239 1_556
Er10 S26 2.726239 1_655
Er11 S19 2.720534 1_555
Er11 S14 2.720534 1_555
Er11 S23 2.722848 1_554
Er11 S17 2.725211 1_555
Er11 S21 2.726239 1_565
Er11 S22 2.726239 1_655
Er12 S25 2.718771 1_554
Er12 S20 2.718771 1_545
Er12 S30 2.720302 1_555
Er12 S24 2.725733 1_544
Er12 S31 2.727853 1_545
Er12 S34 2.727853 1_554
Er13 S26 2.718445 1_665
Er13 S21 2.718445 1_566
Er13 S22 2.718445 1_656
Er13 S20 2.727321 1_556
Er13 S27 2.727321 1_655
Er13 S25 2.727321 1_565
Er14 S27 2.718771 1_554
Er14 S20 2.718771 1_455
Er14 S30 2.720302 1_555
Er14 S24 2.725733 1_454
Er14 S29 2.727853 1_455
Er14 S34 2.727853 1_554
Er15 S33 2.717829 1_655
Er15 S28 2.717829 1_655
Er15 S32 2.722204 1_655
Er15 S37 2.722292 1_555
Er15 S39 2.722292 1_555
Er15 S38 2.723658 1_555
Er16 S25 2.718771 1_455
Er16 S27 2.718771 1_545
Er16 S30 2.720302 1_555
Er16 S24 2.725732 1_445
Er16 S29 2.727853 1_455
Er16 S31 2.727853 1_545
Er17 S35 2.717829 1_565
Er17 S28 2.717829 1_565
Er17 S32 2.722204 1_565
Er17 S36 2.722292 1_555
Er17 S39 2.722292 1_555
Er17 S38 2.723658 1_555
Er18 S34 2.713624 1_554
Er18 S29 2.713624 1_455
Er18 S31 2.713624 1_545
Er18 S28 2.729507 1_555
Er18 S35 2.729507 1_555
Er18 S33 2.729507 1_555
Er19 S35 2.717829 1_556
Er19 S33 2.717829 1_556
Er19 S32 2.722204 1_556
Er19 S37 2.722292 1_555
Er19 S36 2.722292 1_555
Er19 S38 2.723658 1_555
Cd0 S0 2.565565 1_555
Cd0 S1 2.565565 1_555
Cd0 S3 2.565565 1_555
Cd0 S32 2.618884 1_555
Cd1 S0 2.706877 1_556
Cd1 S3 2.706877 1_655
Cd1 S1 2.706877 1_565
Cd1 S39 2.788427 1_555
Cd1 S36 2.788427 1_555
Cd1 S37 2.788427 1_555
Cd2 S4 2.563852 1_555
Cd2 S9 2.563852 1_555
Cd2 S11 2.563852 1_555
Cd2 S2 2.622670 1_555
Cd3 S18 2.594329 1_556
Cd3 S12 2.594329 1_655
Cd3 S16 2.594329 1_565
Cd3 S23 2.596848 1_555
Cd4 S4 2.713582 1_445
Cd4 S11 2.713582 1_544
Cd4 S9 2.713582 1_454
Cd4 S10 2.775309 1_554
Cd4 S5 2.775309 1_455
Cd4 S7 2.775309 1_545
Cd5 S8 2.585490 1_555
Cd5 S13 2.589307 1_554
Cd5 S14 2.589308 1_545
Cd5 S19 2.589308 1_455
Cd6 S26 2.589684 1_555
Cd6 S22 2.589684 1_555
Cd6 S21 2.589684 1_555
Cd6 S30 2.594033 1_555
Cd7 S17 2.580054 1_555
Cd7 S20 2.594661 1_555
Cd7 S25 2.594662 1_555
Cd7 S27 2.594662 1_555
Cd8 S34 2.589297 1_555
Cd8 S31 2.589297 1_555
Cd8 S29 2.589297 1_555
Cd8 S38 2.595974 1_555
Cd9 S24 2.569376 1_555
Cd9 S28 2.596441 1_665
Cd9 S35 2.596441 1_566
Cd9 S33 2.596441 1_656
