# generated using pymatgen
data_Cs2U3(TeO7)2
_symmetry_space_group_name_H-M   'P 1'
_cell_length_a   7.04113300
_cell_length_b   7.81429030
_cell_length_c   8.74638090
_cell_angle_alpha   111.70429619
_cell_angle_beta   99.77602814
_cell_angle_gamma   98.73059142
_symmetry_Int_Tables_number   1
_chemical_formula_structural   Cs2U3(TeO7)2
_chemical_formula_sum   'Cs2 U3 Te2 O14'
_cell_volume   428.35703487
_cell_formula_units_Z   1
loop_
 _symmetry_equiv_pos_site_id
 _symmetry_equiv_pos_as_xyz
  1  'x, y, z'
loop_
 _atom_site_type_symbol
 _atom_site_label
 _atom_site_symmetry_multiplicity
 _atom_site_fract_x
 _atom_site_fract_y
 _atom_site_fract_z
 _atom_site_occupancy
  Cs  Cs0  1  0.70107400  0.36729400  0.82255900  1
  Cs  Cs1  1  0.29892600  0.63270600  0.17744100  1
  U  U0  1  0.59987900  0.17800700  0.22988300  1
  U  U1  1  0.00000000  0.00000000  0.00000000  1
  U  U2  1  0.40012100  0.82199300  0.77011700  1
  Te  Te0  1  0.15017800  0.32718500  0.47112400  1
  Te  Te1  1  0.84982200  0.67281500  0.52887600  1
  O  O0  1  0.03560300  0.19112400  0.92376900  1
  O  O1  1  0.03353200  0.77662400  0.74598000  1
  O  O2  1  0.62470300  0.99410800  0.31029800  1
  O  O3  1  0.39919700  0.61700700  0.82999600  1
  O  O4  1  0.80114200  0.41660200  0.50422200  1
  O  O5  1  0.67997700  0.00440000  0.97459000  1
  O  O6  1  0.19885800  0.58339800  0.49577800  1
  O  O7  1  0.96439700  0.80887600  0.07623100  1
  O  O8  1  0.96646800  0.22337600  0.25402000  1
  O  O9  1  0.60080300  0.38299300  0.17000400  1
  O  O10  1  0.36103400  0.25615600  0.37383600  1
  O  O11  1  0.32002300  0.99560000  0.02541000  1
  O  O12  1  0.37529700  0.00589200  0.68970200  1
  O  O13  1  0.63896600  0.74384400  0.62616400  1
loop_
_geom_bond_atom_site_label_1
_geom_bond_atom_site_label_2
_geom_bond_distance
_geom_bond_site_symmetry_2
Cs0 O12 3.047711 1_555
Cs0 O0 3.066694 1_655
Cs0 O3 3.089032 1_555
Cs0 O4 3.126420 1_555
Cs0 O9 3.198048 1_556
Cs0 O7 3.356408 1_556
Cs1 O2 3.047711 1_555
Cs1 O7 3.066694 1_455
Cs1 O9 3.089032 1_555
Cs1 O6 3.126420 1_555
Cs1 O3 3.198048 1_554
Cs1 O0 3.356408 1_554
O0 U1 1.848661 1_556
O1 Te1 1.909189 1_455
O1 U1 2.339585 1_566
O1 U2 2.512896 1_555
O2 U0 1.836408 1_565
O3 U2 1.859741 1_555
O4 Te1 1.902559 1_555
O4 U0 2.444616 1_555
O4 Te0 2.687967 1_655
O5 U1 2.233193 1_656
O5 U2 2.275549 1_545
O5 U0 2.358755 1_556
O6 Te0 1.902559 1_555
O6 U2 2.444616 1_555
O6 Te1 2.687967 1_455
O7 U1 1.848661 1_665
O8 Te0 1.909189 1_655
O8 U1 2.339585 1_655
O8 U0 2.512896 1_555
O9 U0 1.859741 1_555
O10 Te0 1.888444 1_555
O10 U0 2.290977 1_555
O11 U1 2.233193 1_565
O11 U0 2.275549 1_565
O11 U2 2.358755 1_554
O12 U2 1.836408 1_545
O13 Te1 1.888444 1_555
O13 U2 2.290977 1_555
