# generated using pymatgen
data_USb2Au
_symmetry_space_group_name_H-M   'P 1'
_cell_length_a   4.40020949
_cell_length_b   4.40020949
_cell_length_c   10.07821224
_cell_angle_alpha   90.00000000
_cell_angle_beta   90.00000000
_cell_angle_gamma   90.00000000
_symmetry_Int_Tables_number   1
_chemical_formula_structural   USb2Au
_chemical_formula_sum   'U2 Sb4 Au2'
_cell_volume   195.13276871
_cell_formula_units_Z   2
loop_
 _symmetry_equiv_pos_site_id
 _symmetry_equiv_pos_as_xyz
  1  'x, y, z'
loop_
 _atom_site_type_symbol
 _atom_site_label
 _atom_site_symmetry_multiplicity
 _atom_site_fract_x
 _atom_site_fract_y
 _atom_site_fract_z
 _atom_site_occupancy
  U  U0  1  0.25000000  0.25000000  0.24452480  1
  U  U1  1  0.75000000  0.75000000  0.75547520  1
  Sb  Sb0  1  0.25000000  0.25000000  0.68563145  1
  Sb  Sb1  1  0.75000000  0.75000000  0.31436855  1
  Sb  Sb2  1  0.75000000  0.25000000  0.00000000  1
  Sb  Sb3  1  0.25000000  0.75000000  0.00000000  1
  Au  Au0  1  0.75000000  0.25000000  0.50000000  1
  Au  Au1  1  0.25000000  0.75000000  0.50000000  1
loop_
_geom_bond_atom_site_label_1
_geom_bond_atom_site_label_2
_geom_bond_distance
_geom_bond_site_symmetry_2
Sb0 U1 3.190047 1_455
Sb0 U1 3.190047 1_545
Sb0 U1 3.190047 1_555
Sb0 U1 3.190047 1_445
Sb1 U0 3.190047 1_665
Sb1 U0 3.190047 1_655
Sb1 U0 3.190047 1_565
Sb1 U0 3.190047 1_555
Sb2 Sb3 3.111418 1_545
Sb2 Sb3 3.111418 1_645
Sb2 Sb3 3.111418 1_655
Sb2 Sb3 3.111418 1_555
Sb2 U0 3.303573 1_655
Sb2 U0 3.303573 1_555
Sb2 U1 3.303573 1_544
Sb2 U1 3.303573 1_554
Sb3 U0 3.303573 1_565
Sb3 U0 3.303573 1_555
Sb3 U1 3.303573 1_454
Sb3 U1 3.303573 1_554
Au0 Sb0 2.887988 1_655
Au0 Sb1 2.887988 1_555
Au0 Sb0 2.887988 1_555
Au0 Sb1 2.887988 1_545
Au0 Au1 3.111418 1_555
Au0 Au1 3.111418 1_655
Au0 Au1 3.111418 1_545
Au0 Au1 3.111418 1_645
Au0 U0 3.386696 1_655
Au0 U1 3.386696 1_545
Au0 U0 3.386696 1_555
Au0 U1 3.386696 1_555
Au1 Sb0 2.887988 1_565
Au1 Sb1 2.887988 1_455
Au1 Sb1 2.887988 1_555
Au1 Sb0 2.887988 1_555
Au1 U0 3.386696 1_565
Au1 U1 3.386696 1_455
Au1 U0 3.386696 1_555
Au1 U1 3.386696 1_555
