# generated using pymatgen
data_LiCr(PO3)3
_symmetry_space_group_name_H-M   'P 1'
_cell_length_a   6.61525519
_cell_length_b   6.61525519
_cell_length_c   9.83578584
_cell_angle_alpha   87.14487001
_cell_angle_beta   87.14487001
_cell_angle_gamma   58.22500743
_symmetry_Int_Tables_number   1
_chemical_formula_structural   LiCr(PO3)3
_chemical_formula_sum   'Li2 Cr2 P6 O18'
_cell_volume   365.32285136
_cell_formula_units_Z   2
loop_
 _symmetry_equiv_pos_site_id
 _symmetry_equiv_pos_as_xyz
  1  'x, y, z'
loop_
 _atom_site_type_symbol
 _atom_site_label
 _atom_site_symmetry_multiplicity
 _atom_site_fract_x
 _atom_site_fract_y
 _atom_site_fract_z
 _atom_site_occupancy
  Li  Li0  1  0.28860300  0.40244100  0.49656700  1
  Li  Li1  1  0.40244100  0.28860300  0.99656700  1
  Cr  Cr0  1  0.66228400  0.67394800  0.50004200  1
  Cr  Cr1  1  0.67394800  0.66228400  0.00004200  1
  P  P0  1  0.96405400  0.27950500  0.25478900  1
  P  P1  1  0.74162400  0.98937500  0.24636000  1
  P  P2  1  0.75188900  0.26623600  0.74937500  1
  P  P3  1  0.27950500  0.96405400  0.75478900  1
  P  P4  1  0.26623600  0.75188900  0.24937500  1
  P  P5  1  0.98937500  0.74162400  0.74636000  1
  O  O0  1  0.40759500  0.95083300  0.88081400  1
  O  O1  1  0.62296300  0.35725700  0.88313800  1
  O  O2  1  0.95083300  0.40759500  0.38081400  1
  O  O3  1  0.02199300  0.61154700  0.61884100  1
  O  O4  1  0.61154700  0.02199300  0.11884100  1
  O  O5  1  0.39599600  0.95744600  0.61860800  1
  O  O6  1  0.20287100  0.02178500  0.26076800  1
  O  O7  1  0.78163300  0.01452900  0.72154200  1
  O  O8  1  0.21763400  0.76008800  0.76784200  1
  O  O9  1  0.02178500  0.20287100  0.76076800  1
  O  O10  1  0.94893100  0.64337300  0.87900500  1
  O  O11  1  0.64782400  0.41574500  0.62230700  1
  O  O12  1  0.95744600  0.39599600  0.11860800  1
  O  O13  1  0.76008800  0.21763400  0.26784200  1
  O  O14  1  0.64337300  0.94893100  0.37900500  1
  O  O15  1  0.01452900  0.78163300  0.22154200  1
  O  O16  1  0.41574500  0.64782400  0.12230700  1
  O  O17  1  0.35725700  0.62296300  0.38313800  1
loop_
_geom_bond_atom_site_label_1
_geom_bond_atom_site_label_2
_geom_bond_distance
_geom_bond_site_symmetry_2
Li0 O3 1.963544 1_555
Li0 O17 2.015997 1_555
Li0 O2 2.541540 1_455
Li1 O4 1.963544 1_556
Li1 O1 2.015997 1_555
Li1 O0 2.541540 1_545
Cr0 O14 2.073985 1_555
Cr0 O11 2.080588 1_555
Cr0 O5 2.124662 1_555
Cr0 O2 2.136386 1_555
Cr0 O3 2.528344 1_655
Cr0 O17 2.548347 1_555
Cr1 O10 2.073985 1_554
Cr1 O16 2.080588 1_555
Cr1 O12 2.124662 1_555
Cr1 O0 2.136386 1_554
Cr1 O4 2.528344 1_565
Cr1 O1 2.548347 1_554
O0 P3 1.509281 1_555
O1 P2 1.499073 1_555
O2 P0 1.509281 1_555
O3 P5 1.498386 1_455
O4 P1 1.498386 1_545
O5 P3 1.502467 1_555
O6 P0 1.602682 1_455
O6 P4 1.613406 1_545
O7 P2 1.606621 1_555
O7 P5 1.607490 1_545
O8 P3 1.601157 1_555
O8 P5 1.602572 1_455
O9 P3 1.602682 1_545
O9 P2 1.613406 1_455
O10 P5 1.503353 1_555
O11 P2 1.503213 1_555
O12 P0 1.502467 1_555
O13 P0 1.601157 1_555
O13 P1 1.602572 1_545
O14 P1 1.503353 1_555
O15 P4 1.606621 1_555
O15 P1 1.607490 1_455
O16 P4 1.503213 1_555
O17 P4 1.499073 1_555
