# generated using pymatgen
data_KU2(PO4)3
_symmetry_space_group_name_H-M   'P 1'
_cell_length_a   9.92988224
_cell_length_b   9.92988224
_cell_length_c   9.92988320
_cell_angle_alpha   55.43019142
_cell_angle_beta   55.43019142
_cell_angle_gamma   55.43019141
_symmetry_Int_Tables_number   1
_chemical_formula_structural   KU2(PO4)3
_chemical_formula_sum   'K2 U4 P6 O24'
_cell_volume   618.85585592
_cell_formula_units_Z   2
loop_
 _symmetry_equiv_pos_site_id
 _symmetry_equiv_pos_as_xyz
  1  'x, y, z'
loop_
 _atom_site_type_symbol
 _atom_site_label
 _atom_site_symmetry_multiplicity
 _atom_site_fract_x
 _atom_site_fract_y
 _atom_site_fract_z
 _atom_site_occupancy
  K  K0  1  0.50000000  0.50000000  0.50000000  1
  K  K1  1  0.00000000  0.00000000  0.00000000  1
  U  U0  1  0.84971400  0.84971400  0.84971400  1
  U  U1  1  0.15028600  0.15028600  0.15028600  1
  U  U2  1  0.65028600  0.65028600  0.65028600  1
  U  U3  1  0.34971400  0.34971400  0.34971400  1
  P  P0  1  0.54381500  0.95618500  0.25000000  1
  P  P1  1  0.25000000  0.54381500  0.95618500  1
  P  P2  1  0.75000000  0.45618500  0.04381500  1
  P  P3  1  0.95618500  0.25000000  0.54381500  1
  P  P4  1  0.04381500  0.75000000  0.45618500  1
  P  P5  1  0.45618500  0.04381500  0.75000000  1
  O  O0  1  0.73194800  0.48592000  0.88281700  1
  O  O1  1  0.91485600  0.29100600  0.07209100  1
  O  O2  1  0.70899400  0.92790900  0.08514400  1
  O  O3  1  0.20899400  0.58514400  0.42790900  1
  O  O4  1  0.01408000  0.76805200  0.61718300  1
  O  O5  1  0.38281700  0.98592000  0.23194800  1
  O  O6  1  0.79100600  0.41485600  0.57209100  1
  O  O7  1  0.29100600  0.07209100  0.91485600  1
  O  O8  1  0.42790900  0.20899400  0.58514400  1
  O  O9  1  0.76805200  0.61718300  0.01408000  1
  O  O10  1  0.61718300  0.01408000  0.76805200  1
  O  O11  1  0.11718300  0.26805200  0.51408000  1
  O  O12  1  0.48592000  0.88281700  0.73194800  1
  O  O13  1  0.41485600  0.57209100  0.79100600  1
  O  O14  1  0.08514400  0.70899400  0.92790900  1
  O  O15  1  0.57209100  0.79100600  0.41485600  1
  O  O16  1  0.26805200  0.51408000  0.11718300  1
  O  O17  1  0.51408000  0.11718300  0.26805200  1
  O  O18  1  0.98592000  0.23194800  0.38281700  1
  O  O19  1  0.58514400  0.42790900  0.20899400  1
  O  O20  1  0.23194800  0.38281700  0.98592000  1
  O  O21  1  0.92790900  0.08514400  0.70899400  1
  O  O22  1  0.88281700  0.73194800  0.48592000  1
  O  O23  1  0.07209100  0.91485600  0.29100600  1
loop_
_geom_bond_atom_site_label_1
_geom_bond_atom_site_label_2
_geom_bond_distance
_geom_bond_site_symmetry_2
K0 O15 2.909554 1_555
K0 O8 2.909554 1_555
K0 O6 2.909554 1_555
K0 O3 2.909554 1_555
K0 O13 2.909555 1_555
K0 O19 2.909555 1_555
K1 O7 2.909554 1_554
K1 O2 2.909554 1_445
K1 O14 2.909554 1_544
K1 O1 2.909554 1_455
K1 O23 2.909555 1_545
K1 O21 2.909555 1_454
O0 P2 1.550675 1_556
O0 U2 2.235866 1_555
O1 P2 1.549468 1_555
O1 U1 2.267667 1_655
O2 P0 1.549468 1_555
O2 U0 2.267667 1_554
O3 P4 1.549468 1_555
O3 U3 2.267667 1_555
O4 P4 1.550675 1_555
O4 U0 2.235866 1_455
O5 P0 1.550675 1_555
O5 U1 2.235866 1_565
O6 P3 1.549468 1_555
O6 U2 2.267667 1_555
O7 P5 1.549468 1_555
O7 U1 2.267667 1_556
O8 P5 1.549468 1_555
O8 U3 2.267667 1_555
O9 P2 1.550675 1_555
O9 U0 2.235866 1_554
O10 P5 1.550675 1_555
O10 U0 2.235866 1_545
O11 P3 1.550675 1_455
O11 U3 2.235866 1_555
O12 P5 1.550675 1_565
O12 U2 2.235866 1_555
O13 P1 1.549468 1_555
O13 U2 2.267667 1_555
O14 P1 1.549468 1_555
O14 U0 2.267667 1_455
O15 P0 1.549468 1_555
O15 U2 2.267667 1_555
O16 P1 1.550675 1_554
O16 U3 2.235866 1_555
O17 P0 1.550675 1_545
O17 U3 2.235866 1_555
O18 P3 1.550675 1_555
O18 U1 2.235866 1_655
O19 P2 1.549468 1_555
O19 U3 2.267667 1_555
O20 P1 1.550675 1_555
O20 U1 2.235866 1_556
O21 P3 1.549468 1_555
O21 U0 2.267667 1_545
O22 P4 1.550675 1_655
O22 U2 2.235866 1_555
O23 P4 1.549468 1_555
O23 U1 2.267667 1_565
