# generated using pymatgen
data_Zr3Al3C5
_symmetry_space_group_name_H-M   'P 1'
_cell_length_a   3.34749413
_cell_length_b   3.34749395
_cell_length_c   27.62244087
_cell_angle_alpha   89.99998572
_cell_angle_beta   90.00003226
_cell_angle_gamma   119.99999367
_symmetry_Int_Tables_number   1
_chemical_formula_structural   Zr3Al3C5
_chemical_formula_sum   'Zr6 Al6 C10'
_cell_volume   268.06019971
_cell_formula_units_Z   2
loop_
 _symmetry_equiv_pos_site_id
 _symmetry_equiv_pos_as_xyz
  1  'x, y, z'
loop_
 _atom_site_type_symbol
 _atom_site_label
 _atom_site_symmetry_multiplicity
 _atom_site_fract_x
 _atom_site_fract_y
 _atom_site_fract_z
 _atom_site_occupancy
  Zr  Zr0  1  0.33333291  0.66666683  0.90442233  1
  Zr  Zr1  1  0.66666694  0.33333368  0.09557677  1
  Zr  Zr2  1  1.00000045  -0.00000018  0.99999159  1
  Zr  Zr3  1  0.33333368  0.66666662  0.59562439  1
  Zr  Zr4  1  0.99999997  -0.00000002  0.49997134  1
  Zr  Zr5  1  0.66666648  0.33333328  0.40435346  1
  Al  Al0  1  0.99999953  0.00000029  0.24998311  1
  Al  Al1  1  0.66666657  0.33333322  0.82256348  1
  Al  Al2  1  0.33333321  0.66666693  0.17744800  1
  Al  Al3  1  0.33333309  0.66666682  0.32249758  1
  Al  Al4  1  0.66666786  0.33333212  0.67752388  1
  Al  Al5  1  0.00000047  0.99999954  0.75006327  1
  C  C0  1  0.66666650  0.33333359  0.94977861  1
  C  C1  1  0.66666699  0.33333349  0.55022903  1
  C  C2  1  0.99999977  0.00000012  0.34735294  1
  C  C3  1  0.00000100  0.99999908  0.65265706  1
  C  C4  1  0.66666711  0.33333286  0.75004692  1
  C  C5  1  0.33333352  0.66666697  0.05019875  1
  C  C6  1  0.33333312  0.66666661  0.44974576  1
  C  C7  1  0.99999990  0.00000022  0.15259575  1
  C  C8  1  0.33333302  0.66666697  0.24997578  1
  C  C9  1  0.99999990  -0.00000003  0.84739722  1
loop_
_geom_bond_atom_site_label_1
_geom_bond_atom_site_label_2
_geom_bond_distance
_geom_bond_site_symmetry_2
Al0 C8 1.932676 1_545
Al0 C8 1.932677 1_655
Al0 C8 1.932677 1_645
Al1 C4 2.003084 1_555
Al1 C9 2.050802 1_555
Al1 C9 2.050803 1_565
Al1 C9 2.050803 1_455
Al2 C8 2.003394 1_555
Al2 C7 2.050973 1_465
Al2 C7 2.050974 1_455
Al2 C7 2.050974 1_565
Al3 C8 2.003229 1_555
Al3 C2 2.051002 1_565
Al3 C2 2.051003 1_465
Al3 C2 2.051003 1_455
Al4 C4 2.003263 1_555
Al4 C3 2.051107 1_645
Al4 C3 2.051109 1_545
Al4 C3 2.051109 1_655
Al5 C4 1.932677 1_465
Al5 C4 1.932677 1_565
Al5 C4 1.932677 1_455
C0 Zr0 2.303231 1_555
C0 Zr0 2.303231 1_655
C0 Zr0 2.303232 1_545
C0 Zr2 2.378869 1_565
C0 Zr2 2.378869 1_455
C0 Zr2 2.378872 1_555
C1 Zr3 2.303818 1_655
C1 Zr3 2.303819 1_555
C1 Zr3 2.303819 1_545
C1 Zr4 2.379590 1_565
C1 Zr4 2.379590 1_555
C1 Zr4 2.379591 1_455
C2 Zr5 2.492843 1_655
C2 Zr5 2.492844 1_555
C2 Zr5 2.492844 1_545
C3 Zr3 2.493402 1_555
C3 Zr3 2.493405 1_455
C3 Zr3 2.493407 1_565
C5 Zr1 2.303558 1_555
C5 Zr1 2.303558 1_565
C5 Zr1 2.303559 1_455
C5 Zr2 2.378774 1_464
C5 Zr2 2.378777 1_454
C5 Zr2 2.378777 1_564
C6 Zr5 2.303772 1_455
C6 Zr5 2.303773 1_565
C6 Zr5 2.303773 1_555
C6 Zr4 2.379073 1_565
C6 Zr4 2.379073 1_455
C6 Zr4 2.379073 1_465
C7 Zr1 2.493164 1_555
C7 Zr1 2.493165 1_545
C7 Zr1 2.493167 1_655
C9 Zr0 2.493271 1_645
C9 Zr0 2.493273 1_655
C9 Zr0 2.493274 1_545
