# generated using pymatgen
data_Ti5Fe7O18
_symmetry_space_group_name_H-M   'P 1'
_cell_length_a   11.10242503
_cell_length_b   20.40124088
_cell_length_c   15.01379539
_cell_angle_alpha   17.20895880
_cell_angle_beta   49.50211376
_cell_angle_gamma   41.31962209
_symmetry_Int_Tables_number   1
_chemical_formula_structural   Ti5Fe7O18
_chemical_formula_sum   'Ti10 Fe14 O36'
_cell_volume   622.75307949
_cell_formula_units_Z   2
loop_
 _symmetry_equiv_pos_site_id
 _symmetry_equiv_pos_as_xyz
  1  'x, y, z'
loop_
 _atom_site_type_symbol
 _atom_site_label
 _atom_site_symmetry_multiplicity
 _atom_site_fract_x
 _atom_site_fract_y
 _atom_site_fract_z
 _atom_site_occupancy
  Ti  Ti0  1  0.43990500  0.29776100  0.12622100  1
  Ti  Ti1  1  0.41902500  0.02715400  0.86950000  1
  Ti  Ti2  1  0.26407000  0.61102800  0.15695600  1
  Ti  Ti3  1  0.93482700  0.27699000  0.15495900  1
  Ti  Ti4  1  0.23593000  0.38897200  0.84304400  1
  Ti  Ti5  1  0.08097500  0.97284600  0.13050000  1
  Ti  Ti6  1  0.89156600  0.07247000  0.82592700  1
  Ti  Ti7  1  0.06009500  0.70223900  0.87377900  1
  Ti  Ti8  1  0.60843400  0.92753000  0.17407300  1
  Ti  Ti9  1  0.56517300  0.72301000  0.84504100  1
  Fe  Fe0  1  0.06301500  0.21782600  0.35550500  1
  Fe  Fe1  1  0.27691300  0.09000900  0.67955800  1
  Fe  Fe2  1  0.57817000  0.20768100  0.35658200  1
  Fe  Fe3  1  0.10145700  0.43924800  0.65810000  1
  Fe  Fe4  1  0.39854300  0.56075200  0.34190000  1
  Fe  Fe5  1  0.77091000  0.12845400  0.63121700  1
  Fe  Fe6  1  0.77571400  0.61273200  0.16075100  1
  Fe  Fe7  1  0.22308700  0.90999100  0.32044200  1
  Fe  Fe8  1  0.59258800  0.45376000  0.64865200  1
  Fe  Fe9  1  0.90741200  0.54624000  0.35134800  1
  Fe  Fe10  1  0.72428600  0.38726800  0.83924900  1
  Fe  Fe11  1  0.43698500  0.78217400  0.64449500  1
  Fe  Fe12  1  0.72909000  0.87154600  0.36878300  1
  Fe  Fe13  1  0.92183000  0.79231900  0.64341800  1
  O  O0  1  0.33246900  0.11382900  0.04735400  1
  O  O1  1  0.20269800  0.15952800  0.23125600  1
  O  O2  1  0.16551000  0.44099100  0.05644600  1
  O  O3  1  0.04292300  0.47071300  0.25937100  1
  O  O4  1  0.45668500  0.03373900  0.56617900  1
  O  O5  1  0.81860300  0.10618300  0.06344300  1
  O  O6  1  0.13437200  0.16778000  0.77229600  1
  O  O7  1  0.70325100  0.16155600  0.22736700  1
  O  O8  1  0.99373500  0.23826400  0.92935800  1
  O  O9  1  0.38242600  0.29349200  0.44072100  1
  O  O10  1  0.28970000  0.36128400  0.56982100  1
  O  O11  1  0.66242500  0.44360800  0.05388400  1
  O  O12  1  0.53352500  0.49512300  0.23151000  1
  O  O13  1  0.21030000  0.63871600  0.43017900  1
  O  O14  1  0.95816700  0.03109700  0.56509900  1
  O  O15  1  0.63191700  0.17270100  0.76988100  1
  O  O16  1  0.11757400  0.70650800  0.55927900  1
  O  O17  1  0.50626500  0.76173600  0.07064200  1
  O  O18  1  0.50449700  0.22210500  0.94917900  1
  O  O19  1  0.87999100  0.30597200  0.42800200  1
  O  O20  1  0.36562800  0.83222000  0.22770500  1
  O  O21  1  0.04331500  0.96626100  0.43382100  1
  O  O22  1  0.77939900  0.37956100  0.55669400  1
  O  O23  1  0.45707700  0.52928700  0.74062900  1
  O  O24  1  0.33449000  0.55900900  0.94355400  1
  O  O25  1  0.72060100  0.62043900  0.44330600  1
  O  O26  1  0.62000900  0.69402800  0.57199800  1
  O  O27  1  0.99550300  0.77789500  0.05082100  1
  O  O28  1  0.29730200  0.84047200  0.76874400  1
  O  O29  1  0.86808300  0.82729900  0.23011900  1
  O  O30  1  0.16753100  0.88617100  0.95264600  1
  O  O31  1  0.54183300  0.96890300  0.43490100  1
  O  O32  1  0.96647500  0.50487700  0.76849000  1
  O  O33  1  0.83757500  0.55639200  0.94611600  1
  O  O34  1  0.79674900  0.83844400  0.77263300  1
  O  O35  1  0.68139700  0.89381700  0.93655700  1
loop_
_geom_bond_atom_site_label_1
_geom_bond_atom_site_label_2
_geom_bond_distance
_geom_bond_site_symmetry_2
Fe0 O19 1.981310 1_455
Fe0 O28 2.038937 1_545
Fe0 O2 2.067604 1_555
Fe0 O33 2.158248 1_454
Fe0 O14 2.184211 1_455
Fe0 O1 2.238337 1_555
Fe1 O4 2.019401 1_555
Fe1 O30 2.030617 1_545
Fe1 O3 2.059435 1_555
Fe1 O17 2.119003 1_546
Fe1 O6 2.132470 1_555
Fe1 O9 2.207615 1_555
Fe2 O34 1.996765 1_545
Fe2 O11 2.036429 1_555
Fe2 O9 2.080386 1_555
Fe2 O7 2.145509 1_555
Fe2 O4 2.158032 1_555
Fe2 O24 2.212692 1_554
Fe3 O8 1.991476 1_455
Fe3 O10 2.022616 1_555
Fe3 O29 2.074739 1_455
Fe3 O0 2.139053 1_556
Fe3 O32 2.187447 1_455
Fe3 O13 2.267569 1_555
Fe4 O17 1.991476 1_555
Fe4 O13 2.022616 1_555
Fe4 O15 2.074739 1_555
Fe4 O30 2.139053 1_554
Fe4 O12 2.187447 1_555
Fe4 O10 2.267569 1_555
Fe5 O12 2.020661 1_555
Fe5 O14 2.033811 1_555
Fe5 O35 2.054715 1_545
Fe5 O19 2.137852 1_555
Fe5 O27 2.143347 1_546
Fe5 O15 2.203540 1_555
Fe6 O17 1.939176 1_555
Fe6 O19 1.944954 1_555
Fe6 O34 1.949075 1_554
Fe6 O22 1.991888 1_555
Fe6 O3 1.996617 1_655
Fe6 O35 1.998185 1_554
Fe7 O21 2.019401 1_555
Fe7 O0 2.030617 1_565
Fe7 O23 2.059435 1_555
Fe7 O8 2.119003 1_464
Fe7 O20 2.132456 1_555
Fe7 O16 2.207615 1_555
Fe8 O22 2.014174 1_555
Fe8 O18 2.030478 1_555
Fe8 O20 2.035189 1_555
Fe8 O23 2.104555 1_555
Fe8 O5 2.136749 1_556
Fe8 O25 2.151186 1_555
Fe9 O25 2.014174 1_555
Fe9 O27 2.030478 1_555
Fe9 O6 2.035194 1_655
Fe9 O3 2.104555 1_655
Fe9 O35 2.136749 1_554
Fe9 O22 2.151186 1_555
Fe10 O8 1.939176 1_555
Fe10 O26 1.944954 1_555
Fe10 O7 1.949075 1_556
Fe10 O25 1.991888 1_555
Fe10 O23 1.996617 1_555
Fe10 O5 1.998185 1_556
Fe11 O26 1.981310 1_555
Fe11 O1 2.038937 1_565
Fe11 O24 2.067604 1_555
Fe11 O11 2.158248 1_556
Fe11 O31 2.184211 1_555
Fe11 O28 2.238337 1_555
Fe12 O32 2.020661 1_555
Fe12 O31 2.033811 1_555
Fe12 O5 2.054715 1_565
Fe12 O26 2.137852 1_555
Fe12 O18 2.143347 1_564
Fe12 O29 2.203540 1_555
Fe13 O7 1.996765 1_565
Fe13 O33 2.036429 1_555
Fe13 O16 2.080386 1_655
Fe13 O34 2.145509 1_555
Fe13 O21 2.158032 1_655
Fe13 O2 2.212692 1_656
O0 Ti8 1.928059 1_545
O0 Ti4 2.098743 1_554
O1 Ti4 1.922749 1_554
O1 Ti3 2.091647 1_455
O2 Ti0 1.960199 1_555
O2 Ti7 2.042483 1_554
O3 Ti7 1.881404 1_554
O4 Ti9 1.881783 1_545
O4 Ti0 2.190316 1_555
O5 Ti5 1.890305 1_645
O6 Ti5 1.905211 1_546
O6 Ti1 2.172756 1_555
O7 Ti0 2.019315 1_555
O8 Ti5 2.014754 1_646
O9 Ti2 1.897649 1_555
O9 Ti1 2.094310 1_555
O10 Ti1 1.966462 1_555
O10 Ti2 2.059095 1_555
O11 Ti3 1.915287 1_555
O11 Ti9 2.120355 1_554
O12 Ti9 1.916862 1_554
O12 Ti2 2.112121 1_555
O13 Ti5 1.966462 1_555
O13 Ti4 2.059095 1_555
O14 Ti7 1.943278 1_645
O14 Ti3 2.062835 1_555
O15 Ti8 1.956340 1_546
O15 Ti6 2.051492 1_555
O16 Ti4 1.897649 1_555
O16 Ti5 2.094310 1_555
O17 Ti1 2.014754 1_564
O18 Ti4 1.891989 1_555
O18 Ti8 2.173951 1_546
O19 Ti6 2.026824 1_555
O20 Ti1 1.905221 1_564
O20 Ti5 2.172761 1_555
O21 Ti3 1.881783 1_465
O21 Ti7 2.190316 1_555
O22 Ti6 1.891621 1_555
O23 Ti0 1.881404 1_556
O24 Ti7 1.960199 1_555
O24 Ti0 2.042483 1_556
O25 Ti8 1.891621 1_555
O26 Ti8 2.026824 1_555
O27 Ti2 1.891989 1_655
O27 Ti6 2.173951 1_564
O28 Ti2 1.922749 1_556
O28 Ti9 2.091647 1_555
O29 Ti6 1.956340 1_564
O29 Ti8 2.051492 1_555
O30 Ti6 1.928059 1_465
O30 Ti2 2.098743 1_556
O31 Ti0 1.943278 1_565
O31 Ti9 2.062835 1_555
O32 Ti3 1.916862 1_556
O32 Ti4 2.112121 1_655
O33 Ti9 1.915287 1_555
O33 Ti3 2.120355 1_556
O34 Ti7 2.019315 1_655
O35 Ti1 1.890305 1_565
