# generated using pymatgen
data_Li5V5Cl16
_symmetry_space_group_name_H-M   'P 1'
_cell_length_a   12.74943518
_cell_length_b   12.74943518
_cell_length_c   7.36286200
_cell_angle_alpha   90.00000000
_cell_angle_beta   90.00000000
_cell_angle_gamma   109.54370111
_symmetry_Int_Tables_number   1
_chemical_formula_structural   Li5V5Cl16
_chemical_formula_sum   'Li10 V10 Cl32'
_cell_volume   1127.86640170
_cell_formula_units_Z   2
loop_
 _symmetry_equiv_pos_site_id
 _symmetry_equiv_pos_as_xyz
  1  'x, y, z'
loop_
 _atom_site_type_symbol
 _atom_site_label
 _atom_site_symmetry_multiplicity
 _atom_site_fract_x
 _atom_site_fract_y
 _atom_site_fract_z
 _atom_site_occupancy
  Li  Li0  1  0.99160200  0.50839800  0.00902200  1
  Li  Li1  1  0.69016500  0.80983500  0.76260800  1
  Li  Li2  1  0.19052800  0.80940500  0.26372100  1
  Li  Li3  1  0.69059500  0.30947200  0.26372100  1
  Li  Li4  1  0.99781400  0.00218600  0.50000000  1
  Li  Li5  1  0.19059500  0.80947200  0.73627900  1
  Li  Li6  1  0.69052800  0.30940500  0.73627900  1
  Li  Li7  1  0.49160200  0.00839800  0.99097800  1
  Li  Li8  1  0.19016500  0.30983500  0.23739200  1
  Li  Li9  1  0.49781400  0.50218600  0.50000000  1
  V  V0  1  0.68845400  0.56471300  0.99867900  1
  V  V1  1  0.93528700  0.81154600  0.99867900  1
  V  V2  1  0.68844300  0.81155700  0.24448800  1
  V  V3  1  0.18913600  0.56843300  0.49911300  1
  V  V4  1  0.43156700  0.81086400  0.50088700  1
  V  V5  1  0.68913600  0.06843300  0.50088700  1
  V  V6  1  0.93156700  0.31086400  0.49911300  1
  V  V7  1  0.18844300  0.31155700  0.75551200  1
  V  V8  1  0.43528700  0.31154600  0.00132100  1
  V  V9  1  0.18845400  0.06471300  0.00132100  1
  Cl  Cl0  1  0.81164600  0.68835400  0.77728800  1
  Cl  Cl1  1  0.57675200  0.68873500  0.01132800  1
  Cl  Cl2  1  0.81126500  0.92324800  0.01132800  1
  Cl  Cl3  1  0.80758700  0.69241300  0.23216300  1
  Cl  Cl4  1  0.56730900  0.93269100  0.26670000  1
  Cl  Cl5  1  0.81407300  0.18621000  0.27485300  1
  Cl  Cl6  1  0.31379000  0.68592700  0.27485300  1
  Cl  Cl7  1  0.79750400  0.93406600  0.49297900  1
  Cl  Cl8  1  0.56593400  0.70249700  0.49297900  1
  Cl  Cl9  1  0.07589800  0.68364500  0.50108900  1
  Cl  Cl10  1  0.57589800  0.18364500  0.49891100  1
  Cl  Cl11  1  0.81635500  0.42410200  0.50108900  1
  Cl  Cl12  1  0.31635500  0.92410200  0.49891100  1
  Cl  Cl13  1  0.31407300  0.68621000  0.72514700  1
  Cl  Cl14  1  0.81379000  0.18592700  0.72514700  1
  Cl  Cl15  1  0.56457700  0.93542300  0.72596400  1
  Cl  Cl16  1  0.06197400  0.93727900  0.77243900  1
  Cl  Cl17  1  0.56272100  0.43802600  0.77243900  1
  Cl  Cl18  1  0.30758700  0.19241300  0.76783700  1
  Cl  Cl19  1  0.29719600  0.93817000  0.99850900  1
  Cl  Cl20  1  0.79719600  0.43817000  0.00149100  1
  Cl  Cl21  1  0.06183000  0.70280400  0.00149100  1
  Cl  Cl22  1  0.56183000  0.20280400  0.99850900  1
  Cl  Cl23  1  0.07675200  0.18873500  0.98867200  1
  Cl  Cl24  1  0.31126500  0.42324800  0.98867200  1
  Cl  Cl25  1  0.31164600  0.18835400  0.22271200  1
  Cl  Cl26  1  0.06272100  0.93802600  0.22756100  1
  Cl  Cl27  1  0.56197400  0.43727900  0.22756100  1
  Cl  Cl28  1  0.06457700  0.43542300  0.27403600  1
  Cl  Cl29  1  0.29750400  0.43406600  0.50702100  1
  Cl  Cl30  1  0.06593400  0.20249700  0.50702100  1
  Cl  Cl31  1  0.06730900  0.43269100  0.73330000  1
loop_
_geom_bond_atom_site_label_1
_geom_bond_atom_site_label_2
_geom_bond_distance
_geom_bond_site_symmetry_2
Cl0 V1 2.439757 1_555
Cl0 V0 2.439757 1_555
Cl0 Li1 2.532641 1_555
Cl1 V2 2.436207 1_555
Cl1 V0 2.458389 1_554
Cl1 Li1 2.516855 1_554
Cl2 V2 2.436207 1_555
Cl2 V1 2.458389 1_554
Cl2 Li1 2.516855 1_554
Cl3 V2 2.483315 1_555
Cl3 V0 2.501712 1_554
Cl3 V1 2.501712 1_554
Cl4 V2 2.528401 1_555
Cl4 V4 2.565602 1_555
Cl4 V5 2.565602 1_565
Cl4 Li7 2.570593 1_564
Cl5 V6 2.429684 1_555
Cl5 V5 2.441620 1_555
Cl5 Li3 2.570987 1_555
Cl6 V3 2.429684 1_555
Cl6 V4 2.441620 1_555
Cl6 Li2 2.570987 1_555
Cl7 Li4 2.407301 1_565
Cl7 V2 2.503478 1_555
Cl7 V5 2.535859 1_565
Cl7 Li1 2.621538 1_555
Cl8 Li9 2.407313 1_555
Cl8 V2 2.503474 1_555
Cl8 V4 2.535849 1_555
Cl8 Li1 2.621534 1_555
Cl9 V3 2.379287 1_555
Cl9 Li5 2.478121 1_555
Cl9 Li2 2.488653 1_555
Cl10 V5 2.379287 1_555
Cl10 Li3 2.478121 1_555
Cl10 Li6 2.488653 1_555
Cl11 V6 2.379287 1_555
Cl11 Li6 2.478121 1_555
Cl11 Li3 2.488653 1_555
Cl12 V4 2.379287 1_555
Cl12 Li2 2.478121 1_555
Cl12 Li5 2.488653 1_555
Cl13 V4 2.429684 1_555
Cl13 V3 2.441620 1_555
Cl13 Li5 2.570987 1_555
Cl14 V5 2.429684 1_555
Cl14 V6 2.441620 1_555
Cl14 Li6 2.570987 1_555
Cl15 Li7 2.473423 1_565
Cl15 V5 2.518381 1_565
Cl15 V4 2.518381 1_555
Cl15 Li1 2.629756 1_555
Cl16 Li4 2.414660 1_465
Cl16 V1 2.494198 1_455
Cl16 V9 2.515377 1_566
Cl16 Li5 2.683821 1_555
Cl17 Li9 2.414660 1_555
Cl17 V0 2.494198 1_555
Cl17 V8 2.515377 1_556
Cl17 Li6 2.683821 1_555
Cl18 V7 2.483315 1_555
Cl18 V8 2.501712 1_556
Cl18 V9 2.501712 1_556
Cl19 Li7 2.337364 1_565
Cl19 V9 2.453963 1_566
Cl19 Li5 2.602941 1_555
Cl19 Li2 2.619919 1_556
Cl20 Li0 2.337364 1_555
Cl20 V0 2.453963 1_554
Cl20 Li3 2.602941 1_555
Cl20 Li6 2.619919 1_554
Cl21 Li0 2.337364 1_455
Cl21 V1 2.453963 1_454
Cl21 Li2 2.602941 1_555
Cl21 Li5 2.619919 1_554
Cl22 Li7 2.337364 1_555
Cl22 V8 2.453963 1_556
Cl22 Li6 2.602941 1_555
Cl22 Li3 2.619919 1_556
Cl23 V7 2.436207 1_555
Cl23 V9 2.458389 1_556
Cl23 Li8 2.516855 1_556
Cl24 V7 2.436207 1_555
Cl24 V8 2.458389 1_556
Cl24 Li8 2.516855 1_556
Cl25 V8 2.439757 1_555
Cl25 V9 2.439757 1_555
Cl25 Li8 2.532641 1_555
Cl26 Li4 2.414660 1_465
Cl26 V9 2.494198 1_565
Cl26 V1 2.515377 1_454
Cl26 Li2 2.683821 1_555
Cl27 Li9 2.414660 1_555
Cl27 V8 2.494198 1_555
Cl27 V0 2.515377 1_554
Cl27 Li3 2.683821 1_555
Cl28 Li0 2.473423 1_455
Cl28 V3 2.518381 1_555
Cl28 V6 2.518381 1_455
Cl28 Li8 2.629756 1_555
Cl29 Li9 2.407301 1_555
Cl29 V7 2.503478 1_555
Cl29 V3 2.535859 1_555
Cl29 Li8 2.621538 1_555
Cl30 Li4 2.407313 1_455
Cl30 V7 2.503474 1_555
Cl30 V6 2.535849 1_455
Cl30 Li8 2.621534 1_555
Cl31 V7 2.528401 1_555
Cl31 V3 2.565602 1_555
Cl31 V6 2.565602 1_455
Cl31 Li0 2.570593 1_456
