# generated using pymatgen
data_Sr3BiN
_symmetry_space_group_name_H-M   'P 1'
_cell_length_a   5.23493993
_cell_length_b   5.23493993
_cell_length_c   5.23493993
_cell_angle_alpha   90.00000000
_cell_angle_beta   90.00000000
_cell_angle_gamma   90.00000000
_symmetry_Int_Tables_number   1
_chemical_formula_structural   Sr3BiN
_chemical_formula_sum   'Sr3 Bi1 N1'
_cell_volume   143.46141424
_cell_formula_units_Z   1
loop_
 _symmetry_equiv_pos_site_id
 _symmetry_equiv_pos_as_xyz
  1  'x, y, z'
loop_
 _atom_site_type_symbol
 _atom_site_label
 _atom_site_symmetry_multiplicity
 _atom_site_fract_x
 _atom_site_fract_y
 _atom_site_fract_z
 _atom_site_occupancy
  Sr  Sr0  1  0.50000000  0.50000000  -0.00000000  1
  Sr  Sr1  1  0.00000000  0.50000000  0.50000000  1
  Sr  Sr2  1  0.50000000  -0.00000000  0.50000000  1
  Bi  Bi0  1  -0.00000000  -0.00000000  -0.00000000  1
  N  N0  1  0.50000000  0.50000000  0.50000000  1
loop_
_geom_bond_atom_site_label_1
_geom_bond_atom_site_label_2
_geom_bond_distance
_geom_bond_site_symmetry_2
Bi0 Sr0 3.701662 1_445
Bi0 Sr1 3.701662 1_554
Bi0 Sr1 3.701662 1_555
Bi0 Sr2 3.701662 1_455
Bi0 Sr2 3.701662 1_454
Bi0 Sr0 3.701662 1_545
Bi0 Sr2 3.701662 1_555
Bi0 Sr2 3.701662 1_554
Bi0 Sr1 3.701662 1_544
Bi0 Sr1 3.701662 1_545
Bi0 Sr0 3.701662 1_455
Bi0 Sr0 3.701662 1_555
N0 Sr0 2.617470 1_555
N0 Sr0 2.617470 1_556
N0 Sr1 2.617470 1_655
N0 Sr1 2.617470 1_555
N0 Sr2 2.617470 1_555
N0 Sr2 2.617470 1_565
