# generated using pymatgen
data_SiMoP3O11
_symmetry_space_group_name_H-M   'P 1'
_cell_length_a   14.46379345
_cell_length_b   14.46379345
_cell_length_c   14.46379319
_cell_angle_alpha   34.73670491
_cell_angle_beta   34.73670491
_cell_angle_gamma   34.73670456
_symmetry_Int_Tables_number   1
_chemical_formula_structural   SiMoP3O11
_chemical_formula_sum   'Si4 Mo4 P12 O44'
_cell_volume   876.79792427
_cell_formula_units_Z   4
loop_
 _symmetry_equiv_pos_site_id
 _symmetry_equiv_pos_as_xyz
  1  'x, y, z'
loop_
 _atom_site_type_symbol
 _atom_site_label
 _atom_site_symmetry_multiplicity
 _atom_site_fract_x
 _atom_site_fract_y
 _atom_site_fract_z
 _atom_site_occupancy
  Si  Si0  1  0.96075400  0.96075400  0.96075400  1
  Si  Si1  1  0.46075400  0.46075400  0.46075400  1
  Si  Si2  1  0.53924600  0.53924600  0.53924600  1
  Si  Si3  1  0.03924600  0.03924600  0.03924600  1
  Mo  Mo0  1  0.84050800  0.84050800  0.84050800  1
  Mo  Mo1  1  0.65949200  0.65949200  0.65949200  1
  Mo  Mo2  1  0.15949200  0.15949200  0.15949200  1
  Mo  Mo3  1  0.34050800  0.34050800  0.34050800  1
  P  P0  1  0.21946400  0.51138700  0.91121300  1
  P  P1  1  0.01138700  0.71946400  0.41121300  1
  P  P2  1  0.51138700  0.91121300  0.21946400  1
  P  P3  1  0.28053600  0.58878700  0.98861300  1
  P  P4  1  0.98861300  0.28053600  0.58878700  1
  P  P5  1  0.58878700  0.98861300  0.28053600  1
  P  P6  1  0.91121300  0.21946400  0.51138700  1
  P  P7  1  0.71946400  0.41121300  0.01138700  1
  P  P8  1  0.08878700  0.78053600  0.48861300  1
  P  P9  1  0.78053600  0.48861300  0.08878700  1
  P  P10  1  0.48861300  0.08878700  0.78053600  1
  P  P11  1  0.41121300  0.01138700  0.71946400  1
  O  O0  1  0.52703800  0.43892700  0.15247100  1
  O  O1  1  0.96039900  0.28102700  0.33110700  1
  O  O2  1  0.65247100  0.93892700  0.02703800  1
  O  O3  1  0.03960100  0.71897300  0.66889300  1
  O  O4  1  0.35797900  0.59202100  0.70811900  1
  O  O5  1  0.34752900  0.06107300  0.97296200  1
  O  O6  1  0.97296200  0.34752900  0.06107300  1
  O  O7  1  0.47296200  0.56107300  0.84752900  1
  O  O8  1  0.28102700  0.33110700  0.96039900  1
  O  O9  1  0.52788800  0.97211200  0.75000000  1
  O  O10  1  0.79188100  0.90797900  0.14202100  1
  O  O11  1  0.47211200  0.02788800  0.25000000  1
  O  O12  1  0.43892700  0.15247100  0.52703800  1
  O  O13  1  0.15247100  0.52703800  0.43892700  1
  O  O14  1  0.64202100  0.40797900  0.29188100  1
  O  O15  1  0.02703800  0.65247100  0.93892700  1
  O  O16  1  0.09202100  0.85797900  0.20811900  1
  O  O17  1  0.40797900  0.29188100  0.64202100  1
  O  O18  1  0.46039900  0.83110700  0.78102700  1
  O  O19  1  0.53960100  0.16889300  0.21897300  1
  O  O20  1  0.33110700  0.96039900  0.28102700  1
  O  O21  1  0.25000000  0.47211200  0.02788800  1
  O  O22  1  0.85797900  0.20811900  0.09202100  1
  O  O23  1  0.71897300  0.66889300  0.03960100  1
  O  O24  1  0.56107300  0.84752900  0.47296200  1
  O  O25  1  0.78102700  0.46039900  0.83110700  1
  O  O26  1  0.93892700  0.02703800  0.65247100  1
  O  O27  1  0.97211200  0.75000000  0.52788800  1
  O  O28  1  0.29188100  0.64202100  0.40797900  1
  O  O29  1  0.66889300  0.03960100  0.71897300  1
  O  O30  1  0.21897300  0.53960100  0.16889300  1
  O  O31  1  0.75000000  0.52788800  0.97211200  1
  O  O32  1  0.16889300  0.21897300  0.53960100  1
  O  O33  1  0.02788800  0.25000000  0.47211200  1
  O  O34  1  0.00000000  0.00000000  0.00000000  1
  O  O35  1  0.83110700  0.78102700  0.46039900  1
  O  O36  1  0.70811900  0.35797900  0.59202100  1
  O  O37  1  0.20811900  0.09202100  0.85797900  1
  O  O38  1  0.59202100  0.70811900  0.35797900  1
  O  O39  1  0.14202100  0.79188100  0.90797900  1
  O  O40  1  0.90797900  0.14202100  0.79188100  1
  O  O41  1  0.50000000  0.50000000  0.50000000  1
  O  O42  1  0.06107300  0.97296200  0.34752900  1
  O  O43  1  0.84752900  0.47296200  0.56107300  1
loop_
_geom_bond_atom_site_label_1
_geom_bond_atom_site_label_2
_geom_bond_distance
_geom_bond_site_symmetry_2
Mo0 O2 2.142733 1_556
Mo0 O15 2.142733 1_655
Mo0 O26 2.142733 1_565
Mo0 O3 2.155820 1_655
Mo0 O29 2.155820 1_565
Mo0 O23 2.155820 1_556
Mo1 O24 2.142733 1_555
Mo1 O43 2.142733 1_555
Mo1 O7 2.142733 1_555
Mo1 O25 2.155820 1_555
Mo1 O18 2.155820 1_555
Mo1 O35 2.155820 1_555
Mo2 O5 2.142733 1_554
Mo2 O6 2.142733 1_455
Mo2 O42 2.142733 1_545
Mo2 O1 2.155820 1_455
Mo2 O20 2.155820 1_545
Mo2 O8 2.155820 1_554
Mo3 O12 2.142733 1_555
Mo3 O13 2.142733 1_555
Mo3 O0 2.142733 1_555
Mo3 O30 2.155820 1_555
Mo3 O19 2.155820 1_555
Mo3 O32 2.155820 1_555
O0 P7 1.499095 1_555
O1 P6 1.508116 1_555
O2 P2 1.499095 1_555
O3 P8 1.508116 1_555
O4 P0 1.593718 1_555
O4 Si2 1.634783 1_555
O5 P10 1.499095 1_555
O6 P9 1.499095 1_555
O7 P3 1.499095 1_555
O8 P0 1.508116 1_555
O9 P10 1.613287 1_565
O9 P11 1.613287 1_565
O10 P5 1.593718 1_555
O10 Si0 1.634783 1_554
O11 P2 1.613287 1_545
O11 P5 1.613287 1_545
O12 P11 1.499095 1_555
O13 P1 1.499095 1_555
O14 P9 1.593718 1_555
O14 Si1 1.634783 1_555
O15 P0 1.499095 1_555
O16 P1 1.593718 1_555
O16 Si3 1.634783 1_565
O17 P10 1.593718 1_555
O17 Si1 1.634783 1_555
O18 P11 1.508116 1_565
O19 P5 1.508116 1_545
O20 P2 1.508116 1_555
O21 P0 1.613287 1_554
O21 P3 1.613287 1_554
O22 P7 1.593718 1_555
O22 Si3 1.634783 1_655
O23 P9 1.508116 1_555
O24 P5 1.499095 1_555
O25 P7 1.508116 1_556
O26 P6 1.499095 1_555
O27 P1 1.613287 1_655
O27 P8 1.613287 1_655
O28 P8 1.593718 1_555
O28 Si1 1.634783 1_555
O29 P10 1.508116 1_555
O30 P3 1.508116 1_554
O31 P9 1.613287 1_556
O31 P7 1.613287 1_556
O32 P4 1.508116 1_455
O33 P4 1.613287 1_455
O33 P6 1.613287 1_455
O34 Si0 1.598574 1_444
O34 Si3 1.598574 1_555
O35 P1 1.508116 1_655
O36 P6 1.593718 1_555
O36 Si2 1.634783 1_555
O37 P11 1.593718 1_555
O37 Si3 1.634783 1_556
O38 P2 1.593718 1_555
O38 Si2 1.634783 1_555
O39 P3 1.593718 1_555
O39 Si0 1.634783 1_455
O40 P4 1.593718 1_555
O40 Si0 1.634783 1_545
O41 Si1 1.598574 1_555
O41 Si2 1.598574 1_555
O42 P8 1.499095 1_555
O43 P4 1.499095 1_555
