# generated using pymatgen
data_Nd3SiS6Cl
_symmetry_space_group_name_H-M   'P 1'
_cell_length_a   10.45834107
_cell_length_b   12.56249387
_cell_length_c   16.35123141
_cell_angle_alpha   90.00000000
_cell_angle_beta   90.00000000
_cell_angle_gamma   90.00000000
_symmetry_Int_Tables_number   1
_chemical_formula_structural   Nd3SiS6Cl
_chemical_formula_sum   'Nd24 Si8 S48 Cl8'
_cell_volume   2148.27131142
_cell_formula_units_Z   8
loop_
 _symmetry_equiv_pos_site_id
 _symmetry_equiv_pos_as_xyz
  1  'x, y, z'
loop_
 _atom_site_type_symbol
 _atom_site_label
 _atom_site_symmetry_multiplicity
 _atom_site_fract_x
 _atom_site_fract_y
 _atom_site_fract_z
 _atom_site_occupancy
  Nd  Nd0  1  0.25000000  0.37687810  0.63872654  1
  Nd  Nd1  1  0.96430140  0.61764085  0.88819184  1
  Nd  Nd2  1  0.25000000  0.11357113  0.12532062  1
  Nd  Nd3  1  0.46430140  0.38235915  0.11180816  1
  Nd  Nd4  1  0.25000000  0.87687810  0.86127346  1
  Nd  Nd5  1  0.53569860  0.61764085  0.88819184  1
  Nd  Nd6  1  0.25000000  0.61357113  0.37467938  1
  Nd  Nd7  1  0.54343679  0.31282324  0.40549867  1
  Nd  Nd8  1  0.04343679  0.68717676  0.59450133  1
  Nd  Nd9  1  0.95656321  0.31282324  0.40549867  1
  Nd  Nd10  1  0.45656321  0.18717676  0.90549867  1
  Nd  Nd11  1  0.95656321  0.81282324  0.09450133  1
  Nd  Nd12  1  0.45656321  0.68717676  0.59450133  1
  Nd  Nd13  1  0.03569860  0.38235915  0.11180816  1
  Nd  Nd14  1  0.96430140  0.11764085  0.61180816  1
  Nd  Nd15  1  0.53569860  0.11764085  0.61180816  1
  Nd  Nd16  1  0.75000000  0.12312190  0.13872654  1
  Nd  Nd17  1  0.04343679  0.18717676  0.90549867  1
  Nd  Nd18  1  0.46430140  0.88235915  0.38819184  1
  Nd  Nd19  1  0.03569860  0.88235915  0.38819184  1
  Nd  Nd20  1  0.75000000  0.88642887  0.87467938  1
  Nd  Nd21  1  0.54343679  0.81282324  0.09450133  1
  Nd  Nd22  1  0.75000000  0.38642887  0.62532062  1
  Nd  Nd23  1  0.75000000  0.62312190  0.36127346  1
  Si  Si0  1  0.25000000  0.33450740  0.27803349  1
  Si  Si1  1  0.25000000  0.83450740  0.22196651  1
  Si  Si2  1  0.75000000  0.16549260  0.77803349  1
  Si  Si3  1  0.25000000  0.61614677  0.76014563  1
  Si  Si4  1  0.75000000  0.88385323  0.26014563  1
  Si  Si5  1  0.75000000  0.66549260  0.72196651  1
  Si  Si6  1  0.25000000  0.11614677  0.73985437  1
  Si  Si7  1  0.75000000  0.38385323  0.23985437  1
  S  S0  1  0.75000000  0.02293770  0.70908078  1
  S  S1  1  0.00952974  0.34308902  0.56966412  1
  S  S2  1  0.75000000  0.62074828  0.59761341  1
  S  S3  1  0.25000000  0.06236300  0.95401804  1
  S  S4  1  0.58357085  0.97139449  0.23049400  1
  S  S5  1  0.50952974  0.65691098  0.43033588  1
  S  S6  1  0.25000000  0.97706230  0.29091922  1
  S  S7  1  0.40900356  0.73920866  0.25291375  1
  S  S8  1  0.99047026  0.15691098  0.06966412  1
  S  S9  1  0.49047026  0.34308902  0.56966412  1
  S  S10  1  0.75000000  0.68645147  0.97255490  1
  S  S11  1  0.25000000  0.56236300  0.54598196  1
  S  S12  1  0.25000000  0.47706230  0.20908078  1
  S  S13  1  0.09099644  0.23920866  0.24708625  1
  S  S14  1  0.41642915  0.52860551  0.73049400  1
  S  S15  1  0.25000000  0.76797165  0.69941163  1
  S  S16  1  0.75000000  0.23202835  0.30058837  1
  S  S17  1  0.75000000  0.35625924  0.11235435  1
  S  S18  1  0.75000000  0.85625924  0.38764565  1
  S  S19  1  0.08357085  0.52860551  0.73049400  1
  S  S20  1  0.25000000  0.64374076  0.88764565  1
  S  S21  1  0.75000000  0.18645147  0.52744510  1
  S  S22  1  0.91642915  0.47139449  0.26950600  1
  S  S23  1  0.09099644  0.73920866  0.25291375  1
  S  S24  1  0.99047026  0.65691098  0.43033588  1
  S  S25  1  0.75000000  0.43763700  0.45401804  1
  S  S26  1  0.75000000  0.12074828  0.90238659  1
  S  S27  1  0.25000000  0.14374076  0.61235435  1
  S  S28  1  0.50952974  0.15691098  0.06966412  1
  S  S29  1  0.25000000  0.87925172  0.09761341  1
  S  S30  1  0.25000000  0.37925172  0.40238659  1
  S  S31  1  0.91642915  0.97139449  0.23049400  1
  S  S32  1  0.25000000  0.81354853  0.47255490  1
  S  S33  1  0.00952974  0.84308902  0.93033588  1
  S  S34  1  0.41642915  0.02860551  0.76950600  1
  S  S35  1  0.59099644  0.26079134  0.74708625  1
  S  S36  1  0.40900356  0.23920866  0.24708625  1
  S  S37  1  0.59099644  0.76079134  0.75291375  1
  S  S38  1  0.75000000  0.93763700  0.04598196  1
  S  S39  1  0.08357085  0.02860551  0.76950600  1
  S  S40  1  0.25000000  0.26797165  0.80058837  1
  S  S41  1  0.90900356  0.26079134  0.74708625  1
  S  S42  1  0.49047026  0.84308902  0.93033588  1
  S  S43  1  0.58357085  0.47139449  0.26950600  1
  S  S44  1  0.90900356  0.76079134  0.75291375  1
  S  S45  1  0.75000000  0.52293770  0.79091922  1
  S  S46  1  0.25000000  0.31354853  0.02744510  1
  S  S47  1  0.75000000  0.73202835  0.19941163  1
  Cl  Cl0  1  0.95475588  0.89669374  0.55993326  1
  Cl  Cl1  1  0.54524412  0.39669374  0.94006674  1
  Cl  Cl2  1  0.54524412  0.89669374  0.55993326  1
  Cl  Cl3  1  0.04524412  0.10330626  0.44006674  1
  Cl  Cl4  1  0.95475588  0.39669374  0.94006674  1
  Cl  Cl5  1  0.45475588  0.10330626  0.44006674  1
  Cl  Cl6  1  0.04524412  0.60330626  0.05993326  1
  Cl  Cl7  1  0.45475588  0.60330626  0.05993326  1
loop_
_geom_bond_atom_site_label_1
_geom_bond_atom_site_label_2
_geom_bond_distance
_geom_bond_site_symmetry_2
Nd0 S11 2.780171 1_555
Nd0 S1 2.789305 1_555
Nd0 S9 2.789305 1_555
Nd0 S27 2.960361 1_555
Nd0 S40 2.979346 1_555
Nd0 S19 2.985674 1_555
Nd0 S14 2.985674 1_555
Nd1 S10 2.770062 1_555
Nd1 S44 2.908818 1_555
Nd1 S33 2.952951 1_655
Nd1 S45 2.994716 1_555
Nd1 S20 3.005883 1_655
Nd1 S19 3.075045 1_655
Nd2 S3 2.873932 1_554
Nd2 S28 2.914067 1_555
Nd2 S8 2.914067 1_455
Nd2 S29 2.978296 1_545
Nd2 S46 2.978667 1_555
Nd2 S36 3.036533 1_555
Nd2 S13 3.036533 1_555
Nd2 S6 3.205107 1_545
Nd3 S46 2.770062 1_555
Nd3 S36 2.908818 1_555
Nd3 S28 2.952951 1_555
Nd3 S12 2.994716 1_555
Nd3 S17 3.005883 1_555
Nd3 S43 3.075045 1_555
Nd4 S3 2.780171 1_565
Nd4 S33 2.789305 1_555
Nd4 S42 2.789305 1_555
Nd4 S20 2.960361 1_555
Nd4 S15 2.979346 1_555
Nd4 S39 2.985674 1_565
Nd4 S34 2.985674 1_565
Nd5 S10 2.770062 1_555
Nd5 S37 2.908818 1_555
Nd5 S42 2.952951 1_555
Nd5 S45 2.994716 1_555
Nd5 S20 3.005883 1_555
Nd5 S14 3.075045 1_555
Nd6 S11 2.873932 1_555
Nd6 S24 2.914067 1_455
Nd6 S5 2.914067 1_555
Nd6 S30 2.978296 1_555
Nd6 S32 2.978667 1_555
Nd6 S7 3.036533 1_555
Nd6 S23 3.036533 1_555
Nd6 S12 3.205107 1_555
Nd7 S9 2.767114 1_555
Nd7 S25 2.784758 1_555
Nd7 S16 2.939348 1_555
Nd7 S43 3.014805 1_555
Nd7 S36 3.088891 1_555
Nd7 S30 3.180708 1_555
Nd7 S21 3.341132 1_555
Nd8 S24 2.767114 1_455
Nd8 S11 2.784758 1_555
Nd8 S15 2.939348 1_555
Nd8 S19 3.014805 1_555
Nd8 S44 3.088891 1_455
Nd8 S2 3.180708 1_455
Nd8 S32 3.341132 1_555
Nd9 S1 2.767114 1_655
Nd9 S25 2.784758 1_555
Nd9 S16 2.939348 1_555
Nd9 S22 3.014805 1_555
Nd9 S13 3.088891 1_655
Nd9 S30 3.180708 1_655
Nd9 S21 3.341132 1_555
Nd10 S28 2.767114 1_556
Nd10 S3 2.784758 1_555
Nd10 S40 2.939348 1_555
Nd10 S34 3.014805 1_555
Nd10 S35 3.088891 1_555
Nd10 S26 3.180708 1_555
Nd10 S46 3.341132 1_556
Nd11 S33 2.767114 1_654
Nd11 S38 2.784758 1_555
Nd11 S47 2.939348 1_555
Nd11 S31 3.014805 1_555
Nd11 S23 3.088891 1_655
Nd11 S29 3.180708 1_655
Nd11 S10 3.341132 1_554
Nd12 S5 2.767114 1_555
Nd12 S11 2.784758 1_555
Nd12 S15 2.939348 1_555
Nd12 S14 3.014805 1_555
Nd12 S37 3.088891 1_555
Nd12 S2 3.180708 1_555
Nd12 S32 3.341132 1_555
Nd13 S46 2.770062 1_555
Nd13 S13 2.908818 1_555
Nd13 S8 2.952951 1_455
Nd13 S12 2.994716 1_555
Nd13 S17 3.005883 1_455
Nd13 S22 3.075045 1_455
Nd14 S21 2.770062 1_555
Nd14 S41 2.908818 1_555
Nd14 S1 2.952951 1_655
Nd14 S0 2.994716 1_555
Nd14 S27 3.005883 1_655
Nd14 S39 3.075045 1_655
Nd15 S21 2.770062 1_555
Nd15 S35 2.908818 1_555
Nd15 S9 2.952951 1_555
Nd15 S0 2.994716 1_555
Nd15 S27 3.005883 1_555
Nd15 S34 3.075045 1_555
Nd16 S38 2.780171 1_545
Nd16 S8 2.789305 1_555
Nd16 S28 2.789305 1_555
Nd16 S17 2.960361 1_555
Nd16 S16 2.979346 1_555
Nd16 S31 2.985674 1_545
Nd16 S4 2.985674 1_545
Nd17 S8 2.767114 1_456
Nd17 S3 2.784758 1_555
Nd17 S40 2.939348 1_555
Nd17 S39 3.014805 1_555
Nd17 S41 3.088891 1_455
Nd17 S26 3.180708 1_455
Nd17 S46 3.341132 1_556
Nd18 S32 2.770062 1_555
Nd18 S7 2.908818 1_555
Nd18 S5 2.952951 1_555
Nd18 S6 2.994716 1_555
Nd18 S18 3.005883 1_555
Nd18 S4 3.075045 1_555
Nd19 S32 2.770062 1_555
Nd19 S23 2.908818 1_555
Nd19 S24 2.952951 1_455
Nd19 S6 2.994716 1_555
Nd19 S18 3.005883 1_455
Nd19 S31 3.075045 1_455
Nd20 S38 2.873932 1_556
Nd20 S42 2.914067 1_555
Nd20 S33 2.914067 1_655
Nd20 S26 2.978296 1_565
Nd20 S10 2.978667 1_555
Nd20 S37 3.036533 1_555
Nd20 S44 3.036533 1_555
Nd20 S0 3.205107 1_565
Nd21 S42 2.767114 1_554
Nd21 S38 2.784758 1_555
Nd21 S47 2.939348 1_555
Nd21 S4 3.014805 1_555
Nd21 S7 3.088891 1_555
Nd21 S29 3.180708 1_555
Nd21 S10 3.341132 1_554
Nd22 S25 2.873932 1_555
Nd22 S9 2.914067 1_555
Nd22 S1 2.914067 1_655
Nd22 S2 2.978296 1_555
Nd22 S21 2.978667 1_555
Nd22 S35 3.036533 1_555
Nd22 S41 3.036533 1_555
Nd22 S45 3.205107 1_555
Nd23 S25 2.780171 1_555
Nd23 S24 2.789305 1_555
Nd23 S5 2.789305 1_555
Nd23 S18 2.960361 1_555
Nd23 S47 2.979346 1_555
Nd23 S22 2.985674 1_555
Nd23 S43 2.985674 1_555
S0 Si2 2.116198 1_555
S2 Si5 2.109591 1_555
S4 Si4 2.115203 1_555
S6 Si1 2.116198 1_555
S7 Si1 2.110594 1_555
S12 Si0 2.116198 1_555
S13 Si0 2.110594 1_555
S14 Si3 2.115203 1_555
S15 Si3 2.150346 1_555
S16 Si7 2.150346 1_555
S17 Si7 2.113406 1_555
S18 Si4 2.113406 1_555
S19 Si3 2.115203 1_555
S20 Si3 2.113406 1_555
S22 Si7 2.115203 1_555
S23 Si1 2.110594 1_555
S26 Si2 2.109591 1_555
S27 Si6 2.113406 1_555
S29 Si1 2.109591 1_555
S30 Si0 2.109591 1_555
S31 Si4 2.115203 1_555
S34 Si6 2.115203 1_555
S35 Si2 2.110594 1_555
S36 Si0 2.110594 1_555
S37 Si5 2.110594 1_555
S39 Si6 2.115203 1_555
S40 Si6 2.150346 1_555
S41 Si2 2.110594 1_555
S43 Si7 2.115203 1_555
S44 Si5 2.110594 1_555
S45 Si5 2.116198 1_555
S47 Si4 2.150346 1_555
Cl0 Nd8 2.847345 1_655
Cl0 Nd14 2.904076 1_565
Cl0 Nd19 2.938525 1_655
Cl1 Nd10 2.847345 1_555
Cl1 Nd5 2.904076 1_555
Cl1 Nd3 2.938525 1_556
Cl2 Nd12 2.847345 1_555
Cl2 Nd15 2.904076 1_565
Cl2 Nd18 2.938525 1_555
Cl3 Nd9 2.847345 1_455
Cl3 Nd19 2.904076 1_545
Cl3 Nd14 2.938525 1_455
Cl4 Nd17 2.847345 1_655
Cl4 Nd1 2.904076 1_555
Cl4 Nd13 2.938525 1_656
Cl5 Nd7 2.847345 1_555
Cl5 Nd18 2.904076 1_545
Cl5 Nd15 2.938525 1_555
Cl6 Nd11 2.847345 1_455
Cl6 Nd13 2.904076 1_555
Cl6 Nd1 2.938525 1_454
Cl7 Nd21 2.847345 1_555
Cl7 Nd3 2.904076 1_555
Cl7 Nd5 2.938525 1_554
