# generated using pymatgen
data_Pr2Si2O7
_symmetry_space_group_name_H-M   'P 1'
_cell_length_a   8.70469675
_cell_length_b   5.42583140
_cell_length_c   14.17558166
_cell_angle_alpha   67.26031693
_cell_angle_beta   90.00000000
_cell_angle_gamma   90.00000000
_symmetry_Int_Tables_number   1
_chemical_formula_structural   Pr2Si2O7
_chemical_formula_sum   'Pr8 Si8 O28'
_cell_volume   617.47472933
_cell_formula_units_Z   4
loop_
 _symmetry_equiv_pos_site_id
 _symmetry_equiv_pos_as_xyz
  1  'x, y, z'
loop_
 _atom_site_type_symbol
 _atom_site_label
 _atom_site_symmetry_multiplicity
 _atom_site_fract_x
 _atom_site_fract_y
 _atom_site_fract_z
 _atom_site_occupancy
  Pr  Pr0  1  0.39415838  0.33056496  0.41091694  1
  Pr  Pr1  1  0.89415838  0.66943504  0.08908306  1
  Pr  Pr2  1  0.60584162  0.66943504  0.58908306  1
  Pr  Pr3  1  0.10584162  0.33056496  0.91091694  1
  Pr  Pr4  1  0.19127659  0.01796756  0.23150311  1
  Pr  Pr5  1  0.69127659  0.98203244  0.26849689  1
  Pr  Pr6  1  0.80872341  0.98203244  0.76849689  1
  Pr  Pr7  1  0.30872341  0.01796756  0.73150311  1
  Si  Si0  1  0.50339896  0.45260848  0.82022222  1
  Si  Si1  1  0.00339896  0.54739152  0.67977778  1
  Si  Si2  1  0.49660104  0.54739152  0.17977778  1
  Si  Si3  1  0.99660104  0.45260848  0.32022222  1
  Si  Si4  1  0.75300130  0.25336333  0.97376913  1
  Si  Si5  1  0.25300130  0.74663667  0.52623087  1
  Si  Si6  1  0.24699870  0.74663667  0.02623087  1
  Si  Si7  1  0.74699870  0.25336333  0.47376913  1
  O  O0  1  0.32601197  0.52940221  0.82667649  1
  O  O1  1  0.82601197  0.47059779  0.67332351  1
  O  O2  1  0.67398803  0.47059779  0.17332351  1
  O  O3  1  0.17398803  0.52940221  0.32667649  1
  O  O4  1  0.52490876  0.27365307  0.75104526  1
  O  O5  1  0.02490876  0.72634693  0.74895474  1
  O  O6  1  0.47509124  0.72634693  0.24895474  1
  O  O7  1  0.97509124  0.27365307  0.25104526  1
  O  O8  1  0.58495034  0.73934753  0.75878445  1
  O  O9  1  0.08495034  0.26065247  0.74121555  1
  O  O10  1  0.41504966  0.26065247  0.24121555  1
  O  O11  1  0.91504966  0.73934753  0.25878445  1
  O  O12  1  0.75999181  0.06681123  0.09378282  1
  O  O13  1  0.25999181  0.93318877  0.40621718  1
  O  O14  1  0.24000819  0.93318877  0.90621718  1
  O  O15  1  0.74000819  0.06681123  0.59378282  1
  O  O16  1  0.92280121  0.29779554  0.43308653  1
  O  O17  1  0.42280121  0.70220446  0.06691347  1
  O  O18  1  0.07719879  0.70220446  0.56691347  1
  O  O19  1  0.57719879  0.29779554  0.93308653  1
  O  O20  1  0.64468353  0.08484883  0.42041649  1
  O  O21  1  0.14468353  0.91515117  0.07958351  1
  O  O22  1  0.35531647  0.91515117  0.57958351  1
  O  O23  1  0.85531647  0.08484883  0.92041649  1
  O  O24  1  0.65522171  0.53567336  0.44494414  1
  O  O25  1  0.15522171  0.46432664  0.05505586  1
  O  O26  1  0.34477829  0.46432664  0.55505586  1
  O  O27  1  0.84477829  0.53567336  0.94494414  1
loop_
_geom_bond_atom_site_label_1
_geom_bond_atom_site_label_2
_geom_bond_distance
_geom_bond_site_symmetry_2
O0 Si0 1.611118 1_555
O0 Pr3 2.294992 1_555
O0 Pr7 2.470845 1_565
O1 Si1 1.611118 1_655
O1 Pr2 2.294992 1_555
O1 Pr6 2.470845 1_545
O2 Si2 1.611118 1_555
O2 Pr1 2.294992 1_555
O2 Pr5 2.470845 1_545
O3 Si3 1.611118 1_455
O3 Pr0 2.294992 1_555
O3 Pr4 2.470845 1_565
O4 Si0 1.635725 1_555
O4 Pr7 2.416556 1_555
O4 Pr2 2.562702 1_555
O4 Pr6 2.892349 1_545
O5 Si1 1.635725 1_555
O5 Pr6 2.416556 1_455
O5 Pr3 2.562702 1_555
O5 Pr7 2.892349 1_565
O6 Si2 1.635725 1_555
O6 Pr5 2.416556 1_555
O6 Pr0 2.562702 1_555
O6 Pr4 2.892349 1_565
O7 Si3 1.635725 1_555
O7 Pr4 2.416556 1_655
O7 Pr1 2.562702 1_555
O7 Pr5 2.892349 1_545
O8 Si0 1.623397 1_555
O8 Pr6 2.384787 1_555
O8 Pr2 2.582522 1_555
O8 Pr7 2.786475 1_565
O9 Si1 1.623397 1_555
O9 Pr7 2.384787 1_555
O9 Pr3 2.582522 1_555
O9 Pr6 2.786475 1_445
O10 Si2 1.623397 1_555
O10 Pr4 2.384787 1_555
O10 Pr0 2.582522 1_555
O10 Pr5 2.786475 1_545
O11 Si3 1.623397 1_555
O11 Pr5 2.384787 1_555
O11 Pr1 2.582522 1_555
O11 Pr4 2.786475 1_665
O12 Si4 1.609744 1_554
O12 Pr5 2.412993 1_545
O12 Pr1 2.475516 1_545
O13 Si5 1.609744 1_555
O13 Pr4 2.412993 1_565
O13 Pr0 2.475516 1_565
O14 Si6 1.609744 1_556
O14 Pr7 2.412993 1_565
O14 Pr3 2.475516 1_565
O15 Si7 1.609744 1_555
O15 Pr6 2.412993 1_545
O15 Pr2 2.475516 1_545
O16 Si7 1.620204 1_555
O16 Si3 1.624511 1_555
O17 Si6 1.620204 1_555
O17 Si2 1.624511 1_555
O18 Si5 1.620204 1_555
O18 Si1 1.624511 1_555
O19 Si4 1.620204 1_555
O19 Si0 1.624511 1_555
O20 Si7 1.654028 1_555
O20 Pr5 2.458101 1_545
O20 Pr0 2.532282 1_555
O20 Pr2 2.597121 1_545
O21 Si6 1.654028 1_555
O21 Pr4 2.458101 1_565
O21 Pr1 2.532282 1_455
O21 Pr3 2.597121 1_564
O22 Si5 1.654028 1_555
O22 Pr7 2.458101 1_565
O22 Pr2 2.532282 1_555
O22 Pr0 2.597121 1_565
O23 Si4 1.654028 1_555
O23 Pr6 2.458101 1_545
O23 Pr3 2.532282 1_655
O23 Pr1 2.597121 1_546
O24 Si7 1.633286 1_555
O24 Pr2 2.456180 1_555
O24 Pr0 2.655245 1_555
O24 Pr5 2.745365 1_555
O25 Si6 1.633286 1_555
O25 Pr3 2.456180 1_554
O25 Pr1 2.655245 1_455
O25 Pr4 2.745365 1_555
O26 Si5 1.633286 1_555
O26 Pr0 2.456180 1_555
O26 Pr2 2.655245 1_555
O26 Pr7 2.745365 1_555
O27 Si4 1.633286 1_555
O27 Pr1 2.456180 1_556
O27 Pr3 2.655245 1_655
O27 Pr6 2.745365 1_555
