# generated using pymatgen
data_Bi2Pt
_symmetry_space_group_name_H-M   'P 1'
_cell_length_a   6.80374488
_cell_length_b   6.87113584
_cell_length_c   13.50523382
_cell_angle_alpha   90.00000000
_cell_angle_beta   90.00000000
_cell_angle_gamma   90.00000000
_symmetry_Int_Tables_number   1
_chemical_formula_structural   Bi2Pt
_chemical_formula_sum   'Bi16 Pt8'
_cell_volume   631.36232467
_cell_formula_units_Z   8
loop_
 _symmetry_equiv_pos_site_id
 _symmetry_equiv_pos_as_xyz
  1  'x, y, z'
loop_
 _atom_site_type_symbol
 _atom_site_label
 _atom_site_symmetry_multiplicity
 _atom_site_fract_x
 _atom_site_fract_y
 _atom_site_fract_z
 _atom_site_occupancy
  Bi  Bi0  1  0.37285340  0.53983511  0.18524820  1
  Bi  Bi1  1  0.63958779  0.80709896  0.06473629  1
  Bi  Bi2  1  0.13958779  0.80709896  0.43526371  1
  Bi  Bi3  1  0.87285340  0.96016489  0.81475180  1
  Bi  Bi4  1  0.36041221  0.30709896  0.43526371  1
  Bi  Bi5  1  0.87285340  0.53983511  0.31475180  1
  Bi  Bi6  1  0.62714660  0.46016489  0.81475180  1
  Bi  Bi7  1  0.62714660  0.03983511  0.31475180  1
  Bi  Bi8  1  0.37285340  0.96016489  0.68524820  1
  Bi  Bi9  1  0.12714660  0.03983511  0.18524820  1
  Bi  Bi10  1  0.86041221  0.30709896  0.06473629  1
  Bi  Bi11  1  0.12714660  0.46016489  0.68524820  1
  Bi  Bi12  1  0.13958779  0.69290104  0.93526371  1
  Bi  Bi13  1  0.86041221  0.19290104  0.56473629  1
  Bi  Bi14  1  0.36041221  0.19290104  0.93526371  1
  Bi  Bi15  1  0.63958779  0.69290104  0.56473629  1
  Pt  Pt0  1  0.50281445  0.66676693  0.37064254  1
  Pt  Pt1  1  0.50281445  0.83323307  0.87064254  1
  Pt  Pt2  1  0.49718555  0.33323307  0.62935746  1
  Pt  Pt3  1  0.00281445  0.83323307  0.62935746  1
  Pt  Pt4  1  0.00281445  0.66676693  0.12935746  1
  Pt  Pt5  1  0.99718555  0.33323307  0.87064254  1
  Pt  Pt6  1  0.49718555  0.16676693  0.12935746  1
  Pt  Pt7  1  0.99718555  0.16676693  0.37064254  1
loop_
_geom_bond_atom_site_label_1
_geom_bond_atom_site_label_2
_geom_bond_distance
_geom_bond_site_symmetry_2
Bi0 Pt4 2.769294 1_555
Bi0 Pt0 2.794907 1_555
Bi0 Pt6 2.802921 1_555
Bi0 Bi1 3.052008 1_555
Bi1 Pt1 2.787351 1_554
Bi1 Pt4 2.792622 1_655
Bi1 Pt6 2.794246 1_565
Bi2 Pt3 2.787351 1_555
Bi2 Pt0 2.792622 1_555
Bi2 Pt7 2.794246 1_465
Bi2 Bi5 3.052008 1_455
Bi3 Pt1 2.769294 1_555
Bi3 Pt3 2.794907 1_655
Bi3 Pt5 2.802921 1_565
Bi4 Pt2 2.787351 1_555
Bi4 Pt7 2.792622 1_455
Bi4 Pt0 2.794246 1_555
Bi4 Bi7 3.052008 1_555
Bi5 Pt0 2.769294 1_555
Bi5 Pt4 2.794907 1_655
Bi5 Pt7 2.802921 1_555
Bi6 Pt5 2.769294 1_555
Bi6 Pt2 2.794907 1_555
Bi6 Pt1 2.802921 1_555
Bi7 Pt7 2.769294 1_555
Bi7 Pt6 2.794907 1_555
Bi7 Pt0 2.802921 1_545
Bi8 Pt3 2.769294 1_555
Bi8 Pt1 2.794907 1_555
Bi8 Pt2 2.802921 1_565
Bi9 Pt6 2.769294 1_555
Bi9 Pt7 2.794907 1_455
Bi9 Pt4 2.802921 1_545
Bi10 Pt5 2.787351 1_554
Bi10 Pt6 2.792622 1_555
Bi10 Pt4 2.794246 1_655
Bi10 Bi9 3.052008 1_655
Bi11 Pt2 2.769294 1_555
Bi11 Pt5 2.794907 1_455
Bi11 Pt3 2.802921 1_555
Bi11 Bi13 3.052008 1_455
Bi12 Pt4 2.787351 1_556
Bi12 Pt1 2.792622 1_555
Bi12 Pt5 2.794246 1_455
Bi12 Bi3 3.052008 1_455
Bi13 Pt7 2.787351 1_555
Bi13 Pt2 2.792622 1_555
Bi13 Pt3 2.794246 1_645
Bi14 Pt6 2.787351 1_556
Bi14 Pt5 2.792622 1_455
Bi14 Pt1 2.794246 1_545
Bi14 Bi6 3.052008 1_555
Bi15 Pt0 2.787351 1_555
Bi15 Pt3 2.792622 1_655
Bi15 Pt2 2.794246 1_555
Bi15 Bi8 3.052008 1_555
