# generated using pymatgen
data_CsClO4
_symmetry_space_group_name_H-M   'P 1'
_cell_length_a   5.54937545
_cell_length_b   5.54937559
_cell_length_c   5.54937649
_cell_angle_alpha   59.99575618
_cell_angle_beta   59.99574612
_cell_angle_gamma   59.99576568
_symmetry_Int_Tables_number   1
_chemical_formula_structural   CsClO4
_chemical_formula_sum   'Cs1 Cl1 O4'
_cell_volume   120.83023710
_cell_formula_units_Z   1
loop_
 _symmetry_equiv_pos_site_id
 _symmetry_equiv_pos_as_xyz
  1  'x, y, z'
loop_
 _atom_site_type_symbol
 _atom_site_label
 _atom_site_symmetry_multiplicity
 _atom_site_fract_x
 _atom_site_fract_y
 _atom_site_fract_z
 _atom_site_occupancy
  Cs  Cs0  1  0.50000376  0.50000376  0.50000376  1
  Cl  Cl0  1  -0.00001135  -0.00001135  -0.00001135  1
  O  O0  1  0.10651663  0.68044305  0.10651663  1
  O  O1  1  0.68044305  0.10651663  0.10651663  1
  O  O2  1  0.10651663  0.10651663  0.68044305  1
  O  O3  1  0.10653329  0.10653329  0.10653329  1
loop_
_geom_bond_atom_site_label_1
_geom_bond_atom_site_label_2
_geom_bond_distance
_geom_bond_site_symmetry_2
Cs0 O3 3.306379 1_556
Cs0 O3 3.306379 1_655
Cs0 O3 3.306380 1_565
Cs0 O0 3.306449 1_655
Cs0 O1 3.306449 1_565
Cs0 O0 3.306450 1_556
Cs0 O2 3.306450 1_565
Cs0 O2 3.306450 1_655
Cs0 O1 3.306450 1_556
Cs0 O2 3.306679 1_555
Cs0 O1 3.306680 1_555
Cs0 O0 3.306680 1_555
Cl0 O1 1.447798 1_455
Cl0 O2 1.447799 1_554
Cl0 O0 1.447799 1_545
Cl0 O3 1.448323 1_555
