# generated using pymatgen
data_KCS(OF)3
_symmetry_space_group_name_H-M   'P 1'
_cell_length_a   6.07477400
_cell_length_b   10.98370900
_cell_length_c   14.74226573
_cell_angle_alpha   68.83858176
_cell_angle_beta   90.00000000
_cell_angle_gamma   90.00000000
_symmetry_Int_Tables_number   1
_chemical_formula_structural   KCS(OF)3
_chemical_formula_sum   'K6 C6 S6 O18 F18'
_cell_volume   917.32550541
_cell_formula_units_Z   6
loop_
 _symmetry_equiv_pos_site_id
 _symmetry_equiv_pos_as_xyz
  1  'x, y, z'
loop_
 _atom_site_type_symbol
 _atom_site_label
 _atom_site_symmetry_multiplicity
 _atom_site_fract_x
 _atom_site_fract_y
 _atom_site_fract_z
 _atom_site_occupancy
  K  K0  1  0.77745900  0.43507800  0.66355700  1
  K  K1  1  0.27354400  0.80862000  0.01427800  1
  K  K2  1  0.77354400  0.19138000  0.98572200  1
  K  K3  1  0.27745900  0.56492200  0.33644300  1
  K  K4  1  0.28064800  0.53173000  0.84164800  1
  K  K5  1  0.78064800  0.46827000  0.15835200  1
  C  C0  1  0.78840900  0.82030100  0.28193100  1
  C  C1  1  0.81759000  0.82539900  0.80525800  1
  C  C2  1  0.23977900  0.83169600  0.53408500  1
  C  C3  1  0.31759000  0.17460100  0.19474200  1
  C  C4  1  0.28840900  0.17969900  0.71806900  1
  C  C5  1  0.73977900  0.16830400  0.46591500  1
  S  S0  1  0.77637300  0.79027800  0.16508800  1
  S  S1  1  0.27955900  0.33980000  0.09923200  1
  S  S2  1  0.27637300  0.20972200  0.83491200  1
  S  S3  1  0.77955900  0.66020000  0.90076800  1
  S  S4  1  0.76429600  0.35020500  0.41597900  1
  S  S5  1  0.26429600  0.64979500  0.58402100  1
  O  O0  1  0.58890200  0.39183100  0.34257100  1
  O  O1  1  0.57304700  0.67136500  0.94858300  1
  O  O2  1  0.72967500  0.38727500  0.50035900  1
  O  O3  1  0.07304700  0.32863500  0.05141700  1
  O  O4  1  0.56896000  0.71899100  0.17177300  1
  O  O5  1  0.98420700  0.37508400  0.37293100  1
  O  O6  1  0.28183900  0.08048000  0.91136800  1
  O  O7  1  0.97308700  0.71034200  0.16977000  1
  O  O8  1  0.97680000  0.64670700  0.96121900  1
  O  O9  1  0.08890200  0.60816900  0.65742900  1
  O  O10  1  0.22967500  0.61272500  0.49964100  1
  O  O11  1  0.06896000  0.28100900  0.82822700  1
  O  O12  1  0.77085100  0.57052200  0.84813500  1
  O  O13  1  0.78183900  0.91952000  0.08863200  1
  O  O14  1  0.47308700  0.28965800  0.83023000  1
  O  O15  1  0.47680000  0.35329300  0.03878100  1
  O  O16  1  0.27085100  0.42947800  0.15186500  1
  O  O17  1  0.48420700  0.62491600  0.62706900  1
  F  F0  1  0.78590600  0.11838800  0.39642400  1
  F  F1  1  0.12576800  0.09852600  0.71396400  1
  F  F2  1  0.03272500  0.86727100  0.50125000  1
  F  F3  1  0.28590600  0.88161200  0.60357600  1
  F  F4  1  0.38186200  0.88389900  0.45914400  1
  F  F5  1  0.88186200  0.11610100  0.54085600  1
  F  F6  1  0.79015600  0.91871400  0.84535800  1
  F  F7  1  0.02550100  0.83582000  0.76962700  1
  F  F8  1  0.76493700  0.70527800  0.35795100  1
  F  F9  1  0.29015600  0.08128600  0.15464200  1
  F  F10  1  0.62576800  0.90147400  0.28603600  1
  F  F11  1  0.48482000  0.12683300  0.70956100  1
  F  F12  1  0.98482000  0.87316700  0.29043900  1
  F  F13  1  0.53272500  0.13272900  0.49875000  1
  F  F14  1  0.26493700  0.29472200  0.64204900  1
  F  F15  1  0.17349500  0.15203200  0.26819600  1
  F  F16  1  0.52550100  0.16418000  0.23037300  1
  F  F17  1  0.67349500  0.84796800  0.73180400  1
loop_
_geom_bond_atom_site_label_1
_geom_bond_atom_site_label_2
_geom_bond_distance
_geom_bond_site_symmetry_2
K0 O17 2.645907 1_555
K0 O2 2.657138 1_555
K0 O9 2.660471 1_655
K0 O11 2.987758 1_655
K0 O14 3.028848 1_555
K1 O1 2.752302 1_554
K1 O4 2.816081 1_555
K1 O6 2.819544 1_564
K1 O7 2.822187 1_455
K1 O8 2.833459 1_454
K2 O3 2.752302 1_656
K2 O11 2.816081 1_655
K2 O13 2.819544 1_546
K2 O14 2.822187 1_555
K2 O15 2.833459 1_556
K3 O5 2.645907 1_455
K3 O10 2.657138 1_555
K3 O0 2.660471 1_555
K3 O4 2.987758 1_555
K3 O7 3.028848 1_455
K4 O9 2.791244 1_555
K4 O14 2.964381 1_555
K4 O12 3.014603 1_555
K4 O15 3.097521 1_556
K4 O11 3.109645 1_555
K4 O8 3.117112 1_455
K4 O1 3.120619 1_555
K4 O12 3.132237 1_455
K4 O17 3.200942 1_555
K4 O3 3.339063 1_556
K5 O0 2.791244 1_555
K5 O7 2.964381 1_555
K5 O16 3.014603 1_655
K5 O8 3.097521 1_554
K5 O4 3.109645 1_555
K5 O15 3.117112 1_555
K5 O3 3.120619 1_655
K5 O16 3.132237 1_555
K5 O5 3.200942 1_555
K5 O1 3.339063 1_554
C0 F10 1.346734 1_555
C0 F12 1.352442 1_555
C0 F8 1.360216 1_555
C1 F17 1.344059 1_555
C1 F7 1.356766 1_655
C1 F6 1.365733 1_555
C2 F2 1.353704 1_555
C2 F3 1.354304 1_555
C2 F4 1.355348 1_555
C3 F15 1.344059 1_555
C3 F16 1.356766 1_555
C3 F9 1.365733 1_555
C4 F1 1.346734 1_555
C4 F11 1.352442 1_555
C4 F14 1.360216 1_555
C5 F13 1.353704 1_555
C5 F0 1.354304 1_555
C5 F5 1.355348 1_555
O0 S4 1.469083 1_555
O1 S3 1.465654 1_555
O2 S4 1.457093 1_555
O3 S1 1.465654 1_555
O4 S0 1.467872 1_555
O5 S4 1.461803 1_555
O6 S2 1.459953 1_555
O7 S0 1.469657 1_555
O8 S3 1.468498 1_555
O9 S5 1.469083 1_555
O10 S5 1.457093 1_555
O11 S2 1.467872 1_555
O12 S3 1.458388 1_555
O13 S0 1.459953 1_555
O14 S2 1.469657 1_555
O15 S1 1.468498 1_555
O16 S1 1.458388 1_555
O17 S5 1.461803 1_555
