# generated using pymatgen
data_Cs3AuO2
_symmetry_space_group_name_H-M   'P 1'
_cell_length_a   20.10794900
_cell_length_b   10.35967300
_cell_length_c   14.38878353
_cell_angle_alpha   47.53246867
_cell_angle_beta   90.00000000
_cell_angle_gamma   90.00000000
_symmetry_Int_Tables_number   1
_chemical_formula_structural   Cs3AuO2
_chemical_formula_sum   'Cs36 Au12 O24'
_cell_volume   2211.02765175
_cell_formula_units_Z   12
loop_
 _symmetry_equiv_pos_site_id
 _symmetry_equiv_pos_as_xyz
  1  'x, y, z'
loop_
 _atom_site_type_symbol
 _atom_site_label
 _atom_site_symmetry_multiplicity
 _atom_site_fract_x
 _atom_site_fract_y
 _atom_site_fract_z
 _atom_site_occupancy
  Cs  Cs0  1  0.59553700  0.76309700  0.29348000  1
  Cs  Cs1  1  0.06353900  0.43430700  0.36597900  1
  Cs  Cs2  1  0.26750100  0.59845300  0.13720500  1
  Cs  Cs3  1  0.41085700  0.92050800  0.07467600  1
  Cs  Cs4  1  0.09553700  0.23690300  0.20652000  1
  Cs  Cs5  1  0.58930700  0.04626400  0.42611300  1
  Cs  Cs6  1  0.92871800  0.23114700  0.08713000  1
  Cs  Cs7  1  0.08930700  0.95373600  0.07388700  1
  Cs  Cs8  1  0.90446300  0.76309700  0.79348000  1
  Cs  Cs9  1  0.91085700  0.07949200  0.42532400  1
  Cs  Cs10  1  0.57128200  0.23114700  0.58713000  1
  Cs  Cs11  1  0.56353900  0.56569300  0.13402100  1
  Cs  Cs12  1  0.75603900  0.65335300  0.50581800  1
  Cs  Cs13  1  0.75147000  0.15372700  0.21892300  1
  Cs  Cs14  1  0.25147000  0.84627300  0.28107700  1
  Cs  Cs15  1  0.74853000  0.15372700  0.71892300  1
  Cs  Cs16  1  0.08914300  0.92050800  0.57467600  1
  Cs  Cs17  1  0.42871800  0.76885300  0.41287000  1
  Cs  Cs18  1  0.73249900  0.40154700  0.86279500  1
  Cs  Cs19  1  0.24396100  0.34664700  0.49418200  1
  Cs  Cs20  1  0.07128200  0.76885300  0.91287000  1
  Cs  Cs21  1  0.24853000  0.84627300  0.78107700  1
  Cs  Cs22  1  0.43646100  0.43430700  0.86597900  1
  Cs  Cs23  1  0.58914300  0.07949200  0.92532400  1
  Cs  Cs24  1  0.91315700  0.73043000  0.29607700  1
  Cs  Cs25  1  0.41069300  0.95373600  0.57388700  1
  Cs  Cs26  1  0.41315700  0.26957000  0.20392300  1
  Cs  Cs27  1  0.76750100  0.40154700  0.36279500  1
  Cs  Cs28  1  0.25603900  0.34664700  0.99418200  1
  Cs  Cs29  1  0.74396100  0.65335300  0.00581800  1
  Cs  Cs30  1  0.58684300  0.73043000  0.79607700  1
  Cs  Cs31  1  0.93646100  0.56569300  0.63402100  1
  Cs  Cs32  1  0.91069300  0.04626400  0.92611300  1
  Cs  Cs33  1  0.40446300  0.23690300  0.70652000  1
  Cs  Cs34  1  0.23249900  0.59845300  0.63720500  1
  Cs  Cs35  1  0.08684300  0.26957000  0.70392300  1
  Au  Au0  1  0.75175800  0.89760900  0.61528400  1
  Au  Au1  1  0.57851200  0.23810700  0.09303900  1
  Au  Au2  1  0.42072700  0.44454100  0.36196900  1
  Au  Au3  1  0.57927300  0.55545900  0.63803100  1
  Au  Au4  1  0.92148800  0.23810700  0.59303900  1
  Au  Au5  1  0.24824200  0.10239100  0.38471600  1
  Au  Au6  1  0.92072700  0.55545900  0.13803100  1
  Au  Au7  1  0.74824200  0.89760900  0.11528400  1
  Au  Au8  1  0.42148800  0.76189300  0.90696100  1
  Au  Au9  1  0.07851200  0.76189300  0.40696100  1
  Au  Au10  1  0.07927300  0.44454100  0.86196900  1
  Au  Au11  1  0.25175800  0.10239100  0.88471600  1
  O  O0  1  0.67603600  0.73604100  0.14191000  1
  O  O1  1  0.84746800  0.39450100  0.16742100  1
  O  O2  1  0.82396400  0.73604100  0.64191000  1
  O  O3  1  0.31963300  0.94134800  0.41121700  1
  O  O4  1  0.68036700  0.05865200  0.58878300  1
  O  O5  1  0.99392700  0.06748500  0.63446000  1
  O  O6  1  0.34746800  0.60549900  0.33257900  1
  O  O7  1  0.65253200  0.39450100  0.66742100  1
  O  O8  1  0.81963300  0.05865200  0.08878300  1
  O  O9  1  0.49164600  0.28420100  0.38478600  1
  O  O10  1  0.32396400  0.26395900  0.85809000  1
  O  O11  1  0.00607300  0.93251500  0.36554000  1
  O  O12  1  0.99164600  0.71579900  0.11521400  1
  O  O13  1  0.15253200  0.60549900  0.83257900  1
  O  O14  1  0.50835400  0.71579900  0.61521400  1
  O  O15  1  0.17603600  0.26395900  0.35809000  1
  O  O16  1  0.15026400  0.58679000  0.45293200  1
  O  O17  1  0.50607300  0.06748500  0.13446000  1
  O  O18  1  0.65026400  0.41321000  0.04706800  1
  O  O19  1  0.00835400  0.28420100  0.88478600  1
  O  O20  1  0.34973600  0.58679000  0.95293200  1
  O  O21  1  0.49392700  0.93251500  0.86554000  1
  O  O22  1  0.84973600  0.41321000  0.54706800  1
  O  O23  1  0.18036700  0.94134800  0.91121700  1
loop_
_geom_bond_atom_site_label_1
_geom_bond_atom_site_label_2
_geom_bond_distance
_geom_bond_site_symmetry_2
Cs0 O0 2.877580 1_555
Cs0 O17 2.944868 1_565
Cs1 O15 2.918005 1_555
Cs1 O12 3.066673 1_455
Cs1 O16 3.125800 1_555
Cs1 O5 3.391239 1_455
Cs2 O20 3.195587 1_554
Cs2 O15 3.258817 1_555
Cs2 O23 3.265621 1_554
Cs2 O6 3.281891 1_555
Cs3 O17 2.914233 1_565
Cs3 O6 3.113256 1_555
Cs3 O10 3.232873 1_564
Cs3 O21 3.369794 1_554
Cs4 O15 2.877580 1_555
Cs4 O11 2.944868 1_545
Cs5 O9 2.882125 1_555
Cs5 O14 3.032321 1_545
Cs5 O4 3.041921 1_555
Cs6 O8 2.819193 1_555
Cs6 O19 3.030214 1_654
Cs6 O1 3.083473 1_555
Cs6 O11 3.362006 1_645
Cs7 O12 2.882125 1_455
Cs7 O19 3.032321 1_564
Cs7 O23 3.041921 1_554
Cs8 O2 2.877580 1_555
Cs8 O5 2.944868 1_565
Cs9 O11 2.914233 1_645
Cs9 O1 3.113256 1_555
Cs9 O2 3.232873 1_545
Cs9 O5 3.369794 1_555
Cs10 O4 2.819193 1_555
Cs10 O9 3.030214 1_555
Cs10 O7 3.083473 1_555
Cs10 O21 3.362006 1_545
Cs11 O0 2.918005 1_555
Cs11 O9 3.066673 1_555
Cs11 O18 3.125800 1_555
Cs11 O21 3.391239 1_554
Cs12 O22 2.845556 1_555
Cs12 O7 2.917152 1_555
Cs12 O2 2.949398 1_555
Cs13 O1 2.828606 1_555
Cs13 O18 2.916541 1_555
Cs13 O8 2.974174 1_555
Cs14 O6 2.828606 1_555
Cs14 O16 2.916541 1_555
Cs14 O3 2.974174 1_555
Cs15 O7 2.828606 1_555
Cs15 O22 2.916541 1_555
Cs15 O4 2.974174 1_555
Cs16 O5 2.914233 1_465
Cs16 O13 3.113256 1_555
Cs16 O15 3.232873 1_565
Cs16 O11 3.369794 1_555
Cs17 O3 2.819193 1_555
Cs17 O14 3.030214 1_555
Cs17 O6 3.083473 1_555
Cs17 O17 3.362006 1_565
Cs18 O18 3.195587 1_556
Cs18 O2 3.258817 1_555
Cs18 O8 3.265621 1_556
Cs18 O7 3.281891 1_555
Cs19 O16 2.845556 1_555
Cs19 O6 2.917152 1_555
Cs19 O15 2.949398 1_555
Cs20 O23 2.819193 1_555
Cs20 O12 3.030214 1_456
Cs20 O13 3.083473 1_555
Cs20 O5 3.362006 1_465
Cs21 O13 2.828606 1_555
Cs21 O20 2.916541 1_555
Cs21 O23 2.974174 1_555
Cs22 O10 2.918005 1_555
Cs22 O14 3.066673 1_555
Cs22 O20 3.125800 1_555
Cs22 O17 3.391239 1_556
Cs23 O21 2.914233 1_545
Cs23 O7 3.113256 1_555
Cs23 O0 3.232873 1_546
Cs23 O17 3.369794 1_556
Cs24 O22 3.072840 1_555
Cs24 O12 3.133525 1_555
Cs24 O8 3.209322 1_565
Cs24 O11 3.420255 1_655
Cs25 O14 2.882125 1_555
Cs25 O9 3.032321 1_565
Cs25 O3 3.041921 1_555
Cs26 O20 3.072840 1_554
Cs26 O9 3.133525 1_555
Cs26 O3 3.209322 1_545
Cs26 O17 3.420255 1_555
Cs27 O22 3.195587 1_555
Cs27 O0 3.258817 1_555
Cs27 O4 3.265621 1_555
Cs27 O1 3.281891 1_555
Cs28 O20 2.845556 1_555
Cs28 O13 2.917152 1_555
Cs28 O10 2.949398 1_555
Cs29 O18 2.845556 1_555
Cs29 O1 2.917152 1_555
Cs29 O0 2.949398 1_555
Cs30 O18 3.072840 1_556
Cs30 O14 3.133525 1_555
Cs30 O4 3.209322 1_565
Cs30 O21 3.420255 1_555
Cs31 O2 2.918005 1_555
Cs31 O19 3.066673 1_655
Cs31 O22 3.125800 1_555
Cs31 O11 3.391239 1_655
Cs32 O19 2.882125 1_655
Cs32 O12 3.032321 1_546
Cs32 O8 3.041921 1_556
Cs33 O10 2.877580 1_555
Cs33 O21 2.944868 1_545
Cs34 O16 3.195587 1_555
Cs34 O10 3.258817 1_555
Cs34 O3 3.265621 1_555
Cs34 O13 3.281891 1_555
Cs35 O16 3.072840 1_555
Cs35 O19 3.133525 1_555
Cs35 O23 3.209322 1_545
Cs35 O5 3.420255 1_455
Au0 O4 2.032361 1_565
Au0 O2 2.047070 1_555
Au1 O17 2.044188 1_555
Au1 O18 2.046830 1_555
Au2 O9 2.040616 1_555
Au2 O6 2.043793 1_555
Au3 O14 2.040616 1_555
Au3 O7 2.043793 1_555
Au4 O5 2.044188 1_555
Au4 O22 2.046830 1_555
Au5 O3 2.032361 1_545
Au5 O15 2.047070 1_555
Au6 O12 2.040616 1_555
Au6 O1 2.043793 1_555
Au7 O8 2.032361 1_565
Au7 O0 2.047070 1_555
Au8 O21 2.044188 1_555
Au8 O20 2.046830 1_555
Au9 O11 2.044188 1_555
Au9 O16 2.046830 1_555
Au10 O19 2.040616 1_555
Au10 O13 2.043793 1_555
Au11 O23 2.032361 1_545
Au11 O10 2.047070 1_555
