# generated using pymatgen
data_Ba2I2O
_symmetry_space_group_name_H-M   'P 1'
_cell_length_a   6.89646740
_cell_length_b   7.61883360
_cell_length_c   8.72226498
_cell_angle_alpha   115.91072465
_cell_angle_beta   113.25218444
_cell_angle_gamma   90.04292195
_symmetry_Int_Tables_number   1
_chemical_formula_structural   Ba2I2O
_chemical_formula_sum   'Ba4 I4 O2'
_cell_volume   370.32552508
_cell_formula_units_Z   2
loop_
 _symmetry_equiv_pos_site_id
 _symmetry_equiv_pos_as_xyz
  1  'x, y, z'
loop_
 _atom_site_type_symbol
 _atom_site_label
 _atom_site_symmetry_multiplicity
 _atom_site_fract_x
 _atom_site_fract_y
 _atom_site_fract_z
 _atom_site_occupancy
  Ba  Ba0  1  0.40679201  0.23187485  0.81351014  1
  Ba  Ba1  1  0.59320799  0.76812515  0.18648986  1
  Ba  Ba2  1  0.09324826  0.41840959  0.18667120  1
  Ba  Ba3  1  0.90675174  0.58159041  0.81332880  1
  I  I0  1  0.35033925  0.69349307  0.70080961  1
  I  I1  1  0.85024126  0.00743688  0.70056391  1
  I  I2  1  0.14975874  0.99256312  0.29943609  1
  I  I3  1  0.64965975  0.30650693  0.29919039  1
  O  O0  1  0.25005274  0.50000810  -0.00001107  1
  O  O1  1  0.74994826  0.49999190  0.00001107  1
loop_
_geom_bond_atom_site_label_1
_geom_bond_atom_site_label_2
_geom_bond_distance
_geom_bond_site_symmetry_2
Ba0 O1 2.543370 1_556
Ba0 O0 2.544582 1_556
Ba0 I2 3.625820 1_545
Ba0 I3 3.655900 1_556
Ba0 I0 3.756936 1_545
Ba0 I1 3.762841 1_455
Ba0 I1 3.763200 1_555
Ba0 I0 4.025964 1_555
Ba1 O0 2.543365 1_555
Ba1 O1 2.544587 1_555
Ba1 I1 3.625820 1_565
Ba1 I0 3.655900 1_554
Ba1 I3 3.756936 1_565
Ba1 I2 3.762841 1_655
Ba1 I2 3.763200 1_555
Ba1 I3 4.025964 1_555
Ba2 O0 2.545819 1_555
Ba2 O1 2.546671 1_455
Ba2 I0 3.626181 1_555
Ba2 I1 3.656404 1_454
Ba2 I2 3.759503 1_545
Ba2 I3 3.761198 1_455
Ba2 I3 3.765292 1_555
Ba2 I2 4.023576 1_555
Ba3 O1 2.545814 1_556
Ba3 O0 2.546675 1_656
Ba3 I3 3.626181 1_555
Ba3 I2 3.656404 1_656
Ba3 I1 3.759503 1_565
Ba3 I0 3.761191 1_655
Ba3 I0 3.765298 1_555
Ba3 I1 4.023576 1_555
