# generated using pymatgen
data_SiO2
_symmetry_space_group_name_H-M   'P 1'
_cell_length_a   12.64648900
_cell_length_b   12.64648900
_cell_length_c   12.64648900
_cell_angle_alpha   90.00000000
_cell_angle_beta   90.00000000
_cell_angle_gamma   90.00000000
_symmetry_Int_Tables_number   1
_chemical_formula_structural   SiO2
_chemical_formula_sum   'Si48 O96'
_cell_volume   2022.59957578
_cell_formula_units_Z   48
loop_
 _symmetry_equiv_pos_site_id
 _symmetry_equiv_pos_as_xyz
  1  'x, y, z'
loop_
 _atom_site_type_symbol
 _atom_site_label
 _atom_site_symmetry_multiplicity
 _atom_site_fract_x
 _atom_site_fract_y
 _atom_site_fract_z
 _atom_site_occupancy
  Si  Si0  1  0.68925200  0.51436200  0.15444400  1
  Si  Si1  1  0.68925200  0.84555600  0.48563800  1
  Si  Si2  1  0.15444400  0.48563800  0.31074800  1
  Si  Si3  1  0.68925200  0.15444400  0.51436200  1
  Si  Si4  1  0.51436200  0.68925200  0.15444400  1
  Si  Si5  1  0.48563800  0.15444400  0.31074800  1
  Si  Si6  1  0.15444400  0.51436200  0.68925200  1
  Si  Si7  1  0.81074800  0.98563800  0.34555600  1
  Si  Si8  1  0.84555600  0.51436200  0.31074800  1
  Si  Si9  1  0.18925200  0.34555600  0.01436200  1
  Si  Si10  1  0.98563800  0.81074800  0.34555600  1
  Si  Si11  1  0.84555600  0.48563800  0.68925200  1
  Si  Si12  1  0.15444400  0.68925200  0.51436200  1
  Si  Si13  1  0.48563800  0.31074800  0.15444400  1
  Si  Si14  1  0.01436200  0.65444400  0.81074800  1
  Si  Si15  1  0.34555600  0.01436200  0.18925200  1
  Si  Si16  1  0.48563800  0.84555600  0.68925200  1
  Si  Si17  1  0.31074800  0.48563800  0.15444400  1
  Si  Si18  1  0.51436200  0.31074800  0.84555600  1
  Si  Si19  1  0.01436200  0.34555600  0.18925200  1
  Si  Si20  1  0.81074800  0.34555600  0.98563800  1
  Si  Si21  1  0.18925200  0.01436200  0.34555600  1
  Si  Si22  1  0.51436200  0.15444400  0.68925200  1
  Si  Si23  1  0.18925200  0.98563800  0.65444400  1
  Si  Si24  1  0.84555600  0.68925200  0.48563800  1
  Si  Si25  1  0.31074800  0.51436200  0.84555600  1
  Si  Si26  1  0.65444400  0.18925200  0.98563800  1
  Si  Si27  1  0.98563800  0.34555600  0.81074800  1
  Si  Si28  1  0.81074800  0.65444400  0.01436200  1
  Si  Si29  1  0.31074800  0.84555600  0.51436200  1
  Si  Si30  1  0.34555600  0.18925200  0.01436200  1
  Si  Si31  1  0.15444400  0.31074800  0.48563800  1
  Si  Si32  1  0.65444400  0.01436200  0.81074800  1
  Si  Si33  1  0.01436200  0.81074800  0.65444400  1
  Si  Si34  1  0.34555600  0.81074800  0.98563800  1
  Si  Si35  1  0.98563800  0.18925200  0.65444400  1
  Si  Si36  1  0.31074800  0.15444400  0.48563800  1
  Si  Si37  1  0.65444400  0.98563800  0.18925200  1
  Si  Si38  1  0.51436200  0.84555600  0.31074800  1
  Si  Si39  1  0.01436200  0.18925200  0.34555600  1
  Si  Si40  1  0.48563800  0.68925200  0.84555600  1
  Si  Si41  1  0.84555600  0.31074800  0.51436200  1
  Si  Si42  1  0.34555600  0.98563800  0.81074800  1
  Si  Si43  1  0.18925200  0.65444400  0.98563800  1
  Si  Si44  1  0.98563800  0.65444400  0.18925200  1
  Si  Si45  1  0.68925200  0.48563800  0.84555600  1
  Si  Si46  1  0.81074800  0.01436200  0.65444400  1
  Si  Si47  1  0.65444400  0.81074800  0.01436200  1
  O  O0  1  0.58262200  0.08262200  0.25000000  1
  O  O1  1  0.56556800  0.84932600  0.43443200  1
  O  O2  1  0.77825900  0.22174100  0.01265200  1
  O  O3  1  0.88302600  0.38302600  0.75000000  1
  O  O4  1  0.84932600  0.56556800  0.43443200  1
  O  O5  1  0.48734800  0.27825900  0.72174100  1
  O  O6  1  0.56556800  0.43443200  0.84932600  1
  O  O7  1  0.11697400  0.25000000  0.38302600  1
  O  O8  1  0.27825900  0.27825900  0.51265200  1
  O  O9  1  0.75000000  0.11697400  0.61697400  1
  O  O10  1  0.27825900  0.48734800  0.72174100  1
  O  O11  1  0.11697400  0.61697400  0.75000000  1
  O  O12  1  0.01265200  0.77825900  0.22174100  1
  O  O13  1  0.77825900  0.98734800  0.77825900  1
  O  O14  1  0.34932700  0.06556800  0.06556800  1
  O  O15  1  0.22174100  0.22174100  0.98734800  1
  O  O16  1  0.65067400  0.06556800  0.93443200  1
  O  O17  1  0.48734800  0.72174100  0.27825900  1
  O  O18  1  0.25000000  0.61697400  0.88302600  1
  O  O19  1  0.15067400  0.56556800  0.56556800  1
  O  O20  1  0.58262200  0.75000000  0.91737800  1
  O  O21  1  0.93443200  0.34932700  0.93443200  1
  O  O22  1  0.15067400  0.43443200  0.43443200  1
  O  O23  1  0.06556800  0.65067400  0.93443200  1
  O  O24  1  0.75000000  0.58262200  0.91737800  1
  O  O25  1  0.56556800  0.56556800  0.15067400  1
  O  O26  1  0.25000000  0.11697400  0.38302600  1
  O  O27  1  0.93443200  0.06556800  0.65067400  1
  O  O28  1  0.43443200  0.15067400  0.43443200  1
  O  O29  1  0.25000000  0.41737800  0.91737800  1
  O  O30  1  0.11697400  0.75000000  0.61697400  1
  O  O31  1  0.08262200  0.25000000  0.58262200  1
  O  O32  1  0.91737800  0.25000000  0.41737800  1
  O  O33  1  0.38302600  0.11697400  0.25000000  1
  O  O34  1  0.25000000  0.58262200  0.08262200  1
  O  O35  1  0.98734800  0.22174100  0.22174100  1
  O  O36  1  0.27825900  0.51265200  0.27825900  1
  O  O37  1  0.06556800  0.34932700  0.06556800  1
  O  O38  1  0.91737800  0.75000000  0.58262200  1
  O  O39  1  0.22174100  0.98734800  0.22174100  1
  O  O40  1  0.93443200  0.65067400  0.06556800  1
  O  O41  1  0.22174100  0.77825900  0.01265200  1
  O  O42  1  0.38302600  0.25000000  0.11697400  1
  O  O43  1  0.01265200  0.22174100  0.77825900  1
  O  O44  1  0.41737800  0.91737800  0.25000000  1
  O  O45  1  0.58262200  0.91737800  0.75000000  1
  O  O46  1  0.25000000  0.38302600  0.11697400  1
  O  O47  1  0.08262200  0.75000000  0.41737800  1
  O  O48  1  0.56556800  0.15067400  0.56556800  1
  O  O49  1  0.98734800  0.77825900  0.77825900  1
  O  O50  1  0.41737800  0.08262200  0.75000000  1
  O  O51  1  0.51265200  0.27825900  0.27825900  1
  O  O52  1  0.88302600  0.61697400  0.25000000  1
  O  O53  1  0.43443200  0.56556800  0.84932600  1
  O  O54  1  0.41737800  0.25000000  0.91737800  1
  O  O55  1  0.75000000  0.41737800  0.08262200  1
  O  O56  1  0.72174100  0.27825900  0.48734800  1
  O  O57  1  0.08262200  0.41737800  0.75000000  1
  O  O58  1  0.65067400  0.93443200  0.06556800  1
  O  O59  1  0.88302600  0.75000000  0.38302600  1
  O  O60  1  0.25000000  0.91737800  0.41737800  1
  O  O61  1  0.77825900  0.01265200  0.22174100  1
  O  O62  1  0.77825900  0.77825900  0.98734800  1
  O  O63  1  0.43443200  0.84932600  0.56556800  1
  O  O64  1  0.84932600  0.43443200  0.56556800  1
  O  O65  1  0.25000000  0.08262200  0.58262200  1
  O  O66  1  0.43443200  0.43443200  0.15067400  1
  O  O67  1  0.25000000  0.88302600  0.61697400  1
  O  O68  1  0.75000000  0.88302600  0.38302600  1
  O  O69  1  0.61697400  0.25000000  0.88302600  1
  O  O70  1  0.75000000  0.08262200  0.41737800  1
  O  O71  1  0.34932700  0.93443200  0.93443200  1
  O  O72  1  0.38302600  0.88302600  0.75000000  1
  O  O73  1  0.91737800  0.41737800  0.25000000  1
  O  O74  1  0.61697400  0.88302600  0.25000000  1
  O  O75  1  0.51265200  0.72174100  0.72174100  1
  O  O76  1  0.75000000  0.91737800  0.58262200  1
  O  O77  1  0.11697400  0.38302600  0.25000000  1
  O  O78  1  0.88302600  0.25000000  0.61697400  1
  O  O79  1  0.06556800  0.93443200  0.65067400  1
  O  O80  1  0.61697400  0.75000000  0.11697400  1
  O  O81  1  0.91737800  0.58262200  0.75000000  1
  O  O82  1  0.38302600  0.75000000  0.88302600  1
  O  O83  1  0.72174100  0.72174100  0.51265200  1
  O  O84  1  0.61697400  0.11697400  0.75000000  1
  O  O85  1  0.22174100  0.01265200  0.77825900  1
  O  O86  1  0.58262200  0.25000000  0.08262200  1
  O  O87  1  0.27825900  0.72174100  0.48734800  1
  O  O88  1  0.72174100  0.51265200  0.72174100  1
  O  O89  1  0.72174100  0.48734800  0.27825900  1
  O  O90  1  0.93443200  0.93443200  0.34932700  1
  O  O91  1  0.75000000  0.38302600  0.88302600  1
  O  O92  1  0.75000000  0.61697400  0.11697400  1
  O  O93  1  0.06556800  0.06556800  0.34932700  1
  O  O94  1  0.08262200  0.58262200  0.25000000  1
  O  O95  1  0.41737800  0.75000000  0.08262200  1
loop_
_geom_bond_atom_site_label_1
_geom_bond_atom_site_label_2
_geom_bond_distance
_geom_bond_site_symmetry_2
O0 Si5 1.708663 1_555
O0 Si37 1.708663 1_545
O1 Si1 1.693591 1_555
O1 Si38 1.693591 1_555
O2 Si26 1.654490 1_554
O2 Si20 1.654490 1_554
O3 Si27 1.580737 1_555
O3 Si11 1.580737 1_555
O4 Si24 1.693591 1_555
O4 Si8 1.693591 1_555
O5 Si18 1.654490 1_555
O5 Si22 1.654490 1_555
O6 Si45 1.693591 1_555
O6 Si18 1.693591 1_555
O7 Si31 1.580737 1_555
O7 Si39 1.580737 1_555
O8 Si36 1.654490 1_555
O8 Si31 1.654490 1_555
O9 Si46 1.580737 1_555
O9 Si3 1.580737 1_555
O10 Si25 1.654490 1_555
O10 Si6 1.654490 1_555
O11 Si14 1.580737 1_555
O11 Si6 1.580737 1_555
O12 Si44 1.654490 1_455
O12 Si10 1.654490 1_455
O13 Si46 1.654490 1_565
O13 Si32 1.654490 1_565
O14 Si30 1.693591 1_555
O14 Si15 1.693591 1_555
O15 Si9 1.654490 1_556
O15 Si30 1.654490 1_556
O16 Si32 1.693591 1_555
O16 Si26 1.693591 1_555
O17 Si38 1.654490 1_555
O17 Si4 1.654490 1_555
O18 Si43 1.580737 1_555
O18 Si25 1.580737 1_555
O19 Si6 1.693591 1_555
O19 Si12 1.693591 1_555
O20 Si40 1.708663 1_555
O20 Si47 1.708663 1_556
O21 Si20 1.693591 1_555
O21 Si27 1.693591 1_555
O22 Si2 1.693591 1_555
O22 Si31 1.693591 1_555
O23 Si14 1.693591 1_555
O23 Si43 1.693591 1_555
O24 Si45 1.708663 1_555
O24 Si28 1.708663 1_556
O25 Si4 1.693591 1_555
O25 Si0 1.693591 1_555
O26 Si36 1.580737 1_555
O26 Si21 1.580737 1_555
O27 Si46 1.693591 1_555
O27 Si35 1.693591 1_555
O28 Si5 1.693591 1_555
O28 Si36 1.693591 1_555
O29 Si25 1.708663 1_555
O29 Si9 1.708663 1_556
O30 Si33 1.580737 1_555
O30 Si12 1.580737 1_555
O31 Si31 1.708663 1_555
O31 Si35 1.708663 1_455
O32 Si41 1.708663 1_555
O32 Si39 1.708663 1_655
O33 Si5 1.580737 1_555
O33 Si15 1.580737 1_555
O34 Si17 1.708663 1_555
O34 Si43 1.708663 1_554
O35 Si19 1.654490 1_655
O35 Si39 1.654490 1_655
O36 Si17 1.654490 1_555
O36 Si2 1.654490 1_555
O37 Si19 1.693591 1_555
O37 Si9 1.693591 1_555
O38 Si24 1.708663 1_555
O38 Si33 1.708663 1_655
O39 Si21 1.654490 1_565
O39 Si15 1.654490 1_565
O40 Si28 1.693591 1_555
O40 Si44 1.693591 1_555
O41 Si43 1.654490 1_554
O41 Si34 1.654490 1_554
O42 Si13 1.580737 1_555
O42 Si30 1.580737 1_555
O43 Si35 1.654490 1_455
O43 Si27 1.654490 1_455
O44 Si38 1.708663 1_555
O44 Si15 1.708663 1_565
O45 Si16 1.708663 1_555
O45 Si32 1.708663 1_565
O46 Si17 1.580737 1_555
O46 Si9 1.580737 1_555
O47 Si10 1.708663 1_455
O47 Si12 1.708663 1_555
O48 Si3 1.693591 1_555
O48 Si22 1.693591 1_555
O49 Si33 1.654490 1_655
O49 Si14 1.654490 1_655
O50 Si42 1.708663 1_545
O50 Si22 1.708663 1_555
O51 Si5 1.654490 1_555
O51 Si13 1.654490 1_555
O52 Si44 1.580737 1_555
O52 Si8 1.580737 1_555
O53 Si40 1.693591 1_555
O53 Si25 1.693591 1_555
O54 Si18 1.708663 1_555
O54 Si30 1.708663 1_556
O55 Si20 1.708663 1_554
O55 Si0 1.708663 1_555
O56 Si41 1.654490 1_555
O56 Si3 1.654490 1_555
O57 Si27 1.708663 1_455
O57 Si6 1.708663 1_555
O58 Si47 1.693591 1_555
O58 Si37 1.693591 1_555
O59 Si10 1.580737 1_555
O59 Si24 1.580737 1_555
O60 Si29 1.708663 1_555
O60 Si21 1.708663 1_565
O61 Si37 1.654490 1_545
O61 Si7 1.654490 1_545
O62 Si28 1.654490 1_556
O62 Si47 1.654490 1_556
O63 Si16 1.693591 1_555
O63 Si29 1.693591 1_555
O64 Si11 1.693591 1_555
O64 Si41 1.693591 1_555
O65 Si36 1.708663 1_555
O65 Si23 1.708663 1_545
O66 Si17 1.693591 1_555
O66 Si13 1.693591 1_555
O67 Si23 1.580737 1_555
O67 Si29 1.580737 1_555
O68 Si7 1.580737 1_555
O68 Si1 1.580737 1_555
O69 Si26 1.580737 1_555
O69 Si18 1.580737 1_555
O70 Si7 1.708663 1_545
O70 Si3 1.708663 1_555
O71 Si42 1.693591 1_555
O71 Si34 1.693591 1_555
O72 Si42 1.580737 1_555
O72 Si16 1.580737 1_555
O73 Si8 1.708663 1_555
O73 Si19 1.708663 1_655
O74 Si37 1.580737 1_555
O74 Si38 1.580737 1_555
O75 Si40 1.654490 1_555
O75 Si16 1.654490 1_555
O76 Si1 1.708663 1_555
O76 Si46 1.708663 1_565
O77 Si2 1.580737 1_555
O77 Si19 1.580737 1_555
O78 Si35 1.580737 1_555
O78 Si41 1.580737 1_555
O79 Si33 1.693591 1_555
O79 Si23 1.693591 1_555
O80 Si47 1.580737 1_555
O80 Si4 1.580737 1_555
O81 Si11 1.708663 1_555
O81 Si14 1.708663 1_655
O82 Si34 1.580737 1_555
O82 Si40 1.580737 1_555
O83 Si1 1.654490 1_555
O83 Si24 1.654490 1_555
O84 Si32 1.580737 1_555
O84 Si22 1.580737 1_555
O85 Si23 1.654490 1_545
O85 Si42 1.654490 1_545
O86 Si13 1.708663 1_555
O86 Si26 1.708663 1_554
O87 Si29 1.654490 1_555
O87 Si12 1.654490 1_555
O88 Si11 1.654490 1_555
O88 Si45 1.654490 1_555
O89 Si8 1.654490 1_555
O89 Si0 1.654490 1_555
O90 Si7 1.693591 1_555
O90 Si10 1.693591 1_555
O91 Si20 1.580737 1_555
O91 Si45 1.580737 1_555
O92 Si28 1.580737 1_555
O92 Si0 1.580737 1_555
O93 Si21 1.693591 1_555
O93 Si39 1.693591 1_555
O94 Si2 1.708663 1_555
O94 Si44 1.708663 1_455
O95 Si34 1.708663 1_554
O95 Si4 1.708663 1_555
