# generated using pymatgen
data_SrCdBi2
_symmetry_space_group_name_H-M   'P 1'
_cell_length_a   4.65950903
_cell_length_b   4.65950954
_cell_length_c   12.20455611
_cell_angle_alpha   101.00485479
_cell_angle_beta   101.00485250
_cell_angle_gamma   90.00000749
_symmetry_Int_Tables_number   1
_chemical_formula_structural   SrCdBi2
_chemical_formula_sum   'Sr2 Cd2 Bi4'
_cell_volume   255.13521819
_cell_formula_units_Z   2
loop_
 _symmetry_equiv_pos_site_id
 _symmetry_equiv_pos_as_xyz
  1  'x, y, z'
loop_
 _atom_site_type_symbol
 _atom_site_label
 _atom_site_symmetry_multiplicity
 _atom_site_fract_x
 _atom_site_fract_y
 _atom_site_fract_z
 _atom_site_occupancy
  Sr  Sr0  1  0.11353622  0.11353622  0.22707344  1
  Sr  Sr1  1  0.88646378  0.88646378  0.77292656  1
  Cd  Cd0  1  0.25000000  0.75000000  0.50000000  1
  Cd  Cd1  1  0.75000000  0.25000000  0.50000000  1
  Bi  Bi0  1  0.66586863  0.66586863  0.33173625  1
  Bi  Bi1  1  0.50000000  0.00000000  0.00000000  1
  Bi  Bi2  1  0.33413137  0.33413137  0.66826375  1
  Bi  Bi3  1  0.00000000  0.50000000  0.00000000  1
loop_
_geom_bond_atom_site_label_1
_geom_bond_atom_site_label_2
_geom_bond_distance
_geom_bond_site_symmetry_2
Bi0 Cd0 3.055750 1_655
Bi0 Cd1 3.055750 1_565
Bi0 Cd0 3.055753 1_555
Bi0 Cd1 3.055753 1_555
Bi0 Sr0 3.516847 1_665
Bi0 Sr0 3.516853 1_655
Bi0 Sr0 3.516853 1_565
Bi0 Sr0 3.516859 1_555
Bi1 Bi3 3.294770 1_545
Bi1 Bi3 3.294770 1_655
Bi1 Bi3 3.294771 1_645
Bi1 Bi3 3.294771 1_555
Bi1 Sr1 3.542356 1_444
Bi1 Sr0 3.542356 1_655
Bi1 Sr1 3.542359 1_544
Bi1 Sr0 3.542359 1_555
Bi2 Cd1 3.055750 1_455
Bi2 Cd0 3.055750 1_545
Bi2 Cd1 3.055753 1_555
Bi2 Cd0 3.055753 1_555
Bi2 Sr1 3.516847 1_445
Bi2 Sr1 3.516853 1_455
Bi2 Sr1 3.516853 1_545
Bi2 Sr1 3.516859 1_555
Bi3 Sr1 3.542356 1_444
Bi3 Sr0 3.542356 1_565
Bi3 Sr1 3.542359 1_454
Bi3 Sr0 3.542359 1_555
