# generated using pymatgen
data_Sm7BP2O17
_symmetry_space_group_name_H-M   'P 1'
_cell_length_a   17.62250200
_cell_length_b   6.82481700
_cell_length_c   12.29134463
_cell_angle_alpha   82.84298460
_cell_angle_beta   90.00000000
_cell_angle_gamma   90.00000000
_symmetry_Int_Tables_number   1
_chemical_formula_structural   Sm7BP2O17
_chemical_formula_sum   'Sm28 B4 P8 O68'
_cell_volume   1466.76620900
_cell_formula_units_Z   4
loop_
 _symmetry_equiv_pos_site_id
 _symmetry_equiv_pos_as_xyz
  1  'x, y, z'
loop_
 _atom_site_type_symbol
 _atom_site_label
 _atom_site_symmetry_multiplicity
 _atom_site_fract_x
 _atom_site_fract_y
 _atom_site_fract_z
 _atom_site_occupancy
  Sm  Sm0  1  0.72430600  0.02433800  0.17994900  1
  Sm  Sm1  1  0.86506400  0.78946000  0.43193400  1
  Sm  Sm2  1  0.22544700  0.68731800  0.59468400  1
  Sm  Sm3  1  0.36506400  0.71054000  0.06806600  1
  Sm  Sm4  1  0.01884300  0.51303800  0.28878900  1
  Sm  Sm5  1  0.34653500  0.23957400  0.57403900  1
  Sm  Sm6  1  0.10560600  0.00876200  0.30172400  1
  Sm  Sm7  1  0.84653500  0.26042600  0.92596100  1
  Sm  Sm8  1  0.22430600  0.47566200  0.32005100  1
  Sm  Sm9  1  0.44561200  0.77555900  0.50693700  1
  Sm  Sm10  1  0.51884300  0.98696200  0.21121100  1
  Sm  Sm11  1  0.72544700  0.81268200  0.90531600  1
  Sm  Sm12  1  0.77455300  0.31268200  0.40531600  1
  Sm  Sm13  1  0.48115700  0.01303800  0.78878900  1
  Sm  Sm14  1  0.65346500  0.76042600  0.42596100  1
  Sm  Sm15  1  0.15346500  0.73957400  0.07403900  1
  Sm  Sm16  1  0.13493600  0.21054000  0.56806600  1
  Sm  Sm17  1  0.98115700  0.48696200  0.71121100  1
  Sm  Sm18  1  0.55438800  0.22444100  0.49306300  1
  Sm  Sm19  1  0.63493600  0.28946000  0.93193400  1
  Sm  Sm20  1  0.27455300  0.18731800  0.09468400  1
  Sm  Sm21  1  0.60560600  0.49123800  0.19827600  1
  Sm  Sm22  1  0.39439400  0.50876200  0.80172400  1
  Sm  Sm23  1  0.89439400  0.99123800  0.69827600  1
  Sm  Sm24  1  0.05438800  0.27555900  0.00693700  1
  Sm  Sm25  1  0.94561200  0.72444100  0.99306300  1
  Sm  Sm26  1  0.27569400  0.97566200  0.82005100  1
  Sm  Sm27  1  0.77569400  0.52433800  0.67994900  1
  B  B0  1  0.93226000  0.24837800  0.50072400  1
  B  B1  1  0.06774000  0.75162200  0.49927600  1
  B  B2  1  0.43226000  0.25162200  0.99927600  1
  B  B3  1  0.56774000  0.74837800  0.00072400  1
  P  P0  1  0.80140500  0.55117600  0.16451200  1
  P  P1  1  0.06264500  0.96266900  0.81729300  1
  P  P2  1  0.93735500  0.03733100  0.18270700  1
  P  P3  1  0.30140500  0.94882400  0.33548800  1
  P  P4  1  0.43735500  0.46266900  0.31729300  1
  P  P5  1  0.19859500  0.44882400  0.83548800  1
  P  P6  1  0.69859500  0.05117600  0.66451200  1
  P  P7  1  0.56264500  0.53733100  0.68270700  1
  O  O0  1  0.14360400  0.08486400  0.11872100  1
  O  O1  1  0.25750700  0.00348300  0.62539200  1
  O  O2  1  0.86771200  0.30467000  0.73996100  1
  O  O3  1  0.24249300  0.50348300  0.12539200  1
  O  O4  1  0.25851500  0.61781400  0.80750600  1
  O  O5  1  0.35639600  0.58486400  0.61872100  1
  O  O6  1  0.63981800  0.54800100  0.73786100  1
  O  O7  1  0.17236700  0.39757400  0.72257500  1
  O  O8  1  0.01262700  0.77950000  0.41764300  1
  O  O9  1  0.13380700  0.51973700  0.90544000  1
  O  O10  1  0.13981800  0.95199900  0.76213900  1
  O  O11  1  0.51262700  0.72050000  0.08235700  1
  O  O12  1  0.76475700  0.73504700  0.09797300  1
  O  O13  1  0.23524300  0.26495300  0.90202700  1
  O  O14  1  0.12290600  0.90268200  0.49913300  1
  O  O15  1  0.63228800  0.80467000  0.23996100  1
  O  O16  1  0.64360400  0.41513600  0.38127900  1
  O  O17  1  0.67236700  0.10242600  0.77742500  1
  O  O18  1  0.95723800  0.46494500  0.90221500  1
  O  O19  1  0.24148500  0.11781400  0.30750600  1
  O  O20  1  0.74148500  0.38218600  0.19249400  1
  O  O21  1  0.42085300  0.08596800  0.07325600  1
  O  O22  1  0.60920300  0.19236800  0.12451400  1
  O  O23  1  0.53097700  0.32400100  0.69690300  1
  O  O24  1  0.86018200  0.04800100  0.23786100  1
  O  O25  1  0.10920300  0.30763200  0.37548600  1
  O  O26  1  0.26521600  0.89600400  0.00716400  1
  O  O27  1  0.48737300  0.27950000  0.91764300  1
  O  O28  1  0.73478400  0.10399600  0.99283600  1
  O  O29  1  0.07914700  0.58596800  0.57325600  1
  O  O30  1  0.56455600  0.59394700  0.55523600  1
  O  O31  1  0.62290600  0.59731800  0.00086700  1
  O  O32  1  0.63380700  0.98026300  0.59456000  1
  O  O33  1  0.03097700  0.17599900  0.80309700  1
  O  O34  1  0.74249300  0.99651700  0.37460800  1
  O  O35  1  0.93544400  0.09394700  0.05523600  1
  O  O36  1  0.92085300  0.41403200  0.42674400  1
  O  O37  1  0.45723800  0.03505500  0.59778500  1
  O  O38  1  0.89079700  0.69236800  0.62451400  1
  O  O39  1  0.75851500  0.88218600  0.69249400  1
  O  O40  1  0.13228800  0.69533000  0.26003900  1
  O  O41  1  0.37709400  0.40268200  0.99913300  1
  O  O42  1  0.50444700  0.67793200  0.72886700  1
  O  O43  1  0.99555300  0.17793200  0.22886700  1
  O  O44  1  0.43544400  0.40605300  0.44476400  1
  O  O45  1  0.36771200  0.19533000  0.76003900  1
  O  O46  1  0.39079700  0.80763200  0.87548600  1
  O  O47  1  0.87709400  0.09731800  0.50086700  1
  O  O48  1  0.57914700  0.91403200  0.92674400  1
  O  O49  1  0.36018200  0.45199900  0.26213900  1
  O  O50  1  0.98737300  0.22050000  0.58235700  1
  O  O51  1  0.00444700  0.82206800  0.77113300  1
  O  O52  1  0.96902300  0.82400100  0.19690300  1
  O  O53  1  0.86619300  0.48026300  0.09456000  1
  O  O54  1  0.46902300  0.67599900  0.30309700  1
  O  O55  1  0.76521600  0.60399600  0.49283600  1
  O  O56  1  0.82763300  0.60242600  0.27742500  1
  O  O57  1  0.49555300  0.32206800  0.27113300  1
  O  O58  1  0.32763300  0.89757400  0.22257500  1
  O  O59  1  0.36619300  0.01973700  0.40544000  1
  O  O60  1  0.73524300  0.23504700  0.59797300  1
  O  O61  1  0.04276200  0.53505500  0.09778500  1
  O  O62  1  0.54276200  0.96494500  0.40221500  1
  O  O63  1  0.75750700  0.49651700  0.87460800  1
  O  O64  1  0.06455600  0.90605300  0.94476400  1
  O  O65  1  0.85639600  0.91513600  0.88127900  1
  O  O66  1  0.26475700  0.76495300  0.40202700  1
  O  O67  1  0.23478400  0.39600400  0.50716400  1
loop_
_geom_bond_atom_site_label_1
_geom_bond_atom_site_label_2
_geom_bond_distance
_geom_bond_site_symmetry_2
B0 O36 1.374503 1_555
B0 O50 1.392367 1_555
B0 O47 1.416871 1_555
B1 O29 1.374503 1_555
B1 O8 1.392367 1_555
B1 O14 1.416871 1_555
B2 O21 1.374503 1_556
B2 O27 1.392367 1_555
B2 O41 1.416871 1_555
B3 O48 1.374503 1_554
B3 O11 1.392367 1_555
B3 O31 1.416871 1_555
O0 Sm6 2.342356 1_555
O0 Sm24 2.368095 1_555
O0 Sm20 2.418673 1_555
O0 Sm15 2.491505 1_545
O1 Sm5 2.280929 1_555
O1 Sm2 2.306635 1_545
O1 Sm26 2.397959 1_545
O1 Sm16 2.628865 1_555
O2 Sm27 2.268407 1_555
O2 Sm7 2.298935 1_555
O2 Sm23 2.309227 1_545
O2 Sm17 2.357939 1_555
O3 Sm15 2.280929 1_555
O3 Sm20 2.306635 1_555
O3 Sm8 2.397959 1_555
O3 Sm3 2.628865 1_555
O4 P5 1.569911 1_555
O4 Sm26 2.484720 1_555
O4 Sm22 2.511159 1_555
O4 Sm2 2.664240 1_555
O5 Sm22 2.342356 1_555
O5 Sm9 2.368095 1_555
O5 Sm2 2.418673 1_555
O5 Sm5 2.491505 1_555
O6 P7 1.525360 1_555
O6 Sm27 2.508968 1_555
O6 Sm19 2.786083 1_555
O7 P5 1.543718 1_555
O7 Sm16 2.505038 1_555
O7 Sm2 2.545930 1_555
O8 Sm4 2.558361 1_555
O8 Sm6 2.570507 1_565
O8 Sm1 2.607812 1_455
O9 P5 1.542957 1_555
O9 Sm24 2.402957 1_556
O9 Sm15 2.727683 1_556
O10 P1 1.525360 1_555
O10 Sm26 2.508968 1_555
O10 Sm16 2.786083 1_565
O11 Sm10 2.558361 1_555
O11 Sm21 2.570507 1_555
O11 Sm3 2.607812 1_555
O12 P0 1.550801 1_555
O12 Sm0 2.432528 1_565
O12 Sm11 2.460787 1_554
O13 P5 1.550801 1_555
O13 Sm26 2.432528 1_545
O13 Sm20 2.460787 1_556
O14 Sm16 2.370849 1_565
O14 Sm6 2.463105 1_565
O14 Sm2 2.524860 1_555
O15 Sm0 2.268407 1_565
O15 Sm14 2.298935 1_555
O15 Sm21 2.309227 1_555
O15 Sm10 2.357939 1_555
O16 Sm21 2.342356 1_555
O16 Sm18 2.368095 1_555
O16 Sm12 2.418673 1_555
O16 Sm14 2.491505 1_555
O17 P6 1.543718 1_555
O17 Sm19 2.505038 1_555
O17 Sm11 2.545930 1_545
O18 Sm25 2.217685 1_555
O18 Sm17 2.371503 1_555
O18 Sm7 2.395374 1_555
O18 Sm24 2.417419 1_656
O19 P3 1.569911 1_545
O19 Sm8 2.484720 1_555
O19 Sm6 2.511159 1_555
O19 Sm20 2.664240 1_555
O20 P0 1.569911 1_555
O20 Sm0 2.484720 1_555
O20 Sm21 2.511159 1_555
O20 Sm12 2.664240 1_555
O21 Sm10 2.455249 1_545
O21 Sm20 2.690758 1_555
O21 Sm3 2.752521 1_545
O22 Sm10 2.294377 1_545
O22 Sm21 2.333949 1_555
O22 Sm0 2.387273 1_555
O22 Sm19 2.420103 1_554
O23 P7 1.548658 1_555
O23 Sm13 2.439900 1_555
O23 Sm18 2.708038 1_555
O24 P2 1.525360 1_555
O24 Sm0 2.508968 1_555
O24 Sm1 2.786083 1_545
O25 Sm4 2.294377 1_555
O25 Sm6 2.333949 1_555
O25 Sm8 2.387273 1_555
O25 Sm16 2.420103 1_555
O26 Sm3 2.241092 1_555
O26 Sm26 2.303802 1_554
O26 Sm15 2.339881 1_555
O26 Sm20 2.381179 1_565
O27 Sm13 2.558361 1_555
O27 Sm22 2.570507 1_555
O27 Sm19 2.607812 1_555
O28 Sm19 2.241092 1_555
O28 Sm0 2.303802 1_556
O28 Sm7 2.339881 1_555
O28 Sm11 2.381179 1_545
O29 Sm17 2.455249 1_455
O29 Sm2 2.690758 1_555
O29 Sm16 2.752521 1_555
O30 P7 1.566657 1_555
O30 Sm14 2.412620 1_555
O30 Sm9 2.469607 1_555
O30 Sm18 2.730536 1_555
O31 Sm19 2.370849 1_554
O31 Sm21 2.463105 1_555
O31 Sm11 2.524860 1_554
O32 P6 1.542957 1_565
O32 Sm18 2.402957 1_565
O32 Sm14 2.727683 1_555
O33 P1 1.548658 1_545
O33 Sm17 2.439900 1_455
O33 Sm24 2.708038 1_556
O34 Sm14 2.280929 1_555
O34 Sm12 2.306635 1_565
O34 Sm0 2.397959 1_565
O34 Sm1 2.628865 1_555
O35 P2 1.566657 1_555
O35 Sm7 2.412620 1_554
O35 Sm24 2.469607 1_655
O35 Sm25 2.730536 1_544
O36 Sm4 2.455249 1_655
O36 Sm12 2.690758 1_555
O36 Sm1 2.752521 1_555
O37 Sm9 2.217685 1_545
O37 Sm13 2.371503 1_555
O37 Sm5 2.395374 1_555
O37 Sm18 2.417419 1_555
O38 Sm17 2.294377 1_555
O38 Sm23 2.333949 1_555
O38 Sm27 2.387273 1_555
O38 Sm1 2.420103 1_555
O39 P6 1.569911 1_565
O39 Sm27 2.484720 1_555
O39 Sm23 2.511159 1_555
O39 Sm11 2.664240 1_555
O40 Sm8 2.268407 1_555
O40 Sm15 2.298935 1_555
O40 Sm6 2.309227 1_565
O40 Sm4 2.357939 1_555
O41 Sm3 2.370849 1_556
O41 Sm22 2.463105 1_555
O41 Sm20 2.524860 1_556
O42 P7 1.558909 1_555
O42 Sm22 2.374577 1_555
O42 Sm13 2.522139 1_565
O42 Sm9 2.916683 1_555
O43 P2 1.558909 1_555
O43 Sm6 2.374577 1_655
O43 Sm4 2.522139 1_655
O43 Sm24 2.916683 1_655
O44 P4 1.566657 1_555
O44 Sm5 2.412620 1_555
O44 Sm18 2.469607 1_555
O44 Sm9 2.730536 1_555
O45 Sm26 2.268407 1_545
O45 Sm5 2.298935 1_555
O45 Sm22 2.309227 1_555
O45 Sm13 2.357939 1_555
O46 Sm13 2.294377 1_565
O46 Sm22 2.333949 1_555
O46 Sm26 2.387273 1_555
O46 Sm3 2.420103 1_556
O47 Sm1 2.370849 1_545
O47 Sm23 2.463105 1_545
O47 Sm12 2.524860 1_555
O48 Sm13 2.455249 1_565
O48 Sm11 2.690758 1_555
O48 Sm19 2.752521 1_565
O49 P4 1.525360 1_555
O49 Sm8 2.508968 1_555
O49 Sm3 2.786083 1_555
O50 Sm17 2.558361 1_555
O50 Sm23 2.570507 1_545
O50 Sm16 2.607812 1_655
O51 P1 1.558909 1_555
O51 Sm23 2.374577 1_455
O51 Sm17 2.522139 1_455
O51 Sm25 2.916683 1_455
O52 P2 1.548658 1_565
O52 Sm4 2.439900 1_655
O52 Sm25 2.708038 1_554
O53 P0 1.542957 1_555
O53 Sm25 2.402957 1_554
O53 Sm7 2.727683 1_554
O54 P4 1.548658 1_555
O54 Sm10 2.439900 1_555
O54 Sm9 2.708038 1_555
O55 Sm1 2.241092 1_555
O55 Sm27 2.303802 1_555
O55 Sm14 2.339881 1_555
O55 Sm12 2.381179 1_555
O56 P0 1.543718 1_555
O56 Sm1 2.505038 1_555
O56 Sm12 2.545930 1_555
O57 P4 1.558909 1_555
O57 Sm21 2.374577 1_555
O57 Sm10 2.522139 1_545
O57 Sm18 2.916683 1_555
O58 P3 1.543718 1_555
O58 Sm3 2.505038 1_555
O58 Sm20 2.545930 1_565
O59 P3 1.542957 1_545
O59 Sm9 2.402957 1_545
O59 Sm5 2.727683 1_555
O60 P6 1.550801 1_555
O60 Sm27 2.432528 1_555
O60 Sm12 2.460787 1_555
O61 Sm24 2.217685 1_555
O61 Sm4 2.371503 1_555
O61 Sm15 2.395374 1_555
O61 Sm25 2.417419 1_454
O62 Sm18 2.217685 1_565
O62 Sm10 2.371503 1_555
O62 Sm14 2.395374 1_555
O62 Sm9 2.417419 1_555
O63 Sm7 2.280929 1_555
O63 Sm11 2.306635 1_555
O63 Sm27 2.397959 1_555
O63 Sm19 2.628865 1_555
O64 P1 1.566657 1_555
O64 Sm15 2.412620 1_556
O64 Sm25 2.469607 1_455
O64 Sm24 2.730536 1_566
O65 Sm23 2.342356 1_555
O65 Sm25 2.368095 1_555
O65 Sm11 2.418673 1_555
O65 Sm7 2.491505 1_565
O66 P3 1.550801 1_555
O66 Sm8 2.432528 1_555
O66 Sm2 2.460787 1_555
O67 Sm16 2.241092 1_555
O67 Sm8 2.303802 1_555
O67 Sm5 2.339881 1_555
O67 Sm2 2.381179 1_555
