# generated using pymatgen
data_Na2ZnP4(H4O5)4
_symmetry_space_group_name_H-M   'P 1'
_cell_length_a   10.98040600
_cell_length_b   7.39556500
_cell_length_c   11.89617461
_cell_angle_alpha   64.60612727
_cell_angle_beta   90.00000000
_cell_angle_gamma   90.00000000
_symmetry_Int_Tables_number   1
_chemical_formula_structural   Na2ZnP4(H4O5)4
_chemical_formula_sum   'Na4 Zn2 P8 H32 O40'
_cell_volume   872.70630841
_cell_formula_units_Z   2
loop_
 _symmetry_equiv_pos_site_id
 _symmetry_equiv_pos_as_xyz
  1  'x, y, z'
loop_
 _atom_site_type_symbol
 _atom_site_label
 _atom_site_symmetry_multiplicity
 _atom_site_fract_x
 _atom_site_fract_y
 _atom_site_fract_z
 _atom_site_occupancy
  Na  Na0  1  0.17196300  0.72098000  0.54645100  1
  Na  Na1  1  0.67196300  0.27902000  0.95354900  1
  Na  Na2  1  0.82803700  0.27902000  0.45354900  1
  Na  Na3  1  0.32803700  0.72098000  0.04645100  1
  Zn  Zn0  1  0.50000000  0.00000000  0.50000000  1
  Zn  Zn1  1  0.00000000  0.00000000  0.00000000  1
  P  P0  1  0.24120100  0.16604500  0.58451000  1
  P  P1  1  0.74120100  0.83395500  0.91549000  1
  P  P2  1  0.75879900  0.83395500  0.41549000  1
  P  P3  1  0.25879900  0.16604500  0.08451000  1
  P  P4  1  0.45856400  0.54724900  0.72386600  1
  P  P5  1  0.95856400  0.45275100  0.77613400  1
  P  P6  1  0.54143600  0.45275100  0.27613400  1
  P  P7  1  0.04143600  0.54724900  0.22386600  1
  H  H0  1  0.01190700  0.03376700  0.63227100  1
  H  H1  1  0.51190700  0.96623300  0.86772900  1
  H  H2  1  0.98809300  0.96623300  0.36772900  1
  H  H3  1  0.48809300  0.03376700  0.13227100  1
  H  H4  1  0.11069800  0.38938600  0.45683400  1
  H  H5  1  0.61069800  0.61061400  0.04316600  1
  H  H6  1  0.88930200  0.61061400  0.54316600  1
  H  H7  1  0.38930200  0.38938600  0.95683400  1
  H  H8  1  0.58710300  0.60248500  0.57409100  1
  H  H9  1  0.08710300  0.39751500  0.92590900  1
  H  H10  1  0.41289700  0.39751500  0.42590900  1
  H  H11  1  0.91289700  0.60248500  0.07409100  1
  H  H12  1  0.29989800  0.37177200  0.71336000  1
  H  H13  1  0.79989800  0.62822800  0.78664000  1
  H  H14  1  0.70010200  0.62822800  0.28664000  1
  H  H15  1  0.20010200  0.37177200  0.21336000  1
  H  H16  1  0.33550800  0.96941200  0.34053500  1
  H  H17  1  0.83550800  0.03058800  0.15946500  1
  H  H18  1  0.66449200  0.03058800  0.65946500  1
  H  H19  1  0.16449200  0.96941200  0.84053500  1
  H  H20  1  0.40617800  0.76374200  0.38909000  1
  H  H21  1  0.90617800  0.23625800  0.11091000  1
  H  H22  1  0.59382200  0.23625800  0.61091000  1
  H  H23  1  0.09382200  0.76374200  0.88909000  1
  H  H24  1  0.15451900  0.05812500  0.27113400  1
  H  H25  1  0.65451900  0.94187500  0.22886600  1
  H  H26  1  0.84548100  0.94187500  0.72886600  1
  H  H27  1  0.34548100  0.05812500  0.77113400  1
  H  H28  1  0.04409400  0.85145700  0.29097800  1
  H  H29  1  0.54409400  0.14854300  0.20902200  1
  H  H30  1  0.95590600  0.14854300  0.70902200  1
  H  H31  1  0.45590600  0.85145700  0.79097800  1
  O  O0  1  0.15818800  0.99771000  0.59329100  1
  O  O1  1  0.65818800  0.00229000  0.90670900  1
  O  O2  1  0.84181200  0.00229000  0.40670900  1
  O  O3  1  0.34181200  0.99771000  0.09329100  1
  O  O4  1  0.26867700  0.14911100  0.72250500  1
  O  O5  1  0.76867700  0.85088900  0.77749500  1
  O  O6  1  0.73132300  0.85088900  0.27749500  1
  O  O7  1  0.23132300  0.14911100  0.22250500  1
  O  O8  1  0.17536800  0.37656800  0.52389800  1
  O  O9  1  0.67536800  0.62343200  0.97610200  1
  O  O10  1  0.82463200  0.62343200  0.47610200  1
  O  O11  1  0.32463200  0.37656800  0.02389800  1
  O  O12  1  0.36386700  0.18231000  0.51887500  1
  O  O13  1  0.86386700  0.81769000  0.98112500  1
  O  O14  1  0.63613300  0.81769000  0.48112500  1
  O  O15  1  0.13613300  0.18231000  0.01887500  1
  O  O16  1  0.54448300  0.48013400  0.64010300  1
  O  O17  1  0.04448300  0.51986600  0.85989700  1
  O  O18  1  0.45551700  0.51986600  0.35989700  1
  O  O19  1  0.95551700  0.48013400  0.14010300  1
  O  O20  1  0.48425100  0.41533800  0.85966700  1
  O  O21  1  0.98425100  0.58466200  0.64033300  1
  O  O22  1  0.51574900  0.58466200  0.14033300  1
  O  O23  1  0.01574900  0.41533800  0.35966700  1
  O  O24  1  0.32120900  0.51518100  0.69231400  1
  O  O25  1  0.82120900  0.48481900  0.80768600  1
  O  O26  1  0.67879100  0.48481900  0.30768600  1
  O  O27  1  0.17879100  0.51518100  0.19231400  1
  O  O28  1  0.47217100  0.77310000  0.68129600  1
  O  O29  1  0.97217100  0.22690000  0.81870400  1
  O  O30  1  0.52782900  0.22690000  0.31870400  1
  O  O31  1  0.02782900  0.77310000  0.18129600  1
  O  O32  1  0.37003900  0.86054100  0.41615500  1
  O  O33  1  0.87003900  0.13945900  0.08384500  1
  O  O34  1  0.62996100  0.13945900  0.58384500  1
  O  O35  1  0.12996100  0.86054100  0.91615500  1
  O  O36  1  0.06665300  0.91935100  0.34556400  1
  O  O37  1  0.56665300  0.08064900  0.15443600  1
  O  O38  1  0.93334700  0.08064900  0.65443600  1
  O  O39  1  0.43334700  0.91935100  0.84556400  1
loop_
_geom_bond_atom_site_label_1
_geom_bond_atom_site_label_2
_geom_bond_distance
_geom_bond_site_symmetry_2
Na0 O0 2.345191 1_555
Na0 O21 2.355070 1_455
Na0 O24 2.397484 1_555
Na0 O36 2.488676 1_555
Na0 O32 2.612693 1_555
Na0 O8 2.673448 1_555
Na1 O1 2.345191 1_555
Na1 O20 2.355070 1_555
Na1 O25 2.397484 1_555
Na1 O37 2.488676 1_556
Na1 O33 2.612693 1_556
Na1 O9 2.673448 1_555
Na2 O2 2.345191 1_555
Na2 O23 2.355070 1_655
Na2 O26 2.397484 1_555
Na2 O38 2.488676 1_555
Na2 O34 2.612693 1_555
Na2 O10 2.673448 1_555
Na3 O3 2.345191 1_555
Na3 O22 2.355070 1_555
Na3 O27 2.397484 1_555
Na3 O39 2.488676 1_554
Na3 O35 2.612693 1_554
Na3 O11 2.673448 1_555
H0 O38 1.006114 1_455
H0 O0 1.723993 1_545
H1 O39 1.006114 1_555
H1 O1 1.723993 1_565
H2 O36 1.006114 1_655
H2 O2 1.723993 1_565
H3 O37 1.006114 1_555
H3 O3 1.723993 1_545
H4 O8 1.041566 1_555
H4 O23 1.506542 1_555
H5 O9 1.041566 1_554
H5 O22 1.506542 1_555
H6 O10 1.041566 1_555
H6 O21 1.506542 1_555
H7 O11 1.041566 1_556
H7 O20 1.506542 1_555
H8 O16 1.022257 1_555
H8 O14 1.592594 1_555
H9 O17 1.022257 1_555
H9 O15 1.592594 1_556
H10 O18 1.022257 1_555
H10 O12 1.592594 1_555
H11 O19 1.022257 1_555
H11 O13 1.592594 1_554
H12 O24 1.007248 1_555
H12 O4 1.639312 1_555
H13 O25 1.007248 1_555
H13 O5 1.639312 1_555
H14 O26 1.007248 1_555
H14 O6 1.639312 1_555
H15 O27 1.007248 1_555
H15 O7 1.639312 1_555
H16 O32 0.989992 1_555
H17 O33 0.989992 1_555
H18 O34 0.989992 1_555
H19 O35 0.989992 1_555
H20 O32 0.985550 1_555
H21 O33 0.985550 1_555
H22 O34 0.985550 1_555
H23 O35 0.985550 1_555
H24 O7 1.079259 1_555
H24 O36 1.410233 1_545
H25 O6 1.079259 1_555
H25 O37 1.410233 1_565
H26 O5 1.079259 1_555
H26 O38 1.410233 1_565
H27 O4 1.079259 1_555
H27 O39 1.410233 1_545
H28 O36 1.007374 1_555
H28 O31 1.648852 1_555
H29 O37 1.007374 1_555
H29 O30 1.648852 1_555
H30 O38 1.007374 1_555
H30 O29 1.648852 1_555
H31 O39 1.007374 1_555
H31 O28 1.648852 1_555
O0 P0 1.509998 1_565
O1 P1 1.509998 1_545
O2 P2 1.509998 1_545
O3 P3 1.509998 1_565
O4 P0 1.620268 1_555
O5 P1 1.620268 1_555
O6 P2 1.620268 1_555
O7 P3 1.620268 1_555
O8 P0 1.582295 1_555
O9 P1 1.582295 1_555
O10 P2 1.582295 1_555
O11 P3 1.582295 1_555
O12 P0 1.535504 1_555
O12 Zn0 2.088627 1_555
O13 P1 1.535504 1_555
O13 Zn1 2.088627 1_666
O14 P2 1.535504 1_555
O14 Zn0 2.088627 1_565
O15 P3 1.535504 1_555
O15 Zn1 2.088627 1_555
O16 P4 1.597984 1_555
O17 P5 1.597984 1_455
O18 P6 1.597984 1_555
O19 P7 1.597984 1_655
O20 P4 1.513085 1_555
O21 P5 1.513085 1_555
O22 P6 1.513085 1_555
O23 P7 1.513085 1_555
O24 P4 1.596305 1_555
O25 P5 1.596305 1_555
O26 P6 1.596305 1_555
O27 P7 1.596305 1_555
O28 P4 1.530748 1_555
O28 Zn0 2.111088 1_565
O29 P5 1.530748 1_555
O29 Zn1 2.111088 1_656
O30 P6 1.530748 1_555
O30 Zn0 2.111088 1_555
O31 P7 1.530748 1_555
O31 Zn1 2.111088 1_565
O32 Zn0 2.230994 1_565
O33 Zn1 2.230994 1_655
O34 Zn0 2.230994 1_555
O35 Zn1 2.230994 1_566
