# generated using pymatgen
data_Ba5Al2Ge7
_symmetry_space_group_name_H-M   'P 1'
_cell_length_a   6.79663282
_cell_length_b   6.79663222
_cell_length_c   18.60960304
_cell_angle_alpha   81.37659570
_cell_angle_beta   81.37662149
_cell_angle_gamma   100.16144775
_symmetry_Int_Tables_number   1
_chemical_formula_structural   Ba5Al2Ge7
_chemical_formula_sum   'Ba10 Al4 Ge14'
_cell_volume   822.74922550
_cell_formula_units_Z   2
loop_
 _symmetry_equiv_pos_site_id
 _symmetry_equiv_pos_as_xyz
  1  'x, y, z'
loop_
 _atom_site_type_symbol
 _atom_site_label
 _atom_site_symmetry_multiplicity
 _atom_site_fract_x
 _atom_site_fract_y
 _atom_site_fract_z
 _atom_site_occupancy
  Ba  Ba0  1  0.75130763  0.24872685  0.99998390  1
  Ba  Ba1  1  0.12453701  0.56967013  0.78936905  1
  Ba  Ba2  1  0.29046819  0.70953268  0.50001076  1
  Ba  Ba3  1  0.76049558  0.76049595  0.64387090  1
  Ba  Ba4  1  0.23946880  0.23946960  0.35614380  1
  Ba  Ba5  1  0.56966967  0.12453692  0.78936886  1
  Ba  Ba6  1  0.24872712  0.75130749  0.99998403  1
  Ba  Ba7  1  0.70953231  0.29046791  0.50001088  1
  Ba  Ba8  1  0.43030268  0.87544953  0.21062549  1
  Ba  Ba9  1  0.87544962  0.43030231  0.21062532  1
  Al  Al0  1  0.22443145  0.22443108  0.07162184  1
  Al  Al1  1  0.92296877  0.92296841  0.26690346  1
  Al  Al2  1  0.07699727  0.07699755  0.73311305  1
  Al  Al3  1  0.77560002  0.77559981  0.92834184  1
  Ge  Ge0  1  0.35873233  0.35873255  0.64417681  1
  Ge  Ge1  1  0.29496019  0.29495965  0.93369866  1
  Ge  Ge2  1  0.94048127  0.94048147  0.13231971  1
  Ge  Ge3  1  0.64126381  0.64126378  0.35582913  1
  Ge  Ge4  1  0.41506844  0.41506828  0.15187142  1
  Ge  Ge5  1  0.05952155  0.05952109  0.86771309  1
  Ge  Ge6  1  0.81933576  0.81933577  0.45237210  1
  Ge  Ge7  1  0.33319634  0.96294029  0.64234902  1
  Ge  Ge8  1  0.66683633  0.03706891  0.35764458  1
  Ge  Ge9  1  0.18065840  0.18065841  0.54760492  1
  Ge  Ge10  1  0.96294020  0.33319643  0.64234894  1
  Ge  Ge11  1  0.03706898  0.66683612  0.35764460  1
  Ge  Ge12  1  0.70503632  0.70503592  0.06632277  1
  Ge  Ge13  1  0.58494398  0.58494412  0.84813008  1
loop_
_geom_bond_atom_site_label_1
_geom_bond_atom_site_label_2
_geom_bond_distance
_geom_bond_site_symmetry_2
Ba0 Ge5 3.529084 1_655
Ba0 Ge2 3.529878 1_546
Ba0 Ge1 3.551820 1_555
Ba0 Ge12 3.552089 1_556
Ba0 Ge1 3.657964 1_655
Ba0 Ge12 3.658345 1_546
Ba0 Ge13 3.797330 1_555
Ba0 Ge4 3.797772 1_556
Ba1 Ge13 3.456027 1_555
Ba1 Ge7 3.456473 1_555
Ba1 Ge5 3.477540 1_555
Ba1 Ge1 3.497726 1_555
Ba1 Ge0 3.544967 1_555
Ba1 Ge10 3.587760 1_455
Ba1 Ge13 3.690833 1_455
Ba1 Ge5 3.897036 1_565
Ba2 Ge7 3.389611 1_555
Ba2 Ge11 3.390004 1_555
Ba2 Ge0 3.455885 1_555
Ba2 Ge3 3.456081 1_555
Ba2 Ge9 3.487525 1_555
Ba2 Ge6 3.487538 1_555
Ba2 Ge10 3.564443 1_455
Ba2 Ge8 3.564855 1_565
Ba2 Ge9 3.618042 1_565
Ba2 Ge6 3.618358 1_455
Ba3 Ge7 3.428019 1_555
Ba3 Ge10 3.428022 1_555
Ba3 Ge6 3.479763 1_555
Ba3 Ge0 3.503217 1_555
Ba3 Ge9 3.684235 1_665
Ba3 Ge13 3.751504 1_555
Ba3 Ge10 3.887231 1_565
Ba3 Ge7 3.887233 1_655
Ba4 Ge11 3.428243 1_555
Ba4 Ge8 3.428253 1_555
Ba4 Ge9 3.479092 1_555
Ba4 Ge3 3.503452 1_555
Ba4 Ge6 3.683833 1_445
Ba4 Ge4 3.751801 1_555
Ba4 Ge8 3.886822 1_455
Ba4 Ge11 3.886827 1_545
Ba5 Ge13 3.456030 1_555
Ba5 Ge10 3.456474 1_555
Ba5 Ge5 3.477536 1_555
Ba5 Ge1 3.497724 1_555
Ba5 Ge0 3.544964 1_555
Ba5 Ge7 3.587754 1_545
Ba5 Ge13 3.690832 1_545
Ba5 Ge5 3.897044 1_655
Ba6 Ge5 3.529082 1_565
Ba6 Ge2 3.529881 1_456
Ba6 Ge1 3.551825 1_555
Ba6 Ge12 3.552089 1_556
Ba6 Ge1 3.657961 1_565
Ba6 Ge12 3.658344 1_456
Ba6 Ge13 3.797330 1_555
Ba6 Ge4 3.797769 1_556
Ba7 Ge10 3.389609 1_555
Ba7 Ge8 3.390005 1_555
Ba7 Ge0 3.455885 1_555
Ba7 Ge3 3.456081 1_555
Ba7 Ge9 3.487523 1_555
Ba7 Ge6 3.487539 1_555
Ba7 Ge7 3.564441 1_545
Ba7 Ge11 3.564857 1_655
Ba7 Ge9 3.618043 1_655
Ba7 Ge6 3.618358 1_545
Ba8 Ge4 3.455824 1_555
Ba8 Ge11 3.456270 1_555
Ba8 Ge2 3.477533 1_555
Ba8 Ge12 3.497398 1_555
Ba8 Ge3 3.545196 1_555
Ba8 Ge8 3.588003 1_565
Ba8 Ge4 3.690913 1_565
Ba8 Ge2 3.896527 1_455
Ba9 Ge4 3.455822 1_555
Ba9 Ge8 3.456270 1_555
Ba9 Ge2 3.477535 1_555
Ba9 Ge12 3.497393 1_555
Ba9 Ge3 3.545201 1_555
Ba9 Ge11 3.588006 1_655
Ba9 Ge4 3.690913 1_655
Ba9 Ge2 3.896521 1_545
Al0 Ge2 2.470496 1_445
Al0 Ge4 2.481144 1_555
Al0 Ge1 2.495696 1_554
Al0 Ba0 3.594681 1_554
Al0 Ba6 3.594682 1_554
Al0 Ba6 3.681284 1_544
Al0 Ba0 3.681286 1_454
Al0 Ba8 3.832990 1_545
Al0 Ba9 3.832990 1_455
Al1 Ge2 2.473320 1_555
Al1 Ge11 2.543811 1_655
Al1 Ge8 2.543813 1_565
Al1 Ge3 2.622312 1_555
Al1 Ba8 3.535877 1_655
Al1 Ba9 3.535877 1_565
Al1 Ba4 3.538736 1_665
Al1 Ba8 3.631103 1_555
Al1 Ba9 3.631105 1_555
Al2 Ge5 2.473679 1_555
Al2 Ge10 2.544206 1_455
Al2 Ge7 2.544207 1_545
Al2 Ge0 2.622601 1_555
Al2 Ba1 3.535811 1_545
Al2 Ba5 3.535811 1_455
Al2 Ba3 3.538766 1_445
Al2 Ba5 3.630958 1_555
Al2 Ba1 3.630961 1_555
Al3 Ge5 2.469986 1_665
Al3 Ge13 2.480743 1_555
Al3 Ge12 2.496741 1_556
Al3 Ba0 3.594681 1_555
Al3 Ba6 3.594682 1_555
Al3 Ba0 3.681341 1_565
Al3 Ba6 3.681342 1_655
Al3 Ba1 3.832677 1_655
Al3 Ba5 3.832682 1_565
Ge0 Ge9 2.635745 1_555
Ge0 Ge10 2.670607 1_455
Ge0 Ge7 2.670608 1_545
Ge3 Ge6 2.635290 1_555
Ge3 Ge8 2.670627 1_565
Ge6 Ge8 2.584317 1_565
Ge7 Ge9 2.584622 1_565
Ge10 Ge9 2.584623 1_655
Ge11 Ge6 2.584318 1_455
Ge11 Ge3 2.670628 1_455
