# generated using pymatgen
data_CsAgBr2
_symmetry_space_group_name_H-M   'P 1'
_cell_length_a   5.30711769
_cell_length_b   5.30711769
_cell_length_c   10.23677732
_cell_angle_alpha   90.00000000
_cell_angle_beta   90.00000000
_cell_angle_gamma   90.00000000
_symmetry_Int_Tables_number   1
_chemical_formula_structural   CsAgBr2
_chemical_formula_sum   'Cs2 Ag2 Br4'
_cell_volume   288.32393293
_cell_formula_units_Z   2
loop_
 _symmetry_equiv_pos_site_id
 _symmetry_equiv_pos_as_xyz
  1  'x, y, z'
loop_
 _atom_site_type_symbol
 _atom_site_label
 _atom_site_symmetry_multiplicity
 _atom_site_fract_x
 _atom_site_fract_y
 _atom_site_fract_z
 _atom_site_occupancy
  Cs  Cs0  1  0.25000000  0.25000000  0.70892157  1
  Cs  Cs1  1  0.75000000  0.75000000  0.29107843  1
  Ag  Ag0  1  0.25000000  0.25000000  0.09932276  1
  Ag  Ag1  1  0.75000000  0.75000000  0.90067724  1
  Br  Br0  1  0.75000000  0.25000000  0.00000000  1
  Br  Br1  1  0.25000000  0.25000000  0.35651626  1
  Br  Br2  1  0.75000000  0.75000000  0.64348374  1
  Br  Br3  1  0.25000000  0.75000000  0.00000000  1
loop_
_geom_bond_atom_site_label_1
_geom_bond_atom_site_label_2
_geom_bond_distance
_geom_bond_site_symmetry_2
Ag0 Br1 2.632833 1_555
Ag0 Br3 2.841680 1_545
Ag0 Br3 2.841680 1_555
Ag0 Br0 2.841680 1_555
Ag0 Br0 2.841680 1_455
Ag1 Br2 2.632833 1_555
Ag1 Br0 2.841680 1_556
Ag1 Br3 2.841680 1_556
Ag1 Br3 2.841680 1_656
Ag1 Br0 2.841680 1_566
Br1 Cs0 3.607495 1_555
Br1 Cs1 3.812018 1_545
Br1 Cs1 3.812018 1_445
Br1 Cs1 3.812018 1_455
Br1 Cs1 3.812018 1_555
Br2 Cs1 3.607495 1_555
Br2 Cs0 3.812018 1_555
Br2 Cs0 3.812018 1_655
Br2 Cs0 3.812018 1_665
Br2 Cs0 3.812018 1_565
