# generated using pymatgen
data_NbSe2
_symmetry_space_group_name_H-M   'P 1'
_cell_length_a   3.51033931
_cell_length_b   3.51033922
_cell_length_c   26.33809795
_cell_angle_alpha   90.00000000
_cell_angle_beta   90.00000000
_cell_angle_gamma   120.00001092
_symmetry_Int_Tables_number   1
_chemical_formula_structural   NbSe2
_chemical_formula_sum   'Nb4 Se8'
_cell_volume   281.06914725
_cell_formula_units_Z   4
loop_
 _symmetry_equiv_pos_site_id
 _symmetry_equiv_pos_as_xyz
  1  'x, y, z'
loop_
 _atom_site_type_symbol
 _atom_site_label
 _atom_site_symmetry_multiplicity
 _atom_site_fract_x
 _atom_site_fract_y
 _atom_site_fract_z
 _atom_site_occupancy
  Nb  Nb0  1  0.33333300  0.66666700  0.50000000  1
  Nb  Nb1  1  0.00000000  -0.00000000  -0.00000000  1
  Nb  Nb2  1  0.00000000  -0.00000000  0.25029380  1
  Nb  Nb3  1  0.00000000  -0.00000000  0.74970620  1
  Se  Se0  1  0.33333300  0.66666700  0.31290724  1
  Se  Se1  1  0.33333300  0.66666700  0.06322020  1
  Se  Se2  1  0.33333300  0.66666700  0.68709276  1
  Se  Se3  1  0.66666700  0.33333300  0.18773683  1
  Se  Se4  1  0.66666700  0.33333300  0.43674775  1
  Se  Se5  1  0.66666700  0.33333300  0.56325225  1
  Se  Se6  1  0.33333300  0.66666700  0.93677980  1
  Se  Se7  1  0.66666700  0.33333300  0.81226317  1
loop_
_geom_bond_atom_site_label_1
_geom_bond_atom_site_label_2
_geom_bond_distance
_geom_bond_site_symmetry_2
Nb0 Se5 2.623519 1_565
Nb0 Se4 2.623519 1_565
Nb0 Se4 2.623519 1_455
Nb0 Se5 2.623519 1_455
Nb0 Se4 2.623524 1_555
Nb0 Se5 2.623524 1_555
Nb1 Se1 2.622984 1_545
Nb1 Se6 2.622984 1_544
Nb1 Se1 2.622986 1_555
Nb1 Se6 2.622986 1_554
Nb1 Se1 2.622986 1_445
Nb1 Se6 2.622986 1_444
Nb2 Se3 2.611930 1_455
Nb2 Se3 2.611932 1_445
Nb2 Se3 2.611932 1_555
Nb2 Se0 2.612868 1_545
Nb2 Se0 2.612870 1_555
Nb2 Se0 2.612870 1_445
Nb3 Se7 2.611930 1_455
Nb3 Se7 2.611932 1_445
Nb3 Se7 2.611932 1_555
Nb3 Se2 2.612868 1_545
Nb3 Se2 2.612870 1_555
Nb3 Se2 2.612870 1_445
