# generated using pymatgen
data_Cs3Tb10C4Cl21
_symmetry_space_group_name_H-M   'P 1'
_cell_length_a   13.36258197
_cell_length_b   13.36258197
_cell_length_c   15.28033891
_cell_angle_alpha   82.81812760
_cell_angle_beta   82.81812760
_cell_angle_gamma   56.49180466
_symmetry_Int_Tables_number   1
_chemical_formula_structural   Cs3Tb10C4Cl21
_chemical_formula_sum   'Cs6 Tb20 C8 Cl42'
_cell_volume   2251.96198067
_cell_formula_units_Z   2
loop_
 _symmetry_equiv_pos_site_id
 _symmetry_equiv_pos_as_xyz
  1  'x, y, z'
loop_
 _atom_site_type_symbol
 _atom_site_label
 _atom_site_symmetry_multiplicity
 _atom_site_fract_x
 _atom_site_fract_y
 _atom_site_fract_z
 _atom_site_occupancy
  Cs  Cs0  1  0.97274300  0.02725700  0.25000000  1
  Cs  Cs1  1  0.02725700  0.97274300  0.75000000  1
  Cs  Cs2  1  0.35030400  0.85988400  0.45249300  1
  Cs  Cs3  1  0.14011600  0.64969600  0.04750700  1
  Cs  Cs4  1  0.64969600  0.14011600  0.54750700  1
  Cs  Cs5  1  0.85988400  0.35030400  0.95249300  1
  Tb  Tb0  1  0.75451600  0.50369800  0.37129400  1
  Tb  Tb1  1  0.23277200  0.95972000  0.98345700  1
  Tb  Tb2  1  0.64802400  0.91921600  0.19982000  1
  Tb  Tb3  1  0.75182500  0.49448900  0.61849700  1
  Tb  Tb4  1  0.62606200  0.90039300  0.95961700  1
  Tb  Tb5  1  0.90039300  0.62606200  0.45961700  1
  Tb  Tb6  1  0.50369800  0.75451600  0.87129400  1
  Tb  Tb7  1  0.24817500  0.50551100  0.38150300  1
  Tb  Tb8  1  0.08078400  0.35197600  0.30018000  1
  Tb  Tb9  1  0.76722800  0.04028000  0.01654300  1
  Tb  Tb10  1  0.49448900  0.75182500  0.11849700  1
  Tb  Tb11  1  0.37393800  0.09960700  0.04038300  1
  Tb  Tb12  1  0.50551100  0.24817500  0.88150300  1
  Tb  Tb13  1  0.24548400  0.49630200  0.62870600  1
  Tb  Tb14  1  0.35197600  0.08078400  0.80018000  1
  Tb  Tb15  1  0.04028000  0.76722800  0.51654300  1
  Tb  Tb16  1  0.95972000  0.23277200  0.48345700  1
  Tb  Tb17  1  0.91921600  0.64802400  0.69982000  1
  Tb  Tb18  1  0.09960700  0.37393800  0.54038300  1
  Tb  Tb19  1  0.49630200  0.24548400  0.12870600  1
  C  C0  1  0.54857400  0.12016800  0.00202700  1
  C  C1  1  0.03448600  0.59098600  0.57640000  1
  C  C2  1  0.40901400  0.96551400  0.92360000  1
  C  C3  1  0.96551400  0.40901400  0.42360000  1
  C  C4  1  0.59098600  0.03448600  0.07640000  1
  C  C5  1  0.12016800  0.54857400  0.50202700  1
  C  C6  1  0.45142600  0.87983200  0.99797300  1
  C  C7  1  0.87983200  0.45142600  0.49797300  1
  Cl  Cl0  1  0.71717200  0.72623600  0.10239900  1
  Cl  Cl1  1  0.77759800  0.28824800  0.38651000  1
  Cl  Cl2  1  0.26314000  0.81248000  0.13398900  1
  Cl  Cl3  1  0.94309300  0.42715600  0.72189000  1
  Cl  Cl4  1  0.81248000  0.26314000  0.63398900  1
  Cl  Cl5  1  0.28824800  0.77759800  0.88651000  1
  Cl  Cl6  1  0.86935200  0.87713700  0.16130600  1
  Cl  Cl7  1  0.57284400  0.05690700  0.77811000  1
  Cl  Cl8  1  0.71175200  0.22240200  0.11349000  1
  Cl  Cl9  1  0.43117800  0.88868900  0.71035200  1
  Cl  Cl10  1  0.26756900  0.29270100  0.14659700  1
  Cl  Cl11  1  0.28282800  0.27376400  0.89760100  1
  Cl  Cl12  1  0.57873300  0.57379400  0.51036800  1
  Cl  Cl13  1  0.14202100  0.14841400  0.07907400  1
  Cl  Cl14  1  0.61117000  0.55259800  0.77753300  1
  Cl  Cl15  1  0.57379400  0.57873300  0.01036800  1
  Cl  Cl16  1  0.18752000  0.73686000  0.36601100  1
  Cl  Cl17  1  0.73243100  0.70729900  0.85340300  1
  Cl  Cl18  1  0.22240200  0.71175200  0.61349000  1
  Cl  Cl19  1  0.11131100  0.56882200  0.78964800  1
  Cl  Cl20  1  0.13064800  0.12286300  0.83869400  1
  Cl  Cl21  1  0.29270100  0.26756900  0.64659700  1
  Cl  Cl22  1  0.42715600  0.94309300  0.22189000  1
  Cl  Cl23  1  0.88868900  0.43117800  0.21035200  1
  Cl  Cl24  1  0.44740200  0.38883000  0.72246700  1
  Cl  Cl25  1  0.70729900  0.73243100  0.35340300  1
  Cl  Cl26  1  0.87713700  0.86935200  0.66130600  1
  Cl  Cl27  1  0.00000000  0.00000000  0.00000000  1
  Cl  Cl28  1  0.85797900  0.85158600  0.92092600  1
  Cl  Cl29  1  0.42126700  0.42620600  0.48963200  1
  Cl  Cl30  1  0.42620600  0.42126700  0.98963200  1
  Cl  Cl31  1  0.05690700  0.57284400  0.27811000  1
  Cl  Cl32  1  0.55259800  0.61117000  0.27753300  1
  Cl  Cl33  1  0.56882200  0.11131100  0.28964800  1
  Cl  Cl34  1  0.85158600  0.85797900  0.42092600  1
  Cl  Cl35  1  0.72623600  0.71717200  0.60239900  1
  Cl  Cl36  1  0.12286300  0.13064800  0.33869400  1
  Cl  Cl37  1  0.73686000  0.18752000  0.86601100  1
  Cl  Cl38  1  0.27376400  0.28282800  0.39760100  1
  Cl  Cl39  1  0.38883000  0.44740200  0.22246700  1
  Cl  Cl40  1  0.14841400  0.14202100  0.57907400  1
  Cl  Cl41  1  0.00000000  0.00000000  0.50000000  1
loop_
_geom_bond_atom_site_label_1
_geom_bond_atom_site_label_2
_geom_bond_distance
_geom_bond_site_symmetry_2
C0 C4 1.429279 1_555
C0 Tb12 2.244811 1_554
C0 Tb11 2.488028 1_555
C0 Tb19 2.493973 1_555
C0 Tb9 2.526789 1_555
C0 Tb4 2.658441 1_544
C1 C5 1.429279 1_555
C1 Tb17 2.201575 1_455
C1 Tb15 2.456385 1_555
C1 Tb5 2.505554 1_455
C1 Tb13 2.561444 1_555
C1 Tb18 2.639084 1_555
C2 C6 1.429279 1_555
C2 Tb14 2.201575 1_565
C2 Tb1 2.456385 1_555
C2 Tb11 2.505554 1_566
C2 Tb6 2.561444 1_555
C2 Tb4 2.639084 1_555
C3 C7 1.429279 1_555
C3 Tb8 2.201575 1_655
C3 Tb16 2.456385 1_555
C3 Tb18 2.505554 1_655
C3 Tb0 2.561444 1_555
C3 Tb5 2.639084 1_555
C4 Tb2 2.201575 1_545
C4 Tb9 2.456385 1_555
C4 Tb4 2.505554 1_544
C4 Tb19 2.561444 1_555
C4 Tb11 2.639084 1_555
C5 Tb7 2.244811 1_555
C5 Tb18 2.488028 1_555
C5 Tb13 2.493973 1_555
C5 Tb15 2.526789 1_555
C5 Tb5 2.658441 1_455
C6 Tb10 2.244811 1_556
C6 Tb4 2.488028 1_555
C6 Tb6 2.493973 1_555
C6 Tb1 2.526789 1_555
C6 Tb11 2.658441 1_566
C7 Tb3 2.244811 1_555
C7 Tb5 2.488028 1_555
C7 Tb0 2.493973 1_555
C7 Tb16 2.526789 1_555
C7 Tb18 2.658441 1_655
Cl0 Tb2 2.775724 1_555
Cl0 Tb10 2.783227 1_555
Cl0 Tb4 2.815042 1_554
Cl1 Tb16 2.702129 1_555
Cl1 Tb0 2.703292 1_555
Cl1 Cs0 3.705605 1_555
Cl1 Cs4 3.789138 1_555
Cl2 Tb10 2.714470 1_555
Cl2 Tb1 2.747155 1_554
Cl2 Cs0 3.700396 1_465
Cl2 Cs3 3.793469 1_555
Cl3 Tb17 2.768471 1_555
Cl3 Tb3 2.820114 1_555
Cl3 Tb18 3.157957 1_655
Cl3 Cs5 3.752812 1_555
Cl4 Tb3 2.714470 1_555
Cl4 Tb16 2.747155 1_555
Cl4 Cs1 3.700396 1_645
Cl4 Cs4 3.793469 1_555
Cl5 Tb1 2.702129 1_555
Cl5 Tb6 2.703292 1_555
Cl5 Cs1 3.705605 1_555
Cl5 Cs3 3.789138 1_556
Cl6 Tb2 2.687161 1_555
Cl6 Tb9 2.787853 1_565
Cl6 Cs0 3.460839 1_565
Cl6 Cs3 3.599787 1_655
Cl7 Tb14 2.768471 1_555
Cl7 Tb12 2.820114 1_555
Cl7 Tb4 3.157957 1_545
Cl7 Cs4 3.752812 1_555
Cl8 Tb9 2.702129 1_555
Cl8 Tb19 2.703292 1_555
Cl8 Cs0 3.705605 1_555
Cl8 Cs5 3.789138 1_554
Cl9 Tb14 2.666699 1_565
Cl9 Tb6 2.788649 1_555
Cl10 Tb19 2.742220 1_555
Cl10 Tb11 2.780822 1_555
Cl10 Tb8 3.030170 1_555
Cl11 Tb14 2.775724 1_555
Cl11 Tb12 2.783227 1_555
Cl11 Tb11 2.815042 1_556
Cl12 Tb3 2.648427 1_555
Cl12 Tb0 2.780497 1_555
Cl12 Cs2 3.414602 1_555
Cl13 Tb1 2.658012 1_544
Cl13 Tb11 2.790247 1_555
Cl13 Cs5 3.810705 1_454
Cl13 Cs0 4.008503 1_455
Cl14 Tb6 2.751160 1_555
Cl14 Tb3 2.785573 1_555
Cl14 Cs5 3.999409 1_555
Cl15 Tb10 2.648427 1_555
Cl15 Tb6 2.780497 1_554
Cl15 Cs5 3.414602 1_554
Cl16 Tb7 2.714470 1_555
Cl16 Tb15 2.747155 1_555
Cl16 Cs0 3.700396 1_465
Cl16 Cs2 3.793469 1_555
Cl17 Tb6 2.742220 1_555
Cl17 Tb4 2.780822 1_555
Cl17 Tb17 3.030170 1_555
Cl18 Tb15 2.702129 1_555
Cl18 Tb13 2.703292 1_555
Cl18 Cs1 3.705605 1_555
Cl18 Cs2 3.789138 1_555
Cl19 Tb17 2.666699 1_455
Cl19 Tb13 2.788649 1_555
Cl20 Tb14 2.687161 1_555
Cl20 Tb1 2.787853 1_545
Cl20 Cs1 3.460839 1_545
Cl20 Cs5 3.599787 1_455
Cl21 Tb13 2.742220 1_555
Cl21 Tb18 2.780822 1_555
Cl21 Tb14 3.030170 1_555
Cl22 Tb2 2.768471 1_555
Cl22 Tb10 2.820114 1_555
Cl22 Tb11 3.157957 1_565
Cl22 Cs2 3.752812 1_555
Cl23 Tb8 2.666699 1_655
Cl23 Tb0 2.788649 1_555
Cl24 Tb13 2.751160 1_555
Cl24 Tb12 2.785573 1_555
Cl24 Cs4 3.999409 1_555
Cl25 Tb0 2.742220 1_555
Cl25 Tb5 2.780822 1_555
Cl25 Tb2 3.030170 1_555
Cl26 Tb17 2.687161 1_555
Cl26 Tb15 2.787853 1_655
Cl26 Cs1 3.460839 1_655
Cl26 Cs4 3.599787 1_565
Cl27 Tb1 2.831494 1_544
Cl27 Tb9 2.831494 1_455
Cl27 Cs0 3.835609 1_455
Cl27 Cs1 3.835609 1_544
Cl27 Cs5 3.969568 1_454
Cl27 Cs3 3.969568 1_545
Cl28 Tb9 2.658012 1_566
Cl28 Tb4 2.790247 1_555
Cl28 Cs3 3.810705 1_656
Cl28 Cs1 4.008503 1_655
Cl29 Tb7 2.648427 1_555
Cl29 Tb13 2.780497 1_555
Cl29 Cs4 3.414602 1_555
Cl30 Tb12 2.648427 1_555
Cl30 Tb19 2.780497 1_556
Cl30 Cs3 3.414602 1_556
Cl31 Tb8 2.768471 1_555
Cl31 Tb7 2.820114 1_555
Cl31 Tb5 3.157957 1_455
Cl31 Cs3 3.752812 1_555
Cl32 Tb0 2.751160 1_555
Cl32 Tb10 2.785573 1_555
Cl32 Cs2 3.999409 1_555
Cl33 Tb2 2.666699 1_545
Cl33 Tb19 2.788649 1_555
Cl34 Tb15 2.658012 1_655
Cl34 Tb5 2.790247 1_555
Cl34 Cs4 3.810705 1_565
Cl34 Cs0 4.008503 1_565
Cl35 Tb17 2.775724 1_555
Cl35 Tb3 2.783227 1_555
Cl35 Tb5 2.815042 1_555
Cl36 Tb8 2.687161 1_555
Cl36 Tb16 2.787853 1_455
Cl36 Cs0 3.460839 1_455
Cl36 Cs2 3.599787 1_545
Cl37 Tb12 2.714470 1_555
Cl37 Tb9 2.747155 1_556
Cl37 Cs1 3.700396 1_645
Cl37 Cs5 3.793469 1_555
Cl38 Tb8 2.775724 1_555
Cl38 Tb7 2.783227 1_555
Cl38 Tb18 2.815042 1_555
Cl39 Tb19 2.751160 1_555
Cl39 Tb7 2.785573 1_555
Cl39 Cs3 3.999409 1_555
Cl40 Tb16 2.658012 1_455
Cl40 Tb18 2.790247 1_555
Cl40 Cs2 3.810705 1_545
Cl40 Cs1 4.008503 1_545
Cl41 Tb16 2.831494 1_455
Cl41 Tb15 2.831494 1_545
Cl41 Cs1 3.835609 1_545
Cl41 Cs0 3.835609 1_455
Cl41 Cs2 3.969568 1_545
Cl41 Cs4 3.969568 1_455
