# generated using pymatgen
data_BaH16C4S4(NO5)2
_symmetry_space_group_name_H-M   'P 1'
_cell_length_a   8.17164100
_cell_length_b   8.31348200
_cell_length_c   23.89507759
_cell_angle_alpha   78.44716647
_cell_angle_beta   90.00000000
_cell_angle_gamma   90.00000000
_symmetry_Int_Tables_number   1
_chemical_formula_structural   BaH16C4S4(NO5)2
_chemical_formula_sum   'Ba4 H64 C16 S16 N8 O40'
_cell_volume   1590.41961091
_cell_formula_units_Z   4
loop_
 _symmetry_equiv_pos_site_id
 _symmetry_equiv_pos_as_xyz
  1  'x, y, z'
loop_
 _atom_site_type_symbol
 _atom_site_label
 _atom_site_symmetry_multiplicity
 _atom_site_fract_x
 _atom_site_fract_y
 _atom_site_fract_z
 _atom_site_occupancy
  Ba  Ba0  1  0.31430200  0.12359300  0.06735300  1
  Ba  Ba1  1  0.68569800  0.87640700  0.93264700  1
  Ba  Ba2  1  0.81430200  0.87640700  0.43264700  1
  Ba  Ba3  1  0.18569800  0.12359300  0.56735300  1
  H  H0  1  0.08948400  0.09237500  0.80585100  1
  H  H1  1  0.22867800  0.01767600  0.43473100  1
  H  H2  1  0.76308600  0.43392900  0.24793300  1
  H  H3  1  0.28264900  0.50210900  0.18418400  1
  H  H4  1  0.21297700  0.75092900  0.92603900  1
  H  H5  1  0.25937300  0.53452800  0.93878200  1
  H  H6  1  0.90512800  0.09661900  0.76366600  1
  H  H7  1  0.60124700  0.84423800  0.08503000  1
  H  H8  1  0.91051600  0.90762500  0.19414900  1
  H  H9  1  0.49778900  0.60641600  0.87138000  1
  H  H10  1  0.09487200  0.90338100  0.23633400  1
  H  H11  1  0.73691400  0.43392900  0.74793300  1
  H  H12  1  0.00221100  0.60641600  0.37138000  1
  H  H13  1  0.10124700  0.15576200  0.41497000  1
  H  H14  1  0.60216800  0.93076300  0.76737700  1
  H  H15  1  0.71297700  0.24907100  0.57396100  1
  H  H16  1  0.06744600  0.44206800  0.73883400  1
  H  H17  1  0.56744600  0.55793200  0.76116600  1
  H  H18  1  0.72867800  0.98232400  0.06526900  1
  H  H19  1  0.02941600  0.52218700  0.12230300  1
  H  H20  1  0.26308600  0.56607100  0.25206700  1
  H  H21  1  0.43039700  0.68445600  0.66042200  1
  H  H22  1  0.50221100  0.39358400  0.12862000  1
  H  H23  1  0.06688000  0.60464900  0.96187700  1
  H  H24  1  0.63807700  0.64450300  0.64066300  1
  H  H25  1  0.99778900  0.39358400  0.62862000  1
  H  H26  1  0.21735100  0.50210900  0.68418400  1
  H  H27  1  0.62146900  0.25240200  0.15521800  1
  H  H28  1  0.86192300  0.64450300  0.14066300  1
  H  H29  1  0.93255400  0.55793200  0.26116600  1
  H  H30  1  0.23691400  0.56607100  0.75206700  1
  H  H31  1  0.74062700  0.46547200  0.06121800  1
  H  H32  1  0.56688000  0.39535100  0.53812300  1
  H  H33  1  0.97058400  0.47781300  0.87769700  1
  H  H34  1  0.41051600  0.09237500  0.30585100  1
  H  H35  1  0.10216800  0.06923700  0.73262300  1
  H  H36  1  0.43312000  0.60464900  0.46187700  1
  H  H37  1  0.36192300  0.35549700  0.35933700  1
  H  H38  1  0.77132200  0.98232400  0.56526900  1
  H  H39  1  0.39875300  0.15576200  0.91497000  1
  H  H40  1  0.39783200  0.06923700  0.23262300  1
  H  H41  1  0.40512800  0.90338100  0.73633400  1
  H  H42  1  0.87853100  0.25240200  0.65521800  1
  H  H43  1  0.93039700  0.31554400  0.83957800  1
  H  H44  1  0.78702300  0.24907100  0.07396100  1
  H  H45  1  0.28702300  0.75092900  0.42603900  1
  H  H46  1  0.13807700  0.35549700  0.85933700  1
  H  H47  1  0.27132200  0.01767600  0.93473100  1
  H  H48  1  0.75937300  0.46547200  0.56121800  1
  H  H49  1  0.89875300  0.84423800  0.58503000  1
  H  H50  1  0.71735100  0.49789100  0.81581600  1
  H  H51  1  0.93312000  0.39535100  0.03812300  1
  H  H52  1  0.52941600  0.47781300  0.37769700  1
  H  H53  1  0.12146900  0.74759800  0.34478200  1
  H  H54  1  0.59487200  0.09661900  0.26366600  1
  H  H55  1  0.89783200  0.93076300  0.26737700  1
  H  H56  1  0.47058400  0.52218700  0.62230300  1
  H  H57  1  0.06960300  0.68445600  0.16042200  1
  H  H58  1  0.58948400  0.90762500  0.69414900  1
  H  H59  1  0.24062700  0.53452800  0.43878200  1
  H  H60  1  0.56960300  0.31554400  0.33957800  1
  H  H61  1  0.78264900  0.49789100  0.31581600  1
  H  H62  1  0.43255400  0.44206800  0.23883400  1
  H  H63  1  0.37853100  0.74759800  0.84478200  1
  C  C0  1  0.52835300  0.95486300  0.72834700  1
  C  C1  1  0.99161500  0.64365500  0.12873400  1
  C  C2  1  0.84760400  0.46068100  0.28040700  1
  C  C3  1  0.19695300  0.63238600  0.95496300  1
  C  C4  1  0.49161500  0.35634500  0.37126600  1
  C  C5  1  0.15239600  0.53931900  0.71959300  1
  C  C6  1  0.65239600  0.46068100  0.78040700  1
  C  C7  1  0.47164700  0.04513700  0.27165300  1
  C  C8  1  0.97164700  0.95486300  0.22834700  1
  C  C9  1  0.50838500  0.64365500  0.62873400  1
  C  C10  1  0.00838500  0.35634500  0.87126600  1
  C  C11  1  0.80304700  0.36761400  0.04503700  1
  C  C12  1  0.02835300  0.04513700  0.77165300  1
  C  C13  1  0.34760400  0.53931900  0.21959300  1
  C  C14  1  0.69695300  0.36761400  0.54503700  1
  C  C15  1  0.30304700  0.63238600  0.45496300  1
  S  S0  1  0.21146200  0.64064900  0.52151200  1
  S  S1  1  0.48354600  0.78841200  0.56384500  1
  S  S2  1  0.50936900  0.17027200  0.70436100  1
  S  S3  1  0.53587800  0.28072600  0.80727800  1
  S  S4  1  0.99063100  0.17027200  0.20436100  1
  S  S5  1  0.71146200  0.35935100  0.97848800  1
  S  S6  1  0.00936900  0.82972800  0.79563900  1
  S  S7  1  0.03587800  0.71927400  0.69272200  1
  S  S8  1  0.49063100  0.82972800  0.29563900  1
  S  S9  1  0.96412200  0.28072600  0.30727800  1
  S  S10  1  0.98354600  0.21158800  0.93615500  1
  S  S11  1  0.01645400  0.78841200  0.06384500  1
  S  S12  1  0.78853800  0.35935100  0.47848800  1
  S  S13  1  0.46412200  0.71927400  0.19272200  1
  S  S14  1  0.28853800  0.64064900  0.02151200  1
  S  S15  1  0.51645400  0.21158800  0.43615500  1
  N  N0  1  0.20420600  0.79067000  0.04460700  1
  N  N1  1  0.70420600  0.20933000  0.45539300  1
  N  N2  1  0.42956000  0.24293200  0.75543900  1
  N  N3  1  0.29579400  0.79067000  0.54460700  1
  N  N4  1  0.92956000  0.75706800  0.74456100  1
  N  N5  1  0.79579400  0.20933000  0.95539300  1
  N  N6  1  0.57044000  0.75706800  0.24456100  1
  N  N7  1  0.07044000  0.24293200  0.25543900  1
  O  O0  1  0.48682700  0.72564100  0.86272700  1
  O  O1  1  0.25951100  0.48172900  0.05972800  1
  O  O2  1  0.60975700  0.80152100  0.34218500  1
  O  O3  1  0.07938700  0.32612000  0.34876000  1
  O  O4  1  0.74048900  0.51827100  0.94027200  1
  O  O5  1  0.01317300  0.72564100  0.36272700  1
  O  O6  1  0.39024300  0.19847900  0.65781500  1
  O  O7  1  0.32547700  0.76576200  0.31098100  1
  O  O8  1  0.88469200  0.95182700  0.55908600  1
  O  O9  1  0.67452300  0.23423800  0.68901900  1
  O  O10  1  0.11530800  0.04817300  0.44091400  1
  O  O11  1  0.75951100  0.51827100  0.44027200  1
  O  O12  1  0.38469200  0.04817300  0.94091400  1
  O  O13  1  0.51317300  0.27435900  0.13727300  1
  O  O14  1  0.90254600  0.74084100  0.02258900  1
  O  O15  1  0.98719500  0.95165900  0.07673000  1
  O  O16  1  0.17452300  0.76576200  0.81098100  1
  O  O17  1  0.57938700  0.67388000  0.15124000  1
  O  O18  1  0.84914300  0.14875900  0.33145500  1
  O  O19  1  0.42061300  0.32612000  0.84876000  1
  O  O20  1  0.15085700  0.85124100  0.66854500  1
  O  O21  1  0.92061300  0.67388000  0.65124000  1
  O  O22  1  0.09745400  0.25915900  0.97741100  1
  O  O23  1  0.01280500  0.04834100  0.92327000  1
  O  O24  1  0.61530800  0.95182700  0.05908600  1
  O  O25  1  0.04036600  0.68623200  0.51118700  1
  O  O26  1  0.82547700  0.23423800  0.18901900  1
  O  O27  1  0.24048900  0.48172900  0.55972800  1
  O  O28  1  0.40254600  0.25915900  0.47741100  1
  O  O29  1  0.89024300  0.80152100  0.84218500  1
  O  O30  1  0.59745400  0.74084100  0.52258900  1
  O  O31  1  0.45963400  0.68623200  0.01118700  1
  O  O32  1  0.10975700  0.19847900  0.15781500  1
  O  O33  1  0.48719500  0.04834100  0.42327000  1
  O  O34  1  0.34914300  0.85124100  0.16854500  1
  O  O35  1  0.51280500  0.95165900  0.57673000  1
  O  O36  1  0.54036600  0.31376800  0.98881300  1
  O  O37  1  0.65085700  0.14875900  0.83145500  1
  O  O38  1  0.95963400  0.31376800  0.48881300  1
  O  O39  1  0.98682700  0.27435900  0.63727300  1
loop_
_geom_bond_atom_site_label_1
_geom_bond_atom_site_label_2
_geom_bond_distance
_geom_bond_site_symmetry_2
Ba0 O13 2.800376 1_555
Ba0 O22 2.838827 1_554
Ba0 O24 2.870767 1_545
Ba0 O36 2.871550 1_554
Ba0 O32 2.897053 1_555
Ba0 O34 2.976813 1_545
Ba0 O1 2.980106 1_555
Ba0 O15 3.018270 1_445
Ba0 N0 3.060684 1_545
Ba0 O12 3.257426 1_554
Ba1 O0 2.800376 1_555
Ba1 O14 2.838827 1_556
Ba1 O12 2.870767 1_565
Ba1 O31 2.871550 1_556
Ba1 O29 2.897053 1_555
Ba1 O37 2.976813 1_565
Ba1 O4 2.980106 1_555
Ba1 O23 3.018270 1_665
Ba1 N5 3.060684 1_565
Ba1 O24 3.257426 1_556
Ba2 O5 2.800376 1_655
Ba2 O30 2.838827 1_555
Ba2 O10 2.870767 1_665
Ba2 O25 2.871550 1_655
Ba2 O2 2.897053 1_555
Ba2 O18 2.976813 1_565
Ba2 O11 2.980106 1_555
Ba2 O33 3.018270 1_565
Ba2 N1 3.060684 1_565
Ba2 O8 3.257426 1_555
Ba3 O39 2.800376 1_455
Ba3 O28 2.838827 1_555
Ba3 O8 2.870767 1_445
Ba3 O38 2.871550 1_455
Ba3 O6 2.897053 1_555
Ba3 O20 2.976813 1_545
Ba3 O27 2.980106 1_555
Ba3 O35 3.018270 1_545
Ba3 N3 3.060684 1_545
Ba3 O10 3.257426 1_555
H1 O10 0.979471 1_555
H7 O24 0.987645 1_555
H9 O0 0.975252 1_555
H12 O5 0.975252 1_555
H13 O10 0.987645 1_555
H18 O24 0.979471 1_555
H22 O13 0.975252 1_555
H25 O39 0.975252 1_555
H27 O13 0.984370 1_555
H38 O8 0.979471 1_555
H39 O12 0.987645 1_555
H42 O39 0.984370 1_555
H47 O12 0.979471 1_555
H49 O8 0.987645 1_555
H53 O5 0.984370 1_555
H63 O0 0.984370 1_555
C0 H14 1.094954 1_555
C0 H58 1.095472 1_555
C0 H41 1.095826 1_555
C0 S2 1.774376 1_565
C1 H57 1.094258 1_655
C1 H19 1.095868 1_655
C1 H28 1.097849 1_555
C1 S11 1.773751 1_655
C2 H2 1.094401 1_555
C2 H29 1.094553 1_555
C2 H61 1.094602 1_555
C2 S9 1.781085 1_555
C3 H4 1.092348 1_555
C3 H23 1.093154 1_555
C3 H5 1.094308 1_555
C3 S14 1.771240 1_556
C4 H60 1.094258 1_555
C4 H52 1.095868 1_555
C4 H37 1.097849 1_555
C4 S15 1.773751 1_555
C5 H30 1.094401 1_555
C5 H16 1.094553 1_555
C5 H26 1.094602 1_555
C5 S7 1.781085 1_555
C6 H11 1.094401 1_555
C6 H17 1.094553 1_555
C6 H50 1.094602 1_555
C6 S3 1.781085 1_555
C7 H40 1.094954 1_555
C7 H34 1.095472 1_555
C7 H54 1.095826 1_555
C7 S8 1.774376 1_545
C8 H55 1.094954 1_555
C8 H8 1.095472 1_555
C8 H10 1.095826 1_655
C8 S4 1.774376 1_565
C9 H21 1.094258 1_555
C9 H56 1.095868 1_555
C9 H24 1.097849 1_555
C9 S1 1.773751 1_555
C10 H43 1.094258 1_455
C10 H33 1.095868 1_455
C10 H46 1.097849 1_555
C10 S10 1.773751 1_455
C11 H44 1.092348 1_555
C11 H51 1.093154 1_555
C11 H31 1.094308 1_555
C11 S5 1.771240 1_554
C12 H35 1.094954 1_555
C12 H0 1.095472 1_555
C12 H6 1.095826 1_455
C12 S6 1.774376 1_545
C13 H20 1.094401 1_555
C13 H62 1.094553 1_555
C13 H3 1.094602 1_555
C13 S13 1.781085 1_555
C14 H15 1.092348 1_555
C14 H32 1.093154 1_555
C14 H48 1.094308 1_555
C14 S12 1.771240 1_555
C15 H45 1.092348 1_555
C15 H36 1.093154 1_555
C15 H59 1.094308 1_555
C15 S0 1.771240 1_555
N0 S11 1.600660 1_555
N0 S14 1.615745 1_555
N1 S15 1.600660 1_555
N1 S12 1.615745 1_555
N2 S3 1.594924 1_555
N2 S2 1.604733 1_555
N3 S1 1.600660 1_555
N3 S0 1.615745 1_555
N4 S7 1.594924 1_655
N4 S6 1.604733 1_655
N5 S10 1.600660 1_555
N5 S5 1.615745 1_555
N6 S13 1.594924 1_555
N6 S8 1.604733 1_555
N7 S9 1.594924 1_455
N7 S4 1.604733 1_455
O1 S14 1.467113 1_555
O2 S8 1.461222 1_555
O3 S9 1.470353 1_455
O4 S5 1.467113 1_555
O6 S2 1.461222 1_555
O7 S8 1.469851 1_555
O9 S2 1.469851 1_555
O11 S12 1.467113 1_555
O14 S11 1.466565 1_655
O15 S11 1.470098 1_655
O16 S6 1.469851 1_555
O17 S13 1.470353 1_555
O18 S9 1.471838 1_555
O19 S3 1.470353 1_555
O20 S7 1.471838 1_555
O21 S7 1.470353 1_655
O22 S10 1.466565 1_455
O23 S10 1.470098 1_455
O25 S0 1.456643 1_555
O26 S4 1.469851 1_555
O27 S0 1.467113 1_555
O28 S15 1.466565 1_555
O29 S6 1.461222 1_655
O30 S1 1.466565 1_555
O31 S14 1.456643 1_555
O32 S4 1.461222 1_455
O33 S15 1.470098 1_555
O34 S13 1.471838 1_555
O35 S1 1.470098 1_555
O36 S5 1.456643 1_555
O37 S3 1.471838 1_555
O38 S12 1.456643 1_555
