# generated using pymatgen
data_CsClO2
_symmetry_space_group_name_H-M   'P 1'
_cell_length_a   4.81287766
_cell_length_b   4.81287766
_cell_length_c   8.57359500
_cell_angle_alpha   90.00000000
_cell_angle_beta   90.00000000
_cell_angle_gamma   90.63910572
_symmetry_Int_Tables_number   1
_chemical_formula_structural   CsClO2
_chemical_formula_sum   'Cs2 Cl2 O4'
_cell_volume   198.58461091
_cell_formula_units_Z   2
loop_
 _symmetry_equiv_pos_site_id
 _symmetry_equiv_pos_as_xyz
  1  'x, y, z'
loop_
 _atom_site_type_symbol
 _atom_site_label
 _atom_site_symmetry_multiplicity
 _atom_site_fract_x
 _atom_site_fract_y
 _atom_site_fract_z
 _atom_site_occupancy
  Cs  Cs0  1  0.50000000  0.50000000  0.00000000  1
  Cs  Cs1  1  0.50000000  0.50000000  0.50000000  1
  Cl  Cl0  1  0.97582400  0.02417600  0.25000000  1
  Cl  Cl1  1  0.02417600  0.97582400  0.75000000  1
  O  O0  1  0.03499200  0.34876100  0.25000000  1
  O  O1  1  0.65123900  0.96500800  0.25000000  1
  O  O2  1  0.34876100  0.03499200  0.75000000  1
  O  O3  1  0.96500800  0.65123900  0.75000000  1
loop_
_geom_bond_atom_site_label_1
_geom_bond_atom_site_label_2
_geom_bond_distance
_geom_bond_site_symmetry_2
Cs0 O2 3.177485 1_554
Cs0 O0 3.177485 1_555
Cs0 O3 3.177485 1_554
Cs0 O1 3.177485 1_555
Cs0 O2 3.434481 1_564
Cs0 O1 3.434481 1_545
Cs0 O0 3.434481 1_655
Cs0 O3 3.434481 1_454
Cs1 O0 3.177485 1_555
Cs1 O3 3.177485 1_555
Cs1 O2 3.177485 1_555
Cs1 O1 3.177485 1_555
Cs1 O2 3.434481 1_565
Cs1 O3 3.434481 1_455
Cs1 O1 3.434481 1_545
Cs1 O0 3.434481 1_655
Cl0 O1 1.584803 1_545
Cl0 O0 1.584803 1_655
Cl1 O3 1.584803 1_455
Cl1 O2 1.584803 1_565
