# generated using pymatgen
data_SrZrSe3
_symmetry_space_group_name_H-M   'P 1'
_cell_length_a   3.99299400
_cell_length_b   9.06305300
_cell_length_c   14.65583800
_cell_angle_alpha   90.00000000
_cell_angle_beta   90.00000000
_cell_angle_gamma   90.00000000
_symmetry_Int_Tables_number   1
_chemical_formula_structural   SrZrSe3
_chemical_formula_sum   'Sr4 Zr4 Se12'
_cell_volume   530.37596280
_cell_formula_units_Z   4
loop_
 _symmetry_equiv_pos_site_id
 _symmetry_equiv_pos_as_xyz
  1  'x, y, z'
loop_
 _atom_site_type_symbol
 _atom_site_label
 _atom_site_symmetry_multiplicity
 _atom_site_fract_x
 _atom_site_fract_y
 _atom_site_fract_z
 _atom_site_occupancy
  Sr  Sr0  1  0.75000000  0.05959600  0.82153600  1
  Sr  Sr1  1  0.25000000  0.94040400  0.17846400  1
  Sr  Sr2  1  0.75000000  0.55959600  0.67846400  1
  Sr  Sr3  1  0.25000000  0.44040400  0.32153600  1
  Zr  Zr0  1  0.75000000  0.33030600  0.05739200  1
  Zr  Zr1  1  0.25000000  0.66969400  0.94260800  1
  Zr  Zr2  1  0.75000000  0.83030600  0.44260800  1
  Zr  Zr3  1  0.25000000  0.16969400  0.55739200  1
  Se  Se0  1  0.75000000  0.48060600  0.89224900  1
  Se  Se1  1  0.25000000  0.51939400  0.10775100  1
  Se  Se2  1  0.75000000  0.98060600  0.60775100  1
  Se  Se3  1  0.25000000  0.01939400  0.39224900  1
  Se  Se4  1  0.75000000  0.33922700  0.48670000  1
  Se  Se5  1  0.25000000  0.66077300  0.51330000  1
  Se  Se6  1  0.75000000  0.83922700  0.01330000  1
  Se  Se7  1  0.25000000  0.16077300  0.98670000  1
  Se  Se8  1  0.75000000  0.21031100  0.21896900  1
  Se  Se9  1  0.25000000  0.78968900  0.78103100  1
  Se  Se10  1  0.75000000  0.71031100  0.28103100  1
  Se  Se11  1  0.25000000  0.28968900  0.71896900  1
loop_
_geom_bond_atom_site_label_1
_geom_bond_atom_site_label_2
_geom_bond_distance
_geom_bond_site_symmetry_2
Se0 Zr1 2.732680 1_555
Se0 Zr1 2.732680 1_655
Se0 Zr0 2.777305 1_556
Se0 Sr2 3.213943 1_555
Se1 Zr0 2.732680 1_455
Se1 Zr0 2.732680 1_555
Se1 Zr1 2.777305 1_554
Se1 Sr3 3.213943 1_555
Se2 Zr3 2.732680 1_665
Se2 Zr3 2.732680 1_565
Se2 Zr2 2.777305 1_555
Se2 Sr0 3.213943 1_565
Se3 Zr2 2.732680 1_545
Se3 Zr2 2.732680 1_445
Se3 Zr3 2.777305 1_555
Se3 Sr1 3.213943 1_545
Se4 Zr3 2.724003 1_555
Se4 Zr3 2.724003 1_655
Se4 Sr3 3.268979 1_555
Se4 Sr3 3.268979 1_655
Se4 Sr2 3.447835 1_555
Se5 Zr2 2.724003 1_455
Se5 Zr2 2.724003 1_555
Se5 Sr2 3.268979 1_455
Se5 Sr2 3.268979 1_555
Se5 Sr3 3.447835 1_555
Se6 Zr1 2.724003 1_654
Se6 Zr1 2.724003 1_554
Se6 Sr1 3.268979 1_555
Se6 Sr1 3.268979 1_655
Se6 Sr0 3.447835 1_564
Se7 Zr0 2.724003 1_456
Se7 Zr0 2.724003 1_556
Se7 Sr0 3.268979 1_555
Se7 Sr0 3.268979 1_455
Se7 Sr1 3.447835 1_546
Se8 Zr0 2.605829 1_555
Se8 Sr1 3.212819 1_545
Se8 Sr1 3.212819 1_645
Se8 Sr3 3.254887 1_555
Se8 Sr3 3.254887 1_655
Se9 Zr1 2.605829 1_555
Se9 Sr0 3.212819 1_565
Se9 Sr0 3.212819 1_465
Se9 Sr2 3.254887 1_455
Se9 Sr2 3.254887 1_555
Se10 Zr2 2.605829 1_555
Se10 Sr3 3.212819 1_555
Se10 Sr3 3.212819 1_655
Se10 Sr1 3.254887 1_655
Se10 Sr1 3.254887 1_555
Se11 Zr3 2.605829 1_555
Se11 Sr2 3.212819 1_455
Se11 Sr2 3.212819 1_555
Se11 Sr0 3.254887 1_555
Se11 Sr0 3.254887 1_455
