# generated using pymatgen
data_Pr(Al4Co)2
_symmetry_space_group_name_H-M   'P 1'
_cell_length_a   3.98970680
_cell_length_b   12.38676032
_cell_length_c   14.30274995
_cell_angle_alpha   90.00000000
_cell_angle_beta   90.00000000
_cell_angle_gamma   90.00000000
_symmetry_Int_Tables_number   1
_chemical_formula_structural   Pr(Al4Co)2
_chemical_formula_sum   'Pr4 Al32 Co8'
_cell_volume   706.83535013
_cell_formula_units_Z   4
loop_
 _symmetry_equiv_pos_site_id
 _symmetry_equiv_pos_as_xyz
  1  'x, y, z'
loop_
 _atom_site_type_symbol
 _atom_site_label
 _atom_site_symmetry_multiplicity
 _atom_site_fract_x
 _atom_site_fract_y
 _atom_site_fract_z
 _atom_site_occupancy
  Pr  Pr0  1  0.00000000  0.65921624  0.68144963  1
  Pr  Pr1  1  0.00000000  0.15921624  0.81855037  1
  Pr  Pr2  1  0.00000000  0.34078376  0.31855037  1
  Pr  Pr3  1  -0.00000000  0.84078376  0.18144963  1
  Al  Al0  1  0.50000000  0.16876732  0.99254791  1
  Al  Al1  1  -0.00000000  0.59594894  0.24721466  1
  Al  Al2  1  0.50000000  0.76423741  0.82860351  1
  Al  Al3  1  0.50000000  0.83123268  0.00745209  1
  Al  Al4  1  0.50000000  0.54618404  0.82158484  1
  Al  Al5  1  0.00000000  0.00000000  0.00000000  1
  Al  Al6  1  0.50000000  0.97280486  0.86831122  1
  Al  Al7  1  0.50000000  0.45381596  0.17841516  1
  Al  Al8  1  0.50000000  0.84192768  0.62026616  1
  Al  Al9  1  0.50000000  0.73576259  0.32860351  1
  Al  Al10  1  0.50000000  0.95381596  0.32158484  1
  Al  Al11  1  0.50000000  0.02719514  0.13168878  1
  Al  Al12  1  0.50000000  0.23576259  0.17139649  1
  Al  Al13  1  0.50000000  0.66876732  0.50745209  1
  Al  Al14  1  -0.00000000  0.40405106  0.75278534  1
  Al  Al15  1  0.00000000  0.09594894  0.25278534  1
  Al  Al16  1  0.50000000  0.52719514  0.36831122  1
  Al  Al17  1  0.50000000  0.15807232  0.37973384  1
  Al  Al18  1  0.50000000  0.65807232  0.12026616  1
  Al  Al19  1  0.50000000  0.26423741  0.67139649  1
  Al  Al20  1  0.50000000  0.04618404  0.67841516  1
  Al  Al21  1  0.50000000  0.33123268  0.49254791  1
  Al  Al22  1  0.00000000  0.15916170  0.54417547  1
  Al  Al23  1  -0.00000000  0.50000000  0.50000000  1
  Al  Al24  1  0.00000000  0.90405106  0.74721466  1
  Al  Al25  1  0.00000000  0.84083830  0.45582453  1
  Al  Al26  1  0.50000000  0.34192768  0.87973384  1
  Al  Al27  1  0.50000000  0.00000000  0.50000000  1
  Al  Al28  1  0.50000000  0.47280486  0.63168878  1
  Al  Al29  1  0.00000000  0.65916170  0.95582453  1
  Al  Al30  1  0.50000000  0.50000000  0.00000000  1
  Al  Al31  1  -0.00000000  0.34083830  0.04417547  1
  Co  Co0  1  0.00000000  0.96519509  0.59461135  1
  Co  Co1  1  -0.00000000  0.46519509  0.90538865  1
  Co  Co2  1  0.00000000  0.03480491  0.40538865  1
  Co  Co3  1  0.00000000  0.15152516  0.09633326  1
  Co  Co4  1  0.00000000  0.53480491  0.09461135  1
  Co  Co5  1  -0.00000000  0.84847484  0.90366674  1
  Co  Co6  1  -0.00000000  0.34847484  0.59633326  1
  Co  Co7  1  -0.00000000  0.65152516  0.40366674  1
loop_
_geom_bond_atom_site_label_1
_geom_bond_atom_site_label_2
_geom_bond_distance
_geom_bond_site_symmetry_2
Al0 Co3 2.495705 1_556
Al0 Co3 2.495705 1_656
Al0 Al11 2.652484 1_556
Al0 Al26 2.684050 1_555
Al0 Al6 3.008230 1_545
Al0 Pr1 3.191674 1_655
Al0 Pr1 3.191674 1_555
Al1 Co4 2.310317 1_555
Al1 Co7 2.341193 1_555
Al1 Al16 2.775716 1_555
Al1 Al16 2.775716 1_455
Al1 Al18 2.805066 1_555
Al1 Al18 2.805066 1_455
Al1 Pr3 3.175232 1_555
Al1 Pr2 3.321271 1_555
Al2 Co5 2.494158 1_555
Al2 Co5 2.494158 1_655
Al2 Al6 2.645163 1_555
Al2 Pr0 3.178284 1_655
Al2 Pr0 3.178284 1_555
Al3 Co5 2.495705 1_554
Al3 Co5 2.495705 1_654
Al3 Al6 2.652484 1_554
Al3 Pr3 3.191674 1_555
Al3 Pr3 3.191674 1_655
Al4 Co1 2.534272 1_555
Al4 Co1 2.534272 1_655
Al4 Pr0 3.155475 1_555
Al4 Pr0 3.155475 1_655
Al5 Co3 2.328345 1_555
Al5 Co5 2.328345 1_544
Al5 Al6 2.764151 1_544
Al5 Al6 2.764151 1_444
Al5 Pr3 3.259552 1_545
Al5 Pr1 3.259552 1_554
Al6 Co5 2.570388 1_555
Al6 Co5 2.570388 1_655
Al6 Pr1 3.133307 1_665
Al6 Pr1 3.133307 1_565
Al7 Co4 2.534272 1_655
Al7 Co4 2.534272 1_555
Al7 Pr2 3.155475 1_555
Al7 Pr2 3.155475 1_655
Al8 Co0 2.538790 1_655
Al8 Co0 2.538790 1_555
Al8 Pr0 3.141228 1_555
Al8 Pr0 3.141228 1_655
Al9 Co7 2.494158 1_555
Al9 Co7 2.494158 1_655
Al9 Pr3 3.178284 1_655
Al9 Pr3 3.178284 1_555
Al10 Co2 2.534272 1_565
Al10 Co2 2.534272 1_665
Al10 Al17 2.663266 1_565
Al10 Al11 2.864089 1_565
Al10 Pr3 3.155475 1_555
Al10 Pr3 3.155475 1_655
Al11 Co3 2.570388 1_655
Al11 Co3 2.570388 1_555
Al11 Al12 2.645163 1_555
Al11 Al5 2.764151 1_655
Al11 Al5 2.764151 1_555
Al11 Al15 2.775716 1_655
Al11 Al15 2.775716 1_555
Al11 Al3 3.008230 1_545
Al11 Pr3 3.133307 1_545
Al11 Pr3 3.133307 1_645
Al12 Co3 2.494158 1_655
Al12 Co3 2.494158 1_555
Al12 Pr2 3.178284 1_655
Al12 Pr2 3.178284 1_555
Al13 Co7 2.495705 1_555
Al13 Co7 2.495705 1_655
Al13 Al16 2.652484 1_555
Al13 Al8 2.684050 1_555
Al13 Al28 3.008230 1_555
Al13 Pr0 3.191674 1_555
Al13 Pr0 3.191674 1_655
Al14 Co1 2.310317 1_555
Al14 Co6 2.341193 1_555
Al14 Al28 2.775716 1_455
Al14 Al28 2.775716 1_555
Al14 Al26 2.805066 1_555
Al14 Al26 2.805066 1_455
Al14 Pr1 3.175232 1_555
Al14 Pr0 3.321271 1_555
Al15 Co2 2.310317 1_555
Al15 Co3 2.341193 1_555
Al15 Al17 2.805066 1_555
Al15 Al17 2.805066 1_455
Al15 Pr2 3.175232 1_555
Al15 Pr3 3.321271 1_545
Al16 Co7 2.570388 1_655
Al16 Co7 2.570388 1_555
Al16 Al9 2.645163 1_555
Al16 Al23 2.764151 1_555
Al16 Al23 2.764151 1_655
Al16 Al7 2.864089 1_555
Al16 Al21 3.008230 1_555
Al16 Pr2 3.133307 1_655
Al16 Pr2 3.133307 1_555
Al17 Co2 2.538790 1_555
Al17 Co2 2.538790 1_655
Al17 Al27 2.606271 1_555
Al17 Al21 2.684050 1_555
Al17 Pr2 3.141228 1_655
Al17 Pr2 3.141228 1_555
Al18 Co4 2.538790 1_555
Al18 Co4 2.538790 1_655
Al18 Al30 2.606271 1_555
Al18 Al7 2.663266 1_555
Al18 Al3 2.684050 1_555
Al18 Pr3 3.141228 1_555
Al18 Pr3 3.141228 1_655
Al19 Co6 2.494158 1_655
Al19 Co6 2.494158 1_555
Al19 Al28 2.645163 1_555
Al19 Pr1 3.178284 1_655
Al19 Pr1 3.178284 1_555
Al20 Co0 2.534272 1_545
Al20 Co0 2.534272 1_645
Al20 Al8 2.663266 1_545
Al20 Al6 2.864089 1_545
Al20 Pr1 3.155475 1_555
Al20 Pr1 3.155475 1_655
Al21 Co6 2.495705 1_555
Al21 Co6 2.495705 1_655
Al21 Al28 2.652484 1_555
Al21 Pr2 3.191674 1_555
Al21 Pr2 3.191674 1_655
Al22 Co6 2.460778 1_555
Al22 Co0 2.508575 1_545
Al22 Co2 2.512592 1_555
Al23 Co6 2.328345 1_555
Al23 Co7 2.328345 1_555
Al23 Al28 2.764151 1_455
Al23 Al28 2.764151 1_555
Al23 Pr2 3.259552 1_555
Al23 Pr0 3.259552 1_555
Al24 Co0 2.310317 1_555
Al24 Co5 2.341193 1_555
Al24 Al6 2.775716 1_555
Al24 Al6 2.775716 1_455
Al24 Al8 2.805066 1_555
Al24 Al8 2.805066 1_455
Al24 Pr0 3.175232 1_555
Al24 Pr1 3.321271 1_565
Al25 Co7 2.460778 1_555
Al25 Co2 2.508575 1_565
Al25 Co0 2.512592 1_555
Al26 Co1 2.538790 1_555
Al26 Co1 2.538790 1_655
Al26 Al30 2.606271 1_556
Al26 Al4 2.663266 1_555
Al26 Pr1 3.141228 1_655
Al26 Pr1 3.141228 1_555
Al27 Co0 2.448767 1_545
Al27 Co0 2.448767 1_645
Al27 Co2 2.448767 1_555
Al27 Co2 2.448767 1_655
Al27 Al8 2.606271 1_545
Al28 Co6 2.570388 1_655
Al28 Co6 2.570388 1_555
Al28 Al4 2.864089 1_555
Al28 Pr0 3.133307 1_555
Al28 Pr0 3.133307 1_655
Al29 Co5 2.460778 1_555
Al29 Co1 2.508575 1_555
Al29 Co4 2.512592 1_556
Al30 Co4 2.448767 1_555
Al30 Co4 2.448767 1_655
Al30 Co1 2.448767 1_654
Al30 Co1 2.448767 1_554
Al31 Co3 2.460778 1_555
Al31 Co4 2.508575 1_555
Al31 Co1 2.512592 1_554
