# generated using pymatgen
data_In5B4Ir9
_symmetry_space_group_name_H-M   'P 1'
_cell_length_a   5.60928766
_cell_length_b   5.60928640
_cell_length_c   10.33288185
_cell_angle_alpha   90.00000000
_cell_angle_beta   90.00000000
_cell_angle_gamma   120.00000150
_symmetry_Int_Tables_number   1
_chemical_formula_structural   In5B4Ir9
_chemical_formula_sum   'In5 B4 Ir9'
_cell_volume   281.55770482
_cell_formula_units_Z   1
loop_
 _symmetry_equiv_pos_site_id
 _symmetry_equiv_pos_as_xyz
  1  'x, y, z'
loop_
 _atom_site_type_symbol
 _atom_site_label
 _atom_site_symmetry_multiplicity
 _atom_site_fract_x
 _atom_site_fract_y
 _atom_site_fract_z
 _atom_site_occupancy
  In  In0  1  0.00000000  0.00000000  -0.00000000  1
  In  In1  1  0.66666700  0.33333300  0.50000000  1
  In  In2  1  0.00000000  0.00000000  0.65713214  1
  In  In3  1  0.00000000  0.00000000  0.34286786  1
  In  In4  1  0.33333300  0.66666700  0.50000000  1
  B  B0  1  0.66666700  0.33333300  0.14676954  1
  B  B1  1  0.33333300  0.66666700  0.85323046  1
  B  B2  1  0.66666700  0.33333300  0.85323046  1
  B  B3  1  0.33333300  0.66666700  0.14676954  1
  Ir  Ir0  1  -0.00000000  0.47609539  0.27583929  1
  Ir  Ir1  1  0.47609539  0.00000000  0.72416071  1
  Ir  Ir2  1  0.47609539  0.00000000  0.27583929  1
  Ir  Ir3  1  -0.00000000  0.47842724  -0.00000000  1
  Ir  Ir4  1  0.52390461  0.52390461  0.72416071  1
  Ir  Ir5  1  -0.00000000  0.47609539  0.72416071  1
  Ir  Ir6  1  0.52157276  0.52157276  -0.00000000  1
  Ir  Ir7  1  0.47842724  0.00000000  -0.00000000  1
  Ir  Ir8  1  0.52390461  0.52390461  0.27583929  1
loop_
_geom_bond_atom_site_label_1
_geom_bond_atom_site_label_2
_geom_bond_distance
_geom_bond_site_symmetry_2
In0 Ir3 2.683635 1_555
In0 Ir6 2.683636 1_445
In0 Ir7 2.683636 1_555
In0 Ir3 2.925651 1_545
In0 Ir6 2.925651 1_555
In0 Ir7 2.925652 1_455
In1 Ir0 2.829291 1_655
In1 Ir5 2.829291 1_655
In1 Ir2 2.829291 1_555
In1 Ir1 2.829291 1_555
In1 Ir8 2.829294 1_555
In1 Ir4 2.829294 1_555
In2 Ir5 2.758905 1_555
In2 Ir4 2.758906 1_445
In2 Ir1 2.758906 1_555
In2 Ir5 3.019244 1_545
In2 Ir4 3.019244 1_555
In2 Ir1 3.019244 1_455
In3 Ir0 2.758905 1_555
In3 Ir8 2.758906 1_445
In3 Ir2 2.758906 1_555
In3 Ir0 3.019244 1_545
In3 Ir8 3.019244 1_555
In3 Ir2 3.019244 1_455
In4 Ir2 2.829291 1_565
In4 Ir1 2.829291 1_565
In4 Ir0 2.829291 1_555
In4 Ir5 2.829291 1_555
In4 Ir8 2.829294 1_555
In4 Ir4 2.829294 1_555
B0 Ir0 2.102056 1_655
B0 Ir2 2.102056 1_555
B0 Ir8 2.102059 1_555
B0 Ir3 2.221841 1_655
B0 Ir7 2.221841 1_555
B0 Ir6 2.221844 1_555
B1 Ir1 2.102055 1_565
B1 Ir5 2.102056 1_555
B1 Ir4 2.102060 1_555
B1 Ir7 2.221841 1_566
B1 Ir3 2.221841 1_556
B1 Ir6 2.221844 1_556
B2 Ir5 2.102056 1_655
B2 Ir1 2.102056 1_555
B2 Ir4 2.102059 1_555
B2 Ir3 2.221841 1_656
B2 Ir7 2.221841 1_556
B2 Ir6 2.221844 1_556
B3 Ir2 2.102055 1_565
B3 Ir0 2.102056 1_555
B3 Ir8 2.102060 1_555
B3 Ir7 2.221841 1_565
B3 Ir3 2.221841 1_555
B3 Ir6 2.221844 1_555
