# generated using pymatgen
data_Cr2P2O7
_symmetry_space_group_name_H-M   'P 1'
_cell_length_a   10.93144818
_cell_length_b   10.93144818
_cell_length_c   9.27815383
_cell_angle_alpha   84.24817086
_cell_angle_beta   84.24817086
_cell_angle_gamma   45.02673610
_symmetry_Int_Tables_number   1
_chemical_formula_structural   Cr2P2O7
_chemical_formula_sum   'Cr12 P12 O42'
_cell_volume   779.71097129
_cell_formula_units_Z   6
loop_
 _symmetry_equiv_pos_site_id
 _symmetry_equiv_pos_as_xyz
  1  'x, y, z'
loop_
 _atom_site_type_symbol
 _atom_site_label
 _atom_site_symmetry_multiplicity
 _atom_site_fract_x
 _atom_site_fract_y
 _atom_site_fract_z
 _atom_site_occupancy
  Cr  Cr0  1  0.36703593  0.98960276  0.81090475  1
  Cr  Cr1  1  0.69815272  0.32196736  0.97810425  1
  Cr  Cr2  1  0.02197506  0.65000477  0.16036968  1
  Cr  Cr3  1  0.98960276  0.36703593  0.31090475  1
  Cr  Cr4  1  0.01039724  0.63296407  0.68909525  1
  Cr  Cr5  1  0.30184728  0.67803264  0.02189575  1
  Cr  Cr6  1  0.32196736  0.69815272  0.47810425  1
  Cr  Cr7  1  0.65000477  0.02197506  0.66036968  1
  Cr  Cr8  1  0.63296407  0.01039724  0.18909525  1
  Cr  Cr9  1  0.97802494  0.34999523  0.83963032  1
  Cr  Cr10  1  0.67803264  0.30184728  0.52189575  1
  Cr  Cr11  1  0.34999523  0.97802494  0.33963032  1
  P  P0  1  0.38093552  0.40723861  0.32251636  1
  P  P1  1  0.61906448  0.59276139  0.67748364  1
  P  P2  1  0.25078076  0.28383792  0.53075824  1
  P  P3  1  0.40723861  0.38093552  0.82251636  1
  P  P4  1  0.28383792  0.25078076  0.03075824  1
  P  P5  1  0.74921924  0.71616208  0.46924176  1
  P  P6  1  0.95570632  0.91887244  0.85291440  1
  P  P7  1  0.04429368  0.08112756  0.14708560  1
  P  P8  1  0.71616208  0.74921924  0.96924176  1
  P  P9  1  0.91887244  0.95570632  0.35291440  1
  P  P10  1  0.59276139  0.61906448  0.17748364  1
  P  P11  1  0.08112756  0.04429368  0.64708560  1
  O  O0  1  0.08473524  0.91526476  0.75000000  1
  O  O1  1  0.21209391  0.21950039  0.42099457  1
  O  O2  1  0.73133732  0.59685496  0.55750863  1
  O  O3  1  0.59685496  0.73133732  0.05750863  1
  O  O4  1  0.81003511  0.09415639  0.91166047  1
  O  O5  1  0.78049961  0.78790609  0.07900543  1
  O  O6  1  0.18996489  0.90584361  0.08833953  1
  O  O7  1  0.41418028  0.13234000  0.60670542  1
  O  O8  1  0.90328245  0.59165618  0.36660729  1
  O  O9  1  0.40314504  0.26866268  0.94249137  1
  O  O10  1  0.07261747  0.77602958  0.96623704  1
  O  O11  1  0.54252910  0.54657650  0.09310546  1
  O  O12  1  0.74548078  0.45063622  0.78720992  1
  O  O13  1  0.78790609  0.78049961  0.57900543  1
  O  O14  1  0.58581972  0.86766000  0.39329458  1
  O  O15  1  0.09415639  0.81003511  0.41166047  1
  O  O16  1  0.54936378  0.25451922  0.71279008  1
  O  O17  1  0.45342350  0.45747090  0.40689454  1
  O  O18  1  0.87112324  0.88773642  0.25774971  1
  O  O19  1  0.77602958  0.07261747  0.46623704  1
  O  O20  1  0.76636423  0.47787825  0.23962860  1
  O  O21  1  0.52212175  0.23363577  0.26037140  1
  O  O22  1  0.45063622  0.74548178  0.28720992  1
  O  O23  1  0.47787825  0.76636423  0.73962860  1
  O  O24  1  0.26866268  0.40314504  0.44249137  1
  O  O25  1  0.59165618  0.90328245  0.86660729  1
  O  O26  1  0.23363577  0.52212175  0.76037140  1
  O  O27  1  0.88773642  0.87112324  0.75774971  1
  O  O28  1  0.22397042  0.92738253  0.53376296  1
  O  O29  1  0.11226358  0.12887676  0.24225029  1
  O  O30  1  0.86766000  0.58581972  0.89329458  1
  O  O31  1  0.09671655  0.40834382  0.63339271  1
  O  O32  1  0.54657650  0.54252910  0.59310546  1
  O  O33  1  0.21950039  0.21209391  0.92099457  1
  O  O34  1  0.92738253  0.22397042  0.03376296  1
  O  O35  1  0.40834382  0.09671755  0.13339271  1
  O  O36  1  0.91526476  0.08473524  0.25000000  1
  O  O37  1  0.45747090  0.45342350  0.90689454  1
  O  O38  1  0.12887676  0.11226358  0.74225029  1
  O  O39  1  0.13234000  0.41418028  0.10670542  1
  O  O40  1  0.25451822  0.54936378  0.21279008  1
  O  O41  1  0.90584361  0.18996489  0.58833953  1
loop_
_geom_bond_atom_site_label_1
_geom_bond_atom_site_label_2
_geom_bond_distance
_geom_bond_site_symmetry_2
Cr0 O23 1.960566 1_555
Cr0 O25 2.016947 1_555
Cr0 O33 2.045188 1_565
Cr0 O38 2.051391 1_565
Cr0 O7 2.576454 1_565
Cr1 O4 1.982110 1_555
Cr1 O34 2.011809 1_556
Cr1 O37 2.058513 1_555
Cr1 O11 2.077981 1_556
Cr1 O12 2.393450 1_555
Cr2 O39 2.022271 1_555
Cr2 O40 2.023909 1_555
Cr2 O5 2.087274 1_455
Cr2 O18 2.098442 1_455
Cr2 O10 2.414426 1_554
Cr2 O8 2.485828 1_455
Cr3 O20 1.960566 1_555
Cr3 O8 2.016947 1_555
Cr3 O1 2.045188 1_655
Cr3 O29 2.051391 1_655
Cr3 O39 2.576454 1_655
Cr4 O26 1.960566 1_555
Cr4 O31 2.016951 1_555
Cr4 O13 2.045188 1_455
Cr4 O27 2.051391 1_455
Cr4 O30 2.576454 1_455
Cr5 O6 1.982110 1_555
Cr5 O10 2.011809 1_554
Cr5 O11 2.058513 1_555
Cr5 O37 2.077981 1_554
Cr5 O40 2.393456 1_555
Cr6 O15 1.982110 1_555
Cr6 O28 2.011809 1_555
Cr6 O17 2.058513 1_555
Cr6 O32 2.077981 1_555
Cr6 O22 2.393456 1_555
Cr7 O7 2.022271 1_555
Cr7 O16 2.023919 1_555
Cr7 O13 2.087274 1_545
Cr7 O27 2.098442 1_545
Cr7 O19 2.414426 1_555
Cr7 O25 2.485828 1_545
Cr8 O21 1.960566 1_555
Cr8 O35 2.016947 1_555
Cr8 O5 2.045188 1_545
Cr8 O18 2.051391 1_545
Cr8 O14 2.576454 1_545
Cr9 O30 2.022271 1_555
Cr9 O12 2.023919 1_555
Cr9 O33 2.087274 1_655
Cr9 O38 2.098442 1_655
Cr9 O34 2.414426 1_556
Cr9 O31 2.485822 1_655
Cr10 O41 1.982110 1_555
Cr10 O19 2.011809 1_555
Cr10 O32 2.058513 1_555
Cr10 O17 2.077981 1_555
Cr10 O16 2.393450 1_555
Cr11 O14 2.022271 1_555
Cr11 O22 2.023909 1_555
Cr11 O1 2.087274 1_565
Cr11 O29 2.098442 1_565
Cr11 O28 2.414426 1_555
Cr11 O35 2.485828 1_565
O0 P6 1.600533 1_455
O0 P11 1.600533 1_565
O1 P2 1.536539 1_555
O2 P5 1.588719 1_555
O2 P1 1.594111 1_555
O3 P8 1.588719 1_554
O3 P10 1.594111 1_555
O4 P6 1.492182 1_545
O5 P8 1.536539 1_554
O6 P7 1.492182 1_565
O7 P2 1.505523 1_555
O8 P5 1.514513 1_555
O9 P4 1.588719 1_556
O9 P3 1.594111 1_555
O10 P6 1.515392 1_455
O11 P10 1.538791 1_555
O12 P1 1.513268 1_555
O13 P5 1.536539 1_555
O14 P5 1.505523 1_555
O15 P9 1.492182 1_455
O16 P3 1.513268 1_555
O17 P0 1.538791 1_555
O18 P9 1.541495 1_555
O19 P9 1.515392 1_545
O20 P10 1.488834 1_555
O21 P0 1.488834 1_555
O22 P10 1.513271 1_555
O23 P1 1.488834 1_555
O24 P2 1.588719 1_555
O24 P0 1.594111 1_555
O25 P8 1.514513 1_555
O26 P3 1.488834 1_555
O27 P6 1.541495 1_555
O28 P11 1.515392 1_565
O29 P7 1.541495 1_555
O30 P8 1.505523 1_555
O31 P2 1.514517 1_555
O32 P1 1.538791 1_555
O33 P4 1.536539 1_556
O34 P7 1.515392 1_655
O35 P4 1.514513 1_555
O36 P7 1.600533 1_655
O36 P9 1.600533 1_545
O37 P3 1.538791 1_555
O38 P11 1.541495 1_555
O39 P4 1.505523 1_555
O40 P0 1.513271 1_555
O41 P11 1.492182 1_655
