# generated using pymatgen
data_SrV4(Bi3O10)2
_symmetry_space_group_name_H-M   'P 1'
_cell_length_a   7.13861967
_cell_length_b   7.95336196
_cell_length_c   9.29269361
_cell_angle_alpha   106.43043273
_cell_angle_beta   94.33901646
_cell_angle_gamma   112.19588246
_symmetry_Int_Tables_number   1
_chemical_formula_structural   SrV4(Bi3O10)2
_chemical_formula_sum   'Sr1 V4 Bi6 O20'
_cell_volume   458.55559936
_cell_formula_units_Z   1
loop_
 _symmetry_equiv_pos_site_id
 _symmetry_equiv_pos_as_xyz
  1  'x, y, z'
loop_
 _atom_site_type_symbol
 _atom_site_label
 _atom_site_symmetry_multiplicity
 _atom_site_fract_x
 _atom_site_fract_y
 _atom_site_fract_z
 _atom_site_occupancy
  Sr  Sr0  1  0.00000000  0.50000000  -0.00000000  1
  V  V0  1  0.05276825  0.77516325  0.75675591  1
  V  V1  1  0.65406889  0.10332170  0.73900647  1
  V  V2  1  0.94723175  0.22483675  0.24324409  1
  V  V3  1  0.34593111  0.89667830  0.26099353  1
  Bi  Bi0  1  0.65813939  0.37406011  0.48594601  1
  Bi  Bi1  1  0.43176091  0.29756571  0.08042200  1
  Bi  Bi2  1  0.34186061  0.62593989  0.51405399  1
  Bi  Bi3  1  0.19721694  0.21210648  0.66951824  1
  Bi  Bi4  1  0.80278306  0.78789352  0.33048176  1
  Bi  Bi5  1  0.56823909  0.70243429  0.91957800  1
  O  O0  1  0.83527424  0.97568362  0.16691712  1
  O  O1  1  0.53335812  0.87501996  0.37207365  1
  O  O2  1  0.76516999  0.31882009  0.24394009  1
  O  O3  1  0.37473603  0.13373917  0.31371079  1
  O  O4  1  0.94335558  0.70317273  0.56661030  1
  O  O5  1  0.05664442  0.29682727  0.43338970  1
  O  O6  1  0.35370076  0.80596822  0.07304779  1
  O  O7  1  0.64629924  0.19403178  0.92695221  1
  O  O8  1  0.89210590  0.25492029  0.72370144  1
  O  O9  1  0.54999606  0.53060238  0.36669351  1
  O  O10  1  0.10789410  0.74507971  0.27629856  1
  O  O11  1  0.45000394  0.46939762  0.63330649  1
  O  O12  1  0.23483001  0.68117991  0.75605991  1
  O  O13  1  0.67039840  0.58818170  0.10212312  1
  O  O14  1  0.46664188  0.12498004  0.62792635  1
  O  O15  1  0.32960160  0.41181830  0.89787688  1
  O  O16  1  0.86937983  0.66728193  0.85156119  1
  O  O17  1  0.62526397  0.86626083  0.68628921  1
  O  O18  1  0.16472576  0.02431638  0.83308288  1
  O  O19  1  0.13062017  0.33271807  0.14843881  1
loop_
_geom_bond_atom_site_label_1
_geom_bond_atom_site_label_2
_geom_bond_distance
_geom_bond_site_symmetry_2
Bi0 O9 2.179774 1_555
Bi0 O3 2.272836 1_555
Bi0 O11 2.286795 1_555
Bi0 O2 2.406030 1_555
Bi0 O4 2.488252 1_555
Bi0 O14 2.690609 1_555
Bi1 O13 2.234842 1_555
Bi1 O15 2.328223 1_554
Bi1 O19 2.378809 1_555
Bi1 O7 2.382533 1_554
Bi1 O9 2.629354 1_555
Bi1 O2 2.646842 1_555
Bi1 O18 2.649701 1_554
Bi1 O3 2.809604 1_555
Bi2 O11 2.179774 1_555
Bi2 O17 2.272836 1_555
Bi2 O9 2.286795 1_555
Bi2 O12 2.406030 1_555
Bi2 O5 2.488252 1_555
Bi2 O1 2.690609 1_555
Bi3 O15 2.138889 1_555
Bi3 O11 2.290963 1_555
Bi3 O14 2.301449 1_555
Bi3 O18 2.381308 1_555
Bi3 O8 2.396410 1_455
Bi3 O5 2.699990 1_555
Bi4 O13 2.138889 1_555
Bi4 O9 2.290963 1_555
Bi4 O1 2.301449 1_555
Bi4 O0 2.381308 1_555
Bi4 O10 2.396410 1_655
Bi4 O4 2.699990 1_555
Bi5 O15 2.234842 1_555
Bi5 O13 2.328223 1_556
Bi5 O16 2.378809 1_555
Bi5 O6 2.382533 1_556
Bi5 O11 2.629354 1_555
Bi5 O12 2.646842 1_555
Bi5 O0 2.649701 1_556
Bi5 O17 2.809604 1_555
O0 V2 1.729486 1_565
O1 V3 1.717871 1_555
O2 V2 1.726399 1_555
O3 V3 1.733911 1_545
O4 V0 1.714936 1_655
O5 V2 1.714936 1_455
O6 V3 1.704698 1_555
O6 Sr0 2.630913 1_555
O7 V1 1.704698 1_555
O7 Sr0 2.630913 1_656
O8 V1 1.716696 1_555
O8 Sr0 2.592349 1_656
O10 V3 1.716696 1_555
O10 Sr0 2.592349 1_555
O12 V0 1.726399 1_555
O13 Sr0 2.852503 1_655
O14 V1 1.717871 1_555
O15 Sr0 2.852503 1_556
O16 V0 1.726168 1_655
O16 Sr0 2.514594 1_656
O17 V1 1.733911 1_565
O18 V0 1.729486 1_545
O19 V2 1.726168 1_455
O19 Sr0 2.514594 1_555
