# generated using pymatgen
data_CS3(Br2N)2
_symmetry_space_group_name_H-M   'P 1'
_cell_length_a   7.92813800
_cell_length_b   11.11555300
_cell_length_c   12.45466200
_cell_angle_alpha   90.00000000
_cell_angle_beta   90.00000000
_cell_angle_gamma   90.00000000
_symmetry_Int_Tables_number   1
_chemical_formula_structural   CS3(Br2N)2
_chemical_formula_sum   'C4 S12 Br16 N8'
_cell_volume   1097.57503645
_cell_formula_units_Z   4
loop_
 _symmetry_equiv_pos_site_id
 _symmetry_equiv_pos_as_xyz
  1  'x, y, z'
loop_
 _atom_site_type_symbol
 _atom_site_label
 _atom_site_symmetry_multiplicity
 _atom_site_fract_x
 _atom_site_fract_y
 _atom_site_fract_z
 _atom_site_occupancy
  C  C0  1  0.94010400  0.44327000  0.50012700  1
  C  C1  1  0.44010400  0.44327000  0.99987300  1
  C  C2  1  0.55989600  0.94327000  0.00012700  1
  C  C3  1  0.05989600  0.94327000  0.49987300  1
  S  S0  1  0.29200700  0.01762500  0.92636000  1
  S  S1  1  0.79200700  0.01762500  0.57364000  1
  S  S2  1  0.76895800  0.42275000  0.58267200  1
  S  S3  1  0.46246700  0.36102900  0.12227000  1
  S  S4  1  0.20799300  0.51762500  0.42636000  1
  S  S5  1  0.70799300  0.51762500  0.07364000  1
  S  S6  1  0.73104200  0.92275000  0.08267200  1
  S  S7  1  0.53753300  0.86102900  0.87773000  1
  S  S8  1  0.23104200  0.92275000  0.41732800  1
  S  S9  1  0.26895800  0.42275000  0.91732800  1
  S  S10  1  0.96246700  0.36102900  0.37773000  1
  S  S11  1  0.03753300  0.86102900  0.62227000  1
  Br  Br0  1  0.10646100  0.24734700  0.08543400  1
  Br  Br1  1  0.36734200  0.70481400  0.20012800  1
  Br  Br2  1  0.86734200  0.70481400  0.29987200  1
  Br  Br3  1  0.89353900  0.74734700  0.91456600  1
  Br  Br4  1  0.63265800  0.20481400  0.79987200  1
  Br  Br5  1  0.66811500  0.04753500  0.21739600  1
  Br  Br6  1  0.39353900  0.74734700  0.58543400  1
  Br  Br7  1  0.16811500  0.04753500  0.28260400  1
  Br  Br8  1  0.60646100  0.24734700  0.41456600  1
  Br  Br9  1  0.83188500  0.54753500  0.71739600  1
  Br  Br10  1  0.35828300  0.22547200  0.56361400  1
  Br  Br11  1  0.14171700  0.72547200  0.06361400  1
  Br  Br12  1  0.33188500  0.54753500  0.78260400  1
  Br  Br13  1  0.64171700  0.72547200  0.43638600  1
  Br  Br14  1  0.85828300  0.22547200  0.93638600  1
  Br  Br15  1  0.13265800  0.20481400  0.70012800  1
  N  N0  1  0.14115200  0.42069900  0.34313100  1
  N  N1  1  0.43294100  0.01806000  0.01898400  1
  N  N2  1  0.64115200  0.42069900  0.15686900  1
  N  N3  1  0.35884800  0.92069900  0.84313100  1
  N  N4  1  0.85884800  0.92069900  0.65686900  1
  N  N5  1  0.06705900  0.51806000  0.51898400  1
  N  N6  1  0.56705900  0.51806000  0.98101600  1
  N  N7  1  0.93294100  0.01806000  0.48101600  1
loop_
_geom_bond_atom_site_label_1
_geom_bond_atom_site_label_2
_geom_bond_distance
_geom_bond_site_symmetry_2
C0 N5 1.326404 1_655
C0 S2 1.717570 1_555
C0 S10 1.786322 1_555
C1 N6 1.326404 1_555
C1 S9 1.717570 1_555
C1 S3 1.786322 1_556
C2 N1 1.326404 1_565
C2 S6 1.717570 1_555
C2 S7 1.786322 1_554
C3 N7 1.326404 1_465
C3 S8 1.717570 1_555
C3 S11 1.786322 1_555
Br0 Br14 2.715978 1_454
Br1 Br11 2.478565 1_555
Br5 S6 2.233451 1_545
Br7 S8 2.233451 1_545
Br9 S2 2.233451 1_555
Br10 Br15 2.478565 1_555
Br10 Br8 2.715978 1_555
Br11 Br3 2.715978 1_454
Br12 S9 2.233451 1_555
Br13 Br2 2.478565 1_555
Br13 Br6 2.715978 1_555
Br14 Br4 2.478565 1_555
N0 S4 1.586221 1_555
N0 S10 1.622491 1_455
N1 S0 1.606012 1_554
N2 S5 1.586221 1_555
N2 S3 1.622491 1_555
N3 S0 1.586221 1_565
N3 S7 1.622491 1_555
N4 S1 1.586221 1_565
N4 S11 1.622491 1_655
N5 S4 1.606012 1_555
N6 S5 1.606012 1_556
N7 S1 1.606012 1_555
