# generated using pymatgen
data_Gd(NiAs)2
_symmetry_space_group_name_H-M   'P 1'
_cell_length_a   4.03123737
_cell_length_b   4.03123677
_cell_length_c   5.71411237
_cell_angle_alpha   110.65524239
_cell_angle_beta   110.65523964
_cell_angle_gamma   89.99999464
_symmetry_Int_Tables_number   1
_chemical_formula_structural   Gd(NiAs)2
_chemical_formula_sum   'Gd1 Ni2 As2'
_cell_volume   80.47979879
_cell_formula_units_Z   1
loop_
 _symmetry_equiv_pos_site_id
 _symmetry_equiv_pos_as_xyz
  1  'x, y, z'
loop_
 _atom_site_type_symbol
 _atom_site_label
 _atom_site_symmetry_multiplicity
 _atom_site_fract_x
 _atom_site_fract_y
 _atom_site_fract_z
 _atom_site_occupancy
  Gd  Gd0  1  0.00000000  -0.00000000  0.00000000  1
  Ni  Ni0  1  0.25000000  0.75000000  0.50000000  1
  Ni  Ni1  1  0.75000000  0.25000000  0.50000000  1
  As  As0  1  0.36936079  0.36936079  0.73872259  1
  As  As1  1  0.63063921  0.63063921  0.26127741  1
loop_
_geom_bond_atom_site_label_1
_geom_bond_atom_site_label_2
_geom_bond_distance
_geom_bond_site_symmetry_2
Gd0 Ni0 3.192824 1_555
Gd0 Ni1 3.192824 1_444
Gd0 Ni0 3.192825 1_545
Gd0 Ni1 3.192825 1_454
Gd0 Ni1 3.192825 1_455
Gd0 Ni0 3.192825 1_544
Gd0 Ni1 3.192825 1_555
Gd0 Ni0 3.192825 1_444
As0 Ni0 2.336747 1_545
As0 Ni1 2.336748 1_455
As0 Ni0 2.336751 1_555
As0 Ni1 2.336751 1_555
As0 As1 2.587868 1_556
As0 Gd0 3.130445 1_556
As0 Gd0 3.130447 1_566
As0 Gd0 3.130447 1_656
As0 Gd0 3.130450 1_666
As1 Ni1 2.336747 1_565
As1 Ni0 2.336748 1_655
As1 Ni1 2.336751 1_555
As1 Ni0 2.336751 1_555
As1 Gd0 3.130445 1_665
As1 Gd0 3.130447 1_655
As1 Gd0 3.130447 1_565
As1 Gd0 3.130450 1_555
