# generated using pymatgen
data_Cu3BiSe2ClO8
_symmetry_space_group_name_H-M   'P 1'
_cell_length_a   6.42135600
_cell_length_b   7.32125000
_cell_length_c   9.75914600
_cell_angle_alpha   90.00000000
_cell_angle_beta   90.00000000
_cell_angle_gamma   90.00000000
_symmetry_Int_Tables_number   1
_chemical_formula_structural   Cu3BiSe2ClO8
_chemical_formula_sum   'Cu6 Bi2 Se4 Cl2 O16'
_cell_volume   458.80041297
_cell_formula_units_Z   2
loop_
 _symmetry_equiv_pos_site_id
 _symmetry_equiv_pos_as_xyz
  1  'x, y, z'
loop_
 _atom_site_type_symbol
 _atom_site_label
 _atom_site_symmetry_multiplicity
 _atom_site_fract_x
 _atom_site_fract_y
 _atom_site_fract_z
 _atom_site_occupancy
  Cu  Cu0  1  0.75000000  0.00000000  0.75000000  1
  Cu  Cu1  1  0.25000000  0.00000000  0.75000000  1
  Cu  Cu2  1  0.25000000  0.00000000  0.25000000  1
  Cu  Cu3  1  0.75000000  0.00000000  0.25000000  1
  Cu  Cu4  1  0.50000000  0.79350700  0.50000000  1
  Cu  Cu5  1  0.00000000  0.20649300  0.00000000  1
  Bi  Bi0  1  0.50000000  0.24761000  0.50000000  1
  Bi  Bi1  1  0.00000000  0.75239000  0.00000000  1
  Se  Se0  1  0.50000000  0.60894000  0.19281000  1
  Se  Se1  1  0.00000000  0.39106000  0.30719000  1
  Se  Se2  1  0.50000000  0.60894000  0.80719000  1
  Se  Se3  1  0.00000000  0.39106000  0.69281000  1
  Cl  Cl0  1  0.50000000  0.15115700  0.00000000  1
  Cl  Cl1  1  0.00000000  0.84884300  0.50000000  1
  O  O0  1  0.50000000  0.99124200  0.63635700  1
  O  O1  1  0.00000000  0.00875800  0.86364300  1
  O  O2  1  0.50000000  0.99124200  0.36364300  1
  O  O3  1  0.00000000  0.00875800  0.13635700  1
  O  O4  1  0.71137500  0.75466200  0.16591600  1
  O  O5  1  0.21137500  0.24533800  0.33408400  1
  O  O6  1  0.28862500  0.75466200  0.83408400  1
  O  O7  1  0.78862500  0.24533800  0.66591600  1
  O  O8  1  0.78862500  0.24533800  0.33408400  1
  O  O9  1  0.28862500  0.75466200  0.16591600  1
  O  O10  1  0.21137500  0.24533800  0.66591600  1
  O  O11  1  0.71137500  0.75466200  0.83408400  1
  O  O12  1  0.50000000  0.58763600  0.63206500  1
  O  O13  1  0.00000000  0.41236400  0.86793500  1
  O  O14  1  0.50000000  0.58763600  0.36793500  1
  O  O15  1  0.00000000  0.41236400  0.13206500  1
loop_
_geom_bond_atom_site_label_1
_geom_bond_atom_site_label_2
_geom_bond_distance
_geom_bond_site_symmetry_2
Cu0 O1 1.952239 1_655
Cu0 O0 1.952239 1_545
Cu0 O11 1.990263 1_545
Cu0 O7 1.990263 1_555
Cu1 O0 1.952239 1_545
Cu1 O1 1.952239 1_555
Cu1 O6 1.990263 1_545
Cu1 O10 1.990263 1_555
Cu2 O3 1.952239 1_555
Cu2 O2 1.952239 1_545
Cu2 O9 1.990263 1_545
Cu2 O5 1.990263 1_555
Cu3 O3 1.952239 1_655
Cu3 O2 1.952239 1_545
Cu3 O4 1.990263 1_545
Cu3 O8 1.990263 1_555
Cu4 O0 1.966361 1_555
Cu4 O2 1.966361 1_555
Cu4 O12 1.983145 1_555
Cu4 O14 1.983145 1_555
Cu5 O1 1.966361 1_554
Cu5 O3 1.966361 1_555
Cu5 O15 1.983145 1_555
Cu5 O13 1.983145 1_554
Bi0 O0 2.300808 1_545
Bi0 O2 2.300808 1_545
Bi0 O7 2.461105 1_555
Bi0 O10 2.461105 1_555
Bi0 O8 2.461105 1_555
Bi0 O5 2.461105 1_555
Bi0 O14 2.803266 1_555
Bi0 O12 2.803266 1_555
Bi1 O1 2.300808 1_564
Bi1 O3 2.300808 1_565
Bi1 O11 2.461105 1_454
Bi1 O6 2.461105 1_554
Bi1 O9 2.461105 1_555
Bi1 O4 2.461105 1_455
Bi1 O15 2.803266 1_555
Bi1 O13 2.803266 1_554
O4 Se0 1.746251 1_555
O5 Se1 1.746251 1_555
O6 Se2 1.746251 1_555
O7 Se3 1.746251 1_655
O8 Se1 1.746251 1_655
O9 Se0 1.746251 1_555
O10 Se3 1.746251 1_555
O11 Se2 1.746251 1_555
O12 Se2 1.716173 1_555
O13 Se3 1.716173 1_555
O14 Se0 1.716173 1_555
O15 Se1 1.716173 1_555
