# generated using pymatgen
data_LiCo5(P2O7)4
_symmetry_space_group_name_H-M   'P 1'
_cell_length_a   12.41098250
_cell_length_b   9.18492398
_cell_length_c   10.58225512
_cell_angle_alpha   63.68377811
_cell_angle_beta   85.08452924
_cell_angle_gamma   72.90927106
_symmetry_Int_Tables_number   1
_chemical_formula_structural   LiCo5(P2O7)4
_chemical_formula_sum   'Li2 Co10 P16 O56'
_cell_volume   1032.14118393
_cell_formula_units_Z   2
loop_
 _symmetry_equiv_pos_site_id
 _symmetry_equiv_pos_as_xyz
  1  'x, y, z'
loop_
 _atom_site_type_symbol
 _atom_site_label
 _atom_site_symmetry_multiplicity
 _atom_site_fract_x
 _atom_site_fract_y
 _atom_site_fract_z
 _atom_site_occupancy
  Li  Li0  1  0.25000000  0.50000000  0.50000000  1
  Li  Li1  1  0.75000000  0.50000000  0.50000000  1
  Co  Co0  1  0.50808846  0.82646449  0.98505469  1
  Co  Co1  1  0.35624262  0.88930779  0.71987878  1
  Co  Co2  1  0.31410213  0.50232355  0.75515280  1
  Co  Co3  1  0.68536284  0.49684451  0.24163047  1
  Co  Co4  1  0.63799747  0.09082774  0.28684598  1
  Co  Co5  1  0.86200253  0.90917226  0.71315402  1
  Co  Co6  1  0.18589787  0.49767645  0.24484720  1
  Co  Co7  1  0.14375738  0.11069221  0.28012122  1
  Co  Co8  1  0.81463716  0.50315549  0.75836953  1
  Co  Co9  1  0.99191154  0.17353551  0.01494531  1
  P  P0  1  0.53814537  0.80252041  0.28744346  1
  P  P1  1  0.44473035  0.44545825  0.19976817  1
  P  P2  1  0.44950282  0.17247642  0.70661884  1
  P  P3  1  0.65094589  0.18873882  0.53632553  1
  P  P4  1  0.84905411  0.81126118  0.46367447  1
  P  P5  1  0.94316405  0.44158701  0.20275999  1
  P  P6  1  0.29282817  0.68849162  0.96060664  1
  P  P7  1  0.05049718  0.82752358  0.29338116  1
  P  P8  1  0.34819504  0.80379570  0.46511526  1
  P  P9  1  0.55683595  0.55841299  0.79724001  1
  P  P10  1  0.15180496  0.19620430  0.53488474  1
  P  P11  1  0.78639208  0.69838710  0.95227154  1
  P  P12  1  0.20717183  0.31150838  0.03939336  1
  P  P13  1  0.71360792  0.30161290  0.04772846  1
  P  P14  1  0.05526965  0.55454175  0.80023183  1
  P  P15  1  0.96185463  0.19747959  0.71255654  1
  O  O0  1  0.68840066  0.34506752  0.43979575  1
  O  O1  1  0.77376630  0.68482845  0.81372400  1
  O  O2  1  0.72559793  0.07989980  0.67310493  1
  O  O3  1  0.34076441  0.48300495  0.28182069  1
  O  O4  1  0.52588633  0.54753691  0.19312346  1
  O  O5  1  0.39610085  0.52441302  0.03810971  1
  O  O6  1  0.15229887  0.67478645  0.30730756  1
  O  O7  1  0.16317085  0.15322937  0.07804724  1
  O  O8  1  0.30909496  0.32924979  0.95126282  1
  O  O9  1  0.65903730  0.53910659  0.70746949  1
  O  O10  1  0.45790033  0.71048813  0.40827664  1
  O  O11  1  0.19090504  0.67075021  0.04873718  1
  O  O12  1  0.94777175  0.06404050  0.67472292  1
  O  O13  1  0.47287016  0.48170227  0.77101687  1
  O  O14  1  0.41799361  0.07265421  0.63838072  1
  O  O15  1  0.10389915  0.47558698  0.96189029  1
  O  O16  1  0.81872049  0.32025260  0.95628893  1
  O  O17  1  0.89036791  0.54424691  0.04190098  1
  O  O18  1  0.96589214  0.73595190  0.40533455  1
  O  O19  1  0.02712984  0.51829773  0.22898313  1
  O  O20  1  0.81159934  0.65493248  0.56020425  1
  O  O21  1  0.86547169  0.91877764  0.53200443  1
  O  O22  1  0.33682915  0.84677063  0.92195276  1
  O  O23  1  0.84096270  0.46089341  0.29253051  1
  O  O24  1  0.68127951  0.67974740  0.04371107  1
  O  O25  1  0.68396883  0.13678021  0.09200692  1
  O  O26  1  0.77440207  0.92010020  0.32689507  1
  O  O27  1  0.11420705  0.11781208  0.45172728  1
  O  O28  1  0.15923559  0.51699505  0.71817931  1
  O  O29  1  0.53410786  0.26404810  0.59466545  1
  O  O30  1  0.00167481  0.73983618  0.76204471  1
  O  O31  1  0.50784923  0.05812374  0.85194517  1
  O  O32  1  0.99215077  0.94187626  0.14805483  1
  O  O33  1  0.65075485  0.66294274  0.31197726  1
  O  O34  1  0.08200639  0.92734579  0.36161928  1
  O  O35  1  0.28392894  0.94839323  0.32834228  1
  O  O36  1  0.99488217  0.26339440  0.20578439  1
  O  O37  1  0.63452831  0.08122236  0.46799557  1
  O  O38  1  0.34770113  0.32521355  0.69269244  1
  O  O39  1  0.81603117  0.86321979  0.90799308  1
  O  O40  1  0.02314126  0.12498433  0.85516489  1
  O  O41  1  0.84924515  0.33705726  0.68802274  1
  O  O42  1  0.55222825  0.93595950  0.32527708  1
  O  O43  1  0.50511783  0.73660560  0.79421561  1
  O  O44  1  0.38579295  0.88218792  0.54827272  1
  O  O45  1  0.72623370  0.31517155  0.18627600  1
  O  O46  1  0.29446919  0.66210190  0.55431073  1
  O  O47  1  0.04209967  0.28951187  0.59172336  1
  O  O48  1  0.20553081  0.33789810  0.44568927  1
  O  O49  1  0.47685874  0.87501567  0.14483511  1
  O  O50  1  0.60963209  0.45575309  0.95809902  1
  O  O51  1  0.21607106  0.05160677  0.67165772  1
  O  O52  1  0.97411367  0.45246309  0.80687654  1
  O  O53  1  0.21884978  0.30034744  0.19087274  1
  O  O54  1  0.49832519  0.26016382  0.23795529  1
  O  O55  1  0.28115022  0.69965256  0.80912726  1
loop_
_geom_bond_atom_site_label_1
_geom_bond_atom_site_label_2
_geom_bond_distance
_geom_bond_site_symmetry_2
Li0 O48 2.036611 1_555
Li0 O46 2.036611 1_555
Li0 O38 2.140710 1_555
Li0 O6 2.140710 1_555
Li0 O3 2.528733 1_555
Li0 O28 2.528733 1_555
Li1 O33 2.100509 1_555
Li1 O41 2.100509 1_555
Li1 O0 2.131241 1_555
Li1 O20 2.131241 1_555
Li1 O23 2.501965 1_555
Li1 O9 2.501965 1_555
Co0 O49 1.913808 1_556
Co0 O31 1.962430 1_565
Co0 O24 2.146149 1_556
Co0 O22 2.213193 1_555
Co0 O4 2.491894 1_556
Co0 O43 2.503893 1_555
Co1 O44 1.847600 1_555
Co1 O51 1.860757 1_565
Co1 O14 1.877409 1_565
Co1 O43 1.935862 1_555
Co1 O22 2.002426 1_555
Co1 O55 2.034619 1_555
Co2 O13 1.938022 1_555
Co2 O38 1.940223 1_555
Co2 O28 1.948178 1_555
Co2 O46 1.960429 1_555
Co2 O8 1.987112 1_555
Co2 O55 2.054421 1_555
Co3 O33 1.906078 1_555
Co3 O45 1.924337 1_555
Co3 O0 1.932101 1_555
Co3 O23 1.942741 1_555
Co3 O4 1.954044 1_555
Co3 O24 2.014915 1_555
Co4 O26 1.864919 1_545
Co4 O37 1.876846 1_555
Co4 O54 1.883396 1_555
Co4 O42 1.903881 1_545
Co4 O25 1.980704 1_555
Co4 O45 2.400014 1_555
Co5 O2 1.864919 1_565
Co5 O21 1.876846 1_555
Co5 O30 1.883396 1_655
Co5 O12 1.903881 1_565
Co5 O39 1.980704 1_555
Co5 O1 2.400014 1_555
Co6 O19 1.938022 1_555
Co6 O6 1.940223 1_555
Co6 O3 1.948178 1_555
Co6 O48 1.960429 1_555
Co6 O11 1.987112 1_555
Co6 O53 2.054421 1_555
Co7 O27 1.847600 1_555
Co7 O35 1.860757 1_545
Co7 O34 1.877409 1_545
Co7 O36 1.935862 1_455
Co7 O7 2.002426 1_555
Co7 O53 2.034619 1_555
Co8 O41 1.906078 1_555
Co8 O1 1.924337 1_555
Co8 O20 1.932101 1_555
Co8 O9 1.942741 1_555
Co8 O52 1.954044 1_555
Co8 O16 2.014915 1_555
Co9 O40 1.913808 1_654
Co9 O32 1.962430 1_545
Co9 O16 2.146149 1_554
Co9 O7 2.213193 1_655
Co9 O52 2.491894 1_554
Co9 O36 2.503893 1_555
O0 P3 1.526998 1_555
O1 P11 1.549961 1_555
O2 P3 1.534699 1_555
O3 P1 1.532890 1_555
O4 P1 1.543693 1_555
O5 P6 1.592338 1_554
O5 P1 1.623701 1_555
O6 P7 1.546901 1_555
O7 P12 1.574837 1_555
O8 P12 1.510202 1_556
O9 P9 1.534094 1_555
O10 P8 1.606529 1_555
O10 P0 1.630847 1_555
O11 P6 1.510202 1_554
O12 P15 1.505319 1_555
O13 P9 1.521149 1_555
O14 P2 1.536611 1_555
O15 P12 1.592338 1_556
O15 P14 1.623701 1_555
O16 P13 1.560623 1_556
O17 P11 1.585733 1_554
O17 P5 1.618937 1_555
O18 P4 1.611827 1_555
O18 P7 1.623562 1_655
O19 P5 1.521149 1_455
O20 P4 1.526998 1_555
O21 P4 1.521918 1_555
O22 P6 1.574837 1_555
O23 P5 1.534094 1_555
O24 P11 1.560623 1_554
O25 P13 1.521777 1_555
O26 P4 1.534699 1_555
O27 P10 1.529777 1_555
O28 P14 1.532890 1_555
O29 P3 1.611827 1_555
O29 P2 1.623562 1_555
O30 P14 1.507693 1_555
O31 P2 1.517975 1_555
O32 P7 1.517975 1_655
O33 P0 1.542131 1_555
O34 P7 1.536611 1_555
O35 P8 1.538103 1_555
O36 P5 1.559282 1_555
O37 P3 1.521918 1_555
O38 P2 1.546901 1_555
O39 P11 1.521777 1_555
O40 P15 1.519020 1_455
O41 P15 1.542131 1_555
O42 P0 1.505319 1_555
O43 P9 1.559282 1_555
O44 P8 1.529777 1_555
O45 P13 1.549961 1_555
O46 P8 1.530466 1_555
O47 P10 1.606529 1_555
O47 P15 1.630847 1_455
O48 P10 1.530466 1_555
O49 P0 1.519020 1_555
O50 P13 1.585733 1_556
O50 P9 1.618937 1_555
O51 P10 1.538103 1_555
O52 P14 1.543693 1_655
O53 P12 1.576859 1_555
O54 P1 1.507693 1_555
O55 P6 1.576859 1_555
