# generated using pymatgen
data_Ca3UO6
_symmetry_space_group_name_H-M   'P 1'
_cell_length_a   5.71412900
_cell_length_b   5.95687692
_cell_length_c   8.27568652
_cell_angle_alpha   90.00000000
_cell_angle_beta   90.91493592
_cell_angle_gamma   90.00000000
_symmetry_Int_Tables_number   1
_chemical_formula_structural   Ca3UO6
_chemical_formula_sum   'Ca6 U2 O12'
_cell_volume   281.65490855
_cell_formula_units_Z   2
loop_
 _symmetry_equiv_pos_site_id
 _symmetry_equiv_pos_as_xyz
  1  'x, y, z'
loop_
 _atom_site_type_symbol
 _atom_site_label
 _atom_site_symmetry_multiplicity
 _atom_site_fract_x
 _atom_site_fract_y
 _atom_site_fract_z
 _atom_site_occupancy
  Ca  Ca0  1  0.51684015  0.55471644  0.24017507  1
  Ca  Ca1  1  0.98315985  0.05471644  0.25982493  1
  Ca  Ca2  1  -0.00000000  0.50000000  0.50000000  1
  Ca  Ca3  1  0.50000000  0.00000000  -0.00000000  1
  Ca  Ca4  1  0.01684015  0.94528356  0.74017507  1
  Ca  Ca5  1  0.48315985  0.44528356  0.75982493  1
  U  U0  1  -0.00000000  0.50000000  -0.00000000  1
  U  U1  1  0.50000000  0.00000000  0.50000000  1
  O  O0  1  0.87043722  0.57039344  0.76795539  1
  O  O1  1  0.62956278  0.07039344  0.73204461  1
  O  O2  1  0.12956278  0.42960656  0.23204461  1
  O  O3  1  0.37043722  0.92960656  0.26795539  1
  O  O4  1  0.79529697  0.82108483  0.44546316  1
  O  O5  1  0.70470303  0.32108483  0.05453684  1
  O  O6  1  0.20470303  0.17891517  0.55453684  1
  O  O7  1  0.29529697  0.67891517  0.94546316  1
  O  O8  1  0.17747394  0.21621759  0.91673454  1
  O  O9  1  0.32252606  0.71621759  0.58326546  1
  O  O10  1  0.82252606  0.78378241  0.08326546  1
  O  O11  1  0.67747394  0.28378241  0.41673454  1
loop_
_geom_bond_atom_site_label_1
_geom_bond_atom_site_label_2
_geom_bond_distance
_geom_bond_site_symmetry_2
Ca0 O2 2.335027 1_555
Ca0 O5 2.345645 1_555
Ca0 O11 2.353588 1_555
Ca0 O3 2.397062 1_555
Ca0 O10 2.582944 1_555
Ca0 O4 2.801668 1_555
Ca0 O7 2.828386 1_554
Ca1 O3 2.335027 1_645
Ca1 O4 2.345645 1_545
Ca1 O10 2.353588 1_545
Ca1 O2 2.397062 1_655
Ca1 O11 2.582944 1_555
Ca1 O5 2.801668 1_555
Ca1 O6 2.828386 1_655
Ca2 O4 2.283268 1_455
Ca2 O6 2.283268 1_555
Ca2 O9 2.343001 1_555
Ca2 O11 2.343001 1_455
Ca2 O2 2.386155 1_555
Ca2 O0 2.386155 1_455
Ca3 O5 2.283268 1_555
Ca3 O7 2.283268 1_544
Ca3 O8 2.343001 1_554
Ca3 O10 2.343001 1_545
Ca3 O3 2.386155 1_545
Ca3 O1 2.386155 1_554
Ca4 O1 2.335027 1_465
Ca4 O6 2.345645 1_565
Ca4 O8 2.353588 1_565
Ca4 O0 2.397062 1_455
Ca4 O9 2.582944 1_555
Ca4 O7 2.801668 1_555
Ca4 O4 2.828386 1_455
Ca5 O0 2.335027 1_555
Ca5 O7 2.345645 1_555
Ca5 O9 2.353588 1_555
Ca5 O1 2.397062 1_555
Ca5 O8 2.582944 1_555
Ca5 O6 2.801668 1_555
Ca5 O5 2.828386 1_556
O0 U0 2.089544 1_656
O1 U1 2.089544 1_555
O2 U0 2.089544 1_555
O3 U1 2.089544 1_565
O4 U1 2.052096 1_565
O5 U0 2.052096 1_655
O6 U1 2.052096 1_555
O7 U0 2.052096 1_556
O8 U0 2.093611 1_556
O9 U1 2.093611 1_565
O10 U0 2.093611 1_655
O11 U1 2.093611 1_555
