# generated using pymatgen
data_CsCeHgSe3
_symmetry_space_group_name_H-M   'P 1'
_cell_length_a   8.41171999
_cell_length_b   8.41171999
_cell_length_c   11.44475600
_cell_angle_alpha   90.00000000
_cell_angle_beta   90.00000000
_cell_angle_gamma   149.21279753
_symmetry_Int_Tables_number   1
_chemical_formula_structural   CsCeHgSe3
_chemical_formula_sum   'Cs2 Ce2 Hg2 Se6'
_cell_volume   414.49539039
_cell_formula_units_Z   2
loop_
 _symmetry_equiv_pos_site_id
 _symmetry_equiv_pos_as_xyz
  1  'x, y, z'
loop_
 _atom_site_type_symbol
 _atom_site_label
 _atom_site_symmetry_multiplicity
 _atom_site_fract_x
 _atom_site_fract_y
 _atom_site_fract_z
 _atom_site_occupancy
  Cs  Cs0  1  0.74346500  0.25653500  0.25000000  1
  Cs  Cs1  1  0.25653500  0.74346500  0.75000000  1
  Ce  Ce0  1  0.00000000  0.00000000  0.00000000  1
  Ce  Ce1  1  0.00000000  0.00000000  0.50000000  1
  Hg  Hg0  1  0.45728800  0.54271200  0.25000000  1
  Hg  Hg1  1  0.54271200  0.45728800  0.75000000  1
  Se  Se0  1  0.93884600  0.06115400  0.75000000  1
  Se  Se1  1  0.37887100  0.62112900  0.45251000  1
  Se  Se2  1  0.37887100  0.62112900  0.04749000  1
  Se  Se3  1  0.06115400  0.93884600  0.25000000  1
  Se  Se4  1  0.62112900  0.37887100  0.95251000  1
  Se  Se5  1  0.62112900  0.37887100  0.54749000  1
loop_
_geom_bond_atom_site_label_1
_geom_bond_atom_site_label_2
_geom_bond_distance
_geom_bond_site_symmetry_2
Cs0 Se3 3.705399 1_545
Cs0 Se3 3.705399 1_655
Cs0 Se2 3.896278 1_655
Cs0 Se1 3.896278 1_655
Cs0 Se2 3.896278 1_545
Cs0 Se1 3.896278 1_545
Cs0 Se4 3.940729 1_554
Cs0 Se5 3.940729 1_555
Cs1 Se0 3.705399 1_455
Cs1 Se0 3.705399 1_565
Cs1 Se5 3.896278 1_565
Cs1 Se4 3.896278 1_565
Cs1 Se5 3.896278 1_455
Cs1 Se4 3.896278 1_455
Cs1 Se1 3.940729 1_555
Cs1 Se2 3.940729 1_556
Ce0 Se4 3.023441 1_554
Ce0 Se2 3.023441 1_555
Ce0 Se2 3.023441 1_445
Ce0 Se4 3.023441 1_444
Ce0 Se0 3.028249 1_454
Ce0 Se3 3.028249 1_545
Ce1 Se1 3.023441 1_555
Ce1 Se5 3.023441 1_555
Ce1 Se1 3.023441 1_445
Ce1 Se5 3.023441 1_445
Ce1 Se3 3.028249 1_545
Ce1 Se0 3.028249 1_455
Hg0 Se2 2.643747 1_555
Hg0 Se1 2.643747 1_555
Hg0 Se3 2.797132 1_545
Hg0 Se3 2.797132 1_655
Hg1 Se5 2.643747 1_555
Hg1 Se4 2.643747 1_555
Hg1 Se0 2.797132 1_565
Hg1 Se0 2.797132 1_455
