# generated using pymatgen
data_Cr2HgSe4
_symmetry_space_group_name_H-M   'P 1'
_cell_length_a   7.66379584
_cell_length_b   7.66385562
_cell_length_c   7.66384197
_cell_angle_alpha   59.99961430
_cell_angle_beta   60.00012736
_cell_angle_gamma   60.00012672
_symmetry_Int_Tables_number   1
_chemical_formula_structural   Cr2HgSe4
_chemical_formula_sum   'Cr4 Hg2 Se8'
_cell_volume   318.28952966
_cell_formula_units_Z   2
loop_
 _symmetry_equiv_pos_site_id
 _symmetry_equiv_pos_as_xyz
  1  'x, y, z'
loop_
 _atom_site_type_symbol
 _atom_site_label
 _atom_site_symmetry_multiplicity
 _atom_site_fract_x
 _atom_site_fract_y
 _atom_site_fract_z
 _atom_site_occupancy
  Cr  Cr0  1  0.12500933  0.12500322  0.12500231  1
  Cr  Cr1  1  0.62497718  0.12500653  0.12500906  1
  Cr  Cr2  1  0.12500473  0.62498908  0.12500314  1
  Cr  Cr3  1  0.12500068  0.12500384  0.62499126  1
  Hg  Hg0  1  0.50001322  0.49999449  0.49999226  1
  Hg  Hg1  1  0.75000456  0.74999918  0.74999602  1
  Se  Se0  1  0.35952266  0.35954812  0.35956034  1
  Se  Se1  1  0.92138369  0.35953840  0.35952994  1
  Se  Se2  1  0.89042758  0.89042012  0.89041823  1
  Se  Se3  1  0.35953263  0.35955834  0.92136560  1
  Se  Se4  1  0.35952320  0.92136384  0.35956711  1
  Se  Se5  1  0.89043244  0.89042286  0.32872367  1
  Se  Se6  1  0.89043063  0.32873070  0.89042014  1
  Se  Se7  1  0.32873747  0.89042229  0.89042093  1
loop_
_geom_bond_atom_site_label_1
_geom_bond_atom_site_label_2
_geom_bond_distance
_geom_bond_site_symmetry_2
Cr0 Se1 2.552950 1_455
Cr0 Se4 2.553002 1_545
Cr0 Se3 2.553005 1_554
Cr0 Se5 2.553398 1_445
Cr0 Se6 2.553412 1_454
Cr0 Se7 2.553450 1_544
Cr1 Se3 2.553052 1_554
Cr1 Se4 2.553104 1_545
Cr1 Se0 2.553113 1_555
Cr1 Se5 2.553472 1_545
Cr1 Se6 2.553512 1_554
Cr1 Se2 2.553535 1_544
Cr2 Se3 2.552973 1_554
Cr2 Se1 2.552978 1_455
Cr2 Se0 2.552985 1_555
Cr2 Se5 2.553409 1_455
Cr2 Se2 2.553416 1_454
Cr2 Se7 2.553440 1_554
Cr3 Se0 2.552935 1_555
Cr3 Se4 2.552947 1_545
Cr3 Se1 2.553016 1_455
Cr3 Se2 2.553389 1_445
Cr3 Se6 2.553412 1_455
Cr3 Se7 2.553438 1_545
Hg0 Se0 2.636713 1_555
Hg0 Se4 2.636718 1_555
Hg0 Se1 2.636718 1_555
Hg0 Se3 2.636738 1_555
Hg1 Se2 2.636071 1_555
Hg1 Se7 2.636071 1_555
Hg1 Se6 2.636087 1_555
Hg1 Se5 2.636106 1_555
