# generated using pymatgen
data_RbTh2(PO4)3
_symmetry_space_group_name_H-M   'P 1'
_cell_length_a   9.63582562
_cell_length_b   9.63582562
_cell_length_c   8.24078597
_cell_angle_alpha   78.31776030
_cell_angle_beta   78.31776030
_cell_angle_gamma   42.33396843
_symmetry_Int_Tables_number   1
_chemical_formula_structural   RbTh2(PO4)3
_chemical_formula_sum   'Rb2 Th4 P6 O24'
_cell_volume   502.99702430
_cell_formula_units_Z   2
loop_
 _symmetry_equiv_pos_site_id
 _symmetry_equiv_pos_as_xyz
  1  'x, y, z'
loop_
 _atom_site_type_symbol
 _atom_site_label
 _atom_site_symmetry_multiplicity
 _atom_site_fract_x
 _atom_site_fract_y
 _atom_site_fract_z
 _atom_site_occupancy
  Rb  Rb0  1  0.40576200  0.59423800  0.75000000  1
  Rb  Rb1  1  0.59423800  0.40576200  0.25000000  1
  Th  Th0  1  0.06013300  0.24871200  0.46648100  1
  Th  Th1  1  0.24871200  0.06013300  0.96648100  1
  Th  Th2  1  0.75128800  0.93986700  0.03351900  1
  Th  Th3  1  0.93986700  0.75128800  0.53351900  1
  P  P0  1  0.60031100  0.78345500  0.31778500  1
  P  P1  1  0.39968900  0.21654500  0.68221500  1
  P  P2  1  0.09480800  0.90519200  0.25000000  1
  P  P3  1  0.21654500  0.39968900  0.18221500  1
  P  P4  1  0.90519200  0.09480800  0.75000000  1
  P  P5  1  0.78345500  0.60031100  0.81778500  1
  O  O0  1  0.26160200  0.44913000  0.65035600  1
  O  O1  1  0.75705800  0.18822200  0.90944200  1
  O  O2  1  0.60283500  0.08754900  0.57131400  1
  O  O3  1  0.44809200  0.14350100  0.87038200  1
  O  O4  1  0.44913000  0.26160200  0.15035600  1
  O  O5  1  0.04068100  0.10231100  0.25672300  1
  O  O6  1  0.95931900  0.89768900  0.74327700  1
  O  O7  1  0.89768900  0.95931900  0.24327700  1
  O  O8  1  0.85649900  0.55190800  0.62961800  1
  O  O9  1  0.24294200  0.81177800  0.09055800  1
  O  O10  1  0.82894800  0.72382600  0.83044400  1
  O  O11  1  0.73839800  0.55087000  0.34964400  1
  O  O12  1  0.91245100  0.39716500  0.92868600  1
  O  O13  1  0.18822200  0.75705800  0.40944200  1
  O  O14  1  0.81177800  0.24294200  0.59055800  1
  O  O15  1  0.08754900  0.60283500  0.07131400  1
  O  O16  1  0.55190800  0.85649900  0.12961800  1
  O  O17  1  0.14350100  0.44809200  0.37038200  1
  O  O18  1  0.17105200  0.27617400  0.16955600  1
  O  O19  1  0.55087000  0.73839800  0.84964400  1
  O  O20  1  0.27617400  0.17105200  0.66955600  1
  O  O21  1  0.10231100  0.04068100  0.75672300  1
  O  O22  1  0.39716500  0.91245100  0.42868600  1
  O  O23  1  0.72382600  0.82894800  0.33044400  1
loop_
_geom_bond_atom_site_label_1
_geom_bond_atom_site_label_2
_geom_bond_distance
_geom_bond_site_symmetry_2
O0 P1 1.535085 1_555
O0 Th3 2.396607 1_455
O0 Rb0 2.890924 1_555
O1 P4 1.547238 1_555
O1 Th2 2.440963 1_546
O1 Rb0 2.937803 1_555
O1 Rb1 3.235537 1_556
O2 P1 1.533055 1_555
O2 Th3 2.363064 1_545
O3 P1 1.575747 1_555
O3 Th2 2.497957 1_546
O3 Th1 2.524172 1_555
O4 P3 1.535085 1_555
O4 Th2 2.396607 1_545
O4 Rb1 2.890924 1_555
O5 P2 1.564961 1_545
O5 Th0 2.553976 1_555
O5 Th1 2.674277 1_554
O5 Rb1 2.914213 1_455
O6 P4 1.564961 1_565
O6 Th3 2.553976 1_555
O6 Th2 2.674277 1_556
O6 Rb0 2.914213 1_655
O7 P2 1.564961 1_655
O7 Th2 2.553976 1_555
O7 Th3 2.674277 1_555
O7 Rb1 2.914213 1_565
O8 P5 1.575747 1_555
O8 Th0 2.497957 1_655
O8 Th3 2.524172 1_555
O9 P2 1.547238 1_555
O9 Th1 2.440963 1_564
O9 Rb1 2.937803 1_555
O9 Rb0 3.235537 1_554
O10 P5 1.568343 1_555
O10 Th2 2.508926 1_556
O10 Th3 2.509281 1_555
O11 P0 1.535085 1_555
O11 Th0 2.396607 1_655
O11 Rb1 2.890924 1_555
O12 P5 1.533055 1_555
O12 Th1 2.363064 1_655
O13 P2 1.547238 1_555
O13 Th3 2.440963 1_455
O13 Rb1 2.937803 1_555
O13 Rb0 3.235537 1_555
O14 P4 1.547238 1_555
O14 Th0 2.440963 1_655
O14 Rb0 2.937803 1_555
O14 Rb1 3.235537 1_555
O15 P3 1.533055 1_555
O15 Th2 2.363064 1_455
O16 P0 1.575747 1_555
O16 Th1 2.497957 1_564
O16 Th2 2.524172 1_555
O17 P3 1.575747 1_555
O17 Th3 2.497957 1_455
O17 Th0 2.524172 1_555
O18 P3 1.568343 1_555
O18 Th1 2.508926 1_554
O18 Th0 2.509281 1_555
O19 P5 1.535085 1_555
O19 Th1 2.396607 1_565
O19 Rb0 2.890924 1_555
O20 P1 1.568343 1_555
O20 Th0 2.508926 1_555
O20 Th1 2.509281 1_555
O21 P4 1.564961 1_455
O21 Th1 2.553976 1_555
O21 Th0 2.674277 1_555
O21 Rb0 2.914213 1_545
O22 P0 1.533055 1_555
O22 Th0 2.363064 1_565
O23 P0 1.568343 1_555
O23 Th3 2.508926 1_555
O23 Th2 2.509281 1_555
