# generated using pymatgen
data_TiAlPt
_symmetry_space_group_name_H-M   'P 1'
_cell_length_a   4.41684680
_cell_length_b   4.41684770
_cell_length_c   5.40771100
_cell_angle_alpha   90.00000000
_cell_angle_beta   90.00000000
_cell_angle_gamma   120.00000821
_symmetry_Int_Tables_number   1
_chemical_formula_structural   TiAlPt
_chemical_formula_sum   'Ti2 Al2 Pt2'
_cell_volume   91.36267995
_cell_formula_units_Z   2
loop_
 _symmetry_equiv_pos_site_id
 _symmetry_equiv_pos_as_xyz
  1  'x, y, z'
loop_
 _atom_site_type_symbol
 _atom_site_label
 _atom_site_symmetry_multiplicity
 _atom_site_fract_x
 _atom_site_fract_y
 _atom_site_fract_z
 _atom_site_occupancy
  Ti  Ti0  1  0.00000000  0.00000000  0.00000000  1
  Ti  Ti1  1  0.00000000  0.00000000  0.50000000  1
  Al  Al0  1  0.33333300  0.66666700  0.25000000  1
  Al  Al1  1  0.66666700  0.33333300  0.75000000  1
  Pt  Pt0  1  0.66666700  0.33333300  0.25000000  1
  Pt  Pt1  1  0.33333300  0.66666700  0.75000000  1
loop_
_geom_bond_atom_site_label_1
_geom_bond_atom_site_label_2
_geom_bond_distance
_geom_bond_site_symmetry_2
Ti0 Ti1 2.703855 1_555
Ti0 Ti1 2.703855 1_554
Al0 Pt0 2.550065 1_455
Al0 Pt0 2.550065 1_565
Al0 Pt0 2.550073 1_555
Al0 Pt1 2.703855 1_554
Al0 Pt1 2.703855 1_555
Al0 Ti0 2.886268 1_565
Al0 Ti1 2.886268 1_565
Al0 Ti1 2.886271 1_665
Al0 Ti0 2.886271 1_665
Al0 Ti0 2.886271 1_555
Al0 Ti1 2.886271 1_555
Al1 Pt1 2.550065 1_655
Al1 Pt1 2.550065 1_545
Al1 Pt1 2.550073 1_555
Al1 Pt0 2.703855 1_556
Al1 Pt0 2.703855 1_555
Al1 Ti0 2.886268 1_656
Al1 Ti1 2.886268 1_655
Al1 Ti0 2.886271 1_556
Al1 Ti1 2.886271 1_555
Al1 Ti1 2.886271 1_665
Al1 Ti0 2.886271 1_666
Pt0 Ti0 2.886268 1_655
Pt0 Ti1 2.886268 1_655
Pt0 Ti0 2.886271 1_555
Pt0 Ti1 2.886271 1_555
Pt0 Ti1 2.886271 1_665
Pt0 Ti0 2.886271 1_665
Pt1 Ti0 2.886268 1_566
Pt1 Ti1 2.886268 1_565
Pt1 Ti1 2.886271 1_665
Pt1 Ti0 2.886271 1_666
Pt1 Ti0 2.886271 1_556
Pt1 Ti1 2.886271 1_555
