# generated using pymatgen
data_Rb5Sn(PSe5)3
_symmetry_space_group_name_H-M   'P 1'
_cell_length_a   7.34922827
_cell_length_b   11.89410482
_cell_length_c   19.41265993
_cell_angle_alpha   86.78784032
_cell_angle_beta   100.02021212
_cell_angle_gamma   107.70359358
_symmetry_Int_Tables_number   1
_chemical_formula_structural   Rb5Sn(PSe5)3
_chemical_formula_sum   'Rb10 Sn2 P6 Se30'
_cell_volume   1591.88051948
_cell_formula_units_Z   2
loop_
 _symmetry_equiv_pos_site_id
 _symmetry_equiv_pos_as_xyz
  1  'x, y, z'
loop_
 _atom_site_type_symbol
 _atom_site_label
 _atom_site_symmetry_multiplicity
 _atom_site_fract_x
 _atom_site_fract_y
 _atom_site_fract_z
 _atom_site_occupancy
  Rb  Rb0  1  0.58426079  0.64713093  0.75421210  1
  Rb  Rb1  1  0.29567509  0.13527005  0.96172174  1
  Rb  Rb2  1  0.70432491  0.86472995  0.03827826  1
  Rb  Rb3  1  0.33044711  0.14496433  0.54470734  1
  Rb  Rb4  1  0.66955289  0.85503567  0.45529266  1
  Rb  Rb5  1  0.05733339  0.59471978  0.11697899  1
  Rb  Rb6  1  0.41573921  0.35286907  0.24578790  1
  Rb  Rb7  1  0.00046362  0.38569091  0.62677351  1
  Rb  Rb8  1  -0.00046362  0.61430909  0.37322649  1
  Rb  Rb9  1  0.94266661  0.40528022  0.88302101  1
  Sn  Sn0  1  0.83077923  0.09823405  0.25820396  1
  Sn  Sn1  1  0.16922077  0.90176595  0.74179604  1
  P  P0  1  0.41387218  0.26108731  0.74792757  1
  P  P1  1  0.23212801  0.77638837  0.56390138  1
  P  P2  1  0.76787199  0.22361163  0.43609862  1
  P  P3  1  0.97236465  0.22990267  0.07255557  1
  P  P4  1  0.02763535  0.77009733  0.92744443  1
  P  P5  1  0.58612782  0.73891269  0.25207243  1
  Se  Se0  1  0.94639707  0.68160233  0.60373089  1
  Se  Se1  1  0.14413369  0.16330854  0.36027365  1
  Se  Se2  1  0.05360293  0.31839767  0.39626911  1
  Se  Se3  1  0.58700161  0.09875909  0.35165268  1
  Se  Se4  1  0.82066868  0.12959387  0.53170502  1
  Se  Se5  1  0.12345116  0.66545442  0.77099350  1
  Se  Se6  1  0.59389736  0.64381434  0.16177919  1
  Se  Se7  1  0.41299839  0.90124091  0.64834732  1
  Se  Se8  1  0.13148334  0.12712566  0.70977804  1
  Se  Se9  1  0.86851666  0.87287434  0.29022196  1
  Se  Se10  1  0.94860078  0.89560082  0.84673812  1
  Se  Se11  1  0.05139922  0.10439918  0.15326188  1
  Se  Se12  1  0.87654884  0.33454558  0.22900650  1
  Se  Se13  1  0.80625079  0.14631641  0.97540320  1
  Se  Se14  1  0.47589098  0.62177053  0.33544074  1
  Se  Se15  1  0.66684960  0.37342120  0.44630309  1
  Se  Se16  1  0.77368712  0.62638679  0.94128067  1
  Se  Se17  1  0.62918260  0.15362752  0.76439932  1
  Se  Se18  1  0.50954983  0.00400137  0.16527422  1
  Se  Se19  1  0.19374921  0.85368359  0.02459680  1
  Se  Se20  1  0.74064618  0.29150597  0.11063636  1
  Se  Se21  1  0.17933132  0.87040613  0.46829498  1
  Se  Se22  1  0.22631288  0.37361321  0.05871933  1
  Se  Se23  1  0.33315040  0.62657880  0.55369691  1
  Se  Se24  1  0.25935382  0.70849403  0.88936364  1
  Se  Se25  1  0.40610264  0.35618566  0.83822081  1
  Se  Se26  1  0.52410902  0.37822947  0.66455926  1
  Se  Se27  1  0.49045017  0.99599863  0.83472578  1
  Se  Se28  1  0.85586631  0.83669146  0.63972635  1
  Se  Se29  1  0.37081740  0.84637248  0.23560068  1
loop_
_geom_bond_atom_site_label_1
_geom_bond_atom_site_label_2
_geom_bond_distance
_geom_bond_site_symmetry_2
Rb0 Se28 3.500330 1_555
Rb0 Se5 3.530357 1_555
Rb0 Se26 3.598607 1_555
Rb0 Se10 3.638455 1_555
Rb0 Se16 3.679118 1_555
Rb0 Se25 3.701916 1_555
Rb0 Se5 3.858701 1_655
Rb0 Se7 3.957280 1_555
Rb0 Se23 3.993717 1_555
Rb1 Se19 3.406229 1_546
Rb1 Se25 3.461933 1_555
Rb1 Se13 3.677649 1_555
Rb1 Se13 3.694482 1_455
Rb1 Se22 3.695016 1_556
Rb1 Se10 3.731538 1_445
Rb1 Se27 3.741492 1_545
Rb1 Se20 4.015051 1_556
Rb2 Se13 3.406229 1_564
Rb2 Se6 3.461933 1_555
Rb2 Se19 3.677649 1_555
Rb2 Se19 3.694482 1_655
Rb2 Se16 3.695016 1_554
Rb2 Se11 3.731538 1_665
Rb2 Se18 3.741492 1_565
Rb2 Se24 4.015051 1_554
Rb3 Se21 3.444114 1_545
Rb3 Se26 3.508012 1_555
Rb3 Se7 3.579194 1_545
Rb3 Se1 3.623469 1_555
Rb3 Se4 3.659613 1_455
Rb3 Se4 3.714720 1_555
Rb3 Se8 3.717175 1_555
Rb3 Se15 3.757811 1_555
Rb4 Se4 3.444114 1_565
Rb4 Se14 3.508012 1_555
Rb4 Se3 3.579194 1_565
Rb4 Se28 3.623469 1_555
Rb4 Se21 3.659613 1_655
Rb4 Se21 3.714720 1_555
Rb4 Se9 3.717175 1_555
Rb4 Se23 3.757811 1_555
Rb5 Se19 3.440518 1_555
Rb5 Se22 3.542021 1_555
Rb5 Se20 3.644672 1_455
Rb5 Se12 3.717758 1_455
Rb5 Se16 3.738988 1_454
Rb5 Se6 3.756361 1_555
Rb5 Se29 3.781789 1_555
Rb5 Se6 3.872305 1_455
Rb6 Se1 3.500330 1_555
Rb6 Se12 3.530357 1_555
Rb6 Se14 3.598607 1_555
Rb6 Se11 3.638455 1_555
Rb6 Se22 3.679118 1_555
Rb6 Se6 3.701916 1_555
Rb6 Se12 3.858701 1_455
Rb6 Se3 3.957280 1_555
Rb6 Se15 3.993717 1_555
Rb7 Se4 3.429847 1_455
Rb7 Se23 3.562374 1_555
Rb7 Se0 3.654837 1_455
Rb7 Se26 3.674122 1_455
Rb7 Se8 3.699650 1_555
Rb7 Se26 3.817606 1_555
Rb7 Se15 3.893210 1_455
Rb8 Se21 3.429847 1_555
Rb8 Se15 3.562374 1_455
Rb8 Se2 3.654837 1_555
Rb8 Se14 3.674122 1_555
Rb8 Se9 3.699650 1_455
Rb8 Se14 3.817606 1_455
Rb8 Se23 3.893210 1_555
Rb9 Se13 3.440518 1_555
Rb9 Se16 3.542021 1_555
Rb9 Se24 3.644672 1_655
Rb9 Se5 3.717758 1_655
Rb9 Se22 3.738988 1_656
Rb9 Se25 3.756361 1_555
Rb9 Se17 3.781789 1_555
Rb9 Se25 3.872305 1_655
P0 Se25 2.156708 1_555
P0 Se26 2.175756 1_555
P0 Se8 2.231714 1_555
P0 Se17 2.290836 1_555
P1 Se21 2.150905 1_555
P1 Se23 2.158879 1_555
P1 Se7 2.230142 1_555
P1 Se0 2.303461 1_455
P2 Se4 2.150905 1_555
P2 Se15 2.158879 1_555
P2 Se3 2.230142 1_555
P2 Se2 2.303461 1_655
P3 Se22 2.158669 1_655
P3 Se13 2.169438 1_554
P3 Se11 2.229096 1_655
P3 Se20 2.289341 1_555
P4 Se16 2.158669 1_455
P4 Se19 2.169438 1_556
P4 Se10 2.229096 1_455
P4 Se24 2.289341 1_555
P5 Se6 2.156708 1_555
P5 Se14 2.175756 1_555
P5 Se9 2.231714 1_555
P5 Se29 2.290836 1_555
Se0 Se28 2.320846 1_555
Se1 Se2 2.320846 1_555
Se1 Sn0 2.707120 1_455
Se3 Sn0 2.764015 1_555
Se5 Sn1 2.765380 1_555
Se7 Sn1 2.764015 1_555
Se8 Sn1 2.802410 1_545
Se9 Sn0 2.802410 1_565
Se10 Sn1 2.800870 1_655
Se11 Sn0 2.800870 1_455
Se12 Se20 2.358404 1_555
Se12 Sn0 2.765380 1_555
Se17 Se27 2.335254 1_545
Se18 Se29 2.335254 1_545
Se18 Sn0 2.686873 1_555
Se24 Se5 2.358404 1_555
Se27 Sn1 2.686873 1_555
Se28 Sn1 2.707120 1_655
