# generated using pymatgen
data_Ca10Mg2Sb9
_symmetry_space_group_name_H-M   'P 1'
_cell_length_a   11.93938600
_cell_length_b   11.93938600
_cell_length_c   17.37753100
_cell_angle_alpha   90.00000000
_cell_angle_beta   90.00000000
_cell_angle_gamma   90.00000000
_symmetry_Int_Tables_number   1
_chemical_formula_structural   Ca10Mg2Sb9
_chemical_formula_sum   'Ca40 Mg8 Sb36'
_cell_volume   2477.14859010
_cell_formula_units_Z   4
loop_
 _symmetry_equiv_pos_site_id
 _symmetry_equiv_pos_as_xyz
  1  'x, y, z'
loop_
 _atom_site_type_symbol
 _atom_site_label
 _atom_site_symmetry_multiplicity
 _atom_site_fract_x
 _atom_site_fract_y
 _atom_site_fract_z
 _atom_site_occupancy
  Ca  Ca0  1  0.98549100  0.66127200  0.39708800  1
  Ca  Ca1  1  0.98549100  0.66127200  0.60291200  1
  Ca  Ca2  1  0.24876900  0.51105000  0.69187400  1
  Ca  Ca3  1  0.01105000  0.25123100  0.19187400  1
  Ca  Ca4  1  0.01450900  0.33872800  0.60291200  1
  Ca  Ca5  1  0.50000000  0.50000000  0.86112800  1
  Ca  Ca6  1  0.48549100  0.83872800  0.10291200  1
  Ca  Ca7  1  0.74876900  0.98895000  0.80812600  1
  Ca  Ca8  1  0.51105000  0.24876900  0.69187400  1
  Ca  Ca9  1  0.01450900  0.33872800  0.39708800  1
  Ca  Ca10  1  0.50000000  0.50000000  0.13887200  1
  Ca  Ca11  1  0.48895000  0.75123100  0.30812600  1
  Ca  Ca12  1  0.66127200  0.98549100  0.60291200  1
  Ca  Ca13  1  0.66127200  0.98549100  0.39708800  1
  Ca  Ca14  1  0.75123100  0.48895000  0.69187400  1
  Ca  Ca15  1  0.98895000  0.74876900  0.19187400  1
  Ca  Ca16  1  0.18208200  0.81791800  0.00000000  1
  Ca  Ca17  1  0.00000000  0.00000000  0.63887200  1
  Ca  Ca18  1  0.51450900  0.16127200  0.89708800  1
  Ca  Ca19  1  0.25123100  0.01105000  0.80812600  1
  Ca  Ca20  1  0.31791800  0.31791800  0.50000000  1
  Ca  Ca21  1  0.00000000  0.00000000  0.36112800  1
  Ca  Ca22  1  0.01105000  0.25123100  0.80812600  1
  Ca  Ca23  1  0.48549100  0.83872800  0.89708800  1
  Ca  Ca24  1  0.75123100  0.48895000  0.30812600  1
  Ca  Ca25  1  0.83872800  0.48549100  0.10291200  1
  Ca  Ca26  1  0.33872800  0.01450900  0.60291200  1
  Ca  Ca27  1  0.48895000  0.75123100  0.69187400  1
  Ca  Ca28  1  0.74876900  0.98895000  0.19187400  1
  Ca  Ca29  1  0.33872800  0.01450900  0.39708800  1
  Ca  Ca30  1  0.98895000  0.74876900  0.80812600  1
  Ca  Ca31  1  0.51105000  0.24876900  0.30812600  1
  Ca  Ca32  1  0.83872800  0.48549100  0.89708800  1
  Ca  Ca33  1  0.16127200  0.51450900  0.89708800  1
  Ca  Ca34  1  0.68208200  0.68208200  0.50000000  1
  Ca  Ca35  1  0.24876900  0.51105000  0.30812600  1
  Ca  Ca36  1  0.16127200  0.51450900  0.10291200  1
  Ca  Ca37  1  0.51450900  0.16127200  0.10291200  1
  Ca  Ca38  1  0.81791800  0.18208200  0.00000000  1
  Ca  Ca39  1  0.25123100  0.01105000  0.19187400  1
  Mg  Mg0  1  0.78872200  0.21127800  0.50000000  1
  Mg  Mg1  1  0.28872200  0.28872200  0.00000000  1
  Mg  Mg2  1  0.71127800  0.71127800  0.00000000  1
  Mg  Mg3  1  0.21127800  0.78872200  0.50000000  1
  Mg  Mg4  1  0.10090500  0.10090500  0.00000000  1
  Mg  Mg5  1  0.39909500  0.60090500  0.50000000  1
  Mg  Mg6  1  0.60090500  0.39909500  0.50000000  1
  Mg  Mg7  1  0.89909500  0.89909500  0.00000000  1
  Sb  Sb0  1  0.81199000  0.18801000  0.33047800  1
  Sb  Sb1  1  0.50000000  0.50000000  0.63390800  1
  Sb  Sb2  1  0.28067000  0.71933000  0.17788800  1
  Sb  Sb3  1  0.71933000  0.28067000  0.17788800  1
  Sb  Sb4  1  0.63194400  0.36805600  0.00000000  1
  Sb  Sb5  1  0.00000000  0.50000000  0.25000000  1
  Sb  Sb6  1  0.81199000  0.18801000  0.66952200  1
  Sb  Sb7  1  0.31199000  0.31199000  0.16952200  1
  Sb  Sb8  1  0.66698100  0.96730900  0.00000000  1
  Sb  Sb9  1  0.18801000  0.81199000  0.33047800  1
  Sb  Sb10  1  0.50000000  0.00000000  0.25000000  1
  Sb  Sb11  1  0.78067000  0.78067000  0.67788800  1
  Sb  Sb12  1  0.50000000  0.00000000  0.75000000  1
  Sb  Sb13  1  0.50000000  0.50000000  0.36609200  1
  Sb  Sb14  1  0.00000000  0.00000000  0.86609200  1
  Sb  Sb15  1  0.71933000  0.28067000  0.82211200  1
  Sb  Sb16  1  0.21933000  0.21933000  0.67788800  1
  Sb  Sb17  1  0.18801000  0.81199000  0.66952200  1
  Sb  Sb18  1  0.96730900  0.66698100  0.00000000  1
  Sb  Sb19  1  0.78067000  0.78067000  0.32211200  1
  Sb  Sb20  1  0.46730900  0.83301900  0.50000000  1
  Sb  Sb21  1  0.16698100  0.53269100  0.50000000  1
  Sb  Sb22  1  0.68801000  0.68801000  0.16952200  1
  Sb  Sb23  1  0.86805600  0.86805600  0.50000000  1
  Sb  Sb24  1  0.33301900  0.03269100  0.00000000  1
  Sb  Sb25  1  0.83301900  0.46730900  0.50000000  1
  Sb  Sb26  1  0.36805600  0.63194400  0.00000000  1
  Sb  Sb27  1  0.53269100  0.16698100  0.50000000  1
  Sb  Sb28  1  0.03269100  0.33301900  0.00000000  1
  Sb  Sb29  1  0.21933000  0.21933000  0.32211200  1
  Sb  Sb30  1  0.68801000  0.68801000  0.83047800  1
  Sb  Sb31  1  0.13194400  0.13194400  0.50000000  1
  Sb  Sb32  1  0.00000000  0.50000000  0.75000000  1
  Sb  Sb33  1  0.28067000  0.71933000  0.82211200  1
  Sb  Sb34  1  0.31199000  0.31199000  0.83047800  1
  Sb  Sb35  1  0.00000000  0.00000000  0.13390800  1
loop_
_geom_bond_atom_site_label_1
_geom_bond_atom_site_label_2
_geom_bond_distance
_geom_bond_site_symmetry_2
Ca0 Sb19 3.116066 1_555
Ca0 Sb21 3.201618 1_655
Ca0 Sb5 3.204807 1_655
Ca0 Sb9 3.228695 1_655
Ca0 Sb23 3.355510 1_555
Ca0 Sb25 3.446024 1_555
Ca1 Sb11 3.116066 1_555
Ca1 Sb21 3.201618 1_655
Ca1 Sb32 3.204807 1_655
Ca1 Sb17 3.228695 1_655
Ca1 Sb23 3.355510 1_555
Ca1 Sb25 3.446024 1_555
Ca2 Sb32 3.139979 1_555
Ca2 Sb1 3.166912 1_555
Ca2 Sb33 3.383942 1_555
Ca2 Sb34 3.466925 1_555
Ca2 Sb21 3.483941 1_555
Ca2 Sb16 3.509075 1_555
Ca2 Sb17 3.686060 1_555
Ca3 Sb5 3.139979 1_555
Ca3 Sb35 3.166912 1_555
Ca3 Sb29 3.383942 1_555
Ca3 Sb0 3.466925 1_455
Ca3 Sb28 3.483941 1_555
Ca3 Sb3 3.509075 1_455
Ca3 Sb7 3.686060 1_555
Ca4 Sb16 3.116066 1_555
Ca4 Sb25 3.201618 1_455
Ca4 Sb32 3.204807 1_555
Ca4 Sb6 3.228695 1_455
Ca4 Sb31 3.355510 1_555
Ca4 Sb21 3.446024 1_555
Ca5 Sb34 3.218891 1_555
Ca5 Sb30 3.218891 1_555
Ca5 Sb4 3.284375 1_556
Ca5 Sb26 3.284375 1_556
Ca6 Sb2 3.116066 1_555
Ca6 Sb8 3.201618 1_555
Ca6 Sb10 3.204807 1_565
Ca6 Sb22 3.228695 1_555
Ca6 Sb26 3.355510 1_555
Ca6 Sb24 3.446024 1_565
Ca7 Sb12 3.139979 1_565
Ca7 Sb14 3.166912 1_665
Ca7 Sb11 3.383942 1_555
Ca7 Sb6 3.466925 1_565
Ca7 Sb8 3.483941 1_556
Ca7 Sb15 3.509075 1_565
Ca7 Sb30 3.686060 1_555
Ca8 Sb12 3.139979 1_555
Ca8 Sb1 3.166912 1_555
Ca8 Sb15 3.383942 1_555
Ca8 Sb34 3.466925 1_555
Ca8 Sb27 3.483941 1_555
Ca8 Sb16 3.509075 1_555
Ca8 Sb6 3.686060 1_555
Ca9 Sb29 3.116066 1_555
Ca9 Sb25 3.201618 1_455
Ca9 Sb5 3.204807 1_555
Ca9 Sb0 3.228695 1_455
Ca9 Sb31 3.355510 1_555
Ca9 Sb21 3.446024 1_555
Ca10 Sb22 3.218891 1_555
Ca10 Sb7 3.218891 1_555
Ca10 Sb26 3.284375 1_555
Ca10 Sb4 3.284375 1_555
Ca11 Sb10 3.139979 1_565
Ca11 Sb13 3.166912 1_555
Ca11 Sb2 3.383942 1_555
Ca11 Sb22 3.466925 1_555
Ca11 Sb20 3.483941 1_555
Ca11 Sb19 3.509075 1_555
Ca11 Sb9 3.686060 1_555
Ca12 Sb11 3.116066 1_555
Ca12 Sb27 3.201618 1_565
Ca12 Sb12 3.204807 1_565
Ca12 Sb6 3.228695 1_565
Ca12 Sb23 3.355510 1_555
Ca12 Sb20 3.446024 1_555
Ca13 Sb19 3.116066 1_555
Ca13 Sb27 3.201618 1_565
Ca13 Sb10 3.204807 1_565
Ca13 Sb0 3.228695 1_565
Ca13 Sb23 3.355510 1_555
Ca13 Sb20 3.446024 1_555
Ca14 Sb32 3.139979 1_655
Ca14 Sb1 3.166912 1_555
Ca14 Sb15 3.383942 1_555
Ca14 Sb30 3.466925 1_555
Ca14 Sb25 3.483941 1_555
Ca14 Sb11 3.509075 1_555
Ca14 Sb6 3.686060 1_555
Ca15 Sb5 3.139979 1_655
Ca15 Sb35 3.166912 1_665
Ca15 Sb19 3.383942 1_555
Ca15 Sb9 3.466925 1_655
Ca15 Sb18 3.483941 1_555
Ca15 Sb2 3.509075 1_655
Ca15 Sb22 3.686060 1_555
Ca16 Sb24 3.134161 1_565
Ca16 Sb18 3.134161 1_455
Ca16 Sb26 3.140142 1_555
Ca16 Sb2 3.510967 1_555
Ca16 Sb33 3.510967 1_554
Ca17 Sb17 3.218891 1_545
Ca17 Sb6 3.218891 1_455
Ca17 Sb23 3.284375 1_445
Ca17 Sb31 3.284375 1_555
Ca18 Sb15 3.116066 1_555
Ca18 Sb24 3.201618 1_556
Ca18 Sb12 3.204807 1_555
Ca18 Sb34 3.228695 1_555
Ca18 Sb4 3.355510 1_556
Ca18 Sb8 3.446024 1_546
Ca19 Sb12 3.139979 1_555
Ca19 Sb14 3.166912 1_555
Ca19 Sb16 3.383942 1_555
Ca19 Sb17 3.466925 1_545
Ca19 Sb24 3.483941 1_556
Ca19 Sb33 3.509075 1_545
Ca19 Sb34 3.686060 1_555
Ca20 Sb27 3.134161 1_555
Ca20 Sb21 3.134161 1_555
Ca20 Sb31 3.140142 1_555
Ca20 Sb29 3.510967 1_555
Ca20 Sb16 3.510967 1_555
Ca21 Sb9 3.218891 1_545
Ca21 Sb0 3.218891 1_455
Ca21 Sb23 3.284375 1_445
Ca21 Sb31 3.284375 1_555
Ca22 Sb32 3.139979 1_555
Ca22 Sb14 3.166912 1_555
Ca22 Sb16 3.383942 1_555
Ca22 Sb6 3.466925 1_455
Ca22 Sb28 3.483941 1_556
Ca22 Sb15 3.509075 1_455
Ca22 Sb34 3.686060 1_555
Ca23 Sb33 3.116066 1_555
Ca23 Sb8 3.201618 1_556
Ca23 Sb12 3.204807 1_565
Ca23 Sb30 3.228695 1_555
Ca23 Sb26 3.355510 1_556
Ca23 Sb24 3.446024 1_566
Ca24 Sb5 3.139979 1_655
Ca24 Sb13 3.166912 1_555
Ca24 Sb3 3.383942 1_555
Ca24 Sb22 3.466925 1_555
Ca24 Sb25 3.483941 1_555
Ca24 Sb19 3.509075 1_555
Ca24 Sb0 3.686060 1_555
Ca25 Sb3 3.116066 1_555
Ca25 Sb18 3.201618 1_555
Ca25 Sb5 3.204807 1_655
Ca25 Sb22 3.228695 1_555
Ca25 Sb4 3.355510 1_555
Ca25 Sb28 3.446024 1_655
Ca26 Sb16 3.116066 1_555
Ca26 Sb20 3.201618 1_545
Ca26 Sb12 3.204807 1_555
Ca26 Sb17 3.228695 1_545
Ca26 Sb31 3.355510 1_555
Ca26 Sb27 3.446024 1_555
Ca27 Sb12 3.139979 1_565
Ca27 Sb1 3.166912 1_555
Ca27 Sb33 3.383942 1_555
Ca27 Sb30 3.466925 1_555
Ca27 Sb20 3.483941 1_555
Ca27 Sb11 3.509075 1_555
Ca27 Sb17 3.686060 1_555
Ca28 Sb10 3.139979 1_565
Ca28 Sb35 3.166912 1_665
Ca28 Sb19 3.383942 1_555
Ca28 Sb0 3.466925 1_565
Ca28 Sb8 3.483941 1_555
Ca28 Sb3 3.509075 1_565
Ca28 Sb22 3.686060 1_555
Ca29 Sb29 3.116066 1_555
Ca29 Sb20 3.201618 1_545
Ca29 Sb10 3.204807 1_555
Ca29 Sb9 3.228695 1_545
Ca29 Sb31 3.355510 1_555
Ca29 Sb27 3.446024 1_555
Ca30 Sb32 3.139979 1_655
Ca30 Sb14 3.166912 1_665
Ca30 Sb11 3.383942 1_555
Ca30 Sb17 3.466925 1_655
Ca30 Sb18 3.483941 1_556
Ca30 Sb33 3.509075 1_655
Ca30 Sb30 3.686060 1_555
Ca31 Sb10 3.139979 1_555
Ca31 Sb13 3.166912 1_555
Ca31 Sb3 3.383942 1_555
Ca31 Sb7 3.466925 1_555
Ca31 Sb27 3.483941 1_555
Ca31 Sb29 3.509075 1_555
Ca31 Sb0 3.686060 1_555
Ca32 Sb15 3.116066 1_555
Ca32 Sb18 3.201618 1_556
Ca32 Sb32 3.204807 1_655
Ca32 Sb30 3.228695 1_555
Ca32 Sb4 3.355510 1_556
Ca32 Sb28 3.446024 1_656
Ca33 Sb33 3.116066 1_555
Ca33 Sb28 3.201618 1_556
Ca33 Sb32 3.204807 1_555
Ca33 Sb34 3.228695 1_555
Ca33 Sb26 3.355510 1_556
Ca33 Sb18 3.446024 1_456
Ca34 Sb25 3.134161 1_555
Ca34 Sb20 3.134161 1_555
Ca34 Sb23 3.140142 1_555
Ca34 Sb19 3.510967 1_555
Ca34 Sb11 3.510967 1_555
Ca35 Sb5 3.139979 1_555
Ca35 Sb13 3.166912 1_555
Ca35 Sb2 3.383942 1_555
Ca35 Sb7 3.466925 1_555
Ca35 Sb21 3.483941 1_555
Ca35 Sb29 3.509075 1_555
Ca35 Sb9 3.686060 1_555
Ca36 Sb2 3.116066 1_555
Ca36 Sb28 3.201618 1_555
Ca36 Sb5 3.204807 1_555
Ca36 Sb7 3.228695 1_555
Ca36 Sb26 3.355510 1_555
Ca36 Sb18 3.446024 1_455
Ca37 Sb3 3.116066 1_555
Ca37 Sb24 3.201618 1_555
Ca37 Sb10 3.204807 1_555
Ca37 Sb7 3.228695 1_555
Ca37 Sb4 3.355510 1_555
Ca37 Sb8 3.446024 1_545
Ca38 Sb28 3.134161 1_655
Ca38 Sb8 3.134161 1_545
Ca38 Sb4 3.140142 1_555
Ca38 Sb3 3.510967 1_555
Ca38 Sb15 3.510967 1_554
Ca39 Sb10 3.139979 1_555
Ca39 Sb35 3.166912 1_555
Ca39 Sb29 3.383942 1_555
Ca39 Sb9 3.466925 1_545
Ca39 Sb24 3.483941 1_555
Ca39 Sb2 3.509075 1_545
Ca39 Sb7 3.686060 1_555
Mg0 Sb6 2.971956 1_555
Mg0 Sb0 2.971956 1_555
Mg0 Sb25 3.102267 1_555
Mg0 Sb27 3.102267 1_555
Mg1 Sb34 2.971956 1_554
Mg1 Sb7 2.971956 1_555
Mg1 Sb28 3.102267 1_555
Mg1 Sb24 3.102267 1_555
Mg2 Sb30 2.971956 1_554
Mg2 Sb22 2.971956 1_555
Mg2 Sb8 3.102267 1_555
Mg2 Sb18 3.102267 1_555
Mg3 Sb17 2.971956 1_555
Mg3 Sb9 2.971956 1_555
Mg3 Sb20 3.102267 1_555
Mg3 Sb21 3.102267 1_555
Mg4 Sb35 2.884042 1_555
Mg4 Sb14 2.884042 1_554
Mg4 Sb24 2.888494 1_555
Mg4 Sb28 2.888494 1_555
Mg5 Sb1 2.884042 1_555
Mg5 Sb13 2.884042 1_555
Mg5 Sb20 2.888494 1_555
Mg5 Sb21 2.888494 1_555
Mg6 Sb1 2.884042 1_555
Mg6 Sb13 2.884042 1_555
Mg6 Sb25 2.888494 1_555
Mg6 Sb27 2.888494 1_555
Mg7 Sb35 2.884042 1_665
Mg7 Sb14 2.884042 1_664
Mg7 Sb18 2.888494 1_555
Mg7 Sb8 2.888494 1_555
Sb0 Sb3 3.078798 1_555
Sb2 Sb9 3.078798 1_555
Sb11 Sb30 3.078798 1_555
Sb15 Sb6 3.078798 1_555
Sb16 Sb34 3.078798 1_555
Sb17 Sb33 3.078798 1_555
Sb19 Sb22 3.078798 1_555
Sb29 Sb7 3.078798 1_555
