# generated using pymatgen
data_Na4Ni5(P3O11)2
_symmetry_space_group_name_H-M   'P 1'
_cell_length_a   6.66106600
_cell_length_b   10.67394800
_cell_length_c   12.65768996
_cell_angle_alpha   76.30538039
_cell_angle_beta   90.00000000
_cell_angle_gamma   90.00000000
_symmetry_Int_Tables_number   1
_chemical_formula_structural   Na4Ni5(P3O11)2
_chemical_formula_sum   'Na8 Ni10 P12 O44'
_cell_volume   874.37549111
_cell_formula_units_Z   2
loop_
 _symmetry_equiv_pos_site_id
 _symmetry_equiv_pos_as_xyz
  1  'x, y, z'
loop_
 _atom_site_type_symbol
 _atom_site_label
 _atom_site_symmetry_multiplicity
 _atom_site_fract_x
 _atom_site_fract_y
 _atom_site_fract_z
 _atom_site_occupancy
  Na  Na0  1  0.09028600  0.54378700  0.84109900  1
  Na  Na1  1  0.59028600  0.95621300  0.15890100  1
  Na  Na2  1  0.51916100  0.86352600  0.64782000  1
  Na  Na3  1  0.90971400  0.45621300  0.15890100  1
  Na  Na4  1  0.40971400  0.04378700  0.84109900  1
  Na  Na5  1  0.01916100  0.63647400  0.35218000  1
  Na  Na6  1  0.98083900  0.36352600  0.64782000  1
  Na  Na7  1  0.48083900  0.13647400  0.35218000  1
  Ni  Ni0  1  0.00794500  0.19596600  0.33345900  1
  Ni  Ni1  1  0.50794500  0.30403400  0.66654100  1
  Ni  Ni2  1  0.26023700  0.71803600  0.13265600  1
  Ni  Ni3  1  0.73976300  0.28196400  0.86734400  1
  Ni  Ni4  1  0.49205500  0.69596600  0.33345900  1
  Ni  Ni5  1  0.76023700  0.78196400  0.86734400  1
  Ni  Ni6  1  0.23976300  0.21803600  0.13265600  1
  Ni  Ni7  1  0.50000000  0.50000000  0.00000000  1
  Ni  Ni8  1  0.00000000  0.00000000  0.00000000  1
  Ni  Ni9  1  0.99205500  0.80403400  0.66654100  1
  P  P0  1  0.23593300  0.27388800  0.91499200  1
  P  P1  1  0.26406700  0.77388800  0.91499200  1
  P  P2  1  0.38723000  0.43309300  0.25515500  1
  P  P3  1  0.20213500  0.09091900  0.58257600  1
  P  P4  1  0.73593300  0.22611200  0.08500800  1
  P  P5  1  0.70213500  0.40908100  0.41742400  1
  P  P6  1  0.61277000  0.56690700  0.74484500  1
  P  P7  1  0.11277000  0.93309300  0.25515500  1
  P  P8  1  0.29786500  0.59091900  0.58257600  1
  P  P9  1  0.79786500  0.90908100  0.41742400  1
  P  P10  1  0.76406700  0.72611200  0.08500800  1
  P  P11  1  0.88723000  0.06690700  0.74484500  1
  O  O0  1  0.04385200  0.04742600  0.83358100  1
  O  O1  1  0.79797800  0.05723400  0.39061700  1
  O  O2  1  0.62827600  0.85964000  0.35653100  1
  O  O3  1  0.71296800  0.36046600  0.00119200  1
  O  O4  1  0.80273100  0.84461900  0.53786100  1
  O  O5  1  0.99072000  0.13548900  0.63043700  1
  O  O6  1  0.49072000  0.36451100  0.36956300  1
  O  O7  1  0.27118400  0.36578700  0.99398200  1
  O  O8  1  0.28703200  0.63953400  0.99880800  1
  O  O9  1  0.29797800  0.44276600  0.60938300  1
  O  O10  1  0.91848000  0.23423700  0.15962800  1
  O  O11  1  0.37172400  0.14036000  0.64346900  1
  O  O12  1  0.72459600  0.16528500  0.75790700  1
  O  O13  1  0.54844000  0.18002100  0.15499900  1
  O  O14  1  0.22881600  0.86578700  0.99398200  1
  O  O15  1  0.20421300  0.06171700  0.26875900  1
  O  O16  1  0.20202200  0.94276600  0.60938300  1
  O  O17  1  0.77118400  0.13421300  0.00601800  1
  O  O18  1  0.30273100  0.65538100  0.46213900  1
  O  O19  1  0.12827600  0.64036000  0.64346900  1
  O  O20  1  0.87172400  0.35964000  0.35653100  1
  O  O21  1  0.45614800  0.54742600  0.83358100  1
  O  O22  1  0.00928000  0.86451100  0.36956300  1
  O  O23  1  0.04844000  0.31997900  0.84500100  1
  O  O24  1  0.19726900  0.15538100  0.46213900  1
  O  O25  1  0.50928000  0.63548900  0.63043700  1
  O  O26  1  0.78703200  0.86046600  0.00119200  1
  O  O27  1  0.70202200  0.55723400  0.39061700  1
  O  O28  1  0.58152000  0.73423700  0.15962800  1
  O  O29  1  0.72881600  0.63421300  0.00601800  1
  O  O30  1  0.29578700  0.56171700  0.26875900  1
  O  O31  1  0.27540400  0.83471500  0.24209300  1
  O  O32  1  0.77540400  0.66528500  0.75790700  1
  O  O33  1  0.54385200  0.45257400  0.16641900  1
  O  O34  1  0.70421300  0.43828300  0.73124100  1
  O  O35  1  0.21296800  0.13953400  0.99880800  1
  O  O36  1  0.95156000  0.68002100  0.15499900  1
  O  O37  1  0.95614800  0.95257400  0.16641900  1
  O  O38  1  0.69726900  0.34461900  0.53786100  1
  O  O39  1  0.08152000  0.76576300  0.84037200  1
  O  O40  1  0.45156000  0.81997900  0.84500100  1
  O  O41  1  0.79578700  0.93828300  0.73124100  1
  O  O42  1  0.22459600  0.33471500  0.24209300  1
  O  O43  1  0.41848000  0.26576300  0.84037200  1
loop_
_geom_bond_atom_site_label_1
_geom_bond_atom_site_label_2
_geom_bond_distance
_geom_bond_site_symmetry_2
Na0 O39 2.367919 1_555
Na0 O23 2.393989 1_555
Na0 O21 2.438839 1_555
Na0 O19 2.482610 1_555
Na0 O32 2.558004 1_455
Na0 O7 2.658141 1_555
Na0 O8 2.777216 1_555
Na1 O28 2.367919 1_555
Na1 O13 2.393989 1_565
Na1 O37 2.438839 1_555
Na1 O2 2.482610 1_555
Na1 O31 2.558004 1_555
Na1 O17 2.658141 1_565
Na1 O26 2.777216 1_555
Na2 O16 2.284695 1_555
Na2 O41 2.354974 1_555
Na2 O4 2.383017 1_555
Na2 O40 2.469577 1_555
Na2 O25 2.496188 1_555
Na2 O32 2.817167 1_555
Na3 O10 2.367919 1_555
Na3 O36 2.393989 1_555
Na3 O33 2.438839 1_555
Na3 O20 2.482610 1_555
Na3 O42 2.558004 1_655
Na3 O29 2.658141 1_555
Na3 O3 2.777216 1_555
Na4 O43 2.367919 1_555
Na4 O40 2.393989 1_545
Na4 O0 2.438839 1_555
Na4 O11 2.482610 1_555
Na4 O12 2.558004 1_555
Na4 O14 2.658141 1_545
Na4 O35 2.777216 1_555
Na5 O27 2.284695 1_455
Na5 O30 2.354974 1_555
Na5 O18 2.383017 1_555
Na5 O36 2.469577 1_455
Na5 O22 2.496188 1_555
Na5 O31 2.817167 1_555
Na6 O9 2.284695 1_655
Na6 O34 2.354974 1_555
Na6 O38 2.383017 1_555
Na6 O23 2.469577 1_655
Na6 O5 2.496188 1_555
Na6 O12 2.817167 1_555
Na7 O1 2.284695 1_555
Na7 O15 2.354974 1_555
Na7 O24 2.383017 1_555
Na7 O13 2.469577 1_555
Na7 O6 2.496188 1_555
Na7 O42 2.817167 1_555
Ni0 O24 2.024081 1_555
Ni0 O1 2.040851 1_455
Ni0 O20 2.049969 1_455
Ni0 O42 2.191449 1_555
Ni0 O10 2.222102 1_455
Ni0 O15 2.233587 1_555
Ni1 O38 2.024081 1_555
Ni1 O9 2.040851 1_555
Ni1 O11 2.049969 1_555
Ni1 O12 2.191449 1_555
Ni1 O43 2.222102 1_555
Ni1 O34 2.233587 1_555
Ni2 O8 2.067968 1_554
Ni2 O31 2.072918 1_555
Ni2 O14 2.073960 1_554
Ni2 O36 2.101884 1_455
Ni2 O30 2.108773 1_555
Ni2 O28 2.180456 1_555
Ni3 O3 2.067968 1_556
Ni3 O12 2.072918 1_555
Ni3 O17 2.073960 1_556
Ni3 O23 2.101884 1_655
Ni3 O34 2.108773 1_555
Ni3 O43 2.180456 1_555
Ni4 O18 2.024081 1_555
Ni4 O27 2.040851 1_555
Ni4 O2 2.049969 1_555
Ni4 O31 2.191449 1_555
Ni4 O28 2.222102 1_555
Ni4 O30 2.233587 1_555
Ni5 O26 2.067968 1_556
Ni5 O32 2.072918 1_555
Ni5 O29 2.073960 1_556
Ni5 O40 2.101884 1_555
Ni5 O41 2.108773 1_555
Ni5 O39 2.180456 1_655
Ni6 O35 2.067968 1_554
Ni6 O42 2.072918 1_555
Ni6 O7 2.073960 1_554
Ni6 O13 2.101884 1_555
Ni6 O15 2.108773 1_555
Ni6 O10 2.180456 1_455
Ni7 O3 2.054323 1_555
Ni7 O8 2.054323 1_554
Ni7 O21 2.067349 1_554
Ni7 O33 2.067349 1_555
Ni7 O29 2.105427 1_555
Ni7 O7 2.105427 1_554
Ni8 O35 2.054323 1_554
Ni8 O26 2.054323 1_445
Ni8 O0 2.067349 1_554
Ni8 O37 2.067349 1_445
Ni8 O17 2.105427 1_455
Ni8 O14 2.105427 1_544
Ni9 O4 2.024081 1_555
Ni9 O16 2.040851 1_655
Ni9 O19 2.049969 1_655
Ni9 O32 2.191449 1_555
Ni9 O39 2.222102 1_655
Ni9 O41 2.233587 1_555
O0 P11 1.510836 1_455
O1 P9 1.536821 1_545
O2 P9 1.530121 1_555
O3 P4 1.576438 1_555
O4 P9 1.517164 1_555
O5 P11 1.614390 1_555
O5 P3 1.647107 1_655
O6 P2 1.614390 1_555
O6 P5 1.647107 1_555
O7 P0 1.575244 1_555
O8 P1 1.576438 1_555
O9 P8 1.536821 1_555
O10 P4 1.554661 1_555
O11 P3 1.530121 1_555
O12 P11 1.544599 1_555
O13 P4 1.542818 1_555
O14 P1 1.575244 1_555
O15 P7 1.548395 1_545
O16 P3 1.536821 1_565
O17 P4 1.575244 1_555
O18 P8 1.517164 1_555
O19 P8 1.530121 1_555
O20 P5 1.530121 1_555
O21 P6 1.510836 1_555
O22 P7 1.614390 1_555
O22 P9 1.647107 1_455
O23 P0 1.542818 1_555
O24 P3 1.517164 1_555
O25 P6 1.614390 1_555
O25 P8 1.647107 1_555
O26 P10 1.576438 1_555
O27 P5 1.536821 1_555
O28 P10 1.554661 1_555
O29 P10 1.575244 1_555
O30 P2 1.548395 1_555
O31 P7 1.544599 1_555
O32 P6 1.544599 1_555
O33 P2 1.510836 1_555
O34 P6 1.548395 1_555
O35 P0 1.576438 1_555
O36 P10 1.542818 1_555
O37 P7 1.510836 1_655
O38 P5 1.517164 1_555
O39 P1 1.554661 1_555
O40 P1 1.542818 1_555
O41 P11 1.548395 1_565
O42 P2 1.544599 1_555
O43 P0 1.554661 1_555
