# generated using pymatgen
data_Fe21O32
_symmetry_space_group_name_H-M   'P 1'
_cell_length_a   8.29208705
_cell_length_b   8.29208705
_cell_length_c   8.29208641
_cell_angle_alpha   89.39218062
_cell_angle_beta   89.39218062
_cell_angle_gamma   89.39218253
_symmetry_Int_Tables_number   1
_chemical_formula_structural   Fe21O32
_chemical_formula_sum   'Fe21 O32'
_cell_volume   570.05757429
_cell_formula_units_Z   1
loop_
 _symmetry_equiv_pos_site_id
 _symmetry_equiv_pos_as_xyz
  1  'x, y, z'
loop_
 _atom_site_type_symbol
 _atom_site_label
 _atom_site_symmetry_multiplicity
 _atom_site_fract_x
 _atom_site_fract_y
 _atom_site_fract_z
 _atom_site_occupancy
  Fe  Fe0  1  0.37318700  0.87615700  0.36501400  1
  Fe  Fe1  1  0.25110300  0.50095300  0.24894200  1
  Fe  Fe2  1  0.24894200  0.25110300  0.50095300  1
  Fe  Fe3  1  0.24275000  0.00000000  0.75725000  1
  Fe  Fe4  1  0.12616400  0.12616400  0.12616400  1
  Fe  Fe5  1  0.12384300  0.62681300  0.63498600  1
  Fe  Fe6  1  0.00391200  0.50000000  0.99608800  1
  Fe  Fe7  1  0.00000000  0.75725000  0.24275000  1
  Fe  Fe8  1  0.99608800  0.00391200  0.50000000  1
  Fe  Fe9  1  0.87615700  0.36501400  0.37318700  1
  Fe  Fe10  1  0.87383600  0.87383600  0.87383600  1
  Fe  Fe11  1  0.75725000  0.24275000  0.00000000  1
  Fe  Fe12  1  0.75105800  0.49904700  0.74889700  1
  Fe  Fe13  1  0.74889700  0.75105800  0.49904700  1
  Fe  Fe14  1  0.62681300  0.63498600  0.12384300  1
  Fe  Fe15  1  0.63498600  0.12384300  0.62681300  1
  Fe  Fe16  1  0.50095300  0.24894200  0.25110300  1
  Fe  Fe17  1  0.50000000  0.50000000  0.50000000  1
  Fe  Fe18  1  0.50000000  0.99608800  0.00391200  1
  Fe  Fe19  1  0.49904700  0.74889700  0.75105800  1
  Fe  Fe20  1  0.36501400  0.37318700  0.87615700  1
  O  O0  1  0.26516100  0.01386900  0.99319600  1
  O  O1  1  0.26423100  0.26423100  0.26423100  1
  O  O2  1  0.27000400  0.76076600  0.73027100  1
  O  O3  1  0.26972900  0.23923400  0.72999600  1
  O  O4  1  0.25625000  0.48771400  0.49228700  1
  O  O5  1  0.23614800  0.01464700  0.50581600  1
  O  O6  1  0.23725200  0.49179500  0.01538300  1
  O  O7  1  0.23923400  0.72999600  0.26972900  1
  O  O8  1  0.01538300  0.23725200  0.49179500  1
  O  O9  1  0.00680400  0.98613100  0.73483900  1
  O  O10  1  0.01464700  0.50581600  0.23614800  1
  O  O11  1  0.01386900  0.99319600  0.26516100  1
  O  O12  1  0.98613100  0.73483900  0.00680400  1
  O  O13  1  0.98535300  0.76385200  0.49418400  1
  O  O14  1  0.99319600  0.26516100  0.01386900  1
  O  O15  1  0.98461700  0.50820500  0.76274800  1
  O  O16  1  0.76076600  0.73027100  0.27000400  1
  O  O17  1  0.76274800  0.98461700  0.50820500  1
  O  O18  1  0.76385200  0.49418400  0.98535300  1
  O  O19  1  0.74375000  0.50771300  0.51228600  1
  O  O20  1  0.73027100  0.27000400  0.76076600  1
  O  O21  1  0.73576900  0.73576900  0.73576900  1
  O  O22  1  0.72999600  0.26972900  0.23923400  1
  O  O23  1  0.73483900  0.00680400  0.98613100  1
  O  O24  1  0.50771300  0.51228600  0.74375000  1
  O  O25  1  0.51228600  0.74375000  0.50771300  1
  O  O26  1  0.50581600  0.23614800  0.01464700  1
  O  O27  1  0.50820500  0.76274800  0.98461700  1
  O  O28  1  0.49179500  0.01538300  0.23725200  1
  O  O29  1  0.48771400  0.49228700  0.25625000  1
  O  O30  1  0.49418400  0.98535300  0.76385200  1
  O  O31  1  0.49228700  0.25625000  0.48771400  1
loop_
_geom_bond_atom_site_label_1
_geom_bond_atom_site_label_2
_geom_bond_distance
_geom_bond_site_symmetry_2
Fe0 O7 1.842399 1_555
Fe0 O28 1.843499 1_565
Fe0 O25 1.977496 1_555
Fe0 O5 1.986401 1_565
Fe1 O7 1.910274 1_555
Fe1 O6 1.943645 1_555
Fe1 O29 1.964107 1_555
Fe1 O10 1.964669 1_555
Fe1 O1 1.967601 1_555
Fe1 O4 2.020537 1_555
Fe2 O3 1.910274 1_555
Fe2 O8 1.943645 1_555
Fe2 O4 1.964107 1_555
Fe2 O5 1.964669 1_555
Fe2 O1 1.967601 1_555
Fe2 O31 2.020537 1_555
Fe3 O0 1.971936 1_555
Fe3 O9 1.971937 1_545
Fe3 O3 2.008784 1_555
Fe3 O2 2.008784 1_545
Fe3 O5 2.088424 1_555
Fe3 O30 2.088424 1_545
Fe4 O11 1.839355 1_545
Fe4 O0 1.839355 1_554
Fe4 O14 1.839355 1_455
Fe4 O1 2.003887 1_555
Fe5 O2 1.842399 1_555
Fe5 O15 1.843499 1_455
Fe5 O4 1.977496 1_555
Fe5 O13 1.986401 1_455
Fe6 O15 1.943583 1_455
Fe6 O6 1.943583 1_556
Fe6 O14 1.954210 1_456
Fe6 O12 1.954210 1_456
Fe6 O10 1.994647 1_556
Fe6 O18 1.994648 1_455
Fe7 O12 1.971936 1_455
Fe7 O11 1.971937 1_555
Fe7 O16 2.008784 1_455
Fe7 O7 2.008784 1_555
Fe7 O13 2.088424 1_455
Fe7 O10 2.088424 1_555
Fe8 O8 1.943583 1_655
Fe8 O17 1.943583 1_545
Fe8 O9 1.954209 1_645
Fe8 O11 1.954209 1_645
Fe8 O5 1.994648 1_655
Fe8 O13 1.994648 1_545
Fe9 O22 1.842399 1_555
Fe9 O8 1.843499 1_655
Fe9 O19 1.977496 1_555
Fe9 O10 1.986401 1_655
Fe10 O9 1.839355 1_655
Fe10 O12 1.839355 1_556
Fe10 O23 1.839355 1_565
Fe10 O21 2.003887 1_555
Fe11 O14 1.971937 1_555
Fe11 O23 1.971937 1_554
Fe11 O22 2.008784 1_555
Fe11 O20 2.008784 1_554
Fe11 O18 2.088424 1_554
Fe11 O26 2.088424 1_555
Fe12 O20 1.910274 1_555
Fe12 O15 1.943645 1_555
Fe12 O19 1.964106 1_555
Fe12 O18 1.964669 1_555
Fe12 O21 1.967601 1_555
Fe12 O24 2.020537 1_555
Fe13 O16 1.910274 1_555
Fe13 O17 1.943645 1_555
Fe13 O25 1.964107 1_555
Fe13 O13 1.964669 1_555
Fe13 O21 1.967601 1_555
Fe13 O19 2.020537 1_555
Fe14 O16 1.842399 1_555
Fe14 O27 1.843499 1_554
Fe14 O29 1.977496 1_555
Fe14 O18 1.986401 1_554
Fe15 O20 1.842399 1_555
Fe15 O17 1.843499 1_545
Fe15 O31 1.977496 1_555
Fe15 O30 1.986401 1_545
Fe16 O22 1.910274 1_555
Fe16 O28 1.943645 1_555
Fe16 O31 1.964106 1_555
Fe16 O26 1.964669 1_555
Fe16 O1 1.967601 1_555
Fe16 O29 2.020537 1_555
Fe17 O29 2.026562 1_555
Fe17 O24 2.026562 1_555
Fe17 O4 2.026562 1_555
Fe17 O25 2.026562 1_555
Fe17 O31 2.026562 1_555
Fe17 O19 2.026562 1_555
Fe18 O28 1.943583 1_565
Fe18 O27 1.943583 1_554
Fe18 O23 1.954210 1_564
Fe18 O0 1.954210 1_564
Fe18 O30 1.994647 1_554
Fe18 O26 1.994648 1_565
Fe19 O2 1.910274 1_555
Fe19 O27 1.943645 1_555
Fe19 O24 1.964107 1_555
Fe19 O30 1.964669 1_555
Fe19 O21 1.967601 1_555
Fe19 O25 2.020537 1_555
Fe20 O3 1.842399 1_555
Fe20 O6 1.843499 1_556
Fe20 O24 1.977496 1_555
Fe20 O26 1.986401 1_556
