# generated using pymatgen
data_NaYbCO3F2
_symmetry_space_group_name_H-M   'P 1'
_cell_length_a   6.71526900
_cell_length_b   6.82547400
_cell_length_c   9.42216400
_cell_angle_alpha   90.00000000
_cell_angle_beta   90.00000000
_cell_angle_gamma   90.00000000
_symmetry_Int_Tables_number   1
_chemical_formula_structural   NaYbCO3F2
_chemical_formula_sum   'Na4 Yb4 C4 O12 F8'
_cell_volume   431.86388784
_cell_formula_units_Z   4
loop_
 _symmetry_equiv_pos_site_id
 _symmetry_equiv_pos_as_xyz
  1  'x, y, z'
loop_
 _atom_site_type_symbol
 _atom_site_label
 _atom_site_symmetry_multiplicity
 _atom_site_fract_x
 _atom_site_fract_y
 _atom_site_fract_z
 _atom_site_occupancy
  Na  Na0  1  0.18552900  0.25000000  0.22912100  1
  Na  Na1  1  0.68552900  0.25000000  0.27087900  1
  Na  Na2  1  0.81447100  0.75000000  0.77087900  1
  Na  Na3  1  0.31447100  0.75000000  0.72912100  1
  Yb  Yb0  1  0.50570200  0.75000000  0.06111200  1
  Yb  Yb1  1  0.00570200  0.75000000  0.43888800  1
  Yb  Yb2  1  0.99429800  0.25000000  0.56111200  1
  Yb  Yb3  1  0.49429800  0.25000000  0.93888800  1
  C  C0  1  0.54369900  0.75000000  0.43684300  1
  C  C1  1  0.95630100  0.25000000  0.93684300  1
  C  C2  1  0.04369900  0.75000000  0.06315700  1
  C  C3  1  0.45630100  0.25000000  0.56315700  1
  O  O0  1  0.15860700  0.75000000  0.95489600  1
  O  O1  1  0.14484300  0.25000000  0.95326300  1
  O  O2  1  0.64484300  0.25000000  0.54673700  1
  O  O3  1  0.35515700  0.75000000  0.45326300  1
  O  O4  1  0.34139300  0.25000000  0.45489600  1
  O  O5  1  0.37905000  0.25000000  0.68686500  1
  O  O6  1  0.85515700  0.75000000  0.04673700  1
  O  O7  1  0.87905000  0.25000000  0.81313500  1
  O  O8  1  0.12095000  0.75000000  0.18686500  1
  O  O9  1  0.84139300  0.25000000  0.04510400  1
  O  O10  1  0.65860700  0.75000000  0.54510400  1
  O  O11  1  0.62095000  0.75000000  0.31313500  1
  F  F0  1  0.04709000  0.94336600  0.63361300  1
  F  F1  1  0.54709000  0.55663400  0.86638700  1
  F  F2  1  0.04709000  0.55663400  0.63361300  1
  F  F3  1  0.45291000  0.44336600  0.13361300  1
  F  F4  1  0.54709000  0.94336600  0.86638700  1
  F  F5  1  0.95291000  0.44336600  0.36638700  1
  F  F6  1  0.45291000  0.05663400  0.13361300  1
  F  F7  1  0.95291000  0.05663400  0.36638700  1
loop_
_geom_bond_atom_site_label_1
_geom_bond_atom_site_label_2
_geom_bond_distance
_geom_bond_site_symmetry_2
Na0 O4 2.370838 1_555
Na0 O1 2.613500 1_554
Na0 O9 2.889076 1_455
Na1 O9 2.370838 1_555
Na1 O2 2.613500 1_555
Na1 O4 2.889076 1_555
Na2 O10 2.370838 1_555
Na2 O6 2.613500 1_556
Na2 O0 2.889076 1_655
Na3 O0 2.370838 1_555
Na3 O3 2.613500 1_555
Na3 O10 2.889076 1_555
C0 O3 1.275528 1_555
C0 O11 1.275825 1_555
C0 O10 1.279036 1_555
C1 O1 1.275528 1_655
C1 O7 1.275825 1_555
C1 O9 1.279036 1_556
C2 O6 1.275528 1_455
C2 O8 1.275825 1_555
C2 O0 1.279036 1_554
C3 O2 1.275528 1_555
C3 O5 1.275825 1_555
C3 O4 1.279036 1_555
O0 Yb0 2.536606 1_556
O1 Yb3 2.350590 1_555
O2 Yb2 2.350590 1_555
O3 Yb1 2.350590 1_555
O4 Yb2 2.536606 1_455
O5 Yb3 2.497537 1_555
O5 Yb2 2.842443 1_455
O6 Yb0 2.350590 1_555
O7 Yb2 2.497537 1_555
O7 Yb3 2.842443 1_555
O8 Yb1 2.497537 1_555
O8 Yb0 2.842443 1_555
O9 Yb3 2.536606 1_554
O10 Yb1 2.536606 1_655
O11 Yb0 2.497537 1_555
O11 Yb1 2.842443 1_655
F0 Yb2 2.229944 1_465
F0 Yb1 2.277146 1_555
F0 Na3 2.403261 1_555
F0 Na2 2.419669 1_455
F1 Yb3 2.229944 1_555
F1 Yb0 2.277146 1_556
F1 Na2 2.403261 1_555
F1 Na3 2.419669 1_555
F2 Yb2 2.229944 1_455
F2 Yb1 2.277146 1_555
F2 Na3 2.403261 1_555
F2 Na2 2.419669 1_455
F3 Yb0 2.229944 1_555
F3 Yb3 2.277146 1_554
F3 Na0 2.403261 1_555
F3 Na1 2.419669 1_555
F4 Yb3 2.229944 1_565
F4 Yb0 2.277146 1_556
F4 Na2 2.403261 1_555
F4 Na3 2.419669 1_555
F5 Yb1 2.229944 1_655
F5 Yb2 2.277146 1_555
F5 Na1 2.403261 1_555
F5 Na0 2.419669 1_655
F6 Yb0 2.229944 1_545
F6 Yb3 2.277146 1_554
F6 Na0 2.403261 1_555
F6 Na1 2.419669 1_555
F7 Yb1 2.229944 1_645
F7 Yb2 2.277146 1_555
F7 Na1 2.403261 1_555
F7 Na0 2.419669 1_655
