# generated using pymatgen
data_PrZr2F11
_symmetry_space_group_name_H-M   'P 1'
_cell_length_a   8.41633638
_cell_length_b   8.41628777
_cell_length_c   8.41631041
_cell_angle_alpha   124.81882357
_cell_angle_beta   106.31149346
_cell_angle_gamma   98.52047411
_symmetry_Int_Tables_number   1
_chemical_formula_structural   PrZr2F11
_chemical_formula_sum   'Pr2 Zr4 F22'
_cell_volume   432.21789717
_cell_formula_units_Z   2
loop_
 _symmetry_equiv_pos_site_id
 _symmetry_equiv_pos_as_xyz
  1  'x, y, z'
loop_
 _atom_site_type_symbol
 _atom_site_label
 _atom_site_symmetry_multiplicity
 _atom_site_fract_x
 _atom_site_fract_y
 _atom_site_fract_z
 _atom_site_occupancy
  Pr  Pr0  1  0.25000495  0.25000474  0.00001236  1
  Pr  Pr1  1  0.74999521  0.74999554  -0.00001229  1
  Zr  Zr0  1  0.81938574  0.63272258  0.45210118  1
  Zr  Zr1  1  0.18061463  0.36727733  0.54789833  1
  Zr  Zr2  1  0.31938177  0.86728179  0.18666348  1
  Zr  Zr3  1  0.68061802  0.13271808  0.81333579  1
  F  F0  1  0.32155979  0.03387763  0.08239360  1
  F  F1  1  0.71936088  0.86990164  0.58926504  1
  F  F2  1  0.95148072  0.23916824  0.91759591  1
  F  F3  1  0.94727254  0.10634596  0.31227622  1
  F  F4  1  0.21936302  0.63009843  0.84946012  1
  F  F5  1  0.79407341  0.63499542  0.68772133  1
  F  F6  1  0.54851773  0.46612362  0.28768304  1
  F  F7  1  0.44726837  0.13499137  0.84090453  1
  F  F8  1  0.78063731  0.36990193  0.15054021  1
  F  F9  1  0.29407022  0.60634725  0.15907480  1
  F  F10  1  0.45148231  0.53387658  0.71231700  1
  F  F11  1  0.70592741  0.39365128  0.84092384  1
  F  F12  1  0.55273195  0.86500877  0.15909559  1
  F  F13  1  0.04851936  0.76083237  0.08240412  1
  F  F14  1  0.00000008  0.50000011  0.50000002  1
  F  F15  1  0.82155740  0.73916491  0.28767979  1
  F  F16  1  0.20592664  0.36500446  0.31227864  1
  F  F17  1  0.67844042  0.96612270  0.91760658  1
  F  F18  1  0.17844281  0.26083541  0.71232042  1
  F  F19  1  0.28063948  0.13009845  0.41073523  1
  F  F20  1  0.05272768  0.89365432  0.68772409  1
  F  F21  1  0.50000013  0.00000012  0.50000003  1
loop_
_geom_bond_atom_site_label_1
_geom_bond_atom_site_label_2
_geom_bond_distance
_geom_bond_site_symmetry_2
F0 Zr2 2.035425 1_545
F0 Pr0 2.383783 1_555
F1 Zr3 2.085901 1_565
F1 Zr0 2.106742 1_555
F2 Zr3 2.035418 1_555
F2 Pr0 2.383889 1_656
F3 Zr1 2.042864 1_655
F3 Pr1 2.393954 1_545
F4 Zr1 2.085915 1_555
F4 Zr2 2.106732 1_556
F5 Zr0 2.042900 1_555
F5 Pr1 2.393891 1_556
F6 Zr0 2.035445 1_555
F6 Pr0 2.383775 1_555
F7 Zr3 2.042874 1_555
F7 Pr0 2.394026 1_556
F8 Zr0 2.085910 1_555
F8 Zr3 2.106738 1_554
F9 Zr2 2.042895 1_555
F9 Pr0 2.393911 1_555
F10 Zr1 2.035443 1_555
F10 Pr1 2.383776 1_556
F11 Zr3 2.042888 1_555
F11 Pr1 2.393918 1_556
F12 Zr2 2.042875 1_555
F12 Pr1 2.394025 1_555
F13 Zr2 2.035416 1_555
F13 Pr1 2.383888 1_455
F14 Zr0 2.096232 1_455
F14 Zr1 2.096234 1_555
F15 Zr0 2.035409 1_555
F15 Pr1 2.383889 1_555
F16 Zr1 2.042895 1_555
F16 Pr0 2.393892 1_555
F17 Zr3 2.035428 1_565
F17 Pr1 2.383783 1_556
F18 Zr1 2.035411 1_555
F18 Pr0 2.383888 1_556
F19 Zr2 2.085902 1_545
F19 Zr1 2.106741 1_555
F20 Zr0 2.042865 1_455
F20 Pr0 2.393954 1_566
F21 Zr3 2.096221 1_555
F21 Zr2 2.096226 1_545
