# generated using pymatgen
data_CsEr(TaBr3)6
_symmetry_space_group_name_H-M   'P 1'
_cell_length_a   9.94298560
_cell_length_b   9.94298560
_cell_length_c   18.49250700
_cell_angle_alpha   90.00000000
_cell_angle_beta   90.00000000
_cell_angle_gamma   119.99999732
_symmetry_Int_Tables_number   1
_chemical_formula_structural   CsEr(TaBr3)6
_chemical_formula_sum   'Cs2 Er2 Ta12 Br36'
_cell_volume   1583.28849446
_cell_formula_units_Z   2
loop_
 _symmetry_equiv_pos_site_id
 _symmetry_equiv_pos_as_xyz
  1  'x, y, z'
loop_
 _atom_site_type_symbol
 _atom_site_label
 _atom_site_symmetry_multiplicity
 _atom_site_fract_x
 _atom_site_fract_y
 _atom_site_fract_z
 _atom_site_occupancy
  Cs  Cs0  1  0.66666700  0.33333300  0.25000000  1
  Cs  Cs1  1  0.33333300  0.66666700  0.75000000  1
  Er  Er0  1  0.66666700  0.33333300  0.75000000  1
  Er  Er1  1  0.33333300  0.66666700  0.25000000  1
  Ta  Ta0  1  0.85281000  0.81525500  0.93590100  1
  Ta  Ta1  1  0.81525500  0.85281000  0.43590100  1
  Ta  Ta2  1  0.03755600  0.18474500  0.43590100  1
  Ta  Ta3  1  0.85281000  0.03755600  0.56409900  1
  Ta  Ta4  1  0.96244400  0.81525500  0.56409900  1
  Ta  Ta5  1  0.03755600  0.85281000  0.06409900  1
  Ta  Ta6  1  0.96244400  0.14719000  0.93590100  1
  Ta  Ta7  1  0.18474500  0.14719000  0.56409900  1
  Ta  Ta8  1  0.14719000  0.96244400  0.43590100  1
  Ta  Ta9  1  0.18474500  0.03755600  0.93590100  1
  Ta  Ta10  1  0.81525500  0.96244400  0.06409900  1
  Ta  Ta11  1  0.14719000  0.18474500  0.06409900  1
  Br  Br0  1  0.08780200  0.44805400  0.33772700  1
  Br  Br1  1  0.58564300  0.72514900  0.99907500  1
  Br  Br2  1  0.23033800  0.18444100  0.34053800  1
  Br  Br3  1  0.27485100  0.41435700  0.50092500  1
  Br  Br4  1  0.27485100  0.86049300  0.99907500  1
  Br  Br5  1  0.55194600  0.91219800  0.16227300  1
  Br  Br6  1  0.55194600  0.63974900  0.33772700  1
  Br  Br7  1  0.86049300  0.27485100  0.49907500  1
  Br  Br8  1  0.13950700  0.41435700  0.99907500  1
  Br  Br9  1  0.72514900  0.58564300  0.49907500  1
  Br  Br10  1  0.81555900  0.76966200  0.15946200  1
  Br  Br11  1  0.76966200  0.81555900  0.65946200  1
  Br  Br12  1  0.04589600  0.81555900  0.84053800  1
  Br  Br13  1  0.63974900  0.08780200  0.66227300  1
  Br  Br14  1  0.18444100  0.95410400  0.65946200  1
  Br  Br15  1  0.23033800  0.04589600  0.15946200  1
  Br  Br16  1  0.36025100  0.91219800  0.33772700  1
  Br  Br17  1  0.41435700  0.27485100  0.00092500  1
  Br  Br18  1  0.41435700  0.13950700  0.49907500  1
  Br  Br19  1  0.13950700  0.72514900  0.50092500  1
  Br  Br20  1  0.63974900  0.55194600  0.83772700  1
  Br  Br21  1  0.44805400  0.08780200  0.83772700  1
  Br  Br22  1  0.72514900  0.13950700  0.00092500  1
  Br  Br23  1  0.91219800  0.55194600  0.66227300  1
  Br  Br24  1  0.36025100  0.44805400  0.16227300  1
  Br  Br25  1  0.44805400  0.36025100  0.66227300  1
  Br  Br26  1  0.95410400  0.76966200  0.34053800  1
  Br  Br27  1  0.04589600  0.23033800  0.65946200  1
  Br  Br28  1  0.86049300  0.58564300  0.00092500  1
  Br  Br29  1  0.95410400  0.18444100  0.15946200  1
  Br  Br30  1  0.76966200  0.95410400  0.84053800  1
  Br  Br31  1  0.18444100  0.23033800  0.84053800  1
  Br  Br32  1  0.08780200  0.63974900  0.16227300  1
  Br  Br33  1  0.81555900  0.04589600  0.34053800  1
  Br  Br34  1  0.91219800  0.36025100  0.83772700  1
  Br  Br35  1  0.58564300  0.86049300  0.50092500  1
loop_
_geom_bond_atom_site_label_1
_geom_bond_atom_site_label_2
_geom_bond_distance
_geom_bond_site_symmetry_2
Br0 Er1 2.830205 1_555
Br0 Ta2 3.015282 1_555
Br0 Cs0 4.085389 1_455
Br1 Ta10 2.615027 1_556
Br1 Ta0 2.616137 1_555
Br2 Ta2 2.605757 1_555
Br2 Ta8 2.615491 1_545
Br2 Cs0 4.170609 1_555
Br3 Ta2 2.615027 1_555
Br3 Ta7 2.616137 1_555
Br4 Ta5 2.615027 1_556
Br4 Ta9 2.616154 1_565
Br5 Er1 2.830205 1_555
Br5 Ta10 3.015282 1_555
Br5 Cs0 4.085389 1_565
Br6 Er1 2.830205 1_555
Br6 Ta1 3.015277 1_555
Br6 Cs0 4.085406 1_555
Br7 Ta3 2.615027 1_555
Br7 Ta2 2.616154 1_655
Br8 Ta11 2.615027 1_556
Br8 Ta6 2.616140 1_455
Br9 Ta4 2.615027 1_555
Br9 Ta1 2.616137 1_555
Br10 Ta10 2.605757 1_555
Br10 Ta5 2.615491 1_655
Br10 Cs0 4.170609 1_555
Br11 Ta4 2.605757 1_555
Br11 Ta3 2.615491 1_565
Br11 Cs1 4.170609 1_555
Br12 Ta0 2.605757 1_455
Br12 Ta9 2.615491 1_565
Br12 Cs1 4.170609 1_555
Br13 Er0 2.830205 1_555
Br13 Ta3 3.015267 1_555
Br13 Cs1 4.085393 1_545
Br14 Ta7 2.605757 1_565
Br14 Ta4 2.615491 1_455
Br14 Cs1 4.170609 1_555
Br15 Ta5 2.605757 1_545
Br15 Ta11 2.615491 1_555
Br15 Cs0 4.170609 1_555
Br16 Er1 2.830205 1_555
Br16 Ta8 3.015267 1_555
Br16 Cs0 4.085393 1_565
Br17 Ta9 2.615027 1_554
Br17 Ta11 2.616137 1_555
Br18 Ta7 2.615027 1_555
Br18 Ta8 2.616140 1_545
Br19 Ta8 2.615027 1_555
Br19 Ta4 2.616154 1_455
Br20 Er0 2.830205 1_555
Br20 Ta0 3.015277 1_555
Br20 Cs1 4.085406 1_555
Br21 Er0 2.830205 1_555
Br21 Ta9 3.015282 1_555
Br21 Cs1 4.085389 1_545
Br22 Ta6 2.615027 1_554
Br22 Ta10 2.616154 1_545
Br23 Er0 2.830205 1_555
Br23 Ta4 3.015282 1_555
Br23 Cs1 4.085389 1_655
Br24 Er1 2.830205 1_555
Br24 Ta11 3.015277 1_555
Br24 Cs0 4.085406 1_555
Br25 Er0 2.830205 1_555
Br25 Ta7 3.015277 1_555
Br25 Cs1 4.085406 1_555
Br26 Ta8 2.605757 1_655
Br26 Ta1 2.615491 1_555
Br26 Cs0 4.170609 1_555
Br27 Ta3 2.605757 1_455
Br27 Ta7 2.615491 1_555
Br27 Cs1 4.170609 1_555
Br28 Ta0 2.615027 1_554
Br28 Ta5 2.616140 1_655
Br29 Ta11 2.605757 1_655
Br29 Ta10 2.615491 1_545
Br29 Cs0 4.170609 1_555
Br30 Ta6 2.605757 1_565
Br30 Ta0 2.615491 1_555
Br30 Cs1 4.170609 1_555
Br31 Ta9 2.605757 1_555
Br31 Ta6 2.615491 1_455
Br31 Cs1 4.170609 1_555
Br32 Er1 2.830205 1_555
Br32 Ta5 3.015267 1_555
Br32 Cs0 4.085393 1_455
Br33 Ta1 2.605757 1_545
Br33 Ta2 2.615491 1_655
Br33 Cs0 4.170609 1_555
Br34 Er0 2.830205 1_555
Br34 Ta6 3.015267 1_555
Br34 Cs1 4.085393 1_655
Br35 Ta1 2.615027 1_555
Br35 Ta3 2.616140 1_565
