# generated using pymatgen
data_TiCr2
_symmetry_space_group_name_H-M   'P 1'
_cell_length_a   4.84101424
_cell_length_b   4.84101423
_cell_length_c   15.68383809
_cell_angle_alpha   90.00000000
_cell_angle_beta   90.00000000
_cell_angle_gamma   120.00072729
_symmetry_Int_Tables_number   1
_chemical_formula_structural   TiCr2
_chemical_formula_sum   'Ti8 Cr16'
_cell_volume   318.31163854
_cell_formula_units_Z   8
loop_
 _symmetry_equiv_pos_site_id
 _symmetry_equiv_pos_as_xyz
  1  'x, y, z'
loop_
 _atom_site_type_symbol
 _atom_site_label
 _atom_site_symmetry_multiplicity
 _atom_site_fract_x
 _atom_site_fract_y
 _atom_site_fract_z
 _atom_site_occupancy
  Ti  Ti0  1  0.33333302  0.66666698  0.84354303  1
  Ti  Ti1  1  0.99999884  0.00000116  0.09487636  1
  Ti  Ti2  1  0.00000116  0.99999884  0.90512364  1
  Ti  Ti3  1  0.66666698  0.33333302  0.15645697  1
  Ti  Ti4  1  0.00000116  0.99999884  0.59487636  1
  Ti  Ti5  1  0.66666698  0.33333302  0.34354303  1
  Ti  Ti6  1  0.99999884  0.00000116  0.40512364  1
  Ti  Ti7  1  0.33333302  0.66666698  0.65645697  1
  Cr  Cr0  1  0.00000000  0.50000000  0.50000000  1
  Cr  Cr1  1  0.83638678  0.16361322  0.75000000  1
  Cr  Cr2  1  0.66666603  0.33333297  0.62349763  1
  Cr  Cr3  1  0.16361256  0.32722379  0.25000000  1
  Cr  Cr4  1  0.32722479  0.16361256  0.75000000  1
  Cr  Cr5  1  0.83638744  0.67277621  0.75000000  1
  Cr  Cr6  1  0.50000000  0.50000000  -0.00000000  1
  Cr  Cr7  1  0.67277521  0.83638744  0.25000000  1
  Cr  Cr8  1  0.50000000  0.50000000  0.50000000  1
  Cr  Cr9  1  0.16361322  0.83638678  0.25000000  1
  Cr  Cr10  1  0.33333397  0.66666703  0.37650237  1
  Cr  Cr11  1  0.00000000  0.50000000  -0.00000000  1
  Cr  Cr12  1  0.66666603  0.33333297  0.87650237  1
  Cr  Cr13  1  0.50000000  0.00000000  0.50000000  1
  Cr  Cr14  1  0.33333397  0.66666703  0.12349763  1
  Cr  Cr15  1  0.50000000  0.00000000  -0.00000000  1
loop_
_geom_bond_atom_site_label_1
_geom_bond_atom_site_label_2
_geom_bond_distance
_geom_bond_site_symmetry_2
Ti0 Ti7 2.934227 1_555
Ti0 Ti2 2.957116 1_545
Ti0 Ti2 2.957116 1_655
Ti0 Ti2 2.957128 1_555
Ti1 Ti3 2.957116 1_545
Ti1 Ti3 2.957116 1_655
Ti1 Ti3 2.957128 1_555
Ti1 Ti2 2.976051 1_644
Ti3 Ti5 2.934227 1_555
Ti4 Ti7 2.957116 1_565
Ti4 Ti7 2.957116 1_455
Ti4 Ti7 2.957128 1_555
Ti4 Ti6 2.976051 1_465
Ti5 Ti6 2.957116 1_565
Ti5 Ti6 2.957116 1_455
Ti5 Ti6 2.957128 1_555
Cr0 Cr10 2.388426 1_555
Cr0 Cr2 2.388426 1_455
Cr0 Cr13 2.420481 1_565
Cr0 Cr13 2.420481 1_455
Cr0 Cr8 2.420507 1_555
Cr0 Cr8 2.420507 1_455
Cr0 Ti5 2.823876 1_455
Cr0 Ti7 2.823876 1_555
Cr0 Ti6 2.841308 1_455
Cr0 Ti4 2.841308 1_555
Cr0 Ti4 2.841323 1_545
Cr0 Ti6 2.841323 1_465
Cr1 Cr5 2.376151 1_545
Cr1 Cr4 2.376155 1_655
Cr1 Cr12 2.441641 1_555
Cr1 Cr2 2.441641 1_555
Cr1 Cr4 2.464859 1_555
Cr1 Cr5 2.464864 1_555
Cr1 Ti4 2.793073 1_645
Cr1 Ti2 2.793073 1_645
Cr1 Ti0 2.830513 1_655
Cr1 Ti7 2.830513 1_655
Cr1 Ti0 2.830513 1_545
Cr1 Ti7 2.830513 1_545
Cr2 Cr8 2.388432 1_555
Cr2 Cr4 2.441633 1_555
Cr2 Cr5 2.441638 1_555
Cr2 Ti4 2.830751 1_545
Cr2 Ti4 2.830755 1_655
Cr2 Ti4 2.830800 1_645
Cr2 Ti7 2.842339 1_545
Cr2 Ti7 2.842343 1_655
Cr2 Ti7 2.842374 1_555
Cr3 Cr7 2.376122 1_445
Cr3 Cr9 2.376151 1_545
Cr3 Cr7 2.464839 1_555
Cr3 Cr9 2.464864 1_555
Cr3 Ti1 2.793053 1_455
Cr3 Ti6 2.793053 1_455
Cr3 Ti3 2.830535 1_555
Cr3 Ti5 2.830535 1_555
Cr3 Ti3 2.830537 1_455
Cr3 Ti5 2.830537 1_455
Cr4 Cr5 2.376122 1_445
Cr4 Cr5 2.464839 1_555
Cr4 Ti4 2.793055 1_545
Cr4 Ti2 2.793055 1_545
Cr4 Ti0 2.830535 1_545
Cr4 Ti7 2.830535 1_545
Cr4 Ti0 2.830537 1_555
Cr4 Ti7 2.830537 1_555
Cr5 Ti2 2.793053 1_655
Cr5 Ti4 2.793053 1_655
Cr5 Ti0 2.830535 1_555
Cr5 Ti7 2.830535 1_555
Cr5 Ti0 2.830537 1_655
Cr5 Ti7 2.830537 1_655
Cr6 Ti3 2.823886 1_555
Cr6 Ti0 2.823886 1_554
Cr6 Ti2 2.841293 1_544
Cr6 Ti1 2.841293 1_565
Cr6 Ti1 2.841293 1_455
Cr6 Ti2 2.841293 1_654
Cr7 Cr9 2.376155 1_655
Cr7 Cr9 2.464859 1_555
Cr7 Ti6 2.793055 1_565
Cr7 Ti1 2.793055 1_565
Cr7 Ti3 2.830535 1_565
Cr7 Ti5 2.830535 1_565
Cr7 Ti3 2.830537 1_555
Cr7 Ti5 2.830537 1_555
Cr8 Ti5 2.823886 1_555
Cr8 Ti7 2.823886 1_555
Cr8 Ti4 2.841293 1_545
Cr8 Ti6 2.841293 1_565
Cr8 Ti6 2.841293 1_455
Cr8 Ti4 2.841293 1_655
Cr9 Ti6 2.793073 1_465
Cr9 Ti1 2.793073 1_465
Cr9 Ti3 2.830513 1_455
Cr9 Ti5 2.830513 1_455
Cr9 Ti3 2.830513 1_565
Cr9 Ti5 2.830513 1_565
Cr10 Cr13 2.388423 1_565
Cr10 Cr8 2.388432 1_555
Cr10 Cr7 2.441633 1_555
Cr10 Cr3 2.441638 1_555
Cr10 Cr9 2.441641 1_555
Cr10 Ti6 2.830751 1_565
Cr10 Ti6 2.830755 1_455
Cr10 Ti6 2.830800 1_465
Cr10 Ti5 2.842339 1_565
Cr10 Ti5 2.842343 1_455
Cr10 Ti5 2.842374 1_555
Cr11 Cr12 2.388426 1_454
Cr11 Cr14 2.388426 1_555
Cr11 Cr15 2.420481 1_565
Cr11 Cr15 2.420481 1_455
Cr11 Cr6 2.420507 1_555
Cr11 Cr6 2.420507 1_455
Cr11 Ti3 2.823876 1_455
Cr11 Ti0 2.823876 1_554
Cr11 Ti2 2.841308 1_554
Cr11 Ti1 2.841308 1_455
Cr11 Ti2 2.841323 1_544
Cr11 Ti1 2.841323 1_465
Cr12 Cr15 2.388423 1_556
Cr12 Cr6 2.388432 1_556
Cr12 Cr4 2.441633 1_555
Cr12 Cr5 2.441638 1_555
Cr12 Ti2 2.830751 1_545
Cr12 Ti2 2.830755 1_655
Cr12 Ti2 2.830800 1_645
Cr12 Ti0 2.842339 1_545
Cr12 Ti0 2.842343 1_655
Cr12 Ti0 2.842374 1_555
Cr13 Cr2 2.388423 1_555
Cr13 Cr8 2.420507 1_555
Cr13 Cr8 2.420507 1_545
Cr13 Ti5 2.823876 1_555
Cr13 Ti7 2.823876 1_545
Cr13 Ti4 2.841308 1_545
Cr13 Ti6 2.841308 1_555
Cr13 Ti6 2.841323 1_455
Cr13 Ti4 2.841323 1_645
Cr14 Cr15 2.388423 1_565
Cr14 Cr6 2.388432 1_555
Cr14 Cr7 2.441633 1_555
Cr14 Cr3 2.441638 1_555
Cr14 Cr9 2.441641 1_555
Cr14 Ti1 2.830751 1_565
Cr14 Ti1 2.830755 1_455
Cr14 Ti1 2.830800 1_465
Cr14 Ti3 2.842339 1_565
Cr14 Ti3 2.842343 1_455
Cr14 Ti3 2.842374 1_555
Cr15 Cr6 2.420507 1_555
Cr15 Cr6 2.420507 1_545
Cr15 Ti3 2.823876 1_555
Cr15 Ti0 2.823876 1_544
Cr15 Ti2 2.841308 1_544
Cr15 Ti1 2.841308 1_555
Cr15 Ti2 2.841323 1_644
Cr15 Ti1 2.841323 1_455
