# generated using pymatgen
data_Ce2Fe12P7
_symmetry_space_group_name_H-M   'P 1'
_cell_length_a   8.98661006
_cell_length_b   8.98667527
_cell_length_c   3.73569303
_cell_angle_alpha   89.99999484
_cell_angle_beta   89.99999041
_cell_angle_gamma   119.99833881
_symmetry_Int_Tables_number   1
_chemical_formula_structural   Ce2Fe12P7
_chemical_formula_sum   'Ce2 Fe12 P7'
_cell_volume   261.27871408
_cell_formula_units_Z   1
loop_
 _symmetry_equiv_pos_site_id
 _symmetry_equiv_pos_as_xyz
  1  'x, y, z'
loop_
 _atom_site_type_symbol
 _atom_site_label
 _atom_site_symmetry_multiplicity
 _atom_site_fract_x
 _atom_site_fract_y
 _atom_site_fract_z
 _atom_site_occupancy
  Ce  Ce0  1  -0.00002592  -0.00001357  0.00000007  1
  Ce  Ce1  1  0.33332762  0.66667870  0.49999979  1
  Fe  Fe0  1  0.08864731  0.39388130  0.00000037  1
  Fe  Fe1  1  0.30518567  0.91130565  0.00000014  1
  Fe  Fe2  1  0.60614993  0.69483101  0.00000001  1
  Fe  Fe3  1  0.81902042  0.61059697  0.00000014  1
  Fe  Fe4  1  0.79157963  0.18097836  -0.00000027  1
  Fe  Fe5  1  0.38941135  0.20841097  -0.00000024  1
  Fe  Fe6  1  0.04674264  0.76503543  0.49999998  1
  Fe  Fe7  1  0.71829527  0.95327008  0.50000024  1
  Fe  Fe8  1  0.23494324  0.28169814  0.50000014  1
  Fe  Fe9  1  0.87917489  0.43075455  0.49999985  1
  Fe  Fe10  1  0.55161190  0.12081112  0.50000018  1
  Fe  Fe11  1  0.56926394  0.44842627  0.49999992  1
  P  P0  1  0.07821335  0.64280144  -0.00000014  1
  P  P1  1  0.56459524  0.92180978  0.00000018  1
  P  P2  1  0.35721400  0.43542291  0.00000004  1
  P  P3  1  0.77496603  0.73527462  0.49999998  1
  P  P4  1  0.96027306  0.22502620  0.49999989  1
  P  P5  1  0.26472053  0.03967400  0.49999963  1
  P  P6  1  0.66668992  0.33332805  0.00000009  1
loop_
_geom_bond_atom_site_label_1
_geom_bond_atom_site_label_2
_geom_bond_distance
_geom_bond_site_symmetry_2
Ce0 P3 2.902868 1_445
Ce0 P3 2.902869 1_444
Ce0 P4 2.903028 1_455
Ce0 P4 2.903029 1_454
Ce0 P5 2.903103 1_555
Ce0 P5 2.903104 1_554
Ce0 Fe7 3.001684 1_444
Ce0 Fe7 3.001684 1_445
Ce0 Fe6 3.001831 1_545
Ce0 Fe6 3.001832 1_544
Ce0 Fe8 3.001892 1_554
Ce0 Fe8 3.001893 1_555
Ce0 Fe4 3.032936 1_455
Ce0 Fe3 3.033060 1_445
Ce0 Fe5 3.033404 1_555
Ce0 Fe2 3.215728 1_445
Ce0 Fe1 3.216199 1_545
Ce0 Fe0 3.216302 1_555
Ce1 P0 2.880807 1_556
Ce1 P0 2.880807 1_555
Ce1 P2 2.880974 1_555
Ce1 P2 2.880975 1_556
Ce1 P1 2.881005 1_555
Ce1 P1 2.881008 1_556
Ce1 Fe1 2.990257 1_555
Ce1 Fe1 2.990259 1_556
Ce1 Fe0 2.990574 1_555
Ce1 Fe0 2.990576 1_556
Ce1 Fe2 2.990597 1_555
Ce1 Fe2 2.990598 1_556
Ce1 Fe6 3.112943 1_555
Ce1 Fe7 3.113212 1_555
Ce1 Fe8 3.113276 1_555
Fe0 P2 2.250201 1_555
Fe0 P0 2.285288 1_555
Fe0 P4 2.317731 1_455
Fe0 P4 2.317735 1_454
Fe1 P0 2.249734 1_555
Fe1 P1 2.285479 1_555
Fe1 P5 2.317621 1_565
Fe1 P5 2.317624 1_564
Fe2 P1 2.249859 1_555
Fe2 P2 2.285665 1_555
Fe2 P3 2.317570 1_554
Fe2 P3 2.317570 1_555
Fe3 P6 2.161444 1_555
Fe3 P0 2.198899 1_655
Fe3 P3 2.311823 1_555
Fe3 P3 2.311824 1_554
Fe4 P6 2.161168 1_555
Fe4 P1 2.198812 1_545
Fe4 P4 2.311640 1_554
Fe4 P4 2.311641 1_555
Fe5 P6 2.161510 1_555
Fe5 P2 2.199072 1_555
Fe5 P5 2.311882 1_555
Fe5 P5 2.311884 1_554
Fe6 P0 2.255246 1_556
Fe6 P0 2.255247 1_555
Fe6 P5 2.257039 1_565
Fe6 P3 2.320222 1_455
Fe7 P1 2.255243 1_556
Fe7 P1 2.255244 1_555
Fe7 P3 2.257191 1_555
Fe7 P4 2.320036 1_565
Fe8 P2 2.255393 1_556
Fe8 P2 2.255393 1_555
Fe8 P4 2.257233 1_455
Fe8 P5 2.320386 1_555
Fe9 P4 2.301435 1_555
Fe9 P6 2.495978 1_555
Fe9 P6 2.495979 1_556
Fe9 P0 2.628915 1_655
Fe9 P0 2.628916 1_656
Fe10 P5 2.301931 1_555
Fe10 P6 2.496155 1_555
Fe10 P6 2.496155 1_556
Fe10 P1 2.628563 1_546
Fe10 P1 2.628564 1_545
Fe11 P3 2.301586 1_555
Fe11 P6 2.496165 1_555
Fe11 P6 2.496166 1_556
Fe11 P2 2.628913 1_555
Fe11 P2 2.628913 1_556
