# generated using pymatgen
data_TaAlNi2
_symmetry_space_group_name_H-M   'P 1'
_cell_length_a   4.19672611
_cell_length_b   4.19672534
_cell_length_c   4.19672537
_cell_angle_alpha   60.00000770
_cell_angle_beta   60.00001380
_cell_angle_gamma   60.00000314
_symmetry_Int_Tables_number   1
_chemical_formula_structural   TaAlNi2
_chemical_formula_sum   'Ta1 Al1 Ni2'
_cell_volume   52.26570431
_cell_formula_units_Z   1
loop_
 _symmetry_equiv_pos_site_id
 _symmetry_equiv_pos_as_xyz
  1  'x, y, z'
loop_
 _atom_site_type_symbol
 _atom_site_label
 _atom_site_symmetry_multiplicity
 _atom_site_fract_x
 _atom_site_fract_y
 _atom_site_fract_z
 _atom_site_occupancy
  Ta  Ta0  1  0.50000000  0.50000000  0.50000000  1
  Al  Al0  1  -0.00000000  0.00000000  0.00000000  1
  Ni  Ni0  1  0.25000000  0.25000000  0.25000000  1
  Ni  Ni1  1  0.75000000  0.75000000  0.75000000  1
loop_
_geom_bond_atom_site_label_1
_geom_bond_atom_site_label_2
_geom_bond_distance
_geom_bond_site_symmetry_2
Al0 Ni0 2.569959 1_555
Al0 Ni1 2.569959 1_444
Al0 Ni1 2.569959 1_454
Al0 Ni0 2.569959 1_545
Al0 Ni1 2.569959 1_445
Al0 Ni0 2.569959 1_554
Al0 Ni1 2.569960 1_544
Al0 Ni0 2.569960 1_455
Ni0 Ta0 2.569959 1_555
Ni0 Ta0 2.569959 1_545
Ni0 Ta0 2.569959 1_554
Ni0 Ta0 2.569960 1_455
Ni1 Ta0 2.569959 1_555
Ni1 Ta0 2.569959 1_565
Ni1 Ta0 2.569959 1_556
Ni1 Ta0 2.569960 1_655
