# generated using pymatgen
data_KSn
_symmetry_space_group_name_H-M   'P 1'
_cell_length_a   11.44586767
_cell_length_b   11.44586696
_cell_length_c   12.38905069
_cell_angle_alpha   117.51202571
_cell_angle_beta   117.51202833
_cell_angle_gamma   90.00000244
_symmetry_Int_Tables_number   1
_chemical_formula_structural   KSn
_chemical_formula_sum   'K16 Sn16'
_cell_volume   1228.85554925
_cell_formula_units_Z   16
loop_
 _symmetry_equiv_pos_site_id
 _symmetry_equiv_pos_as_xyz
  1  'x, y, z'
loop_
 _atom_site_type_symbol
 _atom_site_label
 _atom_site_symmetry_multiplicity
 _atom_site_fract_x
 _atom_site_fract_y
 _atom_site_fract_z
 _atom_site_occupancy
  K  K0  1  0.25000000  0.88707468  -0.00000000  1
  K  K1  1  0.61292532  0.25000000  0.50000000  1
  K  K2  1  0.88707468  0.75000000  0.50000000  1
  K  K3  1  0.75000000  0.61292532  0.00000000  1
  K  K4  1  0.75000000  0.11292532  0.00000000  1
  K  K5  1  0.38707468  0.75000000  0.50000000  1
  K  K6  1  0.11292532  0.25000000  0.50000000  1
  K  K7  1  0.25000000  0.38707468  -0.00000000  1
  K  K8  1  0.74756750  0.99756750  0.25000000  1
  K  K9  1  0.75243250  0.74756750  0.75000000  1
  K  K10  1  0.99756750  0.50243250  0.75000000  1
  K  K11  1  0.50243250  0.75243250  0.25000000  1
  K  K12  1  0.25243250  0.00243250  0.75000000  1
  K  K13  1  0.24756750  0.25243250  0.25000000  1
  K  K14  1  0.00243250  0.49756750  0.25000000  1
  K  K15  1  0.49756750  0.24756750  0.75000000  1
  Sn  Sn0  1  0.93165654  0.13379167  0.63840920  1
  Sn  Sn1  1  0.00461653  0.93165654  0.13840920  1
  Sn  Sn2  1  0.13379167  0.70675167  0.13840920  1
  Sn  Sn3  1  0.79324833  0.36620833  0.36158980  1
  Sn  Sn4  1  0.56834346  0.49538347  0.36158980  1
  Sn  Sn5  1  0.49538347  0.79324833  0.86159080  1
  Sn  Sn6  1  0.36620833  0.56834346  0.86159080  1
  Sn  Sn7  1  0.70675167  0.00461653  0.63840920  1
  Sn  Sn8  1  0.06834346  0.86620833  0.36158980  1
  Sn  Sn9  1  0.99538347  0.06834346  0.86159080  1
  Sn  Sn10  1  0.86620833  0.29324833  0.86159080  1
  Sn  Sn11  1  0.20675167  0.63379167  0.63840920  1
  Sn  Sn12  1  0.43165654  0.50461653  0.63840920  1
  Sn  Sn13  1  0.50461653  0.20675167  0.13840920  1
  Sn  Sn14  1  0.63379167  0.43165654  0.13840920  1
  Sn  Sn15  1  0.29324833  0.99538347  0.36158980  1
loop_
_geom_bond_atom_site_label_1
_geom_bond_atom_site_label_2
_geom_bond_distance
_geom_bond_site_symmetry_2
K0 Sn6 3.787655 1_554
K0 Sn2 3.787663 1_555
K0 Sn13 3.795817 1_565
K0 Sn9 3.795826 1_464
K0 Sn15 3.830227 1_555
K0 Sn11 3.830241 1_554
K0 Sn5 3.837999 1_554
K0 Sn1 3.837999 1_555
K1 Sn0 3.787655 1_555
K1 Sn3 3.787674 1_555
K1 Sn15 3.795813 1_545
K1 Sn12 3.795826 1_555
K1 Sn13 3.830238 1_555
K1 Sn10 3.830241 1_555
K1 Sn7 3.837998 1_555
K1 Sn4 3.838008 1_555
K2 Sn4 3.787644 1_555
K2 Sn7 3.787657 1_565
K2 Sn11 3.795824 1_655
K2 Sn8 3.795843 1_655
K2 Sn9 3.830243 1_565
K2 Sn14 3.830246 1_555
K2 Sn3 3.837985 1_555
K2 Sn0 3.837988 1_565
K3 Sn1 3.787648 1_655
K3 Sn5 3.787657 1_554
K3 Sn10 3.795824 1_554
K3 Sn14 3.795832 1_555
K3 Sn8 3.830241 1_655
K3 Sn12 3.830243 1_554
K3 Sn2 3.837988 1_655
K3 Sn6 3.837989 1_554
K4 Sn14 3.787655 1_555
K4 Sn10 3.787663 1_554
K4 Sn5 3.795817 1_544
K4 Sn1 3.795826 1_645
K4 Sn3 3.830232 1_555
K4 Sn7 3.830239 1_554
K4 Sn13 3.837999 1_555
K4 Sn9 3.837999 1_554
K5 Sn8 3.787657 1_555
K5 Sn11 3.787663 1_555
K5 Sn7 3.795817 1_565
K5 Sn4 3.795830 1_555
K5 Sn5 3.830238 1_555
K5 Sn2 3.830241 1_555
K5 Sn12 3.837999 1_555
K5 Sn15 3.838007 1_555
K6 Sn12 3.787648 1_555
K6 Sn15 3.787661 1_545
K6 Sn3 3.795826 1_455
K6 Sn0 3.795832 1_455
K6 Sn1 3.830243 1_545
K6 Sn6 3.830246 1_555
K6 Sn8 3.837987 1_545
K6 Sn11 3.837988 1_555
K7 Sn9 3.787648 1_454
K7 Sn13 3.787657 1_555
K7 Sn2 3.795824 1_555
K7 Sn6 3.795832 1_554
K7 Sn4 3.830236 1_555
K7 Sn0 3.830246 1_454
K7 Sn10 3.837988 1_454
K7 Sn14 3.837989 1_555
K8 Sn5 3.705039 1_554
K8 Sn0 3.705041 1_565
K8 Sn1 3.732424 1_655
K8 Sn3 3.732437 1_565
K8 Sn13 3.857859 1_565
K8 Sn8 3.857861 1_655
K9 Sn1 3.705039 1_656
K9 Sn4 3.705048 1_555
K9 Sn7 3.732424 1_565
K9 Sn5 3.732424 1_555
K9 Sn9 3.857868 1_565
K9 Sn12 3.857868 1_555
K10 Sn2 3.705041 1_656
K10 Sn3 3.705051 1_555
K10 Sn0 3.732435 1_555
K10 Sn6 3.732435 1_655
K10 Sn10 3.857853 1_555
K10 Sn11 3.857853 1_655
K11 Sn7 3.705039 1_565
K11 Sn6 3.705041 1_554
K11 Sn4 3.732416 1_555
K11 Sn2 3.732435 1_555
K11 Sn15 3.857856 1_555
K11 Sn14 3.857862 1_555
K12 Sn13 3.705039 1_556
K12 Sn8 3.705052 1_545
K12 Sn9 3.732424 1_455
K12 Sn11 3.732435 1_545
K12 Sn5 3.857859 1_545
K12 Sn0 3.857862 1_455
K13 Sn9 3.705039 1_454
K13 Sn12 3.705039 1_555
K13 Sn15 3.732415 1_545
K13 Sn13 3.732424 1_555
K13 Sn1 3.857868 1_545
K13 Sn4 3.857873 1_555
K14 Sn11 3.705041 1_555
K14 Sn10 3.705041 1_454
K14 Sn14 3.732435 1_455
K14 Sn8 3.732438 1_555
K14 Sn3 3.857843 1_455
K14 Sn2 3.857853 1_555
K15 Sn14 3.705041 1_556
K15 Sn15 3.705047 1_545
K15 Sn12 3.732424 1_555
K15 Sn10 3.732435 1_555
K15 Sn7 3.857860 1_555
K15 Sn6 3.857862 1_555
Sn0 Sn9 2.964592 1_555
Sn0 Sn10 2.964596 1_555
Sn0 Sn7 2.968618 1_555
Sn1 Sn8 2.964580 1_555
Sn1 Sn15 2.964604 1_555
Sn1 Sn2 2.968618 1_555
Sn2 Sn8 2.964587 1_555
Sn3 Sn4 2.968618 1_555
Sn5 Sn6 2.968618 1_555
Sn7 Sn9 2.964607 1_555
Sn10 Sn7 2.964612 1_555
Sn10 Sn9 2.968618 1_555
Sn11 Sn6 2.964596 1_555
Sn11 Sn5 2.964612 1_555
Sn11 Sn12 2.968618 1_555
Sn12 Sn6 2.964592 1_555
Sn12 Sn5 2.964607 1_555
Sn13 Sn4 2.964604 1_555
Sn13 Sn3 2.964610 1_555
Sn13 Sn14 2.968618 1_555
Sn14 Sn4 2.964580 1_555
Sn14 Sn3 2.964587 1_555
Sn15 Sn2 2.964610 1_555
Sn15 Sn8 2.968618 1_555
