# generated using pymatgen
data_Li2U3P2O15
_symmetry_space_group_name_H-M   'P 1'
_cell_length_a   13.54494050
_cell_length_b   13.54494050
_cell_length_c   13.54494050
_cell_angle_alpha   149.48380128
_cell_angle_beta   149.48380128
_cell_angle_gamma   43.69965811
_symmetry_Int_Tables_number   1
_chemical_formula_structural   Li2U3P2O15
_chemical_formula_sum   'Li4 U6 P4 O30'
_cell_volume   638.96951366
_cell_formula_units_Z   2
loop_
 _symmetry_equiv_pos_site_id
 _symmetry_equiv_pos_as_xyz
  1  'x, y, z'
loop_
 _atom_site_type_symbol
 _atom_site_label
 _atom_site_symmetry_multiplicity
 _atom_site_fract_x
 _atom_site_fract_y
 _atom_site_fract_z
 _atom_site_occupancy
  Li  Li0  1  0.31528880  0.31528880  -0.00000000  1
  Li  Li1  1  0.06528880  0.56528880  0.50000000  1
  Li  Li2  1  0.43471120  0.93471120  0.50000000  1
  Li  Li3  1  0.68471120  0.68471120  -0.00000000  1
  U  U0  1  0.08384141  0.08384141  0.00000000  1
  U  U1  1  0.66615859  0.16615859  0.50000000  1
  U  U2  1  0.91615859  0.91615859  -0.00000000  1
  U  U3  1  0.50000000  0.50000000  -0.00000000  1
  U  U4  1  0.83384141  0.33384141  0.50000000  1
  U  U5  1  0.25000000  0.75000000  0.50000000  1
  P  P0  1  0.78817543  0.78817543  0.00000000  1
  P  P1  1  0.53817543  0.03817543  0.50000000  1
  P  P2  1  0.96182457  0.46182457  0.50000000  1
  P  P3  1  0.21182457  0.21182457  -0.00000000  1
  O  O0  1  0.66301129  0.41673724  0.75372496  1
  O  O1  1  -0.00000000  -0.00000000  -0.00000000  1
  O  O2  1  0.24860337  0.07702294  0.82841957  1
  O  O3  1  0.82671265  0.65880956  0.83209691  1
  O  O4  1  0.08698871  0.83326276  0.74627504  1
  O  O5  1  0.24860337  0.42018380  0.17158043  1
  O  O6  1  0.17018380  0.49860337  0.67158043  1
  O  O7  1  0.09071367  0.33698871  0.75372496  1
  O  O8  1  0.74461574  0.07671265  0.66790309  1
  O  O9  1  0.40880956  0.07671265  0.33209691  1
  O  O10  1  0.08698871  0.34071367  0.25372496  1
  O  O11  1  0.58326276  0.33698871  0.24627504  1
  O  O12  1  0.92328735  0.25538426  0.33209691  1
  O  O13  1  0.82702294  0.49860337  0.32841957  1
  O  O14  1  0.66301129  0.90928633  0.24627504  1
  O  O15  1  0.32102463  0.82102463  0.50000000  1
  O  O16  1  0.65928633  0.91301129  0.74627504  1
  O  O17  1  0.42897537  0.42897537  -0.00000000  1
  O  O18  1  0.00538426  0.17328735  0.83209691  1
  O  O19  1  0.92297706  0.75139663  0.17158043  1
  O  O20  1  0.92328735  0.59119044  0.66790309  1
  O  O21  1  0.34119044  0.17328735  0.16790309  1
  O  O22  1  0.50139663  0.17297706  0.67158043  1
  O  O23  1  0.17897537  0.67897537  0.50000000  1
  O  O24  1  0.82671265  0.99461574  0.16790309  1
  O  O25  1  0.57102463  0.57102463  0.00000000  1
  O  O26  1  0.16673724  0.91301129  0.25372496  1
  O  O27  1  0.57981620  0.75139663  0.82841957  1
  O  O28  1  0.50139663  0.82981620  0.32841957  1
  O  O29  1  0.75000000  0.25000000  0.50000000  1
loop_
_geom_bond_atom_site_label_1
_geom_bond_atom_site_label_2
_geom_bond_distance
_geom_bond_site_symmetry_2
Li0 O11 1.838557 1_555
Li0 O7 1.838564 1_554
Li0 O5 2.075499 1_555
Li0 O2 2.075499 1_554
Li1 O4 1.838557 1_555
Li1 O10 1.838564 1_555
Li1 O13 2.075499 1_455
Li1 O6 2.075499 1_555
Li2 O26 1.838557 1_555
Li2 O16 1.838564 1_555
Li2 O28 2.075499 1_555
Li2 O22 2.075499 1_565
Li3 O0 1.838557 1_554
Li3 O14 1.838564 1_555
Li3 O27 2.075499 1_554
Li3 O19 2.075499 1_555
O0 U1 1.810584 1_555
O1 U0 2.108093 1_555
O1 U2 2.108093 1_445
O2 P3 1.533449 1_556
O2 U5 2.341625 1_545
O3 P0 1.540047 1_556
O3 U4 2.374354 1_555
O3 U2 2.547723 1_556
O4 U0 1.810584 1_566
O5 P3 1.533449 1_555
O5 U5 2.341625 1_555
O6 P2 1.533449 1_455
O6 U3 2.341625 1_556
O7 U4 1.810581 1_455
O8 P1 1.540047 1_555
O8 U0 2.374354 1_656
O8 U1 2.547723 1_555
O9 P1 1.540047 1_555
O9 U0 2.374354 1_555
O9 U1 2.547723 1_555
O10 U0 1.810581 1_555
O11 U4 1.810584 1_555
O12 P2 1.540047 1_555
O12 U2 2.374354 1_545
O12 U4 2.547723 1_555
O13 P2 1.533449 1_555
O13 U3 2.341625 1_555
O14 U1 1.810581 1_565
O15 U5 1.785830 1_555
O16 U2 1.810581 1_556
O17 U3 1.785830 1_555
O18 P3 1.540047 1_556
O18 U1 2.374354 1_455
O18 U0 2.547723 1_556
O19 P0 1.533449 1_555
O19 U5 2.341625 1_655
O20 P2 1.540047 1_555
O20 U2 2.374354 1_556
O20 U4 2.547723 1_555
O21 P3 1.540047 1_555
O21 U1 2.374354 1_555
O21 U0 2.547723 1_555
O22 P1 1.533449 1_555
O22 U3 2.341625 1_556
O23 U5 1.785830 1_555
O24 P0 1.540047 1_555
O24 U4 2.374354 1_565
O24 U2 2.547723 1_555
O25 U3 1.785830 1_555
O26 U2 1.810584 1_455
O27 P0 1.533449 1_556
O27 U5 2.341625 1_555
O28 P1 1.533449 1_565
O28 U3 2.341625 1_555
O29 U4 2.108093 1_555
O29 U1 2.108093 1_555
