# generated using pymatgen
data_U2MnN3
_symmetry_space_group_name_H-M   'P 1'
_cell_length_a   3.35372695
_cell_length_b   3.80390684
_cell_length_c   6.58500933
_cell_angle_alpha   106.80288452
_cell_angle_beta   104.75567441
_cell_angle_gamma   89.99581858
_symmetry_Int_Tables_number   1
_chemical_formula_structural   U2MnN3
_chemical_formula_sum   'U2 Mn1 N3'
_cell_volume   77.52196985
_cell_formula_units_Z   1
loop_
 _symmetry_equiv_pos_site_id
 _symmetry_equiv_pos_as_xyz
  1  'x, y, z'
loop_
 _atom_site_type_symbol
 _atom_site_label
 _atom_site_symmetry_multiplicity
 _atom_site_fract_x
 _atom_site_fract_y
 _atom_site_fract_z
 _atom_site_occupancy
  U  U0  1  0.35452266  0.35452835  0.70910299  1
  U  U1  1  0.64548609  0.64547835  0.29090663  1
  Mn  Mn0  1  -0.00002321  -0.00000532  -0.00002578  1
  N  N0  1  0.16719866  0.16719791  0.33431770  1
  N  N1  1  0.83281111  0.83281141  0.66570039  1
  N  N2  1  0.00000468  0.49999030  -0.00000292  1
loop_
_geom_bond_atom_site_label_1
_geom_bond_atom_site_label_2
_geom_bond_distance
_geom_bond_site_symmetry_2
Mn0 N2 1.901893 1_555
Mn0 N2 1.902014 1_545
Mn0 N1 2.031279 1_444
Mn0 N0 2.031702 1_555
N0 U0 2.277455 1_555
N0 U1 2.549180 1_545
N0 U1 2.549220 1_455
N0 U1 2.549382 1_555
N0 U1 2.549383 1_445
N1 U1 2.277506 1_555
N1 U0 2.549173 1_565
N1 U0 2.549217 1_655
N1 U0 2.549365 1_555
N1 U0 2.549390 1_665
N2 U0 2.436458 1_554
N2 U1 2.436546 1_455
N2 U0 2.436546 1_454
N2 U1 2.436595 1_555
