# generated using pymatgen
data_Na5TiP2O9F
_symmetry_space_group_name_H-M   'P 1'
_cell_length_a   11.13887000
_cell_length_b   11.87026800
_cell_length_c   13.83084800
_cell_angle_alpha   90.00000000
_cell_angle_beta   90.00000000
_cell_angle_gamma   90.00000000
_symmetry_Int_Tables_number   1
_chemical_formula_structural   Na5TiP2O9F
_chemical_formula_sum   'Na40 Ti8 P16 O72 F8'
_cell_volume   1828.73370010
_cell_formula_units_Z   8
loop_
 _symmetry_equiv_pos_site_id
 _symmetry_equiv_pos_as_xyz
  1  'x, y, z'
loop_
 _atom_site_type_symbol
 _atom_site_label
 _atom_site_symmetry_multiplicity
 _atom_site_fract_x
 _atom_site_fract_y
 _atom_site_fract_z
 _atom_site_occupancy
  Na  Na0  1  0.74758300  0.33824500  0.24408300  1
  Na  Na1  1  0.25241700  0.16175500  0.74408300  1
  Na  Na2  1  0.24170700  0.66754400  0.99783600  1
  Na  Na3  1  0.24758300  0.66175500  0.25591700  1
  Na  Na4  1  0.51246800  0.24976400  0.12517000  1
  Na  Na5  1  0.75829300  0.33245600  0.00216400  1
  Na  Na6  1  0.50000000  0.00000000  0.00000000  1
  Na  Na7  1  0.24719100  0.42263000  0.87542600  1
  Na  Na8  1  0.24170700  0.16754400  0.50216400  1
  Na  Na9  1  0.98753200  0.24976400  0.62517000  1
  Na  Na10  1  0.48753200  0.25023600  0.62517000  1
  Na  Na11  1  0.75241700  0.33824500  0.74408300  1
  Na  Na12  1  0.50000000  0.50000000  0.00000000  1
  Na  Na13  1  0.25829300  0.66754400  0.49783600  1
  Na  Na14  1  0.48753200  0.75023600  0.87483000  1
  Na  Na15  1  0.75280900  0.07737000  0.37542600  1
  Na  Na16  1  0.74719100  0.57737000  0.62457400  1
  Na  Na17  1  0.01246800  0.75023600  0.37483000  1
  Na  Na18  1  0.74758300  0.83824500  0.25591700  1
  Na  Na19  1  0.74170700  0.33245600  0.50216400  1
  Na  Na20  1  0.00000000  0.00000000  0.50000000  1
  Na  Na21  1  0.74170700  0.83245600  0.99783600  1
  Na  Na22  1  0.24758300  0.16175500  0.24408300  1
  Na  Na23  1  0.74719100  0.07737000  0.87542600  1
  Na  Na24  1  0.25280900  0.42263000  0.37542600  1
  Na  Na25  1  0.75280900  0.57737000  0.12457400  1
  Na  Na26  1  0.01246800  0.25023600  0.12517000  1
  Na  Na27  1  0.51246800  0.74976400  0.37483000  1
  Na  Na28  1  0.00000000  0.50000000  0.00000000  1
  Na  Na29  1  0.00000000  0.50000000  0.50000000  1
  Na  Na30  1  0.50000000  0.00000000  0.50000000  1
  Na  Na31  1  0.50000000  0.50000000  0.50000000  1
  Na  Na32  1  0.25241700  0.66175500  0.75591700  1
  Na  Na33  1  0.75241700  0.83824500  0.75591700  1
  Na  Na34  1  0.25280900  0.92263000  0.12457400  1
  Na  Na35  1  0.25829300  0.16754400  0.00216400  1
  Na  Na36  1  0.00000000  0.00000000  0.00000000  1
  Na  Na37  1  0.24719100  0.92263000  0.62457400  1
  Na  Na38  1  0.98753200  0.74976400  0.87483000  1
  Na  Na39  1  0.75829300  0.83245600  0.49783600  1
  Ti  Ti0  1  0.48681200  0.00254800  0.73573900  1
  Ti  Ti1  1  0.51318800  0.49745200  0.23573900  1
  Ti  Ti2  1  0.48681200  0.50254800  0.76426100  1
  Ti  Ti3  1  0.98681200  0.99745200  0.76426100  1
  Ti  Ti4  1  0.01318800  0.50254800  0.26426100  1
  Ti  Ti5  1  0.98681200  0.49745200  0.73573900  1
  Ti  Ti6  1  0.01318800  0.00254800  0.23573900  1
  Ti  Ti7  1  0.51318800  0.99745200  0.26426100  1
  P  P0  1  0.51447500  0.74459100  0.62931000  1
  P  P1  1  0.98552500  0.74459100  0.12931000  1
  P  P2  1  0.01447500  0.75540900  0.62931000  1
  P  P3  1  0.24893800  0.42265400  0.12688500  1
  P  P4  1  0.48552500  0.25540900  0.37069000  1
  P  P5  1  0.74893800  0.07734600  0.12688500  1
  P  P6  1  0.74893800  0.57734600  0.37311500  1
  P  P7  1  0.25106200  0.42265400  0.62688500  1
  P  P8  1  0.98552500  0.24459100  0.37069000  1
  P  P9  1  0.51447500  0.24459100  0.87069000  1
  P  P10  1  0.75106200  0.07734600  0.62688500  1
  P  P11  1  0.01447500  0.25540900  0.87069000  1
  P  P12  1  0.24893800  0.92265400  0.37311500  1
  P  P13  1  0.25106200  0.92265400  0.87311500  1
  P  P14  1  0.75106200  0.57734600  0.87311500  1
  P  P15  1  0.48552500  0.75540900  0.12931000  1
  O  O0  1  0.95872200  0.63529200  0.64997200  1
  O  O1  1  0.96319900  0.79872000  0.53326800  1
  O  O2  1  0.77001000  0.20484000  0.62749200  1
  O  O3  1  0.38663700  0.94817700  0.35720600  1
  O  O4  1  0.84762100  0.25258900  0.37106500  1
  O  O5  1  0.88663700  0.05182300  0.14279400  1
  O  O6  1  0.03680100  0.70128000  0.03326800  1
  O  O7  1  0.15237900  0.24741100  0.87106500  1
  O  O8  1  0.77001000  0.70484000  0.87250800  1
  O  O9  1  0.31794400  0.97780300  0.78433500  1
  O  O10  1  0.96319900  0.29872000  0.96673200  1
  O  O11  1  0.79176100  0.02172300  0.53275800  1
  O  O12  1  0.61336300  0.05182300  0.64279400  1
  O  O13  1  0.68205600  0.52219700  0.28433500  1
  O  O14  1  0.72999000  0.70484000  0.37250800  1
  O  O15  1  0.54127800  0.63529200  0.14997200  1
  O  O16  1  0.95872200  0.13529200  0.85002800  1
  O  O17  1  0.52719200  0.33432800  0.28457000  1
  O  O18  1  0.31794400  0.47780300  0.71566500  1
  O  O19  1  0.18205600  0.47780300  0.21566500  1
  O  O20  1  0.97280800  0.83432800  0.71543000  1
  O  O21  1  0.20823900  0.47827700  0.03275800  1
  O  O22  1  0.52719200  0.83432800  0.21543000  1
  O  O23  1  0.53680100  0.29872000  0.46673200  1
  O  O24  1  0.11336300  0.44817700  0.64279400  1
  O  O25  1  0.20823900  0.97827700  0.46724200  1
  O  O26  1  0.57046400  0.44298300  0.67352500  1
  O  O27  1  0.57046400  0.94298300  0.82647500  1
  O  O28  1  0.42953600  0.05701700  0.17352500  1
  O  O29  1  0.38663700  0.44817700  0.14279400  1
  O  O30  1  0.70823900  0.02172300  0.03275800  1
  O  O31  1  0.45872200  0.36470800  0.85002800  1
  O  O32  1  0.04127800  0.36470800  0.35002800  1
  O  O33  1  0.02719200  0.66567200  0.21543000  1
  O  O34  1  0.61336300  0.55182300  0.85720600  1
  O  O35  1  0.45872200  0.86470800  0.64997200  1
  O  O36  1  0.47280800  0.66567200  0.71543000  1
  O  O37  1  0.02719200  0.16567200  0.28457000  1
  O  O38  1  0.18205600  0.97780300  0.28433500  1
  O  O39  1  0.04127800  0.86470800  0.14997200  1
  O  O40  1  0.47280800  0.16567200  0.78457000  1
  O  O41  1  0.29176100  0.97827700  0.96724200  1
  O  O42  1  0.27001000  0.29516000  0.62749200  1
  O  O43  1  0.72999000  0.20484000  0.12749200  1
  O  O44  1  0.54127800  0.13529200  0.35002800  1
  O  O45  1  0.15237900  0.74741100  0.62893500  1
  O  O46  1  0.65237900  0.25258900  0.87106500  1
  O  O47  1  0.81794400  0.02219700  0.71566500  1
  O  O48  1  0.68205600  0.02219700  0.21566500  1
  O  O49  1  0.34762100  0.24741100  0.37106500  1
  O  O50  1  0.03680100  0.20128000  0.46673200  1
  O  O51  1  0.46319900  0.20128000  0.96673200  1
  O  O52  1  0.65237900  0.75258900  0.62893500  1
  O  O53  1  0.84762100  0.75258900  0.12893500  1
  O  O54  1  0.34762100  0.74741100  0.12893500  1
  O  O55  1  0.22999000  0.79516000  0.37250800  1
  O  O56  1  0.46319900  0.70128000  0.53326800  1
  O  O57  1  0.29176100  0.47827700  0.53275800  1
  O  O58  1  0.97280800  0.33432800  0.78457000  1
  O  O59  1  0.88663700  0.55182300  0.35720600  1
  O  O60  1  0.53680100  0.79872000  0.03326800  1
  O  O61  1  0.22999000  0.29516000  0.12749200  1
  O  O62  1  0.92953600  0.94298300  0.32647500  1
  O  O63  1  0.81794400  0.52219700  0.78433500  1
  O  O64  1  0.11336300  0.94817700  0.85720600  1
  O  O65  1  0.07046400  0.05701700  0.67352500  1
  O  O66  1  0.42953600  0.55701700  0.32647500  1
  O  O67  1  0.70823900  0.52172300  0.46724200  1
  O  O68  1  0.07046400  0.55701700  0.82647500  1
  O  O69  1  0.92953600  0.44298300  0.17352500  1
  O  O70  1  0.79176100  0.52172300  0.96724200  1
  O  O71  1  0.27001000  0.79516000  0.87250800  1
  F  F0  1  0.87744100  0.42117900  0.61484600  1
  F  F1  1  0.62255900  0.92117900  0.38515400  1
  F  F2  1  0.62255900  0.42117900  0.11484600  1
  F  F3  1  0.37744100  0.57882100  0.88515400  1
  F  F4  1  0.12255900  0.57882100  0.38515400  1
  F  F5  1  0.87744100  0.92117900  0.88515400  1
  F  F6  1  0.12255900  0.07882100  0.11484600  1
  F  F7  1  0.37744100  0.07882100  0.61484600  1
loop_
_geom_bond_atom_site_label_1
_geom_bond_atom_site_label_2
_geom_bond_distance
_geom_bond_site_symmetry_2
Na0 O43 2.268561 1_555
Na0 O4 2.315160 1_555
Na0 O13 2.368674 1_555
Na0 O17 2.518391 1_555
Na0 O69 2.570169 1_555
Na1 O42 2.268561 1_555
Na1 O7 2.315160 1_555
Na1 O9 2.368674 1_545
Na1 O40 2.518391 1_555
Na1 O65 2.570169 1_555
Na2 O71 2.323525 1_555
Na2 O21 2.328026 1_556
Na2 O54 2.361854 1_556
Na2 O6 2.368536 1_556
Na3 O55 2.268561 1_555
Na3 O54 2.315160 1_555
Na3 O19 2.368674 1_555
Na3 O33 2.518391 1_555
Na3 O66 2.570169 1_555
Na4 O51 2.331167 1_554
Na4 O17 2.427948 1_555
Na4 O43 2.481145 1_555
Na4 O28 2.556440 1_555
Na4 O29 2.751542 1_555
Na5 O43 2.323525 1_555
Na5 O70 2.328026 1_554
Na5 O46 2.361854 1_554
Na5 O10 2.368536 1_554
Na6 O30 2.377407 1_555
Na6 O41 2.377407 1_544
Na6 O51 2.467439 1_554
Na6 O60 2.467439 1_545
Na6 O27 2.614213 1_544
Na6 O28 2.614213 1_555
Na7 O21 2.315103 1_556
Na7 O7 2.333442 1_555
Na7 O18 2.435672 1_555
Na7 O31 2.479491 1_555
Na7 O68 2.622635 1_555
Na8 O42 2.323525 1_555
Na8 O25 2.328026 1_545
Na8 O49 2.361854 1_555
Na8 O50 2.368536 1_555
Na9 O50 2.331167 1_655
Na9 O58 2.427948 1_555
Na9 O2 2.481145 1_555
Na9 O65 2.556440 1_655
Na9 O24 2.751542 1_655
Na10 O23 2.331167 1_555
Na10 O40 2.427948 1_555
Na10 O42 2.481145 1_555
Na10 O26 2.556440 1_555
Na10 O12 2.751542 1_555
Na11 O2 2.268561 1_555
Na11 O46 2.315160 1_555
Na11 O63 2.368674 1_555
Na11 O58 2.518391 1_555
Na11 O26 2.570169 1_555
Na12 O34 2.423508 1_554
Na12 O29 2.423508 1_555
Na12 O31 2.663261 1_554
Na12 O15 2.663261 1_555
Na13 O55 2.323525 1_555
Na13 O57 2.328026 1_555
Na13 O45 2.361854 1_555
Na13 O56 2.368536 1_555
Na14 O60 2.331167 1_556
Na14 O36 2.427948 1_555
Na14 O71 2.481145 1_555
Na14 O27 2.556440 1_555
Na14 O34 2.751542 1_555
Na15 O11 2.315103 1_555
Na15 O4 2.333442 1_555
Na15 O48 2.435672 1_555
Na15 O44 2.479491 1_555
Na15 O62 2.622635 1_545
Na16 O67 2.315103 1_555
Na16 O52 2.333442 1_555
Na16 O63 2.435672 1_555
Na16 O0 2.479491 1_555
Na16 O26 2.622635 1_555
Na17 O1 2.331167 1_455
Na17 O33 2.427948 1_555
Na17 O55 2.481145 1_555
Na17 O62 2.556440 1_455
Na17 O59 2.751542 1_455
Na18 O14 2.268561 1_555
Na18 O53 2.315160 1_555
Na18 O48 2.368674 1_565
Na18 O22 2.518391 1_555
Na18 O62 2.570169 1_555
Na19 O2 2.323525 1_555
Na19 O67 2.328026 1_555
Na19 O4 2.361854 1_555
Na19 O23 2.368536 1_555
Na20 O11 2.377407 1_455
Na20 O25 2.377407 1_545
Na20 O50 2.467439 1_555
Na20 O1 2.467439 1_445
Na20 O62 2.614213 1_445
Na20 O65 2.614213 1_555
Na21 O8 2.323525 1_555
Na21 O30 2.328026 1_566
Na21 O53 2.361854 1_556
Na21 O60 2.368536 1_556
Na22 O61 2.268561 1_555
Na22 O49 2.315160 1_555
Na22 O38 2.368674 1_545
Na22 O37 2.518391 1_555
Na22 O28 2.570169 1_555
Na23 O30 2.315103 1_556
Na23 O46 2.333442 1_555
Na23 O47 2.435672 1_555
Na23 O16 2.479491 1_555
Na23 O27 2.622635 1_545
Na24 O57 2.315103 1_555
Na24 O49 2.333442 1_555
Na24 O19 2.435672 1_555
Na24 O32 2.479491 1_555
Na24 O66 2.622635 1_555
Na25 O70 2.315103 1_554
Na25 O53 2.333442 1_555
Na25 O13 2.435672 1_555
Na25 O15 2.479491 1_555
Na25 O69 2.622635 1_555
Na26 O10 2.331167 1_454
Na26 O37 2.427948 1_555
Na26 O61 2.481145 1_555
Na26 O69 2.556440 1_455
Na26 O5 2.751542 1_455
Na27 O56 2.331167 1_555
Na27 O22 2.427948 1_555
Na27 O14 2.481145 1_555
Na27 O66 2.556440 1_555
Na27 O3 2.751542 1_555
Na28 O70 2.377407 1_454
Na28 O21 2.377407 1_555
Na28 O6 2.467439 1_555
Na28 O10 2.467439 1_454
Na28 O69 2.614213 1_455
Na28 O68 2.614213 1_554
Na29 O59 2.423508 1_455
Na29 O24 2.423508 1_555
Na29 O0 2.663261 1_455
Na29 O32 2.663261 1_555
Na30 O3 2.423508 1_545
Na30 O12 2.423508 1_555
Na30 O35 2.663261 1_545
Na30 O44 2.663261 1_555
Na31 O67 2.377407 1_555
Na31 O57 2.377407 1_555
Na31 O56 2.467439 1_555
Na31 O23 2.467439 1_555
Na31 O66 2.614213 1_555
Na31 O26 2.614213 1_555
Na32 O71 2.268561 1_555
Na32 O45 2.315160 1_555
Na32 O18 2.368674 1_555
Na32 O36 2.518391 1_555
Na32 O68 2.570169 1_555
Na33 O8 2.268561 1_555
Na33 O52 2.315160 1_555
Na33 O47 2.368674 1_565
Na33 O20 2.518391 1_555
Na33 O27 2.570169 1_555
Na34 O41 2.315103 1_554
Na34 O54 2.333442 1_555
Na34 O38 2.435672 1_555
Na34 O39 2.479491 1_555
Na34 O28 2.622635 1_565
Na35 O61 2.323525 1_555
Na35 O41 2.328026 1_544
Na35 O7 2.361854 1_554
Na35 O51 2.368536 1_554
Na36 O64 2.423508 1_544
Na36 O5 2.423508 1_455
Na36 O39 2.663261 1_545
Na36 O16 2.663261 1_454
Na37 O25 2.315103 1_555
Na37 O45 2.333442 1_555
Na37 O9 2.435672 1_555
Na37 O35 2.479491 1_555
Na37 O65 2.622635 1_565
Na38 O6 2.331167 1_656
Na38 O20 2.427948 1_555
Na38 O8 2.481145 1_555
Na38 O68 2.556440 1_655
Na38 O64 2.751542 1_655
Na39 O14 2.323525 1_555
Na39 O11 2.328026 1_565
Na39 O52 2.361854 1_555
Na39 O1 2.368536 1_555
O0 P2 1.581235 1_655
O0 Ti5 2.045039 1_555
O1 P2 1.534609 1_655
O2 P10 1.528057 1_555
O3 P12 1.578854 1_555
O3 Ti7 1.995425 1_555
O4 P8 1.539035 1_555
O5 P5 1.578854 1_555
O5 Ti6 1.995425 1_655
O6 P1 1.534609 1_455
O7 P11 1.539035 1_555
O8 P14 1.528057 1_555
O9 P13 1.578385 1_555
O9 Ti0 2.018956 1_565
O10 P11 1.534609 1_655
O11 P10 1.528493 1_555
O12 P10 1.578854 1_555
O12 Ti0 1.995425 1_555
O13 P6 1.578385 1_555
O13 Ti1 2.018956 1_555
O14 P6 1.528057 1_555
O15 P15 1.581235 1_555
O15 Ti1 2.045039 1_555
O16 P11 1.581235 1_655
O16 Ti3 2.045039 1_545
O17 P4 1.584845 1_555
O17 Ti1 2.056653 1_555
O18 P7 1.578385 1_555
O18 Ti2 2.018956 1_555
O19 P3 1.578385 1_555
O19 Ti4 2.018956 1_555
O20 P2 1.584845 1_655
O20 Ti3 2.056653 1_555
O21 P3 1.528493 1_555
O22 P15 1.584845 1_555
O22 Ti7 2.056653 1_555
O23 P4 1.534609 1_555
O24 P7 1.578854 1_555
O24 Ti5 1.995425 1_455
O25 P12 1.528493 1_555
O26 Ti2 1.715537 1_555
O27 Ti0 1.715537 1_565
O28 Ti7 1.715537 1_545
O29 P3 1.578854 1_555
O29 Ti1 1.995425 1_555
O30 P5 1.528493 1_555
O31 P9 1.581235 1_555
O31 Ti2 2.045039 1_555
O32 P8 1.581235 1_455
O32 Ti4 2.045039 1_555
O33 P1 1.584845 1_455
O33 Ti4 2.056653 1_555
O34 P14 1.578854 1_555
O34 Ti2 1.995425 1_555
O35 P0 1.581235 1_555
O35 Ti0 2.045039 1_565
O36 P0 1.584845 1_555
O36 Ti2 2.056653 1_555
O37 P8 1.584845 1_455
O37 Ti6 2.056653 1_555
O38 P12 1.578385 1_555
O38 Ti6 2.018956 1_565
O39 P1 1.581235 1_455
O39 Ti6 2.045039 1_565
O40 P9 1.584845 1_555
O40 Ti0 2.056653 1_555
O41 P13 1.528493 1_555
O42 P7 1.528057 1_555
O43 P5 1.528057 1_555
O44 P4 1.581235 1_555
O44 Ti7 2.045039 1_545
O45 P2 1.539035 1_555
O46 P9 1.539035 1_555
O47 P10 1.578385 1_555
O47 Ti3 2.018956 1_545
O48 P5 1.578385 1_555
O48 Ti7 2.018956 1_545
O49 P4 1.539035 1_555
O50 P8 1.534609 1_455
O51 P9 1.534609 1_555
O52 P0 1.539035 1_555
O53 P1 1.539035 1_555
O54 P15 1.539035 1_555
O55 P12 1.528057 1_555
O56 P0 1.534609 1_555
O57 P7 1.528493 1_555
O58 P11 1.584845 1_655
O58 Ti5 2.056653 1_555
O59 P6 1.578854 1_555
O59 Ti4 1.995425 1_655
O60 P15 1.534609 1_555
O61 P3 1.528057 1_555
O62 Ti6 1.715537 1_665
O63 P14 1.578385 1_555
O63 Ti5 2.018956 1_555
O64 P13 1.578854 1_555
O64 Ti3 1.995425 1_455
O65 Ti3 1.715537 1_445
O66 Ti1 1.715537 1_555
O67 P6 1.528493 1_555
O68 Ti5 1.715537 1_455
O69 Ti4 1.715537 1_655
O70 P14 1.528493 1_555
O71 P13 1.528057 1_555
F0 Ti5 2.258242 1_555
F0 Na29 2.293938 1_655
F0 Na16 2.358062 1_555
F0 Na9 2.379989 1_555
F0 Na19 2.413287 1_555
F0 Na11 2.470536 1_555
F1 Ti7 2.258242 1_555
F1 Na30 2.293938 1_565
F1 Na15 2.358062 1_565
F1 Na27 2.379989 1_555
F1 Na39 2.413287 1_555
F1 Na18 2.470536 1_555
F2 Ti1 2.258242 1_555
F2 Na12 2.293938 1_555
F2 Na25 2.358062 1_555
F2 Na4 2.379989 1_555
F2 Na5 2.413287 1_555
F2 Na0 2.470536 1_555
F3 Ti2 2.258242 1_555
F3 Na12 2.293938 1_556
F3 Na7 2.358062 1_555
F3 Na14 2.379989 1_555
F3 Na2 2.413287 1_555
F3 Na32 2.470536 1_555
F4 Ti4 2.258242 1_555
F4 Na29 2.293938 1_555
F4 Na24 2.358062 1_555
F4 Na17 2.379989 1_555
F4 Na13 2.413287 1_555
F4 Na3 2.470536 1_555
F5 Ti3 2.258242 1_555
F5 Na36 2.293938 1_666
F5 Na23 2.358062 1_565
F5 Na38 2.379989 1_555
F5 Na21 2.413287 1_555
F5 Na33 2.470536 1_555
F6 Ti6 2.258242 1_555
F6 Na36 2.293938 1_555
F6 Na34 2.358062 1_545
F6 Na26 2.379989 1_555
F6 Na35 2.413287 1_555
F6 Na22 2.470536 1_555
F7 Ti0 2.258242 1_555
F7 Na30 2.293938 1_555
F7 Na37 2.358062 1_545
F7 Na10 2.379989 1_555
F7 Na8 2.413287 1_555
F7 Na1 2.470536 1_555
