# generated using pymatgen
data_MgSeO4
_symmetry_space_group_name_H-M   'P 1'
_cell_length_a   4.90621880
_cell_length_b   6.70547226
_cell_length_c   9.06005877
_cell_angle_alpha   90.00000000
_cell_angle_beta   90.00000000
_cell_angle_gamma   90.00000000
_symmetry_Int_Tables_number   1
_chemical_formula_structural   MgSeO4
_chemical_formula_sum   'Mg4 Se4 O16'
_cell_volume   298.06247087
_cell_formula_units_Z   4
loop_
 _symmetry_equiv_pos_site_id
 _symmetry_equiv_pos_as_xyz
  1  'x, y, z'
loop_
 _atom_site_type_symbol
 _atom_site_label
 _atom_site_symmetry_multiplicity
 _atom_site_fract_x
 _atom_site_fract_y
 _atom_site_fract_z
 _atom_site_occupancy
  Mg  Mg0  1  -0.00000000  0.50000000  0.00000000  1
  Mg  Mg1  1  0.50000000  0.00000000  0.50000000  1
  Mg  Mg2  1  -0.00000000  0.00000000  0.00000000  1
  Mg  Mg3  1  0.50000000  0.50000000  0.50000000  1
  Se  Se0  1  0.47594226  0.25000000  0.81863107  1
  Se  Se1  1  0.02405774  0.25000000  0.31863107  1
  Se  Se2  1  0.52405774  0.75000000  0.18136893  1
  Se  Se3  1  0.97594226  0.75000000  0.68136893  1
  O  O0  1  0.70374544  0.25000000  0.37796068  1
  O  O1  1  0.82791906  0.95450374  0.62528671  1
  O  O2  1  0.55725078  0.75000000  0.36507289  1
  O  O3  1  0.32791906  0.04549626  0.87471329  1
  O  O4  1  0.67208094  0.54549626  0.12528671  1
  O  O5  1  0.94274922  0.75000000  0.86507289  1
  O  O6  1  0.44274922  0.25000000  0.63492711  1
  O  O7  1  0.67208094  0.95450374  0.12528671  1
  O  O8  1  0.29625456  0.75000000  0.62203932  1
  O  O9  1  0.82791906  0.54549626  0.62528671  1
  O  O10  1  0.79625456  0.25000000  0.87796068  1
  O  O11  1  0.05725078  0.25000000  0.13492711  1
  O  O12  1  0.32791906  0.45450374  0.87471329  1
  O  O13  1  0.20374544  0.75000000  0.12203932  1
  O  O14  1  0.17208094  0.04549626  0.37471329  1
  O  O15  1  0.17208094  0.45450374  0.37471329  1
loop_
_geom_bond_atom_site_label_1
_geom_bond_atom_site_label_2
_geom_bond_distance
_geom_bond_site_symmetry_2
Mg0 O4 1.992463 1_455
Mg0 O12 1.992463 1_554
Mg0 O11 2.093677 1_555
Mg0 O5 2.093677 1_454
Mg0 O10 2.243209 1_454
Mg0 O13 2.243209 1_555
Mg1 O14 1.992463 1_555
Mg1 O1 1.992463 1_545
Mg1 O2 2.093677 1_545
Mg1 O6 2.093677 1_555
Mg1 O8 2.243209 1_545
Mg1 O0 2.243209 1_555
Mg2 O7 1.992463 1_445
Mg2 O3 1.992463 1_554
Mg2 O5 2.093677 1_444
Mg2 O11 2.093677 1_555
Mg2 O10 2.243209 1_454
Mg2 O13 2.243209 1_545
Mg3 O9 1.992463 1_555
Mg3 O15 1.992463 1_555
Mg3 O2 2.093677 1_555
Mg3 O6 2.093677 1_555
Mg3 O8 2.243209 1_555
Mg3 O0 2.243209 1_555
O0 Se1 1.660909 1_655
O1 Se3 1.632801 1_555
O2 Se2 1.672317 1_555
O3 Se0 1.632801 1_555
O4 Se2 1.632801 1_555
O5 Se3 1.672317 1_555
O6 Se0 1.672317 1_555
O7 Se2 1.632801 1_555
O8 Se3 1.660909 1_455
O9 Se3 1.632801 1_555
O10 Se0 1.660909 1_555
O11 Se1 1.672317 1_555
O12 Se0 1.632801 1_555
O13 Se2 1.660909 1_555
O14 Se1 1.632801 1_555
O15 Se1 1.632801 1_555
