# generated using pymatgen
data_Na4Al3Ge3BrO12
_symmetry_space_group_name_H-M   'P 1'
_cell_length_a   9.20125800
_cell_length_b   9.20125800
_cell_length_c   9.20125800
_cell_angle_alpha   90.00000000
_cell_angle_beta   90.00000000
_cell_angle_gamma   90.00000000
_symmetry_Int_Tables_number   1
_chemical_formula_structural   Na4Al3Ge3BrO12
_chemical_formula_sum   'Na8 Al6 Ge6 Br2 O24'
_cell_volume   779.00747504
_cell_formula_units_Z   2
loop_
 _symmetry_equiv_pos_site_id
 _symmetry_equiv_pos_as_xyz
  1  'x, y, z'
loop_
 _atom_site_type_symbol
 _atom_site_label
 _atom_site_symmetry_multiplicity
 _atom_site_fract_x
 _atom_site_fract_y
 _atom_site_fract_z
 _atom_site_occupancy
  Na  Na0  1  0.18111200  0.81888800  0.81888800  1
  Na  Na1  1  0.31888800  0.68111200  0.31888800  1
  Na  Na2  1  0.18111200  0.18111200  0.18111200  1
  Na  Na3  1  0.31888800  0.31888800  0.68111200  1
  Na  Na4  1  0.68111200  0.31888800  0.31888800  1
  Na  Na5  1  0.81888800  0.81888800  0.18111200  1
  Na  Na6  1  0.68111200  0.68111200  0.68111200  1
  Na  Na7  1  0.81888800  0.18111200  0.81888800  1
  Al  Al0  1  0.00000000  0.50000000  0.75000000  1
  Al  Al1  1  0.00000000  0.50000000  0.25000000  1
  Al  Al2  1  0.25000000  0.00000000  0.50000000  1
  Al  Al3  1  0.50000000  0.25000000  0.00000000  1
  Al  Al4  1  0.50000000  0.75000000  0.00000000  1
  Al  Al5  1  0.75000000  0.00000000  0.50000000  1
  Ge  Ge0  1  0.25000000  0.50000000  0.00000000  1
  Ge  Ge1  1  0.50000000  0.00000000  0.25000000  1
  Ge  Ge2  1  0.75000000  0.50000000  0.00000000  1
  Ge  Ge3  1  0.00000000  0.25000000  0.50000000  1
  Ge  Ge4  1  0.50000000  0.00000000  0.75000000  1
  Ge  Ge5  1  0.00000000  0.75000000  0.50000000  1
  Br  Br0  1  0.50000000  0.50000000  0.50000000  1
  Br  Br1  1  0.00000000  0.00000000  0.00000000  1
  O  O0  1  0.14492000  0.14526900  0.43087200  1
  O  O1  1  0.85508000  0.85473100  0.43087200  1
  O  O2  1  0.64492000  0.93087200  0.64526900  1
  O  O3  1  0.35473100  0.35508000  0.93087200  1
  O  O4  1  0.64526900  0.64492000  0.93087200  1
  O  O5  1  0.35508000  0.93087200  0.35473100  1
  O  O6  1  0.43087200  0.14492000  0.14526900  1
  O  O7  1  0.14526900  0.56912800  0.85508000  1
  O  O8  1  0.93087200  0.35473100  0.35508000  1
  O  O9  1  0.64526900  0.35508000  0.06912800  1
  O  O10  1  0.64492000  0.06912800  0.35473100  1
  O  O11  1  0.14492000  0.85473100  0.56912800  1
  O  O12  1  0.43087200  0.85508000  0.85473100  1
  O  O13  1  0.85473100  0.43087200  0.85508000  1
  O  O14  1  0.35508000  0.06912800  0.64526900  1
  O  O15  1  0.93087200  0.64526900  0.64492000  1
  O  O16  1  0.06912800  0.35473100  0.64492000  1
  O  O17  1  0.85473100  0.56912800  0.14492000  1
  O  O18  1  0.14526900  0.43087200  0.14492000  1
  O  O19  1  0.06912800  0.64526900  0.35508000  1
  O  O20  1  0.35473100  0.64492000  0.06912800  1
  O  O21  1  0.56912800  0.85508000  0.14526900  1
  O  O22  1  0.56912800  0.14492000  0.85473100  1
  O  O23  1  0.85508000  0.14526900  0.56912800  1
loop_
_geom_bond_atom_site_label_1
_geom_bond_atom_site_label_2
_geom_bond_distance
_geom_bond_site_symmetry_2
Na0 O11 2.345412 1_555
Na0 O12 2.345412 1_555
Na0 O7 2.345412 1_555
Na1 O5 2.345412 1_555
Na1 O20 2.345412 1_555
Na1 O19 2.345412 1_555
Na2 O6 2.345412 1_555
Na2 O0 2.345412 1_555
Na2 O18 2.345412 1_555
Na3 O16 2.345412 1_555
Na3 O3 2.345412 1_555
Na3 O14 2.345412 1_555
Na4 O8 2.345412 1_555
Na4 O10 2.345412 1_555
Na4 O9 2.345412 1_555
Na5 O17 2.345412 1_555
Na5 O21 2.345412 1_555
Na5 O1 2.345412 1_555
Na6 O15 2.345412 1_555
Na6 O2 2.345412 1_555
Na6 O4 2.345412 1_555
Na7 O23 2.345412 1_555
Na7 O22 2.345412 1_555
Na7 O13 2.345412 1_555
Al0 O15 1.768068 1_455
Al0 O7 1.768068 1_555
Al0 O13 1.768068 1_455
Al0 O16 1.768068 1_555
Al1 O8 1.768068 1_455
Al1 O19 1.768068 1_555
Al1 O17 1.768068 1_455
Al1 O18 1.768068 1_555
Al2 O11 1.768068 1_545
Al2 O14 1.768068 1_555
Al2 O5 1.768068 1_545
Al2 O0 1.768068 1_555
Al3 O3 1.768068 1_554
Al3 O22 1.768068 1_554
Al3 O9 1.768068 1_555
Al3 O6 1.768068 1_555
Al4 O20 1.768068 1_555
Al4 O4 1.768068 1_554
Al4 O21 1.768068 1_555
Al4 O12 1.768068 1_554
Al5 O2 1.768068 1_545
Al5 O23 1.768068 1_555
Al5 O10 1.768068 1_555
Al5 O1 1.768068 1_545
Ge0 O3 1.763885 1_554
Ge0 O18 1.763885 1_555
Ge0 O7 1.763885 1_554
Ge0 O20 1.763885 1_555
Ge1 O5 1.763885 1_545
Ge1 O6 1.763885 1_555
Ge1 O21 1.763885 1_545
Ge1 O10 1.763885 1_555
Ge2 O9 1.763885 1_555
Ge2 O17 1.763885 1_555
Ge2 O4 1.763885 1_554
Ge2 O13 1.763885 1_554
Ge3 O8 1.763885 1_455
Ge3 O0 1.763885 1_555
Ge3 O23 1.763885 1_455
Ge3 O16 1.763885 1_555
Ge4 O22 1.763885 1_555
Ge4 O14 1.763885 1_555
Ge4 O2 1.763885 1_545
Ge4 O12 1.763885 1_545
Ge5 O19 1.763885 1_555
Ge5 O11 1.763885 1_555
Ge5 O15 1.763885 1_455
Ge5 O1 1.763885 1_455
Br0 Na3 2.886390 1_555
Br0 Na1 2.886390 1_555
Br0 Na4 2.886390 1_555
Br0 Na6 2.886390 1_555
Br1 Na2 2.886390 1_555
Br1 Na0 2.886390 1_544
Br1 Na5 2.886390 1_445
Br1 Na7 2.886390 1_454
