# generated using pymatgen
data_Na2NpH2(CO3)3
_symmetry_space_group_name_H-M   'P 1'
_cell_length_a   6.95184500
_cell_length_b   8.44575504
_cell_length_c   8.76409125
_cell_angle_alpha   76.54707967
_cell_angle_beta   71.04564869
_cell_angle_gamma   68.75864624
_symmetry_Int_Tables_number   1
_chemical_formula_structural   Na2NpH2(CO3)3
_chemical_formula_sum   'Na4 Np2 H4 C6 O18'
_cell_volume   449.73258552
_cell_formula_units_Z   2
loop_
 _symmetry_equiv_pos_site_id
 _symmetry_equiv_pos_as_xyz
  1  'x, y, z'
loop_
 _atom_site_type_symbol
 _atom_site_label
 _atom_site_symmetry_multiplicity
 _atom_site_fract_x
 _atom_site_fract_y
 _atom_site_fract_z
 _atom_site_occupancy
  Na  Na0  1  0.51035800  0.61806000  0.79004300  1
  Na  Na1  1  0.48964200  0.38194000  0.20995700  1
  Na  Na2  1  0.36425100  0.03746500  0.82109700  1
  Na  Na3  1  0.63574900  0.96253500  0.17890300  1
  Np  Np0  1  0.96699500  0.83653000  0.72578000  1
  Np  Np1  1  0.03300500  0.16347000  0.27422000  1
  H  H0  1  0.69492400  0.64761400  0.40949300  1
  H  H1  1  0.30507600  0.35238600  0.59050700  1
  H  H2  1  0.68109000  0.79171800  0.50072600  1
  H  H3  1  0.31891000  0.20828200  0.49927400  1
  C  C0  1  0.29906000  0.77745200  0.15682000  1
  C  C1  1  0.70094000  0.22254800  0.84318000  1
  C  C2  1  0.77693200  0.26972600  0.65576700  1
  C  C3  1  0.22306800  0.73027400  0.34423300  1
  C  C4  1  0.08423900  0.44481200  0.93430300  1
  C  C5  1  0.91576100  0.55518800  0.06569700  1
  O  O0  1  0.88648000  0.13912200  0.57684000  1
  O  O1  1  0.27668000  0.18828900  0.29965500  1
  O  O2  1  0.73048200  0.42237300  0.59482400  1
  O  O3  1  0.79464100  0.13797900  0.24500100  1
  O  O4  1  0.38160500  0.65988900  0.06948900  1
  O  O5  1  0.84909600  0.71505500  0.02262300  1
  O  O6  1  0.20535900  0.86202100  0.75499900  1
  O  O7  1  0.72332000  0.81171100  0.70034500  1
  O  O8  1  0.27278400  0.93774900  0.10604100  1
  O  O9  1  0.11352000  0.86087800  0.42316000  1
  O  O10  1  0.26951800  0.57762700  0.40517600  1
  O  O11  1  0.85747000  0.47541000  0.20563000  1
  O  O12  1  0.72721600  0.06225100  0.89395900  1
  O  O13  1  0.61839500  0.34011100  0.93051100  1
  O  O14  1  0.35935600  0.22833400  0.58896800  1
  O  O15  1  0.64064400  0.77166600  0.41103200  1
  O  O16  1  0.15090400  0.28494500  0.97737700  1
  O  O17  1  0.14253000  0.52459000  0.79437000  1
loop_
_geom_bond_atom_site_label_1
_geom_bond_atom_site_label_2
_geom_bond_distance
_geom_bond_site_symmetry_2
Na0 O13 2.359829 1_555
Na0 O4 2.381889 1_556
Na0 O2 2.404732 1_555
Na0 O6 2.407995 1_555
Na0 O7 2.425895 1_555
Na0 O17 2.923878 1_555
Na1 O4 2.359829 1_555
Na1 O13 2.381889 1_554
Na1 O10 2.404732 1_555
Na1 O3 2.407995 1_555
Na1 O1 2.425895 1_555
Na1 O11 2.923878 1_555
Na2 O14 2.284268 1_555
Na2 O8 2.393293 1_546
Na2 O6 2.398406 1_545
Na2 O16 2.492099 1_555
Na2 O7 2.600080 1_545
Na2 O12 2.882741 1_555
Na3 O15 2.284268 1_555
Na3 O12 2.393293 1_564
Na3 O3 2.398406 1_565
Na3 O5 2.492099 1_555
Na3 O1 2.600080 1_565
Na3 O8 2.882741 1_555
Np0 O6 1.848681 1_655
Np0 O7 1.867506 1_555
Np0 O12 2.448287 1_565
Np0 O17 2.490289 1_655
Np0 O9 2.501394 1_655
Np0 O0 2.536595 1_565
Np0 O5 2.544536 1_556
Np1 O3 1.848681 1_455
Np1 O1 1.867506 1_555
Np1 O8 2.448287 1_545
Np1 O11 2.490289 1_455
Np1 O0 2.501394 1_455
Np1 O9 2.536595 1_545
Np1 O16 2.544536 1_554
H0 O15 0.978302 1_555
H1 O14 0.978302 1_555
H2 O15 0.982703 1_555
H3 O14 0.982703 1_555
C0 O4 1.247552 1_555
C0 O8 1.287461 1_555
C1 O13 1.247552 1_555
C1 O12 1.287461 1_555
C2 O2 1.241623 1_555
C2 O0 1.295874 1_555
C3 O10 1.241623 1_555
C3 O9 1.295874 1_555
C4 O16 1.266257 1_555
C4 O17 1.269935 1_555
C5 O5 1.266257 1_555
C5 O11 1.269935 1_555
