# generated using pymatgen
data_Er3(Si3Ru)4
_symmetry_space_group_name_H-M   'P 1'
_cell_length_a   10.05261944
_cell_length_b   10.05261944
_cell_length_c   8.07589568
_cell_angle_alpha   90.00000000
_cell_angle_beta   90.00000000
_cell_angle_gamma   132.66846188
_symmetry_Int_Tables_number   1
_chemical_formula_structural   Er3(Si3Ru)4
_chemical_formula_sum   'Er6 Si24 Ru8'
_cell_volume   600.07637432
_cell_formula_units_Z   2
loop_
 _symmetry_equiv_pos_site_id
 _symmetry_equiv_pos_as_xyz
  1  'x, y, z'
loop_
 _atom_site_type_symbol
 _atom_site_label
 _atom_site_symmetry_multiplicity
 _atom_site_fract_x
 _atom_site_fract_y
 _atom_site_fract_z
 _atom_site_occupancy
  Er  Er0  1  0.49667551  0.99667551  0.25000000  1
  Er  Er1  1  0.00332449  0.50332449  0.75000000  1
  Er  Er2  1  0.50332449  0.00332449  0.75000000  1
  Er  Er3  1  0.99667551  0.49667551  0.25000000  1
  Er  Er4  1  0.50000000  0.50000000  0.50000000  1
  Er  Er5  1  0.00000000  0.00000000  -0.00000000  1
  Si  Si0  1  0.38989734  0.15542598  0.00517101  1
  Si  Si1  1  0.65542598  0.88989734  0.49482899  1
  Si  Si2  1  0.11010266  0.34457402  0.50517101  1
  Si  Si3  1  0.84457402  0.61010266  0.99482899  1
  Si  Si4  1  0.61010266  0.84457402  0.99482899  1
  Si  Si5  1  0.34457402  0.11010266  0.50517101  1
  Si  Si6  1  0.88989734  0.65542598  0.49482899  1
  Si  Si7  1  0.15542598  0.38989734  0.00517101  1
  Si  Si8  1  0.61322658  0.37865664  0.22738147  1
  Si  Si9  1  0.87865664  0.11322658  0.27261853  1
  Si  Si10  1  0.88677342  0.12134336  0.72738147  1
  Si  Si11  1  0.62134336  0.38677342  0.77261853  1
  Si  Si12  1  0.38677342  0.62134336  0.77261853  1
  Si  Si13  1  0.12134336  0.88677342  0.72738147  1
  Si  Si14  1  0.70555481  0.29444519  -0.00000000  1
  Si  Si15  1  0.79444519  0.20555481  0.50000000  1
  Si  Si16  1  0.29444519  0.70555481  -0.00000000  1
  Si  Si17  1  0.20555481  0.79444519  0.50000000  1
  Si  Si18  1  0.16643654  0.16643654  0.33387114  1
  Si  Si19  1  0.66643654  0.66643654  0.16612886  1
  Si  Si20  1  0.33356346  0.33356346  0.83387114  1
  Si  Si21  1  0.83356346  0.83356346  0.66612886  1
  Si  Si22  1  0.37865664  0.61322658  0.22738147  1
  Si  Si23  1  0.11322658  0.87865664  0.27261853  1
  Ru  Ru0  1  0.62720888  0.62720888  0.87255677  1
  Ru  Ru1  1  0.12720888  0.12720888  0.62744323  1
  Ru  Ru2  1  0.87279112  0.87279112  0.37255677  1
  Ru  Ru3  1  0.37279112  0.37279112  0.12744323  1
  Ru  Ru4  1  0.33077912  0.66922088  0.50000000  1
  Ru  Ru5  1  0.16922088  0.83077912  -0.00000000  1
  Ru  Ru6  1  0.66922088  0.33077912  0.50000000  1
  Ru  Ru7  1  0.83077912  0.16922088  -0.00000000  1
loop_
_geom_bond_atom_site_label_1
_geom_bond_atom_site_label_2
_geom_bond_distance
_geom_bond_site_symmetry_2
Er0 Si17 2.951121 1_555
Er0 Si16 2.951121 1_555
Er0 Si15 2.987580 1_565
Er0 Si14 2.987580 1_565
Er0 Si1 3.151239 1_555
Er0 Si0 3.151239 1_565
Er0 Si9 3.170581 1_565
Er0 Si8 3.170581 1_565
Er0 Si23 3.178110 1_555
Er0 Si22 3.178110 1_555
Er0 Si5 3.201239 1_565
Er0 Si4 3.201239 1_554
Er0 Ru5 3.201865 1_555
Er0 Ru4 3.201865 1_555
Er0 Ru6 3.235500 1_565
Er0 Ru7 3.235500 1_565
Er1 Si17 2.951121 1_555
Er1 Si16 2.951121 1_556
Er1 Si15 2.987580 1_455
Er1 Si14 2.987580 1_456
Er1 Si3 3.151239 1_455
Er1 Si2 3.151239 1_555
Er1 Si11 3.170581 1_455
Er1 Si10 3.170581 1_455
Er1 Si12 3.178110 1_555
Er1 Si13 3.178110 1_555
Er1 Si6 3.201239 1_455
Er1 Si7 3.201239 1_556
Er1 Ru4 3.201865 1_555
Er1 Ru5 3.201865 1_556
Er1 Ru7 3.235500 1_456
Er1 Ru6 3.235500 1_455
Er2 Si14 2.951121 1_556
Er2 Si15 2.951121 1_555
Er2 Si16 2.987580 1_546
Er2 Si17 2.987580 1_545
Er2 Si4 3.151239 1_545
Er2 Si5 3.151239 1_555
Er2 Si12 3.170581 1_545
Er2 Si13 3.170581 1_545
Er2 Si10 3.178110 1_555
Er2 Si11 3.178110 1_555
Er2 Si0 3.201239 1_556
Er2 Si1 3.201239 1_545
Er2 Ru7 3.201865 1_556
Er2 Ru6 3.201865 1_555
Er2 Ru5 3.235500 1_546
Er2 Ru4 3.235500 1_545
Er3 Si14 2.951121 1_555
Er3 Si15 2.951121 1_555
Er3 Si16 2.987580 1_655
Er3 Si17 2.987580 1_655
Er3 Si6 3.151239 1_555
Er3 Si7 3.151239 1_655
Er3 Si23 3.170581 1_655
Er3 Si22 3.170581 1_655
Er3 Si9 3.178110 1_555
Er3 Si8 3.178110 1_555
Er3 Si2 3.201239 1_655
Er3 Si3 3.201239 1_554
Er3 Ru6 3.201865 1_555
Er3 Ru7 3.201865 1_555
Er3 Ru4 3.235500 1_655
Er3 Ru5 3.235500 1_655
Er4 Si18 3.007748 1_555
Er4 Si21 3.007748 1_555
Er4 Si19 3.012346 1_555
Er4 Si20 3.012346 1_555
Er4 Si2 3.082899 1_555
Er4 Si1 3.082899 1_555
Er4 Si6 3.082899 1_555
Er4 Si5 3.082899 1_555
Er4 Si8 3.084275 1_555
Er4 Si12 3.084275 1_555
Er4 Si22 3.084275 1_555
Er4 Si11 3.084275 1_555
Er4 Ru4 3.116108 1_555
Er4 Ru6 3.116108 1_555
Er4 Ru0 3.179053 1_555
Er4 Ru3 3.179053 1_555
Er4 Ru2 3.179698 1_555
Er4 Ru1 3.179698 1_555
Er5 Si20 3.007748 1_554
Er5 Si19 3.007748 1_445
Er5 Si21 3.012346 1_444
Er5 Si18 3.012346 1_555
Er5 Si3 3.082899 1_444
Er5 Si7 3.082899 1_555
Er5 Si4 3.082899 1_444
Er5 Si0 3.082899 1_555
Er5 Si9 3.084275 1_455
Er5 Si13 3.084275 1_544
Er5 Si10 3.084275 1_454
Er5 Si23 3.084275 1_545
Er5 Ru7 3.116108 1_455
Er5 Ru5 3.116108 1_545
Er5 Ru1 3.179053 1_554
Er5 Ru2 3.179053 1_445
Er5 Ru0 3.179698 1_444
Er5 Ru3 3.179698 1_555
Si0 Si14 2.452100 1_555
Si0 Si8 2.543097 1_555
Si0 Si20 2.610729 1_554
Si0 Si11 2.648480 1_554
Si1 Si15 2.452100 1_565
Si1 Si9 2.543097 1_565
Si1 Si21 2.610729 1_555
Si1 Si10 2.648480 1_565
Si2 Si9 2.648480 1_455
Si3 Si8 2.648480 1_556
Si10 Si15 2.452582 1_555
Si10 Si2 2.543097 1_655
Si10 Si21 2.608135 1_545
Si11 Si14 2.452582 1_556
Si11 Si3 2.543097 1_555
Si11 Si20 2.608135 1_555
Si12 Si16 2.452582 1_556
Si12 Si4 2.543097 1_555
Si12 Si20 2.608135 1_555
Si12 Si7 2.648480 1_556
Si13 Si17 2.452582 1_555
Si13 Si5 2.543097 1_565
Si13 Si21 2.608135 1_455
Si13 Si6 2.648480 1_455
Si14 Si3 2.452100 1_554
Si14 Si8 2.452582 1_555
Si15 Si2 2.452100 1_655
Si15 Si9 2.452582 1_555
Si16 Si7 2.452100 1_555
Si16 Si4 2.452100 1_554
Si16 Si22 2.452582 1_555
Si17 Si5 2.452100 1_565
Si17 Si6 2.452100 1_455
Si17 Si23 2.452582 1_555
Si18 Si23 2.608135 1_545
Si18 Si9 2.608135 1_455
Si18 Si5 2.610729 1_555
Si18 Si2 2.610729 1_555
Si19 Si8 2.608135 1_555
Si19 Si22 2.608135 1_555
Si19 Si3 2.610729 1_554
Si19 Si4 2.610729 1_554
Si20 Si7 2.610729 1_556
Si21 Si6 2.610729 1_555
Si22 Si7 2.543097 1_555
Si22 Si4 2.648480 1_554
Si23 Si6 2.543097 1_455
Si23 Si5 2.648480 1_565
Ru0 Si21 2.356380 1_555
Ru0 Si20 2.390299 1_555
Ru0 Si19 2.391900 1_556
Ru0 Si3 2.507707 1_555
Ru0 Si4 2.507707 1_555
Ru0 Si11 2.510699 1_555
Ru0 Si12 2.510699 1_555
Ru1 Si20 2.356380 1_555
Ru1 Si21 2.390299 1_445
Ru1 Si18 2.391900 1_555
Ru1 Si2 2.507707 1_555
Ru1 Si5 2.507707 1_555
Ru1 Si10 2.510699 1_455
Ru1 Si13 2.510699 1_545
Ru2 Si19 2.356380 1_555
Ru2 Si18 2.390299 1_665
Ru2 Si21 2.391900 1_555
Ru2 Si6 2.507707 1_555
Ru2 Si1 2.507707 1_555
Ru2 Si9 2.510699 1_565
Ru2 Si23 2.510699 1_655
Ru3 Si18 2.356380 1_555
Ru3 Si19 2.390299 1_555
Ru3 Si20 2.391900 1_554
Ru3 Si0 2.507707 1_555
Ru3 Si7 2.507707 1_555
Ru3 Si22 2.510699 1_555
Ru3 Si8 2.510699 1_555
Ru4 Si17 2.305936 1_555
Ru4 Si2 2.400022 1_555
Ru4 Si1 2.400022 1_555
Ru4 Si12 2.400611 1_555
Ru4 Si22 2.400611 1_555
Ru5 Si16 2.305936 1_555
Ru5 Si0 2.400022 1_565
Ru5 Si3 2.400022 1_454
Ru5 Si23 2.400611 1_555
Ru5 Si13 2.400611 1_554
Ru6 Si15 2.305936 1_555
Ru6 Si6 2.400022 1_555
Ru6 Si5 2.400022 1_555
Ru6 Si11 2.400611 1_555
Ru6 Si8 2.400611 1_555
Ru7 Si14 2.305936 1_555
Ru7 Si4 2.400022 1_544
Ru7 Si7 2.400022 1_655
Ru7 Si9 2.400611 1_555
Ru7 Si10 2.400611 1_554
