# generated using pymatgen
data_Pr2Ni2I
_symmetry_space_group_name_H-M   'P 1'
_cell_length_a   4.08054927
_cell_length_b   4.08054843
_cell_length_c   17.51310147
_cell_angle_alpha   90.00000000
_cell_angle_beta   90.00000000
_cell_angle_gamma   119.99999830
_symmetry_Int_Tables_number   1
_chemical_formula_structural   Pr2Ni2I
_chemical_formula_sum   'Pr4 Ni4 I2'
_cell_volume   252.54040123
_cell_formula_units_Z   2
loop_
 _symmetry_equiv_pos_site_id
 _symmetry_equiv_pos_as_xyz
  1  'x, y, z'
loop_
 _atom_site_type_symbol
 _atom_site_label
 _atom_site_symmetry_multiplicity
 _atom_site_fract_x
 _atom_site_fract_y
 _atom_site_fract_z
 _atom_site_occupancy
  Pr  Pr0  1  0.00000000  0.00000000  0.60438692  1
  Pr  Pr1  1  0.00000000  0.00000000  0.39561308  1
  Pr  Pr2  1  0.00000000  0.00000000  0.10438692  1
  Pr  Pr3  1  0.00000000  0.00000000  0.89561308  1
  Ni  Ni0  1  0.66666700  0.33333300  0.50061947  1
  Ni  Ni1  1  0.33333300  0.66666700  0.00061947  1
  Ni  Ni2  1  0.66666700  0.33333300  0.99938053  1
  Ni  Ni3  1  0.33333300  0.66666700  0.49938053  1
  I  I0  1  0.66666700  0.33333300  0.25000000  1
  I  I1  1  0.33333300  0.66666700  0.75000000  1
loop_
_geom_bond_atom_site_label_1
_geom_bond_atom_site_label_2
_geom_bond_distance
_geom_bond_site_symmetry_2
Ni0 Ni3 2.356003 1_545
Ni0 Ni3 2.356004 1_655
Ni0 Ni3 2.356011 1_555
Ni0 Pr0 2.975370 1_655
Ni0 Pr0 2.975372 1_665
Ni0 Pr0 2.975373 1_555
Ni0 Pr1 2.988671 1_655
Ni0 Pr1 2.988674 1_665
Ni0 Pr1 2.988674 1_555
Ni1 Ni2 2.356003 1_564
Ni1 Ni2 2.356004 1_454
Ni1 Ni2 2.356011 1_554
Ni1 Pr2 2.975370 1_565
Ni1 Pr2 2.975372 1_555
Ni1 Pr2 2.975373 1_665
Ni1 Pr3 2.988671 1_564
Ni1 Pr3 2.988674 1_554
Ni1 Pr3 2.988674 1_664
Ni2 Pr3 2.975370 1_655
Ni2 Pr3 2.975372 1_665
Ni2 Pr3 2.975373 1_555
Ni2 Pr2 2.988671 1_656
Ni2 Pr2 2.988674 1_666
Ni2 Pr2 2.988674 1_556
Ni3 Pr1 2.975370 1_565
Ni3 Pr1 2.975372 1_555
Ni3 Pr1 2.975373 1_665
Ni3 Pr0 2.988671 1_565
Ni3 Pr0 2.988674 1_555
Ni3 Pr0 2.988674 1_665
I0 Pr1 3.471812 1_655
I0 Pr2 3.471812 1_655
I0 Pr2 3.471814 1_665
I0 Pr1 3.471814 1_665
I0 Pr2 3.471815 1_555
I0 Pr1 3.471815 1_555
I1 Pr3 3.471812 1_565
I1 Pr0 3.471812 1_565
I1 Pr3 3.471814 1_555
I1 Pr0 3.471814 1_555
I1 Pr3 3.471815 1_665
I1 Pr0 3.471815 1_665
