# generated using pymatgen
data_CsK2BiCl6
_symmetry_space_group_name_H-M   'P 1'
_cell_length_a   13.61967871
_cell_length_b   13.61967871
_cell_length_c   13.25854263
_cell_angle_alpha   81.35997668
_cell_angle_beta   81.35997668
_cell_angle_gamma   33.74796865
_symmetry_Int_Tables_number   1
_chemical_formula_structural   CsK2BiCl6
_chemical_formula_sum   'Cs4 K8 Bi4 Cl24'
_cell_volume   1349.35729359
_cell_formula_units_Z   4
loop_
 _symmetry_equiv_pos_site_id
 _symmetry_equiv_pos_as_xyz
  1  'x, y, z'
loop_
 _atom_site_type_symbol
 _atom_site_label
 _atom_site_symmetry_multiplicity
 _atom_site_fract_x
 _atom_site_fract_y
 _atom_site_fract_z
 _atom_site_occupancy
  Cs  Cs0  1  0.78824200  0.31461300  0.56974200  1
  Cs  Cs1  1  0.21175800  0.68538700  0.43025800  1
  Cs  Cs2  1  0.31461300  0.78824200  0.06974200  1
  Cs  Cs3  1  0.68538700  0.21175800  0.93025800  1
  K  K0  1  0.46985100  0.84345400  0.36881100  1
  K  K1  1  0.97669200  0.34721400  0.20054300  1
  K  K2  1  0.65278600  0.02330800  0.29945700  1
  K  K3  1  0.53014900  0.15654600  0.63118900  1
  K  K4  1  0.15654600  0.53014900  0.13118900  1
  K  K5  1  0.02330800  0.65278600  0.79945700  1
  K  K6  1  0.84345400  0.46985100  0.86881100  1
  K  K7  1  0.34721400  0.97669200  0.70054300  1
  Bi  Bi0  1  0.00000000  0.50000000  0.50000000  1
  Bi  Bi1  1  0.22188500  0.77811500  0.75000000  1
  Bi  Bi2  1  0.77811500  0.22188500  0.25000000  1
  Bi  Bi3  1  0.50000000  0.00000000  0.00000000  1
  Cl  Cl0  1  0.13873800  0.36085400  0.69209400  1
  Cl  Cl1  1  0.39195800  0.47758800  0.68494600  1
  Cl  Cl2  1  0.14061800  0.20453500  0.47347000  1
  Cl  Cl3  1  0.69781300  0.65062000  0.57400000  1
  Cl  Cl4  1  0.65062000  0.69781300  0.07400000  1
  Cl  Cl5  1  0.47758800  0.39195800  0.18494600  1
  Cl  Cl6  1  0.79546500  0.85938200  0.02653000  1
  Cl  Cl7  1  0.90706600  0.96425500  0.70051000  1
  Cl  Cl8  1  0.86126200  0.63914600  0.30790600  1
  Cl  Cl9  1  0.70779100  0.17605100  0.43825500  1
  Cl  Cl10  1  0.20453500  0.14061800  0.97347000  1
  Cl  Cl11  1  0.36085400  0.13873800  0.19209400  1
  Cl  Cl12  1  0.29220900  0.82394900  0.56174500  1
  Cl  Cl13  1  0.85938200  0.79546500  0.52653000  1
  Cl  Cl14  1  0.09293400  0.03574500  0.29949000  1
  Cl  Cl15  1  0.30218700  0.34938000  0.42600000  1
  Cl  Cl16  1  0.63914600  0.86126200  0.80790600  1
  Cl  Cl17  1  0.52241200  0.60804200  0.81505400  1
  Cl  Cl18  1  0.03574500  0.09293400  0.79949000  1
  Cl  Cl19  1  0.96425500  0.90706600  0.20051000  1
  Cl  Cl20  1  0.60804200  0.52241200  0.31505400  1
  Cl  Cl21  1  0.34938000  0.30218700  0.92600000  1
  Cl  Cl22  1  0.82394900  0.29220900  0.06174500  1
  Cl  Cl23  1  0.17605100  0.70779100  0.93825500  1
loop_
_geom_bond_atom_site_label_1
_geom_bond_atom_site_label_2
_geom_bond_distance
_geom_bond_site_symmetry_2
Bi0 Cl2 2.718777 1_555
Bi0 Cl13 2.718777 1_455
Bi0 Cl3 2.731456 1_455
Bi0 Cl15 2.731456 1_555
Bi0 Cl0 2.772953 1_555
Bi0 Cl8 2.772953 1_455
Bi1 Cl23 2.710143 1_555
Bi1 Cl12 2.710143 1_555
Bi1 Cl18 2.740624 1_565
Bi1 Cl7 2.740624 1_455
Bi1 Cl17 2.748905 1_555
Bi1 Cl1 2.748905 1_555
Bi2 Cl9 2.710143 1_555
Bi2 Cl22 2.710143 1_555
Bi2 Cl14 2.740624 1_655
Bi2 Cl19 2.740624 1_545
Bi2 Cl20 2.748905 1_555
Bi2 Cl5 2.748905 1_555
Bi3 Cl10 2.718777 1_554
Bi3 Cl6 2.718777 1_545
Bi3 Cl4 2.731456 1_545
Bi3 Cl21 2.731456 1_554
Bi3 Cl16 2.772953 1_544
Bi3 Cl11 2.772953 1_555
Cl0 K7 3.265618 1_545
Cl0 K5 3.307535 1_555
Cl0 K3 3.395124 1_555
Cl0 K6 3.486106 1_455
Cl1 K3 3.164929 1_555
Cl1 K5 3.476038 1_555
Cl1 Cs1 3.674723 1_555
Cl1 Cs0 3.874204 1_555
Cl1 Cs3 3.995451 1_555
Cl2 K0 3.118715 1_545
Cl2 K7 3.439296 1_545
Cl2 Cs0 3.698480 1_455
Cl3 K7 3.147220 1_555
Cl3 K0 3.281653 1_555
Cl3 Cs0 3.625800 1_555
Cl4 K1 3.147220 1_555
Cl4 K6 3.281653 1_554
Cl4 Cs2 3.625800 1_555
Cl5 K4 3.164929 1_555
Cl5 K2 3.476038 1_555
Cl5 Cs3 3.674723 1_554
Cl5 Cs2 3.874204 1_555
Cl5 Cs1 3.995451 1_555
Cl6 K4 3.118715 1_655
Cl6 K5 3.439296 1_654
Cl6 Cs3 3.698480 1_564
Cl7 K5 3.163283 1_655
Cl7 K3 3.520380 1_565
Cl7 Cs3 3.626911 1_565
Cl7 Cs0 3.729612 1_565
Cl8 K2 3.265618 1_565
Cl8 K1 3.307535 1_555
Cl8 K0 3.395124 1_555
Cl8 K4 3.486106 1_655
Cl9 K3 3.387162 1_555
Cl9 K2 3.525848 1_555
Cl9 Cs0 3.578030 1_555
Cl9 Cs1 3.936643 1_645
Cl9 Cs1 3.979046 1_555
Cl10 K6 3.118715 1_455
Cl10 K1 3.439296 1_456
Cl10 Cs2 3.698480 1_546
Cl11 K1 3.265618 1_455
Cl11 K2 3.307535 1_555
Cl11 K4 3.395124 1_555
Cl11 K0 3.486106 1_545
Cl12 K0 3.387162 1_555
Cl12 K7 3.525848 1_555
Cl12 Cs1 3.578030 1_555
Cl12 Cs0 3.936643 1_465
Cl12 Cs0 3.979046 1_555
Cl13 K3 3.118715 1_565
Cl13 K2 3.439296 1_565
Cl13 Cs1 3.698480 1_655
Cl14 K1 3.163283 1_455
Cl14 K0 3.520380 1_545
Cl14 Cs2 3.626911 1_545
Cl14 Cs1 3.729612 1_545
Cl15 K2 3.147220 1_555
Cl15 K3 3.281653 1_555
Cl15 Cs1 3.625800 1_555
Cl16 K5 3.265618 1_655
Cl16 K7 3.307535 1_555
Cl16 K6 3.395124 1_555
Cl16 K3 3.486106 1_565
Cl17 K6 3.164929 1_555
Cl17 K7 3.476038 1_555
Cl17 Cs2 3.674723 1_556
Cl17 Cs3 3.874204 1_555
Cl17 Cs0 3.995451 1_555
Cl18 K7 3.163283 1_545
Cl18 K6 3.520380 1_455
Cl18 Cs0 3.626911 1_455
Cl18 Cs3 3.729612 1_455
Cl19 K2 3.163283 1_565
Cl19 K4 3.520380 1_655
Cl19 Cs1 3.626911 1_655
Cl19 Cs2 3.729612 1_655
Cl20 K0 3.164929 1_555
Cl20 K1 3.476038 1_555
Cl20 Cs0 3.674723 1_555
Cl20 Cs1 3.874204 1_555
Cl20 Cs2 3.995451 1_555
Cl21 K5 3.147220 1_555
Cl21 K4 3.281653 1_556
Cl21 Cs3 3.625800 1_555
Cl22 K6 3.387162 1_554
Cl22 K1 3.525848 1_555
Cl22 Cs3 3.578030 1_554
Cl22 Cs2 3.936643 1_645
Cl22 Cs2 3.979046 1_555
Cl23 K4 3.387162 1_556
Cl23 K5 3.525848 1_555
Cl23 Cs2 3.578030 1_556
Cl23 Cs3 3.936643 1_465
Cl23 Cs3 3.979046 1_555
