# generated using pymatgen
data_CsAlF4
_symmetry_space_group_name_H-M   'P 1'
_cell_length_a   6.72964298
_cell_length_b   10.57818780
_cell_length_c   17.53213699
_cell_angle_alpha   90.00000000
_cell_angle_beta   90.00000000
_cell_angle_gamma   90.00000000
_symmetry_Int_Tables_number   1
_chemical_formula_structural   CsAlF4
_chemical_formula_sum   'Cs12 Al12 F48'
_cell_volume   1248.06772685
_cell_formula_units_Z   12
loop_
 _symmetry_equiv_pos_site_id
 _symmetry_equiv_pos_as_xyz
  1  'x, y, z'
loop_
 _atom_site_type_symbol
 _atom_site_label
 _atom_site_symmetry_multiplicity
 _atom_site_fract_x
 _atom_site_fract_y
 _atom_site_fract_z
 _atom_site_occupancy
  Cs  Cs0  1  0.25000000  0.38030323  0.95705988  1
  Cs  Cs1  1  0.25000000  0.69063970  0.31770542  1
  Cs  Cs2  1  0.75000000  0.61969677  0.04294012  1
  Cs  Cs3  1  0.75000000  0.92808057  0.22535232  1
  Cs  Cs4  1  0.75000000  0.42808057  0.27464768  1
  Cs  Cs5  1  0.75000000  0.80936030  0.81770542  1
  Cs  Cs6  1  0.25000000  0.07191943  0.77464768  1
  Cs  Cs7  1  0.25000000  0.88030323  0.54294012  1
  Cs  Cs8  1  0.25000000  0.19063970  0.18229458  1
  Cs  Cs9  1  0.75000000  0.11969677  0.45705988  1
  Cs  Cs10  1  0.25000000  0.57191943  0.72535232  1
  Cs  Cs11  1  0.75000000  0.30936030  0.68229458  1
  Al  Al0  1  0.25000000  0.23981422  0.57576081  1
  Al  Al1  1  0.75000000  0.69981888  0.62660629  1
  Al  Al2  1  0.75000000  0.26018578  0.07576081  1
  Al  Al3  1  0.25000000  0.80018112  0.12660629  1
  Al  Al4  1  0.25000000  0.73981422  0.92423919  1
  Al  Al5  1  0.75000000  0.76018578  0.42423919  1
  Al  Al6  1  0.25000000  0.30018112  0.37339371  1
  Al  Al7  1  0.50000000  0.00000000  -0.00000000  1
  Al  Al8  1  0.75000000  0.19981888  0.87339371  1
  Al  Al9  1  0.50000000  0.50000000  0.50000000  1
  Al  Al10  1  -0.00000000  0.50000000  0.50000000  1
  Al  Al11  1  -0.00000000  0.00000000  -0.00000000  1
  F  F0  1  0.06192665  0.41240704  0.41636170  1
  F  F1  1  0.56192665  0.08759296  0.91636170  1
  F  F2  1  0.56218731  0.63237252  0.44182279  1
  F  F3  1  0.94764394  0.29271048  0.84048726  1
  F  F4  1  0.05605430  0.13071331  0.58599003  1
  F  F5  1  0.75000000  0.71134628  0.32761796  1
  F  F6  1  0.44764394  0.70728952  0.15951274  1
  F  F7  1  0.06218731  0.36762748  0.55817721  1
  F  F8  1  0.25000000  0.40156012  0.29258001  1
  F  F9  1  0.75000000  0.27836685  0.96917458  1
  F  F10  1  0.25000000  0.28865372  0.67238204  1
  F  F11  1  0.43807335  0.41240704  0.41636170  1
  F  F12  1  0.05235606  0.70728952  0.15951274  1
  F  F13  1  0.25000000  0.22163315  0.46917458  1
  F  F14  1  0.93781269  0.13237252  0.05817721  1
  F  F15  1  0.25000000  0.56097494  0.50677287  1
  F  F16  1  0.25000000  0.78865372  0.82761796  1
  F  F17  1  0.55605430  0.36928669  0.08599003  1
  F  F18  1  0.43781269  0.86762748  0.94182279  1
  F  F19  1  0.55605430  0.86928669  0.41400997  1
  F  F20  1  0.05605430  0.63071331  0.91400997  1
  F  F21  1  0.43807335  0.91240704  0.08363830  1
  F  F22  1  0.56218731  0.13237252  0.05817721  1
  F  F23  1  0.94764394  0.79271048  0.65951274  1
  F  F24  1  0.75000000  0.77836685  0.53082542  1
  F  F25  1  0.93807335  0.08759296  0.91636170  1
  F  F26  1  0.44394570  0.63071331  0.91400997  1
  F  F27  1  0.43781269  0.36762748  0.55817721  1
  F  F28  1  0.56192665  0.58759296  0.58363830  1
  F  F29  1  0.94394570  0.36928669  0.08599003  1
  F  F30  1  0.94394570  0.86928669  0.41400997  1
  F  F31  1  0.25000000  0.90156012  0.20741999  1
  F  F32  1  0.75000000  0.43902506  0.49322713  1
  F  F33  1  0.06192665  0.91240704  0.08363830  1
  F  F34  1  0.93807335  0.58759296  0.58363830  1
  F  F35  1  0.06218731  0.86762748  0.94182279  1
  F  F36  1  0.75000000  0.59843988  0.70741999  1
  F  F37  1  0.44764394  0.20728952  0.34048726  1
  F  F38  1  0.25000000  0.72163315  0.03082542  1
  F  F39  1  0.44394570  0.13071331  0.58599003  1
  F  F40  1  0.75000000  0.09843988  0.79258001  1
  F  F41  1  0.75000000  0.21134628  0.17238204  1
  F  F42  1  0.25000000  0.06097494  0.99322713  1
  F  F43  1  0.93781269  0.63237252  0.44182279  1
  F  F44  1  0.05235606  0.20728952  0.34048726  1
  F  F45  1  0.55235606  0.29271048  0.84048726  1
  F  F46  1  0.75000000  0.93902506  0.00677287  1
  F  F47  1  0.55235606  0.79271048  0.65951274  1
loop_
_geom_bond_atom_site_label_1
_geom_bond_atom_site_label_2
_geom_bond_distance
_geom_bond_site_symmetry_2
Cs0 F3 3.029145 1_455
Cs0 F45 3.029145 1_555
Cs0 F26 3.047910 1_555
Cs0 F20 3.047910 1_555
Cs0 F29 3.060259 1_456
Cs0 F17 3.060259 1_556
Cs0 F42 3.436914 1_555
Cs1 F31 2.952394 1_555
Cs1 F12 3.080937 1_555
Cs1 F6 3.080937 1_555
Cs1 F2 3.086889 1_555
Cs1 F43 3.086889 1_455
Cs1 F8 3.089503 1_555
Cs1 F19 3.265590 1_555
Cs1 F30 3.265590 1_455
Cs1 F5 3.376419 1_455
Cs1 F5 3.376419 1_555
Cs2 F12 3.029145 1_655
Cs2 F6 3.029145 1_555
Cs2 F17 3.047910 1_555
Cs2 F29 3.047910 1_555
Cs2 F20 3.060259 1_654
Cs2 F26 3.060259 1_554
Cs2 F46 3.436914 1_555
Cs3 F5 2.910479 1_555
Cs3 F41 3.137051 1_565
Cs3 F21 3.256828 1_555
Cs3 F33 3.256828 1_655
Cs3 F12 3.305679 1_655
Cs3 F6 3.305679 1_555
Cs3 F31 3.391101 1_555
Cs3 F31 3.391101 1_655
Cs3 F19 3.609756 1_555
Cs3 F30 3.609756 1_555
Cs4 F41 2.910479 1_555
Cs4 F5 3.137051 1_555
Cs4 F11 3.256828 1_555
Cs4 F0 3.256828 1_655
Cs4 F44 3.305679 1_655
Cs4 F37 3.305679 1_555
Cs4 F8 3.391101 1_655
Cs4 F8 3.391101 1_555
Cs4 F17 3.609756 1_555
Cs4 F29 3.609756 1_555
Cs5 F36 2.952394 1_555
Cs5 F23 3.080937 1_555
Cs5 F47 3.080937 1_555
Cs5 F18 3.086889 1_555
Cs5 F35 3.086889 1_655
Cs5 F40 3.089503 1_565
Cs5 F20 3.265590 1_655
Cs5 F26 3.265590 1_555
Cs5 F16 3.376419 1_555
Cs5 F16 3.376419 1_655
Cs6 F10 2.910479 1_555
Cs6 F16 3.137051 1_545
Cs6 F1 3.256828 1_555
Cs6 F25 3.256828 1_455
Cs6 F45 3.305679 1_555
Cs6 F3 3.305679 1_455
Cs6 F40 3.391101 1_455
Cs6 F40 3.391101 1_555
Cs6 F39 3.609756 1_555
Cs6 F4 3.609756 1_555
Cs7 F23 3.029145 1_455
Cs7 F47 3.029145 1_555
Cs7 F39 3.047910 1_565
Cs7 F4 3.047910 1_565
Cs7 F30 3.060259 1_455
Cs7 F19 3.060259 1_555
Cs7 F15 3.436914 1_555
Cs8 F8 2.952394 1_555
Cs8 F37 3.080937 1_555
Cs8 F44 3.080937 1_555
Cs8 F22 3.086889 1_555
Cs8 F14 3.086889 1_455
Cs8 F31 3.089503 1_545
Cs8 F17 3.265590 1_555
Cs8 F29 3.265590 1_455
Cs8 F41 3.376419 1_455
Cs8 F41 3.376419 1_555
Cs9 F44 3.029145 1_655
Cs9 F37 3.029145 1_555
Cs9 F30 3.047910 1_545
Cs9 F19 3.047910 1_545
Cs9 F4 3.060259 1_655
Cs9 F39 3.060259 1_555
Cs9 F32 3.436914 1_555
Cs10 F16 2.910479 1_555
Cs10 F10 3.137051 1_555
Cs10 F28 3.256828 1_555
Cs10 F34 3.256828 1_455
Cs10 F47 3.305679 1_555
Cs10 F23 3.305679 1_455
Cs10 F36 3.391101 1_555
Cs10 F36 3.391101 1_455
Cs10 F26 3.609756 1_555
Cs10 F20 3.609756 1_555
Cs11 F40 2.952394 1_555
Cs11 F45 3.080937 1_555
Cs11 F3 3.080937 1_555
Cs11 F27 3.086889 1_555
Cs11 F7 3.086889 1_655
Cs11 F36 3.089503 1_555
Cs11 F4 3.265590 1_655
Cs11 F39 3.265590 1_555
Cs11 F10 3.376419 1_555
Cs11 F10 3.376419 1_655
Al0 F39 1.751455 1_555
Al0 F4 1.751455 1_555
Al0 F10 1.771007 1_555
Al0 F7 1.876300 1_555
Al0 F27 1.876300 1_555
Al0 F13 1.878555 1_555
Al1 F47 1.751423 1_555
Al1 F23 1.751423 1_555
Al1 F36 1.776930 1_555
Al1 F24 1.873565 1_555
Al1 F28 1.891751 1_555
Al1 F34 1.891751 1_555
Al2 F29 1.751455 1_555
Al2 F17 1.751455 1_555
Al2 F41 1.771007 1_555
Al2 F22 1.876300 1_555
Al2 F14 1.876300 1_555
Al2 F9 1.878555 1_554
Al3 F12 1.751423 1_555
Al3 F6 1.751423 1_555
Al3 F31 1.776930 1_555
Al3 F38 1.873565 1_555
Al3 F33 1.891751 1_555
Al3 F21 1.891751 1_555
Al4 F26 1.751455 1_555
Al4 F20 1.751455 1_555
Al4 F16 1.771007 1_555
Al4 F18 1.876300 1_555
Al4 F35 1.876300 1_555
Al4 F38 1.878555 1_556
Al5 F30 1.751455 1_555
Al5 F19 1.751455 1_555
Al5 F5 1.771007 1_555
Al5 F43 1.876300 1_555
Al5 F2 1.876300 1_555
Al5 F24 1.878555 1_555
Al6 F44 1.751423 1_555
Al6 F37 1.751423 1_555
Al6 F8 1.776930 1_555
Al6 F13 1.873565 1_555
Al6 F0 1.891751 1_555
Al6 F11 1.891751 1_555
Al7 F18 1.782193 1_544
Al7 F22 1.782193 1_555
Al7 F21 1.783935 1_545
Al7 F1 1.783935 1_554
Al7 F46 1.805723 1_545
Al7 F42 1.805723 1_554
Al8 F45 1.751423 1_555
Al8 F3 1.751423 1_555
Al8 F40 1.776930 1_555
Al8 F9 1.873565 1_555
Al8 F1 1.891751 1_555
Al8 F25 1.891751 1_555
Al9 F27 1.782193 1_555
Al9 F2 1.782193 1_555
Al9 F28 1.783935 1_555
Al9 F11 1.783935 1_555
Al9 F32 1.805723 1_555
Al9 F15 1.805723 1_555
Al10 F7 1.782193 1_555
Al10 F43 1.782193 1_455
Al10 F34 1.783935 1_455
Al10 F0 1.783935 1_555
Al10 F32 1.805723 1_455
Al10 F15 1.805723 1_555
Al11 F35 1.782193 1_544
Al11 F14 1.782193 1_455
Al11 F33 1.783935 1_545
Al11 F25 1.783935 1_454
Al11 F46 1.805723 1_445
Al11 F42 1.805723 1_554
