# generated using pymatgen
data_Sr2P2O7
_symmetry_space_group_name_H-M   'P 1'
_cell_length_a   5.39609935
_cell_length_b   8.91691203
_cell_length_c   13.17812947
_cell_angle_alpha   90.00001383
_cell_angle_beta   90.00000445
_cell_angle_gamma   89.99999488
_symmetry_Int_Tables_number   1
_chemical_formula_structural   Sr2P2O7
_chemical_formula_sum   'Sr8 P8 O28'
_cell_volume   634.08603606
_cell_formula_units_Z   4
loop_
 _symmetry_equiv_pos_site_id
 _symmetry_equiv_pos_as_xyz
  1  'x, y, z'
loop_
 _atom_site_type_symbol
 _atom_site_label
 _atom_site_symmetry_multiplicity
 _atom_site_fract_x
 _atom_site_fract_y
 _atom_site_fract_z
 _atom_site_occupancy
  Sr  Sr0  1  0.25000016  0.12496643  0.58677499  1
  Sr  Sr1  1  0.75000000  0.87503270  0.41322414  1
  Sr  Sr2  1  0.25000001  0.62496635  0.91322479  1
  Sr  Sr3  1  0.74999969  0.37503352  0.08677502  1
  Sr  Sr4  1  0.24999952  0.17207643  0.26020919  1
  Sr  Sr5  1  0.75000010  0.82792395  0.73978995  1
  Sr  Sr6  1  0.25000067  0.67207660  0.23979041  1
  Sr  Sr7  1  0.75000008  0.32792384  0.76020979  1
  P  P0  1  0.75000014  0.72348303  0.03552124  1
  P  P1  1  0.24999999  0.27651819  0.96448025  1
  P  P2  1  0.74999994  0.22348219  0.46447866  1
  P  P3  1  0.25000010  0.77651819  0.53551969  1
  P  P4  1  0.74999991  0.96743304  0.18261508  1
  P  P5  1  0.25000008  0.03256741  0.81738472  1
  P  P6  1  0.75000000  0.46743315  0.31738392  1
  P  P7  1  0.24999992  0.53256733  0.68261530  1
  O  O0  1  0.75000014  0.13445308  0.16659679  1
  O  O1  1  0.25000004  0.86554749  0.83340291  1
  O  O2  1  0.74999989  0.63445397  0.33340351  1
  O  O3  1  0.25000007  0.36554745  0.66659714  1
  O  O4  1  0.74999997  0.72570553  0.92084602  1
  O  O5  1  0.25000003  0.27429367  0.07915402  1
  O  O6  1  0.75000002  0.22570600  0.57915382  1
  O  O7  1  0.24999999  0.77429382  0.42084589  1
  O  O8  1  0.48135226  0.35382003  0.92342155  1
  O  O9  1  0.98135140  0.64617975  0.07657840  1
  O  O10  1  0.01864772  0.85382020  0.57657836  1
  O  O11  1  0.51864842  0.14617934  0.42342138  1
  O  O12  1  0.51864850  0.64617970  0.07657840  1
  O  O13  1  0.01864771  0.35382020  0.92342159  1
  O  O14  1  0.98135146  0.14617934  0.42342135  1
  O  O15  1  0.48135233  0.85382021  0.57657830  1
  O  O16  1  0.25000007  0.60537365  0.57077244  1
  O  O17  1  0.74999988  0.39462557  0.42922575  1
  O  O18  1  0.24999990  0.10537347  0.92922759  1
  O  O19  1  0.74999987  0.89462659  0.07077321  1
  O  O20  1  0.48262662  0.58375054  0.73767184  1
  O  O21  1  0.98262512  0.41624841  0.26232750  1
  O  O22  1  0.01737343  0.08375086  0.76232819  1
  O  O23  1  0.51737413  0.91624898  0.23767168  1
  O  O24  1  0.51737469  0.41624847  0.26232748  1
  O  O25  1  0.01737347  0.58375055  0.73767180  1
  O  O26  1  0.98262603  0.91624894  0.23767168  1
  O  O27  1  0.48262654  0.08375084  0.76232827  1
loop_
_geom_bond_atom_site_label_1
_geom_bond_atom_site_label_2
_geom_bond_distance
_geom_bond_site_symmetry_2
O0 P4 1.504188 1_545
O0 Sr3 2.389253 1_555
O0 Sr4 2.985609 1_655
O0 Sr4 2.985615 1_555
O1 P5 1.504187 1_565
O1 Sr2 2.389259 1_555
O1 Sr5 2.985615 1_455
O1 Sr5 2.985616 1_555
O2 P6 1.504198 1_555
O2 Sr1 2.389232 1_555
O2 Sr6 2.985611 1_555
O2 Sr6 2.985619 1_655
O3 P7 1.504187 1_555
O3 Sr0 2.389259 1_555
O3 Sr7 2.985614 1_555
O3 Sr7 2.985614 1_455
O4 P0 1.511335 1_556
O4 Sr5 2.554151 1_555
O4 Sr2 2.845430 1_555
O4 Sr2 2.845430 1_655
O5 P1 1.511316 1_554
O5 Sr4 2.554136 1_555
O5 Sr3 2.845430 1_555
O5 Sr3 2.845433 1_455
O6 P2 1.511334 1_555
O6 Sr7 2.554147 1_555
O6 Sr0 2.845430 1_555
O6 Sr0 2.845431 1_655
O7 P3 1.511316 1_555
O7 Sr6 2.554139 1_555
O7 Sr1 2.845429 1_455
O7 Sr1 2.845429 1_555
O8 P1 1.525252 1_555
O8 Sr3 2.602181 1_556
O8 Sr7 2.604008 1_555
O8 Sr2 2.724382 1_555
O9 P0 1.525246 1_555
O9 Sr2 2.602187 1_654
O9 Sr6 2.604016 1_655
O9 Sr3 2.724380 1_555
O10 P3 1.525252 1_555
O10 Sr1 2.602190 1_455
O10 Sr5 2.604006 1_455
O10 Sr0 2.724382 1_565
O11 P2 1.525246 1_555
O11 Sr0 2.602185 1_555
O11 Sr4 2.604017 1_555
O11 Sr1 2.724383 1_545
O12 P0 1.525248 1_555
O12 Sr2 2.602186 1_554
O12 Sr6 2.604012 1_555
O12 Sr3 2.724378 1_555
O13 P1 1.525252 1_555
O13 Sr3 2.602183 1_456
O13 Sr7 2.604008 1_455
O13 Sr2 2.724381 1_555
O14 P2 1.525246 1_555
O14 Sr0 2.602187 1_655
O14 Sr4 2.604014 1_655
O14 Sr1 2.724383 1_545
O15 P3 1.525252 1_555
O15 Sr1 2.602189 1_555
O15 Sr5 2.604007 1_555
O15 Sr0 2.724381 1_565
O16 P3 1.595225 1_555
O16 P7 1.610525 1_555
O17 P2 1.595216 1_555
O17 P6 1.610518 1_555
O18 P1 1.595226 1_555
O18 P5 1.610524 1_555
O19 P0 1.595214 1_555
O19 P4 1.610514 1_555
O20 P7 1.520009 1_555
O20 Sr5 2.612067 1_555
O20 Sr2 2.657608 1_555
O20 Sr7 2.715439 1_555
O21 P6 1.520006 1_555
O21 Sr4 2.612059 1_655
O21 Sr3 2.657599 1_555
O21 Sr6 2.715455 1_655
O22 P5 1.520010 1_555
O22 Sr7 2.612063 1_455
O22 Sr0 2.657612 1_555
O22 Sr5 2.715441 1_445
O23 P4 1.520008 1_555
O23 Sr6 2.612059 1_555
O23 Sr1 2.657602 1_555
O23 Sr4 2.715448 1_565
O24 P6 1.520007 1_555
O24 Sr4 2.612062 1_555
O24 Sr3 2.657598 1_555
O24 Sr6 2.715450 1_555
O25 P7 1.520008 1_555
O25 Sr5 2.612066 1_455
O25 Sr2 2.657609 1_555
O25 Sr7 2.715440 1_455
O26 P4 1.520010 1_555
O26 Sr6 2.612062 1_655
O26 Sr1 2.657602 1_555
O26 Sr4 2.715445 1_665
O27 P5 1.520009 1_555
O27 Sr7 2.612064 1_555
O27 Sr0 2.657611 1_555
O27 Sr5 2.715441 1_545
