# generated using pymatgen
data_Rb2Na3InO4
_symmetry_space_group_name_H-M   'P 1'
_cell_length_a   7.55826100
_cell_length_b   9.78400500
_cell_length_c   9.90869100
_cell_angle_alpha   90.00000000
_cell_angle_beta   90.00000000
_cell_angle_gamma   90.00000000
_symmetry_Int_Tables_number   1
_chemical_formula_structural   Rb2Na3InO4
_chemical_formula_sum   'Rb8 Na12 In4 O16'
_cell_volume   732.74832781
_cell_formula_units_Z   4
loop_
 _symmetry_equiv_pos_site_id
 _symmetry_equiv_pos_as_xyz
  1  'x, y, z'
loop_
 _atom_site_type_symbol
 _atom_site_label
 _atom_site_symmetry_multiplicity
 _atom_site_fract_x
 _atom_site_fract_y
 _atom_site_fract_z
 _atom_site_occupancy
  Rb  Rb0  1  0.00000000  0.23177300  0.25895200  1
  Rb  Rb1  1  0.00000000  0.76822700  0.74104800  1
  Rb  Rb2  1  0.50000000  0.73177300  0.24104800  1
  Rb  Rb3  1  0.50000000  0.26822700  0.75895200  1
  Rb  Rb4  1  0.74508200  0.00000000  0.50000000  1
  Rb  Rb5  1  0.75491800  0.50000000  0.00000000  1
  Rb  Rb6  1  0.25491800  0.00000000  0.50000000  1
  Rb  Rb7  1  0.24508200  0.50000000  0.00000000  1
  Na  Na0  1  0.75264200  0.48197800  0.35348100  1
  Na  Na1  1  0.75264200  0.51802300  0.64651900  1
  Na  Na2  1  0.74735800  0.98197700  0.14651900  1
  Na  Na3  1  0.74735800  0.01802200  0.85348100  1
  Na  Na4  1  0.24735800  0.51802300  0.64651900  1
  Na  Na5  1  0.24735800  0.48197800  0.35348100  1
  Na  Na6  1  0.25264200  0.01802200  0.85348100  1
  Na  Na7  1  0.25264200  0.98197700  0.14651900  1
  Na  Na8  1  0.00000000  0.23427900  0.91900500  1
  Na  Na9  1  0.00000000  0.76572100  0.08099500  1
  Na  Na10  1  0.50000000  0.73427900  0.58099500  1
  Na  Na11  1  0.50000000  0.26572100  0.41900500  1
  In  In0  1  0.50000000  0.77565200  0.87208700  1
  In  In1  1  0.50000000  0.22434800  0.12791300  1
  In  In2  1  0.00000000  0.27565200  0.62791300  1
  In  In3  1  0.00000000  0.72434800  0.37208700  1
  O  O0  1  0.50000000  0.58218100  0.77447800  1
  O  O1  1  0.50000000  0.41781900  0.22552200  1
  O  O2  1  0.00000000  0.08218100  0.72552200  1
  O  O3  1  0.00000000  0.91781900  0.27447800  1
  O  O4  1  0.76571800  0.30674800  0.51830300  1
  O  O5  1  0.76571800  0.69325200  0.48169700  1
  O  O6  1  0.73428200  0.80674800  0.98169700  1
  O  O7  1  0.73428200  0.19325200  0.01830300  1
  O  O8  1  0.23428200  0.69325200  0.48169700  1
  O  O9  1  0.23428200  0.30674800  0.51830300  1
  O  O10  1  0.26571800  0.19325200  0.01830300  1
  O  O11  1  0.26571800  0.80674800  0.98169700  1
  O  O12  1  0.00000000  0.43559600  0.77475600  1
  O  O13  1  0.00000000  0.56440400  0.22524400  1
  O  O14  1  0.50000000  0.93559600  0.72524400  1
  O  O15  1  0.50000000  0.06440400  0.27475600  1
loop_
_geom_bond_atom_site_label_1
_geom_bond_atom_site_label_2
_geom_bond_distance
_geom_bond_site_symmetry_2
Na0 O4 2.369885 1_555
Na0 O1 2.376543 1_555
Na0 O13 2.400071 1_655
Na0 O5 2.428321 1_555
Na1 O5 2.369878 1_555
Na1 O0 2.376540 1_555
Na1 O12 2.400074 1_655
Na1 O4 2.428330 1_555
Na2 O6 2.369878 1_554
Na2 O3 2.376540 1_655
Na2 O15 2.400074 1_565
Na2 O7 2.428330 1_565
Na3 O7 2.369885 1_556
Na3 O2 2.376543 1_655
Na3 O14 2.400071 1_545
Na3 O6 2.428321 1_545
Na4 O8 2.369878 1_555
Na4 O0 2.376540 1_555
Na4 O12 2.400074 1_555
Na4 O9 2.428330 1_555
Na5 O9 2.369885 1_555
Na5 O1 2.376543 1_555
Na5 O13 2.400071 1_555
Na5 O8 2.428321 1_555
Na6 O10 2.369885 1_556
Na6 O2 2.376543 1_555
Na6 O14 2.400071 1_545
Na6 O11 2.428321 1_545
Na7 O11 2.369878 1_554
Na7 O3 2.376540 1_555
Na7 O15 2.400074 1_565
Na7 O10 2.428330 1_565
Na8 O10 2.272168 1_556
Na8 O7 2.272168 1_456
Na8 O2 2.426940 1_555
Na8 O12 2.433643 1_555
Na9 O11 2.272168 1_554
Na9 O6 2.272168 1_454
Na9 O3 2.426940 1_555
Na9 O13 2.433643 1_555
Na10 O8 2.272168 1_555
Na10 O5 2.272168 1_555
Na10 O0 2.426940 1_555
Na10 O14 2.433643 1_555
Na11 O9 2.272168 1_555
Na11 O4 2.272168 1_555
Na11 O1 2.426940 1_555
Na11 O15 2.433643 1_555
In0 O6 2.099468 1_555
In0 O11 2.099468 1_555
In0 O0 2.125696 1_555
In0 O14 2.136815 1_555
In1 O10 2.099468 1_555
In1 O7 2.099468 1_555
In1 O1 2.125696 1_555
In1 O15 2.136815 1_555
In2 O4 2.099468 1_455
In2 O9 2.099468 1_555
In2 O2 2.125696 1_555
In2 O12 2.136815 1_555
In3 O8 2.099468 1_555
In3 O5 2.099468 1_455
In3 O3 2.125696 1_555
In3 O13 2.136815 1_555
O0 Rb7 3.058167 1_556
O0 Rb5 3.058167 1_556
O0 Rb3 3.075578 1_555
O1 Rb7 3.058167 1_555
O1 Rb5 3.058167 1_555
O1 Rb2 3.075578 1_555
O2 Rb6 3.058167 1_555
O2 Rb4 3.058167 1_455
O2 Rb1 3.075578 1_545
O3 Rb6 3.058167 1_565
O3 Rb4 3.058167 1_465
O3 Rb0 3.075578 1_565
O4 Rb4 3.010741 1_555
O4 Rb3 3.140302 1_555
O4 Rb0 3.205890 1_655
O5 Rb4 3.010741 1_565
O5 Rb2 3.140302 1_555
O5 Rb1 3.205890 1_655
O6 Rb5 3.010741 1_556
O6 Rb1 3.140302 1_655
O6 Rb2 3.205890 1_556
O7 Rb5 3.010741 1_555
O7 Rb0 3.140302 1_655
O7 Rb3 3.205890 1_554
O8 Rb6 3.010741 1_565
O8 Rb2 3.140302 1_555
O8 Rb1 3.205890 1_555
O9 Rb6 3.010741 1_555
O9 Rb3 3.140302 1_555
O9 Rb0 3.205890 1_555
O10 Rb7 3.010741 1_555
O10 Rb0 3.140302 1_555
O10 Rb3 3.205890 1_554
O11 Rb7 3.010741 1_556
O11 Rb1 3.140302 1_555
O11 Rb2 3.205890 1_556
O12 Rb5 2.968111 1_456
O12 Rb7 2.968111 1_556
O12 Rb1 3.271558 1_555
O13 Rb5 2.968111 1_455
O13 Rb7 2.968111 1_555
O13 Rb0 3.271558 1_555
O14 Rb4 2.968111 1_565
O14 Rb6 2.968111 1_565
O14 Rb3 3.271558 1_565
O15 Rb4 2.968111 1_555
O15 Rb6 2.968111 1_555
O15 Rb2 3.271558 1_545
