# generated using pymatgen
data_CdI2
_symmetry_space_group_name_H-M   'P 1'
_cell_length_a   4.33788869
_cell_length_b   4.33788869
_cell_length_c   96.70980400
_cell_angle_alpha   90.00000000
_cell_angle_beta   90.00000000
_cell_angle_gamma   120.00001048
_symmetry_Int_Tables_number   1
_chemical_formula_structural   CdI2
_chemical_formula_sum   'Cd12 I24'
_cell_volume   1576.00610701
_cell_formula_units_Z   12
loop_
 _symmetry_equiv_pos_site_id
 _symmetry_equiv_pos_as_xyz
  1  'x, y, z'
loop_
 _atom_site_type_symbol
 _atom_site_label
 _atom_site_symmetry_multiplicity
 _atom_site_fract_x
 _atom_site_fract_y
 _atom_site_fract_z
 _atom_site_occupancy
  Cd  Cd0  1  0.00000000  0.00000000  0.27011700  1
  Cd  Cd1  1  0.00000000  0.00000000  0.02134200  1
  Cd  Cd2  1  0.33333300  0.66666700  0.10335700  1
  Cd  Cd3  1  0.00000000  0.00000000  0.35514200  1
  Cd  Cd4  1  0.33333300  0.66666700  0.52043000  1
  Cd  Cd5  1  0.33333300  0.66666700  0.77102500  1
  Cd  Cd6  1  0.00000000  0.00000000  0.18755900  1
  Cd  Cd7  1  0.00000000  0.00000000  0.60383700  1
  Cd  Cd8  1  0.33333300  0.66666700  0.85452000  1
  Cd  Cd9  1  0.00000000  0.00000000  0.68839300  1
  Cd  Cd10  1  0.33333300  0.66666700  0.93660000  1
  Cd  Cd11  1  0.33333300  0.66666700  0.43768900  1
  I  I0  1  0.33333300  0.66666700  0.16978000  1
  I  I1  1  0.00000000  0.00000000  0.83673700  1
  I  I2  1  0.66666700  0.33333300  0.78879900  1
  I  I3  1  0.00000000  0.00000000  0.08558900  1
  I  I4  1  0.66666700  0.33333300  0.45546400  1
  I  I5  1  0.66666700  0.33333300  0.20533100  1
  I  I6  1  0.66666700  0.33333300  0.95435900  1
  I  I7  1  0.33333300  0.66666700  0.67061500  1
  I  I8  1  0.00000000  0.00000000  0.75324800  1
  I  I9  1  0.33333300  0.66666700  0.58606100  1
  I  I10  1  0.66666700  0.33333300  0.53821100  1
  I  I11  1  0.66666700  0.33333300  0.12111900  1
  I  I12  1  0.66666700  0.33333300  0.03909900  1
  I  I13  1  0.33333300  0.66666700  0.00358300  1
  I  I14  1  0.66666700  0.33333300  0.28789400  1
  I  I15  1  0.66666700  0.33333300  0.37291100  1
  I  I16  1  0.33333300  0.66666700  0.33738200  1
  I  I17  1  0.66666700  0.33333300  0.62161600  1
  I  I18  1  0.00000000  0.00000000  0.41991300  1
  I  I19  1  0.66666700  0.33333300  0.70616100  1
  I  I20  1  0.33333300  0.66666700  0.25234500  1
  I  I21  1  0.00000000  0.00000000  0.91881900  1
  I  I22  1  0.00000000  0.00000000  0.50266200  1
  I  I23  1  0.66666700  0.33333300  0.87229300  1
loop_
_geom_bond_atom_site_label_1
_geom_bond_atom_site_label_2
_geom_bond_distance
_geom_bond_site_symmetry_2
Cd0 I20 3.037505 1_545
Cd0 I20 3.037508 1_555
Cd0 I20 3.037508 1_445
Cd0 I14 3.037778 1_455
Cd0 I14 3.037781 1_445
Cd0 I14 3.037781 1_555
Cd1 I12 3.036684 1_455
Cd1 I12 3.036687 1_445
Cd1 I12 3.036687 1_555
Cd1 I13 3.036794 1_545
Cd1 I13 3.036796 1_555
Cd1 I13 3.036796 1_445
Cd2 I11 3.036957 1_455
Cd2 I11 3.036957 1_565
Cd2 I11 3.036964 1_555
Cd2 I3 3.037286 1_565
Cd2 I3 3.037289 1_665
Cd2 I3 3.037289 1_555
Cd3 I16 3.036848 1_545
Cd3 I16 3.036851 1_555
Cd3 I16 3.036851 1_445
Cd3 I15 3.037341 1_455
Cd3 I15 3.037343 1_555
Cd3 I15 3.037343 1_445
Cd4 I22 3.037286 1_565
Cd4 I22 3.037289 1_665
Cd4 I22 3.037289 1_555
Cd4 I10 3.037997 1_455
Cd4 I10 3.037997 1_565
Cd4 I10 3.038004 1_555
Cd5 I2 3.037614 1_455
Cd5 I2 3.037614 1_565
Cd5 I2 3.037620 1_555
Cd5 I8 3.037778 1_565
Cd5 I8 3.037781 1_555
Cd5 I8 3.037781 1_665
Cd6 I5 3.037505 1_455
Cd6 I5 3.037508 1_445
Cd6 I5 3.037508 1_555
Cd6 I0 3.037888 1_545
Cd6 I0 3.037891 1_445
Cd6 I0 3.037891 1_555
Cd7 I9 3.037724 1_545
Cd7 I9 3.037726 1_445
Cd7 I9 3.037726 1_555
Cd7 I17 3.037888 1_455
Cd7 I17 3.037891 1_445
Cd7 I17 3.037891 1_555
Cd8 I23 3.037559 1_455
Cd8 I23 3.037559 1_565
Cd8 I23 3.037566 1_555
Cd8 I1 3.038107 1_565
Cd8 I1 3.038110 1_555
Cd8 I1 3.038110 1_665
Cd9 I19 3.037286 1_455
Cd9 I19 3.037289 1_445
Cd9 I19 3.037289 1_555
Cd9 I7 3.037833 1_545
Cd9 I7 3.037836 1_445
Cd9 I7 3.037836 1_555
Cd10 I6 3.036793 1_455
Cd10 I6 3.036793 1_565
Cd10 I6 3.036800 1_555
Cd10 I21 3.037997 1_565
Cd10 I21 3.038000 1_665
Cd10 I21 3.038000 1_555
Cd11 I4 3.037669 1_455
Cd11 I4 3.037669 1_565
Cd11 I4 3.037675 1_555
Cd11 I18 3.037724 1_565
Cd11 I18 3.037726 1_665
Cd11 I18 3.037726 1_555
