# generated using pymatgen
data_Tm4Mn4Sn7
_symmetry_space_group_name_H-M   'P 1'
_cell_length_a   10.97189887
_cell_length_b   10.97189887
_cell_length_c   10.97189887
_cell_angle_alpha   94.02484603
_cell_angle_beta   94.02484603
_cell_angle_gamma   149.27415500
_symmetry_Int_Tables_number   1
_chemical_formula_structural   Tm4Mn4Sn7
_chemical_formula_sum   'Tm8 Mn8 Sn14'
_cell_volume   650.73585568
_cell_formula_units_Z   2
loop_
 _symmetry_equiv_pos_site_id
 _symmetry_equiv_pos_as_xyz
  1  'x, y, z'
loop_
 _atom_site_type_symbol
 _atom_site_label
 _atom_site_symmetry_multiplicity
 _atom_site_fract_x
 _atom_site_fract_y
 _atom_site_fract_z
 _atom_site_occupancy
  Tm  Tm0  1  0.30656100  0.50000000  0.80656100  1
  Tm  Tm1  1  0.86087300  0.13912700  0.00000000  1
  Tm  Tm2  1  0.13912700  0.86087300  0.00000000  1
  Tm  Tm3  1  0.69343900  0.50000000  0.19343900  1
  Tm  Tm4  1  0.50000000  0.69343900  0.19343900  1
  Tm  Tm5  1  0.13912700  0.13912700  0.27825500  1
  Tm  Tm6  1  0.86087300  0.86087300  0.72174500  1
  Tm  Tm7  1  0.50000000  0.30656100  0.80656100  1
  Mn  Mn0  1  0.89983700  0.39983700  0.79967500  1
  Mn  Mn1  1  0.89983700  0.10016300  0.50000000  1
  Mn  Mn2  1  0.10016300  0.60016300  0.20032500  1
  Mn  Mn3  1  0.39983700  0.89983700  0.79967500  1
  Mn  Mn4  1  0.39983700  0.60016300  0.50000000  1
  Mn  Mn5  1  0.60016300  0.39983700  0.50000000  1
  Mn  Mn6  1  0.10016300  0.89983700  0.50000000  1
  Mn  Mn7  1  0.60016300  0.10016300  0.20032500  1
  Sn  Sn0  1  0.70357000  0.29643000  0.00000000  1
  Sn  Sn1  1  0.28719700  0.00000000  0.28719700  1
  Sn  Sn2  1  0.75046800  0.75046800  0.00000000  1
  Sn  Sn3  1  0.00000000  0.28719700  0.28719700  1
  Sn  Sn4  1  0.29643000  0.70357000  0.00000000  1
  Sn  Sn5  1  0.29643000  0.29643000  0.59286000  1
  Sn  Sn6  1  0.50000000  0.09705300  0.59705300  1
  Sn  Sn7  1  0.09705300  0.50000000  0.59705300  1
  Sn  Sn8  1  0.00000000  0.71280300  0.71280300  1
  Sn  Sn9  1  0.24953200  0.24953200  0.00000000  1
  Sn  Sn10  1  0.90294700  0.50000000  0.40294700  1
  Sn  Sn11  1  0.71280300  0.00000000  0.71280300  1
  Sn  Sn12  1  0.50000000  0.90294700  0.40294700  1
  Sn  Sn13  1  0.70357000  0.70357000  0.40714000  1
loop_
_geom_bond_atom_site_label_1
_geom_bond_atom_site_label_2
_geom_bond_distance
_geom_bond_site_symmetry_2
Mn0 Sn0 2.751265 1_556
Mn0 Sn4 2.751268 1_656
Mn0 Sn6 2.786071 1_555
Mn0 Sn7 2.786074 1_655
Mn0 Sn11 2.833021 1_555
Mn0 Sn8 2.833024 1_655
Mn1 Sn5 2.751274 1_655
Mn1 Sn13 2.751274 1_545
Mn1 Sn12 2.786064 1_545
Mn1 Sn7 2.786064 1_655
Mn1 Sn11 2.833019 1_555
Mn1 Sn3 2.833019 1_655
Mn2 Sn4 2.751265 1_555
Mn2 Sn0 2.751268 1_455
Mn2 Sn12 2.786071 1_555
Mn2 Sn10 2.786074 1_455
Mn2 Sn1 2.833021 1_565
Mn2 Sn3 2.833024 1_555
Mn3 Sn4 2.751265 1_556
Mn3 Sn0 2.751268 1_566
Mn3 Sn7 2.786071 1_555
Mn3 Sn6 2.786074 1_565
Mn3 Sn8 2.833021 1_555
Mn3 Sn11 2.833024 1_565
Mn4 Sn13 2.751274 1_555
Mn4 Sn5 2.751274 1_555
Mn4 Sn12 2.786064 1_555
Mn4 Sn7 2.786064 1_555
Mn4 Sn11 2.833019 1_565
Mn4 Sn3 2.833019 1_555
Mn5 Sn13 2.751274 1_555
Mn5 Sn5 2.751274 1_555
Mn5 Sn10 2.786064 1_555
Mn5 Sn6 2.786064 1_555
Mn5 Sn8 2.833019 1_655
Mn5 Sn1 2.833019 1_555
Mn6 Sn5 2.751274 1_565
Mn6 Sn13 2.751274 1_455
Mn6 Sn10 2.786064 1_455
Mn6 Sn6 2.786064 1_565
Mn6 Sn8 2.833019 1_555
Mn6 Sn1 2.833019 1_565
Mn7 Sn0 2.751265 1_555
Mn7 Sn4 2.751268 1_545
Mn7 Sn10 2.786071 1_555
Mn7 Sn12 2.786074 1_545
Mn7 Sn3 2.833021 1_655
Mn7 Sn1 2.833024 1_555
Sn0 Tm7 3.049615 1_554
Sn0 Tm3 3.049615 1_555
Sn0 Tm2 3.210752 1_655
Sn0 Tm2 3.210752 1_545
Sn0 Tm1 3.328481 1_555
Sn1 Tm5 3.039971 1_555
Sn1 Tm2 3.039971 1_545
Sn1 Tm3 3.227607 1_555
Sn1 Tm3 3.227607 1_445
Sn2 Sn9 2.901367 1_665
Sn2 Sn9 2.912251 1_555
Sn2 Tm3 3.239918 1_555
Sn2 Tm4 3.239918 1_555
Sn2 Tm7 3.239918 1_554
Sn2 Tm0 3.239918 1_554
Sn2 Tm2 3.281910 1_655
Sn2 Tm1 3.281910 1_565
Sn2 Tm5 3.281918 1_665
Sn2 Tm6 3.281920 1_554
Sn3 Tm5 3.039971 1_555
Sn3 Tm1 3.039971 1_455
Sn3 Tm4 3.227607 1_555
Sn3 Tm4 3.227607 1_445
Sn4 Tm0 3.049615 1_554
Sn4 Tm4 3.049615 1_555
Sn4 Tm1 3.210752 1_455
Sn4 Tm1 3.210752 1_565
Sn4 Tm2 3.328481 1_555
Sn5 Tm7 3.049615 1_555
Sn5 Tm0 3.049615 1_555
Sn5 Tm6 3.210744 1_445
Sn5 Tm6 3.210750 1_555
Sn5 Tm5 3.328471 1_555
Sn6 Tm7 3.134691 1_555
Sn7 Tm0 3.134691 1_555
Sn8 Tm6 3.039971 1_455
Sn8 Tm2 3.039971 1_556
Sn8 Tm7 3.227607 1_565
Sn8 Tm7 3.227607 1_455
Sn9 Tm4 3.239918 1_555
Sn9 Tm3 3.239918 1_555
Sn9 Tm0 3.239918 1_554
Sn9 Tm7 3.239918 1_554
Sn9 Tm1 3.281910 1_455
Sn9 Tm2 3.281910 1_545
Sn9 Tm6 3.281918 1_444
Sn9 Tm5 3.281920 1_555
Sn10 Sn7 2.904244 1_655
Sn10 Tm3 3.134691 1_555
Sn11 Tm6 3.039971 1_545
Sn11 Tm1 3.039971 1_556
Sn11 Tm0 3.227607 1_655
Sn11 Tm0 3.227607 1_545
Sn12 Sn6 2.904244 1_565
Sn12 Tm4 3.134691 1_555
Sn13 Tm4 3.049615 1_555
Sn13 Tm3 3.049615 1_555
Sn13 Tm5 3.210744 1_665
Sn13 Tm5 3.210750 1_555
Sn13 Tm6 3.328471 1_555
