# generated using pymatgen
data_LiScGeO4
_symmetry_space_group_name_H-M   'P 1'
_cell_length_a   5.02410600
_cell_length_b   6.05707800
_cell_length_c   10.77110800
_cell_angle_alpha   90.00000000
_cell_angle_beta   90.00000000
_cell_angle_gamma   90.00000000
_symmetry_Int_Tables_number   1
_chemical_formula_structural   LiScGeO4
_chemical_formula_sum   'Li4 Sc4 Ge4 O16'
_cell_volume   327.77991670
_cell_formula_units_Z   4
loop_
 _symmetry_equiv_pos_site_id
 _symmetry_equiv_pos_as_xyz
  1  'x, y, z'
loop_
 _atom_site_type_symbol
 _atom_site_label
 _atom_site_symmetry_multiplicity
 _atom_site_fract_x
 _atom_site_fract_y
 _atom_site_fract_z
 _atom_site_occupancy
  Li  Li0  1  0.00000000  0.00000000  0.00000000  1
  Li  Li1  1  0.50000000  0.00000000  0.50000000  1
  Li  Li2  1  0.00000000  0.50000000  0.00000000  1
  Li  Li3  1  0.50000000  0.50000000  0.50000000  1
  Sc  Sc0  1  0.99624100  0.75000000  0.27184500  1
  Sc  Sc1  1  0.49624100  0.25000000  0.22815500  1
  Sc  Sc2  1  0.00375900  0.25000000  0.72815500  1
  Sc  Sc3  1  0.50375900  0.75000000  0.77184500  1
  Ge  Ge0  1  0.55030700  0.75000000  0.09006800  1
  Ge  Ge1  1  0.05030700  0.25000000  0.40993200  1
  Ge  Ge2  1  0.44969300  0.25000000  0.90993200  1
  Ge  Ge3  1  0.94969300  0.75000000  0.59006800  1
  O  O0  1  0.20362900  0.75000000  0.09715000  1
  O  O1  1  0.70362900  0.25000000  0.40285000  1
  O  O2  1  0.79637100  0.25000000  0.90285000  1
  O  O3  1  0.29637100  0.75000000  0.59715000  1
  O  O4  1  0.80047400  0.75000000  0.44187900  1
  O  O5  1  0.30047400  0.25000000  0.05812100  1
  O  O6  1  0.19952600  0.25000000  0.55812100  1
  O  O7  1  0.69952600  0.75000000  0.94187900  1
  O  O8  1  0.71493800  0.97023400  0.17312100  1
  O  O9  1  0.21493800  0.02976600  0.32687900  1
  O  O10  1  0.28506200  0.47023400  0.82687900  1
  O  O11  1  0.78506200  0.52976600  0.67312100  1
  O  O12  1  0.28506200  0.02976600  0.82687900  1
  O  O13  1  0.78506200  0.97023400  0.67312100  1
  O  O14  1  0.71493800  0.52976600  0.17312100  1
  O  O15  1  0.21493800  0.47023400  0.32687900  1
loop_
_geom_bond_atom_site_label_1
_geom_bond_atom_site_label_2
_geom_bond_distance
_geom_bond_site_symmetry_2
Li0 O0 2.105856 1_545
Li0 O2 2.105856 1_454
Li0 O5 2.227971 1_555
Li0 O7 2.227971 1_444
Li0 O8 2.358130 1_445
Li0 O12 2.358130 1_554
Li1 O1 2.105856 1_555
Li1 O3 2.105856 1_545
Li1 O4 2.227971 1_545
Li1 O6 2.227971 1_555
Li1 O13 2.358130 1_545
Li1 O9 2.358130 1_555
Li2 O0 2.105856 1_555
Li2 O2 2.105856 1_454
Li2 O5 2.227971 1_555
Li2 O7 2.227971 1_454
Li2 O14 2.358130 1_455
Li2 O10 2.358130 1_554
Li3 O1 2.105856 1_555
Li3 O3 2.105856 1_555
Li3 O4 2.227971 1_555
Li3 O6 2.227971 1_555
Li3 O11 2.358130 1_555
Li3 O15 2.358130 1_555
Ge0 O0 1.743417 1_555
Ge0 O7 1.763452 1_554
Ge0 O8 1.806622 1_555
Ge0 O14 1.806622 1_555
Ge1 O1 1.743417 1_455
Ge1 O6 1.763452 1_555
Ge1 O15 1.806622 1_555
Ge1 O9 1.806622 1_555
Ge2 O2 1.743417 1_555
Ge2 O5 1.763452 1_556
Ge2 O10 1.806622 1_555
Ge2 O12 1.806622 1_555
Ge3 O3 1.743417 1_655
Ge3 O4 1.763452 1_555
Ge3 O13 1.806622 1_555
Ge3 O11 1.806622 1_555
O0 Sc0 2.150878 1_455
O1 Sc1 2.150878 1_555
O2 Sc2 2.150878 1_655
O3 Sc3 2.150878 1_555
O4 Sc0 2.078847 1_555
O5 Sc1 2.078847 1_555
O6 Sc2 2.078847 1_555
O7 Sc3 2.078847 1_555
O8 Sc1 2.104804 1_565
O8 Sc0 2.215320 1_555
O9 Sc0 2.104804 1_445
O9 Sc1 2.215320 1_555
O10 Sc3 2.104804 1_555
O10 Sc2 2.215320 1_555
O11 Sc2 2.104804 1_655
O11 Sc3 2.215320 1_555
O12 Sc3 2.104804 1_545
O12 Sc2 2.215320 1_555
O13 Sc2 2.104804 1_665
O13 Sc3 2.215320 1_555
O14 Sc1 2.104804 1_555
O14 Sc0 2.215320 1_555
O15 Sc0 2.104804 1_455
O15 Sc1 2.215320 1_555
