# generated using pymatgen
data_Er(SiRh)2
_symmetry_space_group_name_H-M   'P 1'
_cell_length_a   4.02274977
_cell_length_b   4.02274965
_cell_length_c   5.71030777
_cell_angle_alpha   110.62507437
_cell_angle_beta   110.62508355
_cell_angle_gamma   90.04461290
_symmetry_Int_Tables_number   1
_chemical_formula_structural   Er(SiRh)2
_chemical_formula_sum   'Er1 Si2 Rh2'
_cell_volume   80.11460248
_cell_formula_units_Z   1
loop_
 _symmetry_equiv_pos_site_id
 _symmetry_equiv_pos_as_xyz
  1  'x, y, z'
loop_
 _atom_site_type_symbol
 _atom_site_label
 _atom_site_symmetry_multiplicity
 _atom_site_fract_x
 _atom_site_fract_y
 _atom_site_fract_z
 _atom_site_occupancy
  Er  Er0  1  0.00000015  -0.00000014  0.00000004  1
  Si  Si0  1  0.62131789  0.62131790  0.24265041  1
  Si  Si1  1  0.37868204  0.37868210  0.75734955  1
  Rh  Rh0  1  0.24998757  0.75001240  0.49999997  1
  Rh  Rh1  1  0.75001236  0.24998774  0.50000003  1
loop_
_geom_bond_atom_site_label_1
_geom_bond_atom_site_label_2
_geom_bond_distance
_geom_bond_site_symmetry_2
Er0 Si0 3.086192 1_555
Er0 Si1 3.086192 1_444
Er0 Si0 3.087315 1_445
Er0 Si1 3.087315 1_554
Er0 Si0 3.088793 1_545
Er0 Si1 3.088793 1_544
Er0 Si0 3.088795 1_455
Er0 Si1 3.088795 1_454
Er0 Rh1 3.189018 1_555
Er0 Rh1 3.189018 1_444
Er0 Rh0 3.189018 1_555
Er0 Rh0 3.189019 1_444
Er0 Rh0 3.189998 1_545
Er0 Rh0 3.189999 1_544
Er0 Rh1 3.189999 1_455
Er0 Rh1 3.189999 1_454
Si0 Si1 2.402575 1_554
Rh0 Si0 2.380558 1_455
Rh0 Si1 2.380558 1_565
Rh0 Si1 2.381312 1_555
Rh0 Si0 2.381313 1_555
Rh1 Si1 2.380558 1_655
Rh1 Si0 2.380559 1_545
Rh1 Si0 2.381312 1_555
Rh1 Si1 2.381312 1_555
