# generated using pymatgen
data_MnP2O7
_symmetry_space_group_name_H-M   'P 1'
_cell_length_a   6.26599100
_cell_length_b   9.66407840
_cell_length_c   10.63126966
_cell_angle_alpha   65.09296584
_cell_angle_beta   80.22776081
_cell_angle_gamma   73.64580817
_symmetry_Int_Tables_number   1
_chemical_formula_structural   MnP2O7
_chemical_formula_sum   'Mn4 P8 O28'
_cell_volume   559.30724414
_cell_formula_units_Z   4
loop_
 _symmetry_equiv_pos_site_id
 _symmetry_equiv_pos_as_xyz
  1  'x, y, z'
loop_
 _atom_site_type_symbol
 _atom_site_label
 _atom_site_symmetry_multiplicity
 _atom_site_fract_x
 _atom_site_fract_y
 _atom_site_fract_z
 _atom_site_occupancy
  Mn  Mn0  1  0.28580000  0.88533100  0.22815700  1
  Mn  Mn1  1  0.37777300  0.24830500  0.25089400  1
  Mn  Mn2  1  0.62222700  0.75169500  0.74910600  1
  Mn  Mn3  1  0.71420000  0.11466900  0.77184300  1
  P  P0  1  0.10089400  0.85912800  0.70317900  1
  P  P1  1  0.30294700  0.21576900  0.97105900  1
  P  P2  1  0.08306500  0.61839200  0.20629500  1
  P  P3  1  0.41094200  0.84246900  0.46616700  1
  P  P4  1  0.58905800  0.15753100  0.53383300  1
  P  P5  1  0.91693500  0.38160800  0.79370500  1
  P  P6  1  0.69705300  0.78423100  0.02894100  1
  P  P7  1  0.89910600  0.14087200  0.29682100  1
  O  O0  1  0.03659600  0.45939700  0.65717600  1
  O  O1  1  0.07124900  0.34213000  0.92428200  1
  O  O2  1  0.00038100  0.01590300  0.71872100  1
  O  O3  1  0.06213200  0.24529800  0.27821400  1
  O  O4  1  0.25816600  0.05087300  0.04638000  1
  O  O5  1  0.19516200  0.91420400  0.54242400  1
  O  O6  1  0.35007200  0.72798500  0.41892300  1
  O  O7  1  0.43779000  0.23162500  0.83223400  1
  O  O8  1  0.30552000  0.76103000  0.78746300  1
  O  O9  1  0.12609700  0.77831800  0.17607000  1
  O  O10  1  0.43297900  0.97889100  0.31893900  1
  O  O11  1  0.40029200  0.26817800  0.06046700  1
  O  O12  1  0.28747000  0.49546100  0.19234400  1
  O  O13  1  0.39278700  0.21616500  0.44898600  1
  O  O14  1  0.60721300  0.78383500  0.55101400  1
  O  O15  1  0.71253000  0.50453900  0.80765600  1
  O  O16  1  0.59970800  0.73182200  0.93953300  1
  O  O17  1  0.56702100  0.02110900  0.68106100  1
  O  O18  1  0.87390300  0.22168200  0.82393000  1
  O  O19  1  0.69448000  0.23897000  0.21253700  1
  O  O20  1  0.56221000  0.76837500  0.16776600  1
  O  O21  1  0.64992800  0.27201500  0.58107700  1
  O  O22  1  0.80483800  0.08579600  0.45757600  1
  O  O23  1  0.74183400  0.94912700  0.95362000  1
  O  O24  1  0.93786800  0.75470200  0.72178600  1
  O  O25  1  0.99961900  0.98409700  0.28127900  1
  O  O26  1  0.92875100  0.65787000  0.07571800  1
  O  O27  1  0.96340400  0.54060300  0.34282400  1
loop_
_geom_bond_atom_site_label_1
_geom_bond_atom_site_label_2
_geom_bond_distance
_geom_bond_site_symmetry_2
Mn0 O25 1.895245 1_455
Mn0 O9 1.905478 1_555
Mn0 O4 1.917684 1_565
Mn0 O20 1.954688 1_555
Mn0 O6 1.980502 1_555
Mn0 O10 2.026385 1_555
Mn1 O11 1.935488 1_555
Mn1 O19 1.941149 1_555
Mn1 O3 1.956314 1_555
Mn1 O13 2.010042 1_555
Mn1 O12 2.125767 1_555
Mn1 O10 2.326630 1_545
Mn2 O16 1.935488 1_555
Mn2 O8 1.941149 1_555
Mn2 O24 1.956314 1_555
Mn2 O14 2.010042 1_555
Mn2 O15 2.125767 1_555
Mn2 O17 2.326630 1_565
Mn3 O2 1.895245 1_655
Mn3 O18 1.905478 1_555
Mn3 O23 1.917684 1_545
Mn3 O7 1.954688 1_555
Mn3 O21 1.980502 1_555
Mn3 O17 2.026385 1_555
O0 P5 1.504335 1_455
O1 P1 1.606701 1_555
O1 P5 1.676133 1_455
O2 P0 1.535453 1_545
O3 P7 1.563612 1_455
O4 P1 1.536270 1_554
O5 P3 1.593547 1_555
O5 P0 1.619001 1_555
O6 P3 1.546789 1_555
O7 P1 1.541014 1_555
O8 P0 1.528273 1_555
O9 P2 1.533496 1_555
O10 P3 1.580556 1_555
O11 P1 1.519330 1_554
O12 P2 1.516859 1_555
O13 P4 1.483526 1_555
O14 P3 1.483526 1_555
O15 P5 1.516859 1_555
O16 P6 1.519330 1_556
O17 P4 1.580556 1_555
O18 P5 1.533496 1_555
O19 P7 1.528273 1_555
O20 P6 1.541014 1_555
O21 P4 1.546789 1_555
O22 P4 1.593547 1_555
O22 P7 1.619001 1_555
O23 P6 1.536270 1_556
O24 P0 1.563612 1_655
O25 P7 1.535453 1_565
O26 P6 1.606701 1_555
O26 P2 1.676133 1_655
O27 P2 1.504335 1_655
