# generated using pymatgen
data_Pr5Si4
_symmetry_space_group_name_H-M   'P 1'
_cell_length_a   7.95961423
_cell_length_b   7.95960078
_cell_length_c   15.35796249
_cell_angle_alpha   89.99999158
_cell_angle_beta   90.00009798
_cell_angle_gamma   90.00077569
_symmetry_Int_Tables_number   1
_chemical_formula_structural   Pr5Si4
_chemical_formula_sum   'Pr20 Si16'
_cell_volume   973.00911388
_cell_formula_units_Z   4
loop_
 _symmetry_equiv_pos_site_id
 _symmetry_equiv_pos_as_xyz
  1  'x, y, z'
loop_
 _atom_site_type_symbol
 _atom_site_label
 _atom_site_symmetry_multiplicity
 _atom_site_fract_x
 _atom_site_fract_y
 _atom_site_fract_z
 _atom_site_occupancy
  Pr  Pr0  1  0.30917690  0.30917324  0.00000500  1
  Pr  Pr1  1  0.19081960  0.80919350  0.24999523  1
  Pr  Pr2  1  0.80918650  0.19081429  0.75000679  1
  Pr  Pr3  1  0.69081834  0.69082491  0.49999563  1
  Pr  Pr4  1  0.37827517  0.01041079  0.44834079  1
  Pr  Pr5  1  0.48958773  0.87827705  0.69834834  1
  Pr  Pr6  1  0.51040486  0.12172613  0.19834682  1
  Pr  Pr7  1  0.87827618  0.48959043  0.30164647  1
  Pr  Pr8  1  0.12172898  0.51040616  0.80165745  1
  Pr  Pr9  1  0.62172065  0.98959312  0.94835512  1
  Pr  Pr10  1  0.01041054  0.37827555  0.55164668  1
  Pr  Pr11  1  0.98959266  0.62172650  0.05165705  1
  Pr  Pr12  1  0.12724240  0.98047033  0.87468912  1
  Pr  Pr13  1  0.51952697  0.62724058  0.12468825  1
  Pr  Pr14  1  0.48047188  0.37275251  0.62468037  1
  Pr  Pr15  1  0.62724260  0.51952358  0.87532590  1
  Pr  Pr16  1  0.37275693  0.48046655  0.37530480  1
  Pr  Pr17  1  0.87275891  0.01953570  0.37466663  1
  Pr  Pr18  1  0.98046960  0.12723973  0.12532659  1
  Pr  Pr19  1  0.01953564  0.87275999  0.62531751  1
  Si  Si0  1  0.19760529  0.16884363  0.70235683  1
  Si  Si1  1  0.33116003  0.69759393  0.95236129  1
  Si  Si2  1  0.66883789  0.30240767  0.45235664  1
  Si  Si3  1  0.69758857  0.33115629  0.04764064  1
  Si  Si4  1  0.30240498  0.66884202  0.54764182  1
  Si  Si5  1  0.80239886  0.83116015  0.20235872  1
  Si  Si6  1  0.16884293  0.19759642  0.29763847  1
  Si  Si7  1  0.83115557  0.80239455  0.79764544  1
  Si  Si8  1  0.28891936  0.92199474  0.05867999  1
  Si  Si9  1  0.57800553  0.78891745  0.30867699  1
  Si  Si10  1  0.42199245  0.21108253  0.80867910  1
  Si  Si11  1  0.78891612  0.57800461  0.69132418  1
  Si  Si12  1  0.21108672  0.42199160  0.19132110  1
  Si  Si13  1  0.71107841  0.07801294  0.55867778  1
  Si  Si14  1  0.92198890  0.28891655  0.94132399  1
  Si  Si15  1  0.07801436  0.71108329  0.44132047  1
loop_
_geom_bond_atom_site_label_1
_geom_bond_atom_site_label_2
_geom_bond_distance
_geom_bond_site_symmetry_2
Pr0 Si12 3.170042 1_555
Pr0 Si10 3.170177 1_554
Pr0 Si3 3.181799 1_555
Pr0 Si1 3.181894 1_554
Pr0 Si8 3.214875 1_545
Pr0 Si14 3.214977 1_454
Pr1 Si8 3.170004 1_555
Pr1 Si15 3.170176 1_555
Pr1 Si6 3.181757 1_565
Pr1 Si5 3.181870 1_455
Pr1 Si9 3.214976 1_555
Pr1 Si12 3.215059 1_555
Pr2 Si14 3.170037 1_555
Pr2 Si13 3.170214 1_555
Pr2 Si7 3.181867 1_545
Pr2 Si0 3.181907 1_655
Pr2 Si10 3.214998 1_555
Pr2 Si11 3.215008 1_555
Pr3 Si9 3.170068 1_555
Pr3 Si11 3.170236 1_555
Pr3 Si2 3.181849 1_555
Pr3 Si4 3.181852 1_555
Pr3 Si13 3.214980 1_565
Pr3 Si15 3.215017 1_655
Pr4 Si4 3.175227 1_545
Pr4 Si13 3.190315 1_555
Pr4 Si9 3.199447 1_545
Pr4 Si6 3.218017 1_555
Pr4 Si2 3.279383 1_555
Pr4 Si15 3.376361 1_545
Pr5 Si7 3.175226 1_555
Pr5 Si10 3.190282 1_565
Pr5 Si13 3.199503 1_565
Pr5 Si4 3.218043 1_555
Pr5 Si0 3.279366 1_565
Pr5 Si11 3.376480 1_555
Pr6 Si6 3.175132 1_555
Pr6 Si9 3.190304 1_545
Pr6 Si8 3.199420 1_545
Pr6 Si3 3.218026 1_555
Pr6 Si5 3.279429 1_545
Pr6 Si12 3.376383 1_555
Pr7 Si5 3.175160 1_555
Pr7 Si12 3.190281 1_655
Pr7 Si15 3.199553 1_655
Pr7 Si2 3.218101 1_555
Pr7 Si6 3.279432 1_655
Pr7 Si9 3.376465 1_555
Pr8 Si0 3.175206 1_555
Pr8 Si11 3.190355 1_455
Pr8 Si14 3.199473 1_455
Pr8 Si1 3.218016 1_555
Pr8 Si7 3.279439 1_455
Pr8 Si10 3.376401 1_555
Pr9 Si3 3.175071 1_566
Pr9 Si8 3.190203 1_556
Pr9 Si10 3.199543 1_565
Pr9 Si7 3.218161 1_555
Pr9 Si1 3.279382 1_555
Pr9 Si14 3.376386 1_565
Pr10 Si2 3.175171 1_455
Pr10 Si15 3.190258 1_555
Pr10 Si11 3.199588 1_455
Pr10 Si0 3.218135 1_555
Pr10 Si4 3.279388 1_555
Pr10 Si13 3.376403 1_455
Pr11 Si1 3.175180 1_654
Pr11 Si14 3.190328 1_554
Pr11 Si12 3.199466 1_655
Pr11 Si5 3.218049 1_555
Pr11 Si3 3.279466 1_555
Pr11 Si8 3.376400 1_655
Pr12 Si7 2.993862 1_455
Pr12 Si1 3.021120 1_555
Pr12 Si0 3.093001 1_565
Pr12 Si14 3.121550 1_465
Pr12 Si8 3.139656 1_556
Pr12 Si10 3.146612 1_565
Pr13 Si3 2.993847 1_555
Pr13 Si5 3.021060 1_555
Pr13 Si1 3.092898 1_554
Pr13 Si12 3.121451 1_555
Pr13 Si9 3.139625 1_555
Pr13 Si8 3.146640 1_555
Pr14 Si4 2.993843 1_555
Pr14 Si0 3.021022 1_555
Pr14 Si2 3.092845 1_555
Pr14 Si11 3.121541 1_555
Pr14 Si10 3.139743 1_555
Pr14 Si13 3.146523 1_555
Pr15 Si1 2.993798 1_555
Pr15 Si7 3.021088 1_555
Pr15 Si3 3.092729 1_556
Pr15 Si10 3.121527 1_555
Pr15 Si11 3.139800 1_555
Pr15 Si14 3.146541 1_555
Pr16 Si2 2.993841 1_555
Pr16 Si6 3.021000 1_555
Pr16 Si4 3.093064 1_555
Pr16 Si9 3.121488 1_555
Pr16 Si12 3.139529 1_555
Pr16 Si15 3.146654 1_555
Pr17 Si6 2.993696 1_655
Pr17 Si2 3.021219 1_555
Pr17 Si5 3.092684 1_545
Pr17 Si15 3.121690 1_645
Pr17 Si13 3.139953 1_555
Pr17 Si9 3.146557 1_545
Pr18 Si5 2.993728 1_545
Pr18 Si3 3.021228 1_555
Pr18 Si6 3.092722 1_655
Pr18 Si8 3.121598 1_645
Pr18 Si14 3.139824 1_554
Pr18 Si12 3.146566 1_655
Pr19 Si0 2.993791 1_565
Pr19 Si4 3.021105 1_555
Pr19 Si7 3.092976 1_455
Pr19 Si13 3.121640 1_465
Pr19 Si15 3.139746 1_555
Pr19 Si11 3.146660 1_455
Si0 Si10 2.443209 1_555
Si1 Si8 2.443261 1_556
Si5 Si9 2.443212 1_555
Si11 Si7 2.443215 1_555
Si12 Si6 2.443211 1_555
Si13 Si2 2.443249 1_555
Si14 Si3 2.443240 1_556
Si15 Si4 2.443229 1_555
