# generated using pymatgen
data_KUCrO6
_symmetry_space_group_name_H-M   'P 1'
_cell_length_a   8.41684800
_cell_length_b   6.85106100
_cell_length_c   10.54754872
_cell_angle_alpha   76.30877181
_cell_angle_beta   90.00000000
_cell_angle_gamma   90.00000000
_symmetry_Int_Tables_number   1
_chemical_formula_structural   KUCrO6
_chemical_formula_sum   'K4 U4 Cr4 O24'
_cell_volume   590.93515121
_cell_formula_units_Z   4
loop_
 _symmetry_equiv_pos_site_id
 _symmetry_equiv_pos_as_xyz
  1  'x, y, z'
loop_
 _atom_site_type_symbol
 _atom_site_label
 _atom_site_symmetry_multiplicity
 _atom_site_fract_x
 _atom_site_fract_y
 _atom_site_fract_z
 _atom_site_occupancy
  K  K0  1  0.26403600  0.03655800  0.14949700  1
  K  K1  1  0.76403600  0.96344200  0.35050300  1
  K  K2  1  0.73596400  0.96344200  0.85050300  1
  K  K3  1  0.23596400  0.03655800  0.64949700  1
  U  U0  1  0.97893800  0.51371100  0.17730200  1
  U  U1  1  0.47893800  0.48628900  0.32269800  1
  U  U2  1  0.02106200  0.48628900  0.82269800  1
  U  U3  1  0.52106200  0.51371100  0.67730200  1
  Cr  Cr0  1  0.64307400  0.38340000  0.05278500  1
  Cr  Cr1  1  0.14307400  0.61660000  0.44721500  1
  Cr  Cr2  1  0.35692600  0.61660000  0.94721500  1
  Cr  Cr3  1  0.85692600  0.38340000  0.55278500  1
  O  O0  1  0.56253600  0.54567300  0.89539400  1
  O  O1  1  0.06253600  0.45432700  0.60460600  1
  O  O2  1  0.43746400  0.45432700  0.10460600  1
  O  O3  1  0.93746400  0.54567300  0.39539400  1
  O  O4  1  0.70928400  0.41841300  0.21281900  1
  O  O5  1  0.20928400  0.58158700  0.28718100  1
  O  O6  1  0.29071600  0.58158700  0.78718100  1
  O  O7  1  0.79071600  0.41841300  0.71281900  1
  O  O8  1  0.01972000  0.24267600  0.23337900  1
  O  O9  1  0.51972000  0.75732400  0.26662100  1
  O  O10  1  0.98028000  0.75732400  0.76662100  1
  O  O11  1  0.48028000  0.24267600  0.73337900  1
  O  O12  1  0.84346800  0.47027400  0.99205000  1
  O  O13  1  0.34346800  0.52972600  0.50795000  1
  O  O14  1  0.15653200  0.52972600  0.00795000  1
  O  O15  1  0.65653200  0.47027400  0.49205000  1
  O  O16  1  0.93725500  0.78465900  0.12695200  1
  O  O17  1  0.43725500  0.21534100  0.37304800  1
  O  O18  1  0.06274500  0.21534100  0.87304800  1
  O  O19  1  0.56274500  0.78465900  0.62695200  1
  O  O20  1  0.63378700  0.14707700  0.05680200  1
  O  O21  1  0.13378700  0.85292300  0.44319800  1
  O  O22  1  0.36621300  0.85292300  0.94319800  1
  O  O23  1  0.86621300  0.14707700  0.55680200  1
loop_
_geom_bond_atom_site_label_1
_geom_bond_atom_site_label_2
_geom_bond_distance
_geom_bond_site_symmetry_2
K0 O8 2.756261 1_555
K0 O22 2.890167 1_544
K0 O9 2.949319 1_545
K0 O5 3.145540 1_545
K0 O2 3.147286 1_555
K0 O21 3.245958 1_545
K0 O17 3.248513 1_555
K0 O16 3.285449 1_445
K0 O20 3.296086 1_555
K0 O18 3.343989 1_554
K1 O9 2.756261 1_555
K1 O23 2.890167 1_565
K1 O8 2.949319 1_665
K1 O4 3.145540 1_565
K1 O3 3.147286 1_555
K1 O20 3.245958 1_565
K1 O16 3.248513 1_555
K1 O17 3.285449 1_565
K1 O21 3.296086 1_655
K1 O19 3.343989 1_555
K2 O10 2.756261 1_555
K2 O20 2.890167 1_566
K2 O11 2.949319 1_565
K2 O7 3.145540 1_565
K2 O0 3.147286 1_555
K2 O23 3.245958 1_565
K2 O19 3.248513 1_555
K2 O18 3.285449 1_665
K2 O22 3.296086 1_555
K2 O16 3.343989 1_556
K3 O11 2.756261 1_555
K3 O21 2.890167 1_545
K3 O10 2.949319 1_445
K3 O6 3.145540 1_545
K3 O1 3.147286 1_555
K3 O22 3.245958 1_545
K3 O18 3.248513 1_555
K3 O19 3.285449 1_545
K3 O23 3.296086 1_455
K3 O17 3.343989 1_555
Cr0 O20 1.611458 1_555
Cr0 O4 1.846349 1_555
Cr0 O12 1.851765 1_554
Cr0 O0 1.891486 1_554
Cr0 O2 1.911947 1_555
Cr1 O21 1.611458 1_555
Cr1 O5 1.846349 1_555
Cr1 O13 1.851765 1_555
Cr1 O1 1.891486 1_555
Cr1 O3 1.911947 1_455
Cr2 O22 1.611458 1_555
Cr2 O6 1.846349 1_555
Cr2 O14 1.851765 1_556
Cr2 O2 1.891486 1_556
Cr2 O0 1.911947 1_555
Cr3 O23 1.611458 1_555
Cr3 O7 1.846349 1_555
Cr3 O15 1.851765 1_555
Cr3 O3 1.891486 1_555
Cr3 O1 1.911947 1_655
O0 U3 2.387425 1_555
O1 U2 2.387425 1_555
O2 U1 2.387425 1_555
O3 U0 2.387425 1_555
O4 U1 2.360813 1_555
O4 U0 2.366871 1_555
O5 U0 2.360813 1_455
O5 U1 2.366871 1_555
O6 U3 2.360813 1_555
O6 U2 2.366871 1_555
O7 U2 2.360813 1_655
O7 U3 2.366871 1_555
O8 U0 1.842756 1_455
O9 U1 1.842756 1_555
O10 U2 1.842756 1_655
O11 U3 1.842756 1_555
O12 U2 2.311778 1_655
O12 U0 2.341342 1_556
O13 U3 2.311778 1_555
O13 U1 2.341342 1_555
O14 U0 2.311778 1_455
O14 U2 2.341342 1_554
O15 U1 2.311778 1_555
O15 U3 2.341342 1_555
O16 U0 1.839630 1_555
O17 U1 1.839630 1_555
O18 U2 1.839630 1_555
O19 U3 1.839630 1_555
