# generated using pymatgen
data_Co3(P2O7)2
_symmetry_space_group_name_H-M   'P 1'
_cell_length_a   5.44821500
_cell_length_b   6.93995794
_cell_length_c   7.26962480
_cell_angle_alpha   75.81814337
_cell_angle_beta   80.97019325
_cell_angle_gamma   67.75317980
_symmetry_Int_Tables_number   1
_chemical_formula_structural   Co3(P2O7)2
_chemical_formula_sum   'Co3 P4 O14'
_cell_volume   246.02114285
_cell_formula_units_Z   1
loop_
 _symmetry_equiv_pos_site_id
 _symmetry_equiv_pos_as_xyz
  1  'x, y, z'
loop_
 _atom_site_type_symbol
 _atom_site_label
 _atom_site_symmetry_multiplicity
 _atom_site_fract_x
 _atom_site_fract_y
 _atom_site_fract_z
 _atom_site_occupancy
  Co  Co0  1  0.18649600  0.51151800  0.30982300  1
  Co  Co1  1  0.00000000  0.00000000  0.00000000  1
  Co  Co2  1  0.81350400  0.48848200  0.69017700  1
  P  P0  1  0.20952200  0.72599800  0.65720300  1
  P  P1  1  0.79047800  0.27400200  0.34279700  1
  P  P2  1  0.64803100  0.68670500  0.06388000  1
  P  P3  1  0.35196900  0.31329500  0.93612000  1
  O  O0  1  0.35025300  0.76129700  0.13242600  1
  O  O1  1  0.83252800  0.76993200  0.13713700  1
  O  O2  1  0.75611400  0.43692900  0.13930000  1
  O  O3  1  0.05293300  0.65022600  0.54443500  1
  O  O4  1  0.48359800  0.69581600  0.55653400  1
  O  O5  1  0.68737800  0.70933500  0.84816000  1
  O  O6  1  0.16747200  0.23006800  0.86286300  1
  O  O7  1  0.94706700  0.34977400  0.45556500  1
  O  O8  1  0.24388600  0.56307100  0.86070000  1
  O  O9  1  0.94354800  0.06565000  0.27808100  1
  O  O10  1  0.64974700  0.23870300  0.86757400  1
  O  O11  1  0.31262200  0.29066500  0.15184000  1
  O  O12  1  0.05645200  0.93435000  0.72191900  1
  O  O13  1  0.51640200  0.30418400  0.44346600  1
loop_
_geom_bond_atom_site_label_1
_geom_bond_atom_site_label_2
_geom_bond_distance
_geom_bond_site_symmetry_2
Co0 O11 1.989401 1_555
Co0 O13 2.037099 1_555
Co0 O7 2.043597 1_455
Co0 O3 2.061443 1_555
Co0 O0 2.275621 1_555
Co0 O1 2.355682 1_455
Co1 O6 2.100794 1_554
Co1 O1 2.100794 1_445
Co1 O9 2.130458 1_455
Co1 O12 2.130458 1_544
Co1 O10 2.171186 1_454
Co1 O0 2.171186 1_545
Co2 O5 1.989401 1_555
Co2 O4 2.037099 1_555
Co2 O3 2.043597 1_655
Co2 O7 2.061443 1_555
Co2 O10 2.275621 1_555
Co2 O6 2.355682 1_655
O0 P2 1.544359 1_555
O1 P2 1.544661 1_555
O2 P2 1.585843 1_555
O2 P1 1.615251 1_555
O3 P0 1.564243 1_555
O4 P0 1.518033 1_555
O5 P2 1.526161 1_556
O6 P3 1.544661 1_555
O7 P1 1.564243 1_555
O8 P3 1.585843 1_555
O8 P0 1.615251 1_555
O9 P1 1.518125 1_555
O10 P3 1.544359 1_555
O11 P3 1.526161 1_554
O12 P0 1.518125 1_555
O13 P1 1.518033 1_555
