# generated using pymatgen
data_La16Al13
_symmetry_space_group_name_H-M   'P 1'
_cell_length_a   9.17836200
_cell_length_b   9.17744348
_cell_length_c   11.20492733
_cell_angle_alpha   90.00000000
_cell_angle_beta   90.00000000
_cell_angle_gamma   119.99668023
_symmetry_Int_Tables_number   1
_chemical_formula_structural   La16Al13
_chemical_formula_sum   'La16 Al13'
_cell_volume   817.41217887
_cell_formula_units_Z   1
loop_
 _symmetry_equiv_pos_site_id
 _symmetry_equiv_pos_as_xyz
  1  'x, y, z'
loop_
 _atom_site_type_symbol
 _atom_site_label
 _atom_site_symmetry_multiplicity
 _atom_site_fract_x
 _atom_site_fract_y
 _atom_site_fract_z
 _atom_site_occupancy
  La  La0  1  0.00000000  0.26451426  0.00000000  1
  La  La1  1  0.61094599  0.99940653  0.16392584  1
  La  La2  1  0.26156960  -0.00092727  0.00000000  1
  La  La3  1  -0.00000000  0.61082179  0.83572335  1
  La  La4  1  0.33317715  0.66669061  0.66422123  1
  La  La5  1  0.33317715  0.66669061  0.33577877  1
  La  La6  1  0.66682285  0.33351245  0.66422123  1
  La  La7  1  -0.00000000  0.61082179  0.16427665  1
  La  La8  1  0.38905401  0.38846054  0.16392584  1
  La  La9  1  0.77052873  0.00004420  0.50000000  1
  La  La10  1  0.66682285  0.33351245  0.33577877  1
  La  La11  1  0.73843040  0.73750313  0.00000000  1
  La  La12  1  0.22947127  0.22951546  0.50000000  1
  La  La13  1  -0.00000000  0.77081409  0.50000000  1
  La  La14  1  0.61094599  0.99940653  0.83607416  1
  La  La15  1  0.38905401  0.38846054  0.83607416  1
  Al  Al0  1  -0.00000000  0.00005272  0.76242763  1
  Al  Al1  1  -0.00000000  0.28462355  0.70895584  1
  Al  Al2  1  0.42051490  0.00002456  0.50000000  1
  Al  Al3  1  0.28461939  0.00010092  0.29080232  1
  Al  Al4  1  -0.00000000  0.28462355  0.29104416  1
  Al  Al5  1  0.71538061  0.71548153  0.29080232  1
  Al  Al6  1  0.57948510  0.57950966  0.50000000  1
  Al  Al7  1  -0.00000000  0.42093551  0.50000000  1
  Al  Al8  1  -0.00000000  0.00005272  0.23757237  1
  Al  Al9  1  0.71538061  0.71548153  0.70919768  1
  Al  Al10  1  0.66643705  0.33310058  0.00000000  1
  Al  Al11  1  0.33356295  0.66666453  0.00000000  1
  Al  Al12  1  0.28461939  0.00010092  0.70919768  1
loop_
_geom_bond_atom_site_label_1
_geom_bond_atom_site_label_2
_geom_bond_distance
_geom_bond_site_symmetry_2
La0 La15 3.654771 1_554
La0 La8 3.654771 1_555
La0 La1 3.654771 1_445
La0 La14 3.654771 1_444
La0 La7 3.672775 1_555
La0 La3 3.672775 1_554
La0 La2 4.188807 1_555
La0 La11 4.188807 1_445
La1 La5 3.427461 1_555
La1 La10 3.435169 1_565
La1 La11 3.651350 1_555
La1 La14 3.673554 1_554
La1 La2 3.694169 1_565
La1 La9 4.039459 1_565
La2 La3 3.646164 1_544
La2 La7 3.646164 1_545
La2 La8 3.651351 1_555
La3 La4 3.426281 1_555
La3 La6 3.426284 1_455
La3 La7 3.681416 1_556
La4 La5 3.680174 1_555
La4 La9 4.071800 1_565
La5 La7 3.426281 1_555
La5 La8 3.435177 1_555
La5 La9 4.071800 1_565
La6 La9 4.070705 1_555
La10 La7 3.426284 1_655
La10 La8 3.427465 1_555
La10 La6 3.680174 1_555
La10 La9 4.070705 1_555
La10 La13 4.070936 1_655
La10 La12 4.071802 1_555
La11 La3 3.646164 1_654
La11 La7 3.646164 1_655
La11 La14 3.651350 1_554
La11 La8 3.694169 1_555
La11 La15 3.694169 1_554
La11 La2 4.158413 1_665
La12 La13 3.645835 1_545
La12 La9 3.648116 1_455
La12 La15 4.039459 1_555
La12 La8 4.039459 1_555
La12 La4 4.070713 1_555
La12 La5 4.070713 1_555
La12 La6 4.071802 1_555
La13 La9 3.645834 1_465
La13 La7 4.038164 1_555
La13 La3 4.038164 1_555
La13 La5 4.070930 1_555
La13 La4 4.070930 1_555
La13 La6 4.070936 1_455
La14 La4 3.427461 1_555
La14 La6 3.435169 1_565
La14 La2 3.694169 1_566
La14 La9 4.039459 1_565
La15 La6 3.427465 1_555
La15 La4 3.435177 1_555
La15 La2 3.651351 1_556
La15 La8 3.673554 1_556
Al0 Al12 2.679347 1_555
Al0 Al9 2.679348 1_445
Al0 Al1 2.679478 1_555
Al0 La2 3.587696 1_556
Al0 La11 3.587696 1_446
Al0 La0 3.602342 1_556
Al0 La13 3.615593 1_545
Al0 La9 3.616936 1_455
Al0 La12 3.616936 1_555
Al0 La14 3.662103 1_445
Al0 La15 3.662103 1_555
Al0 La3 3.665339 1_545
Al1 Al7 2.654588 1_555
Al1 La0 3.266347 1_556
Al1 La3 3.313553 1_555
Al1 La6 3.343048 1_455
Al1 La4 3.343054 1_555
Al1 La12 3.352414 1_555
Al1 La9 3.352414 1_455
Al1 La15 3.505071 1_555
Al1 La14 3.505071 1_445
Al2 Al3 2.655405 1_555
Al2 La9 3.212464 1_555
Al2 La5 3.306797 1_545
Al2 La4 3.306797 1_545
Al2 La10 3.308387 1_555
Al2 La6 3.308387 1_555
Al2 La12 3.347111 1_555
Al2 La13 3.347179 1_545
Al3 Al8 2.679347 1_555
Al3 La2 3.264988 1_555
Al3 La1 3.318294 1_545
Al3 La5 3.343485 1_545
Al3 La10 3.345129 1_555
Al3 La12 3.353987 1_555
Al3 La13 3.354146 1_545
Al3 La8 3.496711 1_555
Al3 La7 3.502246 1_545
Al4 Al7 2.654588 1_555
Al4 Al8 2.679478 1_555
Al4 La0 3.266347 1_555
Al4 La7 3.313553 1_555
Al4 La10 3.343048 1_455
Al4 La5 3.343054 1_555
Al4 La12 3.352414 1_555
Al4 La9 3.352414 1_455
Al4 La8 3.505071 1_555
Al4 La1 3.505071 1_445
Al5 Al6 2.655405 1_555
Al5 Al8 2.679348 1_665
Al5 La11 3.264988 1_555
Al5 La8 3.318295 1_555
Al5 La10 3.343495 1_555
Al5 La5 3.345133 1_555
Al5 La9 3.353987 1_565
Al5 La13 3.354146 1_655
Al5 La1 3.496710 1_555
Al5 La7 3.502246 1_655
Al6 Al9 2.655405 1_555
Al6 La12 3.212464 1_555
Al6 La6 3.306804 1_555
Al6 La10 3.306804 1_555
Al6 La4 3.308393 1_555
Al6 La5 3.308393 1_555
Al6 La9 3.347111 1_565
Al6 La13 3.347179 1_655
Al7 La13 3.210991 1_555
Al7 La6 3.305732 1_455
Al7 La10 3.305732 1_455
Al7 La4 3.305734 1_555
Al7 La5 3.305734 1_555
Al7 La12 3.349888 1_555
Al7 La9 3.349888 1_455
Al8 La2 3.587696 1_555
Al8 La11 3.587696 1_445
Al8 La0 3.602342 1_555
Al8 La13 3.615593 1_545
Al8 La9 3.616936 1_455
Al8 La12 3.616936 1_555
Al8 La1 3.662103 1_445
Al8 La8 3.662103 1_555
Al8 La7 3.665339 1_545
Al9 La11 3.264988 1_556
Al9 La15 3.318295 1_555
Al9 La6 3.343495 1_555
Al9 La4 3.345133 1_555
Al9 La9 3.353987 1_565
Al9 La13 3.354146 1_655
Al9 La14 3.496710 1_555
Al9 La3 3.502246 1_655
Al10 La8 3.377418 1_555
Al10 La15 3.377418 1_554
Al10 La14 3.384110 1_544
Al10 La1 3.384110 1_545
Al10 La3 3.384547 1_654
Al10 La7 3.384547 1_655
Al10 La0 3.419980 1_655
Al10 La11 3.429114 1_555
Al10 La2 3.437416 1_555
Al10 La10 3.762379 1_555
Al10 La6 3.762379 1_554
Al11 La1 3.377414 1_555
Al11 La14 3.377414 1_554
Al11 La15 3.384117 1_554
Al11 La8 3.384117 1_555
Al11 La3 3.384544 1_554
Al11 La7 3.384544 1_555
Al11 La0 3.419986 1_555
Al11 La2 3.429104 1_565
Al11 La11 3.437419 1_555
Al11 La5 3.762379 1_555
Al11 La4 3.762379 1_554
Al12 Al2 2.655405 1_555
Al12 La2 3.264988 1_556
Al12 La14 3.318294 1_545
Al12 La4 3.343485 1_545
Al12 La6 3.345129 1_555
Al12 La12 3.353987 1_555
Al12 La13 3.354146 1_545
Al12 La15 3.496711 1_555
Al12 La3 3.502246 1_545
