# generated using pymatgen
data_P2Pb3O8
_symmetry_space_group_name_H-M   'P 1'
_cell_length_a   5.54308466
_cell_length_b   5.54308466
_cell_length_c   7.58101384
_cell_angle_alpha   68.60967447
_cell_angle_beta   68.60967447
_cell_angle_gamma   61.17335053
_symmetry_Int_Tables_number   1
_chemical_formula_structural   P2Pb3O8
_chemical_formula_sum   'P2 Pb3 O8'
_cell_volume   184.84848829
_cell_formula_units_Z   1
loop_
 _symmetry_equiv_pos_site_id
 _symmetry_equiv_pos_as_xyz
  1  'x, y, z'
loop_
 _atom_site_type_symbol
 _atom_site_label
 _atom_site_symmetry_multiplicity
 _atom_site_fract_x
 _atom_site_fract_y
 _atom_site_fract_z
 _atom_site_occupancy
  P  P0  1  0.90423100  0.90423100  0.79172100  1
  P  P1  1  0.09576900  0.09576900  0.20827900  1
  Pb  Pb0  1  0.27794500  0.27794500  0.64172800  1
  Pb  Pb1  1  0.72205500  0.72205500  0.35827200  1
  Pb  Pb2  1  0.50000000  0.50000000  0.00000000  1
  O  O0  1  0.76608400  0.21506500  0.28320300  1
  O  O1  1  0.23391600  0.78493500  0.71679700  1
  O  O2  1  0.78493500  0.23391600  0.71679700  1
  O  O3  1  0.21506500  0.76608400  0.28320300  1
  O  O4  1  0.22173700  0.22173700  0.28857500  1
  O  O5  1  0.77826300  0.77826300  0.71142500  1
  O  O6  1  0.82404100  0.82404100  0.01737400  1
  O  O7  1  0.17595900  0.17595900  0.98262600  1
loop_
_geom_bond_atom_site_label_1
_geom_bond_atom_site_label_2
_geom_bond_distance
_geom_bond_site_symmetry_2
O0 P1 1.565578 1_655
O0 Pb2 2.620949 1_555
O0 Pb1 2.694256 1_545
O1 P0 1.565578 1_455
O1 Pb2 2.620949 1_556
O1 Pb0 2.694256 1_565
O2 P0 1.565578 1_545
O2 Pb2 2.620949 1_556
O2 Pb0 2.694256 1_655
O3 P1 1.565578 1_565
O3 Pb2 2.620949 1_555
O3 Pb1 2.694256 1_455
O4 P1 1.560738 1_555
O4 Pb2 2.629759 1_555
O5 P0 1.560738 1_555
O5 Pb2 2.629759 1_556
O6 P0 1.550092 1_554
O6 Pb1 2.344107 1_555
O7 P1 1.550092 1_556
O7 Pb0 2.344107 1_555
