# generated using pymatgen
data_HoSnAu
_symmetry_space_group_name_H-M   'P 1'
_cell_length_a   4.59937659
_cell_length_b   4.59937672
_cell_length_c   7.39059018
_cell_angle_alpha   90.00000000
_cell_angle_beta   90.00000000
_cell_angle_gamma   120.00000591
_symmetry_Int_Tables_number   1
_chemical_formula_structural   HoSnAu
_chemical_formula_sum   'Ho2 Sn2 Au2'
_cell_volume   135.39657535
_cell_formula_units_Z   2
loop_
 _symmetry_equiv_pos_site_id
 _symmetry_equiv_pos_as_xyz
  1  'x, y, z'
loop_
 _atom_site_type_symbol
 _atom_site_label
 _atom_site_symmetry_multiplicity
 _atom_site_fract_x
 _atom_site_fract_y
 _atom_site_fract_z
 _atom_site_occupancy
  Ho  Ho0  1  -0.00000000  -0.00000000  0.74775867  1
  Ho  Ho1  1  -0.00000000  -0.00000000  0.24775867  1
  Sn  Sn0  1  0.33333300  0.66666700  0.47568569  1
  Sn  Sn1  1  0.66666700  0.33333300  0.97568569  1
  Au  Au0  1  0.33333300  0.66666700  0.08265364  1
  Au  Au1  1  0.66666700  0.33333300  0.58265364  1
loop_
_geom_bond_atom_site_label_1
_geom_bond_atom_site_label_2
_geom_bond_distance
_geom_bond_site_symmetry_2
Ho0 Sn1 3.144678 1_455
Ho0 Sn1 3.144681 1_555
Ho0 Sn1 3.144681 1_445
Ho0 Sn0 3.330862 1_545
Ho0 Sn0 3.330865 1_445
Ho0 Sn0 3.330865 1_555
Ho0 Ho1 3.695295 1_555
Ho0 Ho1 3.695295 1_556
Ho1 Sn0 3.144678 1_545
Ho1 Sn0 3.144681 1_445
Ho1 Sn0 3.144681 1_555
Ho1 Sn1 3.330862 1_454
Ho1 Sn1 3.330865 1_554
Ho1 Sn1 3.330865 1_444
Au0 Sn1 2.770629 1_454
Au0 Sn1 2.770629 1_564
Au0 Sn1 2.770637 1_554
Au0 Sn0 2.904739 1_555
Au0 Ho1 2.922388 1_565
Au0 Ho1 2.922392 1_665
Au0 Ho1 2.922392 1_555
Au0 Ho0 3.630067 1_564
Au0 Ho0 3.630070 1_664
Au0 Ho0 3.630070 1_554
Au1 Sn0 2.770629 1_655
Au1 Sn0 2.770629 1_545
Au1 Sn0 2.770637 1_555
Au1 Sn1 2.904739 1_555
Au1 Ho0 2.922388 1_655
Au1 Ho0 2.922392 1_555
Au1 Ho0 2.922392 1_665
Au1 Ho1 3.630067 1_655
Au1 Ho1 3.630070 1_555
Au1 Ho1 3.630070 1_665
