# generated using pymatgen
data_Nd10Ti12O39
_symmetry_space_group_name_H-M   'P 1'
_cell_length_a   7.27300900
_cell_length_b   10.29126850
_cell_length_c   12.53064596
_cell_angle_alpha   113.59612546
_cell_angle_beta   106.80972902
_cell_angle_gamma   88.92613835
_symmetry_Int_Tables_number   1
_chemical_formula_structural   Nd10Ti12O39
_chemical_formula_sum   'Nd10 Ti12 O39'
_cell_volume   817.70924843
_cell_formula_units_Z   1
loop_
 _symmetry_equiv_pos_site_id
 _symmetry_equiv_pos_as_xyz
  1  'x, y, z'
loop_
 _atom_site_type_symbol
 _atom_site_label
 _atom_site_symmetry_multiplicity
 _atom_site_fract_x
 _atom_site_fract_y
 _atom_site_fract_z
 _atom_site_occupancy
  Nd  Nd0  1  0.63842800  0.17432500  0.82939200  1
  Nd  Nd1  1  0.83555600  0.83457700  0.68069700  1
  Nd  Nd2  1  0.00533300  0.49224300  0.50908500  1
  Nd  Nd3  1  0.34706400  0.82954900  0.68719600  1
  Nd  Nd4  1  0.15948800  0.15726300  0.32383200  1
  Nd  Nd5  1  0.49418000  0.98578500  0.49336000  1
  Nd  Nd6  1  0.35474600  0.83068500  0.14903200  1
  Nd  Nd7  1  0.66790300  0.16757600  0.33566300  1
  Nd  Nd8  1  0.81832700  0.35218500  0.17097100  1
  Nd  Nd9  1  0.02456000  0.50667400  0.97950800  1
  Ti  Ti0  1  0.98536000  0.99973400  0.99592200  1
  Ti  Ti1  1  0.49598200  0.00676900  0.00513700  1
  Ti  Ti2  1  0.33242800  0.33529000  0.66750200  1
  Ti  Ti3  1  0.49338100  0.50448700  0.50002500  1
  Ti  Ti4  1  0.65825900  0.66018800  0.83840300  1
  Ti  Ti5  1  0.82469100  0.33631400  0.66588500  1
  Ti  Ti6  1  0.67528600  0.66691300  0.33635200  1
  Ti  Ti7  1  0.16588800  0.16962300  0.84045100  1
  Ti  Ti8  1  0.84348800  0.82916800  0.16771300  1
  Ti  Ti9  1  0.00248400  0.00381400  0.50563100  1
  Ti  Ti10  1  0.16688200  0.67348400  0.33040600  1
  Ti  Ti11  1  0.32186600  0.33600700  0.16648400  1
  O  O0  1  0.32702000  0.25615200  0.78306500  1
  O  O1  1  0.77683700  0.66713600  0.00072300  1
  O  O2  1  0.75254600  0.10536700  0.00202200  1
  O  O3  1  0.87575200  0.82099500  0.87167600  1
  O  O4  1  0.85062600  0.52145700  0.79465800  1
  O  O5  1  0.71050000  0.61093700  0.48312700  1
  O  O6  1  0.93195400  0.28579800  0.81824800  1
  O  O7  1  0.07175100  0.38640000  0.65266500  1
  O  O8  1  0.26059400  0.94700700  0.01260400  1
  O  O9  1  0.08601200  0.98307500  0.66256900  1
  O  O10  1  0.38267300  0.05841800  0.86629500  1
  O  O11  1  0.01688000  0.94550100  0.13128900  1
  O  O12  1  0.21577800  0.13009300  0.52484000  1
  O  O13  1  0.17638400  0.85220700  0.45447000  1
  O  O14  1  0.27428900  0.61445200  0.48059200  1
  O  O15  1  0.46137900  0.51410000  0.78477200  1
  O  O16  1  0.49768900  0.81592200  0.87310100  1
  O  O17  1  0.58511100  0.66186300  0.66943200  1
  O  O18  1  0.41614300  0.02334300  0.31764000  1
  O  O19  1  0.57931500  0.95588700  0.67676800  1
  O  O20  1  0.42057900  0.73169300  0.33812000  1
  O  O21  1  0.57991400  0.24505200  0.66187400  1
  O  O22  1  0.41421900  0.34941900  0.33659900  1
  O  O23  1  0.52098300  0.19727600  0.13899200  1
  O  O24  1  0.70997200  0.38512900  0.53167300  1
  O  O25  1  0.55189600  0.47936700  0.21550900  1
  O  O26  1  0.97960800  0.05527200  0.86023900  1
  O  O27  1  0.62620300  0.94011700  0.12876300  1
  O  O28  1  0.77751100  0.85793600  0.47185700  1
  O  O29  1  0.81313300  0.13554500  0.53221900  1
  O  O30  1  0.91592700  0.99424700  0.33041800  1
  O  O31  1  0.91402900  0.30459700  0.33501100  1
  O  O32  1  0.92204900  0.59180500  0.33206400  1
  O  O33  1  0.07800200  0.72998100  0.19255500  1
  O  O34  1  0.31360200  0.38796700  0.52948300  1
  O  O35  1  0.11839100  0.20048500  0.14139500  1
  O  O36  1  0.11837700  0.47219600  0.17615600  1
  O  O37  1  0.25066500  0.31816700  0.99638500  1
  O  O38  1  0.66412800  0.73998700  0.21148200  1
loop_
_geom_bond_atom_site_label_1
_geom_bond_atom_site_label_2
_geom_bond_distance
_geom_bond_site_symmetry_2
Nd0 O19 2.239356 1_545
Nd0 O0 2.394827 1_555
Nd0 O21 2.410819 1_555
Nd0 O2 2.457692 1_556
Nd0 O10 2.473647 1_555
Nd0 O6 2.507086 1_555
Nd0 O26 2.741958 1_555
Nd1 O19 2.223310 1_555
Nd1 O3 2.386105 1_555
Nd1 O26 2.439834 1_565
Nd1 O17 2.503765 1_555
Nd1 O9 2.515312 1_655
Nd1 O5 2.543197 1_555
Nd1 O28 2.635341 1_555
Nd2 O31 2.183145 1_455
Nd2 O7 2.388156 1_555
Nd2 O5 2.452040 1_455
Nd2 O34 2.457978 1_555
Nd2 O14 2.528103 1_555
Nd2 O24 2.569063 1_455
Nd2 O32 2.712241 1_455
Nd3 O19 2.215131 1_555
Nd3 O16 2.329409 1_555
Nd3 O17 2.414217 1_555
Nd3 O10 2.471075 1_565
Nd3 O9 2.476970 1_555
Nd3 O14 2.558517 1_555
Nd3 O13 2.922216 1_555
Nd4 O18 2.300348 1_555
Nd4 O31 2.319228 1_455
Nd4 O35 2.434566 1_555
Nd4 O11 2.464576 1_545
Nd4 O30 2.503200 1_445
Nd4 O12 2.559895 1_555
Nd4 O34 2.658001 1_555
Nd4 O22 2.661051 1_555
Nd5 O18 2.295676 1_565
Nd5 O19 2.344311 1_555
Nd5 O28 2.446589 1_555
Nd5 O20 2.507256 1_555
Nd5 O12 2.518198 1_565
Nd5 O13 2.529984 1_555
Nd5 O21 2.599447 1_565
Nd5 O29 2.621751 1_565
Nd6 O18 2.174441 1_565
Nd6 O8 2.398960 1_555
Nd6 O27 2.415177 1_555
Nd6 O38 2.456484 1_555
Nd6 O33 2.566765 1_555
Nd6 O11 2.696190 1_555
Nd6 O20 2.852918 1_555
Nd7 O18 2.280647 1_555
Nd7 O31 2.303297 1_555
Nd7 O30 2.508838 1_545
Nd7 O24 2.515452 1_555
Nd7 O23 2.525124 1_555
Nd7 O29 2.534327 1_555
Nd7 O22 2.602302 1_555
Nd7 O27 2.646945 1_545
Nd8 O31 2.217010 1_555
Nd8 O25 2.392723 1_555
Nd8 O32 2.434908 1_555
Nd8 O36 2.499334 1_655
Nd8 O2 2.513445 1_555
Nd8 O23 2.548613 1_555
Nd8 O35 2.685940 1_655
Nd9 O6 2.301473 1_455
Nd9 O4 2.359822 1_455
Nd9 O1 2.420290 1_456
Nd9 O36 2.526224 1_556
Nd9 O37 2.553471 1_555
Nd9 O33 2.661012 1_556
O0 Ti7 1.929406 1_555
O0 Ti2 1.933930 1_555
O1 Ti4 1.938359 1_554
O1 Ti8 2.011049 1_555
O2 Ti0 1.998521 1_544
O2 Ti1 2.158210 1_555
O3 Ti0 1.867454 1_555
O3 Ti4 2.139864 1_555
O4 Ti5 1.909387 1_555
O4 Ti4 2.009592 1_555
O5 Ti3 2.045114 1_555
O5 Ti6 2.085731 1_555
O6 Ti7 2.077950 1_655
O6 Ti5 2.107576 1_555
O7 Ti2 1.934613 1_555
O7 Ti5 1.948617 1_455
O8 Ti1 1.869778 1_565
O8 Ti0 2.037972 1_454
O9 Ti9 1.980414 1_565
O9 Ti7 2.204208 1_565
O10 Ti7 1.958133 1_555
O10 Ti1 1.970571 1_556
O11 Ti0 1.941516 1_454
O11 Ti8 2.014676 1_455
O12 Ti9 1.939714 1_555
O12 Ti2 2.131348 1_555
O13 Ti10 1.859579 1_555
O13 Ti9 2.009776 1_565
O14 Ti3 1.951333 1_555
O14 Ti10 2.137327 1_555
O15 Ti4 1.864819 1_555
O15 Ti2 1.878283 1_555
O16 Ti4 1.946064 1_555
O16 Ti1 2.001128 1_566
O17 Ti3 2.010807 1_555
O17 Ti4 2.035612 1_555
O20 Ti10 1.914329 1_555
O20 Ti6 1.960170 1_555
O21 Ti5 2.006763 1_555
O21 Ti2 2.016335 1_555
O22 Ti3 1.951418 1_555
O22 Ti11 1.988451 1_555
O23 Ti1 1.973446 1_555
O23 Ti11 2.017815 1_555
O24 Ti5 1.904186 1_555
O24 Ti3 2.025759 1_555
O25 Ti6 1.939766 1_555
O25 Ti11 2.031135 1_555
O26 Ti7 1.941540 1_655
O26 Ti0 1.988724 1_545
O27 Ti1 1.935199 1_565
O27 Ti8 1.992919 1_555
O28 Ti6 1.988169 1_555
O28 Ti9 2.071974 1_665
O29 Ti9 1.918128 1_655
O29 Ti5 2.058162 1_555
O30 Ti8 1.989925 1_555
O30 Ti9 2.063058 1_665
O32 Ti6 1.947270 1_555
O32 Ti10 1.992306 1_655
O33 Ti10 1.970741 1_555
O33 Ti8 1.982431 1_455
O34 Ti2 1.978519 1_555
O34 Ti3 1.994022 1_555
O35 Ti11 1.921271 1_555
O35 Ti0 2.137081 1_444
O36 Ti11 2.014793 1_555
O36 Ti10 2.139881 1_555
O37 Ti7 1.866072 1_555
O37 Ti11 1.974038 1_556
O38 Ti8 1.925223 1_555
O38 Ti6 1.971476 1_555
