# generated using pymatgen
data_Lu2Fe3Si5
_symmetry_space_group_name_H-M   'P 1'
_cell_length_a   10.21606630
_cell_length_b   10.21607047
_cell_length_c   5.36958049
_cell_angle_alpha   89.99999103
_cell_angle_beta   90.00000542
_cell_angle_gamma   90.00013241
_symmetry_Int_Tables_number   1
_chemical_formula_structural   Lu2Fe3Si5
_chemical_formula_sum   'Lu8 Fe12 Si20'
_cell_volume   560.41266249
_cell_formula_units_Z   4
loop_
 _symmetry_equiv_pos_site_id
 _symmetry_equiv_pos_as_xyz
  1  'x, y, z'
loop_
 _atom_site_type_symbol
 _atom_site_label
 _atom_site_symmetry_multiplicity
 _atom_site_fract_x
 _atom_site_fract_y
 _atom_site_fract_z
 _atom_site_occupancy
  Lu  Lu0  1  0.43116926  0.26234268  -0.00000165  1
  Lu  Lu1  1  0.26234055  0.56884238  -0.00000084  1
  Lu  Lu2  1  0.73765907  0.43115989  -0.00000021  1
  Lu  Lu3  1  0.56883251  0.73765670  -0.00000182  1
  Lu  Lu4  1  0.06884554  0.76233506  0.49999993  1
  Lu  Lu5  1  0.93115291  0.23766553  0.49999965  1
  Lu  Lu6  1  0.76233599  0.93116045  0.50000125  1
  Lu  Lu7  1  0.23766433  0.06883756  0.50000198  1
  Fe  Fe0  1  0.12382219  0.14441879  -0.00000021  1
  Fe  Fe1  1  0.14441763  0.87618161  0.00000133  1
  Fe  Fe2  1  0.85558121  0.12381904  0.00000188  1
  Fe  Fe3  1  0.87618081  0.85557970  0.00000114  1
  Fe  Fe4  1  0.37618876  0.64441041  0.49999884  1
  Fe  Fe5  1  0.62381200  0.35559079  0.49999936  1
  Fe  Fe6  1  0.64440833  0.62381110  0.49999909  1
  Fe  Fe7  1  0.35559265  0.37618628  0.49999812  1
  Fe  Fe8  1  0.50000031  0.00000053  0.25001023  1
  Fe  Fe9  1  0.00000019  0.49999956  0.25001058  1
  Fe  Fe10  1  0.50000021  0.00000038  0.74998989  1
  Fe  Fe11  1  0.00000024  0.49999971  0.74998940  1
  Si  Si0  1  0.32013955  0.02245677  0.00000122  1
  Si  Si1  1  0.02244839  0.67985911  -0.00000004  1
  Si  Si2  1  0.97754797  0.32013890  -0.00000046  1
  Si  Si3  1  0.67986090  0.97754412  0.00000109  1
  Si  Si4  1  0.17986963  0.52244548  0.49999977  1
  Si  Si5  1  0.82013164  0.47755568  0.50000012  1
  Si  Si6  1  0.52244701  0.82013188  0.49999875  1
  Si  Si7  1  0.47755041  0.17986936  0.49999894  1
  Si  Si8  1  0.67789041  0.17790098  0.24998928  1
  Si  Si9  1  0.17790582  0.32210703  0.24998752  1
  Si  Si10  1  0.82209319  0.67789424  0.24998945  1
  Si  Si11  1  0.32211047  0.82209783  0.24998249  1
  Si  Si12  1  0.32211024  0.82209771  0.75001733  1
  Si  Si13  1  0.82209312  0.67789448  0.75001043  1
  Si  Si14  1  0.17790616  0.32210684  0.75001194  1
  Si  Si15  1  0.67789079  0.17790111  0.75001100  1
  Si  Si16  1  0.00000041  0.00000066  0.23805043  1
  Si  Si17  1  0.49999951  0.49999954  0.26194889  1
  Si  Si18  1  0.00000020  0.00000066  0.76195437  1
  Si  Si19  1  0.49999949  0.49999946  0.73804654  1
loop_
_geom_bond_atom_site_label_1
_geom_bond_atom_site_label_2
_geom_bond_distance
_geom_bond_site_symmetry_2
Lu0 Si0 2.700460 1_555
Lu0 Si7 2.853506 1_554
Lu0 Si7 2.853512 1_555
Lu0 Si17 2.892691 1_555
Lu0 Si19 2.892694 1_554
Lu0 Si14 2.978088 1_554
Lu0 Si9 2.978098 1_555
Lu0 Si15 2.983132 1_554
Lu0 Si8 2.983137 1_555
Lu1 Si1 2.700466 1_555
Lu1 Si4 2.853525 1_554
Lu1 Si4 2.853531 1_555
Lu1 Si17 2.892740 1_555
Lu1 Si19 2.892748 1_554
Lu1 Si12 2.978018 1_554
Lu1 Si11 2.978023 1_555
Lu1 Si14 2.983229 1_554
Lu1 Si9 2.983231 1_555
Lu2 Si2 2.700454 1_555
Lu2 Si5 2.853529 1_554
Lu2 Si5 2.853533 1_555
Lu2 Si17 2.892736 1_555
Lu2 Si19 2.892746 1_554
Lu2 Si15 2.978062 1_554
Lu2 Si8 2.978066 1_555
Lu2 Si10 2.983224 1_555
Lu2 Si13 2.983224 1_554
Lu3 Si3 2.700468 1_555
Lu3 Si6 2.853519 1_554
Lu3 Si6 2.853525 1_555
Lu3 Si17 2.892701 1_555
Lu3 Si19 2.892704 1_554
Lu3 Si13 2.978065 1_554
Lu3 Si10 2.978074 1_555
Lu3 Si12 2.983121 1_554
Lu3 Si11 2.983128 1_555
Lu4 Si4 2.700474 1_555
Lu4 Si1 2.853543 1_555
Lu4 Si1 2.853544 1_556
Lu4 Si16 2.892803 1_565
Lu4 Si18 2.892817 1_565
Lu4 Si12 2.978171 1_555
Lu4 Si11 2.978174 1_555
Lu4 Si10 2.983448 1_455
Lu4 Si13 2.983448 1_455
Lu5 Si5 2.700467 1_555
Lu5 Si2 2.853532 1_556
Lu5 Si2 2.853533 1_555
Lu5 Si16 2.892802 1_655
Lu5 Si18 2.892816 1_655
Lu5 Si15 2.978138 1_555
Lu5 Si8 2.978139 1_555
Lu5 Si9 2.983459 1_655
Lu5 Si14 2.983462 1_655
Lu6 Si6 2.700482 1_555
Lu6 Si3 2.853518 1_556
Lu6 Si3 2.853519 1_555
Lu6 Si16 2.892781 1_665
Lu6 Si18 2.892785 1_665
Lu6 Si13 2.978154 1_555
Lu6 Si10 2.978163 1_555
Lu6 Si15 2.983363 1_565
Lu6 Si8 2.983368 1_565
Lu7 Si7 2.700469 1_555
Lu7 Si0 2.853510 1_556
Lu7 Si0 2.853518 1_555
Lu7 Si16 2.892770 1_555
Lu7 Si18 2.892774 1_555
Lu7 Si14 2.978188 1_555
Lu7 Si9 2.978201 1_555
Lu7 Si12 2.983371 1_545
Lu7 Si11 2.983381 1_545
Fe0 Si14 2.324295 1_554
Fe0 Si9 2.324296 1_555
Fe0 Si18 2.326095 1_554
Fe0 Si16 2.326109 1_555
Fe0 Si2 2.335748 1_455
Fe0 Si0 2.361113 1_555
Fe0 Lu7 3.026030 1_554
Fe0 Lu7 3.026051 1_555
Fe1 Si11 2.324313 1_555
Fe1 Si12 2.324321 1_554
Fe1 Si18 2.326082 1_564
Fe1 Si16 2.326088 1_565
Fe1 Si0 2.335763 1_565
Fe1 Si1 2.361192 1_555
Fe1 Lu4 3.026026 1_555
Fe1 Lu4 3.026039 1_554
Fe2 Si8 2.324312 1_555
Fe2 Si15 2.324320 1_554
Fe2 Si18 2.326091 1_654
Fe2 Si16 2.326095 1_655
Fe2 Si3 2.335748 1_545
Fe2 Si2 2.361156 1_555
Fe2 Lu5 3.026021 1_555
Fe2 Lu5 3.026042 1_554
Fe3 Si10 2.324285 1_555
Fe3 Si13 2.324291 1_554
Fe3 Si18 2.326103 1_664
Fe3 Si16 2.326112 1_665
Fe3 Si1 2.335708 1_655
Fe3 Si3 2.361148 1_555
Fe3 Lu6 3.026049 1_554
Fe3 Lu6 3.026050 1_555
Fe4 Si11 2.324366 1_555
Fe4 Si12 2.324373 1_555
Fe4 Si19 2.325996 1_555
Fe4 Si17 2.326003 1_555
Fe4 Si6 2.335649 1_555
Fe4 Si4 2.361139 1_555
Fe4 Lu1 3.026027 1_555
Fe4 Lu1 3.026030 1_556
Fe5 Si8 2.324367 1_555
Fe5 Si15 2.324371 1_555
Fe5 Si19 2.325990 1_555
Fe5 Si17 2.326000 1_555
Fe5 Si7 2.335670 1_555
Fe5 Si5 2.361143 1_555
Fe5 Lu2 3.026025 1_555
Fe5 Lu2 3.026029 1_556
Fe6 Si10 2.324335 1_555
Fe6 Si13 2.324340 1_555
Fe6 Si19 2.325983 1_555
Fe6 Si17 2.325991 1_555
Fe6 Si5 2.335650 1_555
Fe6 Si6 2.361139 1_555
Fe6 Lu3 3.026036 1_556
Fe6 Lu3 3.026044 1_555
Fe7 Si9 2.324344 1_555
Fe7 Si14 2.324352 1_555
Fe7 Si19 2.325982 1_555
Fe7 Si17 2.325985 1_555
Fe7 Si4 2.335672 1_555
Fe7 Si7 2.361087 1_555
Fe7 Lu0 3.026033 1_555
Fe7 Lu0 3.026035 1_556
Fe8 Si6 2.287147 1_545
Fe8 Si7 2.287152 1_555
Fe8 Si3 2.287155 1_545
Fe8 Si0 2.287156 1_555
Fe8 Si8 2.570175 1_555
Fe8 Si11 2.570189 1_545
Fe8 Lu7 3.078813 1_555
Fe8 Lu6 3.078816 1_545
Fe8 Lu0 3.078902 1_555
Fe8 Lu3 3.078920 1_545
Fe9 Si1 2.287142 1_555
Fe9 Si5 2.287145 1_455
Fe9 Si4 2.287153 1_555
Fe9 Si2 2.287157 1_455
Fe9 Si9 2.570236 1_555
Fe9 Si10 2.570261 1_455
Fe9 Lu5 3.078811 1_455
Fe9 Lu4 3.078821 1_555
Fe9 Lu2 3.078907 1_455
Fe9 Lu1 3.078909 1_555
Fe10 Si6 2.287154 1_545
Fe10 Si7 2.287160 1_555
Fe10 Si3 2.287162 1_546
Fe10 Si0 2.287163 1_556
Fe10 Si15 2.570181 1_555
Fe10 Si12 2.570190 1_545
Fe10 Fe8 2.684681 1_555
Fe10 Fe8 2.684899 1_556
Fe10 Lu7 3.078803 1_555
Fe10 Lu6 3.078811 1_545
Fe10 Lu0 3.078895 1_556
Fe10 Lu3 3.078910 1_546
Fe11 Si1 2.287141 1_556
Fe11 Si5 2.287144 1_455
Fe11 Si4 2.287154 1_555
Fe11 Si2 2.287155 1_456
Fe11 Si14 2.570241 1_555
Fe11 Si13 2.570263 1_455
Fe11 Fe9 2.684677 1_555
Fe11 Fe9 2.684904 1_556
Fe11 Lu5 3.078815 1_455
Fe11 Lu4 3.078819 1_555
Fe11 Lu1 3.078904 1_556
Fe11 Lu2 3.078907 1_456
Si0 Si11 2.447832 1_545
Si0 Si12 2.447841 1_544
Si1 Si10 2.447823 1_455
Si1 Si13 2.447824 1_454
Si2 Si9 2.447841 1_655
Si3 Si8 2.447835 1_565
Si4 Si9 2.447748 1_555
Si7 Si8 2.447753 1_555
Si10 Si5 2.447744 1_555
Si10 Si13 2.684678 1_554
Si10 Si13 2.684903 1_555
Si11 Si6 2.447743 1_555
Si11 Si12 2.684603 1_554
Si11 Si12 2.684977 1_555
Si12 Si6 2.447752 1_555
Si13 Si5 2.447745 1_555
Si14 Si4 2.447749 1_555
Si14 Si2 2.447843 1_456
Si14 Si9 2.684659 1_556
Si14 Si9 2.684921 1_555
Si15 Si7 2.447763 1_555
Si15 Si3 2.447841 1_546
Si15 Si8 2.684674 1_556
Si15 Si8 2.684907 1_555
