# generated using pymatgen
data_LaAg(PO3)4
_symmetry_space_group_name_H-M   'P 1'
_cell_length_a   13.41333900
_cell_length_b   7.40868100
_cell_length_c   12.55376963
_cell_angle_alpha   54.19057325
_cell_angle_beta   90.00000000
_cell_angle_gamma   90.00000000
_symmetry_Int_Tables_number   1
_chemical_formula_structural   LaAg(PO3)4
_chemical_formula_sum   'La4 Ag4 P16 O48'
_cell_volume   1011.70858753
_cell_formula_units_Z   4
loop_
 _symmetry_equiv_pos_site_id
 _symmetry_equiv_pos_as_xyz
  1  'x, y, z'
loop_
 _atom_site_type_symbol
 _atom_site_label
 _atom_site_symmetry_multiplicity
 _atom_site_fract_x
 _atom_site_fract_y
 _atom_site_fract_z
 _atom_site_occupancy
  La  La0  1  0.28292100  0.53617800  0.47706800  1
  La  La1  1  0.21707900  0.53617800  0.97706800  1
  La  La2  1  0.78292100  0.46382200  0.02293200  1
  La  La3  1  0.71707900  0.46382200  0.52293200  1
  Ag  Ag0  1  0.72207900  0.06787800  0.43257300  1
  Ag  Ag1  1  0.77792100  0.06787800  0.93257300  1
  Ag  Ag2  1  0.27792100  0.93212200  0.56742700  1
  Ag  Ag3  1  0.22207900  0.93212200  0.06742700  1
  P  P0  1  0.11323000  0.11795200  0.76257300  1
  P  P1  1  0.88677000  0.88204800  0.23742700  1
  P  P2  1  0.90185900  0.99242400  0.75423400  1
  P  P3  1  0.40185900  0.00757600  0.74576600  1
  P  P4  1  0.61323000  0.88204800  0.73742700  1
  P  P5  1  0.41123800  0.56787400  0.19856200  1
  P  P6  1  0.12594600  0.33775100  0.30602800  1
  P  P7  1  0.08876200  0.56787400  0.69856200  1
  P  P8  1  0.59814100  0.99242400  0.25423400  1
  P  P9  1  0.37405400  0.33775100  0.80602800  1
  P  P10  1  0.87405400  0.66224900  0.69397200  1
  P  P11  1  0.62594600  0.66224900  0.19397200  1
  P  P12  1  0.58876200  0.43212600  0.80143800  1
  P  P13  1  0.38677000  0.11795200  0.26257300  1
  P  P14  1  0.91123800  0.43212600  0.30143800  1
  P  P15  1  0.09814100  0.00757600  0.24576600  1
  O  O0  1  0.10372200  0.19191700  0.10097000  1
  O  O1  1  0.16369800  0.80638700  0.29671700  1
  O  O2  1  0.38074300  0.09549200  0.83434800  1
  O  O3  1  0.60871200  0.36998200  0.70904900  1
  O  O4  1  0.84125400  0.34773600  0.41525900  1
  O  O5  1  0.39128800  0.63001800  0.29095100  1
  O  O6  1  0.60372200  0.80808300  0.39903000  1
  O  O7  1  0.52160300  0.64705400  0.13553800  1
  O  O8  1  0.83630200  0.19361300  0.70328300  1
  O  O9  1  0.07847600  0.29982700  0.78669000  1
  O  O10  1  0.98583800  0.92127900  0.29269300  1
  O  O11  1  0.70676600  0.68137500  0.10458700  1
  O  O12  1  0.35870600  0.91105900  0.39483800  1
  O  O13  1  0.92152400  0.70017300  0.21331000  1
  O  O14  1  0.86710300  0.48372200  0.83895500  1
  O  O15  1  0.51416200  0.92127900  0.79269300  1
  O  O16  1  0.01416200  0.07872100  0.70730700  1
  O  O17  1  0.47839700  0.35294600  0.86446200  1
  O  O18  1  0.13289700  0.51627800  0.16104500  1
  O  O19  1  0.31152700  0.21570900  0.15416600  1
  O  O20  1  0.63289700  0.48372200  0.33895500  1
  O  O21  1  0.02160300  0.35294600  0.36446200  1
  O  O22  1  0.66369800  0.19361300  0.20328300  1
  O  O23  1  0.79323400  0.68137500  0.60458700  1
  O  O24  1  0.81152700  0.78429100  0.34583400  1
  O  O25  1  0.18847300  0.21570900  0.65416600  1
  O  O26  1  0.29323400  0.31862500  0.89541300  1
  O  O27  1  0.85870600  0.08894100  0.10516200  1
  O  O28  1  0.65874600  0.34773600  0.91525900  1
  O  O29  1  0.39627800  0.19191700  0.60097000  1
  O  O30  1  0.36710300  0.51627800  0.66104500  1
  O  O31  1  0.89128800  0.36998200  0.20904900  1
  O  O32  1  0.97839700  0.64705400  0.63553800  1
  O  O33  1  0.14129400  0.91105900  0.89483800  1
  O  O34  1  0.68847300  0.78429100  0.84583400  1
  O  O35  1  0.34125400  0.65226400  0.08474100  1
  O  O36  1  0.42152400  0.29982700  0.28669000  1
  O  O37  1  0.15874600  0.65226400  0.58474100  1
  O  O38  1  0.64129400  0.08894100  0.60516200  1
  O  O39  1  0.33630200  0.80638700  0.79671700  1
  O  O40  1  0.61925700  0.90450800  0.16565200  1
  O  O41  1  0.89627800  0.80808300  0.89903000  1
  O  O42  1  0.48583800  0.07872100  0.20730700  1
  O  O43  1  0.88074300  0.90450800  0.66565200  1
  O  O44  1  0.20676600  0.31862500  0.39541300  1
  O  O45  1  0.10871200  0.63001800  0.79095100  1
  O  O46  1  0.11925700  0.09549200  0.33434800  1
  O  O47  1  0.57847600  0.70017300  0.71331000  1
loop_
_geom_bond_atom_site_label_1
_geom_bond_atom_site_label_2
_geom_bond_distance
_geom_bond_site_symmetry_2
La0 O25 2.451118 1_555
La0 O5 2.480818 1_555
La0 O30 2.496509 1_555
La0 O1 2.527297 1_555
La0 O12 2.541215 1_555
La0 O29 2.567904 1_555
La0 O44 2.573994 1_555
La0 O37 2.588700 1_555
La1 O19 2.451118 1_556
La1 O45 2.480818 1_555
La1 O18 2.496509 1_556
La1 O39 2.527297 1_555
La1 O33 2.541215 1_555
La1 O0 2.567904 1_556
La1 O26 2.573994 1_555
La1 O35 2.588700 1_556
La2 O34 2.451118 1_554
La2 O31 2.480818 1_555
La2 O14 2.496509 1_554
La2 O22 2.527297 1_555
La2 O27 2.541215 1_555
La2 O41 2.567904 1_554
La2 O11 2.573994 1_555
La2 O28 2.588700 1_554
La3 O24 2.451118 1_555
La3 O3 2.480818 1_555
La3 O20 2.496509 1_555
La3 O8 2.527297 1_555
La3 O38 2.541215 1_555
La3 O6 2.567904 1_555
La3 O23 2.573994 1_555
La3 O4 2.588700 1_555
Ag0 O38 2.507691 1_555
Ag0 O4 2.524698 1_555
Ag0 O23 2.556906 1_545
Ag0 O22 2.574641 1_555
Ag0 O6 2.711220 1_545
Ag0 O20 2.840223 1_555
Ag1 O27 2.507691 1_556
Ag1 O28 2.524698 1_555
Ag1 O11 2.556906 1_546
Ag1 O8 2.574641 1_555
Ag1 O41 2.711220 1_545
Ag1 O14 2.840223 1_555
Ag2 O12 2.507691 1_555
Ag2 O37 2.524698 1_555
Ag2 O44 2.556906 1_565
Ag2 O39 2.574641 1_555
Ag2 O29 2.711220 1_565
Ag2 O30 2.840223 1_555
Ag3 O33 2.507691 1_554
Ag3 O35 2.524698 1_555
Ag3 O26 2.556906 1_564
Ag3 O1 2.574641 1_555
Ag3 O0 2.711220 1_565
Ag3 O18 2.840223 1_555
O0 P15 1.506639 1_555
O1 P15 1.512759 1_565
O2 P3 1.608937 1_555
O2 P9 1.615281 1_555
O3 P12 1.501218 1_555
O4 P14 1.506120 1_555
O5 P5 1.501218 1_555
O6 P8 1.506639 1_555
O7 P11 1.614396 1_555
O7 P5 1.618167 1_555
O8 P2 1.512759 1_545
O9 P0 1.613068 1_555
O9 P7 1.617334 1_555
O10 P1 1.602372 1_555
O10 P15 1.607540 1_665
O11 P11 1.506110 1_555
O12 P13 1.506639 1_565
O13 P1 1.613068 1_555
O13 P14 1.617334 1_555
O14 P10 1.501260 1_555
O15 P4 1.602372 1_555
O15 P3 1.607540 1_565
O16 P0 1.602372 1_555
O16 P2 1.607540 1_445
O17 P9 1.614396 1_555
O17 P12 1.618167 1_555
O18 P6 1.501260 1_555
O19 P13 1.497282 1_555
O20 P11 1.501260 1_555
O21 P6 1.614396 1_555
O21 P14 1.618167 1_455
O22 P8 1.512759 1_545
O23 P10 1.506110 1_555
O24 P1 1.497282 1_555
O25 P0 1.497282 1_555
O26 P9 1.506110 1_555
O27 P1 1.506639 1_545
O28 P12 1.506120 1_555
O29 P3 1.506639 1_555
O30 P9 1.501260 1_555
O31 P14 1.501218 1_555
O32 P10 1.614396 1_555
O32 P7 1.618167 1_655
O33 P0 1.506639 1_565
O34 P4 1.497282 1_555
O35 P5 1.506120 1_555
O36 P13 1.613068 1_555
O36 P5 1.617334 1_555
O37 P7 1.506120 1_555
O38 P4 1.506639 1_545
O39 P3 1.512759 1_565
O40 P8 1.608937 1_555
O40 P11 1.615281 1_555
O41 P2 1.506639 1_555
O42 P13 1.602372 1_555
O42 P8 1.607540 1_545
O43 P2 1.608937 1_555
O43 P10 1.615281 1_555
O44 P6 1.506110 1_555
O45 P7 1.501218 1_555
O46 P15 1.608937 1_555
O46 P6 1.615281 1_555
O47 P4 1.613068 1_555
O47 P12 1.617334 1_555
