# generated using pymatgen
data_Np3Se4
_symmetry_space_group_name_H-M   'P 1'
_cell_length_a   7.27585700
_cell_length_b   7.27585700
_cell_length_c   7.27585700
_cell_angle_alpha   109.47122063
_cell_angle_beta   109.47122063
_cell_angle_gamma   109.47122063
_symmetry_Int_Tables_number   1
_chemical_formula_structural   Np3Se4
_chemical_formula_sum   'Np6 Se8'
_cell_volume   296.50401222
_cell_formula_units_Z   2
loop_
 _symmetry_equiv_pos_site_id
 _symmetry_equiv_pos_as_xyz
  1  'x, y, z'
loop_
 _atom_site_type_symbol
 _atom_site_label
 _atom_site_symmetry_multiplicity
 _atom_site_fract_x
 _atom_site_fract_y
 _atom_site_fract_z
 _atom_site_occupancy
  Np  Np0  1  0.25000000  0.12500000  0.87500000  1
  Np  Np1  1  0.12500000  0.87500000  0.25000000  1
  Np  Np2  1  0.75000000  0.37500000  0.62500000  1
  Np  Np3  1  0.87500000  0.25000000  0.12500000  1
  Np  Np4  1  0.62500000  0.75000000  0.37500000  1
  Np  Np5  1  0.37500000  0.62500000  0.75000000  1
  Se  Se0  1  0.50000000  0.00000000  0.65361200  1
  Se  Se1  1  0.00000000  0.65361200  0.50000000  1
  Se  Se2  1  0.65361200  0.50000000  0.00000000  1
  Se  Se3  1  0.00000000  0.15361200  0.50000000  1
  Se  Se4  1  0.84638800  0.84638800  0.84638800  1
  Se  Se5  1  0.34638800  0.34638800  0.34638800  1
  Se  Se6  1  0.15361200  0.50000000  0.00000000  1
  Se  Se7  1  0.50000000  0.00000000  0.15361200  1
loop_
_geom_bond_atom_site_label_1
_geom_bond_atom_site_label_2
_geom_bond_distance
_geom_bond_site_symmetry_2
Np0 Se3 2.849363 1_555
Np0 Se2 2.849363 1_556
Np0 Se7 2.849363 1_556
Np0 Se4 2.849363 1_445
Np0 Se5 2.968157 1_556
Np0 Se6 2.968157 1_556
Np0 Se1 2.968157 1_545
Np0 Se0 2.968157 1_555
Np1 Se6 2.849363 1_555
Np1 Se0 2.849363 1_565
Np1 Se3 2.849363 1_565
Np1 Se4 2.849363 1_454
Np1 Se5 2.968157 1_565
Np1 Se1 2.968157 1_555
Np1 Se2 2.968157 1_455
Np1 Se7 2.968157 1_565
Np2 Se1 2.849363 1_655
Np2 Se0 2.849363 1_555
Np2 Se5 2.849363 1_555
Np2 Se6 2.849363 1_656
Np2 Se4 2.968157 1_555
Np2 Se2 2.968157 1_556
Np2 Se3 2.968157 1_655
Np2 Se7 2.968157 1_555
Np3 Se1 2.849363 1_655
Np3 Se7 2.849363 1_555
Np3 Se6 2.849363 1_655
Np3 Se4 2.849363 1_544
Np3 Se5 2.968157 1_655
Np3 Se2 2.968157 1_555
Np3 Se0 2.968157 1_554
Np3 Se3 2.968157 1_655
Np4 Se0 2.849363 1_565
Np4 Se2 2.849363 1_555
Np4 Se5 2.849363 1_555
Np4 Se3 2.849363 1_665
Np4 Se4 2.968157 1_555
Np4 Se6 2.968157 1_555
Np4 Se1 2.968157 1_655
Np4 Se7 2.968157 1_565
Np5 Se2 2.849363 1_556
Np5 Se1 2.849363 1_555
Np5 Se7 2.849363 1_566
Np5 Se5 2.849363 1_555
Np5 Se4 2.968157 1_555
Np5 Se6 2.968157 1_556
Np5 Se3 2.968157 1_555
Np5 Se0 2.968157 1_565
