# generated using pymatgen
data_Li3BS3
_symmetry_space_group_name_H-M   'P 1'
_cell_length_a   6.13139567
_cell_length_b   8.13225779
_cell_length_c   10.06507169
_cell_angle_alpha   90.00000000
_cell_angle_beta   90.00000000
_cell_angle_gamma   90.00000000
_symmetry_Int_Tables_number   1
_chemical_formula_structural   Li3BS3
_chemical_formula_sum   'Li12 B4 S12'
_cell_volume   501.86551249
_cell_formula_units_Z   4
loop_
 _symmetry_equiv_pos_site_id
 _symmetry_equiv_pos_as_xyz
  1  'x, y, z'
loop_
 _atom_site_type_symbol
 _atom_site_label
 _atom_site_symmetry_multiplicity
 _atom_site_fract_x
 _atom_site_fract_y
 _atom_site_fract_z
 _atom_site_occupancy
  Li  Li0  1  0.60502080  0.66881040  0.99053897  1
  Li  Li1  1  0.10502080  0.83118960  0.00946103  1
  Li  Li2  1  0.89497920  0.16881040  0.50946103  1
  Li  Li3  1  0.39497920  0.33118960  0.49053897  1
  Li  Li4  1  0.39497920  0.33118960  0.00946103  1
  Li  Li5  1  0.89497920  0.16881040  0.99053897  1
  Li  Li6  1  0.10502080  0.83118960  0.49053897  1
  Li  Li7  1  0.60502080  0.66881040  0.50946103  1
  Li  Li8  1  0.54614627  0.99511647  0.75000000  1
  Li  Li9  1  0.04614627  0.50488353  0.25000000  1
  Li  Li10  1  0.95385373  0.49511647  0.75000000  1
  Li  Li11  1  0.45385373  0.00488353  0.25000000  1
  B  B0  1  0.88300305  0.87994381  0.25000000  1
  B  B1  1  0.38300305  0.62005619  0.75000000  1
  B  B2  1  0.61699695  0.37994381  0.25000000  1
  B  B3  1  0.11699695  0.12005619  0.75000000  1
  S  S0  1  0.74148494  0.92083842  0.09344529  1
  S  S1  1  0.24148494  0.57916158  0.90655471  1
  S  S2  1  0.75851506  0.42083842  0.40655471  1
  S  S3  1  0.25851506  0.07916158  0.59344529  1
  S  S4  1  0.25851506  0.07916158  0.90655471  1
  S  S5  1  0.75851506  0.42083842  0.09344529  1
  S  S6  1  0.24148494  0.57916158  0.59344529  1
  S  S7  1  0.74148494  0.92083842  0.40655471  1
  S  S8  1  0.83969426  0.20306952  0.75000000  1
  S  S9  1  0.33969426  0.29693048  0.25000000  1
  S  S10  1  0.66030574  0.70306952  0.75000000  1
  S  S11  1  0.16030574  0.79693048  0.25000000  1
loop_
_geom_bond_atom_site_label_1
_geom_bond_atom_site_label_2
_geom_bond_distance
_geom_bond_site_symmetry_2
Li0 S0 2.444090 1_556
Li0 S5 2.454607 1_556
Li0 S10 2.460481 1_555
Li0 S1 2.492873 1_555
Li1 S1 2.444090 1_554
Li1 S4 2.454607 1_564
Li1 S11 2.460481 1_555
Li1 S0 2.492873 1_455
Li2 S2 2.444090 1_555
Li2 S7 2.454607 1_545
Li2 S8 2.460481 1_555
Li2 S3 2.492873 1_655
Li3 S3 2.444090 1_555
Li3 S6 2.454607 1_555
Li3 S9 2.460481 1_555
Li3 S2 2.492873 1_555
Li4 S4 2.444090 1_554
Li4 S1 2.454607 1_554
Li4 S9 2.460481 1_555
Li4 S5 2.492873 1_555
Li5 S5 2.444090 1_556
Li5 S0 2.454607 1_546
Li5 S8 2.460481 1_555
Li5 S4 2.492873 1_655
Li6 S6 2.444090 1_555
Li6 S3 2.454607 1_565
Li6 S11 2.460481 1_555
Li6 S7 2.492873 1_455
Li7 S7 2.444090 1_555
Li7 S2 2.454607 1_555
Li7 S10 2.460481 1_555
Li7 S6 2.492873 1_555
Li8 S4 2.461767 1_565
Li8 S3 2.461767 1_565
Li8 S8 2.469697 1_565
Li8 S10 2.475999 1_555
Li9 S2 2.461767 1_455
Li9 S5 2.461767 1_455
Li9 S9 2.469697 1_555
Li9 S11 2.475999 1_555
Li10 S1 2.461767 1_655
Li10 S6 2.461767 1_655
Li10 S10 2.469697 1_555
Li10 S8 2.475999 1_555
Li11 S0 2.461767 1_545
Li11 S7 2.461767 1_545
Li11 S11 2.469697 1_545
Li11 S9 2.475999 1_555
B0 S7 1.829330 1_555
B0 S0 1.829330 1_555
B0 S11 1.829371 1_655
B1 S6 1.829330 1_555
B1 S1 1.829330 1_555
B1 S10 1.829371 1_555
B2 S2 1.829330 1_555
B2 S5 1.829330 1_555
B2 S9 1.829371 1_555
B3 S4 1.829330 1_555
B3 S3 1.829330 1_555
B3 S8 1.829371 1_455
