# generated using pymatgen
data_K3VSO3
_symmetry_space_group_name_H-M   'P 1'
_cell_length_a   5.99378400
_cell_length_b   6.70663800
_cell_length_c   8.86381029
_cell_angle_alpha   77.36141707
_cell_angle_beta   90.00000000
_cell_angle_gamma   90.00000000
_symmetry_Int_Tables_number   1
_chemical_formula_structural   K3VSO3
_chemical_formula_sum   'K6 V2 S2 O6'
_cell_volume   347.67519620
_cell_formula_units_Z   2
loop_
 _symmetry_equiv_pos_site_id
 _symmetry_equiv_pos_as_xyz
  1  'x, y, z'
loop_
 _atom_site_type_symbol
 _atom_site_label
 _atom_site_symmetry_multiplicity
 _atom_site_fract_x
 _atom_site_fract_y
 _atom_site_fract_z
 _atom_site_occupancy
  K  K0  1  0.75000000  0.68722100  0.46802400  1
  K  K1  1  0.25000000  0.24671700  0.00317400  1
  K  K2  1  0.25000000  0.31277900  0.53197600  1
  K  K3  1  0.75000000  0.75328300  0.99682600  1
  K  K4  1  0.25000000  0.78091500  0.72169600  1
  K  K5  1  0.75000000  0.21908500  0.27830400  1
  V  V0  1  0.75000000  0.30398800  0.79090600  1
  V  V1  1  0.25000000  0.69601200  0.20909400  1
  S  S0  1  0.75000000  0.05801700  0.65235800  1
  S  S1  1  0.25000000  0.94198300  0.34764200  1
  O  O0  1  0.25000000  0.80736300  0.01445500  1
  O  O1  1  0.75000000  0.19263700  0.98554500  1
  O  O2  1  0.98389500  0.45408500  0.74229800  1
  O  O3  1  0.01610500  0.54591500  0.25770200  1
  O  O4  1  0.51610500  0.45408500  0.74229800  1
  O  O5  1  0.48389500  0.54591500  0.25770200  1
loop_
_geom_bond_atom_site_label_1
_geom_bond_atom_site_label_2
_geom_bond_distance
_geom_bond_site_symmetry_2
K0 O3 2.773198 1_655
K0 O5 2.773198 1_555
K0 O2 2.942277 1_555
K0 O4 2.942277 1_555
K0 S0 3.260649 1_565
K0 S1 3.498776 1_655
K0 S1 3.498776 1_555
K1 O4 2.901349 1_554
K1 O2 2.901349 1_454
K1 O0 2.926337 1_545
K1 O1 3.026901 1_454
K1 O1 3.026901 1_554
K1 S1 3.281587 1_545
K2 O4 2.773198 1_555
K2 O2 2.773198 1_455
K2 O5 2.942277 1_555
K2 O3 2.942277 1_555
K2 S1 3.260649 1_545
K2 S0 3.498776 1_455
K2 S0 3.498776 1_555
K3 O3 2.901349 1_656
K3 O5 2.901349 1_556
K3 O1 2.926337 1_565
K3 O0 3.026901 1_556
K3 O0 3.026901 1_656
K3 S0 3.281587 1_565
K4 O0 2.639451 1_556
K4 O4 2.684529 1_555
K4 O2 2.684529 1_455
K4 S1 3.254602 1_555
K4 S0 3.508990 1_565
K4 S0 3.508990 1_465
K5 O1 2.639451 1_554
K5 O3 2.684529 1_655
K5 O5 2.684529 1_555
K5 S0 3.254602 1_555
K5 S1 3.508990 1_645
K5 S1 3.508990 1_545
S0 V0 2.261850 1_555
S1 V1 2.261850 1_555
O0 V1 1.723473 1_555
O1 V0 1.723473 1_555
O2 V0 1.724687 1_555
O3 V1 1.724687 1_555
O4 V0 1.724687 1_555
O5 V1 1.724687 1_555
