# generated using pymatgen
data_U(HO2)2
_symmetry_space_group_name_H-M   'P 1'
_cell_length_a   5.91189100
_cell_length_b   6.17161900
_cell_length_c   9.88498500
_cell_angle_alpha   90.00000000
_cell_angle_beta   90.00000000
_cell_angle_gamma   90.00000000
_symmetry_Int_Tables_number   1
_chemical_formula_structural   U(HO2)2
_chemical_formula_sum   'U4 H8 O16'
_cell_volume   360.66295796
_cell_formula_units_Z   4
loop_
 _symmetry_equiv_pos_site_id
 _symmetry_equiv_pos_as_xyz
  1  'x, y, z'
loop_
 _atom_site_type_symbol
 _atom_site_label
 _atom_site_symmetry_multiplicity
 _atom_site_fract_x
 _atom_site_fract_y
 _atom_site_fract_z
 _atom_site_occupancy
  U  U0  1  0.00000000  0.00000000  0.00000000  1
  U  U1  1  0.50000000  0.50000000  0.00000000  1
  U  U2  1  0.00000000  0.50000000  0.50000000  1
  U  U3  1  0.50000000  0.00000000  0.50000000  1
  H  H0  1  0.16337900  0.33702000  0.17270600  1
  H  H1  1  0.66337900  0.16298000  0.82729400  1
  H  H2  1  0.83662100  0.83702000  0.32729400  1
  H  H3  1  0.33662100  0.66298000  0.67270600  1
  H  H4  1  0.83662100  0.66298000  0.82729400  1
  H  H5  1  0.33662100  0.83702000  0.17270600  1
  H  H6  1  0.16337900  0.16298000  0.67270600  1
  H  H7  1  0.66337900  0.33702000  0.32729400  1
  O  O0  1  0.12909000  0.46664000  0.33314400  1
  O  O1  1  0.62909000  0.03336000  0.66685600  1
  O  O2  1  0.87091000  0.96664000  0.16685600  1
  O  O3  1  0.37091000  0.53336000  0.83314400  1
  O  O4  1  0.87091000  0.53336000  0.66685600  1
  O  O5  1  0.37091000  0.96664000  0.33314400  1
  O  O6  1  0.12909000  0.03336000  0.83314400  1
  O  O7  1  0.62909000  0.46664000  0.16685600  1
  O  O8  1  0.19191300  0.29743000  0.07659400  1
  O  O9  1  0.69191300  0.20257000  0.92340600  1
  O  O10  1  0.80808700  0.79743000  0.42340600  1
  O  O11  1  0.30808700  0.70257000  0.57659400  1
  O  O12  1  0.80808700  0.70257000  0.92340600  1
  O  O13  1  0.30808700  0.79743000  0.07659400  1
  O  O14  1  0.19191300  0.20257000  0.57659400  1
  O  O15  1  0.69191300  0.29743000  0.42340600  1
loop_
_geom_bond_atom_site_label_1
_geom_bond_atom_site_label_2
_geom_bond_distance
_geom_bond_site_symmetry_2
H0 O8 0.995380 1_555
H1 O9 0.995380 1_555
H2 O10 0.995380 1_555
H3 O11 0.995380 1_555
H4 O12 0.995380 1_555
H5 O13 0.995380 1_555
H6 O14 0.995380 1_555
H7 O15 0.995380 1_555
O0 U2 1.828997 1_555
O1 U3 1.828997 1_555
O2 U0 1.828997 1_665
O3 U1 1.828997 1_556
O4 U2 1.828997 1_655
O5 U3 1.828997 1_565
O6 U0 1.828997 1_556
O7 U1 1.828997 1_555
O8 U0 2.286922 1_555
O8 U1 2.335299 1_555
O9 U1 2.286922 1_556
O9 U0 2.335299 1_656
O10 U2 2.286922 1_655
O10 U3 2.335299 1_565
O11 U3 2.286922 1_565
O11 U2 2.335299 1_555
O12 U0 2.286922 1_666
O12 U1 2.335299 1_556
O13 U1 2.286922 1_555
O13 U0 2.335299 1_565
O14 U2 2.286922 1_555
O14 U3 2.335299 1_555
O15 U3 2.286922 1_555
O15 U2 2.335299 1_655
