# generated using pymatgen
data_KMo2P3O13
_symmetry_space_group_name_H-M   'P 1'
_cell_length_a   9.02633731
_cell_length_b   9.02633731
_cell_length_c   9.02546592
_cell_angle_alpha   68.98362688
_cell_angle_beta   68.98362688
_cell_angle_gamma   105.44874329
_symmetry_Int_Tables_number   1
_chemical_formula_structural   KMo2P3O13
_chemical_formula_sum   'K2 Mo4 P6 O26'
_cell_volume   571.15455704
_cell_formula_units_Z   2
loop_
 _symmetry_equiv_pos_site_id
 _symmetry_equiv_pos_as_xyz
  1  'x, y, z'
loop_
 _atom_site_type_symbol
 _atom_site_label
 _atom_site_symmetry_multiplicity
 _atom_site_fract_x
 _atom_site_fract_y
 _atom_site_fract_z
 _atom_site_occupancy
  K  K0  1  0.50000000  0.00000000  0.00000000  1
  K  K1  1  0.00000000  0.50000000  0.50000000  1
  Mo  Mo0  1  0.16134000  0.32670900  0.83178000  1
  Mo  Mo1  1  0.32670900  0.16134000  0.33178000  1
  Mo  Mo2  1  0.67329100  0.83866000  0.66822000  1
  Mo  Mo3  1  0.83866000  0.67329100  0.16822000  1
  P  P0  1  0.98832700  0.01167300  0.75000000  1
  P  P1  1  0.64978500  0.23948400  0.43714900  1
  P  P2  1  0.23948400  0.64978500  0.93714900  1
  P  P3  1  0.76051600  0.35021500  0.06285100  1
  P  P4  1  0.01167300  0.98832700  0.25000000  1
  P  P5  1  0.35021500  0.76051600  0.56285100  1
  O  O0  1  0.99633600  0.89619600  0.91755400  1
  O  O1  1  0.94344500  0.79325000  0.28894600  1
  O  O2  1  0.80168400  0.53844300  0.03391900  1
  O  O3  1  0.79325000  0.94344500  0.78894600  1
  O  O4  1  0.10379800  0.65305600  0.09211400  1
  O  O5  1  0.35130500  0.30308200  0.76991700  1
  O  O6  1  0.43010000  0.74710100  0.89960900  1
  O  O7  1  0.00366400  0.10380400  0.08244600  1
  O  O8  1  0.30308200  0.35130500  0.26991700  1
  O  O9  1  0.64869500  0.69691800  0.23008300  1
  O  O10  1  0.10380400  0.00366400  0.58244600  1
  O  O11  1  0.65305600  0.10379800  0.59211400  1
  O  O12  1  0.56990000  0.25289900  0.10039100  1
  O  O13  1  0.05655500  0.20675000  0.71105400  1
  O  O14  1  0.25289900  0.56990000  0.60039100  1
  O  O15  1  0.20675000  0.05655500  0.21105400  1
  O  O16  1  0.53844300  0.80168400  0.53391900  1
  O  O17  1  0.89620200  0.34694400  0.90788600  1
  O  O18  1  0.89619600  0.99633600  0.41755400  1
  O  O19  1  0.46155700  0.19831600  0.46608100  1
  O  O20  1  0.34694400  0.89620200  0.40788600  1
  O  O21  1  0.19831600  0.46155700  0.96608100  1
  O  O22  1  0.76060700  0.23939300  0.25000000  1
  O  O23  1  0.74710100  0.43010000  0.39960900  1
  O  O24  1  0.69691800  0.64869500  0.73008300  1
  O  O25  1  0.23939300  0.76060700  0.75000000  1
loop_
_geom_bond_atom_site_label_1
_geom_bond_atom_site_label_2
_geom_bond_distance
_geom_bond_site_symmetry_2
K0 O6 2.748874 1_544
K0 O12 2.748874 1_555
K0 O15 2.948958 1_555
K0 O3 2.948958 1_544
K0 O20 3.086641 1_545
K0 O11 3.086641 1_554
K1 O23 2.748874 1_455
K1 O14 2.748874 1_555
K1 O13 2.948958 1_555
K1 O1 2.948958 1_455
K1 O17 3.086641 1_455
K1 O4 3.086641 1_555
Mo0 O5 1.700268 1_555
Mo0 O7 2.022890 1_556
Mo0 O21 2.047971 1_555
Mo0 O13 2.072223 1_555
Mo0 O14 2.090537 1_555
Mo0 O17 2.318720 1_455
Mo1 O8 1.700268 1_555
Mo1 O10 2.022890 1_555
Mo1 O19 2.047971 1_555
Mo1 O15 2.072223 1_555
Mo1 O12 2.090537 1_555
Mo1 O20 2.318720 1_545
Mo2 O24 1.700268 1_555
Mo2 O18 2.022890 1_555
Mo2 O16 2.047971 1_555
Mo2 O3 2.072223 1_555
Mo2 O6 2.090537 1_555
Mo2 O11 2.318720 1_565
Mo3 O9 1.700268 1_555
Mo3 O0 2.022890 1_554
Mo3 O2 2.047971 1_555
Mo3 O1 2.072223 1_555
Mo3 O23 2.090537 1_555
Mo3 O4 2.318720 1_655
O0 P0 1.538357 1_565
O1 P4 1.557695 1_655
O2 P3 1.539069 1_555
O3 P0 1.557695 1_565
O4 P2 1.509063 1_554
O6 P2 1.552401 1_555
O7 P4 1.538357 1_545
O10 P0 1.538357 1_455
O11 P1 1.509063 1_555
O12 P3 1.552401 1_555
O13 P0 1.557695 1_455
O14 P5 1.552401 1_555
O15 P4 1.557695 1_545
O16 P5 1.539069 1_555
O17 P3 1.509063 1_556
O18 P4 1.538357 1_655
O19 P1 1.539069 1_555
O20 P5 1.509063 1_555
O21 P2 1.539069 1_555
O22 P1 1.625799 1_555
O22 P3 1.625799 1_555
O23 P1 1.552401 1_555
O25 P5 1.625799 1_555
O25 P2 1.625799 1_555
