# generated using pymatgen
data_Rb10Si6O17
_symmetry_space_group_name_H-M   'P 1'
_cell_length_a   13.01633500
_cell_length_b   13.80648200
_cell_length_c   14.00063300
_cell_angle_alpha   90.00000000
_cell_angle_beta   90.00000000
_cell_angle_gamma   90.00000000
_symmetry_Int_Tables_number   1
_chemical_formula_structural   Rb10Si6O17
_chemical_formula_sum   'Rb40 Si24 O68'
_cell_volume   2516.05088467
_cell_formula_units_Z   4
loop_
 _symmetry_equiv_pos_site_id
 _symmetry_equiv_pos_as_xyz
  1  'x, y, z'
loop_
 _atom_site_type_symbol
 _atom_site_label
 _atom_site_symmetry_multiplicity
 _atom_site_fract_x
 _atom_site_fract_y
 _atom_site_fract_z
 _atom_site_occupancy
  Rb  Rb0  1  0.47013000  0.78341300  0.85941500  1
  Rb  Rb1  1  0.71009900  0.71164000  0.06090100  1
  Rb  Rb2  1  0.14990400  0.96509300  0.46081100  1
  Rb  Rb3  1  0.06390900  0.98961900  0.77493200  1
  Rb  Rb4  1  0.56390900  0.51038100  0.22506800  1
  Rb  Rb5  1  0.85009600  0.46509300  0.03918900  1
  Rb  Rb6  1  0.20188700  0.62494000  0.70776200  1
  Rb  Rb7  1  0.28990100  0.28836000  0.93909900  1
  Rb  Rb8  1  0.56390900  0.98961900  0.72506800  1
  Rb  Rb9  1  0.52987000  0.21658700  0.14058500  1
  Rb  Rb10  1  0.97013000  0.71658700  0.14058500  1
  Rb  Rb11  1  0.47013000  0.71658700  0.35941500  1
  Rb  Rb12  1  0.02987000  0.21658700  0.35941500  1
  Rb  Rb13  1  0.78990100  0.28836000  0.56090100  1
  Rb  Rb14  1  0.29811300  0.12494000  0.70776200  1
  Rb  Rb15  1  0.52987000  0.28341300  0.64058500  1
  Rb  Rb16  1  0.71009900  0.78836000  0.56090100  1
  Rb  Rb17  1  0.64990400  0.96509300  0.03918900  1
  Rb  Rb18  1  0.93609100  0.48961900  0.72506800  1
  Rb  Rb19  1  0.64990400  0.53490700  0.53918900  1
  Rb  Rb20  1  0.06390900  0.51038100  0.27493200  1
  Rb  Rb21  1  0.79811300  0.37506000  0.29223800  1
  Rb  Rb22  1  0.79811300  0.12494000  0.79223800  1
  Rb  Rb23  1  0.29811300  0.37506000  0.20776200  1
  Rb  Rb24  1  0.28990100  0.21164000  0.43909900  1
  Rb  Rb25  1  0.97013000  0.78341300  0.64058500  1
  Rb  Rb26  1  0.78990100  0.21164000  0.06090100  1
  Rb  Rb27  1  0.14990400  0.53490700  0.96081100  1
  Rb  Rb28  1  0.20188700  0.87506000  0.20776200  1
  Rb  Rb29  1  0.21009900  0.78836000  0.93909900  1
  Rb  Rb30  1  0.70188700  0.62494000  0.79223800  1
  Rb  Rb31  1  0.43609100  0.48961900  0.77493200  1
  Rb  Rb32  1  0.70188700  0.87506000  0.29223800  1
  Rb  Rb33  1  0.43609100  0.01038100  0.27493200  1
  Rb  Rb34  1  0.35009600  0.46509300  0.46081100  1
  Rb  Rb35  1  0.21009900  0.71164000  0.43909900  1
  Rb  Rb36  1  0.35009600  0.03490700  0.96081100  1
  Rb  Rb37  1  0.93609100  0.01038100  0.22506800  1
  Rb  Rb38  1  0.85009600  0.03490700  0.53918900  1
  Rb  Rb39  1  0.02987000  0.28341300  0.85941500  1
  Si  Si0  1  0.91772000  0.90972000  0.98699000  1
  Si  Si1  1  0.44473000  0.78320900  0.11381500  1
  Si  Si2  1  0.55527000  0.21679100  0.88618500  1
  Si  Si3  1  0.05527000  0.21679100  0.61381500  1
  Si  Si4  1  0.58228000  0.40972000  0.98699000  1
  Si  Si5  1  0.71775900  0.13093000  0.31653300  1
  Si  Si6  1  0.44473000  0.71679100  0.61381500  1
  Si  Si7  1  0.28224100  0.86907000  0.68346700  1
  Si  Si8  1  0.08228000  0.09028000  0.01301000  1
  Si  Si9  1  0.21775900  0.36907000  0.68346700  1
  Si  Si10  1  0.91772000  0.59028000  0.48699000  1
  Si  Si11  1  0.05527000  0.28320900  0.11381500  1
  Si  Si12  1  0.41772000  0.90972000  0.51301000  1
  Si  Si13  1  0.21775900  0.13093000  0.18346700  1
  Si  Si14  1  0.94473000  0.78320900  0.38618500  1
  Si  Si15  1  0.28224100  0.63093000  0.18346700  1
  Si  Si16  1  0.41772000  0.59028000  0.01301000  1
  Si  Si17  1  0.08228000  0.40972000  0.51301000  1
  Si  Si18  1  0.78224100  0.63093000  0.31653300  1
  Si  Si19  1  0.58228000  0.09028000  0.48699000  1
  Si  Si20  1  0.71775900  0.36907000  0.81653300  1
  Si  Si21  1  0.78224100  0.86907000  0.81653300  1
  Si  Si22  1  0.94473000  0.71679100  0.88618500  1
  Si  Si23  1  0.55527000  0.28320900  0.38618500  1
  O  O0  1  0.35440100  0.88731000  0.41772300  1
  O  O1  1  0.03986400  0.67443900  0.82516900  1
  O  O2  1  0.35838800  0.73046400  0.18814700  1
  O  O3  1  0.14559900  0.38731000  0.41772300  1
  O  O4  1  0.34658000  0.94371300  0.60589300  1
  O  O5  1  0.38658300  0.64198700  0.54382200  1
  O  O6  1  0.53986400  0.67443900  0.67483100  1
  O  O7  1  0.85838800  0.76953600  0.81185300  1
  O  O8  1  0.17172000  0.65776800  0.13839700  1
  O  O9  1  0.28382900  0.57886800  0.28690800  1
  O  O10  1  0.51166500  0.18450000  0.45016000  1
  O  O11  1  0.78382900  0.92113200  0.71309200  1
  O  O12  1  0.51166500  0.31550000  0.95016000  1
  O  O13  1  0.64161200  0.23046400  0.31185300  1
  O  O14  1  0.71617100  0.42113200  0.71309200  1
  O  O15  1  0.15342000  0.05628700  0.10589300  1
  O  O16  1  0.34658000  0.55628700  0.10589300  1
  O  O17  1  0.84658000  0.94371300  0.89410700  1
  O  O18  1  0.46013600  0.32556100  0.32516900  1
  O  O19  1  0.01166500  0.31550000  0.54984000  1
  O  O20  1  0.85440100  0.61269000  0.58227700  1
  O  O21  1  0.21617100  0.07886800  0.28690800  1
  O  O22  1  0.78382900  0.57886800  0.21309200  1
  O  O23  1  0.15342000  0.44371300  0.60589300  1
  O  O24  1  0.14559900  0.11269000  0.91772300  1
  O  O25  1  0.84658000  0.55628700  0.39410700  1
  O  O26  1  0.98833500  0.68450000  0.45016000  1
  O  O27  1  0.32828000  0.15776800  0.13839700  1
  O  O28  1  0.11341700  0.14198700  0.54382200  1
  O  O29  1  0.98833500  0.81550000  0.95016000  1
  O  O30  1  0.01166500  0.18450000  0.04984000  1
  O  O31  1  0.67172000  0.84223200  0.86160300  1
  O  O32  1  0.71617100  0.07886800  0.21309200  1
  O  O33  1  0.00000000  0.00000000  0.00000000  1
  O  O34  1  0.53986400  0.82556100  0.17483100  1
  O  O35  1  0.50000000  0.00000000  0.50000000  1
  O  O36  1  0.85440100  0.88731000  0.08227700  1
  O  O37  1  0.65342000  0.05628700  0.39410700  1
  O  O38  1  0.67172000  0.65776800  0.36160300  1
  O  O39  1  0.61341700  0.35801300  0.45617800  1
  O  O40  1  0.46013600  0.17443900  0.82516900  1
  O  O41  1  0.82828000  0.34223200  0.86160300  1
  O  O42  1  0.32828000  0.34223200  0.63839700  1
  O  O43  1  0.96013600  0.32556100  0.17483100  1
  O  O44  1  0.48833500  0.68450000  0.04984000  1
  O  O45  1  0.48833500  0.81550000  0.54984000  1
  O  O46  1  0.61341700  0.14198700  0.95617800  1
  O  O47  1  0.00000000  0.50000000  0.50000000  1
  O  O48  1  0.50000000  0.50000000  0.00000000  1
  O  O49  1  0.96013600  0.17443900  0.67483100  1
  O  O50  1  0.65342000  0.44371300  0.89410700  1
  O  O51  1  0.11341700  0.35801300  0.04382200  1
  O  O52  1  0.35440100  0.61269000  0.91772300  1
  O  O53  1  0.64559900  0.11269000  0.58227700  1
  O  O54  1  0.38658300  0.85801300  0.04382200  1
  O  O55  1  0.88658300  0.85801300  0.45617800  1
  O  O56  1  0.82828000  0.15776800  0.36160300  1
  O  O57  1  0.64161200  0.26953600  0.81185300  1
  O  O58  1  0.21617100  0.42113200  0.78690800  1
  O  O59  1  0.35838800  0.76953600  0.68814700  1
  O  O60  1  0.64559900  0.38731000  0.08227700  1
  O  O61  1  0.28382900  0.92113200  0.78690800  1
  O  O62  1  0.14161200  0.23046400  0.18814700  1
  O  O63  1  0.17172000  0.84223200  0.63839700  1
  O  O64  1  0.85838800  0.73046400  0.31185300  1
  O  O65  1  0.03986400  0.82556100  0.32516900  1
  O  O66  1  0.14161200  0.26953600  0.68814700  1
  O  O67  1  0.88658300  0.64198700  0.95617800  1
loop_
_geom_bond_atom_site_label_1
_geom_bond_atom_site_label_2
_geom_bond_distance
_geom_bond_site_symmetry_2
O0 Si12 1.598365 1_555
O0 Rb33 2.830985 1_565
O0 Rb11 2.914003 1_555
O0 Rb2 2.932983 1_555
O0 Rb35 3.082208 1_555
O1 Si22 1.614018 1_455
O1 Rb6 2.759834 1_555
O1 Rb27 3.060916 1_555
O1 Rb25 3.125079 1_455
O1 Rb29 3.150889 1_555
O1 Rb18 3.209345 1_455
O2 Si15 1.695626 1_555
O2 Si1 1.695998 1_555
O2 Rb11 2.811037 1_555
O2 Rb28 2.865402 1_555
O3 Si17 1.598365 1_555
O3 Rb20 2.830985 1_555
O3 Rb12 2.914003 1_555
O3 Rb34 2.932983 1_555
O3 Rb24 3.082208 1_555
O4 Si12 1.663972 1_555
O4 Si7 1.715507 1_555
O4 Rb14 2.948332 1_565
O4 Rb2 3.281261 1_555
O4 Rb8 3.344838 1_555
O5 Si6 1.612380 1_555
O5 Rb34 2.746094 1_555
O5 Rb35 2.889899 1_555
O5 Rb11 2.984828 1_555
O5 Rb6 3.332140 1_555
O6 Si6 1.614018 1_555
O6 Rb30 2.759834 1_555
O6 Rb19 3.060916 1_555
O6 Rb0 3.125079 1_555
O6 Rb16 3.150889 1_555
O6 Rb31 3.209345 1_555
O7 Si21 1.695626 1_555
O7 Si22 1.695998 1_555
O7 Rb25 2.811037 1_555
O7 Rb30 2.865402 1_555
O8 Si15 1.613994 1_555
O8 Rb10 2.746925 1_455
O8 Rb27 3.023204 1_554
O8 Rb20 3.124770 1_555
O8 Rb28 3.177665 1_555
O8 Rb29 3.359492 1_554
O9 Si15 1.616938 1_555
O9 Rb35 2.970102 1_555
O9 Rb20 3.019340 1_555
O9 Rb34 3.023166 1_555
O9 Rb23 3.029903 1_555
O9 Rb11 3.244427 1_555
O10 Si19 1.674194 1_555
O10 Si23 1.726758 1_555
O10 Rb24 2.914890 1_555
O10 Rb15 3.004839 1_555
O11 Si21 1.616938 1_555
O11 Rb16 2.970102 1_555
O11 Rb8 3.019340 1_555
O11 Rb38 3.023166 1_565
O11 Rb22 3.029903 1_565
O11 Rb25 3.244427 1_555
O12 Si4 1.674194 1_555
O12 Si2 1.726758 1_555
O12 Rb7 2.914890 1_555
O12 Rb9 3.004839 1_556
O13 Si5 1.695626 1_555
O13 Si23 1.695998 1_555
O13 Rb9 2.811037 1_555
O13 Rb21 2.865402 1_555
O14 Si20 1.616938 1_555
O14 Rb13 2.970102 1_555
O14 Rb18 3.019340 1_555
O14 Rb19 3.023166 1_555
O14 Rb30 3.029903 1_555
O14 Rb15 3.244427 1_555
O15 Si8 1.663972 1_555
O15 Si13 1.715507 1_555
O15 Rb28 2.948332 1_545
O15 Rb36 3.281261 1_554
O15 Rb37 3.344838 1_455
O16 Si16 1.663972 1_555
O16 Si15 1.715507 1_555
O16 Rb23 2.948332 1_555
O16 Rb27 3.281261 1_554
O16 Rb4 3.344838 1_555
O17 Si0 1.663972 1_555
O17 Si21 1.715507 1_555
O17 Rb22 2.948332 1_565
O17 Rb17 3.281261 1_556
O17 Rb3 3.344838 1_655
O18 Si23 1.614018 1_555
O18 Rb23 2.759834 1_555
O18 Rb34 3.060916 1_555
O18 Rb9 3.125079 1_555
O18 Rb24 3.150889 1_555
O18 Rb4 3.209345 1_555
O19 Si17 1.674194 1_555
O19 Si3 1.726758 1_555
O19 Rb13 2.914890 1_455
O19 Rb12 3.004839 1_555
O20 Si10 1.598365 1_555
O20 Rb18 2.830985 1_555
O20 Rb25 2.914003 1_555
O20 Rb19 2.932983 1_555
O20 Rb16 3.082208 1_555
O21 Si13 1.616938 1_555
O21 Rb24 2.970102 1_555
O21 Rb33 3.019340 1_555
O21 Rb2 3.023166 1_545
O21 Rb28 3.029903 1_545
O21 Rb12 3.244427 1_555
O22 Si18 1.616938 1_555
O22 Rb1 2.970102 1_555
O22 Rb4 3.019340 1_555
O22 Rb5 3.023166 1_555
O22 Rb21 3.029903 1_555
O22 Rb10 3.244427 1_555
O23 Si17 1.663972 1_555
O23 Si9 1.715507 1_555
O23 Rb6 2.948332 1_555
O23 Rb34 3.281261 1_555
O23 Rb18 3.344838 1_455
O24 Si8 1.598365 1_556
O24 Rb3 2.830985 1_545
O24 Rb39 2.914003 1_555
O24 Rb36 2.932983 1_555
O24 Rb7 3.082208 1_555
O25 Si10 1.663972 1_555
O25 Si18 1.715507 1_555
O25 Rb21 2.948332 1_555
O25 Rb19 3.281261 1_555
O25 Rb20 3.344838 1_655
O26 Si10 1.674194 1_555
O26 Si14 1.726758 1_555
O26 Rb35 2.914890 1_655
O26 Rb25 3.004839 1_555
O27 Si13 1.613994 1_555
O27 Rb9 2.746925 1_555
O27 Rb36 3.023204 1_554
O27 Rb33 3.124770 1_555
O27 Rb23 3.177665 1_555
O27 Rb7 3.359492 1_554
O28 Si3 1.612380 1_555
O28 Rb2 2.746094 1_545
O28 Rb24 2.889899 1_555
O28 Rb12 2.984828 1_555
O28 Rb14 3.332140 1_555
O29 Si0 1.674194 1_555
O29 Si22 1.726758 1_555
O29 Rb29 2.914890 1_655
O29 Rb10 3.004839 1_556
O30 Si8 1.674194 1_555
O30 Si11 1.726758 1_555
O30 Rb26 2.914890 1_455
O30 Rb39 3.004839 1_554
O31 Si21 1.613994 1_555
O31 Rb0 2.746925 1_555
O31 Rb17 3.023204 1_556
O31 Rb8 3.124770 1_555
O31 Rb30 3.177665 1_555
O31 Rb1 3.359492 1_556
O32 Si5 1.616938 1_555
O32 Rb26 2.970102 1_555
O32 Rb37 3.019340 1_555
O32 Rb17 3.023166 1_545
O32 Rb32 3.029903 1_545
O32 Rb9 3.244427 1_555
O33 Si0 1.653427 1_444
O33 Si8 1.653427 1_555
O33 Rb37 3.262197 1_455
O33 Rb3 3.262197 1_544
O34 Si1 1.614018 1_555
O34 Rb32 2.759834 1_555
O34 Rb17 3.060916 1_555
O34 Rb11 3.125079 1_555
O34 Rb1 3.150889 1_555
O34 Rb33 3.209345 1_565
O35 Si12 1.653427 1_545
O35 Si19 1.653427 1_555
O35 Rb8 3.262197 1_545
O35 Rb33 3.262197 1_555
O36 Si0 1.598365 1_554
O36 Rb37 2.830985 1_565
O36 Rb10 2.914003 1_555
O36 Rb17 2.932983 1_555
O36 Rb1 3.082208 1_555
O37 Si19 1.663972 1_555
O37 Si5 1.715507 1_555
O37 Rb32 2.948332 1_545
O37 Rb38 3.281261 1_555
O37 Rb33 3.344838 1_555
O38 Si18 1.613994 1_555
O38 Rb11 2.746925 1_555
O38 Rb19 3.023204 1_555
O38 Rb4 3.124770 1_555
O38 Rb32 3.177665 1_555
O38 Rb16 3.359492 1_555
O39 Si23 1.612380 1_555
O39 Rb19 2.746094 1_555
O39 Rb13 2.889899 1_555
O39 Rb15 2.984828 1_555
O39 Rb21 3.332140 1_555
O40 Si2 1.614018 1_555
O40 Rb14 2.759834 1_555
O40 Rb36 3.060916 1_555
O40 Rb15 3.125079 1_555
O40 Rb7 3.150889 1_555
O40 Rb8 3.209345 1_545
O41 Si20 1.613994 1_555
O41 Rb39 2.746925 1_655
O41 Rb5 3.023204 1_556
O41 Rb18 3.124770 1_555
O41 Rb22 3.177665 1_555
O41 Rb26 3.359492 1_556
O42 Si9 1.613994 1_555
O42 Rb15 2.746925 1_555
O42 Rb34 3.023204 1_555
O42 Rb31 3.124770 1_555
O42 Rb14 3.177665 1_555
O42 Rb24 3.359492 1_555
O43 Si11 1.614018 1_655
O43 Rb21 2.759834 1_555
O43 Rb5 3.060916 1_555
O43 Rb12 3.125079 1_655
O43 Rb26 3.150889 1_555
O43 Rb20 3.209345 1_655
O44 Si16 1.674194 1_555
O44 Si1 1.726758 1_555
O44 Rb1 2.914890 1_555
O44 Rb0 3.004839 1_554
O45 Si12 1.674194 1_555
O45 Si6 1.726758 1_555
O45 Rb16 2.914890 1_555
O45 Rb11 3.004839 1_555
O46 Si2 1.612380 1_555
O46 Rb17 2.746094 1_546
O46 Rb26 2.889899 1_556
O46 Rb9 2.984828 1_556
O46 Rb22 3.332140 1_555
O47 Si10 1.653427 1_455
O47 Si17 1.653427 1_555
O47 Rb18 3.262197 1_455
O47 Rb20 3.262197 1_555
O48 Si4 1.653427 1_554
O48 Si16 1.653427 1_555
O48 Rb4 3.262197 1_555
O48 Rb31 3.262197 1_554
O49 Si3 1.614018 1_655
O49 Rb22 2.759834 1_555
O49 Rb38 3.060916 1_555
O49 Rb39 3.125079 1_655
O49 Rb13 3.150889 1_555
O49 Rb3 3.209345 1_645
O50 Si4 1.663972 1_555
O50 Si20 1.715507 1_555
O50 Rb30 2.948332 1_555
O50 Rb5 3.281261 1_556
O50 Rb31 3.344838 1_555
O51 Si11 1.612380 1_555
O51 Rb27 2.746094 1_554
O51 Rb7 2.889899 1_554
O51 Rb39 2.984828 1_554
O51 Rb23 3.332140 1_555
O52 Si16 1.598365 1_556
O52 Rb31 2.830985 1_555
O52 Rb0 2.914003 1_555
O52 Rb27 2.932983 1_555
O52 Rb29 3.082208 1_555
O53 Si19 1.598365 1_555
O53 Rb8 2.830985 1_545
O53 Rb15 2.914003 1_555
O53 Rb38 2.932983 1_555
O53 Rb13 3.082208 1_555
O54 Si1 1.612380 1_555
O54 Rb36 2.746094 1_564
O54 Rb29 2.889899 1_554
O54 Rb0 2.984828 1_554
O54 Rb28 3.332140 1_555
O55 Si14 1.612380 1_555
O55 Rb38 2.746094 1_565
O55 Rb16 2.889899 1_555
O55 Rb25 2.984828 1_555
O55 Rb32 3.332140 1_555
O56 Si5 1.613994 1_555
O56 Rb12 2.746925 1_655
O56 Rb38 3.023204 1_555
O56 Rb37 3.124770 1_555
O56 Rb21 3.177665 1_555
O56 Rb13 3.359492 1_555
O57 Si20 1.695626 1_555
O57 Si2 1.695998 1_555
O57 Rb15 2.811037 1_555
O57 Rb22 2.865402 1_555
O58 Si9 1.616938 1_555
O58 Rb7 2.970102 1_555
O58 Rb31 3.019340 1_555
O58 Rb27 3.023166 1_555
O58 Rb6 3.029903 1_555
O58 Rb39 3.244427 1_555
O59 Si7 1.695626 1_555
O59 Si6 1.695998 1_555
O59 Rb0 2.811037 1_555
O59 Rb6 2.865402 1_555
O60 Si4 1.598365 1_554
O60 Rb4 2.830985 1_555
O60 Rb9 2.914003 1_555
O60 Rb5 2.932983 1_555
O60 Rb26 3.082208 1_555
O61 Si7 1.616938 1_555
O61 Rb29 2.970102 1_555
O61 Rb3 3.019340 1_555
O61 Rb36 3.023166 1_565
O61 Rb14 3.029903 1_565
O61 Rb0 3.244427 1_555
O62 Si13 1.695626 1_555
O62 Si11 1.695998 1_555
O62 Rb12 2.811037 1_555
O62 Rb23 2.865402 1_555
O63 Si7 1.613994 1_555
O63 Rb25 2.746925 1_455
O63 Rb2 3.023204 1_555
O63 Rb3 3.124770 1_555
O63 Rb6 3.177665 1_555
O63 Rb35 3.359492 1_555
O64 Si18 1.695626 1_555
O64 Si14 1.695998 1_555
O64 Rb10 2.811037 1_555
O64 Rb32 2.865402 1_555
O65 Si14 1.614018 1_455
O65 Rb28 2.759834 1_555
O65 Rb2 3.060916 1_555
O65 Rb10 3.125079 1_455
O65 Rb35 3.150889 1_555
O65 Rb37 3.209345 1_465
O66 Si9 1.695626 1_555
O66 Si3 1.695998 1_555
O66 Rb39 2.811037 1_555
O66 Rb14 2.865402 1_555
O67 Si22 1.612380 1_555
O67 Rb5 2.746094 1_556
O67 Rb1 2.889899 1_556
O67 Rb10 2.984828 1_556
O67 Rb30 3.332140 1_555
