# generated using pymatgen
data_Na2PHO3
_symmetry_space_group_name_H-M   'P 1'
_cell_length_a   7.07583100
_cell_length_b   5.14129500
_cell_length_c   10.85557806
_cell_angle_alpha   64.18384321
_cell_angle_beta   90.00000000
_cell_angle_gamma   90.00000000
_symmetry_Int_Tables_number   1
_chemical_formula_structural   Na2PHO3
_chemical_formula_sum   'Na8 P4 H4 O12'
_cell_volume   355.50033242
_cell_formula_units_Z   4
loop_
 _symmetry_equiv_pos_site_id
 _symmetry_equiv_pos_as_xyz
  1  'x, y, z'
loop_
 _atom_site_type_symbol
 _atom_site_label
 _atom_site_symmetry_multiplicity
 _atom_site_fract_x
 _atom_site_fract_y
 _atom_site_fract_z
 _atom_site_occupancy
  Na  Na0  1  0.93880900  0.53056400  0.74638300  1
  Na  Na1  1  0.43880900  0.46943600  0.75361700  1
  Na  Na2  1  0.69212500  0.88128300  0.89567300  1
  Na  Na3  1  0.19212500  0.11871700  0.60432700  1
  Na  Na4  1  0.06119100  0.46943600  0.25361700  1
  Na  Na5  1  0.30787500  0.11871700  0.10432700  1
  Na  Na6  1  0.80787500  0.88128300  0.39567300  1
  Na  Na7  1  0.56119100  0.53056400  0.24638300  1
  P  P0  1  0.74049000  0.24322700  0.57329400  1
  P  P1  1  0.24049000  0.75677300  0.92670600  1
  P  P2  1  0.25951000  0.75677300  0.42670600  1
  P  P3  1  0.75951000  0.24322700  0.07329400  1
  H  H0  1  0.57039100  0.08750000  0.58628600  1
  H  H1  1  0.92960900  0.08750000  0.08628600  1
  H  H2  1  0.07039100  0.91250000  0.91371400  1
  H  H3  1  0.42960900  0.91250000  0.41371400  1
  O  O0  1  0.12544500  0.96668000  0.31521100  1
  O  O1  1  0.69058100  0.32832400  0.92562700  1
  O  O2  1  0.62544500  0.03332000  0.18478900  1
  O  O3  1  0.80941900  0.32832400  0.42562700  1
  O  O4  1  0.69282700  0.50728700  0.59909200  1
  O  O5  1  0.30941900  0.67167600  0.07437300  1
  O  O6  1  0.87455500  0.03332000  0.68478900  1
  O  O7  1  0.30717300  0.49271300  0.40090800  1
  O  O8  1  0.37455500  0.96668000  0.81521100  1
  O  O9  1  0.19058100  0.67167600  0.57437300  1
  O  O10  1  0.19282700  0.49271300  0.90090800  1
  O  O11  1  0.80717300  0.50728700  0.09909200  1
loop_
_geom_bond_atom_site_label_1
_geom_bond_atom_site_label_2
_geom_bond_distance
_geom_bond_site_symmetry_2
Na0 O4 2.401456 1_555
Na0 O10 2.407908 1_655
Na0 O6 2.414489 1_565
Na0 O9 2.450890 1_655
Na0 O1 2.487997 1_555
Na1 O10 2.401456 1_555
Na1 O4 2.407908 1_555
Na1 O8 2.414489 1_545
Na1 O1 2.450890 1_555
Na1 O9 2.487997 1_555
Na2 O11 2.353308 1_556
Na2 O8 2.381390 1_555
Na2 O6 2.441204 1_565
Na2 O1 2.457495 1_565
Na2 O1 2.717155 1_555
Na3 O7 2.353308 1_555
Na3 O6 2.381390 1_455
Na3 O8 2.441204 1_545
Na3 O9 2.457495 1_545
Na3 O9 2.717155 1_555
Na4 O7 2.401456 1_555
Na4 O11 2.407908 1_455
Na4 O0 2.414489 1_545
Na4 O3 2.450890 1_455
Na4 O5 2.487997 1_555
Na5 O10 2.353308 1_554
Na5 O2 2.381390 1_555
Na5 O0 2.441204 1_545
Na5 O5 2.457495 1_545
Na5 O5 2.717155 1_555
Na6 O4 2.353308 1_555
Na6 O0 2.381390 1_655
Na6 O2 2.441204 1_565
Na6 O3 2.457495 1_565
Na6 O3 2.717155 1_555
Na7 O11 2.401456 1_555
Na7 O7 2.407908 1_555
Na7 O2 2.414489 1_565
Na7 O5 2.450890 1_555
Na7 O3 2.487997 1_555
H0 P0 1.418167 1_555
H1 P3 1.418167 1_555
H2 P1 1.418167 1_555
H3 P2 1.418167 1_555
O0 P2 1.546549 1_555
O1 P3 1.545348 1_556
O2 P3 1.546549 1_555
O3 P0 1.545348 1_555
O4 P0 1.538317 1_555
O5 P1 1.545348 1_554
O6 P0 1.546549 1_555
O7 P2 1.538317 1_555
O8 P1 1.546549 1_555
O9 P2 1.545348 1_555
O10 P1 1.538317 1_555
O11 P3 1.538317 1_555
