# generated using pymatgen
data_Co9Ru3O16
_symmetry_space_group_name_H-M   'P 1'
_cell_length_a   6.01323700
_cell_length_b   10.42681551
_cell_length_c   10.47295890
_cell_angle_alpha   98.96055721
_cell_angle_beta   106.05641617
_cell_angle_gamma   90.24778866
_symmetry_Int_Tables_number   1
_chemical_formula_structural   Co9Ru3O16
_chemical_formula_sum   'Co18 Ru6 O32'
_cell_volume   622.54848663
_cell_formula_units_Z   2
loop_
 _symmetry_equiv_pos_site_id
 _symmetry_equiv_pos_as_xyz
  1  'x, y, z'
loop_
 _atom_site_type_symbol
 _atom_site_label
 _atom_site_symmetry_multiplicity
 _atom_site_fract_x
 _atom_site_fract_y
 _atom_site_fract_z
 _atom_site_occupancy
  Co  Co0  1  0.90307800  0.96057800  0.80126300  1
  Co  Co1  1  0.40607900  0.46295300  0.80567200  1
  Co  Co2  1  0.75247800  0.25570200  0.00420000  1
  Co  Co3  1  0.00000000  0.50000000  0.00000000  1
  Co  Co4  1  0.14948800  0.72333100  0.29874700  1
  Co  Co5  1  0.24634400  0.25486000  0.00430100  1
  Co  Co6  1  0.24752200  0.74429800  0.99580000  1
  Co  Co7  1  0.50000000  0.00000000  0.50000000  1
  Co  Co8  1  0.74894600  0.75383500  0.49554900  1
  Co  Co9  1  0.64164500  0.21953200  0.30781900  1
  Co  Co10  1  0.59392100  0.53704700  0.19432800  1
  Co  Co11  1  0.75365600  0.74514000  0.99569900  1
  Co  Co12  1  0.00000000  0.00000000  0.50000000  1
  Co  Co13  1  0.25105400  0.24616500  0.50445100  1
  Co  Co14  1  0.09692200  0.03942200  0.19873700  1
  Co  Co15  1  0.50000000  0.50000000  0.50000000  1
  Co  Co16  1  0.85051200  0.27666900  0.70125300  1
  Co  Co17  1  0.35835500  0.78046800  0.69218100  1
  Ru  Ru0  1  0.37768600  0.12161300  0.75486600  1
  Ru  Ru1  1  0.87887800  0.61931800  0.74383400  1
  Ru  Ru2  1  0.62231400  0.87838700  0.24513400  1
  Ru  Ru3  1  0.50000000  0.00000000  0.00000000  1
  Ru  Ru4  1  0.12112200  0.38068200  0.25616600  1
  Ru  Ru5  1  0.00000000  0.50000000  0.50000000  1
  O  O0  1  0.20357900  0.06171800  0.87934200  1
  O  O1  1  0.43558400  0.29370700  0.87356900  1
  O  O2  1  0.67440900  0.06227500  0.87600600  1
  O  O3  1  0.83335100  0.43420900  0.13699500  1
  O  O4  1  0.70609000  0.56336800  0.86262900  1
  O  O5  1  0.94826300  0.31805400  0.89829500  1
  O  O6  1  0.18029600  0.55898400  0.37766800  1
  O  O7  1  0.93455600  0.79061100  0.86289300  1
  O  O8  1  0.05173700  0.68194600  0.10170500  1
  O  O9  1  0.29391000  0.43663200  0.13737100  1
  O  O10  1  0.16664900  0.56579100  0.86300500  1
  O  O11  1  0.45408400  0.82129600  0.36693300  1
  O  O12  1  0.32559100  0.93772500  0.12399400  1
  O  O13  1  0.70903100  0.56450100  0.39489600  1
  O  O14  1  0.56441600  0.70629300  0.12643100  1
  O  O15  1  0.45076600  0.82016200  0.89368700  1
  O  O16  1  0.81012100  0.93903400  0.60277800  1
  O  O17  1  0.69177300  0.04919700  0.36780300  1
  O  O18  1  0.54923400  0.17983800  0.10631300  1
  O  O19  1  0.79642100  0.93828200  0.12065800  1
  O  O20  1  0.91413300  0.82492900  0.36709500  1
  O  O21  1  0.08586700  0.17507100  0.63290500  1
  O  O22  1  0.94382800  0.32039300  0.38036900  1
  O  O23  1  0.06544400  0.20938900  0.13710700  1
  O  O24  1  0.30822700  0.95080300  0.63219700  1
  O  O25  1  0.18987900  0.06096600  0.39722200  1
  O  O26  1  0.29096900  0.43549900  0.60510400  1
  O  O27  1  0.54591600  0.17870400  0.63306700  1
  O  O28  1  0.41154200  0.32204400  0.37749500  1
  O  O29  1  0.58845800  0.67795600  0.62250500  1
  O  O30  1  0.81970400  0.44101600  0.62233200  1
  O  O31  1  0.05617200  0.67960700  0.61963100  1
loop_
_geom_bond_atom_site_label_1
_geom_bond_atom_site_label_2
_geom_bond_distance
_geom_bond_site_symmetry_2
Co0 O7 1.970995 1_555
Co0 O16 1.973502 1_555
Co0 O0 1.985824 1_665
Co0 O2 1.994324 1_565
Co1 O10 1.968294 1_555
Co1 O4 1.974951 1_555
Co1 O1 1.993762 1_555
Co1 O26 1.995000 1_555
Co2 O5 1.994800 1_554
Co2 O18 2.059415 1_555
Co2 O1 2.095991 1_554
Co2 O3 2.108713 1_555
Co2 O23 2.116733 1_655
Co2 O2 2.211369 1_554
Co3 O8 2.003124 1_555
Co3 O5 2.003124 1_454
Co3 O4 2.128283 1_454
Co3 O9 2.128283 1_555
Co3 O3 2.151567 1_455
Co3 O10 2.151567 1_554
Co4 O8 1.959499 1_555
Co4 O11 1.985244 1_555
Co4 O20 1.993651 1_455
Co4 O6 2.003301 1_555
Co5 O5 2.004203 1_454
Co5 O18 2.065645 1_555
Co5 O1 2.089060 1_554
Co5 O23 2.092965 1_555
Co5 O9 2.137337 1_555
Co5 O0 2.196085 1_554
Co6 O8 1.994800 1_556
Co6 O15 2.059415 1_555
Co6 O14 2.095991 1_556
Co6 O10 2.108713 1_555
Co6 O7 2.116733 1_455
Co6 O12 2.211369 1_556
Co7 O25 2.037974 1_555
Co7 O16 2.037974 1_545
Co7 O11 2.112843 1_545
Co7 O27 2.112843 1_555
Co7 O17 2.146872 1_555
Co7 O24 2.146872 1_545
Co8 O16 2.053088 1_555
Co8 O13 2.067309 1_555
Co8 O29 2.087107 1_555
Co8 O20 2.095102 1_555
Co8 O11 2.106597 1_555
Co8 O31 2.167571 1_655
Co9 O17 1.971626 1_555
Co9 O28 1.979355 1_555
Co9 O22 1.988962 1_555
Co9 O18 2.002735 1_555
Co10 O3 1.968294 1_555
Co10 O9 1.974951 1_555
Co10 O14 1.993762 1_555
Co10 O13 1.995000 1_555
Co11 O8 2.004203 1_656
Co11 O15 2.065645 1_555
Co11 O14 2.089060 1_556
Co11 O7 2.092965 1_555
Co11 O4 2.137337 1_555
Co11 O19 2.196085 1_556
Co12 O25 1.937292 1_555
Co12 O16 1.937292 1_445
Co12 O20 2.083030 1_445
Co12 O21 2.083030 1_555
Co12 O24 2.103614 1_545
Co12 O17 2.103614 1_455
Co13 O25 2.053088 1_555
Co13 O26 2.067309 1_555
Co13 O28 2.087107 1_555
Co13 O21 2.095102 1_555
Co13 O27 2.106597 1_555
Co13 O22 2.167571 1_455
Co14 O23 1.970995 1_555
Co14 O25 1.973502 1_555
Co14 O19 1.985824 1_445
Co14 O12 1.994324 1_545
Co15 O13 2.057315 1_555
Co15 O26 2.057315 1_555
Co15 O29 2.060172 1_555
Co15 O28 2.060172 1_555
Co15 O6 2.146793 1_555
Co15 O30 2.146793 1_555
Co16 O5 1.959499 1_555
Co16 O27 1.985244 1_555
Co16 O21 1.993651 1_655
Co16 O30 2.003301 1_555
Co17 O24 1.971626 1_555
Co17 O29 1.979355 1_555
Co17 O31 1.988962 1_555
Co17 O15 2.002735 1_555
O0 Ru0 2.046585 1_555
O0 Ru3 2.050692 1_556
O1 Ru0 1.986659 1_555
O2 Ru0 2.043980 1_555
O2 Ru3 2.053775 1_556
O3 Ru4 1.973384 1_655
O4 Ru1 1.975772 1_555
O6 Ru5 2.050148 1_555
O6 Ru4 2.051595 1_555
O7 Ru1 1.981655 1_555
O9 Ru4 1.975772 1_555
O10 Ru1 1.973384 1_455
O11 Ru2 1.987457 1_555
O12 Ru2 2.043980 1_555
O12 Ru3 2.053775 1_565
O13 Ru5 1.975021 1_655
O14 Ru2 1.986659 1_555
O15 Ru3 2.001490 1_566
O17 Ru2 1.995217 1_545
O18 Ru3 2.001490 1_555
O19 Ru2 2.046585 1_555
O19 Ru3 2.050692 1_565
O20 Ru2 2.002948 1_555
O21 Ru0 2.002948 1_555
O22 Ru5 2.054378 1_655
O22 Ru4 2.059079 1_655
O23 Ru4 1.981655 1_555
O24 Ru0 1.995217 1_565
O26 Ru5 1.975021 1_555
O27 Ru0 1.987457 1_555
O28 Ru4 2.015429 1_555
O29 Ru1 2.015429 1_555
O30 Ru5 2.050148 1_655
O30 Ru1 2.051595 1_555
O31 Ru5 2.054378 1_555
O31 Ru1 2.059079 1_455
