# generated using pymatgen
data_Ti3Al2NiO
_symmetry_space_group_name_H-M   'P 1'
_cell_length_a   8.04613271
_cell_length_b   8.04613271
_cell_length_c   8.04613271
_cell_angle_alpha   60.00000000
_cell_angle_beta   60.00000000
_cell_angle_gamma   60.00000000
_symmetry_Int_Tables_number   1
_chemical_formula_structural   Ti3Al2NiO
_chemical_formula_sum   'Ti12 Al8 Ni4 O4'
_cell_volume   368.33804269
_cell_formula_units_Z   4
loop_
 _symmetry_equiv_pos_site_id
 _symmetry_equiv_pos_as_xyz
  1  'x, y, z'
loop_
 _atom_site_type_symbol
 _atom_site_label
 _atom_site_symmetry_multiplicity
 _atom_site_fract_x
 _atom_site_fract_y
 _atom_site_fract_z
 _atom_site_occupancy
  Ti  Ti0  1  0.56558400  0.93441600  0.56558400  1
  Ti  Ti1  1  0.31558400  0.68441600  0.68441600  1
  Ti  Ti2  1  0.68441600  0.31558400  0.31558400  1
  Ti  Ti3  1  0.31558400  0.68441600  0.31558400  1
  Ti  Ti4  1  0.68441600  0.68441600  0.31558400  1
  Ti  Ti5  1  0.31558400  0.31558400  0.68441600  1
  Ti  Ti6  1  0.56558400  0.56558400  0.93441600  1
  Ti  Ti7  1  0.93441600  0.56558400  0.56558400  1
  Ti  Ti8  1  0.56558400  0.93441600  0.93441600  1
  Ti  Ti9  1  0.93441600  0.93441600  0.56558400  1
  Ti  Ti10  1  0.68441600  0.31558400  0.68441600  1
  Ti  Ti11  1  0.93441600  0.56558400  0.93441600  1
  Al  Al0  1  0.33290100  0.33290100  0.33290100  1
  Al  Al1  1  0.24870400  0.91709900  0.91709900  1
  Al  Al2  1  0.91709900  0.24870400  0.91709900  1
  Al  Al3  1  0.91709900  0.91709900  0.24870400  1
  Al  Al4  1  0.33290100  0.00129600  0.33290100  1
  Al  Al5  1  0.33290100  0.33290100  0.00129600  1
  Al  Al6  1  0.00129600  0.33290100  0.33290100  1
  Al  Al7  1  0.91709900  0.91709900  0.91709900  1
  Ni  Ni0  1  0.12500000  0.12500000  0.12500000  1
  Ni  Ni1  1  0.62500000  0.12500000  0.12500000  1
  Ni  Ni2  1  0.12500000  0.62500000  0.12500000  1
  Ni  Ni3  1  0.12500000  0.12500000  0.62500000  1
  O  O0  1  0.62500000  0.62500000  0.62500000  1
  O  O1  1  0.12500000  0.62500000  0.62500000  1
  O  O2  1  0.62500000  0.12500000  0.62500000  1
  O  O3  1  0.62500000  0.62500000  0.12500000  1
loop_
_geom_bond_atom_site_label_1
_geom_bond_atom_site_label_2
_geom_bond_distance
_geom_bond_site_symmetry_2
Al0 Ni3 2.460788 1_555
Al0 Ni1 2.460788 1_555
Al0 Ni2 2.460788 1_555
Al0 Al6 2.668138 1_555
Al0 Al5 2.668138 1_555
Al0 Al4 2.668138 1_555
Al0 Ti2 2.696212 1_555
Al0 Ti5 2.696212 1_555
Al0 Ti3 2.696212 1_555
Al0 Ti7 2.964790 1_455
Al0 Ti0 2.964790 1_545
Al0 Ti6 2.964790 1_554
Al1 Ni0 2.460786 1_566
Al1 Ni3 2.460792 1_565
Al1 Ni2 2.460792 1_556
Al1 Al2 2.668138 1_465
Al1 Al3 2.668138 1_456
Al1 Al7 2.668138 1_455
Al1 Ti8 2.696204 1_555
Al1 Ti6 2.696208 1_555
Al1 Ti0 2.696208 1_555
Al1 Ti3 2.964787 1_556
Al1 Ti5 2.964787 1_565
Al1 Ti1 2.964794 1_555
Al2 Ni0 2.460786 1_656
Al2 Ni3 2.460792 1_655
Al2 Ni1 2.460792 1_556
Al2 Al3 2.668138 1_546
Al2 Al7 2.668138 1_545
Al2 Ti11 2.696204 1_555
Al2 Ti6 2.696208 1_555
Al2 Ti7 2.696208 1_555
Al2 Ti2 2.964787 1_556
Al2 Ti5 2.964787 1_655
Al2 Ti10 2.964794 1_555
Al3 Ni0 2.460786 1_665
Al3 Ni2 2.460792 1_655
Al3 Ni1 2.460792 1_565
Al3 Al7 2.668138 1_554
Al3 Ti9 2.696204 1_555
Al3 Ti0 2.696208 1_555
Al3 Ti7 2.696208 1_555
Al3 Ti2 2.964787 1_565
Al3 Ti3 2.964787 1_655
Al3 Ti4 2.964794 1_555
Al4 Ni0 2.460786 1_555
Al4 Ni1 2.460792 1_555
Al4 Ni3 2.460792 1_555
Al4 Al6 2.668138 1_555
Al4 Al5 2.668138 1_555
Al4 Ti3 2.696204 1_545
Al4 Ti1 2.696208 1_545
Al4 Ti4 2.696208 1_545
Al4 Ti8 2.964787 1_544
Al4 Ti9 2.964787 1_445
Al4 Ti0 2.964794 1_545
Al5 Ni0 2.460786 1_555
Al5 Ni1 2.460792 1_555
Al5 Ni2 2.460792 1_555
Al5 Al6 2.668138 1_555
Al5 Ti5 2.696204 1_554
Al5 Ti1 2.696208 1_554
Al5 Ti10 2.696208 1_554
Al5 Ti11 2.964787 1_454
Al5 Ti8 2.964787 1_544
Al5 Ti6 2.964794 1_554
Al6 Ni0 2.460786 1_555
Al6 Ni2 2.460792 1_555
Al6 Ni3 2.460792 1_555
Al6 Ti2 2.696204 1_455
Al6 Ti4 2.696208 1_455
Al6 Ti10 2.696208 1_455
Al6 Ti11 2.964787 1_454
Al6 Ti9 2.964787 1_445
Al6 Ti7 2.964794 1_455
Al7 Ni3 2.460788 1_665
Al7 Ni2 2.460788 1_656
Al7 Ni1 2.460788 1_566
Al7 Ti11 2.696212 1_555
Al7 Ti8 2.696212 1_555
Al7 Ti9 2.696212 1_555
Al7 Ti10 2.964790 1_565
Al7 Ti4 2.964790 1_556
Al7 Ti1 2.964790 1_655
Ni0 Ti3 2.957920 1_545
Ni0 Ti5 2.957920 1_554
Ni0 Ti2 2.957920 1_455
Ni0 Ti11 2.957920 1_454
Ni0 Ti8 2.957920 1_544
Ni0 Ti9 2.957920 1_445
Ni1 Ti6 2.957920 1_554
Ni1 Ti4 2.957920 1_545
Ni1 Ti2 2.957920 1_555
Ni1 Ti10 2.957920 1_554
Ni1 Ti0 2.957920 1_545
Ni1 Ti8 2.957920 1_544
Ni2 Ti1 2.957920 1_554
Ni2 Ti7 2.957920 1_455
Ni2 Ti4 2.957920 1_455
Ni2 Ti3 2.957920 1_555
Ni2 Ti6 2.957920 1_554
Ni2 Ti11 2.957920 1_454
Ni3 Ti5 2.957920 1_555
Ni3 Ti10 2.957920 1_455
Ni3 Ti0 2.957920 1_545
Ni3 Ti1 2.957920 1_545
Ni3 Ti7 2.957920 1_455
Ni3 Ti9 2.957920 1_445
O0 Ti0 2.122113 1_555
O0 Ti6 2.122113 1_555
O0 Ti7 2.122113 1_555
O0 Ti1 2.122113 1_555
O0 Ti4 2.122113 1_555
O0 Ti10 2.122113 1_555
O1 Ti11 2.122113 1_455
O1 Ti9 2.122113 1_455
O1 Ti3 2.122113 1_555
O1 Ti5 2.122113 1_555
O1 Ti1 2.122113 1_555
O1 Ti7 2.122113 1_455
O2 Ti8 2.122113 1_545
O2 Ti9 2.122113 1_545
O2 Ti2 2.122113 1_555
O2 Ti5 2.122113 1_555
O2 Ti10 2.122113 1_555
O2 Ti0 2.122113 1_545
O3 Ti8 2.122113 1_554
O3 Ti11 2.122113 1_554
O3 Ti3 2.122113 1_555
O3 Ti2 2.122113 1_555
O3 Ti4 2.122113 1_555
O3 Ti6 2.122113 1_554
