# generated using pymatgen
data_Ca5(SiN3)2
_symmetry_space_group_name_H-M   'P 1'
_cell_length_a   5.76008871
_cell_length_b   5.76008871
_cell_length_c   12.72626819
_cell_angle_alpha   81.27781643
_cell_angle_beta   81.27781643
_cell_angle_gamma   63.24358896
_symmetry_Int_Tables_number   1
_chemical_formula_structural   Ca5(SiN3)2
_chemical_formula_sum   'Ca10 Si4 N12'
_cell_volume   371.00347097
_cell_formula_units_Z   2
loop_
 _symmetry_equiv_pos_site_id
 _symmetry_equiv_pos_as_xyz
  1  'x, y, z'
loop_
 _atom_site_type_symbol
 _atom_site_label
 _atom_site_symmetry_multiplicity
 _atom_site_fract_x
 _atom_site_fract_y
 _atom_site_fract_z
 _atom_site_occupancy
  Ca  Ca0  1  0.32491219  0.80456027  0.00099475  1
  Ca  Ca1  1  0.61884763  0.38115237  0.25000000  1
  Ca  Ca2  1  0.06775684  0.23901582  0.78370704  1
  Ca  Ca3  1  0.38115237  0.61884763  0.75000000  1
  Ca  Ca4  1  0.19543973  0.67508781  0.49900525  1
  Ca  Ca5  1  0.80456027  0.32491219  0.50099475  1
  Ca  Ca6  1  0.23901582  0.06775684  0.28370704  1
  Ca  Ca7  1  0.67508781  0.19543973  0.99900525  1
  Ca  Ca8  1  0.93224316  0.76098418  0.21629296  1
  Ca  Ca9  1  0.76098418  0.93224316  0.71629296  1
  Si  Si0  1  0.09291637  0.35356894  0.07589423  1
  Si  Si1  1  0.35356894  0.09291637  0.57589423  1
  Si  Si2  1  0.64643106  0.90708363  0.42410577  1
  Si  Si3  1  0.90708363  0.64643106  0.92410577  1
  N  N0  1  0.60929766  0.69323708  0.35249456  1
  N  N1  1  0.10249938  0.01496199  0.62736219  1
  N  N2  1  0.65508396  0.79339502  0.56224334  1
  N  N3  1  0.01496199  0.10249938  0.12736219  1
  N  N4  1  0.39070234  0.30676292  0.64750544  1
  N  N5  1  0.34491604  0.20660498  0.43775666  1
  N  N6  1  0.98503801  0.89750062  0.87263781  1
  N  N7  1  0.69323708  0.60929766  0.85249456  1
  N  N8  1  0.20660498  0.34491604  0.93775666  1
  N  N9  1  0.89750062  0.98503801  0.37263781  1
  N  N10  1  0.79339502  0.65508396  0.06224334  1
  N  N11  1  0.30676292  0.39070234  0.14750544  1
loop_
_geom_bond_atom_site_label_1
_geom_bond_atom_site_label_2
_geom_bond_distance
_geom_bond_site_symmetry_2
Ca0 N3 2.434421 1_565
Ca0 N6 2.559014 1_454
Ca0 N7 2.572505 1_554
Ca0 N10 2.640683 1_555
Ca0 N11 2.826203 1_555
Ca0 N8 2.880374 1_564
Ca1 N11 2.352925 1_555
Ca1 N0 2.352925 1_555
Ca1 N3 2.569112 1_655
Ca1 N9 2.569112 1_545
Ca1 N5 2.960790 1_555
Ca1 N10 2.960790 1_555
Ca2 N6 2.320079 1_445
Ca2 N7 2.412444 1_455
Ca2 N4 2.467310 1_555
Ca2 N1 2.467783 1_555
Ca2 N8 2.476430 1_555
Ca3 N7 2.352925 1_555
Ca3 N4 2.352925 1_555
Ca3 N1 2.569112 1_565
Ca3 N6 2.569112 1_455
Ca3 N8 2.960790 1_555
Ca3 N2 2.960790 1_555
Ca4 N9 2.434421 1_455
Ca4 N1 2.559014 1_565
Ca4 N4 2.572505 1_555
Ca4 N5 2.640683 1_555
Ca4 N0 2.826203 1_555
Ca4 N2 2.880374 1_455
Ca5 N1 2.434421 1_655
Ca5 N9 2.559014 1_545
Ca5 N0 2.572505 1_555
Ca5 N2 2.640683 1_555
Ca5 N4 2.826203 1_555
Ca5 N5 2.880374 1_655
Ca6 N9 2.320079 1_445
Ca6 N0 2.412444 1_545
Ca6 N11 2.467310 1_555
Ca6 N3 2.467783 1_555
Ca6 N5 2.476430 1_555
Ca7 N6 2.434421 1_545
Ca7 N3 2.559014 1_656
Ca7 N11 2.572505 1_556
Ca7 N8 2.640683 1_555
Ca7 N7 2.826203 1_555
Ca7 N10 2.880374 1_546
Ca8 N3 2.320079 1_665
Ca8 N11 2.412444 1_655
Ca8 N0 2.467310 1_555
Ca8 N9 2.467783 1_555
Ca8 N10 2.476430 1_555
Ca9 N1 2.320079 1_665
Ca9 N4 2.412444 1_565
Ca9 N7 2.467310 1_555
Ca9 N6 2.467783 1_555
Ca9 N2 2.476430 1_555
N0 Si2 1.740796 1_555
N1 Si1 1.711810 1_555
N2 Si2 1.780403 1_555
N2 Si1 1.823327 1_565
N3 Si0 1.711810 1_555
N4 Si1 1.740796 1_555
N5 Si1 1.780403 1_555
N5 Si2 1.823327 1_545
N6 Si3 1.711810 1_555
N7 Si3 1.740796 1_555
N8 Si0 1.780403 1_556
N8 Si3 1.823327 1_455
N9 Si2 1.711810 1_555
N10 Si3 1.780403 1_554
N10 Si0 1.823327 1_655
N11 Si0 1.740796 1_555
