# generated using pymatgen
data_Na5P3O10
_symmetry_space_group_name_H-M   'P 1'
_cell_length_a   5.49639077
_cell_length_b   5.49639077
_cell_length_c   18.39161869
_cell_angle_alpha   83.86842689
_cell_angle_beta   83.86842689
_cell_angle_gamma   57.78501085
_symmetry_Int_Tables_number   1
_chemical_formula_structural   Na5P3O10
_chemical_formula_sum   'Na10 P6 O20'
_cell_volume   466.57013559
_cell_formula_units_Z   2
loop_
 _symmetry_equiv_pos_site_id
 _symmetry_equiv_pos_as_xyz
  1  'x, y, z'
loop_
 _atom_site_type_symbol
 _atom_site_label
 _atom_site_symmetry_multiplicity
 _atom_site_fract_x
 _atom_site_fract_y
 _atom_site_fract_z
 _atom_site_occupancy
  Na  Na0  1  0.69364540  0.15712627  0.06601771  1
  Na  Na1  1  0.96238474  0.60617689  0.82512859  1
  Na  Na2  1  0.39382311  0.03761526  0.67487141  1
  Na  Na3  1  0.84287373  0.30635460  0.43398229  1
  Na  Na4  1  0.30635460  0.84287373  0.93398229  1
  Na  Na5  1  0.60617689  0.96238474  0.32512859  1
  Na  Na6  1  -0.00000000  0.50000000  -0.00000000  1
  Na  Na7  1  0.03761526  0.39382311  0.17487141  1
  Na  Na8  1  0.15712627  0.69364540  0.56601771  1
  Na  Na9  1  0.50000000  -0.00000000  0.50000000  1
  P  P0  1  0.18934469  0.64481080  0.40105272  1
  P  P1  1  0.64481080  0.18934469  0.90105272  1
  P  P2  1  0.39867681  0.60132319  0.25000000  1
  P  P3  1  0.60132319  0.39867681  0.75000000  1
  P  P4  1  0.35518920  0.81065531  0.09894728  1
  P  P5  1  0.81065531  0.35518920  0.59894728  1
  O  O0  1  0.56850169  0.66761187  0.59700803  1
  O  O1  1  0.84623037  0.24029248  0.68631538  1
  O  O2  1  0.41814128  0.33166480  0.23283905  1
  O  O3  1  0.83594171  0.25682970  0.93708627  1
  O  O4  1  0.10436990  0.30584531  0.57517206  1
  O  O5  1  0.33166480  0.41814128  0.73283905  1
  O  O6  1  0.89563010  0.69415469  0.42482794  1
  O  O7  1  0.30584531  0.10436990  0.07517206  1
  O  O8  1  0.33238813  0.43149831  0.90299197  1
  O  O9  1  0.69415469  0.89563010  0.92482794  1
  O  O10  1  0.74317030  0.16405829  0.56291373  1
  O  O11  1  0.43149831  0.33238813  0.40299197  1
  O  O12  1  0.66761187  0.56850169  0.09700803  1
  O  O13  1  0.66833520  0.58185872  0.26716095  1
  O  O14  1  0.25682970  0.83594171  0.43708627  1
  O  O15  1  0.16405829  0.74317030  0.06291373  1
  O  O16  1  0.15376963  0.75970752  0.31368462  1
  O  O17  1  0.58185872  0.66833520  0.76716095  1
  O  O18  1  0.24029248  0.84623037  0.18631538  1
  O  O19  1  0.75970752  0.15376963  0.81368462  1
loop_
_geom_bond_atom_site_label_1
_geom_bond_atom_site_label_2
_geom_bond_distance
_geom_bond_site_symmetry_2
Na0 O7 2.286398 1_555
Na0 O12 2.317486 1_555
Na0 O15 2.364151 1_645
Na0 O3 2.513579 1_554
Na1 O17 2.294440 1_555
Na1 O8 2.314091 1_655
Na1 O5 2.339032 1_655
Na1 O9 2.368919 1_555
Na1 O19 2.585346 1_565
Na1 O3 2.946570 1_555
Na2 O5 2.294440 1_555
Na2 O0 2.314091 1_545
Na2 O17 2.339032 1_545
Na2 O4 2.368919 1_555
Na2 O1 2.585346 1_455
Na2 O10 2.946570 1_555
Na3 O6 2.286398 1_555
Na3 O11 2.317486 1_555
Na3 O14 2.364151 1_645
Na3 O10 2.513579 1_555
Na4 O9 2.286398 1_555
Na4 O8 2.317486 1_555
Na4 O3 2.364151 1_465
Na4 O15 2.513579 1_556
Na5 O13 2.294440 1_555
Na5 O11 2.314091 1_565
Na5 O2 2.339032 1_565
Na5 O6 2.368919 1_555
Na5 O16 2.585346 1_655
Na5 O14 2.946570 1_555
Na6 O12 2.318704 1_455
Na6 O8 2.318704 1_554
Na6 O9 2.328671 1_454
Na6 O7 2.328671 1_555
Na6 O15 2.403457 1_555
Na6 O3 2.403457 1_454
Na7 O2 2.294440 1_555
Na7 O12 2.314091 1_455
Na7 O13 2.339032 1_455
Na7 O7 2.368919 1_555
Na7 O18 2.585346 1_545
Na7 O15 2.946570 1_555
Na8 O4 2.286398 1_555
Na8 O0 2.317486 1_555
Na8 O10 2.364151 1_465
Na8 O14 2.513579 1_555
Na9 O0 2.318704 1_545
Na9 O11 2.318704 1_555
Na9 O4 2.328671 1_555
Na9 O6 2.328671 1_545
Na9 O10 2.403457 1_555
Na9 O14 2.403457 1_545
O0 P5 1.510545 1_555
O1 P3 1.604150 1_555
O1 P5 1.654591 1_555
O2 P2 1.493813 1_555
O3 P1 1.515615 1_555
O4 P5 1.509524 1_455
O5 P3 1.493813 1_555
O6 P0 1.509524 1_655
O7 P4 1.509524 1_545
O8 P1 1.510545 1_555
O9 P1 1.509524 1_565
O10 P5 1.515615 1_555
O11 P0 1.510545 1_555
O12 P4 1.510545 1_555
O13 P2 1.493813 1_555
O14 P0 1.515615 1_555
O15 P4 1.515615 1_555
O16 P2 1.604150 1_555
O16 P0 1.654591 1_555
O17 P3 1.493813 1_555
O18 P2 1.604150 1_555
O18 P4 1.654591 1_555
O19 P3 1.604150 1_555
O19 P1 1.654591 1_555
