# generated using pymatgen
data_K2PtC4(IN2)2
_symmetry_space_group_name_H-M   'P 1'
_cell_length_a   9.50645700
_cell_length_b   7.41999000
_cell_length_c   9.06048503
_cell_angle_alpha   72.44232065
_cell_angle_beta   90.00000000
_cell_angle_gamma   90.00000000
_symmetry_Int_Tables_number   1
_chemical_formula_structural   K2PtC4(IN2)2
_chemical_formula_sum   'K4 Pt2 C8 I4 N8'
_cell_volume   609.33323382
_cell_formula_units_Z   2
loop_
 _symmetry_equiv_pos_site_id
 _symmetry_equiv_pos_as_xyz
  1  'x, y, z'
loop_
 _atom_site_type_symbol
 _atom_site_label
 _atom_site_symmetry_multiplicity
 _atom_site_fract_x
 _atom_site_fract_y
 _atom_site_fract_z
 _atom_site_occupancy
  K  K0  1  0.29298900  0.46940700  0.88276400  1
  K  K1  1  0.79298900  0.53059300  0.61723600  1
  K  K2  1  0.20701100  0.46940700  0.38276400  1
  K  K3  1  0.70701100  0.53059300  0.11723600  1
  Pt  Pt0  1  0.50000000  0.00000000  0.50000000  1
  Pt  Pt1  1  0.00000000  0.00000000  0.00000000  1
  C  C0  1  0.95787400  0.80350600  0.20312600  1
  C  C1  1  0.96058000  0.80205500  0.89395700  1
  C  C2  1  0.45787400  0.19649400  0.29687400  1
  C  C3  1  0.03942000  0.19794500  0.10604300  1
  C  C4  1  0.46058000  0.19794500  0.60604300  1
  C  C5  1  0.53942000  0.80205500  0.39395700  1
  C  C6  1  0.04212600  0.19649400  0.79687400  1
  C  C7  1  0.54212600  0.80350600  0.70312600  1
  I  I0  1  0.77583500  0.10520300  0.46798500  1
  I  I1  1  0.72416500  0.10520300  0.96798500  1
  I  I2  1  0.22416500  0.89479700  0.53201500  1
  I  I3  1  0.27583500  0.89479700  0.03201500  1
  N  N0  1  0.06671600  0.31677200  0.68204100  1
  N  N1  1  0.43328400  0.31677200  0.18204100  1
  N  N2  1  0.93328400  0.68322800  0.31795900  1
  N  N3  1  0.56671600  0.68322800  0.81795900  1
  N  N4  1  0.43382300  0.31673200  0.66229200  1
  N  N5  1  0.56617700  0.68326800  0.33770800  1
  N  N6  1  0.93382300  0.68326800  0.83770800  1
  N  N7  1  0.06617700  0.31673200  0.16229200  1
loop_
_geom_bond_atom_site_label_1
_geom_bond_atom_site_label_2
_geom_bond_distance
_geom_bond_site_symmetry_2
K0 N4 2.903699 1_555
K0 N1 2.925979 1_556
K0 N3 3.011838 1_555
K1 N6 2.903699 1_555
K1 N2 2.925979 1_555
K1 N0 3.011838 1_655
K2 N7 2.903699 1_555
K2 N0 2.925979 1_555
K2 N2 3.011838 1_455
K3 N5 2.903699 1_555
K3 N3 2.925979 1_554
K3 N1 3.011838 1_555
C0 N2 1.171933 1_555
C0 Pt1 2.013533 1_665
C1 N6 1.171459 1_555
C1 Pt1 2.017971 1_666
C2 N1 1.171933 1_555
C2 Pt0 2.013533 1_555
C3 N7 1.171459 1_555
C3 Pt1 2.017971 1_555
C4 N4 1.171459 1_555
C4 Pt0 2.017971 1_555
C5 N5 1.171459 1_555
C5 Pt0 2.017971 1_565
C6 N0 1.171933 1_555
C6 Pt1 2.013533 1_556
C7 N3 1.171933 1_555
C7 Pt0 2.013533 1_565
I0 Pt0 2.726330 1_555
I0 K1 3.793849 1_555
I0 K3 3.799781 1_555
I1 Pt1 2.726330 1_656
I1 K3 3.793849 1_556
I1 K1 3.799781 1_555
I2 Pt0 2.726330 1_565
I2 K2 3.793849 1_555
I2 K0 3.799781 1_555
I3 Pt1 2.726330 1_565
I3 K0 3.793849 1_554
I3 K2 3.799781 1_555
