# generated using pymatgen
data_Dy6Ti4Al43
_symmetry_space_group_name_H-M   'P 1'
_cell_length_a   11.06277819
_cell_length_b   11.06277819
_cell_length_c   17.88470600
_cell_angle_alpha   90.00000000
_cell_angle_beta   90.00000000
_cell_angle_gamma   120.00000112
_symmetry_Int_Tables_number   1
_chemical_formula_structural   Dy6Ti4Al43
_chemical_formula_sum   'Dy12 Ti8 Al86'
_cell_volume   1895.57442914
_cell_formula_units_Z   2
loop_
 _symmetry_equiv_pos_site_id
 _symmetry_equiv_pos_as_xyz
  1  'x, y, z'
loop_
 _atom_site_type_symbol
 _atom_site_label
 _atom_site_symmetry_multiplicity
 _atom_site_fract_x
 _atom_site_fract_y
 _atom_site_fract_z
 _atom_site_occupancy
  Dy  Dy0  1  0.52954000  0.52954000  0.59638300  1
  Dy  Dy1  1  0.00000000  0.52954000  0.40361700  1
  Dy  Dy2  1  0.52954000  0.00000000  0.40361700  1
  Dy  Dy3  1  0.00000000  0.47046000  0.90361700  1
  Dy  Dy4  1  0.00000000  0.52954000  0.09638300  1
  Dy  Dy5  1  0.00000000  0.47046000  0.59638300  1
  Dy  Dy6  1  0.52954000  0.00000000  0.09638300  1
  Dy  Dy7  1  0.47046000  0.47046000  0.40361700  1
  Dy  Dy8  1  0.52954000  0.52954000  0.90361700  1
  Dy  Dy9  1  0.47046000  0.00000000  0.59638300  1
  Dy  Dy10  1  0.47046000  0.00000000  0.90361700  1
  Dy  Dy11  1  0.47046000  0.47046000  0.09638300  1
  Ti  Ti0  1  0.00000000  0.72837300  0.25000000  1
  Ti  Ti1  1  0.72837300  0.00000000  0.25000000  1
  Ti  Ti2  1  0.00000000  0.00000000  0.00000000  1
  Ti  Ti3  1  0.72837300  0.72837300  0.75000000  1
  Ti  Ti4  1  0.00000000  0.27162700  0.75000000  1
  Ti  Ti5  1  0.27162700  0.00000000  0.75000000  1
  Ti  Ti6  1  0.00000000  0.00000000  0.50000000  1
  Ti  Ti7  1  0.27162700  0.27162700  0.25000000  1
  Al  Al0  1  0.23491800  0.84107200  0.33530500  1
  Al  Al1  1  0.25318300  0.00000000  0.47111200  1
  Al  Al2  1  0.00000000  0.25318300  0.02888800  1
  Al  Al3  1  0.15647100  0.15647100  0.11652100  1
  Al  Al4  1  0.24787200  0.75212800  0.50000000  1
  Al  Al5  1  0.55373500  0.40310600  0.25000000  1
  Al  Al6  1  0.59689400  0.15062800  0.25000000  1
  Al  Al7  1  0.75212800  0.50425600  0.00000000  1
  Al  Al8  1  0.84352900  0.84352900  0.61652100  1
  Al  Al9  1  0.00000000  0.15647100  0.61652100  1
  Al  Al10  1  0.76508200  0.60615500  0.33530500  1
  Al  Al11  1  0.84107200  0.23491800  0.16469500  1
  Al  Al12  1  0.85282400  0.00000000  0.75000000  1
  Al  Al13  1  0.60615500  0.84107200  0.83530500  1
  Al  Al14  1  0.84937200  0.44626500  0.25000000  1
  Al  Al15  1  0.66666700  0.33333300  0.12546900  1
  Al  Al16  1  0.00000000  0.25318300  0.47111200  1
  Al  Al17  1  0.66666700  0.33333300  0.37453100  1
  Al  Al18  1  0.49574400  0.24787200  0.00000000  1
  Al  Al19  1  0.25318300  0.25318300  0.97111200  1
  Al  Al20  1  0.39384500  0.23491800  0.66469500  1
  Al  Al21  1  0.33333300  0.66666700  0.62546900  1
  Al  Al22  1  0.59689400  0.44626500  0.75000000  1
  Al  Al23  1  0.76508200  0.60615500  0.16469500  1
  Al  Al24  1  0.60615500  0.76508200  0.33530500  1
  Al  Al25  1  0.33333300  0.66666700  0.87453100  1
  Al  Al26  1  0.39384500  0.23491800  0.83530500  1
  Al  Al27  1  0.25318300  0.00000000  0.02888800  1
  Al  Al28  1  0.25318300  0.25318300  0.52888800  1
  Al  Al29  1  0.14717600  0.14717600  0.75000000  1
  Al  Al30  1  0.15647100  0.15647100  0.38347900  1
  Al  Al31  1  0.74681700  0.74681700  0.47111200  1
  Al  Al32  1  0.00000000  0.14717600  0.25000000  1
  Al  Al33  1  0.84352900  0.00000000  0.11652100  1
  Al  Al34  1  0.76508200  0.15892800  0.66469500  1
  Al  Al35  1  0.24787200  0.75212800  0.00000000  1
  Al  Al36  1  0.39384500  0.15892800  0.16469500  1
  Al  Al37  1  0.60615500  0.84107200  0.66469500  1
  Al  Al38  1  0.00000000  0.84352900  0.38347900  1
  Al  Al39  1  0.00000000  0.15647100  0.88347900  1
  Al  Al40  1  0.84352900  0.84352900  0.88347900  1
  Al  Al41  1  0.00000000  0.84352900  0.11652100  1
  Al  Al42  1  0.55373500  0.15062800  0.75000000  1
  Al  Al43  1  0.15892800  0.76508200  0.83530500  1
  Al  Al44  1  0.00000000  0.85282400  0.75000000  1
  Al  Al45  1  0.74681700  0.74681700  0.02888800  1
  Al  Al46  1  0.84107200  0.60615500  0.83530500  1
  Al  Al47  1  0.44626500  0.59689400  0.75000000  1
  Al  Al48  1  0.14717600  0.00000000  0.25000000  1
  Al  Al49  1  0.85282400  0.85282400  0.25000000  1
  Al  Al50  1  0.66666700  0.33333300  0.87453100  1
  Al  Al51  1  0.15892800  0.39384500  0.33530500  1
  Al  Al52  1  0.84352900  0.00000000  0.38347900  1
  Al  Al53  1  0.15892800  0.39384500  0.16469500  1
  Al  Al54  1  0.15062800  0.59689400  0.25000000  1
  Al  Al55  1  0.75212800  0.50425600  0.50000000  1
  Al  Al56  1  0.84937200  0.40310600  0.75000000  1
  Al  Al57  1  0.15062800  0.55373500  0.75000000  1
  Al  Al58  1  0.23491800  0.39384500  0.83530500  1
  Al  Al59  1  0.15647100  0.00000000  0.61652100  1
  Al  Al60  1  0.44626500  0.84937200  0.25000000  1
  Al  Al61  1  0.24787200  0.49574400  0.00000000  1
  Al  Al62  1  0.74681700  0.00000000  0.52888800  1
  Al  Al63  1  0.00000000  0.74681700  0.97111200  1
  Al  Al64  1  0.00000000  0.74681700  0.52888800  1
  Al  Al65  1  0.74681700  0.00000000  0.97111200  1
  Al  Al66  1  0.50425600  0.75212800  0.50000000  1
  Al  Al67  1  0.76508200  0.15892800  0.83530500  1
  Al  Al68  1  0.15647100  0.00000000  0.88347900  1
  Al  Al69  1  0.39384500  0.15892800  0.33530500  1
  Al  Al70  1  0.50425600  0.75212800  0.00000000  1
  Al  Al71  1  0.23491800  0.39384500  0.66469500  1
  Al  Al72  1  0.23491800  0.84107200  0.16469500  1
  Al  Al73  1  0.24787200  0.49574400  0.50000000  1
  Al  Al74  1  0.75212800  0.24787200  0.00000000  1
  Al  Al75  1  0.60615500  0.76508200  0.16469500  1
  Al  Al76  1  0.40310600  0.55373500  0.25000000  1
  Al  Al77  1  0.40310600  0.84937200  0.75000000  1
  Al  Al78  1  0.15892800  0.76508200  0.66469500  1
  Al  Al79  1  0.66666700  0.33333300  0.62546900  1
  Al  Al80  1  0.33333300  0.66666700  0.12546900  1
  Al  Al81  1  0.33333300  0.66666700  0.37453100  1
  Al  Al82  1  0.84107200  0.23491800  0.33530500  1
  Al  Al83  1  0.75212800  0.24787200  0.50000000  1
  Al  Al84  1  0.49574400  0.24787200  0.50000000  1
  Al  Al85  1  0.84107200  0.60615500  0.66469500  1
loop_
_geom_bond_atom_site_label_1
_geom_bond_atom_site_label_2
_geom_bond_distance
_geom_bond_site_symmetry_2
Dy0 Dy7 3.508970 1_555
Dy0 Ti3 3.519463 1_555
Dy1 Dy5 3.508970 1_555
Dy1 Ti0 3.519463 1_555
Dy2 Dy9 3.508970 1_555
Dy2 Ti1 3.519463 1_555
Dy3 Dy4 3.508970 1_556
Dy3 Ti4 3.519463 1_555
Dy4 Ti0 3.519463 1_555
Dy5 Ti4 3.519463 1_555
Dy6 Ti1 3.519463 1_555
Dy7 Ti7 3.519463 1_555
Dy8 Ti3 3.519463 1_555
Dy9 Ti5 3.519463 1_555
Dy10 Dy6 3.508970 1_556
Dy10 Ti5 3.519463 1_555
Dy11 Dy8 3.508970 1_554
Dy11 Ti7 3.519463 1_555
Al0 Ti0 2.719539 1_555
Al0 Al81 2.738750 1_555
Al0 Al38 2.750944 1_555
Al0 Al60 2.754634 1_555
Al0 Al54 2.824039 1_555
Al0 Al48 2.840362 1_565
Al0 Al1 2.945536 1_565
Al0 Al69 3.045266 1_565
Al0 Al72 3.051310 1_555
Al0 Dy2 3.078413 1_565
Al0 Al4 3.131427 1_555
Al0 Dy1 3.341811 1_555
Al1 Al84 2.762005 1_555
Al1 Al4 2.762005 1_545
Al1 Al59 2.812081 1_555
Al1 Ti6 2.848160 1_555
Al1 Al38 2.906798 1_545
Al1 Al30 2.906798 1_555
Al1 Al69 2.945534 1_555
Al1 Al64 2.985432 1_545
Al1 Al28 2.985432 1_555
Al1 Dy9 3.285919 1_555
Al1 Dy2 3.286959 1_555
Al2 Al61 2.762005 1_555
Al2 Al74 2.762005 1_455
Al2 Al39 2.812081 1_554
Al2 Ti2 2.848160 1_555
Al2 Al33 2.906798 1_455
Al2 Al3 2.906798 1_555
Al2 Al53 2.945534 1_555
Al2 Al65 2.985432 1_454
Al2 Dy3 3.285919 1_554
Al2 Dy4 3.286959 1_555
Al3 Ti7 2.705886 1_555
Al3 Ti2 2.709095 1_555
Al3 Al36 2.750934 1_555
Al3 Al53 2.750934 1_555
Al3 Al32 2.920245 1_555
Al3 Al48 2.920245 1_555
Al3 Al41 2.998187 1_545
Al3 Al33 2.998187 1_455
Al3 Dy11 3.492213 1_555
Al4 Al64 2.762005 1_555
Al4 Al81 2.777945 1_555
Al4 Al66 2.836319 1_555
Al4 Al73 2.836319 1_555
Al4 Dy1 3.130823 1_555
Al4 Dy9 3.130823 1_565
Al4 Al78 3.131427 1_555
Al4 Dy5 3.414065 1_555
Al4 Dy2 3.414065 1_565
Al5 Ti7 2.704852 1_555
Al5 Al69 2.824042 1_555
Al5 Al76 2.886247 1_555
Al5 Al6 3.059904 1_555
Al5 Dy11 3.104600 1_555
Al5 Dy7 3.104600 1_555
Al6 Ti1 2.704842 1_555
Al6 Al69 2.754653 1_555
Al6 Al82 2.824039 1_555
Al6 Al60 2.886227 1_545
Al6 Dy2 3.104595 1_555
Al6 Dy6 3.104595 1_555
Al7 Al74 2.836319 1_555
Al7 Dy4 3.130823 1_655
Al7 Dy8 3.130823 1_554
Al7 Dy11 3.414065 1_555
Al7 Dy3 3.414065 1_654
Al8 Ti3 2.705886 1_555
Al8 Ti6 2.709095 1_665
Al8 Al85 2.750934 1_555
Al8 Al9 2.998187 1_665
Al8 Dy0 3.492213 1_555
Al9 Ti4 2.705886 1_555
Al9 Ti6 2.709095 1_555
Al9 Dy5 3.492213 1_555
Al10 Ti0 2.719539 1_655
Al10 Al17 2.738770 1_555
Al10 Al38 2.750939 1_655
Al10 Al5 2.754643 1_555
Al10 Al14 2.824056 1_555
Al10 Al49 2.840353 1_555
Al10 Al31 2.945530 1_555
Al10 Al24 3.045247 1_555
Al10 Al23 3.051310 1_555
Al10 Dy7 3.078413 1_555
Al10 Al55 3.131431 1_555
Al10 Dy1 3.341818 1_655
Al11 Ti1 2.719539 1_555
Al11 Al15 2.738750 1_555
Al11 Al33 2.750944 1_555
Al11 Al14 2.754634 1_555
Al11 Al6 2.824039 1_555
Al11 Al32 2.840362 1_655
Al11 Al2 2.945536 1_655
Al11 Al53 3.045266 1_655
Al11 Al82 3.051310 1_555
Al11 Dy4 3.078413 1_655
Al11 Al74 3.131427 1_555
Al11 Dy6 3.341811 1_555
Al12 Ti4 2.605396 1_655
Al12 Ti3 2.605396 1_545
Al12 Al29 2.820083 1_655
Al12 Al44 2.820083 1_645
Al12 Al13 2.840355 1_545
Al12 Al37 2.840355 1_545
Al12 Al67 2.840362 1_555
Al12 Al34 2.840362 1_555
Al12 Al39 2.920245 1_655
Al12 Al9 2.920245 1_655
Al12 Al8 2.920245 1_545
Al12 Al40 2.920245 1_545
Al13 Ti3 2.719531 1_555
Al13 Al25 2.738767 1_555
Al13 Al40 2.750934 1_555
Al13 Al77 2.754653 1_555
Al13 Al47 2.824042 1_555
Al13 Al65 2.945534 1_565
Al13 Al67 3.045266 1_565
Al13 Al37 3.051310 1_555
Al13 Dy10 3.078422 1_565
Al13 Al70 3.131430 1_556
Al13 Dy8 3.341808 1_555
Al14 Ti0 2.704852 1_655
Al14 Al82 2.754634 1_555
Al14 Al23 2.824056 1_555
Al14 Al15 2.842785 1_555
Al14 Al17 2.842785 1_555
Al14 Al54 2.886227 1_655
Al14 Al6 3.059904 1_555
Al14 Al5 3.059904 1_555
Al14 Dy1 3.104595 1_655
Al14 Dy4 3.104595 1_655
Al15 Al36 2.738767 1_555
Al15 Al23 2.738770 1_555
Al15 Al74 2.777945 1_555
Al15 Al7 2.777950 1_555
Al15 Al18 2.777950 1_555
Al15 Al6 2.842785 1_555
Al15 Al5 2.842785 1_555
Al15 Dy6 3.252096 1_555
Al15 Dy4 3.252097 1_655
Al15 Dy11 3.252106 1_555
Al16 Al73 2.762005 1_555
Al16 Al83 2.762005 1_455
Al16 Al9 2.812081 1_555
Al16 Ti6 2.848160 1_555
Al16 Al52 2.906798 1_455
Al16 Al30 2.906798 1_555
Al16 Al51 2.945534 1_555
Al16 Al82 2.945536 1_455
Al16 Al62 2.985432 1_455
Al16 Al28 2.985432 1_555
Al16 Dy5 3.285919 1_555
Al16 Dy1 3.286959 1_555
Al17 Al82 2.738750 1_555
Al17 Al69 2.738767 1_555
Al17 Al83 2.777945 1_555
Al17 Al55 2.777950 1_555
Al17 Al84 2.777950 1_555
Al17 Al6 2.842785 1_555
Al17 Al5 2.842785 1_555
Al17 Dy2 3.252096 1_555
Al17 Dy1 3.252097 1_655
Al17 Dy7 3.252106 1_555
Al18 Al27 2.762005 1_555
Al18 Al19 2.762005 1_554
Al18 Al50 2.777950 1_554
Al18 Al7 2.836319 1_555
Al18 Al74 2.836319 1_555
Al18 Dy10 3.130823 1_554
Al18 Dy11 3.130823 1_555
Al18 Al36 3.131430 1_555
Al18 Al26 3.131431 1_554
Al18 Dy8 3.414065 1_554
Al18 Dy6 3.414065 1_555
Al19 Al61 2.762005 1_556
Al19 Al3 2.812081 1_556
Al19 Ti2 2.848160 1_556
Al19 Al39 2.906798 1_555
Al19 Al68 2.906798 1_555
Al19 Al58 2.945530 1_555
Al19 Al26 2.945530 1_555
Al19 Al2 2.985432 1_556
Al19 Al27 2.985432 1_556
Al19 Dy11 3.285919 1_556
Al19 Dy8 3.286958 1_555
Al20 Ti5 2.719539 1_555
Al20 Al79 2.738770 1_555
Al20 Al59 2.750939 1_555
Al20 Al22 2.754643 1_555
Al20 Al42 2.824056 1_555
Al20 Al29 2.840353 1_555
Al20 Al28 2.945530 1_555
Al20 Al71 3.045247 1_555
Al20 Al26 3.051310 1_555
Al20 Dy0 3.078413 1_555
Al20 Al84 3.131431 1_555
Al20 Dy9 3.341818 1_555
Al21 Al78 2.738750 1_555
Al21 Al37 2.738767 1_555
Al21 Al71 2.738770 1_555
Al21 Al4 2.777945 1_555
Al21 Al66 2.777950 1_555
Al21 Al73 2.777950 1_555
Al21 Al57 2.842785 1_555
Al21 Al77 2.842785 1_555
Al21 Al47 2.842785 1_555
Al21 Dy9 3.252096 1_565
Al21 Dy5 3.252097 1_555
Al21 Dy0 3.252106 1_555
Al22 Ti3 2.704852 1_555
Al22 Al26 2.754643 1_555
Al22 Al46 2.824042 1_555
Al22 Al85 2.824042 1_555
Al22 Al50 2.842785 1_555
Al22 Al79 2.842785 1_555
Al22 Al47 2.886247 1_555
Al22 Al42 3.059904 1_555
Al22 Al56 3.059904 1_555
Al22 Dy0 3.104600 1_555
Al22 Dy8 3.104600 1_555
Al23 Ti0 2.719539 1_655
Al23 Al41 2.750939 1_655
Al23 Al5 2.754643 1_555
Al23 Al49 2.840353 1_555
Al23 Al45 2.945530 1_555
Al23 Al75 3.045247 1_555
Al23 Dy11 3.078413 1_555
Al23 Al7 3.131431 1_555
Al23 Dy4 3.341818 1_655
Al24 Ti1 2.719539 1_565
Al24 Al81 2.738770 1_555
Al24 Al52 2.750939 1_565
Al24 Al76 2.754643 1_555
Al24 Al60 2.824056 1_555
Al24 Al49 2.840353 1_555
Al24 Al31 2.945530 1_555
Al24 Al75 3.051310 1_555
Al24 Dy7 3.078413 1_555
Al24 Al66 3.131431 1_555
Al24 Dy2 3.341818 1_565
Al25 Al43 2.738750 1_555
Al25 Al58 2.738770 1_555
Al25 Al35 2.777945 1_556
Al25 Al70 2.777950 1_556
Al25 Al61 2.777950 1_556
Al25 Al57 2.842785 1_555
Al25 Al77 2.842785 1_555
Al25 Al47 2.842785 1_555
Al25 Dy10 3.252096 1_565
Al25 Dy3 3.252097 1_555
Al25 Dy8 3.252106 1_555
Al26 Ti5 2.719539 1_555
Al26 Al50 2.738770 1_555
Al26 Al68 2.750939 1_555
Al26 Al42 2.824056 1_555
Al26 Al29 2.840353 1_555
Al26 Al58 3.045247 1_555
Al26 Dy8 3.078413 1_555
Al26 Dy10 3.341818 1_555
Al27 Al35 2.762005 1_545
Al27 Al68 2.812081 1_554
Al27 Ti2 2.848160 1_555
Al27 Al41 2.906798 1_545
Al27 Al3 2.906798 1_555
Al27 Al36 2.945534 1_555
Al27 Al72 2.945536 1_545
Al27 Al63 2.985432 1_544
Al27 Dy10 3.285919 1_554
Al27 Dy6 3.286959 1_555
Al28 Al73 2.762005 1_555
Al28 Al84 2.762005 1_555
Al28 Al30 2.812081 1_555
Al28 Ti6 2.848160 1_555
Al28 Al9 2.906798 1_555
Al28 Al59 2.906798 1_555
Al28 Al71 2.945530 1_555
Al28 Dy7 3.285919 1_555
Al28 Dy0 3.286958 1_555
Al29 Ti4 2.605396 1_555
Al29 Ti5 2.605396 1_555
Al29 Al44 2.820083 1_545
Al29 Al58 2.840353 1_555
Al29 Al71 2.840353 1_555
Al29 Al39 2.920245 1_555
Al29 Al59 2.920245 1_555
Al29 Al68 2.920245 1_555
Al29 Al9 2.920245 1_555
Al30 Ti7 2.705886 1_555
Al30 Ti6 2.709095 1_555
Al30 Al69 2.750934 1_555
Al30 Al51 2.750934 1_555
Al30 Al32 2.920245 1_555
Al30 Al48 2.920245 1_555
Al30 Al38 2.998187 1_545
Al30 Al52 2.998187 1_455
Al30 Dy7 3.492213 1_555
Al31 Al55 2.762005 1_555
Al31 Al66 2.762005 1_555
Al31 Al8 2.812081 1_555
Al31 Ti6 2.848160 1_665
Al31 Al52 2.906798 1_565
Al31 Al38 2.906798 1_655
Al31 Al64 2.985432 1_655
Al31 Al62 2.985432 1_565
Al31 Dy0 3.285919 1_555
Al31 Dy7 3.286958 1_555
Al32 Ti1 2.605396 1_455
Al32 Ti7 2.605396 1_555
Al32 Al49 2.820083 1_445
Al32 Al48 2.820083 1_555
Al32 Al51 2.840355 1_555
Al32 Al53 2.840355 1_555
Al32 Al82 2.840362 1_455
Al32 Al52 2.920245 1_455
Al32 Al33 2.920245 1_455
Al33 Ti1 2.705886 1_555
Al33 Ti2 2.709095 1_655
Al33 Al75 2.750939 1_545
Al33 Al65 2.812081 1_554
Al33 Al45 2.906798 1_545
Al33 Al49 2.920245 1_545
Al33 Al41 2.998187 1_645
Al33 Dy6 3.492213 1_555
Al34 Ti4 2.719539 1_655
Al34 Al79 2.738750 1_555
Al34 Al9 2.750944 1_655
Al34 Al42 2.754634 1_555
Al34 Al56 2.824039 1_555
Al34 Al62 2.945536 1_555
Al34 Al37 3.045266 1_545
Al34 Al67 3.051310 1_555
Al34 Dy9 3.078413 1_555
Al34 Al83 3.131427 1_555
Al34 Dy5 3.341811 1_655
Al35 Al63 2.762005 1_554
Al35 Al80 2.777945 1_555
Al35 Al70 2.836319 1_555
Al35 Al61 2.836319 1_555
Al35 Dy4 3.130823 1_555
Al35 Dy10 3.130823 1_564
Al35 Al72 3.131427 1_555
Al35 Al43 3.131427 1_554
Al35 Dy3 3.414065 1_554
Al35 Dy6 3.414065 1_565
Al36 Ti7 2.719531 1_555
Al36 Al6 2.754653 1_555
Al36 Al5 2.824042 1_555
Al36 Al48 2.840355 1_555
Al36 Al72 3.045266 1_545
Al36 Al69 3.051310 1_555
Al36 Dy6 3.078422 1_555
Al36 Dy11 3.341808 1_555
Al37 Ti3 2.719531 1_555
Al37 Al8 2.750934 1_555
Al37 Al77 2.754653 1_555
Al37 Al47 2.824042 1_555
Al37 Al62 2.945534 1_565
Al37 Dy9 3.078422 1_565
Al37 Al66 3.131430 1_555
Al37 Dy0 3.341808 1_555
Al38 Ti0 2.705886 1_555
Al38 Ti6 2.709095 1_565
Al38 Al64 2.812081 1_555
Al38 Al48 2.920245 1_565
Al38 Al49 2.920245 1_455
Al38 Al52 2.998187 1_465
Al38 Dy1 3.492213 1_555
Al39 Ti4 2.705886 1_555
Al39 Ti2 2.709095 1_556
Al39 Al58 2.750939 1_555
Al39 Al67 2.750944 1_455
Al39 Al65 2.906798 1_455
Al39 Al40 2.998187 1_445
Al39 Al68 2.998187 1_555
Al39 Dy3 3.492213 1_555
Al40 Ti3 2.705886 1_555
Al40 Ti2 2.709095 1_666
Al40 Al46 2.750934 1_555
Al40 Al45 2.812081 1_556
Al40 Al65 2.906798 1_565
Al40 Al63 2.906798 1_655
Al40 Al44 2.920245 1_655
Al40 Al68 2.998187 1_665
Al40 Dy8 3.492213 1_555
Al41 Ti0 2.705886 1_555
Al41 Ti2 2.709095 1_565
Al41 Al72 2.750944 1_555
Al41 Al63 2.812081 1_554
Al41 Al45 2.906798 1_455
Al41 Al48 2.920245 1_565
Al41 Al49 2.920245 1_455
Al41 Dy4 3.492213 1_555
Al42 Ti5 2.704852 1_555
Al42 Al67 2.754634 1_555
Al42 Al50 2.842785 1_555
Al42 Al79 2.842785 1_555
Al42 Al77 2.886227 1_545
Al42 Al56 3.059904 1_555
Al42 Dy10 3.104595 1_555
Al42 Dy9 3.104595 1_555
Al43 Ti5 2.719539 1_565
Al43 Al68 2.750944 1_565
Al43 Al57 2.754634 1_555
Al43 Al77 2.824039 1_555
Al43 Al44 2.840362 1_555
Al43 Al63 2.945536 1_555
Al43 Al46 3.045266 1_455
Al43 Al78 3.051310 1_555
Al43 Dy3 3.078413 1_555
Al43 Dy10 3.341811 1_565
Al44 Ti5 2.605396 1_565
Al44 Ti3 2.605396 1_455
Al44 Al46 2.840355 1_455
Al44 Al85 2.840355 1_455
Al44 Al78 2.840362 1_555
Al44 Al68 2.920245 1_565
Al44 Al59 2.920245 1_565
Al44 Al8 2.920245 1_455
Al45 Al70 2.762005 1_555
Al45 Al7 2.762005 1_555
Al45 Ti2 2.848160 1_665
Al45 Al75 2.945530 1_555
Al45 Al65 2.985432 1_564
Al45 Al63 2.985432 1_654
Al45 Dy8 3.285919 1_554
Al45 Dy11 3.286958 1_555
Al46 Ti3 2.719531 1_555
Al46 Al50 2.738767 1_555
Al46 Al56 2.754653 1_555
Al46 Al63 2.945534 1_655
Al46 Al85 3.051310 1_555
Al46 Dy3 3.078422 1_655
Al46 Al7 3.131430 1_556
Al46 Dy8 3.341808 1_555
Al47 Ti3 2.704852 1_555
Al47 Al58 2.754643 1_555
Al47 Al71 2.754643 1_555
Al47 Al57 3.059904 1_555
Al47 Al77 3.059904 1_555
Al47 Dy0 3.104600 1_555
Al47 Dy8 3.104600 1_555
Al48 Ti0 2.605396 1_545
Al48 Ti7 2.605396 1_555
Al48 Al49 2.820083 1_445
Al48 Al69 2.840355 1_555
Al48 Al72 2.840362 1_545
Al49 Ti0 2.605396 1_655
Al49 Ti1 2.605396 1_565
Al49 Al75 2.840353 1_555
Al49 Al52 2.920245 1_565
Al50 Al67 2.738750 1_555
Al50 Al74 2.777945 1_556
Al50 Al7 2.777950 1_556
Al50 Al56 2.842785 1_555
Al50 Dy3 3.252096 1_655
Al50 Dy10 3.252097 1_555
Al50 Dy8 3.252106 1_555
Al51 Ti7 2.719531 1_555
Al51 Al81 2.738767 1_555
Al51 Al54 2.754653 1_555
Al51 Al76 2.824042 1_555
Al51 Al82 3.045266 1_455
Al51 Al53 3.051310 1_555
Al51 Dy1 3.078422 1_555
Al51 Al73 3.131430 1_555
Al51 Dy7 3.341808 1_555
Al52 Ti1 2.705886 1_555
Al52 Ti6 2.709095 1_655
Al52 Al82 2.750944 1_555
Al52 Al62 2.812081 1_555
Al52 Dy2 3.492213 1_555
Al53 Ti7 2.719531 1_555
Al53 Al80 2.738767 1_555
Al53 Al54 2.754653 1_555
Al53 Al76 2.824042 1_555
Al53 Dy4 3.078422 1_555
Al53 Al61 3.131430 1_555
Al53 Dy11 3.341808 1_555
Al54 Ti0 2.704842 1_555
Al54 Al72 2.824039 1_555
Al54 Al80 2.842785 1_555
Al54 Al81 2.842785 1_555
Al54 Al60 3.059904 1_555
Al54 Al76 3.059904 1_555
Al54 Dy4 3.104595 1_555
Al54 Dy1 3.104595 1_555
Al55 Al64 2.762005 1_655
Al55 Al79 2.777950 1_555
Al55 Al84 2.836319 1_555
Al55 Al83 2.836319 1_555
Al55 Dy1 3.130823 1_655
Al55 Dy0 3.130823 1_555
Al55 Al85 3.131430 1_555
Al55 Dy7 3.414065 1_555
Al55 Dy5 3.414065 1_655
Al56 Ti4 2.704842 1_655
Al56 Al85 2.754653 1_555
Al56 Al67 2.824039 1_555
Al56 Al79 2.842785 1_555
Al56 Al57 2.886227 1_655
Al56 Dy5 3.104595 1_655
Al56 Dy3 3.104595 1_655
Al57 Ti4 2.704852 1_555
Al57 Al78 2.754634 1_555
Al57 Al58 2.824056 1_555
Al57 Al71 2.824056 1_555
Al57 Al77 3.059904 1_555
Al57 Dy5 3.104595 1_555
Al57 Dy3 3.104595 1_555
Al58 Ti4 2.719539 1_555
Al58 Al71 3.051310 1_555
Al58 Dy8 3.078413 1_555
Al58 Al61 3.131431 1_556
Al58 Dy3 3.341818 1_555
Al59 Ti5 2.705886 1_555
Al59 Ti6 2.709095 1_555
Al59 Al78 2.750944 1_545
Al59 Al64 2.906798 1_545
Al59 Al8 2.998187 1_445
Al59 Al9 2.998187 1_555
Al59 Dy9 3.492213 1_555
Al60 Ti1 2.704852 1_565
Al60 Al72 2.754634 1_555
Al60 Al75 2.824056 1_555
Al60 Al80 2.842785 1_555
Al60 Al81 2.842785 1_555
Al60 Al76 3.059904 1_555
Al60 Dy6 3.104595 1_565
Al60 Dy2 3.104595 1_565
Al61 Al80 2.777950 1_555
Al61 Al70 2.836319 1_555
Al61 Dy3 3.130823 1_554
Al61 Dy11 3.130823 1_555
Al61 Dy8 3.414065 1_554
Al61 Dy4 3.414065 1_555
Al62 Al66 2.762005 1_545
Al62 Al83 2.762005 1_555
Al62 Ti6 2.848160 1_655
Al62 Al9 2.906798 1_655
Al62 Al8 2.906798 1_545
Al62 Dy2 3.285919 1_555
Al62 Dy9 3.286959 1_555
Al63 Al7 2.762005 1_456
Al63 Ti2 2.848160 1_566
Al63 Al68 2.906798 1_565
Al63 Dy4 3.285919 1_556
Al63 Dy3 3.286959 1_555
Al64 Ti6 2.848160 1_565
Al64 Al8 2.906798 1_455
Al64 Al85 2.945534 1_455
Al64 Al78 2.945536 1_555
Al64 Dy1 3.285919 1_555
Al64 Dy5 3.286959 1_555
Al65 Al70 2.762005 1_546
Al65 Al74 2.762005 1_556
Al65 Ti2 2.848160 1_656
Al65 Al67 2.945536 1_555
Al65 Dy6 3.285919 1_556
Al65 Dy10 3.286959 1_555
Al66 Al81 2.777950 1_555
Al66 Al73 2.836319 1_555
Al66 Dy2 3.130823 1_565
Al66 Dy0 3.130823 1_555
Al66 Dy7 3.414065 1_555
Al66 Dy9 3.414065 1_565
Al67 Ti4 2.719539 1_655
Al67 Dy10 3.078413 1_555
Al67 Al74 3.131427 1_556
Al67 Dy3 3.341811 1_655
Al68 Ti5 2.705886 1_555
Al68 Ti2 2.709095 1_556
Al68 Dy10 3.492213 1_555
Al69 Ti7 2.719531 1_555
Al69 Dy2 3.078422 1_555
Al69 Al84 3.131430 1_555
Al69 Dy7 3.341808 1_555
Al70 Al80 2.777950 1_555
Al70 Dy6 3.130823 1_565
Al70 Dy8 3.130823 1_554
Al70 Al75 3.131431 1_555
Al70 Dy11 3.414065 1_555
Al70 Dy10 3.414065 1_564
Al71 Ti4 2.719539 1_555
Al71 Al9 2.750939 1_555
Al71 Dy0 3.078413 1_555
Al71 Al73 3.131431 1_555
Al71 Dy5 3.341818 1_555
Al72 Ti0 2.719539 1_555
Al72 Al80 2.738750 1_555
Al72 Dy6 3.078413 1_565
Al72 Dy4 3.341811 1_555
Al73 Al81 2.777950 1_555
Al73 Dy5 3.130823 1_555
Al73 Dy7 3.130823 1_555
Al73 Dy0 3.414065 1_555
Al73 Dy1 3.414065 1_555
Al74 Dy6 3.130823 1_555
Al74 Dy3 3.130823 1_654
Al74 Dy10 3.414065 1_554
Al74 Dy4 3.414065 1_655
Al75 Ti1 2.719539 1_565
Al75 Al80 2.738770 1_555
Al75 Al76 2.754643 1_555
Al75 Dy11 3.078413 1_555
Al75 Dy6 3.341818 1_565
Al76 Ti7 2.704852 1_555
Al76 Al80 2.842785 1_555
Al76 Al81 2.842785 1_555
Al76 Dy11 3.104600 1_555
Al76 Dy7 3.104600 1_555
Al77 Ti5 2.704842 1_565
Al77 Al78 2.824039 1_555
Al77 Dy9 3.104595 1_565
Al77 Dy10 3.104595 1_565
Al78 Ti5 2.719539 1_565
Al78 Al85 3.045266 1_455
Al78 Dy5 3.078413 1_555
Al78 Dy9 3.341811 1_565
Al79 Al85 2.738767 1_555
Al79 Al83 2.777945 1_555
Al79 Al84 2.777950 1_555
Al79 Dy5 3.252096 1_655
Al79 Dy9 3.252097 1_555
Al79 Dy0 3.252106 1_555
Al80 Dy4 3.252096 1_555
Al80 Dy6 3.252097 1_565
Al80 Dy11 3.252106 1_555
Al81 Dy1 3.252096 1_555
Al81 Dy2 3.252097 1_565
Al81 Dy7 3.252106 1_555
Al82 Ti1 2.719539 1_555
Al82 Dy1 3.078413 1_655
Al82 Al83 3.131427 1_555
Al82 Dy2 3.341811 1_555
Al83 Al84 2.836319 1_555
Al83 Dy2 3.130823 1_555
Al83 Dy5 3.130823 1_655
Al83 Dy9 3.414065 1_555
Al83 Dy1 3.414065 1_655
Al84 Dy9 3.130823 1_555
Al84 Dy7 3.130823 1_555
Al84 Dy0 3.414065 1_555
Al84 Dy2 3.414065 1_555
Al85 Ti3 2.719531 1_555
Al85 Dy5 3.078422 1_655
Al85 Dy0 3.341808 1_555
