# generated using pymatgen
data_K2Ce(PO4)2
_symmetry_space_group_name_H-M   'P 1'
_cell_length_a   6.83756138
_cell_length_b   6.83756097
_cell_length_c   10.05701141
_cell_angle_alpha   109.87322242
_cell_angle_beta   109.87321954
_cell_angle_gamma   89.99999544
_symmetry_Int_Tables_number   1
_chemical_formula_structural   K2Ce(PO4)2
_chemical_formula_sum   'K4 Ce2 P4 O16'
_cell_volume   412.28839920
_cell_formula_units_Z   2
loop_
 _symmetry_equiv_pos_site_id
 _symmetry_equiv_pos_as_xyz
  1  'x, y, z'
loop_
 _atom_site_type_symbol
 _atom_site_label
 _atom_site_symmetry_multiplicity
 _atom_site_fract_x
 _atom_site_fract_y
 _atom_site_fract_z
 _atom_site_occupancy
  K  K0  1  -0.00000000  0.50000000  0.00000000  1
  K  K1  1  0.50000000  0.00000000  0.50000000  1
  K  K2  1  -0.00000000  0.00000000  0.00000000  1
  K  K3  1  -0.00000000  0.00000000  0.50000000  1
  Ce  Ce0  1  0.62500000  0.37500000  0.25000000  1
  Ce  Ce1  1  0.37500000  0.62500000  0.75000000  1
  P  P0  1  0.55105505  0.80105505  0.10211110  1
  P  P1  1  0.44894495  0.19894495  0.89788890  1
  P  P2  1  0.19894495  0.44894495  0.39788890  1
  P  P3  1  0.80105505  0.55105505  0.60211110  1
  O  O0  1  0.03167118  0.60405549  0.70811099  1
  O  O1  1  0.25098784  0.68052264  0.50197468  1
  O  O2  1  0.67643881  0.60405549  0.70811099  1
  O  O3  1  0.25098784  0.32145204  0.50197468  1
  O  O4  1  0.96832882  0.39594451  0.29188901  1
  O  O5  1  0.39594451  0.96832882  0.79188901  1
  O  O6  1  0.74901216  0.31947736  0.49802532  1
  O  O7  1  0.32356119  0.39594451  0.29188901  1
  O  O8  1  0.32145204  0.25098784  0.00197468  1
  O  O9  1  0.60405549  0.03167118  0.20811099  1
  O  O10  1  0.39594451  0.32356119  0.79188901  1
  O  O11  1  0.60405549  0.67643881  0.20811099  1
  O  O12  1  0.74901216  0.67854796  0.49802532  1
  O  O13  1  0.31947736  0.74901216  -0.00197468  1
  O  O14  1  0.68052264  0.25098784  0.00197468  1
  O  O15  1  0.67854796  0.74901216  -0.00197468  1
loop_
_geom_bond_atom_site_label_1
_geom_bond_atom_site_label_2
_geom_bond_distance
_geom_bond_site_symmetry_2
K0 O8 2.779146 1_555
K0 O15 2.779146 1_455
K0 O13 2.779146 1_555
K0 O14 2.779146 1_455
K1 O3 2.779146 1_555
K1 O12 2.779146 1_545
K1 O1 2.779146 1_545
K1 O6 2.779146 1_555
K2 O13 2.779150 1_545
K2 O14 2.779150 1_455
K2 O8 2.779150 1_555
K2 O15 2.779150 1_445
K3 O6 2.779150 1_455
K3 O1 2.779150 1_545
K3 O12 2.779150 1_445
K3 O3 2.779150 1_555
Ce0 O11 2.235054 1_555
Ce0 O7 2.235054 1_555
Ce0 O9 2.235060 1_555
Ce0 O4 2.235061 1_555
Ce0 O12 2.508175 1_555
Ce0 O14 2.508175 1_555
Ce0 O6 2.508175 1_555
Ce0 O8 2.508175 1_555
Ce1 O10 2.235054 1_555
Ce1 O2 2.235054 1_555
Ce1 O5 2.235060 1_555
Ce1 O0 2.235061 1_555
Ce1 O3 2.508175 1_555
Ce1 O13 2.508175 1_556
Ce1 O1 2.508175 1_555
Ce1 O15 2.508175 1_556
O0 P3 1.532550 1_455
O1 P2 1.532799 1_555
O2 P3 1.532550 1_555
O3 P2 1.532805 1_555
O4 P2 1.532550 1_655
O5 P1 1.532550 1_565
O6 P3 1.532799 1_555
O7 P2 1.532550 1_555
O8 P1 1.532805 1_554
O9 P0 1.532550 1_545
O10 P1 1.532550 1_555
O11 P0 1.532550 1_555
O12 P3 1.532805 1_555
O13 P0 1.532799 1_555
O14 P1 1.532799 1_554
O15 P0 1.532805 1_555
