# generated using pymatgen
data_K2MnH4(SeO5)2
_symmetry_space_group_name_H-M   'P 1'
_cell_length_a   6.13921400
_cell_length_b   7.79378205
_cell_length_c   7.95384328
_cell_angle_alpha   66.85132397
_cell_angle_beta   77.94705905
_cell_angle_gamma   73.20507460
_symmetry_Int_Tables_number   1
_chemical_formula_structural   K2MnH4(SeO5)2
_chemical_formula_sum   'K2 Mn1 H4 Se2 O10'
_cell_volume   333.04004116
_cell_formula_units_Z   1
loop_
 _symmetry_equiv_pos_site_id
 _symmetry_equiv_pos_as_xyz
  1  'x, y, z'
loop_
 _atom_site_type_symbol
 _atom_site_label
 _atom_site_symmetry_multiplicity
 _atom_site_fract_x
 _atom_site_fract_y
 _atom_site_fract_z
 _atom_site_occupancy
  K  K0  1  0.16555700  0.75462200  0.62957000  1
  K  K1  1  0.83444300  0.24537800  0.37043000  1
  Mn  Mn0  1  0.00000000  0.00000000  0.00000000  1
  H  H0  1  0.40272600  0.66588200  0.26398000  1
  H  H1  1  0.59727400  0.33411800  0.73602000  1
  H  H2  1  0.38868600  0.48228200  0.22478000  1
  H  H3  1  0.61131400  0.51771800  0.77522000  1
  Se  Se0  1  0.39940000  0.17832200  0.09183700  1
  Se  Se1  1  0.60060000  0.82167800  0.90816300  1
  O  O0  1  0.50656800  0.45215600  0.75495200  1
  O  O1  1  0.49343200  0.54784400  0.24504800  1
  O  O2  1  0.25677100  0.32707700  0.20450500  1
  O  O3  1  0.74322900  0.67292300  0.79549500  1
  O  O4  1  0.68135700  0.12761200  0.12379900  1
  O  O5  1  0.31864300  0.87238800  0.87620100  1
  O  O6  1  0.09858900  0.95493900  0.25078600  1
  O  O7  1  0.90141100  0.04506100  0.74921400  1
  O  O8  1  0.34323100  0.93436400  0.26263600  1
  O  O9  1  0.65676900  0.06563600  0.73736400  1
loop_
_geom_bond_atom_site_label_1
_geom_bond_atom_site_label_2
_geom_bond_distance
_geom_bond_site_symmetry_2
K0 O0 2.665727 1_555
K0 O7 2.754477 1_465
K0 O3 2.780988 1_455
K0 O8 2.830034 1_555
K0 O6 2.851585 1_555
K0 O5 2.873658 1_555
K1 O1 2.665727 1_555
K1 O6 2.754477 1_645
K1 O2 2.780988 1_655
K1 O9 2.830034 1_555
K1 O7 2.851585 1_555
K1 O4 2.873658 1_555
Mn0 O6 2.073437 1_545
Mn0 O7 2.073437 1_454
Mn0 O4 2.150987 1_455
Mn0 O5 2.150987 1_544
H0 O1 0.978238 1_555
H1 O0 0.978238 1_555
H2 O1 0.999278 1_555
H2 O2 1.708543 1_555
H3 O0 0.999278 1_555
H3 O3 1.708543 1_555
O2 Se0 1.678219 1_555
O3 Se1 1.678219 1_555
O4 Se0 1.710731 1_555
O5 Se1 1.710731 1_555
O6 O8 1.482695 1_555
O7 O9 1.482695 1_555
O8 Se0 1.931840 1_565
O9 Se1 1.931840 1_545
