# generated using pymatgen
data_Zn8B3H3O14
_symmetry_space_group_name_H-M   'P 1'
_cell_length_a   7.62428957
_cell_length_b   7.62428957
_cell_length_c   7.62428996
_cell_angle_alpha   65.40775430
_cell_angle_beta   65.40775430
_cell_angle_gamma   65.40775807
_symmetry_Int_Tables_number   1
_chemical_formula_structural   Zn8B3H3O14
_chemical_formula_sum   'Zn8 B3 H3 O14'
_cell_volume   350.26265448
_cell_formula_units_Z   1
loop_
 _symmetry_equiv_pos_site_id
 _symmetry_equiv_pos_as_xyz
  1  'x, y, z'
loop_
 _atom_site_type_symbol
 _atom_site_label
 _atom_site_symmetry_multiplicity
 _atom_site_fract_x
 _atom_site_fract_y
 _atom_site_fract_z
 _atom_site_occupancy
  Zn  Zn0  1  0.40822600  0.40822600  0.40822600  1
  Zn  Zn1  1  0.77065700  0.51732000  0.95574500  1
  Zn  Zn2  1  0.95574500  0.77065700  0.51732000  1
  Zn  Zn3  1  0.04425500  0.48268000  0.22934300  1
  Zn  Zn4  1  0.51732000  0.95574500  0.77065700  1
  Zn  Zn5  1  0.48268000  0.22934300  0.04425500  1
  Zn  Zn6  1  0.59177400  0.59177400  0.59177400  1
  Zn  Zn7  1  0.22934300  0.04425500  0.48268000  1
  B  B0  1  0.50000000  0.79810900  0.20189100  1
  B  B1  1  0.79810900  0.20189100  0.50000000  1
  B  B2  1  0.20189100  0.50000000  0.79810900  1
  H  H0  1  0.13972000  0.00000000  0.86028100  1
  H  H1  1  0.00000000  0.86028100  0.13972000  1
  H  H2  1  0.86028100  0.13971900  0.00000000  1
  O  O0  1  0.00000000  0.74312200  0.25687800  1
  O  O1  1  0.70350100  0.70350100  0.70350100  1
  O  O2  1  0.25687800  0.00000000  0.74312200  1
  O  O3  1  0.38858200  0.45775000  0.81854100  1
  O  O4  1  0.81854100  0.38858200  0.45775000  1
  O  O5  1  0.96768900  0.03231100  0.50000000  1
  O  O6  1  0.18145900  0.54225000  0.61141800  1
  O  O7  1  0.74312200  0.25687800  0.00000000  1
  O  O8  1  0.61141800  0.18145900  0.54225000  1
  O  O9  1  0.45775000  0.81854100  0.38858200  1
  O  O10  1  0.50000000  0.96768900  0.03231100  1
  O  O11  1  0.29649900  0.29649900  0.29649900  1
  O  O12  1  0.54225000  0.61141800  0.18145900  1
  O  O13  1  0.03231100  0.50000000  0.96768900  1
loop_
_geom_bond_atom_site_label_1
_geom_bond_atom_site_label_2
_geom_bond_distance
_geom_bond_site_symmetry_2
B0 O12 1.383916 1_555
B0 O9 1.383916 1_555
B0 O10 1.397130 1_555
B1 O4 1.383916 1_555
B1 O8 1.383916 1_555
B1 O5 1.397130 1_555
B2 O3 1.383916 1_555
B2 O6 1.383916 1_555
B2 O13 1.397130 1_555
H0 O2 0.965241 1_555
H1 O0 0.965241 1_555
H2 O7 0.965246 1_555
O0 Zn3 1.957351 1_555
O0 Zn2 1.957351 1_455
O1 Zn2 1.979452 1_555
O1 Zn4 1.979452 1_555
O1 Zn1 1.979452 1_555
O1 Zn6 1.997185 1_555
O2 Zn4 1.957351 1_545
O2 Zn7 1.957351 1_555
O3 Zn5 2.000564 1_556
O3 Zn6 2.012756 1_555
O4 Zn3 2.000564 1_655
O4 Zn6 2.012756 1_555
O5 Zn2 1.981765 1_545
O5 Zn7 1.981765 1_655
O6 Zn2 2.000564 1_455
O6 Zn0 2.012756 1_555
O7 Zn1 1.957351 1_554
O7 Zn5 1.957351 1_555
O8 Zn4 2.000564 1_545
O8 Zn0 2.012756 1_555
O9 Zn7 2.000564 1_565
O9 Zn6 2.012756 1_555
O10 Zn5 1.981765 1_565
O10 Zn4 1.981765 1_554
O11 Zn7 1.979452 1_555
O11 Zn3 1.979452 1_555
O11 Zn5 1.979452 1_555
O11 Zn0 1.997185 1_555
O12 Zn1 2.000564 1_554
O12 Zn0 2.012756 1_555
O13 Zn1 1.981765 1_455
O13 Zn3 1.981765 1_556
