# generated using pymatgen
data_Sr(CuSb)2
_symmetry_space_group_name_H-M   'P 1'
_cell_length_a   4.56626323
_cell_length_b   4.56626323
_cell_length_c   10.75939482
_cell_angle_alpha   90.00000000
_cell_angle_beta   90.00000000
_cell_angle_gamma   90.00000000
_symmetry_Int_Tables_number   1
_chemical_formula_structural   Sr(CuSb)2
_chemical_formula_sum   'Sr2 Cu4 Sb4'
_cell_volume   224.34155791
_cell_formula_units_Z   2
loop_
 _symmetry_equiv_pos_site_id
 _symmetry_equiv_pos_as_xyz
  1  'x, y, z'
loop_
 _atom_site_type_symbol
 _atom_site_label
 _atom_site_symmetry_multiplicity
 _atom_site_fract_x
 _atom_site_fract_y
 _atom_site_fract_z
 _atom_site_occupancy
  Sr  Sr0  1  0.25000000  0.25000000  0.23660942  1
  Sr  Sr1  1  0.75000000  0.75000000  0.76339058  1
  Cu  Cu0  1  0.25000000  0.25000000  0.63291326  1
  Cu  Cu1  1  0.75000000  0.25000000  -0.00000000  1
  Cu  Cu2  1  0.75000000  0.75000000  0.36708674  1
  Cu  Cu3  1  0.25000000  0.75000000  -0.00000000  1
  Sb  Sb0  1  0.75000000  0.75000000  0.12853450  1
  Sb  Sb1  1  0.25000000  0.75000000  0.50000000  1
  Sb  Sb2  1  0.75000000  0.25000000  0.50000000  1
  Sb  Sb3  1  0.25000000  0.25000000  0.87146550  1
loop_
_geom_bond_atom_site_label_1
_geom_bond_atom_site_label_2
_geom_bond_distance
_geom_bond_site_symmetry_2
Cu0 Sb3 2.566678 1_555
Cu0 Sb1 2.694027 1_545
Cu0 Sb2 2.694027 1_455
Cu0 Sb1 2.694027 1_555
Cu0 Sb2 2.694027 1_555
Cu0 Sr1 3.520823 1_555
Cu0 Sr1 3.520823 1_445
Cu0 Sr1 3.520823 1_545
Cu0 Sr1 3.520823 1_455
Cu1 Sb0 2.669316 1_545
Cu1 Sb3 2.669316 1_554
Cu1 Sb0 2.669316 1_555
Cu1 Sb3 2.669316 1_654
Cu1 Sr1 3.419599 1_554
Cu1 Sr1 3.419599 1_544
Cu1 Sr0 3.419599 1_555
Cu1 Sr0 3.419599 1_655
Cu2 Sb0 2.566678 1_555
Cu2 Sb1 2.694027 1_555
Cu2 Sb2 2.694027 1_555
Cu2 Sb1 2.694027 1_655
Cu2 Sb2 2.694027 1_565
Cu2 Sr0 3.520823 1_565
Cu2 Sr0 3.520823 1_655
Cu2 Sr0 3.520823 1_555
Cu2 Sr0 3.520823 1_665
Cu3 Sb0 2.669316 1_455
Cu3 Sb3 2.669316 1_554
Cu3 Sb0 2.669316 1_555
Cu3 Sb3 2.669316 1_564
Cu3 Sr1 3.419599 1_554
Cu3 Sr1 3.419599 1_454
Cu3 Sr0 3.419599 1_555
Cu3 Sr0 3.419599 1_565
Sb0 Sr0 3.431841 1_665
Sb0 Sr0 3.431841 1_565
Sb0 Sr0 3.431841 1_655
Sb0 Sr0 3.431841 1_555
Sb1 Sr0 3.639205 1_565
Sb1 Sr0 3.639205 1_555
Sb1 Sr1 3.639205 1_455
Sb1 Sr1 3.639205 1_555
Sb2 Sr0 3.639205 1_655
Sb2 Sr0 3.639205 1_555
Sb2 Sr1 3.639205 1_545
Sb2 Sr1 3.639205 1_555
Sb3 Sr1 3.431841 1_445
Sb3 Sr1 3.431841 1_545
Sb3 Sr1 3.431841 1_455
Sb3 Sr1 3.431841 1_555
