# generated using pymatgen
data_KNa7Pb2O7
_symmetry_space_group_name_H-M   'P 1'
_cell_length_a   6.04086100
_cell_length_b   10.75668900
_cell_length_c   17.82085779
_cell_angle_alpha   89.66216534
_cell_angle_beta   90.00000000
_cell_angle_gamma   90.00000000
_symmetry_Int_Tables_number   1
_chemical_formula_structural   KNa7Pb2O7
_chemical_formula_sum   'K4 Na28 Pb8 O28'
_cell_volume   1157.97320475
_cell_formula_units_Z   4
loop_
 _symmetry_equiv_pos_site_id
 _symmetry_equiv_pos_as_xyz
  1  'x, y, z'
loop_
 _atom_site_type_symbol
 _atom_site_label
 _atom_site_symmetry_multiplicity
 _atom_site_fract_x
 _atom_site_fract_y
 _atom_site_fract_z
 _atom_site_occupancy
  K  K0  1  0.01598000  0.86001000  0.46369300  1
  K  K1  1  0.98402000  0.13999000  0.53630700  1
  K  K2  1  0.48402000  0.36001000  0.46369300  1
  K  K3  1  0.51598000  0.63999000  0.53630700  1
  Na  Na0  1  0.31936800  0.66689700  0.19451500  1
  Na  Na1  1  0.44109500  0.07021400  0.41982600  1
  Na  Na2  1  0.28623900  0.70536200  0.82259200  1
  Na  Na3  1  0.18063200  0.16689700  0.19451500  1
  Na  Na4  1  0.81936800  0.83310300  0.80548500  1
  Na  Na5  1  0.40168000  0.40991000  0.29354200  1
  Na  Na6  1  0.83598500  0.57856400  0.86431700  1
  Na  Na7  1  0.68063200  0.33310300  0.80548500  1
  Na  Na8  1  0.33598500  0.92143600  0.13568300  1
  Na  Na9  1  0.21376100  0.20536200  0.82259200  1
  Na  Na10  1  0.66401500  0.07856400  0.86431700  1
  Na  Na11  1  0.05890500  0.57021400  0.41982600  1
  Na  Na12  1  0.66951400  0.81330700  0.97075300  1
  Na  Na13  1  0.59832000  0.59009000  0.70645800  1
  Na  Na14  1  0.16951400  0.68669300  0.02924700  1
  Na  Na15  1  0.14592200  0.45773100  0.74661100  1
  Na  Na16  1  0.55890500  0.92978600  0.58017400  1
  Na  Na17  1  0.85407800  0.54226900  0.25338900  1
  Na  Na18  1  0.83048600  0.31330700  0.97075300  1
  Na  Na19  1  0.35407800  0.95773100  0.74661100  1
  Na  Na20  1  0.90168000  0.09009000  0.70645800  1
  Na  Na21  1  0.78623900  0.79463800  0.17740800  1
  Na  Na22  1  0.94109500  0.42978600  0.58017400  1
  Na  Na23  1  0.09832000  0.90991000  0.29354200  1
  Na  Na24  1  0.64592200  0.04226900  0.25338900  1
  Na  Na25  1  0.71376100  0.29463800  0.17740800  1
  Na  Na26  1  0.33048600  0.18669300  0.02924700  1
  Na  Na27  1  0.16401500  0.42143600  0.13568300  1
  Pb  Pb0  1  0.68337700  0.55990800  0.07776900  1
  Pb  Pb1  1  0.31662300  0.44009200  0.92223100  1
  Pb  Pb2  1  0.06604600  0.75017700  0.64246600  1
  Pb  Pb3  1  0.43395400  0.25017700  0.64246600  1
  Pb  Pb4  1  0.93395400  0.24982300  0.35753400  1
  Pb  Pb5  1  0.81662300  0.05990800  0.07776900  1
  Pb  Pb6  1  0.18337700  0.94009200  0.92223100  1
  Pb  Pb7  1  0.56604600  0.74982300  0.35753400  1
  O  O0  1  0.43342900  0.57266000  0.38145100  1
  O  O1  1  0.01109100  0.75707700  0.91718100  1
  O  O2  1  0.56657100  0.42734000  0.61854900  1
  O  O3  1  0.01426500  0.63877700  0.54709400  1
  O  O4  1  0.98890900  0.24292300  0.08281900  1
  O  O5  1  0.90593800  0.72179500  0.33343000  1
  O  O6  1  0.09406200  0.27820500  0.66657000  1
  O  O7  1  0.95468500  0.65460600  0.73997100  1
  O  O8  1  0.04531500  0.34539400  0.26002900  1
  O  O9  1  0.51314100  0.11822400  0.13814500  1
  O  O10  1  0.48890900  0.25707700  0.91718100  1
  O  O11  1  0.45468500  0.84539400  0.26002900  1
  O  O12  1  0.54531500  0.15460600  0.73997100  1
  O  O13  1  0.48685900  0.88177600  0.86185500  1
  O  O14  1  0.51109100  0.74292300  0.08281900  1
  O  O15  1  0.02586300  0.01587300  0.81990700  1
  O  O16  1  0.01314100  0.38177600  0.86185500  1
  O  O17  1  0.51426500  0.86122300  0.45290600  1
  O  O18  1  0.06657100  0.07266000  0.38145100  1
  O  O19  1  0.47413700  0.51587300  0.81990700  1
  O  O20  1  0.97413700  0.98412700  0.18009300  1
  O  O21  1  0.48573500  0.13877700  0.54709400  1
  O  O22  1  0.98573500  0.36122300  0.45290600  1
  O  O23  1  0.93342900  0.92734000  0.61854900  1
  O  O24  1  0.98685900  0.61822400  0.13814500  1
  O  O25  1  0.40593800  0.77820500  0.66657000  1
  O  O26  1  0.52586300  0.48412700  0.18009300  1
  O  O27  1  0.59406200  0.22179500  0.33343000  1
loop_
_geom_bond_atom_site_label_1
_geom_bond_atom_site_label_2
_geom_bond_distance
_geom_bond_site_symmetry_2
K0 O18 2.726566 1_565
K0 O3 2.798313 1_555
K0 O5 2.842862 1_455
K0 O23 2.900439 1_455
K0 O17 3.016226 1_555
K0 O17 3.036904 1_455
K1 O23 2.726566 1_545
K1 O22 2.798313 1_555
K1 O6 2.842862 1_655
K1 O18 2.900439 1_655
K1 O21 3.016226 1_555
K1 O21 3.036904 1_655
K2 O0 2.726566 1_555
K2 O21 2.798313 1_555
K2 O27 2.842862 1_555
K2 O2 2.900439 1_555
K2 O22 3.016226 1_455
K2 O22 3.036904 1_555
K3 O2 2.726566 1_555
K3 O17 2.798313 1_555
K3 O25 2.842862 1_555
K3 O0 2.900439 1_555
K3 O3 3.016226 1_655
K3 O3 3.036904 1_555
Na0 O24 2.307401 1_455
Na0 O26 2.343757 1_555
Na0 O11 2.396719 1_555
Na0 O14 2.439899 1_555
Na1 O17 2.362415 1_545
Na1 O18 2.363648 1_555
Na1 O21 2.404226 1_555
Na1 O27 2.419371 1_555
Na2 O19 2.333747 1_555
Na2 O13 2.361140 1_555
Na2 O1 2.434056 1_555
Na2 O7 2.546949 1_455
Na2 O25 2.973548 1_555
Na3 O9 2.307401 1_555
Na3 O20 2.343757 1_445
Na3 O8 2.396719 1_555
Na3 O4 2.439899 1_455
Na4 O13 2.307401 1_555
Na4 O15 2.343757 1_665
Na4 O7 2.396719 1_555
Na4 O1 2.439899 1_655
Na5 O26 2.295335 1_555
Na5 O8 2.340410 1_555
Na5 O0 2.363934 1_555
Na5 O27 2.435869 1_555
Na6 O16 2.372569 1_655
Na6 O1 2.390601 1_655
Na6 O19 2.421866 1_555
Na6 O7 2.464202 1_555
Na7 O16 2.307401 1_655
Na7 O19 2.343757 1_555
Na7 O12 2.396719 1_555
Na7 O10 2.439899 1_555
Na8 O9 2.372569 1_565
Na8 O14 2.390601 1_555
Na8 O20 2.421866 1_455
Na8 O11 2.464202 1_555
Na9 O15 2.333747 1_555
Na9 O16 2.361140 1_555
Na9 O10 2.434056 1_555
Na9 O12 2.546949 1_555
Na9 O6 2.973548 1_555
Na10 O13 2.372569 1_545
Na10 O10 2.390601 1_555
Na10 O15 2.421866 1_655
Na10 O12 2.464202 1_555
Na11 O22 2.362415 1_455
Na11 O0 2.363648 1_555
Na11 O3 2.404226 1_555
Na11 O5 2.419371 1_455
Na12 O14 2.336599 1_556
Na12 O13 2.347168 1_555
Na12 O1 2.354103 1_655
Na13 O19 2.295335 1_555
Na13 O7 2.340410 1_555
Na13 O2 2.363934 1_555
Na13 O25 2.435869 1_555
Na14 O1 2.336599 1_554
Na14 O24 2.347168 1_455
Na14 O14 2.354103 1_555
Na15 O16 2.347126 1_555
Na15 O7 2.414616 1_455
Na15 O6 2.427841 1_555
Na15 O19 2.457241 1_555
Na16 O21 2.362415 1_565
Na16 O23 2.363648 1_555
Na16 O17 2.404226 1_555
Na16 O25 2.419371 1_555
Na17 O24 2.347126 1_555
Na17 O8 2.414616 1_655
Na17 O5 2.427841 1_555
Na17 O26 2.457241 1_555
Na18 O4 2.336599 1_556
Na18 O16 2.347168 1_655
Na18 O10 2.354103 1_555
Na19 O13 2.347126 1_555
Na19 O12 2.414616 1_565
Na19 O25 2.427841 1_555
Na19 O15 2.457241 1_565
Na20 O15 2.295335 1_655
Na20 O12 2.340410 1_555
Na20 O23 2.363934 1_545
Na20 O6 2.435869 1_655
Na21 O20 2.333747 1_555
Na21 O24 2.361140 1_555
Na21 O14 2.434056 1_555
Na21 O11 2.546949 1_555
Na21 O5 2.973548 1_555
Na22 O3 2.362415 1_655
Na22 O2 2.363648 1_555
Na22 O22 2.404226 1_555
Na22 O6 2.419371 1_655
Na23 O20 2.295335 1_455
Na23 O11 2.340410 1_555
Na23 O18 2.363934 1_565
Na23 O5 2.435869 1_455
Na24 O9 2.347126 1_555
Na24 O11 2.414616 1_545
Na24 O27 2.427841 1_555
Na24 O20 2.457241 1_545
Na25 O26 2.333747 1_555
Na25 O9 2.361140 1_555
Na25 O4 2.434056 1_555
Na25 O8 2.546949 1_655
Na25 O27 2.973548 1_555
Na26 O10 2.336599 1_554
Na26 O9 2.347168 1_555
Na26 O4 2.354103 1_455
Na27 O24 2.372569 1_455
Na27 O4 2.390601 1_455
Na27 O26 2.421866 1_555
Na27 O8 2.464202 1_555
O0 Pb7 2.108441 1_555
O1 Pb6 2.229100 1_555
O2 Pb3 2.108441 1_555
O3 Pb2 2.108661 1_555
O4 Pb5 2.229100 1_555
O5 Pb7 2.119607 1_555
O6 Pb3 2.119607 1_555
O7 Pb2 2.123124 1_655
O8 Pb4 2.123124 1_455
O9 Pb5 2.218126 1_555
O10 Pb1 2.229100 1_555
O11 Pb7 2.123124 1_555
O12 Pb3 2.123124 1_555
O13 Pb6 2.218126 1_555
O14 Pb0 2.229100 1_555
O15 Pb6 2.208505 1_545
O16 Pb1 2.218126 1_555
O17 Pb7 2.108661 1_555
O18 Pb4 2.108441 1_455
O19 Pb1 2.208505 1_555
O20 Pb5 2.208505 1_565
O21 Pb3 2.108661 1_555
O22 Pb4 2.108661 1_555
O23 Pb2 2.108441 1_655
O24 Pb0 2.218126 1_555
O25 Pb2 2.119607 1_555
O26 Pb0 2.208505 1_555
O27 Pb4 2.119607 1_555
