# generated using pymatgen
data_Mg2V2O7
_symmetry_space_group_name_H-M   'P 1'
_cell_length_a   8.53170600
_cell_length_b   6.71965200
_cell_length_c   9.61705362
_cell_angle_alpha   79.16688332
_cell_angle_beta   90.00000000
_cell_angle_gamma   90.00000000
_symmetry_Int_Tables_number   1
_chemical_formula_structural   Mg2V2O7
_chemical_formula_sum   'Mg8 V8 O28'
_cell_volume   541.52093182
_cell_formula_units_Z   4
loop_
 _symmetry_equiv_pos_site_id
 _symmetry_equiv_pos_as_xyz
  1  'x, y, z'
loop_
 _atom_site_type_symbol
 _atom_site_label
 _atom_site_symmetry_multiplicity
 _atom_site_fract_x
 _atom_site_fract_y
 _atom_site_fract_z
 _atom_site_occupancy
  Mg  Mg0  1  0.88918400  0.69209900  0.18136300  1
  Mg  Mg1  1  0.38918400  0.30790100  0.31863700  1
  Mg  Mg2  1  0.87893700  0.85305500  0.46382600  1
  Mg  Mg3  1  0.11081600  0.30790100  0.81863700  1
  Mg  Mg4  1  0.61081600  0.69209900  0.68136300  1
  Mg  Mg5  1  0.12106300  0.14694500  0.53617400  1
  Mg  Mg6  1  0.62106300  0.85305500  0.96382600  1
  Mg  Mg7  1  0.37893700  0.14694500  0.03617400  1
  V  V0  1  0.24206400  0.64053300  0.53098700  1
  V  V1  1  0.74206400  0.35946700  0.96901300  1
  V  V2  1  0.47934700  0.19227900  0.68563100  1
  V  V3  1  0.25793600  0.64053300  0.03098700  1
  V  V4  1  0.97934700  0.80772100  0.81436900  1
  V  V5  1  0.52065300  0.80772100  0.31436900  1
  V  V6  1  0.75793600  0.35946700  0.46901300  1
  V  V7  1  0.02065300  0.19227900  0.18563100  1
  O  O0  1  0.62085100  0.14868300  0.00258300  1
  O  O1  1  0.14190500  0.25054600  0.31604700  1
  O  O2  1  0.62582900  0.32369000  0.34777000  1
  O  O3  1  0.92319100  0.96885700  0.24742900  1
  O  O4  1  0.85809500  0.74945400  0.68395300  1
  O  O5  1  0.13224200  0.17277700  0.03937100  1
  O  O6  1  0.87914900  0.14868300  0.50258300  1
  O  O7  1  0.57680900  0.96885700  0.74742900  1
  O  O8  1  0.63121900  0.57174900  0.89852800  1
  O  O9  1  0.12997600  0.60968000  0.87646700  1
  O  O10  1  0.12085100  0.85131700  0.49741700  1
  O  O11  1  0.64190500  0.74945400  0.18395300  1
  O  O12  1  0.36775800  0.17277700  0.53937100  1
  O  O13  1  0.87002400  0.39032000  0.12353300  1
  O  O14  1  0.63224200  0.82722300  0.46062900  1
  O  O15  1  0.37914900  0.85131700  0.99741700  1
  O  O16  1  0.07680900  0.03114300  0.75257100  1
  O  O17  1  0.37002400  0.60968000  0.37646700  1
  O  O18  1  0.86878100  0.57174900  0.39852800  1
  O  O19  1  0.12582900  0.67631000  0.15223000  1
  O  O20  1  0.42319100  0.03114300  0.25257100  1
  O  O21  1  0.37417100  0.67631000  0.65223000  1
  O  O22  1  0.62997600  0.39032000  0.62353300  1
  O  O23  1  0.13121900  0.42825100  0.60147200  1
  O  O24  1  0.35809500  0.25054600  0.81604700  1
  O  O25  1  0.86775800  0.82722300  0.96062900  1
  O  O26  1  0.36878100  0.42825100  0.10147200  1
  O  O27  1  0.87417100  0.32369000  0.84777000  1
loop_
_geom_bond_atom_site_label_1
_geom_bond_atom_site_label_2
_geom_bond_distance
_geom_bond_site_symmetry_2
Mg0 O19 2.043827 1_655
Mg0 O3 2.095369 1_555
Mg0 O18 2.100288 1_555
Mg0 O11 2.145612 1_555
Mg0 O25 2.153983 1_554
Mg0 O13 2.207293 1_555
Mg1 O2 2.043827 1_555
Mg1 O20 2.095369 1_555
Mg1 O26 2.100288 1_555
Mg1 O1 2.145612 1_555
Mg1 O12 2.153983 1_555
Mg1 O17 2.207293 1_555
Mg2 O10 2.088761 1_655
Mg2 O6 2.088901 1_565
Mg2 O18 2.102670 1_555
Mg2 O4 2.108045 1_555
Mg2 O14 2.112574 1_555
Mg2 O3 2.114313 1_555
Mg3 O27 2.043827 1_455
Mg3 O16 2.095369 1_555
Mg3 O23 2.100288 1_555
Mg3 O24 2.145612 1_555
Mg3 O5 2.153983 1_556
Mg3 O9 2.207293 1_555
Mg4 O21 2.043827 1_555
Mg4 O7 2.095369 1_555
Mg4 O8 2.100288 1_555
Mg4 O4 2.145612 1_555
Mg4 O14 2.153983 1_555
Mg4 O22 2.207293 1_555
Mg5 O6 2.088761 1_455
Mg5 O10 2.088901 1_545
Mg5 O23 2.102670 1_555
Mg5 O1 2.108045 1_555
Mg5 O12 2.112574 1_555
Mg5 O16 2.114313 1_555
Mg6 O15 2.088761 1_555
Mg6 O0 2.088901 1_566
Mg6 O8 2.102670 1_555
Mg6 O11 2.108045 1_556
Mg6 O25 2.112574 1_555
Mg6 O7 2.114313 1_555
Mg7 O0 2.088761 1_555
Mg7 O15 2.088901 1_544
Mg7 O26 2.102670 1_555
Mg7 O24 2.108045 1_554
Mg7 O5 2.112574 1_555
Mg7 O20 2.114313 1_555
O0 V1 1.734355 1_554
O1 V7 1.726591 1_555
O2 V6 1.671249 1_555
O3 V7 1.721392 1_665
O4 V4 1.726591 1_555
O5 V7 1.723760 1_555
O6 V6 1.734355 1_555
O7 V2 1.721392 1_565
O8 V1 1.739297 1_555
O9 V4 1.865580 1_455
O9 V3 1.886508 1_556
O10 V0 1.734355 1_555
O11 V5 1.726591 1_555
O12 V2 1.723760 1_555
O13 V7 1.865580 1_655
O13 V1 1.886508 1_554
O14 V5 1.723760 1_555
O15 V3 1.734355 1_556
O16 V4 1.721392 1_445
O17 V5 1.865580 1_555
O17 V0 1.886508 1_555
O18 V6 1.739297 1_555
O19 V3 1.671249 1_555
O20 V5 1.721392 1_545
O21 V0 1.671249 1_555
O22 V2 1.865580 1_555
O22 V6 1.886508 1_555
O23 V0 1.739297 1_555
O24 V2 1.726591 1_555
O25 V4 1.723760 1_555
O26 V3 1.739297 1_555
O27 V1 1.671249 1_555
