# generated using pymatgen
data_Li3ScF6
_symmetry_space_group_name_H-M   'P 1'
_cell_length_a   8.70114707
_cell_length_b   8.70113318
_cell_length_c   9.35153586
_cell_angle_alpha   89.99890502
_cell_angle_beta   90.00118495
_cell_angle_gamma   119.99823502
_symmetry_Int_Tables_number   1
_chemical_formula_structural   Li3ScF6
_chemical_formula_sum   'Li18 Sc6 F36'
_cell_volume   613.15972993
_cell_formula_units_Z   6
loop_
 _symmetry_equiv_pos_site_id
 _symmetry_equiv_pos_as_xyz
  1  'x, y, z'
loop_
 _atom_site_type_symbol
 _atom_site_label
 _atom_site_symmetry_multiplicity
 _atom_site_fract_x
 _atom_site_fract_y
 _atom_site_fract_z
 _atom_site_occupancy
  Li  Li0  1  0.34204074  0.35695758  0.96704172  1
  Li  Li1  1  0.69610041  -0.00005268  0.24998536  1
  Li  Li2  1  0.69611935  0.69612613  0.74999914  1
  Li  Li3  1  0.98509600  0.64304076  0.53295846  1
  Li  Li4  1  0.65794478  0.64304110  0.03295031  1
  Li  Li5  1  0.34205294  0.98508606  0.46705267  1
  Li  Li6  1  0.64303520  0.65795485  0.46704444  1
  Li  Li7  1  0.30387817  0.30388256  0.24999906  1
  Li  Li8  1  -0.00005265  0.69610088  0.25001454  1
  Li  Li9  1  0.30390717  0.00005812  0.75001544  1
  Li  Li10  1  0.01490508  0.35694879  0.46703779  1
  Li  Li11  1  0.35695940  0.01491047  0.03295769  1
  Li  Li12  1  0.01492462  0.65795489  0.96705985  1
  Li  Li13  1  0.65796611  0.01492790  0.53294850  1
  Li  Li14  1  0.98508147  0.34204089  0.03295186  1
  Li  Li15  1  0.64305339  0.98510427  0.96703733  1
  Li  Li16  1  0.00004765  0.30389868  0.74998747  1
  Li  Li17  1  0.35694911  0.34204148  0.53295638  1
  Sc  Sc0  1  0.66665784  0.33331073  0.25902485  1
  Sc  Sc1  1  0.66668350  0.33333243  0.75902500  1
  Sc  Sc2  1  0.00000293  0.00002662  0.00001250  1
  Sc  Sc3  1  0.33332790  0.66665472  0.24097403  1
  Sc  Sc4  1  -0.00000216  0.00002912  0.49999445  1
  Sc  Sc5  1  0.33333220  0.66666879  0.74097363  1
  F  F0  1  0.88049047  0.77017737  0.88985469  1
  F  F1  1  0.78676341  0.55609782  0.13705064  1
  F  F2  1  0.44388901  0.23065307  0.13705429  1
  F  F3  1  0.11951857  0.88966493  0.61014306  1
  F  F4  1  0.78678928  0.23066998  0.63705838  1
  F  F5  1  0.88048958  0.11030982  0.38986086  1
  F  F6  1  0.55610456  0.76934425  0.86294297  1
  F  F7  1  0.77017458  0.88965672  0.11013703  1
  F  F8  1  0.56964508  0.10844826  0.37907612  1
  F  F9  1  0.88967564  0.11950517  0.88985800  1
  F  F10  1  0.11032967  0.22981409  0.61013663  1
  F  F11  1  0.76933115  0.21320839  0.13705763  1
  F  F12  1  0.53878952  0.10845951  0.87906977  1
  F  F13  1  0.21321112  0.76933653  0.36293950  1
  F  F14  1  0.89155535  0.46121843  0.37906124  1
  F  F15  1  0.11032188  0.88047907  0.11014616  1
  F  F16  1  0.77018285  0.88049629  0.61014450  1
  F  F17  1  0.44390350  0.21323874  0.63705164  1
  F  F18  1  0.22981502  0.11949720  0.38986067  1
  F  F19  1  0.43036191  0.89156035  0.62092851  1
  F  F20  1  0.22982283  0.11032867  0.88986454  1
  F  F21  1  0.11949583  0.22981488  0.11014380  1
  F  F22  1  0.46121575  0.89154790  0.12092799  1
  F  F23  1  0.89155025  0.43036152  0.87907743  1
  F  F24  1  0.76935111  0.55611075  0.63705144  1
  F  F25  1  0.23065730  0.44389359  0.36294771  1
  F  F26  1  0.10845028  0.56964872  0.12092353  1
  F  F27  1  0.23066592  0.78679582  0.86294073  1
  F  F28  1  0.21323139  0.44390227  0.86294394  1
  F  F29  1  0.10845013  0.53879114  0.62093284  1
  F  F30  1  0.88965993  0.77016363  0.38986045  1
  F  F31  1  0.56966314  0.46120230  0.87906344  1
  F  F32  1  0.53879859  0.43034382  0.37905661  1
  F  F33  1  0.46120018  0.56965748  0.62094577  1
  F  F34  1  0.43033885  0.53880028  0.12093598  1
  F  F35  1  0.55609523  0.78675808  0.36295003  1
loop_
_geom_bond_atom_site_label_1
_geom_bond_atom_site_label_2
_geom_bond_distance
_geom_bond_site_symmetry_2
F0 Li2 1.914575 1_555
F0 Li12 1.996270 1_655
F0 Sc2 2.015635 1_666
F0 Li4 2.149916 1_556
F1 Li4 1.903726 1_555
F1 Li8 1.944523 1_655
F1 Sc0 2.031066 1_555
F1 Li12 2.344036 1_654
F2 Li11 1.903647 1_555
F2 Li7 1.944737 1_555
F2 Sc0 2.030932 1_555
F2 Li0 2.344054 1_554
F3 Li9 1.914835 1_565
F3 Li3 1.996043 1_455
F3 Sc4 2.015752 1_565
F3 Li5 2.149807 1_555
F4 Li13 1.903722 1_555
F4 Li16 1.944775 1_655
F4 Sc1 2.030905 1_555
F4 Li10 2.343975 1_655
F5 Li1 1.914836 1_555
F5 Li10 1.996115 1_655
F5 Sc4 2.015065 1_655
F5 Li13 2.149745 1_555
F6 Li15 1.903740 1_555
F6 Li2 1.944696 1_555
F6 Sc5 2.030943 1_555
F6 Li4 2.343970 1_556
F7 Li1 1.914487 1_565
F7 Li4 1.995972 1_555
F7 Sc2 2.015337 1_665
F7 Li15 2.149986 1_554
F8 Li5 1.903987 1_545
F8 Li13 1.987090 1_555
F8 Sc0 2.037034 1_555
F8 Li1 2.144320 1_555
F9 Li16 1.914835 1_655
F9 Li15 1.996008 1_545
F9 Sc2 2.015267 1_656
F9 Li14 2.149839 1_556
F10 Li16 1.914507 1_555
F10 Li17 1.995984 1_555
F10 Sc4 2.015138 1_555
F10 Li10 2.149936 1_555
F11 Li14 1.903764 1_555
F11 Li1 1.944784 1_555
F11 Sc0 2.030951 1_555
F11 Li15 2.343905 1_544
F12 Li15 1.904055 1_545
F12 Li11 1.987202 1_556
F12 Sc1 2.037098 1_555
F12 Li9 2.143690 1_555
F13 Li5 1.903798 1_555
F13 Li8 1.944782 1_555
F13 Sc3 2.031086 1_555
F13 Li3 2.343968 1_455
F14 Li10 1.904091 1_655
F14 Li3 1.987220 1_555
F14 Sc0 2.037209 1_555
F14 Li8 2.143654 1_655
F15 Li8 1.914745 1_555
F15 Li11 1.996155 1_565
F15 Sc2 2.015567 1_565
F15 Li12 2.149729 1_554
F16 Li2 1.914555 1_555
F16 Li13 1.996181 1_565
F16 Sc4 2.015387 1_665
F16 Li6 2.149920 1_555
F17 Li17 1.903659 1_555
F17 Li9 1.944496 1_555
F17 Sc1 2.031014 1_555
F17 Li5 2.344036 1_545
F18 Li7 1.914689 1_555
F18 Li5 1.996164 1_545
F18 Sc4 2.015312 1_555
F18 Li17 2.149903 1_555
F19 Li13 1.904082 1_565
F19 Li5 1.987080 1_555
F19 Sc5 2.037183 1_555
F19 Li9 2.144277 1_565
F20 Li9 1.914427 1_555
F20 Li0 1.996041 1_555
F20 Sc2 2.015405 1_556
F20 Li11 2.149879 1_556
F21 Li7 1.914627 1_555
F21 Li14 1.996106 1_455
F21 Sc2 2.015115 1_555
F21 Li0 2.149953 1_554
F22 Li11 1.904068 1_565
F22 Li15 1.987260 1_554
F22 Sc3 2.037222 1_555
F22 Li1 2.143721 1_565
F23 Li12 1.904019 1_655
F23 Li14 1.987159 1_556
F23 Sc1 2.037058 1_555
F23 Li16 2.144342 1_655
F24 Li3 1.903650 1_555
F24 Li2 1.944794 1_555
F24 Sc1 2.031006 1_555
F24 Li6 2.344062 1_555
F25 Li10 1.903674 1_555
F25 Li7 1.944708 1_555
F25 Sc3 2.030895 1_555
F25 Li17 2.343977 1_555
F26 Li14 1.904069 1_455
F26 Li12 1.986983 1_554
F26 Sc3 2.037133 1_555
F26 Li8 2.144313 1_555
F27 Li12 1.903781 1_555
F27 Li9 1.944766 1_565
F27 Sc5 2.031066 1_555
F27 Li11 2.343946 1_566
F28 Li0 1.903659 1_555
F28 Li16 1.944485 1_555
F28 Sc5 2.030919 1_555
F28 Li14 2.344078 1_456
F29 Li3 1.903981 1_455
F29 Li10 1.987309 1_555
F29 Sc5 2.037122 1_555
F29 Li16 2.143756 1_555
F30 Li8 1.914396 1_655
F30 Li6 1.996043 1_555
F30 Sc4 2.015626 1_665
F30 Li3 2.149922 1_555
F31 Li0 1.904196 1_555
F31 Li4 1.987236 1_556
F31 Sc1 2.037144 1_555
F31 Li2 2.143992 1_555
F32 Li6 1.904154 1_555
F32 Li17 1.987381 1_555
F32 Sc0 2.037117 1_555
F32 Li7 2.143937 1_555
F33 Li17 1.904189 1_555
F33 Li6 1.987317 1_555
F33 Sc5 2.037024 1_555
F33 Li2 2.143910 1_555
F34 Li4 1.904112 1_555
F34 Li0 1.987305 1_554
F34 Sc3 2.036985 1_555
F34 Li7 2.143950 1_555
F35 Li6 1.903572 1_555
F35 Li1 1.944560 1_565
F35 Sc3 2.030955 1_555
F35 Li13 2.344123 1_565
