# generated using pymatgen
data_Lu2CoB6
_symmetry_space_group_name_H-M   'P 1'
_cell_length_a   3.48902300
_cell_length_b   8.98372700
_cell_length_c   11.32477100
_cell_angle_alpha   90.00000000
_cell_angle_beta   90.00000000
_cell_angle_gamma   90.00000000
_symmetry_Int_Tables_number   1
_chemical_formula_structural   Lu2CoB6
_chemical_formula_sum   'Lu8 Co4 B24'
_cell_volume   354.96849333
_cell_formula_units_Z   4
loop_
 _symmetry_equiv_pos_site_id
 _symmetry_equiv_pos_as_xyz
  1  'x, y, z'
loop_
 _atom_site_type_symbol
 _atom_site_label
 _atom_site_symmetry_multiplicity
 _atom_site_fract_x
 _atom_site_fract_y
 _atom_site_fract_z
 _atom_site_occupancy
  Lu  Lu0  1  0.00000000  0.82379300  0.08531000  1
  Lu  Lu1  1  0.00000000  0.17620700  0.91469000  1
  Lu  Lu2  1  0.00000000  0.32379300  0.41469000  1
  Lu  Lu3  1  0.00000000  0.67620700  0.58531000  1
  Lu  Lu4  1  0.00000000  0.44359800  0.12910800  1
  Lu  Lu5  1  0.00000000  0.55640200  0.87089200  1
  Lu  Lu6  1  0.00000000  0.94359800  0.37089200  1
  Lu  Lu7  1  0.00000000  0.05640200  0.62910800  1
  Co  Co0  1  0.00000000  0.13991800  0.17944400  1
  Co  Co1  1  0.00000000  0.86008200  0.82055600  1
  Co  Co2  1  0.00000000  0.63991800  0.32055600  1
  Co  Co3  1  0.00000000  0.36008200  0.67944400  1
  B  B0  1  0.50000000  0.05367400  0.06635800  1
  B  B1  1  0.50000000  0.94632600  0.93364200  1
  B  B2  1  0.50000000  0.55367400  0.43364200  1
  B  B3  1  0.50000000  0.44632600  0.56635800  1
  B  B4  1  0.50000000  0.24766800  0.08130700  1
  B  B5  1  0.50000000  0.75233200  0.91869300  1
  B  B6  1  0.50000000  0.74766800  0.41869300  1
  B  B7  1  0.50000000  0.25233200  0.58130700  1
  B  B8  1  0.50000000  0.29313500  0.23600200  1
  B  B9  1  0.50000000  0.70686500  0.76399800  1
  B  B10  1  0.50000000  0.79313500  0.26399800  1
  B  B11  1  0.50000000  0.20686500  0.73600200  1
  B  B12  1  0.50000000  0.13394400  0.31591300  1
  B  B13  1  0.50000000  0.86605600  0.68408700  1
  B  B14  1  0.50000000  0.63394400  0.18408700  1
  B  B15  1  0.50000000  0.36605600  0.81591300  1
  B  B16  1  0.50000000  0.48538600  0.28850000  1
  B  B17  1  0.50000000  0.51461400  0.71150000  1
  B  B18  1  0.50000000  0.98538600  0.21150000  1
  B  B19  1  0.50000000  0.01461400  0.78850000  1
  B  B20  1  0.50000000  0.10701100  0.47103500  1
  B  B21  1  0.50000000  0.89298900  0.52896500  1
  B  B22  1  0.50000000  0.60701100  0.02896500  1
  B  B23  1  0.50000000  0.39298900  0.97103500  1
loop_
_geom_bond_atom_site_label_1
_geom_bond_atom_site_label_2
_geom_bond_distance
_geom_bond_site_symmetry_2
Co0 Lu4 2.787096 1_555
Co0 Lu6 2.794864 1_545
Co0 Lu1 3.015950 1_554
Co0 Lu0 3.033471 1_545
Co0 Lu2 3.134674 1_555
Co1 Lu5 2.787096 1_555
Co1 Lu7 2.794864 1_565
Co1 Lu0 3.015950 1_556
Co1 Lu1 3.033471 1_565
Co1 Lu3 3.134674 1_555
Co2 Lu6 2.787096 1_555
Co2 Lu4 2.794864 1_555
Co2 Lu3 3.015950 1_555
Co2 Lu2 3.033471 1_555
Co2 Lu0 3.134674 1_555
Co3 Lu7 2.787096 1_555
Co3 Lu5 2.794864 1_555
Co3 Lu2 3.015950 1_555
Co3 Lu3 3.033471 1_555
Co3 Lu1 3.134674 1_555
B0 B4 1.750992 1_555
B0 B18 1.754454 1_545
B0 B1 1.785772 1_544
B0 Co0 2.298640 1_555
B0 Co0 2.298640 1_655
B0 Lu1 2.684261 1_554
B0 Lu1 2.684261 1_654
B0 Lu0 2.711897 1_645
B0 Lu0 2.711897 1_545
B1 B5 1.750992 1_555
B1 B19 1.754454 1_565
B1 Co1 2.298640 1_555
B1 Co1 2.298640 1_655
B1 Lu0 2.684261 1_556
B1 Lu0 2.684261 1_656
B1 Lu1 2.711897 1_665
B1 Lu1 2.711897 1_565
B2 B6 1.750992 1_555
B2 B3 1.785772 1_555
B2 Co2 2.298640 1_555
B2 Co2 2.298640 1_655
B2 Lu3 2.684261 1_555
B2 Lu3 2.684261 1_655
B2 Lu2 2.711897 1_655
B2 Lu2 2.711897 1_555
B3 B7 1.750992 1_555
B3 Co3 2.298640 1_555
B3 Co3 2.298640 1_655
B3 Lu2 2.684261 1_555
B3 Lu2 2.684261 1_655
B3 Lu3 2.711897 1_555
B3 Lu3 2.711897 1_655
B4 B8 1.798873 1_555
B4 Co0 2.283747 1_655
B4 Co0 2.283747 1_555
B4 Lu4 2.536652 1_655
B4 Lu4 2.536652 1_555
B4 Lu1 2.648746 1_654
B4 Lu1 2.648746 1_554
B5 B9 1.798873 1_555
B5 Co1 2.283747 1_555
B5 Co1 2.283747 1_655
B5 Lu5 2.536652 1_555
B5 Lu5 2.536652 1_655
B5 Lu0 2.648746 1_556
B5 Lu0 2.648746 1_656
B6 Co2 2.283747 1_555
B6 Co2 2.283747 1_655
B6 Lu6 2.536652 1_555
B6 Lu6 2.536652 1_655
B6 Lu3 2.648746 1_555
B6 Lu3 2.648746 1_655
B7 Co3 2.283747 1_655
B7 Co3 2.283747 1_555
B7 Lu7 2.536652 1_655
B7 Lu7 2.536652 1_555
B7 Lu2 2.648746 1_555
B7 Lu2 2.648746 1_655
B8 Co0 2.312620 1_555
B8 Co0 2.312620 1_655
B8 Lu4 2.517120 1_655
B8 Lu4 2.517120 1_555
B8 Lu2 2.685915 1_555
B8 Lu2 2.685915 1_655
B9 Co1 2.312620 1_555
B9 Co1 2.312620 1_655
B9 Lu5 2.517120 1_555
B9 Lu5 2.517120 1_655
B9 Lu3 2.685915 1_655
B9 Lu3 2.685915 1_555
B10 B14 1.692408 1_555
B10 B6 1.798873 1_555
B10 B18 1.826593 1_555
B10 Co2 2.312620 1_655
B10 Co2 2.312620 1_555
B10 Lu6 2.517120 1_655
B10 Lu6 2.517120 1_555
B10 Lu0 2.685915 1_555
B10 Lu0 2.685915 1_655
B11 B15 1.692408 1_555
B11 B7 1.798873 1_555
B11 B19 1.826593 1_555
B11 Co3 2.312620 1_655
B11 Co3 2.312620 1_555
B11 Lu7 2.517120 1_655
B11 Lu7 2.517120 1_555
B11 Lu1 2.685915 1_655
B11 Lu1 2.685915 1_555
B12 B8 1.692408 1_555
B12 B20 1.773306 1_555
B12 B18 1.783077 1_545
B12 Co0 2.331246 1_555
B12 Co0 2.331246 1_655
B12 Lu6 2.520940 1_645
B12 Lu6 2.520940 1_545
B12 Lu2 2.683944 1_555
B12 Lu2 2.683944 1_655
B13 B9 1.692408 1_555
B13 B21 1.773306 1_555
B13 B19 1.783077 1_565
B13 Co1 2.331246 1_655
B13 Co1 2.331246 1_555
B13 Lu7 2.520940 1_565
B13 Lu7 2.520940 1_665
B13 Lu3 2.683944 1_555
B13 Lu3 2.683944 1_655
B14 B22 1.773306 1_555
B14 B16 1.783077 1_555
B14 Co2 2.331246 1_655
B14 Co2 2.331246 1_555
B14 Lu4 2.520940 1_655
B14 Lu4 2.520940 1_555
B14 Lu0 2.683944 1_655
B14 Lu0 2.683944 1_555
B15 B23 1.773306 1_555
B15 B17 1.783077 1_555
B15 Co3 2.331246 1_555
B15 Co3 2.331246 1_655
B15 Lu5 2.520940 1_555
B15 Lu5 2.520940 1_655
B15 Lu1 2.683944 1_655
B15 Lu1 2.683944 1_555
B16 B2 1.754454 1_555
B16 B8 1.826593 1_555
B16 Co2 2.258852 1_655
B16 Co2 2.258852 1_555
B16 Lu4 2.538220 1_555
B16 Lu4 2.538220 1_655
B16 Lu2 2.681981 1_555
B16 Lu2 2.681981 1_655
B17 B3 1.754454 1_555
B17 B9 1.826593 1_555
B17 Co3 2.258852 1_555
B17 Co3 2.258852 1_655
B17 Lu5 2.538220 1_555
B17 Lu5 2.538220 1_655
B17 Lu3 2.681981 1_555
B17 Lu3 2.681981 1_655
B18 Co0 2.258852 1_665
B18 Co0 2.258852 1_565
B18 Lu6 2.538220 1_555
B18 Lu6 2.538220 1_655
B18 Lu0 2.681981 1_555
B18 Lu0 2.681981 1_655
B19 Co1 2.258852 1_645
B19 Co1 2.258852 1_545
B19 Lu7 2.538220 1_555
B19 Lu7 2.538220 1_655
B19 Lu1 2.681981 1_655
B19 Lu1 2.681981 1_555
B20 B7 1.806629 1_555
B20 B21 2.031558 1_545
B20 Lu7 2.540598 1_655
B20 Lu7 2.540598 1_555
B20 Lu6 2.546505 1_645
B20 Lu6 2.546505 1_545
B20 Lu2 2.691334 1_555
B20 Lu2 2.691334 1_655
B21 B6 1.806629 1_555
B21 Lu6 2.540598 1_555
B21 Lu6 2.540598 1_655
B21 Lu7 2.546505 1_665
B21 Lu7 2.546505 1_565
B21 Lu3 2.691334 1_555
B21 Lu3 2.691334 1_655
B22 B5 1.806629 1_554
B22 B23 2.031558 1_554
B22 Lu5 2.540598 1_654
B22 Lu5 2.540598 1_554
B22 Lu4 2.546505 1_655
B22 Lu4 2.546505 1_555
B22 Lu0 2.691334 1_555
B22 Lu0 2.691334 1_655
B23 B4 1.806629 1_556
B23 Lu4 2.540598 1_656
B23 Lu4 2.540598 1_556
B23 Lu5 2.546505 1_555
B23 Lu5 2.546505 1_655
B23 Lu1 2.691334 1_655
B23 Lu1 2.691334 1_555
