# generated using pymatgen
data_Ba4Ti4O9
_symmetry_space_group_name_H-M   'P 1'
_cell_length_a   7.01617307
_cell_length_b   7.01617307
_cell_length_c   17.30264185
_cell_angle_alpha   88.67343685
_cell_angle_beta   88.67343685
_cell_angle_gamma   69.70670019
_symmetry_Int_Tables_number   1
_chemical_formula_structural   Ba4Ti4O9
_chemical_formula_sum   'Ba12 Ti12 O27'
_cell_volume   798.56506490
_cell_formula_units_Z   3
loop_
 _symmetry_equiv_pos_site_id
 _symmetry_equiv_pos_as_xyz
  1  'x, y, z'
loop_
 _atom_site_type_symbol
 _atom_site_label
 _atom_site_symmetry_multiplicity
 _atom_site_fract_x
 _atom_site_fract_y
 _atom_site_fract_z
 _atom_site_occupancy
  Ba  Ba0  1  0.87759500  0.37441900  0.58238000  1
  Ba  Ba1  1  0.37441900  0.87759500  0.58238000  1
  Ba  Ba2  1  0.12045000  0.62664700  0.75090100  1
  Ba  Ba3  1  0.87389800  0.37888500  0.91585000  1
  Ba  Ba4  1  0.62111500  0.12610200  0.08415000  1
  Ba  Ba5  1  0.37335300  0.87955000  0.24909900  1
  Ba  Ba6  1  0.12240500  0.62558100  0.41762000  1
  Ba  Ba7  1  0.62664700  0.12045000  0.75090100  1
  Ba  Ba8  1  0.37888500  0.87389800  0.91585000  1
  Ba  Ba9  1  0.12610200  0.62111500  0.08415000  1
  Ba  Ba10  1  0.87955000  0.37335300  0.24909900  1
  Ba  Ba11  1  0.62558100  0.12240500  0.41762000  1
  Ti  Ti0  1  0.61554400  0.61554400  0.74527800  1
  Ti  Ti1  1  0.37530100  0.37530100  0.91753500  1
  Ti  Ti2  1  0.11627100  0.11627100  0.07812600  1
  Ti  Ti3  1  0.87377300  0.87377300  0.25006800  1
  Ti  Ti4  1  0.61602900  0.61602900  0.41203600  1
  Ti  Ti5  1  0.12622700  0.12622700  0.74993200  1
  Ti  Ti6  1  0.38445600  0.38445600  0.25472200  1
  Ti  Ti7  1  0.88372900  0.88372900  0.92187400  1
  Ti  Ti8  1  0.62469900  0.62469900  0.08246500  1
  Ti  Ti9  1  0.12648900  0.12648900  0.41688600  1
  Ti  Ti10  1  0.87351100  0.87351100  0.58311400  1
  Ti  Ti11  1  0.38397100  0.38397100  0.58796400  1
  O  O0  1  0.12041400  0.62433200  0.58172300  1
  O  O1  1  0.87815800  0.37727500  0.75229900  1
  O  O2  1  0.62059800  0.12401300  0.91487600  1
  O  O3  1  0.37940200  0.87598700  0.08512400  1
  O  O4  1  0.75336400  0.75336400  0.66796800  1
  O  O5  1  0.50241400  0.50241400  0.83577000  1
  O  O6  1  0.00211400  0.00211400  0.16892500  1
  O  O7  1  0.75377100  0.75377100  0.33411300  1
  O  O8  1  0.25319900  0.25319900  0.00142400  1
  O  O9  1  0.50000000  0.50000000  0.50000000  1
  O  O10  1  0.49894600  0.49894600  0.66747800  1
  O  O11  1  0.00000000  0.00000000  0.00000000  1
  O  O12  1  0.62433200  0.12041400  0.58172300  1
  O  O13  1  0.37566800  0.87958600  0.41827700  1
  O  O14  1  0.37727500  0.87815800  0.75229900  1
  O  O15  1  0.12401300  0.62059800  0.91487600  1
  O  O16  1  0.87598700  0.37940200  0.08512400  1
  O  O17  1  0.62272500  0.12184200  0.24770100  1
  O  O18  1  0.24622900  0.24622900  0.66588700  1
  O  O19  1  0.99788600  0.99788600  0.83107500  1
  O  O20  1  0.49758600  0.49758600  0.16423000  1
  O  O21  1  0.24663600  0.24663600  0.33203200  1
  O  O22  1  0.74680100  0.74680100  0.99857600  1
  O  O23  1  0.00000000  0.00000000  0.50000000  1
  O  O24  1  0.12184200  0.62272500  0.24770100  1
  O  O25  1  0.87958600  0.37566800  0.41827700  1
  O  O26  1  0.50105400  0.50105400  0.33252200  1
loop_
_geom_bond_atom_site_label_1
_geom_bond_atom_site_label_2
_geom_bond_distance
_geom_bond_site_symmetry_2
Ba0 O0 2.836795 1_655
Ba0 O25 2.838952 1_555
Ba0 O18 2.843480 1_655
Ba0 O23 2.867424 1_655
Ba0 O10 2.873611 1_555
Ba0 O9 2.885176 1_555
Ba0 O12 2.920988 1_555
Ba0 O4 2.921773 1_555
Ba0 O1 2.940683 1_555
Ba1 O12 2.836795 1_565
Ba1 O13 2.838952 1_555
Ba1 O18 2.843480 1_565
Ba1 O23 2.867424 1_565
Ba1 O10 2.873611 1_555
Ba1 O9 2.885176 1_555
Ba1 O0 2.920988 1_555
Ba1 O4 2.921773 1_555
Ba1 O14 2.940683 1_555
Ba2 O19 2.829594 1_455
Ba2 O4 2.829604 1_455
Ba2 O1 2.830365 1_455
Ba2 O15 2.837095 1_555
Ba2 O10 2.858395 1_555
Ba2 O18 2.924781 1_555
Ba2 O14 2.927652 1_555
Ba2 O0 2.927654 1_555
Ba2 O5 2.932704 1_555
Ba3 O1 2.829573 1_555
Ba3 O5 2.830021 1_555
Ba3 O15 2.831521 1_655
Ba3 O22 2.832443 1_555
Ba3 O11 2.866783 1_656
Ba3 O8 2.923410 1_656
Ba3 O19 2.926353 1_545
Ba3 O2 2.926379 1_555
Ba3 O16 2.929356 1_556
Ba4 O17 2.829573 1_555
Ba4 O20 2.830021 1_555
Ba4 O3 2.831521 1_545
Ba4 O8 2.832443 1_555
Ba4 O11 2.866783 1_655
Ba4 O22 2.923410 1_544
Ba4 O6 2.926353 1_655
Ba4 O16 2.926379 1_555
Ba4 O2 2.929356 1_554
Ba5 O6 2.829594 1_565
Ba5 O21 2.829604 1_565
Ba5 O17 2.830365 1_565
Ba5 O3 2.837095 1_555
Ba5 O26 2.858395 1_555
Ba5 O7 2.924781 1_555
Ba5 O24 2.927652 1_555
Ba5 O13 2.927654 1_555
Ba5 O20 2.932704 1_555
Ba6 O25 2.836795 1_455
Ba6 O0 2.838952 1_555
Ba6 O7 2.843480 1_455
Ba6 O23 2.867424 1_565
Ba6 O26 2.873611 1_555
Ba6 O9 2.885176 1_555
Ba6 O13 2.920988 1_555
Ba6 O21 2.921773 1_555
Ba6 O24 2.940683 1_555
Ba7 O19 2.829594 1_545
Ba7 O4 2.829604 1_545
Ba7 O14 2.830365 1_545
Ba7 O2 2.837095 1_555
Ba7 O10 2.858395 1_555
Ba7 O18 2.924781 1_555
Ba7 O1 2.927652 1_555
Ba7 O12 2.927654 1_555
Ba7 O5 2.932704 1_555
Ba8 O14 2.829573 1_555
Ba8 O5 2.830021 1_555
Ba8 O2 2.831521 1_565
Ba8 O22 2.832443 1_555
Ba8 O11 2.866783 1_566
Ba8 O8 2.923410 1_566
Ba8 O19 2.926353 1_455
Ba8 O15 2.926379 1_555
Ba8 O3 2.929356 1_556
Ba9 O24 2.829573 1_555
Ba9 O20 2.830021 1_555
Ba9 O16 2.831521 1_455
Ba9 O8 2.832443 1_555
Ba9 O11 2.866783 1_565
Ba9 O22 2.923410 1_454
Ba9 O6 2.926353 1_565
Ba9 O3 2.926379 1_555
Ba9 O15 2.929356 1_554
Ba10 O6 2.829594 1_655
Ba10 O21 2.829604 1_655
Ba10 O24 2.830365 1_655
Ba10 O16 2.837095 1_555
Ba10 O26 2.858395 1_555
Ba10 O7 2.924781 1_555
Ba10 O17 2.927652 1_555
Ba10 O25 2.927654 1_555
Ba10 O20 2.932704 1_555
Ba11 O13 2.836795 1_545
Ba11 O12 2.838952 1_555
Ba11 O7 2.843480 1_545
Ba11 O23 2.867424 1_655
Ba11 O26 2.873611 1_555
Ba11 O9 2.885176 1_555
Ba11 O25 2.920988 1_555
Ba11 O21 2.921773 1_555
Ba11 O17 2.940683 1_555
O0 Ti10 1.989278 1_455
O0 Ti11 2.027991 1_555
O1 Ti5 2.001756 1_655
O1 Ti0 2.017120 1_555
O2 Ti1 1.991954 1_555
O2 Ti7 2.026611 1_545
O3 Ti8 1.991954 1_555
O3 Ti2 2.026611 1_565
O4 Ti10 1.988746 1_555
O4 Ti0 2.046513 1_555
O5 Ti1 2.006784 1_555
O5 Ti0 2.008370 1_555
O6 Ti3 2.009530 1_445
O6 Ti2 2.019833 1_555
O7 Ti3 1.977578 1_555
O7 Ti4 2.052553 1_555
O8 Ti1 1.992139 1_554
O8 Ti2 2.032092 1_555
O9 Ti4 1.996729 1_555
O9 Ti11 1.996729 1_555
O10 Ti0 1.927898 1_555
O10 Ti11 1.936097 1_555
O11 Ti2 1.929262 1_555
O11 Ti7 1.929262 1_444
O12 Ti10 1.989278 1_545
O12 Ti11 2.027991 1_555
O13 Ti9 1.989278 1_565
O13 Ti4 2.027991 1_555
O14 Ti5 2.001756 1_565
O14 Ti0 2.017120 1_555
O15 Ti1 1.991954 1_555
O15 Ti7 2.026611 1_455
O16 Ti8 1.991954 1_555
O16 Ti2 2.026611 1_655
O17 Ti3 2.001756 1_545
O17 Ti6 2.017120 1_555
O18 Ti5 1.977578 1_555
O18 Ti11 2.052553 1_555
O19 Ti5 2.009530 1_665
O19 Ti7 2.019833 1_555
O20 Ti8 2.006784 1_555
O20 Ti6 2.008370 1_555
O21 Ti9 1.988746 1_555
O21 Ti6 2.046513 1_555
O22 Ti8 1.992139 1_556
O22 Ti7 2.032092 1_555
O23 Ti10 2.017782 1_445
O23 Ti9 2.017782 1_555
O24 Ti3 2.001756 1_455
O24 Ti6 2.017120 1_555
O25 Ti9 1.989278 1_655
O25 Ti4 2.027991 1_555
O26 Ti6 1.927898 1_555
O26 Ti4 1.936097 1_555
