# generated using pymatgen
data_In5Se5Br
_symmetry_space_group_name_H-M   'P 1'
_cell_length_a   4.17619200
_cell_length_b   9.52227900
_cell_length_c   15.59520000
_cell_angle_alpha   90.00000000
_cell_angle_beta   90.00000000
_cell_angle_gamma   90.00000000
_symmetry_Int_Tables_number   1
_chemical_formula_structural   In5Se5Br
_chemical_formula_sum   'In10 Se10 Br2'
_cell_volume   620.17221900
_cell_formula_units_Z   2
loop_
 _symmetry_equiv_pos_site_id
 _symmetry_equiv_pos_as_xyz
  1  'x, y, z'
loop_
 _atom_site_type_symbol
 _atom_site_label
 _atom_site_symmetry_multiplicity
 _atom_site_fract_x
 _atom_site_fract_y
 _atom_site_fract_z
 _atom_site_occupancy
  In  In0  1  0.00000000  0.89365600  0.40533100  1
  In  In1  1  0.50000000  0.10634400  0.90533100  1
  In  In2  1  0.50000000  0.60544000  0.52318900  1
  In  In3  1  0.00000000  0.39456000  0.02318900  1
  In  In4  1  0.50000000  0.19284900  0.30369700  1
  In  In5  1  0.00000000  0.80715100  0.80369700  1
  In  In6  1  0.50000000  0.47800800  0.25404800  1
  In  In7  1  0.00000000  0.52199200  0.75404800  1
  In  In8  1  0.50000000  0.85410100  0.11063500  1
  In  In9  1  0.00000000  0.14589900  0.61063500  1
  Se  Se0  1  0.50000000  0.70588500  0.35920600  1
  Se  Se1  1  0.00000000  0.29411500  0.85920600  1
  Se  Se2  1  0.50000000  0.42681500  0.65904500  1
  Se  Se3  1  0.00000000  0.57318500  0.15904500  1
  Se  Se4  1  0.00000000  0.77373600  0.56783600  1
  Se  Se5  1  0.50000000  0.22626400  0.06783600  1
  Se  Se6  1  0.50000000  0.07061700  0.45955500  1
  Se  Se7  1  0.00000000  0.92938300  0.95955500  1
  Se  Se8  1  0.00000000  0.03336500  0.24947100  1
  Se  Se9  1  0.50000000  0.96663500  0.74947100  1
  Br  Br0  1  0.00000000  0.40852600  0.45690700  1
  Br  Br1  1  0.50000000  0.59147400  0.95690700  1
loop_
_geom_bond_atom_site_label_1
_geom_bond_atom_site_label_2
_geom_bond_distance
_geom_bond_site_symmetry_2
In0 Se8 2.770915 1_565
In0 Se4 2.779681 1_555
In0 Se6 2.813309 1_565
In0 Se6 2.813309 1_465
In0 Se0 2.841575 1_455
In0 Se0 2.841575 1_555
In1 Se9 2.770915 1_545
In1 Se5 2.779681 1_556
In1 Se7 2.813309 1_545
In1 Se7 2.813309 1_645
In1 Se1 2.841575 1_555
In1 Se1 2.841575 1_655
In2 Se2 2.716986 1_555
In2 Se4 2.722710 1_555
In2 Se4 2.722710 1_655
In2 Se0 2.730358 1_555
In3 Se3 2.716986 1_555
In3 Se5 2.722710 1_555
In3 Se5 2.722710 1_455
In3 Se1 2.730358 1_554
In4 Se6 2.694944 1_555
In4 Se8 2.716909 1_655
In4 Se8 2.716909 1_555
In5 Se7 2.694944 1_555
In5 Se9 2.716909 1_455
In5 Se9 2.716909 1_555
In6 Se3 2.715997 1_655
In6 Se3 2.715997 1_555
In6 Se0 2.719921 1_555
In7 Se2 2.715997 1_555
In7 Se2 2.715997 1_455
In7 Se1 2.719921 1_555
In8 Se7 3.228830 1_554
In8 Se7 3.228830 1_654
In9 Se6 3.228830 1_555
In9 Se6 3.228830 1_455
Br0 In2 2.990741 1_455
Br0 In2 2.990741 1_555
Br1 In3 2.990741 1_656
Br1 In3 2.990741 1_556
