# generated using pymatgen
data_CsBi3Se5
_symmetry_space_group_name_H-M   'P 1'
_cell_length_a   4.17921019
_cell_length_b   12.47823959
_cell_length_c   22.94750304
_cell_angle_alpha   90.00000000
_cell_angle_beta   90.00000000
_cell_angle_gamma   90.00000000
_symmetry_Int_Tables_number   1
_chemical_formula_structural   CsBi3Se5
_chemical_formula_sum   'Cs4 Bi12 Se20'
_cell_volume   1196.69360537
_cell_formula_units_Z   4
loop_
 _symmetry_equiv_pos_site_id
 _symmetry_equiv_pos_as_xyz
  1  'x, y, z'
loop_
 _atom_site_type_symbol
 _atom_site_label
 _atom_site_symmetry_multiplicity
 _atom_site_fract_x
 _atom_site_fract_y
 _atom_site_fract_z
 _atom_site_occupancy
  Cs  Cs0  1  0.25000000  0.98996422  0.28678241  1
  Cs  Cs1  1  0.75000000  0.48996422  0.21321759  1
  Cs  Cs2  1  0.75000000  0.01003578  0.71321759  1
  Cs  Cs3  1  0.25000000  0.51003578  0.78678241  1
  Bi  Bi0  1  0.75000000  0.80419609  0.12199624  1
  Bi  Bi1  1  0.25000000  0.40693626  0.57356212  1
  Bi  Bi2  1  0.25000000  0.19580391  0.87800376  1
  Bi  Bi3  1  0.75000000  0.59306374  0.42643788  1
  Bi  Bi4  1  0.25000000  0.09306374  0.07356212  1
  Bi  Bi5  1  0.25000000  0.63630019  0.97588562  1
  Bi  Bi6  1  0.25000000  0.30419609  0.37800376  1
  Bi  Bi7  1  0.25000000  0.86369981  0.47588562  1
  Bi  Bi8  1  0.75000000  0.90693626  0.92643788  1
  Bi  Bi9  1  0.75000000  0.69580391  0.62199624  1
  Bi  Bi10  1  0.75000000  0.36369981  0.02411438  1
  Bi  Bi11  1  0.75000000  0.13630019  0.52411438  1
  Se  Se0  1  0.25000000  0.75195958  0.69665220  1
  Se  Se1  1  0.75000000  0.13948293  0.98096225  1
  Se  Se2  1  0.25000000  0.30559662  0.11028166  1
  Se  Se3  1  0.75000000  0.58433950  0.06180234  1
  Se  Se4  1  0.25000000  0.08433950  0.43819766  1
  Se  Se5  1  0.75000000  0.91566050  0.56180234  1
  Se  Se6  1  0.25000000  0.41566050  0.93819766  1
  Se  Se7  1  0.25000000  0.86051707  0.01903775  1
  Se  Se8  1  0.75000000  0.36051707  0.48096225  1
  Se  Se9  1  0.75000000  0.25195958  0.80334780  1
  Se  Se10  1  0.25000000  0.52674664  0.34647369  1
  Se  Se11  1  0.25000000  0.97325336  0.84647369  1
  Se  Se12  1  0.75000000  0.80559662  0.38971834  1
  Se  Se13  1  0.75000000  0.47325336  0.65352631  1
  Se  Se14  1  0.25000000  0.19440338  0.61028166  1
  Se  Se15  1  0.25000000  0.74804042  0.19665220  1
  Se  Se16  1  0.75000000  0.02674664  0.15352631  1
  Se  Se17  1  0.75000000  0.24804042  0.30334780  1
  Se  Se18  1  0.75000000  0.69440338  0.88971834  1
  Se  Se19  1  0.25000000  0.63948293  0.51903775  1
loop_
_geom_bond_atom_site_label_1
_geom_bond_atom_site_label_2
_geom_bond_distance
_geom_bond_site_symmetry_2
Cs0 Se15 3.659339 1_555
Cs0 Se4 3.668745 1_565
Cs0 Se16 3.732001 1_465
Cs0 Se16 3.732001 1_565
Cs0 Se17 3.857657 1_465
Cs0 Se17 3.857657 1_565
Cs0 Se12 3.903685 1_455
Cs0 Se12 3.903685 1_555
Cs1 Se17 3.659339 1_555
Cs1 Se3 3.668745 1_555
Cs1 Se10 3.732001 1_555
Cs1 Se10 3.732001 1_655
Cs1 Se15 3.857657 1_555
Cs1 Se15 3.857657 1_655
Cs1 Se2 3.903685 1_655
Cs1 Se2 3.903685 1_555
Cs2 Se9 3.659339 1_555
Cs2 Se5 3.668745 1_545
Cs2 Se11 3.732001 1_545
Cs2 Se11 3.732001 1_645
Cs2 Se0 3.857657 1_545
Cs2 Se0 3.857657 1_645
Cs2 Se14 3.903685 1_655
Cs2 Se14 3.903685 1_555
Cs3 Se0 3.659339 1_555
Cs3 Se6 3.668745 1_555
Cs3 Se13 3.732001 1_455
Cs3 Se13 3.732001 1_555
Cs3 Se9 3.857657 1_455
Cs3 Se9 3.857657 1_555
Cs3 Se18 3.903685 1_455
Cs3 Se18 3.903685 1_555
Bi0 Se15 2.791488 1_555
Bi0 Se15 2.791488 1_655
Bi0 Se16 2.869748 1_565
Bi0 Se3 3.071540 1_555
Bi0 Se7 3.231475 1_555
Bi0 Se7 3.231475 1_655
Bi1 Se14 2.782680 1_555
Bi1 Se13 2.901445 1_555
Bi1 Se13 2.901445 1_455
Bi1 Se8 3.036002 1_455
Bi1 Se8 3.036002 1_555
Bi1 Se19 3.160029 1_555
Bi2 Se9 2.791488 1_455
Bi2 Se9 2.791488 1_555
Bi2 Se11 2.869748 1_545
Bi2 Se6 3.071540 1_555
Bi2 Se1 3.231475 1_455
Bi2 Se1 3.231475 1_555
Bi3 Se12 2.782680 1_555
Bi3 Se10 2.901445 1_655
Bi3 Se10 2.901445 1_555
Bi3 Se19 3.036002 1_555
Bi3 Se19 3.036002 1_655
Bi3 Se8 3.160029 1_555
Bi4 Se2 2.782680 1_555
Bi4 Se16 2.901445 1_455
Bi4 Se16 2.901445 1_555
Bi4 Se1 3.036002 1_554
Bi4 Se1 3.036002 1_454
Bi4 Se7 3.160029 1_545
Bi5 Se6 2.885834 1_555
Bi5 Se3 2.945157 1_456
Bi5 Se3 2.945157 1_556
Bi5 Se18 2.966803 1_455
Bi5 Se18 2.966803 1_555
Bi5 Se7 2.967899 1_556
Bi6 Se17 2.791488 1_455
Bi6 Se17 2.791488 1_555
Bi6 Se10 2.869748 1_555
Bi6 Se4 3.071540 1_555
Bi6 Se8 3.231475 1_455
Bi6 Se8 3.231475 1_555
Bi7 Se4 2.885834 1_565
Bi7 Se5 2.945157 1_455
Bi7 Se5 2.945157 1_555
Bi7 Se12 2.966803 1_455
Bi7 Se12 2.966803 1_555
Bi7 Se19 2.967899 1_555
Bi8 Se18 2.782680 1_555
Bi8 Se11 2.901445 1_655
Bi8 Se11 2.901445 1_555
Bi8 Se7 3.036002 1_656
Bi8 Se7 3.036002 1_556
Bi8 Se1 3.160029 1_565
Bi9 Se0 2.791488 1_655
Bi9 Se0 2.791488 1_555
Bi9 Se13 2.869748 1_555
Bi9 Se5 3.071540 1_555
Bi9 Se19 3.231475 1_555
Bi9 Se19 3.231475 1_655
Bi10 Se3 2.885834 1_555
Bi10 Se6 2.945157 1_654
Bi10 Se6 2.945157 1_554
Bi10 Se2 2.966803 1_555
Bi10 Se2 2.966803 1_655
Bi10 Se1 2.967899 1_554
Bi11 Se5 2.885834 1_545
Bi11 Se4 2.945157 1_555
Bi11 Se4 2.945157 1_655
Bi11 Se14 2.966803 1_555
Bi11 Se14 2.966803 1_655
Bi11 Se8 2.967899 1_555
