# generated using pymatgen
data_TlHCO2
_symmetry_space_group_name_H-M   'P 1'
_cell_length_a   6.07319200
_cell_length_b   7.14380800
_cell_length_c   8.06035000
_cell_angle_alpha   90.00000000
_cell_angle_beta   90.00000000
_cell_angle_gamma   90.00000000
_symmetry_Int_Tables_number   1
_chemical_formula_structural   TlHCO2
_chemical_formula_sum   'Tl4 H4 C4 O8'
_cell_volume   349.70406882
_cell_formula_units_Z   4
loop_
 _symmetry_equiv_pos_site_id
 _symmetry_equiv_pos_as_xyz
  1  'x, y, z'
loop_
 _atom_site_type_symbol
 _atom_site_label
 _atom_site_symmetry_multiplicity
 _atom_site_fract_x
 _atom_site_fract_y
 _atom_site_fract_z
 _atom_site_occupancy
  Tl  Tl0  1  0.46679300  0.50778100  0.00642700  1
  Tl  Tl1  1  0.96679300  0.99221900  0.50642700  1
  Tl  Tl2  1  0.03320700  0.00778100  0.00642700  1
  Tl  Tl3  1  0.53320700  0.49221900  0.50642700  1
  H  H0  1  0.49256700  0.93587400  0.75849800  1
  H  H1  1  0.50743300  0.06412600  0.25849800  1
  H  H2  1  0.99256700  0.56412600  0.25849800  1
  H  H3  1  0.00743300  0.43587400  0.75849800  1
  C  C0  1  0.00070700  0.40828600  0.25975700  1
  C  C1  1  0.99929300  0.59171400  0.75975700  1
  C  C2  1  0.50070700  0.09171400  0.75975700  1
  C  C3  1  0.49929300  0.90828600  0.25975700  1
  O  O0  1  0.84422400  0.32155000  0.33119000  1
  O  O1  1  0.34422400  0.17845000  0.83119000  1
  O  O2  1  0.65577600  0.82155000  0.33119000  1
  O  O3  1  0.15577600  0.67845000  0.83119000  1
  O  O4  1  0.16483200  0.33143700  0.18962800  1
  O  O5  1  0.33516800  0.83143700  0.18962800  1
  O  O6  1  0.83516800  0.66856300  0.68962800  1
  O  O7  1  0.66483200  0.16856300  0.68962800  1
loop_
_geom_bond_atom_site_label_1
_geom_bond_atom_site_label_2
_geom_bond_distance
_geom_bond_site_symmetry_2
C0 H2 1.114434 1_455
C0 O4 1.270612 1_555
C0 O0 1.272250 1_455
C1 H3 1.114434 1_655
C1 O6 1.270612 1_555
C1 O3 1.272250 1_655
C2 H0 1.114434 1_545
C2 O7 1.270612 1_555
C2 O1 1.272250 1_555
C3 H1 1.114434 1_565
C3 O5 1.270612 1_555
C3 O2 1.272250 1_555
O0 Tl3 2.655071 1_555
O0 Tl1 2.843286 1_545
O1 Tl2 2.655071 1_556
O1 Tl0 2.843286 1_556
O2 Tl1 2.655071 1_555
O2 Tl3 2.843286 1_555
O3 Tl0 2.655071 1_556
O3 Tl2 2.843286 1_566
O4 Tl0 2.670322 1_555
O4 Tl2 2.857538 1_555
O5 Tl2 2.670322 1_565
O5 Tl0 2.857538 1_555
O6 Tl3 2.670322 1_555
O6 Tl1 2.857538 1_555
O7 Tl1 2.670322 1_545
O7 Tl3 2.857538 1_555
