# generated using pymatgen
data_Pr7Al7Co6
_symmetry_space_group_name_H-M   'P 1'
_cell_length_a   13.96013100
_cell_length_b   13.96013100
_cell_length_c   4.18363100
_cell_angle_alpha   90.00000000
_cell_angle_beta   90.00000000
_cell_angle_gamma   90.00000000
_symmetry_Int_Tables_number   1
_chemical_formula_structural   Pr7Al7Co6
_chemical_formula_sum   'Pr14 Al14 Co12'
_cell_volume   815.32800488
_cell_formula_units_Z   2
loop_
 _symmetry_equiv_pos_site_id
 _symmetry_equiv_pos_as_xyz
  1  'x, y, z'
loop_
 _atom_site_type_symbol
 _atom_site_label
 _atom_site_symmetry_multiplicity
 _atom_site_fract_x
 _atom_site_fract_y
 _atom_site_fract_z
 _atom_site_occupancy
  Pr  Pr0  1  0.00000000  0.00000000  0.00000000  1
  Pr  Pr1  1  0.50000000  0.50000000  0.00000000  1
  Pr  Pr2  1  0.86828300  0.36828300  0.50000000  1
  Pr  Pr3  1  0.36828300  0.13171700  0.50000000  1
  Pr  Pr4  1  0.63171700  0.86828300  0.50000000  1
  Pr  Pr5  1  0.13171700  0.63171700  0.50000000  1
  Pr  Pr6  1  0.04755200  0.26164900  0.00000000  1
  Pr  Pr7  1  0.26164900  0.95244800  0.00000000  1
  Pr  Pr8  1  0.73835100  0.04755200  0.00000000  1
  Pr  Pr9  1  0.95244800  0.73835100  0.00000000  1
  Pr  Pr10  1  0.45244800  0.76164900  0.00000000  1
  Pr  Pr11  1  0.54755200  0.23835100  0.00000000  1
  Pr  Pr12  1  0.76164900  0.54755200  0.00000000  1
  Pr  Pr13  1  0.23835100  0.45244800  0.00000000  1
  Al  Al0  1  0.50000000  0.00000000  0.00000000  1
  Al  Al1  1  0.00000000  0.50000000  0.00000000  1
  Al  Al2  1  0.71457200  0.21457200  0.50000000  1
  Al  Al3  1  0.21457200  0.28542800  0.50000000  1
  Al  Al4  1  0.78542800  0.71457200  0.50000000  1
  Al  Al5  1  0.28542800  0.78542800  0.50000000  1
  Al  Al6  1  0.13960900  0.09923100  0.50000000  1
  Al  Al7  1  0.09923100  0.86039100  0.50000000  1
  Al  Al8  1  0.90076900  0.13960900  0.50000000  1
  Al  Al9  1  0.86039100  0.90076900  0.50000000  1
  Al  Al10  1  0.36039100  0.59923100  0.50000000  1
  Al  Al11  1  0.63960900  0.40076900  0.50000000  1
  Al  Al12  1  0.59923100  0.63960900  0.50000000  1
  Al  Al13  1  0.40076900  0.36039100  0.50000000  1
  Co  Co0  1  0.57284700  0.07284700  0.50000000  1
  Co  Co1  1  0.07284700  0.42715300  0.50000000  1
  Co  Co2  1  0.92715300  0.57284700  0.50000000  1
  Co  Co3  1  0.42715300  0.92715300  0.50000000  1
  Co  Co4  1  0.33422400  0.28887000  0.00000000  1
  Co  Co5  1  0.28887000  0.66577600  0.00000000  1
  Co  Co6  1  0.71113000  0.33422400  0.00000000  1
  Co  Co7  1  0.66577600  0.71113000  0.00000000  1
  Co  Co8  1  0.16577600  0.78887000  0.00000000  1
  Co  Co9  1  0.83422400  0.21113000  0.00000000  1
  Co  Co10  1  0.78887000  0.83422400  0.00000000  1
  Co  Co11  1  0.21113000  0.16577600  0.00000000  1
loop_
_geom_bond_atom_site_label_1
_geom_bond_atom_site_label_2
_geom_bond_distance
_geom_bond_site_symmetry_2
Al0 Co3 2.538520 1_545
Al0 Co0 2.538520 1_554
Al0 Co3 2.538520 1_544
Al0 Co0 2.538520 1_555
Al0 Pr4 3.337359 1_545
Al0 Pr4 3.337359 1_544
Al0 Pr3 3.337359 1_554
Al0 Pr3 3.337359 1_555
Al1 Co1 2.538520 1_555
Al1 Co1 2.538520 1_554
Al1 Co2 2.538520 1_455
Al1 Co2 2.538520 1_454
Al1 Pr2 3.337359 1_455
Al1 Pr2 3.337359 1_454
Al1 Pr5 3.337359 1_555
Al1 Pr5 3.337359 1_554
Al2 Co9 2.677330 1_556
Al2 Co9 2.677330 1_555
Al2 Co6 2.677330 1_556
Al2 Co6 2.677330 1_555
Al2 Co0 2.798021 1_555
Al2 Al8 2.802086 1_555
Al2 Pr2 3.034656 1_555
Al2 Pr11 3.149975 1_556
Al2 Pr11 3.149975 1_555
Al2 Pr8 3.149975 1_556
Al2 Pr8 3.149975 1_555
Al3 Co11 2.677330 1_555
Al3 Co4 2.677330 1_556
Al3 Co11 2.677330 1_556
Al3 Co4 2.677330 1_555
Al3 Co1 2.798021 1_555
Al3 Al6 2.802086 1_555
Al3 Pr3 3.034656 1_555
Al3 Pr6 3.149975 1_555
Al3 Pr13 3.149975 1_555
Al3 Pr13 3.149975 1_556
Al3 Pr6 3.149975 1_556
Al4 Co7 2.677330 1_555
Al4 Co7 2.677330 1_556
Al4 Co10 2.677330 1_556
Al4 Co10 2.677330 1_555
Al4 Co2 2.798021 1_555
Al4 Al9 2.802086 1_555
Al4 Pr4 3.034656 1_555
Al4 Pr12 3.149975 1_556
Al4 Pr9 3.149975 1_555
Al4 Pr12 3.149975 1_555
Al4 Pr9 3.149975 1_556
Al5 Co8 2.677330 1_555
Al5 Co5 2.677330 1_556
Al5 Co5 2.677330 1_555
Al5 Co8 2.677330 1_556
Al5 Co3 2.798021 1_555
Al5 Al7 2.802086 1_555
Al5 Pr5 3.034656 1_555
Al5 Pr7 3.149975 1_556
Al5 Pr7 3.149975 1_555
Al5 Pr10 3.149975 1_555
Al5 Pr10 3.149975 1_556
Al6 Co11 2.497114 1_555
Al6 Co11 2.497114 1_556
Al6 Pr0 3.176969 1_555
Al6 Pr0 3.176969 1_556
Al6 Pr3 3.224371 1_555
Al6 Pr6 3.341892 1_556
Al6 Pr6 3.341892 1_555
Al6 Pr7 3.387790 1_545
Al6 Pr7 3.387790 1_546
Al7 Co8 2.497114 1_555
Al7 Co8 2.497114 1_556
Al7 Pr0 3.176969 1_565
Al7 Pr0 3.176969 1_566
Al7 Pr5 3.224371 1_555
Al7 Pr7 3.341892 1_556
Al7 Pr7 3.341892 1_555
Al7 Pr9 3.387790 1_455
Al7 Pr9 3.387790 1_456
Al8 Co9 2.497114 1_556
Al8 Co9 2.497114 1_555
Al8 Pr0 3.176969 1_656
Al8 Pr0 3.176969 1_655
Al8 Pr2 3.224371 1_555
Al8 Pr8 3.341892 1_555
Al8 Pr8 3.341892 1_556
Al8 Pr6 3.387790 1_655
Al8 Pr6 3.387790 1_656
Al9 Co10 2.497114 1_556
Al9 Co10 2.497114 1_555
Al9 Pr0 3.176969 1_665
Al9 Pr0 3.176969 1_666
Al9 Pr4 3.224371 1_555
Al9 Pr9 3.341892 1_556
Al9 Pr9 3.341892 1_555
Al9 Pr8 3.387790 1_566
Al9 Pr8 3.387790 1_565
Al10 Co5 2.497114 1_556
Al10 Co5 2.497114 1_555
Al10 Al5 2.802086 1_555
Al10 Pr1 3.176969 1_555
Al10 Pr1 3.176969 1_556
Al10 Pr5 3.224371 1_555
Al10 Pr10 3.341892 1_555
Al10 Pr10 3.341892 1_556
Al10 Pr13 3.387790 1_556
Al10 Pr13 3.387790 1_555
Al11 Co6 2.497114 1_556
Al11 Co6 2.497114 1_555
Al11 Al2 2.802086 1_555
Al11 Pr1 3.176969 1_555
Al11 Pr1 3.176969 1_556
Al11 Pr2 3.224371 1_555
Al11 Pr11 3.341892 1_556
Al11 Pr11 3.341892 1_555
Al11 Pr12 3.387790 1_555
Al11 Pr12 3.387790 1_556
Al12 Co7 2.497114 1_555
Al12 Co7 2.497114 1_556
Al12 Al4 2.802086 1_555
Al12 Pr1 3.176969 1_555
Al12 Pr1 3.176969 1_556
Al12 Pr4 3.224371 1_555
Al12 Pr12 3.341892 1_555
Al12 Pr12 3.341892 1_556
Al12 Pr10 3.387790 1_555
Al12 Pr10 3.387790 1_556
Al13 Co4 2.497114 1_556
Al13 Co4 2.497114 1_555
Al13 Al3 2.802086 1_555
Al13 Pr1 3.176969 1_555
Al13 Pr1 3.176969 1_556
Al13 Pr3 3.224371 1_555
Al13 Pr13 3.341892 1_556
Al13 Pr13 3.341892 1_555
Al13 Pr11 3.387790 1_555
Al13 Pr11 3.387790 1_556
Co0 Pr4 2.971643 1_545
Co0 Pr3 2.971643 1_555
Co0 Pr8 3.136654 1_555
Co0 Pr8 3.136654 1_556
Co0 Pr11 3.136654 1_556
Co0 Pr11 3.136654 1_555
Co1 Pr2 2.971643 1_455
Co1 Pr5 2.971643 1_555
Co1 Pr6 3.136654 1_556
Co1 Pr6 3.136654 1_555
Co1 Pr13 3.136654 1_555
Co1 Pr13 3.136654 1_556
Co2 Pr2 2.971643 1_555
Co2 Pr5 2.971643 1_655
Co2 Pr9 3.136654 1_556
Co2 Pr9 3.136654 1_555
Co2 Pr12 3.136654 1_555
Co2 Pr12 3.136654 1_556
Co3 Pr4 2.971643 1_555
Co3 Pr3 2.971643 1_565
Co3 Pr10 3.136654 1_556
Co3 Pr7 3.136654 1_556
Co3 Pr10 3.136654 1_555
Co3 Pr7 3.136654 1_555
Co4 Pr13 2.646886 1_555
Co4 Pr11 3.060454 1_555
Co4 Pr3 3.068364 1_554
Co4 Pr3 3.068364 1_555
Co5 Co8 2.430196 1_555
Co5 Pr10 2.646886 1_555
Co5 Pr13 3.060454 1_555
Co5 Pr5 3.068364 1_555
Co5 Pr5 3.068364 1_554
Co6 Co9 2.430196 1_555
Co6 Pr11 2.646886 1_555
Co6 Pr12 3.060454 1_555
Co6 Pr2 3.068364 1_554
Co6 Pr2 3.068364 1_555
Co7 Pr12 2.646886 1_555
Co7 Pr10 3.060454 1_555
Co7 Pr4 3.068364 1_554
Co7 Pr4 3.068364 1_555
Co8 Pr7 2.646886 1_555
Co8 Pr9 3.060454 1_455
Co8 Pr5 3.068364 1_554
Co8 Pr5 3.068364 1_555
Co9 Pr8 2.646886 1_555
Co9 Pr6 3.060454 1_655
Co9 Pr2 3.068364 1_555
Co9 Pr2 3.068364 1_554
Co10 Co7 2.430196 1_555
Co10 Pr9 2.646886 1_555
Co10 Pr8 3.060454 1_565
Co10 Pr4 3.068364 1_554
Co10 Pr4 3.068364 1_555
Co11 Co4 2.430196 1_555
Co11 Pr6 2.646886 1_555
Co11 Pr7 3.060454 1_545
Co11 Pr3 3.068364 1_554
Co11 Pr3 3.068364 1_555
