# generated using pymatgen
data_SbTe(ClF2)3
_symmetry_space_group_name_H-M   'P 1'
_cell_length_a   6.45774551
_cell_length_b   8.43854243
_cell_length_c   16.78995347
_cell_angle_alpha   90.00000000
_cell_angle_beta   90.00000000
_cell_angle_gamma   90.00000000
_symmetry_Int_Tables_number   1
_chemical_formula_structural   SbTe(ClF2)3
_chemical_formula_sum   'Sb4 Te4 Cl12 F24'
_cell_volume   914.95104420
_cell_formula_units_Z   4
loop_
 _symmetry_equiv_pos_site_id
 _symmetry_equiv_pos_as_xyz
  1  'x, y, z'
loop_
 _atom_site_type_symbol
 _atom_site_label
 _atom_site_symmetry_multiplicity
 _atom_site_fract_x
 _atom_site_fract_y
 _atom_site_fract_z
 _atom_site_occupancy
  Sb  Sb0  1  0.85414229  0.25000000  0.57397832  1
  Sb  Sb1  1  0.35414229  0.75000000  0.92602168  1
  Sb  Sb2  1  0.14585771  0.75000000  0.42602168  1
  Sb  Sb3  1  0.64585771  0.25000000  0.07397832  1
  Te  Te0  1  0.13527948  0.25000000  0.90019101  1
  Te  Te1  1  0.63527948  0.75000000  0.59980899  1
  Te  Te2  1  0.86472052  0.75000000  0.09980899  1
  Te  Te3  1  0.36472052  0.25000000  0.40019101  1
  Cl  Cl0  1  0.59062716  0.44695413  0.36319808  1
  Cl  Cl1  1  0.40937284  0.94695413  0.63680192  1
  Cl  Cl2  1  0.59062716  0.05304587  0.36319808  1
  Cl  Cl3  1  0.09062716  0.94695413  0.13680192  1
  Cl  Cl4  1  0.67130948  0.75000000  0.21417914  1
  Cl  Cl5  1  0.90937284  0.44695413  0.86319808  1
  Cl  Cl6  1  0.82869052  0.75000000  0.71417914  1
  Cl  Cl7  1  0.90937284  0.05304587  0.86319808  1
  Cl  Cl8  1  0.09062716  0.55304587  0.13680192  1
  Cl  Cl9  1  0.40937284  0.55304587  0.63680192  1
  Cl  Cl10  1  0.32869052  0.25000000  0.78582086  1
  Cl  Cl11  1  0.17130948  0.25000000  0.28582086  1
  F  F0  1  0.57707001  0.25000000  0.53228086  1
  F  F1  1  0.75151093  0.25000000  0.67862101  1
  F  F2  1  0.24848907  0.75000000  0.32137899  1
  F  F3  1  0.94710348  0.25000000  0.46718893  1
  F  F4  1  0.55289652  0.25000000  0.96718893  1
  F  F5  1  0.74848907  0.25000000  0.17862101  1
  F  F6  1  0.63144207  0.75000000  0.89141670  1
  F  F7  1  0.34725803  0.52372390  0.92753521  1
  F  F8  1  0.25151093  0.75000000  0.82137899  1
  F  F9  1  0.15274197  0.52372390  0.42753521  1
  F  F10  1  0.36855793  0.25000000  0.10858330  1
  F  F11  1  0.05289652  0.75000000  0.53281107  1
  F  F12  1  0.86855793  0.75000000  0.39141670  1
  F  F13  1  0.07707001  0.75000000  0.96771914  1
  F  F14  1  0.84725803  0.47627610  0.57246479  1
  F  F15  1  0.44710348  0.75000000  0.03281107  1
  F  F16  1  0.84725803  0.02372390  0.57246479  1
  F  F17  1  0.65274197  0.02372390  0.07246479  1
  F  F18  1  0.92292999  0.25000000  0.03228086  1
  F  F19  1  0.34725803  0.97627610  0.92753521  1
  F  F20  1  0.65274197  0.47627610  0.07246479  1
  F  F21  1  0.15274197  0.97627610  0.42753521  1
  F  F22  1  0.13144207  0.25000000  0.60858330  1
  F  F23  1  0.42292999  0.75000000  0.46771914  1
loop_
_geom_bond_atom_site_label_1
_geom_bond_atom_site_label_2
_geom_bond_distance
_geom_bond_site_symmetry_2
Cl0 Te3 2.297015 1_555
Cl1 Te1 2.297015 1_555
Cl2 Te3 2.297015 1_555
Cl3 Te2 2.297015 1_455
Cl4 Te2 2.290728 1_555
Cl5 Te0 2.297015 1_655
Cl6 Te1 2.290728 1_555
Cl7 Te0 2.297015 1_655
Cl8 Te2 2.297015 1_455
Cl9 Te1 2.297015 1_555
Cl10 Te0 2.290728 1_555
Cl11 Te3 2.290728 1_555
F0 Sb0 1.921353 1_555
F0 Te3 2.607493 1_555
F1 Sb0 1.877796 1_555
F2 Sb2 1.877796 1_555
F3 Sb0 1.890818 1_555
F4 Sb3 1.890818 1_556
F5 Sb3 1.877796 1_555
F6 Sb1 1.882631 1_555
F7 Sb1 1.910127 1_555
F8 Sb1 1.877796 1_555
F9 Sb2 1.910127 1_555
F10 Sb3 1.882631 1_555
F11 Sb2 1.890818 1_555
F12 Sb2 1.882631 1_655
F13 Sb1 1.921353 1_555
F13 Te2 2.607493 1_456
F14 Sb0 1.910127 1_555
F15 Sb1 1.890818 1_554
F16 Sb0 1.910127 1_555
F17 Sb3 1.910127 1_555
F18 Sb3 1.921353 1_555
F18 Te0 2.607493 1_654
F19 Sb1 1.910127 1_555
F20 Sb3 1.910127 1_555
F21 Sb2 1.910127 1_555
F22 Sb0 1.882631 1_455
F23 Sb2 1.921353 1_555
F23 Te1 2.607493 1_555
