# generated using pymatgen
data_SrIn2O4
_symmetry_space_group_name_H-M   'P 1'
_cell_length_a   3.28188125
_cell_length_b   9.86409070
_cell_length_c   11.55215373
_cell_angle_alpha   90.00000000
_cell_angle_beta   90.00000000
_cell_angle_gamma   90.00000000
_symmetry_Int_Tables_number   1
_chemical_formula_structural   SrIn2O4
_chemical_formula_sum   'Sr4 In8 O16'
_cell_volume   373.97526557
_cell_formula_units_Z   4
loop_
 _symmetry_equiv_pos_site_id
 _symmetry_equiv_pos_as_xyz
  1  'x, y, z'
loop_
 _atom_site_type_symbol
 _atom_site_label
 _atom_site_symmetry_multiplicity
 _atom_site_fract_x
 _atom_site_fract_y
 _atom_site_fract_z
 _atom_site_occupancy
  Sr  Sr0  1  0.75000000  0.25586841  0.84733488  1
  Sr  Sr1  1  0.25000000  0.74413159  0.15266512  1
  Sr  Sr2  1  0.75000000  0.75586841  0.65266512  1
  Sr  Sr3  1  0.25000000  0.24413159  0.34733488  1
  In  In0  1  0.75000000  0.91865363  0.39388112  1
  In  In1  1  0.25000000  0.08134637  0.60611888  1
  In  In2  1  0.75000000  0.41865363  0.10611888  1
  In  In3  1  0.25000000  0.58134637  0.89388112  1
  In  In4  1  0.75000000  0.93061038  0.88871565  1
  In  In5  1  0.25000000  0.06938962  0.11128435  1
  In  In6  1  0.75000000  0.43061038  0.61128435  1
  In  In7  1  0.25000000  0.56938962  0.38871565  1
  O  O0  1  0.75000000  0.70664403  0.33338871  1
  O  O1  1  0.25000000  0.29335597  0.66661129  1
  O  O2  1  0.75000000  0.20664403  0.16661129  1
  O  O3  1  0.25000000  0.79335597  0.83338871  1
  O  O4  1  0.75000000  0.62099433  0.02107154  1
  O  O5  1  0.25000000  0.37900567  0.97892846  1
  O  O6  1  0.75000000  0.12099433  0.47892846  1
  O  O7  1  0.25000000  0.87900567  0.52107154  1
  O  O8  1  0.75000000  0.02280684  0.71728040  1
  O  O9  1  0.25000000  0.97719316  0.28271960  1
  O  O10  1  0.75000000  0.52280684  0.78271960  1
  O  O11  1  0.25000000  0.47719316  0.21728040  1
  O  O12  1  0.75000000  0.91925715  0.07450573  1
  O  O13  1  0.25000000  0.08074285  0.92549427  1
  O  O14  1  0.75000000  0.41925715  0.42549427  1
  O  O15  1  0.25000000  0.58074285  0.57450573  1
loop_
_geom_bond_atom_site_label_1
_geom_bond_atom_site_label_2
_geom_bond_distance
_geom_bond_site_symmetry_2
In0 O9 2.162216 1_555
In0 O9 2.162216 1_655
In0 O0 2.204950 1_555
In0 O6 2.224615 1_565
In0 O7 2.237085 1_655
In0 O7 2.237085 1_555
In1 O8 2.162216 1_555
In1 O8 2.162216 1_455
In1 O1 2.204950 1_555
In1 O7 2.224615 1_545
In1 O6 2.237085 1_555
In1 O6 2.237085 1_455
In2 O11 2.162216 1_655
In2 O11 2.162216 1_555
In2 O2 2.204950 1_555
In2 O4 2.224615 1_555
In2 O5 2.237085 1_554
In2 O5 2.237085 1_654
In3 O10 2.162216 1_555
In3 O10 2.162216 1_455
In3 O3 2.204950 1_555
In3 O5 2.224615 1_555
In3 O4 2.237085 1_456
In3 O4 2.237085 1_556
In4 O12 2.149195 1_556
In4 O8 2.179275 1_565
In4 O3 2.221308 1_555
In4 O3 2.221308 1_655
In4 O13 2.250850 1_565
In4 O13 2.250850 1_665
In5 O13 2.149195 1_554
In5 O9 2.179275 1_545
In5 O2 2.221308 1_455
In5 O2 2.221308 1_555
In5 O12 2.250850 1_445
In5 O12 2.250850 1_545
In6 O14 2.149195 1_555
In6 O10 2.179275 1_555
In6 O1 2.221308 1_655
In6 O1 2.221308 1_555
In6 O15 2.250850 1_655
In6 O15 2.250850 1_555
In7 O15 2.149195 1_555
In7 O11 2.179275 1_555
In7 O0 2.221308 1_455
In7 O0 2.221308 1_555
In7 O14 2.250850 1_455
In7 O14 2.250850 1_555
O0 Sr1 2.681065 1_655
O0 Sr1 2.681065 1_555
O1 Sr0 2.681065 1_555
O1 Sr0 2.681065 1_455
O2 Sr3 2.681065 1_655
O2 Sr3 2.681065 1_555
O3 Sr2 2.681065 1_455
O3 Sr2 2.681065 1_555
O4 Sr1 2.545389 1_655
O4 Sr1 2.545389 1_555
O5 Sr0 2.545389 1_555
O5 Sr0 2.545389 1_455
O6 Sr3 2.545389 1_655
O6 Sr3 2.545389 1_555
O7 Sr2 2.545389 1_555
O7 Sr2 2.545389 1_455
O8 Sr2 2.736864 1_545
O8 Sr0 2.746336 1_555
O9 Sr3 2.736864 1_565
O9 Sr1 2.746336 1_555
O10 Sr0 2.736864 1_555
O10 Sr2 2.746336 1_555
O11 Sr1 2.736864 1_555
O11 Sr3 2.746336 1_555
O12 Sr1 2.547946 1_555
O12 Sr1 2.547946 1_655
O13 Sr0 2.547946 1_455
O13 Sr0 2.547946 1_555
O14 Sr3 2.547946 1_555
O14 Sr3 2.547946 1_655
O15 Sr2 2.547946 1_455
O15 Sr2 2.547946 1_555
