# generated using pymatgen
data_Na2Be2(SiO3)3
_symmetry_space_group_name_H-M   'P 1'
_cell_length_a   6.88016400
_cell_length_b   9.50987600
_cell_length_c   11.86627100
_cell_angle_alpha   90.00000000
_cell_angle_beta   90.00000000
_cell_angle_gamma   90.00000000
_symmetry_Int_Tables_number   1
_chemical_formula_structural   Na2Be2(SiO3)3
_chemical_formula_sum   'Na8 Be8 Si12 O36'
_cell_volume   776.40425552
_cell_formula_units_Z   4
loop_
 _symmetry_equiv_pos_site_id
 _symmetry_equiv_pos_as_xyz
  1  'x, y, z'
loop_
 _atom_site_type_symbol
 _atom_site_label
 _atom_site_symmetry_multiplicity
 _atom_site_fract_x
 _atom_site_fract_y
 _atom_site_fract_z
 _atom_site_occupancy
  Na  Na0  1  0.84804300  0.96725400  0.34696800  1
  Na  Na1  1  0.34804300  0.03274600  0.15303200  1
  Na  Na2  1  0.15195700  0.03274600  0.65303200  1
  Na  Na3  1  0.84804300  0.53274600  0.34696800  1
  Na  Na4  1  0.65195700  0.53274600  0.84696800  1
  Na  Na5  1  0.15195700  0.46725400  0.65303200  1
  Na  Na6  1  0.65195700  0.96725400  0.84696800  1
  Na  Na7  1  0.34804300  0.46725400  0.15303200  1
  Be  Be0  1  0.59436300  0.05964400  0.56951700  1
  Be  Be1  1  0.09436300  0.55964400  0.93048300  1
  Be  Be2  1  0.40563700  0.94035600  0.43048300  1
  Be  Be3  1  0.40563700  0.55964400  0.43048300  1
  Be  Be4  1  0.59436300  0.44035600  0.56951700  1
  Be  Be5  1  0.90563700  0.44035600  0.06951700  1
  Be  Be6  1  0.90563700  0.05964400  0.06951700  1
  Be  Be7  1  0.09436300  0.94035600  0.93048300  1
  Si  Si0  1  0.47490700  0.25000000  0.75403900  1
  Si  Si1  1  0.39956200  0.75000000  0.99672100  1
  Si  Si2  1  0.32866800  0.25000000  0.43767200  1
  Si  Si3  1  0.89956200  0.25000000  0.50327900  1
  Si  Si4  1  0.02509300  0.25000000  0.25403900  1
  Si  Si5  1  0.67133200  0.75000000  0.56232800  1
  Si  Si6  1  0.60043800  0.25000000  0.00327900  1
  Si  Si7  1  0.52509300  0.75000000  0.24596100  1
  Si  Si8  1  0.17133200  0.25000000  0.93767200  1
  Si  Si9  1  0.97490700  0.75000000  0.74596100  1
  Si  Si10  1  0.10043800  0.75000000  0.49672100  1
  Si  Si11  1  0.82866800  0.75000000  0.06232800  1
  O  O0  1  0.75055200  0.75000000  0.19343600  1
  O  O1  1  0.68296000  0.39613300  0.05321600  1
  O  O2  1  0.95347200  0.60887400  0.04038500  1
  O  O3  1  0.45347200  0.39112600  0.45961500  1
  O  O4  1  0.54652800  0.60887400  0.54038500  1
  O  O5  1  0.25055200  0.25000000  0.30656400  1
  O  O6  1  0.99855200  0.89687300  0.81261400  1
  O  O7  1  0.49855200  0.39687300  0.68738600  1
  O  O8  1  0.45347200  0.10887400  0.45961500  1
  O  O9  1  0.50144800  0.89687300  0.31261400  1
  O  O10  1  0.95347200  0.89112600  0.04038500  1
  O  O11  1  0.99855200  0.60312700  0.81261400  1
  O  O12  1  0.81704000  0.10386700  0.55321600  1
  O  O13  1  0.12404100  0.75000000  0.63641900  1
  O  O14  1  0.00144800  0.39687300  0.18738600  1
  O  O15  1  0.24944800  0.25000000  0.80656400  1
  O  O16  1  0.64024300  0.75000000  0.97387900  1
  O  O17  1  0.04652800  0.10887400  0.95961500  1
  O  O18  1  0.74944800  0.75000000  0.69343600  1
  O  O19  1  0.54652800  0.89112600  0.54038500  1
  O  O20  1  0.81704000  0.39613300  0.55321600  1
  O  O21  1  0.00144800  0.10312700  0.18738600  1
  O  O22  1  0.37595900  0.75000000  0.13641900  1
  O  O23  1  0.35975700  0.25000000  0.02612100  1
  O  O24  1  0.31704000  0.60386700  0.94678400  1
  O  O25  1  0.49855200  0.10312700  0.68738600  1
  O  O26  1  0.85975700  0.75000000  0.47387900  1
  O  O27  1  0.87595900  0.25000000  0.36358100  1
  O  O28  1  0.50144800  0.60312700  0.31261400  1
  O  O29  1  0.18296000  0.60386700  0.44678400  1
  O  O30  1  0.18296000  0.89613300  0.44678400  1
  O  O31  1  0.68296000  0.10386700  0.05321600  1
  O  O32  1  0.62404100  0.25000000  0.86358100  1
  O  O33  1  0.04652800  0.39112600  0.95961500  1
  O  O34  1  0.14024300  0.25000000  0.52612100  1
  O  O35  1  0.31704000  0.89613300  0.94678400  1
loop_
_geom_bond_atom_site_label_1
_geom_bond_atom_site_label_2
_geom_bond_distance
_geom_bond_site_symmetry_2
Na0 O9 2.510105 1_555
Na0 O21 2.523782 1_665
Na0 O26 2.557931 1_555
Na0 O30 2.677701 1_655
Na0 O27 2.702929 1_565
Na0 O12 2.779045 1_565
Na0 O0 2.835076 1_555
Na1 O21 2.510105 1_555
Na1 O9 2.523782 1_545
Na1 O23 2.557931 1_555
Na1 O31 2.677701 1_555
Na1 O22 2.702929 1_545
Na1 O35 2.779045 1_544
Na1 O5 2.835076 1_555
Na2 O25 2.510105 1_555
Na2 O6 2.523782 1_445
Na2 O34 2.557931 1_555
Na2 O12 2.677701 1_455
Na2 O13 2.702929 1_545
Na2 O30 2.779045 1_545
Na2 O15 2.835076 1_555
Na3 O28 2.510105 1_555
Na3 O14 2.523782 1_655
Na3 O26 2.557931 1_555
Na3 O29 2.677701 1_655
Na3 O27 2.702929 1_555
Na3 O20 2.779045 1_555
Na3 O0 2.835076 1_555
Na4 O11 2.510105 1_555
Na4 O7 2.523782 1_555
Na4 O16 2.557931 1_555
Na4 O24 2.677701 1_555
Na4 O32 2.702929 1_555
Na4 O1 2.779045 1_556
Na4 O18 2.835076 1_555
Na5 O7 2.510105 1_555
Na5 O11 2.523782 1_455
Na5 O34 2.557931 1_555
Na5 O20 2.677701 1_455
Na5 O13 2.702929 1_555
Na5 O29 2.779045 1_555
Na5 O15 2.835076 1_555
Na6 O6 2.510105 1_555
Na6 O25 2.523782 1_565
Na6 O16 2.557931 1_555
Na6 O35 2.677701 1_555
Na6 O32 2.702929 1_565
Na6 O31 2.779045 1_566
Na6 O18 2.835076 1_555
Na7 O14 2.510105 1_555
Na7 O28 2.523782 1_555
Na7 O23 2.557931 1_555
Na7 O1 2.677701 1_555
Na7 O22 2.702929 1_555
Na7 O24 2.779045 1_554
Na7 O5 2.835076 1_555
Be0 O12 1.600460 1_555
Be0 O25 1.600563 1_555
Be0 O19 1.672153 1_545
Be0 O8 1.691028 1_555
Be1 O24 1.600460 1_555
Be1 O11 1.600563 1_455
Be1 O33 1.672153 1_555
Be1 O2 1.691028 1_456
Be2 O30 1.600460 1_555
Be2 O9 1.600563 1_555
Be2 O8 1.672153 1_565
Be2 O19 1.691028 1_555
Be3 O29 1.600460 1_555
Be3 O28 1.600563 1_555
Be3 O3 1.672153 1_555
Be3 O4 1.691028 1_555
Be4 O20 1.600460 1_555
Be4 O7 1.600563 1_555
Be4 O4 1.672153 1_555
Be4 O3 1.691028 1_555
Be5 O1 1.600460 1_555
Be5 O14 1.600563 1_655
Be5 O2 1.672153 1_555
Be5 O33 1.691028 1_654
Be6 O31 1.600460 1_555
Be6 O21 1.600563 1_655
Be6 O10 1.672153 1_545
Be6 O17 1.691028 1_654
Be7 O35 1.600460 1_555
Be7 O6 1.600563 1_455
Be7 O17 1.672153 1_565
Be7 O10 1.691028 1_456
O0 Si11 1.645981 1_555
O0 Si7 1.671729 1_555
O1 Si6 1.613932 1_555
O2 Si11 1.614411 1_555
O3 Si2 1.614411 1_555
O4 Si5 1.614411 1_555
O5 Si2 1.645981 1_555
O5 Si4 1.671729 1_555
O6 Si9 1.613356 1_555
O7 Si0 1.613356 1_555
O8 Si2 1.614411 1_555
O9 Si7 1.613356 1_555
O10 Si11 1.614411 1_555
O11 Si9 1.613356 1_555
O12 Si3 1.613932 1_555
O13 Si9 1.656030 1_455
O13 Si10 1.665630 1_555
O14 Si4 1.613356 1_555
O15 Si8 1.645981 1_555
O15 Si0 1.671729 1_555
O16 Si11 1.667997 1_556
O16 Si1 1.677961 1_555
O17 Si8 1.614411 1_555
O18 Si5 1.645981 1_555
O18 Si9 1.671729 1_555
O19 Si5 1.614411 1_555
O20 Si3 1.613932 1_555
O21 Si4 1.613356 1_555
O22 Si7 1.656030 1_555
O22 Si1 1.665630 1_554
O23 Si8 1.667997 1_554
O23 Si6 1.677961 1_555
O24 Si1 1.613932 1_555
O25 Si0 1.613356 1_555
O26 Si5 1.667997 1_555
O26 Si10 1.677961 1_655
O27 Si4 1.656030 1_655
O27 Si3 1.665630 1_555
O28 Si7 1.613356 1_555
O29 Si10 1.613932 1_555
O30 Si10 1.613932 1_555
O31 Si6 1.613932 1_555
O32 Si0 1.656030 1_555
O32 Si6 1.665630 1_556
O33 Si8 1.614411 1_555
O34 Si2 1.667997 1_555
O34 Si3 1.677961 1_455
O35 Si1 1.613932 1_555
