# generated using pymatgen
data_Ba3Fe2Cl2O5
_symmetry_space_group_name_H-M   'P 1'
_cell_length_a   8.77834449
_cell_length_b   8.77837607
_cell_length_c   8.77835078
_cell_angle_alpha   109.32799686
_cell_angle_beta   109.58022264
_cell_angle_gamma   109.50552510
_symmetry_Int_Tables_number   1
_chemical_formula_structural   Ba3Fe2Cl2O5
_chemical_formula_sum   'Ba6 Fe4 Cl4 O10'
_cell_volume   520.73375984
_cell_formula_units_Z   2
loop_
 _symmetry_equiv_pos_site_id
 _symmetry_equiv_pos_as_xyz
  1  'x, y, z'
loop_
 _atom_site_type_symbol
 _atom_site_label
 _atom_site_symmetry_multiplicity
 _atom_site_fract_x
 _atom_site_fract_y
 _atom_site_fract_z
 _atom_site_occupancy
  Ba  Ba0  1  0.40548400  0.25000100  0.65548500  1
  Ba  Ba1  1  0.65591200  0.40591300  0.24999900  1
  Ba  Ba2  1  0.74999900  0.84437100  0.09437400  1
  Ba  Ba3  1  0.09451600  0.75000000  0.84451500  1
  Ba  Ba4  1  0.25000200  0.65562800  0.40562600  1
  Ba  Ba5  1  0.84408800  0.09408600  0.75000100  1
  Fe  Fe0  1  0.30887800  0.49901000  0.99964400  1
  Fe  Fe1  1  0.50063600  0.00099100  0.30986800  1
  Fe  Fe2  1  0.19112400  0.19076400  0.19013100  1
  Fe  Fe3  1  0.99936600  0.30923700  0.50035900  1
  Cl  Cl0  1  0.61424500  0.61422400  0.61414600  1
  Cl  Cl1  1  0.50007700  0.00009700  0.88585500  1
  Cl  Cl2  1  0.88576000  0.49990300  0.99998100  1
  Cl  Cl3  1  0.99992400  0.88577500  0.50002100  1
  O  O0  1  0.52085400  0.49973500  0.99995900  1
  O  O1  1  0.50022400  0.00026400  0.52112200  1
  O  O2  1  0.99977900  0.52091600  0.50004400  1
  O  O3  1  0.97913300  0.97908700  0.97886700  1
  O  O4  1  0.14182200  0.25000100  0.39182200  1
  O  O5  1  0.24999700  0.39033800  0.14034600  1
  O  O6  1  0.35817800  0.75000100  0.10817800  1
  O  O7  1  0.39082700  0.14082600  0.24999900  1
  O  O8  1  0.75000600  0.10965900  0.35965700  1
  O  O9  1  0.10917100  0.35917300  0.74999800  1
loop_
_geom_bond_atom_site_label_1
_geom_bond_atom_site_label_2
_geom_bond_distance
_geom_bond_site_symmetry_2
Ba0 O0 2.655602 1_555
Ba0 O1 2.655622 1_555
Ba0 O4 2.668982 1_555
Ba0 O9 3.310215 1_555
Ba0 O7 3.310230 1_555
Ba0 Cl3 3.318673 1_445
Ba0 Cl0 3.318680 1_555
Ba0 Cl1 3.552357 1_555
Ba0 Cl2 3.552362 1_555
Ba1 O2 2.646920 1_555
Ba1 O0 2.646928 1_554
Ba1 O7 2.685874 1_555
Ba1 O5 3.306164 1_555
Ba1 O8 3.306184 1_555
Ba1 Cl0 3.325198 1_555
Ba1 Cl1 3.325205 1_554
Ba1 Cl3 3.552987 1_555
Ba1 Cl2 3.552995 1_554
Ba2 O3 2.654182 1_554
Ba2 O0 2.654189 1_554
Ba2 O8 2.693750 1_565
Ba2 O6 3.312763 1_555
Ba2 O4 3.312796 1_665
Ba2 Cl3 3.316626 1_555
Ba2 Cl1 3.316633 1_564
Ba2 Cl0 3.558158 1_554
Ba2 Cl2 3.558160 1_554
Ba3 O2 2.655541 1_455
Ba3 O3 2.655549 1_455
Ba3 O6 2.668977 1_556
Ba3 O9 3.310215 1_555
Ba3 O7 3.310215 1_566
Ba3 Cl1 3.318654 1_565
Ba3 Cl2 3.318667 1_455
Ba3 Cl3 3.552318 1_455
Ba3 Cl0 3.552327 1_455
Ba4 O2 2.654172 1_455
Ba4 O1 2.654180 1_565
Ba4 O5 2.693755 1_555
Ba4 O6 3.312760 1_555
Ba4 O4 3.312788 1_555
Ba4 Cl2 3.316604 1_454
Ba4 Cl0 3.316624 1_555
Ba4 Cl3 3.558140 1_455
Ba4 Cl1 3.558158 1_565
Ba5 O3 2.646918 1_545
Ba5 O1 2.646935 1_555
Ba5 O9 2.685879 1_655
Ba5 O5 3.306153 1_656
Ba5 O8 3.306190 1_555
Ba5 Cl3 3.325209 1_545
Ba5 Cl2 3.325211 1_555
Ba5 Cl0 3.552980 1_545
Ba5 Cl1 3.552992 1_555
Fe0 O0 1.857754 1_555
Fe0 O5 1.892442 1_556
Fe0 O9 1.894712 1_555
Fe0 O6 1.909672 1_556
Fe1 O1 1.857793 1_555
Fe1 O8 1.892411 1_555
Fe1 O7 1.894695 1_555
Fe1 O6 1.909661 1_545
Fe2 O3 1.857886 1_444
Fe2 O5 1.892337 1_555
Fe2 O7 1.894673 1_555
Fe2 O4 1.909678 1_555
Fe3 O2 1.857910 1_555
Fe3 O8 1.892350 1_555
Fe3 O9 1.894662 1_655
Fe3 O4 1.909679 1_655
