# generated using pymatgen
data_Cs3Nd(PS4)2
_symmetry_space_group_name_H-M   'P 1'
_cell_length_a   7.04320400
_cell_length_b   15.69994400
_cell_length_c   20.38939760
_cell_angle_alpha   50.06205824
_cell_angle_beta   90.00000000
_cell_angle_gamma   90.00000000
_symmetry_Int_Tables_number   1
_chemical_formula_structural   Cs3Nd(PS4)2
_chemical_formula_sum   'Cs12 Nd4 P8 S32'
_cell_volume   1728.70546612
_cell_formula_units_Z   4
loop_
 _symmetry_equiv_pos_site_id
 _symmetry_equiv_pos_as_xyz
  1  'x, y, z'
loop_
 _atom_site_type_symbol
 _atom_site_label
 _atom_site_symmetry_multiplicity
 _atom_site_fract_x
 _atom_site_fract_y
 _atom_site_fract_z
 _atom_site_occupancy
  Cs  Cs0  1  0.24245600  0.34539100  0.87822200  1
  Cs  Cs1  1  0.24760800  0.43402800  0.61315800  1
  Cs  Cs2  1  0.25535100  0.91645800  0.97435900  1
  Cs  Cs3  1  0.74464900  0.08354200  0.02564100  1
  Cs  Cs4  1  0.75535100  0.08354200  0.52564100  1
  Cs  Cs5  1  0.74245600  0.65460900  0.62177800  1
  Cs  Cs6  1  0.25754400  0.34539100  0.37822200  1
  Cs  Cs7  1  0.24464900  0.91645800  0.47435900  1
  Cs  Cs8  1  0.25239200  0.43402800  0.11315800  1
  Cs  Cs9  1  0.74760800  0.56597200  0.88684200  1
  Cs  Cs10  1  0.75239200  0.56597200  0.38684200  1
  Cs  Cs11  1  0.75754400  0.65460900  0.12177800  1
  Nd  Nd0  1  0.76880700  0.14757400  0.72966500  1
  Nd  Nd1  1  0.26880700  0.85242600  0.77033500  1
  Nd  Nd2  1  0.23119300  0.85242600  0.27033500  1
  Nd  Nd3  1  0.73119300  0.14757400  0.22966500  1
  P  P0  1  0.74560600  0.30609500  0.77691800  1
  P  P1  1  0.77410100  0.84683300  0.37018600  1
  P  P2  1  0.75439400  0.30609500  0.27691800  1
  P  P3  1  0.22589900  0.15316700  0.62981400  1
  P  P4  1  0.27410100  0.15316700  0.12981400  1
  P  P5  1  0.24560600  0.69390500  0.72308200  1
  P  P6  1  0.25439400  0.69390500  0.22308200  1
  P  P7  1  0.72589900  0.84683300  0.87018600  1
  S  S0  1  0.73953800  0.38488700  0.82548500  1
  S  S1  1  0.74933700  0.94188400  0.40645900  1
  S  S2  1  0.96723200  0.75390700  0.90330800  1
  S  S3  1  0.03276800  0.24609300  0.09669200  1
  S  S4  1  0.98567400  0.20737800  0.81678000  1
  S  S5  1  0.51422300  0.20343900  0.81449200  1
  S  S6  1  0.49550500  0.74192700  0.92721300  1
  S  S7  1  0.83632800  0.95606800  0.24092000  1
  S  S8  1  0.24997900  0.59583300  0.35438300  1
  S  S9  1  0.75002100  0.40416700  0.64561700  1
  S  S10  1  0.99550500  0.25807300  0.57278700  1
  S  S11  1  0.74997900  0.40416700  0.14561700  1
  S  S12  1  0.25066300  0.05811600  0.59354100  1
  S  S13  1  0.75066300  0.94188400  0.90645900  1
  S  S14  1  0.00449500  0.74192700  0.42721300  1
  S  S15  1  0.01422300  0.79656100  0.68550800  1
  S  S16  1  0.76046200  0.38488700  0.32548500  1
  S  S17  1  0.46723200  0.24609300  0.59669200  1
  S  S18  1  0.24933700  0.05811600  0.09354100  1
  S  S19  1  0.51432600  0.20737800  0.31678000  1
  S  S20  1  0.25002100  0.59583300  0.85438300  1
  S  S21  1  0.98577700  0.20343900  0.31449200  1
  S  S22  1  0.53276800  0.75390700  0.40330800  1
  S  S23  1  0.23953800  0.61511300  0.67451500  1
  S  S24  1  0.48567400  0.79262200  0.68322000  1
  S  S25  1  0.66367200  0.95606800  0.74092000  1
  S  S26  1  0.16367200  0.04393200  0.75908000  1
  S  S27  1  0.01432600  0.79262200  0.18322000  1
  S  S28  1  0.26046200  0.61511300  0.17451500  1
  S  S29  1  0.33632800  0.04393200  0.25908000  1
  S  S30  1  0.50449500  0.25807300  0.07278700  1
  S  S31  1  0.48577700  0.79656100  0.18550800  1
loop_
_geom_bond_atom_site_label_1
_geom_bond_atom_site_label_2
_geom_bond_distance
_geom_bond_site_symmetry_2
Cs0 S23 3.549895 1_555
Cs0 S0 3.597500 1_555
Cs0 S4 3.608395 1_455
Cs0 S0 3.637515 1_455
Cs0 S20 3.639418 1_555
Cs0 S5 3.746633 1_555
Cs0 S30 3.747092 1_556
Cs0 S18 3.767731 1_556
Cs0 S3 3.941809 1_556
Cs1 S17 3.533155 1_555
Cs1 S9 3.541426 1_455
Cs1 S9 3.575067 1_555
Cs1 S23 3.770626 1_555
Cs1 S4 3.786107 1_455
Cs1 S10 3.792253 1_455
Cs1 S5 3.795166 1_555
Cs1 S8 4.133236 1_555
Cs1 S14 4.140406 1_555
Cs2 S26 3.522843 1_565
Cs2 S13 3.679223 1_555
Cs2 S13 3.741897 1_455
Cs2 S27 3.763881 1_556
Cs2 S28 3.774910 1_556
Cs2 S31 3.782481 1_556
Cs2 S6 3.830827 1_555
Cs2 S5 3.923464 1_565
Cs2 S4 3.993842 1_465
Cs3 S7 3.522843 1_545
Cs3 S18 3.679223 1_555
Cs3 S18 3.741897 1_655
Cs3 S4 3.763881 1_554
Cs3 S0 3.774910 1_554
Cs3 S5 3.782481 1_554
Cs3 S30 3.830827 1_555
Cs3 S31 3.923464 1_545
Cs3 S27 3.993842 1_645
Cs4 S25 3.522843 1_545
Cs4 S12 3.679223 1_655
Cs4 S12 3.741897 1_555
Cs4 S19 3.763881 1_555
Cs4 S16 3.774910 1_555
Cs4 S21 3.782481 1_555
Cs4 S10 3.830827 1_555
Cs4 S15 3.923464 1_645
Cs4 S24 3.993842 1_545
Cs5 S0 3.549895 1_555
Cs5 S23 3.597500 1_655
Cs5 S24 3.608395 1_555
Cs5 S23 3.637515 1_555
Cs5 S9 3.639418 1_555
Cs5 S15 3.746633 1_655
Cs5 S14 3.747092 1_655
Cs5 S1 3.767731 1_555
Cs5 S22 3.941809 1_555
Cs6 S28 3.549895 1_555
Cs6 S16 3.597500 1_455
Cs6 S19 3.608395 1_555
Cs6 S16 3.637515 1_555
Cs6 S8 3.639418 1_555
Cs6 S21 3.746633 1_455
Cs6 S10 3.747092 1_455
Cs6 S12 3.767731 1_555
Cs6 S17 3.941809 1_555
Cs7 S29 3.522843 1_565
Cs7 S1 3.679223 1_455
Cs7 S1 3.741897 1_555
Cs7 S24 3.763881 1_555
Cs7 S23 3.774910 1_555
Cs7 S15 3.782481 1_555
Cs7 S14 3.830827 1_555
Cs7 S21 3.923464 1_465
Cs7 S19 3.993842 1_565
Cs8 S3 3.533155 1_555
Cs8 S11 3.541426 1_555
Cs8 S11 3.575067 1_455
Cs8 S28 3.770626 1_555
Cs8 S19 3.786107 1_555
Cs8 S30 3.792253 1_555
Cs8 S21 3.795166 1_455
Cs8 S20 4.133236 1_554
Cs8 S6 4.140406 1_554
Cs9 S2 3.533155 1_555
Cs9 S20 3.541426 1_555
Cs9 S20 3.575067 1_655
Cs9 S0 3.770626 1_555
Cs9 S24 3.786107 1_555
Cs9 S6 3.792253 1_555
Cs9 S15 3.795166 1_655
Cs9 S11 4.133236 1_556
Cs9 S30 4.140406 1_556
Cs10 S22 3.533155 1_555
Cs10 S8 3.541426 1_655
Cs10 S8 3.575067 1_555
Cs10 S16 3.770626 1_555
Cs10 S27 3.786107 1_655
Cs10 S14 3.792253 1_655
Cs10 S31 3.795166 1_555
Cs10 S9 4.133236 1_555
Cs10 S10 4.140406 1_555
Cs11 S16 3.549895 1_555
Cs11 S28 3.597500 1_555
Cs11 S27 3.608395 1_655
Cs11 S28 3.637515 1_655
Cs11 S11 3.639418 1_555
Cs11 S31 3.746633 1_555
Cs11 S6 3.747092 1_554
Cs11 S13 3.767731 1_554
Cs11 S2 3.941809 1_554
Nd0 S13 2.914287 1_545
Nd0 S4 2.917332 1_555
Nd0 S10 2.943771 1_555
Nd0 S25 2.958879 1_545
Nd0 S17 2.978360 1_555
Nd0 S5 2.987223 1_555
Nd0 S26 3.080425 1_655
Nd0 S9 3.212381 1_555
Nd1 S12 2.914287 1_565
Nd1 S24 2.917332 1_555
Nd1 S6 2.943771 1_555
Nd1 S26 2.958879 1_565
Nd1 S2 2.978360 1_455
Nd1 S15 2.987223 1_555
Nd1 S25 3.080425 1_555
Nd1 S20 3.212381 1_555
Nd2 S18 2.914287 1_565
Nd2 S27 2.917332 1_555
Nd2 S14 2.943771 1_555
Nd2 S29 2.958879 1_565
Nd2 S22 2.978360 1_555
Nd2 S31 2.987223 1_555
Nd2 S7 3.080425 1_455
Nd2 S8 3.212381 1_555
Nd3 S1 2.914287 1_545
Nd3 S19 2.917332 1_555
Nd3 S30 2.943771 1_555
Nd3 S7 2.958879 1_545
Nd3 S3 2.978360 1_655
Nd3 S21 2.987223 1_555
Nd3 S29 3.080425 1_555
Nd3 S11 3.212381 1_555
P0 S0 2.021244 1_555
P0 S9 2.060692 1_555
P0 S5 2.062774 1_555
P0 S4 2.074679 1_555
P1 S22 2.051520 1_555
P1 S1 2.054600 1_555
P1 S14 2.058898 1_655
P1 S7 2.067971 1_555
P2 S16 2.021244 1_555
P2 S11 2.060692 1_555
P2 S21 2.062774 1_555
P2 S19 2.074679 1_555
P3 S17 2.051520 1_555
P3 S12 2.054600 1_555
P3 S10 2.058898 1_455
P3 S26 2.067971 1_555
P4 S3 2.051520 1_555
P4 S18 2.054600 1_555
P4 S30 2.058898 1_555
P4 S29 2.067971 1_555
P5 S23 2.021244 1_555
P5 S20 2.060692 1_555
P5 S15 2.062774 1_555
P5 S24 2.074679 1_555
P6 S28 2.021244 1_555
P6 S8 2.060692 1_555
P6 S31 2.062774 1_555
P6 S27 2.074679 1_555
P7 S2 2.051520 1_555
P7 S13 2.054600 1_555
P7 S6 2.058898 1_555
P7 S25 2.067971 1_555
