# generated using pymatgen
data_BaCu(SeO3)2
_symmetry_space_group_name_H-M   'P 1'
_cell_length_a   5.28402230
_cell_length_b   8.90802192
_cell_length_c   13.25862627
_cell_angle_alpha   90.00000000
_cell_angle_beta   90.00000000
_cell_angle_gamma   89.85950459
_symmetry_Int_Tables_number   1
_chemical_formula_structural   BaCu(SeO3)2
_chemical_formula_sum   'Ba4 Cu4 Se8 O24'
_cell_volume   624.08413462
_cell_formula_units_Z   4
loop_
 _symmetry_equiv_pos_site_id
 _symmetry_equiv_pos_as_xyz
  1  'x, y, z'
loop_
 _atom_site_type_symbol
 _atom_site_label
 _atom_site_symmetry_multiplicity
 _atom_site_fract_x
 _atom_site_fract_y
 _atom_site_fract_z
 _atom_site_occupancy
  Ba  Ba0  1  0.73060731  0.69058873  0.20074838  1
  Ba  Ba1  1  0.73060731  0.19058873  0.29925162  1
  Ba  Ba2  1  0.26939269  0.80941027  0.70074938  1
  Ba  Ba3  1  0.26939269  0.30941127  0.79925062  1
  Cu  Cu0  1  0.27376263  0.90018732  0.36683167  1
  Cu  Cu1  1  0.72623737  0.09981368  0.63316833  1
  Cu  Cu2  1  0.72623737  0.59981368  0.86683167  1
  Cu  Cu3  1  0.27376263  0.40018732  0.13316833  1
  Se  Se0  1  0.18958259  0.71027930  0.99109806  1
  Se  Se1  1  0.23469227  0.53527952  0.36269959  1
  Se  Se2  1  0.81041741  0.78972070  0.49109806  1
  Se  Se3  1  0.23469227  0.03527952  0.13730041  1
  Se  Se4  1  0.76530773  0.96472048  0.86269959  1
  Se  Se5  1  0.81041741  0.28972070  0.00890194  1
  Se  Se6  1  0.18958259  0.21027930  0.50890194  1
  Se  Se7  1  0.76530773  0.46472048  0.63730041  1
  O  O0  1  0.28654212  0.62326611  0.88500675  1
  O  O1  1  0.21695379  0.70868718  0.30481342  1
  O  O2  1  0.71345788  0.37673389  0.11499325  1
  O  O3  1  0.21695379  0.20868718  0.19518658  1
  O  O4  1  0.86951173  0.17071291  0.50532894  1
  O  O5  1  0.06005348  0.52752850  0.65894942  1
  O  O6  1  0.13048827  0.82928709  0.49467106  1
  O  O7  1  0.29360278  0.60881058  0.09351692  1
  O  O8  1  0.06005348  0.02752850  0.84105058  1
  O  O9  1  0.13048827  0.32928709  0.00532894  1
  O  O10  1  0.70639722  0.89118942  0.59351692  1
  O  O11  1  0.58649329  0.55010609  0.72942338  1
  O  O12  1  0.58649329  0.05010609  0.77057662  1
  O  O13  1  0.78304521  0.29131282  0.69518658  1
  O  O14  1  0.70639722  0.39118942  0.90648308  1
  O  O15  1  0.93994652  0.47247150  0.34105058  1
  O  O16  1  0.71345788  0.87673389  0.38500675  1
  O  O17  1  0.41350671  0.44989391  0.27057662  1
  O  O18  1  0.86951173  0.67071391  0.99467106  1
  O  O19  1  0.28654212  0.12326611  0.61499325  1
  O  O20  1  0.29360278  0.10881058  0.40648308  1
  O  O21  1  0.78304521  0.79131282  0.80481342  1
  O  O22  1  0.41350671  0.94989391  0.22942338  1
  O  O23  1  0.93994652  0.97247150  0.15894942  1
loop_
_geom_bond_atom_site_label_1
_geom_bond_atom_site_label_2
_geom_bond_distance
_geom_bond_site_symmetry_2
Ba0 O23 2.801703 1_555
Ba0 O7 2.809345 1_555
Ba0 O18 2.834590 1_554
Ba0 O22 2.875536 1_555
Ba0 O17 2.877416 1_555
Ba0 O15 2.906657 1_555
Ba0 O1 2.921638 1_655
Ba0 O16 2.953873 1_555
Ba0 O2 3.019744 1_555
Ba0 O1 3.048644 1_555
Ba0 O7 3.375103 1_655
Ba1 O15 2.801703 1_555
Ba1 O20 2.809345 1_555
Ba1 O4 2.834591 1_555
Ba1 O17 2.875536 1_555
Ba1 O22 2.877416 1_545
Ba1 O23 2.906657 1_545
Ba1 O3 2.921638 1_655
Ba1 O2 2.953873 1_555
Ba1 O16 3.019744 1_545
Ba1 O3 3.048644 1_555
Ba1 O20 3.375103 1_655
Ba2 O5 2.801698 1_555
Ba2 O10 2.809354 1_555
Ba2 O6 2.834604 1_555
Ba2 O11 2.875527 1_555
Ba2 O12 2.877419 1_565
Ba2 O8 2.906654 1_565
Ba2 O21 2.921636 1_455
Ba2 O0 2.953857 1_555
Ba2 O19 3.019757 1_565
Ba2 O21 3.048633 1_555
Ba2 O10 3.375111 1_455
Ba3 O8 2.801706 1_555
Ba3 O14 2.809352 1_555
Ba3 O9 2.834603 1_556
Ba3 O12 2.875534 1_555
Ba3 O11 2.877412 1_555
Ba3 O5 2.906648 1_555
Ba3 O13 2.921637 1_455
Ba3 O19 2.953862 1_555
Ba3 O0 3.019749 1_555
Ba3 O13 3.048633 1_555
Ba3 O14 3.375109 1_455
Cu0 O1 1.918022 1_555
Cu0 O20 1.934440 1_565
Cu0 O6 1.961460 1_555
Cu0 O22 2.015449 1_555
Cu0 O16 2.344640 1_555
Cu1 O13 1.918014 1_555
Cu1 O10 1.934449 1_545
Cu1 O4 1.961457 1_555
Cu1 O12 2.015451 1_555
Cu1 O19 2.344639 1_555
Cu2 O21 1.918014 1_555
Cu2 O14 1.934449 1_555
Cu2 O18 1.961460 1_555
Cu2 O11 2.015451 1_555
Cu2 O0 2.344639 1_555
Cu3 O3 1.918022 1_555
Cu3 O7 1.934440 1_555
Cu3 O9 1.961460 1_555
Cu3 O17 2.015449 1_555
Cu3 O2 2.344640 1_555
O0 Se0 1.685212 1_555
O1 Se1 1.727216 1_555
O2 Se5 1.685212 1_555
O3 Se3 1.727216 1_555
O4 Se6 1.729092 1_655
O5 Se7 1.680871 1_455
O6 Se2 1.729092 1_455
O7 Se0 1.720658 1_554
O8 Se4 1.680871 1_445
O9 Se5 1.729092 1_455
O10 Se2 1.720658 1_555
O11 Se7 1.720363 1_555
O12 Se4 1.720363 1_545
O13 Se7 1.727216 1_555
O14 Se5 1.720658 1_556
O15 Se1 1.680871 1_655
O16 Se2 1.685212 1_555
O17 Se1 1.720363 1_555
O18 Se0 1.729090 1_655
O19 Se6 1.685212 1_555
O20 Se6 1.720658 1_555
O21 Se4 1.727216 1_555
O22 Se3 1.720363 1_565
O23 Se3 1.680871 1_665
