# generated using pymatgen
data_UTl2(TeO4)2
_symmetry_space_group_name_H-M   'P 1'
_cell_length_a   7.39185167
_cell_length_b   7.93291640
_cell_length_c   8.95741083
_cell_angle_alpha   92.78507407
_cell_angle_beta   107.82080962
_cell_angle_gamma   107.84949354
_symmetry_Int_Tables_number   1
_chemical_formula_structural   UTl2(TeO4)2
_chemical_formula_sum   'U2 Tl4 Te4 O16'
_cell_volume   470.06739721
_cell_formula_units_Z   2
loop_
 _symmetry_equiv_pos_site_id
 _symmetry_equiv_pos_as_xyz
  1  'x, y, z'
loop_
 _atom_site_type_symbol
 _atom_site_label
 _atom_site_symmetry_multiplicity
 _atom_site_fract_x
 _atom_site_fract_y
 _atom_site_fract_z
 _atom_site_occupancy
  U  U0  1  0.11125297  0.93817664  0.71472058  1
  U  U1  1  0.88874660  0.06182603  0.28527680  1
  Tl  Tl0  1  0.03489545  0.41348600  0.68140363  1
  Tl  Tl1  1  0.28924306  0.43016470  0.09047091  1
  Tl  Tl2  1  0.71075453  0.56982980  0.90952947  1
  Tl  Tl3  1  0.96511956  0.58653692  0.31860852  1
  Te  Te0  1  0.40087364  0.28602015  0.48446129  1
  Te  Te1  1  0.59912497  0.71397912  0.51554143  1
  Te  Te2  1  0.66374590  0.09027614  0.86488524  1
  Te  Te3  1  0.33624926  0.90972302  0.13510383  1
  O  O0  1  0.58266578  0.89260133  0.11896830  1
  O  O1  1  0.41733282  0.10741160  0.88103397  1
  O  O2  1  0.42529688  0.49402856  0.61401419  1
  O  O3  1  0.22327220  0.80102923  0.62411691  1
  O  O4  1  0.18248768  0.29661743  0.30856436  1
  O  O5  1  0.99737403  0.91517063  0.19943630  1
  O  O6  1  0.57470483  0.50596027  0.38599670  1
  O  O7  1  0.16069668  0.78621967  0.93377201  1
  O  O8  1  0.83930478  0.21377007  0.06621968  1
  O  O9  1  0.29645074  0.71497958  0.24528332  1
  O  O10  1  0.81751295  0.70337802  0.69143521  1
  O  O11  1  0.70356477  0.28502744  0.75471926  1
  O  O12  1  0.17265971  0.13996630  0.54828818  1
  O  O13  1  0.00260570  0.08482158  0.80055940  1
  O  O14  1  0.77672856  0.19897747  0.37588402  1
  O  O15  1  0.82733196  0.86002530  0.45170451  1
loop_
_geom_bond_atom_site_label_1
_geom_bond_atom_site_label_2
_geom_bond_distance
_geom_bond_site_symmetry_2
O0 Te3 1.915203 1_555
O0 U1 2.240754 1_565
O1 Te2 1.915260 1_555
O1 U0 2.240785 1_545
O2 Te0 1.898733 1_555
O2 Te1 2.223150 1_555
O2 Tl2 2.733050 1_555
O3 U0 1.845473 1_555
O4 Te0 1.906487 1_555
O4 U1 2.330879 1_455
O4 Tl1 2.488704 1_555
O5 U1 1.858257 1_565
O6 Te1 1.898769 1_555
O6 Te0 2.223064 1_555
O6 Tl1 2.733133 1_555
O7 Te3 1.874194 1_556
O7 U0 2.344715 1_555
O8 Te2 1.874203 1_554
O8 U1 2.344694 1_555
O9 Te3 1.869356 1_555
O9 Tl1 2.570462 1_555
O9 Tl3 2.643435 1_455
O10 Te1 1.906491 1_555
O10 U0 2.330908 1_655
O10 Tl2 2.488723 1_555
O11 Te2 1.869341 1_555
O11 Tl2 2.570423 1_555
O11 Tl0 2.643399 1_655
O12 Te0 1.992866 1_555
O12 U0 2.278529 1_545
O12 U1 2.524510 1_455
O13 U0 1.858298 1_545
O14 U1 1.845506 1_555
O15 Te1 1.992858 1_555
O15 U1 2.278567 1_565
O15 U0 2.524561 1_655
