# generated using pymatgen
data_UBC
_symmetry_space_group_name_H-M   'P 1'
_cell_length_a   6.26946703
_cell_length_b   6.26946703
_cell_length_c   3.31214251
_cell_angle_alpha   90.00000000
_cell_angle_beta   90.00000000
_cell_angle_gamma   146.15036523
_symmetry_Int_Tables_number   1
_chemical_formula_structural   UBC
_chemical_formula_sum   'U2 B2 C2'
_cell_volume   72.51658933
_cell_formula_units_Z   2
loop_
 _symmetry_equiv_pos_site_id
 _symmetry_equiv_pos_as_xyz
  1  'x, y, z'
loop_
 _atom_site_type_symbol
 _atom_site_label
 _atom_site_symmetry_multiplicity
 _atom_site_fract_x
 _atom_site_fract_y
 _atom_site_fract_z
 _atom_site_occupancy
  U  U0  1  0.86165583  0.13834417  0.75000000  1
  U  U1  1  0.13834311  0.86165689  0.25000000  1
  B  B0  1  0.53497910  0.46502090  0.75000000  1
  B  B1  1  0.46501970  0.53498030  0.25000000  1
  C  C0  1  0.66615236  0.33384764  0.75000000  1
  C  C1  1  0.33384989  0.66615011  0.25000000  1
loop_
_geom_bond_atom_site_label_1
_geom_bond_atom_site_label_2
_geom_bond_distance
_geom_bond_site_symmetry_2
B0 C0 1.573534 1_555
B1 C1 1.573492 1_555
C0 U0 2.345229 1_555
C0 U1 2.486969 1_546
C0 U1 2.486969 1_655
C0 U1 2.486969 1_656
C0 U1 2.486969 1_545
C1 U1 2.345269 1_555
C1 U0 2.486964 1_455
C1 U0 2.486964 1_454
C1 U0 2.486964 1_565
C1 U0 2.486964 1_564
