# generated using pymatgen
data_Cs2CoS2
_symmetry_space_group_name_H-M   'P 1'
_cell_length_a   8.47382408
_cell_length_b   8.47382408
_cell_length_c   8.47382408
_cell_angle_alpha   136.69537366
_cell_angle_beta   128.27320681
_cell_angle_gamma   69.68816596
_symmetry_Int_Tables_number   1
_chemical_formula_structural   Cs2CoS2
_chemical_formula_sum   'Cs4 Co2 S4'
_cell_volume   321.51074932
_cell_formula_units_Z   2
loop_
 _symmetry_equiv_pos_site_id
 _symmetry_equiv_pos_as_xyz
  1  'x, y, z'
loop_
 _atom_site_type_symbol
 _atom_site_label
 _atom_site_symmetry_multiplicity
 _atom_site_fract_x
 _atom_site_fract_y
 _atom_site_fract_z
 _atom_site_occupancy
  Cs  Cs0  1  0.47889100  0.14775100  0.33114000  1
  Cs  Cs1  1  0.52110900  0.85224900  0.66886000  1
  Cs  Cs2  1  0.18338900  0.35224900  0.83114000  1
  Cs  Cs3  1  0.81661100  0.64775100  0.16886000  1
  Co  Co0  1  0.00000000  0.75000000  0.75000000  1
  Co  Co1  1  0.00000000  0.25000000  0.25000000  1
  S  S0  1  0.74959200  0.41101900  0.33857300  1
  S  S1  1  0.25040800  0.58898100  0.66142700  1
  S  S2  1  0.07244600  0.91101900  0.16142700  1
  S  S3  1  0.92755400  0.08898100  0.83857300  1
loop_
_geom_bond_atom_site_label_1
_geom_bond_atom_site_label_2
_geom_bond_distance
_geom_bond_site_symmetry_2
Cs0 S1 3.466724 1_544
Cs0 S1 3.466724 1_555
Cs0 S2 3.523680 1_545
Cs0 S0 3.662234 1_555
Cs0 S3 3.732178 1_454
Cs0 S3 3.839490 1_555
Cs1 S0 3.466724 1_566
Cs1 S0 3.466724 1_555
Cs1 S3 3.523680 1_565
Cs1 S1 3.662234 1_555
Cs1 S2 3.732178 1_656
Cs1 S2 3.839490 1_555
Cs2 S2 3.466724 1_556
Cs2 S2 3.466724 1_545
Cs2 S1 3.523680 1_555
Cs2 S3 3.662234 1_455
Cs2 S0 3.732178 1_455
Cs2 S0 3.839490 1_556
Cs3 S3 3.466724 1_565
Cs3 S3 3.466724 1_554
Cs3 S0 3.523680 1_555
Cs3 S2 3.662234 1_655
Cs3 S1 3.732178 1_655
Cs3 S1 3.839490 1_554
Co0 S1 2.323786 1_555
Co0 S3 2.323786 1_465
Co0 S2 2.323786 1_556
Co0 S0 2.323786 1_455
Co0 Cs0 3.558176 1_566
Co0 Cs3 3.558176 1_455
Co0 Cs2 3.558176 1_555
Co0 Cs1 3.558176 1_455
Co1 S3 2.323786 1_454
Co1 S1 2.323786 1_555
Co1 S0 2.323786 1_455
Co1 S2 2.323786 1_545
Co1 Cs0 3.558176 1_555
Co1 Cs3 3.558176 1_455
Co1 Cs2 3.558176 1_555
Co1 Cs1 3.558176 1_444
