# generated using pymatgen
data_KCrF3
_symmetry_space_group_name_H-M   'P 1'
_cell_length_a   6.02100749
_cell_length_b   6.02100749
_cell_length_c   5.79612869
_cell_angle_alpha   59.26580277
_cell_angle_beta   59.26580277
_cell_angle_gamma   90.95246281
_symmetry_Int_Tables_number   1
_chemical_formula_structural   KCrF3
_chemical_formula_sum   'K2 Cr2 F6'
_cell_volume   143.85218426
_cell_formula_units_Z   2
loop_
 _symmetry_equiv_pos_site_id
 _symmetry_equiv_pos_as_xyz
  1  'x, y, z'
loop_
 _atom_site_type_symbol
 _atom_site_label
 _atom_site_symmetry_multiplicity
 _atom_site_fract_x
 _atom_site_fract_y
 _atom_site_fract_z
 _atom_site_occupancy
  K  K0  1  0.75255251  0.24744749  -0.00000000  1
  K  K1  1  0.24744749  0.75255251  -0.00000000  1
  Cr  Cr0  1  0.50000000  0.50000000  0.50000000  1
  Cr  Cr1  1  -0.00000000  -0.00000000  0.50000000  1
  F  F0  1  0.76964467  0.23035533  0.50000000  1
  F  F1  1  0.69274031  0.69274031  0.57636703  1
  F  F2  1  0.30725969  0.30725969  0.42363297  1
  F  F3  1  0.79030044  0.79030044  0.00113100  1
  F  F4  1  0.23035533  0.76964467  0.50000000  1
  F  F5  1  0.20969956  0.20969956  -0.00113100  1
loop_
_geom_bond_atom_site_label_1
_geom_bond_atom_site_label_2
_geom_bond_distance
_geom_bond_site_symmetry_2
Cr0 F1 1.973497 1_555
Cr0 F2 1.973497 1_555
Cr0 F5 2.009456 1_556
Cr0 F3 2.009456 1_555
Cr0 F0 2.315026 1_555
Cr0 F4 2.315026 1_555
Cr1 F0 1.977709 1_455
Cr1 F4 1.977709 1_545
Cr1 F3 2.018712 1_446
Cr1 F5 2.018712 1_555
Cr1 F1 2.292001 1_445
Cr1 F2 2.292001 1_555
F0 K0 2.901777 1_556
F0 K0 2.901777 1_555
F0 K1 2.902575 1_655
F0 K1 2.902575 1_546
F1 K0 2.748503 1_556
F1 K1 2.748503 1_556
F1 K0 3.125841 1_565
F1 K1 3.125841 1_655
F2 K1 2.748503 1_555
F2 K0 2.748503 1_555
F2 K1 3.125841 1_546
F2 K0 3.125841 1_456
F3 K0 2.762563 1_565
F3 K1 2.762563 1_655
F3 K0 3.276226 1_555
F3 K1 3.276226 1_555
F4 K1 2.901777 1_556
F4 K1 2.901777 1_555
F4 K0 2.902575 1_456
F4 K0 2.902575 1_565
F5 K1 2.762563 1_545
F5 K0 2.762563 1_455
F5 K0 3.276226 1_555
F5 K1 3.276226 1_555
