# generated using pymatgen
data_Li3Al(BO3)2
_symmetry_space_group_name_H-M   'P 1'
_cell_length_a   4.92683000
_cell_length_b   6.62785183
_cell_length_c   8.24559954
_cell_angle_alpha   109.95271350
_cell_angle_beta   89.88885628
_cell_angle_gamma   90.59036554
_symmetry_Int_Tables_number   1
_chemical_formula_structural   Li3Al(BO3)2
_chemical_formula_sum   'Li6 Al2 B4 O12'
_cell_volume   253.07838074
_cell_formula_units_Z   2
loop_
 _symmetry_equiv_pos_site_id
 _symmetry_equiv_pos_as_xyz
  1  'x, y, z'
loop_
 _atom_site_type_symbol
 _atom_site_label
 _atom_site_symmetry_multiplicity
 _atom_site_fract_x
 _atom_site_fract_y
 _atom_site_fract_z
 _atom_site_occupancy
  Li  Li0  1  0.66183100  0.40497700  0.57686100  1
  Li  Li1  1  0.33816900  0.59502300  0.42313900  1
  Li  Li2  1  0.14982300  0.55765200  0.72222900  1
  Li  Li3  1  0.85017700  0.44234800  0.27777100  1
  Li  Li4  1  0.87721300  0.26179600  0.85896000  1
  Li  Li5  1  0.12278700  0.73820400  0.14104000  1
  Al  Al0  1  0.62043500  0.04528900  0.22694900  1
  Al  Al1  1  0.37956500  0.95471100  0.77305100  1
  B  B0  1  0.14839400  0.17801500  0.40518400  1
  B  B1  1  0.85160600  0.82198500  0.59481600  1
  B  B2  1  0.66110500  0.68867900  0.92541800  1
  B  B3  1  0.33889500  0.31132100  0.07458200  1
  O  O0  1  0.75400400  0.79746700  0.09275500  1
  O  O1  1  0.24599600  0.20253300  0.90724500  1
  O  O2  1  0.86402700  0.17786600  0.38728300  1
  O  O3  1  0.13597300  0.82213400  0.61271700  1
  O  O4  1  0.27934200  0.34796500  0.51781000  1
  O  O5  1  0.72065800  0.65203500  0.48219000  1
  O  O6  1  0.80183400  0.52327000  0.81580900  1
  O  O7  1  0.19816600  0.47673000  0.18419100  1
  O  O8  1  0.41361800  0.75876800  0.87783800  1
  O  O9  1  0.58638200  0.24123200  0.12216200  1
  O  O10  1  0.29057700  0.00157200  0.29467700  1
  O  O11  1  0.70942300  0.99842800  0.70532300  1
loop_
_geom_bond_atom_site_label_1
_geom_bond_atom_site_label_2
_geom_bond_distance
_geom_bond_site_symmetry_2
Li0 O4 1.947913 1_555
Li0 O6 1.977954 1_555
Li0 O2 2.029950 1_555
Li0 O5 2.058247 1_555
Li1 O5 1.947913 1_555
Li1 O7 1.977954 1_555
Li1 O3 2.029950 1_555
Li1 O4 2.058247 1_555
Li2 O4 1.896078 1_555
Li2 O6 1.921875 1_455
Li2 O8 1.978830 1_555
Li2 O3 2.230670 1_555
Li3 O5 1.896078 1_555
Li3 O7 1.921875 1_655
Li3 O9 1.978830 1_555
Li3 O2 2.230670 1_555
Li4 O6 1.924177 1_555
Li4 O1 1.933463 1_655
Li4 O11 1.949450 1_545
Li5 O7 1.924177 1_555
Li5 O0 1.933463 1_455
Li5 O10 1.949450 1_565
Al0 O10 1.770358 1_555
Al0 O0 1.770413 1_545
Al0 O2 1.775343 1_555
Al0 O9 1.797817 1_555
Al1 O11 1.770358 1_555
Al1 O1 1.770413 1_565
Al1 O3 1.775343 1_555
Al1 O8 1.797817 1_555
B0 O4 1.349395 1_555
B0 O10 1.405608 1_555
B0 O2 1.409021 1_455
B1 O5 1.349395 1_555
B1 O11 1.405608 1_555
B1 O3 1.409021 1_655
B2 O6 1.355160 1_555
B2 O0 1.396375 1_556
B2 O8 1.412227 1_555
B3 O7 1.355160 1_555
B3 O1 1.396375 1_554
B3 O9 1.412227 1_555
