# generated using pymatgen
data_Co(PO3)2
_symmetry_space_group_name_H-M   'P 1'
_cell_length_a   7.28834300
_cell_length_b   7.28834300
_cell_length_c   10.09766331
_cell_angle_alpha   66.97473171
_cell_angle_beta   66.97473171
_cell_angle_gamma   70.13097663
_symmetry_Int_Tables_number   1
_chemical_formula_structural   Co(PO3)2
_chemical_formula_sum   'Co4 P8 O24'
_cell_volume   443.12986330
_cell_formula_units_Z   4
loop_
 _symmetry_equiv_pos_site_id
 _symmetry_equiv_pos_as_xyz
  1  'x, y, z'
loop_
 _atom_site_type_symbol
 _atom_site_label
 _atom_site_symmetry_multiplicity
 _atom_site_fract_x
 _atom_site_fract_y
 _atom_site_fract_z
 _atom_site_occupancy
  Co  Co0  1  0.45053600  0.54946400  0.25000000  1
  Co  Co1  1  0.54946400  0.45053600  0.75000000  1
  Co  Co2  1  0.00000000  0.50000000  0.50000000  1
  Co  Co3  1  0.50000000  0.00000000  0.00000000  1
  P  P0  1  0.75219700  0.22905500  0.47721500  1
  P  P1  1  0.77094500  0.24780300  0.02278500  1
  P  P2  1  0.24780300  0.77094500  0.52278500  1
  P  P3  1  0.22905500  0.75219700  0.97721500  1
  P  P4  1  0.20252700  0.18638500  0.30427700  1
  P  P5  1  0.81361500  0.79747300  0.19572300  1
  P  P6  1  0.79747300  0.81361500  0.69572300  1
  P  P7  1  0.18638500  0.20252700  0.80427700  1
  O  O0  1  0.58568300  0.34252500  0.40754100  1
  O  O1  1  0.65747500  0.41431700  0.09245900  1
  O  O2  1  0.41431700  0.65747500  0.59245900  1
  O  O3  1  0.34252500  0.58568300  0.90754100  1
  O  O4  1  0.78684000  0.31077600  0.58140700  1
  O  O5  1  0.68922400  0.21316000  0.91859300  1
  O  O6  1  0.21316000  0.68922400  0.41859300  1
  O  O7  1  0.31077600  0.78684000  0.08140700  1
  O  O8  1  0.96461800  0.19043400  0.34658700  1
  O  O9  1  0.80956600  0.03538200  0.15341300  1
  O  O10  1  0.03538200  0.80956600  0.65341300  1
  O  O11  1  0.19043400  0.96461800  0.84658700  1
  O  O12  1  0.30630400  0.15129300  0.15471500  1
  O  O13  1  0.84870700  0.69369600  0.34528500  1
  O  O14  1  0.69369600  0.84870700  0.84528500  1
  O  O15  1  0.15129300  0.30630400  0.65471500  1
  O  O16  1  0.21853100  0.37618600  0.32423500  1
  O  O17  1  0.62381400  0.78146900  0.17576500  1
  O  O18  1  0.78146900  0.62381400  0.67576500  1
  O  O19  1  0.37618600  0.21853100  0.82423500  1
  O  O20  1  0.28114500  0.99847600  0.43553000  1
  O  O21  1  0.00152400  0.71885500  0.06447000  1
  O  O22  1  0.71885500  0.00152400  0.56447000  1
  O  O23  1  0.99847600  0.28114500  0.93553000  1
loop_
_geom_bond_atom_site_label_1
_geom_bond_atom_site_label_2
_geom_bond_distance
_geom_bond_site_symmetry_2
Co0 O0 2.028464 1_555
Co0 O1 2.028464 1_555
Co0 O16 2.176136 1_555
Co0 O17 2.176136 1_555
Co0 O6 2.187126 1_555
Co0 O7 2.187126 1_555
Co1 O3 2.028464 1_555
Co1 O2 2.028464 1_555
Co1 O19 2.176136 1_555
Co1 O18 2.176136 1_555
Co1 O5 2.187126 1_555
Co1 O4 2.187126 1_555
Co2 O13 2.052726 1_455
Co2 O15 2.052726 1_555
Co2 O6 2.135856 1_555
Co2 O4 2.135856 1_455
Co2 O18 2.136739 1_455
Co2 O16 2.136739 1_555
Co3 O12 2.052726 1_555
Co3 O14 2.052726 1_544
Co3 O5 2.135856 1_554
Co3 O7 2.135856 1_545
Co3 O19 2.136739 1_554
Co3 O17 2.136739 1_545
O0 P0 1.477264 1_555
O1 P1 1.477264 1_555
O2 P2 1.477264 1_555
O3 P3 1.477264 1_555
O4 P0 1.525006 1_555
O5 P1 1.525006 1_556
O6 P2 1.525006 1_555
O7 P3 1.525006 1_554
O8 P4 1.607978 1_655
O8 P0 1.616392 1_555
O9 P5 1.607978 1_545
O9 P1 1.616392 1_555
O10 P6 1.607978 1_455
O10 P2 1.616392 1_555
O11 P7 1.607978 1_565
O11 P3 1.616392 1_555
O12 P4 1.481679 1_555
O13 P5 1.481679 1_555
O14 P6 1.481679 1_555
O15 P7 1.481679 1_555
O16 P4 1.521180 1_555
O17 P5 1.521180 1_555
O18 P6 1.521180 1_555
O19 P7 1.521180 1_555
O20 P2 1.596506 1_555
O20 P4 1.612840 1_565
O21 P3 1.596506 1_554
O21 P5 1.612840 1_455
O22 P0 1.596506 1_555
O22 P6 1.612840 1_545
O23 P1 1.596506 1_556
O23 P7 1.612840 1_655
