# generated using pymatgen
data_VCo3
_symmetry_space_group_name_H-M   'P 1'
_cell_length_a   4.92422969
_cell_length_b   4.92421570
_cell_length_c   12.01150201
_cell_angle_alpha   89.99999930
_cell_angle_beta   89.99993967
_cell_angle_gamma   119.99996326
_symmetry_Int_Tables_number   1
_chemical_formula_structural   VCo3
_chemical_formula_sum   'V6 Co18'
_cell_volume   252.23391556
_cell_formula_units_Z   6
loop_
 _symmetry_equiv_pos_site_id
 _symmetry_equiv_pos_as_xyz
  1  'x, y, z'
loop_
 _atom_site_type_symbol
 _atom_site_label
 _atom_site_symmetry_multiplicity
 _atom_site_fract_x
 _atom_site_fract_y
 _atom_site_fract_z
 _atom_site_occupancy
  V  V0  1  0.00000046  -0.00000108  -0.00000267  1
  V  V1  1  -0.00000000  0.00000132  0.50000357  1
  V  V2  1  0.33333328  0.66666594  0.33897341  1
  V  V3  1  0.33333212  0.66666524  0.66102968  1
  V  V4  1  0.66666795  0.33333494  0.16103176  1
  V  V5  1  0.66666963  0.33333571  0.83896448  1
  Co  Co0  1  0.49534284  0.50465325  0.00000568  1
  Co  Co1  1  0.00931343  0.50465609  0.00000586  1
  Co  Co2  1  0.49534317  0.99068978  0.00000572  1
  Co  Co3  1  0.50465693  0.49534718  0.49999341  1
  Co  Co4  1  0.99068737  0.49534459  0.49999361  1
  Co  Co5  1  0.50465618  0.00930929  0.49999343  1
  Co  Co6  1  0.16617996  0.83381739  0.16753411  1
  Co  Co7  1  0.66763722  0.83381830  0.83247175  1
  Co  Co8  1  0.16618134  0.33236514  0.83247312  1
  Co  Co9  1  0.16617977  0.33236238  0.16753407  1
  Co  Co10  1  0.66763815  0.83381873  0.16753459  1
  Co  Co11  1  0.16618158  0.83381623  0.83247310  1
  Co  Co12  1  0.83381876  0.16618226  0.33245742  1
  Co  Co13  1  0.33236242  0.16618131  0.66753810  1
  Co  Co14  1  0.83381857  0.66763594  0.66753714  1
  Co  Co15  1  0.83381938  0.66763689  0.33245733  1
  Co  Co16  1  0.33236141  0.16618072  0.33245624  1
  Co  Co17  1  0.83381807  0.16618245  0.66753708  1
loop_
_geom_bond_atom_site_label_1
_geom_bond_atom_site_label_2
_geom_bond_distance
_geom_bond_site_symmetry_2
Co0 Co1 2.393327 1_555
Co0 Co2 2.393348 1_555
Co0 V4 2.424069 1_555
Co0 V5 2.424215 1_554
Co0 Co9 2.453789 1_555
Co0 Co10 2.453801 1_555
Co0 Co8 2.453829 1_554
Co0 Co7 2.453847 1_554
Co0 V0 2.462425 1_555
Co0 V0 2.462441 1_665
Co0 Co2 2.530868 1_545
Co0 Co1 2.530902 1_655
Co1 Co2 2.393330 1_555
Co1 V4 2.424073 1_455
Co1 V5 2.424220 1_454
Co1 Co9 2.453781 1_555
Co1 Co6 2.453784 1_555
Co1 Co8 2.453821 1_554
Co1 Co11 2.453824 1_554
Co1 V0 2.462425 1_565
Co1 V0 2.462431 1_555
Co1 Co2 2.530896 1_445
Co2 V4 2.424073 1_565
Co2 V5 2.424219 1_564
Co2 Co6 2.453790 1_555
Co2 Co7 2.453850 1_554
Co2 V0 2.462421 1_565
Co2 V0 2.462448 1_665
Co3 Co4 2.393332 1_555
Co3 Co5 2.393354 1_555
Co3 V2 2.424009 1_555
Co3 V3 2.424164 1_555
Co3 V1 2.462426 1_665
Co3 V1 2.462440 1_555
Co3 Co5 2.530862 1_565
Co3 Co4 2.530898 1_455
Co4 Co5 2.393337 1_555
Co4 V2 2.424019 1_655
Co4 V3 2.424171 1_655
Co4 V1 2.462426 1_655
Co4 V1 2.462430 1_665
Co4 Co5 2.530888 1_665
Co5 V2 2.424011 1_545
Co5 V3 2.424166 1_545
Co5 V1 2.462424 1_655
Co5 V1 2.462446 1_555
Co6 Co9 2.454944 1_565
Co6 V0 2.461407 1_565
Co6 V4 2.463341 1_455
Co6 V4 2.463368 1_565
Co6 Co9 2.469272 1_555
Co6 V2 2.504585 1_555
Co7 Co8 2.454950 1_665
Co7 V0 2.461304 1_666
Co7 V5 2.463340 1_555
Co7 V5 2.463352 1_565
Co7 Co8 2.469275 1_555
Co7 V3 2.504615 1_555
Co8 V0 2.461294 1_556
Co8 V5 2.463338 1_455
Co8 V5 2.463367 1_555
Co8 V3 2.504612 1_555
Co9 V0 2.461411 1_555
Co9 V4 2.463348 1_455
Co9 V4 2.463366 1_555
Co9 V2 2.504582 1_555
Co10 Co15 2.435808 1_555
Co10 Co12 2.435810 1_565
Co10 Co2 2.453802 1_555
Co10 Co9 2.454936 1_665
Co10 Co6 2.454938 1_655
Co10 V0 2.461414 1_665
Co10 V4 2.463344 1_555
Co10 V4 2.463356 1_565
Co10 Co9 2.469289 1_555
Co10 Co6 2.469292 1_555
Co10 V2 2.504580 1_555
Co11 Co13 2.435931 1_565
Co11 Co14 2.435940 1_455
Co11 Co2 2.453830 1_556
Co11 Co7 2.454952 1_455
Co11 Co8 2.454963 1_565
Co11 V0 2.461289 1_566
Co11 V5 2.463332 1_455
Co11 V5 2.463369 1_565
Co11 Co8 2.469253 1_555
Co11 Co7 2.469278 1_555
Co11 V3 2.504616 1_555
Co12 Co9 2.435809 1_655
Co12 Co5 2.453863 1_555
Co12 Co4 2.453864 1_555
Co12 Co16 2.454942 1_655
Co12 Co15 2.454946 1_545
Co12 V1 2.461501 1_655
Co12 V2 2.463356 1_655
Co12 V2 2.463364 1_545
Co12 Co15 2.469269 1_555
Co12 Co16 2.469287 1_555
Co12 V4 2.504447 1_555
Co13 Co8 2.435931 1_555
Co13 Co3 2.453955 1_555
Co13 Co5 2.453956 1_555
Co13 Co14 2.454946 1_445
Co13 Co17 2.454950 1_455
Co13 V1 2.461390 1_555
Co13 V3 2.463348 1_555
Co13 V3 2.463357 1_545
Co13 Co14 2.469279 1_555
Co13 Co17 2.469280 1_555
Co13 V5 2.504466 1_555
Co14 Co7 2.435924 1_555
Co14 Co4 2.453931 1_555
Co14 Co3 2.453940 1_555
Co14 Co17 2.454952 1_565
Co14 V1 2.461384 1_665
Co14 V3 2.463353 1_655
Co14 V3 2.463364 1_555
Co14 Co17 2.469264 1_555
Co14 V5 2.504454 1_555
Co15 Co6 2.435806 1_655
Co15 Co4 2.453861 1_555
Co15 Co3 2.453864 1_555
Co15 Co16 2.454938 1_665
Co15 V1 2.461507 1_665
Co15 V2 2.463359 1_655
Co15 V2 2.463365 1_555
Co15 Co16 2.469288 1_555
Co15 V4 2.504442 1_555
Co16 Co6 2.435802 1_545
Co16 Co9 2.435803 1_555
Co16 Co3 2.453884 1_555
Co16 Co5 2.453884 1_555
Co16 V1 2.461511 1_555
Co16 V2 2.463352 1_555
Co16 V2 2.463359 1_545
Co16 V4 2.504442 1_555
Co17 Co7 2.435925 1_545
Co17 Co8 2.435941 1_655
Co17 Co4 2.453934 1_555
Co17 Co5 2.453940 1_555
Co17 V1 2.461378 1_655
Co17 V3 2.463349 1_655
Co17 V3 2.463364 1_545
Co17 V5 2.504459 1_555
