# generated using pymatgen
data_CaSi2(NO)2
_symmetry_space_group_name_H-M   'P 1'
_cell_length_a   13.77231200
_cell_length_b   7.38548900
_cell_length_c   10.57546256
_cell_angle_alpha   78.10525239
_cell_angle_beta   90.00000000
_cell_angle_gamma   90.00000000
_symmetry_Int_Tables_number   1
_chemical_formula_structural   CaSi2(NO)2
_chemical_formula_sum   'Ca12 Si24 N24 O24'
_cell_volume   1052.58865824
_cell_formula_units_Z   12
loop_
 _symmetry_equiv_pos_site_id
 _symmetry_equiv_pos_as_xyz
  1  'x, y, z'
loop_
 _atom_site_type_symbol
 _atom_site_label
 _atom_site_symmetry_multiplicity
 _atom_site_fract_x
 _atom_site_fract_y
 _atom_site_fract_z
 _atom_site_occupancy
  Ca  Ca0  1  0.86996400  0.74522400  0.64272400  1
  Ca  Ca1  1  0.36996400  0.25477600  0.35727600  1
  Ca  Ca2  1  0.93648100  0.91812700  0.94836300  1
  Ca  Ca3  1  0.42485200  0.41167000  0.70152700  1
  Ca  Ca4  1  0.87868600  0.41155700  0.95103900  1
  Ca  Ca5  1  0.43648100  0.08187300  0.05163700  1
  Ca  Ca6  1  0.86707100  0.08090400  0.30461700  1
  Ca  Ca7  1  0.92485200  0.58833000  0.29847300  1
  Ca  Ca8  1  0.93305700  0.25672800  0.61541000  1
  Ca  Ca9  1  0.37868600  0.58844300  0.04896100  1
  Ca  Ca10  1  0.43305700  0.74327200  0.38459000  1
  Ca  Ca11  1  0.36707100  0.91909600  0.69538300  1
  Si  Si0  1  0.09704700  0.62351900  0.08011900  1
  Si  Si1  1  0.10004000  0.61810100  0.58302600  1
  Si  Si2  1  0.70609400  0.04845000  0.56055300  1
  Si  Si3  1  0.59489800  0.71090100  0.69948000  1
  Si  Si4  1  0.59769900  0.04768400  0.30796200  1
  Si  Si5  1  0.20403200  0.62020300  0.32969000  1
  Si  Si6  1  0.71069400  0.04656600  0.05558600  1
  Si  Si7  1  0.70403200  0.37979700  0.67031000  1
  Si  Si8  1  0.10393700  0.28754400  0.80306500  1
  Si  Si9  1  0.59287200  0.04736500  0.80826500  1
  Si  Si10  1  0.70457900  0.71251800  0.94438300  1
  Si  Si11  1  0.09769900  0.95231600  0.69203800  1
  Si  Si12  1  0.20609400  0.95155000  0.43944700  1
  Si  Si13  1  0.20457900  0.28748200  0.05561700  1
  Si  Si14  1  0.60393700  0.71245600  0.19693500  1
  Si  Si15  1  0.09287200  0.95263500  0.19173500  1
  Si  Si16  1  0.20805400  0.62198000  0.83341200  1
  Si  Si17  1  0.20457100  0.28859300  0.54805100  1
  Si  Si18  1  0.59704700  0.37648100  0.91988100  1
  Si  Si19  1  0.09489800  0.28909900  0.30052000  1
  Si  Si20  1  0.60004000  0.38189900  0.41697400  1
  Si  Si21  1  0.70457100  0.71140700  0.45194900  1
  Si  Si22  1  0.70805400  0.37802000  0.16658800  1
  Si  Si23  1  0.21069400  0.95343400  0.94441400  1
  N  N0  1  0.67673600  0.14559600  0.69017000  1
  N  N1  1  0.69273200  0.80794800  0.08313900  1
  N  N2  1  0.68236500  0.13977500  0.18994300  1
  N  N3  1  0.12664100  0.52102700  0.74489000  1
  N  N4  1  0.62664100  0.47897300  0.25511000  1
  N  N5  1  0.18236500  0.86022500  0.81005700  1
  N  N6  1  0.12201200  0.86088900  0.05740000  1
  N  N7  1  0.68345200  0.47754800  0.50763400  1
  N  N8  1  0.61661700  0.80744700  0.33750100  1
  N  N9  1  0.62201200  0.13911100  0.94260000  1
  N  N10  1  0.17673600  0.85440400  0.30983000  1
  N  N11  1  0.19273200  0.19205200  0.91686100  1
  N  N12  1  0.18701000  0.19221800  0.40986000  1
  N  N13  1  0.68701000  0.80778200  0.59014000  1
  N  N14  1  0.18345200  0.52245200  0.49236600  1
  N  N15  1  0.68468600  0.47489700  0.00331600  1
  N  N16  1  0.11661700  0.19255300  0.66249900  1
  N  N17  1  0.61109100  0.80821500  0.83608500  1
  N  N18  1  0.18468600  0.52510300  0.99668400  1
  N  N19  1  0.11521300  0.52606000  0.24384800  1
  N  N20  1  0.62654800  0.14626400  0.43740900  1
  N  N21  1  0.12654800  0.85373600  0.56259100  1
  N  N22  1  0.11109100  0.19178500  0.16391500  1
  N  N23  1  0.61521300  0.47394000  0.75615200  1
  O  O0  1  0.48793000  0.42661900  0.45020300  1
  O  O1  1  0.48336200  0.08054200  0.27008200  1
  O  O2  1  0.98811800  0.26541800  0.36829600  1
  O  O3  1  0.49287100  0.75678200  0.14789200  1
  O  O4  1  0.81231600  0.73684700  0.87880100  1
  O  O5  1  0.48811800  0.73458200  0.63170400  1
  O  O6  1  0.48442500  0.39776900  0.95822000  1
  O  O7  1  0.47985700  0.10210900  0.77424700  1
  O  O8  1  0.99287100  0.24321800  0.85210800  1
  O  O9  1  0.32221200  0.89607100  0.98195000  1
  O  O10  1  0.98442500  0.60223100  0.04178000  1
  O  O11  1  0.82221200  0.10392900  0.01805000  1
  O  O12  1  0.98793000  0.57338100  0.54979700  1
  O  O13  1  0.82241700  0.39752500  0.19825500  1
  O  O14  1  0.31231600  0.26315300  0.12119900  1
  O  O15  1  0.98336200  0.91945800  0.72991800  1
  O  O16  1  0.81486700  0.75869100  0.40152500  1
  O  O17  1  0.81450600  0.42458200  0.71064500  1
  O  O18  1  0.31486700  0.24130900  0.59847500  1
  O  O19  1  0.32241700  0.60247500  0.80174500  1
  O  O20  1  0.97985700  0.89789100  0.22575300  1
  O  O21  1  0.31450600  0.57541800  0.28935500  1
  O  O22  1  0.32158700  0.92126100  0.47377900  1
  O  O23  1  0.82158700  0.07873900  0.52622100  1
loop_
_geom_bond_atom_site_label_1
_geom_bond_atom_site_label_2
_geom_bond_distance
_geom_bond_site_symmetry_2
Ca0 O15 2.331175 1_555
Ca0 O12 2.393784 1_555
Ca0 O17 2.450715 1_555
Ca0 N13 2.601093 1_555
Ca0 O23 2.603476 1_565
Ca0 O4 2.608378 1_555
Ca0 O16 2.643415 1_555
Ca1 O1 2.331175 1_555
Ca1 O0 2.393784 1_555
Ca1 O21 2.450715 1_555
Ca1 N12 2.601093 1_555
Ca1 O22 2.603476 1_545
Ca1 O14 2.608378 1_555
Ca1 O18 2.643415 1_555
Ca2 O11 2.306456 1_566
Ca2 O4 2.379900 1_555
Ca2 O15 2.396755 1_555
Ca2 O10 2.430013 1_556
Ca2 O8 2.529117 1_565
Ca2 N6 2.799363 1_656
Ca2 O20 2.967164 1_556
Ca3 O18 2.372866 1_555
Ca3 O7 2.380650 1_555
Ca3 O19 2.390614 1_555
Ca3 O5 2.503214 1_555
Ca3 N23 2.743740 1_555
Ca3 O0 2.776720 1_555
Ca3 O6 2.817466 1_555
Ca4 O10 2.362577 1_556
Ca4 O11 2.367559 1_556
Ca4 O8 2.376885 1_555
Ca4 O4 2.536575 1_555
Ca4 O17 2.674492 1_555
Ca4 O13 2.708286 1_556
Ca4 N15 2.787429 1_556
Ca5 O9 2.306456 1_544
Ca5 O14 2.379900 1_555
Ca5 O1 2.396755 1_555
Ca5 O6 2.430013 1_554
Ca5 O3 2.529117 1_545
Ca5 N9 2.799363 1_554
Ca5 O7 2.967164 1_554
Ca6 O20 2.323800 1_545
Ca6 O2 2.338387 1_555
Ca6 O23 2.422706 1_555
Ca6 O13 2.455052 1_555
Ca6 O16 2.494964 1_545
Ca6 N2 2.813087 1_555
Ca6 O11 3.063098 1_555
Ca7 O16 2.372866 1_555
Ca7 O20 2.380650 1_555
Ca7 O13 2.390614 1_555
Ca7 O2 2.503214 1_555
Ca7 N19 2.743740 1_655
Ca7 O12 2.776720 1_555
Ca7 O10 2.817466 1_555
Ca8 O23 2.342139 1_555
Ca8 O17 2.394085 1_555
Ca8 O12 2.419273 1_555
Ca8 N16 2.601221 1_655
Ca8 O8 2.617550 1_555
Ca8 O15 2.628231 1_545
Ca8 O2 2.709169 1_555
Ca9 O6 2.362577 1_554
Ca9 O9 2.367559 1_554
Ca9 O3 2.376885 1_555
Ca9 O14 2.536575 1_555
Ca9 O21 2.674492 1_555
Ca9 O19 2.708286 1_554
Ca9 N18 2.787429 1_554
Ca10 O22 2.342139 1_555
Ca10 O21 2.394085 1_555
Ca10 O0 2.419273 1_555
Ca10 N8 2.601221 1_555
Ca10 O3 2.617550 1_555
Ca10 O1 2.628231 1_565
Ca10 O5 2.709169 1_555
Ca11 O7 2.323800 1_565
Ca11 O5 2.338387 1_555
Ca11 O22 2.422706 1_555
Ca11 O19 2.455052 1_555
Ca11 O18 2.494964 1_565
Ca11 N5 2.813087 1_555
Ca11 O9 3.063098 1_555
N0 Si2 1.721234 1_555
N0 Si7 1.739972 1_555
N0 Si9 1.745458 1_555
N1 Si6 1.743604 1_565
N1 Si14 1.758211 1_555
N1 Si10 1.761530 1_554
N2 Si4 1.740714 1_555
N2 Si6 1.745922 1_555
N2 Si22 1.761551 1_555
N3 Si16 1.725462 1_555
N3 Si8 1.735643 1_555
N3 Si1 1.752862 1_555
N4 Si22 1.725462 1_555
N4 Si14 1.735643 1_555
N4 Si20 1.752862 1_555
N5 Si11 1.740714 1_555
N5 Si23 1.745922 1_555
N5 Si16 1.761551 1_555
N6 Si15 1.742202 1_555
N6 Si23 1.746409 1_554
N6 Si0 1.753752 1_555
N7 Si21 1.730665 1_555
N7 Si20 1.736994 1_555
N7 Si7 1.746204 1_555
N8 Si21 1.755408 1_555
N8 Si4 1.756421 1_565
N8 Si14 1.778320 1_555
N9 Si9 1.742202 1_555
N9 Si6 1.746409 1_556
N9 Si18 1.753752 1_555
N10 Si12 1.721234 1_555
N10 Si5 1.739972 1_555
N10 Si15 1.745458 1_555
N11 Si23 1.743604 1_545
N11 Si8 1.758211 1_555
N11 Si13 1.761530 1_556
N12 Si12 1.759844 1_545
N12 Si19 1.765590 1_555
N12 Si17 1.769100 1_555
N13 Si2 1.759844 1_565
N13 Si3 1.765590 1_555
N13 Si21 1.769100 1_555
N14 Si17 1.730665 1_555
N14 Si1 1.736994 1_555
N14 Si5 1.746204 1_555
N15 Si18 1.740140 1_554
N15 Si22 1.757167 1_555
N15 Si10 1.758538 1_554
N16 Si17 1.755408 1_555
N16 Si11 1.756421 1_545
N16 Si8 1.778320 1_555
N17 Si9 1.747830 1_565
N17 Si3 1.755375 1_555
N17 Si10 1.770686 1_555
N18 Si0 1.740140 1_556
N18 Si16 1.757167 1_555
N18 Si13 1.758538 1_556
N19 Si5 1.750454 1_555
N19 Si0 1.750726 1_555
N19 Si19 1.751530 1_555
N20 Si4 1.724197 1_555
N20 Si2 1.740757 1_555
N20 Si20 1.747433 1_555
N21 Si11 1.724197 1_555
N21 Si12 1.740757 1_555
N21 Si1 1.747433 1_555
N22 Si15 1.747830 1_545
N22 Si19 1.755375 1_555
N22 Si13 1.770686 1_555
N23 Si7 1.750454 1_555
N23 Si18 1.750726 1_555
N23 Si3 1.751530 1_555
O0 Si20 1.632299 1_555
O1 Si4 1.630622 1_555
O2 Si19 1.629524 1_655
O3 Si14 1.626642 1_555
O4 Si10 1.632043 1_555
O5 Si3 1.629524 1_555
O6 Si18 1.619010 1_555
O7 Si9 1.629587 1_555
O8 Si8 1.626642 1_655
O9 Si23 1.620680 1_555
O10 Si0 1.619010 1_655
O11 Si6 1.620680 1_555
O12 Si1 1.632299 1_655
O13 Si22 1.622822 1_555
O14 Si13 1.632043 1_555
O15 Si11 1.630622 1_655
O16 Si21 1.623885 1_555
O17 Si7 1.632307 1_555
O18 Si17 1.623885 1_555
O19 Si16 1.622822 1_555
O20 Si15 1.629587 1_655
O21 Si5 1.632307 1_555
O22 Si12 1.636585 1_555
O23 Si2 1.636585 1_555
