# generated using pymatgen
data_Te7(OF5)6
_symmetry_space_group_name_H-M   'P 1'
_cell_length_a   10.77061415
_cell_length_b   10.77061415
_cell_length_c   10.77061467
_cell_angle_alpha   50.12094264
_cell_angle_beta   50.12094264
_cell_angle_gamma   50.12094025
_symmetry_Int_Tables_number   1
_chemical_formula_structural   Te7(OF5)6
_chemical_formula_sum   'Te7 O6 F30'
_cell_volume   677.33133935
_cell_formula_units_Z   1
loop_
 _symmetry_equiv_pos_site_id
 _symmetry_equiv_pos_as_xyz
  1  'x, y, z'
loop_
 _atom_site_type_symbol
 _atom_site_label
 _atom_site_symmetry_multiplicity
 _atom_site_fract_x
 _atom_site_fract_y
 _atom_site_fract_z
 _atom_site_occupancy
  Te  Te0  1  0.76789400  0.39170000  0.08095400  1
  Te  Te1  1  0.60830000  0.91904600  0.23210600  1
  Te  Te2  1  0.39170000  0.08095400  0.76789400  1
  Te  Te3  1  0.91904600  0.23210600  0.60830000  1
  Te  Te4  1  0.00000000  0.00000000  0.00000000  1
  Te  Te5  1  0.23210600  0.60830000  0.91904600  1
  Te  Te6  1  0.08095400  0.76789400  0.39170000  1
  O  O0  1  0.07637100  0.75658300  0.05005000  1
  O  O1  1  0.24341700  0.94995000  0.92362900  1
  O  O2  1  0.05005000  0.07637100  0.75658300  1
  O  O3  1  0.94995000  0.92362900  0.24341700  1
  O  O4  1  0.75658300  0.05005000  0.07637100  1
  O  O5  1  0.92362900  0.24341700  0.94995000  1
  F  F0  1  0.05289100  0.36672700  0.45882300  1
  F  F1  1  0.90928400  0.52093900  0.91077500  1
  F  F2  1  0.45882300  0.05289100  0.36672700  1
  F  F3  1  0.80179100  0.37905400  0.45858400  1
  F  F4  1  0.94710900  0.63327300  0.54117700  1
  F  F5  1  0.91077500  0.90928400  0.52093900  1
  F  F6  1  0.63327300  0.54117700  0.94710900  1
  F  F7  1  0.37905400  0.45858400  0.80179100  1
  F  F8  1  0.26682200  0.25254900  0.62175900  1
  F  F9  1  0.52093900  0.91077500  0.90928400  1
  F  F10  1  0.09071600  0.47906100  0.08922500  1
  F  F11  1  0.54117700  0.94710900  0.63327300  1
  F  F12  1  0.19820900  0.62094600  0.54141600  1
  F  F13  1  0.62094600  0.54141600  0.19820900  1
  F  F14  1  0.54141600  0.19820900  0.62094600  1
  F  F15  1  0.25254900  0.62175900  0.26682200  1
  F  F16  1  0.73317800  0.74745100  0.37824100  1
  F  F17  1  0.37824100  0.73317800  0.74745100  1
  F  F18  1  0.21503700  0.90106500  0.24973500  1
  F  F19  1  0.90106500  0.24973500  0.21503700  1
  F  F20  1  0.75026500  0.78496300  0.09893500  1
  F  F21  1  0.47906100  0.08922500  0.09071600  1
  F  F22  1  0.09893500  0.75026500  0.78496300  1
  F  F23  1  0.45858400  0.80179100  0.37905400  1
  F  F24  1  0.78496300  0.09893500  0.75026500  1
  F  F25  1  0.08922500  0.09071600  0.47906100  1
  F  F26  1  0.36672700  0.45882300  0.05289100  1
  F  F27  1  0.74745100  0.37824100  0.73317800  1
  F  F28  1  0.24973500  0.21503700  0.90106500  1
  F  F29  1  0.62175900  0.26682200  0.25254900  1
loop_
_geom_bond_atom_site_label_1
_geom_bond_atom_site_label_2
_geom_bond_distance
_geom_bond_site_symmetry_2
O0 Te5 1.942852 1_554
O0 Te4 1.957454 1_565
O1 Te2 1.942852 1_565
O1 Te4 1.957454 1_566
O2 Te3 1.942852 1_455
O2 Te4 1.957454 1_556
O3 Te6 1.942852 1_655
O3 Te4 1.957454 1_665
O4 Te1 1.942852 1_545
O4 Te4 1.957454 1_655
O5 Te0 1.942852 1_556
O5 Te4 1.957454 1_656
F0 Te3 1.866355 1_455
F1 Te0 1.866410 1_556
F2 Te1 1.866355 1_545
F3 Te3 1.864327 1_555
F4 Te6 1.866355 1_655
F5 Te6 1.866410 1_655
F6 Te0 1.866355 1_556
F7 Te5 1.864327 1_555
F8 Te2 1.870548 1_555
F9 Te2 1.866410 1_565
F10 Te5 1.866410 1_554
F11 Te2 1.866355 1_565
F12 Te6 1.864327 1_555
F13 Te0 1.864327 1_555
F14 Te2 1.864327 1_555
F15 Te6 1.870548 1_555
F16 Te1 1.870548 1_555
F17 Te5 1.870548 1_555
F18 Te6 1.868985 1_555
F19 Te0 1.868985 1_555
F20 Te1 1.868985 1_555
F21 Te1 1.866410 1_545
F22 Te5 1.868985 1_555
F23 Te1 1.864327 1_555
F24 Te3 1.868985 1_555
F25 Te3 1.866410 1_455
F26 Te5 1.866355 1_554
F27 Te3 1.870548 1_555
F28 Te2 1.868985 1_555
F29 Te0 1.870548 1_555
