# generated using pymatgen
data_Zr5Sb4
_symmetry_space_group_name_H-M   'P 1'
_cell_length_a   8.81457275
_cell_length_b   8.81457166
_cell_length_c   5.95508814
_cell_angle_alpha   90.00000000
_cell_angle_beta   90.00000000
_cell_angle_gamma   120.00000017
_symmetry_Int_Tables_number   1
_chemical_formula_structural   Zr5Sb4
_chemical_formula_sum   'Zr10 Sb8'
_cell_volume   400.70180972
_cell_formula_units_Z   2
loop_
 _symmetry_equiv_pos_site_id
 _symmetry_equiv_pos_as_xyz
  1  'x, y, z'
loop_
 _atom_site_type_symbol
 _atom_site_label
 _atom_site_symmetry_multiplicity
 _atom_site_fract_x
 _atom_site_fract_y
 _atom_site_fract_z
 _atom_site_occupancy
  Zr  Zr0  1  0.28043905  0.28043905  0.75000000  1
  Zr  Zr1  1  0.71956095  0.71956095  0.25000000  1
  Zr  Zr2  1  0.71956095  -0.00000000  0.75000000  1
  Zr  Zr3  1  -0.00000000  0.28043905  0.25000000  1
  Zr  Zr4  1  0.33333300  0.66666700  0.50000000  1
  Zr  Zr5  1  0.66666700  0.33333300  0.50000000  1
  Zr  Zr6  1  0.00000000  0.71956095  0.75000000  1
  Zr  Zr7  1  0.33333300  0.66666700  -0.00000000  1
  Zr  Zr8  1  0.28043905  0.00000000  0.25000000  1
  Zr  Zr9  1  0.66666700  0.33333300  -0.00000000  1
  Sb  Sb0  1  -0.00000000  -0.00000000  0.50000000  1
  Sb  Sb1  1  0.61000787  0.61000787  0.75000000  1
  Sb  Sb2  1  0.38999213  0.00000000  0.75000000  1
  Sb  Sb3  1  -0.00000000  -0.00000000  -0.00000000  1
  Sb  Sb4  1  0.61000787  -0.00000000  0.25000000  1
  Sb  Sb5  1  0.38999213  0.38999213  0.25000000  1
  Sb  Sb6  1  -0.00000000  0.38999213  0.75000000  1
  Sb  Sb7  1  0.00000000  0.61000787  0.25000000  1
loop_
_geom_bond_atom_site_label_1
_geom_bond_atom_site_label_2
_geom_bond_distance
_geom_bond_site_symmetry_2
Sb0 Zr6 2.885651 1_545
Sb0 Zr3 2.885651 1_555
Sb0 Zr1 2.885651 1_445
Sb0 Zr0 2.885651 1_555
Sb0 Zr2 2.885651 1_455
Sb0 Zr8 2.885651 1_555
Sb1 Zr0 2.905008 1_555
Sb1 Zr2 3.070849 1_565
Sb1 Zr6 3.070850 1_655
Sb1 Zr9 3.103459 1_556
Sb1 Zr5 3.103459 1_555
Sb1 Zr7 3.103459 1_556
Sb1 Zr4 3.103459 1_555
Sb1 Zr1 3.130220 1_555
Sb1 Zr1 3.130220 1_556
Sb2 Zr2 2.905008 1_555
Sb2 Zr0 3.070849 1_555
Sb2 Zr6 3.070850 1_545
Sb2 Zr7 3.103451 1_546
Sb2 Zr4 3.103451 1_545
Sb2 Zr5 3.103454 1_555
Sb2 Zr9 3.103454 1_556
Sb2 Zr8 3.130220 1_555
Sb2 Zr8 3.130220 1_556
Sb3 Zr3 2.885651 1_555
Sb3 Zr6 2.885651 1_544
Sb3 Zr1 2.885651 1_445
Sb3 Zr0 2.885651 1_554
Sb3 Zr2 2.885651 1_454
Sb3 Zr8 2.885651 1_555
Sb4 Zr8 2.905008 1_555
Sb4 Zr1 3.070849 1_545
Sb4 Zr3 3.070850 1_655
Sb4 Zr9 3.103451 1_555
Sb4 Zr5 3.103451 1_555
Sb4 Zr7 3.103454 1_545
Sb4 Zr4 3.103454 1_545
Sb4 Zr2 3.130220 1_555
Sb4 Zr2 3.130220 1_554
Sb5 Zr1 2.905008 1_555
Sb5 Zr8 3.070849 1_555
Sb5 Zr3 3.070850 1_555
Sb5 Zr7 3.103459 1_555
Sb5 Zr4 3.103459 1_555
Sb5 Zr5 3.103459 1_555
Sb5 Zr9 3.103459 1_555
Sb5 Zr0 3.130220 1_555
Sb5 Zr0 3.130220 1_554
Sb6 Zr6 2.905008 1_555
Sb6 Zr2 3.070849 1_455
Sb6 Zr0 3.070850 1_555
Sb6 Zr5 3.103451 1_455
Sb6 Zr9 3.103451 1_456
Sb6 Zr4 3.103454 1_555
Sb6 Zr7 3.103454 1_556
Sb6 Zr3 3.130220 1_555
Sb6 Zr3 3.130220 1_556
Sb7 Zr3 2.905008 1_555
Sb7 Zr8 3.070849 1_565
Sb7 Zr1 3.070850 1_455
Sb7 Zr7 3.103451 1_555
Sb7 Zr4 3.103451 1_555
Sb7 Zr5 3.103454 1_455
Sb7 Zr9 3.103454 1_455
Sb7 Zr6 3.130220 1_554
Sb7 Zr6 3.130220 1_555
