# generated using pymatgen
data_PrBi2ClO4
_symmetry_space_group_name_H-M   'P 1'
_cell_length_a   3.97284900
_cell_length_b   3.97284900
_cell_length_c   9.16192700
_cell_angle_alpha   90.00000000
_cell_angle_beta   90.00000000
_cell_angle_gamma   90.00000000
_symmetry_Int_Tables_number   1
_chemical_formula_structural   PrBi2ClO4
_chemical_formula_sum   'Pr1 Bi2 Cl1 O4'
_cell_volume   144.60754212
_cell_formula_units_Z   1
loop_
 _symmetry_equiv_pos_site_id
 _symmetry_equiv_pos_as_xyz
  1  'x, y, z'
loop_
 _atom_site_type_symbol
 _atom_site_label
 _atom_site_symmetry_multiplicity
 _atom_site_fract_x
 _atom_site_fract_y
 _atom_site_fract_z
 _atom_site_occupancy
  Pr  Pr0  1  0.00000000  0.00000000  0.00000000  1
  Bi  Bi0  1  0.50000000  0.50000000  0.71751600  1
  Bi  Bi1  1  0.50000000  0.50000000  0.28248400  1
  Cl  Cl0  1  0.00000000  0.00000000  0.50000000  1
  O  O0  1  0.50000000  0.00000000  0.16323700  1
  O  O1  1  0.00000000  0.50000000  0.16323700  1
  O  O2  1  0.00000000  0.50000000  0.83676300  1
  O  O3  1  0.50000000  0.00000000  0.83676300  1
loop_
_geom_bond_atom_site_label_1
_geom_bond_atom_site_label_2
_geom_bond_distance
_geom_bond_site_symmetry_2
Bi0 O3 2.267049 1_565
Bi0 O3 2.267049 1_555
Bi0 O2 2.267049 1_555
Bi0 O2 2.267049 1_655
Bi1 O0 2.267049 1_565
Bi1 O1 2.267049 1_655
Bi1 O0 2.267049 1_555
Bi1 O1 2.267049 1_555
O0 Pr0 2.486483 1_555
O0 Pr0 2.486483 1_655
O1 Pr0 2.486483 1_565
O1 Pr0 2.486483 1_555
O2 Pr0 2.486483 1_556
O2 Pr0 2.486483 1_566
O3 Pr0 2.486483 1_556
O3 Pr0 2.486483 1_656
