# generated using pymatgen
data_Li4TbF8
_symmetry_space_group_name_H-M   'P 1'
_cell_length_a   5.83209600
_cell_length_b   9.91203300
_cell_length_c   10.07472200
_cell_angle_alpha   90.00000000
_cell_angle_beta   90.00000000
_cell_angle_gamma   90.00000000
_symmetry_Int_Tables_number   1
_chemical_formula_structural   Li4TbF8
_chemical_formula_sum   'Li16 Tb4 F32'
_cell_volume   582.39880411
_cell_formula_units_Z   4
loop_
 _symmetry_equiv_pos_site_id
 _symmetry_equiv_pos_as_xyz
  1  'x, y, z'
loop_
 _atom_site_type_symbol
 _atom_site_label
 _atom_site_symmetry_multiplicity
 _atom_site_fract_x
 _atom_site_fract_y
 _atom_site_fract_z
 _atom_site_occupancy
  Li  Li0  1  0.88332900  0.93905900  0.36844600  1
  Li  Li1  1  0.38332900  0.06094100  0.13155400  1
  Li  Li2  1  0.61667100  0.56094100  0.86844600  1
  Li  Li3  1  0.11667100  0.43905900  0.63155400  1
  Li  Li4  1  0.11667100  0.06094100  0.63155400  1
  Li  Li5  1  0.61667100  0.93905900  0.86844600  1
  Li  Li6  1  0.38332900  0.43905900  0.13155400  1
  Li  Li7  1  0.88332900  0.56094100  0.36844600  1
  Li  Li8  1  0.37177700  0.92144700  0.39805200  1
  Li  Li9  1  0.87177700  0.07855300  0.10194800  1
  Li  Li10  1  0.12822300  0.57855300  0.89805200  1
  Li  Li11  1  0.62822300  0.42144700  0.60194800  1
  Li  Li12  1  0.62822300  0.07855300  0.60194800  1
  Li  Li13  1  0.12822300  0.92144700  0.89805200  1
  Li  Li14  1  0.87177700  0.42144700  0.10194800  1
  Li  Li15  1  0.37177700  0.57855300  0.39805200  1
  Tb  Tb0  1  0.63418200  0.75000000  0.13529200  1
  Tb  Tb1  1  0.13418200  0.25000000  0.36470800  1
  Tb  Tb2  1  0.86581800  0.75000000  0.63529200  1
  Tb  Tb3  1  0.36581800  0.25000000  0.86470800  1
  F  F0  1  0.85954500  0.88919500  0.01252900  1
  F  F1  1  0.35954500  0.11080500  0.48747100  1
  F  F2  1  0.64045500  0.61080500  0.51252900  1
  F  F3  1  0.14045500  0.38919500  0.98747100  1
  F  F4  1  0.14045500  0.11080500  0.98747100  1
  F  F5  1  0.64045500  0.88919500  0.51252900  1
  F  F6  1  0.35954500  0.38919500  0.48747100  1
  F  F7  1  0.85954500  0.61080500  0.01252900  1
  F  F8  1  0.38821300  0.88471900  0.01854100  1
  F  F9  1  0.88821300  0.11528100  0.48145900  1
  F  F10  1  0.11178700  0.61528100  0.51854100  1
  F  F11  1  0.61178700  0.38471900  0.98145900  1
  F  F12  1  0.61178700  0.11528100  0.98145900  1
  F  F13  1  0.11178700  0.88471900  0.51854100  1
  F  F14  1  0.88821300  0.38471900  0.48145900  1
  F  F15  1  0.38821300  0.61528100  0.01854100  1
  F  F16  1  0.63368200  0.53141800  0.23338200  1
  F  F17  1  0.13368200  0.46858200  0.26661800  1
  F  F18  1  0.86631800  0.96858200  0.73338200  1
  F  F19  1  0.36631800  0.03141800  0.76661800  1
  F  F20  1  0.36631800  0.46858200  0.76661800  1
  F  F21  1  0.86631800  0.53141800  0.73338200  1
  F  F22  1  0.13368200  0.03141800  0.26661800  1
  F  F23  1  0.63368200  0.96858200  0.23338200  1
  F  F24  1  0.88953300  0.75000000  0.30134900  1
  F  F25  1  0.38953300  0.25000000  0.19865100  1
  F  F26  1  0.61046700  0.75000000  0.80134900  1
  F  F27  1  0.11046700  0.25000000  0.69865100  1
  F  F28  1  0.37567600  0.75000000  0.30127000  1
  F  F29  1  0.87567600  0.25000000  0.19873000  1
  F  F30  1  0.12432400  0.75000000  0.80127000  1
  F  F31  1  0.62432400  0.25000000  0.69873000  1
loop_
_geom_bond_atom_site_label_1
_geom_bond_atom_site_label_2
_geom_bond_distance
_geom_bond_site_symmetry_2
F0 Li13 1.971726 1_654
F0 Li9 2.083146 1_565
F0 Li5 2.087532 1_554
F0 Tb0 2.271730 1_555
F1 Li12 1.971726 1_555
F1 Li8 2.083146 1_545
F1 Li4 2.087532 1_555
F1 Tb1 2.271730 1_555
F2 Li15 1.971726 1_555
F2 Li11 2.083146 1_555
F2 Li7 2.087532 1_555
F2 Tb2 2.271730 1_555
F3 Li14 1.971726 1_456
F3 Li10 2.083146 1_555
F3 Li6 2.087532 1_556
F3 Tb3 2.271730 1_555
F4 Li9 1.971726 1_456
F4 Li13 2.083146 1_545
F4 Li1 2.087532 1_556
F4 Tb3 2.271730 1_555
F5 Li8 1.971726 1_555
F5 Li12 2.083146 1_565
F5 Li0 2.087532 1_555
F5 Tb2 2.271730 1_555
F6 Li11 1.971726 1_555
F6 Li15 2.083146 1_555
F6 Li3 2.087532 1_555
F6 Tb1 2.271730 1_555
F7 Li10 1.971726 1_654
F7 Li14 2.083146 1_555
F7 Li2 2.087532 1_554
F7 Tb0 2.271730 1_555
F8 Li13 1.976156 1_554
F8 Li1 2.085231 1_565
F8 Li5 2.086149 1_554
F8 Tb0 2.285714 1_555
F9 Li12 1.976156 1_555
F9 Li0 2.085231 1_545
F9 Li4 2.086149 1_655
F9 Tb1 2.285714 1_655
F10 Li15 1.976156 1_555
F10 Li3 2.085231 1_555
F10 Li7 2.086149 1_455
F10 Tb2 2.285714 1_455
F11 Li14 1.976156 1_556
F11 Li2 2.085231 1_555
F11 Li6 2.086149 1_556
F11 Tb3 2.285714 1_555
F12 Li9 1.976156 1_556
F12 Li5 2.085231 1_545
F12 Li1 2.086149 1_556
F12 Tb3 2.285714 1_555
F13 Li8 1.976156 1_555
F13 Li4 2.085231 1_565
F13 Li0 2.086149 1_455
F13 Tb2 2.285714 1_455
F14 Li11 1.976156 1_555
F14 Li7 2.085231 1_555
F14 Li3 2.086149 1_655
F14 Tb1 2.285714 1_655
F15 Li10 1.976156 1_554
F15 Li6 2.085231 1_555
F15 Li2 2.086149 1_554
F15 Tb0 2.285714 1_555
F16 Li6 2.005584 1_555
F16 Li7 2.014215 1_555
F16 Li14 2.206756 1_555
F16 Li15 2.302975 1_555
F16 Tb0 2.381329 1_555
F17 Li7 2.005584 1_455
F17 Li6 2.014215 1_555
F17 Li15 2.206756 1_555
F17 Li14 2.302975 1_455
F17 Tb1 2.381329 1_555
F18 Li4 2.005584 1_665
F18 Li5 2.014215 1_555
F18 Li12 2.206756 1_565
F18 Li13 2.302975 1_655
F18 Tb2 2.381329 1_555
F19 Li5 2.005584 1_545
F19 Li4 2.014215 1_555
F19 Li13 2.206756 1_545
F19 Li12 2.302975 1_555
F19 Tb3 2.381329 1_555
F20 Li2 2.005584 1_555
F20 Li3 2.014215 1_555
F20 Li10 2.206756 1_555
F20 Li11 2.302975 1_555
F20 Tb3 2.381329 1_555
F21 Li3 2.005584 1_655
F21 Li2 2.014215 1_555
F21 Li11 2.206756 1_555
F21 Li10 2.302975 1_655
F21 Tb2 2.381329 1_555
F22 Li0 2.005584 1_445
F22 Li1 2.014215 1_555
F22 Li8 2.206756 1_545
F22 Li9 2.302975 1_455
F22 Tb1 2.381329 1_555
F23 Li1 2.005584 1_565
F23 Li0 2.014215 1_555
F23 Li9 2.206756 1_565
F23 Li8 2.302975 1_555
F23 Tb0 2.381329 1_555
F24 Li7 1.992482 1_555
F24 Li0 1.992482 1_555
F24 Tb0 2.239792 1_555
F25 Li6 1.992482 1_555
F25 Li1 1.992482 1_555
F25 Tb1 2.239792 1_555
F26 Li5 1.992482 1_555
F26 Li2 1.992482 1_555
F26 Tb2 2.239792 1_555
F27 Li3 1.992482 1_555
F27 Li4 1.992482 1_555
F27 Tb3 2.239792 1_555
F28 Li8 1.959378 1_555
F28 Li15 1.959378 1_555
F28 Tb0 2.251477 1_555
F29 Li14 1.959378 1_555
F29 Li9 1.959378 1_555
F29 Tb1 2.251477 1_655
F30 Li13 1.959378 1_555
F30 Li10 1.959378 1_555
F30 Tb2 2.251477 1_455
F31 Li11 1.959378 1_555
F31 Li12 1.959378 1_555
F31 Tb3 2.251477 1_555
