# generated using pymatgen
data_Ca3Nb4(O6F)2
_symmetry_space_group_name_H-M   'P 1'
_cell_length_a   10.58895100
_cell_length_b   10.58895100
_cell_length_c   10.58895100
_cell_angle_alpha   90.00000000
_cell_angle_beta   90.00000000
_cell_angle_gamma   90.00000000
_symmetry_Int_Tables_number   1
_chemical_formula_structural   Ca3Nb4(O6F)2
_chemical_formula_sum   'Ca12 Nb16 O48 F8'
_cell_volume   1187.29548389
_cell_formula_units_Z   4
loop_
 _symmetry_equiv_pos_site_id
 _symmetry_equiv_pos_as_xyz
  1  'x, y, z'
loop_
 _atom_site_type_symbol
 _atom_site_label
 _atom_site_symmetry_multiplicity
 _atom_site_fract_x
 _atom_site_fract_y
 _atom_site_fract_z
 _atom_site_occupancy
  Ca  Ca0  1  0.87500000  0.86383500  0.61383500  1
  Ca  Ca1  1  0.88616500  0.12500000  0.36383500  1
  Ca  Ca2  1  0.63616500  0.38616500  0.37500000  1
  Ca  Ca3  1  0.86383500  0.61383500  0.87500000  1
  Ca  Ca4  1  0.37500000  0.63616500  0.38616500  1
  Ca  Ca5  1  0.12500000  0.36383500  0.88616500  1
  Ca  Ca6  1  0.36383500  0.88616500  0.12500000  1
  Ca  Ca7  1  0.62500000  0.13616500  0.11383500  1
  Ca  Ca8  1  0.11383500  0.62500000  0.13616500  1
  Ca  Ca9  1  0.61383500  0.87500000  0.86383500  1
  Ca  Ca10  1  0.13616500  0.11383500  0.62500000  1
  Ca  Ca11  1  0.38616500  0.37500000  0.63616500  1
  Nb  Nb0  1  0.87500000  0.12384900  0.87384900  1
  Nb  Nb1  1  0.87384900  0.87500000  0.12384900  1
  Nb  Nb2  1  0.37384900  0.62500000  0.87615100  1
  Nb  Nb3  1  0.87500000  0.62500000  0.37500000  1
  Nb  Nb4  1  0.62615100  0.12500000  0.62384900  1
  Nb  Nb5  1  0.37500000  0.37615100  0.12615100  1
  Nb  Nb6  1  0.37500000  0.87500000  0.62500000  1
  Nb  Nb7  1  0.12615100  0.37500000  0.37615100  1
  Nb  Nb8  1  0.12384900  0.87384900  0.87500000  1
  Nb  Nb9  1  0.12500000  0.62384900  0.62615100  1
  Nb  Nb10  1  0.62500000  0.37500000  0.87500000  1
  Nb  Nb11  1  0.62384900  0.62615100  0.12500000  1
  Nb  Nb12  1  0.37615100  0.12615100  0.37500000  1
  Nb  Nb13  1  0.87615100  0.37384900  0.62500000  1
  Nb  Nb14  1  0.62500000  0.87615100  0.37384900  1
  Nb  Nb15  1  0.12500000  0.12500000  0.12500000  1
  O  O0  1  0.00165300  0.49531300  0.69713600  1
  O  O1  1  0.31234000  0.01009000  0.50823600  1
  O  O2  1  0.49176400  0.81234000  0.48991000  1
  O  O3  1  0.25165300  0.44713600  0.25468700  1
  O  O4  1  0.06234000  0.24176400  0.26009000  1
  O  O5  1  0.98991000  0.00823600  0.18766000  1
  O  O6  1  0.05286400  0.74531300  0.75165300  1
  O  O7  1  0.73991000  0.56234000  0.25823600  1
  O  O8  1  0.99176400  0.68766000  0.51009000  1
  O  O9  1  0.74176400  0.23991000  0.93766000  1
  O  O10  1  0.49531300  0.69713600  0.00165300  1
  O  O11  1  0.00468700  0.30286400  0.50165300  1
  O  O12  1  0.50165300  0.00468700  0.30286400  1
  O  O13  1  0.68766000  0.51009000  0.99176400  1
  O  O14  1  0.99531300  0.80286400  0.99834700  1
  O  O15  1  0.49834700  0.50468700  0.19713600  1
  O  O16  1  0.80286400  0.99834700  0.99531300  1
  O  O17  1  0.24176400  0.26009000  0.06234000  1
  O  O18  1  0.75823600  0.76009000  0.43766000  1
  O  O19  1  0.30286400  0.50165300  0.00468700  1
  O  O20  1  0.25468700  0.25165300  0.44713600  1
  O  O21  1  0.93766000  0.74176400  0.23991000  1
  O  O22  1  0.24834700  0.55286400  0.75468700  1
  O  O23  1  0.50468700  0.19713600  0.49834700  1
  O  O24  1  0.43766000  0.75823600  0.76009000  1
  O  O25  1  0.69713600  0.00165300  0.49531300  1
  O  O26  1  0.99834700  0.99531300  0.80286400  1
  O  O27  1  0.23991000  0.93766000  0.74176400  1
  O  O28  1  0.24531300  0.74834700  0.94713600  1
  O  O29  1  0.74531300  0.75165300  0.05286400  1
  O  O30  1  0.19713600  0.49834700  0.50468700  1
  O  O31  1  0.18766000  0.98991000  0.00823600  1
  O  O32  1  0.56234000  0.25823600  0.73991000  1
  O  O33  1  0.25823600  0.73991000  0.56234000  1
  O  O34  1  0.48991000  0.49176400  0.81234000  1
  O  O35  1  0.75165300  0.05286400  0.74531300  1
  O  O36  1  0.44713600  0.25468700  0.25165300  1
  O  O37  1  0.76009000  0.43766000  0.75823600  1
  O  O38  1  0.75468700  0.24834700  0.55286400  1
  O  O39  1  0.01009000  0.50823600  0.31234000  1
  O  O40  1  0.55286400  0.75468700  0.24834700  1
  O  O41  1  0.94713600  0.24531300  0.74834700  1
  O  O42  1  0.26009000  0.06234000  0.24176400  1
  O  O43  1  0.74834700  0.94713600  0.24531300  1
  O  O44  1  0.51009000  0.99176400  0.68766000  1
  O  O45  1  0.50823600  0.31234000  0.01009000  1
  O  O46  1  0.81234000  0.48991000  0.49176400  1
  O  O47  1  0.00823600  0.18766000  0.98991000  1
  F  F0  1  0.51165800  0.98834200  0.01165800  1
  F  F1  1  0.01165800  0.51165800  0.98834200  1
  F  F2  1  0.48834200  0.48834200  0.48834200  1
  F  F3  1  0.26165800  0.73834200  0.23834200  1
  F  F4  1  0.73834200  0.23834200  0.26165800  1
  F  F5  1  0.98834200  0.01165800  0.51165800  1
  F  F6  1  0.23834200  0.26165800  0.73834200  1
  F  F7  1  0.76165800  0.76165800  0.76165800  1
loop_
_geom_bond_atom_site_label_1
_geom_bond_atom_site_label_2
_geom_bond_distance
_geom_bond_site_symmetry_2
Ca0 F7 2.249702 1_555
Ca0 F5 2.249702 1_565
Ca0 O8 2.493119 1_555
Ca0 O18 2.493119 1_555
Ca0 O6 2.692945 1_655
Ca0 O25 2.692945 1_565
Ca0 O26 2.765985 1_555
Ca0 O35 2.765985 1_565
Ca1 F4 2.249702 1_555
Ca1 F5 2.249702 1_555
Ca1 O4 2.493119 1_655
Ca1 O5 2.493119 1_555
Ca1 O11 2.692945 1_655
Ca1 O43 2.692945 1_545
Ca1 O38 2.765985 1_555
Ca1 O25 2.765985 1_555
Ca2 F4 2.249702 1_555
Ca2 F2 2.249702 1_555
Ca2 O46 2.493119 1_555
Ca2 O7 2.493119 1_555
Ca2 O38 2.692945 1_555
Ca2 O15 2.692945 1_555
Ca2 O36 2.765985 1_555
Ca2 O23 2.765985 1_555
Ca3 F7 2.249702 1_555
Ca3 F1 2.249702 1_655
Ca3 O13 2.493119 1_555
Ca3 O37 2.493119 1_555
Ca3 O29 2.692945 1_556
Ca3 O0 2.692945 1_655
Ca3 O14 2.765985 1_555
Ca3 O6 2.765985 1_655
Ca4 F3 2.249702 1_555
Ca4 F2 2.249702 1_555
Ca4 O2 2.493119 1_555
Ca4 O33 2.493119 1_555
Ca4 O40 2.692945 1_555
Ca4 O30 2.692945 1_555
Ca4 O3 2.765985 1_555
Ca4 O15 2.765985 1_555
Ca5 F1 2.249702 1_555
Ca5 F6 2.249702 1_555
Ca5 O17 2.493119 1_556
Ca5 O47 2.493119 1_555
Ca5 O19 2.692945 1_556
Ca5 O41 2.692945 1_455
Ca5 O22 2.765985 1_555
Ca5 O0 2.765985 1_555
Ca6 F0 2.249702 1_555
Ca6 F3 2.249702 1_555
Ca6 O42 2.493119 1_565
Ca6 O31 2.493119 1_555
Ca6 O12 2.692945 1_565
Ca6 O28 2.692945 1_554
Ca6 O40 2.765985 1_555
Ca6 O10 2.765985 1_555
Ca7 F0 2.249702 1_545
Ca7 F4 2.249702 1_555
Ca7 O9 2.493119 1_554
Ca7 O45 2.493119 1_555
Ca7 O16 2.692945 1_544
Ca7 O36 2.692945 1_555
Ca7 O43 2.765985 1_545
Ca7 O12 2.765985 1_555
Ca8 F1 2.249702 1_554
Ca8 F3 2.249702 1_555
Ca8 O21 2.493119 1_455
Ca8 O39 2.493119 1_555
Ca8 O14 2.692945 1_454
Ca8 O3 2.692945 1_555
Ca8 O28 2.765985 1_554
Ca8 O19 2.765985 1_555
Ca9 F7 2.249702 1_555
Ca9 F0 2.249702 1_556
Ca9 O44 2.493119 1_555
Ca9 O24 2.493119 1_555
Ca9 O35 2.692945 1_565
Ca9 O10 2.692945 1_556
Ca9 O16 2.765985 1_555
Ca9 O29 2.765985 1_556
Ca10 F5 2.249702 1_455
Ca10 F6 2.249702 1_555
Ca10 O27 2.493119 1_545
Ca10 O1 2.493119 1_555
Ca10 O26 2.692945 1_445
Ca10 O20 2.692945 1_555
Ca10 O41 2.765985 1_455
Ca10 O11 2.765985 1_555
Ca11 F6 2.249702 1_555
Ca11 F2 2.249702 1_555
Ca11 O34 2.493119 1_555
Ca11 O32 2.493119 1_555
Ca11 O22 2.692945 1_555
Ca11 O23 2.692945 1_555
Ca11 O20 2.765985 1_555
Ca11 O30 2.765985 1_555
Nb0 O47 1.989309 1_655
Nb0 O9 1.989309 1_555
Nb0 O41 2.000944 1_555
Nb0 O16 2.000944 1_545
Nb0 O26 2.030619 1_545
Nb0 O35 2.030619 1_555
Nb1 O5 1.989309 1_565
Nb1 O21 1.989309 1_555
Nb1 O43 2.000944 1_555
Nb1 O14 2.000944 1_554
Nb1 O16 2.030619 1_554
Nb1 O29 2.030619 1_555
Nb2 O24 1.989309 1_555
Nb2 O34 1.989309 1_555
Nb2 O10 2.000944 1_556
Nb2 O22 2.000944 1_555
Nb2 O19 2.030619 1_556
Nb2 O28 2.030619 1_555
Nb3 O46 2.003787 1_555
Nb3 O39 2.003787 1_655
Nb3 O8 2.003787 1_555
Nb3 O21 2.003787 1_555
Nb3 O18 2.003787 1_555
Nb3 O7 2.003787 1_555
Nb4 O32 1.989309 1_555
Nb4 O44 1.989309 1_545
Nb4 O23 2.000944 1_555
Nb4 O35 2.000944 1_555
Nb4 O38 2.030619 1_555
Nb4 O25 2.030619 1_555
Nb5 O45 1.989309 1_555
Nb5 O17 1.989309 1_555
Nb5 O36 2.000944 1_555
Nb5 O19 2.000944 1_555
Nb5 O15 2.030619 1_555
Nb5 O3 2.030619 1_555
Nb6 O1 2.003787 1_565
Nb6 O2 2.003787 1_555
Nb6 O27 2.003787 1_555
Nb6 O24 2.003787 1_555
Nb6 O44 2.003787 1_555
Nb6 O33 2.003787 1_555
Nb7 O39 1.989309 1_555
Nb7 O4 1.989309 1_555
Nb7 O3 2.000944 1_555
Nb7 O11 2.000944 1_555
Nb7 O30 2.030619 1_555
Nb7 O20 2.030619 1_555
Nb8 O31 1.989309 1_556
Nb8 O27 1.989309 1_555
Nb8 O28 2.000944 1_555
Nb8 O26 2.000944 1_455
Nb8 O14 2.030619 1_455
Nb8 O6 2.030619 1_555
Nb9 O33 1.989309 1_555
Nb9 O8 1.989309 1_455
Nb9 O30 2.000944 1_555
Nb9 O6 2.000944 1_555
Nb9 O22 2.030619 1_555
Nb9 O0 2.030619 1_555
Nb10 O45 2.003787 1_556
Nb10 O34 2.003787 1_555
Nb10 O37 2.003787 1_555
Nb10 O9 2.003787 1_555
Nb10 O13 2.003787 1_555
Nb10 O32 2.003787 1_555
Nb11 O7 1.989309 1_555
Nb11 O13 1.989309 1_554
Nb11 O15 2.000944 1_555
Nb11 O29 2.000944 1_555
Nb11 O40 2.030619 1_555
Nb11 O10 2.030619 1_555
Nb12 O1 1.989309 1_555
Nb12 O42 1.989309 1_555
Nb12 O20 2.000944 1_555
Nb12 O12 2.000944 1_555
Nb12 O23 2.030619 1_555
Nb12 O36 2.030619 1_555
Nb13 O37 1.989309 1_555
Nb13 O46 1.989309 1_555
Nb13 O0 2.000944 1_655
Nb13 O38 2.000944 1_555
Nb13 O11 2.030619 1_655
Nb13 O41 2.030619 1_555
Nb14 O18 1.989309 1_555
Nb14 O2 1.989309 1_555
Nb14 O25 2.000944 1_565
Nb14 O40 2.000944 1_555
Nb14 O12 2.030619 1_565
Nb14 O43 2.030619 1_555
Nb15 O42 2.003787 1_555
Nb15 O17 2.003787 1_555
Nb15 O4 2.003787 1_555
Nb15 O47 2.003787 1_554
Nb15 O31 2.003787 1_545
Nb15 O5 2.003787 1_455
