# generated using pymatgen
data_Bi2MoO6
_symmetry_space_group_name_H-M   'P 1'
_cell_length_a   5.40286300
_cell_length_b   5.42431700
_cell_length_c   16.94906500
_cell_angle_alpha   90.00000000
_cell_angle_beta   90.00000000
_cell_angle_gamma   90.00000000
_symmetry_Int_Tables_number   1
_chemical_formula_structural   Bi2MoO6
_chemical_formula_sum   'Bi8 Mo4 O24'
_cell_volume   496.72356355
_cell_formula_units_Z   4
loop_
 _symmetry_equiv_pos_site_id
 _symmetry_equiv_pos_as_xyz
  1  'x, y, z'
loop_
 _atom_site_type_symbol
 _atom_site_label
 _atom_site_symmetry_multiplicity
 _atom_site_fract_x
 _atom_site_fract_y
 _atom_site_fract_z
 _atom_site_occupancy
  Bi  Bi0  1  0.99412100  0.97763400  0.67304200  1
  Bi  Bi1  1  0.99412100  0.47763400  0.82695800  1
  Bi  Bi2  1  0.00587900  0.02236600  0.32695800  1
  Bi  Bi3  1  0.00587900  0.52236600  0.17304200  1
  Bi  Bi4  1  0.50587900  0.97763400  0.17304200  1
  Bi  Bi5  1  0.49412100  0.02236600  0.82695800  1
  Bi  Bi6  1  0.49412100  0.52236600  0.67304200  1
  Bi  Bi7  1  0.50587900  0.47763400  0.32695800  1
  Mo  Mo0  1  0.00000000  0.50000000  0.50000000  1
  Mo  Mo1  1  0.00000000  0.00000000  0.00000000  1
  Mo  Mo2  1  0.50000000  0.50000000  0.00000000  1
  Mo  Mo3  1  0.50000000  0.00000000  0.50000000  1
  O  O0  1  0.01326400  0.07436200  0.89021100  1
  O  O1  1  0.98673600  0.42563800  0.39021100  1
  O  O2  1  0.75233300  0.24812200  0.24892500  1
  O  O3  1  0.01326400  0.57436200  0.60978900  1
  O  O4  1  0.70860800  0.29316100  0.51831300  1
  O  O5  1  0.79139200  0.79316100  0.48168700  1
  O  O6  1  0.48673600  0.07436200  0.39021100  1
  O  O7  1  0.48673600  0.57436200  0.10978900  1
  O  O8  1  0.98673600  0.92563800  0.10978900  1
  O  O9  1  0.25233300  0.25187800  0.24892500  1
  O  O10  1  0.75233300  0.74812200  0.25107500  1
  O  O11  1  0.24766700  0.75187800  0.75107500  1
  O  O12  1  0.29139200  0.70683900  0.48168700  1
  O  O13  1  0.20860800  0.70683900  0.98168700  1
  O  O14  1  0.25233300  0.75187800  0.25107500  1
  O  O15  1  0.51326400  0.92563800  0.60978900  1
  O  O16  1  0.20860800  0.20683900  0.51831300  1
  O  O17  1  0.24766700  0.25187800  0.74892500  1
  O  O18  1  0.74766700  0.24812200  0.74892500  1
  O  O19  1  0.70860800  0.79316100  0.98168700  1
  O  O20  1  0.29139200  0.20683900  0.01831300  1
  O  O21  1  0.51326400  0.42563800  0.89021100  1
  O  O22  1  0.74766700  0.74812200  0.75107500  1
  O  O23  1  0.79139200  0.29316100  0.01831300  1
loop_
_geom_bond_atom_site_label_1
_geom_bond_atom_site_label_2
_geom_bond_distance
_geom_bond_site_symmetry_2
Bi0 O22 2.252148 1_555
Bi0 O11 2.263927 1_655
Bi0 O18 2.362187 1_565
Bi0 O17 2.396589 1_665
Bi0 O3 2.438257 1_655
Bi1 O18 2.252148 1_555
Bi1 O17 2.263927 1_655
Bi1 O22 2.362187 1_555
Bi1 O11 2.396589 1_655
Bi1 O0 2.438257 1_655
Bi2 O9 2.252148 1_555
Bi2 O2 2.263927 1_455
Bi2 O14 2.362187 1_545
Bi2 O10 2.396589 1_445
Bi2 O1 2.438257 1_455
Bi3 O14 2.252148 1_555
Bi3 O10 2.263927 1_455
Bi3 O9 2.362187 1_555
Bi3 O2 2.396589 1_455
Bi3 O8 2.438257 1_455
Bi4 O10 2.252148 1_555
Bi4 O14 2.263927 1_555
Bi4 O2 2.362187 1_565
Bi4 O9 2.396589 1_565
Bi4 O7 2.438257 1_555
Bi5 O17 2.252148 1_555
Bi5 O18 2.263927 1_555
Bi5 O11 2.362187 1_545
Bi5 O22 2.396589 1_545
Bi5 O21 2.438257 1_555
Bi6 O11 2.252148 1_555
Bi6 O22 2.263927 1_555
Bi6 O17 2.362187 1_555
Bi6 O18 2.396589 1_555
Bi6 O15 2.438257 1_555
Bi7 O2 2.252148 1_555
Bi7 O9 2.263927 1_555
Bi7 O10 2.362187 1_555
Bi7 O14 2.396589 1_555
Bi7 O6 2.438257 1_555
Mo0 O1 1.905385 1_455
Mo0 O3 1.905385 1_555
Mo0 O4 1.957988 1_455
Mo0 O12 1.957988 1_555
Mo0 O5 1.973672 1_455
Mo0 O16 1.973672 1_555
Mo1 O8 1.905385 1_445
Mo1 O0 1.905385 1_554
Mo1 O20 1.957988 1_555
Mo1 O19 1.957988 1_444
Mo1 O23 1.973672 1_455
Mo1 O13 1.973672 1_544
Mo2 O7 1.905385 1_555
Mo2 O21 1.905385 1_554
Mo2 O23 1.957988 1_555
Mo2 O13 1.957988 1_554
Mo2 O19 1.973672 1_554
Mo2 O20 1.973672 1_555
Mo3 O15 1.905385 1_545
Mo3 O6 1.905385 1_555
Mo3 O5 1.957988 1_545
Mo3 O16 1.957988 1_555
Mo3 O4 1.973672 1_555
Mo3 O12 1.973672 1_545
