# generated using pymatgen
data_Rb3P(W3O10)4
_symmetry_space_group_name_H-M   'P 1'
_cell_length_a   12.10129500
_cell_length_b   12.10129500
_cell_length_c   12.10129500
_cell_angle_alpha   90.00000000
_cell_angle_beta   90.00000000
_cell_angle_gamma   90.00000000
_symmetry_Int_Tables_number   1
_chemical_formula_structural   Rb3P(W3O10)4
_chemical_formula_sum   'Rb6 P2 W24 O80'
_cell_volume   1772.12986373
_cell_formula_units_Z   2
loop_
 _symmetry_equiv_pos_site_id
 _symmetry_equiv_pos_as_xyz
  1  'x, y, z'
loop_
 _atom_site_type_symbol
 _atom_site_label
 _atom_site_symmetry_multiplicity
 _atom_site_fract_x
 _atom_site_fract_y
 _atom_site_fract_z
 _atom_site_occupancy
  Rb  Rb0  1  0.50000000  0.50000000  0.00000000  1
  Rb  Rb1  1  0.50000000  0.00000000  0.00000000  1
  Rb  Rb2  1  0.50000000  0.00000000  0.50000000  1
  Rb  Rb3  1  0.00000000  0.50000000  0.50000000  1
  Rb  Rb4  1  0.00000000  0.50000000  0.00000000  1
  Rb  Rb5  1  0.00000000  0.00000000  0.50000000  1
  P  P0  1  0.50000000  0.50000000  0.50000000  1
  P  P1  1  0.00000000  0.00000000  0.00000000  1
  W  W0  1  0.99232100  0.21221500  0.78778500  1
  W  W1  1  0.28778500  0.49232100  0.28778500  1
  W  W2  1  0.50767900  0.28778500  0.71221500  1
  W  W3  1  0.21221500  0.78778500  0.99232100  1
  W  W4  1  0.78778500  0.78778500  0.00767900  1
  W  W5  1  0.28778500  0.71221500  0.50767900  1
  W  W6  1  0.49232100  0.28778500  0.28778500  1
  W  W7  1  0.21221500  0.00767900  0.21221500  1
  W  W8  1  0.21221500  0.99232100  0.78778500  1
  W  W9  1  0.00767900  0.21221500  0.21221500  1
  W  W10  1  0.28778500  0.50767900  0.71221500  1
  W  W11  1  0.21221500  0.21221500  0.00767900  1
  W  W12  1  0.78778500  0.00767900  0.78778500  1
  W  W13  1  0.28778500  0.28778500  0.49232100  1
  W  W14  1  0.49232100  0.71221500  0.71221500  1
  W  W15  1  0.71221500  0.50767900  0.28778500  1
  W  W16  1  0.99232100  0.78778500  0.21221500  1
  W  W17  1  0.71221500  0.28778500  0.50767900  1
  W  W18  1  0.78778500  0.99232100  0.21221500  1
  W  W19  1  0.00767900  0.78778500  0.78778500  1
  W  W20  1  0.50767900  0.71221500  0.28778500  1
  W  W21  1  0.78778500  0.21221500  0.99232100  1
  W  W22  1  0.71221500  0.71221500  0.49232100  1
  W  W23  1  0.71221500  0.49232100  0.71221500  1
  O  O0  1  0.71883100  0.12276600  0.87723400  1
  O  O1  1  0.12276600  0.12276600  0.28116900  1
  O  O2  1  0.78116900  0.37723400  0.62276600  1
  O  O3  1  0.59704100  0.24786700  0.40295900  1
  O  O4  1  0.42616900  0.42616900  0.42616900  1
  O  O5  1  0.18751700  0.18751700  0.51553900  1
  O  O6  1  0.31248300  0.98446100  0.31248300  1
  O  O7  1  0.59704100  0.59704100  0.75213300  1
  O  O8  1  0.62276600  0.78116900  0.37723400  1
  O  O9  1  0.09704100  0.25213300  0.90295900  1
  O  O10  1  0.18751700  0.48446100  0.81248300  1
  O  O11  1  0.37723400  0.21883100  0.37723400  1
  O  O12  1  0.31248300  0.01553900  0.68751700  1
  O  O13  1  0.62276600  0.62276600  0.21883100  1
  O  O14  1  0.07383100  0.92616900  0.92616900  1
  O  O15  1  0.74786700  0.90295900  0.90295900  1
  O  O16  1  0.68751700  0.31248300  0.01553900  1
  O  O17  1  0.12276600  0.87723400  0.71883100  1
  O  O18  1  0.74786700  0.09704100  0.09704100  1
  O  O19  1  0.40295900  0.59704100  0.24786700  1
  O  O20  1  0.01553900  0.68751700  0.31248300  1
  O  O21  1  0.87723400  0.12276600  0.71883100  1
  O  O22  1  0.25213300  0.90295900  0.09704100  1
  O  O23  1  0.90295900  0.09704100  0.25213300  1
  O  O24  1  0.09704100  0.90295900  0.25213300  1
  O  O25  1  0.37723400  0.37723400  0.21883100  1
  O  O26  1  0.21883100  0.37723400  0.37723400  1
  O  O27  1  0.25213300  0.09704100  0.90295900  1
  O  O28  1  0.24786700  0.40295900  0.59704100  1
  O  O29  1  0.68751700  0.68751700  0.98446100  1
  O  O30  1  0.24786700  0.59704100  0.40295900  1
  O  O31  1  0.37723400  0.62276600  0.78116900  1
  O  O32  1  0.31248300  0.31248300  0.98446100  1
  O  O33  1  0.51553900  0.81248300  0.81248300  1
  O  O34  1  0.68751700  0.01553900  0.31248300  1
  O  O35  1  0.59704100  0.75213300  0.59704100  1
  O  O36  1  0.09704100  0.09704100  0.74786700  1
  O  O37  1  0.75213300  0.40295900  0.40295900  1
  O  O38  1  0.48446100  0.18751700  0.81248300  1
  O  O39  1  0.81248300  0.18751700  0.48446100  1
  O  O40  1  0.87723400  0.87723400  0.28116900  1
  O  O41  1  0.71883100  0.87723400  0.12276600  1
  O  O42  1  0.09704100  0.74786700  0.09704100  1
  O  O43  1  0.81248300  0.81248300  0.51553900  1
  O  O44  1  0.42616900  0.57383100  0.57383100  1
  O  O45  1  0.81248300  0.48446100  0.18751700  1
  O  O46  1  0.48446100  0.81248300  0.18751700  1
  O  O47  1  0.92616900  0.07383100  0.92616900  1
  O  O48  1  0.98446100  0.68751700  0.68751700  1
  O  O49  1  0.18751700  0.81248300  0.48446100  1
  O  O50  1  0.62276600  0.21883100  0.62276600  1
  O  O51  1  0.87723400  0.28116900  0.87723400  1
  O  O52  1  0.40295900  0.40295900  0.75213300  1
  O  O53  1  0.12276600  0.71883100  0.87723400  1
  O  O54  1  0.40295900  0.24786700  0.59704100  1
  O  O55  1  0.98446100  0.31248300  0.31248300  1
  O  O56  1  0.90295900  0.74786700  0.90295900  1
  O  O57  1  0.62276600  0.37723400  0.78116900  1
  O  O58  1  0.90295900  0.25213300  0.09704100  1
  O  O59  1  0.01553900  0.31248300  0.68751700  1
  O  O60  1  0.87723400  0.71883100  0.12276600  1
  O  O61  1  0.12276600  0.28116900  0.12276600  1
  O  O62  1  0.51553900  0.18751700  0.18751700  1
  O  O63  1  0.59704100  0.40295900  0.24786700  1
  O  O64  1  0.68751700  0.98446100  0.68751700  1
  O  O65  1  0.28116900  0.12276600  0.12276600  1
  O  O66  1  0.31248300  0.68751700  0.01553900  1
  O  O67  1  0.18751700  0.51553900  0.18751700  1
  O  O68  1  0.92616900  0.92616900  0.07383100  1
  O  O69  1  0.81248300  0.51553900  0.81248300  1
  O  O70  1  0.37723400  0.78116900  0.62276600  1
  O  O71  1  0.07383100  0.07383100  0.07383100  1
  O  O72  1  0.40295900  0.75213300  0.40295900  1
  O  O73  1  0.75213300  0.59704100  0.59704100  1
  O  O74  1  0.57383100  0.42616900  0.57383100  1
  O  O75  1  0.21883100  0.62276600  0.62276600  1
  O  O76  1  0.28116900  0.87723400  0.87723400  1
  O  O77  1  0.57383100  0.57383100  0.42616900  1
  O  O78  1  0.90295900  0.90295900  0.74786700  1
  O  O79  1  0.78116900  0.62276600  0.37723400  1
loop_
_geom_bond_atom_site_label_1
_geom_bond_atom_site_label_2
_geom_bond_distance
_geom_bond_site_symmetry_2
O0 W12 1.951305 1_555
O0 W21 1.951305 1_555
O0 Rb1 3.380357 1_556
O1 W7 1.951305 1_555
O1 W9 1.951305 1_555
O1 Rb5 3.380357 1_555
O2 W23 1.951305 1_555
O2 W17 1.951305 1_555
O2 Rb3 3.380357 1_655
O3 W17 1.944689 1_555
O3 W6 1.944689 1_555
O3 Rb2 3.428576 1_555
O4 P0 1.547502 1_555
O5 W13 1.738818 1_555
O5 Rb5 3.214636 1_555
O6 W7 1.738818 1_565
O6 Rb2 3.214636 1_565
O7 W23 1.944689 1_555
O7 W14 1.944689 1_555
O7 Rb0 3.428576 1_556
O8 W22 1.951305 1_555
O8 W20 1.951305 1_555
O8 Rb2 3.380357 1_565
O9 W0 1.944689 1_455
O9 W11 1.944689 1_556
O9 Rb4 3.428576 1_556
O10 W10 1.738818 1_555
O10 Rb4 3.214636 1_556
O11 W6 1.951305 1_555
O11 W13 1.951305 1_555
O11 Rb2 3.380357 1_555
O12 W8 1.738818 1_545
O12 Rb2 3.214636 1_555
O13 W20 1.951305 1_555
O13 W15 1.951305 1_555
O13 Rb0 3.380357 1_555
O14 P1 1.547502 1_566
O15 W12 1.944689 1_565
O15 W4 1.944689 1_556
O15 Rb1 3.428576 1_566
O16 W21 1.738818 1_554
O16 Rb0 3.214636 1_555
O17 W19 1.951305 1_555
O17 W8 1.951305 1_555
O17 Rb5 3.380357 1_565
O18 W18 1.944689 1_545
O18 W21 1.944689 1_554
O18 Rb1 3.428576 1_555
O19 W20 1.944689 1_555
O19 W1 1.944689 1_555
O19 Rb0 3.428576 1_555
O20 W16 1.738818 1_455
O20 Rb3 3.214636 1_555
O21 W12 1.951305 1_555
O21 W0 1.951305 1_555
O21 Rb5 3.380357 1_655
O22 W3 1.944689 1_554
O22 W7 1.944689 1_565
O22 Rb1 3.428576 1_565
O23 W18 1.944689 1_545
O23 W9 1.944689 1_655
O23 Rb5 3.428576 1_655
O24 W16 1.944689 1_455
O24 W7 1.944689 1_565
O24 Rb5 3.428576 1_565
O25 W6 1.951305 1_555
O25 W1 1.951305 1_555
O25 Rb0 3.380357 1_555
O26 W1 1.951305 1_555
O26 W13 1.951305 1_555
O26 Rb3 3.380357 1_555
O27 W8 1.944689 1_545
O27 W11 1.944689 1_556
O27 Rb1 3.428576 1_556
O28 W10 1.944689 1_555
O28 W13 1.944689 1_555
O28 Rb3 3.428576 1_555
O29 W4 1.738818 1_556
O29 Rb0 3.214636 1_556
O30 W5 1.944689 1_555
O30 W1 1.944689 1_555
O30 Rb3 3.428576 1_555
O31 W14 1.951305 1_555
O31 W10 1.951305 1_555
O31 Rb0 3.380357 1_556
O32 W11 1.738818 1_556
O32 Rb0 3.214636 1_556
O33 W14 1.738818 1_555
O33 Rb1 3.214636 1_566
O34 W18 1.738818 1_545
O34 Rb2 3.214636 1_555
O35 W14 1.944689 1_555
O35 W22 1.944689 1_555
O35 Rb2 3.428576 1_565
O36 W8 1.944689 1_545
O36 W0 1.944689 1_455
O36 Rb5 3.428576 1_555
O37 W17 1.944689 1_555
O37 W15 1.944689 1_555
O37 Rb3 3.428576 1_655
O38 W2 1.738818 1_555
O38 Rb1 3.214636 1_556
O39 W17 1.738818 1_555
O39 Rb5 3.214636 1_655
O40 W16 1.951305 1_555
O40 W18 1.951305 1_555
O40 Rb5 3.380357 1_665
O41 W4 1.951305 1_555
O41 W18 1.951305 1_555
O41 Rb1 3.380357 1_565
O42 W16 1.944689 1_455
O42 W3 1.944689 1_554
O42 Rb4 3.428576 1_555
O43 W22 1.738818 1_555
O43 Rb5 3.214636 1_665
O44 P0 1.547502 1_555
O45 W15 1.738818 1_555
O45 Rb4 3.214636 1_655
O46 W20 1.738818 1_555
O46 Rb1 3.214636 1_565
O47 P1 1.547502 1_656
O48 W19 1.738818 1_655
O48 Rb3 3.214636 1_655
O49 W5 1.738818 1_555
O49 Rb5 3.214636 1_565
O50 W2 1.951305 1_555
O50 W17 1.951305 1_555
O50 Rb2 3.380357 1_555
O51 W21 1.951305 1_555
O51 W0 1.951305 1_555
O51 Rb4 3.380357 1_656
O52 W10 1.944689 1_555
O52 W2 1.944689 1_555
O52 Rb0 3.428576 1_556
O53 W19 1.951305 1_555
O53 W3 1.951305 1_555
O53 Rb4 3.380357 1_556
O54 W2 1.944689 1_555
O54 W13 1.944689 1_555
O54 Rb2 3.428576 1_555
O55 W9 1.738818 1_655
O55 Rb3 3.214636 1_655
O56 W19 1.944689 1_655
O56 W4 1.944689 1_556
O56 Rb4 3.428576 1_656
O57 W23 1.951305 1_555
O57 W2 1.951305 1_555
O57 Rb0 3.380357 1_556
O58 W21 1.944689 1_554
O58 W9 1.944689 1_655
O58 Rb4 3.428576 1_655
O59 W0 1.738818 1_455
O59 Rb3 3.214636 1_555
O60 W4 1.951305 1_555
O60 W16 1.951305 1_555
O60 Rb4 3.380357 1_655
O61 W11 1.951305 1_555
O61 W9 1.951305 1_555
O61 Rb4 3.380357 1_555
O62 W6 1.738818 1_555
O62 Rb1 3.214636 1_555
O63 W15 1.944689 1_555
O63 W6 1.944689 1_555
O63 Rb0 3.428576 1_555
O64 W12 1.738818 1_565
O64 Rb2 3.214636 1_565
O65 W7 1.951305 1_555
O65 W11 1.951305 1_555
O65 Rb1 3.380357 1_555
O66 W3 1.738818 1_554
O66 Rb0 3.214636 1_555
O67 W1 1.738818 1_555
O67 Rb4 3.214636 1_555
O68 P1 1.547502 1_665
O69 W23 1.738818 1_555
O69 Rb4 3.214636 1_656
O70 W14 1.951305 1_555
O70 W5 1.951305 1_555
O70 Rb2 3.380357 1_565
O71 P1 1.547502 1_555
O72 W5 1.944689 1_555
O72 W20 1.944689 1_555
O72 Rb2 3.428576 1_565
O73 W23 1.944689 1_555
O73 W22 1.944689 1_555
O73 Rb3 3.428576 1_655
O74 P0 1.547502 1_555
O75 W5 1.951305 1_555
O75 W10 1.951305 1_555
O75 Rb3 3.380357 1_555
O76 W8 1.951305 1_555
O76 W3 1.951305 1_555
O76 Rb1 3.380357 1_566
O77 P0 1.547502 1_555
O78 W19 1.944689 1_655
O78 W12 1.944689 1_565
O78 Rb5 3.428576 1_665
O79 W22 1.951305 1_555
O79 W15 1.951305 1_555
O79 Rb3 3.380357 1_655
