# generated using pymatgen
data_KSO3
_symmetry_space_group_name_H-M   'P 1'
_cell_length_a   9.87228113
_cell_length_b   9.87248201
_cell_length_c   6.29887238
_cell_angle_alpha   90.00021631
_cell_angle_beta   90.00008617
_cell_angle_gamma   120.00109804
_symmetry_Int_Tables_number   1
_chemical_formula_structural   KSO3
_chemical_formula_sum   'K6 S6 O18'
_cell_volume   531.65818069
_cell_formula_units_Z   6
loop_
 _symmetry_equiv_pos_site_id
 _symmetry_equiv_pos_as_xyz
  1  'x, y, z'
loop_
 _atom_site_type_symbol
 _atom_site_label
 _atom_site_symmetry_multiplicity
 _atom_site_fract_x
 _atom_site_fract_y
 _atom_site_fract_z
 _atom_site_occupancy
  K  K0  1  0.72190027  0.72190360  0.49988985  1
  K  K1  1  0.37862427  0.37857767  0.00002412  1
  K  K2  1  0.62145158  0.00005592  0.00003048  1
  K  K3  1  0.27809812  -0.00001554  0.49988920  1
  K  K4  1  -0.00006165  0.62138014  0.00001256  1
  K  K5  1  0.00001043  0.27810513  0.49986844  1
  S  S0  1  0.33333702  0.66666679  0.68777690  1
  S  S1  1  -0.00000219  -0.00000593  0.82600561  1
  S  S2  1  0.33332530  0.66667455  0.34305707  1
  S  S3  1  0.66667638  0.33334019  0.31229330  1
  S  S4  1  0.00000042  -0.00001314  0.17375770  1
  S  S5  1  0.66665868  0.33334039  0.65702093  1
  O  O0  1  0.36062817  0.82099454  0.74704894  1
  O  O1  1  0.63949851  0.46045364  0.25305829  1
  O  O2  1  0.24597220  0.74391773  0.28531316  1
  O  O3  1  0.98716254  0.85178289  0.23450789  1
  O  O4  1  0.14821722  0.13536276  0.23450359  1
  O  O5  1  0.50207191  0.25583853  0.71486372  1
  O  O6  1  0.82097885  0.36051569  0.25308727  1
  O  O7  1  0.01274867  0.86456421  0.76530902  1
  O  O8  1  0.74415702  0.24625433  0.71488579  1
  O  O9  1  0.85180297  0.98723211  0.76532734  1
  O  O10  1  0.46037466  0.63937287  0.74703896  1
  O  O11  1  0.13542323  0.14818131  0.76531594  1
  O  O12  1  0.86463424  0.01283889  0.23452235  1
  O  O13  1  0.49792284  0.75402719  0.28529756  1
  O  O14  1  0.53956281  0.17903707  0.25306982  1
  O  O15  1  0.25608036  0.50207449  0.28530409  1
  O  O16  1  0.17901175  0.53962132  0.74705023  1
  O  O17  1  0.75373344  0.49792166  0.71486888  1
loop_
_geom_bond_atom_site_label_1
_geom_bond_atom_site_label_2
_geom_bond_distance
_geom_bond_site_symmetry_2
K0 O17 2.741723 1_555
K0 O13 2.741929 1_555
K0 O1 2.764340 1_555
K0 O10 2.765800 1_555
K0 O3 2.817497 1_555
K0 O9 2.818187 1_555
K0 O7 2.996508 1_655
K0 O12 2.996996 1_565
K1 O15 2.766608 1_555
K1 O5 2.767067 1_554
K1 O4 2.767486 1_555
K1 O11 2.768134 1_554
K1 O10 2.782399 1_554
K1 O1 2.782917 1_555
K2 O13 2.766477 1_545
K2 O8 2.767078 1_554
K2 O12 2.767353 1_555
K2 O9 2.767855 1_544
K2 O0 2.782522 1_544
K2 O14 2.782933 1_555
K3 O2 2.741606 1_545
K3 O5 2.741820 1_555
K3 O14 2.764356 1_555
K3 O0 2.765846 1_545
K3 O4 2.817535 1_555
K3 O7 2.818238 1_545
K3 O11 2.996760 1_555
K3 O3 2.996991 1_445
K4 O2 2.766602 1_555
K4 O17 2.767070 1_454
K4 O3 2.767399 1_455
K4 O7 2.768021 1_554
K4 O16 2.782571 1_554
K4 O6 2.782969 1_455
K5 O15 2.741636 1_555
K5 O8 2.742057 1_455
K5 O6 2.764083 1_455
K5 O16 2.765879 1_555
K5 O12 2.817413 1_455
K5 O11 2.818297 1_555
K5 O9 2.996877 1_445
K5 O4 2.997088 1_555
O0 S0 1.456988 1_555
O1 S3 1.456970 1_555
O2 S2 1.454362 1_555
O3 S4 1.455277 1_665
O4 S4 1.455339 1_555
O5 S5 1.454318 1_555
O6 S3 1.457001 1_555
O7 S1 1.455324 1_565
O8 S5 1.454370 1_555
O9 S1 1.455351 1_665
O10 S0 1.456982 1_555
O11 S1 1.455298 1_555
O12 S4 1.455354 1_655
O13 S2 1.454362 1_555
O14 S3 1.456989 1_555
O15 S2 1.454399 1_555
O16 S0 1.456970 1_555
O17 S5 1.454301 1_555
