# generated using pymatgen
data_Lu(FeSi)2
_symmetry_space_group_name_H-M   'P 1'
_cell_length_a   3.84102595
_cell_length_b   3.84102531
_cell_length_c   5.57070843
_cell_angle_alpha   110.16667445
_cell_angle_beta   110.16667322
_cell_angle_gamma   89.99999963
_symmetry_Int_Tables_number   1
_chemical_formula_structural   Lu(FeSi)2
_chemical_formula_sum   'Lu1 Fe2 Si2'
_cell_volume   71.75719406
_cell_formula_units_Z   1
loop_
 _symmetry_equiv_pos_site_id
 _symmetry_equiv_pos_as_xyz
  1  'x, y, z'
loop_
 _atom_site_type_symbol
 _atom_site_label
 _atom_site_symmetry_multiplicity
 _atom_site_fract_x
 _atom_site_fract_y
 _atom_site_fract_z
 _atom_site_occupancy
  Lu  Lu0  1  -0.00000000  -0.00000000  0.00000000  1
  Fe  Fe0  1  0.25000000  0.75000000  0.50000000  1
  Fe  Fe1  1  0.75000000  0.25000000  0.50000000  1
  Si  Si0  1  0.37384146  0.37384146  0.74768193  1
  Si  Si1  1  0.62615854  0.62615854  0.25231807  1
loop_
_geom_bond_atom_site_label_1
_geom_bond_atom_site_label_2
_geom_bond_distance
_geom_bond_site_symmetry_2
Lu0 Si1 2.980398 1_555
Lu0 Si0 2.980398 1_444
Lu0 Si1 2.980400 1_455
Lu0 Si0 2.980400 1_544
Lu0 Si0 2.980401 1_454
Lu0 Si1 2.980401 1_545
Lu0 Si0 2.980403 1_554
Lu0 Si1 2.980403 1_445
Fe0 Si0 2.267063 1_555
Fe0 Si1 2.267063 1_555
Fe0 Si0 2.267066 1_565
Fe0 Si1 2.267066 1_455
Fe0 Lu0 3.098770 1_555
Fe0 Lu0 3.098770 1_666
Fe0 Lu0 3.098771 1_565
Fe0 Lu0 3.098771 1_566
Fe1 Si1 2.267063 1_555
Fe1 Si0 2.267063 1_555
Fe1 Si1 2.267066 1_545
Fe1 Si0 2.267066 1_655
Fe1 Lu0 3.098770 1_666
Fe1 Lu0 3.098770 1_555
Fe1 Lu0 3.098771 1_656
Fe1 Lu0 3.098771 1_655
Si0 Si1 2.454423 1_556
