# generated using pymatgen
data_CuGeO3
_symmetry_space_group_name_H-M   'P 1'
_cell_length_a   8.74592100
_cell_length_b   9.88444500
_cell_length_c   11.92396900
_cell_angle_alpha   90.00000000
_cell_angle_beta   90.00000000
_cell_angle_gamma   90.00000000
_symmetry_Int_Tables_number   1
_chemical_formula_structural   CuGeO3
_chemical_formula_sum   'Cu16 Ge16 O48'
_cell_volume   1030.81012957
_cell_formula_units_Z   16
loop_
 _symmetry_equiv_pos_site_id
 _symmetry_equiv_pos_as_xyz
  1  'x, y, z'
loop_
 _atom_site_type_symbol
 _atom_site_label
 _atom_site_symmetry_multiplicity
 _atom_site_fract_x
 _atom_site_fract_y
 _atom_site_fract_z
 _atom_site_occupancy
  Cu  Cu0  1  0.50000000  0.50000000  0.75090500  1
  Cu  Cu1  1  0.00000000  0.50000000  0.49828200  1
  Cu  Cu2  1  0.00000000  0.50000000  0.24987900  1
  Cu  Cu3  1  0.00000000  0.00000000  0.24909500  1
  Cu  Cu4  1  0.00000000  0.00000000  0.00168200  1
  Cu  Cu5  1  0.50000000  0.50000000  0.99831800  1
  Cu  Cu6  1  0.50000000  0.00000000  0.50171800  1
  Cu  Cu7  1  0.50000000  0.50000000  0.50166800  1
  Cu  Cu8  1  0.50000000  0.50000000  0.24895100  1
  Cu  Cu9  1  0.00000000  0.00000000  0.75104900  1
  Cu  Cu10  1  0.50000000  0.00000000  0.75012100  1
  Cu  Cu11  1  0.00000000  0.00000000  0.49833200  1
  Cu  Cu12  1  0.00000000  0.50000000  0.75017900  1
  Cu  Cu13  1  0.00000000  0.50000000  0.00183100  1
  Cu  Cu14  1  0.50000000  0.00000000  0.99816900  1
  Cu  Cu15  1  0.50000000  0.00000000  0.24982100  1
  Ge  Ge0  1  0.25432400  0.29614400  0.62509900  1
  Ge  Ge1  1  0.24828100  0.79513400  0.12511900  1
  Ge  Ge2  1  0.24567600  0.79614400  0.37490100  1
  Ge  Ge3  1  0.25146400  0.29583500  0.37520600  1
  Ge  Ge4  1  0.25171900  0.29513400  0.87488100  1
  Ge  Ge5  1  0.25176300  0.79572000  0.87499500  1
  Ge  Ge6  1  0.75146400  0.20416500  0.62479400  1
  Ge  Ge7  1  0.24823700  0.29572000  0.12500500  1
  Ge  Ge8  1  0.74567600  0.70385600  0.62509900  1
  Ge  Ge9  1  0.75432400  0.20385600  0.37490100  1
  Ge  Ge10  1  0.74828100  0.70486600  0.87488100  1
  Ge  Ge11  1  0.75171900  0.20486600  0.12511900  1
  Ge  Ge12  1  0.74853600  0.70416500  0.37520600  1
  Ge  Ge13  1  0.74823700  0.20428000  0.87499500  1
  Ge  Ge14  1  0.75176300  0.70428000  0.12500500  1
  Ge  Ge15  1  0.24853600  0.79583500  0.62479400  1
  O  O0  1  0.57153500  0.61117300  0.62615500  1
  O  O1  1  0.91221400  0.10002500  0.87595400  1
  O  O2  1  0.42193900  0.89250400  0.87469500  1
  O  O3  1  0.92078200  0.10499200  0.62401100  1
  O  O4  1  0.74819200  0.30686700  0.25011900  1
  O  O5  1  0.91425500  0.60187300  0.37470100  1
  O  O6  1  0.41221400  0.39997500  0.12404600  1
  O  O7  1  0.42342000  0.39064700  0.87373200  1
  O  O8  1  0.08574500  0.39812700  0.37470100  1
  O  O9  1  0.74990400  0.80603400  0.50018100  1
  O  O10  1  0.57658000  0.60935300  0.87373200  1
  O  O11  1  0.42078200  0.39500800  0.37598900  1
  O  O12  1  0.08864400  0.40149200  0.87562000  1
  O  O13  1  0.42846500  0.38882700  0.62615500  1
  O  O14  1  0.08778600  0.89997500  0.87595400  1
  O  O15  1  0.92342000  0.10935300  0.12626800  1
  O  O16  1  0.75207400  0.30587000  0.75011100  1
  O  O17  1  0.07658000  0.89064700  0.12626800  1
  O  O18  1  0.75024100  0.80666800  0.00019800  1
  O  O19  1  0.59537200  0.09279600  0.37538200  1
  O  O20  1  0.57806100  0.10749600  0.87469500  1
  O  O21  1  0.91135600  0.59850800  0.87562000  1
  O  O22  1  0.41425500  0.89812700  0.62529900  1
  O  O23  1  0.07153500  0.88882700  0.37384500  1
  O  O24  1  0.24792600  0.69413000  0.75011100  1
  O  O25  1  0.74975900  0.30666800  0.99980200  1
  O  O26  1  0.75180800  0.80686700  0.74988100  1
  O  O27  1  0.92193900  0.60749600  0.12530500  1
  O  O28  1  0.75009600  0.30603400  0.49981900  1
  O  O29  1  0.58574500  0.10187300  0.62529900  1
  O  O30  1  0.40462800  0.90720400  0.37538200  1
  O  O31  1  0.25024100  0.69333200  0.99980200  1
  O  O32  1  0.24975900  0.19333200  0.00019800  1
  O  O33  1  0.25180800  0.69313300  0.25011900  1
  O  O34  1  0.57921800  0.60499200  0.37598900  1
  O  O35  1  0.25207400  0.19413000  0.24988900  1
  O  O36  1  0.09537200  0.40720400  0.62461800  1
  O  O37  1  0.24990400  0.69396600  0.49981900  1
  O  O38  1  0.58864400  0.09850800  0.12438000  1
  O  O39  1  0.58778600  0.60002500  0.12404600  1
  O  O40  1  0.24819200  0.19313300  0.74988100  1
  O  O41  1  0.92846500  0.11117300  0.37384500  1
  O  O42  1  0.41135600  0.90149200  0.12438000  1
  O  O43  1  0.07921800  0.89500800  0.62401100  1
  O  O44  1  0.90462800  0.59279600  0.62461800  1
  O  O45  1  0.07806100  0.39250400  0.12530500  1
  O  O46  1  0.74792600  0.80587000  0.24988900  1
  O  O47  1  0.25009600  0.19396600  0.50018100  1
loop_
_geom_bond_atom_site_label_1
_geom_bond_atom_site_label_2
_geom_bond_distance
_geom_bond_site_symmetry_2
Cu0 O7 1.939568 1_555
Cu0 O10 1.939568 1_555
Cu0 O0 1.952350 1_555
Cu0 O13 1.952350 1_555
Cu1 O5 1.935916 1_455
Cu1 O8 1.935916 1_555
Cu1 O36 1.950998 1_555
Cu1 O44 1.950998 1_455
Cu2 O5 1.947203 1_455
Cu2 O8 1.947203 1_555
Cu2 O45 1.949756 1_555
Cu2 O27 1.949756 1_455
Cu3 O15 1.939568 1_455
Cu3 O17 1.939568 1_545
Cu3 O23 1.952350 1_545
Cu3 O41 1.952350 1_455
Cu4 O14 1.953078 1_544
Cu4 O1 1.953078 1_454
Cu4 O15 1.955454 1_455
Cu4 O17 1.955454 1_545
Cu5 O6 1.953078 1_556
Cu5 O39 1.953078 1_556
Cu5 O7 1.955454 1_555
Cu5 O10 1.955454 1_555
Cu6 O22 1.935916 1_545
Cu6 O29 1.935916 1_555
Cu6 O19 1.950998 1_555
Cu6 O30 1.950998 1_545
Cu7 O0 1.949962 1_555
Cu7 O13 1.949962 1_555
Cu7 O34 1.950077 1_555
Cu7 O11 1.950077 1_555
Cu8 O6 1.945555 1_555
Cu8 O39 1.945555 1_555
Cu8 O34 1.962558 1_555
Cu8 O11 1.962558 1_555
Cu9 O1 1.945555 1_455
Cu9 O14 1.945555 1_545
Cu9 O43 1.962558 1_545
Cu9 O3 1.962558 1_455
Cu10 O29 1.947203 1_555
Cu10 O22 1.947203 1_545
Cu10 O20 1.949756 1_555
Cu10 O2 1.949756 1_545
Cu11 O23 1.949962 1_545
Cu11 O41 1.949962 1_455
Cu11 O3 1.950077 1_455
Cu11 O43 1.950077 1_545
Cu12 O36 1.943872 1_555
Cu12 O44 1.943872 1_455
Cu12 O21 1.945872 1_455
Cu12 O12 1.945872 1_555
Cu13 O45 1.939782 1_555
Cu13 O27 1.939782 1_455
Cu13 O21 1.952938 1_454
Cu13 O12 1.952938 1_554
Cu14 O2 1.939782 1_545
Cu14 O20 1.939782 1_555
Cu14 O38 1.952938 1_556
Cu14 O42 1.952938 1_546
Cu15 O19 1.943872 1_555
Cu15 O30 1.943872 1_545
Cu15 O38 1.945872 1_555
Cu15 O42 1.945872 1_545
Ge0 O36 1.771364 1_555
Ge0 O13 1.777367 1_555
Ge0 O47 1.800021 1_555
Ge0 O40 1.803734 1_555
Ge1 O42 1.771850 1_555
Ge1 O17 1.773852 1_555
Ge1 O33 1.799735 1_555
Ge1 O31 1.801584 1_554
Ge2 O30 1.771364 1_555
Ge2 O23 1.777367 1_555
Ge2 O37 1.800021 1_555
Ge2 O33 1.803734 1_555
Ge3 O8 1.767206 1_555
Ge3 O11 1.775925 1_555
Ge3 O47 1.798532 1_555
Ge3 O35 1.800975 1_555
Ge4 O12 1.771850 1_555
Ge4 O7 1.773852 1_555
Ge4 O40 1.799735 1_555
Ge4 O32 1.801584 1_556
Ge5 O14 1.766011 1_555
Ge5 O2 1.769287 1_555
Ge5 O24 1.796364 1_555
Ge5 O31 1.799762 1_555
Ge6 O29 1.767206 1_555
Ge6 O3 1.775925 1_555
Ge6 O28 1.798532 1_555
Ge6 O16 1.800975 1_555
Ge7 O6 1.766011 1_555
Ge7 O45 1.769287 1_555
Ge7 O35 1.796364 1_555
Ge7 O32 1.799762 1_555
Ge8 O44 1.771364 1_555
Ge8 O0 1.777367 1_555
Ge8 O9 1.800021 1_555
Ge8 O26 1.803734 1_555
Ge9 O19 1.771364 1_555
Ge9 O41 1.777367 1_555
Ge9 O28 1.800021 1_555
Ge9 O4 1.803734 1_555
Ge10 O21 1.771850 1_555
Ge10 O10 1.773852 1_555
Ge10 O26 1.799735 1_555
Ge10 O18 1.801584 1_556
Ge11 O38 1.771850 1_555
Ge11 O15 1.773852 1_555
Ge11 O4 1.799735 1_555
Ge11 O25 1.801584 1_554
Ge12 O5 1.767206 1_555
Ge12 O34 1.775925 1_555
Ge12 O9 1.798532 1_555
Ge12 O46 1.800975 1_555
Ge13 O1 1.766011 1_555
Ge13 O20 1.769287 1_555
Ge13 O16 1.796364 1_555
Ge13 O25 1.799762 1_555
Ge14 O39 1.766011 1_555
Ge14 O27 1.769287 1_555
Ge14 O46 1.796364 1_555
Ge14 O18 1.799762 1_555
Ge15 O22 1.767206 1_555
Ge15 O43 1.775925 1_555
Ge15 O37 1.798532 1_555
Ge15 O24 1.800975 1_555
