# generated using pymatgen
data_Na3Nb34Al2O64
_symmetry_space_group_name_H-M   'P 1'
_cell_length_a   24.38176566
_cell_length_b   24.38176583
_cell_length_c   24.38176614
_cell_angle_alpha   18.72083741
_cell_angle_beta   18.72083619
_cell_angle_gamma   18.72083653
_symmetry_Int_Tables_number   1
_chemical_formula_structural   Na3Nb34Al2O64
_chemical_formula_sum   'Na3 Nb34 Al2 O64'
_cell_volume   1304.56837132
_cell_formula_units_Z   1
loop_
 _symmetry_equiv_pos_site_id
 _symmetry_equiv_pos_as_xyz
  1  'x, y, z'
loop_
 _atom_site_type_symbol
 _atom_site_label
 _atom_site_symmetry_multiplicity
 _atom_site_fract_x
 _atom_site_fract_y
 _atom_site_fract_z
 _atom_site_occupancy
  Na  Na0  1  0.06279511  0.06279511  0.06279511  1
  Na  Na1  1  0.93720489  0.93720489  0.93720489  1
  Na  Na2  1  0.50000000  0.50000000  0.50000000  1
  Nb  Nb0  1  0.19637488  0.44125176  0.61805688  1
  Nb  Nb1  1  0.87105612  0.02027146  0.56209886  1
  Nb  Nb2  1  0.12894388  0.97972854  0.43790114  1
  Nb  Nb3  1  0.11706314  0.11706314  0.11706314  1
  Nb  Nb4  1  0.57426948  0.74089685  0.33209001  1
  Nb  Nb5  1  0.38194312  0.80362512  0.55874824  1
  Nb  Nb6  1  0.21038693  0.79779067  0.04075854  1
  Nb  Nb7  1  0.79779067  0.04075854  0.21038693  1
  Nb  Nb8  1  0.33209001  0.57426948  0.74089685  1
  Nb  Nb9  1  0.97733500  0.65447074  0.51741725  1
  Nb  Nb10  1  0.65447074  0.51741725  0.97733500  1
  Nb  Nb11  1  0.48258275  0.02266500  0.34552926  1
  Nb  Nb12  1  0.34757957  0.34757957  0.34757957  1
  Nb  Nb13  1  0.42573052  0.25910315  0.66790999  1
  Nb  Nb14  1  0.55874824  0.38194312  0.80362512  1
  Nb  Nb15  1  0.20220933  0.95924146  0.78961307  1
  Nb  Nb16  1  0.78961307  0.20220933  0.95924146  1
  Nb  Nb17  1  0.51741725  0.97733500  0.65447074  1
  Nb  Nb18  1  0.02027146  0.56209886  0.87105612  1
  Nb  Nb19  1  0.25910315  0.66790999  0.42573052  1
  Nb  Nb20  1  0.80362512  0.55874824  0.38194312  1
  Nb  Nb21  1  0.95924146  0.78961307  0.20220933  1
  Nb  Nb22  1  0.61805688  0.19637488  0.44125176  1
  Nb  Nb23  1  0.97972854  0.43790114  0.12894388  1
  Nb  Nb24  1  0.44125176  0.61805688  0.19637488  1
  Nb  Nb25  1  0.56209886  0.87105612  0.02027146  1
  Nb  Nb26  1  0.43790114  0.12894388  0.97972854  1
  Nb  Nb27  1  0.34552926  0.48258275  0.02266500  1
  Nb  Nb28  1  0.65242043  0.65242043  0.65242043  1
  Nb  Nb29  1  0.88293686  0.88293686  0.88293686  1
  Nb  Nb30  1  0.02266500  0.34552926  0.48258275  1
  Nb  Nb31  1  0.04075854  0.21038693  0.79779067  1
  Nb  Nb32  1  0.74089685  0.33209001  0.57426948  1
  Nb  Nb33  1  0.66790999  0.42573052  0.25910315  1
  Al  Al0  1  0.77515755  0.77515755  0.77515755  1
  Al  Al1  1  0.22484245  0.22484245  0.22484245  1
  O  O0  1  0.33460254  0.75708145  0.50304469  1
  O  O1  1  0.57276689  0.26304161  0.16397409  1
  O  O2  1  0.12516618  0.43502366  0.53504298  1
  O  O3  1  0.26168954  0.86511416  0.17541526  1
  O  O4  1  0.95940720  0.37422654  0.06468961  1
  O  O5  1  0.07262257  0.50931713  0.22614562  1
  O  O6  1  0.86511416  0.17541526  0.26168954  1
  O  O7  1  0.23006369  0.34836552  0.92346462  1
  O  O8  1  0.66539746  0.24291855  0.49695531  1
  O  O9  1  0.63339874  0.80154710  0.36258142  1
  O  O10  1  0.00233912  0.83602024  0.26399154  1
  O  O11  1  0.34836552  0.92346462  0.23006369  1
  O  O12  1  0.73695839  0.83602591  0.42723311  1
  O  O13  1  0.83602591  0.42723311  0.73695839  1
  O  O14  1  0.22614562  0.07262257  0.50931713  1
  O  O15  1  0.38835088  0.99102092  0.31645361  1
  O  O16  1  0.93531039  0.04059280  0.62577346  1
  O  O17  1  0.36258142  0.63339874  0.80154710  1
  O  O18  1  0.26399154  0.00233912  0.83602024  1
  O  O19  1  0.63741858  0.36660126  0.19845290  1
  O  O20  1  0.87483382  0.56497634  0.46495702  1
  O  O21  1  0.73600846  0.99766088  0.16397976  1
  O  O22  1  0.49068287  0.77385438  0.92737743  1
  O  O23  1  0.70306235  0.70306235  0.70306235  1
  O  O24  1  0.19845290  0.63741858  0.36660126  1
  O  O25  1  0.92737743  0.49068287  0.77385438  1
  O  O26  1  0.76993631  0.65163448  0.07653538  1
  O  O27  1  0.77385438  0.92737743  0.49068287  1
  O  O28  1  0.16397409  0.57276689  0.26304161  1
  O  O29  1  0.73831046  0.13488584  0.82458474  1
  O  O30  1  0.00897908  0.68354639  0.61164912  1
  O  O31  1  0.75708145  0.50304469  0.33460254  1
  O  O32  1  0.80034922  0.80034922  0.80034922  1
  O  O33  1  0.06468961  0.95940720  0.37422654  1
  O  O34  1  0.31645361  0.38835088  0.99102092  1
  O  O35  1  0.99102092  0.31645361  0.38835088  1
  O  O36  1  0.83602024  0.26399154  0.00233912  1
  O  O37  1  0.68354639  0.61164912  0.00897908  1
  O  O38  1  0.80154710  0.36258142  0.63339874  1
  O  O39  1  0.37422654  0.06468961  0.95940720  1
  O  O40  1  0.56497634  0.46495702  0.87483382  1
  O  O41  1  0.17541526  0.26168954  0.86511416  1
  O  O42  1  0.53504298  0.12516618  0.43502366  1
  O  O43  1  0.92346462  0.23006369  0.34836552  1
  O  O44  1  0.62577346  0.93531039  0.04059280  1
  O  O45  1  0.07653538  0.76993631  0.65163448  1
  O  O46  1  0.61164912  0.00897908  0.68354639  1
  O  O47  1  0.50304469  0.33460254  0.75708145  1
  O  O48  1  0.65163448  0.07653538  0.76993631  1
  O  O49  1  0.29693765  0.29693765  0.29693765  1
  O  O50  1  0.36660126  0.19845290  0.63741858  1
  O  O51  1  0.19965078  0.19965078  0.19965078  1
  O  O52  1  0.42723311  0.73695839  0.83602591  1
  O  O53  1  0.13488584  0.82458474  0.73831046  1
  O  O54  1  0.16397976  0.73600846  0.99766088  1
  O  O55  1  0.26304161  0.16397409  0.57276689  1
  O  O56  1  0.99766088  0.16397976  0.73600846  1
  O  O57  1  0.43502366  0.53504298  0.12516618  1
  O  O58  1  0.50931713  0.22614562  0.07262257  1
  O  O59  1  0.49695531  0.66539746  0.24291855  1
  O  O60  1  0.24291855  0.49695531  0.66539746  1
  O  O61  1  0.82458474  0.73831046  0.13488584  1
  O  O62  1  0.46495702  0.87483382  0.56497634  1
  O  O63  1  0.04059280  0.62577346  0.93531039  1
loop_
_geom_bond_atom_site_label_1
_geom_bond_atom_site_label_2
_geom_bond_distance
_geom_bond_site_symmetry_2
Na0 O10 2.678239 1_545
Na0 O36 2.678239 1_455
Na0 O18 2.678239 1_554
Na1 O56 2.678239 1_565
Na1 O54 2.678239 1_655
Na1 O21 2.678239 1_556
Na2 O31 2.826940 1_555
Na2 O60 2.826940 1_555
Na2 O0 2.826940 1_555
Na2 O8 2.826940 1_555
Na2 O47 2.826940 1_555
Na2 O59 2.826940 1_555
Na2 O43 2.942246 1_555
Na2 O45 2.942246 1_555
Na2 O7 2.942246 1_555
Na2 O26 2.942246 1_555
Na2 O48 2.942246 1_555
Na2 O11 2.942246 1_555
Nb0 O41 2.041282 1_555
Nb0 O30 2.067860 1_555
Nb0 O50 2.090783 1_555
Nb0 O24 2.189341 1_555
Nb0 O25 2.324987 1_455
Nb1 O48 2.023941 1_555
Nb1 O33 2.028638 1_645
Nb1 O43 2.056692 1_555
Nb1 O8 2.080482 1_555
Nb1 O45 2.162171 1_645
Nb1 O32 2.237933 1_545
Nb2 O11 2.023941 1_555
Nb2 O16 2.028638 1_465
Nb2 O45 2.056692 1_555
Nb2 O0 2.080482 1_555
Nb2 O43 2.162171 1_465
Nb2 O51 2.237933 1_565
Nb3 O6 2.027709 1_455
Nb3 O3 2.027709 1_545
Nb3 O41 2.027709 1_554
Nb3 O39 2.049092 1_554
Nb3 O4 2.049093 1_455
Nb3 O33 2.049093 1_545
Nb4 O0 2.070614 1_555
Nb4 O31 2.093819 1_555
Nb4 O15 2.095381 1_555
Nb4 O61 2.152033 1_555
Nb4 O44 2.261481 1_555
Nb5 O53 2.041282 1_555
Nb5 O15 2.067861 1_555
Nb5 O17 2.090783 1_555
Nb5 O9 2.189341 1_555
Nb5 O14 2.324987 1_565
Nb6 O52 2.061535 1_554
Nb6 O18 2.081114 1_564
Nb6 O28 2.138832 1_555
Nb6 O10 2.140323 1_555
Nb6 O57 2.277984 1_555
Nb7 O12 2.061535 1_545
Nb7 O10 2.081114 1_645
Nb7 O1 2.138832 1_555
Nb7 O36 2.140323 1_555
Nb7 O42 2.277984 1_555
Nb8 O47 2.070615 1_555
Nb8 O0 2.093819 1_555
Nb8 O34 2.095381 1_555
Nb8 O53 2.152033 1_555
Nb8 O63 2.261480 1_555
Nb9 O2 1.962874 1_655
Nb9 O24 1.964365 1_655
Nb9 O25 2.004147 1_555
Nb9 O10 2.076825 1_655
Nb9 O23 2.103946 1_555
Nb9 O27 2.166397 1_555
Nb10 O57 1.962874 1_556
Nb10 O19 1.964366 1_556
Nb10 O22 2.004147 1_555
Nb10 O36 2.076824 1_556
Nb10 O23 2.103946 1_555
Nb10 O25 2.166397 1_555
Nb11 O62 1.962874 1_545
Nb11 O9 1.964366 1_545
Nb11 O14 2.004147 1_555
Nb11 O21 2.076824 1_545
Nb11 O49 2.103946 1_555
Nb11 O58 2.166398 1_555
Nb12 O1 1.979595 1_555
Nb12 O55 1.979595 1_555
Nb12 O28 1.979595 1_555
Nb12 O57 2.110229 1_555
Nb12 O2 2.110229 1_555
Nb12 O42 2.110229 1_555
Nb13 O8 2.070614 1_555
Nb13 O60 2.093819 1_555
Nb13 O46 2.095381 1_555
Nb13 O41 2.152033 1_555
Nb13 O39 2.261481 1_555
Nb14 O29 2.041282 1_555
Nb14 O34 2.067860 1_555
Nb14 O38 2.090783 1_555
Nb14 O17 2.189341 1_555
Nb14 O58 2.324987 1_556
Nb15 O55 2.061535 1_565
Nb15 O56 2.081114 1_465
Nb15 O52 2.138832 1_555
Nb15 O54 2.140323 1_555
Nb15 O62 2.277984 1_555
Nb16 O1 2.061535 1_556
Nb16 O21 2.081114 1_546
Nb16 O13 2.138832 1_555
Nb16 O56 2.140323 1_555
Nb16 O40 2.277984 1_555
Nb17 O42 1.962874 1_565
Nb17 O50 1.964366 1_565
Nb17 O27 2.004147 1_555
Nb17 O18 2.076824 1_565
Nb17 O23 2.103946 1_555
Nb17 O22 2.166398 1_555
Nb18 O45 2.023941 1_555
Nb18 O4 2.028638 1_456
Nb18 O7 2.056692 1_555
Nb18 O60 2.080482 1_555
Nb18 O26 2.162171 1_456
Nb18 O32 2.237933 1_455
Nb19 O60 2.070615 1_555
Nb19 O59 2.093819 1_555
Nb19 O30 2.095380 1_555
Nb19 O3 2.152033 1_555
Nb19 O33 2.261481 1_555
Nb20 O61 2.041282 1_555
Nb20 O35 2.067860 1_555
Nb20 O9 2.090783 1_555
Nb20 O38 2.189341 1_555
Nb20 O5 2.324987 1_655
Nb21 O28 2.061535 1_655
Nb21 O54 2.081114 1_654
Nb21 O12 2.138832 1_555
Nb21 O21 2.140323 1_555
Nb21 O20 2.277984 1_555
Nb22 O6 2.041282 1_555
Nb22 O46 2.067861 1_555
Nb22 O19 2.090783 1_555
Nb22 O50 2.189341 1_555
Nb22 O27 2.324987 1_545
Nb23 O43 2.023941 1_555
Nb23 O63 2.028638 1_654
Nb23 O26 2.056692 1_555
Nb23 O31 2.080482 1_555
Nb23 O7 2.162171 1_654
Nb23 O51 2.237933 1_655
Nb24 O3 2.041282 1_555
Nb24 O37 2.067860 1_555
Nb24 O24 2.090783 1_555
Nb24 O19 2.189341 1_555
Nb24 O22 2.324987 1_554
Nb25 O26 2.023941 1_555
Nb25 O39 2.028638 1_564
Nb25 O11 2.056692 1_555
Nb25 O59 2.080482 1_555
Nb25 O48 2.162171 1_564
Nb25 O32 2.237933 1_554
Nb26 O7 2.023941 1_555
Nb26 O44 2.028638 1_546
Nb26 O48 2.056692 1_555
Nb26 O47 2.080482 1_555
Nb26 O11 2.162171 1_546
Nb26 O51 2.237933 1_556
Nb27 O40 1.962874 1_554
Nb27 O17 1.964366 1_554
Nb27 O58 2.004147 1_555
Nb27 O54 2.076824 1_554
Nb27 O49 2.103946 1_555
Nb27 O5 2.166397 1_555
Nb28 O52 1.979595 1_555
Nb28 O12 1.979595 1_555
Nb28 O13 1.979595 1_555
Nb28 O40 2.110229 1_555
Nb28 O20 2.110229 1_555
Nb28 O62 2.110229 1_555
Nb29 O53 2.027709 1_655
Nb29 O29 2.027709 1_565
Nb29 O61 2.027709 1_556
Nb29 O44 2.049092 1_556
Nb29 O63 2.049093 1_655
Nb29 O16 2.049093 1_565
Nb30 O20 1.962874 1_455
Nb30 O38 1.964365 1_455
Nb30 O5 2.004147 1_555
Nb30 O56 2.076825 1_455
Nb30 O49 2.103946 1_555
Nb30 O14 2.166397 1_555
Nb31 O13 2.061535 1_455
Nb31 O36 2.081114 1_456
Nb31 O55 2.138832 1_555
Nb31 O18 2.140323 1_555
Nb31 O2 2.277984 1_555
Nb32 O31 2.070615 1_555
Nb32 O47 2.093819 1_555
Nb32 O35 2.095380 1_555
Nb32 O29 2.152033 1_555
Nb32 O16 2.261481 1_555
Nb33 O59 2.070615 1_555
Nb33 O8 2.093819 1_555
Nb33 O37 2.095381 1_555
Nb33 O6 2.152033 1_555
Nb33 O4 2.261480 1_555
Al0 O30 1.754913 1_655
Al0 O37 1.754913 1_556
Al0 O46 1.754913 1_565
Al0 O32 1.809864 1_555
Al1 O35 1.754913 1_455
Al1 O34 1.754913 1_554
Al1 O15 1.754913 1_545
Al1 O51 1.809864 1_555
