# generated using pymatgen
data_CdI2
_symmetry_space_group_name_H-M   'P 1'
_cell_length_a   4.28762948
_cell_length_b   4.28762948
_cell_length_c   93.44639304
_cell_angle_alpha   90.00000000
_cell_angle_beta   90.00000000
_cell_angle_gamma   120.00000117
_symmetry_Int_Tables_number   1
_chemical_formula_structural   CdI2
_chemical_formula_sum   'Cd13 I26'
_cell_volume   1487.74214147
_cell_formula_units_Z   13
loop_
 _symmetry_equiv_pos_site_id
 _symmetry_equiv_pos_as_xyz
  1  'x, y, z'
loop_
 _atom_site_type_symbol
 _atom_site_label
 _atom_site_symmetry_multiplicity
 _atom_site_fract_x
 _atom_site_fract_y
 _atom_site_fract_z
 _atom_site_occupancy
  Cd  Cd0  1  0.00000000  -0.00000000  0.71125728  1
  Cd  Cd1  1  -0.00000000  0.00000000  0.48037945  1
  Cd  Cd2  1  0.66666700  0.33333300  0.63456532  1
  Cd  Cd3  1  0.66666700  0.33333300  0.09644647  1
  Cd  Cd4  1  0.00000000  -0.00000000  0.55740696  1
  Cd  Cd5  1  -0.00000000  0.00000000  0.01914535  1
  Cd  Cd6  1  -0.00000000  -0.00000000  0.40371335  1
  Cd  Cd7  1  0.00000000  -0.00000000  0.32716808  1
  Cd  Cd8  1  0.00000000  -0.00000000  0.17347282  1
  Cd  Cd9  1  0.66666700  0.33333300  0.78827368  1
  Cd  Cd10  1  0.66666700  0.33333300  0.86558564  1
  Cd  Cd11  1  0.66666700  0.33333300  0.25008629  1
  Cd  Cd12  1  0.66666700  0.33333300  0.94253542  1
  I  I0  1  -0.00000000  0.00000000  0.88404815  1
  I  I1  1  0.33333300  0.66666700  0.61622024  1
  I  I2  1  0.33333300  0.66666700  0.53897278  1
  I  I3  1  0.66666700  0.33333300  0.19189478  1
  I  I4  1  0.33333300  0.66666700  0.23162528  1
  I  I5  1  -0.00000000  -0.00000000  0.96098097  1
  I  I6  1  0.66666700  0.33333300  0.34550280  1
  I  I7  1  0.33333300  0.66666700  0.84711563  1
  I  I8  1  0.00000000  -0.00000000  0.65291142  1
  I  I9  1  0.33333300  0.66666700  0.15504622  1
  I  I10  1  0.33333300  0.66666700  0.76984227  1
  I  I11  1  0.33333300  0.66666700  0.69278487  1
  I  I12  1  0.66666700  0.33333300  0.42206886  1
  I  I13  1  0.33333300  0.66666700  0.00071353  1
  I  I14  1  -0.00000000  0.00000000  0.26855970  1
  I  I15  1  0.33333300  0.66666700  0.92404155  1
  I  I16  1  0.66666700  0.33333300  0.57582354  1
  I  I17  1  0.66666700  0.33333300  0.03755775  1
  I  I18  1  0.66666700  0.33333300  0.72971689  1
  I  I19  1  0.33333300  0.66666700  0.07798014  1
  I  I20  1  -0.00000000  0.00000000  0.11491462  1
  I  I21  1  0.33333300  0.66666700  0.30882037  1
  I  I22  1  0.33333300  0.66666700  0.46191316  1
  I  I23  1  -0.00000000  0.00000000  0.80669016  1
  I  I24  1  0.33333300  0.66666700  0.38537270  1
  I  I25  1  0.66666700  0.33333300  0.49884349  1
loop_
_geom_bond_atom_site_label_1
_geom_bond_atom_site_label_2
_geom_bond_distance
_geom_bond_site_symmetry_2
Cd0 I18 3.017197 1_455
Cd0 I18 3.017200 1_555
Cd0 I18 3.017200 1_445
Cd0 I11 3.017881 1_545
Cd0 I11 3.017884 1_555
Cd0 I11 3.017884 1_445
Cd1 I25 3.017434 1_455
Cd1 I25 3.017437 1_445
Cd1 I25 3.017437 1_555
Cd1 I22 3.017554 1_545
Cd1 I22 3.017557 1_555
Cd1 I22 3.017557 1_445
Cd2 I1 3.011091 1_545
Cd2 I1 3.011091 1_655
Cd2 I1 3.011097 1_555
Cd2 I8 3.011146 1_655
Cd2 I8 3.011149 1_665
Cd2 I8 3.011149 1_555
Cd3 I19 3.017556 1_545
Cd3 I19 3.017556 1_655
Cd3 I19 3.017562 1_555
Cd3 I20 3.017654 1_655
Cd3 I20 3.017657 1_665
Cd3 I20 3.017657 1_555
Cd4 I16 3.014900 1_455
Cd4 I16 3.014903 1_445
Cd4 I16 3.014903 1_555
Cd4 I2 3.015839 1_545
Cd4 I2 3.015842 1_555
Cd4 I2 3.015842 1_445
Cd5 I17 3.014677 1_455
Cd5 I17 3.014680 1_555
Cd5 I17 3.014680 1_445
Cd5 I13 3.015713 1_545
Cd5 I13 3.015716 1_555
Cd5 I13 3.015716 1_445
Cd6 I24 3.010856 1_545
Cd6 I24 3.010859 1_555
Cd6 I24 3.010859 1_445
Cd6 I12 3.011646 1_455
Cd6 I12 3.011649 1_445
Cd6 I12 3.011649 1_555
Cd7 I6 3.010540 1_455
Cd7 I6 3.010543 1_445
Cd7 I6 3.010543 1_555
Cd7 I21 3.011231 1_545
Cd7 I21 3.011234 1_445
Cd7 I21 3.011234 1_555
Cd8 I3 3.015187 1_455
Cd8 I3 3.015190 1_445
Cd8 I3 3.015190 1_555
Cd8 I9 3.015435 1_545
Cd8 I9 3.015438 1_445
Cd8 I9 3.015438 1_555
Cd9 I23 3.014895 1_655
Cd9 I23 3.014898 1_665
Cd9 I23 3.014898 1_555
Cd9 I10 3.015691 1_545
Cd9 I10 3.015691 1_655
Cd9 I10 3.015698 1_555
Cd10 I0 3.017352 1_655
Cd10 I0 3.017355 1_665
Cd10 I0 3.017355 1_555
Cd10 I7 3.017753 1_655
Cd10 I7 3.017753 1_545
Cd10 I7 3.017759 1_555
Cd11 I4 3.017272 1_545
Cd11 I4 3.017272 1_655
Cd11 I4 3.017278 1_555
Cd11 I14 3.017935 1_655
Cd11 I14 3.017938 1_555
Cd11 I14 3.017938 1_665
Cd12 I5 3.016446 1_655
Cd12 I5 3.016449 1_665
Cd12 I5 3.016449 1_555
Cd12 I15 3.019029 1_545
Cd12 I15 3.019029 1_655
Cd12 I15 3.019035 1_555
