# generated using pymatgen
data_InAg3(PO4)2
_symmetry_space_group_name_H-M   'P 1'
_cell_length_a   5.23515820
_cell_length_b   5.23515820
_cell_length_c   7.45724286
_cell_angle_alpha   86.46118414
_cell_angle_beta   86.46118414
_cell_angle_gamma   64.79572142
_symmetry_Int_Tables_number   1
_chemical_formula_structural   InAg3(PO4)2
_chemical_formula_sum   'In1 Ag3 P2 O8'
_cell_volume   184.42706339
_cell_formula_units_Z   1
loop_
 _symmetry_equiv_pos_site_id
 _symmetry_equiv_pos_as_xyz
  1  'x, y, z'
loop_
 _atom_site_type_symbol
 _atom_site_label
 _atom_site_symmetry_multiplicity
 _atom_site_fract_x
 _atom_site_fract_y
 _atom_site_fract_z
 _atom_site_occupancy
  In  In0  1  0.00000000  0.00000000  0.00000000  1
  Ag  Ag0  1  0.33166400  0.33166400  0.67930600  1
  Ag  Ag1  1  0.66833600  0.66833600  0.32069400  1
  Ag  Ag2  1  0.00000000  0.00000000  0.50000000  1
  P  P0  1  0.66131400  0.66131400  0.79050300  1
  P  P1  1  0.33868600  0.33868600  0.20949700  1
  O  O0  1  0.24405900  0.24405900  0.39291200  1
  O  O1  1  0.76263900  0.76263900  0.94957900  1
  O  O2  1  0.67026400  0.22071700  0.20338100  1
  O  O3  1  0.77928300  0.32973600  0.79661900  1
  O  O4  1  0.23736100  0.23736100  0.05042100  1
  O  O5  1  0.22071700  0.67026400  0.20338100  1
  O  O6  1  0.32973600  0.77928300  0.79661900  1
  O  O7  1  0.75594100  0.75594100  0.60708800  1
loop_
_geom_bond_atom_site_label_1
_geom_bond_atom_site_label_2
_geom_bond_distance
_geom_bond_site_symmetry_2
In0 O4 2.158718 1_555
In0 O1 2.158718 1_444
In0 O6 2.193076 1_544
In0 O3 2.193076 1_454
In0 O2 2.193076 1_455
In0 O5 2.193076 1_545
Ag0 O0 2.324416 1_555
Ag0 O3 2.547272 1_555
Ag0 O6 2.547272 1_555
Ag1 O7 2.324416 1_555
Ag1 O5 2.547272 1_555
Ag1 O2 2.547272 1_555
Ag2 O7 2.245253 1_445
Ag2 O0 2.245253 1_555
Ag2 O5 2.768536 1_545
Ag2 O6 2.768536 1_545
Ag2 O2 2.768536 1_455
Ag2 O3 2.768536 1_455
O0 P1 1.550269 1_555
O1 P0 1.537857 1_555
O2 P1 1.573964 1_555
O3 P0 1.573964 1_555
O4 P1 1.537857 1_555
O5 P1 1.573964 1_555
O6 P0 1.573964 1_555
O7 P0 1.550269 1_555
