# generated using pymatgen
data_SrCrF6
_symmetry_space_group_name_H-M   'P 1'
_cell_length_a   4.69051399
_cell_length_b   4.69051399
_cell_length_c   4.69051406
_cell_angle_alpha   98.49940045
_cell_angle_beta   98.49940045
_cell_angle_gamma   98.49938598
_symmetry_Int_Tables_number   1
_chemical_formula_structural   SrCrF6
_chemical_formula_sum   'Sr1 Cr1 F6'
_cell_volume   99.41168854
_cell_formula_units_Z   1
loop_
 _symmetry_equiv_pos_site_id
 _symmetry_equiv_pos_as_xyz
  1  'x, y, z'
loop_
 _atom_site_type_symbol
 _atom_site_label
 _atom_site_symmetry_multiplicity
 _atom_site_fract_x
 _atom_site_fract_y
 _atom_site_fract_z
 _atom_site_occupancy
  Sr  Sr0  1  0.50000000  0.50000000  0.50000000  1
  Cr  Cr0  1  0.00000000  -0.00000000  -0.00000000  1
  F  F0  1  0.72056073  0.72056073  0.07691245  1
  F  F1  1  0.07691245  0.72056073  0.72056073  1
  F  F2  1  0.92308755  0.27943927  0.27943927  1
  F  F3  1  0.27943927  0.27943927  0.92308755  1
  F  F4  1  0.27943927  0.92308755  0.27943927  1
  F  F5  1  0.72056073  0.07691245  0.72056073  1
loop_
_geom_bond_atom_site_label_1
_geom_bond_atom_site_label_2
_geom_bond_distance
_geom_bond_site_symmetry_2
Cr0 F1 1.826967 1_544
Cr0 F4 1.826967 1_545
Cr0 F5 1.826967 1_454
Cr0 F2 1.826967 1_455
Cr0 F3 1.826967 1_554
Cr0 F0 1.826967 1_445
F0 Sr0 2.641245 1_555
F0 Sr0 2.737090 1_554
F1 Sr0 2.641245 1_555
F1 Sr0 2.737090 1_455
F2 Sr0 2.641245 1_555
F2 Sr0 2.737090 1_655
F3 Sr0 2.641245 1_555
F3 Sr0 2.737090 1_556
F4 Sr0 2.641245 1_555
F4 Sr0 2.737090 1_565
F5 Sr0 2.641245 1_555
F5 Sr0 2.737090 1_545
