# generated using pymatgen
data_Cs2Mn(PO3)4
_symmetry_space_group_name_H-M   'P 1'
_cell_length_a   13.46831100
_cell_length_b   8.12199700
_cell_length_c   12.79616473
_cell_angle_alpha   63.59250639
_cell_angle_beta   90.00000000
_cell_angle_gamma   90.00000000
_symmetry_Int_Tables_number   1
_chemical_formula_structural   Cs2Mn(PO3)4
_chemical_formula_sum   'Cs8 Mn4 P16 O48'
_cell_volume   1253.70644612
_cell_formula_units_Z   4
loop_
 _symmetry_equiv_pos_site_id
 _symmetry_equiv_pos_as_xyz
  1  'x, y, z'
loop_
 _atom_site_type_symbol
 _atom_site_label
 _atom_site_symmetry_multiplicity
 _atom_site_fract_x
 _atom_site_fract_y
 _atom_site_fract_z
 _atom_site_occupancy
  Cs  Cs0  1  0.12022300  0.44165200  0.63623400  1
  Cs  Cs1  1  0.12479100  0.06909300  0.34360000  1
  Cs  Cs2  1  0.62479100  0.93090700  0.15640000  1
  Cs  Cs3  1  0.62022300  0.55834800  0.86376600  1
  Cs  Cs4  1  0.87520900  0.93090700  0.65640000  1
  Cs  Cs5  1  0.37977700  0.44165200  0.13623400  1
  Cs  Cs6  1  0.87977700  0.55834800  0.36376600  1
  Cs  Cs7  1  0.37520900  0.06909300  0.84360000  1
  Mn  Mn0  1  0.35573600  0.25325400  0.48734000  1
  Mn  Mn1  1  0.64426400  0.74674600  0.51266000  1
  Mn  Mn2  1  0.85573600  0.74674600  0.01266000  1
  Mn  Mn3  1  0.14426400  0.25325400  0.98734000  1
  P  P0  1  0.67461000  0.07417200  0.82999300  1
  P  P1  1  0.17461000  0.92582800  0.67000700  1
  P  P2  1  0.42508300  0.94527300  0.37944500  1
  P  P3  1  0.40754100  0.58244400  0.58737900  1
  P  P4  1  0.81265700  0.39443200  0.70155100  1
  P  P5  1  0.09245900  0.58244400  0.08737900  1
  P  P6  1  0.07491700  0.94527300  0.87944500  1
  P  P7  1  0.90754100  0.41755600  0.91262100  1
  P  P8  1  0.31265700  0.60556800  0.79844900  1
  P  P9  1  0.59245900  0.41755600  0.41262100  1
  P  P10  1  0.92508300  0.05472700  0.12055500  1
  P  P11  1  0.32539000  0.92582800  0.17000700  1
  P  P12  1  0.57491700  0.05472700  0.62055500  1
  P  P13  1  0.68734300  0.39443200  0.20155100  1
  P  P14  1  0.18734300  0.60556800  0.29844900  1
  P  P15  1  0.82539000  0.07417200  0.32999300  1
  O  O0  1  0.35846200  0.08645600  0.38949600  1
  O  O1  1  0.33942100  0.64898200  0.66521000  1
  O  O2  1  0.61964700  0.25713500  0.54020900  1
  O  O3  1  0.90994900  0.04093500  0.24987300  1
  O  O4  1  0.59855000  0.38778100  0.13392800  1
  O  O5  1  0.24640000  0.43825800  0.84814800  1
  O  O6  1  0.22849300  0.10545200  0.60277600  1
  O  O7  1  0.64153800  0.91354400  0.61050400  1
  O  O8  1  0.16057900  0.64898200  0.16521000  1
  O  O9  1  0.77150700  0.89454800  0.39722400  1
  O  O10  1  0.59005100  0.04093500  0.74987300  1
  O  O11  1  0.25360000  0.43825800  0.34814800  1
  O  O12  1  0.37728700  0.83644100  0.10557400  1
  O  O13  1  0.03520000  0.05160800  0.10475200  1
  O  O14  1  0.87728700  0.16355900  0.39442600  1
  O  O15  1  0.75132600  0.21023700  0.22891100  1
  O  O16  1  0.46480000  0.05160800  0.60475200  1
  O  O17  1  0.09855000  0.61221900  0.36607200  1
  O  O18  1  0.66057900  0.35101800  0.33479000  1
  O  O19  1  0.38035300  0.74286500  0.45979100  1
  O  O20  1  0.14153800  0.08645600  0.88949600  1
  O  O21  1  0.09005100  0.95906500  0.75012700  1
  O  O22  1  0.74640000  0.56174200  0.65185200  1
  O  O23  1  0.25132600  0.78976300  0.27108900  1
  O  O24  1  0.51530300  0.58609200  0.61574700  1
  O  O25  1  0.62271300  0.16355900  0.89442600  1
  O  O26  1  0.96480000  0.94839200  0.89524800  1
  O  O27  1  0.83942100  0.35101800  0.83479000  1
  O  O28  1  0.86270300  0.59162000  0.90647600  1
  O  O29  1  0.72849300  0.89454800  0.89722400  1
  O  O30  1  0.36270300  0.40838000  0.59352400  1
  O  O31  1  0.40145000  0.61221900  0.86607200  1
  O  O32  1  0.40994900  0.95906500  0.25012700  1
  O  O33  1  0.85846200  0.91354400  0.11050400  1
  O  O34  1  0.48469700  0.41390800  0.38425300  1
  O  O35  1  0.27150700  0.10545200  0.10277600  1
  O  O36  1  0.01530300  0.41390800  0.88425300  1
  O  O37  1  0.13729700  0.40838000  0.09352400  1
  O  O38  1  0.90145000  0.38778100  0.63392800  1
  O  O39  1  0.74867400  0.21023700  0.72891100  1
  O  O40  1  0.98469700  0.58609200  0.11574700  1
  O  O41  1  0.24867400  0.78976300  0.77108900  1
  O  O42  1  0.88035300  0.25713500  0.04020900  1
  O  O43  1  0.63729700  0.59162000  0.40647600  1
  O  O44  1  0.12271300  0.83644100  0.60557400  1
  O  O45  1  0.53520000  0.94839200  0.39524800  1
  O  O46  1  0.75360000  0.56174200  0.15185200  1
  O  O47  1  0.11964700  0.74286500  0.95979100  1
loop_
_geom_bond_atom_site_label_1
_geom_bond_atom_site_label_2
_geom_bond_distance
_geom_bond_site_symmetry_2
Cs0 O38 2.980885 1_455
Cs0 O44 3.052464 1_555
Cs0 O17 3.113758 1_555
Cs0 O5 3.189897 1_555
Cs0 O20 3.254452 1_555
Cs0 O6 3.287224 1_555
Cs0 O30 3.341932 1_555
Cs0 O36 3.388777 1_555
Cs0 O1 3.499162 1_555
Cs0 O21 3.545559 1_545
Cs1 O44 3.028948 1_545
Cs1 O37 3.165187 1_555
Cs1 O3 3.179214 1_455
Cs1 O0 3.216061 1_555
Cs1 O23 3.284023 1_545
Cs1 O13 3.347153 1_555
Cs1 O11 3.486892 1_555
Cs1 O14 3.545066 1_455
Cs1 O35 3.560727 1_555
Cs1 O17 3.609428 1_545
Cs1 O6 3.729344 1_555
Cs2 O25 3.028948 1_564
Cs2 O43 3.165187 1_555
Cs2 O32 3.179214 1_555
Cs2 O33 3.216061 1_555
Cs2 O15 3.284023 1_565
Cs2 O45 3.347153 1_555
Cs2 O46 3.486892 1_555
Cs2 O12 3.545066 1_555
Cs2 O9 3.560727 1_555
Cs2 O4 3.609428 1_565
Cs2 O29 3.729344 1_554
Cs3 O31 2.980885 1_555
Cs3 O25 3.052464 1_555
Cs3 O4 3.113758 1_556
Cs3 O22 3.189897 1_555
Cs3 O7 3.254452 1_555
Cs3 O29 3.287224 1_555
Cs3 O28 3.341932 1_555
Cs3 O24 3.388777 1_555
Cs3 O27 3.499162 1_555
Cs3 O10 3.545559 1_565
Cs4 O14 3.028948 1_565
Cs4 O28 3.165187 1_555
Cs4 O21 3.179214 1_655
Cs4 O7 3.216061 1_555
Cs4 O39 3.284023 1_565
Cs4 O26 3.347153 1_555
Cs4 O22 3.486892 1_555
Cs4 O44 3.545066 1_655
Cs4 O29 3.560727 1_555
Cs4 O38 3.609428 1_565
Cs4 O9 3.729344 1_555
Cs5 O4 2.980885 1_555
Cs5 O12 3.052464 1_555
Cs5 O31 3.113758 1_554
Cs5 O11 3.189897 1_555
Cs5 O0 3.254452 1_555
Cs5 O35 3.287224 1_555
Cs5 O37 3.341932 1_555
Cs5 O34 3.388777 1_555
Cs5 O8 3.499162 1_555
Cs5 O32 3.545559 1_545
Cs6 O17 2.980885 1_655
Cs6 O14 3.052464 1_555
Cs6 O38 3.113758 1_555
Cs6 O46 3.189897 1_555
Cs6 O33 3.254452 1_555
Cs6 O9 3.287224 1_555
Cs6 O43 3.341932 1_555
Cs6 O40 3.388777 1_555
Cs6 O18 3.499162 1_555
Cs6 O3 3.545559 1_565
Cs7 O12 3.028948 1_546
Cs7 O30 3.165187 1_555
Cs7 O10 3.179214 1_555
Cs7 O20 3.216061 1_555
Cs7 O41 3.284023 1_545
Cs7 O16 3.347153 1_555
Cs7 O5 3.486892 1_555
Cs7 O25 3.545066 1_555
Cs7 O6 3.560727 1_555
Cs7 O31 3.609428 1_545
Cs7 O35 3.729344 1_556
Mn0 O16 2.215517 1_555
Mn0 O0 2.216522 1_555
Mn0 O34 2.219999 1_555
Mn0 O11 2.223036 1_555
Mn0 O30 2.228273 1_555
Mn0 O6 2.232185 1_555
Mn1 O45 2.215517 1_555
Mn1 O7 2.216522 1_555
Mn1 O24 2.219999 1_555
Mn1 O22 2.223036 1_555
Mn1 O43 2.228273 1_555
Mn1 O9 2.232185 1_555
Mn2 O26 2.215517 1_554
Mn2 O33 2.216522 1_555
Mn2 O40 2.219999 1_555
Mn2 O46 2.223036 1_555
Mn2 O28 2.228273 1_554
Mn2 O29 2.232185 1_554
Mn3 O13 2.215517 1_556
Mn3 O20 2.216522 1_555
Mn3 O36 2.219999 1_555
Mn3 O5 2.223036 1_555
Mn3 O37 2.228273 1_556
Mn3 O35 2.232185 1_556
O0 P2 1.505894 1_545
O1 P3 1.613827 1_555
O1 P8 1.620606 1_555
O2 P9 1.614020 1_555
O2 P12 1.618373 1_555
O3 P10 1.620953 1_555
O3 P15 1.633146 1_555
O4 P13 1.491115 1_555
O5 P8 1.509518 1_555
O6 P1 1.509558 1_545
O7 P12 1.505894 1_565
O8 P5 1.613827 1_555
O8 P14 1.620606 1_555
O9 P15 1.509558 1_565
O10 P12 1.620953 1_555
O10 P0 1.633146 1_555
O11 P14 1.509518 1_555
O12 P11 1.492604 1_555
O13 P10 1.498548 1_455
O14 P15 1.492604 1_555
O15 P15 1.617989 1_555
O15 P13 1.624005 1_555
O16 P12 1.498548 1_555
O17 P14 1.491115 1_555
O18 P9 1.613827 1_555
O18 P13 1.620606 1_555
O19 P3 1.614020 1_555
O19 P2 1.618373 1_555
O20 P6 1.505894 1_545
O21 P6 1.620953 1_555
O21 P1 1.633146 1_555
O22 P4 1.509518 1_555
O23 P11 1.617989 1_555
O23 P14 1.624005 1_555
O24 P3 1.499565 1_555
O25 P0 1.492604 1_555
O26 P6 1.498548 1_655
O27 P7 1.613827 1_555
O27 P4 1.620606 1_555
O28 P7 1.506873 1_555
O29 P0 1.509558 1_565
O30 P3 1.506873 1_555
O31 P8 1.491115 1_555
O32 P2 1.620953 1_555
O32 P11 1.633146 1_555
O33 P10 1.505894 1_565
O34 P9 1.499565 1_555
O35 P11 1.509558 1_545
O36 P7 1.499565 1_455
O37 P5 1.506873 1_555
O38 P4 1.491115 1_555
O39 P0 1.617989 1_555
O39 P4 1.624005 1_555
O40 P5 1.499565 1_655
O41 P1 1.617989 1_555
O41 P8 1.624005 1_555
O42 P7 1.614020 1_554
O42 P10 1.618373 1_555
O43 P9 1.506873 1_555
O44 P1 1.492604 1_555
O45 P2 1.498548 1_555
O46 P13 1.509518 1_555
O47 P5 1.614020 1_556
O47 P6 1.618373 1_555
