# generated using pymatgen
data_Ag2INO3
_symmetry_space_group_name_H-M   'P 1'
_cell_length_a   7.34794700
_cell_length_b   7.93799600
_cell_length_c   17.57969300
_cell_angle_alpha   90.00000000
_cell_angle_beta   90.00000000
_cell_angle_gamma   90.00000000
_symmetry_Int_Tables_number   1
_chemical_formula_structural   Ag2INO3
_chemical_formula_sum   'Ag16 I8 N8 O24'
_cell_volume   1025.38787437
_cell_formula_units_Z   8
loop_
 _symmetry_equiv_pos_site_id
 _symmetry_equiv_pos_as_xyz
  1  'x, y, z'
loop_
 _atom_site_type_symbol
 _atom_site_label
 _atom_site_symmetry_multiplicity
 _atom_site_fract_x
 _atom_site_fract_y
 _atom_site_fract_z
 _atom_site_occupancy
  Ag  Ag0  1  0.83300100  0.01421100  0.69386500  1
  Ag  Ag1  1  0.16699900  0.51421100  0.80613500  1
  Ag  Ag2  1  0.74711400  0.52817600  0.05867800  1
  Ag  Ag3  1  0.25288600  0.02817600  0.44132200  1
  Ag  Ag4  1  0.24711400  0.97182400  0.94132200  1
  Ag  Ag5  1  0.21523800  0.96984700  0.68526000  1
  Ag  Ag6  1  0.78476200  0.46984700  0.81474000  1
  Ag  Ag7  1  0.66699900  0.98578900  0.19386500  1
  Ag  Ag8  1  0.83281800  0.96884900  0.94175500  1
  Ag  Ag9  1  0.66718200  0.03115100  0.44175500  1
  Ag  Ag10  1  0.75288600  0.47182400  0.55867800  1
  Ag  Ag11  1  0.28476200  0.03015300  0.18526000  1
  Ag  Ag12  1  0.16718200  0.46884900  0.55824500  1
  Ag  Ag13  1  0.33300100  0.48578900  0.30613500  1
  Ag  Ag14  1  0.71523800  0.53015300  0.31474000  1
  Ag  Ag15  1  0.33281800  0.53115100  0.05824500  1
  I  I0  1  0.54611400  0.85232900  0.04887300  1
  I  I1  1  0.02658600  0.15759000  0.82092000  1
  I  I2  1  0.04611400  0.64767100  0.95112700  1
  I  I3  1  0.95388600  0.14767100  0.54887300  1
  I  I4  1  0.47341400  0.84241000  0.32092000  1
  I  I5  1  0.52658600  0.34241000  0.17908000  1
  I  I6  1  0.97341400  0.65759000  0.67908000  1
  I  I7  1  0.45388600  0.35232900  0.45112700  1
  N  N0  1  0.00052700  0.71108100  0.42957000  1
  N  N1  1  0.97562900  0.14696100  0.29482300  1
  N  N2  1  0.02437100  0.64696100  0.20517700  1
  N  N3  1  0.50052700  0.78891900  0.57043000  1
  N  N4  1  0.49947300  0.28891900  0.92957000  1
  N  N5  1  0.52437100  0.85303900  0.79482300  1
  N  N6  1  0.47562900  0.35303900  0.70517700  1
  N  N7  1  0.99947300  0.21108100  0.07043000  1
  O  O0  1  0.91652700  0.57036200  0.42870200  1
  O  O1  1  0.08347300  0.07036200  0.07129800  1
  O  O2  1  0.95343500  0.83044500  0.38692100  1
  O  O3  1  0.54656500  0.16955500  0.88692100  1
  O  O4  1  0.36452000  0.27023800  0.97496800  1
  O  O5  1  0.86857700  0.68511500  0.17976800  1
  O  O6  1  0.41652700  0.92963800  0.57129800  1
  O  O7  1  0.16864900  0.69579900  0.17349600  1
  O  O8  1  0.33135100  0.30420100  0.67349600  1
  O  O9  1  0.53304000  0.94573500  0.73450900  1
  O  O10  1  0.63548000  0.77023800  0.52503200  1
  O  O11  1  0.86452000  0.22976200  0.02503200  1
  O  O12  1  0.83135100  0.19579900  0.32650400  1
  O  O13  1  0.13142300  0.18511500  0.32023200  1
  O  O14  1  0.63142300  0.31488500  0.67976800  1
  O  O15  1  0.03304000  0.55426500  0.26549100  1
  O  O16  1  0.13548000  0.72976200  0.47496800  1
  O  O17  1  0.04656500  0.33044500  0.11307900  1
  O  O18  1  0.36857700  0.81488500  0.82023200  1
  O  O19  1  0.46696000  0.44573500  0.76549100  1
  O  O20  1  0.66864900  0.80420100  0.82650400  1
  O  O21  1  0.45343500  0.66955500  0.61307900  1
  O  O22  1  0.58347300  0.42963800  0.92870200  1
  O  O23  1  0.96696000  0.05426500  0.23450900  1
loop_
_geom_bond_atom_site_label_1
_geom_bond_atom_site_label_2
_geom_bond_distance
_geom_bond_site_symmetry_2
Ag0 O9 2.379922 1_545
Ag0 I1 2.882300 1_655
Ag0 I3 2.899708 1_555
Ag0 I6 3.024203 1_545
Ag1 O19 2.379922 1_555
Ag1 I6 2.882300 1_455
Ag1 I2 2.899708 1_555
Ag1 I1 3.024203 1_555
Ag2 O11 2.589469 1_555
Ag2 O5 2.622976 1_555
Ag2 O22 2.697888 1_554
Ag2 I0 2.971873 1_555
Ag2 I5 3.046372 1_555
Ag2 I2 3.049838 1_654
Ag3 O16 2.589469 1_545
Ag3 O13 2.622976 1_555
Ag3 O6 2.697888 1_545
Ag3 I7 2.971873 1_555
Ag3 I4 3.046372 1_545
Ag3 I3 3.049838 1_455
Ag4 O4 2.589469 1_565
Ag4 O18 2.622976 1_555
Ag4 O1 2.697888 1_566
Ag4 I2 2.971873 1_555
Ag4 I1 3.046372 1_565
Ag4 I0 3.049838 1_556
Ag5 O9 2.497866 1_555
Ag5 O6 2.510613 1_555
Ag5 I6 3.051744 1_455
Ag5 I1 3.135304 1_565
Ag5 I3 3.380702 1_465
Ag6 O19 2.497866 1_555
Ag6 O22 2.510613 1_555
Ag6 I1 3.051744 1_655
Ag6 I6 3.135304 1_555
Ag6 I2 3.380702 1_655
Ag7 O23 2.379922 1_565
Ag7 I4 2.882300 1_555
Ag7 I0 2.899708 1_555
Ag7 I5 3.024203 1_565
Ag8 O11 2.546974 1_566
Ag8 O20 2.695987 1_555
Ag8 O3 2.809217 1_565
Ag8 I1 2.963829 1_665
Ag8 I0 2.973164 1_556
Ag8 I2 2.997255 1_655
Ag9 O10 2.546974 1_545
Ag9 O12 2.695987 1_555
Ag9 O2 2.809217 1_545
Ag9 I4 2.963829 1_545
Ag9 I3 2.973164 1_555
Ag9 I7 2.997255 1_555
Ag10 O10 2.589469 1_555
Ag10 O14 2.622976 1_555
Ag10 O0 2.697888 1_555
Ag10 I3 2.971873 1_555
Ag10 I6 3.046372 1_555
Ag10 I7 3.049838 1_555
Ag11 O23 2.497866 1_455
Ag11 O1 2.510613 1_555
Ag11 I5 3.051744 1_555
Ag11 I4 3.135304 1_545
Ag11 I0 3.380702 1_545
Ag12 O16 2.546974 1_555
Ag12 O8 2.695987 1_555
Ag12 O21 2.809217 1_555
Ag12 I6 2.963829 1_455
Ag12 I7 2.973164 1_555
Ag12 I3 2.997255 1_455
Ag13 O15 2.379922 1_555
Ag13 I5 2.882300 1_555
Ag13 I7 2.899708 1_555
Ag13 I4 3.024203 1_555
Ag14 O15 2.497866 1_655
Ag14 O0 2.510613 1_555
Ag14 I4 3.051744 1_555
Ag14 I5 3.135304 1_555
Ag14 I7 3.380702 1_555
Ag15 O4 2.546974 1_554
Ag15 O7 2.695987 1_555
Ag15 O17 2.809217 1_555
Ag15 I5 2.963829 1_555
Ag15 I2 2.973164 1_554
Ag15 I0 2.997255 1_555
N0 O2 1.256840 1_455
N0 O0 1.276304 1_455
N0 O16 1.281504 1_555
N1 O12 1.258725 1_555
N1 O13 1.265600 1_655
N1 O23 1.292180 1_555
N2 O7 1.258725 1_555
N2 O5 1.265600 1_455
N2 O15 1.292180 1_555
N3 O21 1.256840 1_555
N3 O6 1.276304 1_555
N3 O10 1.281504 1_555
N4 O3 1.256840 1_555
N4 O22 1.276304 1_555
N4 O4 1.281504 1_555
N5 O20 1.258725 1_555
N5 O18 1.265600 1_555
N5 O9 1.292180 1_555
N6 O8 1.258725 1_555
N6 O14 1.265600 1_555
N6 O19 1.292180 1_555
N7 O17 1.256840 1_655
N7 O1 1.276304 1_655
N7 O11 1.281504 1_555
