# generated using pymatgen
data_Mg16Si8HO32
_symmetry_space_group_name_H-M   'P 1'
_cell_length_a   6.07389800
_cell_length_b   9.66887600
_cell_length_c   10.47233939
_cell_angle_alpha   89.11920803
_cell_angle_beta   90.00000000
_cell_angle_gamma   90.00000000
_symmetry_Int_Tables_number   1
_chemical_formula_structural   Mg16Si8HO32
_chemical_formula_sum   'Mg16 Si8 H1 O32'
_cell_volume   614.94443429
_cell_formula_units_Z   1
loop_
 _symmetry_equiv_pos_site_id
 _symmetry_equiv_pos_as_xyz
  1  'x, y, z'
loop_
 _atom_site_type_symbol
 _atom_site_label
 _atom_site_symmetry_multiplicity
 _atom_site_fract_x
 _atom_site_fract_y
 _atom_site_fract_z
 _atom_site_occupancy
  Mg  Mg0  1  0.25731100  0.99499700  0.99353400  1
  Mg  Mg1  1  0.25816700  0.75618000  0.50251000  1
  Mg  Mg2  1  0.74268900  0.99499700  0.99353400  1
  Mg  Mg3  1  0.74183300  0.75618000  0.50251000  1
  Mg  Mg4  1  0.50000000  0.49971500  0.27914700  1
  Mg  Mg5  1  0.00000000  0.75509000  0.21939500  1
  Mg  Mg6  1  0.00000000  0.99199500  0.72127400  1
  Mg  Mg7  1  0.50000000  0.74218700  0.77875900  1
  Mg  Mg8  1  0.25475000  0.49796300  0.00107300  1
  Mg  Mg9  1  0.26142800  0.24459900  0.51019800  1
  Mg  Mg10  1  0.74525000  0.49796300  0.00107300  1
  Mg  Mg11  1  0.73857200  0.24459900  0.51019800  1
  Mg  Mg12  1  0.50000000  0.00435900  0.27616100  1
  Mg  Mg13  1  0.00000000  0.23256300  0.19647100  1
  Mg  Mg14  1  0.00000000  0.49684500  0.72518500  1
  Mg  Mg15  1  0.50000000  0.24916100  0.78037600  1
  Si  Si0  1  0.50000000  0.78433600  0.09444300  1
  Si  Si1  1  0.00000000  0.55295800  0.41629800  1
  Si  Si2  1  0.00000000  0.71071000  0.90607100  1
  Si  Si3  1  0.50000000  0.96285700  0.59688300  1
  Si  Si4  1  0.50000000  0.28359600  0.09123400  1
  Si  Si5  1  0.00000000  0.03808200  0.40528700  1
  Si  Si6  1  0.00000000  0.21008900  0.89817400  1
  Si  Si7  1  0.50000000  0.46421200  0.59517400  1
  H  H0  1  0.00000000  0.34777400  0.35029800  1
  O  O0  1  0.50000000  0.61469400  0.09484200  1
  O  O1  1  0.00000000  0.86860600  0.40713700  1
  O  O2  1  0.00000000  0.87982500  0.90454600  1
  O  O3  1  0.50000000  0.63368000  0.59216900  1
  O  O4  1  0.50000000  0.89412900  0.45045600  1
  O  O5  1  0.00000000  0.63760500  0.05243900  1
  O  O6  1  0.00000000  0.62351900  0.55907600  1
  O  O7  1  0.50000000  0.85659000  0.94707500  1
  O  O8  1  0.28873800  0.85971400  0.16085400  1
  O  O9  1  0.22422900  0.61299800  0.34260200  1
  O  O10  1  0.78873800  0.63643100  0.83889700  1
  O  O11  1  0.72137600  0.88745400  0.66423500  1
  O  O12  1  0.21126200  0.63643100  0.83889700  1
  O  O13  1  0.27862400  0.88745400  0.66423500  1
  O  O14  1  0.71126200  0.85971400  0.16085400  1
  O  O15  1  0.77577100  0.61299800  0.34260200  1
  O  O16  1  0.50000000  0.11399300  0.08715100  1
  O  O17  1  0.00000000  0.37923200  0.44477500  1
  O  O18  1  0.00000000  0.37882200  0.90770400  1
  O  O19  1  0.50000000  0.13170700  0.59699900  1
  O  O20  1  0.50000000  0.38753600  0.45153400  1
  O  O21  1  0.00000000  0.12751800  0.04087300  1
  O  O22  1  0.00000000  0.10806200  0.55150900  1
  O  O23  1  0.50000000  0.36093000  0.94665100  1
  O  O24  1  0.28741500  0.35562400  0.16000200  1
  O  O25  1  0.22183500  0.11334600  0.33702000  1
  O  O26  1  0.78765400  0.13747800  0.83152900  1
  O  O27  1  0.72074900  0.38982700  0.66560100  1
  O  O28  1  0.21234600  0.13747800  0.83152900  1
  O  O29  1  0.27925100  0.38982700  0.66560100  1
  O  O30  1  0.71258500  0.35562400  0.16000200  1
  O  O31  1  0.77816500  0.11334600  0.33702000  1
loop_
_geom_bond_atom_site_label_1
_geom_bond_atom_site_label_2
_geom_bond_distance
_geom_bond_site_symmetry_2
Mg0 O7 2.054385 1_555
Mg0 O21 2.085593 1_566
Mg0 O16 2.119552 1_566
Mg0 O2 2.140802 1_555
Mg0 O8 2.178817 1_556
Mg0 O28 2.186082 1_565
Mg1 O4 2.052179 1_555
Mg1 O3 2.099496 1_555
Mg1 O6 2.105161 1_555
Mg1 O13 2.135648 1_555
Mg1 O1 2.145855 1_555
Mg1 O9 2.198790 1_555
Mg2 O7 2.054385 1_555
Mg2 O21 2.085593 1_666
Mg2 O16 2.119552 1_566
Mg2 O2 2.140802 1_655
Mg2 O14 2.178817 1_556
Mg2 O26 2.186082 1_565
Mg3 O4 2.052179 1_555
Mg3 O3 2.099496 1_555
Mg3 O6 2.105161 1_655
Mg3 O11 2.135648 1_555
Mg3 O1 2.145855 1_655
Mg3 O15 2.198790 1_555
Mg4 O20 2.091732 1_555
Mg4 O9 2.114080 1_555
Mg4 O15 2.114080 1_555
Mg4 O0 2.212521 1_555
Mg4 O24 2.284407 1_555
Mg4 O30 2.284407 1_555
Mg5 O5 2.099622 1_555
Mg5 O8 2.110876 1_555
Mg5 O14 2.110876 1_455
Mg5 O1 2.266396 1_555
Mg5 O15 2.313590 1_455
Mg5 O9 2.313590 1_555
Mg6 O13 2.064235 1_555
Mg6 O11 2.064235 1_455
Mg6 O22 2.087769 1_565
Mg6 O2 2.189961 1_555
Mg6 O28 2.241715 1_565
Mg6 O26 2.241715 1_465
Mg7 O7 2.095349 1_555
Mg7 O12 2.120876 1_555
Mg7 O10 2.120876 1_555
Mg7 O3 2.232033 1_555
Mg7 O13 2.273195 1_555
Mg7 O11 2.273195 1_555
Mg8 O23 2.079066 1_554
Mg8 O0 2.119247 1_555
Mg8 O5 2.128120 1_555
Mg8 O24 2.152468 1_555
Mg8 O12 2.162583 1_554
Mg8 O18 2.170699 1_554
Mg9 O19 2.021641 1_555
Mg9 O20 2.088334 1_555
Mg9 O22 2.105661 1_555
Mg9 O17 2.158222 1_555
Mg9 O29 2.168471 1_555
Mg9 O25 2.242364 1_555
Mg10 O23 2.079066 1_554
Mg10 O0 2.119247 1_555
Mg10 O5 2.128120 1_655
Mg10 O30 2.152468 1_555
Mg10 O10 2.162583 1_554
Mg10 O18 2.170699 1_654
Mg11 O19 2.021641 1_555
Mg11 O20 2.088334 1_555
Mg11 O22 2.105661 1_655
Mg11 O17 2.158222 1_655
Mg11 O27 2.168471 1_555
Mg11 O31 2.242364 1_555
Mg12 O31 2.095678 1_555
Mg12 O25 2.095678 1_555
Mg12 O4 2.099465 1_545
Mg12 O16 2.230942 1_555
Mg12 O14 2.261100 1_545
Mg12 O8 2.261100 1_545
Mg13 O21 1.933300 1_555
Mg13 O30 2.143649 1_455
Mg13 O24 2.143649 1_555
Mg13 O31 2.293133 1_455
Mg13 O25 2.293133 1_555
Mg14 O27 2.087295 1_455
Mg14 O29 2.087295 1_555
Mg14 O6 2.112026 1_555
Mg14 O18 2.211022 1_555
Mg14 O10 2.221616 1_455
Mg14 O12 2.221616 1_555
Mg15 O23 2.063446 1_555
Mg15 O26 2.118466 1_555
Mg15 O28 2.118466 1_555
Mg15 O27 2.245449 1_555
Mg15 O29 2.245449 1_555
Mg15 O19 2.246025 1_555
H0 O17 1.039553 1_555
H0 Mg13 1.972605 1_555
O0 Si0 1.640189 1_555
O1 Si5 1.638459 1_565
O2 Si2 1.634984 1_555
O3 Si7 1.638384 1_555
O4 Si3 1.680576 1_555
O5 Si2 1.678047 1_554
O6 Si1 1.653029 1_555
O7 Si0 1.684236 1_556
O8 Si0 1.636158 1_555
O9 Si1 1.665457 1_555
O10 Si2 1.634859 1_655
O11 Si3 1.679645 1_555
O12 Si2 1.634859 1_555
O13 Si3 1.679645 1_555
O14 Si0 1.636158 1_555
O15 Si1 1.665457 1_655
O16 Si4 1.641085 1_555
O17 Si1 1.701483 1_555
O18 Si6 1.636039 1_555
O19 Si3 1.632609 1_545
O20 Si7 1.687209 1_555
O21 Si6 1.683425 1_554
O22 Si5 1.683603 1_555
O23 Si4 1.678351 1_556
O24 Si4 1.638998 1_555
O25 Si5 1.685283 1_555
O26 Si6 1.630512 1_655
O27 Si7 1.686028 1_555
O28 Si6 1.630512 1_555
O29 Si7 1.686028 1_555
O30 Si4 1.638998 1_555
O31 Si5 1.685283 1_655
