# generated using pymatgen
data_Cu5Bi2(B2O7)2
_symmetry_space_group_name_H-M   'P 1'
_cell_length_a   3.62113173
_cell_length_b   9.26261231
_cell_length_c   10.23856555
_cell_angle_alpha   67.34611701
_cell_angle_beta   81.69476349
_cell_angle_gamma   82.53334546
_symmetry_Int_Tables_number   1
_chemical_formula_structural   Cu5Bi2(B2O7)2
_chemical_formula_sum   'Cu5 Bi2 B4 O14'
_cell_volume   312.55448681
_cell_formula_units_Z   1
loop_
 _symmetry_equiv_pos_site_id
 _symmetry_equiv_pos_as_xyz
  1  'x, y, z'
loop_
 _atom_site_type_symbol
 _atom_site_label
 _atom_site_symmetry_multiplicity
 _atom_site_fract_x
 _atom_site_fract_y
 _atom_site_fract_z
 _atom_site_occupancy
  Cu  Cu0  1  0.04207800  0.42205700  0.00407100  1
  Cu  Cu1  1  0.09959000  0.60106900  0.65881500  1
  Cu  Cu2  1  0.54874800  0.42063400  0.50428800  1
  Cu  Cu3  1  0.98134700  0.24137400  0.35317900  1
  Cu  Cu4  1  0.05273800  0.92121900  0.50650700  1
  Bi  Bi0  1  0.56059500  0.77768300  0.83257000  1
  Bi  Bi1  1  0.52530800  0.06724200  0.17743700  1
  B  B0  1  0.90930300  0.12570100  0.67690500  1
  B  B1  1  0.55157900  0.28650000  0.81417600  1
  B  B2  1  0.19262300  0.71919700  0.33496000  1
  B  B3  1  0.54453900  0.56000000  0.19521400  1
  O  O0  1  0.38773500  0.08000000  0.38825400  1
  O  O1  1  0.97983800  0.22519800  0.16980800  1
  O  O2  1  0.17579400  0.59706800  0.46422700  1
  O  O3  1  0.46297400  0.29042400  0.94737700  1
  O  O4  1  0.70135800  0.76737700  0.62148300  1
  O  O5  1  0.62523000  0.55549300  0.06213600  1
  O  O6  1  0.43889200  0.40867600  0.69597700  1
  O  O7  1  0.03499700  0.97378800  0.68944300  1
  O  O8  1  0.34793100  0.69641600  0.20952700  1
  O  O9  1  0.06405800  0.87070700  0.32350700  1
  O  O10  1  0.11021000  0.62069500  0.84056000  1
  O  O11  1  0.76113700  0.15165700  0.80149800  1
  O  O12  1  0.92424500  0.24624800  0.54685900  1
  O  O13  1  0.65405500  0.43627800  0.31242200  1
loop_
_geom_bond_atom_site_label_1
_geom_bond_atom_site_label_2
_geom_bond_distance
_geom_bond_site_symmetry_2
Cu0 O1 1.966716 1_455
Cu0 O10 1.968419 1_554
Cu0 O3 1.988247 1_554
Cu0 O5 1.995349 1_455
Cu1 O4 1.930521 1_455
Cu1 O10 1.944274 1_555
Cu1 O6 1.968194 1_555
Cu1 O2 1.985493 1_555
Cu2 O13 1.898442 1_555
Cu2 O6 1.908098 1_555
Cu2 O12 1.925092 1_555
Cu2 O2 1.932078 1_555
Cu3 O0 1.922570 1_655
Cu3 O1 1.940926 1_555
Cu3 O13 1.960716 1_555
Cu3 O12 1.981208 1_555
Cu4 O0 1.941172 1_565
Cu4 O4 1.944643 1_455
Cu4 O9 2.092678 1_555
Cu4 O7 2.099766 1_555
Bi0 O4 2.183544 1_555
Bi0 O10 2.295033 1_555
Bi0 O10 2.299002 1_655
Bi0 O5 2.474331 1_556
Bi0 O7 2.535989 1_655
Bi0 O7 2.631739 1_555
Bi1 O0 2.188984 1_555
Bi1 O1 2.292087 1_455
Bi1 O1 2.314398 1_555
Bi1 O3 2.480744 1_554
Bi1 O9 2.512310 1_545
Bi1 O9 2.679403 1_645
B0 O12 1.368272 1_555
B0 O7 1.383795 1_645
B0 O11 1.406400 1_555
B1 O3 1.368548 1_555
B1 O6 1.370911 1_555
B1 O11 1.415198 1_555
B2 O2 1.369804 1_555
B2 O9 1.385337 1_555
B2 O8 1.406902 1_555
B3 O5 1.367199 1_555
B3 O13 1.367717 1_555
B3 O8 1.415501 1_555
