# generated using pymatgen
data_KP4N7
_symmetry_space_group_name_H-M   'P 1'
_cell_length_a   4.66341292
_cell_length_b   9.84309957
_cell_length_c   12.24682325
_cell_angle_alpha   90.00000000
_cell_angle_beta   90.00000000
_cell_angle_gamma   90.00000000
_symmetry_Int_Tables_number   1
_chemical_formula_structural   KP4N7
_chemical_formula_sum   'K4 P16 N28'
_cell_volume   562.15904135
_cell_formula_units_Z   4
loop_
 _symmetry_equiv_pos_site_id
 _symmetry_equiv_pos_as_xyz
  1  'x, y, z'
loop_
 _atom_site_type_symbol
 _atom_site_label
 _atom_site_symmetry_multiplicity
 _atom_site_fract_x
 _atom_site_fract_y
 _atom_site_fract_z
 _atom_site_occupancy
  K  K0  1  0.26008075  0.15110804  0.75000000  1
  K  K1  1  0.76008075  0.34889196  0.25000000  1
  K  K2  1  0.73991925  0.84889196  0.25000000  1
  K  K3  1  0.23991925  0.65110804  0.75000000  1
  P  P0  1  0.78849160  0.41165056  0.86922486  1
  P  P1  1  0.28849160  0.08834944  0.13077514  1
  P  P2  1  0.21150840  0.58834944  0.36922486  1
  P  P3  1  0.71150840  0.91165056  0.63077514  1
  P  P4  1  0.21150840  0.58834944  0.13077514  1
  P  P5  1  0.71150840  0.91165056  0.86922486  1
  P  P6  1  0.78849160  0.41165056  0.63077514  1
  P  P7  1  0.28849160  0.08834944  0.36922486  1
  P  P8  1  0.78122525  0.15667482  -0.00038270  1
  P  P9  1  0.28122525  0.34332518  0.00038270  1
  P  P10  1  0.21877475  0.84332518  0.49961730  1
  P  P11  1  0.71877475  0.65667482  0.50038270  1
  P  P12  1  0.21877475  0.84332518  0.00038270  1
  P  P13  1  0.71877475  0.65667482  -0.00038270  1
  P  P14  1  0.78122525  0.15667482  0.50038270  1
  P  P15  1  0.28122525  0.34332518  0.49961730  1
  N  N0  1  0.70322989  0.36722109  0.75000000  1
  N  N1  1  0.20322989  0.13277891  0.25000000  1
  N  N2  1  0.29677011  0.63277891  0.25000000  1
  N  N3  1  0.79677011  0.86722109  0.75000000  1
  N  N4  1  0.12057679  0.38734060  0.89336370  1
  N  N5  1  0.62057679  0.11265940  0.10663630  1
  N  N6  1  0.87942321  0.61265940  0.39336370  1
  N  N7  1  0.37942321  0.88734060  0.60663630  1
  N  N8  1  0.87942321  0.61265940  0.10663630  1
  N  N9  1  0.37942321  0.88734060  0.89336370  1
  N  N10  1  0.12057679  0.38734060  0.60663630  1
  N  N11  1  0.62057679  0.11265940  0.39336370  1
  N  N12  1  0.81796121  0.06147012  0.89705391  1
  N  N13  1  0.31796121  0.43852988  0.10294609  1
  N  N14  1  0.18203879  0.93852988  0.39705391  1
  N  N15  1  0.68203879  0.56147012  0.60294609  1
  N  N16  1  0.18203879  0.93852988  0.10294609  1
  N  N17  1  0.68203879  0.56147012  0.89705391  1
  N  N18  1  0.81796121  0.06147012  0.60294609  1
  N  N19  1  0.31796121  0.43852988  0.39705391  1
  N  N20  1  0.61852771  0.30113865  0.95762080  1
  N  N21  1  0.11852771  0.19886135  0.04237920  1
  N  N22  1  0.38147229  0.69886135  0.45762080  1
  N  N23  1  0.88147229  0.80113865  0.54237920  1
  N  N24  1  0.38147229  0.69886135  0.04237920  1
  N  N25  1  0.88147229  0.80113865  0.95762080  1
  N  N26  1  0.61852771  0.30113865  0.54237920  1
  N  N27  1  0.11852771  0.19886135  0.45762080  1
loop_
_geom_bond_atom_site_label_1
_geom_bond_atom_site_label_2
_geom_bond_distance
_geom_bond_site_symmetry_2
K0 N18 2.876254 1_455
K0 N12 2.876254 1_455
K0 N0 2.965781 1_555
K0 N4 2.985419 1_555
K0 N10 2.985419 1_555
K0 N9 3.183255 1_545
K0 N7 3.183255 1_545
K0 N12 3.284865 1_555
K0 N18 3.284865 1_555
K0 N0 3.356870 1_455
K0 N20 3.382357 1_555
K0 N26 3.382357 1_555
K1 N19 2.876254 1_555
K1 N13 2.876254 1_555
K1 N1 2.965781 1_655
K1 N11 2.985419 1_555
K1 N5 2.985419 1_555
K1 N6 3.183255 1_555
K1 N8 3.183255 1_555
K1 N19 3.284865 1_655
K1 N13 3.284865 1_655
K1 N1 3.356870 1_555
K1 N21 3.382357 1_655
K1 N27 3.382357 1_655
K2 N16 2.876254 1_655
K2 N14 2.876254 1_655
K2 N2 2.965781 1_555
K2 N6 2.985419 1_555
K2 N8 2.985419 1_555
K2 N11 3.183255 1_565
K2 N5 3.183255 1_565
K2 N14 3.284865 1_555
K2 N16 3.284865 1_555
K2 N2 3.356870 1_655
K2 N22 3.382357 1_555
K2 N24 3.382357 1_555
K3 N15 2.876254 1_555
K3 N17 2.876254 1_555
K3 N3 2.965781 1_455
K3 N7 2.985419 1_555
K3 N9 2.985419 1_555
K3 N4 3.183255 1_555
K3 N10 3.183255 1_555
K3 N17 3.284865 1_455
K3 N15 3.284865 1_455
K3 N3 3.356870 1_555
K3 N25 3.382357 1_455
K3 N23 3.382357 1_455
N0 P6 1.575219 1_555
N0 P0 1.575219 1_555
N1 P1 1.575219 1_555
N1 P7 1.575219 1_555
N2 P4 1.575219 1_555
N2 P2 1.575219 1_555
N3 P5 1.575219 1_555
N3 P3 1.575219 1_555
N4 P9 1.570587 1_556
N4 P0 1.594669 1_455
N5 P8 1.570587 1_555
N5 P1 1.594669 1_555
N6 P11 1.570587 1_555
N6 P2 1.594669 1_655
N7 P10 1.570587 1_555
N7 P3 1.594669 1_555
N8 P13 1.570587 1_555
N8 P4 1.594669 1_655
N9 P12 1.570587 1_556
N9 P5 1.594669 1_555
N10 P15 1.570587 1_555
N10 P6 1.594669 1_455
N11 P14 1.570587 1_555
N11 P7 1.594669 1_555
N12 P8 1.576467 1_556
N12 P5 1.592894 1_545
N13 P9 1.576467 1_555
N13 P4 1.592894 1_555
N14 P10 1.576467 1_555
N14 P7 1.592894 1_565
N15 P11 1.576467 1_555
N15 P6 1.592894 1_555
N16 P12 1.576467 1_555
N16 P1 1.592894 1_565
N17 P13 1.576467 1_556
N17 P0 1.592894 1_555
N18 P14 1.576467 1_555
N18 P3 1.592894 1_545
N19 P15 1.576467 1_555
N19 P2 1.592894 1_555
N20 P8 1.691803 1_556
N20 P9 1.709081 1_556
N20 P0 1.727268 1_555
N21 P9 1.691803 1_555
N21 P8 1.709081 1_455
N21 P1 1.727268 1_555
N22 P10 1.691803 1_555
N22 P11 1.709081 1_555
N22 P2 1.727268 1_555
N23 P11 1.691803 1_555
N23 P10 1.709081 1_655
N23 P3 1.727268 1_555
N24 P12 1.691803 1_555
N24 P13 1.709081 1_555
N24 P4 1.727268 1_555
N25 P13 1.691803 1_556
N25 P12 1.709081 1_656
N25 P5 1.727268 1_555
N26 P14 1.691803 1_555
N26 P15 1.709081 1_555
N26 P6 1.727268 1_555
N27 P15 1.691803 1_555
N27 P14 1.709081 1_455
N27 P7 1.727268 1_555
