# generated using pymatgen
data_AgTe
_symmetry_space_group_name_H-M   'P 1'
_cell_length_a   4.78356307
_cell_length_b   8.96352613
_cell_length_c   20.05097390
_cell_angle_alpha   90.00000000
_cell_angle_beta   90.00000000
_cell_angle_gamma   90.00000000
_symmetry_Int_Tables_number   1
_chemical_formula_structural   AgTe
_chemical_formula_sum   'Ag16 Te16'
_cell_volume   859.73748956
_cell_formula_units_Z   16
loop_
 _symmetry_equiv_pos_site_id
 _symmetry_equiv_pos_as_xyz
  1  'x, y, z'
loop_
 _atom_site_type_symbol
 _atom_site_label
 _atom_site_symmetry_multiplicity
 _atom_site_fract_x
 _atom_site_fract_y
 _atom_site_fract_z
 _atom_site_occupancy
  Ag  Ag0  1  0.42032903  0.99473660  0.07149005  1
  Ag  Ag1  1  0.69664477  0.25000000  0.84030859  1
  Ag  Ag2  1  0.57967097  0.49473660  0.92850995  1
  Ag  Ag3  1  0.19664477  0.75000000  0.65969141  1
  Ag  Ag4  1  0.28418493  0.75000000  0.43999208  1
  Ag  Ag5  1  0.07967097  0.99473660  0.57149005  1
  Ag  Ag6  1  0.78418493  0.25000000  0.06000792  1
  Ag  Ag7  1  0.42032903  0.50526340  0.07149005  1
  Ag  Ag8  1  0.92032903  0.49473660  0.42850995  1
  Ag  Ag9  1  0.21581507  0.75000000  0.93999208  1
  Ag  Ag10  1  0.57967097  0.00526340  0.92850995  1
  Ag  Ag11  1  0.07967097  0.50526340  0.57149005  1
  Ag  Ag12  1  0.30335523  0.75000000  0.15969141  1
  Ag  Ag13  1  0.71581507  0.25000000  0.56000792  1
  Ag  Ag14  1  0.80335523  0.25000000  0.34030859  1
  Ag  Ag15  1  0.92032903  0.00526340  0.42850995  1
  Te  Te0  1  0.54114595  0.01914898  0.65705226  1
  Te  Te1  1  0.04114595  0.98085102  0.84294774  1
  Te  Te2  1  0.70380352  0.75000000  0.26154020  1
  Te  Te3  1  0.79619648  0.75000000  0.76154020  1
  Te  Te4  1  0.04114595  0.51914898  0.84294774  1
  Te  Te5  1  0.79453871  0.75000000  0.51794870  1
  Te  Te6  1  0.20380352  0.25000000  0.23845980  1
  Te  Te7  1  0.54114595  0.48085102  0.65705226  1
  Te  Te8  1  0.45885405  0.51914898  0.34294774  1
  Te  Te9  1  0.20546129  0.25000000  0.48205130  1
  Te  Te10  1  0.45885405  0.98085102  0.34294774  1
  Te  Te11  1  0.70546129  0.75000000  0.01794870  1
  Te  Te12  1  0.95885405  0.01914898  0.15705226  1
  Te  Te13  1  0.29619648  0.25000000  0.73845980  1
  Te  Te14  1  0.29453871  0.25000000  0.98205130  1
  Te  Te15  1  0.95885405  0.48085102  0.15705226  1
loop_
_geom_bond_atom_site_label_1
_geom_bond_atom_site_label_2
_geom_bond_distance
_geom_bond_site_symmetry_2
Ag0 Te11 2.797358 1_555
Ag0 Te12 2.804321 1_465
Ag0 Ag12 2.872822 1_555
Ag0 Ag6 2.884035 1_565
Ag0 Ag10 2.967987 1_564
Ag0 Te14 2.968727 1_564
Ag0 Te12 3.102791 1_565
Ag1 Te13 2.799974 1_555
Ag1 Ag2 2.872822 1_555
Ag1 Ag10 2.872822 1_555
Ag1 Te4 2.922121 1_655
Ag1 Te1 2.922121 1_645
Ag1 Te14 3.431802 1_555
Ag1 Te13 3.520772 1_655
Ag2 Te14 2.797358 1_555
Ag2 Te4 2.804321 1_655
Ag2 Ag9 2.884035 1_555
Ag2 Ag7 2.967987 1_556
Ag2 Te11 2.968727 1_556
Ag2 Te4 3.102791 1_555
Ag3 Te3 2.799974 1_455
Ag3 Ag5 2.872822 1_555
Ag3 Te0 2.922121 1_565
Ag3 Te7 2.922121 1_555
Ag3 Te5 3.431802 1_455
Ag3 Te3 3.520772 1_555
Ag4 Te5 2.815928 1_455
Ag4 Ag8 2.884035 1_455
Ag4 Te5 2.898843 1_555
Ag4 Te8 2.960768 1_555
Ag4 Te10 2.960768 1_555
Ag5 Te5 2.797358 1_455
Ag5 Te0 2.804321 1_565
Ag5 Te9 2.968727 1_565
Ag5 Te0 3.102791 1_465
Ag6 Te14 2.815928 1_554
Ag6 Ag7 2.884035 1_555
Ag6 Te14 2.898843 1_654
Ag6 Te12 2.960768 1_555
Ag6 Te15 2.960768 1_555
Ag7 Te11 2.797358 1_555
Ag7 Te15 2.804321 1_455
Ag7 Te14 2.968727 1_554
Ag7 Te15 3.102791 1_555
Ag8 Te9 2.797358 1_655
Ag8 Te8 2.804321 1_555
Ag8 Te5 2.968727 1_555
Ag8 Te8 3.102791 1_655
Ag9 Te11 2.815928 1_556
Ag9 Te11 2.898843 1_456
Ag9 Te4 2.960768 1_555
Ag9 Te1 2.960768 1_555
Ag10 Te14 2.797358 1_555
Ag10 Te1 2.804321 1_645
Ag10 Ag9 2.884035 1_545
Ag10 Te11 2.968727 1_546
Ag10 Te1 3.102791 1_545
Ag11 Te5 2.797358 1_455
Ag11 Te7 2.804321 1_555
Ag11 Ag3 2.872822 1_555
Ag11 Ag13 2.884035 1_455
Ag11 Ag8 2.967987 1_455
Ag11 Te9 2.968727 1_555
Ag11 Te7 3.102791 1_455
Ag12 Te2 2.799974 1_555
Ag12 Ag7 2.872822 1_555
Ag12 Te15 2.922121 1_455
Ag12 Te12 2.922121 1_465
Ag12 Te11 3.431802 1_555
Ag12 Te2 3.520772 1_455
Ag13 Te9 2.815928 1_655
Ag13 Ag5 2.884035 1_645
Ag13 Te9 2.898843 1_555
Ag13 Te0 2.960768 1_555
Ag13 Te7 2.960768 1_555
Ag14 Te6 2.799974 1_655
Ag14 Ag8 2.872822 1_555
Ag14 Ag15 2.872822 1_555
Ag14 Te10 2.922121 1_545
Ag14 Te8 2.922121 1_555
Ag14 Te9 3.431802 1_655
Ag14 Te6 3.520772 1_555
Ag15 Te9 2.797358 1_655
Ag15 Te10 2.804321 1_545
Ag15 Ag4 2.884035 1_645
Ag15 Ag5 2.967987 1_645
Ag15 Te5 2.968727 1_545
Ag15 Te10 3.102791 1_645
Te0 Te13 2.884287 1_555
Te1 Te3 2.884287 1_455
Te2 Te8 2.884287 1_555
Te3 Te4 2.884287 1_655
Te10 Te2 2.884287 1_555
Te12 Te6 2.884287 1_655
Te13 Te7 2.884287 1_555
Te15 Te6 2.884287 1_655
