# generated using pymatgen
data_Pb5(IF4)2
_symmetry_space_group_name_H-M   'P 1'
_cell_length_a   19.62513153
_cell_length_b   19.62513153
_cell_length_c   19.62513148
_cell_angle_alpha   12.69449305
_cell_angle_beta   12.69449305
_cell_angle_gamma   12.69449391
_symmetry_Int_Tables_number   1
_chemical_formula_structural   Pb5(IF4)2
_chemical_formula_sum   'Pb5 I2 F8'
_cell_volume   317.40128820
_cell_formula_units_Z   1
loop_
 _symmetry_equiv_pos_site_id
 _symmetry_equiv_pos_as_xyz
  1  'x, y, z'
loop_
 _atom_site_type_symbol
 _atom_site_label
 _atom_site_symmetry_multiplicity
 _atom_site_fract_x
 _atom_site_fract_y
 _atom_site_fract_z
 _atom_site_occupancy
  Pb  Pb0  1  0.99398600  0.99398600  0.99398600  1
  Pb  Pb1  1  0.61125100  0.61125100  0.61125100  1
  Pb  Pb2  1  0.52273800  0.52273800  0.52273800  1
  Pb  Pb3  1  0.80665800  0.80665800  0.80665800  1
  Pb  Pb4  1  0.08018800  0.08018800  0.08018800  1
  I  I0  1  0.23987700  0.23987700  0.23987700  1
  I  I1  1  0.37583100  0.37583100  0.37583100  1
  F  F0  1  0.85336400  0.85336400  0.85336400  1
  F  F1  1  0.75834300  0.75834300  0.75834300  1
  F  F2  1  0.65995100  0.65995100  0.65995100  1
  F  F3  1  0.48102100  0.48102100  0.48102100  1
  F  F4  1  0.12025900  0.12025900  0.12025900  1
  F  F5  1  0.95250900  0.95250900  0.95250900  1
  F  F6  1  0.30703800  0.30703800  0.30703800  1
  F  F7  1  0.17078700  0.17078700  0.17078700  1
loop_
_geom_bond_atom_site_label_1
_geom_bond_atom_site_label_2
_geom_bond_distance
_geom_bond_site_symmetry_2
I0 Pb1 3.348246 1_554
I0 Pb1 3.348246 1_455
I0 Pb1 3.348246 1_545
I1 Pb4 3.334709 1_556
I1 Pb4 3.334709 1_565
I1 Pb4 3.334709 1_655
F0 Pb2 2.510262 1_556
F0 Pb2 2.510262 1_655
F0 Pb2 2.510262 1_565
F0 Pb3 2.727336 1_555
F1 Pb4 2.593541 1_665
F1 Pb4 2.593541 1_566
F1 Pb4 2.593541 1_656
F2 Pb0 2.505613 1_554
F2 Pb0 2.505614 1_455
F2 Pb0 2.505614 1_545
F3 Pb2 2.436010 1_555
F3 Pb3 2.545269 1_554
F3 Pb3 2.545270 1_545
F3 Pb3 2.545270 1_455
F4 Pb4 2.339894 1_555
F5 Pb0 2.421996 1_555
F5 Pb1 2.547657 1_556
F5 Pb1 2.547658 1_565
F5 Pb1 2.547658 1_655
F6 Pb0 2.771099 1_445
F6 Pb0 2.771100 1_544
F6 Pb0 2.771100 1_454
F7 Pb2 2.730993 1_554
F7 Pb2 2.730994 1_545
F7 Pb2 2.730994 1_455
