# generated using pymatgen
data_Bi2Pd
_symmetry_space_group_name_H-M   'P 1'
_cell_length_a   6.77335638
_cell_length_b   6.77335896
_cell_length_c   14.08618650
_cell_angle_alpha   103.91164419
_cell_angle_beta   103.91165277
_cell_angle_gamma   90.00000579
_symmetry_Int_Tables_number   1
_chemical_formula_structural   Bi2Pd
_chemical_formula_sum   'Bi16 Pd8'
_cell_volume   607.74818735
_cell_formula_units_Z   8
loop_
 _symmetry_equiv_pos_site_id
 _symmetry_equiv_pos_as_xyz
  1  'x, y, z'
loop_
 _atom_site_type_symbol
 _atom_site_label
 _atom_site_symmetry_multiplicity
 _atom_site_fract_x
 _atom_site_fract_y
 _atom_site_fract_z
 _atom_site_occupancy
  Bi  Bi0_0  1  0.31615831  0.31615831  0.13231762  1
  Bi  Bi0_1  1  0.31615831  0.31615831  0.63231762  1
  Bi  Bi0_2  1  0.31615831  0.81615831  0.13231762  1
  Bi  Bi0_3  1  0.31615831  0.81615831  0.63231762  1
  Bi  Bi0_4  1  0.81615831  0.31615831  0.13231762  1
  Bi  Bi0_5  1  0.81615831  0.31615831  0.63231762  1
  Bi  Bi0_6  1  0.81615831  0.81615831  0.13231762  1
  Bi  Bi0_7  1  0.81615831  0.81615831  0.63231762  1
  Bi  Bi1_0  1  0.18384169  0.18384169  0.36768238  1
  Bi  Bi1_1  1  0.18384169  0.18384169  0.86768238  1
  Bi  Bi1_2  1  0.18384169  0.68384169  0.36768238  1
  Bi  Bi1_3  1  0.18384169  0.68384169  0.86768238  1
  Bi  Bi1_4  1  0.68384169  0.18384169  0.36768238  1
  Bi  Bi1_5  1  0.68384169  0.18384169  0.86768238  1
  Bi  Bi1_6  1  0.68384169  0.68384169  0.36768238  1
  Bi  Bi1_7  1  0.68384169  0.68384169  0.86768238  1
  Pd  Pd0_0  1  0.00000000  0.00000000  0.00000000  1
  Pd  Pd0_1  1  0.00000000  0.00000000  0.50000000  1
  Pd  Pd0_2  1  0.00000000  0.50000000  0.00000000  1
  Pd  Pd0_3  1  0.00000000  0.50000000  0.50000000  1
  Pd  Pd0_4  1  0.50000000  0.00000000  0.00000000  1
  Pd  Pd0_5  1  0.50000000  0.00000000  0.50000000  1
  Pd  Pd0_6  1  0.50000000  0.50000000  0.00000000  1
  Pd  Pd0_7  1  0.50000000  0.50000000  0.50000000  1
loop_
_geom_bond_atom_site_label_1
_geom_bond_atom_site_label_2
_geom_bond_distance
_geom_bond_site_symmetry_2
Bi0_0 Pd0_0 2.967675 1_555
Bi0_0 Pd0_2 2.967679 1_555
Bi0_0 Pd0_4 2.967679 1_555
Bi0_0 Pd0_6 2.967682 1_555
Bi0_0 Bi0_4 3.386678 1_455
Bi0_0 Bi0_4 3.386678 1_555
Bi0_0 Bi0_2 3.386679 1_555
Bi0_0 Bi0_2 3.386679 1_545
Bi0_1 Pd0_1 2.967675 1_555
Bi0_1 Pd0_3 2.967679 1_555
Bi0_1 Pd0_5 2.967679 1_555
Bi0_1 Pd0_7 2.967682 1_555
Bi0_1 Bi0_5 3.386678 1_455
Bi0_1 Bi0_5 3.386678 1_555
Bi0_1 Bi0_3 3.386679 1_555
Bi0_1 Bi0_3 3.386679 1_545
Bi0_2 Pd0_2 2.967675 1_555
Bi0_2 Pd0_0 2.967679 1_565
Bi0_2 Pd0_6 2.967679 1_555
Bi0_2 Pd0_4 2.967682 1_565
Bi0_2 Bi0_6 3.386678 1_555
Bi0_2 Bi0_6 3.386678 1_455
Bi0_3 Pd0_3 2.967675 1_555
Bi0_3 Pd0_1 2.967679 1_565
Bi0_3 Pd0_7 2.967679 1_555
Bi0_3 Pd0_5 2.967682 1_565
Bi0_3 Bi0_7 3.386678 1_555
Bi0_3 Bi0_7 3.386678 1_455
Bi0_4 Pd0_4 2.967675 1_555
Bi0_4 Pd0_6 2.967679 1_555
Bi0_4 Pd0_0 2.967679 1_655
Bi0_4 Pd0_2 2.967682 1_655
Bi0_4 Bi0_6 3.386679 1_555
Bi0_4 Bi0_6 3.386679 1_545
Bi0_5 Pd0_5 2.967675 1_555
Bi0_5 Pd0_7 2.967679 1_555
Bi0_5 Pd0_1 2.967679 1_655
Bi0_5 Pd0_3 2.967682 1_655
Bi0_5 Bi0_7 3.386679 1_545
Bi0_5 Bi0_7 3.386679 1_555
Bi0_6 Pd0_6 2.967675 1_555
Bi0_6 Pd0_4 2.967679 1_565
Bi0_6 Pd0_2 2.967679 1_655
Bi0_6 Pd0_0 2.967682 1_665
Bi0_7 Pd0_7 2.967675 1_555
Bi0_7 Pd0_5 2.967679 1_565
Bi0_7 Pd0_3 2.967679 1_655
Bi0_7 Pd0_1 2.967682 1_665
Bi1_0 Pd0_7 2.967675 1_555
Bi1_0 Pd0_5 2.967679 1_555
Bi1_0 Pd0_3 2.967679 1_555
Bi1_0 Pd0_1 2.967682 1_555
Bi1_0 Bi1_4 3.386678 1_555
Bi1_0 Bi1_4 3.386678 1_455
Bi1_0 Bi1_2 3.386679 1_545
Bi1_0 Bi1_2 3.386679 1_555
Bi1_1 Pd0_6 2.967675 1_556
Bi1_1 Pd0_4 2.967679 1_556
Bi1_1 Pd0_2 2.967679 1_556
Bi1_1 Pd0_0 2.967682 1_556
Bi1_1 Bi1_5 3.386678 1_555
Bi1_1 Bi1_5 3.386678 1_455
Bi1_1 Bi1_3 3.386679 1_555
Bi1_1 Bi1_3 3.386679 1_545
Bi1_2 Pd0_5 2.967675 1_565
Bi1_2 Pd0_7 2.967679 1_555
Bi1_2 Pd0_1 2.967679 1_565
Bi1_2 Pd0_3 2.967682 1_555
Bi1_2 Bi1_6 3.386678 1_555
Bi1_2 Bi1_6 3.386678 1_455
Bi1_3 Pd0_4 2.967675 1_566
Bi1_3 Pd0_6 2.967679 1_556
Bi1_3 Pd0_0 2.967679 1_566
Bi1_3 Pd0_2 2.967682 1_556
Bi1_3 Bi1_7 3.386678 1_455
Bi1_3 Bi1_7 3.386678 1_555
Bi1_4 Pd0_3 2.967675 1_655
Bi1_4 Pd0_1 2.967679 1_655
Bi1_4 Pd0_7 2.967679 1_555
Bi1_4 Pd0_5 2.967682 1_555
Bi1_4 Bi1_6 3.386679 1_545
Bi1_4 Bi1_6 3.386679 1_555
Bi1_5 Pd0_2 2.967675 1_656
Bi1_5 Pd0_0 2.967679 1_656
Bi1_5 Pd0_6 2.967679 1_556
Bi1_5 Pd0_4 2.967682 1_556
Bi1_5 Bi1_7 3.386679 1_555
Bi1_5 Bi1_7 3.386679 1_545
Bi1_6 Pd0_1 2.967675 1_665
Bi1_6 Pd0_3 2.967679 1_655
Bi1_6 Pd0_5 2.967679 1_565
Bi1_6 Pd0_7 2.967682 1_555
Bi1_7 Pd0_0 2.967675 1_666
Bi1_7 Pd0_2 2.967679 1_656
Bi1_7 Pd0_4 2.967679 1_566
Bi1_7 Pd0_6 2.967682 1_556
