# generated using pymatgen
data_V7O3
_symmetry_space_group_name_H-M   'P 1'
_cell_length_a   10.75730758
_cell_length_b   10.75730758
_cell_length_c   17.69336035
_cell_angle_alpha   87.97225913
_cell_angle_beta   87.97225913
_cell_angle_gamma   33.95415002
_symmetry_Int_Tables_number   1
_chemical_formula_structural   V7O3
_chemical_formula_sum   'V56 O24'
_cell_volume   1142.78899781
_cell_formula_units_Z   8
loop_
 _symmetry_equiv_pos_site_id
 _symmetry_equiv_pos_as_xyz
  1  'x, y, z'
loop_
 _atom_site_type_symbol
 _atom_site_label
 _atom_site_symmetry_multiplicity
 _atom_site_fract_x
 _atom_site_fract_y
 _atom_site_fract_z
 _atom_site_occupancy
  V  V0_0  1  0.25000000  0.25000000  0.25000000  1
  V  V0_1  1  0.25000000  0.25000000  0.75000000  1
  V  V0_2  1  0.25000000  0.75000000  0.25000000  1
  V  V0_3  1  0.25000000  0.75000000  0.75000000  1
  V  V0_4  1  0.75000000  0.25000000  0.25000000  1
  V  V0_5  1  0.75000000  0.25000000  0.75000000  1
  V  V0_6  1  0.75000000  0.75000000  0.25000000  1
  V  V0_7  1  0.75000000  0.75000000  0.75000000  1
  V  V1_0  1  0.18132000  0.18132000  0.04083350  1
  V  V1_1  1  0.18132000  0.18132000  0.54083350  1
  V  V1_2  1  0.18132000  0.68132000  0.04083350  1
  V  V1_3  1  0.18132000  0.68132000  0.54083350  1
  V  V1_4  1  0.68132000  0.18132000  0.04083350  1
  V  V1_5  1  0.68132000  0.18132000  0.54083350  1
  V  V1_6  1  0.68132000  0.68132000  0.04083350  1
  V  V1_7  1  0.68132000  0.68132000  0.54083350  1
  V  V2_0  1  0.31868000  0.31868000  0.45916650  1
  V  V2_1  1  0.31868000  0.31868000  0.95916650  1
  V  V2_2  1  0.31868000  0.81868000  0.45916650  1
  V  V2_3  1  0.31868000  0.81868000  0.95916650  1
  V  V2_4  1  0.81868000  0.31868000  0.45916650  1
  V  V2_5  1  0.81868000  0.31868000  0.95916650  1
  V  V2_6  1  0.81868000  0.81868000  0.45916650  1
  V  V2_7  1  0.81868000  0.81868000  0.95916650  1
  V  V3_0  1  0.10051300  0.10051300  0.31402800  1
  V  V3_1  1  0.10051300  0.10051300  0.81402800  1
  V  V3_2  1  0.10051300  0.60051300  0.31402800  1
  V  V3_3  1  0.10051300  0.60051300  0.81402800  1
  V  V3_4  1  0.60051300  0.10051300  0.31402800  1
  V  V3_5  1  0.60051300  0.10051300  0.81402800  1
  V  V3_6  1  0.60051300  0.60051300  0.31402800  1
  V  V3_7  1  0.60051300  0.60051300  0.81402800  1
  V  V4_0  1  0.39948700  0.39948700  0.18597200  1
  V  V4_1  1  0.39948700  0.39948700  0.68597200  1
  V  V4_2  1  0.39948700  0.89948700  0.18597200  1
  V  V4_3  1  0.39948700  0.89948700  0.68597200  1
  V  V4_4  1  0.89948700  0.39948700  0.18597200  1
  V  V4_5  1  0.89948700  0.39948700  0.68597200  1
  V  V4_6  1  0.89948700  0.89948700  0.18597200  1
  V  V4_7  1  0.89948700  0.89948700  0.68597200  1
  V  V5_0  1  0.04002450  0.04002450  0.11477850  1
  V  V5_1  1  0.04002450  0.04002450  0.61477850  1
  V  V5_2  1  0.04002450  0.54002450  0.11477850  1
  V  V5_3  1  0.04002450  0.54002450  0.61477850  1
  V  V5_4  1  0.54002450  0.04002450  0.11477850  1
  V  V5_5  1  0.54002450  0.04002450  0.61477850  1
  V  V5_6  1  0.54002450  0.54002450  0.11477850  1
  V  V5_7  1  0.54002450  0.54002450  0.61477850  1
  V  V6_0  1  0.45997550  0.45997550  0.38522150  1
  V  V6_1  1  0.45997550  0.45997550  0.88522150  1
  V  V6_2  1  0.45997550  0.95997550  0.38522150  1
  V  V6_3  1  0.45997550  0.95997550  0.88522150  1
  V  V6_4  1  0.95997550  0.45997550  0.38522150  1
  V  V6_5  1  0.95997550  0.45997550  0.88522150  1
  V  V6_6  1  0.95997550  0.95997550  0.38522150  1
  V  V6_7  1  0.95997550  0.95997550  0.88522150  1
  O  O0_0  1  0.00000000  0.00000000  0.00000000  1
  O  O0_1  1  0.00000000  0.00000000  0.50000000  1
  O  O0_2  1  0.00000000  0.50000000  0.00000000  1
  O  O0_3  1  0.00000000  0.50000000  0.50000000  1
  O  O0_4  1  0.50000000  0.00000000  0.00000000  1
  O  O0_5  1  0.50000000  0.00000000  0.50000000  1
  O  O0_6  1  0.50000000  0.50000000  0.00000000  1
  O  O0_7  1  0.50000000  0.50000000  0.50000000  1
  O  O1_0  1  0.35924500  0.35924500  0.07291600  1
  O  O1_1  1  0.35924500  0.35924500  0.57291600  1
  O  O1_2  1  0.35924500  0.85924500  0.07291600  1
  O  O1_3  1  0.35924500  0.85924500  0.57291600  1
  O  O1_4  1  0.85924500  0.35924500  0.07291600  1
  O  O1_5  1  0.85924500  0.35924500  0.57291600  1
  O  O1_6  1  0.85924500  0.85924500  0.07291600  1
  O  O1_7  1  0.85924500  0.85924500  0.57291600  1
  O  O2_0  1  0.14075500  0.14075500  0.42708400  1
  O  O2_1  1  0.14075500  0.14075500  0.92708400  1
  O  O2_2  1  0.14075500  0.64075500  0.42708400  1
  O  O2_3  1  0.14075500  0.64075500  0.92708400  1
  O  O2_4  1  0.64075500  0.14075500  0.42708400  1
  O  O2_5  1  0.64075500  0.14075500  0.92708400  1
  O  O2_6  1  0.64075500  0.64075500  0.42708400  1
  O  O2_7  1  0.64075500  0.64075500  0.92708400  1
loop_
_geom_bond_atom_site_label_1
_geom_bond_atom_site_label_2
_geom_bond_distance
_geom_bond_site_symmetry_2
V0_0 V3_2 2.863732 1_555
V0_0 V3_4 2.863732 1_555
V0_0 V4_2 2.863732 1_545
V0_0 V4_4 2.863732 1_455
V0_0 V5_2 2.953499 1_555
V0_0 V5_4 2.953499 1_555
V0_0 V6_4 2.953499 1_455
V0_0 V6_2 2.953499 1_545
V0_0 V0_6 3.141016 1_545
V0_0 V0_6 3.141016 1_455
V0_0 V3_0 3.238416 1_555
V0_0 V4_0 3.238416 1_555
V0_1 V3_3 2.863732 1_555
V0_1 V4_5 2.863732 1_455
V0_1 V3_5 2.863732 1_555
V0_1 V4_3 2.863732 1_545
V0_1 V5_3 2.953499 1_555
V0_1 V6_5 2.953499 1_455
V0_1 V5_5 2.953499 1_555
V0_1 V6_3 2.953499 1_545
V0_1 V0_7 3.141016 1_545
V0_1 V0_7 3.141016 1_455
V0_1 V3_1 3.238416 1_555
V0_1 V4_1 3.238416 1_555
V0_2 V4_6 2.863732 1_455
V0_2 V4_0 2.863732 1_555
V0_2 V3_6 2.863732 1_555
V0_2 V3_0 2.863732 1_565
V0_2 V6_6 2.953499 1_455
V0_2 V5_0 2.953499 1_565
V0_2 V6_0 2.953499 1_555
V0_2 V5_6 2.953499 1_555
V0_2 V0_4 3.141016 1_555
V0_2 V0_4 3.141016 1_465
V0_2 V3_2 3.238416 1_555
V0_2 V4_2 3.238416 1_555
V0_3 V3_7 2.863732 1_555
V0_3 V3_1 2.863732 1_565
V0_3 V4_1 2.863732 1_555
V0_3 V4_7 2.863732 1_455
V0_3 V5_1 2.953499 1_565
V0_3 V5_7 2.953499 1_555
V0_3 V6_1 2.953499 1_555
V0_3 V6_7 2.953499 1_455
V0_3 V0_5 3.141016 1_465
V0_3 V0_5 3.141016 1_555
V0_3 V4_3 3.238416 1_555
V0_3 V3_3 3.238416 1_555
V0_4 V4_6 2.863732 1_545
V0_4 V3_6 2.863732 1_555
V0_4 V4_0 2.863732 1_555
V0_4 V3_0 2.863732 1_655
V0_4 V6_6 2.953499 1_545
V0_4 V5_6 2.953499 1_555
V0_4 V5_0 2.953499 1_655
V0_4 V6_0 2.953499 1_555
V0_4 V3_4 3.238416 1_555
V0_4 V4_4 3.238416 1_555
V0_5 V3_7 2.863732 1_555
V0_5 V3_1 2.863732 1_655
V0_5 V4_1 2.863732 1_555
V0_5 V4_7 2.863732 1_545
V0_5 V5_1 2.953499 1_655
V0_5 V5_7 2.953499 1_555
V0_5 V6_1 2.953499 1_555
V0_5 V6_7 2.953499 1_545
V0_5 V4_5 3.238416 1_555
V0_5 V3_5 3.238416 1_555
V0_6 V3_2 2.863732 1_655
V0_6 V3_4 2.863732 1_565
V0_6 V4_2 2.863732 1_555
V0_6 V4_4 2.863732 1_555
V0_6 V6_4 2.953499 1_555
V0_6 V5_2 2.953499 1_655
V0_6 V6_2 2.953499 1_555
V0_6 V5_4 2.953499 1_565
V0_6 V3_6 3.238416 1_555
V0_6 V4_6 3.238416 1_555
V0_7 V4_5 2.863732 1_555
V0_7 V4_3 2.863732 1_555
V0_7 V3_3 2.863732 1_655
V0_7 V3_5 2.863732 1_565
V0_7 V6_3 2.953499 1_555
V0_7 V6_5 2.953499 1_555
V0_7 V5_3 2.953499 1_655
V0_7 V5_5 2.953499 1_565
V0_7 V3_7 3.238416 1_555
V0_7 V4_7 3.238416 1_555
O0_0 V2_3 2.215886 1_544
O0_0 V2_5 2.215886 1_454
O0_0 V1_4 2.215886 1_455
O0_0 V1_2 2.215886 1_545
O0_0 V5_0 2.219520 1_555
O0_0 V6_7 2.219520 1_444
O0_1 V2_2 2.215886 1_545
O0_1 V2_4 2.215886 1_455
O0_1 V1_5 2.215886 1_455
O0_1 V1_3 2.215886 1_545
O0_1 V5_1 2.219520 1_555
O0_1 V6_6 2.219520 1_445
O0_2 V2_7 2.215886 1_454
O0_2 V1_0 2.215886 1_555
O0_2 V2_1 2.215886 1_554
O0_2 V1_6 2.215886 1_455
O0_2 V5_2 2.219520 1_555
O0_2 V6_5 2.219520 1_454
O0_3 V2_6 2.215886 1_455
O0_3 V1_1 2.215886 1_555
O0_3 V2_0 2.215886 1_555
O0_3 V1_7 2.215886 1_455
O0_3 V5_3 2.219520 1_555
O0_3 V6_4 2.219520 1_455
O0_4 V2_7 2.215886 1_544
O0_4 V2_1 2.215886 1_554
O0_4 V1_0 2.215886 1_555
O0_4 V1_6 2.215886 1_545
O0_4 V5_4 2.219520 1_555
O0_4 V6_3 2.219520 1_544
O0_5 V2_6 2.215886 1_545
O0_5 V1_1 2.215886 1_555
O0_5 V2_0 2.215886 1_555
O0_5 V1_7 2.215886 1_545
O0_5 V5_5 2.219520 1_555
O0_5 V6_2 2.219520 1_545
O0_6 V2_3 2.215886 1_554
O0_6 V1_4 2.215886 1_555
O0_6 V2_5 2.215886 1_554
O0_6 V1_2 2.215886 1_555
O0_6 V6_1 2.219520 1_554
O0_6 V5_6 2.219520 1_555
O0_7 V1_5 2.215886 1_555
O0_7 V2_4 2.215886 1_555
O0_7 V1_3 2.215886 1_555
O0_7 V2_2 2.215886 1_555
O0_7 V5_7 2.219520 1_555
O0_7 V6_0 2.219520 1_555
O1_0 V4_0 2.193082 1_555
O1_0 V2_1 2.207179 1_554
O1_0 V1_2 2.219456 1_555
O1_0 V1_4 2.219456 1_555
O1_0 V5_4 2.228416 1_555
O1_0 V5_2 2.228416 1_555
O1_1 V4_1 2.193082 1_555
O1_1 V2_0 2.207179 1_555
O1_1 V1_3 2.219456 1_555
O1_1 V1_5 2.219456 1_555
O1_1 V5_5 2.228416 1_555
O1_1 V5_3 2.228416 1_555
O1_2 V4_2 2.193082 1_555
O1_2 V2_3 2.207179 1_554
O1_2 V1_6 2.219456 1_555
O1_2 V1_0 2.219456 1_565
O1_2 V5_6 2.228416 1_555
O1_2 V5_0 2.228416 1_565
O1_3 V4_3 2.193082 1_555
O1_3 V2_2 2.207179 1_555
O1_3 V1_7 2.219456 1_555
O1_3 V1_1 2.219456 1_565
O1_3 V5_7 2.228416 1_555
O1_3 V5_1 2.228416 1_565
O1_4 V4_4 2.193082 1_555
O1_4 V2_5 2.207179 1_554
O1_4 V1_6 2.219456 1_555
O1_4 V1_0 2.219456 1_655
O1_4 V5_6 2.228416 1_555
O1_4 V5_0 2.228416 1_655
O1_5 V4_5 2.193082 1_555
O1_5 V2_4 2.207179 1_555
O1_5 V1_7 2.219456 1_555
O1_5 V1_1 2.219456 1_655
O1_5 V5_7 2.228416 1_555
O1_5 V5_1 2.228416 1_655
O1_6 V4_6 2.193082 1_555
O1_6 V2_7 2.207179 1_554
O1_6 V1_4 2.219456 1_565
O1_6 V1_2 2.219456 1_655
O1_6 V5_4 2.228416 1_565
O1_6 V5_2 2.228416 1_655
O1_7 V4_7 2.193082 1_555
O1_7 V2_6 2.207179 1_555
O1_7 V1_3 2.219456 1_655
O1_7 V1_5 2.219456 1_565
O1_7 V5_5 2.228416 1_565
O1_7 V5_3 2.228416 1_655
O2_0 V3_0 2.193082 1_555
O2_0 V1_1 2.207179 1_555
O2_0 V2_2 2.219456 1_545
O2_0 V2_4 2.219456 1_455
O2_0 V6_2 2.228416 1_545
O2_0 V6_4 2.228416 1_455
O2_1 V3_1 2.193082 1_555
O2_1 V1_0 2.207179 1_556
O2_1 V2_5 2.219456 1_455
O2_1 V2_3 2.219456 1_545
O2_1 V6_3 2.228416 1_545
O2_1 V6_5 2.228416 1_455
O2_2 V3_2 2.193082 1_555
O2_2 V1_3 2.207179 1_555
O2_2 V2_0 2.219456 1_555
O2_2 V2_6 2.219456 1_455
O2_2 V6_0 2.228416 1_555
O2_2 V6_6 2.228416 1_455
O2_3 V3_3 2.193082 1_555
O2_3 V1_2 2.207179 1_556
O2_3 V2_1 2.219456 1_555
O2_3 V2_7 2.219456 1_455
O2_3 V6_7 2.228416 1_455
O2_3 V6_1 2.228416 1_555
O2_4 V3_4 2.193082 1_555
O2_4 V1_5 2.207179 1_555
O2_4 V2_0 2.219456 1_555
O2_4 V2_6 2.219456 1_545
O2_4 V6_0 2.228416 1_555
O2_4 V6_6 2.228416 1_545
O2_5 V3_5 2.193082 1_555
O2_5 V1_4 2.207179 1_556
O2_5 V2_1 2.219456 1_555
O2_5 V2_7 2.219456 1_545
O2_5 V6_7 2.228416 1_545
O2_5 V6_1 2.228416 1_555
O2_6 V3_6 2.193082 1_555
O2_6 V1_7 2.207179 1_555
O2_6 V2_2 2.219456 1_555
O2_6 V2_4 2.219456 1_555
O2_6 V6_2 2.228416 1_555
O2_6 V6_4 2.228416 1_555
O2_7 V3_7 2.193082 1_555
O2_7 V1_6 2.207179 1_556
O2_7 V2_5 2.219456 1_555
O2_7 V2_3 2.219456 1_555
O2_7 V6_3 2.228416 1_555
O2_7 V6_5 2.228416 1_555
