# generated using pymatgen
data_Sr2B2O5
_symmetry_space_group_name_H-M   'P 1'
_cell_length_a   5.34751366
_cell_length_b   7.76143273
_cell_length_c   11.88170355
_cell_angle_alpha   87.00239258
_cell_angle_beta   90.00000000
_cell_angle_gamma   90.00000000
_symmetry_Int_Tables_number   1
_chemical_formula_structural   Sr2B2O5
_chemical_formula_sum   'Sr8 B8 O20'
_cell_volume   492.46783403
_cell_formula_units_Z   4
loop_
 _symmetry_equiv_pos_site_id
 _symmetry_equiv_pos_as_xyz
  1  'x, y, z'
loop_
 _atom_site_type_symbol
 _atom_site_label
 _atom_site_symmetry_multiplicity
 _atom_site_fract_x
 _atom_site_fract_y
 _atom_site_fract_z
 _atom_site_occupancy
  Sr  Sr0  1  0.95353648  0.11848534  0.13207546  1
  Sr  Sr1  1  0.45353648  0.88151466  0.36792454  1
  Sr  Sr2  1  0.04646352  0.88151466  0.86792454  1
  Sr  Sr3  1  0.54646352  0.11848534  0.63207546  1
  Sr  Sr4  1  0.91016418  0.62405604  0.16014203  1
  Sr  Sr5  1  0.41016418  0.37594396  0.33985797  1
  Sr  Sr6  1  0.08983582  0.37594396  0.83985797  1
  Sr  Sr7  1  0.58983582  0.62405604  0.66014203  1
  B  B0  1  0.45373310  0.84028374  0.08371724  1
  B  B1  1  0.95373310  0.15971626  0.41628276  1
  B  B2  1  0.54626690  0.15971626  0.91628276  1
  B  B3  1  0.04626690  0.84028374  0.58371724  1
  B  B4  1  0.56984050  0.66006140  0.90465860  1
  B  B5  1  0.06984050  0.33993860  0.59534140  1
  B  B6  1  0.43015950  0.33993860  0.09534140  1
  B  B7  1  0.93015950  0.66006140  0.40465860  1
  O  O0  1  0.84704410  0.35664308  0.64723980  1
  O  O1  1  0.34704410  0.64335692  0.85276020  1
  O  O2  1  0.15295590  0.64335692  0.35276020  1
  O  O3  1  0.65295590  0.35664308  0.14723980  1
  O  O4  1  0.78753846  0.60639504  0.85851844  1
  O  O5  1  0.28753846  0.39360496  0.64148156  1
  O  O6  1  0.21246154  0.39360496  0.14148156  1
  O  O7  1  0.71246154  0.60639504  0.35851844  1
  O  O8  1  0.90488629  0.90163209  0.66815852  1
  O  O9  1  0.40488629  0.09836791  0.83184148  1
  O  O10  1  0.09511371  0.09836791  0.33184148  1
  O  O11  1  0.59511371  0.90163209  0.16815852  1
  O  O12  1  0.29815075  0.85392295  0.57192758  1
  O  O13  1  0.79815075  0.14607705  0.92807242  1
  O  O14  1  0.70184925  0.14607705  0.42807242  1
  O  O15  1  0.20184925  0.85392295  0.07192758  1
  O  O16  1  0.89686105  0.74855811  0.50545817  1
  O  O17  1  0.39686105  0.25144189  0.99454183  1
  O  O18  1  0.10313895  0.25144189  0.49454183  1
  O  O19  1  0.60313895  0.74855811  0.00545817  1
loop_
_geom_bond_atom_site_label_1
_geom_bond_atom_site_label_2
_geom_bond_distance
_geom_bond_site_symmetry_2
B0 O15 1.357777 1_555
B0 O11 1.361946 1_555
B0 O19 1.441878 1_555
B1 O14 1.357777 1_555
B1 O10 1.361946 1_655
B1 O18 1.441878 1_655
B2 O13 1.357777 1_555
B2 O9 1.361946 1_555
B2 O17 1.441878 1_555
B3 O12 1.357777 1_555
B3 O8 1.361946 1_455
B3 O16 1.441878 1_455
B4 O1 1.350877 1_555
B4 O4 1.361307 1_555
B4 O19 1.422652 1_556
B5 O0 1.350877 1_455
B5 O5 1.361307 1_555
B5 O18 1.422652 1_555
B6 O3 1.350877 1_555
B6 O6 1.361307 1_555
B6 O17 1.422652 1_554
B7 O2 1.350877 1_655
B7 O7 1.361307 1_555
B7 O16 1.422652 1_555
O0 Sr3 2.463260 1_555
O0 Sr7 2.501261 1_555
O0 Sr6 2.642310 1_655
O1 Sr2 2.463260 1_555
O1 Sr6 2.501261 1_555
O1 Sr7 2.642310 1_555
O2 Sr1 2.463260 1_555
O2 Sr5 2.501261 1_555
O2 Sr4 2.642310 1_455
O3 Sr0 2.463260 1_555
O3 Sr4 2.501261 1_555
O3 Sr5 2.642310 1_555
O4 Sr6 2.429616 1_655
O4 Sr2 2.552290 1_655
O4 Sr7 2.580386 1_555
O5 Sr7 2.429616 1_555
O5 Sr3 2.552290 1_555
O5 Sr6 2.580386 1_555
O6 Sr4 2.429616 1_455
O6 Sr0 2.552290 1_455
O6 Sr5 2.580386 1_555
O7 Sr5 2.429616 1_555
O7 Sr1 2.552290 1_555
O7 Sr4 2.580386 1_555
O8 Sr2 2.488491 1_655
O8 Sr3 2.571918 1_565
O8 Sr7 2.740485 1_555
O9 Sr3 2.488491 1_555
O9 Sr2 2.571918 1_545
O9 Sr6 2.740485 1_555
O10 Sr0 2.488491 1_455
O10 Sr1 2.571918 1_545
O10 Sr5 2.740485 1_555
O11 Sr1 2.488491 1_555
O11 Sr0 2.571918 1_565
O11 Sr4 2.740485 1_555
O12 Sr7 2.553225 1_555
O12 Sr1 2.560726 1_555
O12 Sr3 2.577557 1_565
O13 Sr6 2.553225 1_655
O13 Sr0 2.560726 1_556
O13 Sr2 2.577557 1_645
O14 Sr5 2.553225 1_555
O14 Sr3 2.560726 1_555
O14 Sr1 2.577557 1_545
O15 Sr4 2.553225 1_455
O15 Sr2 2.560726 1_554
O15 Sr0 2.577557 1_465
O16 Sr7 2.611800 1_555
O17 Sr6 2.611800 1_555
O18 Sr5 2.611800 1_555
O19 Sr4 2.611800 1_555
