# generated using pymatgen
data_Ba11(CdSb2)6
_symmetry_space_group_name_H-M   'P 1'
_cell_length_a   17.52854730
_cell_length_b   17.52854730
_cell_length_c   13.42215868
_cell_angle_alpha   70.44035783
_cell_angle_beta   70.44035783
_cell_angle_gamma   16.31192115
_symmetry_Int_Tables_number   1
_chemical_formula_structural   Ba11(CdSb2)6
_chemical_formula_sum   'Ba11 Cd6 Sb12'
_cell_volume   1090.02500464
_cell_formula_units_Z   1
loop_
 _symmetry_equiv_pos_site_id
 _symmetry_equiv_pos_as_xyz
  1  'x, y, z'
loop_
 _atom_site_type_symbol
 _atom_site_label
 _atom_site_symmetry_multiplicity
 _atom_site_fract_x
 _atom_site_fract_y
 _atom_site_fract_z
 _atom_site_occupancy
  Ba  Ba0  1  0.11323300  0.11323400  0.49046100  1
  Ba  Ba1  1  0.12607000  0.12607000  0.98061400  1
  Ba  Ba2  1  0.01793200  0.01793200  0.32085100  1
  Ba  Ba3  1  0.28062000  0.28062000  0.86521600  1
  Ba  Ba4  1  0.19939500  0.19939500  0.65341800  1
  Ba  Ba5  1  0.80060500  0.80060500  0.34658200  1
  Ba  Ba6  1  0.00000000  0.00000000  0.00000000  1
  Ba  Ba7  1  0.88676600  0.88676600  0.50953900  1
  Ba  Ba8  1  0.87393000  0.87393000  0.01938600  1
  Ba  Ba9  1  0.98206800  0.98206800  0.67914900  1
  Ba  Ba10  1  0.71938000  0.71938000  0.13478400  1
  Cd  Cd0  1  0.40054000  0.40054000  0.74597600  1
  Cd  Cd1  1  0.78161100  0.78161100  0.67134400  1
  Cd  Cd2  1  0.54602400  0.54602400  0.75970800  1
  Cd  Cd3  1  0.21838900  0.21838900  0.32865600  1
  Cd  Cd4  1  0.45397600  0.45397600  0.24029200  1
  Cd  Cd5  1  0.59946000  0.59946000  0.25402400  1
  Sb  Sb0  1  0.45351100  0.45351100  0.87978400  1
  Sb  Sb1  1  0.30729200  0.30729200  0.54411900  1
  Sb  Sb2  1  0.69270800  0.69270800  0.45588100  1
  Sb  Sb3  1  0.91348700  0.91348700  0.23571500  1
  Sb  Sb4  1  0.14699900  0.14699900  0.21723500  1
  Sb  Sb5  1  0.54648900  0.54648900  0.12021600  1
  Sb  Sb6  1  0.70662000  0.70662000  0.85675200  1
  Sb  Sb7  1  0.45802400  0.45802400  0.50632600  1
  Sb  Sb8  1  0.54197600  0.54197600  0.49367400  1
  Sb  Sb9  1  0.85300100  0.85300100  0.78276500  1
  Sb  Sb10  1  0.08651300  0.08651300  0.76428500  1
  Sb  Sb11  1  0.29338000  0.29338000  0.14324800  1
loop_
_geom_bond_atom_site_label_1
_geom_bond_atom_site_label_2
_geom_bond_distance
_geom_bond_site_symmetry_2
Ba0 Sb4 3.451855 1_555
Ba0 Sb10 3.473110 1_555
Ba0 Sb8 3.496914 1_455
Ba0 Sb8 3.496918 1_545
Ba0 Cd3 3.559811 1_555
Ba0 Sb2 3.624886 1_455
Ba0 Sb2 3.624890 1_545
Ba1 Sb4 3.489200 1_556
Ba1 Sb10 3.607130 1_555
Ba1 Sb6 3.690257 1_455
Ba1 Sb6 3.690257 1_545
Ba1 Sb5 3.717712 1_456
Ba1 Sb5 3.717712 1_546
Ba2 Sb5 3.551451 1_455
Ba2 Sb5 3.551451 1_545
Ba2 Sb7 3.633542 1_545
Ba2 Sb7 3.633542 1_455
Ba2 Cd5 3.643679 1_455
Ba2 Cd5 3.643679 1_545
Ba2 Sb8 3.683762 1_455
Ba2 Sb8 3.683762 1_545
Ba2 Cd4 3.728567 1_545
Ba2 Cd4 3.728567 1_455
Ba3 Sb9 3.440566 1_545
Ba3 Sb9 3.440566 1_455
Ba3 Cd1 3.591084 1_545
Ba3 Cd1 3.591084 1_455
Ba3 Sb6 3.603981 1_455
Ba3 Sb6 3.603981 1_545
Ba3 Sb11 3.903854 1_556
Ba4 Sb1 3.529359 1_555
Ba4 Sb10 3.690059 1_555
Ba4 Sb2 3.699147 1_455
Ba4 Sb2 3.699147 1_545
Ba4 Sb6 3.762716 1_455
Ba4 Sb6 3.762716 1_545
Ba4 Cd1 3.853091 1_455
Ba4 Cd1 3.853091 1_545
Ba4 Cd3 4.182335 1_555
Ba5 Sb2 3.529359 1_555
Ba5 Sb3 3.690059 1_555
Ba5 Sb1 3.699147 1_565
Ba5 Sb1 3.699147 1_655
Ba5 Sb11 3.762716 1_565
Ba5 Sb11 3.762716 1_655
Ba5 Cd3 3.853091 1_565
Ba5 Cd3 3.853091 1_655
Ba5 Cd1 4.182335 1_555
Ba6 Sb10 3.549376 1_554
Ba6 Sb3 3.549376 1_445
Ba6 Sb5 3.626423 1_455
Ba6 Sb5 3.626423 1_545
Ba6 Sb0 3.626423 1_544
Ba6 Sb0 3.626423 1_454
Ba7 Sb9 3.451855 1_555
Ba7 Sb3 3.473109 1_555
Ba7 Sb7 3.496928 1_565
Ba7 Sb7 3.496928 1_655
Ba7 Cd1 3.559797 1_555
Ba7 Sb1 3.624876 1_565
Ba7 Sb1 3.624876 1_655
Ba8 Sb9 3.489200 1_554
Ba8 Sb3 3.607130 1_555
Ba8 Sb11 3.690257 1_655
Ba8 Sb11 3.690257 1_565
Ba8 Sb0 3.717712 1_654
Ba8 Sb0 3.717712 1_564
Ba9 Sb0 3.551451 1_565
Ba9 Sb0 3.551451 1_655
Ba9 Sb8 3.633542 1_565
Ba9 Sb8 3.633542 1_655
Ba9 Cd0 3.643679 1_565
Ba9 Cd0 3.643679 1_655
Ba9 Sb7 3.683762 1_565
Ba9 Sb7 3.683762 1_655
Ba9 Cd2 3.728567 1_655
Ba9 Cd2 3.728567 1_565
Ba10 Sb4 3.440566 1_565
Ba10 Sb4 3.440566 1_655
Ba10 Cd3 3.591084 1_565
Ba10 Cd3 3.591084 1_655
Ba10 Sb11 3.603981 1_565
Ba10 Sb11 3.603981 1_655
Ba10 Sb6 3.903854 1_554
Cd0 Sb9 2.932282 1_455
Cd0 Sb9 2.932282 1_545
Cd0 Sb0 2.972847 1_555
Cd0 Sb7 3.160016 1_555
Cd1 Sb6 2.929974 1_555
Cd1 Sb1 2.977370 1_565
Cd1 Sb1 2.977370 1_655
Cd1 Sb9 3.298522 1_555
Cd2 Sb10 2.867101 1_655
Cd2 Sb10 2.867101 1_565
Cd2 Sb0 3.066673 1_555
Cd3 Sb11 2.929974 1_555
Cd3 Sb2 2.977370 1_545
Cd3 Sb2 2.977370 1_455
Cd3 Sb4 3.298522 1_555
Cd4 Sb3 2.867101 1_545
Cd4 Sb3 2.867101 1_455
Cd4 Sb5 3.066673 1_555
Cd5 Sb4 2.932282 1_565
Cd5 Sb4 2.932282 1_655
Cd5 Sb5 2.972847 1_555
Cd5 Sb8 3.160016 1_555
Sb7 Sb8 2.860379 1_555
