# generated using pymatgen
data_KDy2Cl7
_symmetry_space_group_name_H-M   'P 1'
_cell_length_a   12.57306395
_cell_length_b   6.90732391
_cell_length_c   12.82520038
_cell_angle_alpha   90.54314675
_cell_angle_beta   90.00000000
_cell_angle_gamma   90.00000000
_symmetry_Int_Tables_number   1
_chemical_formula_structural   KDy2Cl7
_chemical_formula_sum   'K4 Dy8 Cl28'
_cell_volume   1113.77019493
_cell_formula_units_Z   4
loop_
 _symmetry_equiv_pos_site_id
 _symmetry_equiv_pos_as_xyz
  1  'x, y, z'
loop_
 _atom_site_type_symbol
 _atom_site_label
 _atom_site_symmetry_multiplicity
 _atom_site_fract_x
 _atom_site_fract_y
 _atom_site_fract_z
 _atom_site_occupancy
  K  K0  1  0.20589296  0.71237972  0.96473192  1
  K  K1  1  0.70589296  0.28762028  0.53526808  1
  K  K2  1  0.79410704  0.28762028  0.03526808  1
  K  K3  1  0.29410704  0.71237972  0.46473192  1
  Dy  Dy0  1  0.83933372  0.77665939  0.75227184  1
  Dy  Dy1  1  0.33933372  0.22334061  0.74772816  1
  Dy  Dy2  1  0.16066628  0.22334061  0.24772816  1
  Dy  Dy3  1  0.66066628  0.77665939  0.25227184  1
  Dy  Dy4  1  0.53653453  0.72604757  0.76255441  1
  Dy  Dy5  1  0.03653453  0.27395243  0.73744559  1
  Dy  Dy6  1  0.46346547  0.27395243  0.23744559  1
  Dy  Dy7  1  0.96346547  0.72604757  0.26255441  1
  Cl  Cl0  1  0.68517265  0.75111926  0.60352262  1
  Cl  Cl1  1  0.18517265  0.24888074  0.89647738  1
  Cl  Cl2  1  0.31482735  0.24888074  0.39647738  1
  Cl  Cl3  1  0.81482735  0.75111926  0.10352262  1
  Cl  Cl4  1  0.70261052  0.50472582  0.82524040  1
  Cl  Cl5  1  0.20261052  0.49527418  0.67475960  1
  Cl  Cl6  1  0.29738948  0.49527418  0.17475960  1
  Cl  Cl7  1  0.79738948  0.50472582  0.32524040  1
  Cl  Cl8  1  0.67715208  0.99116404  0.82890344  1
  Cl  Cl9  1  0.17715208  0.00883596  0.67109656  1
  Cl  Cl10  1  0.32284792  0.00883596  0.17109656  1
  Cl  Cl11  1  0.82284792  0.99116404  0.32890344  1
  Cl  Cl12  1  0.92546413  0.52070045  0.61755488  1
  Cl  Cl13  1  0.42546413  0.47929955  0.88244512  1
  Cl  Cl14  1  0.07453587  0.47929955  0.38244512  1
  Cl  Cl15  1  0.57453587  0.52070045  0.11755488  1
  Cl  Cl16  1  0.91004751  0.04113586  0.61821560  1
  Cl  Cl17  1  0.41004751  0.95886414  0.88178440  1
  Cl  Cl18  1  0.08995249  0.95886414  0.38178440  1
  Cl  Cl19  1  0.58995249  0.04113586  0.11821560  1
  Cl  Cl20  1  0.97282671  0.55914710  0.86937760  1
  Cl  Cl21  1  0.47282671  0.44085290  0.63062240  1
  Cl  Cl22  1  0.02717329  0.44085290  0.13062240  1
  Cl  Cl23  1  0.52717329  0.55914710  0.36937760  1
  Cl  Cl24  1  0.94088373  0.04185128  0.87439151  1
  Cl  Cl25  1  0.44088373  0.95814872  0.62560849  1
  Cl  Cl26  1  0.05911627  0.95814872  0.12560849  1
  Cl  Cl27  1  0.55911627  0.04185128  0.37439151  1
loop_
_geom_bond_atom_site_label_1
_geom_bond_atom_site_label_2
_geom_bond_distance
_geom_bond_site_symmetry_2
Cl0 Dy0 2.724174 1_555
Cl0 Dy4 2.772952 1_555
Cl0 K1 3.321275 1_555
Cl1 Dy1 2.724174 1_555
Cl1 Dy5 2.772952 1_555
Cl1 K0 3.321275 1_555
Cl2 Dy2 2.724174 1_555
Cl2 Dy6 2.772952 1_555
Cl2 K3 3.321275 1_555
Cl3 Dy3 2.724174 1_555
Cl3 Dy7 2.772952 1_555
Cl3 K2 3.321275 1_555
Cl4 Dy4 2.714185 1_555
Cl4 Dy0 2.718881 1_555
Cl4 K2 3.302208 1_556
Cl5 Dy5 2.714185 1_555
Cl5 Dy1 2.718881 1_555
Cl5 K3 3.302208 1_555
Cl6 Dy6 2.714185 1_555
Cl6 Dy2 2.718881 1_555
Cl6 K0 3.302208 1_554
Cl7 Dy7 2.714185 1_555
Cl7 Dy3 2.718881 1_555
Cl7 K1 3.302208 1_555
Cl8 Dy4 2.678398 1_555
Cl8 Dy0 2.700301 1_555
Cl8 K2 3.641095 1_566
Cl9 Dy5 2.678398 1_555
Cl9 Dy1 2.700301 1_555
Cl9 K3 3.641095 1_545
Cl10 Dy6 2.678398 1_555
Cl10 Dy2 2.700301 1_555
Cl10 K0 3.641095 1_544
Cl11 Dy7 2.678398 1_555
Cl11 Dy3 2.700301 1_555
Cl11 K1 3.641095 1_565
Cl12 Dy0 2.688084 1_555
Cl12 Dy5 2.696116 1_655
Cl12 K1 3.360785 1_555
Cl13 Dy1 2.688084 1_555
Cl13 Dy4 2.696116 1_555
Cl13 K0 3.360785 1_555
Cl14 Dy2 2.688084 1_555
Cl14 Dy7 2.696116 1_455
Cl14 K3 3.360785 1_555
Cl15 Dy3 2.688084 1_555
Cl15 Dy6 2.696116 1_555
Cl15 K2 3.360785 1_555
Cl16 Dy0 2.672696 1_545
Cl16 Dy5 2.721568 1_655
Cl16 K1 3.263959 1_555
Cl17 Dy1 2.672696 1_565
Cl17 Dy4 2.721568 1_555
Cl17 K0 3.263959 1_555
Cl18 Dy2 2.672696 1_565
Cl18 Dy7 2.721568 1_455
Cl18 K3 3.263959 1_555
Cl19 Dy3 2.672696 1_545
Cl19 Dy6 2.721568 1_555
Cl19 K2 3.263959 1_555
Cl20 Dy5 2.705936 1_655
Cl20 Dy0 2.715303 1_555
Cl20 K0 3.343396 1_655
Cl20 K2 3.628923 1_556
Cl21 Dy4 2.705936 1_555
Cl21 Dy1 2.715303 1_555
Cl21 K1 3.343396 1_555
Cl21 K3 3.628923 1_555
Cl22 Dy7 2.705936 1_455
Cl22 Dy2 2.715303 1_555
Cl22 K2 3.343396 1_455
Cl22 K0 3.628923 1_554
Cl23 Dy6 2.705936 1_555
Cl23 Dy3 2.715303 1_555
Cl23 K3 3.343396 1_555
Cl23 K1 3.628923 1_555
Cl24 Dy5 2.674832 1_655
Cl24 Dy0 2.717387 1_545
Cl24 K2 3.237002 1_556
Cl25 Dy4 2.674832 1_555
Cl25 Dy1 2.717387 1_565
Cl25 K3 3.237002 1_555
Cl26 Dy7 2.674832 1_455
Cl26 Dy2 2.717387 1_565
Cl26 K0 3.237002 1_554
Cl27 Dy6 2.674832 1_555
Cl27 Dy3 2.717387 1_545
Cl27 K1 3.237002 1_555
