# generated using pymatgen
data_Ti4FeBi2
_symmetry_space_group_name_H-M   'P 1'
_cell_length_a   4.87429943
_cell_length_b   7.87223980
_cell_length_c   7.87185747
_cell_angle_alpha   84.49275527
_cell_angle_beta   71.95965755
_cell_angle_gamma   71.95880284
_symmetry_Int_Tables_number   1
_chemical_formula_structural   Ti4FeBi2
_chemical_formula_sum   'Ti8 Fe2 Bi4'
_cell_volume   273.08593231
_cell_formula_units_Z   2
loop_
 _symmetry_equiv_pos_site_id
 _symmetry_equiv_pos_as_xyz
  1  'x, y, z'
loop_
 _atom_site_type_symbol
 _atom_site_label
 _atom_site_symmetry_multiplicity
 _atom_site_fract_x
 _atom_site_fract_y
 _atom_site_fract_z
 _atom_site_occupancy
  Ti  Ti0  1  0.57972036  0.72587888  0.11460603  1
  Ti  Ti1  1  0.91964736  0.88557993  0.27526327  1
  Ti  Ti2  1  0.30569127  0.11445289  0.27426234  1
  Ti  Ti3  1  0.80531233  0.27516365  0.11431564  1
  Ti  Ti4  1  0.69430873  0.88554711  0.72573766  1
  Ti  Ti5  1  0.08035264  0.11442007  0.72473673  1
  Ti  Ti6  1  0.42027964  0.27412112  0.88539397  1
  Ti  Ti7  1  0.19468767  0.72483635  0.88568436  1
  Fe  Fe0  1  0.24513822  0.00005610  -0.00007320  1
  Fe  Fe1  1  0.75486178  -0.00005610  0.00007320  1
  Bi  Bi0  1  0.35917075  0.78212622  0.49948751  1
  Bi  Bi1  1  0.14138373  0.49943413  0.21782725  1
  Bi  Bi2  1  0.64082825  0.21787378  0.50051249  1
  Bi  Bi3  1  0.85861627  0.50056587  0.78217275  1
loop_
_geom_bond_atom_site_label_1
_geom_bond_atom_site_label_2
_geom_bond_distance
_geom_bond_site_symmetry_2
Ti0 Ti1 2.968355 1_455
Ti0 Ti1 2.969611 1_555
Ti0 Ti7 2.979023 1_654
Ti0 Ti7 2.979389 1_554
Ti0 Ti2 3.144549 1_565
Ti0 Ti4 3.146373 1_554
Ti0 Ti3 3.373692 1_555
Ti1 Ti2 2.978952 1_565
Ti1 Ti2 2.979123 1_665
Ti1 Ti7 3.154505 1_654
Ti1 Ti3 3.155068 1_565
Ti1 Ti4 3.371741 1_555
Ti2 Ti3 2.969777 1_455
Ti2 Ti3 2.969864 1_555
Ti2 Ti6 3.146373 1_554
Ti2 Ti5 3.371741 1_555
Ti3 Ti6 2.979023 1_654
Ti3 Ti6 2.979389 1_554
Ti3 Ti5 3.154505 1_654
Ti4 Ti7 2.969777 1_655
Ti4 Ti7 2.969864 1_555
Ti4 Ti5 2.978952 1_565
Ti4 Ti5 2.979123 1_665
Ti4 Ti6 3.144549 1_565
Ti5 Ti6 2.968355 1_455
Ti5 Ti6 2.969611 1_555
Ti5 Ti7 3.155068 1_545
Ti6 Ti7 3.373692 1_555
Fe0 Fe1 2.389671 1_455
Fe0 Fe1 2.484629 1_555
Fe0 Ti3 2.529822 1_455
Fe0 Ti5 2.530573 1_554
Fe0 Ti7 2.530676 1_544
Fe0 Ti1 2.531357 1_445
Fe0 Ti6 2.547006 1_554
Fe0 Ti4 2.547304 1_544
Fe0 Ti0 2.547710 1_545
Fe0 Ti2 2.548412 1_555
Fe1 Ti7 2.529822 1_644
Fe1 Ti1 2.530573 1_545
Fe1 Ti3 2.530676 1_555
Fe1 Ti5 2.531357 1_654
Fe1 Ti0 2.547006 1_545
Fe1 Ti2 2.547304 1_555
Fe1 Ti6 2.547710 1_554
Fe1 Ti4 2.548412 1_544
Bi0 Ti0 2.911418 1_555
Bi0 Ti7 2.922238 1_555
Bi0 Ti2 3.004844 1_565
Bi0 Ti5 3.004932 1_565
Bi0 Ti1 3.058419 1_455
Bi0 Ti1 3.059040 1_555
Bi0 Ti4 3.066983 1_455
Bi0 Ti4 3.067160 1_555
Bi1 Ti2 2.912426 1_555
Bi1 Ti1 2.922201 1_455
Bi1 Ti7 3.004401 1_554
Bi1 Ti6 3.006015 1_554
Bi1 Ti3 3.059051 1_555
Bi1 Ti3 3.059186 1_455
Bi1 Ti0 3.067380 1_555
Bi1 Ti0 3.067567 1_455
Bi2 Ti6 2.911418 1_555
Bi2 Ti3 2.922238 1_555
Bi2 Ti4 3.004844 1_545
Bi2 Ti1 3.004932 1_545
Bi2 Ti5 3.058423 1_655
Bi2 Ti5 3.059036 1_555
Bi2 Ti2 3.066987 1_655
Bi2 Ti2 3.067156 1_555
Bi3 Ti4 2.912426 1_555
Bi3 Ti5 2.922201 1_655
Bi3 Ti3 3.004401 1_556
Bi3 Ti0 3.006015 1_556
Bi3 Ti7 3.059051 1_555
Bi3 Ti7 3.059186 1_655
Bi3 Ti6 3.067380 1_555
Bi3 Ti6 3.067567 1_655
