# generated using pymatgen
data_Pu2Ni17
_symmetry_space_group_name_H-M   'P 1'
_cell_length_a   8.25830532
_cell_length_b   8.25830532
_cell_length_c   7.98353100
_cell_angle_alpha   90.00000000
_cell_angle_beta   90.00000000
_cell_angle_gamma   119.99999453
_symmetry_Int_Tables_number   1
_chemical_formula_structural   Pu2Ni17
_chemical_formula_sum   'Pu4 Ni34'
_cell_volume   471.52805970
_cell_formula_units_Z   2
loop_
 _symmetry_equiv_pos_site_id
 _symmetry_equiv_pos_as_xyz
  1  'x, y, z'
loop_
 _atom_site_type_symbol
 _atom_site_label
 _atom_site_symmetry_multiplicity
 _atom_site_fract_x
 _atom_site_fract_y
 _atom_site_fract_z
 _atom_site_occupancy
  Pu  Pu0  1  0.00000000  0.00000000  0.75000000  1
  Pu  Pu1  1  0.66666700  0.33333300  0.25000000  1
  Pu  Pu2  1  0.00000000  0.00000000  0.25000000  1
  Pu  Pu3  1  0.33333300  0.66666700  0.75000000  1
  Ni  Ni0  1  0.04053400  0.67229400  0.25000000  1
  Ni  Ni1  1  0.66666700  0.33333300  0.90010400  1
  Ni  Ni2  1  0.50000000  0.50000000  0.50000000  1
  Ni  Ni3  1  0.83475300  0.16524700  0.47788700  1
  Ni  Ni4  1  0.33049400  0.16524700  0.02211300  1
  Ni  Ni5  1  0.16524700  0.33049400  0.52211300  1
  Ni  Ni6  1  0.63176000  0.67229400  0.25000000  1
  Ni  Ni7  1  0.83475300  0.16524700  0.02211300  1
  Ni  Ni8  1  0.33333300  0.66666700  0.40010400  1
  Ni  Ni9  1  0.66950600  0.83475300  0.52211300  1
  Ni  Ni10  1  0.32770600  0.36824000  0.25000000  1
  Ni  Ni11  1  0.95946600  0.32770600  0.75000000  1
  Ni  Ni12  1  0.63176000  0.95946600  0.25000000  1
  Ni  Ni13  1  0.95946600  0.63176000  0.75000000  1
  Ni  Ni14  1  0.16524700  0.33049400  0.97788700  1
  Ni  Ni15  1  0.83475300  0.66950600  0.47788700  1
  Ni  Ni16  1  0.33049400  0.16524700  0.47788700  1
  Ni  Ni17  1  0.83475300  0.66950600  0.02211300  1
  Ni  Ni18  1  0.66666700  0.33333300  0.59989600  1
  Ni  Ni19  1  0.50000000  0.50000000  0.00000000  1
  Ni  Ni20  1  0.32770600  0.95946600  0.25000000  1
  Ni  Ni21  1  0.36824000  0.32770600  0.75000000  1
  Ni  Ni22  1  0.66950600  0.83475300  0.97788700  1
  Ni  Ni23  1  0.50000000  0.00000000  0.00000000  1
  Ni  Ni24  1  0.67229400  0.04053400  0.75000000  1
  Ni  Ni25  1  0.16524700  0.83475300  0.97788700  1
  Ni  Ni26  1  0.33333300  0.66666700  0.09989600  1
  Ni  Ni27  1  0.67229400  0.63176000  0.75000000  1
  Ni  Ni28  1  0.00000000  0.50000000  0.00000000  1
  Ni  Ni29  1  0.04053400  0.36824000  0.25000000  1
  Ni  Ni30  1  0.16524700  0.83475300  0.52211300  1
  Ni  Ni31  1  0.36824000  0.04053400  0.75000000  1
  Ni  Ni32  1  0.00000000  0.50000000  0.50000000  1
  Ni  Ni33  1  0.50000000  0.00000000  0.50000000  1
loop_
_geom_bond_atom_site_label_1
_geom_bond_atom_site_label_2
_geom_bond_distance
_geom_bond_site_symmetry_2
Ni0 Ni20 2.371554 1_555
Ni0 Ni28 2.375675 1_555
Ni0 Ni32 2.375675 1_555
Ni0 Ni15 2.481810 1_455
Ni0 Ni17 2.481810 1_455
Ni0 Ni30 2.489651 1_555
Ni0 Ni25 2.489651 1_554
Ni0 Ni29 2.510971 1_555
Ni0 Ni8 2.719821 1_555
Ni0 Ni26 2.719821 1_555
Ni0 Pu2 2.888253 1_565
Ni0 Pu1 2.953944 1_455
Ni1 Ni18 2.396720 1_555
Ni1 Ni23 2.513828 1_556
Ni1 Ni28 2.513828 1_656
Ni1 Ni19 2.513835 1_556
Ni1 Ni7 2.594091 1_556
Ni1 Ni17 2.594098 1_556
Ni1 Ni4 2.594098 1_556
Ni1 Ni11 2.719821 1_555
Ni1 Ni24 2.719821 1_555
Ni1 Ni13 2.719825 1_555
Ni1 Ni31 2.719825 1_555
Ni1 Ni21 2.719829 1_555
Ni1 Ni27 2.719829 1_555
Ni1 Pu1 2.793406 1_556
Ni2 Ni6 2.375675 1_555
Ni2 Ni27 2.375675 1_555
Ni2 Ni21 2.375675 1_555
Ni2 Ni9 2.400685 1_555
Ni2 Ni5 2.400685 1_555
Ni2 Ni8 2.513835 1_555
Ni2 Pu3 3.109159 1_555
Ni2 Pu1 3.109159 1_555
Ni3 Ni5 2.389887 1_655
Ni3 Ni9 2.389887 1_545
Ni3 Ni33 2.400685 1_555
Ni3 Ni32 2.400685 1_655
Ni3 Pu2 2.982767 1_655
Ni3 Pu1 3.015049 1_555
Ni3 Pu0 3.210344 1_655
Ni4 Pu2 2.982767 1_555
Ni4 Pu1 3.015055 1_555
Ni4 Pu0 3.210345 1_554
Ni5 Ni8 2.594098 1_555
Ni5 Pu0 2.982767 1_555
Ni5 Pu3 3.015055 1_555
Ni5 Pu2 3.210345 1_555
Ni6 Ni9 2.489651 1_555
Ni6 Ni8 2.719829 1_555
Ni6 Pu2 2.888253 1_665
Ni6 Pu1 2.953948 1_555
Ni7 Pu2 2.982767 1_655
Ni7 Pu1 3.015049 1_555
Ni7 Pu0 3.210344 1_654
Ni8 Ni9 2.594098 1_555
Ni8 Pu3 2.793406 1_555
Ni9 Pu0 2.982767 1_665
Ni9 Pu3 3.015055 1_555
Ni9 Pu2 3.210345 1_665
Ni10 Ni29 2.371554 1_555
Ni10 Ni2 2.375675 1_555
Ni10 Ni19 2.375675 1_555
Ni10 Ni16 2.481810 1_555
Ni10 Ni4 2.481810 1_555
Ni10 Ni5 2.489651 1_555
Ni10 Ni14 2.489651 1_554
Ni10 Ni6 2.510971 1_555
Ni10 Ni8 2.719829 1_555
Ni10 Ni26 2.719829 1_555
Ni10 Pu2 2.888253 1_555
Ni10 Pu1 2.953948 1_555
Ni11 Ni24 2.371554 1_555
Ni11 Ni32 2.375675 1_655
Ni11 Ni28 2.375675 1_656
Ni11 Ni14 2.481810 1_655
Ni11 Ni5 2.481810 1_655
Ni11 Ni7 2.489651 1_556
Ni11 Ni3 2.489651 1_555
Ni11 Ni13 2.510971 1_555
Ni11 Ni18 2.719821 1_555
Ni11 Pu0 2.888253 1_655
Ni11 Pu3 2.953944 1_655
Ni12 Ni6 2.371554 1_555
Ni12 Ni33 2.375675 1_565
Ni12 Ni23 2.375675 1_565
Ni12 Ni3 2.481810 1_565
Ni12 Ni7 2.481810 1_565
Ni12 Ni9 2.489651 1_555
Ni12 Ni22 2.489651 1_554
Ni12 Ni20 2.510971 1_555
Ni12 Ni8 2.719825 1_555
Ni12 Ni26 2.719825 1_555
Ni12 Pu2 2.888253 1_665
Ni12 Pu1 2.953940 1_565
Ni13 Ni27 2.371554 1_555
Ni13 Ni32 2.375675 1_655
Ni13 Ni28 2.375675 1_656
Ni13 Ni25 2.481810 1_655
Ni13 Ni30 2.481810 1_655
Ni13 Ni17 2.489651 1_556
Ni13 Ni15 2.489651 1_555
Ni13 Ni18 2.719825 1_555
Ni13 Pu0 2.888253 1_665
Ni13 Pu3 2.953940 1_655
Ni14 Ni4 2.389886 1_556
Ni14 Ni7 2.389887 1_456
Ni14 Ni28 2.400685 1_556
Ni14 Ni19 2.400685 1_556
Ni14 Ni21 2.481810 1_555
Ni14 Ni29 2.489651 1_556
Ni14 Ni26 2.594098 1_556
Ni14 Pu0 2.982767 1_555
Ni14 Pu3 3.015055 1_555
Ni14 Pu2 3.210345 1_556
Ni15 Ni9 2.389886 1_555
Ni15 Ni30 2.389887 1_655
Ni15 Ni32 2.400685 1_655
Ni15 Ni2 2.400685 1_555
Ni15 Ni6 2.481810 1_555
Ni15 Ni27 2.489651 1_555
Ni15 Ni18 2.594098 1_555
Ni15 Pu2 2.982767 1_665
Ni15 Pu1 3.015055 1_555
Ni15 Pu0 3.210345 1_665
Ni16 Ni5 2.389886 1_555
Ni16 Ni30 2.389887 1_545
Ni16 Ni33 2.400685 1_555
Ni16 Ni2 2.400685 1_555
Ni16 Ni20 2.481810 1_545
Ni16 Ni31 2.489651 1_555
Ni16 Ni21 2.489651 1_555
Ni16 Ni18 2.594098 1_555
Ni16 Pu2 2.982767 1_555
Ni16 Pu1 3.015055 1_555
Ni16 Pu0 3.210345 1_555
Ni17 Ni22 2.389886 1_554
Ni17 Ni25 2.389887 1_654
Ni17 Ni28 2.400685 1_655
Ni17 Ni19 2.400685 1_555
Ni17 Ni6 2.481810 1_555
Ni17 Ni27 2.489651 1_554
Ni17 Pu2 2.982767 1_665
Ni17 Pu1 3.015055 1_555
Ni17 Pu0 3.210345 1_664
Ni18 Ni33 2.513828 1_555
Ni18 Ni32 2.513828 1_655
Ni18 Ni2 2.513835 1_555
Ni18 Ni3 2.594091 1_555
Ni18 Ni24 2.719821 1_555
Ni18 Ni31 2.719825 1_555
Ni18 Ni21 2.719829 1_555
Ni18 Ni27 2.719829 1_555
Ni18 Pu1 2.793406 1_555
Ni19 Ni6 2.375675 1_555
Ni19 Ni27 2.375675 1_554
Ni19 Ni21 2.375675 1_554
Ni19 Ni22 2.400685 1_554
Ni19 Ni4 2.400685 1_555
Ni19 Ni26 2.513835 1_555
Ni19 Pu3 3.109159 1_554
Ni19 Pu1 3.109159 1_555
Ni20 Ni23 2.375675 1_565
Ni20 Ni33 2.375675 1_565
Ni20 Ni4 2.481810 1_565
Ni20 Ni30 2.489651 1_555
Ni20 Ni25 2.489651 1_554
Ni20 Ni8 2.719821 1_555
Ni20 Ni26 2.719821 1_555
Ni20 Pu2 2.888253 1_565
Ni20 Pu1 2.953944 1_565
Ni21 Ni31 2.371554 1_555
Ni21 Ni5 2.481810 1_555
Ni21 Ni4 2.489651 1_556
Ni21 Ni27 2.510971 1_555
Ni21 Pu0 2.888253 1_555
Ni21 Pu3 2.953948 1_555
Ni22 Ni7 2.389887 1_566
Ni22 Ni23 2.400685 1_566
Ni22 Ni27 2.481810 1_555
Ni22 Ni24 2.481810 1_565
Ni22 Ni6 2.489651 1_556
Ni22 Ni26 2.594098 1_556
Ni22 Pu0 2.982767 1_665
Ni22 Pu3 3.015055 1_555
Ni22 Pu2 3.210345 1_666
Ni23 Ni31 2.375675 1_554
Ni23 Ni24 2.375675 1_554
Ni23 Ni4 2.400685 1_555
Ni23 Ni7 2.400685 1_555
Ni23 Ni25 2.400685 1_544
Ni23 Ni26 2.513828 1_545
Ni23 Pu3 3.109154 1_544
Ni23 Pu1 3.109154 1_555
Ni24 Ni33 2.375675 1_555
Ni24 Ni9 2.481810 1_545
Ni24 Ni7 2.489651 1_556
Ni24 Ni3 2.489651 1_555
Ni24 Ni31 2.510971 1_555
Ni24 Pu0 2.888253 1_655
Ni24 Pu3 2.953944 1_545
Ni25 Ni4 2.389887 1_566
Ni25 Ni28 2.400685 1_556
Ni25 Ni31 2.481810 1_565
Ni25 Ni26 2.594091 1_556
Ni25 Pu0 2.982767 1_565
Ni25 Pu3 3.015049 1_555
Ni25 Pu2 3.210344 1_566
Ni26 Ni8 2.396720 1_555
Ni26 Ni28 2.513828 1_555
Ni26 Ni29 2.719825 1_555
Ni26 Ni6 2.719829 1_555
Ni26 Pu3 2.793406 1_554
Ni27 Ni9 2.481810 1_555
Ni27 Pu0 2.888253 1_665
Ni27 Pu3 2.953948 1_555
Ni28 Ni29 2.375675 1_555
Ni28 Ni7 2.400685 1_455
Ni28 Pu3 3.109154 1_554
Ni28 Pu1 3.109154 1_455
Ni29 Ni32 2.375675 1_555
Ni29 Ni3 2.481810 1_455
Ni29 Ni7 2.481810 1_455
Ni29 Ni5 2.489651 1_555
Ni29 Ni8 2.719825 1_555
Ni29 Pu2 2.888253 1_555
Ni29 Pu1 2.953940 1_455
Ni30 Ni33 2.400685 1_565
Ni30 Ni32 2.400685 1_555
Ni30 Ni31 2.481810 1_565
Ni30 Ni8 2.594091 1_555
Ni30 Pu0 2.982767 1_565
Ni30 Pu3 3.015049 1_555
Ni30 Pu2 3.210344 1_565
Ni31 Ni33 2.375675 1_555
Ni31 Ni4 2.489651 1_556
Ni31 Pu0 2.888253 1_555
Ni31 Pu3 2.953940 1_545
Ni32 Ni5 2.400685 1_555
Ni32 Ni8 2.513828 1_555
Ni32 Pu3 3.109154 1_555
Ni32 Pu1 3.109154 1_455
Ni33 Ni9 2.400685 1_545
Ni33 Ni8 2.513828 1_545
Ni33 Pu3 3.109154 1_545
Ni33 Pu1 3.109154 1_555
