# generated using pymatgen
data_RbVBr3
_symmetry_space_group_name_H-M   'P 1'
_cell_length_a   12.89200448
_cell_length_b   12.89195418
_cell_length_c   6.45834038
_cell_angle_alpha   90.00080995
_cell_angle_beta   89.99957500
_cell_angle_gamma   119.99995016
_symmetry_Int_Tables_number   1
_chemical_formula_structural   RbVBr3
_chemical_formula_sum   'Rb6 V6 Br18'
_cell_volume   929.58901081
_cell_formula_units_Z   6
loop_
 _symmetry_equiv_pos_site_id
 _symmetry_equiv_pos_as_xyz
  1  'x, y, z'
loop_
 _atom_site_type_symbol
 _atom_site_label
 _atom_site_symmetry_multiplicity
 _atom_site_fract_x
 _atom_site_fract_y
 _atom_site_fract_z
 _atom_site_occupancy
  Rb  Rb0  1  0.99999068  0.33222396  0.74999606  1
  Rb  Rb1  1  0.33223419  0.33222384  0.24999713  1
  Rb  Rb2  1  0.66777491  0.66776459  0.74999620  1
  Rb  Rb3  1  0.99999073  0.66776459  0.24999735  1
  Rb  Rb4  1  0.33223426  0.00000817  0.74999647  1
  Rb  Rb5  1  0.66777483  0.00000818  0.24999704  1
  V  V0  1  0.33333357  0.66666669  0.52700008  1
  V  V1  1  0.66666637  0.33333057  0.47298429  1
  V  V2  1  0.00000049  -0.00000048  -0.00000175  1
  V  V3  1  0.00000029  -0.00000064  0.49999562  1
  V  V4  1  0.66666717  0.33333096  0.97298943  1
  V  V5  1  0.33333309  0.66666607  0.02700437  1
  Br  Br0  1  0.82935797  0.49558464  0.72227359  1
  Br  Br1  1  0.33379596  0.50442660  0.77772617  1
  Br  Br2  1  0.17063087  0.66620332  0.77772628  1
  Br  Br3  1  0.82936392  0.33378833  0.22229316  1
  Br  Br4  1  0.17063143  0.50442618  0.27772798  1
  Br  Br5  1  0.16280118  0.00000384  0.24999793  1
  Br  Br6  1  0.33379565  0.82936832  0.27772751  1
  Br  Br7  1  0.49557364  0.82936832  0.77772687  1
  Br  Br8  1  0.66620825  0.17063300  0.72229117  1
  Br  Br9  1  0.66622959  0.49558403  0.22227626  1
  Br  Br10  1  0.99999513  0.16279532  0.24999799  1
  Br  Br11  1  0.16280176  0.16279583  0.74999657  1
  Br  Br12  1  0.83720463  0.00000402  0.74999670  1
  Br  Br13  1  0.99999504  0.83719846  0.74999667  1
  Br  Br14  1  0.83720424  0.83719820  0.24999809  1
  Br  Br15  1  0.50441256  0.17064110  0.22227699  1
  Br  Br16  1  0.49557298  0.66620314  0.27772731  1
  Br  Br17  1  0.50442660  0.33378885  0.72229146  1
loop_
_geom_bond_atom_site_label_1
_geom_bond_atom_site_label_2
_geom_bond_distance
_geom_bond_site_symmetry_2
Br0 V1 2.641856 1_555
Br0 V4 2.647492 1_555
Br0 Rb2 3.731312 1_555
Br0 Rb0 3.733555 1_555
Br0 Rb3 3.766524 1_555
Br0 Rb3 4.061925 1_556
Br1 V5 2.641779 1_556
Br1 V0 2.647528 1_555
Br1 Rb0 3.731798 1_455
Br1 Rb2 3.733406 1_555
Br1 Rb1 3.766624 1_556
Br1 Rb1 4.062046 1_555
Br2 V5 2.641812 1_556
Br2 V0 2.647505 1_555
Br2 Rb4 3.731781 1_565
Br2 Rb0 3.733394 1_455
Br2 Rb3 3.766583 1_456
Br2 Rb3 4.062083 1_455
Br3 V4 2.641885 1_554
Br3 V1 2.647342 1_555
Br3 Rb5 3.731498 1_555
Br3 Rb3 3.733350 1_555
Br3 Rb0 3.766630 1_554
Br3 Rb0 4.061859 1_555
Br4 V0 2.641774 1_555
Br4 V5 2.647508 1_555
Br4 Rb1 3.731784 1_555
Br4 Rb3 3.733401 1_455
Br4 Rb0 3.766597 1_455
Br4 Rb0 4.062076 1_454
Br5 V3 2.647971 1_555
Br5 V2 2.647997 1_555
Br5 Rb1 3.709406 1_555
Br5 Rb3 3.709618 1_445
Br5 Rb4 3.898549 1_554
Br5 Rb4 3.898560 1_555
Br6 V0 2.641790 1_555
Br6 V5 2.647477 1_555
Br6 Rb3 3.731794 1_455
Br6 Rb5 3.733409 1_565
Br6 Rb4 3.766553 1_565
Br6 Rb4 4.062100 1_564
Br7 V5 2.641813 1_556
Br7 V0 2.647504 1_555
Br7 Rb2 3.731783 1_555
Br7 Rb4 3.733401 1_565
Br7 Rb5 3.766576 1_566
Br7 Rb5 4.062083 1_565
Br8 V1 2.641904 1_555
Br8 V4 2.647354 1_555
Br8 Rb0 3.731536 1_555
Br8 Rb4 3.733341 1_555
Br8 Rb5 3.766591 1_555
Br8 Rb5 4.061877 1_556
Br9 V4 2.641822 1_554
Br9 V1 2.647462 1_555
Br9 Rb3 3.731303 1_555
Br9 Rb1 3.733585 1_555
Br9 Rb2 3.766565 1_554
Br9 Rb2 4.061898 1_555
Br10 V2 2.647963 1_655
Br10 V3 2.647991 1_655
Br10 Rb5 3.709424 1_555
Br10 Rb1 3.709631 1_655
Br10 Rb0 3.898513 1_555
Br10 Rb0 3.898585 1_554
Br11 V3 2.647986 1_555
Br11 V2 2.648005 1_556
Br11 Rb4 3.709412 1_555
Br11 Rb0 3.709622 1_455
Br11 Rb1 3.898539 1_556
Br11 Rb1 3.898557 1_555
Br12 V3 2.647978 1_655
Br12 V2 2.648000 1_656
Br12 Rb0 3.709405 1_555
Br12 Rb2 3.709621 1_545
Br12 Rb5 3.898550 1_556
Br12 Rb5 3.898573 1_555
Br13 V2 2.647968 1_666
Br13 V3 2.648002 1_665
Br13 Rb2 3.709422 1_555
Br13 Rb4 3.709633 1_665
Br13 Rb3 3.898526 1_555
Br13 Rb3 3.898584 1_556
Br14 V3 2.647969 1_665
Br14 V2 2.647997 1_665
Br14 Rb3 3.709411 1_555
Br14 Rb5 3.709625 1_565
Br14 Rb2 3.898555 1_554
Br14 Rb2 3.898559 1_555
Br15 V4 2.641860 1_554
Br15 V1 2.647435 1_555
Br15 Rb1 3.731290 1_555
Br15 Rb5 3.733574 1_555
Br15 Rb4 3.766517 1_554
Br15 Rb4 4.061922 1_555
Br16 V0 2.641776 1_555
Br16 V5 2.647514 1_555
Br16 Rb5 3.731783 1_565
Br16 Rb1 3.733393 1_555
Br16 Rb2 3.766601 1_555
Br16 Rb2 4.062070 1_554
Br17 V1 2.641888 1_555
Br17 V4 2.647397 1_555
Br17 Rb4 3.731505 1_555
Br17 Rb2 3.733344 1_555
Br17 Rb1 3.766649 1_555
Br17 Rb1 4.061853 1_556
