# generated using pymatgen
data_SrGa2B2O7
_symmetry_space_group_name_H-M   'P 1'
_cell_length_a   7.27419960
_cell_length_b   7.27419960
_cell_length_c   5.80079400
_cell_angle_alpha   90.00000000
_cell_angle_beta   90.00000000
_cell_angle_gamma   109.09237384
_symmetry_Int_Tables_number   1
_chemical_formula_structural   SrGa2B2O7
_chemical_formula_sum   'Sr2 Ga4 B4 O14'
_cell_volume   290.05891122
_cell_formula_units_Z   2
loop_
 _symmetry_equiv_pos_site_id
 _symmetry_equiv_pos_as_xyz
  1  'x, y, z'
loop_
 _atom_site_type_symbol
 _atom_site_label
 _atom_site_symmetry_multiplicity
 _atom_site_fract_x
 _atom_site_fract_y
 _atom_site_fract_z
 _atom_site_occupancy
  Sr  Sr0  1  0.18342400  0.18342400  0.75000000  1
  Sr  Sr1  1  0.81657600  0.81657600  0.25000000  1
  Ga  Ga0  1  0.87497200  0.29289800  0.25000000  1
  Ga  Ga1  1  0.70710200  0.12502800  0.75000000  1
  Ga  Ga2  1  0.29289800  0.87497200  0.25000000  1
  Ga  Ga3  1  0.12502800  0.70710200  0.75000000  1
  B  B0  1  0.70486700  0.48687100  0.75000000  1
  B  B1  1  0.48687100  0.70486700  0.75000000  1
  B  B2  1  0.51312900  0.29513300  0.25000000  1
  B  B3  1  0.29513300  0.51312900  0.25000000  1
  O  O0  1  0.66112300  0.66112300  0.75000000  1
  O  O1  1  0.87059900  0.12940100  0.00000000  1
  O  O2  1  0.69534100  0.43462100  0.25000000  1
  O  O3  1  0.33887700  0.33887700  0.25000000  1
  O  O4  1  0.12940100  0.87059900  0.00000000  1
  O  O5  1  0.49759900  0.89499500  0.75000000  1
  O  O6  1  0.89499500  0.49759900  0.75000000  1
  O  O7  1  0.10500500  0.50240100  0.25000000  1
  O  O8  1  0.30465900  0.56537900  0.75000000  1
  O  O9  1  0.43462100  0.69534100  0.25000000  1
  O  O10  1  0.50240100  0.10500500  0.25000000  1
  O  O11  1  0.87059900  0.12940100  0.50000000  1
  O  O12  1  0.12940100  0.87059900  0.50000000  1
  O  O13  1  0.56537900  0.30465900  0.75000000  1
loop_
_geom_bond_atom_site_label_1
_geom_bond_atom_site_label_2
_geom_bond_distance
_geom_bond_site_symmetry_2
Ga0 O7 1.858552 1_655
Ga0 O11 1.869170 1_555
Ga0 O1 1.869170 1_555
Ga0 O2 1.910870 1_555
Ga1 O5 1.858552 1_545
Ga1 O11 1.869170 1_555
Ga1 O1 1.869170 1_556
Ga1 O13 1.910870 1_555
Ga2 O10 1.858552 1_565
Ga2 O4 1.869170 1_555
Ga2 O12 1.869170 1_555
Ga2 O9 1.910870 1_555
Ga3 O6 1.858552 1_455
Ga3 O12 1.869170 1_555
Ga3 O4 1.869170 1_556
Ga3 O8 1.910870 1_555
B0 O6 1.359505 1_555
B0 O13 1.380779 1_555
B0 O0 1.404199 1_555
B1 O5 1.359505 1_555
B1 O8 1.380779 1_555
B1 O0 1.404199 1_555
B2 O10 1.359505 1_555
B2 O2 1.380779 1_555
B2 O3 1.404199 1_555
B3 O7 1.359505 1_555
B3 O9 1.380779 1_555
B3 O3 1.404199 1_555
O0 Sr1 3.183268 1_556
O0 Sr1 3.183268 1_555
O1 Sr1 2.617374 1_545
O1 Sr0 2.617374 1_654
O2 Sr1 2.625721 1_555
O3 Sr0 3.183268 1_555
O3 Sr0 3.183268 1_554
O4 Sr1 2.617374 1_455
O4 Sr0 2.617374 1_564
O8 Sr0 2.625721 1_555
O9 Sr1 2.625721 1_555
O11 Sr1 2.617374 1_545
O11 Sr0 2.617374 1_655
O12 Sr1 2.617374 1_455
O12 Sr0 2.617374 1_565
O13 Sr0 2.625721 1_555
