# generated using pymatgen
data_CsUVO6
_symmetry_space_group_name_H-M   'P 1'
_cell_length_a   8.49540600
_cell_length_b   7.83956500
_cell_length_c   10.62829446
_cell_angle_alpha   73.92977387
_cell_angle_beta   90.00000000
_cell_angle_gamma   90.00000000
_symmetry_Int_Tables_number   1
_chemical_formula_structural   CsUVO6
_chemical_formula_sum   'Cs4 U4 V4 O24'
_cell_volume   680.18700502
_cell_formula_units_Z   4
loop_
 _symmetry_equiv_pos_site_id
 _symmetry_equiv_pos_as_xyz
  1  'x, y, z'
loop_
 _atom_site_type_symbol
 _atom_site_label
 _atom_site_symmetry_multiplicity
 _atom_site_fract_x
 _atom_site_fract_y
 _atom_site_fract_z
 _atom_site_occupancy
  Cs  Cs0  1  0.26707800  0.53450700  0.13573300  1
  Cs  Cs1  1  0.76707800  0.46549300  0.36426700  1
  Cs  Cs2  1  0.73292200  0.46549300  0.86426700  1
  Cs  Cs3  1  0.23292200  0.53450700  0.63573300  1
  U  U0  1  0.48170500  0.98957200  0.31985900  1
  U  U1  1  0.98170500  0.01042800  0.18014100  1
  U  U2  1  0.51829500  0.01042800  0.68014100  1
  U  U3  1  0.01829500  0.98957200  0.81985900  1
  V  V0  1  0.14782300  0.09942700  0.44245200  1
  V  V1  1  0.64782300  0.90057300  0.05754800  1
  V  V2  1  0.85217700  0.90057300  0.55754800  1
  V  V3  1  0.35217700  0.09942700  0.94245200  1
  O  O0  1  0.44019800  0.75107600  0.38020700  1
  O  O1  1  0.94019800  0.24892400  0.11979300  1
  O  O2  1  0.55980200  0.24892400  0.61979300  1
  O  O3  1  0.05980200  0.75107600  0.88020700  1
  O  O4  1  0.02579300  0.77313300  0.23984700  1
  O  O5  1  0.52579300  0.22686700  0.26015300  1
  O  O6  1  0.97420700  0.22686700  0.76015300  1
  O  O7  1  0.47420700  0.77313300  0.73984700  1
  O  O8  1  0.34498400  0.02906700  0.50499900  1
  O  O9  1  0.84498400  0.97093300  0.99500100  1
  O  O10  1  0.65501600  0.97093300  0.49500100  1
  O  O11  1  0.15501600  0.02906700  0.00499900  1
  O  O12  1  0.13383000  0.31308300  0.42982200  1
  O  O13  1  0.63383000  0.68691700  0.07017800  1
  O  O14  1  0.86617000  0.68691700  0.57017800  1
  O  O15  1  0.36617000  0.31308300  0.92982200  1
  O  O16  1  0.44038900  0.96912500  0.10703300  1
  O  O17  1  0.94038900  0.03087500  0.39296700  1
  O  O18  1  0.55961100  0.03087500  0.89296700  1
  O  O19  1  0.05961100  0.96912500  0.60703300  1
  O  O20  1  0.21138300  0.07275100  0.28282500  1
  O  O21  1  0.71138300  0.92724900  0.21717500  1
  O  O22  1  0.78861700  0.92724900  0.71717500  1
  O  O23  1  0.28861700  0.07275100  0.78282500  1
loop_
_geom_bond_atom_site_label_1
_geom_bond_atom_site_label_2
_geom_bond_distance
_geom_bond_site_symmetry_2
Cs0 O4 3.173619 1_555
Cs0 O15 3.258000 1_554
Cs0 O5 3.260418 1_555
Cs0 O3 3.287271 1_554
Cs0 O12 3.325744 1_555
Cs0 O13 3.340629 1_555
Cs0 O20 3.555127 1_555
Cs0 O1 3.600379 1_455
Cs0 O16 3.646173 1_555
Cs0 O0 3.773498 1_555
Cs1 O5 3.173619 1_555
Cs1 O14 3.258000 1_555
Cs1 O4 3.260418 1_655
Cs1 O2 3.287271 1_555
Cs1 O13 3.325744 1_555
Cs1 O12 3.340629 1_655
Cs1 O21 3.555127 1_555
Cs1 O0 3.600379 1_555
Cs1 O17 3.646173 1_555
Cs1 O1 3.773498 1_555
Cs2 O6 3.173619 1_555
Cs2 O13 3.258000 1_556
Cs2 O7 3.260418 1_555
Cs2 O1 3.287271 1_556
Cs2 O14 3.325744 1_555
Cs2 O15 3.340629 1_555
Cs2 O22 3.555127 1_555
Cs2 O3 3.600379 1_655
Cs2 O18 3.646173 1_555
Cs2 O2 3.773498 1_555
Cs3 O7 3.173619 1_555
Cs3 O12 3.258000 1_555
Cs3 O6 3.260418 1_455
Cs3 O0 3.287271 1_555
Cs3 O15 3.325744 1_555
Cs3 O14 3.340629 1_455
Cs3 O23 3.555127 1_555
Cs3 O2 3.600379 1_555
Cs3 O19 3.646173 1_555
Cs3 O3 3.773498 1_555
O0 U0 1.835102 1_555
O1 U1 1.835102 1_555
O2 U2 1.835102 1_555
O3 U3 1.835102 1_555
O4 U1 1.830325 1_465
O5 U0 1.830325 1_545
O6 U3 1.830325 1_645
O7 U2 1.830325 1_565
O8 V0 1.829936 1_555
O8 U2 2.345977 1_555
O8 U0 2.377853 1_545
O9 V1 1.829936 1_556
O9 U3 2.345977 1_655
O9 U1 2.377853 1_566
O10 V2 1.829936 1_555
O10 U0 2.345977 1_555
O10 U2 2.377853 1_565
O11 V3 1.829936 1_554
O11 U1 2.345977 1_455
O11 U3 2.377853 1_544
O12 V0 1.647179 1_555
O13 V1 1.647179 1_555
O14 V2 1.647179 1_555
O15 V3 1.647179 1_555
O16 V3 1.917181 1_564
O16 V1 1.956372 1_555
O16 U0 2.337985 1_555
O17 V2 1.917181 1_545
O17 V0 1.956372 1_655
O17 U1 2.337985 1_555
O18 V1 1.917181 1_546
O18 V3 1.956372 1_555
O18 U2 2.337985 1_555
O19 V0 1.917181 1_565
O19 V2 1.956372 1_455
O19 U3 2.337985 1_555
O20 V0 1.846633 1_555
O20 U1 2.352061 1_455
O20 U0 2.389966 1_545
O21 V1 1.846633 1_555
O21 U0 2.352061 1_555
O21 U1 2.389966 1_565
O22 V2 1.846633 1_555
O22 U3 2.352061 1_655
O22 U2 2.389966 1_565
O23 V3 1.846633 1_555
O23 U2 2.352061 1_555
O23 U3 2.389966 1_545
