# generated using pymatgen
data_FeF2
_symmetry_space_group_name_H-M   'P 1'
_cell_length_a   3.33813423
_cell_length_b   4.64948115
_cell_length_c   4.64948115
_cell_angle_alpha   90.10100834
_cell_angle_beta   90.00000000
_cell_angle_gamma   90.00000000
_symmetry_Int_Tables_number   1
_chemical_formula_structural   FeF2
_chemical_formula_sum   'Fe2 F4'
_cell_volume   72.16258852
_cell_formula_units_Z   2
loop_
 _symmetry_equiv_pos_site_id
 _symmetry_equiv_pos_as_xyz
  1  'x, y, z'
loop_
 _atom_site_type_symbol
 _atom_site_label
 _atom_site_symmetry_multiplicity
 _atom_site_fract_x
 _atom_site_fract_y
 _atom_site_fract_z
 _atom_site_occupancy
  Fe  Fe0  1  0.50000000  0.50000000  0.50000000  1
  Fe  Fe1  1  0.00000000  0.00000000  -0.00000000  1
  F  F0  1  0.00000000  0.69843392  0.69843392  1
  F  F1  1  0.50000000  0.80145895  0.19854105  1
  F  F2  1  -0.00000000  0.30156608  0.30156608  1
  F  F3  1  0.50000000  0.19854105  0.80145895  1
loop_
_geom_bond_atom_site_label_1
_geom_bond_atom_site_label_2
_geom_bond_distance
_geom_bond_site_symmetry_2
F0 Fe1 1.981157 1_566
F0 Fe0 2.117834 1_455
F0 Fe0 2.117834 1_555
F1 Fe0 1.983947 1_555
F1 Fe1 2.119685 1_565
F1 Fe1 2.119685 1_665
F2 Fe1 1.981157 1_555
F2 Fe0 2.117834 1_455
F2 Fe0 2.117834 1_555
F3 Fe0 1.983947 1_555
F3 Fe1 2.119685 1_656
F3 Fe1 2.119685 1_556
