# generated using pymatgen
data_MnH10S2(NO2)4
_symmetry_space_group_name_H-M   'P 1'
_cell_length_a   5.49335207
_cell_length_b   15.31604345
_cell_length_c   11.85518785
_cell_angle_alpha   107.32262203
_cell_angle_beta   80.84192867
_cell_angle_gamma   87.01109047
_symmetry_Int_Tables_number   1
_chemical_formula_structural   MnH10S2(NO2)4
_chemical_formula_sum   'Mn4 H40 S8 N16 O32'
_cell_volume   934.81703710
_cell_formula_units_Z   4
loop_
 _symmetry_equiv_pos_site_id
 _symmetry_equiv_pos_as_xyz
  1  'x, y, z'
loop_
 _atom_site_type_symbol
 _atom_site_label
 _atom_site_symmetry_multiplicity
 _atom_site_fract_x
 _atom_site_fract_y
 _atom_site_fract_z
 _atom_site_occupancy
  Mn  Mn0  1  0.99946300  0.00002100  0.49998700  1
  Mn  Mn1  1  0.49962200  0.49992700  0.74988400  1
  Mn  Mn2  1  0.00081500  0.99999400  0.99986200  1
  Mn  Mn3  1  0.49973800  0.50001800  0.25022700  1
  H  H0  1  0.36608800  0.40693700  0.47823700  1
  H  H1  1  0.36612500  0.40694500  0.97824600  1
  H  H2  1  0.86575900  0.90673600  0.72823600  1
  H  H3  1  0.86574000  0.90673000  0.22822000  1
  H  H4  1  0.13425400  0.09327100  0.27180000  1
  H  H5  1  0.13429400  0.09329700  0.77181800  1
  H  H6  1  0.63395100  0.59307400  0.52176500  1
  H  H7  1  0.63388900  0.59307500  0.02179700  1
  H  H8  1  0.21162900  0.35376200  0.57083600  1
  H  H9  1  0.21161000  0.35377400  0.07081800  1
  H  H10  1  0.71129600  0.85364800  0.82096500  1
  H  H11  1  0.71131200  0.85365400  0.32096400  1
  H  H12  1  0.28871100  0.14634200  0.17907600  1
  H  H13  1  0.28873100  0.14636300  0.67907600  1
  H  H14  1  0.78838300  0.64625200  0.42915800  1
  H  H15  1  0.78833300  0.64623300  0.92917500  1
  H  H16  1  0.76519000  0.13854700  0.21901100  1
  H  H17  1  0.76519600  0.13857100  0.71906400  1
  H  H18  1  0.26484100  0.63862800  0.46892600  1
  H  H19  1  0.26487300  0.63862000  0.96893300  1
  H  H20  1  0.73513200  0.36138300  0.53108000  1
  H  H21  1  0.73512100  0.36138700  0.03110100  1
  H  H22  1  0.23486200  0.86145900  0.78099000  1
  H  H23  1  0.23482800  0.86148400  0.28101500  1
  H  H24  1  0.57457200  0.30949800  0.61630800  1
  H  H25  1  0.57460000  0.30947300  0.11627400  1
  H  H26  1  0.07487500  0.80968600  0.86652800  1
  H  H27  1  0.07487400  0.80969100  0.36651700  1
  H  H28  1  0.92517700  0.19033900  0.13352700  1
  H  H29  1  0.92516700  0.19034800  0.63354100  1
  H  H30  1  0.42543300  0.69045800  0.38363600  1
  H  H31  1  0.42541900  0.69050600  0.88372000  1
  H  H32  1  0.42021600  0.29009800  0.44618700  1
  H  H33  1  0.42018700  0.29011600  0.94619900  1
  H  H34  1  0.92002100  0.78993500  0.69648500  1
  H  H35  1  0.92004500  0.78991900  0.19650600  1
  H  H36  1  0.07999300  0.21008300  0.30353200  1
  H  H37  1  0.08003200  0.21010400  0.80354100  1
  H  H38  1  0.57978000  0.70990200  0.55379600  1
  H  H39  1  0.57976500  0.70989800  0.05381500  1
  S  S0  1  0.97633800  0.38807900  0.31573500  1
  S  S1  1  0.97646400  0.38813300  0.81581800  1
  S  S2  1  0.47508600  0.88802000  0.56634300  1
  S  S3  1  0.47529000  0.88800600  0.06633500  1
  S  S4  1  0.52478100  0.11201100  0.43367200  1
  S  S5  1  0.52502000  0.11199100  0.93367700  1
  S  S6  1  0.02342900  0.61182200  0.68410100  1
  S  S7  1  0.02355000  0.61190900  0.18425100  1
  N  N0  1  0.93179000  0.13259400  0.16078800  1
  N  N1  1  0.93177500  0.13261700  0.66082700  1
  N  N2  1  0.43153300  0.63269800  0.41087500  1
  N  N3  1  0.43153500  0.63269800  0.91086200  1
  N  N4  1  0.56844700  0.36728500  0.58912400  1
  N  N5  1  0.56844500  0.36728900  0.08915200  1
  N  N6  1  0.06828000  0.86739900  0.83920800  1
  N  N7  1  0.06824000  0.86742400  0.33923400  1
  N  N8  1  0.12065100  0.14619900  0.23526900  1
  N  N9  1  0.12066800  0.14621900  0.73527700  1
  N  N10  1  0.62025400  0.64611400  0.48542000  1
  N  N11  1  0.62022500  0.64610500  0.98543700  1
  N  N12  1  0.37974200  0.35388800  0.51456500  1
  N  N13  1  0.37975500  0.35390100  0.01458300  1
  N  N14  1  0.87937300  0.85379700  0.76476000  1
  N  N15  1  0.87935700  0.85380600  0.26476500  1
  O  O0  1  0.77205600  0.05520600  0.39414800  1
  O  O1  1  0.77224600  0.05515200  0.89423100  1
  O  O2  1  0.26942900  0.55422500  0.64425600  1
  O  O3  1  0.26938000  0.55419400  0.14429000  1
  O  O4  1  0.73053600  0.44580500  0.35574700  1
  O  O5  1  0.73053200  0.44576500  0.85572700  1
  O  O6  1  0.22783700  0.94480400  0.60571500  1
  O  O7  1  0.22802800  0.94486300  0.10586000  1
  O  O8  1  0.32251800  0.05110300  0.41154600  1
  O  O9  1  0.32266600  0.05109500  0.91137800  1
  O  O10  1  0.82026100  0.55129700  0.66152600  1
  O  O11  1  0.81998500  0.55155100  0.16170400  1
  O  O12  1  0.17984400  0.44847700  0.33832600  1
  O  O13  1  0.17987300  0.44855800  0.83836500  1
  O  O14  1  0.67731100  0.94896200  0.58859600  1
  O  O15  1  0.67774500  0.94884100  0.08841700  1
  O  O16  1  0.49291000  0.16618700  0.56336900  1
  O  O17  1  0.49291000  0.16618300  0.06339000  1
  O  O18  1  0.99205900  0.66588900  0.81389900  1
  O  O19  1  0.99256600  0.66590900  0.31408000  1
  O  O20  1  0.00730600  0.33411200  0.18589900  1
  O  O21  1  0.00782500  0.33413100  0.68600600  1
  O  O22  1  0.50721000  0.83381800  0.43664300  1
  O  O23  1  0.50707600  0.83381700  0.93663400  1
  O  O24  1  0.51812200  0.17605900  0.36013600  1
  O  O25  1  0.51831000  0.17600900  0.86008100  1
  O  O26  1  0.01814200  0.67629100  0.61102500  1
  O  O27  1  0.01832800  0.67649700  0.11132600  1
  O  O28  1  0.98158100  0.32350100  0.38866600  1
  O  O29  1  0.98189200  0.32358700  0.88877800  1
  O  O30  1  0.48180500  0.82399300  0.63992100  1
  O  O31  1  0.48173700  0.82393200  0.13986200  1
loop_
_geom_bond_atom_site_label_1
_geom_bond_atom_site_label_2
_geom_bond_distance
_geom_bond_site_symmetry_2
Mn0 O0 2.206744 1_555
Mn0 O6 2.209370 1_645
Mn0 O14 2.211028 1_545
Mn0 O8 2.214007 1_655
Mn0 N7 2.298922 1_645
Mn0 N1 2.299560 1_555
Mn1 O13 2.203106 1_555
Mn1 O10 2.206073 1_555
Mn1 O2 2.207554 1_555
Mn1 O5 2.210982 1_555
Mn1 N4 2.299396 1_555
Mn1 N3 2.302092 1_555
Mn2 O7 2.207090 1_556
Mn2 O1 2.208695 1_465
Mn2 O9 2.209474 1_565
Mn2 O15 2.215262 1_456
Mn2 N6 2.298379 1_555
Mn2 N0 2.300041 1_466
Mn3 O12 2.203061 1_555
Mn3 O11 2.206716 1_555
Mn3 O4 2.208038 1_555
Mn3 O3 2.209999 1_555
Mn3 N2 2.299095 1_555
Mn3 N5 2.302259 1_555
H0 N12 1.031297 1_555
H1 N13 1.031285 1_556
H2 N14 1.031290 1_555
H3 N15 1.031249 1_555
H4 N8 1.031186 1_555
H5 N9 1.031194 1_555
H6 N10 1.031329 1_555
H7 N11 1.031290 1_554
H8 N12 1.050112 1_555
H8 O21 1.732349 1_555
H9 N13 1.050041 1_555
H9 O20 1.733239 1_555
H10 N14 1.049654 1_555
H11 N15 1.049493 1_555
H12 N8 1.049489 1_555
H13 N9 1.049552 1_555
H14 N10 1.050171 1_555
H14 O19 1.732826 1_555
H15 N11 1.050045 1_555
H15 O18 1.733218 1_555
H16 N0 1.036854 1_555
H17 N1 1.036845 1_555
H18 N2 1.036283 1_555
H19 N3 1.036293 1_555
H20 N4 1.036279 1_555
H21 N5 1.036282 1_555
H22 N6 1.036779 1_555
H23 N7 1.036810 1_555
H24 N4 1.028854 1_555
H25 N5 1.028860 1_555
H26 N6 1.028804 1_555
H27 N7 1.028851 1_555
H28 N0 1.028871 1_555
H29 N1 1.028837 1_555
H30 N2 1.028830 1_555
H31 N3 1.028872 1_555
H32 N12 1.053303 1_555
H33 N13 1.053274 1_556
H34 N14 1.053541 1_555
H35 N15 1.053727 1_555
H36 N8 1.053710 1_555
H37 N9 1.053721 1_555
H38 N10 1.053271 1_555
H39 N11 1.053332 1_554
O0 S4 1.501017 1_555
O1 S5 1.501028 1_555
O2 S6 1.500619 1_555
O3 S7 1.500658 1_555
O4 S0 1.500606 1_555
O5 S1 1.500550 1_555
O6 S2 1.500766 1_555
O7 S3 1.501308 1_555
O8 S4 1.492899 1_555
O9 S5 1.493412 1_555
O10 S6 1.493926 1_655
O11 S7 1.494103 1_655
O12 S0 1.494271 1_455
O13 S1 1.494031 1_455
O14 S2 1.493212 1_555
O15 S3 1.493008 1_555
O16 S4 1.490878 1_555
O17 S5 1.490999 1_554
O18 S6 1.491698 1_655
O19 S7 1.491928 1_655
O20 S0 1.491884 1_455
O21 S1 1.491602 1_455
O22 S2 1.490900 1_555
O23 S3 1.491002 1_556
O24 S4 1.496431 1_555
O25 S5 1.496630 1_555
O26 S6 1.496922 1_555
O27 S7 1.497017 1_555
O28 S0 1.496954 1_555
O29 S1 1.496892 1_555
O30 S2 1.496581 1_555
O31 S3 1.496581 1_555
