# generated using pymatgen
data_WSeS2Cl5
_symmetry_space_group_name_H-M   'P 1'
_cell_length_a   10.19472350
_cell_length_b   10.19472350
_cell_length_c   14.45990950
_cell_angle_alpha   65.90506812
_cell_angle_beta   65.90506812
_cell_angle_gamma   57.14074440
_symmetry_Int_Tables_number   1
_chemical_formula_structural   WSeS2Cl5
_chemical_formula_sum   'W4 Se4 S8 Cl20'
_cell_volume   1117.71710984
_cell_formula_units_Z   4
loop_
 _symmetry_equiv_pos_site_id
 _symmetry_equiv_pos_as_xyz
  1  'x, y, z'
loop_
 _atom_site_type_symbol
 _atom_site_label
 _atom_site_symmetry_multiplicity
 _atom_site_fract_x
 _atom_site_fract_y
 _atom_site_fract_z
 _atom_site_occupancy
  W  W0  1  0.23706900  0.61450300  0.73920100  1
  W  W1  1  0.38549700  0.76293100  0.76079900  1
  W  W2  1  0.76293100  0.38549700  0.26079900  1
  W  W3  1  0.61450300  0.23706900  0.23920100  1
  Se  Se0  1  0.91976100  0.77788500  0.73890700  1
  Se  Se1  1  0.77788500  0.91976100  0.23890700  1
  Se  Se2  1  0.08023900  0.22211500  0.26109300  1
  Se  Se3  1  0.22211500  0.08023900  0.76109300  1
  S  S0  1  0.54063400  0.33571900  0.39148600  1
  S  S1  1  0.66428100  0.45936600  0.10851400  1
  S  S2  1  0.75363400  0.13517600  0.37627100  1
  S  S3  1  0.86482400  0.24636600  0.12372900  1
  S  S4  1  0.13517600  0.75363400  0.87627100  1
  S  S5  1  0.24636600  0.86482400  0.62372900  1
  S  S6  1  0.33571900  0.54063400  0.89148600  1
  S  S7  1  0.45936600  0.66428100  0.60851400  1
  Cl  Cl0  1  0.86398400  0.02495700  0.63326600  1
  Cl  Cl1  1  0.86407500  0.76707300  0.38479100  1
  Cl  Cl2  1  0.48267500  0.06389700  0.35299700  1
  Cl  Cl3  1  0.76707300  0.86407500  0.88479100  1
  Cl  Cl4  1  0.13592500  0.23292700  0.61520900  1
  Cl  Cl5  1  0.38040100  0.83798800  0.90477600  1
  Cl  Cl6  1  0.65513300  0.56526800  0.77077100  1
  Cl  Cl7  1  0.23292700  0.13592500  0.11520900  1
  Cl  Cl8  1  0.51732500  0.93610300  0.64700300  1
  Cl  Cl9  1  0.83798800  0.38040100  0.40477600  1
  Cl  Cl10  1  0.13601600  0.97504300  0.36673400  1
  Cl  Cl11  1  0.02495700  0.86398400  0.13326600  1
  Cl  Cl12  1  0.93610300  0.51732500  0.14700300  1
  Cl  Cl13  1  0.61959900  0.16201200  0.09522400  1
  Cl  Cl14  1  0.16201200  0.61959900  0.59522400  1
  Cl  Cl15  1  0.06389700  0.48267500  0.85299700  1
  Cl  Cl16  1  0.97504300  0.13601600  0.86673400  1
  Cl  Cl17  1  0.43473200  0.34486700  0.72922900  1
  Cl  Cl18  1  0.34486700  0.43473200  0.22922900  1
  Cl  Cl19  1  0.56526800  0.65513300  0.27077100  1
loop_
_geom_bond_atom_site_label_1
_geom_bond_atom_site_label_2
_geom_bond_distance
_geom_bond_site_symmetry_2
Se0 W0 2.719787 1_655
Se1 W3 2.719787 1_565
Se2 W2 2.719787 1_455
Se3 W1 2.719787 1_545
S0 S2 2.025639 1_555
S0 W2 2.435723 1_555
S0 W3 2.461677 1_555
S1 S3 2.025639 1_555
S1 W3 2.435723 1_555
S1 W2 2.461677 1_555
S2 W2 2.442032 1_555
S2 W3 2.456586 1_555
S3 W3 2.442032 1_555
S3 W2 2.456586 1_555
S4 S6 2.025639 1_555
S4 W1 2.442032 1_555
S4 W0 2.456586 1_555
S5 S7 2.025639 1_555
S5 W0 2.442032 1_555
S5 W1 2.456586 1_555
S6 W1 2.435723 1_555
S6 W0 2.461677 1_555
S7 W0 2.435723 1_555
S7 W1 2.461677 1_555
Cl0 Se0 2.239341 1_545
Cl1 Se1 2.234523 1_555
Cl2 W3 2.455142 1_555
Cl2 Se1 2.657984 1_545
Cl3 Se0 2.234523 1_555
Cl4 Se3 2.234523 1_555
Cl5 W1 2.468148 1_555
Cl5 Se3 2.691308 1_565
Cl6 W1 2.390221 1_555
Cl7 Se2 2.234523 1_555
Cl8 W1 2.455142 1_555
Cl8 Se3 2.657984 1_565
Cl9 W2 2.468148 1_555
Cl9 Se2 2.691308 1_655
Cl10 Se2 2.239341 1_565
Cl11 Se1 2.239341 1_455
Cl12 W2 2.455142 1_555
Cl12 Se2 2.657984 1_655
Cl13 W3 2.468148 1_555
Cl13 Se1 2.691308 1_545
Cl14 W0 2.468148 1_555
Cl14 Se0 2.691308 1_455
Cl15 W0 2.455142 1_555
Cl15 Se0 2.657984 1_455
Cl16 Se3 2.239341 1_655
Cl17 W0 2.390221 1_555
Cl18 W3 2.390221 1_555
Cl19 W2 2.390221 1_555
