# generated using pymatgen
data_Al3(BRu2)2
_symmetry_space_group_name_H-M   'P 1'
_cell_length_a   2.93109393
_cell_length_b   8.48216168
_cell_length_c   8.48216168
_cell_angle_alpha   90.00000000
_cell_angle_beta   90.00000000
_cell_angle_gamma   90.00000000
_symmetry_Int_Tables_number   1
_chemical_formula_structural   Al3(BRu2)2
_chemical_formula_sum   'Al6 B4 Ru8'
_cell_volume   210.88361068
_cell_formula_units_Z   2
loop_
 _symmetry_equiv_pos_site_id
 _symmetry_equiv_pos_as_xyz
  1  'x, y, z'
loop_
 _atom_site_type_symbol
 _atom_site_label
 _atom_site_symmetry_multiplicity
 _atom_site_fract_x
 _atom_site_fract_y
 _atom_site_fract_z
 _atom_site_occupancy
  Al  Al0  1  0.50000000  -0.00000000  0.00000000  1
  Al  Al1  1  0.50000000  0.50000000  0.50000000  1
  Al  Al2  1  0.50000000  0.34619003  0.00000000  1
  Al  Al3  1  0.50000000  -0.00000000  0.34619003  1
  Al  Al4  1  0.50000000  -0.00000000  0.65380997  1
  Al  Al5  1  0.50000000  0.65380997  0.00000000  1
  B  B0  1  0.50000000  0.30567658  0.30567658  1
  B  B1  1  0.50000000  0.69432342  0.30567658  1
  B  B2  1  0.50000000  0.30567658  0.69432342  1
  B  B3  1  0.50000000  0.69432342  0.69432342  1
  Ru  Ru0  1  -0.00000000  0.82381821  0.82381821  1
  Ru  Ru1  1  0.00000000  0.17618179  0.82381821  1
  Ru  Ru2  1  -0.00000000  0.82381821  0.17618179  1
  Ru  Ru3  1  0.00000000  0.17618179  0.17618179  1
  Ru  Ru4  1  -0.00000000  0.75507878  0.50000000  1
  Ru  Ru5  1  -0.00000000  0.50000000  0.75507878  1
  Ru  Ru6  1  -0.00000000  0.50000000  0.24492122  1
  Ru  Ru7  1  0.00000000  0.24492122  0.50000000  1
loop_
_geom_bond_atom_site_label_1
_geom_bond_atom_site_label_2
_geom_bond_distance
_geom_bond_site_symmetry_2
Al0 Ru2 2.571829 1_645
Al0 Ru0 2.571829 1_644
Al0 Ru3 2.571829 1_655
Al0 Ru1 2.571829 1_654
Al0 Ru1 2.571829 1_554
Al0 Ru2 2.571829 1_545
Al0 Ru0 2.571829 1_544
Al0 Ru3 2.571829 1_555
Al1 B3 2.331024 1_555
Al1 B1 2.331024 1_555
Al1 B2 2.331024 1_555
Al1 B0 2.331024 1_555
Al1 Ru4 2.613250 1_655
Al1 Ru5 2.613250 1_655
Al1 Ru7 2.613250 1_655
Al1 Ru6 2.613250 1_655
Al1 Ru7 2.613250 1_555
Al1 Ru4 2.613250 1_555
Al1 Ru5 2.613250 1_555
Al1 Ru6 2.613250 1_555
Al2 Ru3 2.541759 1_555
Al2 Ru3 2.541759 1_655
Al2 Ru1 2.541759 1_654
Al2 Ru1 2.541759 1_554
Al2 Al5 2.609282 1_555
Al2 B0 2.615472 1_555
Al2 B2 2.615472 1_554
Al2 Ru6 2.857580 1_555
Al2 Ru6 2.857580 1_655
Al2 Ru5 2.857580 1_654
Al2 Ru5 2.857580 1_554
Al3 Ru2 2.541759 1_545
Al3 Ru3 2.541759 1_555
Al3 Ru3 2.541759 1_655
Al3 Ru2 2.541759 1_645
Al3 Al4 2.609282 1_555
Al3 B1 2.615472 1_545
Al3 B0 2.615472 1_555
Al3 Ru7 2.857580 1_655
Al3 Ru7 2.857580 1_555
Al3 Ru4 2.857580 1_545
Al3 Ru4 2.857580 1_645
Al4 Ru1 2.541759 1_655
Al4 Ru0 2.541759 1_545
Al4 Ru0 2.541759 1_645
Al4 Ru1 2.541759 1_555
Al4 B2 2.615472 1_555
Al4 B3 2.615472 1_545
Al4 Ru7 2.857580 1_655
Al4 Ru7 2.857580 1_555
Al4 Ru4 2.857580 1_645
Al4 Ru4 2.857580 1_545
Al5 Ru2 2.541759 1_555
Al5 Ru0 2.541759 1_554
Al5 Ru2 2.541759 1_655
Al5 Ru0 2.541759 1_654
Al5 B3 2.615472 1_554
Al5 B1 2.615472 1_555
Al5 Ru6 2.857580 1_555
Al5 Ru6 2.857580 1_655
Al5 Ru5 2.857580 1_654
Al5 Ru5 2.857580 1_554
B0 Ru3 2.135597 1_555
B0 Ru3 2.135597 1_655
B0 Ru6 2.265002 1_655
B0 Ru7 2.265002 1_555
B0 Ru6 2.265002 1_555
B0 Ru7 2.265002 1_655
B1 Ru2 2.135597 1_655
B1 Ru2 2.135597 1_555
B1 Ru6 2.265002 1_655
B1 Ru4 2.265002 1_555
B1 Ru6 2.265002 1_555
B1 Ru4 2.265002 1_655
B2 Ru1 2.135597 1_555
B2 Ru1 2.135597 1_655
B2 Ru7 2.265002 1_555
B2 Ru5 2.265002 1_555
B2 Ru7 2.265002 1_655
B2 Ru5 2.265002 1_655
B3 Ru0 2.135597 1_655
B3 Ru0 2.135597 1_555
B3 Ru4 2.265002 1_555
B3 Ru5 2.265002 1_555
B3 Ru4 2.265002 1_655
B3 Ru5 2.265002 1_655
