# generated using pymatgen
data_Rb2CoF6
_symmetry_space_group_name_H-M   'P 1'
_cell_length_a   5.96543504
_cell_length_b   5.96543610
_cell_length_c   5.87980318
_cell_angle_alpha   60.47372028
_cell_angle_beta   60.47373445
_cell_angle_gamma   59.05256198
_symmetry_Int_Tables_number   1
_chemical_formula_structural   Rb2CoF6
_chemical_formula_sum   'Rb2 Co1 F6'
_cell_volume   147.89574374
_cell_formula_units_Z   1
loop_
 _symmetry_equiv_pos_site_id
 _symmetry_equiv_pos_as_xyz
  1  'x, y, z'
loop_
 _atom_site_type_symbol
 _atom_site_label
 _atom_site_symmetry_multiplicity
 _atom_site_fract_x
 _atom_site_fract_y
 _atom_site_fract_z
 _atom_site_occupancy
  Rb  Rb0  1  0.75000000  0.75000000  0.75000000  1
  Rb  Rb1  1  0.25000000  0.25000000  0.25000000  1
  Co  Co0  1  -0.00000000  -0.00000000  0.00000000  1
  F  F0  1  0.21385292  0.78614708  0.78614708  1
  F  F1  1  0.21385292  0.78614708  0.21385292  1
  F  F2  1  0.78614708  0.21385292  0.78614708  1
  F  F3  1  0.78614708  0.21385292  0.21385292  1
  F  F4  1  0.78722550  0.78722550  0.21277450  1
  F  F5  1  0.21277450  0.21277450  0.78722550  1
loop_
_geom_bond_atom_site_label_1
_geom_bond_atom_site_label_2
_geom_bond_distance
_geom_bond_site_symmetry_2
Co0 F2 1.778251 1_454
Co0 F1 1.778251 1_545
Co0 F0 1.778251 1_544
Co0 F3 1.778251 1_455
Co0 F5 1.820453 1_554
Co0 F4 1.820453 1_445
F0 Rb0 2.997824 1_455
F0 Rb0 2.997824 1_555
F0 Rb1 2.997824 1_565
F0 Rb1 2.997824 1_556
F1 Rb0 2.997824 1_455
F1 Rb1 2.997824 1_565
F1 Rb0 2.997824 1_554
F1 Rb1 2.997825 1_555
F2 Rb1 2.997824 1_655
F2 Rb0 2.997824 1_545
F2 Rb1 2.997824 1_556
F2 Rb0 2.997825 1_555
F3 Rb1 2.997824 1_655
F3 Rb1 2.997824 1_555
F3 Rb0 2.997824 1_545
F3 Rb0 2.997824 1_554
F4 Rb0 2.957103 1_554
F4 Rb0 2.957103 1_555
F4 Rb1 2.957104 1_565
F4 Rb1 2.957104 1_655
F5 Rb1 2.957103 1_556
F5 Rb1 2.957103 1_555
F5 Rb0 2.957104 1_545
F5 Rb0 2.957104 1_455
