# generated using pymatgen
data_La8C8Cl5
_symmetry_space_group_name_H-M   'P 1'
_cell_length_a   17.17868300
_cell_length_b   6.92159000
_cell_length_c   7.82375622
_cell_angle_alpha   75.68444666
_cell_angle_beta   90.00000000
_cell_angle_gamma   90.00000000
_symmetry_Int_Tables_number   1
_chemical_formula_structural   La8C8Cl5
_chemical_formula_sum   'La16 C16 Cl10'
_cell_volume   901.38807084
_cell_formula_units_Z   2
loop_
 _symmetry_equiv_pos_site_id
 _symmetry_equiv_pos_as_xyz
  1  'x, y, z'
loop_
 _atom_site_type_symbol
 _atom_site_label
 _atom_site_symmetry_multiplicity
 _atom_site_fract_x
 _atom_site_fract_y
 _atom_site_fract_z
 _atom_site_occupancy
  La  La0  1  0.17436600  0.60773700  0.70574900  1
  La  La1  1  0.93095400  0.62400100  0.84343400  1
  La  La2  1  0.19431300  0.87464100  0.08615500  1
  La  La3  1  0.94953300  0.88188100  0.22488600  1
  La  La4  1  0.82563400  0.39226300  0.29425100  1
  La  La5  1  0.69431300  0.62535900  0.91384500  1
  La  La6  1  0.06904600  0.37599900  0.15656600  1
  La  La7  1  0.80568700  0.12535900  0.91384500  1
  La  La8  1  0.30568700  0.37464100  0.08615500  1
  La  La9  1  0.05046700  0.11811900  0.77511400  1
  La  La10  1  0.55046700  0.38188100  0.22488600  1
  La  La11  1  0.56904600  0.12400100  0.84343400  1
  La  La12  1  0.32563400  0.10773700  0.70574900  1
  La  La13  1  0.44953300  0.61811900  0.77511400  1
  La  La14  1  0.43095400  0.87599900  0.15656600  1
  La  La15  1  0.67436600  0.89226300  0.29425100  1
  C  C0  1  0.34011900  0.76721200  0.95882400  1
  C  C1  1  0.08619100  0.72189600  0.90718600  1
  C  C2  1  0.91380900  0.27810400  0.09281400  1
  C  C3  1  0.65988100  0.23278800  0.04117600  1
  C  C4  1  0.15988100  0.26721200  0.95882400  1
  C  C5  1  0.41380900  0.22189600  0.90718600  1
  C  C6  1  0.58619100  0.77810400  0.09281400  1
  C  C7  1  0.03778600  0.77843600  0.02240100  1
  C  C8  1  0.53778600  0.72156400  0.97759900  1
  C  C9  1  0.84011900  0.73278800  0.04117600  1
  C  C10  1  0.28436600  0.71839500  0.85442600  1
  C  C11  1  0.71563400  0.28160500  0.14557400  1
  C  C12  1  0.21563400  0.21839500  0.85442600  1
  C  C13  1  0.96221400  0.22156400  0.97759900  1
  C  C14  1  0.78436600  0.78160500  0.14557400  1
  C  C15  1  0.46221400  0.27843600  0.02240100  1
  Cl  Cl0  1  0.59672400  0.52382900  0.58420400  1
  Cl  Cl1  1  0.09672400  0.97617100  0.41579600  1
  Cl  Cl2  1  0.20252000  0.47447800  0.36062200  1
  Cl  Cl3  1  0.40327600  0.47617100  0.41579600  1
  Cl  Cl4  1  0.90327600  0.02382900  0.58420400  1
  Cl  Cl5  1  0.79748000  0.52552200  0.63937800  1
  Cl  Cl6  1  0.50000000  0.00000000  0.50000000  1
  Cl  Cl7  1  0.70252000  0.02552200  0.63937800  1
  Cl  Cl8  1  0.29748000  0.97447800  0.36062200  1
  Cl  Cl9  1  0.00000000  0.50000000  0.50000000  1
loop_
_geom_bond_atom_site_label_1
_geom_bond_atom_site_label_2
_geom_bond_distance
_geom_bond_site_symmetry_2
C0 C10 1.354658 1_555
C0 La14 2.443657 1_556
C0 La12 2.688827 1_565
C0 La8 2.717890 1_556
C0 La13 2.719767 1_555
C0 La2 2.861024 1_556
C1 C7 1.353366 1_556
C1 La0 2.453232 1_555
C1 La2 2.694499 1_556
C1 La6 2.704710 1_556
C1 La9 2.750310 1_565
C1 La1 2.826073 1_455
C2 La4 2.453232 1_555
C2 La7 2.694499 1_554
C2 La1 2.704710 1_554
C2 La3 2.750310 1_545
C2 La6 2.826073 1_655
C3 La11 2.443657 1_554
C3 La15 2.688827 1_545
C3 La5 2.717890 1_554
C3 La10 2.719767 1_555
C3 La7 2.861024 1_554
C4 La6 2.443657 1_556
C4 La0 2.688827 1_555
C4 La2 2.717890 1_546
C4 La9 2.719767 1_555
C4 La8 2.861024 1_556
C5 La12 2.453232 1_555
C5 La8 2.694499 1_556
C5 La14 2.704710 1_546
C5 La13 2.750310 1_555
C5 La11 2.826073 1_555
C6 C8 1.353366 1_554
C6 La15 2.453232 1_555
C6 La5 2.694499 1_554
C6 La11 2.704710 1_564
C6 La10 2.750310 1_555
C6 La14 2.826073 1_555
C7 La3 2.425228 1_455
C7 La9 2.658754 1_564
C7 La1 2.685407 1_454
C7 La6 2.775482 1_555
C7 La2 2.843729 1_555
C8 La13 2.425228 1_555
C8 La10 2.658754 1_556
C8 La14 2.685407 1_556
C8 La11 2.775482 1_565
C8 La5 2.843729 1_555
C9 La1 2.443657 1_554
C9 La4 2.688827 1_555
C9 La7 2.717890 1_564
C9 La3 2.719767 1_555
C9 La5 2.861024 1_554
C10 La0 2.439487 1_555
C10 La8 2.636104 1_556
C10 La12 2.750956 1_565
C10 La2 2.796303 1_556
C10 La13 3.021642 1_555
C11 C3 1.354658 1_555
C11 La4 2.439487 1_555
C11 La5 2.636104 1_554
C11 La15 2.750956 1_545
C11 La7 2.796303 1_554
C11 La10 3.021642 1_555
C12 C4 1.354658 1_555
C12 La12 2.439487 1_555
C12 La2 2.636104 1_546
C12 La0 2.750956 1_555
C12 La8 2.796303 1_556
C12 La9 3.021642 1_555
C13 C2 1.353366 1_556
C13 La9 2.425228 1_655
C13 La3 2.658754 1_546
C13 La6 2.685407 1_656
C13 La1 2.775482 1_555
C13 La7 2.843729 1_555
C14 C9 1.354658 1_555
C14 La15 2.439487 1_555
C14 La7 2.636104 1_564
C14 La4 2.750956 1_555
C14 La5 2.796303 1_554
C14 La3 3.021642 1_555
C15 C5 1.353366 1_554
C15 La10 2.425228 1_555
C15 La13 2.658754 1_554
C15 La11 2.685407 1_554
C15 La14 2.775482 1_545
C15 La8 2.843729 1_555
Cl0 La11 3.036868 1_555
Cl0 La13 3.087473 1_555
Cl0 La15 3.250782 1_555
Cl0 La5 3.294241 1_555
Cl0 La10 3.296300 1_555
Cl1 La6 3.036868 1_565
Cl1 La3 3.087473 1_455
Cl1 La0 3.250782 1_555
Cl1 La2 3.294241 1_555
Cl1 La9 3.296300 1_565
Cl2 La6 2.967989 1_555
Cl2 La8 2.993905 1_555
Cl2 La2 3.059634 1_555
Cl2 La0 3.099570 1_555
Cl3 La14 3.036868 1_555
Cl3 La10 3.087473 1_555
Cl3 La12 3.250782 1_555
Cl3 La8 3.294241 1_555
Cl3 La13 3.296300 1_555
Cl4 La1 3.036868 1_545
Cl4 La9 3.087473 1_655
Cl4 La4 3.250782 1_555
Cl4 La7 3.294241 1_555
Cl4 La3 3.296300 1_545
Cl5 La1 2.967989 1_555
Cl5 La5 2.993905 1_555
Cl5 La7 3.059634 1_555
Cl5 La4 3.099570 1_555
Cl6 La10 3.091547 1_555
Cl6 La13 3.091547 1_545
Cl6 La11 3.240934 1_555
Cl6 La14 3.240934 1_545
Cl6 La12 3.565562 1_555
Cl6 La15 3.565562 1_545
Cl7 La11 2.967989 1_555
Cl7 La7 2.993905 1_555
Cl7 La5 3.059634 1_545
Cl7 La15 3.099570 1_545
Cl8 La14 2.967989 1_555
Cl8 La2 2.993905 1_555
Cl8 La8 3.059634 1_565
Cl8 La12 3.099570 1_565
Cl9 La3 3.091547 1_455
Cl9 La9 3.091547 1_555
Cl9 La1 3.240934 1_455
Cl9 La6 3.240934 1_555
Cl9 La0 3.565562 1_555
Cl9 La4 3.565562 1_455
