# generated using pymatgen
data_CuP4S3I
_symmetry_space_group_name_H-M   'P 1'
_cell_length_a   11.79479166
_cell_length_b   11.79479166
_cell_length_c   10.90966500
_cell_angle_alpha   90.00000000
_cell_angle_beta   90.00000000
_cell_angle_gamma   139.43323692
_symmetry_Int_Tables_number   1
_chemical_formula_structural   CuP4S3I
_chemical_formula_sum   'Cu4 P16 S12 I4'
_cell_volume   987.02509667
_cell_formula_units_Z   4
loop_
 _symmetry_equiv_pos_site_id
 _symmetry_equiv_pos_as_xyz
  1  'x, y, z'
loop_
 _atom_site_type_symbol
 _atom_site_label
 _atom_site_symmetry_multiplicity
 _atom_site_fract_x
 _atom_site_fract_y
 _atom_site_fract_z
 _atom_site_occupancy
  Cu  Cu0  1  0.79645500  0.79645500  0.50000000  1
  Cu  Cu1  1  0.29645500  0.29645500  0.00000000  1
  Cu  Cu2  1  0.70354500  0.70354500  0.00000000  1
  Cu  Cu3  1  0.20354500  0.20354500  0.50000000  1
  P  P0  1  0.61975900  0.38024100  0.29364200  1
  P  P1  1  0.28277000  0.71723000  0.47328300  1
  P  P2  1  0.44458300  0.28070500  0.45905500  1
  P  P3  1  0.71929500  0.55541700  0.45905500  1
  P  P4  1  0.05541700  0.21929500  0.95905500  1
  P  P5  1  0.94458300  0.78070500  0.04094500  1
  P  P6  1  0.88024100  0.11975900  0.79364200  1
  P  P7  1  0.78070500  0.94458300  0.95905500  1
  P  P8  1  0.11975900  0.88024100  0.20635800  1
  P  P9  1  0.21929500  0.05541700  0.04094500  1
  P  P10  1  0.21723000  0.78277000  0.97328300  1
  P  P11  1  0.55541700  0.71929500  0.54094500  1
  P  P12  1  0.71723000  0.28277000  0.52671700  1
  P  P13  1  0.38024100  0.61975900  0.70635800  1
  P  P14  1  0.28070500  0.44458300  0.54094500  1
  P  P15  1  0.78277000  0.21723000  0.02671700  1
  S  S0  1  0.14360900  0.45989200  0.43634100  1
  S  S1  1  0.28696500  0.71303500  0.66859100  1
  S  S2  1  0.54010800  0.85639100  0.43634100  1
  S  S3  1  0.78696500  0.21303500  0.83140900  1
  S  S4  1  0.64360900  0.95989200  0.06365900  1
  S  S5  1  0.71303500  0.28696500  0.33140900  1
  S  S6  1  0.85639100  0.54010800  0.56365900  1
  S  S7  1  0.04010800  0.35639100  0.06365900  1
  S  S8  1  0.95989200  0.64360900  0.93634100  1
  S  S9  1  0.21303500  0.78696500  0.16859100  1
  S  S10  1  0.45989200  0.14360900  0.56365900  1
  S  S11  1  0.35639100  0.04010800  0.93634100  1
  I  I0  1  0.46821000  0.53179000  0.17649100  1
  I  I1  1  0.96821000  0.03179000  0.32350900  1
  I  I2  1  0.53179000  0.46821000  0.82350900  1
  I  I3  1  0.03179000  0.96821000  0.67649100  1
loop_
_geom_bond_atom_site_label_1
_geom_bond_atom_site_label_2
_geom_bond_distance
_geom_bond_site_symmetry_2
Cu0 P3 2.275834 1_555
Cu0 P11 2.275834 1_555
Cu0 I3 2.640606 1_655
Cu0 I1 2.640606 1_565
Cu1 P9 2.275834 1_555
Cu1 P4 2.275834 1_554
Cu1 I2 2.640606 1_554
Cu1 I0 2.640606 1_555
Cu2 P7 2.275834 1_554
Cu2 P5 2.275834 1_555
Cu2 I2 2.640606 1_554
Cu2 I0 2.640606 1_555
Cu3 P2 2.275834 1_555
Cu3 P14 2.275834 1_555
Cu3 I3 2.640606 1_545
Cu3 I1 2.640606 1_455
P0 S5 2.104623 1_555
P0 P2 2.284418 1_555
P0 P3 2.284418 1_555
P1 S0 2.121359 1_555
P1 S2 2.121359 1_555
P1 S1 2.132766 1_555
P2 S10 2.096016 1_555
P2 P3 2.246499 1_555
P3 S6 2.096016 1_555
P4 S7 2.096016 1_556
P4 P7 2.246499 1_445
P4 P6 2.284418 1_455
P5 S8 2.096016 1_554
P5 P9 2.246499 1_665
P5 P8 2.284418 1_655
P6 S3 2.104623 1_555
P6 P7 2.284418 1_545
P7 S4 2.096016 1_556
P8 S9 2.104623 1_555
P8 P9 2.284418 1_565
P9 S11 2.096016 1_554
P10 S11 2.121359 1_565
P10 S8 2.121359 1_455
P10 S9 2.132766 1_556
P11 S2 2.096016 1_555
P11 P14 2.246499 1_555
P11 P13 2.284418 1_555
P12 S10 2.121359 1_555
P12 S6 2.121359 1_555
P12 S5 2.132766 1_555
P13 S1 2.104623 1_555
P13 P14 2.284418 1_555
P14 S0 2.096016 1_555
P15 S4 2.121359 1_545
P15 S7 2.121359 1_655
P15 S3 2.132766 1_554
