# generated using pymatgen
data_CsFeI4
_symmetry_space_group_name_H-M   'P 1'
_cell_length_a   18.61025117
_cell_length_b   7.37783444
_cell_length_c   8.46307975
_cell_angle_alpha   72.27172592
_cell_angle_beta   90.00000000
_cell_angle_gamma   90.00000000
_symmetry_Int_Tables_number   1
_chemical_formula_structural   CsFeI4
_chemical_formula_sum   'Cs4 Fe4 I16'
_cell_volume   1106.82694910
_cell_formula_units_Z   4
loop_
 _symmetry_equiv_pos_site_id
 _symmetry_equiv_pos_as_xyz
  1  'x, y, z'
loop_
 _atom_site_type_symbol
 _atom_site_label
 _atom_site_symmetry_multiplicity
 _atom_site_fract_x
 _atom_site_fract_y
 _atom_site_fract_z
 _atom_site_occupancy
  Cs  Cs0  1  0.36816645  0.18171244  0.70205158  1
  Cs  Cs1  1  0.63183355  0.81828756  0.29794842  1
  Cs  Cs2  1  0.13183355  0.18171244  0.20205158  1
  Cs  Cs3  1  0.86816645  0.81828756  0.79794842  1
  Fe  Fe0  1  0.12701725  0.81189754  0.79711215  1
  Fe  Fe1  1  0.62701725  0.18810246  0.70288785  1
  Fe  Fe2  1  0.87298275  0.18810246  0.20288785  1
  Fe  Fe3  1  0.37298275  0.81189754  0.29711215  1
  I  I0  1  0.94655066  0.27036843  0.42482117  1
  I  I1  1  0.34725779  0.17098375  0.20359711  1
  I  I2  1  0.74590744  0.36397873  0.65132211  1
  I  I3  1  0.65274221  0.82901625  0.79640289  1
  I  I4  1  0.24590744  0.63602127  0.84867789  1
  I  I5  1  0.44588627  0.72826390  0.56673753  1
  I  I6  1  0.84725779  0.82901625  0.29640289  1
  I  I7  1  0.55411373  0.27173610  0.43326247  1
  I  I8  1  0.05411373  0.72826390  0.06673753  1
  I  I9  1  0.94588627  0.27173610  0.93326247  1
  I  I10  1  0.15274221  0.17098375  0.70359711  1
  I  I11  1  0.55344934  0.27036843  0.92482117  1
  I  I12  1  0.05344934  0.72963157  0.57517883  1
  I  I13  1  0.75409256  0.36397873  0.15132211  1
  I  I14  1  0.44655066  0.72963157  0.07517883  1
  I  I15  1  0.25409256  0.63602127  0.34867789  1
loop_
_geom_bond_atom_site_label_1
_geom_bond_atom_site_label_2
_geom_bond_distance
_geom_bond_site_symmetry_2
Cs0 I10 4.009823 1_555
Cs0 I11 4.077140 1_555
Cs0 I7 4.083000 1_555
Cs0 I14 4.100011 1_546
Cs0 I5 4.105020 1_555
Cs0 I5 4.114462 1_545
Cs0 I1 4.239087 1_556
Cs0 I1 4.261037 1_555
Cs0 I15 4.310536 1_555
Cs0 I4 4.459035 1_545
Cs0 I4 4.525972 1_555
Cs1 I6 4.009823 1_555
Cs1 I14 4.077140 1_555
Cs1 I5 4.083000 1_555
Cs1 I11 4.100011 1_564
Cs1 I7 4.105020 1_555
Cs1 I7 4.114462 1_565
Cs1 I3 4.239087 1_554
Cs1 I3 4.261037 1_555
Cs1 I2 4.310536 1_555
Cs1 I13 4.459035 1_565
Cs1 I13 4.525972 1_555
Cs2 I1 4.009823 1_555
Cs2 I0 4.077140 1_455
Cs2 I9 4.083000 1_454
Cs2 I12 4.100011 1_545
Cs2 I8 4.105020 1_555
Cs2 I8 4.114462 1_545
Cs2 I10 4.239087 1_555
Cs2 I10 4.261037 1_554
Cs2 I4 4.310536 1_554
Cs2 I15 4.459035 1_545
Cs2 I15 4.525972 1_555
Cs3 I3 4.009823 1_555
Cs3 I12 4.077140 1_655
Cs3 I8 4.083000 1_656
Cs3 I0 4.100011 1_565
Cs3 I9 4.105020 1_555
Cs3 I9 4.114462 1_565
Cs3 I6 4.239087 1_555
Cs3 I6 4.261037 1_556
Cs3 I13 4.310536 1_556
Cs3 I2 4.459035 1_565
Cs3 I2 4.525972 1_555
Fe0 I4 2.534721 1_555
Fe0 I12 2.542618 1_555
Fe0 I8 2.563382 1_556
Fe0 I10 2.568526 1_565
Fe1 I2 2.534721 1_555
Fe1 I11 2.542618 1_555
Fe1 I7 2.563382 1_555
Fe1 I3 2.568526 1_545
Fe2 I13 2.534721 1_555
Fe2 I0 2.542618 1_555
Fe2 I9 2.563382 1_554
Fe2 I6 2.568526 1_545
Fe3 I15 2.534721 1_555
Fe3 I14 2.542618 1_555
Fe3 I5 2.563382 1_555
Fe3 I1 2.568526 1_565
