# generated using pymatgen
data_Fe7S8
_symmetry_space_group_name_H-M   'P 1'
_cell_length_a   6.58205000
_cell_length_b   6.58205043
_cell_length_c   15.56692500
_cell_angle_alpha   90.00000000
_cell_angle_beta   90.00000000
_cell_angle_gamma   119.99999786
_symmetry_Int_Tables_number   1
_chemical_formula_structural   Fe7S8
_chemical_formula_sum   'Fe21 S24'
_cell_volume   584.05783766
_cell_formula_units_Z   3
loop_
 _symmetry_equiv_pos_site_id
 _symmetry_equiv_pos_as_xyz
  1  'x, y, z'
loop_
 _atom_site_type_symbol
 _atom_site_label
 _atom_site_symmetry_multiplicity
 _atom_site_fract_x
 _atom_site_fract_y
 _atom_site_fract_z
 _atom_site_occupancy
  Fe  Fe0  1  0.41027200  0.42507800  0.14651100  1
  Fe  Fe1  1  0.08349800  0.00000000  0.33333300  1
  Fe  Fe2  1  0.01480700  0.58972800  0.81317800  1
  Fe  Fe3  1  0.48332300  0.94815400  0.01482000  1
  Fe  Fe4  1  0.00000000  0.43913600  0.16666700  1
  Fe  Fe5  1  0.43913600  0.00000000  0.83333300  1
  Fe  Fe6  1  0.58972800  0.01480700  0.18682200  1
  Fe  Fe7  1  0.00000000  0.01883500  0.16666700  1
  Fe  Fe8  1  0.57492200  0.98519300  0.47984500  1
  Fe  Fe9  1  0.42507800  0.41027200  0.85348900  1
  Fe  Fe10  1  0.91650200  0.91650200  0.00000000  1
  Fe  Fe11  1  0.05184600  0.53516900  0.34815300  1
  Fe  Fe12  1  0.46483100  0.51667700  0.68148600  1
  Fe  Fe13  1  0.98519300  0.57492200  0.52015500  1
  Fe  Fe14  1  0.98116500  0.98116500  0.50000000  1
  Fe  Fe15  1  0.00000000  0.08349800  0.66666700  1
  Fe  Fe16  1  0.51667700  0.46483100  0.31851400  1
  Fe  Fe17  1  0.56086400  0.56086400  0.50000000  1
  Fe  Fe18  1  0.94815400  0.48332300  0.98518000  1
  Fe  Fe19  1  0.53516900  0.05184600  0.65184700  1
  Fe  Fe20  1  0.01883500  0.00000000  0.83333300  1
  S  S0  1  0.21618200  0.85175300  0.42817200  1
  S  S1  1  0.34599200  0.21151100  0.58589800  1
  S  S2  1  0.35154000  0.64959500  0.24625000  1
  S  S3  1  0.14824700  0.36442900  0.76150500  1
  S  S4  1  0.29805500  0.64846000  0.91291700  1
  S  S5  1  0.70194500  0.35040500  0.42041700  1
  S  S6  1  0.35040500  0.70194500  0.57958300  1
  S  S7  1  0.65400800  0.86551900  0.74743500  1
  S  S8  1  0.63557100  0.78381800  0.09483800  1
  S  S9  1  0.13448100  0.78848900  0.08076800  1
  S  S10  1  0.64846000  0.29805500  0.08708300  1
  S  S11  1  0.85175300  0.21618200  0.57182800  1
  S  S12  1  0.70735200  0.82618800  0.39730800  1
  S  S13  1  0.86551900  0.65400800  0.25256500  1
  S  S14  1  0.78848900  0.13448100  0.91923200  1
  S  S15  1  0.82618800  0.70735200  0.60269200  1
  S  S16  1  0.36442900  0.14824700  0.23849500  1
  S  S17  1  0.11883600  0.29264800  0.06397400  1
  S  S18  1  0.78381800  0.63557100  0.90516200  1
  S  S19  1  0.29264800  0.11883600  0.93602600  1
  S  S20  1  0.17381200  0.88116400  0.73064100  1
  S  S21  1  0.21151100  0.34599200  0.41410200  1
  S  S22  1  0.64959500  0.35154000  0.75375000  1
  S  S23  1  0.88116400  0.17381200  0.26935900  1
loop_
_geom_bond_atom_site_label_1
_geom_bond_atom_site_label_2
_geom_bond_distance
_geom_bond_site_symmetry_2
Fe0 S17 2.101960 1_555
Fe0 S16 2.216237 1_555
Fe0 S8 2.218116 1_555
Fe0 S2 2.305475 1_555
Fe0 S10 2.307271 1_555
Fe1 S16 2.178664 1_555
Fe1 S0 2.178674 1_545
Fe1 S13 2.357581 1_445
Fe1 S21 2.357589 1_555
Fe1 S23 2.365971 1_455
Fe1 S12 2.365977 1_445
Fe2 S20 2.101959 1_555
Fe2 S18 2.216242 1_455
Fe2 S3 2.218111 1_555
Fe2 S4 2.305471 1_555
Fe2 S22 2.307276 1_455
Fe3 S8 2.193118 1_555
Fe3 S9 2.239955 1_555
Fe3 S10 2.290783 1_565
Fe3 S14 2.299873 1_564
Fe3 S4 2.342887 1_554
Fe3 S19 2.398263 1_564
Fe4 S23 2.202537 1_455
Fe4 S17 2.202549 1_555
Fe4 S2 2.366929 1_555
Fe4 S10 2.366937 1_455
Fe4 S13 2.413224 1_455
Fe4 S9 2.413232 1_555
Fe5 S20 2.202537 1_545
Fe5 S19 2.202549 1_555
Fe5 S22 2.366929 1_555
Fe5 S4 2.366937 1_545
Fe5 S7 2.413224 1_545
Fe5 S14 2.413232 1_555
Fe6 S23 2.101959 1_555
Fe6 S8 2.216242 1_545
Fe6 S16 2.218111 1_555
Fe6 S10 2.305471 1_555
Fe6 S2 2.307276 1_545
Fe7 S23 2.237352 1_455
Fe7 S17 2.237364 1_555
Fe7 S16 2.384599 1_555
Fe7 S8 2.384607 1_445
Fe7 S13 2.492443 1_445
Fe7 S9 2.492451 1_545
Fe8 S12 2.101955 1_555
Fe8 S11 2.216229 1_565
Fe8 S0 2.218117 1_555
Fe8 S6 2.305462 1_555
Fe8 S5 2.307277 1_565
Fe9 S19 2.101960 1_555
Fe9 S3 2.216237 1_555
Fe9 S18 2.218116 1_555
Fe9 S22 2.305475 1_555
Fe9 S4 2.307271 1_555
Fe10 S8 2.178664 1_555
Fe10 S18 2.178664 1_554
Fe10 S9 2.357581 1_655
Fe10 S14 2.357581 1_564
Fe10 S19 2.365971 1_664
Fe10 S17 2.365971 1_665
Fe11 S0 2.193127 1_555
Fe11 S21 2.239962 1_555
Fe11 S5 2.290790 1_455
Fe11 S13 2.299873 1_455
Fe11 S2 2.342887 1_555
Fe11 S23 2.398264 1_455
Fe12 S3 2.193127 1_555
Fe12 S7 2.239962 1_555
Fe12 S22 2.290790 1_555
Fe12 S1 2.299873 1_555
Fe12 S6 2.342887 1_555
Fe12 S15 2.398263 1_555
Fe13 S15 2.101955 1_555
Fe13 S0 2.216229 1_655
Fe13 S11 2.218117 1_555
Fe13 S5 2.305462 1_555
Fe13 S6 2.307277 1_655
Fe14 S12 2.237352 1_555
Fe14 S15 2.237352 1_555
Fe14 S0 2.384599 1_655
Fe14 S11 2.384600 1_565
Fe14 S1 2.492443 1_665
Fe14 S21 2.492443 1_665
Fe15 S3 2.178664 1_555
Fe15 S11 2.178674 1_455
Fe15 S7 2.357581 1_445
Fe15 S1 2.357589 1_555
Fe15 S20 2.365971 1_545
Fe15 S15 2.365978 1_445
Fe16 S16 2.193127 1_555
Fe16 S13 2.239962 1_555
Fe16 S2 2.290790 1_555
Fe16 S21 2.299873 1_555
Fe16 S5 2.342887 1_555
Fe16 S12 2.398264 1_555
Fe17 S15 2.202537 1_555
Fe17 S12 2.202537 1_555
Fe17 S6 2.366929 1_555
Fe17 S5 2.366929 1_555
Fe17 S21 2.413224 1_555
Fe17 S1 2.413224 1_555
Fe18 S18 2.193118 1_555
Fe18 S14 2.239955 1_555
Fe18 S4 2.290783 1_655
Fe18 S9 2.299873 1_656
Fe18 S10 2.342887 1_556
Fe18 S17 2.398263 1_656
Fe19 S11 2.193127 1_555
Fe19 S1 2.239962 1_555
Fe19 S6 2.290790 1_545
Fe19 S7 2.299873 1_545
Fe19 S22 2.342887 1_555
Fe19 S20 2.398263 1_545
Fe20 S20 2.237352 1_545
Fe20 S19 2.237364 1_555
Fe20 S3 2.384600 1_555
Fe20 S18 2.384607 1_445
Fe20 S7 2.492443 1_445
Fe20 S14 2.492451 1_455
