# generated using pymatgen
data_RbNbSiO5
_symmetry_space_group_name_H-M   'P 1'
_cell_length_a   7.41874200
_cell_length_b   10.46549000
_cell_length_c   20.48842800
_cell_angle_alpha   90.00000000
_cell_angle_beta   90.00000000
_cell_angle_gamma   90.00000000
_symmetry_Int_Tables_number   1
_chemical_formula_structural   RbNbSiO5
_chemical_formula_sum   'Rb12 Nb12 Si12 O60'
_cell_volume   1590.73733039
_cell_formula_units_Z   12
loop_
 _symmetry_equiv_pos_site_id
 _symmetry_equiv_pos_as_xyz
  1  'x, y, z'
loop_
 _atom_site_type_symbol
 _atom_site_label
 _atom_site_symmetry_multiplicity
 _atom_site_fract_x
 _atom_site_fract_y
 _atom_site_fract_z
 _atom_site_occupancy
  Rb  Rb0  1  0.72104200  0.61764700  0.01789600  1
  Rb  Rb1  1  0.74109100  0.61612700  0.34802800  1
  Rb  Rb2  1  0.74250300  0.68651900  0.66743800  1
  Rb  Rb3  1  0.24250300  0.81348100  0.33256200  1
  Rb  Rb4  1  0.25749700  0.18651900  0.83256200  1
  Rb  Rb5  1  0.77895800  0.38235300  0.51789600  1
  Rb  Rb6  1  0.24109100  0.88387300  0.65197200  1
  Rb  Rb7  1  0.75890900  0.38387300  0.84802800  1
  Rb  Rb8  1  0.27895800  0.11764700  0.48210400  1
  Rb  Rb9  1  0.75749700  0.31348100  0.16743800  1
  Rb  Rb10  1  0.25890900  0.11612700  0.15197200  1
  Rb  Rb11  1  0.22104200  0.88235300  0.98210400  1
  Nb  Nb0  1  0.51429900  0.26692400  0.99951200  1
  Nb  Nb1  1  0.26531200  0.48019200  0.42434900  1
  Nb  Nb2  1  0.98570100  0.73307600  0.49951200  1
  Nb  Nb3  1  0.01429900  0.23307600  0.00048800  1
  Nb  Nb4  1  0.73468800  0.98019200  0.07565100  1
  Nb  Nb5  1  0.24129300  0.48423400  0.10401300  1
  Nb  Nb6  1  0.23468800  0.51980800  0.92434900  1
  Nb  Nb7  1  0.48570100  0.76692400  0.50048800  1
  Nb  Nb8  1  0.25870700  0.51576600  0.60401300  1
  Nb  Nb9  1  0.75870600  0.98423400  0.39598700  1
  Nb  Nb10  1  0.74129400  0.01576600  0.89598700  1
  Nb  Nb11  1  0.76531200  0.01980800  0.57565100  1
  Si  Si0  1  0.56618900  0.26877500  0.35026100  1
  Si  Si1  1  0.02286800  0.75721400  0.14944800  1
  Si  Si2  1  0.52286800  0.74278600  0.85055200  1
  Si  Si3  1  0.76543500  0.12256800  0.72950500  1
  Si  Si4  1  0.06618900  0.23122500  0.64973900  1
  Si  Si5  1  0.23456500  0.62256800  0.77049500  1
  Si  Si6  1  0.93381100  0.73122500  0.85026100  1
  Si  Si7  1  0.26543500  0.37743200  0.27049500  1
  Si  Si8  1  0.97713200  0.25721400  0.35055200  1
  Si  Si9  1  0.73456500  0.87743200  0.22950500  1
  Si  Si10  1  0.43381100  0.76877500  0.14973900  1
  Si  Si11  1  0.47713200  0.24278600  0.64944800  1
  O  O0  1  0.92427500  0.87717900  0.56687300  1
  O  O1  1  0.94680400  0.12216400  0.92695900  1
  O  O2  1  0.74379500  0.99623900  0.17859900  1
  O  O3  1  0.07572500  0.37717900  0.93312700  1
  O  O4  1  0.57156100  0.14379900  0.92318100  1
  O  O5  1  0.73420400  0.93414600  0.98491600  1
  O  O6  1  0.97703100  0.14498100  0.59206500  1
  O  O7  1  0.59353100  0.22285500  0.71790400  1
  O  O8  1  0.75620500  0.00376100  0.67859900  1
  O  O9  1  0.42843900  0.64379900  0.57681900  1
  O  O10  1  0.54410700  0.89439400  0.86545600  1
  O  O11  1  0.92467700  0.83163200  0.09003000  1
  O  O12  1  0.76520600  0.31506400  0.00104500  1
  O  O13  1  0.56771900  0.11907700  0.36844500  1
  O  O14  1  0.09353100  0.27714500  0.28209600  1
  O  O15  1  0.04405300  0.70479300  0.78094800  1
  O  O16  1  0.26579600  0.43414600  0.51508400  1
  O  O17  1  0.74049200  0.90912300  0.30642200  1
  O  O18  1  0.07156100  0.35620100  0.07681900  1
  O  O19  1  0.90646900  0.77714500  0.21790400  1
  O  O20  1  0.40646900  0.72285500  0.78209600  1
  O  O21  1  0.45589300  0.39439400  0.63454400  1
  O  O22  1  0.26520600  0.18493600  0.99895500  1
  O  O23  1  0.23420400  0.56585400  0.01508400  1
  O  O24  1  0.27491100  0.17905700  0.66437200  1
  O  O25  1  0.25950800  0.40912300  0.19357800  1
  O  O26  1  0.22508900  0.82094300  0.16437200  1
  O  O27  1  0.55845700  0.89871800  0.56426500  1
  O  O28  1  0.75950800  0.09087700  0.80642200  1
  O  O29  1  0.47703100  0.35501900  0.40793500  1
  O  O30  1  0.72508900  0.67905700  0.83562800  1
  O  O31  1  0.76579600  0.06585400  0.48491600  1
  O  O32  1  0.07532300  0.33163200  0.40997000  1
  O  O33  1  0.54405300  0.79520700  0.21905200  1
  O  O34  1  0.52296900  0.85501900  0.09206500  1
  O  O35  1  0.04410700  0.60560600  0.13454400  1
  O  O36  1  0.92843900  0.85620100  0.42318100  1
  O  O37  1  0.57532300  0.16836800  0.59003000  1
  O  O38  1  0.95589300  0.10560600  0.36545600  1
  O  O39  1  0.43228100  0.61907700  0.13155500  1
  O  O40  1  0.95594700  0.20479300  0.71905200  1
  O  O41  1  0.57572500  0.12282100  0.06687300  1
  O  O42  1  0.06771900  0.38092300  0.63155500  1
  O  O43  1  0.25620500  0.49623900  0.32140100  1
  O  O44  1  0.42467700  0.66836800  0.90997000  1
  O  O45  1  0.23479400  0.81506400  0.49895500  1
  O  O46  1  0.94154300  0.10128200  0.06426500  1
  O  O47  1  0.77491100  0.32094300  0.33562800  1
  O  O48  1  0.73479400  0.68493600  0.50104500  1
  O  O49  1  0.05845700  0.60128200  0.43573500  1
  O  O50  1  0.45594700  0.29520700  0.28094800  1
  O  O51  1  0.93228100  0.88092300  0.86844500  1
  O  O52  1  0.42427500  0.62282100  0.43312700  1
  O  O53  1  0.02296900  0.64498100  0.90793500  1
  O  O54  1  0.55319600  0.87783600  0.42695900  1
  O  O55  1  0.24379500  0.50376100  0.82140100  1
  O  O56  1  0.24049200  0.59087700  0.69357800  1
  O  O57  1  0.44680400  0.37783600  0.07304100  1
  O  O58  1  0.05319600  0.62216400  0.57304100  1
  O  O59  1  0.44154300  0.39871800  0.93573500  1
loop_
_geom_bond_atom_site_label_1
_geom_bond_atom_site_label_2
_geom_bond_distance
_geom_bond_site_symmetry_2
Nb0 O12 1.928645 1_556
Nb0 O57 1.966619 1_556
Nb0 O59 1.975150 1_555
Nb0 O22 2.037478 1_555
Nb0 O4 2.070423 1_555
Nb0 O41 2.094467 1_556
Nb1 O52 1.910813 1_555
Nb1 O16 1.920464 1_555
Nb1 O49 2.003844 1_555
Nb1 O29 2.072740 1_555
Nb1 O43 2.116996 1_555
Nb1 O32 2.119123 1_555
Nb2 O48 1.928645 1_555
Nb2 O58 1.966619 1_655
Nb2 O49 1.975150 1_655
Nb2 O45 2.037478 1_655
Nb2 O36 2.070423 1_555
Nb2 O0 2.094467 1_555
Nb3 O22 1.928645 1_554
Nb3 O1 1.966619 1_454
Nb3 O46 1.975150 1_455
Nb3 O12 2.037478 1_455
Nb3 O18 2.070423 1_555
Nb3 O3 2.094467 1_554
Nb4 O41 1.910813 1_565
Nb4 O5 1.920464 1_554
Nb4 O46 2.003844 1_565
Nb4 O34 2.072740 1_555
Nb4 O2 2.116996 1_555
Nb4 O11 2.119123 1_555
Nb5 O18 1.921306 1_555
Nb5 O57 1.991753 1_555
Nb5 O25 2.000891 1_555
Nb5 O23 2.012996 1_555
Nb5 O35 2.035863 1_555
Nb5 O39 2.077856 1_555
Nb6 O3 1.910813 1_555
Nb6 O23 1.920464 1_556
Nb6 O59 2.003844 1_555
Nb6 O53 2.072740 1_555
Nb6 O55 2.116996 1_555
Nb6 O44 2.119123 1_555
Nb7 O45 1.928645 1_555
Nb7 O54 1.966619 1_555
Nb7 O27 1.975150 1_555
Nb7 O48 2.037478 1_555
Nb7 O9 2.070423 1_555
Nb7 O52 2.094467 1_555
Nb8 O9 1.921306 1_555
Nb8 O58 1.991753 1_555
Nb8 O56 2.000891 1_555
Nb8 O16 2.012996 1_555
Nb8 O21 2.035863 1_555
Nb8 O42 2.077856 1_555
Nb9 O36 1.921311 1_555
Nb9 O54 1.991747 1_555
Nb9 O17 2.000891 1_555
Nb9 O31 2.012996 1_565
Nb9 O38 2.035868 1_565
Nb9 O13 2.077851 1_565
Nb10 O4 1.921311 1_555
Nb10 O1 1.991747 1_555
Nb10 O28 2.000891 1_555
Nb10 O5 2.012996 1_545
Nb10 O10 2.035868 1_545
Nb10 O51 2.077851 1_545
Nb11 O0 1.910813 1_545
Nb11 O31 1.920464 1_555
Nb11 O27 2.003844 1_545
Nb11 O6 2.072740 1_555
Nb11 O8 2.116996 1_555
Nb11 O37 2.119123 1_555
O0 Rb6 2.927307 1_655
O0 Rb2 3.169425 1_555
O1 Rb4 3.083334 1_655
O1 Rb11 3.422647 1_645
O2 Si9 1.624340 1_555
O2 Rb9 3.329511 1_565
O3 Rb7 2.927307 1_455
O3 Rb4 3.169425 1_555
O4 Rb4 3.012592 1_555
O4 Rb7 3.258110 1_555
O5 Rb0 3.381946 1_556
O6 Si4 1.627409 1_655
O6 Rb8 3.189789 1_655
O6 Rb5 3.261873 1_555
O7 Si11 1.660230 1_555
O7 Si3 1.668675 1_555
O7 Rb7 3.384183 1_555
O7 Rb4 3.446443 1_555
O8 Si3 1.624340 1_555
O8 Rb2 3.329511 1_545
O9 Rb2 3.012592 1_555
O9 Rb6 3.258110 1_555
O10 Si2 1.623433 1_555
O10 Rb11 3.387035 1_555
O11 Si1 1.618402 1_655
O11 Rb0 3.079230 1_555
O11 Rb11 3.163133 1_654
O12 Rb0 3.202250 1_555
O12 Rb7 3.217059 1_554
O12 Rb9 3.409651 1_555
O13 Si0 1.610392 1_555
O13 Rb8 3.164214 1_555
O14 Si8 1.660230 1_455
O14 Si7 1.668675 1_555
O14 Rb10 3.384183 1_555
O14 Rb9 3.446443 1_455
O15 Si6 1.661967 1_455
O15 Si5 1.668519 1_555
O15 Rb2 3.232630 1_455
O16 Rb8 3.381946 1_555
O17 Si9 1.611031 1_555
O17 Rb1 3.182634 1_555
O18 Rb9 3.012592 1_455
O18 Rb10 3.258110 1_555
O19 Si1 1.660230 1_655
O19 Si9 1.668675 1_555
O19 Rb1 3.384183 1_555
O19 Rb3 3.446443 1_655
O20 Si2 1.660230 1_555
O20 Si5 1.668675 1_555
O20 Rb6 3.384183 1_555
O20 Rb2 3.446443 1_555
O21 Si11 1.623433 1_555
O21 Rb5 3.387035 1_555
O22 Rb11 3.202250 1_545
O22 Rb10 3.217059 1_556
O22 Rb4 3.409651 1_555
O23 Rb11 3.381946 1_554
O24 Si4 1.669033 1_555
O24 Si11 1.670030 1_555
O24 Rb6 3.109812 1_545
O24 Rb4 3.449254 1_555
O25 Si7 1.611031 1_555
O25 Rb10 3.182634 1_555
O26 Si10 1.669033 1_555
O26 Si1 1.670030 1_555
O26 Rb10 3.109812 1_565
O26 Rb3 3.449254 1_555
O27 Rb6 2.965929 1_555
O27 Rb2 3.356258 1_555
O27 Rb8 3.518919 1_565
O28 Si3 1.611031 1_555
O28 Rb7 3.182634 1_555
O29 Si0 1.627409 1_555
O29 Rb5 3.189789 1_555
O29 Rb8 3.261873 1_555
O30 Si6 1.669033 1_555
O30 Si2 1.670030 1_555
O30 Rb7 3.109812 1_555
O30 Rb2 3.449254 1_555
O31 Rb5 3.381946 1_555
O32 Si8 1.618402 1_455
O32 Rb8 3.079230 1_555
O32 Rb5 3.163133 1_455
O33 Si10 1.661967 1_555
O33 Si9 1.668519 1_555
O33 Rb3 3.232630 1_555
O34 Si10 1.627409 1_555
O34 Rb11 3.189789 1_554
O34 Rb0 3.261873 1_555
O35 Si1 1.623433 1_555
O35 Rb0 3.387035 1_455
O36 Rb3 3.012592 1_655
O36 Rb1 3.258110 1_555
O37 Si11 1.618402 1_555
O37 Rb5 3.079230 1_555
O37 Rb8 3.163133 1_555
O38 Si8 1.623433 1_555
O38 Rb8 3.387035 1_655
O39 Si10 1.610392 1_555
O39 Rb0 3.164214 1_555
O40 Si4 1.661967 1_655
O40 Si3 1.668519 1_555
O40 Rb4 3.232630 1_655
O41 Rb10 2.927307 1_555
O41 Rb9 3.169425 1_555
O42 Si4 1.610392 1_555
O42 Rb5 3.164214 1_455
O43 Si7 1.624340 1_555
O43 Rb3 3.329511 1_555
O44 Si2 1.618402 1_555
O44 Rb11 3.079230 1_555
O44 Rb0 3.163133 1_556
O45 Rb8 3.202250 1_565
O45 Rb6 3.217059 1_555
O45 Rb3 3.409651 1_555
O46 Rb10 2.965929 1_655
O46 Rb9 3.356258 1_555
O46 Rb11 3.518919 1_644
O47 Si0 1.669033 1_555
O47 Si8 1.670030 1_555
O47 Rb1 3.109812 1_555
O47 Rb9 3.449254 1_555
O48 Rb5 3.202250 1_555
O48 Rb1 3.217059 1_555
O48 Rb2 3.409651 1_555
O49 Rb1 2.965929 1_455
O49 Rb3 3.356258 1_555
O49 Rb5 3.518919 1_455
O50 Si0 1.661967 1_555
O50 Si7 1.668519 1_555
O50 Rb9 3.232630 1_555
O51 Si6 1.610392 1_555
O51 Rb11 3.164214 1_655
O52 Rb1 2.927307 1_555
O52 Rb3 3.169425 1_555
O53 Si6 1.627409 1_455
O53 Rb0 3.189789 1_456
O53 Rb11 3.261873 1_555
O54 Rb3 3.083334 1_555
O54 Rb8 3.422647 1_565
O55 Si5 1.624340 1_555
O55 Rb4 3.329511 1_555
O56 Si5 1.611031 1_555
O56 Rb6 3.182634 1_555
O57 Rb9 3.083334 1_555
O57 Rb0 3.422647 1_555
O58 Rb2 3.083334 1_455
O58 Rb5 3.422647 1_455
O59 Rb7 2.965929 1_555
O59 Rb4 3.356258 1_555
O59 Rb0 3.518919 1_556
