# generated using pymatgen
data_K2UCr(IO6)2
_symmetry_space_group_name_H-M   'P 1'
_cell_length_a   7.40107800
_cell_length_b   11.31001100
_cell_length_c   16.01979070
_cell_angle_alpha   72.94109917
_cell_angle_beta   90.00000000
_cell_angle_gamma   90.00000000
_symmetry_Int_Tables_number   1
_chemical_formula_structural   K2UCr(IO6)2
_chemical_formula_sum   'K8 U4 Cr4 I8 O48'
_cell_volume   1281.95982223
_cell_formula_units_Z   4
loop_
 _symmetry_equiv_pos_site_id
 _symmetry_equiv_pos_as_xyz
  1  'x, y, z'
loop_
 _atom_site_type_symbol
 _atom_site_label
 _atom_site_symmetry_multiplicity
 _atom_site_fract_x
 _atom_site_fract_y
 _atom_site_fract_z
 _atom_site_occupancy
  K  K0  1  0.74806700  0.50021500  0.54699400  1
  K  K1  1  0.24806700  0.49978500  0.95300600  1
  K  K2  1  0.24578100  0.74974900  0.13753300  1
  K  K3  1  0.25193300  0.49978500  0.45300600  1
  K  K4  1  0.75421900  0.25025100  0.86246700  1
  K  K5  1  0.74578100  0.25025100  0.36246700  1
  K  K6  1  0.75193300  0.50021500  0.04699400  1
  K  K7  1  0.25421900  0.74974900  0.63753300  1
  U  U0  1  0.50984000  0.83114400  0.86418600  1
  U  U1  1  0.99016000  0.83114400  0.36418600  1
  U  U2  1  0.49016000  0.16885600  0.13581400  1
  U  U3  1  0.00984000  0.16885600  0.63581400  1
  Cr  Cr0  1  0.26534500  0.07723300  0.94681900  1
  Cr  Cr1  1  0.73465500  0.92276700  0.05318100  1
  Cr  Cr2  1  0.23465500  0.07723300  0.44681900  1
  Cr  Cr3  1  0.76534500  0.92276700  0.55318100  1
  I  I0  1  0.98461000  0.17101800  0.10703600  1
  I  I1  1  0.48461000  0.82898200  0.39296400  1
  I  I2  1  0.01539000  0.82898200  0.89296400  1
  I  I3  1  0.28020900  0.40223200  0.22891900  1
  I  I4  1  0.51539000  0.17101800  0.60703600  1
  I  I5  1  0.71979100  0.59776800  0.77108100  1
  I  I6  1  0.21979100  0.40223200  0.72891900  1
  I  I7  1  0.78020900  0.59776800  0.27108100  1
  O  O0  1  0.01413700  0.03193200  0.73017500  1
  O  O1  1  0.81347800  0.06824800  0.56124900  1
  O  O2  1  0.67891200  0.78206600  0.33594500  1
  O  O3  1  0.61674300  0.50735300  0.70661900  1
  O  O4  1  0.79655600  0.48900800  0.37900500  1
  O  O5  1  0.10873000  0.18198400  0.38122500  1
  O  O6  1  0.20593400  0.08091900  0.55232900  1
  O  O7  1  0.47690200  0.69548000  0.48847600  1
  O  O8  1  0.97828900  0.69950600  0.27444100  1
  O  O9  1  0.79406600  0.91908100  0.44767100  1
  O  O10  1  0.05463800  0.10496400  0.92034500  1
  O  O11  1  0.02309800  0.69548000  0.98847600  1
  O  O12  1  0.47828900  0.30049400  0.22555900  1
  O  O13  1  0.68652200  0.06824800  0.06124900  1
  O  O14  1  0.70281200  0.21550200  0.66883200  1
  O  O15  1  0.55463800  0.89503600  0.57965500  1
  O  O16  1  0.94536200  0.89503600  0.07965500  1
  O  O17  1  0.51413700  0.96806800  0.76982500  1
  O  O18  1  0.97690200  0.30452000  0.01152400  1
  O  O19  1  0.29655600  0.51099200  0.12099500  1
  O  O20  1  0.70344400  0.48900800  0.87900500  1
  O  O21  1  0.39127000  0.18198400  0.88122500  1
  O  O22  1  0.89127000  0.81801600  0.61877500  1
  O  O23  1  0.38325700  0.49264700  0.29338100  1
  O  O24  1  0.50424500  0.69407200  0.95927100  1
  O  O25  1  0.00424500  0.30592800  0.54072900  1
  O  O26  1  0.32108800  0.21793400  0.66405500  1
  O  O27  1  0.29406600  0.08091900  0.05232900  1
  O  O28  1  0.52309800  0.30452000  0.51152400  1
  O  O29  1  0.02171100  0.30049400  0.72555900  1
  O  O30  1  0.20281200  0.78449800  0.83116800  1
  O  O31  1  0.31347800  0.93175200  0.93875100  1
  O  O32  1  0.52171100  0.69950600  0.77444100  1
  O  O33  1  0.49575500  0.30592800  0.04072900  1
  O  O34  1  0.70593400  0.91908100  0.94767100  1
  O  O35  1  0.98586300  0.96806800  0.26982500  1
  O  O36  1  0.11674300  0.49264700  0.79338100  1
  O  O37  1  0.88325700  0.50735300  0.20661900  1
  O  O38  1  0.20344400  0.51099200  0.62099500  1
  O  O39  1  0.17891200  0.21793400  0.16405500  1
  O  O40  1  0.99575500  0.69407200  0.45927100  1
  O  O41  1  0.18652200  0.93175200  0.43875100  1
  O  O42  1  0.82108800  0.78206600  0.83594500  1
  O  O43  1  0.48586300  0.03193200  0.23017500  1
  O  O44  1  0.44536200  0.10496400  0.42034500  1
  O  O45  1  0.60873000  0.81801600  0.11877500  1
  O  O46  1  0.79718800  0.21550200  0.16883200  1
  O  O47  1  0.29718800  0.78449800  0.33116800  1
loop_
_geom_bond_atom_site_label_1
_geom_bond_atom_site_label_2
_geom_bond_distance
_geom_bond_site_symmetry_2
K0 O4 2.754499 1_555
K0 O3 2.758871 1_555
K0 O40 2.886999 1_555
K0 O25 2.926221 1_655
K0 O7 2.927301 1_555
K0 O28 2.954958 1_555
K0 O14 3.256281 1_555
K1 O19 2.754499 1_556
K1 O36 2.758871 1_555
K1 O33 2.886999 1_556
K1 O24 2.926221 1_555
K1 O18 2.927301 1_456
K1 O11 2.954958 1_555
K1 O30 3.256281 1_555
K2 O16 2.758535 1_455
K2 O45 2.786765 1_555
K2 O19 2.814784 1_555
K2 O8 2.884667 1_455
K2 O11 3.107206 1_554
K2 O47 3.261416 1_555
K2 O31 3.283758 1_554
K2 O23 3.385936 1_555
K3 O38 2.754499 1_555
K3 O23 2.758871 1_555
K3 O25 2.886999 1_555
K3 O40 2.926221 1_455
K3 O28 2.927301 1_555
K3 O7 2.954958 1_555
K3 O47 3.256281 1_555
K4 O10 2.758535 1_655
K4 O21 2.786765 1_555
K4 O20 2.814784 1_555
K4 O29 2.884667 1_655
K4 O18 3.107206 1_556
K4 O14 3.261416 1_555
K4 O13 3.283758 1_556
K4 O3 3.385936 1_555
K5 O44 2.758535 1_555
K5 O5 2.786765 1_655
K5 O4 2.814784 1_555
K5 O12 2.884667 1_555
K5 O28 3.107206 1_555
K5 O46 3.261416 1_555
K5 O1 3.283758 1_555
K5 O37 3.385936 1_555
K6 O20 2.754499 1_554
K6 O37 2.758871 1_555
K6 O24 2.886999 1_554
K6 O33 2.926221 1_555
K6 O11 2.927301 1_654
K6 O18 2.954958 1_555
K6 O46 3.256281 1_555
K7 O15 2.758535 1_555
K7 O22 2.786765 1_455
K7 O38 2.814784 1_555
K7 O32 2.884667 1_555
K7 O7 3.107206 1_555
K7 O30 3.261416 1_555
K7 O41 3.283758 1_555
K7 O36 3.385936 1_555
Cr0 O10 1.622377 1_555
Cr0 O21 1.626642 1_555
Cr0 O27 1.716159 1_556
Cr0 O31 1.725020 1_545
Cr1 O16 1.622377 1_555
Cr1 O45 1.626642 1_555
Cr1 O34 1.716159 1_554
Cr1 O13 1.725020 1_565
Cr2 O44 1.622377 1_555
Cr2 O5 1.626642 1_555
Cr2 O6 1.716159 1_555
Cr2 O41 1.725020 1_545
Cr3 O15 1.622377 1_555
Cr3 O22 1.626642 1_555
Cr3 O9 1.716159 1_555
Cr3 O1 1.725020 1_565
I0 O18 1.807973 1_555
I0 O46 1.857277 1_555
I0 O39 1.862326 1_655
I1 O7 1.807973 1_555
I1 O47 1.857277 1_555
I1 O2 1.862326 1_555
I2 O11 1.807973 1_555
I2 O30 1.857277 1_555
I2 O42 1.862326 1_455
I3 O19 1.808074 1_555
I3 O23 1.820255 1_555
I3 O12 1.874146 1_555
I4 O28 1.807973 1_555
I4 O14 1.857277 1_555
I4 O26 1.862326 1_555
I5 O20 1.808074 1_555
I5 O3 1.820255 1_555
I5 O32 1.874146 1_555
I6 O38 1.808074 1_555
I6 O36 1.820255 1_555
I6 O29 1.874146 1_555
I7 O4 1.808074 1_555
I7 O37 1.820255 1_555
I7 O8 1.874146 1_555
O0 U3 1.819566 1_555
O1 U3 2.373004 1_655
O2 U1 2.442654 1_555
O6 U3 2.380029 1_555
O8 U1 2.355236 1_555
O9 U1 2.380029 1_555
O12 U2 2.355236 1_555
O13 U2 2.373004 1_555
O14 U3 2.425974 1_655
O17 U0 1.819566 1_555
O24 U0 1.827533 1_555
O25 U3 1.827533 1_555
O26 U3 2.442654 1_555
O27 U2 2.380029 1_555
O29 U3 2.355236 1_555
O30 U0 2.425974 1_555
O31 U0 2.373004 1_555
O32 U0 2.355236 1_555
O33 U2 1.827533 1_555
O34 U0 2.380029 1_555
O35 U1 1.819566 1_555
O39 U2 2.442654 1_555
O40 U1 1.827533 1_555
O41 U1 2.373004 1_455
O42 U0 2.442654 1_555
O43 U2 1.819566 1_555
O46 U2 2.425974 1_555
O47 U1 2.425974 1_455
