# generated using pymatgen
data_K2Mo2P2O11
_symmetry_space_group_name_H-M   'P 1'
_cell_length_a   9.10446900
_cell_length_b   9.44775000
_cell_length_c   11.12085200
_cell_angle_alpha   90.00000000
_cell_angle_beta   90.00000000
_cell_angle_gamma   90.00000000
_symmetry_Int_Tables_number   1
_chemical_formula_structural   K2Mo2P2O11
_chemical_formula_sum   'K8 Mo8 P8 O44'
_cell_volume   956.57951285
_cell_formula_units_Z   4
loop_
 _symmetry_equiv_pos_site_id
 _symmetry_equiv_pos_as_xyz
  1  'x, y, z'
loop_
 _atom_site_type_symbol
 _atom_site_label
 _atom_site_symmetry_multiplicity
 _atom_site_fract_x
 _atom_site_fract_y
 _atom_site_fract_z
 _atom_site_occupancy
  K  K0  1  0.01050900  0.70247800  0.41459000  1
  K  K1  1  0.98949100  0.29752200  0.58541000  1
  K  K2  1  0.48949100  0.20247800  0.58541000  1
  K  K3  1  0.48949100  0.79752200  0.91459000  1
  K  K4  1  0.01050900  0.29752200  0.08541000  1
  K  K5  1  0.51050900  0.79752200  0.41459000  1
  K  K6  1  0.51050900  0.20247800  0.08541000  1
  K  K7  1  0.98949100  0.70247800  0.91459000  1
  Mo  Mo0  1  0.22843300  0.07789700  0.84596500  1
  Mo  Mo1  1  0.77156700  0.07789700  0.34596500  1
  Mo  Mo2  1  0.72843300  0.42210300  0.84596500  1
  Mo  Mo3  1  0.22843300  0.92210300  0.65403500  1
  Mo  Mo4  1  0.27156700  0.42210300  0.34596500  1
  Mo  Mo5  1  0.27156700  0.57789700  0.15403500  1
  Mo  Mo6  1  0.77156700  0.92210300  0.15403500  1
  Mo  Mo7  1  0.72843300  0.57789700  0.65403500  1
  P  P0  1  0.17406700  0.07039800  0.37247700  1
  P  P1  1  0.32593300  0.57039800  0.62752300  1
  P  P2  1  0.32593300  0.42960200  0.87247700  1
  P  P3  1  0.17406700  0.92960200  0.12752300  1
  P  P4  1  0.67406700  0.57039800  0.12752300  1
  P  P5  1  0.82593300  0.07039800  0.87247700  1
  P  P6  1  0.67406700  0.42960200  0.37247700  1
  P  P7  1  0.82593300  0.92960200  0.62752300  1
  O  O0  1  0.80195400  0.12801500  0.17553700  1
  O  O1  1  0.51301600  0.39175500  0.35580300  1
  O  O2  1  0.98698400  0.89175500  0.64419700  1
  O  O3  1  0.30195400  0.62801500  0.32446300  1
  O  O4  1  0.26268000  0.50000000  0.75000000  1
  O  O5  1  0.73732000  0.50000000  0.25000000  1
  O  O6  1  0.80195400  0.87198500  0.32446300  1
  O  O7  1  0.27194700  0.19940100  0.39658600  1
  O  O8  1  0.77194700  0.30059900  0.39658600  1
  O  O9  1  0.69831200  0.45174900  0.03471000  1
  O  O10  1  0.19804600  0.12801500  0.67553700  1
  O  O11  1  0.30168800  0.45174900  0.53471000  1
  O  O12  1  0.27194700  0.80059900  0.10341400  1
  O  O13  1  0.22805300  0.69940100  0.60341400  1
  O  O14  1  0.72805300  0.80059900  0.60341400  1
  O  O15  1  0.72805300  0.19940100  0.89658600  1
  O  O16  1  0.23732000  0.00000000  0.25000000  1
  O  O17  1  0.41760800  0.07866900  0.86273400  1
  O  O18  1  0.91760800  0.57866900  0.63726600  1
  O  O19  1  0.22805300  0.30059900  0.89658600  1
  O  O20  1  0.19831200  0.04825100  0.03471000  1
  O  O21  1  0.69804600  0.37198500  0.67553700  1
  O  O22  1  0.48698400  0.39175500  0.85580300  1
  O  O23  1  0.98698400  0.10824500  0.85580300  1
  O  O24  1  0.19831200  0.95174900  0.46529000  1
  O  O25  1  0.08239200  0.42133100  0.36273400  1
  O  O26  1  0.58239200  0.92133100  0.13726600  1
  O  O27  1  0.77194700  0.69940100  0.10341400  1
  O  O28  1  0.69831200  0.54825100  0.46529000  1
  O  O29  1  0.41760800  0.92133100  0.63726600  1
  O  O30  1  0.51301600  0.60824500  0.14419700  1
  O  O31  1  0.80168800  0.04825100  0.53471000  1
  O  O32  1  0.80168800  0.95174900  0.96529000  1
  O  O33  1  0.69804600  0.62801500  0.82446300  1
  O  O34  1  0.19804600  0.87198500  0.82446300  1
  O  O35  1  0.48698400  0.60824500  0.64419700  1
  O  O36  1  0.01301600  0.89175500  0.14419700  1
  O  O37  1  0.58239200  0.07866900  0.36273400  1
  O  O38  1  0.30195400  0.37198500  0.17553700  1
  O  O39  1  0.08239200  0.57866900  0.13726600  1
  O  O40  1  0.91760800  0.42133100  0.86273400  1
  O  O41  1  0.01301600  0.10824500  0.35580300  1
  O  O42  1  0.76268000  0.00000000  0.75000000  1
  O  O43  1  0.30168800  0.54825100  0.96529000  1
loop_
_geom_bond_atom_site_label_1
_geom_bond_atom_site_label_2
_geom_bond_distance
_geom_bond_site_symmetry_2
K0 O6 2.678550 1_455
K0 O25 2.795766 1_555
K0 O18 2.866345 1_455
K0 O13 2.886732 1_555
K0 O3 2.922382 1_555
K0 O24 2.964412 1_555
K1 O10 2.678550 1_655
K1 O18 2.795766 1_555
K1 O25 2.866345 1_655
K1 O8 2.886732 1_555
K1 O21 2.922382 1_555
K1 O31 2.964412 1_555
K2 O21 2.678550 1_555
K2 O29 2.795766 1_545
K2 O37 2.866345 1_555
K2 O7 2.886732 1_555
K2 O10 2.922382 1_555
K2 O11 2.964412 1_555
K3 O33 2.678550 1_555
K3 O17 2.795766 1_565
K3 O26 2.866345 1_556
K3 O12 2.886732 1_556
K3 O34 2.922382 1_555
K3 O43 2.964412 1_555
K4 O0 2.678550 1_455
K4 O39 2.795766 1_555
K4 O40 2.866345 1_454
K4 O19 2.886732 1_554
K4 O38 2.922382 1_555
K4 O20 2.964412 1_555
K5 O3 2.678550 1_555
K5 O37 2.795766 1_565
K5 O29 2.866345 1_555
K5 O14 2.886732 1_555
K5 O6 2.922382 1_555
K5 O28 2.964412 1_555
K6 O38 2.678550 1_555
K6 O26 2.795766 1_545
K6 O17 2.866345 1_554
K6 O15 2.886732 1_554
K6 O0 2.922382 1_555
K6 O9 2.964412 1_555
K7 O34 2.678550 1_655
K7 O40 2.795766 1_555
K7 O39 2.866345 1_656
K7 O27 2.886732 1_556
K7 O33 2.922382 1_555
K7 O32 2.964412 1_555
Mo0 O17 1.732420 1_555
Mo0 O10 1.973049 1_555
Mo0 O34 1.979474 1_545
Mo0 O20 2.135293 1_556
Mo0 O19 2.178044 1_555
Mo0 O23 2.219583 1_455
Mo1 O37 1.732420 1_555
Mo1 O0 1.973049 1_555
Mo1 O6 1.979474 1_545
Mo1 O31 2.135293 1_555
Mo1 O8 2.178044 1_555
Mo1 O41 2.219583 1_655
Mo2 O40 1.732420 1_555
Mo2 O21 1.973049 1_555
Mo2 O33 1.979474 1_555
Mo2 O9 2.135293 1_556
Mo2 O15 2.178044 1_555
Mo2 O22 2.219583 1_555
Mo3 O29 1.732420 1_555
Mo3 O34 1.973049 1_555
Mo3 O10 1.979474 1_565
Mo3 O24 2.135293 1_555
Mo3 O13 2.178044 1_555
Mo3 O2 2.219583 1_455
Mo4 O25 1.732420 1_555
Mo4 O38 1.973049 1_555
Mo4 O3 1.979474 1_555
Mo4 O11 2.135293 1_555
Mo4 O7 2.178044 1_555
Mo4 O1 2.219583 1_555
Mo5 O39 1.732420 1_555
Mo5 O3 1.973049 1_555
Mo5 O38 1.979474 1_555
Mo5 O43 2.135293 1_554
Mo5 O12 2.178044 1_555
Mo5 O30 2.219583 1_555
Mo6 O26 1.732420 1_555
Mo6 O6 1.973049 1_555
Mo6 O0 1.979474 1_565
Mo6 O32 2.135293 1_554
Mo6 O27 2.178044 1_555
Mo6 O36 2.219583 1_655
Mo7 O18 1.732420 1_555
Mo7 O33 1.973049 1_555
Mo7 O21 1.979474 1_555
Mo7 O28 2.135293 1_555
Mo7 O14 2.178044 1_555
Mo7 O35 2.219583 1_555
O1 P6 1.520601 1_555
O2 P7 1.520601 1_555
O4 P1 1.621475 1_555
O4 P2 1.621475 1_555
O5 P4 1.621475 1_555
O5 P6 1.621475 1_555
O7 P0 1.533450 1_555
O8 P6 1.533450 1_555
O9 P4 1.539689 1_555
O11 P1 1.539689 1_555
O12 P3 1.533450 1_555
O13 P1 1.533450 1_555
O14 P7 1.533450 1_555
O15 P5 1.533450 1_555
O16 P3 1.621475 1_545
O16 P0 1.621475 1_555
O19 P2 1.533450 1_555
O20 P3 1.539689 1_545
O22 P2 1.520601 1_555
O23 P5 1.520601 1_555
O24 P0 1.539689 1_565
O27 P4 1.533450 1_555
O28 P6 1.539689 1_555
O30 P4 1.520601 1_555
O31 P7 1.539689 1_545
O32 P5 1.539689 1_565
O35 P1 1.520601 1_555
O36 P3 1.520601 1_555
O41 P0 1.520601 1_555
O42 P7 1.621475 1_545
O42 P5 1.621475 1_555
O43 P2 1.539689 1_555
