# generated using pymatgen
data_CsCuCl3
_symmetry_space_group_name_H-M   'P 1'
_cell_length_a   7.31131070
_cell_length_b   7.31131070
_cell_length_c   6.03053700
_cell_angle_alpha   90.00000000
_cell_angle_beta   90.00000000
_cell_angle_gamma   120.00000631
_symmetry_Int_Tables_number   1
_chemical_formula_structural   CsCuCl3
_chemical_formula_sum   'Cs2 Cu2 Cl6'
_cell_volume   279.17535054
_cell_formula_units_Z   2
loop_
 _symmetry_equiv_pos_site_id
 _symmetry_equiv_pos_as_xyz
  1  'x, y, z'
loop_
 _atom_site_type_symbol
 _atom_site_label
 _atom_site_symmetry_multiplicity
 _atom_site_fract_x
 _atom_site_fract_y
 _atom_site_fract_z
 _atom_site_occupancy
  Cs  Cs0  1  0.66666700  0.33333300  0.25519700  1
  Cs  Cs1  1  0.33333300  0.66666700  0.75519700  1
  Cu  Cu0  1  0.00000000  0.00000000  0.02375500  1
  Cu  Cu1  1  0.00000000  0.00000000  0.52375500  1
  Cl  Cl0  1  0.84678100  0.15321900  0.77534900  1
  Cl  Cl1  1  0.15321900  0.30643800  0.27534900  1
  Cl  Cl2  1  0.69356200  0.84678100  0.27534900  1
  Cl  Cl3  1  0.15321900  0.84678100  0.27534900  1
  Cl  Cl4  1  0.84678100  0.69356200  0.77534900  1
  Cl  Cl5  1  0.30643800  0.15321900  0.77534900  1
loop_
_geom_bond_atom_site_label_1
_geom_bond_atom_site_label_2
_geom_bond_distance
_geom_bond_site_symmetry_2
Cl0 Cu0 2.451291 1_656
Cl0 Cu1 2.463087 1_655
Cl0 Cs1 3.661637 1_545
Cl0 Cs1 3.661637 1_655
Cl0 Cs0 3.684586 1_556
Cl0 Cs0 3.878392 1_555
Cl1 Cu1 2.451291 1_555
Cl1 Cu0 2.463086 1_555
Cl1 Cs0 3.661633 1_455
Cl1 Cs0 3.661641 1_555
Cl1 Cs1 3.684590 1_555
Cl1 Cs1 3.878396 1_554
Cl2 Cu1 2.451291 1_665
Cl2 Cu0 2.463086 1_665
Cl2 Cs0 3.661633 1_565
Cl2 Cs0 3.661641 1_555
Cl2 Cs1 3.684590 1_555
Cl2 Cs1 3.878396 1_554
Cl3 Cu1 2.451291 1_565
Cl3 Cu0 2.463087 1_565
Cl3 Cs0 3.661637 1_455
Cl3 Cs0 3.661637 1_565
Cl3 Cs1 3.684586 1_555
Cl3 Cs1 3.878392 1_554
Cl4 Cu0 2.451291 1_666
Cl4 Cu1 2.463086 1_665
Cl4 Cs1 3.661633 1_655
Cl4 Cs1 3.661641 1_555
Cl4 Cs0 3.684590 1_556
Cl4 Cs0 3.878396 1_555
Cl5 Cu0 2.451291 1_556
Cl5 Cu1 2.463086 1_555
Cl5 Cs1 3.661633 1_545
Cl5 Cs1 3.661641 1_555
Cl5 Cs0 3.684590 1_556
Cl5 Cs0 3.878396 1_555
