# generated using pymatgen
data_SrGa2(GeO4)2
_symmetry_space_group_name_H-M   'P 1'
_cell_length_a   9.79240500
_cell_length_b   8.69832500
_cell_length_c   9.32548482
_cell_angle_alpha   89.52621847
_cell_angle_beta   90.00000000
_cell_angle_gamma   90.00000000
_symmetry_Int_Tables_number   1
_chemical_formula_structural   SrGa2(GeO4)2
_chemical_formula_sum   'Sr4 Ga8 Ge8 O32'
_cell_volume   794.29452486
_cell_formula_units_Z   4
loop_
 _symmetry_equiv_pos_site_id
 _symmetry_equiv_pos_as_xyz
  1  'x, y, z'
loop_
 _atom_site_type_symbol
 _atom_site_label
 _atom_site_symmetry_multiplicity
 _atom_site_fract_x
 _atom_site_fract_y
 _atom_site_fract_z
 _atom_site_occupancy
  Sr  Sr0  1  0.41285300  0.74951000  0.88541200  1
  Sr  Sr1  1  0.91285300  0.25049000  0.61458800  1
  Sr  Sr2  1  0.58714700  0.25049000  0.11458800  1
  Sr  Sr3  1  0.08714700  0.74951000  0.38541200  1
  Ga  Ga0  1  0.92416200  0.06735000  0.23506500  1
  Ga  Ga1  1  0.42416200  0.93265000  0.26493500  1
  Ga  Ga2  1  0.07583800  0.93265000  0.76493500  1
  Ga  Ga3  1  0.57583800  0.06735000  0.73506500  1
  Ga  Ga4  1  0.19392800  0.43110900  0.05356400  1
  Ga  Ga5  1  0.69392800  0.56889100  0.44643600  1
  Ga  Ga6  1  0.80607200  0.56889100  0.94643600  1
  Ga  Ga7  1  0.30607200  0.43110900  0.55356400  1
  Ge  Ge0  1  0.92026400  0.43812800  0.24196600  1
  Ge  Ge1  1  0.42026400  0.56187200  0.25803400  1
  Ge  Ge2  1  0.07973600  0.56187200  0.75803400  1
  Ge  Ge3  1  0.57973600  0.43812800  0.74196600  1
  Ge  Ge4  1  0.19935700  0.06000700  0.05693100  1
  Ge  Ge5  1  0.69935700  0.93999300  0.44306900  1
  Ge  Ge6  1  0.80064300  0.93999300  0.94306900  1
  Ge  Ge7  1  0.30064300  0.06000700  0.55693100  1
  O  O0  1  0.09197100  0.98066200  0.19359300  1
  O  O1  1  0.59197100  0.01933800  0.30640700  1
  O  O2  1  0.90802900  0.01933800  0.80640700  1
  O  O3  1  0.40802900  0.98066200  0.69359300  1
  O  O4  1  0.07900400  0.51733600  0.19104900  1
  O  O5  1  0.57900400  0.48266400  0.30895100  1
  O  O6  1  0.92099600  0.48266400  0.80895100  1
  O  O7  1  0.42099600  0.51733600  0.69104900  1
  O  O8  1  0.37180500  0.06626500  0.11629600  1
  O  O9  1  0.87180500  0.93373500  0.38370400  1
  O  O10  1  0.62819500  0.93373500  0.88370400  1
  O  O11  1  0.12819500  0.06626500  0.61629600  1
  O  O12  1  0.37388900  0.43367800  0.11844500  1
  O  O13  1  0.87388900  0.56632200  0.38155500  1
  O  O14  1  0.62611100  0.56632200  0.88155500  1
  O  O15  1  0.12611100  0.43367800  0.61844500  1
  O  O16  1  0.19904800  0.92543300  0.91473700  1
  O  O17  1  0.69904800  0.07456700  0.58526300  1
  O  O18  1  0.80095200  0.07456700  0.08526300  1
  O  O19  1  0.30095200  0.92543300  0.41473700  1
  O  O20  1  0.19814900  0.57013400  0.90024600  1
  O  O21  1  0.69814900  0.42986600  0.59975400  1
  O  O22  1  0.80185100  0.42986600  0.09975400  1
  O  O23  1  0.30185100  0.57013400  0.40024600  1
  O  O24  1  0.13595900  0.23912800  0.00141300  1
  O  O25  1  0.63595900  0.76087200  0.49858700  1
  O  O26  1  0.86404100  0.76087200  0.99858700  1
  O  O27  1  0.36404100  0.23912800  0.50141300  1
  O  O28  1  0.92501000  0.25546500  0.32940700  1
  O  O29  1  0.42501000  0.74453500  0.17059300  1
  O  O30  1  0.07499000  0.74453500  0.67059300  1
  O  O31  1  0.57499000  0.25546500  0.82940700  1
loop_
_geom_bond_atom_site_label_1
_geom_bond_atom_site_label_2
_geom_bond_distance
_geom_bond_site_symmetry_2
Ga0 O18 1.846545 1_555
Ga0 O0 1.850204 1_645
Ga0 O28 1.864223 1_555
Ga0 O9 1.873059 1_545
Ga1 O19 1.846545 1_555
Ga1 O1 1.850204 1_565
Ga1 O29 1.864223 1_555
Ga1 O8 1.873059 1_565
Ga2 O16 1.846545 1_555
Ga2 O2 1.850204 1_465
Ga2 O30 1.864223 1_555
Ga2 O11 1.873059 1_565
Ga3 O17 1.846545 1_555
Ga3 O3 1.850204 1_545
Ga3 O31 1.864223 1_555
Ga3 O10 1.873059 1_545
Ga4 O24 1.833247 1_555
Ga4 O12 1.863420 1_555
Ga4 O20 1.865398 1_554
Ga4 O4 1.867820 1_555
Ga5 O25 1.833247 1_555
Ga5 O13 1.863420 1_555
Ga5 O21 1.865398 1_555
Ga5 O5 1.867820 1_555
Ga6 O26 1.833247 1_555
Ga6 O14 1.863420 1_555
Ga6 O22 1.865398 1_556
Ga6 O6 1.867820 1_555
Ga7 O27 1.833247 1_555
Ga7 O15 1.863420 1_555
Ga7 O23 1.865398 1_555
Ga7 O7 1.867820 1_555
Ge0 O22 1.763544 1_555
Ge0 O4 1.763815 1_655
Ge0 O13 1.779926 1_555
Ge0 O28 1.780489 1_555
Ge1 O23 1.763544 1_555
Ge1 O5 1.763815 1_555
Ge1 O12 1.779926 1_555
Ge1 O29 1.780489 1_555
Ge2 O20 1.763544 1_555
Ge2 O6 1.763815 1_455
Ge2 O15 1.779926 1_555
Ge2 O30 1.780489 1_555
Ge3 O21 1.763544 1_555
Ge3 O7 1.763815 1_555
Ge3 O14 1.779926 1_555
Ge3 O31 1.780489 1_555
Ge4 O24 1.751471 1_555
Ge4 O16 1.776024 1_544
Ge4 O8 1.778085 1_555
Ge4 O0 1.786554 1_545
Ge5 O25 1.751471 1_555
Ge5 O17 1.776024 1_565
Ge5 O9 1.778085 1_555
Ge5 O1 1.786554 1_565
Ge6 O26 1.751471 1_555
Ge6 O18 1.776024 1_566
Ge6 O10 1.778085 1_555
Ge6 O2 1.786554 1_565
Ge7 O27 1.751471 1_555
Ge7 O19 1.776024 1_545
Ge7 O11 1.778085 1_555
Ge7 O3 1.786554 1_545
O0 Sr3 2.680528 1_555
O1 Sr2 2.680528 1_555
O2 Sr1 2.680528 1_555
O3 Sr0 2.680528 1_555
O4 Sr3 2.725920 1_555
O5 Sr2 2.725920 1_555
O6 Sr1 2.725920 1_555
O7 Sr0 2.725920 1_555
O8 Sr2 2.648463 1_555
O9 Sr3 2.648463 1_655
O10 Sr0 2.648463 1_555
O11 Sr1 2.648463 1_455
O12 Sr2 2.627221 1_555
O13 Sr3 2.627221 1_655
O14 Sr0 2.627221 1_555
O15 Sr1 2.627221 1_455
O16 Sr0 2.608977 1_555
O17 Sr1 2.608977 1_555
O18 Sr2 2.608977 1_555
O19 Sr3 2.608977 1_555
O20 Sr0 2.621142 1_555
O21 Sr1 2.621142 1_555
O22 Sr2 2.621142 1_555
O23 Sr3 2.621142 1_555
O28 Sr1 2.662108 1_555
O29 Sr0 2.662108 1_554
O30 Sr3 2.662108 1_555
O31 Sr2 2.662108 1_556
