# generated using pymatgen
data_ZnS
_symmetry_space_group_name_H-M   'P 1'
_cell_length_a   3.80846912
_cell_length_b   3.80846954
_cell_length_c   31.13634549
_cell_angle_alpha   90.00000000
_cell_angle_beta   90.00000000
_cell_angle_gamma   119.99999637
_symmetry_Int_Tables_number   1
_chemical_formula_structural   ZnS
_chemical_formula_sum   'Zn10 S10'
_cell_volume   391.11026090
_cell_formula_units_Z   10
loop_
 _symmetry_equiv_pos_site_id
 _symmetry_equiv_pos_as_xyz
  1  'x, y, z'
loop_
 _atom_site_type_symbol
 _atom_site_label
 _atom_site_symmetry_multiplicity
 _atom_site_fract_x
 _atom_site_fract_y
 _atom_site_fract_z
 _atom_site_occupancy
  Zn  Zn0  1  -0.00000000  0.00000000  0.59998367  1
  Zn  Zn1  1  0.66666700  0.33333300  0.20007803  1
  Zn  Zn2  1  0.66666700  0.33333300  0.80001493  1
  Zn  Zn3  1  0.33333300  0.66666700  0.69993051  1
  Zn  Zn4  1  -0.00000000  0.00000000  0.30002277  1
  Zn  Zn5  1  -0.00000000  -0.00000000  0.00001360  1
  Zn  Zn6  1  0.33333300  0.66666700  0.90004807  1
  Zn  Zn7  1  0.66666700  0.33333300  0.50004022  1
  Zn  Zn8  1  0.33333300  0.66666700  0.10008934  1
  Zn  Zn9  1  0.33333300  0.66666700  0.40000626  1
  S  S0  1  -0.00000000  0.00000000  0.07506644  1
  S  S1  1  0.00000000  -0.00000000  0.67493161  1
  S  S2  1  0.33333300  0.66666700  0.97490924  1
  S  S3  1  0.33333300  0.66666700  0.47497721  1
  S  S4  1  0.66666700  0.33333300  0.57497152  1
  S  S5  1  0.33333300  0.66666700  0.77485683  1
  S  S6  1  0.66666700  0.33333300  0.27501081  1
  S  S7  1  0.33333300  0.66666700  0.17502830  1
  S  S8  1  -0.00000000  0.00000000  0.37498203  1
  S  S9  1  0.66666700  0.33333300  0.87503758  1
loop_
_geom_bond_atom_site_label_1
_geom_bond_atom_site_label_2
_geom_bond_distance
_geom_bond_site_symmetry_2
S0 Zn8 2.332774 1_545
S0 Zn8 2.332777 1_445
S0 Zn8 2.332777 1_555
S0 Zn5 2.336871 1_555
S1 Zn3 2.332524 1_545
S1 Zn3 2.332527 1_445
S1 Zn3 2.332528 1_555
S1 Zn0 2.333605 1_555
S2 Zn6 2.330903 1_555
S2 Zn5 2.333622 1_566
S2 Zn5 2.333625 1_666
S2 Zn5 2.333625 1_556
S3 Zn7 2.333191 1_455
S3 Zn7 2.333191 1_565
S3 Zn7 2.333197 1_555
S3 Zn9 2.334321 1_555
S4 Zn0 2.332662 1_655
S4 Zn0 2.332665 1_555
S4 Zn0 2.332665 1_665
S4 Zn7 2.333087 1_555
S5 Zn3 2.332932 1_555
S5 Zn2 2.334183 1_455
S5 Zn2 2.334183 1_565
S5 Zn2 2.334189 1_555
S6 Zn4 2.332660 1_655
S6 Zn4 2.332663 1_555
S6 Zn4 2.332663 1_665
S6 Zn1 2.333133 1_555
S7 Zn1 2.333053 1_455
S7 Zn1 2.333053 1_565
S7 Zn1 2.333059 1_555
S7 Zn8 2.333325 1_555
S8 Zn9 2.332788 1_545
S8 Zn9 2.332791 1_445
S8 Zn9 2.332791 1_555
S8 Zn4 2.333957 1_555
S9 Zn6 2.332645 1_655
S9 Zn6 2.332645 1_545
S9 Zn6 2.332651 1_555
S9 Zn2 2.335931 1_555
