# generated using pymatgen
data_B4CCl6O
_symmetry_space_group_name_H-M   'P 1'
_cell_length_a   7.16338000
_cell_length_b   7.16338000
_cell_length_c   7.16337995
_cell_angle_alpha   107.53289967
_cell_angle_beta   107.53289967
_cell_angle_gamma   107.53289915
_symmetry_Int_Tables_number   1
_chemical_formula_structural   B4CCl6O
_chemical_formula_sum   'B4 C1 Cl6 O1'
_cell_volume   301.56484511
_cell_formula_units_Z   1
loop_
 _symmetry_equiv_pos_site_id
 _symmetry_equiv_pos_as_xyz
  1  'x, y, z'
loop_
 _atom_site_type_symbol
 _atom_site_label
 _atom_site_symmetry_multiplicity
 _atom_site_fract_x
 _atom_site_fract_y
 _atom_site_fract_z
 _atom_site_occupancy
  B  B0  1  0.68232400  0.92822500  0.68232400  1
  B  B1  1  0.92822500  0.68232400  0.68232400  1
  B  B2  1  0.69775900  0.69775900  0.69775900  1
  B  B3  1  0.68232400  0.68232400  0.92822500  1
  C  C0  1  0.50609300  0.50609300  0.50609300  1
  Cl  Cl0  1  0.46878400  0.91468600  0.46878400  1
  Cl  Cl1  1  0.87833400  0.18727300  0.87833400  1
  Cl  Cl2  1  0.18727300  0.87833400  0.87833400  1
  Cl  Cl3  1  0.87833400  0.87833400  0.18727300  1
  Cl  Cl4  1  0.46878400  0.46878400  0.91468600  1
  Cl  Cl5  1  0.91468600  0.46878400  0.46878400  1
  O  O0  1  0.35937600  0.35937600  0.35937600  1
loop_
_geom_bond_atom_site_label_1
_geom_bond_atom_site_label_2
_geom_bond_distance
_geom_bond_site_symmetry_2
B0 B2 1.721210 1_555
B0 Cl1 1.748975 1_565
B0 Cl0 1.760855 1_555
B1 B2 1.721210 1_555
B1 Cl2 1.748975 1_655
B1 Cl5 1.760855 1_555
B2 C0 1.499300 1_555
B2 B3 1.721210 1_555
B3 Cl3 1.748975 1_556
B3 Cl4 1.760855 1_555
C0 O0 1.147688 1_555
