# generated using pymatgen
data_YTl5Co2(NO2)12
_symmetry_space_group_name_H-M   'P 1'
_cell_length_a   10.60085700
_cell_length_b   10.60085700
_cell_length_c   10.60085700
_cell_angle_alpha   90.00000000
_cell_angle_beta   90.00000000
_cell_angle_gamma   90.00000000
_symmetry_Int_Tables_number   1
_chemical_formula_structural   YTl5Co2(NO2)12
_chemical_formula_sum   'Y2 Tl10 Co4 N24 O48'
_cell_volume   1191.30490092
_cell_formula_units_Z   2
loop_
 _symmetry_equiv_pos_site_id
 _symmetry_equiv_pos_as_xyz
  1  'x, y, z'
loop_
 _atom_site_type_symbol
 _atom_site_label
 _atom_site_symmetry_multiplicity
 _atom_site_fract_x
 _atom_site_fract_y
 _atom_site_fract_z
 _atom_site_occupancy
  Y  Y0  1  0.00000000  0.00000000  0.00000000  1
  Y  Y1  1  0.50000000  0.50000000  0.50000000  1
  Tl  Tl0  1  0.25000000  0.25000000  0.75000000  1
  Tl  Tl1  1  0.25000000  0.75000000  0.25000000  1
  Tl  Tl2  1  0.00000000  0.50000000  0.50000000  1
  Tl  Tl3  1  0.50000000  0.00000000  0.00000000  1
  Tl  Tl4  1  0.50000000  0.00000000  0.50000000  1
  Tl  Tl5  1  0.75000000  0.75000000  0.75000000  1
  Tl  Tl6  1  0.50000000  0.50000000  0.00000000  1
  Tl  Tl7  1  0.00000000  0.50000000  0.00000000  1
  Tl  Tl8  1  0.75000000  0.25000000  0.25000000  1
  Tl  Tl9  1  0.00000000  0.00000000  0.50000000  1
  Co  Co0  1  0.75000000  0.75000000  0.25000000  1
  Co  Co1  1  0.25000000  0.75000000  0.75000000  1
  Co  Co2  1  0.75000000  0.25000000  0.75000000  1
  Co  Co3  1  0.25000000  0.25000000  0.25000000  1
  N  N0  1  0.25228600  0.25911800  0.43449500  1
  N  N1  1  0.56550500  0.74771400  0.25911800  1
  N  N2  1  0.43449500  0.74771400  0.74088200  1
  N  N3  1  0.25911800  0.56550500  0.74771400  1
  N  N4  1  0.74771400  0.74088200  0.43449500  1
  N  N5  1  0.75911800  0.06550500  0.75228600  1
  N  N6  1  0.06550500  0.75228600  0.75911800  1
  N  N7  1  0.56550500  0.25228600  0.74088200  1
  N  N8  1  0.25911800  0.43449500  0.25228600  1
  N  N9  1  0.75228600  0.24088200  0.93449500  1
  N  N10  1  0.74088200  0.56550500  0.25228600  1
  N  N11  1  0.24771400  0.24088200  0.06550500  1
  N  N12  1  0.25228600  0.74088200  0.56550500  1
  N  N13  1  0.75911800  0.93449500  0.24771400  1
  N  N14  1  0.43449500  0.25228600  0.25911800  1
  N  N15  1  0.24088200  0.93449500  0.75228600  1
  N  N16  1  0.24088200  0.06550500  0.24771400  1
  N  N17  1  0.93449500  0.75228600  0.24088200  1
  N  N18  1  0.74088200  0.43449500  0.74771400  1
  N  N19  1  0.74771400  0.25911800  0.56550500  1
  N  N20  1  0.24771400  0.75911800  0.93449500  1
  N  N21  1  0.75228600  0.75911800  0.06550500  1
  N  N22  1  0.93449500  0.24771400  0.75911800  1
  N  N23  1  0.06550500  0.24771400  0.24088200  1
  O  O0  1  0.25482400  0.99328300  0.65055100  1
  O  O1  1  0.75482400  0.49328300  0.84944900  1
  O  O2  1  0.15055100  0.75482400  0.50671700  1
  O  O3  1  0.00671700  0.34944900  0.25482400  1
  O  O4  1  0.65055100  0.25482400  0.99328300  1
  O  O5  1  0.99657200  0.85185200  0.21401800  1
  O  O6  1  0.14814800  0.21401800  0.00342800  1
  O  O7  1  0.71401800  0.50342800  0.35185200  1
  O  O8  1  0.34944900  0.74517600  0.99328300  1
  O  O9  1  0.78598200  0.99657200  0.14814800  1
  O  O10  1  0.84944900  0.75482400  0.49328300  1
  O  O11  1  0.14814800  0.78598200  0.99657200  1
  O  O12  1  0.50671700  0.15055100  0.75482400  1
  O  O13  1  0.64814800  0.71401800  0.49657200  1
  O  O14  1  0.78598200  0.00342800  0.85185200  1
  O  O15  1  0.65055100  0.74517600  0.00671700  1
  O  O16  1  0.64814800  0.28598200  0.50342800  1
  O  O17  1  0.99328300  0.65055100  0.25482400  1
  O  O18  1  0.84944900  0.24517600  0.50671700  1
  O  O19  1  0.85185200  0.78598200  0.00342800  1
  O  O20  1  0.28598200  0.50342800  0.64814800  1
  O  O21  1  0.99328300  0.34944900  0.74517600  1
  O  O22  1  0.99657200  0.14814800  0.78598200  1
  O  O23  1  0.50671700  0.84944900  0.24517600  1
  O  O24  1  0.75482400  0.50671700  0.15055100  1
  O  O25  1  0.00342800  0.14814800  0.21401800  1
  O  O26  1  0.15055100  0.24517600  0.49328300  1
  O  O27  1  0.74517600  0.99328300  0.34944900  1
  O  O28  1  0.34944900  0.25482400  0.00671700  1
  O  O29  1  0.28598200  0.49657200  0.35185200  1
  O  O30  1  0.50342800  0.35185200  0.71401800  1
  O  O31  1  0.35185200  0.71401800  0.50342800  1
  O  O32  1  0.00671700  0.65055100  0.74517600  1
  O  O33  1  0.49657200  0.64814800  0.71401800  1
  O  O34  1  0.49328300  0.84944900  0.75482400  1
  O  O35  1  0.25482400  0.00671700  0.34944900  1
  O  O36  1  0.50342800  0.64814800  0.28598200  1
  O  O37  1  0.49328300  0.15055100  0.24517600  1
  O  O38  1  0.74517600  0.00671700  0.65055100  1
  O  O39  1  0.24517600  0.50671700  0.84944900  1
  O  O40  1  0.85185200  0.21401800  0.99657200  1
  O  O41  1  0.00342800  0.85185200  0.78598200  1
  O  O42  1  0.21401800  0.00342800  0.14814800  1
  O  O43  1  0.35185200  0.28598200  0.49657200  1
  O  O44  1  0.24517600  0.49328300  0.15055100  1
  O  O45  1  0.71401800  0.49657200  0.64814800  1
  O  O46  1  0.49657200  0.35185200  0.28598200  1
  O  O47  1  0.21401800  0.99657200  0.85185200  1
loop_
_geom_bond_atom_site_label_1
_geom_bond_atom_site_label_2
_geom_bond_distance
_geom_bond_site_symmetry_2
Co0 N4 1.958342 1_555
Co0 N13 1.958342 1_555
Co0 N21 1.958342 1_555
Co0 N17 1.958342 1_555
Co0 N1 1.958342 1_555
Co0 N10 1.958342 1_555
Co1 N2 1.958342 1_555
Co1 N20 1.958342 1_555
Co1 N15 1.958342 1_555
Co1 N6 1.958342 1_555
Co1 N3 1.958342 1_555
Co1 N12 1.958342 1_555
Co2 N18 1.958342 1_555
Co2 N22 1.958342 1_555
Co2 N9 1.958342 1_555
Co2 N5 1.958342 1_555
Co2 N19 1.958342 1_555
Co2 N7 1.958342 1_555
Co3 N8 1.958342 1_555
Co3 N0 1.958342 1_555
Co3 N14 1.958342 1_555
Co3 N23 1.958342 1_555
Co3 N16 1.958342 1_555
Co3 N11 1.958342 1_555
N0 O26 1.254329 1_555
N0 O43 1.276011 1_555
N1 O23 1.254329 1_555
N1 O36 1.276011 1_555
N2 O34 1.254329 1_555
N2 O33 1.276011 1_555
N3 O39 1.254329 1_555
N3 O20 1.276011 1_555
N4 O10 1.254329 1_555
N4 O13 1.276011 1_555
N5 O38 1.254329 1_555
N5 O14 1.276011 1_555
N6 O32 1.254329 1_555
N6 O41 1.276011 1_555
N7 O12 1.254329 1_555
N7 O30 1.276011 1_555
N8 O44 1.254329 1_555
N8 O29 1.276011 1_555
N9 O4 1.254329 1_555
N9 O40 1.276011 1_555
N10 O24 1.254329 1_555
N10 O7 1.276011 1_555
N11 O28 1.254329 1_555
N11 O6 1.276011 1_555
N12 O2 1.254329 1_555
N12 O31 1.276011 1_555
N13 O27 1.254329 1_555
N13 O9 1.276011 1_555
N14 O37 1.254329 1_555
N14 O46 1.276011 1_555
N15 O0 1.254329 1_555
N15 O47 1.276011 1_555
N16 O35 1.254329 1_555
N16 O42 1.276011 1_555
N17 O17 1.254329 1_555
N17 O5 1.276011 1_555
N18 O1 1.254329 1_555
N18 O45 1.276011 1_555
N19 O18 1.254329 1_555
N19 O16 1.276011 1_555
N20 O8 1.254329 1_555
N20 O11 1.276011 1_555
N21 O15 1.254329 1_555
N21 O19 1.276011 1_555
N22 O21 1.254329 1_555
N22 O22 1.276011 1_555
N23 O3 1.254329 1_555
N23 O25 1.276011 1_555
O5 Y0 2.759550 1_665
O6 Y0 2.759550 1_555
O7 Y1 2.759550 1_555
O9 Y0 2.759550 1_665
O11 Y0 2.759550 1_566
O13 Y1 2.759550 1_555
O14 Y0 2.759550 1_656
O16 Y1 2.759550 1_555
O19 Y0 2.759550 1_665
O20 Y1 2.759550 1_555
O22 Y0 2.759550 1_656
O25 Y0 2.759550 1_555
O29 Y1 2.759550 1_555
O30 Y1 2.759550 1_555
O31 Y1 2.759550 1_555
O33 Y1 2.759550 1_555
O36 Y1 2.759550 1_555
O40 Y0 2.759550 1_656
O41 Y0 2.759550 1_566
O42 Y0 2.759550 1_555
O43 Y1 2.759550 1_555
O45 Y1 2.759550 1_555
O46 Y1 2.759550 1_555
O47 Y0 2.759550 1_566
