# generated using pymatgen
data_Nb3SiNi2
_symmetry_space_group_name_H-M   'P 1'
_cell_length_a   7.93051509
_cell_length_b   7.93051509
_cell_length_c   7.93051509
_cell_angle_alpha   60.00000000
_cell_angle_beta   60.00000000
_cell_angle_gamma   60.00000000
_symmetry_Int_Tables_number   1
_chemical_formula_structural   Nb3SiNi2
_chemical_formula_sum   'Nb12 Si4 Ni8'
_cell_volume   352.68678731
_cell_formula_units_Z   4
loop_
 _symmetry_equiv_pos_site_id
 _symmetry_equiv_pos_as_xyz
  1  'x, y, z'
loop_
 _atom_site_type_symbol
 _atom_site_label
 _atom_site_symmetry_multiplicity
 _atom_site_fract_x
 _atom_site_fract_y
 _atom_site_fract_z
 _atom_site_occupancy
  Nb  Nb0  1  0.70250700  0.29749300  0.70250700  1
  Nb  Nb1  1  0.95250700  0.54749300  0.54749300  1
  Nb  Nb2  1  0.54749300  0.95250700  0.95250700  1
  Nb  Nb3  1  0.95250700  0.54749300  0.95250700  1
  Nb  Nb4  1  0.54749300  0.54749300  0.95250700  1
  Nb  Nb5  1  0.95250700  0.95250700  0.54749300  1
  Nb  Nb6  1  0.70250700  0.70250700  0.29749300  1
  Nb  Nb7  1  0.29749300  0.70250700  0.70250700  1
  Nb  Nb8  1  0.70250700  0.29749300  0.29749300  1
  Nb  Nb9  1  0.29749300  0.29749300  0.70250700  1
  Nb  Nb10  1  0.54749300  0.95250700  0.54749300  1
  Nb  Nb11  1  0.29749300  0.70250700  0.29749300  1
  Si  Si0  1  0.12500000  0.12500000  0.12500000  1
  Si  Si1  1  0.62500000  0.12500000  0.12500000  1
  Si  Si2  1  0.12500000  0.62500000  0.12500000  1
  Si  Si3  1  0.12500000  0.12500000  0.62500000  1
  Ni  Ni0  1  0.33234000  0.33234000  0.33234000  1
  Ni  Ni1  1  0.24701900  0.91766000  0.91766000  1
  Ni  Ni2  1  0.91766000  0.24701900  0.91766000  1
  Ni  Ni3  1  0.91766000  0.91766000  0.24701900  1
  Ni  Ni4  1  0.33234000  0.00298100  0.33234000  1
  Ni  Ni5  1  0.33234000  0.33234000  0.00298100  1
  Ni  Ni6  1  0.00298100  0.33234000  0.33234000  1
  Ni  Ni7  1  0.91766000  0.91766000  0.91766000  1
loop_
_geom_bond_atom_site_label_1
_geom_bond_atom_site_label_2
_geom_bond_distance
_geom_bond_site_symmetry_2
Nb0 Ni6 2.687829 1_655
Nb0 Ni5 2.687829 1_556
Nb0 Ni2 2.743784 1_555
Nb0 Ni7 2.743788 1_545
Nb0 Si3 2.770097 1_655
Nb0 Si1 2.770097 1_556
Nb1 Ni3 2.687829 1_555
Nb1 Ni2 2.687829 1_555
Nb1 Ni6 2.743784 1_655
Nb1 Ni0 2.743788 1_655
Nb1 Si2 2.770097 1_655
Nb1 Si3 2.770097 1_655
Nb2 Ni7 2.687826 1_555
Nb2 Ni1 2.687834 1_555
Nb2 Ni4 2.743791 1_566
Nb2 Ni5 2.743791 1_566
Nb2 Si0 2.770097 1_566
Nb2 Si1 2.770097 1_566
Nb3 Ni7 2.687826 1_555
Nb3 Ni2 2.687834 1_555
Nb3 Ni6 2.743791 1_656
Nb3 Ni5 2.743791 1_656
Nb3 Si0 2.770097 1_656
Nb3 Si2 2.770097 1_656
Nb4 Ni1 2.687829 1_555
Nb4 Ni2 2.687829 1_555
Nb4 Ni5 2.743784 1_556
Nb4 Ni0 2.743788 1_556
Nb4 Si1 2.770097 1_556
Nb4 Si2 2.770097 1_556
Nb5 Ni7 2.687826 1_555
Nb5 Ni3 2.687834 1_555
Nb5 Ni4 2.743791 1_665
Nb5 Ni6 2.743791 1_665
Nb5 Si3 2.770097 1_665
Nb5 Si0 2.770097 1_665
Nb6 Ni6 2.687829 1_655
Nb6 Ni4 2.687829 1_565
Nb6 Ni3 2.743784 1_555
Nb6 Ni7 2.743788 1_554
Nb6 Si2 2.770097 1_655
Nb6 Si1 2.770097 1_565
Nb7 Ni5 2.687829 1_556
Nb7 Ni4 2.687829 1_565
Nb7 Ni1 2.743784 1_555
Nb7 Ni7 2.743788 1_455
Nb7 Si3 2.770097 1_565
Nb7 Si2 2.770097 1_556
Nb8 Ni0 2.687826 1_555
Nb8 Ni6 2.687834 1_655
Nb8 Ni2 2.743791 1_554
Nb8 Ni3 2.743791 1_545
Nb8 Si0 2.770097 1_655
Nb8 Si1 2.770097 1_555
Nb9 Ni0 2.687826 1_555
Nb9 Ni5 2.687834 1_556
Nb9 Ni1 2.743791 1_545
Nb9 Ni2 2.743791 1_455
Nb9 Si0 2.770097 1_556
Nb9 Si3 2.770097 1_555
Nb10 Ni3 2.687829 1_555
Nb10 Ni1 2.687829 1_555
Nb10 Ni4 2.743784 1_565
Nb10 Ni0 2.743788 1_565
Nb10 Si3 2.770097 1_565
Nb10 Si1 2.770097 1_565
Nb11 Ni0 2.687826 1_555
Nb11 Ni4 2.687834 1_565
Nb11 Ni3 2.743791 1_455
Nb11 Ni1 2.743791 1_554
Nb11 Si0 2.770097 1_565
Nb11 Si2 2.770097 1_555
Ni0 Si2 2.421851 1_555
Ni0 Si1 2.421851 1_555
Ni0 Si3 2.421851 1_555
Ni0 Ni4 2.611987 1_555
Ni0 Ni5 2.611987 1_555
Ni0 Ni6 2.611987 1_555
Ni1 Si3 2.421846 1_565
Ni1 Si2 2.421846 1_556
Ni1 Si0 2.421853 1_566
Ni1 Ni3 2.611987 1_456
Ni1 Ni2 2.611987 1_465
Ni1 Ni7 2.611987 1_455
Ni2 Si3 2.421846 1_655
Ni2 Si1 2.421846 1_556
Ni2 Si0 2.421853 1_656
Ni2 Ni3 2.611987 1_546
Ni2 Ni7 2.611987 1_545
Ni3 Si2 2.421846 1_655
Ni3 Si1 2.421846 1_565
Ni3 Si0 2.421853 1_665
Ni3 Ni7 2.611987 1_554
Ni4 Si1 2.421846 1_555
Ni4 Si3 2.421846 1_555
Ni4 Si0 2.421853 1_555
Ni4 Ni5 2.611987 1_555
Ni4 Ni6 2.611987 1_555
Ni5 Si1 2.421846 1_555
Ni5 Si2 2.421846 1_555
Ni5 Si0 2.421853 1_555
Ni5 Ni6 2.611987 1_555
Ni6 Si3 2.421846 1_555
Ni6 Si2 2.421846 1_555
Ni6 Si0 2.421853 1_555
Ni7 Si2 2.421851 1_656
Ni7 Si3 2.421851 1_665
Ni7 Si1 2.421851 1_566
