# generated using pymatgen
data_Ce2Zn17
_symmetry_space_group_name_H-M   'P 1'
_cell_length_a   6.76528199
_cell_length_b   6.76528577
_cell_length_c   6.76528426
_cell_angle_alpha   82.84205970
_cell_angle_beta   82.84203961
_cell_angle_gamma   82.84199300
_symmetry_Int_Tables_number   1
_chemical_formula_structural   Ce2Zn17
_chemical_formula_sum   'Ce2 Zn17'
_cell_volume   302.95618738
_cell_formula_units_Z   1
loop_
 _symmetry_equiv_pos_site_id
 _symmetry_equiv_pos_as_xyz
  1  'x, y, z'
loop_
 _atom_site_type_symbol
 _atom_site_label
 _atom_site_symmetry_multiplicity
 _atom_site_fract_x
 _atom_site_fract_y
 _atom_site_fract_z
 _atom_site_occupancy
  Ce  Ce0  1  0.33754263  0.33754263  0.33754263  1
  Ce  Ce1  1  0.66245737  0.66245737  0.66245737  1
  Zn  Zn0  1  0.09908931  0.09908931  0.09908931  1
  Zn  Zn1  1  0.90091069  0.90091069  0.90091069  1
  Zn  Zn2  1  0.00000000  -0.00000000  0.50000000  1
  Zn  Zn3  1  0.50000000  -0.00000000  -0.00000000  1
  Zn  Zn4  1  0.00000000  0.50000000  -0.00000000  1
  Zn  Zn5  1  0.70862653  0.29137347  0.00000000  1
  Zn  Zn6  1  0.00000000  0.70862653  0.29137347  1
  Zn  Zn7  1  0.29137347  -0.00000000  0.70862653  1
  Zn  Zn8  1  0.29137347  0.70862653  -0.00000000  1
  Zn  Zn9  1  -0.00000000  0.29137347  0.70862653  1
  Zn  Zn10  1  0.70862653  0.00000000  0.29137347  1
  Zn  Zn11  1  0.65053009  0.15925356  0.65053009  1
  Zn  Zn12  1  0.65053009  0.65053009  0.15925356  1
  Zn  Zn13  1  0.15925356  0.65053009  0.65053009  1
  Zn  Zn14  1  0.84074644  0.34946991  0.34946991  1
  Zn  Zn15  1  0.34946991  0.84074644  0.34946991  1
  Zn  Zn16  1  0.34946991  0.34946991  0.84074644  1
loop_
_geom_bond_atom_site_label_1
_geom_bond_atom_site_label_2
_geom_bond_distance
_geom_bond_site_symmetry_2
Ce0 Zn0 3.122971 1_555
Ce0 Zn10 3.188800 1_555
Ce0 Zn6 3.188800 1_555
Ce0 Zn5 3.188801 1_555
Ce0 Zn9 3.188801 1_555
Ce0 Zn8 3.188802 1_555
Ce0 Zn7 3.188803 1_555
Ce0 Zn13 3.204125 1_555
Ce0 Zn11 3.204125 1_555
Ce0 Zn12 3.204128 1_555
Ce0 Zn14 3.342988 1_455
Ce0 Zn16 3.342989 1_554
Ce0 Zn15 3.342990 1_545
Ce0 Zn4 3.418475 1_555
Ce0 Zn3 3.418475 1_555
Ce0 Zn2 3.418477 1_555
Ce0 Zn14 3.426504 1_555
Ce0 Zn16 3.426505 1_555
Ce0 Zn15 3.426505 1_555
Ce1 Zn1 3.122971 1_555
Ce1 Zn7 3.188800 1_565
Ce1 Zn9 3.188800 1_655
Ce1 Zn8 3.188801 1_556
Ce1 Zn6 3.188801 1_655
Ce1 Zn5 3.188802 1_556
Ce1 Zn10 3.188803 1_565
Ce1 Zn14 3.204125 1_555
Ce1 Zn15 3.204125 1_555
Ce1 Zn16 3.204128 1_555
Ce1 Zn13 3.342988 1_655
Ce1 Zn12 3.342989 1_556
Ce1 Zn11 3.342990 1_565
Ce1 Zn4 3.418475 1_656
Ce1 Zn3 3.418475 1_566
Ce1 Zn2 3.418477 1_665
Ce1 Zn13 3.426504 1_555
Ce1 Zn12 3.426505 1_555
Ce1 Zn11 3.426505 1_555
Zn0 Zn1 2.595502 1_444
Zn0 Zn3 2.731477 1_555
Zn0 Zn4 2.731478 1_555
Zn0 Zn2 2.731479 1_555
Zn0 Zn14 2.834202 1_455
Zn0 Zn15 2.834203 1_545
Zn0 Zn16 2.834204 1_554
Zn0 Zn5 2.913286 1_455
Zn0 Zn8 2.913287 1_545
Zn0 Zn7 2.913287 1_554
Zn0 Zn10 2.913287 1_455
Zn0 Zn9 2.913288 1_554
Zn0 Zn6 2.913289 1_545
Zn1 Zn3 2.731477 1_566
Zn1 Zn4 2.731478 1_656
Zn1 Zn2 2.731479 1_665
Zn1 Zn13 2.834202 1_655
Zn1 Zn11 2.834203 1_565
Zn1 Zn12 2.834204 1_556
Zn1 Zn8 2.913286 1_656
Zn1 Zn5 2.913287 1_566
Zn1 Zn10 2.913287 1_566
Zn1 Zn7 2.913287 1_665
Zn1 Zn6 2.913288 1_656
Zn1 Zn9 2.913289 1_665
Zn2 Zn7 2.563432 1_555
Zn2 Zn6 2.563432 1_545
Zn2 Zn9 2.563432 1_555
Zn3 Zn7 2.563432 1_554
Zn3 Zn5 2.563433 1_555
Zn3 Zn8 2.563433 1_545
Zn4 Zn6 2.563432 1_555
Zn4 Zn9 2.563432 1_554
Zn4 Zn5 2.563433 1_455
Zn4 Zn8 2.563433 1_555
Zn5 Zn9 2.608272 1_654
Zn6 Zn8 2.608272 1_555
Zn7 Zn9 2.608272 1_555
Zn7 Zn8 2.608274 1_546
Zn10 Zn2 2.563432 1_655
Zn10 Zn3 2.563432 1_555
Zn10 Zn6 2.608272 1_645
Zn10 Zn5 2.608274 1_555
Zn10 Zn12 2.718258 1_545
Zn10 Zn14 2.718258 1_555
Zn10 Zn11 2.743727 1_555
Zn10 Zn15 2.743728 1_545
Zn11 Zn16 2.562567 1_555
Zn11 Zn14 2.562569 1_555
Zn11 Zn2 2.612702 1_655
Zn11 Zn3 2.612705 1_556
Zn11 Zn5 2.718257 1_556
Zn11 Zn9 2.718257 1_655
Zn11 Zn7 2.743728 1_555
Zn12 Zn15 2.562567 1_555
Zn12 Zn14 2.562568 1_555
Zn12 Zn4 2.612702 1_655
Zn12 Zn3 2.612704 1_565
Zn12 Zn6 2.718257 1_655
Zn12 Zn8 2.743727 1_555
Zn12 Zn5 2.743728 1_555
Zn13 Zn16 2.562568 1_555
Zn13 Zn15 2.562569 1_555
Zn13 Zn2 2.612704 1_565
Zn13 Zn4 2.612705 1_556
Zn13 Zn8 2.718257 1_556
Zn13 Zn7 2.718258 1_565
Zn13 Zn6 2.743727 1_555
Zn13 Zn9 2.743729 1_555
Zn14 Zn2 2.612704 1_655
Zn14 Zn4 2.612705 1_655
Zn14 Zn5 2.718257 1_555
Zn14 Zn9 2.743727 1_655
Zn14 Zn6 2.743729 1_655
Zn15 Zn2 2.612702 1_565
Zn15 Zn3 2.612705 1_565
Zn15 Zn8 2.718257 1_555
Zn15 Zn6 2.718257 1_555
Zn15 Zn7 2.743727 1_565
Zn16 Zn4 2.612702 1_556
Zn16 Zn3 2.612704 1_556
Zn16 Zn9 2.718257 1_555
Zn16 Zn7 2.718258 1_555
Zn16 Zn5 2.743727 1_556
Zn16 Zn8 2.743728 1_556
