# generated using pymatgen
data_DyNiSn2
_symmetry_space_group_name_H-M   'P 1'
_cell_length_a   4.44121300
_cell_length_b   14.64726600
_cell_length_c   16.15592000
_cell_angle_alpha   90.00000000
_cell_angle_beta   90.00000000
_cell_angle_gamma   90.00000000
_symmetry_Int_Tables_number   1
_chemical_formula_structural   DyNiSn2
_chemical_formula_sum   'Dy12 Ni12 Sn24'
_cell_volume   1050.96890064
_cell_formula_units_Z   12
loop_
 _symmetry_equiv_pos_site_id
 _symmetry_equiv_pos_as_xyz
  1  'x, y, z'
loop_
 _atom_site_type_symbol
 _atom_site_label
 _atom_site_symmetry_multiplicity
 _atom_site_fract_x
 _atom_site_fract_y
 _atom_site_fract_z
 _atom_site_occupancy
  Dy  Dy0  1  0.75000000  0.47251200  0.15068500  1
  Dy  Dy1  1  0.25000000  0.52748800  0.84931500  1
  Dy  Dy2  1  0.75000000  0.77084200  0.62480900  1
  Dy  Dy3  1  0.75000000  0.89434100  0.85409100  1
  Dy  Dy4  1  0.75000000  0.72915800  0.12480900  1
  Dy  Dy5  1  0.75000000  0.60565900  0.35409100  1
  Dy  Dy6  1  0.25000000  0.22915800  0.37519100  1
  Dy  Dy7  1  0.25000000  0.10565900  0.14590900  1
  Dy  Dy8  1  0.75000000  0.02748800  0.65068500  1
  Dy  Dy9  1  0.25000000  0.39434100  0.64590900  1
  Dy  Dy10  1  0.25000000  0.27084200  0.87519100  1
  Dy  Dy11  1  0.25000000  0.97251200  0.34931500  1
  Ni  Ni0  1  0.25000000  0.75265400  0.80432800  1
  Ni  Ni1  1  0.75000000  0.95659000  0.20079500  1
  Ni  Ni2  1  0.75000000  0.25265400  0.69567200  1
  Ni  Ni3  1  0.75000000  0.39370400  0.94865200  1
  Ni  Ni4  1  0.75000000  0.24734600  0.19567200  1
  Ni  Ni5  1  0.25000000  0.04341000  0.79920500  1
  Ni  Ni6  1  0.75000000  0.54341000  0.70079500  1
  Ni  Ni7  1  0.25000000  0.45659000  0.29920500  1
  Ni  Ni8  1  0.25000000  0.89370400  0.55134800  1
  Ni  Ni9  1  0.25000000  0.60629600  0.05134800  1
  Ni  Ni10  1  0.25000000  0.74734600  0.30432800  1
  Ni  Ni11  1  0.75000000  0.10629600  0.44865200  1
  Sn  Sn0  1  0.25000000  0.32457600  0.18543000  1
  Sn  Sn1  1  0.25000000  0.44998300  0.45631600  1
  Sn  Sn2  1  0.25000000  0.42200000  0.02111500  1
  Sn  Sn3  1  0.25000000  0.07800000  0.52111500  1
  Sn  Sn4  1  0.75000000  0.57800000  0.97888500  1
  Sn  Sn5  1  0.75000000  0.10625300  0.28678100  1
  Sn  Sn6  1  0.25000000  0.73856900  0.46660400  1
  Sn  Sn7  1  0.75000000  0.37155400  0.32609400  1
  Sn  Sn8  1  0.75000000  0.26143100  0.53339600  1
  Sn  Sn9  1  0.25000000  0.60625300  0.21321900  1
  Sn  Sn10  1  0.75000000  0.94998300  0.04368400  1
  Sn  Sn11  1  0.75000000  0.23856900  0.03339600  1
  Sn  Sn12  1  0.25000000  0.05001700  0.95631600  1
  Sn  Sn13  1  0.75000000  0.39374700  0.78678100  1
  Sn  Sn14  1  0.75000000  0.12844600  0.82609400  1
  Sn  Sn15  1  0.75000000  0.82457600  0.31457000  1
  Sn  Sn16  1  0.25000000  0.76143100  0.96660400  1
  Sn  Sn17  1  0.25000000  0.87155400  0.17390600  1
  Sn  Sn18  1  0.25000000  0.89374700  0.71321900  1
  Sn  Sn19  1  0.75000000  0.67542400  0.81457000  1
  Sn  Sn20  1  0.25000000  0.62844600  0.67390600  1
  Sn  Sn21  1  0.25000000  0.17542400  0.68543000  1
  Sn  Sn22  1  0.75000000  0.92200000  0.47888500  1
  Sn  Sn23  1  0.75000000  0.55001700  0.54368400  1
loop_
_geom_bond_atom_site_label_1
_geom_bond_atom_site_label_2
_geom_bond_distance
_geom_bond_site_symmetry_2
Dy0 Sn9 3.128775 1_555
Dy0 Sn9 3.128775 1_655
Dy0 Sn2 3.140142 1_655
Dy0 Sn2 3.140142 1_555
Dy0 Sn0 3.153009 1_555
Dy0 Sn0 3.153009 1_655
Dy0 Sn4 3.176673 1_554
Dy0 Sn7 3.196511 1_555
Dy0 Ni7 3.277647 1_655
Dy0 Ni7 3.277647 1_555
Dy0 Ni9 3.368479 1_555
Dy0 Ni9 3.368479 1_655
Dy0 Ni4 3.377201 1_555
Dy0 Ni3 3.462130 1_554
Dy1 Sn13 3.128775 1_555
Dy1 Sn13 3.128775 1_455
Dy1 Sn4 3.140142 1_455
Dy1 Sn4 3.140142 1_555
Dy1 Sn19 3.153009 1_455
Dy1 Sn19 3.153009 1_555
Dy1 Sn2 3.176673 1_556
Dy1 Sn20 3.196511 1_555
Dy1 Ni6 3.277647 1_455
Dy1 Ni6 3.277647 1_555
Dy1 Ni3 3.368479 1_455
Dy1 Ni3 3.368479 1_555
Dy1 Ni0 3.377201 1_555
Dy1 Ni9 3.462130 1_556
Dy2 Ni8 3.094865 1_555
Dy2 Ni8 3.094865 1_655
Dy2 Sn20 3.148089 1_655
Dy2 Sn20 3.148089 1_555
Dy2 Sn18 3.195632 1_555
Dy2 Sn18 3.195632 1_655
Dy2 Sn22 3.234193 1_555
Dy2 Sn19 3.369307 1_555
Dy2 Sn6 3.418686 1_655
Dy2 Sn6 3.418686 1_555
Dy2 Sn23 3.489940 1_555
Dy3 Ni0 3.143953 1_555
Dy3 Ni0 3.143953 1_655
Dy3 Sn10 3.169622 1_556
Dy3 Sn18 3.179775 1_555
Dy3 Sn18 3.179775 1_655
Dy3 Ni5 3.238033 1_565
Dy3 Ni5 3.238033 1_665
Dy3 Sn19 3.269488 1_555
Dy3 Sn14 3.458702 1_565
Dy3 Sn16 3.467740 1_555
Dy3 Sn16 3.467740 1_655
Dy3 Sn12 3.585821 1_565
Dy3 Sn12 3.585821 1_665
Dy4 Ni9 3.094865 1_555
Dy4 Ni9 3.094865 1_655
Dy4 Sn17 3.148089 1_555
Dy4 Sn17 3.148089 1_655
Dy4 Sn9 3.195632 1_655
Dy4 Sn9 3.195632 1_555
Dy4 Sn4 3.234193 1_554
Dy4 Sn15 3.369307 1_555
Dy4 Sn16 3.418686 1_654
Dy4 Sn16 3.418686 1_554
Dy4 Sn10 3.489940 1_555
Dy5 Ni10 3.143953 1_555
Dy5 Ni10 3.143953 1_655
Dy5 Sn23 3.169622 1_555
Dy5 Sn9 3.179775 1_555
Dy5 Sn9 3.179775 1_655
Dy5 Ni7 3.238033 1_655
Dy5 Ni7 3.238033 1_555
Dy5 Sn15 3.269488 1_555
Dy5 Sn7 3.458702 1_555
Dy5 Sn6 3.467740 1_655
Dy5 Sn6 3.467740 1_555
Dy5 Sn1 3.585821 1_555
Dy5 Sn1 3.585821 1_655
Dy6 Ni11 3.094865 1_455
Dy6 Ni11 3.094865 1_555
Dy6 Sn7 3.148089 1_555
Dy6 Sn7 3.148089 1_455
Dy6 Sn5 3.195632 1_555
Dy6 Sn5 3.195632 1_455
Dy6 Sn3 3.234193 1_555
Dy6 Sn0 3.369307 1_555
Dy6 Sn8 3.418686 1_555
Dy6 Sn8 3.418686 1_455
Dy6 Sn1 3.489940 1_555
Dy7 Ni4 3.143953 1_455
Dy7 Ni4 3.143953 1_555
Dy7 Sn12 3.169622 1_554
Dy7 Sn5 3.179775 1_555
Dy7 Sn5 3.179775 1_455
Dy7 Ni1 3.238033 1_445
Dy7 Ni1 3.238033 1_545
Dy7 Sn0 3.269488 1_555
Dy7 Sn17 3.458702 1_545
Dy7 Sn11 3.467740 1_455
Dy7 Sn11 3.467740 1_555
Dy7 Sn10 3.585821 1_445
Dy7 Sn10 3.585821 1_545
Dy8 Sn18 3.128775 1_645
Dy8 Sn18 3.128775 1_545
Dy8 Sn3 3.140142 1_555
Dy8 Sn3 3.140142 1_655
Dy8 Sn21 3.153009 1_655
Dy8 Sn21 3.153009 1_555
Dy8 Sn22 3.176673 1_545
Dy8 Sn14 3.196511 1_555
Dy8 Ni5 3.277647 1_555
Dy8 Ni5 3.277647 1_655
Dy8 Ni8 3.368479 1_545
Dy8 Ni8 3.368479 1_645
Dy8 Ni2 3.377201 1_555
Dy8 Ni11 3.462130 1_555
Dy9 Ni2 3.143953 1_455
Dy9 Ni2 3.143953 1_555
Dy9 Sn1 3.169622 1_555
Dy9 Sn13 3.179775 1_455
Dy9 Sn13 3.179775 1_555
Dy9 Ni6 3.238033 1_555
Dy9 Ni6 3.238033 1_455
Dy9 Sn21 3.269488 1_555
Dy9 Sn20 3.458702 1_555
Dy9 Sn8 3.467740 1_555
Dy9 Sn8 3.467740 1_455
Dy9 Sn23 3.585821 1_555
Dy9 Sn23 3.585821 1_455
Dy10 Ni3 3.094865 1_555
Dy10 Ni3 3.094865 1_455
Dy10 Sn14 3.148089 1_455
Dy10 Sn14 3.148089 1_555
Dy10 Sn13 3.195632 1_455
Dy10 Sn13 3.195632 1_555
Dy10 Sn2 3.234193 1_556
Dy10 Sn21 3.369307 1_555
Dy10 Sn11 3.418686 1_556
Dy10 Sn11 3.418686 1_456
Dy10 Sn12 3.489940 1_555
Dy11 Sn5 3.128775 1_565
Dy11 Sn5 3.128775 1_465
Dy11 Sn22 3.140142 1_555
Dy11 Sn22 3.140142 1_455
Dy11 Sn15 3.153009 1_555
Dy11 Sn15 3.153009 1_455
Dy11 Sn3 3.176673 1_565
Dy11 Sn17 3.196511 1_555
Dy11 Ni1 3.277647 1_455
Dy11 Ni1 3.277647 1_555
Dy11 Ni11 3.368479 1_465
Dy11 Ni11 3.368479 1_565
Dy11 Ni10 3.377201 1_555
Dy11 Ni8 3.462130 1_555
Ni0 Sn19 2.497620 1_455
Ni0 Sn19 2.497620 1_555
Ni0 Sn18 2.537239 1_555
Ni0 Sn16 2.624868 1_555
Ni0 Sn20 2.783828 1_555
Ni1 Sn10 2.540117 1_555
Ni1 Sn17 2.582865 1_555
Ni1 Sn17 2.582865 1_655
Ni1 Sn5 2.595259 1_565
Ni1 Sn15 2.667909 1_555
Ni2 Sn21 2.497620 1_555
Ni2 Sn21 2.497620 1_655
Ni2 Sn13 2.537239 1_555
Ni2 Sn8 2.624868 1_555
Ni2 Sn14 2.783828 1_555
Ni3 Sn2 2.544292 1_556
Ni3 Sn2 2.544292 1_656
Ni3 Sn13 2.615175 1_555
Ni3 Sn11 2.652894 1_556
Ni3 Sn4 2.743267 1_555
Ni4 Sn0 2.497620 1_655
Ni4 Sn0 2.497620 1_555
Ni4 Sn5 2.537239 1_555
Ni4 Sn11 2.624868 1_555
Ni4 Sn7 2.783828 1_555
Ni5 Sn12 2.540117 1_555
Ni5 Sn14 2.582865 1_555
Ni5 Sn14 2.582865 1_455
Ni5 Sn18 2.595259 1_545
Ni5 Sn21 2.667909 1_555
Ni6 Sn23 2.540117 1_555
Ni6 Sn20 2.582865 1_555
Ni6 Sn20 2.582865 1_655
Ni6 Sn13 2.595259 1_555
Ni6 Sn19 2.667909 1_555
Ni7 Sn1 2.540117 1_555
Ni7 Sn7 2.582865 1_555
Ni7 Sn7 2.582865 1_455
Ni7 Sn9 2.595259 1_555
Ni7 Sn0 2.667909 1_555
Ni8 Sn22 2.544292 1_555
Ni8 Sn22 2.544292 1_455
Ni8 Sn18 2.615175 1_555
Ni8 Sn6 2.652894 1_555
Ni8 Sn3 2.743267 1_565
Ni9 Sn4 2.544292 1_554
Ni9 Sn4 2.544292 1_454
Ni9 Sn9 2.615175 1_555
Ni9 Sn16 2.652894 1_554
Ni9 Sn2 2.743267 1_555
Ni10 Sn15 2.497620 1_555
Ni10 Sn15 2.497620 1_455
Ni10 Sn9 2.537239 1_555
Ni10 Sn6 2.624868 1_555
Ni10 Sn17 2.783828 1_555
Ni11 Sn3 2.544292 1_555
Ni11 Sn3 2.544292 1_655
Ni11 Sn5 2.615175 1_555
Ni11 Sn8 2.652894 1_555
Ni11 Sn22 2.743267 1_545
Sn0 Sn2 3.013890 1_555
Sn1 Sn23 3.011700 1_555
Sn1 Sn23 3.011700 1_455
Sn1 Sn7 3.267564 1_555
Sn1 Sn7 3.267564 1_455
Sn10 Sn12 3.011700 1_564
Sn10 Sn12 3.011700 1_664
Sn10 Sn17 3.267564 1_655
Sn10 Sn17 3.267564 1_555
Sn12 Sn14 3.267564 1_455
Sn12 Sn14 3.267564 1_555
Sn15 Sn22 3.013890 1_555
Sn19 Sn4 3.013890 1_555
Sn20 Sn23 3.267564 1_555
Sn20 Sn23 3.267564 1_455
Sn21 Sn3 3.013890 1_555
