# generated using pymatgen
data_Mn(PO3)2
_symmetry_space_group_name_H-M   'P 1'
_cell_length_a   7.36902958
_cell_length_b   7.36902958
_cell_length_c   10.18118066
_cell_angle_alpha   66.16836530
_cell_angle_beta   66.16836530
_cell_angle_gamma   69.81910251
_symmetry_Int_Tables_number   1
_chemical_formula_structural   Mn(PO3)2
_chemical_formula_sum   'Mn4 P8 O24'
_cell_volume   451.56344658
_cell_formula_units_Z   4
loop_
 _symmetry_equiv_pos_site_id
 _symmetry_equiv_pos_as_xyz
  1  'x, y, z'
loop_
 _atom_site_type_symbol
 _atom_site_label
 _atom_site_symmetry_multiplicity
 _atom_site_fract_x
 _atom_site_fract_y
 _atom_site_fract_z
 _atom_site_occupancy
  Mn  Mn0  1  -0.00000000  0.50000000  0.50000000  1
  Mn  Mn1  1  0.50000000  -0.00000000  0.00000000  1
  Mn  Mn2  1  0.54606751  0.45393249  0.75000000  1
  Mn  Mn3  1  0.45393249  0.54606751  0.25000000  1
  P  P0  1  0.79973126  0.81195053  0.69501470  1
  P  P1  1  0.18804947  0.20026874  0.80498530  1
  P  P2  1  0.20026874  0.18804947  0.30498530  1
  P  P3  1  0.81195053  0.79973126  0.19501470  1
  P  P4  1  0.75718935  0.22503988  0.47696601  1
  P  P5  1  0.77496012  0.24281065  0.02303399  1
  P  P6  1  0.24281065  0.77496012  0.52303399  1
  P  P7  1  0.22503988  0.75718935  0.97696601  1
  O  O0  1  0.03452670  0.80215058  0.65612032  1
  O  O1  1  0.19784942  0.96547330  0.84387968  1
  O  O2  1  0.96547330  0.19784942  0.34387968  1
  O  O3  1  0.80215058  0.03452670  0.15612032  1
  O  O4  1  0.73257047  0.99618153  0.56077065  1
  O  O5  1  0.00381847  0.26742953  0.93922935  1
  O  O6  1  0.26742953  0.00381847  0.43922935  1
  O  O7  1  0.99618153  0.73257047  0.06077065  1
  O  O8  1  0.69227944  0.85120477  0.84078634  1
  O  O9  1  0.14879523  0.30772056  0.65921366  1
  O  O10  1  0.30772056  0.14879523  0.15921366  1
  O  O11  1  0.85120477  0.69227944  0.34078634  1
  O  O12  1  0.78039874  0.62648644  0.67856611  1
  O  O13  1  0.37351356  0.21960126  0.82143389  1
  O  O14  1  0.21960126  0.37351356  0.32143389  1
  O  O15  1  0.62648644  0.78039874  0.17856611  1
  O  O16  1  0.78830883  0.30233677  0.58073972  1
  O  O17  1  0.69766323  0.21169117  0.91926028  1
  O  O18  1  0.21169117  0.69766323  0.41926028  1
  O  O19  1  0.30233677  0.78830883  0.08073972  1
  O  O20  1  0.40894689  0.66292702  0.58906478  1
  O  O21  1  0.33707298  0.59105311  0.91093522  1
  O  O22  1  0.59105311  0.33707298  0.41093522  1
  O  O23  1  0.66292702  0.40894689  0.08906478  1
loop_
_geom_bond_atom_site_label_1
_geom_bond_atom_site_label_2
_geom_bond_distance
_geom_bond_site_symmetry_2
Mn0 O11 2.084658 1_455
Mn0 O9 2.084658 1_555
Mn0 O12 2.178049 1_455
Mn0 O14 2.178049 1_555
Mn0 O18 2.189697 1_555
Mn0 O16 2.189697 1_455
Mn1 O8 2.084658 1_544
Mn1 O10 2.084658 1_555
Mn1 O15 2.178049 1_545
Mn1 O13 2.178049 1_554
Mn1 O17 2.189697 1_554
Mn1 O19 2.189697 1_545
Mn2 O20 2.074267 1_555
Mn2 O21 2.074267 1_555
Mn2 O12 2.209164 1_555
Mn2 O13 2.209164 1_555
Mn2 O17 2.257881 1_555
Mn2 O16 2.257881 1_555
Mn3 O22 2.074267 1_555
Mn3 O23 2.074267 1_555
Mn3 O15 2.209164 1_555
Mn3 O14 2.209164 1_555
Mn3 O18 2.257881 1_555
Mn3 O19 2.257881 1_555
O0 P0 1.593391 1_455
O0 P6 1.599526 1_555
O1 P1 1.593391 1_565
O1 P7 1.599526 1_555
O2 P2 1.593391 1_655
O2 P4 1.599526 1_555
O3 P3 1.593391 1_545
O3 P5 1.599526 1_555
O4 P4 1.590056 1_565
O4 P0 1.593628 1_555
O5 P5 1.590056 1_456
O5 P1 1.593628 1_555
O6 P6 1.590056 1_545
O6 P2 1.593628 1_555
O7 P7 1.590056 1_654
O7 P3 1.593628 1_555
O8 P0 1.467149 1_555
O9 P1 1.467149 1_555
O10 P2 1.467149 1_555
O11 P3 1.467149 1_555
O12 P0 1.501584 1_555
O13 P1 1.501584 1_555
O14 P2 1.501584 1_555
O15 P3 1.501584 1_555
O16 P4 1.505174 1_555
O17 P5 1.505174 1_556
O18 P6 1.505174 1_555
O19 P7 1.505174 1_554
O20 P6 1.466822 1_555
O21 P7 1.466822 1_555
O22 P4 1.466822 1_555
O23 P5 1.466822 1_555
