# generated using pymatgen
data_TlSbO3
_symmetry_space_group_name_H-M   'P 1'
_cell_length_a   5.40304145
_cell_length_b   5.40304145
_cell_length_c   16.24378200
_cell_angle_alpha   90.00000000
_cell_angle_beta   90.00000000
_cell_angle_gamma   119.99999332
_symmetry_Int_Tables_number   1
_chemical_formula_structural   TlSbO3
_chemical_formula_sum   'Tl4 Sb4 O12'
_cell_volume   410.67135640
_cell_formula_units_Z   4
loop_
 _symmetry_equiv_pos_site_id
 _symmetry_equiv_pos_as_xyz
  1  'x, y, z'
loop_
 _atom_site_type_symbol
 _atom_site_label
 _atom_site_symmetry_multiplicity
 _atom_site_fract_x
 _atom_site_fract_y
 _atom_site_fract_z
 _atom_site_occupancy
  Tl  Tl0  1  0.66666700  0.33333300  0.94534700  1
  Tl  Tl1  1  0.66666700  0.33333300  0.55465300  1
  Tl  Tl2  1  0.33333300  0.66666700  0.44534700  1
  Tl  Tl3  1  0.33333300  0.66666700  0.05465300  1
  Sb  Sb0  1  0.33333300  0.66666700  0.25000000  1
  Sb  Sb1  1  0.00000000  0.00000000  0.25000000  1
  Sb  Sb2  1  0.66666700  0.33333300  0.75000000  1
  Sb  Sb3  1  0.00000000  0.00000000  0.75000000  1
  O  O0  1  0.33611300  0.06414800  0.82231400  1
  O  O1  1  0.93585200  0.27196500  0.82231400  1
  O  O2  1  0.93585200  0.66388700  0.67768600  1
  O  O3  1  0.66388700  0.72803500  0.17768600  1
  O  O4  1  0.06414800  0.33611300  0.17768600  1
  O  O5  1  0.06414800  0.72803500  0.32231400  1
  O  O6  1  0.33611300  0.27196500  0.67768600  1
  O  O7  1  0.72803500  0.06414800  0.67768600  1
  O  O8  1  0.72803500  0.66388700  0.82231400  1
  O  O9  1  0.27196500  0.93585200  0.17768600  1
  O  O10  1  0.27196500  0.33611300  0.32231400  1
  O  O11  1  0.66388700  0.93585200  0.32231400  1
loop_
_geom_bond_atom_site_label_1
_geom_bond_atom_site_label_2
_geom_bond_distance
_geom_bond_site_symmetry_2
O0 Sb2 2.021717 1_555
O0 Sb3 2.041687 1_555
O0 Tl0 2.588748 1_555
O1 Sb2 2.021714 1_555
O1 Sb3 2.041687 1_655
O1 Tl0 2.588746 1_555
O2 Sb2 2.021717 1_555
O2 Sb3 2.041687 1_665
O2 Tl1 2.588748 1_555
O3 Sb0 2.021719 1_555
O3 Sb1 2.041687 1_665
O3 Tl3 2.588749 1_555
O4 Sb0 2.021717 1_555
O4 Sb1 2.041687 1_555
O4 Tl3 2.588748 1_555
O5 Sb0 2.021714 1_555
O5 Sb1 2.041687 1_565
O5 Tl2 2.588746 1_555
O6 Sb2 2.021719 1_555
O6 Sb3 2.041687 1_555
O6 Tl1 2.588749 1_555
O7 Sb2 2.021714 1_555
O7 Sb3 2.041687 1_655
O7 Tl1 2.588746 1_555
O8 Sb2 2.021719 1_555
O8 Sb3 2.041687 1_665
O8 Tl0 2.588749 1_555
O9 Sb0 2.021714 1_555
O9 Sb1 2.041687 1_565
O9 Tl3 2.588746 1_555
O10 Sb0 2.021719 1_555
O10 Sb1 2.041687 1_555
O10 Tl2 2.588749 1_555
O11 Sb0 2.021717 1_555
O11 Sb1 2.041687 1_665
O11 Tl2 2.588748 1_555
