# generated using pymatgen
data_SiO2
_symmetry_space_group_name_H-M   'P 1'
_cell_length_a   12.37278800
_cell_length_b   12.37278800
_cell_length_c   4.37480800
_cell_angle_alpha   90.00000000
_cell_angle_beta   90.00000000
_cell_angle_gamma   90.00000000
_symmetry_Int_Tables_number   1
_chemical_formula_structural   SiO2
_chemical_formula_sum   'Si16 O32'
_cell_volume   669.72134517
_cell_formula_units_Z   16
loop_
 _symmetry_equiv_pos_site_id
 _symmetry_equiv_pos_as_xyz
  1  'x, y, z'
loop_
 _atom_site_type_symbol
 _atom_site_label
 _atom_site_symmetry_multiplicity
 _atom_site_fract_x
 _atom_site_fract_y
 _atom_site_fract_z
 _atom_site_occupancy
  Si  Si0  1  0.27192400  0.60512800  0.73970900  1
  Si  Si1  1  0.10512800  0.22807600  0.26029100  1
  Si  Si2  1  0.27192400  0.39487200  0.26029100  1
  Si  Si3  1  0.89487200  0.77192400  0.26029100  1
  Si  Si4  1  0.22807600  0.89487200  0.26029100  1
  Si  Si5  1  0.22807600  0.10512800  0.73970900  1
  Si  Si6  1  0.39487200  0.72807600  0.26029100  1
  Si  Si7  1  0.60512800  0.72807600  0.73970900  1
  Si  Si8  1  0.72807600  0.39487200  0.73970900  1
  Si  Si9  1  0.89487200  0.22807600  0.73970900  1
  Si  Si10  1  0.77192400  0.89487200  0.73970900  1
  Si  Si11  1  0.60512800  0.27192400  0.26029100  1
  Si  Si12  1  0.72807600  0.60512800  0.26029100  1
  Si  Si13  1  0.77192400  0.10512800  0.26029100  1
  Si  Si14  1  0.10512800  0.77192400  0.73970900  1
  Si  Si15  1  0.39487200  0.27192400  0.73970900  1
  O  O0  1  0.84672500  0.65327500  0.13280100  1
  O  O1  1  0.62599300  0.62599300  0.00000000  1
  O  O2  1  0.31239400  0.31239400  0.50000000  1
  O  O3  1  0.81239400  0.81239400  0.50000000  1
  O  O4  1  0.50000000  0.74757400  0.50000000  1
  O  O5  1  0.00000000  0.75242600  0.50000000  1
  O  O6  1  0.37400700  0.37400700  0.00000000  1
  O  O7  1  0.25242600  0.50000000  0.50000000  1
  O  O8  1  0.68760600  0.68760600  0.50000000  1
  O  O9  1  0.75242600  0.00000000  0.50000000  1
  O  O10  1  0.87400700  0.12599300  0.00000000  1
  O  O11  1  0.18760600  0.81239400  0.50000000  1
  O  O12  1  0.68760600  0.31239400  0.50000000  1
  O  O13  1  0.50000000  0.25242600  0.50000000  1
  O  O14  1  0.74757400  0.50000000  0.50000000  1
  O  O15  1  0.12599300  0.12599300  0.00000000  1
  O  O16  1  0.31239400  0.68760600  0.50000000  1
  O  O17  1  0.34672500  0.84672500  0.13280100  1
  O  O18  1  0.65327500  0.15327500  0.13280100  1
  O  O19  1  0.24757400  0.00000000  0.50000000  1
  O  O20  1  0.87400700  0.87400700  0.00000000  1
  O  O21  1  0.00000000  0.24757400  0.50000000  1
  O  O22  1  0.62599300  0.37400700  0.00000000  1
  O  O23  1  0.65327500  0.84672500  0.86719900  1
  O  O24  1  0.81239400  0.18760600  0.50000000  1
  O  O25  1  0.15327500  0.34672500  0.13280100  1
  O  O26  1  0.84672500  0.34672500  0.86719900  1
  O  O27  1  0.15327500  0.65327500  0.86719900  1
  O  O28  1  0.12599300  0.87400700  0.00000000  1
  O  O29  1  0.18760600  0.18760600  0.50000000  1
  O  O30  1  0.37400700  0.62599300  0.00000000  1
  O  O31  1  0.34672500  0.15327500  0.86719900  1
loop_
_geom_bond_atom_site_label_1
_geom_bond_atom_site_label_2
_geom_bond_distance
_geom_bond_site_symmetry_2
O0 Si3 1.679593 1_555
O0 Si12 1.679593 1_555
O1 Si12 1.720068 1_555
O1 Si7 1.720068 1_554
O2 Si15 1.546559 1_555
O2 Si2 1.546559 1_555
O3 Si10 1.546559 1_555
O3 Si3 1.546559 1_555
O4 Si6 1.688141 1_555
O4 Si7 1.688141 1_555
O5 Si3 1.688141 1_455
O5 Si14 1.688141 1_555
O6 Si2 1.720068 1_555
O6 Si15 1.720068 1_554
O7 Si2 1.688141 1_555
O7 Si0 1.688141 1_555
O8 Si7 1.546559 1_555
O8 Si12 1.546559 1_555
O9 Si10 1.688141 1_545
O9 Si13 1.688141 1_555
O10 Si13 1.720068 1_555
O10 Si9 1.720068 1_554
O11 Si14 1.546559 1_555
O11 Si4 1.546559 1_555
O12 Si8 1.546559 1_555
O12 Si11 1.546559 1_555
O13 Si15 1.688141 1_555
O13 Si11 1.688141 1_555
O14 Si8 1.688141 1_555
O14 Si12 1.688141 1_555
O15 Si5 1.720068 1_554
O15 Si1 1.720068 1_555
O16 Si6 1.546559 1_555
O16 Si0 1.546559 1_555
O17 Si6 1.679593 1_555
O17 Si4 1.679593 1_555
O18 Si13 1.679593 1_555
O18 Si11 1.679593 1_555
O19 Si5 1.688141 1_555
O19 Si4 1.688141 1_545
O20 Si3 1.720068 1_555
O20 Si10 1.720068 1_554
O21 Si9 1.688141 1_455
O21 Si1 1.688141 1_555
O22 Si8 1.720068 1_554
O22 Si11 1.720068 1_555
O23 Si7 1.679593 1_555
O23 Si10 1.679593 1_555
O24 Si13 1.546559 1_555
O24 Si9 1.546559 1_555
O25 Si1 1.679593 1_555
O25 Si2 1.679593 1_555
O26 Si9 1.679593 1_555
O26 Si8 1.679593 1_555
O27 Si14 1.679593 1_555
O27 Si0 1.679593 1_555
O28 Si14 1.720068 1_554
O28 Si4 1.720068 1_555
O29 Si5 1.546559 1_555
O29 Si1 1.546559 1_555
O30 Si6 1.720068 1_555
O30 Si0 1.720068 1_554
O31 Si5 1.679593 1_555
O31 Si15 1.679593 1_555
