# generated using pymatgen
data_Pr3S3N
_symmetry_space_group_name_H-M   'P 1'
_cell_length_a   4.07289006
_cell_length_b   12.31056847
_cell_length_c   13.23033682
_cell_angle_alpha   90.00000000
_cell_angle_beta   90.00000000
_cell_angle_gamma   90.00000000
_symmetry_Int_Tables_number   1
_chemical_formula_structural   Pr3S3N
_chemical_formula_sum   'Pr12 S12 N4'
_cell_volume   663.36368957
_cell_formula_units_Z   4
loop_
 _symmetry_equiv_pos_site_id
 _symmetry_equiv_pos_as_xyz
  1  'x, y, z'
loop_
 _atom_site_type_symbol
 _atom_site_label
 _atom_site_symmetry_multiplicity
 _atom_site_fract_x
 _atom_site_fract_y
 _atom_site_fract_z
 _atom_site_occupancy
  Pr  Pr0  1  0.25000000  0.08413910  0.37256044  1
  Pr  Pr1  1  0.25000000  0.04044484  0.85072788  1
  Pr  Pr2  1  0.75000000  0.95955516  0.14927212  1
  Pr  Pr3  1  0.25000000  0.72263353  0.36681499  1
  Pr  Pr4  1  0.25000000  0.58413910  0.12743956  1
  Pr  Pr5  1  0.75000000  0.77736647  0.86681499  1
  Pr  Pr6  1  0.25000000  0.54044484  0.64927212  1
  Pr  Pr7  1  0.75000000  0.45955516  0.35072788  1
  Pr  Pr8  1  0.75000000  0.41586090  0.87256044  1
  Pr  Pr9  1  0.25000000  0.22263353  0.13318501  1
  Pr  Pr10  1  0.75000000  0.27736647  0.63318501  1
  Pr  Pr11  1  0.75000000  0.91586090  0.62743956  1
  S  S0  1  0.25000000  0.86028591  0.99662377  1
  S  S1  1  0.75000000  0.63971409  0.49662377  1
  S  S2  1  0.25000000  0.36028591  0.50337623  1
  S  S3  1  0.75000000  0.73063980  0.19827080  1
  S  S4  1  0.75000000  0.41928155  0.10704973  1
  S  S5  1  0.75000000  0.13971409  0.00337623  1
  S  S6  1  0.75000000  0.91928155  0.39295027  1
  S  S7  1  0.25000000  0.26936020  0.80172920  1
  S  S8  1  0.75000000  0.23063980  0.30172920  1
  S  S9  1  0.25000000  0.76936020  0.69827080  1
  S  S10  1  0.25000000  0.58071845  0.89295027  1
  S  S11  1  0.25000000  0.08071845  0.60704973  1
  N  N0  1  0.25000000  0.04693379  0.20190535  1
  N  N1  1  0.25000000  0.54693379  0.29809465  1
  N  N2  1  0.75000000  0.95306621  0.79809465  1
  N  N3  1  0.75000000  0.45306621  0.70190535  1
loop_
_geom_bond_atom_site_label_1
_geom_bond_atom_site_label_2
_geom_bond_distance
_geom_bond_site_symmetry_2
Pr0 S8 2.877141 1_555
Pr0 S8 2.877141 1_455
Pr0 S6 2.887683 1_445
Pr0 S6 2.887683 1_545
Pr0 S11 3.102658 1_555
Pr1 S7 2.891681 1_555
Pr1 S0 2.940199 1_545
Pr1 S5 3.117576 1_456
Pr1 S5 3.117576 1_556
Pr1 S11 3.261844 1_555
Pr2 S3 2.891681 1_555
Pr2 S5 2.940199 1_565
Pr2 S0 3.117576 1_554
Pr2 S0 3.117576 1_654
Pr2 S6 3.261844 1_555
Pr3 S1 2.852827 1_555
Pr3 S1 2.852827 1_455
Pr3 S3 3.021467 1_555
Pr3 S3 3.021467 1_455
Pr3 S6 3.182323 1_455
Pr3 S6 3.182323 1_555
Pr4 S3 2.877141 1_455
Pr4 S3 2.877141 1_555
Pr4 S4 2.887683 1_455
Pr4 S4 2.887683 1_555
Pr4 S10 3.102658 1_554
Pr5 S0 2.852827 1_555
Pr5 S0 2.852827 1_655
Pr5 S9 3.021467 1_555
Pr5 S9 3.021467 1_655
Pr5 S10 3.182323 1_555
Pr5 S10 3.182323 1_655
Pr6 S9 2.891681 1_555
Pr6 S2 2.940199 1_555
Pr6 S1 3.117576 1_455
Pr6 S1 3.117576 1_555
Pr6 S10 3.261844 1_555
Pr7 S8 2.891681 1_555
Pr7 S1 2.940199 1_555
Pr7 S2 3.117576 1_555
Pr7 S2 3.117576 1_655
Pr7 S4 3.261844 1_555
Pr8 S7 2.877141 1_555
Pr8 S7 2.877141 1_655
Pr8 S10 2.887683 1_655
Pr8 S10 2.887683 1_555
Pr8 S4 3.102658 1_556
Pr9 S5 2.852827 1_455
Pr9 S5 2.852827 1_555
Pr9 S8 3.021467 1_555
Pr9 S8 3.021467 1_455
Pr9 S4 3.182323 1_455
Pr9 S4 3.182323 1_555
Pr10 S2 2.852827 1_555
Pr10 S2 2.852827 1_655
Pr10 S7 3.021467 1_655
Pr10 S7 3.021467 1_555
Pr10 S11 3.182323 1_555
Pr10 S11 3.182323 1_655
Pr11 S9 2.877141 1_555
Pr11 S9 2.877141 1_655
Pr11 S11 2.887683 1_565
Pr11 S11 2.887683 1_665
Pr11 S6 3.102658 1_555
N0 Pr0 2.303812 1_555
N0 Pr9 2.346283 1_555
N0 Pr2 2.406057 1_445
N0 Pr2 2.406057 1_545
N1 Pr4 2.303812 1_555
N1 Pr3 2.346283 1_555
N1 Pr7 2.406057 1_455
N1 Pr7 2.406057 1_555
N2 Pr11 2.303812 1_555
N2 Pr5 2.346283 1_555
N2 Pr1 2.406057 1_565
N2 Pr1 2.406057 1_665
N3 Pr8 2.303812 1_555
N3 Pr10 2.346283 1_555
N3 Pr6 2.406057 1_655
N3 Pr6 2.406057 1_555
