# generated using pymatgen
data_Fe5O8
_symmetry_space_group_name_H-M   'P 1'
_cell_length_a   8.41966600
_cell_length_b   8.41966600
_cell_length_c   8.41966600
_cell_angle_alpha   90.00000000
_cell_angle_beta   90.00000000
_cell_angle_gamma   90.00000000
_symmetry_Int_Tables_number   1
_chemical_formula_structural   Fe5O8
_chemical_formula_sum   'Fe20 O32'
_cell_volume   596.87665263
_cell_formula_units_Z   4
loop_
 _symmetry_equiv_pos_site_id
 _symmetry_equiv_pos_as_xyz
  1  'x, y, z'
loop_
 _atom_site_type_symbol
 _atom_site_label
 _atom_site_symmetry_multiplicity
 _atom_site_fract_x
 _atom_site_fract_y
 _atom_site_fract_z
 _atom_site_occupancy
  Fe  Fe0  1  0.99692000  0.99692000  0.99692000  1
  Fe  Fe1  1  0.00308000  0.49692000  0.50308000  1
  Fe  Fe2  1  0.13523300  0.11476700  0.62500000  1
  Fe  Fe3  1  0.11476700  0.62500000  0.13523300  1
  Fe  Fe4  1  0.12500000  0.36476700  0.88523300  1
  Fe  Fe5  1  0.25308000  0.25308000  0.25308000  1
  Fe  Fe6  1  0.24692000  0.74692000  0.75308000  1
  Fe  Fe7  1  0.38523300  0.37500000  0.63523300  1
  Fe  Fe8  1  0.37500000  0.63523300  0.38523300  1
  Fe  Fe9  1  0.36476700  0.88523300  0.12500000  1
  Fe  Fe10  1  0.50308000  0.00308000  0.49692000  1
  Fe  Fe11  1  0.49692000  0.50308000  0.00308000  1
  Fe  Fe12  1  0.62500000  0.13523300  0.11476700  1
  Fe  Fe13  1  0.63523300  0.38523300  0.37500000  1
  Fe  Fe14  1  0.61476700  0.87500000  0.86476700  1
  Fe  Fe15  1  0.75308000  0.24692000  0.74692000  1
  Fe  Fe16  1  0.74692000  0.75308000  0.24692000  1
  Fe  Fe17  1  0.88523300  0.12500000  0.36476700  1
  Fe  Fe18  1  0.86476700  0.61476700  0.87500000  1
  Fe  Fe19  1  0.87500000  0.86476700  0.61476700  1
  O  O0  1  0.14399800  0.38246800  0.11813200  1
  O  O1  1  0.14225400  0.35774600  0.64225400  1
  O  O2  1  0.13186800  0.86753200  0.10600200  1
  O  O3  1  0.11813200  0.14399800  0.38246800  1
  O  O4  1  0.11753200  0.88186800  0.64399800  1
  O  O5  1  0.10600200  0.13186800  0.86753200  1
  O  O6  1  0.13246800  0.60600200  0.36813200  1
  O  O7  1  0.10774600  0.60774600  0.89225400  1
  O  O8  1  0.38246800  0.11813200  0.14399800  1
  O  O9  1  0.39225400  0.39225400  0.39225400  1
  O  O10  1  0.36813200  0.13246800  0.60600200  1
  O  O11  1  0.36753200  0.39399800  0.86813200  1
  O  O12  1  0.35774600  0.64225400  0.14225400  1
  O  O13  1  0.39399800  0.86813200  0.36753200  1
  O  O14  1  0.35600200  0.61753200  0.61813200  1
  O  O15  1  0.38186800  0.85600200  0.88246800  1
  O  O16  1  0.64225400  0.14225400  0.35774600  1
  O  O17  1  0.60600200  0.36813200  0.13246800  1
  O  O18  1  0.61813200  0.35600200  0.61753200  1
  O  O19  1  0.61753200  0.61813200  0.35600200  1
  O  O20  1  0.64399800  0.11753200  0.88186800  1
  O  O21  1  0.63186800  0.63246800  0.89399800  1
  O  O22  1  0.60774600  0.89225400  0.10774600  1
  O  O23  1  0.63246800  0.89399800  0.63186800  1
  O  O24  1  0.86753200  0.10600200  0.13186800  1
  O  O25  1  0.89225400  0.10774600  0.60774600  1
  O  O26  1  0.86813200  0.36753200  0.39399800  1
  O  O27  1  0.88186800  0.64399800  0.11753200  1
  O  O28  1  0.89399800  0.63186800  0.63246800  1
  O  O29  1  0.88246800  0.38186800  0.85600200  1
  O  O30  1  0.85600200  0.88246800  0.38186800  1
  O  O31  1  0.85774600  0.85774600  0.85774600  1
loop_
_geom_bond_atom_site_label_1
_geom_bond_atom_site_label_2
_geom_bond_distance
_geom_bond_site_symmetry_2
Fe0 O24 1.822446 1_566
Fe0 O5 1.822446 1_665
Fe0 O2 1.822446 1_656
Fe0 O31 2.029615 1_555
Fe1 O28 1.822446 1_455
Fe1 O6 1.822446 1_555
Fe1 O26 1.822446 1_455
Fe1 O1 2.029615 1_555
Fe2 O10 1.973082 1_555
Fe2 O4 1.973082 1_545
Fe2 O1 2.051805 1_555
Fe2 O25 2.051805 1_455
Fe2 O5 2.061850 1_555
Fe2 O3 2.061850 1_555
Fe3 O6 1.973082 1_555
Fe3 O27 1.973082 1_455
Fe3 O12 2.051805 1_555
Fe3 O7 2.051805 1_554
Fe3 O2 2.061850 1_555
Fe3 O0 2.061850 1_555
Fe4 O0 1.973082 1_556
Fe4 O5 1.973082 1_555
Fe4 O1 2.051805 1_555
Fe4 O7 2.051805 1_555
Fe4 O11 2.061850 1_555
Fe4 O29 2.061850 1_455
Fe5 O0 1.822446 1_555
Fe5 O8 1.822446 1_555
Fe5 O3 1.822446 1_555
Fe5 O9 2.029615 1_555
Fe6 O15 1.822446 1_555
Fe6 O14 1.822446 1_555
Fe6 O4 1.822446 1_555
Fe6 O7 2.029615 1_555
Fe7 O18 1.973082 1_555
Fe7 O11 1.973082 1_555
Fe7 O9 2.051805 1_555
Fe7 O1 2.051805 1_555
Fe7 O14 2.061850 1_555
Fe7 O10 2.061850 1_555
Fe8 O14 1.973082 1_555
Fe8 O13 1.973082 1_555
Fe8 O9 2.051805 1_555
Fe8 O12 2.051805 1_555
Fe8 O19 2.061850 1_555
Fe8 O6 2.061850 1_555
Fe9 O8 1.973082 1_565
Fe9 O2 1.973082 1_555
Fe9 O12 2.051805 1_555
Fe9 O22 2.051805 1_555
Fe9 O13 2.061850 1_555
Fe9 O15 2.061850 1_554
Fe10 O23 1.822446 1_545
Fe10 O10 1.822446 1_555
Fe10 O13 1.822446 1_545
Fe10 O16 2.029615 1_555
Fe11 O21 1.822446 1_554
Fe11 O17 1.822446 1_555
Fe11 O11 1.822446 1_554
Fe11 O12 2.029615 1_555
Fe12 O17 1.973082 1_555
Fe12 O20 1.973082 1_554
Fe12 O22 2.051805 1_545
Fe12 O16 2.051805 1_555
Fe12 O24 2.061850 1_555
Fe12 O8 2.061850 1_555
Fe13 O19 1.973082 1_555
Fe13 O26 1.973082 1_555
Fe13 O9 2.051805 1_555
Fe13 O16 2.051805 1_555
Fe13 O18 2.061850 1_555
Fe13 O17 2.061850 1_555
Fe14 O23 1.973082 1_555
Fe14 O15 1.973082 1_555
Fe14 O22 2.051805 1_556
Fe14 O31 2.051805 1_555
Fe14 O20 2.061850 1_565
Fe14 O21 2.061850 1_555
Fe15 O29 1.822446 1_555
Fe15 O18 1.822446 1_555
Fe15 O20 1.822446 1_555
Fe15 O25 2.029615 1_555
Fe16 O30 1.822446 1_555
Fe16 O19 1.822446 1_555
Fe16 O27 1.822446 1_555
Fe16 O22 2.029615 1_555
Fe17 O3 1.973082 1_655
Fe17 O24 1.973082 1_555
Fe17 O16 2.051805 1_555
Fe17 O25 2.051805 1_555
Fe17 O26 2.061850 1_555
Fe17 O30 2.061850 1_545
Fe18 O21 1.973082 1_555
Fe18 O29 1.973082 1_555
Fe18 O7 2.051805 1_655
Fe18 O31 2.051805 1_555
Fe18 O27 2.061850 1_556
Fe18 O28 2.061850 1_555
Fe19 O28 1.973082 1_555
Fe19 O30 1.973082 1_555
Fe19 O25 2.051805 1_565
Fe19 O31 2.051805 1_555
Fe19 O4 2.061850 1_655
Fe19 O23 2.061850 1_555
