# generated using pymatgen
data_K3CrC3N3O4
_symmetry_space_group_name_H-M   'P 1'
_cell_length_a   7.74714000
_cell_length_b   11.74736500
_cell_length_c   12.29000769
_cell_angle_alpha   69.09239333
_cell_angle_beta   90.00000000
_cell_angle_gamma   90.00000000
_symmetry_Int_Tables_number   1
_chemical_formula_structural   K3CrC3N3O4
_chemical_formula_sum   'K12 Cr4 C12 N12 O16'
_cell_volume   1044.84998993
_cell_formula_units_Z   4
loop_
 _symmetry_equiv_pos_site_id
 _symmetry_equiv_pos_as_xyz
  1  'x, y, z'
loop_
 _atom_site_type_symbol
 _atom_site_label
 _atom_site_symmetry_multiplicity
 _atom_site_fract_x
 _atom_site_fract_y
 _atom_site_fract_z
 _atom_site_occupancy
  K  K0  1  0.85386800  0.38145200  0.67696400  1
  K  K1  1  0.64914800  0.66848600  0.87180300  1
  K  K2  1  0.64914800  0.83151400  0.12819700  1
  K  K3  1  0.39571400  0.25000000  0.50000000  1
  K  K4  1  0.14613200  0.88145200  0.67696400  1
  K  K5  1  0.60428600  0.75000000  0.50000000  1
  K  K6  1  0.14613200  0.61854800  0.32303600  1
  K  K7  1  0.35085200  0.16848600  0.87180300  1
  K  K8  1  0.13093800  0.75000000  0.00000000  1
  K  K9  1  0.35085200  0.33151400  0.12819700  1
  K  K10  1  0.86906200  0.25000000  0.00000000  1
  K  K11  1  0.85386800  0.11854800  0.32303600  1
  Cr  Cr0  1  0.76541000  0.47152500  0.22080900  1
  Cr  Cr1  1  0.23459000  0.52847500  0.77919100  1
  Cr  Cr2  1  0.23459000  0.97152500  0.22080900  1
  Cr  Cr3  1  0.76541000  0.02847500  0.77919100  1
  C  C0  1  0.00469500  0.38604300  0.28580700  1
  C  C1  1  0.47584600  0.05456900  0.16387500  1
  C  C2  1  0.52415400  0.94543100  0.83612500  1
  C  C3  1  0.99530500  0.88604300  0.28580700  1
  C  C4  1  0.73336800  0.50321500  0.37457000  1
  C  C5  1  0.00469500  0.11395700  0.71419300  1
  C  C6  1  0.47584600  0.44543100  0.83612500  1
  C  C7  1  0.52415400  0.55456900  0.16387500  1
  C  C8  1  0.26663200  0.00321500  0.37457000  1
  C  C9  1  0.99530500  0.61395700  0.71419300  1
  C  C10  1  0.73336800  0.99678500  0.62543000  1
  C  C11  1  0.26663200  0.49678500  0.62543000  1
  N  N0  1  0.28002500  0.02591500  0.45985400  1
  N  N1  1  0.13729300  0.16116700  0.67839400  1
  N  N2  1  0.38806600  0.90359300  0.87000700  1
  N  N3  1  0.86270700  0.66116700  0.67839400  1
  N  N4  1  0.86270700  0.83883300  0.32160600  1
  N  N5  1  0.61193400  0.09640700  0.12999300  1
  N  N6  1  0.38806600  0.59640700  0.12999300  1
  N  N7  1  0.28002500  0.47408500  0.54014600  1
  N  N8  1  0.13729300  0.33883300  0.32160600  1
  N  N9  1  0.71997500  0.52591500  0.45985400  1
  N  N10  1  0.61193400  0.40359300  0.87000700  1
  N  N11  1  0.71997500  0.97408500  0.54014600  1
  O  O0  1  0.35370000  0.81582100  0.29053600  1
  O  O1  1  0.87410300  0.63161000  0.16028300  1
  O  O2  1  0.35370000  0.68417900  0.70946400  1
  O  O3  1  0.13230900  0.07137200  0.07538400  1
  O  O4  1  0.29686100  0.83881000  0.17163500  1
  O  O5  1  0.86769100  0.92862800  0.92461600  1
  O  O6  1  0.12589700  0.13161000  0.16028300  1
  O  O7  1  0.29686100  0.66119000  0.82836500  1
  O  O8  1  0.87410300  0.86839000  0.83971700  1
  O  O9  1  0.64630000  0.18417900  0.70946400  1
  O  O10  1  0.86769100  0.57137200  0.07538400  1
  O  O11  1  0.12589700  0.36839000  0.83971700  1
  O  O12  1  0.13230900  0.42862800  0.92461600  1
  O  O13  1  0.64630000  0.31582100  0.29053600  1
  O  O14  1  0.70313900  0.33881000  0.17163500  1
  O  O15  1  0.70313900  0.16119000  0.82836500  1
loop_
_geom_bond_atom_site_label_1
_geom_bond_atom_site_label_2
_geom_bond_distance
_geom_bond_site_symmetry_2
K0 O9 2.730432 1_555
K0 N9 2.800679 1_555
K0 O15 2.843359 1_555
K0 O11 2.871717 1_655
K0 N10 3.106416 1_555
K0 N3 3.292939 1_555
K0 N1 3.389047 1_655
K1 O7 2.788122 1_555
K1 O8 2.836635 1_555
K1 O10 2.896698 1_556
K1 N3 2.922440 1_555
K1 O2 2.998507 1_555
K2 O4 2.788122 1_555
K2 O1 2.836635 1_555
K2 O5 2.896698 1_554
K2 N4 2.922440 1_555
K2 O0 2.998507 1_555
K3 N8 2.875940 1_555
K3 N1 2.875940 1_555
K3 N0 2.983838 1_555
K3 N7 2.983838 1_555
K3 O9 3.094031 1_555
K3 O13 3.094031 1_555
K4 O2 2.730432 1_555
K4 N0 2.800679 1_565
K4 O7 2.843359 1_555
K4 O8 2.871717 1_455
K4 N2 3.106416 1_555
K4 N1 3.292939 1_565
K4 N3 3.389047 1_455
K5 N4 2.875940 1_555
K5 N3 2.875940 1_555
K5 N11 2.983838 1_555
K5 N9 2.983838 1_555
K5 O2 3.094031 1_555
K5 O0 3.094031 1_555
K6 O0 2.730432 1_555
K6 N7 2.800679 1_555
K6 O4 2.843359 1_555
K6 O1 2.871717 1_455
K6 N6 3.106416 1_555
K6 N8 3.292939 1_555
K6 N4 3.389047 1_455
K7 O15 2.788122 1_555
K7 O11 2.836635 1_555
K7 O3 2.896698 1_556
K7 N1 2.922440 1_555
K7 O9 2.998507 1_555
K8 N6 2.778242 1_555
K8 N2 2.778242 1_554
K8 O8 2.796134 1_454
K8 O1 2.796134 1_455
K8 O5 2.834308 1_454
K8 O10 2.834308 1_455
K8 O4 2.959900 1_555
K8 O7 2.959900 1_554
K9 O14 2.788122 1_555
K9 O6 2.836635 1_555
K9 O12 2.896698 1_554
K9 N8 2.922440 1_555
K9 O13 2.998507 1_555
K10 N5 2.778242 1_555
K10 N10 2.778242 1_554
K10 O11 2.796134 1_654
K10 O6 2.796134 1_655
K10 O3 2.834308 1_655
K10 O12 2.834308 1_654
K10 O15 2.959900 1_554
K10 O14 2.959900 1_555
K11 O13 2.730432 1_555
K11 N11 2.800679 1_545
K11 O14 2.843359 1_555
K11 O6 2.871717 1_655
K11 N5 3.106416 1_555
K11 N4 3.292939 1_545
K11 N8 3.389047 1_655
Cr0 O14 1.923821 1_555
Cr0 O10 1.924002 1_555
Cr0 O1 1.949498 1_555
Cr0 O13 1.952631 1_555
Cr1 O7 1.923821 1_555
Cr1 O12 1.924002 1_555
Cr1 O11 1.949498 1_555
Cr1 O2 1.952631 1_555
Cr2 O4 1.923821 1_555
Cr2 O3 1.924002 1_565
Cr2 O6 1.949498 1_565
Cr2 O0 1.952631 1_555
Cr3 O15 1.923821 1_555
Cr3 O5 1.924002 1_545
Cr3 O8 1.949498 1_545
Cr3 O9 1.952631 1_555
C0 N8 1.175691 1_555
C0 Cr0 2.123786 1_455
C0 K6 3.124425 1_555
C0 K11 3.228460 1_455
C1 N5 1.174912 1_555
C1 Cr2 2.108893 1_545
C2 N2 1.174912 1_555
C2 Cr3 2.108893 1_565
C3 N4 1.175691 1_555
C3 Cr2 2.123786 1_655
C3 K11 3.124425 1_565
C3 K6 3.228460 1_655
C4 N9 1.174718 1_555
C4 Cr0 2.067212 1_555
C4 K6 3.442365 1_655
C5 N1 1.175691 1_555
C5 Cr3 2.123786 1_455
C5 K4 3.124425 1_545
C5 K0 3.228460 1_455
C6 N10 1.174912 1_555
C6 Cr1 2.108893 1_555
C7 N6 1.174912 1_555
C7 Cr0 2.108893 1_555
C8 N0 1.174718 1_555
C8 Cr2 2.067212 1_545
C8 K11 3.442365 1_455
C9 N3 1.175691 1_555
C9 Cr1 2.123786 1_655
C9 K0 3.124425 1_555
C9 K4 3.228460 1_655
C10 N11 1.174718 1_555
C10 Cr3 2.067212 1_565
C10 K4 3.442365 1_655
C11 N7 1.174718 1_555
C11 Cr1 2.067212 1_555
C11 K0 3.442365 1_455
O0 O4 1.456211 1_555
O1 O10 1.455646 1_555
O2 O7 1.456211 1_555
O3 O6 1.455646 1_555
O5 O8 1.455646 1_555
O11 O12 1.455646 1_555
O13 O14 1.456211 1_555
O15 O9 1.456211 1_555
