# generated using pymatgen
data_ZrI3
_symmetry_space_group_name_H-M   'P 1'
_cell_length_a   6.68026760
_cell_length_b   7.60045633
_cell_length_c   13.19350180
_cell_angle_alpha   90.00000000
_cell_angle_beta   90.00000000
_cell_angle_gamma   90.00000000
_symmetry_Int_Tables_number   1
_chemical_formula_structural   ZrI3
_chemical_formula_sum   'Zr4 I12'
_cell_volume   669.87475096
_cell_formula_units_Z   4
loop_
 _symmetry_equiv_pos_site_id
 _symmetry_equiv_pos_as_xyz
  1  'x, y, z'
loop_
 _atom_site_type_symbol
 _atom_site_label
 _atom_site_symmetry_multiplicity
 _atom_site_fract_x
 _atom_site_fract_y
 _atom_site_fract_z
 _atom_site_occupancy
  Zr  Zr0  1  0.48221056  0.24685232  0.75000000  1
  Zr  Zr1  1  0.01778944  0.24685232  0.75000000  1
  Zr  Zr2  1  0.51778944  0.75314768  0.25000000  1
  Zr  Zr3  1  0.98221056  0.75314768  0.25000000  1
  I  I0  1  0.25000000  0.40759766  0.90955569  1
  I  I1  1  0.25000000  0.92658582  0.75000000  1
  I  I2  1  0.25000000  0.90807460  0.09501864  1
  I  I3  1  0.25000000  0.90807460  0.40498136  1
  I  I4  1  0.75000000  0.09192540  0.59501864  1
  I  I5  1  0.75000000  0.59240234  0.40955569  1
  I  I6  1  0.75000000  0.55758678  0.75000000  1
  I  I7  1  0.75000000  0.09192540  0.90498136  1
  I  I8  1  0.75000000  0.59240234  0.09044431  1
  I  I9  1  0.75000000  0.07341418  0.25000000  1
  I  I10  1  0.25000000  0.44241322  0.25000000  1
  I  I11  1  0.25000000  0.40759766  0.59044431  1
loop_
_geom_bond_atom_site_label_1
_geom_bond_atom_site_label_2
_geom_bond_distance
_geom_bond_site_symmetry_2
I0 Zr0 2.886242 1_555
I0 Zr1 2.886242 1_555
I1 Zr1 2.886434 1_565
I1 Zr0 2.886434 1_565
I2 Zr3 2.961033 1_455
I2 Zr2 2.961033 1_555
I3 Zr3 2.961033 1_455
I3 Zr2 2.961033 1_555
I4 Zr1 2.961033 1_655
I4 Zr0 2.961033 1_555
I5 Zr2 2.886242 1_555
I5 Zr3 2.886242 1_555
I6 Zr1 2.962756 1_655
I6 Zr0 2.962756 1_555
I7 Zr1 2.961033 1_655
I7 Zr0 2.961033 1_555
I8 Zr2 2.886242 1_555
I8 Zr3 2.886242 1_555
I9 Zr2 2.886434 1_545
I9 Zr3 2.886434 1_545
I10 Zr3 2.962756 1_455
I10 Zr2 2.962756 1_555
I11 Zr0 2.886242 1_555
I11 Zr1 2.886242 1_555
