# generated using pymatgen
data_CaLu2O4
_symmetry_space_group_name_H-M   'P 1'
_cell_length_a   3.29406400
_cell_length_b   9.78229900
_cell_length_c   11.57723500
_cell_angle_alpha   90.00000000
_cell_angle_beta   90.00000000
_cell_angle_gamma   90.00000000
_symmetry_Int_Tables_number   1
_chemical_formula_structural   CaLu2O4
_chemical_formula_sum   'Ca4 Lu8 O16'
_cell_volume   373.05925168
_cell_formula_units_Z   4
loop_
 _symmetry_equiv_pos_site_id
 _symmetry_equiv_pos_as_xyz
  1  'x, y, z'
loop_
 _atom_site_type_symbol
 _atom_site_label
 _atom_site_symmetry_multiplicity
 _atom_site_fract_x
 _atom_site_fract_y
 _atom_site_fract_z
 _atom_site_occupancy
  Ca  Ca0  1  0.75000000  0.25405500  0.85127800  1
  Ca  Ca1  1  0.25000000  0.74594500  0.14872200  1
  Ca  Ca2  1  0.75000000  0.75405500  0.64872200  1
  Ca  Ca3  1  0.25000000  0.24594500  0.35127800  1
  Lu  Lu0  1  0.75000000  0.92080400  0.39006600  1
  Lu  Lu1  1  0.25000000  0.07919600  0.60993400  1
  Lu  Lu2  1  0.75000000  0.42080400  0.10993400  1
  Lu  Lu3  1  0.25000000  0.57919600  0.89006600  1
  Lu  Lu4  1  0.75000000  0.92534600  0.88612600  1
  Lu  Lu5  1  0.25000000  0.07465400  0.11387400  1
  Lu  Lu6  1  0.75000000  0.42534600  0.61387400  1
  Lu  Lu7  1  0.25000000  0.57465400  0.38612600  1
  O  O0  1  0.75000000  0.71025700  0.32047100  1
  O  O1  1  0.25000000  0.28974300  0.67952900  1
  O  O2  1  0.75000000  0.21025700  0.17952900  1
  O  O3  1  0.25000000  0.78974300  0.82047100  1
  O  O4  1  0.75000000  0.62809800  0.02286500  1
  O  O5  1  0.25000000  0.37190200  0.97713500  1
  O  O6  1  0.75000000  0.12809800  0.47713500  1
  O  O7  1  0.25000000  0.87190200  0.52286500  1
  O  O8  1  0.75000000  0.01739300  0.71577600  1
  O  O9  1  0.25000000  0.98260700  0.28422400  1
  O  O10  1  0.75000000  0.51739300  0.78422400  1
  O  O11  1  0.25000000  0.48260700  0.21577600  1
  O  O12  1  0.75000000  0.92115000  0.07792000  1
  O  O13  1  0.25000000  0.07885000  0.92208000  1
  O  O14  1  0.75000000  0.42115000  0.42208000  1
  O  O15  1  0.25000000  0.57885000  0.57792000  1
loop_
_geom_bond_atom_site_label_1
_geom_bond_atom_site_label_2
_geom_bond_distance
_geom_bond_site_symmetry_2
Ca0 O5 2.482895 1_555
Ca0 O5 2.482895 1_655
Ca0 O13 2.514376 1_555
Ca0 O13 2.514376 1_655
Ca0 O1 2.605425 1_655
Ca0 O1 2.605425 1_555
Ca0 O10 2.690480 1_555
Ca0 O8 2.796537 1_555
Ca1 O4 2.482895 1_455
Ca1 O4 2.482895 1_555
Ca1 O12 2.514376 1_555
Ca1 O12 2.514376 1_455
Ca1 O0 2.605425 1_455
Ca1 O0 2.605425 1_555
Ca1 O11 2.690480 1_555
Ca1 O9 2.796537 1_555
Ca2 O7 2.482895 1_555
Ca2 O7 2.482895 1_655
Ca2 O15 2.514376 1_655
Ca2 O15 2.514376 1_555
Ca2 O3 2.605425 1_555
Ca2 O3 2.605425 1_655
Ca2 O8 2.690480 1_565
Ca2 O10 2.796537 1_555
Ca3 O6 2.482895 1_555
Ca3 O6 2.482895 1_455
Ca3 O14 2.514376 1_555
Ca3 O14 2.514376 1_455
Ca3 O2 2.605425 1_455
Ca3 O2 2.605425 1_555
Ca3 O9 2.690480 1_545
Ca3 O11 2.796537 1_555
Lu0 O9 2.140030 1_555
Lu0 O9 2.140030 1_655
Lu0 O0 2.211622 1_555
Lu0 O6 2.264536 1_565
Lu0 O7 2.303322 1_555
Lu0 O7 2.303322 1_655
Lu1 O8 2.140030 1_555
Lu1 O8 2.140030 1_455
Lu1 O1 2.211622 1_555
Lu1 O7 2.264536 1_545
Lu1 O6 2.303322 1_455
Lu1 O6 2.303322 1_555
Lu2 O11 2.140030 1_655
Lu2 O11 2.140030 1_555
Lu2 O2 2.211622 1_555
Lu2 O4 2.264536 1_555
Lu2 O5 2.303322 1_654
Lu2 O5 2.303322 1_554
Lu3 O10 2.140030 1_555
Lu3 O10 2.140030 1_455
Lu3 O3 2.211622 1_555
Lu3 O5 2.264536 1_555
Lu3 O4 2.303322 1_556
Lu3 O4 2.303322 1_456
Lu4 O8 2.168013 1_565
Lu4 O12 2.220824 1_556
Lu4 O3 2.247242 1_555
Lu4 O3 2.247242 1_655
Lu4 O13 2.267343 1_565
Lu4 O13 2.267343 1_665
Lu5 O9 2.168013 1_545
Lu5 O13 2.220824 1_554
Lu5 O2 2.247242 1_455
Lu5 O2 2.247242 1_555
Lu5 O12 2.267343 1_445
Lu5 O12 2.267343 1_545
Lu6 O10 2.168013 1_555
Lu6 O14 2.220824 1_555
Lu6 O1 2.247242 1_655
Lu6 O1 2.247242 1_555
Lu6 O15 2.267343 1_555
Lu6 O15 2.267343 1_655
Lu7 O11 2.168013 1_555
Lu7 O15 2.220824 1_555
Lu7 O0 2.247242 1_555
Lu7 O0 2.247242 1_455
Lu7 O14 2.267343 1_455
Lu7 O14 2.267343 1_555
