# generated using pymatgen
data_CuHgSBr
_symmetry_space_group_name_H-M   'P 1'
_cell_length_a   4.11045500
_cell_length_b   9.57892900
_cell_length_c   10.10252600
_cell_angle_alpha   90.00000000
_cell_angle_beta   90.00000000
_cell_angle_gamma   90.00000000
_symmetry_Int_Tables_number   1
_chemical_formula_structural   CuHgSBr
_chemical_formula_sum   'Cu4 Hg4 S4 Br4'
_cell_volume   397.77439980
_cell_formula_units_Z   4
loop_
 _symmetry_equiv_pos_site_id
 _symmetry_equiv_pos_as_xyz
  1  'x, y, z'
loop_
 _atom_site_type_symbol
 _atom_site_label
 _atom_site_symmetry_multiplicity
 _atom_site_fract_x
 _atom_site_fract_y
 _atom_site_fract_z
 _atom_site_occupancy
  Cu  Cu0  1  0.00000000  0.20736300  0.07631300  1
  Cu  Cu1  1  0.00000000  0.20736300  0.42368700  1
  Cu  Cu2  1  0.00000000  0.79263700  0.57631300  1
  Cu  Cu3  1  0.00000000  0.79263700  0.92368700  1
  Hg  Hg0  1  0.50000000  0.77989800  0.25000000  1
  Hg  Hg1  1  0.50000000  0.22010200  0.75000000  1
  Hg  Hg2  1  0.50000000  0.50000000  0.50000000  1
  Hg  Hg3  1  0.50000000  0.50000000  0.00000000  1
  S  S0  1  0.50000000  0.24538300  0.99085500  1
  S  S1  1  0.50000000  0.24538300  0.50914500  1
  S  S2  1  0.50000000  0.75461700  0.00914500  1
  S  S3  1  0.50000000  0.75461700  0.49085500  1
  Br  Br0  1  0.00000000  0.55043100  0.75000000  1
  Br  Br1  1  0.00000000  0.44956900  0.25000000  1
  Br  Br2  1  0.00000000  0.97198500  0.75000000  1
  Br  Br3  1  0.00000000  0.02801500  0.25000000  1
loop_
_geom_bond_atom_site_label_1
_geom_bond_atom_site_label_2
_geom_bond_distance
_geom_bond_site_symmetry_2
Cu0 S0 2.258751 1_554
Cu0 S0 2.258751 1_454
Cu1 S1 2.258751 1_555
Cu1 S1 2.258751 1_455
Cu2 S3 2.258751 1_455
Cu2 S3 2.258751 1_555
Cu3 S2 2.258751 1_556
Cu3 S2 2.258751 1_456
Hg0 S3 2.445265 1_555
Hg0 S2 2.445265 1_555
Hg1 S0 2.445265 1_555
Hg1 S1 2.445265 1_555
Hg2 S1 2.440707 1_555
Hg2 S3 2.440707 1_555
Hg3 S2 2.440707 1_555
Hg3 S0 2.440707 1_554
Br0 Cu3 2.908889 1_555
Br0 Cu2 2.908889 1_555
Br1 Cu1 2.908889 1_555
Br1 Cu0 2.908889 1_555
Br2 Cu3 2.455664 1_555
Br2 Cu2 2.455664 1_555
Br2 Hg1 3.142076 1_465
Br2 Hg1 3.142076 1_565
Br3 Cu1 2.455664 1_555
Br3 Cu0 2.455664 1_555
Br3 Hg0 3.142076 1_545
Br3 Hg0 3.142076 1_445
