# generated using pymatgen
data_SmMg2
_symmetry_space_group_name_H-M   'P 1'
_cell_length_a   6.08666804
_cell_length_b   6.08666770
_cell_length_c   6.08666666
_cell_angle_alpha   60.00000005
_cell_angle_beta   60.00000186
_cell_angle_gamma   60.00000592
_symmetry_Int_Tables_number   1
_chemical_formula_structural   SmMg2
_chemical_formula_sum   'Sm2 Mg4'
_cell_volume   159.44971750
_cell_formula_units_Z   2
loop_
 _symmetry_equiv_pos_site_id
 _symmetry_equiv_pos_as_xyz
  1  'x, y, z'
loop_
 _atom_site_type_symbol
 _atom_site_label
 _atom_site_symmetry_multiplicity
 _atom_site_fract_x
 _atom_site_fract_y
 _atom_site_fract_z
 _atom_site_occupancy
  Sm  Sm0  1  0.87500000  0.87500000  0.87500000  1
  Sm  Sm1  1  0.12500000  0.12500000  0.12500000  1
  Mg  Mg0  1  0.50000000  0.50000000  0.50000000  1
  Mg  Mg1  1  0.50000000  0.50000000  -0.00000000  1
  Mg  Mg2  1  -0.00000000  0.50000000  0.50000000  1
  Mg  Mg3  1  0.50000000  0.00000000  0.50000000  1
loop_
_geom_bond_atom_site_label_1
_geom_bond_atom_site_label_2
_geom_bond_distance
_geom_bond_site_symmetry_2
Sm0 Sm1 3.727307 1_665
Sm0 Sm1 3.727307 1_666
Sm0 Sm1 3.727308 1_656
Sm0 Sm1 3.727308 1_566
Mg0 Mg1 3.043333 1_556
Mg0 Mg1 3.043333 1_555
Mg0 Mg3 3.043334 1_555
Mg0 Mg3 3.043334 1_565
Mg0 Mg2 3.043334 1_555
Mg0 Mg2 3.043334 1_655
Mg0 Sm0 3.568625 1_554
Mg0 Sm1 3.568625 1_556
Mg0 Sm0 3.568625 1_545
Mg0 Sm1 3.568625 1_565
Mg0 Sm1 3.568625 1_655
Mg0 Sm0 3.568625 1_455
Mg1 Mg3 3.043334 1_555
Mg1 Mg3 3.043334 1_564
Mg1 Mg2 3.043334 1_654
Mg1 Mg2 3.043334 1_555
Mg1 Sm0 3.568625 1_554
Mg1 Sm1 3.568625 1_555
Mg1 Sm1 3.568625 1_565
Mg1 Sm0 3.568625 1_544
Mg1 Sm0 3.568626 1_454
Mg1 Sm1 3.568626 1_655
Mg2 Mg3 3.043334 1_555
Mg2 Mg3 3.043334 1_465
Mg2 Sm1 3.568625 1_556
Mg2 Sm0 3.568625 1_454
Mg2 Sm0 3.568625 1_455
Mg2 Sm1 3.568625 1_555
Mg2 Sm0 3.568625 1_445
Mg2 Sm1 3.568625 1_565
Mg3 Sm1 3.568625 1_556
Mg3 Sm0 3.568625 1_544
Mg3 Sm0 3.568625 1_545
Mg3 Sm1 3.568625 1_555
Mg3 Sm0 3.568625 1_445
Mg3 Sm1 3.568625 1_655
