# generated using pymatgen
data_NaTiP2O7
_symmetry_space_group_name_H-M   'P 1'
_cell_length_a   5.31362300
_cell_length_b   8.81078000
_cell_length_c   13.50745861
_cell_angle_alpha   63.07061135
_cell_angle_beta   90.00000000
_cell_angle_gamma   90.00000000
_symmetry_Int_Tables_number   1
_chemical_formula_structural   NaTiP2O7
_chemical_formula_sum   'Na4 Ti4 P8 O28'
_cell_volume   563.80889095
_cell_formula_units_Z   4
loop_
 _symmetry_equiv_pos_site_id
 _symmetry_equiv_pos_as_xyz
  1  'x, y, z'
loop_
 _atom_site_type_symbol
 _atom_site_label
 _atom_site_symmetry_multiplicity
 _atom_site_fract_x
 _atom_site_fract_y
 _atom_site_fract_z
 _atom_site_occupancy
  Na  Na0  1  0.77038600  0.44638800  0.18979700  1
  Na  Na1  1  0.72961400  0.44638800  0.68979700  1
  Na  Na2  1  0.22961400  0.55361200  0.81020300  1
  Na  Na3  1  0.27038600  0.55361200  0.31020300  1
  Ti  Ti0  1  0.26432900  0.73726000  0.52871100  1
  Ti  Ti1  1  0.76432900  0.26274000  0.97128900  1
  Ti  Ti2  1  0.73567100  0.26274000  0.47128900  1
  Ti  Ti3  1  0.23567100  0.73726000  0.02871100  1
  P  P0  1  0.22168000  0.31651700  0.61529100  1
  P  P1  1  0.77832000  0.68348300  0.38470900  1
  P  P2  1  0.72168000  0.68348300  0.88470900  1
  P  P3  1  0.75534400  0.83289000  0.14525600  1
  P  P4  1  0.74465600  0.83289000  0.64525600  1
  P  P5  1  0.24465600  0.16711000  0.85474400  1
  P  P6  1  0.25534400  0.16711000  0.35474400  1
  P  P7  1  0.27832000  0.31651700  0.11529100  1
  O  O0  1  0.90347500  0.70531800  0.96348400  1
  O  O1  1  0.40347500  0.29468200  0.53651600  1
  O  O2  1  0.05607500  0.69292200  0.41150300  1
  O  O3  1  0.59652500  0.70531800  0.46348400  1
  O  O4  1  0.24396600  0.98149100  0.44177800  1
  O  O5  1  0.48749800  0.74840200  0.65314600  1
  O  O6  1  0.28130200  0.16104300  0.73709000  1
  O  O7  1  0.55607500  0.30707800  0.08849700  1
  O  O8  1  0.98749800  0.25159800  0.84685400  1
  O  O9  1  0.09652500  0.29468200  0.03651600  1
  O  O10  1  0.25603400  0.98149100  0.94177800  1
  O  O11  1  0.54002100  0.72590600  0.13431700  1
  O  O12  1  0.01250200  0.74840200  0.15314600  1
  O  O13  1  0.44392500  0.69292200  0.91150300  1
  O  O14  1  0.72612200  0.52105200  0.37081900  1
  O  O15  1  0.27387800  0.47894800  0.62918100  1
  O  O16  1  0.22612200  0.47894800  0.12918100  1
  O  O17  1  0.94392500  0.30707800  0.58849700  1
  O  O18  1  0.95997900  0.72590600  0.63431700  1
  O  O19  1  0.77387800  0.52105200  0.87081900  1
  O  O20  1  0.74396600  0.01850900  0.05822200  1
  O  O21  1  0.04002100  0.27409400  0.36568300  1
  O  O22  1  0.21869800  0.16104300  0.23709000  1
  O  O23  1  0.78130200  0.83895700  0.76291000  1
  O  O24  1  0.45997900  0.27409400  0.86568300  1
  O  O25  1  0.51250200  0.25159800  0.34685400  1
  O  O26  1  0.75603400  0.01850900  0.55822200  1
  O  O27  1  0.71869800  0.83895700  0.26291000  1
loop_
_geom_bond_atom_site_label_1
_geom_bond_atom_site_label_2
_geom_bond_distance
_geom_bond_site_symmetry_2
Na0 O25 2.454762 1_555
Na0 O7 2.489357 1_555
Na0 O16 2.530635 1_655
Na0 O11 2.540371 1_555
Na0 O21 2.595141 1_655
Na0 O12 2.790659 1_655
Na0 O14 2.814927 1_555
Na0 O0 2.955096 1_554
Na0 O16 2.983901 1_555
Na1 O8 2.454762 1_555
Na1 O17 2.489357 1_555
Na1 O15 2.530635 1_555
Na1 O18 2.540371 1_555
Na1 O24 2.595141 1_555
Na1 O5 2.790659 1_555
Na1 O19 2.814927 1_555
Na1 O3 2.955096 1_555
Na1 O15 2.983901 1_655
Na2 O5 2.454762 1_555
Na2 O13 2.489357 1_555
Na2 O19 2.530635 1_455
Na2 O24 2.540371 1_555
Na2 O18 2.595141 1_455
Na2 O8 2.790659 1_455
Na2 O15 2.814927 1_555
Na2 O9 2.955096 1_556
Na2 O19 2.983901 1_555
Na3 O12 2.454762 1_555
Na3 O2 2.489357 1_555
Na3 O14 2.530635 1_555
Na3 O21 2.540371 1_555
Na3 O11 2.595141 1_555
Na3 O25 2.790659 1_555
Na3 O16 2.814927 1_555
Na3 O1 2.955096 1_555
Na3 O14 2.983901 1_455
O0 P2 1.512538 1_555
O0 Ti3 2.048379 1_656
O1 P0 1.512538 1_555
O1 Ti2 2.048379 1_555
O2 P1 1.530818 1_455
O2 Ti0 2.108034 1_555
O3 P1 1.512538 1_555
O3 Ti0 2.048379 1_555
O4 P6 1.522793 1_565
O4 Ti0 1.931925 1_555
O5 P4 1.536489 1_555
O5 Ti0 2.095326 1_555
O6 P0 1.625479 1_555
O6 P5 1.625823 1_555
O7 P7 1.530818 1_555
O7 Ti1 2.108034 1_554
O8 P5 1.536489 1_655
O8 Ti1 2.095326 1_555
O9 P7 1.512538 1_555
O9 Ti1 2.048379 1_454
O10 P5 1.522793 1_565
O10 Ti3 1.931925 1_556
O11 P3 1.531527 1_555
O11 Ti3 2.128592 1_555
O12 P3 1.536489 1_455
O12 Ti3 2.095326 1_555
O13 P2 1.530818 1_555
O13 Ti3 2.108034 1_556
O14 P1 1.550327 1_555
O14 Ti2 2.055842 1_555
O15 P0 1.550327 1_555
O15 Ti0 2.055842 1_555
O16 P7 1.550327 1_555
O16 Ti3 2.055842 1_555
O17 P0 1.530818 1_655
O17 Ti2 2.108034 1_555
O18 P4 1.531527 1_555
O18 Ti0 2.128592 1_655
O19 P2 1.550327 1_555
O19 Ti1 2.055842 1_555
O20 P3 1.522793 1_545
O20 Ti1 1.931925 1_554
O21 P6 1.531527 1_555
O21 Ti2 2.128592 1_455
O22 P7 1.625479 1_555
O22 P6 1.625823 1_555
O23 P2 1.625479 1_555
O23 P4 1.625823 1_555
O24 P5 1.531527 1_555
O24 Ti1 2.128592 1_555
O25 P6 1.536489 1_555
O25 Ti2 2.095326 1_555
O26 P4 1.522793 1_545
O26 Ti2 1.931925 1_555
O27 P1 1.625479 1_555
O27 P3 1.625823 1_555
