# generated using pymatgen
data_Ca9In(PO4)7
_symmetry_space_group_name_H-M   'P 1'
_cell_length_a   13.93474455
_cell_length_b   13.93474455
_cell_length_c   13.93474521
_cell_angle_alpha   44.30900280
_cell_angle_beta   44.30900280
_cell_angle_gamma   44.30900382
_symmetry_Int_Tables_number   1
_chemical_formula_structural   Ca9In(PO4)7
_chemical_formula_sum   'Ca18 In2 P14 O56'
_cell_volume   1199.94113255
_cell_formula_units_Z   2
loop_
 _symmetry_equiv_pos_site_id
 _symmetry_equiv_pos_as_xyz
  1  'x, y, z'
loop_
 _atom_site_type_symbol
 _atom_site_label
 _atom_site_symmetry_multiplicity
 _atom_site_fract_x
 _atom_site_fract_y
 _atom_site_fract_z
 _atom_site_occupancy
  Ca  Ca0  1  0.43193200  0.85564200  0.40676700  1
  Ca  Ca1  1  0.15225600  0.57759900  0.56408200  1
  Ca  Ca2  1  0.40676700  0.43193200  0.85564200  1
  Ca  Ca3  1  0.57759900  0.56408200  0.15225600  1
  Ca  Ca4  1  0.35564200  0.93193200  0.90676700  1
  Ca  Ca5  1  0.90676700  0.35564200  0.93193200  1
  Ca  Ca6  1  0.05026900  0.47188900  0.45318200  1
  Ca  Ca7  1  0.47188900  0.45318200  0.05026900  1
  Ca  Ca8  1  0.95318200  0.97188900  0.55026900  1
  Ca  Ca9  1  0.85564200  0.40676700  0.43193200  1
  Ca  Ca10  1  0.55026900  0.95318200  0.97188900  1
  Ca  Ca11  1  0.97188900  0.55026900  0.95318200  1
  Ca  Ca12  1  0.93193200  0.90676700  0.35564200  1
  Ca  Ca13  1  0.06408200  0.07759900  0.65225600  1
  Ca  Ca14  1  0.56408200  0.15225600  0.57759900  1
  Ca  Ca15  1  0.65225600  0.06408200  0.07759900  1
  Ca  Ca16  1  0.07759900  0.65225600  0.06408200  1
  Ca  Ca17  1  0.45318200  0.05026900  0.47188900  1
  In  In0  1  0.99947700  0.99947700  0.99947700  1
  In  In1  1  0.49947700  0.49947700  0.49947700  1
  P  P0  1  0.76893200  0.76893200  0.76893200  1
  P  P1  1  0.26893200  0.26893200  0.26893200  1
  P  P2  1  0.18673700  0.22064800  0.68521700  1
  P  P3  1  0.30857700  0.81991700  0.27440200  1
  P  P4  1  0.81991700  0.27440200  0.30857700  1
  P  P5  1  0.27440200  0.30857700  0.81991700  1
  P  P6  1  0.72064800  0.68673700  0.18521700  1
  P  P7  1  0.22064800  0.68521700  0.18673700  1
  P  P8  1  0.80857700  0.77440200  0.31991700  1
  P  P9  1  0.18521700  0.72064800  0.68673700  1
  P  P10  1  0.68673700  0.18521700  0.72064800  1
  P  P11  1  0.31991700  0.80857700  0.77440200  1
  P  P12  1  0.77440200  0.31991700  0.80857700  1
  P  P13  1  0.68521700  0.18673700  0.22064800  1
  O  O0  1  0.77087200  0.39280400  0.85671800  1
  O  O1  1  0.89280400  0.27087200  0.35671800  1
  O  O2  1  0.68443100  0.66857800  0.11857600  1
  O  O3  1  0.39190400  0.11036900  0.26612700  1
  O  O4  1  0.38827300  0.83881400  0.11076900  1
  O  O5  1  0.86857900  0.13955900  0.87580600  1
  O  O6  1  0.63955900  0.36857900  0.37580600  1
  O  O7  1  0.59541700  0.14431800  0.89236100  1
  O  O8  1  0.88827300  0.61076900  0.33881400  1
  O  O9  1  0.27087200  0.35671800  0.89280400  1
  O  O10  1  0.11036900  0.26612700  0.39190400  1
  O  O11  1  0.26612700  0.39190400  0.11036900  1
  O  O12  1  0.35671800  0.89280400  0.27087200  1
  O  O13  1  0.16857800  0.18443100  0.61857600  1
  O  O14  1  0.85616000  0.12971800  0.66242100  1
  O  O15  1  0.18443100  0.61857600  0.16857800  1
  O  O16  1  0.36382400  0.63581300  0.61794200  1
  O  O17  1  0.63581300  0.61794200  0.36382400  1
  O  O18  1  0.13581300  0.86382400  0.11794200  1
  O  O19  1  0.66242100  0.85616000  0.12971800  1
  O  O20  1  0.62971800  0.35616000  0.16242100  1
  O  O21  1  0.39280400  0.85671800  0.77087200  1
  O  O22  1  0.76612700  0.61036900  0.89190400  1
  O  O23  1  0.86382400  0.11794200  0.13581300  1
  O  O24  1  0.61036900  0.89190400  0.76612700  1
  O  O25  1  0.13629300  0.87256700  0.35062300  1
  O  O26  1  0.66857800  0.11857600  0.68443100  1
  O  O27  1  0.61857600  0.16857800  0.18443100  1
  O  O28  1  0.09541700  0.39236100  0.64431800  1
  O  O29  1  0.35616000  0.16242100  0.62971800  1
  O  O30  1  0.36857900  0.37580600  0.63955900  1
  O  O31  1  0.11794200  0.13581300  0.86382400  1
  O  O32  1  0.35062300  0.13629300  0.87256700  1
  O  O33  1  0.89190400  0.76612700  0.61036900  1
  O  O34  1  0.33881400  0.88827300  0.61076900  1
  O  O35  1  0.12971800  0.66242100  0.85616000  1
  O  O36  1  0.37580600  0.63955900  0.36857900  1
  O  O37  1  0.63629300  0.85062300  0.37256700  1
  O  O38  1  0.61794200  0.36382400  0.63581300  1
  O  O39  1  0.85062300  0.37256700  0.63629300  1
  O  O40  1  0.64431800  0.09541700  0.39236100  1
  O  O41  1  0.87256700  0.35062300  0.13629300  1
  O  O42  1  0.81033700  0.81033700  0.81033700  1
  O  O43  1  0.61076900  0.33881400  0.88827300  1
  O  O44  1  0.31033700  0.31033700  0.31033700  1
  O  O45  1  0.39236100  0.64431800  0.09541700  1
  O  O46  1  0.16242100  0.62971800  0.35616000  1
  O  O47  1  0.89236100  0.59541700  0.14431800  1
  O  O48  1  0.85671800  0.77087200  0.39280400  1
  O  O49  1  0.14431800  0.89236100  0.59541700  1
  O  O50  1  0.83881400  0.11076900  0.38827300  1
  O  O51  1  0.11076900  0.38827300  0.83881400  1
  O  O52  1  0.13955900  0.87580600  0.86857900  1
  O  O53  1  0.87580600  0.86857900  0.13955900  1
  O  O54  1  0.37256700  0.63629300  0.85062300  1
  O  O55  1  0.11857600  0.68443100  0.66857800  1
loop_
_geom_bond_atom_site_label_1
_geom_bond_atom_site_label_2
_geom_bond_distance
_geom_bond_site_symmetry_2
Ca0 O3 2.350837 1_565
Ca0 O12 2.369154 1_555
Ca0 O34 2.387038 1_555
Ca0 O37 2.482315 1_555
Ca0 O16 2.491311 1_555
Ca0 O17 2.517273 1_555
Ca0 O49 2.673348 1_555
Ca0 O19 2.732684 1_555
Ca1 O46 2.343176 1_555
Ca1 O55 2.383506 1_555
Ca1 O33 2.432149 1_455
Ca1 O28 2.463418 1_555
Ca1 O36 2.491689 1_555
Ca1 O30 2.504707 1_555
Ca1 O51 2.551683 1_555
Ca1 O25 2.816481 1_555
Ca2 O11 2.350837 1_556
Ca2 O9 2.369153 1_555
Ca2 O43 2.387038 1_555
Ca2 O54 2.482315 1_555
Ca2 O38 2.491311 1_555
Ca2 O16 2.517273 1_555
Ca2 O7 2.673348 1_555
Ca2 O35 2.732684 1_555
Ca3 O20 2.343176 1_555
Ca3 O2 2.383506 1_555
Ca3 O22 2.432149 1_554
Ca3 O45 2.463418 1_555
Ca3 O6 2.491689 1_555
Ca3 O36 2.504708 1_555
Ca3 O4 2.551683 1_555
Ca3 O41 2.816481 1_555
Ca4 O24 2.350837 1_555
Ca4 O21 2.369154 1_555
Ca4 O4 2.387038 1_556
Ca4 O32 2.482315 1_565
Ca4 O18 2.491311 1_556
Ca4 O31 2.517273 1_565
Ca4 O45 2.673348 1_556
Ca4 O29 2.732684 1_565
Ca5 O22 2.350837 1_555
Ca5 O0 2.369153 1_555
Ca5 O51 2.387038 1_655
Ca5 O41 2.482316 1_556
Ca5 O31 2.491311 1_655
Ca5 O23 2.517273 1_556
Ca5 O28 2.673348 1_655
Ca5 O20 2.732684 1_556
Ca6 O8 2.421426 1_455
Ca6 O28 2.427720 1_555
Ca6 O39 2.542231 1_455
Ca6 O44 2.564495 1_555
Ca6 O15 2.580257 1_555
Ca6 O46 2.597478 1_555
Ca6 O13 2.617112 1_555
Ca6 O48 2.736625 1_455
Ca6 O10 2.948810 1_555
Ca7 O43 2.421426 1_554
Ca7 O45 2.427719 1_555
Ca7 O54 2.542231 1_554
Ca7 O44 2.564495 1_555
Ca7 O27 2.580257 1_555
Ca7 O20 2.597478 1_555
Ca7 O15 2.617112 1_555
Ca7 O0 2.736625 1_554
Ca7 O11 2.948810 1_555
Ca8 O50 2.421426 1_565
Ca8 O49 2.427719 1_655
Ca8 O25 2.542231 1_655
Ca8 O42 2.564495 1_555
Ca8 O26 2.580257 1_565
Ca8 O14 2.597478 1_565
Ca8 O55 2.617112 1_655
Ca8 O1 2.736625 1_565
Ca8 O33 2.948810 1_555
Ca9 O10 2.350837 1_655
Ca9 O1 2.369153 1_555
Ca9 O8 2.387038 1_555
Ca9 O39 2.482316 1_555
Ca9 O17 2.491311 1_555
Ca9 O38 2.517273 1_555
Ca9 O47 2.673348 1_555
Ca9 O14 2.732684 1_555
Ca10 O4 2.421425 1_556
Ca10 O7 2.427719 1_565
Ca10 O32 2.542231 1_565
Ca10 O42 2.564495 1_555
Ca10 O2 2.580257 1_556
Ca10 O19 2.597478 1_556
Ca10 O26 2.617112 1_565
Ca10 O12 2.736625 1_556
Ca10 O24 2.948810 1_555
Ca11 O51 2.421426 1_655
Ca11 O47 2.427720 1_556
Ca11 O41 2.542231 1_556
Ca11 O42 2.564495 1_555
Ca11 O55 2.580257 1_655
Ca11 O35 2.597478 1_655
Ca11 O2 2.617112 1_556
Ca11 O9 2.736625 1_655
Ca11 O22 2.948810 1_555
Ca12 O33 2.350837 1_555
Ca12 O48 2.369153 1_555
Ca12 O50 2.387038 1_565
Ca12 O25 2.482315 1_655
Ca12 O23 2.491311 1_565
Ca12 O18 2.517273 1_655
Ca12 O40 2.673348 1_565
Ca12 O46 2.732684 1_655
Ca13 O14 2.343176 1_455
Ca13 O13 2.383506 1_555
Ca13 O10 2.432149 1_555
Ca13 O49 2.463418 1_545
Ca13 O5 2.491689 1_455
Ca13 O52 2.504708 1_545
Ca13 O34 2.551683 1_545
Ca13 O39 2.816481 1_455
Ca14 O29 2.343176 1_555
Ca14 O26 2.383506 1_555
Ca14 O24 2.432149 1_545
Ca14 O40 2.463418 1_555
Ca14 O30 2.491689 1_555
Ca14 O6 2.504707 1_555
Ca14 O50 2.551683 1_555
Ca14 O32 2.816482 1_555
Ca15 O19 2.343176 1_545
Ca15 O27 2.383506 1_555
Ca15 O3 2.432149 1_555
Ca15 O7 2.463418 1_554
Ca15 O53 2.491689 1_545
Ca15 O5 2.504707 1_554
Ca15 O43 2.551683 1_554
Ca15 O37 2.816482 1_545
Ca16 O35 2.343176 1_554
Ca16 O15 2.383506 1_555
Ca16 O11 2.432149 1_555
Ca16 O47 2.463418 1_455
Ca16 O52 2.491689 1_554
Ca16 O53 2.504707 1_455
Ca16 O8 2.551683 1_455
Ca16 O54 2.816481 1_554
Ca17 O34 2.421425 1_545
Ca17 O40 2.427719 1_555
Ca17 O37 2.542231 1_545
Ca17 O44 2.564495 1_555
Ca17 O13 2.580257 1_555
Ca17 O29 2.597478 1_555
Ca17 O27 2.617112 1_555
Ca17 O21 2.736625 1_545
Ca17 O3 2.948810 1_555
In0 O53 2.167010 1_556
In0 O5 2.167010 1_565
In0 O52 2.167010 1_655
In0 O31 2.188707 1_665
In0 O18 2.188707 1_656
In0 O23 2.188707 1_566
In1 O30 2.167010 1_555
In1 O6 2.167010 1_555
In1 O36 2.167010 1_555
In1 O17 2.188707 1_555
In1 O16 2.188707 1_555
In1 O38 2.188707 1_555
O0 P12 1.529832 1_555
O1 P4 1.529832 1_555
O2 P6 1.539757 1_555
O3 P1 1.558516 1_555
O4 P3 1.561100 1_555
O5 P12 1.608054 1_555
O6 P4 1.608054 1_555
O7 P10 1.548569 1_555
O8 P8 1.561100 1_555
O9 P5 1.529832 1_555
O10 P1 1.558516 1_555
O11 P1 1.558516 1_555
O12 P3 1.529832 1_555
O13 P2 1.539757 1_555
O14 P10 1.540664 1_555
O15 P7 1.539757 1_555
O16 P9 1.583447 1_555
O17 P6 1.583447 1_555
O18 P7 1.583447 1_555
O19 P6 1.540664 1_555
O20 P13 1.540664 1_555
O21 P11 1.529832 1_555
O22 P0 1.558516 1_555
O23 P13 1.583447 1_555
O24 P0 1.558516 1_555
O25 P3 1.541124 1_555
O26 P10 1.539757 1_555
O27 P13 1.539757 1_555
O28 P2 1.548569 1_555
O29 P2 1.540664 1_555
O30 P5 1.608054 1_555
O31 P2 1.583447 1_555
O32 P5 1.541124 1_555
O33 P0 1.558516 1_555
O34 P11 1.561100 1_555
O35 P9 1.540664 1_555
O36 P3 1.608054 1_555
O37 P8 1.541124 1_555
O38 P10 1.583447 1_555
O39 P12 1.541124 1_555
O40 P13 1.548569 1_555
O41 P4 1.541124 1_555
O42 P0 1.558188 1_555
O43 P12 1.561100 1_555
O44 P1 1.558188 1_555
O45 P7 1.548569 1_555
O46 P7 1.540664 1_555
O47 P6 1.548569 1_555
O48 P8 1.529832 1_555
O49 P9 1.548569 1_555
O50 P4 1.561100 1_555
O51 P5 1.561100 1_555
O52 P11 1.608054 1_555
O53 P8 1.608054 1_555
O54 P11 1.541124 1_555
O55 P9 1.539757 1_555
