# generated using pymatgen
data_Li4Mo5O17
_symmetry_space_group_name_H-M   'P 1'
_cell_length_a   6.90489200
_cell_length_b   9.64299191
_cell_length_c   11.08071549
_cell_angle_alpha   106.95325934
_cell_angle_beta   88.54111259
_cell_angle_gamma   110.35702920
_symmetry_Int_Tables_number   1
_chemical_formula_structural   Li4Mo5O17
_chemical_formula_sum   'Li8 Mo10 O34'
_cell_volume   659.27724134
_cell_formula_units_Z   2
loop_
 _symmetry_equiv_pos_site_id
 _symmetry_equiv_pos_as_xyz
  1  'x, y, z'
loop_
 _atom_site_type_symbol
 _atom_site_label
 _atom_site_symmetry_multiplicity
 _atom_site_fract_x
 _atom_site_fract_y
 _atom_site_fract_z
 _atom_site_occupancy
  Li  Li0  1  0.74479500  0.05052100  0.63883800  1
  Li  Li1  1  0.25520500  0.94947900  0.36116200  1
  Li  Li2  1  0.20018900  0.28356900  0.56539300  1
  Li  Li3  1  0.79981100  0.71643100  0.43460700  1
  Li  Li4  1  0.80690000  0.59634100  0.68827200  1
  Li  Li5  1  0.19310000  0.40365900  0.31172800  1
  Li  Li6  1  0.03157400  0.78487100  0.06558500  1
  Li  Li7  1  0.96842600  0.21512900  0.93441500  1
  Mo  Mo0  1  0.63803200  0.87859200  0.97627000  1
  Mo  Mo1  1  0.36196800  0.12140800  0.02373000  1
  Mo  Mo2  1  0.26121800  0.54379200  0.85259700  1
  Mo  Mo3  1  0.73878200  0.45620800  0.14740300  1
  Mo  Mo4  1  0.47953600  0.71036000  0.20305800  1
  Mo  Mo5  1  0.52046400  0.28964000  0.79694200  1
  Mo  Mo6  1  0.38357900  0.69318300  0.61150900  1
  Mo  Mo7  1  0.61642100  0.30681700  0.38849100  1
  Mo  Mo8  1  0.84670300  0.05745200  0.33645300  1
  Mo  Mo9  1  0.15329700  0.94254800  0.66354700  1
  O  O0  1  0.69032200  0.06863800  0.96445000  1
  O  O1  1  0.30967800  0.93136200  0.03555000  1
  O  O2  1  0.65753500  0.82931300  0.34971000  1
  O  O3  1  0.34246500  0.17068700  0.65029000  1
  O  O4  1  0.65856100  0.91760300  0.15791700  1
  O  O5  1  0.34143900  0.08239700  0.84208300  1
  O  O6  1  0.86312900  0.83908400  0.94187200  1
  O  O7  1  0.13687100  0.16091600  0.05812800  1
  O  O8  1  0.21136600  0.35208200  0.86362100  1
  O  O9  1  0.78863400  0.64791800  0.13637900  1
  O  O10  1  0.04570900  0.58917700  0.90420700  1
  O  O11  1  0.95429100  0.41082300  0.09579300  1
  O  O12  1  0.44740700  0.66436400  0.01232500  1
  O  O13  1  0.55259300  0.33563600  0.98767500  1
  O  O14  1  0.24766600  0.59856200  0.46231000  1
  O  O15  1  0.75233400  0.40143800  0.53769000  1
  O  O16  1  0.05034400  0.99670200  0.27105500  1
  O  O17  1  0.94965600  0.00329800  0.72894500  1
  O  O18  1  0.25450300  0.75321500  0.23650200  1
  O  O19  1  0.74549700  0.24678500  0.76349800  1
  O  O20  1  0.41528900  0.51638500  0.20956900  1
  O  O21  1  0.58471100  0.48361500  0.79043100  1
  O  O22  1  0.91505600  0.11860800  0.50285400  1
  O  O23  1  0.08494400  0.88139200  0.49714600  1
  O  O24  1  0.45931600  0.75214400  0.82313100  1
  O  O25  1  0.54068400  0.24785600  0.17686900  1
  O  O26  1  0.45244000  0.90229300  0.62718300  1
  O  O27  1  0.54756000  0.09770700  0.37281700  1
  O  O28  1  0.23229500  0.50180500  0.67406000  1
  O  O29  1  0.76770500  0.49819500  0.32594000  1
  O  O30  1  0.90226300  0.24491800  0.30803000  1
  O  O31  1  0.09773700  0.75508200  0.69197000  1
  O  O32  1  0.63093400  0.67577000  0.58588900  1
  O  O33  1  0.36906600  0.32423000  0.41411100  1
loop_
_geom_bond_atom_site_label_1
_geom_bond_atom_site_label_2
_geom_bond_distance
_geom_bond_site_symmetry_2
Li0 O19 1.989793 1_555
Li0 O17 1.997604 1_555
Li0 O26 2.008219 1_545
Li0 O22 2.008322 1_555
Li1 O18 1.989793 1_555
Li1 O16 1.997604 1_555
Li1 O27 2.008219 1_565
Li1 O23 2.008322 1_555
Li2 O22 2.033348 1_455
Li2 O28 2.034442 1_555
Li2 O33 2.071033 1_555
Li2 O3 2.103133 1_555
Li3 O23 2.033348 1_655
Li3 O29 2.034442 1_555
Li3 O32 2.071033 1_555
Li3 O2 2.103133 1_555
Li4 O15 2.041780 1_555
Li4 O31 2.050998 1_655
Li4 O21 2.070183 1_555
Li4 O32 2.138782 1_555
Li5 O14 2.041780 1_555
Li5 O30 2.050998 1_455
Li5 O20 2.070183 1_555
Li5 O33 2.138782 1_555
Li6 O1 2.036681 1_555
Li6 O9 2.041868 1_455
Li6 O6 2.104140 1_454
Li6 O10 2.217999 1_554
Li6 O16 2.547862 1_555
Li6 O18 2.619529 1_555
Li7 O0 2.036681 1_555
Li7 O8 2.041868 1_655
Li7 O7 2.104140 1_656
Li7 O11 2.217999 1_556
Li7 O17 2.547862 1_555
Li7 O19 2.619529 1_555
Mo0 O6 1.733004 1_555
Mo0 O0 1.784152 1_565
Mo0 O24 1.934456 1_555
Mo0 O4 1.936167 1_556
Mo0 O12 2.173107 1_556
Mo0 O1 2.522449 1_556
Mo1 O7 1.733004 1_555
Mo1 O1 1.784152 1_545
Mo1 O25 1.934456 1_555
Mo1 O5 1.936167 1_554
Mo1 O13 2.173107 1_554
Mo1 O0 2.522449 1_554
Mo2 O10 1.731105 1_555
Mo2 O8 1.799380 1_555
Mo2 O28 1.901130 1_555
Mo2 O12 2.003244 1_556
Mo2 O24 2.112354 1_555
Mo2 O21 2.528027 1_555
Mo3 O11 1.731105 1_555
Mo3 O9 1.799380 1_555
Mo3 O29 1.901130 1_555
Mo3 O13 2.003244 1_554
Mo3 O25 2.112354 1_555
Mo3 O20 2.528027 1_555
Mo4 O18 1.746599 1_555
Mo4 O20 1.789001 1_555
Mo4 O2 1.871042 1_555
Mo4 O12 2.030120 1_555
Mo4 O4 2.145873 1_555
Mo4 O9 2.453162 1_555
Mo5 O19 1.746599 1_555
Mo5 O21 1.789001 1_555
Mo5 O3 1.871042 1_555
Mo5 O13 2.030120 1_555
Mo5 O5 2.145873 1_555
Mo5 O8 2.453162 1_555
Mo6 O14 1.746415 1_555
Mo6 O32 1.781279 1_555
Mo6 O26 1.858819 1_555
Mo6 O28 2.084506 1_555
Mo6 O24 2.274526 1_555
Mo6 O31 2.338029 1_555
Mo7 O15 1.746415 1_555
Mo7 O33 1.781279 1_555
Mo7 O27 1.858819 1_555
Mo7 O29 2.084506 1_555
Mo7 O25 2.274526 1_555
Mo7 O30 2.338029 1_555
Mo8 O16 1.766102 1_645
Mo8 O22 1.785167 1_555
Mo8 O30 1.832387 1_555
Mo8 O2 2.178741 1_545
Mo8 O4 2.185431 1_545
Mo8 O27 2.236915 1_555
Mo9 O17 1.766102 1_465
Mo9 O23 1.785167 1_555
Mo9 O31 1.832387 1_555
Mo9 O3 2.178741 1_565
Mo9 O5 2.185431 1_565
Mo9 O26 2.236915 1_555
