# generated using pymatgen
data_Tm(SiOs)2
_symmetry_space_group_name_H-M   'P 1'
_cell_length_a   4.15895518
_cell_length_b   4.15895422
_cell_length_c   5.58041845
_cell_angle_alpha   111.87839707
_cell_angle_beta   111.87841173
_cell_angle_gamma   90.00001272
_symmetry_Int_Tables_number   1
_chemical_formula_structural   Tm(SiOs)2
_chemical_formula_sum   'Tm1 Si2 Os2'
_cell_volume   82.03297411
_cell_formula_units_Z   1
loop_
 _symmetry_equiv_pos_site_id
 _symmetry_equiv_pos_as_xyz
  1  'x, y, z'
loop_
 _atom_site_type_symbol
 _atom_site_label
 _atom_site_symmetry_multiplicity
 _atom_site_fract_x
 _atom_site_fract_y
 _atom_site_fract_z
 _atom_site_occupancy
  Tm  Tm0  1  -0.00000000  0.00000000  -0.00000000  1
  Si  Si0  1  0.37143906  0.37143906  0.74288011  1
  Si  Si1  1  0.62856094  0.62856094  0.25711989  1
  Os  Os0  1  0.75000000  0.25000000  0.50000000  1
  Os  Os1  1  0.25000000  0.75000000  0.50000000  1
loop_
_geom_bond_atom_site_label_1
_geom_bond_atom_site_label_2
_geom_bond_distance
_geom_bond_site_symmetry_2
Si0 Tm0 3.183617 1_556
Si0 Tm0 3.183623 1_656
Si0 Tm0 3.183623 1_566
Si0 Tm0 3.183628 1_666
Si1 Tm0 3.183617 1_665
Si1 Tm0 3.183623 1_565
Si1 Tm0 3.183623 1_655
Si1 Tm0 3.183628 1_555
Os0 Si1 2.377197 1_545
Os0 Si0 2.377197 1_655
Os0 Si1 2.377204 1_555
Os0 Si0 2.377204 1_555
Os0 Tm0 3.153947 1_656
Os0 Tm0 3.153947 1_655
Os0 Tm0 3.153947 1_666
Os0 Tm0 3.153947 1_555
Os1 Si0 2.377197 1_565
Os1 Si1 2.377197 1_455
Os1 Si0 2.377204 1_555
Os1 Si1 2.377204 1_555
Os1 Tm0 3.153947 1_565
Os1 Tm0 3.153947 1_566
Os1 Tm0 3.153947 1_555
Os1 Tm0 3.153947 1_666
