# generated using pymatgen
data_Ba5Si(Br3O2)2
_symmetry_space_group_name_H-M   'P 1'
_cell_length_a   9.22536823
_cell_length_b   9.22536823
_cell_length_c   12.17178245
_cell_angle_alpha   82.04850362
_cell_angle_beta   82.04850362
_cell_angle_gamma   114.43551699
_symmetry_Int_Tables_number   1
_chemical_formula_structural   Ba5Si(Br3O2)2
_chemical_formula_sum   'Ba10 Si2 Br12 O8'
_cell_volume   911.81925712
_cell_formula_units_Z   2
loop_
 _symmetry_equiv_pos_site_id
 _symmetry_equiv_pos_as_xyz
  1  'x, y, z'
loop_
 _atom_site_type_symbol
 _atom_site_label
 _atom_site_symmetry_multiplicity
 _atom_site_fract_x
 _atom_site_fract_y
 _atom_site_fract_z
 _atom_site_occupancy
  Ba  Ba0  1  0.56634300  0.32374400  0.98322200  1
  Ba  Ba1  1  0.79015100  0.20984900  0.25000000  1
  Ba  Ba2  1  0.91224900  0.75810500  0.13614200  1
  Ba  Ba3  1  0.08775100  0.24189500  0.86385800  1
  Ba  Ba4  1  0.32374400  0.56634300  0.48322200  1
  Ba  Ba5  1  0.24189500  0.08775100  0.36385800  1
  Ba  Ba6  1  0.20984900  0.79015100  0.75000000  1
  Ba  Ba7  1  0.43365700  0.67625600  0.01677800  1
  Ba  Ba8  1  0.75810500  0.91224900  0.63614200  1
  Ba  Ba9  1  0.67625600  0.43365700  0.51677800  1
  Si  Si0  1  0.57540100  0.42459900  0.25000000  1
  Si  Si1  1  0.42459900  0.57540100  0.75000000  1
  Br  Br0  1  0.75569600  0.24430400  0.75000000  1
  Br  Br1  1  0.71973300  0.01848300  0.04886700  1
  Br  Br2  1  0.84844400  0.78288200  0.86652600  1
  Br  Br3  1  0.78288200  0.84844400  0.36652600  1
  Br  Br4  1  0.98151700  0.28026700  0.45113300  1
  Br  Br5  1  0.28026700  0.98151700  0.95113300  1
  Br  Br6  1  0.15155600  0.21711800  0.13347400  1
  Br  Br7  1  0.24430400  0.75569600  0.25000000  1
  Br  Br8  1  0.50000000  0.00000000  0.50000000  1
  Br  Br9  1  0.01848300  0.71973300  0.54886700  1
  Br  Br10  1  0.21711800  0.15155600  0.63347400  1
  Br  Br11  1  0.00000000  0.50000000  0.00000000  1
  O  O0  1  0.24399800  0.52369900  0.71492300  1
  O  O1  1  0.55526400  0.59608300  0.63441100  1
  O  O2  1  0.52369900  0.24399800  0.21492300  1
  O  O3  1  0.59608300  0.55526400  0.13441100  1
  O  O4  1  0.44473600  0.40391700  0.36558900  1
  O  O5  1  0.75600200  0.47630100  0.28507700  1
  O  O6  1  0.40391700  0.44473600  0.86558900  1
  O  O7  1  0.47630100  0.75600200  0.78507700  1
loop_
_geom_bond_atom_site_label_1
_geom_bond_atom_site_label_2
_geom_bond_distance
_geom_bond_site_symmetry_2
Ba0 O6 2.660162 1_555
Ba0 O2 2.743933 1_556
Ba0 O3 2.960736 1_556
Ba0 Br5 3.289101 1_545
Ba0 Br0 3.451049 1_555
Ba0 Br6 3.661527 1_556
Ba0 Br1 3.682231 1_556
Ba0 Br11 3.691447 1_656
Ba0 Br2 3.863212 1_555
Ba1 O2 2.686581 1_555
Ba1 O5 2.686581 1_555
Ba1 Br1 3.196731 1_555
Ba1 Br4 3.196731 1_555
Ba1 Br3 3.407744 1_545
Ba1 Br6 3.407744 1_655
Ba1 Br8 3.464347 1_555
Ba1 Br11 3.464347 1_655
Ba2 O5 2.644899 1_555
Ba2 O3 2.742592 1_555
Ba2 Br3 3.244369 1_555
Ba2 Br11 3.374357 1_655
Ba2 Br2 3.406839 1_554
Ba2 Br5 3.414240 1_654
Ba2 Br7 3.539411 1_655
Ba2 Br1 3.660372 1_565
Ba2 Br6 3.874810 1_665
Ba3 O0 2.644899 1_555
Ba3 O6 2.742592 1_555
Ba3 Br10 3.244369 1_555
Ba3 Br11 3.374357 1_556
Ba3 Br6 3.406839 1_556
Ba3 Br1 3.414240 1_456
Ba3 Br0 3.539411 1_455
Ba3 Br5 3.660372 1_545
Ba3 Br2 3.874810 1_445
Ba4 O4 2.660162 1_555
Ba4 O0 2.743933 1_555
Ba4 O1 2.960736 1_555
Ba4 Br4 3.289101 1_455
Ba4 Br7 3.451049 1_555
Ba4 Br10 3.661527 1_555
Ba4 Br9 3.682231 1_555
Ba4 Br8 3.691447 1_565
Ba4 Br3 3.863212 1_555
Ba5 O2 2.644899 1_555
Ba5 O4 2.742592 1_555
Ba5 Br6 3.244369 1_555
Ba5 Br8 3.374357 1_555
Ba5 Br10 3.406839 1_555
Ba5 Br9 3.414240 1_545
Ba5 Br7 3.539411 1_545
Ba5 Br4 3.660372 1_455
Ba5 Br3 3.874810 1_445
Ba6 O0 2.686581 1_555
Ba6 O7 2.686581 1_555
Ba6 Br9 3.196731 1_555
Ba6 Br5 3.196731 1_555
Ba6 Br2 3.407744 1_455
Ba6 Br10 3.407744 1_565
Ba6 Br11 3.464347 1_556
Ba6 Br8 3.464347 1_565
Ba7 O3 2.660162 1_555
Ba7 O7 2.743933 1_554
Ba7 O6 2.960736 1_554
Ba7 Br1 3.289101 1_565
Ba7 Br7 3.451049 1_555
Ba7 Br2 3.661527 1_554
Ba7 Br5 3.682231 1_554
Ba7 Br11 3.691447 1_555
Ba7 Br6 3.863212 1_555
Ba8 O7 2.644899 1_555
Ba8 O1 2.742592 1_555
Ba8 Br2 3.244369 1_555
Ba8 Br8 3.374357 1_565
Ba8 Br3 3.406839 1_555
Ba8 Br4 3.414240 1_565
Ba8 Br0 3.539411 1_565
Ba8 Br9 3.660372 1_655
Ba8 Br10 3.874810 1_665
Ba9 O1 2.660162 1_555
Ba9 O5 2.743933 1_555
Ba9 O4 2.960736 1_555
Ba9 Br9 3.289101 1_655
Ba9 Br0 3.451049 1_555
Ba9 Br3 3.661527 1_555
Ba9 Br4 3.682231 1_555
Ba9 Br8 3.691447 1_555
Ba9 Br10 3.863212 1_555
O0 Si1 1.667749 1_555
O1 Si1 1.653825 1_555
O2 Si0 1.667749 1_555
O3 Si0 1.653825 1_555
O4 Si0 1.653825 1_555
O5 Si0 1.667749 1_555
O6 Si1 1.653825 1_555
O7 Si1 1.667749 1_555
