# generated using pymatgen
data_Ba7Sn3Se13
_symmetry_space_group_name_H-M   'P 1'
_cell_length_a   9.42361900
_cell_length_b   12.91534500
_cell_length_c   25.41887900
_cell_angle_alpha   90.00000000
_cell_angle_beta   90.00000000
_cell_angle_gamma   90.00000000
_symmetry_Int_Tables_number   1
_chemical_formula_structural   Ba7Sn3Se13
_chemical_formula_sum   'Ba28 Sn12 Se52'
_cell_volume   3093.71372925
_cell_formula_units_Z   4
loop_
 _symmetry_equiv_pos_site_id
 _symmetry_equiv_pos_as_xyz
  1  'x, y, z'
loop_
 _atom_site_type_symbol
 _atom_site_label
 _atom_site_symmetry_multiplicity
 _atom_site_fract_x
 _atom_site_fract_y
 _atom_site_fract_z
 _atom_site_occupancy
  Ba  Ba0  1  0.89663500  0.34344700  0.84340600  1
  Ba  Ba1  1  0.91344800  0.02430600  0.15866100  1
  Ba  Ba2  1  0.60336500  0.84344700  0.65659400  1
  Ba  Ba3  1  0.88002100  0.31256800  0.03029000  1
  Ba  Ba4  1  0.10336500  0.65655300  0.15659400  1
  Ba  Ba5  1  0.91344800  0.02430600  0.34133900  1
  Ba  Ba6  1  0.39663500  0.15655300  0.34340600  1
  Ba  Ba7  1  0.58655200  0.52430600  0.34133900  1
  Ba  Ba8  1  0.11997900  0.68743200  0.53029000  1
  Ba  Ba9  1  0.60212200  0.14616900  0.75000000  1
  Ba  Ba10  1  0.39787800  0.85383100  0.25000000  1
  Ba  Ba11  1  0.89663500  0.34344700  0.65659400  1
  Ba  Ba12  1  0.39663500  0.15655300  0.15659400  1
  Ba  Ba13  1  0.10212200  0.35383100  0.25000000  1
  Ba  Ba14  1  0.38002100  0.18743200  0.53029000  1
  Ba  Ba15  1  0.88002100  0.31256800  0.46971000  1
  Ba  Ba16  1  0.08655200  0.97569400  0.84133900  1
  Ba  Ba17  1  0.41344800  0.47569400  0.65866100  1
  Ba  Ba18  1  0.61997900  0.81256800  0.03029000  1
  Ba  Ba19  1  0.61997900  0.81256800  0.46971000  1
  Ba  Ba20  1  0.60336500  0.84344700  0.84340600  1
  Ba  Ba21  1  0.41344800  0.47569400  0.84133900  1
  Ba  Ba22  1  0.11997900  0.68743200  0.96971000  1
  Ba  Ba23  1  0.10336500  0.65655300  0.34340600  1
  Ba  Ba24  1  0.08655200  0.97569400  0.65866100  1
  Ba  Ba25  1  0.89787800  0.64616900  0.75000000  1
  Ba  Ba26  1  0.58655200  0.52430600  0.15866100  1
  Ba  Ba27  1  0.38002100  0.18743200  0.96971000  1
  Sn  Sn0  1  0.80065100  0.04934400  0.94759200  1
  Sn  Sn1  1  0.80065100  0.04934400  0.55240800  1
  Sn  Sn2  1  0.80625100  0.74297900  0.25000000  1
  Sn  Sn3  1  0.19934900  0.95065600  0.44759200  1
  Sn  Sn4  1  0.30065100  0.45065600  0.44759200  1
  Sn  Sn5  1  0.69374900  0.24297900  0.25000000  1
  Sn  Sn6  1  0.19374900  0.25702100  0.75000000  1
  Sn  Sn7  1  0.69934900  0.54934400  0.55240800  1
  Sn  Sn8  1  0.19934900  0.95065600  0.05240800  1
  Sn  Sn9  1  0.69934900  0.54934400  0.94759200  1
  Sn  Sn10  1  0.30625100  0.75702100  0.75000000  1
  Sn  Sn11  1  0.30065100  0.45065600  0.05240800  1
  Se  Se0  1  0.33315300  0.21637000  0.83214800  1
  Se  Se1  1  0.16684700  0.71637000  0.83214800  1
  Se  Se2  1  0.83315300  0.28363000  0.33214800  1
  Se  Se3  1  0.01280300  0.16627700  0.57276200  1
  Se  Se4  1  0.68908300  0.07911500  0.46176000  1
  Se  Se5  1  0.63987600  0.35892000  0.92728100  1
  Se  Se6  1  0.36012400  0.64108000  0.42728100  1
  Se  Se7  1  0.53553700  0.64985100  0.75000000  1
  Se  Se8  1  0.18908300  0.42088500  0.53824000  1
  Se  Se9  1  0.51280300  0.33372300  0.42723800  1
  Se  Se10  1  0.35865100  0.95310100  0.75000000  1
  Se  Se11  1  0.51280300  0.33372300  0.07276200  1
  Se  Se12  1  0.98719700  0.83372300  0.42723800  1
  Se  Se13  1  0.83315300  0.28363000  0.16785200  1
  Se  Se14  1  0.36012400  0.64108000  0.07271900  1
  Se  Se15  1  0.64134900  0.04689900  0.25000000  1
  Se  Se16  1  0.66861600  0.39572900  0.75000000  1
  Se  Se17  1  0.16861600  0.10427100  0.25000000  1
  Se  Se18  1  0.66684700  0.78363000  0.16785200  1
  Se  Se19  1  0.83138400  0.89572900  0.75000000  1
  Se  Se20  1  0.18908300  0.42088500  0.96176000  1
  Se  Se21  1  0.10912000  0.40801600  0.12089200  1
  Se  Se22  1  0.63987600  0.35892000  0.57271900  1
  Se  Se23  1  0.39088000  0.90801600  0.12089200  1
  Se  Se24  1  0.16684700  0.71637000  0.66785200  1
  Se  Se25  1  0.33315300  0.21637000  0.66785200  1
  Se  Se26  1  0.60912000  0.09198400  0.87910800  1
  Se  Se27  1  0.85865100  0.54689900  0.25000000  1
  Se  Se28  1  0.33138400  0.60427100  0.25000000  1
  Se  Se29  1  0.66684700  0.78363000  0.33214800  1
  Se  Se30  1  0.89088000  0.59198400  0.62089200  1
  Se  Se31  1  0.86012400  0.85892000  0.92728100  1
  Se  Se32  1  0.31091700  0.92088500  0.53824000  1
  Se  Se33  1  0.48719700  0.66627700  0.57276200  1
  Se  Se34  1  0.96446300  0.14985100  0.75000000  1
  Se  Se35  1  0.48719700  0.66627700  0.92723800  1
  Se  Se36  1  0.68908300  0.07911500  0.03824000  1
  Se  Se37  1  0.14134900  0.45310100  0.75000000  1
  Se  Se38  1  0.86012400  0.85892000  0.57271900  1
  Se  Se39  1  0.89088000  0.59198400  0.87910800  1
  Se  Se40  1  0.81091700  0.57911500  0.46176000  1
  Se  Se41  1  0.31091700  0.92088500  0.96176000  1
  Se  Se42  1  0.60912000  0.09198400  0.62089200  1
  Se  Se43  1  0.81091700  0.57911500  0.03824000  1
  Se  Se44  1  0.03553700  0.85014900  0.25000000  1
  Se  Se45  1  0.98719700  0.83372300  0.07276200  1
  Se  Se46  1  0.46446300  0.35014900  0.25000000  1
  Se  Se47  1  0.13987600  0.14108000  0.07271900  1
  Se  Se48  1  0.39088000  0.90801600  0.37910800  1
  Se  Se49  1  0.01280300  0.16627700  0.92723800  1
  Se  Se50  1  0.10912000  0.40801600  0.37910800  1
  Se  Se51  1  0.13987600  0.14108000  0.42728100  1
loop_
_geom_bond_atom_site_label_1
_geom_bond_atom_site_label_2
_geom_bond_distance
_geom_bond_site_symmetry_2
Ba0 Se5 3.231076 1_555
Ba0 Se16 3.272663 1_555
Ba0 Se49 3.312874 1_655
Ba0 Se39 3.336200 1_555
Ba0 Se34 3.506785 1_555
Ba0 Se37 3.600128 1_655
Ba1 Se45 3.362915 1_545
Ba1 Se47 3.405853 1_655
Ba1 Se44 3.431252 1_645
Ba1 Se13 3.441608 1_555
Ba1 Se15 3.471383 1_555
Ba1 Se17 3.498458 1_655
Ba1 Se36 3.786951 1_555
Ba1 Se18 3.888085 1_545
Ba2 Se38 3.231076 1_555
Ba2 Se19 3.272663 1_555
Ba2 Se33 3.312874 1_555
Ba2 Se42 3.336200 1_565
Ba2 Se7 3.506785 1_555
Ba2 Se10 3.600128 1_555
Ba3 Se21 3.388879 1_655
Ba3 Se49 3.463690 1_654
Ba3 Se47 3.473487 1_655
Ba3 Se43 3.509421 1_555
Ba3 Se5 3.512206 1_554
Ba3 Se36 3.517016 1_555
Ba3 Se13 3.544216 1_555
Ba3 Se11 3.635297 1_555
Ba3 Se20 3.670699 1_654
Ba4 Se14 3.231076 1_555
Ba4 Se28 3.272663 1_555
Ba4 Se45 3.312874 1_455
Ba4 Se21 3.336200 1_555
Ba4 Se44 3.506785 1_555
Ba4 Se27 3.600128 1_455
Ba5 Se12 3.362915 1_545
Ba5 Se51 3.405853 1_655
Ba5 Se44 3.431252 1_645
Ba5 Se2 3.441608 1_555
Ba5 Se15 3.471383 1_555
Ba5 Se17 3.498458 1_655
Ba5 Se4 3.786951 1_555
Ba5 Se29 3.888085 1_545
Ba6 Se51 3.231076 1_555
Ba6 Se17 3.272663 1_555
Ba6 Se9 3.312874 1_555
Ba6 Se48 3.336200 1_545
Ba6 Se46 3.506785 1_555
Ba6 Se15 3.600128 1_555
Ba7 Se9 3.362915 1_555
Ba7 Se6 3.405853 1_555
Ba7 Se46 3.431252 1_555
Ba7 Se29 3.441608 1_555
Ba7 Se27 3.471383 1_555
Ba7 Se28 3.498458 1_555
Ba7 Se40 3.786951 1_555
Ba7 Se2 3.888085 1_555
Ba8 Se30 3.388879 1_455
Ba8 Se12 3.463690 1_455
Ba8 Se38 3.473487 1_455
Ba8 Se8 3.509421 1_555
Ba8 Se6 3.512206 1_555
Ba8 Se32 3.517016 1_555
Ba8 Se24 3.544216 1_555
Ba8 Se33 3.635297 1_555
Ba8 Se40 3.670699 1_455
Ba9 Se16 3.283499 1_555
Ba9 Se42 3.356215 1_555
Ba9 Se26 3.356215 1_555
Ba9 Se10 3.388497 1_545
Ba9 Se0 3.406870 1_555
Ba9 Se25 3.406870 1_555
Ba9 Se34 3.414895 1_555
Ba9 Se19 3.889701 1_545
Ba10 Se28 3.283499 1_555
Ba10 Se48 3.356215 1_555
Ba10 Se23 3.356215 1_555
Ba10 Se15 3.388497 1_565
Ba10 Se29 3.406870 1_555
Ba10 Se18 3.406870 1_555
Ba10 Se44 3.414895 1_555
Ba10 Se17 3.889701 1_565
Ba11 Se22 3.231076 1_555
Ba11 Se16 3.272663 1_555
Ba11 Se3 3.312874 1_655
Ba11 Se30 3.336200 1_555
Ba11 Se34 3.506785 1_555
Ba11 Se37 3.600128 1_655
Ba12 Se47 3.231076 1_555
Ba12 Se17 3.272663 1_555
Ba12 Se11 3.312874 1_555
Ba12 Se23 3.336200 1_545
Ba12 Se46 3.506785 1_555
Ba12 Se15 3.600128 1_555
Ba13 Se17 3.283499 1_555
Ba13 Se21 3.356215 1_555
Ba13 Se50 3.356215 1_555
Ba13 Se27 3.388497 1_455
Ba13 Se13 3.406870 1_455
Ba13 Se2 3.406870 1_455
Ba13 Se46 3.414895 1_555
Ba13 Se28 3.889701 1_555
Ba14 Se42 3.388879 1_555
Ba14 Se9 3.463690 1_555
Ba14 Se22 3.473487 1_555
Ba14 Se32 3.509421 1_545
Ba14 Se51 3.512206 1_555
Ba14 Se8 3.517016 1_555
Ba14 Se25 3.544216 1_555
Ba14 Se3 3.635297 1_555
Ba14 Se4 3.670699 1_555
Ba15 Se50 3.388879 1_655
Ba15 Se3 3.463690 1_655
Ba15 Se51 3.473487 1_655
Ba15 Se40 3.509421 1_555
Ba15 Se22 3.512206 1_555
Ba15 Se4 3.517016 1_555
Ba15 Se2 3.544216 1_555
Ba15 Se9 3.635297 1_555
Ba15 Se8 3.670699 1_655
Ba16 Se49 3.362915 1_565
Ba16 Se31 3.405853 1_455
Ba16 Se34 3.431252 1_465
Ba16 Se1 3.441608 1_555
Ba16 Se10 3.471383 1_555
Ba16 Se19 3.498458 1_455
Ba16 Se41 3.786951 1_555
Ba16 Se0 3.888085 1_565
Ba17 Se33 3.362915 1_555
Ba17 Se22 3.405853 1_555
Ba17 Se7 3.431252 1_555
Ba17 Se25 3.441608 1_555
Ba17 Se37 3.471383 1_555
Ba17 Se16 3.498458 1_555
Ba17 Se8 3.786951 1_555
Ba17 Se24 3.888085 1_555
Ba18 Se23 3.388879 1_555
Ba18 Se35 3.463690 1_554
Ba18 Se14 3.473487 1_555
Ba18 Se36 3.509421 1_565
Ba18 Se31 3.512206 1_554
Ba18 Se43 3.517016 1_555
Ba18 Se18 3.544216 1_555
Ba18 Se45 3.635297 1_555
Ba18 Se41 3.670699 1_554
Ba19 Se48 3.388879 1_555
Ba19 Se33 3.463690 1_555
Ba19 Se6 3.473487 1_555
Ba19 Se4 3.509421 1_565
Ba19 Se38 3.512206 1_555
Ba19 Se40 3.517016 1_555
Ba19 Se29 3.544216 1_555
Ba19 Se12 3.635297 1_555
Ba19 Se32 3.670699 1_555
Ba20 Se31 3.231076 1_555
Ba20 Se19 3.272663 1_555
Ba20 Se35 3.312874 1_555
Ba20 Se26 3.336200 1_565
Ba20 Se7 3.506785 1_555
Ba20 Se10 3.600128 1_555
Ba21 Se35 3.362915 1_555
Ba21 Se5 3.405853 1_555
Ba21 Se7 3.431252 1_555
Ba21 Se0 3.441608 1_555
Ba21 Se37 3.471383 1_555
Ba21 Se16 3.498458 1_555
Ba21 Se20 3.786951 1_555
Ba21 Se1 3.888085 1_555
Ba22 Se39 3.388879 1_455
Ba22 Se45 3.463690 1_456
Ba22 Se31 3.473487 1_455
Ba22 Se20 3.509421 1_555
Ba22 Se14 3.512206 1_556
Ba22 Se41 3.517016 1_555
Ba22 Se1 3.544216 1_555
Ba22 Se35 3.635297 1_555
Ba22 Se43 3.670699 1_456
Ba23 Se6 3.231076 1_555
Ba23 Se28 3.272663 1_555
Ba23 Se12 3.312874 1_455
Ba23 Se50 3.336200 1_555
Ba23 Se44 3.506785 1_555
Ba23 Se27 3.600128 1_455
Ba24 Se3 3.362915 1_565
Ba24 Se38 3.405853 1_455
Ba24 Se34 3.431252 1_465
Ba24 Se24 3.441608 1_555
Ba24 Se10 3.471383 1_555
Ba24 Se19 3.498458 1_455
Ba24 Se32 3.786951 1_555
Ba24 Se25 3.888085 1_565
Ba25 Se19 3.283499 1_555
Ba25 Se39 3.356215 1_555
Ba25 Se30 3.356215 1_555
Ba25 Se37 3.388497 1_655
Ba25 Se24 3.406870 1_655
Ba25 Se1 3.406870 1_655
Ba25 Se7 3.414895 1_555
Ba25 Se16 3.889701 1_555
Ba26 Se11 3.362915 1_555
Ba26 Se14 3.405853 1_555
Ba26 Se46 3.431252 1_555
Ba26 Se18 3.441608 1_555
Ba26 Se27 3.471383 1_555
Ba26 Se28 3.498458 1_555
Ba26 Se43 3.786951 1_555
Ba26 Se13 3.888085 1_555
Ba27 Se26 3.388879 1_555
Ba27 Se11 3.463690 1_556
Ba27 Se5 3.473487 1_555
Ba27 Se41 3.509421 1_545
Ba27 Se47 3.512206 1_556
Ba27 Se20 3.517016 1_555
Ba27 Se0 3.544216 1_555
Ba27 Se49 3.635297 1_555
Ba27 Se36 3.670699 1_556
Se0 Sn6 2.522228 1_555
Se1 Sn10 2.522228 1_555
Se2 Sn5 2.522228 1_555
Se3 Sn1 2.558404 1_455
Se4 Sn1 2.561724 1_555
Se5 Sn9 2.574735 1_555
Se6 Sn4 2.574735 1_555
Se7 Sn10 2.566024 1_555
Se8 Sn4 2.561724 1_555
Se9 Sn4 2.558404 1_555
Se10 Sn10 2.580134 1_555
Se11 Sn11 2.558404 1_555
Se12 Sn3 2.558404 1_655
Se13 Sn5 2.522228 1_555
Se14 Sn11 2.574735 1_555
Se15 Sn5 2.580134 1_555
Se18 Sn2 2.522228 1_555
Se20 Sn11 2.561724 1_556
Se21 Sn11 2.567360 1_555
Se22 Sn7 2.574735 1_555
Se23 Sn8 2.567360 1_555
Se24 Sn10 2.522228 1_555
Se25 Sn6 2.522228 1_555
Se26 Sn0 2.567360 1_555
Se27 Sn2 2.580134 1_555
Se29 Sn2 2.522228 1_555
Se30 Sn7 2.567360 1_555
Se31 Sn0 2.574735 1_565
Se32 Sn3 2.561724 1_555
Se33 Sn7 2.558404 1_555
Se34 Sn6 2.566024 1_655
Se35 Sn9 2.558404 1_555
Se36 Sn0 2.561724 1_554
Se37 Sn6 2.580134 1_555
Se38 Sn1 2.574735 1_565
Se39 Sn9 2.567360 1_555
Se40 Sn7 2.561724 1_555
Se41 Sn8 2.561724 1_556
Se42 Sn1 2.567360 1_555
Se43 Sn9 2.561724 1_554
Se44 Sn2 2.566024 1_455
Se45 Sn8 2.558404 1_655
Se46 Sn5 2.566024 1_555
Se47 Sn8 2.574735 1_545
Se48 Sn3 2.567360 1_555
Se49 Sn0 2.558404 1_455
Se50 Sn4 2.567360 1_555
Se51 Sn3 2.574735 1_545
