# generated using pymatgen
data_CsAuN12
_symmetry_space_group_name_H-M   'P 1'
_cell_length_a   7.68339325
_cell_length_b   7.68339325
_cell_length_c   8.88424967
_cell_angle_alpha   89.16079216
_cell_angle_beta   89.16079216
_cell_angle_gamma   93.59806895
_symmetry_Int_Tables_number   1
_chemical_formula_structural   CsAuN12
_chemical_formula_sum   'Cs2 Au2 N24'
_cell_volume   523.32387344
_cell_formula_units_Z   2
loop_
 _symmetry_equiv_pos_site_id
 _symmetry_equiv_pos_as_xyz
  1  'x, y, z'
loop_
 _atom_site_type_symbol
 _atom_site_label
 _atom_site_symmetry_multiplicity
 _atom_site_fract_x
 _atom_site_fract_y
 _atom_site_fract_z
 _atom_site_occupancy
  Cs  Cs0  1  0.08442800  0.91557200  0.25000000  1
  Cs  Cs1  1  0.91557200  0.08442800  0.75000000  1
  Au  Au0  1  0.49335300  0.50664700  0.25000000  1
  Au  Au1  1  0.50664700  0.49335300  0.75000000  1
  N  N0  1  0.10336900  0.30065000  0.03332000  1
  N  N1  1  0.30065000  0.10336900  0.53332000  1
  N  N2  1  0.60782800  0.17957800  0.13782700  1
  N  N3  1  0.39217200  0.82042200  0.86217300  1
  N  N4  1  0.23968600  0.53000000  0.17409000  1
  N  N5  1  0.74566400  0.52104800  0.32654700  1
  N  N6  1  0.09373100  0.71949100  0.60053100  1
  N  N7  1  0.89663100  0.69935000  0.96668000  1
  N  N8  1  0.47000000  0.76031400  0.32591000  1
  N  N9  1  0.17442300  0.41007100  0.10226500  1
  N  N10  1  0.82042200  0.39217200  0.36217300  1
  N  N11  1  0.17957800  0.60782800  0.63782700  1
  N  N12  1  0.58992900  0.82557700  0.39773500  1
  N  N13  1  0.82557700  0.58992900  0.89773500  1
  N  N14  1  0.69935000  0.89663100  0.46668000  1
  N  N15  1  0.90626900  0.28050900  0.39946900  1
  N  N16  1  0.28050900  0.90626900  0.89946900  1
  N  N17  1  0.47895200  0.25433600  0.17345300  1
  N  N18  1  0.76031400  0.47000000  0.82591000  1
  N  N19  1  0.53000000  0.23968600  0.67409000  1
  N  N20  1  0.41007100  0.17442300  0.60226500  1
  N  N21  1  0.71949100  0.09373100  0.10053100  1
  N  N22  1  0.52104800  0.74566400  0.82654700  1
  N  N23  1  0.25433600  0.47895200  0.67345300  1
loop_
_geom_bond_atom_site_label_1
_geom_bond_atom_site_label_2
_geom_bond_distance
_geom_bond_site_symmetry_2
Cs0 N7 3.332525 1_454
Cs0 N1 3.332525 1_565
Cs0 N8 3.336583 1_555
Cs0 N4 3.336583 1_555
Cs0 N16 3.443215 1_554
Cs0 N6 3.443215 1_555
Cs0 N15 3.469424 1_465
Cs0 N21 3.469424 1_465
Cs0 N14 3.500258 1_455
Cs0 N0 3.500258 1_565
Cs1 N0 3.332525 1_656
Cs1 N14 3.332525 1_545
Cs1 N18 3.336583 1_555
Cs1 N19 3.336583 1_555
Cs1 N15 3.443215 1_555
Cs1 N21 3.443215 1_556
Cs1 N16 3.469424 1_645
Cs1 N6 3.469424 1_645
Cs1 N7 3.500258 1_545
Cs1 N1 3.500258 1_655
Au0 N17 2.060780 1_555
Au0 N5 2.060780 1_555
Au0 N4 2.089153 1_555
Au0 N8 2.089153 1_555
Au1 N23 2.060780 1_555
Au1 N22 2.060780 1_555
Au1 N19 2.089153 1_555
Au1 N18 2.089153 1_555
N0 N9 1.160742 1_555
N1 N20 1.160742 1_555
N2 N21 1.161912 1_555
N4 N9 1.215040 1_555
N10 N15 1.161912 1_555
N10 N5 1.215791 1_555
N11 N6 1.161912 1_555
N11 N23 1.215791 1_555
N12 N14 1.160742 1_555
N12 N8 1.215040 1_555
N13 N7 1.160742 1_555
N13 N18 1.215040 1_555
N16 N3 1.161912 1_555
N17 N2 1.215791 1_555
N19 N20 1.215040 1_555
N22 N3 1.215791 1_555
