# generated using pymatgen
data_Hg4I7
_symmetry_space_group_name_H-M   'P 1'
_cell_length_a   9.51254700
_cell_length_b   9.51254700
_cell_length_c   6.58388700
_cell_angle_alpha   90.00000000
_cell_angle_beta   90.00000000
_cell_angle_gamma   90.00000000
_symmetry_Int_Tables_number   1
_chemical_formula_structural   Hg4I7
_chemical_formula_sum   'Hg4 I7'
_cell_volume   595.76639081
_cell_formula_units_Z   1
loop_
 _symmetry_equiv_pos_site_id
 _symmetry_equiv_pos_as_xyz
  1  'x, y, z'
loop_
 _atom_site_type_symbol
 _atom_site_label
 _atom_site_symmetry_multiplicity
 _atom_site_fract_x
 _atom_site_fract_y
 _atom_site_fract_z
 _atom_site_occupancy
  Hg  Hg0  1  0.00000000  0.27217600  0.22995300  1
  Hg  Hg1  1  0.72782400  0.00000000  0.77004700  1
  Hg  Hg2  1  0.27217600  0.00000000  0.77004700  1
  Hg  Hg3  1  0.00000000  0.72782400  0.22995300  1
  I  I0  1  0.25614800  0.25614800  0.00000000  1
  I  I1  1  0.74385200  0.74385200  0.00000000  1
  I  I2  1  0.50000000  0.00000000  0.48112400  1
  I  I3  1  0.00000000  0.50000000  0.51887600  1
  I  I4  1  0.00000000  0.00000000  0.50000000  1
  I  I5  1  0.74385200  0.25614800  0.00000000  1
  I  I6  1  0.25614800  0.74385200  0.00000000  1
loop_
_geom_bond_atom_site_label_1
_geom_bond_atom_site_label_2
_geom_bond_distance
_geom_bond_site_symmetry_2
Hg0 I0 2.872719 1_555
Hg0 I5 2.872719 1_455
Hg0 I3 2.883609 1_555
Hg0 I4 3.140782 1_555
Hg1 I5 2.872719 1_556
Hg1 I1 2.872719 1_546
Hg1 I2 2.883609 1_555
Hg1 I4 3.140782 1_655
Hg2 I0 2.872719 1_556
Hg2 I6 2.872719 1_546
Hg2 I2 2.883609 1_555
Hg2 I4 3.140782 1_555
Hg3 I1 2.872719 1_455
Hg3 I6 2.872719 1_555
Hg3 I3 2.883609 1_555
Hg3 I4 3.140782 1_565
