# generated using pymatgen
data_La6P17Pd6
_symmetry_space_group_name_H-M   'P 1'
_cell_length_a   9.06738160
_cell_length_b   9.06738160
_cell_length_c   9.06738160
_cell_angle_alpha   109.47122063
_cell_angle_beta   109.47122063
_cell_angle_gamma   109.47122063
_symmetry_Int_Tables_number   1
_chemical_formula_structural   La6P17Pd6
_chemical_formula_sum   'La6 P17 Pd6'
_cell_volume   573.88356820
_cell_formula_units_Z   1
loop_
 _symmetry_equiv_pos_site_id
 _symmetry_equiv_pos_as_xyz
  1  'x, y, z'
loop_
 _atom_site_type_symbol
 _atom_site_label
 _atom_site_symmetry_multiplicity
 _atom_site_fract_x
 _atom_site_fract_y
 _atom_site_fract_z
 _atom_site_occupancy
  La  La0  1  0.28552207  0.28552207  -0.00000000  1
  La  La1  1  0.00000000  0.71447793  0.71447793  1
  La  La2  1  -0.00000000  0.28552207  0.28552207  1
  La  La3  1  0.28552207  -0.00000000  0.28552207  1
  La  La4  1  0.71447793  -0.00000000  0.71447793  1
  La  La5  1  0.71447793  0.71447793  -0.00000000  1
  P  P0  1  0.63737018  0.41760728  0.63737018  1
  P  P1  1  0.78023710  0.00000000  0.36262982  1
  P  P2  1  0.36262982  0.00000000  0.78023710  1
  P  P3  1  0.78023710  0.36262982  -0.00000000  1
  P  P4  1  0.21976290  0.21976290  0.58239272  1
  P  P5  1  0.58239272  0.21976290  0.21976290  1
  P  P6  1  -0.00000000  0.36262982  0.78023710  1
  P  P7  1  -0.00000000  0.78023710  0.36262982  1
  P  P8  1  0.36262982  0.78023710  0.00000000  1
  P  P9  1  0.63737018  0.63737018  0.41760728  1
  P  P10  1  0.41760728  0.63737018  0.63737018  1
  P  P11  1  0.21976290  0.58239272  0.21976290  1
  P  P12  1  0.43749850  0.43749850  0.43749850  1
  P  P13  1  -0.00000000  -0.00000000  0.56250150  1
  P  P14  1  0.56250150  -0.00000000  0.00000000  1
  P  P15  1  0.00000000  0.56250150  0.00000000  1
  P  P16  1  0.00000000  -0.00000000  -0.00000000  1
  Pd  Pd0  1  0.25000000  0.75000000  0.50000000  1
  Pd  Pd1  1  0.50000000  0.25000000  0.75000000  1
  Pd  Pd2  1  0.50000000  0.75000000  0.25000000  1
  Pd  Pd3  1  0.25000000  0.50000000  0.75000000  1
  Pd  Pd4  1  0.75000000  0.50000000  0.25000000  1
  Pd  Pd5  1  0.75000000  0.25000000  0.50000000  1
loop_
_geom_bond_atom_site_label_1
_geom_bond_atom_site_label_2
_geom_bond_distance
_geom_bond_site_symmetry_2
La0 P16 2.989448 1_555
La0 P11 3.139816 1_555
La0 P2 3.139816 1_554
La0 P6 3.139816 1_554
La0 P5 3.139816 1_555
La0 P13 3.313605 1_554
La0 P12 3.313605 1_555
La0 P9 3.435403 1_555
La0 P4 3.435403 1_554
La0 Pd3 3.448798 1_554
La0 Pd1 3.448798 1_554
La0 Pd2 3.448798 1_555
La0 Pd4 3.448798 1_555
La1 P16 2.989448 1_566
La1 P2 3.139816 1_565
La1 P0 3.139816 1_455
La1 P9 3.139816 1_455
La1 P8 3.139816 1_556
La1 P13 3.313605 1_565
La1 P15 3.313605 1_556
La1 P6 3.435403 1_555
La1 P7 3.435403 1_555
La1 Pd3 3.448798 1_555
La1 Pd0 3.448798 1_555
La1 Pd4 3.448798 1_455
La1 Pd5 3.448798 1_455
La2 P16 2.989448 1_555
La2 P1 3.139816 1_455
La2 P11 3.139816 1_555
La2 P4 3.139816 1_555
La2 P3 3.139816 1_455
La2 P14 3.313605 1_455
La2 P12 3.313605 1_555
La2 P10 3.435403 1_555
La2 P5 3.435403 1_455
La2 Pd3 3.448798 1_555
La2 Pd5 3.448798 1_455
La2 Pd0 3.448798 1_555
La2 Pd4 3.448798 1_455
La3 P16 2.989448 1_555
La3 P8 3.139816 1_545
La3 P4 3.139816 1_555
La3 P7 3.139816 1_545
La3 P5 3.139816 1_555
La3 P15 3.313605 1_545
La3 P12 3.313605 1_555
La3 P0 3.435403 1_555
La3 P11 3.435403 1_545
La3 Pd2 3.448798 1_545
La3 Pd1 3.448798 1_555
La3 Pd0 3.448798 1_545
La3 Pd5 3.448798 1_555
La4 P16 2.989448 1_656
La4 P10 3.139816 1_545
La4 P9 3.139816 1_545
La4 P6 3.139816 1_655
La4 P3 3.139816 1_556
La4 P14 3.313605 1_556
La4 P13 3.313605 1_655
La4 P2 3.435403 1_555
La4 P1 3.435403 1_555
La4 Pd0 3.448798 1_545
La4 Pd5 3.448798 1_555
La4 Pd2 3.448798 1_545
La4 Pd1 3.448798 1_555
La5 P16 2.989448 1_665
La5 P10 3.139816 1_554
La5 P7 3.139816 1_655
La5 P1 3.139816 1_565
La5 P0 3.139816 1_554
La5 P14 3.313605 1_565
La5 P15 3.313605 1_655
La5 P8 3.435403 1_555
La5 P3 3.435403 1_555
La5 Pd3 3.448798 1_554
La5 Pd4 3.448798 1_555
La5 Pd1 3.448798 1_554
La5 Pd2 3.448798 1_555
P0 P12 2.201741 1_555
P0 Pd5 2.350507 1_555
P0 Pd1 2.350507 1_555
P1 P13 2.201741 1_655
P1 Pd5 2.350507 1_555
P1 Pd2 2.350507 1_545
P2 Pd1 2.350507 1_555
P2 Pd0 2.350507 1_545
P3 Pd4 2.350507 1_555
P3 Pd1 2.350507 1_554
P4 Pd1 2.350507 1_555
P4 Pd3 2.350507 1_555
P5 Pd5 2.350507 1_555
P5 Pd4 2.350507 1_555
P6 Pd3 2.350507 1_555
P6 Pd5 2.350507 1_455
P7 Pd0 2.350507 1_555
P7 Pd4 2.350507 1_455
P8 Pd2 2.350507 1_555
P8 Pd3 2.350507 1_554
P9 Pd2 2.350507 1_555
P9 Pd4 2.350507 1_555
P10 P12 2.201741 1_555
P10 Pd0 2.350507 1_555
P10 Pd3 2.350507 1_555
P11 P15 2.201741 1_555
P11 Pd0 2.350507 1_555
P11 Pd2 2.350507 1_555
P12 P9 2.201741 1_555
P13 P7 2.201741 1_545
P13 P4 2.201741 1_555
P14 P2 2.201741 1_554
P14 P8 2.201741 1_545
P14 P5 2.201741 1_555
P15 P3 2.201741 1_455
P15 P6 2.201741 1_554
