# generated using pymatgen
data_Na2EuC(OF)3
_symmetry_space_group_name_H-M   'P 1'
_cell_length_a   6.71717227
_cell_length_b   11.00147244
_cell_length_c   14.38695171
_cell_angle_alpha   90.00000000
_cell_angle_beta   90.00000000
_cell_angle_gamma   90.00000000
_symmetry_Int_Tables_number   1
_chemical_formula_structural   Na2EuC(OF)3
_chemical_formula_sum   'Na16 Eu8 C8 O24 F24'
_cell_volume   1063.17825990
_cell_formula_units_Z   8
loop_
 _symmetry_equiv_pos_site_id
 _symmetry_equiv_pos_as_xyz
  1  'x, y, z'
loop_
 _atom_site_type_symbol
 _atom_site_label
 _atom_site_symmetry_multiplicity
 _atom_site_fract_x
 _atom_site_fract_y
 _atom_site_fract_z
 _atom_site_occupancy
  Eu  Eu0  1  0.00297091  0.68648406  0.48733932  1
  Eu  Eu1  1  0.00297091  0.81351594  0.98733932  1
  Eu  Eu2  1  0.50297091  0.81351594  0.51266068  1
  Eu  Eu3  1  0.99702909  0.31351594  0.51266068  1
  Eu  Eu4  1  0.49702909  0.31351594  0.98733932  1
  Eu  Eu5  1  0.50297091  0.68648406  0.01266068  1
  Eu  Eu6  1  0.49702909  0.18648406  0.48733932  1
  Eu  Eu7  1  0.99702909  0.18648406  0.01266068  1
  Na  Na0  1  0.94500549  0.00840277  0.39554938  1
  Na  Na1  1  0.74556530  0.28014975  0.24327537  1
  Na  Na2  1  0.44500549  0.49159723  0.60445062  1
  Na  Na3  1  0.24556530  0.28014975  0.25672463  1
  Na  Na4  1  0.25443470  0.78014975  0.25672463  1
  Na  Na5  1  0.74556530  0.21985025  0.74327537  1
  Na  Na6  1  0.24556530  0.21985025  0.75672463  1
  Na  Na7  1  0.05499451  0.50840277  0.10445062  1
  Na  Na8  1  0.55499451  0.50840277  0.39554938  1
  Na  Na9  1  0.44500549  0.00840277  0.10445062  1
  Na  Na10  1  0.55499451  0.99159723  0.89554938  1
  Na  Na11  1  0.75443470  0.78014975  0.24327537  1
  Na  Na12  1  0.05499451  0.99159723  0.60445062  1
  Na  Na13  1  0.94500549  0.49159723  0.89554938  1
  Na  Na14  1  0.75443470  0.71985025  0.74327537  1
  Na  Na15  1  0.25443470  0.71985025  0.75672463  1
  C  C0  1  0.50026223  0.98430226  0.67848766  1
  C  C1  1  1.00026223  0.98430226  0.82151234  1
  C  C2  1  0.49973777  0.48430226  0.82151234  1
  C  C3  1  0.50026223  0.51569774  0.17848766  1
  C  C4  1  -0.00026223  0.48430226  0.67848766  1
  C  C5  1  0.49973777  0.01569774  0.32151234  1
  C  C6  1  -0.00026223  0.01569774  0.17848766  1
  C  C7  1  1.00026223  0.51569774  0.32151234  1
  O  O0  1  0.94510339  0.12706894  0.19009725  1
  O  O1  1  0.05489661  0.62706894  0.30990275  1
  O  O2  1  0.55489661  0.87293106  0.69009725  1
  O  O3  1  0.44510339  0.12706894  0.30990275  1
  O  O4  1  0.05489661  0.87293106  0.80990275  1
  O  O5  1  0.93209642  0.01267710  0.90412545  1
  O  O6  1  0.49315700  0.93670687  0.25652995  1
  O  O7  1  0.43209642  0.01267710  0.59587455  1
  O  O8  1  0.94510339  0.37293106  0.69009725  1
  O  O9  1  0.06790358  0.51267710  0.59587455  1
  O  O10  1  0.56790358  0.51267710  0.90412545  1
  O  O11  1  0.93209642  0.48732290  0.40412545  1
  O  O12  1  0.44510339  0.37293106  0.80990275  1
  O  O13  1  0.56790358  0.98732290  0.40412545  1
  O  O14  1  0.55489661  0.62706894  0.19009725  1
  O  O15  1  0.00684300  0.06329313  0.75652995  1
  O  O16  1  0.99315700  0.93670687  0.24347005  1
  O  O17  1  0.43209642  0.48732290  0.09587455  1
  O  O18  1  0.49315700  0.56329313  0.75652995  1
  O  O19  1  0.50684300  0.06329313  0.74347005  1
  O  O20  1  0.99315700  0.56329313  0.74347005  1
  O  O21  1  0.50684300  0.43670687  0.24347005  1
  O  O22  1  0.00684300  0.43670687  0.25652995  1
  O  O23  1  0.06790358  0.98732290  0.09587455  1
  F  F0  1  0.80288166  0.28343807  0.89461969  1
  F  F1  1  0.19711834  0.71656193  0.10538031  1
  F  F2  1  0.30288166  0.21656193  0.10538031  1
  F  F3  1  0.69711834  0.78343807  0.89461969  1
  F  F4  1  0.20813934  0.83669162  0.41545710  1
  F  F5  1  0.65157859  0.12041958  0.01832064  1
  F  F6  1  0.69711834  0.71656193  0.39461969  1
  F  F7  1  0.65157859  0.37958042  0.51832064  1
  F  F8  1  0.79186066  0.16330838  0.58454290  1
  F  F9  1  0.34842141  0.87958042  0.98167936  1
  F  F10  1  0.29186066  0.33669162  0.41545710  1
  F  F11  1  0.15157859  0.12041958  0.48167936  1
  F  F12  1  0.80288166  0.21656193  0.39461969  1
  F  F13  1  0.15157859  0.37958042  0.98167936  1
  F  F14  1  0.84842141  0.62041958  0.01832064  1
  F  F15  1  0.70813934  0.83669162  0.08454290  1
  F  F16  1  0.70813934  0.66330838  0.58454290  1
  F  F17  1  0.34842141  0.62041958  0.48167936  1
  F  F18  1  0.79186066  0.33669162  0.08454290  1
  F  F19  1  0.29186066  0.16330838  0.91545710  1
  F  F20  1  0.20813934  0.66330838  0.91545710  1
  F  F21  1  0.19711834  0.78343807  0.60538031  1
  F  F22  1  0.84842141  0.87958042  0.51832064  1
  F  F23  1  0.30288166  0.28343807  0.60538031  1
loop_
_geom_bond_atom_site_label_1
_geom_bond_atom_site_label_2
_geom_bond_distance
_geom_bond_site_symmetry_2
Eu0 F4 2.387378 1_555
Eu0 F21 2.392175 1_555
Eu0 F22 2.406083 1_455
Eu0 F17 2.432975 1_555
Eu0 F16 2.437792 1_455
Eu0 F6 2.471791 1_455
Eu0 O9 2.506939 1_555
Eu0 O11 2.541789 1_455
Eu0 O1 2.658113 1_555
Eu1 F20 2.387378 1_555
Eu1 F1 2.392175 1_556
Eu1 F14 2.406083 1_456
Eu1 F9 2.432975 1_555
Eu1 F15 2.437792 1_456
Eu1 F3 2.471791 1_455
Eu1 O23 2.506939 1_556
Eu1 O5 2.541789 1_465
Eu1 O4 2.658113 1_555
Eu2 F16 2.387378 1_555
Eu2 F6 2.392175 1_555
Eu2 F17 2.406083 1_555
Eu2 F22 2.432975 1_555
Eu2 F4 2.437792 1_555
Eu2 F21 2.471791 1_555
Eu2 O13 2.506939 1_555
Eu2 O7 2.541789 1_565
Eu2 O2 2.658113 1_555
Eu3 F8 2.387378 1_555
Eu3 F12 2.392175 1_555
Eu3 F11 2.406083 1_655
Eu3 F7 2.432975 1_555
Eu3 F10 2.437792 1_655
Eu3 F23 2.471791 1_655
Eu3 O11 2.506939 1_555
Eu3 O9 2.541789 1_655
Eu3 O8 2.658113 1_555
Eu4 F19 2.387378 1_555
Eu4 F2 2.392175 1_556
Eu4 F5 2.406083 1_556
Eu4 F13 2.432975 1_555
Eu4 F18 2.437792 1_556
Eu4 F0 2.471791 1_555
Eu4 O17 2.506939 1_556
Eu4 O10 2.541789 1_555
Eu4 O12 2.658113 1_555
Eu5 F15 2.387378 1_555
Eu5 F3 2.392175 1_554
Eu5 F9 2.406083 1_554
Eu5 F14 2.432975 1_555
Eu5 F20 2.437792 1_554
Eu5 F1 2.471791 1_555
Eu5 O10 2.506939 1_554
Eu5 O17 2.541789 1_555
Eu5 O14 2.658113 1_555
Eu6 F10 2.387378 1_555
Eu6 F23 2.392175 1_555
Eu6 F7 2.406083 1_555
Eu6 F11 2.432975 1_555
Eu6 F8 2.437792 1_555
Eu6 F12 2.471791 1_555
Eu6 O7 2.506939 1_555
Eu6 O13 2.541789 1_545
Eu6 O3 2.658113 1_555
Eu7 F18 2.387378 1_555
Eu7 F0 2.392175 1_554
Eu7 F13 2.406083 1_654
Eu7 F5 2.432975 1_555
Eu7 F19 2.437792 1_654
Eu7 F2 2.471791 1_655
Eu7 O5 2.506939 1_554
Eu7 O23 2.541789 1_645
Eu7 O0 2.658113 1_555
Na0 O16 2.348173 1_545
Na0 O13 2.546643 1_545
Na1 O0 2.284308 1_555
Na1 O21 2.353267 1_555
Na1 O22 2.466389 1_655
Na1 O3 2.797935 1_555
Na2 O18 2.348173 1_555
Na2 O9 2.546643 1_555
Na3 O3 2.284308 1_555
Na3 O22 2.353267 1_555
Na3 O21 2.466389 1_555
Na3 O0 2.797935 1_455
Na4 O1 2.284308 1_555
Na4 O6 2.353267 1_555
Na4 O16 2.466389 1_455
Na4 O14 2.797935 1_555
Na5 O8 2.284308 1_555
Na5 O19 2.353267 1_555
Na5 O15 2.466389 1_655
Na5 O12 2.797935 1_555
Na6 O12 2.284308 1_555
Na6 O15 2.353267 1_555
Na6 O19 2.466389 1_555
Na6 O8 2.797935 1_455
Na7 O22 2.348173 1_555
Na7 O17 2.546643 1_555
Na8 O21 2.348173 1_555
Na8 O11 2.546643 1_555
Na9 O6 2.348173 1_545
Na9 O23 2.546643 1_545
Na10 O19 2.348173 1_565
Na10 O5 2.546643 1_565
Na11 O14 2.284308 1_555
Na11 O16 2.353267 1_555
Na11 O6 2.466389 1_555
Na11 O1 2.797935 1_655
Na12 O15 2.348173 1_565
Na12 O7 2.546643 1_565
Na13 O20 2.348173 1_555
Na13 O10 2.546643 1_555
Na14 O2 2.284308 1_555
Na14 O20 2.353267 1_555
Na14 O18 2.466389 1_555
Na14 O4 2.797935 1_655
Na15 O4 2.284308 1_555
Na15 O18 2.353267 1_555
Na15 O20 2.466389 1_455
Na15 O2 2.797935 1_555
C0 O19 1.277176 1_565
C0 O2 1.289887 1_555
C0 O7 1.311394 1_565
C1 O15 1.277176 1_665
C1 O4 1.289887 1_655
C1 O5 1.311394 1_565
C2 O18 1.277176 1_555
C2 O12 1.289887 1_555
C2 O10 1.311394 1_555
C3 O21 1.277176 1_555
C3 O14 1.289887 1_555
C3 O17 1.311394 1_555
C4 O20 1.277176 1_455
C4 O8 1.289887 1_455
C4 O9 1.311394 1_555
C5 O6 1.277176 1_545
C5 O3 1.289887 1_555
C5 O13 1.311394 1_545
C6 O16 1.277176 1_445
C6 O0 1.289887 1_455
C6 O23 1.311394 1_545
C7 O22 1.277176 1_655
C7 O1 1.289887 1_655
C7 O11 1.311394 1_555
F0 Na5 2.319183 1_555
F0 Na13 2.481116 1_555
F1 Na4 2.319183 1_555
F1 Na7 2.481116 1_555
F2 Na3 2.319183 1_555
F2 Na9 2.481116 1_555
F3 Na14 2.319183 1_555
F3 Na10 2.481116 1_555
F4 Na4 2.387220 1_555
F4 Na0 2.602835 1_465
F5 Na9 2.231495 1_555
F5 Na10 2.355694 1_544
F6 Na11 2.319183 1_555
F6 Na8 2.481116 1_555
F7 Na2 2.231495 1_555
F7 Na8 2.355694 1_555
F8 Na5 2.387220 1_555
F8 Na12 2.602835 1_645
F9 Na10 2.231495 1_555
F9 Na9 2.355694 1_566
F10 Na3 2.387220 1_555
F10 Na8 2.602835 1_555
F11 Na0 2.231495 1_455
F11 Na12 2.355694 1_545
F12 Na1 2.319183 1_555
F12 Na0 2.481116 1_555
F13 Na13 2.231495 1_455
F13 Na7 2.355694 1_556
F14 Na7 2.231495 1_655
F14 Na13 2.355694 1_554
F15 Na11 2.387220 1_555
F15 Na9 2.602835 1_565
F16 Na14 2.387220 1_555
F16 Na2 2.602835 1_555
F17 Na8 2.231495 1_555
F17 Na2 2.355694 1_555
F18 Na1 2.387220 1_555
F18 Na7 2.602835 1_655
F19 Na6 2.387220 1_555
F19 Na10 2.602835 1_545
F20 Na15 2.387220 1_555
F20 Na13 2.602835 1_455
F21 Na15 2.319183 1_555
F21 Na12 2.481116 1_555
F22 Na12 2.231495 1_655
F22 Na0 2.355694 1_565
F23 Na6 2.319183 1_555
F23 Na2 2.481116 1_555
