# generated using pymatgen
data_Ba7Ru4Cl2O15
_symmetry_space_group_name_H-M   'P 1'
_cell_length_a   17.74166499
_cell_length_b   17.74166499
_cell_length_c   17.74166446
_cell_angle_alpha   19.09695442
_cell_angle_beta   19.09695442
_cell_angle_gamma   19.09695177
_symmetry_Int_Tables_number   1
_chemical_formula_structural   Ba7Ru4Cl2O15
_chemical_formula_sum   'Ba7 Ru4 Cl2 O15'
_cell_volume   522.46308117
_cell_formula_units_Z   1
loop_
 _symmetry_equiv_pos_site_id
 _symmetry_equiv_pos_as_xyz
  1  'x, y, z'
loop_
 _atom_site_type_symbol
 _atom_site_label
 _atom_site_symmetry_multiplicity
 _atom_site_fract_x
 _atom_site_fract_y
 _atom_site_fract_z
 _atom_site_occupancy
  Ba  Ba0  1  0.71377700  0.71377700  0.71377700  1
  Ba  Ba1  1  0.08382200  0.08382200  0.08382200  1
  Ba  Ba2  1  0.20599600  0.20599600  0.20599600  1
  Ba  Ba3  1  0.91617800  0.91617800  0.91617800  1
  Ba  Ba4  1  0.28622300  0.28622300  0.28622300  1
  Ba  Ba5  1  0.00000000  0.00000000  0.00000000  1
  Ba  Ba6  1  0.79400400  0.79400400  0.79400400  1
  Ru  Ru0  1  0.40607500  0.40607500  0.40607500  1
  Ru  Ru1  1  0.64578000  0.64578000  0.64578000  1
  Ru  Ru2  1  0.59392500  0.59392500  0.59392500  1
  Ru  Ru3  1  0.35422000  0.35422000  0.35422000  1
  Cl  Cl0  1  0.85569100  0.85569100  0.85569100  1
  Cl  Cl1  1  0.14430900  0.14430900  0.14430900  1
  O  O0  1  0.31626700  0.77356500  0.77356500  1
  O  O1  1  0.58520500  0.58520500  0.10440200  1
  O  O2  1  0.89559800  0.41479500  0.41479500  1
  O  O3  1  0.58520500  0.10440200  0.58520500  1
  O  O4  1  0.41479500  0.41479500  0.89559800  1
  O  O5  1  0.68373300  0.22643500  0.22643500  1
  O  O6  1  0.10440200  0.58520500  0.58520500  1
  O  O7  1  0.50000000  0.00000000  0.50000000  1
  O  O8  1  0.22643500  0.68373300  0.22643500  1
  O  O9  1  0.77356500  0.31626700  0.77356500  1
  O  O10  1  0.22643500  0.22643500  0.68373300  1
  O  O11  1  0.41479500  0.89559800  0.41479500  1
  O  O12  1  0.77356500  0.77356500  0.31626700  1
  O  O13  1  0.00000000  0.50000000  0.50000000  1
  O  O14  1  0.50000000  0.50000000  0.00000000  1
loop_
_geom_bond_atom_site_label_1
_geom_bond_atom_site_label_2
_geom_bond_distance
_geom_bond_site_symmetry_2
Ba0 O1 2.918145 1_556
Ba0 O3 2.918146 1_565
Ba0 O6 2.918146 1_655
Ba0 O10 2.947748 1_565
Ba0 O10 2.947748 1_655
Ba0 O8 2.947749 1_655
Ba0 O5 2.947749 1_565
Ba0 O5 2.947749 1_556
Ba0 O8 2.947749 1_556
Ba0 O13 2.990609 1_655
Ba0 O7 2.990609 1_565
Ba0 O14 2.990610 1_556
Ba1 O10 2.720633 1_554
Ba1 O8 2.720633 1_545
Ba1 O5 2.720633 1_455
Ba1 O1 2.971684 1_545
Ba1 O1 2.971684 1_455
Ba1 O6 2.971684 1_545
Ba1 O3 2.971684 1_455
Ba1 O6 2.971684 1_554
Ba1 O3 2.971684 1_554
Ba1 Cl1 3.159810 1_555
Ba2 O2 2.568582 1_455
Ba2 O11 2.568582 1_545
Ba2 O4 2.568583 1_554
Ba2 Cl1 3.222497 1_555
Ba2 Cl0 3.512059 1_454
Ba2 Cl0 3.512059 1_544
Ba2 Cl0 3.512059 1_445
Ba3 O12 2.720633 1_556
Ba3 O0 2.720633 1_655
Ba3 O9 2.720633 1_565
Ba3 O4 2.971684 1_565
Ba3 O4 2.971684 1_655
Ba3 O11 2.971684 1_655
Ba3 O2 2.971684 1_565
Ba3 O2 2.971684 1_556
Ba3 O11 2.971684 1_556
Ba3 Cl0 3.159810 1_555
Ba4 O4 2.918145 1_554
Ba4 O2 2.918146 1_455
Ba4 O11 2.918146 1_545
Ba4 O12 2.947748 1_545
Ba4 O12 2.947748 1_455
Ba4 O0 2.947749 1_545
Ba4 O9 2.947749 1_455
Ba4 O0 2.947749 1_554
Ba4 O9 2.947749 1_554
Ba4 O13 2.990609 1_555
Ba4 O7 2.990609 1_555
Ba4 O14 2.990610 1_555
Ba5 O14 2.943023 1_455
Ba5 O14 2.943023 1_545
Ba5 O13 2.943023 1_545
Ba5 O13 2.943023 1_554
Ba5 O7 2.943023 1_455
Ba5 O7 2.943023 1_554
Ba5 O8 3.009900 1_545
Ba5 O5 3.009900 1_455
Ba5 O9 3.009900 1_454
Ba5 O0 3.009900 1_544
Ba5 O10 3.009900 1_554
Ba5 O12 3.009900 1_445
Ba6 O3 2.568582 1_565
Ba6 O6 2.568582 1_655
Ba6 O1 2.568583 1_556
Ba6 Cl0 3.222497 1_555
Ba6 Cl1 3.512059 1_566
Ba6 Cl1 3.512059 1_656
Ba6 Cl1 3.512059 1_665
O0 Ru1 2.018145 1_555
O0 Ru2 2.105974 1_555
O1 Ru0 1.908041 1_555
O2 Ru2 1.908041 1_555
O3 Ru0 1.908041 1_555
O4 Ru2 1.908041 1_555
O5 Ru3 2.018145 1_555
O5 Ru0 2.105974 1_555
O6 Ru0 1.908041 1_555
O7 Ru1 2.019318 1_545
O7 Ru3 2.019318 1_555
O8 Ru3 2.018145 1_555
O8 Ru0 2.105974 1_555
O9 Ru1 2.018145 1_555
O9 Ru2 2.105974 1_555
O10 Ru3 2.018145 1_555
O10 Ru0 2.105974 1_555
O11 Ru2 1.908041 1_555
O12 Ru1 2.018145 1_555
O12 Ru2 2.105974 1_555
O13 Ru1 2.019318 1_455
O13 Ru3 2.019318 1_555
O14 Ru1 2.019318 1_554
O14 Ru3 2.019318 1_555
