# generated using pymatgen
data_Al6Fe
_symmetry_space_group_name_H-M   'P 1'
_cell_length_a   4.87554413
_cell_length_b   4.87554422
_cell_length_c   8.68812478
_cell_angle_alpha   90.00000000
_cell_angle_beta   90.00000000
_cell_angle_gamma   98.05724294
_symmetry_Int_Tables_number   1
_chemical_formula_structural   Al6Fe
_chemical_formula_sum   'Al12 Fe2'
_cell_volume   204.48611132
_cell_formula_units_Z   2
loop_
 _symmetry_equiv_pos_site_id
 _symmetry_equiv_pos_as_xyz
  1  'x, y, z'
loop_
 _atom_site_type_symbol
 _atom_site_label
 _atom_site_symmetry_multiplicity
 _atom_site_fract_x
 _atom_site_fract_y
 _atom_site_fract_z
 _atom_site_occupancy
  Al  Al0  1  0.67671808  0.32322525  0.50000247  1
  Al  Al1  1  0.14726867  0.14726867  0.09882696  1
  Al  Al2  1  0.67677475  0.32328292  0.00000247  1
  Al  Al3  1  0.85278106  0.85278106  0.90115774  1
  Al  Al4  1  0.02648198  0.39070061  0.75000185  1
  Al  Al5  1  0.32328292  0.67677475  0.00000247  1
  Al  Al6  1  0.14721894  0.14721894  0.40115774  1
  Al  Al7  1  0.97351802  0.60929939  0.25000185  1
  Al  Al8  1  0.60929939  0.97351802  0.25000185  1
  Al  Al9  1  0.39070061  0.02648198  0.75000185  1
  Al  Al10  1  0.85273133  0.85273133  0.59882696  1
  Al  Al11  1  0.32322525  0.67671808  0.50000247  1
  Fe  Fe0  1  0.46168955  0.46168955  0.25000766  1
  Fe  Fe1  1  0.53831045  0.53831045  0.75000766  1
loop_
_geom_bond_atom_site_label_1
_geom_bond_atom_site_label_2
_geom_bond_distance
_geom_bond_site_symmetry_2
Al0 Fe0 2.543771 1_555
Al0 Fe1 2.543883 1_555
Al0 Al11 2.602568 1_555
Al0 Al10 2.699538 1_545
Al0 Al6 2.699609 1_655
Al0 Al10 2.741788 1_555
Al0 Al6 2.741806 1_555
Al0 Al8 2.752408 1_545
Al0 Al4 2.752575 1_655
Al0 Al9 2.861804 1_555
Al0 Al7 2.862048 1_555
Al1 Fe0 2.401347 1_555
Al1 Al2 2.699540 1_455
Al1 Al5 2.699540 1_545
Al1 Al2 2.741789 1_555
Al1 Al5 2.741789 1_555
Al2 Fe1 2.543769 1_554
Al2 Fe0 2.543881 1_555
Al2 Al5 2.602560 1_555
Al2 Al3 2.699614 1_544
Al2 Al3 2.741802 1_554
Al2 Al4 2.752408 1_654
Al2 Al8 2.752578 1_545
Al2 Al7 2.861802 1_555
Al2 Al9 2.862051 1_554
Al3 Fe1 2.401468 1_555
Al3 Al5 2.699614 1_656
Al3 Al5 2.741802 1_556
Al4 Fe1 2.498345 1_555
Al4 Fe1 2.581277 1_455
Al4 Al5 2.862051 1_556
Al5 Fe1 2.543769 1_554
Al5 Fe0 2.543881 1_555
Al5 Al9 2.752408 1_564
Al5 Al7 2.752578 1_455
Al5 Al8 2.861802 1_555
Al6 Fe0 2.401468 1_555
Al7 Fe0 2.498345 1_555
Al7 Fe0 2.581277 1_655
Al8 Fe0 2.498345 1_555
Al8 Fe0 2.581277 1_565
Al9 Fe1 2.498345 1_555
Al9 Fe1 2.581277 1_545
Al10 Fe1 2.401347 1_555
Al10 Al11 2.699538 1_655
Al10 Al11 2.741788 1_555
Al11 Fe0 2.543771 1_555
Al11 Fe1 2.543883 1_555
Al11 Al6 2.699609 1_565
Al11 Al6 2.741807 1_555
Al11 Al7 2.752408 1_455
Al11 Al9 2.752575 1_565
Al11 Al4 2.861804 1_555
Al11 Al8 2.862048 1_555
