# generated using pymatgen
data_KNaGeO3
_symmetry_space_group_name_H-M   'P 1'
_cell_length_a   4.87183300
_cell_length_b   6.98167300
_cell_length_c   10.80986300
_cell_angle_alpha   90.00000000
_cell_angle_beta   90.00000000
_cell_angle_gamma   90.00000000
_symmetry_Int_Tables_number   1
_chemical_formula_structural   KNaGeO3
_chemical_formula_sum   'K4 Na4 Ge4 O12'
_cell_volume   367.68176069
_cell_formula_units_Z   4
loop_
 _symmetry_equiv_pos_site_id
 _symmetry_equiv_pos_as_xyz
  1  'x, y, z'
loop_
 _atom_site_type_symbol
 _atom_site_label
 _atom_site_symmetry_multiplicity
 _atom_site_fract_x
 _atom_site_fract_y
 _atom_site_fract_z
 _atom_site_occupancy
  K  K0  1  0.52049900  0.88529000  0.73491500  1
  K  K1  1  0.52049900  0.38529000  0.76508500  1
  K  K2  1  0.02049900  0.61471000  0.23491500  1
  K  K3  1  0.02049900  0.11471000  0.26508500  1
  Na  Na0  1  0.53686600  0.87765300  0.41559900  1
  Na  Na1  1  0.03686600  0.62234700  0.91559900  1
  Na  Na2  1  0.53686600  0.37765300  0.08440100  1
  Na  Na3  1  0.03686600  0.12234700  0.58440100  1
  Ge  Ge0  1  0.50143200  0.36949800  0.45099200  1
  Ge  Ge1  1  0.00143200  0.63050200  0.54900800  1
  Ge  Ge2  1  0.00143200  0.13050200  0.95099200  1
  Ge  Ge3  1  0.50143200  0.86949800  0.04900800  1
  O  O0  1  0.12994400  0.91623600  0.03047700  1
  O  O1  1  0.55760000  0.16322100  0.54007200  1
  O  O2  1  0.56835900  0.86190600  0.20581100  1
  O  O3  1  0.62994400  0.58376400  0.53047700  1
  O  O4  1  0.12994400  0.41623600  0.46952300  1
  O  O5  1  0.06835900  0.63809400  0.70581100  1
  O  O6  1  0.62994400  0.08376400  0.96952300  1
  O  O7  1  0.05760000  0.33677900  0.04007200  1
  O  O8  1  0.55760000  0.66322100  0.95992800  1
  O  O9  1  0.56835900  0.36190600  0.29418900  1
  O  O10  1  0.05760000  0.83677900  0.45992800  1
  O  O11  1  0.06835900  0.13809400  0.79418900  1
loop_
_geom_bond_atom_site_label_1
_geom_bond_atom_site_label_2
_geom_bond_distance
_geom_bond_site_symmetry_2
K0 O5 2.815958 1_555
K0 O1 2.869512 1_565
K0 O8 2.890125 1_555
K0 O11 2.894455 1_565
K0 O6 2.938727 1_565
K0 O3 3.098362 1_555
K0 O5 3.193980 1_655
K0 O11 3.263397 1_665
K1 O11 2.815958 1_555
K1 O8 2.869512 1_555
K1 O1 2.890125 1_555
K1 O5 2.894455 1_555
K1 O3 2.938727 1_555
K1 O6 3.098362 1_555
K1 O11 3.193980 1_655
K1 O5 3.263397 1_655
K2 O2 2.815958 1_455
K2 O7 2.869512 1_555
K2 O10 2.890125 1_555
K2 O9 2.894455 1_455
K2 O4 2.938727 1_555
K2 O0 3.098362 1_555
K2 O2 3.193980 1_555
K2 O9 3.263397 1_555
K3 O9 2.815958 1_455
K3 O10 2.869512 1_545
K3 O7 2.890125 1_555
K3 O2 2.894455 1_445
K3 O0 2.938727 1_545
K3 O4 3.098362 1_555
K3 O9 3.193980 1_555
K3 O2 3.263397 1_545
Na0 O2 2.275621 1_555
Na0 O10 2.400591 1_555
Na0 O1 2.407422 1_565
Na0 O3 2.440854 1_555
Na0 O10 2.597512 1_655
Na1 O5 2.275621 1_555
Na1 O8 2.400591 1_455
Na1 O7 2.407422 1_556
Na1 O0 2.440854 1_556
Na1 O8 2.597512 1_555
Na2 O9 2.275621 1_555
Na2 O7 2.400591 1_555
Na2 O8 2.407422 1_554
Na2 O6 2.440854 1_554
Na2 O7 2.597512 1_655
Na3 O11 2.275621 1_555
Na3 O1 2.400591 1_455
Na3 O10 2.407422 1_545
Na3 O4 2.440854 1_555
Na3 O1 2.597512 1_555
Ge0 O9 1.726908 1_555
Ge0 O1 1.753908 1_555
Ge0 O3 1.835231 1_555
Ge0 O4 1.849887 1_555
Ge1 O5 1.726908 1_555
Ge1 O10 1.753908 1_555
Ge1 O4 1.835231 1_555
Ge1 O3 1.849887 1_455
Ge2 O11 1.726908 1_555
Ge2 O7 1.753908 1_556
Ge2 O0 1.835231 1_546
Ge2 O6 1.849887 1_455
Ge3 O2 1.726908 1_555
Ge3 O8 1.753908 1_554
Ge3 O6 1.835231 1_564
Ge3 O0 1.849887 1_555
