# generated using pymatgen
data_K6HgS4
_symmetry_space_group_name_H-M   'P 1'
_cell_length_a   10.00792420
_cell_length_b   10.00791753
_cell_length_c   7.71886500
_cell_angle_alpha   89.99998937
_cell_angle_beta   89.99999046
_cell_angle_gamma   119.99744875
_symmetry_Int_Tables_number   1
_chemical_formula_structural   K6HgS4
_chemical_formula_sum   'K12 Hg2 S8'
_cell_volume   669.54992652
_cell_formula_units_Z   2
loop_
 _symmetry_equiv_pos_site_id
 _symmetry_equiv_pos_as_xyz
  1  'x, y, z'
loop_
 _atom_site_type_symbol
 _atom_site_label
 _atom_site_symmetry_multiplicity
 _atom_site_fract_x
 _atom_site_fract_y
 _atom_site_fract_z
 _atom_site_occupancy
  K  K0  1  0.85132986  0.70261362  0.29242606  1
  K  K1  1  0.52829353  0.05658609  0.62381866  1
  K  K2  1  0.05658957  0.52829618  0.12381889  1
  K  K3  1  0.94341395  0.47170571  0.62381846  1
  K  K4  1  0.52829378  0.47170504  0.62381825  1
  K  K5  1  0.47170384  0.94341012  0.12381943  1
  K  K6  1  0.70261286  0.85132933  0.79242636  1
  K  K7  1  0.29738710  0.14867092  0.29242972  1
  K  K8  1  0.85131045  0.14868866  0.29241161  1
  K  K9  1  0.14867003  0.29738721  0.79242669  1
  K  K10  1  0.47170338  0.52829588  0.12381940  1
  K  K11  1  0.14868916  0.85131120  0.79240902  1
  Hg  Hg0  1  0.66666706  0.33333298  0.00144535  1
  Hg  Hg1  1  0.33333255  0.66666608  0.50144127  1
  S  S0  1  0.18983580  0.37967225  0.39783774  1
  S  S1  1  0.81016102  0.18983889  0.89784385  1
  S  S2  1  0.18983533  0.81016413  0.39783700  1
  S  S3  1  0.81016141  0.62032221  0.89784300  1
  S  S4  1  0.66666632  0.33333375  0.34430531  1
  S  S5  1  0.33333344  0.66666624  0.84432287  1
  S  S6  1  0.37967811  0.18983836  0.89784400  1
  S  S7  1  0.62032942  0.81016515  0.39783705  1
loop_
_geom_bond_atom_site_label_1
_geom_bond_atom_site_label_2
_geom_bond_distance
_geom_bond_site_symmetry_2
K0 S2 3.106639 1_655
K0 S7 3.106987 1_555
K0 S3 3.128133 1_554
K0 S4 3.225625 1_555
K1 S4 3.226221 1_555
K1 S6 3.232310 1_555
K1 S1 3.232377 1_555
K1 S7 3.499198 1_545
K1 S2 3.499327 1_545
K2 S5 3.226109 1_554
K2 S0 3.232295 1_555
K2 S2 3.232345 1_555
K2 S3 3.499177 1_454
K2 S1 3.499310 1_454
K3 S4 3.226222 1_555
K3 S3 3.232315 1_555
K3 S1 3.232371 1_555
K3 S0 3.499188 1_655
K3 S2 3.499324 1_655
K4 S4 3.226127 1_555
K4 S6 3.232378 1_555
K4 S3 3.232382 1_555
K4 S0 3.499271 1_555
K4 S7 3.499283 1_555
K5 S5 3.226111 1_554
K5 S7 3.232292 1_555
K5 S2 3.232346 1_555
K5 S6 3.499172 1_564
K5 S1 3.499312 1_564
K6 S1 3.106692 1_565
K6 S3 3.107037 1_555
K6 S7 3.128164 1_555
K6 S5 3.225640 1_555
K7 S2 3.106639 1_545
K7 S0 3.106987 1_555
K7 S6 3.128152 1_554
K7 S4 3.225619 1_555
K8 S7 3.106900 1_545
K8 S0 3.106921 1_655
K8 S1 3.128028 1_554
K8 S4 3.225598 1_555
K9 S1 3.106688 1_455
K9 S6 3.107051 1_555
K9 S0 3.128164 1_555
K9 S5 3.225635 1_555
K10 S5 3.226020 1_554
K10 S0 3.232349 1_555
K10 S7 3.232357 1_555
K10 S6 3.499262 1_554
K10 S3 3.499269 1_554
K11 S6 3.106961 1_565
K11 S3 3.106965 1_455
K11 S2 3.128047 1_555
K11 S5 3.225618 1_555
Hg0 S1 2.612717 1_554
Hg0 S6 2.612816 1_554
Hg0 S3 2.612819 1_554
Hg0 S4 2.646490 1_555
Hg0 K10 3.509021 1_555
Hg0 K2 3.509113 1_655
Hg0 K5 3.509115 1_545
Hg1 S2 2.612783 1_555
Hg1 S0 2.612860 1_555
Hg1 S7 2.612888 1_555
Hg1 S5 2.646657 1_555
Hg1 K4 3.508992 1_555
Hg1 K3 3.509088 1_455
Hg1 K1 3.509098 1_565
