# generated using pymatgen
data_LiMo(PO4)2
_symmetry_space_group_name_H-M   'P 1'
_cell_length_a   12.99557200
_cell_length_b   4.96715400
_cell_length_c   10.90898710
_cell_angle_alpha   72.35794895
_cell_angle_beta   90.00000000
_cell_angle_gamma   90.00000000
_symmetry_Int_Tables_number   1
_chemical_formula_structural   LiMo(PO4)2
_chemical_formula_sum   'Li4 Mo4 P8 O32'
_cell_volume   671.06717384
_cell_formula_units_Z   4
loop_
 _symmetry_equiv_pos_site_id
 _symmetry_equiv_pos_as_xyz
  1  'x, y, z'
loop_
 _atom_site_type_symbol
 _atom_site_label
 _atom_site_symmetry_multiplicity
 _atom_site_fract_x
 _atom_site_fract_y
 _atom_site_fract_z
 _atom_site_occupancy
  Li  Li0  1  0.65160200  0.86124400  0.96966500  1
  Li  Li1  1  0.15160200  0.13875600  0.53033500  1
  Li  Li2  1  0.34839800  0.13875600  0.03033500  1
  Li  Li3  1  0.84839800  0.86124400  0.46966500  1
  Mo  Mo0  1  0.92502100  0.90177900  0.78606400  1
  Mo  Mo1  1  0.57497900  0.90177900  0.28606400  1
  Mo  Mo2  1  0.07497900  0.09822100  0.21393600  1
  Mo  Mo3  1  0.42502100  0.09822100  0.71393600  1
  P  P0  1  0.75267200  0.41874000  0.79085200  1
  P  P1  1  0.74732800  0.41874000  0.29085200  1
  P  P2  1  0.24732800  0.58126000  0.20914800  1
  P  P3  1  0.25267200  0.58126000  0.70914800  1
  P  P4  1  0.41499600  0.30421700  0.38099100  1
  P  P5  1  0.91499600  0.69578300  0.11900900  1
  P  P6  1  0.58500400  0.69578300  0.61900900  1
  P  P7  1  0.08500400  0.30421700  0.88099100  1
  O  O0  1  0.44164400  0.13374700  0.28791800  1
  O  O1  1  0.92324700  0.88753300  0.62882500  1
  O  O2  1  0.48712000  0.55327400  0.36308900  1
  O  O3  1  0.79956300  0.57733900  0.15058900  1
  O  O4  1  0.57675300  0.88753300  0.12882500  1
  O  O5  1  0.82444500  0.24028400  0.38046200  1
  O  O6  1  0.32444500  0.75971600  0.11953800  1
  O  O7  1  0.20994300  0.33042500  0.16361300  1
  O  O8  1  0.51288000  0.44672600  0.63691100  1
  O  O9  1  0.79005700  0.66957500  0.83638700  1
  O  O10  1  0.65545000  0.27122200  0.24925900  1
  O  O11  1  0.84455000  0.27122200  0.74925900  1
  O  O12  1  0.42324700  0.11246700  0.87117500  1
  O  O13  1  0.17555500  0.75971600  0.61953800  1
  O  O14  1  0.29956300  0.42266100  0.34941100  1
  O  O15  1  0.05835600  0.13374700  0.78791800  1
  O  O16  1  0.20043700  0.42266100  0.84941100  1
  O  O17  1  0.34455000  0.72877800  0.75074100  1
  O  O18  1  0.90682700  0.88489900  0.98067200  1
  O  O19  1  0.29005700  0.33042500  0.66361300  1
  O  O20  1  0.67555500  0.24028400  0.88046200  1
  O  O21  1  0.07675300  0.11246700  0.37117500  1
  O  O22  1  0.15545000  0.72877800  0.25074100  1
  O  O23  1  0.94164400  0.86625300  0.21208200  1
  O  O24  1  0.59317300  0.88489900  0.48067200  1
  O  O25  1  0.98712000  0.44672600  0.13691100  1
  O  O26  1  0.40682700  0.11510100  0.51932800  1
  O  O27  1  0.70994300  0.66957500  0.33638700  1
  O  O28  1  0.01288000  0.55327400  0.86308900  1
  O  O29  1  0.70043700  0.57733900  0.65058900  1
  O  O30  1  0.09317300  0.11510100  0.01932800  1
  O  O31  1  0.55835600  0.86625300  0.71208200  1
loop_
_geom_bond_atom_site_label_1
_geom_bond_atom_site_label_2
_geom_bond_distance
_geom_bond_site_symmetry_2
Li0 O20 1.864959 1_565
Li0 O4 2.028616 1_556
Li1 O13 1.864959 1_545
Li1 O21 2.028616 1_555
Li2 O6 1.864959 1_545
Li2 O12 2.028616 1_554
Li3 O5 1.864959 1_565
Li3 O1 2.028616 1_555
Mo0 O1 1.738226 1_555
Mo0 O28 2.030927 1_655
Mo0 O11 2.043466 1_565
Mo0 O9 2.079465 1_555
Mo0 O15 2.084375 1_665
Mo0 O18 2.112361 1_555
Mo1 O4 1.738226 1_555
Mo1 O2 2.030927 1_555
Mo1 O10 2.043466 1_565
Mo1 O27 2.079465 1_555
Mo1 O0 2.084375 1_565
Mo1 O24 2.112361 1_555
Mo2 O21 1.738226 1_555
Mo2 O25 2.030927 1_455
Mo2 O22 2.043466 1_545
Mo2 O7 2.079465 1_555
Mo2 O23 2.084375 1_445
Mo2 O30 2.112361 1_555
Mo3 O12 1.738226 1_555
Mo3 O8 2.030927 1_555
Mo3 O17 2.043466 1_545
Mo3 O19 2.079465 1_555
Mo3 O31 2.084375 1_545
Mo3 O26 2.112361 1_555
O0 P4 1.545617 1_555
O2 P4 1.516787 1_555
O3 P5 1.610067 1_555
O3 P1 1.640747 1_555
O5 P1 1.490128 1_555
O6 P2 1.490128 1_555
O7 P2 1.552511 1_555
O8 P6 1.516787 1_555
O9 P0 1.552511 1_555
O10 P1 1.539471 1_555
O11 P0 1.539471 1_555
O13 P3 1.490128 1_555
O14 P4 1.610067 1_555
O14 P2 1.640747 1_555
O15 P7 1.545617 1_555
O16 P7 1.610067 1_555
O16 P3 1.640747 1_555
O17 P3 1.539471 1_555
O18 P5 1.520475 1_556
O19 P3 1.552511 1_555
O20 P0 1.490128 1_555
O22 P2 1.539471 1_555
O23 P5 1.545617 1_555
O24 P6 1.520475 1_555
O25 P5 1.516787 1_555
O26 P4 1.520475 1_555
O27 P1 1.552511 1_555
O28 P7 1.516787 1_555
O29 P6 1.610067 1_555
O29 P0 1.640747 1_555
O30 P7 1.520475 1_554
O31 P6 1.545617 1_555
