# generated using pymatgen
data_Li4Ga3Si3ClO12
_symmetry_space_group_name_H-M   'P 1'
_cell_length_a   8.61536300
_cell_length_b   8.61536300
_cell_length_c   8.61536300
_cell_angle_alpha   90.00000000
_cell_angle_beta   90.00000000
_cell_angle_gamma   90.00000000
_symmetry_Int_Tables_number   1
_chemical_formula_structural   Li4Ga3Si3ClO12
_chemical_formula_sum   'Li8 Ga6 Si6 Cl2 O24'
_cell_volume   639.47083543
_cell_formula_units_Z   2
loop_
 _symmetry_equiv_pos_site_id
 _symmetry_equiv_pos_as_xyz
  1  'x, y, z'
loop_
 _atom_site_type_symbol
 _atom_site_label
 _atom_site_symmetry_multiplicity
 _atom_site_fract_x
 _atom_site_fract_y
 _atom_site_fract_z
 _atom_site_occupancy
  Li  Li0  1  0.82817900  0.82817900  0.17182100  1
  Li  Li1  1  0.17182100  0.17182100  0.17182100  1
  Li  Li2  1  0.67182100  0.67182100  0.67182100  1
  Li  Li3  1  0.32817900  0.67182100  0.32817900  1
  Li  Li4  1  0.32817900  0.32817900  0.67182100  1
  Li  Li5  1  0.17182100  0.82817900  0.82817900  1
  Li  Li6  1  0.82817900  0.17182100  0.82817900  1
  Li  Li7  1  0.67182100  0.32817900  0.32817900  1
  Ga  Ga0  1  0.00000000  0.75000000  0.50000000  1
  Ga  Ga1  1  0.25000000  0.50000000  0.00000000  1
  Ga  Ga2  1  0.50000000  0.00000000  0.75000000  1
  Ga  Ga3  1  0.50000000  0.00000000  0.25000000  1
  Ga  Ga4  1  0.00000000  0.25000000  0.50000000  1
  Ga  Ga5  1  0.75000000  0.50000000  0.00000000  1
  Si  Si0  1  0.00000000  0.50000000  0.25000000  1
  Si  Si1  1  0.50000000  0.75000000  0.00000000  1
  Si  Si2  1  0.50000000  0.25000000  0.00000000  1
  Si  Si3  1  0.00000000  0.50000000  0.75000000  1
  Si  Si4  1  0.75000000  0.00000000  0.50000000  1
  Si  Si5  1  0.25000000  0.00000000  0.50000000  1
  Cl  Cl0  1  0.00000000  0.00000000  0.00000000  1
  Cl  Cl1  1  0.50000000  0.50000000  0.50000000  1
  O  O0  1  0.09843500  0.62662200  0.35411000  1
  O  O1  1  0.35411000  0.09843500  0.62662200  1
  O  O2  1  0.90156500  0.62662200  0.64589000  1
  O  O3  1  0.40156500  0.85411000  0.87337800  1
  O  O4  1  0.62662200  0.64589000  0.90156500  1
  O  O5  1  0.37337800  0.35411000  0.90156500  1
  O  O6  1  0.14589000  0.87337800  0.59843500  1
  O  O7  1  0.35411000  0.90156500  0.37337800  1
  O  O8  1  0.64589000  0.09843500  0.37337800  1
  O  O9  1  0.85411000  0.87337800  0.40156500  1
  O  O10  1  0.12662200  0.40156500  0.14589000  1
  O  O11  1  0.12662200  0.59843500  0.85411000  1
  O  O12  1  0.14589000  0.12662200  0.40156500  1
  O  O13  1  0.87337800  0.40156500  0.85411000  1
  O  O14  1  0.64589000  0.90156500  0.62662200  1
  O  O15  1  0.37337800  0.64589000  0.09843500  1
  O  O16  1  0.62662200  0.35411000  0.09843500  1
  O  O17  1  0.90156500  0.37337800  0.35411000  1
  O  O18  1  0.59843500  0.14589000  0.87337800  1
  O  O19  1  0.09843500  0.37337800  0.64589000  1
  O  O20  1  0.85411000  0.12662200  0.59843500  1
  O  O21  1  0.59843500  0.85411000  0.12662200  1
  O  O22  1  0.87337800  0.59843500  0.14589000  1
  O  O23  1  0.40156500  0.14589000  0.12662200  1
loop_
_geom_bond_atom_site_label_1
_geom_bond_atom_site_label_2
_geom_bond_distance
_geom_bond_site_symmetry_2
Li0 O9 2.029602 1_555
Li0 O22 2.029602 1_555
Li0 O21 2.029602 1_555
Li1 O23 2.029602 1_555
Li1 O10 2.029602 1_555
Li1 O12 2.029602 1_555
Li2 O2 2.029602 1_555
Li2 O14 2.029602 1_555
Li2 O4 2.029602 1_555
Li3 O7 2.029602 1_555
Li3 O0 2.029602 1_555
Li3 O15 2.029602 1_555
Li4 O5 2.029602 1_555
Li4 O19 2.029602 1_555
Li4 O1 2.029602 1_555
Li5 O3 2.029602 1_555
Li5 O6 2.029602 1_555
Li5 O11 2.029602 1_555
Li6 O13 2.029602 1_555
Li6 O18 2.029602 1_555
Li6 O20 2.029602 1_555
Li7 O17 2.029602 1_555
Li7 O8 2.029602 1_555
Li7 O16 2.029602 1_555
Ga0 O6 1.851711 1_555
Ga0 O9 1.851711 1_455
Ga0 O0 1.851711 1_555
Ga0 O2 1.851711 1_455
Ga1 O5 1.851711 1_554
Ga1 O15 1.851711 1_555
Ga1 O11 1.851711 1_554
Ga1 O10 1.851711 1_555
Ga2 O18 1.851711 1_555
Ga2 O1 1.851711 1_555
Ga2 O3 1.851711 1_545
Ga2 O14 1.851711 1_545
Ga3 O7 1.851711 1_545
Ga3 O8 1.851711 1_555
Ga3 O21 1.851711 1_545
Ga3 O23 1.851711 1_555
Ga4 O17 1.851711 1_455
Ga4 O19 1.851711 1_555
Ga4 O20 1.851711 1_455
Ga4 O12 1.851711 1_555
Ga5 O22 1.851711 1_555
Ga5 O13 1.851711 1_554
Ga5 O16 1.851711 1_555
Ga5 O4 1.851711 1_554
Cl0 Li1 2.563955 1_555
Cl0 Li5 2.563955 1_544
Cl0 Li6 2.563955 1_454
Cl0 Li0 2.563955 1_445
Cl1 Li7 2.563955 1_555
Cl1 Li4 2.563955 1_555
Cl1 Li3 2.563955 1_555
Cl1 Li2 2.563955 1_555
O0 Si0 1.647348 1_555
O1 Si5 1.647348 1_555
O2 Si3 1.647348 1_655
O3 Si1 1.647348 1_556
O4 Si1 1.647348 1_556
O5 Si2 1.647348 1_556
O6 Si5 1.647348 1_565
O7 Si5 1.647348 1_565
O8 Si4 1.647348 1_555
O9 Si4 1.647348 1_565
O10 Si0 1.647348 1_555
O11 Si3 1.647348 1_555
O12 Si5 1.647348 1_555
O13 Si3 1.647348 1_655
O14 Si4 1.647348 1_565
O15 Si1 1.647348 1_555
O16 Si2 1.647348 1_555
O17 Si0 1.647348 1_655
O18 Si2 1.647348 1_556
O19 Si3 1.647348 1_555
O20 Si4 1.647348 1_555
O21 Si1 1.647348 1_555
O22 Si0 1.647348 1_655
O23 Si2 1.647348 1_555
