# generated using pymatgen
data_DyCuSi
_symmetry_space_group_name_H-M   'P 1'
_cell_length_a   4.10678575
_cell_length_b   4.10678522
_cell_length_c   7.54378509
_cell_angle_alpha   90.00000000
_cell_angle_beta   90.00000000
_cell_angle_gamma   119.99999611
_symmetry_Int_Tables_number   1
_chemical_formula_structural   DyCuSi
_chemical_formula_sum   'Dy2 Cu2 Si2'
_cell_volume   110.18538496
_cell_formula_units_Z   2
loop_
 _symmetry_equiv_pos_site_id
 _symmetry_equiv_pos_as_xyz
  1  'x, y, z'
loop_
 _atom_site_type_symbol
 _atom_site_label
 _atom_site_symmetry_multiplicity
 _atom_site_fract_x
 _atom_site_fract_y
 _atom_site_fract_z
 _atom_site_occupancy
  Dy  Dy0  1  -0.00000000  -0.00000000  0.50000000  1
  Dy  Dy1  1  -0.00000000  -0.00000000  -0.00000000  1
  Cu  Cu0  1  0.33333300  0.66666700  0.25000000  1
  Cu  Cu1  1  0.66666700  0.33333300  0.75000000  1
  Si  Si0  1  0.66666700  0.33333300  0.25000000  1
  Si  Si1  1  0.33333300  0.66666700  0.75000000  1
loop_
_geom_bond_atom_site_label_1
_geom_bond_atom_site_label_2
_geom_bond_distance
_geom_bond_site_symmetry_2
Dy0 Si0 3.029633 1_455
Dy0 Si1 3.029633 1_545
Dy0 Si0 3.029636 1_445
Dy0 Si1 3.029636 1_555
Dy0 Si0 3.029636 1_555
Dy0 Si1 3.029636 1_445
Dy1 Si0 3.029633 1_455
Dy1 Si1 3.029633 1_544
Dy1 Si0 3.029636 1_445
Dy1 Si1 3.029636 1_554
Dy1 Si0 3.029636 1_555
Dy1 Si1 3.029636 1_444
Cu0 Si0 2.371051 1_565
Cu0 Si0 2.371052 1_455
Cu0 Si0 2.371058 1_555
Cu0 Dy0 3.029633 1_565
Cu0 Dy1 3.029633 1_565
Cu0 Dy0 3.029636 1_555
Cu0 Dy1 3.029636 1_555
Cu0 Dy0 3.029636 1_665
Cu0 Dy1 3.029636 1_665
Cu1 Si1 2.371051 1_545
Cu1 Si1 2.371052 1_655
Cu1 Si1 2.371058 1_555
Cu1 Dy0 3.029633 1_655
Cu1 Dy1 3.029633 1_656
Cu1 Dy0 3.029636 1_665
Cu1 Dy1 3.029636 1_666
Cu1 Dy0 3.029636 1_555
Cu1 Dy1 3.029636 1_556
