# generated using pymatgen
data_Ti6Tl5AgSe27
_symmetry_space_group_name_H-M   'P 1'
_cell_length_a   13.40680773
_cell_length_b   13.40680773
_cell_length_c   13.99532300
_cell_angle_alpha   90.00000000
_cell_angle_beta   90.00000000
_cell_angle_gamma   119.99999867
_symmetry_Int_Tables_number   1
_chemical_formula_structural   Ti6Tl5AgSe27
_chemical_formula_sum   'Ti12 Tl10 Ag2 Se54'
_cell_volume   2178.53391739
_cell_formula_units_Z   2
loop_
 _symmetry_equiv_pos_site_id
 _symmetry_equiv_pos_as_xyz
  1  'x, y, z'
loop_
 _atom_site_type_symbol
 _atom_site_label
 _atom_site_symmetry_multiplicity
 _atom_site_fract_x
 _atom_site_fract_y
 _atom_site_fract_z
 _atom_site_occupancy
  Ti  Ti0  1  0.98450400  0.33446200  0.89609200  1
  Ti  Ti1  1  0.67318600  0.66085500  0.63625600  1
  Ti  Ti2  1  0.34995900  0.01549600  0.89609200  1
  Ti  Ti3  1  0.33914500  0.01233100  0.63625600  1
  Ti  Ti4  1  0.32681400  0.98766900  0.13625600  1
  Ti  Ti5  1  0.66553800  0.65004100  0.89609200  1
  Ti  Ti6  1  0.01549600  0.34995900  0.39609200  1
  Ti  Ti7  1  0.01233100  0.33914500  0.13625600  1
  Ti  Ti8  1  0.98766900  0.32681400  0.63625600  1
  Ti  Ti9  1  0.66085500  0.67318600  0.13625600  1
  Ti  Ti10  1  0.65004100  0.66553800  0.39609200  1
  Ti  Ti11  1  0.33446200  0.98450400  0.39609200  1
  Tl  Tl0  1  0.66666700  0.33333300  0.56680000  1
  Tl  Tl1  1  0.93779200  0.63013900  0.76656700  1
  Tl  Tl2  1  0.33333300  0.66666700  0.43342000  1
  Tl  Tl3  1  0.30765300  0.36986100  0.26656700  1
  Tl  Tl4  1  0.66666700  0.33333300  0.93342000  1
  Tl  Tl5  1  0.69234700  0.06220800  0.76656700  1
  Tl  Tl6  1  0.63013900  0.93779200  0.26656700  1
  Tl  Tl7  1  0.33333300  0.66666700  0.06680000  1
  Tl  Tl8  1  0.06220800  0.69234700  0.26656700  1
  Tl  Tl9  1  0.36986100  0.30765300  0.76656700  1
  Ag  Ag0  1  0.00000000  0.00000000  0.01185700  1
  Ag  Ag1  1  0.00000000  0.00000000  0.51185700  1
  Se  Se0  1  0.55044200  0.12874200  0.40056400  1
  Se  Se1  1  0.87952100  0.20425900  0.26592100  1
  Se  Se2  1  0.10902500  0.89798600  0.12198300  1
  Se  Se3  1  0.84055500  0.18863600  0.01248100  1
  Se  Se4  1  0.32473800  0.12047900  0.26592100  1
  Se  Se5  1  0.10201400  0.21103900  0.12198300  1
  Se  Se6  1  0.78896100  0.89097500  0.12198300  1
  Se  Se7  1  0.12047900  0.32473800  0.76592100  1
  Se  Se8  1  0.79550600  0.63308800  0.51163700  1
  Se  Se9  1  0.34128500  0.85913000  0.26267700  1
  Se  Se10  1  0.50168300  0.18873900  0.17861400  1
  Se  Se11  1  0.15944500  0.34808000  0.51248100  1
  Se  Se12  1  0.65192000  0.81136400  0.51248100  1
  Se  Se13  1  0.51784500  0.65871500  0.26267700  1
  Se  Se14  1  0.08168000  0.19858800  0.39141800  1
  Se  Se15  1  0.18863600  0.84055500  0.51248100  1
  Se  Se16  1  0.11690800  0.91832000  0.39141800  1
  Se  Se17  1  0.63308800  0.79550600  0.01163700  1
  Se  Se18  1  0.18873900  0.50168300  0.67861400  1
  Se  Se19  1  0.44955800  0.57830000  0.90056400  1
  Se  Se20  1  0.01797700  0.49775700  0.52110300  1
  Se  Se21  1  0.89798600  0.10902500  0.62198300  1
  Se  Se22  1  0.79574100  0.67526200  0.26592100  1
  Se  Se23  1  0.12874200  0.55044200  0.90056400  1
  Se  Se24  1  0.89097500  0.78896100  0.62198300  1
  Se  Se25  1  0.31294400  0.81126100  0.67861400  1
  Se  Se26  1  0.67526200  0.79574100  0.76592100  1
  Se  Se27  1  0.34808000  0.15944500  0.01248100  1
  Se  Se28  1  0.19858800  0.08168000  0.89141800  1
  Se  Se29  1  0.65871500  0.51784500  0.76267700  1
  Se  Se30  1  0.49831700  0.68705600  0.67861400  1
  Se  Se31  1  0.88309200  0.80141200  0.89141800  1
  Se  Se32  1  0.21103900  0.10201400  0.62198300  1
  Se  Se33  1  0.16241800  0.36691200  0.01163700  1
  Se  Se34  1  0.81126100  0.31294400  0.17861400  1
  Se  Se35  1  0.87125800  0.42170000  0.40056400  1
  Se  Se36  1  0.48215500  0.14087000  0.76267700  1
  Se  Se37  1  0.50224300  0.52022000  0.52110300  1
  Se  Se38  1  0.98202300  0.47978000  0.02110300  1
  Se  Se39  1  0.20425900  0.87952100  0.76592100  1
  Se  Se40  1  0.42170000  0.87125800  0.90056400  1
  Se  Se41  1  0.20449400  0.83758200  0.01163700  1
  Se  Se42  1  0.49775700  0.01797700  0.02110300  1
  Se  Se43  1  0.57830000  0.44955800  0.40056400  1
  Se  Se44  1  0.52022000  0.50224300  0.02110300  1
  Se  Se45  1  0.83758200  0.20449400  0.51163700  1
  Se  Se46  1  0.68705600  0.49831700  0.17861400  1
  Se  Se47  1  0.36691200  0.16241800  0.51163700  1
  Se  Se48  1  0.91832000  0.11690800  0.89141800  1
  Se  Se49  1  0.85913000  0.34128500  0.76267700  1
  Se  Se50  1  0.14087000  0.48215500  0.26267700  1
  Se  Se51  1  0.47978000  0.98202300  0.52110300  1
  Se  Se52  1  0.81136400  0.65192000  0.01248100  1
  Se  Se53  1  0.80141200  0.88309200  0.39141800  1
loop_
_geom_bond_atom_site_label_1
_geom_bond_atom_site_label_2
_geom_bond_distance
_geom_bond_site_symmetry_2
Ag0 Se48 2.865896 1_454
Ag0 Se28 2.865896 1_554
Ag0 Se31 2.865896 1_444
Ag0 Se2 2.895101 1_545
Ag0 Se5 2.895102 1_555
Ag0 Se6 2.895102 1_445
Ag1 Se16 2.865896 1_545
Ag1 Se14 2.865896 1_555
Ag1 Se53 2.865896 1_445
Ag1 Se21 2.895101 1_455
Ag1 Se32 2.895102 1_555
Ag1 Se24 2.895102 1_445
Se0 Se51 2.397735 1_545
Se0 Ti11 2.555087 1_545
Se0 Tl0 3.330207 1_555
Se1 Ti7 2.552228 1_655
Se1 Ti6 2.626191 1_655
Se2 Se41 2.390715 1_555
Se2 Ti4 2.549590 1_555
Se2 Tl8 3.218525 1_555
Se3 Se48 2.425908 1_554
Se3 Ti0 2.535157 1_554
Se3 Ti7 2.780124 1_655
Se4 Ti4 2.552228 1_545
Se4 Ti11 2.626186 1_545
Se5 Ti7 2.549590 1_555
Se5 Tl3 3.218525 1_555
Se6 Ti9 2.549590 1_555
Se6 Tl6 3.218525 1_555
Se7 Ti8 2.552228 1_455
Se7 Ti0 2.626186 1_455
Se8 Ti1 2.545631 1_555
Se8 Ti10 2.730578 1_555
Se9 Ti4 2.544045 1_555
Se9 Ti11 2.544369 1_555
Se9 Tl8 3.261238 1_555
Se10 Ti4 2.606670 1_545
Se11 Se14 2.425900 1_555
Se11 Ti6 2.535167 1_555
Se11 Ti8 2.780128 1_455
Se12 Se53 2.425899 1_555
Se12 Ti10 2.535147 1_555
Se12 Ti1 2.780118 1_555
Se13 Ti9 2.544045 1_555
Se13 Ti10 2.544360 1_555
Se13 Tl6 3.261238 1_555
Se14 Ti6 2.590522 1_555
Se14 Tl3 3.247700 1_555
Se15 Se16 2.425908 1_555
Se15 Ti11 2.535157 1_555
Se15 Ti3 2.780124 1_565
Se16 Ti11 2.590509 1_555
Se16 Tl8 3.247700 1_555
Se17 Se6 2.390715 1_555
Se17 Ti9 2.545631 1_555
Se17 Ti5 2.730578 1_554
Se18 Ti8 2.606670 1_455
Se19 Se44 2.397735 1_556
Se19 Ti5 2.555089 1_555
Se19 Tl7 3.330215 1_556
Se20 Se35 2.397735 1_455
Se20 Ti6 2.631070 1_555
Se20 Ti8 2.661482 1_455
Se21 Se45 2.390715 1_555
Se21 Ti8 2.549590 1_555
Se21 Tl5 3.218525 1_555
Se22 Ti9 2.552228 1_555
Se22 Ti10 2.626195 1_555
Se23 Se38 2.397735 1_456
Se23 Ti0 2.555087 1_455
Se23 Tl7 3.330207 1_556
Se24 Se8 2.390715 1_555
Se24 Ti1 2.549590 1_555
Se24 Tl1 3.218525 1_555
Se25 Ti3 2.606670 1_565
Se26 Ti1 2.552228 1_555
Se26 Ti5 2.626195 1_555
Se27 Se28 2.425900 1_554
Se27 Ti2 2.535167 1_554
Se27 Ti4 2.780128 1_545
Se28 Ti2 2.590522 1_555
Se28 Tl9 3.247700 1_555
Se29 Ti1 2.544045 1_555
Se29 Ti5 2.544360 1_555
Se29 Tl1 3.261238 1_555
Se30 Ti1 2.606670 1_555
Se31 Se52 2.425899 1_556
Se31 Ti5 2.590512 1_555
Se31 Tl1 3.247700 1_555
Se32 Se47 2.390715 1_555
Se32 Ti3 2.549590 1_555
Se32 Tl9 3.218525 1_555
Se33 Se5 2.390715 1_555
Se33 Ti7 2.545631 1_555
Se33 Ti0 2.730567 1_454
Se34 Ti7 2.606670 1_655
Se35 Ti6 2.555077 1_655
Se35 Tl0 3.330206 1_555
Se36 Ti3 2.544045 1_555
Se36 Ti2 2.544364 1_555
Se36 Tl9 3.261238 1_555
Se37 Se43 2.397735 1_555
Se37 Ti10 2.631075 1_555
Se37 Ti1 2.661482 1_555
Se38 Ti0 2.631080 1_554
Se38 Ti7 2.661482 1_655
Se39 Ti3 2.552228 1_565
Se39 Ti2 2.626191 1_565
Se40 Se42 2.397735 1_566
Se40 Ti2 2.555077 1_565
Se40 Tl7 3.330206 1_556
Se41 Ti4 2.545631 1_555
Se41 Ti2 2.730571 1_564
Se42 Ti2 2.631070 1_554
Se42 Ti4 2.661482 1_545
Se43 Ti10 2.555089 1_555
Se43 Tl0 3.330215 1_555
Se44 Ti5 2.631075 1_554
Se44 Ti9 2.661482 1_555
Se45 Ti8 2.545631 1_555
Se45 Ti6 2.730571 1_655
Se46 Ti9 2.606670 1_555
Se47 Ti3 2.545631 1_555
Se47 Ti11 2.730567 1_545
Se48 Ti0 2.590509 1_555
Se48 Tl5 3.247700 1_555
Se49 Ti8 2.544045 1_555
Se49 Ti0 2.544369 1_555
Se49 Tl5 3.261238 1_555
Se50 Ti7 2.544045 1_555
Se50 Ti6 2.544364 1_555
Se50 Tl3 3.261238 1_555
Se51 Ti11 2.631080 1_555
Se51 Ti3 2.661482 1_565
Se52 Ti5 2.535147 1_554
Se52 Ti9 2.780118 1_555
Se53 Ti10 2.590512 1_555
Se53 Tl6 3.247700 1_555
