# generated using pymatgen
data_Nd9Mn10O30
_symmetry_space_group_name_H-M   'P 1'
_cell_length_a   27.55016997
_cell_length_b   7.81107316
_cell_length_c   9.55591761
_cell_angle_alpha   66.10003109
_cell_angle_beta   54.79503466
_cell_angle_gamma   45.38114541
_symmetry_Int_Tables_number   1
_chemical_formula_structural   Nd9Mn10O30
_chemical_formula_sum   'Nd18 Mn20 O60'
_cell_volume   1196.00990856
_cell_formula_units_Z   2
loop_
 _symmetry_equiv_pos_site_id
 _symmetry_equiv_pos_as_xyz
  1  'x, y, z'
loop_
 _atom_site_type_symbol
 _atom_site_label
 _atom_site_symmetry_multiplicity
 _atom_site_fract_x
 _atom_site_fract_y
 _atom_site_fract_z
 _atom_site_occupancy
  Nd  Nd0  1  0.13390800  0.05655700  0.24797400  1
  Nd  Nd1  1  0.05349900  0.46125400  0.75813200  1
  Nd  Nd2  1  0.14448900  0.53760500  0.24928000  1
  Nd  Nd3  1  0.34310100  0.03543900  0.24131700  1
  Nd  Nd4  1  0.05853600  0.96346900  0.74586600  1
  Nd  Nd5  1  0.25834300  0.45261600  0.75048300  1
  Nd  Nd6  1  0.34507900  0.53387100  0.24645800  1
  Nd  Nd7  1  0.53757700  0.04191700  0.25919700  1
  Nd  Nd8  1  0.25860800  0.96948800  0.75378300  1
  Nd  Nd9  1  0.45723300  0.44826500  0.74934900  1
  Nd  Nd10  1  0.54333100  0.53143800  0.25346500  1
  Nd  Nd11  1  0.74172500  0.03785300  0.25302300  1
  Nd  Nd12  1  0.65345200  0.46592800  0.74770500  1
  Nd  Nd13  1  0.74737800  0.53040500  0.25218700  1
  Nd  Nd14  1  0.93862600  0.04428500  0.25030800  1
  Nd  Nd15  1  0.65729400  0.97007500  0.75238500  1
  Nd  Nd16  1  0.85873500  0.45598600  0.74312200  1
  Nd  Nd17  1  0.85943900  0.96099800  0.74796500  1
  Mn  Mn0  1  0.09946100  0.00240400  0.00005300  1
  Mn  Mn1  1  0.09631600  0.50817400  0.00229100  1
  Mn  Mn2  1  0.30152900  0.99719400  0.99763800  1
  Mn  Mn3  1  0.20029700  0.99957500  0.49816800  1
  Mn  Mn4  1  0.30189000  0.49522500  0.99640700  1
  Mn  Mn5  1  0.20048900  0.49912600  0.49734900  1
  Mn  Mn6  1  0.50052700  0.99313900  0.99918600  1
  Mn  Mn7  1  0.40099200  0.99534300  0.50442700  1
  Mn  Mn8  1  0.49916200  0.50640100  0.99497500  1
  Mn  Mn9  1  0.39922400  0.49958800  0.50267900  1
  Mn  Mn10  1  0.70009700  0.99887700  0.00135600  1
  Mn  Mn11  1  0.59927400  0.99437000  0.50199600  1
  Mn  Mn12  1  0.69970900  0.50169300  0.00112200  1
  Mn  Mn13  1  0.59838500  0.50482800  0.50256300  1
  Mn  Mn14  1  0.80234800  0.99356100  0.49703300  1
  Mn  Mn15  1  0.90042800  0.99518400  0.00344600  1
  Mn  Mn16  1  0.89982300  0.50361900  0.00383000  1
  Mn  Mn17  1  0.80023300  0.50443400  0.49993100  1
  Mn  Mn18  1  0.99987000  0.00173700  0.49741200  1
  Mn  Mn19  1  0.99811700  0.50568000  0.49793000  1
  O  O0  1  0.08751100  0.26945000  0.02608600  1
  O  O1  1  0.06816600  0.48831800  0.25257700  1
  O  O2  1  0.09252800  0.21924400  0.54550700  1
  O  O3  1  0.01077300  0.21309200  0.95115000  1
  O  O4  1  0.00641400  0.71285700  0.54447000  1
  O  O5  1  0.03942000  0.96694000  0.25173200  1
  O  O6  1  0.16395200  0.02020200  0.74313900  1
  O  O7  1  0.27775300  0.28286600  0.04475900  1
  O  O8  1  0.19736500  0.28068900  0.44992200  1
  O  O9  1  0.18906400  0.78435000  0.04629400  1
  O  O10  1  0.11026000  0.78003800  0.45312400  1
  O  O11  1  0.13036300  0.51918200  0.74723100  1
  O  O12  1  0.26949800  0.47999300  0.24816200  1
  O  O13  1  0.29143400  0.21674800  0.53870400  1
  O  O14  1  0.20764600  0.21985500  0.96318400  1
  O  O15  1  0.20530200  0.71286400  0.54621200  1
  O  O16  1  0.12448500  0.71248700  0.95303600  1
  O  O17  1  0.23439900  0.98001800  0.25305500  1
  O  O18  1  0.35426600  0.02246000  0.74976600  1
  O  O19  1  0.48002100  0.27529500  0.04749300  1
  O  O20  1  0.39382400  0.28686400  0.45653300  1
  O  O21  1  0.38685700  0.77322900  0.05555400  1
  O  O22  1  0.30748500  0.78891900  0.45120600  1
  O  O23  1  0.32593400  0.53758600  0.74936800  1
  O  O24  1  0.46584200  0.48832700  0.25153900  1
  O  O25  1  0.49620600  0.23475300  0.52409500  1
  O  O26  1  0.40665300  0.23214400  0.97294500  1
  O  O27  1  0.40306900  0.71702400  0.54651500  1
  O  O28  1  0.32177500  0.71639500  0.95345200  1
  O  O29  1  0.43827600  0.97775700  0.25036700  1
  O  O30  1  0.56324300  0.00900300  0.75331800  1
  O  O31  1  0.59952200  0.27582300  0.45361500  1
  O  O32  1  0.67702900  0.28329400  0.05113700  1
  O  O33  1  0.51138800  0.76876000  0.44443900  1
  O  O34  1  0.59282500  0.78504500  0.04874500  1
  O  O35  1  0.53989600  0.46956900  0.74964600  1
  O  O36  1  0.67330100  0.47536000  0.24522200  1
  O  O37  1  0.69353100  0.21036500  0.54121600  1
  O  O38  1  0.60903700  0.21302500  0.96182500  1
  O  O39  1  0.52715000  0.69313100  0.97658700  1
  O  O40  1  0.61678800  0.69298500  0.52322000  1
  O  O41  1  0.63893700  0.97645900  0.24652200  1
  O  O42  1  0.75950600  0.02532300  0.75533600  1
  O  O43  1  0.79215900  0.28891600  0.46722500  1
  O  O44  1  0.87892100  0.28929000  0.03064400  1
  O  O45  1  0.79070700  0.78868400  0.04344900  1
  O  O46  1  0.70833100  0.78682100  0.45937300  1
  O  O47  1  0.72568100  0.52419600  0.75686500  1
  O  O48  1  0.86213900  0.47866200  0.25085900  1
  O  O49  1  0.88953300  0.21999700  0.54626900  1
  O  O50  1  0.80806000  0.22141800  0.95041700  1
  O  O51  1  0.79738500  0.72723700  0.55802700  1
  O  O52  1  0.72507700  0.71175500  0.95141900  1
  O  O53  1  0.83055900  0.02941100  0.24800400  1
  O  O54  1  0.96197800  0.01300100  0.74940800  1
  O  O55  1  0.99964700  0.26400600  0.47452900  1
  O  O56  1  0.99463300  0.81045800  0.02347400  1
  O  O57  1  0.90368100  0.81132700  0.47477900  1
  O  O58  1  0.93093300  0.52011200  0.74769100  1
  O  O59  1  0.91891900  0.72902100  0.94776500  1
loop_
_geom_bond_atom_site_label_1
_geom_bond_atom_site_label_2
_geom_bond_distance
_geom_bond_site_symmetry_2
Nd0 O17 2.414733 1_545
Nd0 O9 2.439082 1_545
Nd0 O10 2.450719 1_545
Nd0 O1 2.470587 1_555
Nd0 O0 2.485366 1_555
Nd0 O55 2.486792 1_455
Nd0 O14 2.759176 1_554
Nd0 O2 2.855432 1_555
Nd1 O11 2.398620 1_555
Nd1 O59 2.415753 1_455
Nd1 O4 2.436170 1_555
Nd1 O6 2.513852 1_555
Nd1 O3 2.519924 1_555
Nd1 O2 2.568222 1_555
Nd1 O0 2.713843 1_556
Nd1 O8 2.902845 1_555
Nd2 O1 2.370985 1_555
Nd2 O8 2.412765 1_555
Nd2 O7 2.423569 1_555
Nd2 O5 2.444327 1_555
Nd2 O9 2.556247 1_555
Nd2 O10 2.575256 1_555
Nd2 O4 2.782594 1_555
Nd2 O16 2.791332 1_554
Nd3 O29 2.378256 1_545
Nd3 O21 2.410278 1_545
Nd3 O22 2.439084 1_545
Nd3 O12 2.512695 1_555
Nd3 O7 2.564006 1_555
Nd3 O8 2.612520 1_555
Nd3 O26 2.722545 1_554
Nd3 O13 2.805859 1_555
Nd4 O54 2.385039 1_465
Nd4 O3 2.429039 1_565
Nd4 O2 2.448625 1_565
Nd4 O11 2.511066 1_555
Nd4 O56 2.562647 1_456
Nd4 O15 2.614141 1_555
Nd4 O16 2.657532 1_555
Nd4 O10 2.773508 1_555
Nd5 O23 2.369763 1_555
Nd5 O18 2.407814 1_555
Nd5 O16 2.429881 1_555
Nd5 O15 2.445138 1_555
Nd5 O14 2.585978 1_555
Nd5 O13 2.618284 1_555
Nd5 O20 2.750958 1_555
Nd5 O7 2.769186 1_556
Nd6 O12 2.387383 1_555
Nd6 O20 2.426126 1_555
Nd6 O19 2.434949 1_555
Nd6 O21 2.446763 1_555
Nd6 O17 2.544635 1_555
Nd6 O22 2.606333 1_555
Nd6 O28 2.799427 1_554
Nd6 O15 2.819995 1_555
Nd7 O41 2.393438 1_545
Nd7 O33 2.415807 1_545
Nd7 O34 2.415982 1_545
Nd7 O24 2.519765 1_555
Nd7 O20 2.563098 1_555
Nd7 O19 2.565146 1_555
Nd7 O25 2.706798 1_555
Nd7 O38 2.811716 1_554
Nd8 O6 2.406209 1_565
Nd8 O13 2.422054 1_565
Nd8 O14 2.423680 1_565
Nd8 O23 2.461341 1_555
Nd8 O28 2.552735 1_555
Nd8 O27 2.588855 1_555
Nd8 O9 2.831486 1_556
Nd8 O22 2.882708 1_555
Nd9 O35 2.398825 1_555
Nd9 O27 2.455172 1_555
Nd9 O28 2.460755 1_555
Nd9 O30 2.499803 1_555
Nd9 O25 2.509193 1_555
Nd9 O26 2.511152 1_555
Nd9 O31 2.839250 1_555
Nd9 O19 2.844005 1_556
Nd10 O24 2.394047 1_555
Nd10 O32 2.420433 1_555
Nd10 O31 2.453306 1_555
Nd10 O33 2.477683 1_555
Nd10 O29 2.524351 1_555
Nd10 O39 2.579844 1_554
Nd10 O34 2.681279 1_555
Nd10 O27 2.796247 1_555
Nd11 O53 2.374214 1_555
Nd11 O46 2.426737 1_545
Nd11 O45 2.443859 1_545
Nd11 O36 2.478636 1_555
Nd11 O31 2.544875 1_555
Nd11 O32 2.596491 1_555
Nd11 O37 2.727719 1_555
Nd11 O50 2.825922 1_554
Nd12 O40 2.380441 1_555
Nd12 O47 2.383274 1_555
Nd12 O39 2.395077 1_555
Nd12 O42 2.510619 1_555
Nd12 O37 2.584709 1_555
Nd12 O38 2.611510 1_555
Nd12 O43 2.733045 1_555
Nd12 O32 2.895295 1_556
Nd12 O30 3.065094 1_565
Nd12 O35 3.097921 1_555
Nd13 O36 2.401408 1_555
Nd13 O43 2.411617 1_555
Nd13 O44 2.441113 1_555
Nd13 O41 2.545384 1_555
Nd13 O40 2.601456 1_555
Nd13 O46 2.611372 1_555
Nd13 O45 2.617389 1_555
Nd13 O53 2.826731 1_555
Nd13 O52 2.856420 1_554
Nd13 O48 2.884885 1_555
Nd14 O57 2.399235 1_545
Nd14 O5 2.399269 1_645
Nd14 O56 2.409950 1_545
Nd14 O48 2.431149 1_555
Nd14 O43 2.639016 1_555
Nd14 O44 2.660492 1_555
Nd14 O49 2.799775 1_555
Nd14 O3 2.817370 1_654
Nd15 O30 2.382270 1_565
Nd15 O37 2.414962 1_565
Nd15 O38 2.416548 1_565
Nd15 O51 2.499762 1_555
Nd15 O47 2.536868 1_555
Nd15 O52 2.620774 1_555
Nd15 O46 2.783306 1_555
Nd15 O34 2.784532 1_556
Nd15 O35 2.823462 1_565
Nd16 O58 2.393038 1_555
Nd16 O51 2.419528 1_555
Nd16 O52 2.439153 1_555
Nd16 O54 2.503928 1_555
Nd16 O49 2.535464 1_555
Nd16 O50 2.587265 1_555
Nd16 O55 2.712840 1_555
Nd16 O44 2.720183 1_556
Nd17 O42 2.387297 1_565
Nd17 O49 2.418528 1_565
Nd17 O50 2.422933 1_565
Nd17 O58 2.492368 1_555
Nd17 O59 2.499382 1_555
Nd17 O57 2.543574 1_555
Nd17 O4 2.623787 1_655
Nd17 O45 2.775986 1_556
Mn0 O0 1.970443 1_555
Mn0 O9 1.982811 1_545
Mn0 O3 1.985311 1_554
Mn0 O16 2.019780 1_544
Mn0 O5 2.028294 1_545
Mn0 O6 2.060203 1_554
Mn1 O0 1.953431 1_555
Mn1 O56 1.976196 1_455
Mn1 O1 2.018795 1_555
Mn1 O16 2.020085 1_554
Mn1 O11 2.033541 1_554
Mn1 O14 2.067820 1_554
Mn2 O18 1.953564 1_565
Mn2 O21 1.957402 1_556
Mn2 O14 2.005434 1_565
Mn2 O7 2.007928 1_566
Mn2 O28 2.015045 1_555
Mn2 O17 2.067416 1_556
Mn3 O22 1.968195 1_555
Mn3 O6 1.971001 1_565
Mn3 O2 1.971759 1_565
Mn3 O17 1.985773 1_555
Mn3 O8 2.003526 1_565
Mn3 O15 2.012790 1_555
Mn4 O26 1.974548 1_555
Mn4 O28 1.987152 1_555
Mn4 O7 1.995338 1_556
Mn4 O23 1.998267 1_555
Mn4 O12 2.009977 1_556
Mn4 O9 2.071710 1_556
Mn5 O10 1.992526 1_555
Mn5 O13 1.992722 1_555
Mn5 O12 1.994101 1_555
Mn5 O8 2.000464 1_555
Mn5 O11 2.004426 1_555
Mn5 O15 2.009215 1_555
Mn6 O26 1.955163 1_565
Mn6 O39 1.972045 1_555
Mn6 O30 1.976129 1_565
Mn6 O29 2.006600 1_556
Mn6 O19 2.040636 1_566
Mn6 O34 2.071430 1_556
Mn7 O18 1.933382 1_565
Mn7 O33 1.990321 1_555
Mn7 O27 2.008604 1_555
Mn7 O20 2.015360 1_565
Mn7 O29 2.040772 1_555
Mn7 O13 2.048110 1_565
Mn8 O35 1.974244 1_555
Mn8 O39 1.992195 1_555
Mn8 O19 2.021557 1_556
Mn8 O21 2.026248 1_556
Mn8 O24 2.044530 1_556
Mn8 O38 2.062237 1_555
Mn9 O27 1.987879 1_555
Mn9 O23 1.989740 1_555
Mn9 O25 1.995769 1_555
Mn9 O20 1.998527 1_555
Mn9 O24 2.000337 1_555
Mn9 O22 2.060585 1_555
Mn10 O41 1.972050 1_555
Mn10 O42 1.973156 1_564
Mn10 O38 1.979916 1_564
Mn10 O45 1.988500 1_555
Mn10 O52 2.012833 1_554
Mn10 O32 2.022391 1_565
Mn11 O25 1.942490 1_565
Mn11 O40 1.986505 1_555
Mn11 O30 2.020017 1_565
Mn11 O46 2.025561 1_555
Mn11 O41 2.039529 1_555
Mn11 O31 2.059335 1_565
Mn12 O36 1.969105 1_555
Mn12 O34 1.972911 1_555
Mn12 O47 1.977242 1_554
Mn12 O50 1.987418 1_554
Mn12 O52 2.000754 1_554
Mn12 O32 2.005359 1_555
Mn13 O40 1.962982 1_555
Mn13 O35 1.989212 1_555
Mn13 O33 1.992254 1_555
Mn13 O31 2.000456 1_555
Mn13 O37 2.063076 1_555
Mn13 O36 2.073489 1_555
Mn14 O57 1.960504 1_555
Mn14 O53 1.994668 1_565
Mn14 O51 2.002794 1_555
Mn14 O37 2.005417 1_565
Mn14 O43 2.032817 1_565
Mn14 O42 2.067121 1_565
Mn15 O53 1.958257 1_565
Mn15 O56 1.985644 1_555
Mn15 O59 1.990212 1_554
Mn15 O44 2.022427 1_565
Mn15 O54 2.024687 1_564
Mn15 O50 2.073502 1_564
Mn16 O48 1.942661 1_555
Mn16 O59 1.968637 1_554
Mn16 O44 2.009123 1_555
Mn16 O45 2.026336 1_555
Mn16 O3 2.038059 1_654
Mn16 O58 2.054978 1_554
Mn17 O48 1.959528 1_555
Mn17 O51 1.970768 1_555
Mn17 O49 1.991329 1_555
Mn17 O43 2.003395 1_555
Mn17 O46 2.004877 1_555
Mn17 O47 2.077950 1_555
Mn18 O55 1.966092 1_555
Mn18 O5 1.980997 1_645
Mn18 O4 2.006527 1_645
Mn18 O54 2.010081 1_555
Mn18 O49 2.023207 1_555
Mn18 O10 2.034367 1_645
Mn19 O55 1.958243 1_555
Mn19 O1 1.978068 1_655
Mn19 O58 1.991565 1_555
Mn19 O57 2.006927 1_555
Mn19 O4 2.022094 1_655
Mn19 O2 2.083775 1_655
