# generated using pymatgen
data_CsLu(NbCl3)6
_symmetry_space_group_name_H-M   'P 1'
_cell_length_a   9.40630827
_cell_length_b   9.40630827
_cell_length_c   17.50666400
_cell_angle_alpha   90.00000000
_cell_angle_beta   90.00000000
_cell_angle_gamma   120.00000193
_symmetry_Int_Tables_number   1
_chemical_formula_structural   CsLu(NbCl3)6
_chemical_formula_sum   'Cs2 Lu2 Nb12 Cl36'
_cell_volume   1341.44365450
_cell_formula_units_Z   2
loop_
 _symmetry_equiv_pos_site_id
 _symmetry_equiv_pos_as_xyz
  1  'x, y, z'
loop_
 _atom_site_type_symbol
 _atom_site_label
 _atom_site_symmetry_multiplicity
 _atom_site_fract_x
 _atom_site_fract_y
 _atom_site_fract_z
 _atom_site_occupancy
  Cs  Cs0  1  0.66666700  0.33333300  0.75000000  1
  Cs  Cs1  1  0.33333300  0.66666700  0.25000000  1
  Lu  Lu0  1  0.33333300  0.66666700  0.75000000  1
  Lu  Lu1  1  0.66666700  0.33333300  0.25000000  1
  Nb  Nb0  1  0.15524000  0.19724500  0.93177400  1
  Nb  Nb1  1  0.84476000  0.80275500  0.06822600  1
  Nb  Nb2  1  0.04200500  0.19724500  0.56822600  1
  Nb  Nb3  1  0.19724500  0.04200500  0.06822600  1
  Nb  Nb4  1  0.80275500  0.95799500  0.93177400  1
  Nb  Nb5  1  0.80275500  0.84476000  0.56822600  1
  Nb  Nb6  1  0.95799500  0.80275500  0.43177400  1
  Nb  Nb7  1  0.04200500  0.84476000  0.93177400  1
  Nb  Nb8  1  0.84476000  0.04200500  0.43177400  1
  Nb  Nb9  1  0.15524000  0.95799500  0.56822600  1
  Nb  Nb10  1  0.19724500  0.15524000  0.43177400  1
  Nb  Nb11  1  0.95799500  0.15524000  0.06822600  1
  Cl  Cl0  1  0.45172800  0.09389000  0.16327400  1
  Cl  Cl1  1  0.13826300  0.41626700  0.00152700  1
  Cl  Cl2  1  0.45172800  0.35783800  0.33672600  1
  Cl  Cl3  1  0.58373300  0.86173700  0.49847300  1
  Cl  Cl4  1  0.81488100  0.76592800  0.83997500  1
  Cl  Cl5  1  0.41626700  0.13826300  0.50152700  1
  Cl  Cl6  1  0.23407200  0.04895300  0.83997500  1
  Cl  Cl7  1  0.86173700  0.27800400  0.50152700  1
  Cl  Cl8  1  0.35783800  0.90611000  0.66327400  1
  Cl  Cl9  1  0.41626700  0.27800400  0.99847300  1
  Cl  Cl10  1  0.23407200  0.18511900  0.66002500  1
  Cl  Cl11  1  0.09389000  0.64216200  0.83672600  1
  Cl  Cl12  1  0.90611000  0.35783800  0.16327400  1
  Cl  Cl13  1  0.64216200  0.54827200  0.16327400  1
  Cl  Cl14  1  0.86173700  0.58373300  0.99847300  1
  Cl  Cl15  1  0.54827200  0.90611000  0.83672600  1
  Cl  Cl16  1  0.72199600  0.58373300  0.50152700  1
  Cl  Cl17  1  0.81488100  0.04895300  0.66002500  1
  Cl  Cl18  1  0.90611000  0.54827200  0.33672600  1
  Cl  Cl19  1  0.95104700  0.76592800  0.66002500  1
  Cl  Cl20  1  0.18511900  0.23407200  0.16002500  1
  Cl  Cl21  1  0.95104700  0.18511900  0.83997500  1
  Cl  Cl22  1  0.04895300  0.81488100  0.16002500  1
  Cl  Cl23  1  0.09389000  0.45172800  0.66327400  1
  Cl  Cl24  1  0.54827200  0.64216200  0.66327400  1
  Cl  Cl25  1  0.27800400  0.41626700  0.49847300  1
  Cl  Cl26  1  0.76592800  0.95104700  0.16002500  1
  Cl  Cl27  1  0.76592800  0.81488100  0.33997500  1
  Cl  Cl28  1  0.58373300  0.72199600  0.00152700  1
  Cl  Cl29  1  0.13826300  0.72199600  0.49847300  1
  Cl  Cl30  1  0.72199600  0.13826300  0.99847300  1
  Cl  Cl31  1  0.35783800  0.45172800  0.83672600  1
  Cl  Cl32  1  0.04895300  0.23407200  0.33997500  1
  Cl  Cl33  1  0.27800400  0.86173700  0.00152700  1
  Cl  Cl34  1  0.64216200  0.09389000  0.33672600  1
  Cl  Cl35  1  0.18511900  0.95104700  0.33997500  1
loop_
_geom_bond_atom_site_label_1
_geom_bond_atom_site_label_2
_geom_bond_distance
_geom_bond_site_symmetry_2
Cl0 Lu1 2.629053 1_555
Cl0 Nb3 2.751137 1_555
Cl0 Cs1 3.901173 1_545
Cl1 Nb0 2.467805 1_554
Cl1 Nb11 2.470602 1_455
Cl2 Lu1 2.629057 1_555
Cl2 Nb10 2.751137 1_555
Cl2 Cs1 3.901182 1_555
Cl3 Nb5 2.467805 1_555
Cl3 Nb8 2.470602 1_565
Cl4 Nb4 2.462881 1_555
Cl4 Nb7 2.472371 1_655
Cl4 Cs0 3.912746 1_555
Cl5 Nb10 2.467805 1_555
Cl5 Nb9 2.470602 1_545
Cl6 Nb7 2.462881 1_545
Cl6 Nb0 2.472372 1_555
Cl6 Cs0 3.912744 1_555
Cl7 Nb8 2.467805 1_555
Cl7 Nb2 2.470602 1_655
Cl8 Lu0 2.629050 1_555
Cl8 Nb9 2.751137 1_555
Cl8 Cs0 3.901175 1_565
Cl9 Nb3 2.467805 1_556
Cl9 Nb0 2.470602 1_555
Cl10 Nb2 2.462881 1_555
Cl10 Nb9 2.472371 1_545
Cl10 Cs0 3.912746 1_555
Cl11 Lu0 2.629050 1_555
Cl11 Nb7 2.751137 1_555
Cl11 Cs0 3.901175 1_455
Cl12 Lu1 2.629050 1_555
Cl12 Nb11 2.751137 1_555
Cl12 Cs1 3.901175 1_655
Cl13 Lu1 2.629057 1_555
Cl13 Nb1 2.751137 1_555
Cl13 Cs1 3.901182 1_555
Cl14 Nb1 2.467805 1_556
Cl14 Nb7 2.470602 1_655
Cl15 Lu0 2.629053 1_555
Cl15 Nb4 2.751137 1_555
Cl15 Cs0 3.901173 1_565
Cl16 Nb6 2.467805 1_555
Cl16 Nb5 2.470602 1_555
Cl17 Nb5 2.462881 1_545
Cl17 Nb2 2.472371 1_655
Cl17 Cs0 3.912738 1_555
Cl18 Lu1 2.629053 1_555
Cl18 Nb6 2.751137 1_555
Cl18 Cs1 3.901173 1_655
Cl19 Nb9 2.462881 1_655
Cl19 Nb5 2.472372 1_555
Cl19 Cs0 3.912744 1_555
Cl20 Nb3 2.462881 1_555
Cl20 Nb11 2.472371 1_455
Cl20 Cs1 3.912746 1_555
Cl21 Nb0 2.462881 1_655
Cl21 Nb4 2.472371 1_545
Cl21 Cs0 3.912738 1_555
Cl22 Nb1 2.462881 1_455
Cl22 Nb3 2.472371 1_565
Cl22 Cs1 3.912738 1_555
Cl23 Lu0 2.629053 1_555
Cl23 Nb2 2.751137 1_555
Cl23 Cs0 3.901173 1_455
Cl24 Lu0 2.629057 1_555
Cl24 Nb5 2.751137 1_555
Cl24 Cs0 3.901182 1_555
Cl25 Nb2 2.467805 1_555
Cl25 Nb10 2.470602 1_555
Cl26 Nb11 2.462881 1_565
Cl26 Nb1 2.472372 1_555
Cl26 Cs1 3.912744 1_555
Cl27 Nb6 2.462881 1_555
Cl27 Nb8 2.472371 1_565
Cl27 Cs1 3.912746 1_555
Cl28 Nb4 2.467805 1_554
Cl28 Nb1 2.470602 1_555
Cl29 Nb9 2.467805 1_555
Cl29 Nb6 2.470602 1_455
Cl30 Nb11 2.467805 1_556
Cl30 Nb4 2.470602 1_545
Cl31 Lu0 2.629057 1_555
Cl31 Nb0 2.751137 1_555
Cl31 Cs0 3.901182 1_555
Cl32 Nb8 2.462881 1_455
Cl32 Nb10 2.472372 1_555
Cl32 Cs1 3.912744 1_555
Cl33 Nb7 2.467805 1_554
Cl33 Nb3 2.470602 1_565
Cl34 Lu1 2.629050 1_555
Cl34 Nb8 2.751137 1_555
Cl34 Cs1 3.901175 1_545
Cl35 Nb10 2.462881 1_565
Cl35 Nb6 2.472371 1_455
Cl35 Cs1 3.912738 1_555
