# generated using pymatgen
data_Ce2Al16Pt9
_symmetry_space_group_name_H-M   'P 1'
_cell_length_a   11.10361074
_cell_length_b   11.10389518
_cell_length_c   11.10386943
_cell_angle_alpha   158.44014790
_cell_angle_beta   114.92354466
_cell_angle_gamma   69.44156504
_symmetry_Int_Tables_number   1
_chemical_formula_structural   Ce2Al16Pt9
_chemical_formula_sum   'Ce2 Al16 Pt9'
_cell_volume   452.80525738
_cell_formula_units_Z   1
loop_
 _symmetry_equiv_pos_site_id
 _symmetry_equiv_pos_as_xyz
  1  'x, y, z'
loop_
 _atom_site_type_symbol
 _atom_site_label
 _atom_site_symmetry_multiplicity
 _atom_site_fract_x
 _atom_site_fract_y
 _atom_site_fract_z
 _atom_site_occupancy
  Ce  Ce0  1  0.22802698  0.22946626  0.00163769  1
  Ce  Ce1  1  0.77196538  0.77051231  -0.00164925  1
  Al  Al0  1  0.27420533  0.39232188  0.88139291  1
  Al  Al1  1  0.09223622  0.92104651  0.17158880  1
  Al  Al2  1  0.51134476  0.20432043  0.30792314  1
  Al  Al3  1  0.25050920  0.07879277  0.17100098  1
  Al  Al4  1  0.91387074  0.41393960  0.50010603  1
  Al  Al5  1  0.72579810  0.60767894  0.11862172  1
  Al  Al6  1  0.89641268  0.20423221  0.69291470  1
  Al  Al7  1  0.48864806  0.79569164  0.69208283  1
  Al  Al8  1  0.38585544  0.00020655  0.38606037  1
  Al  Al9  1  0.61413851  0.99979014  0.61393703  1
  Al  Al10  1  0.48905469  0.60743507  0.88166637  1
  Al  Al11  1  0.10359551  0.79577546  0.30710610  1
  Al  Al12  1  0.90778108  0.07895501  0.82842302  1
  Al  Al13  1  0.74948807  0.92120110  0.82897880  1
  Al  Al14  1  0.51092746  0.39256620  0.11832756  1
  Al  Al15  1  0.08613566  0.58605605  0.49986875  1
  Pt  Pt0  1  0.74962339  0.49993837  0.24955474  1
  Pt  Pt1  1  0.02635267  0.34056870  0.68626884  1
  Pt  Pt2  1  0.62372781  0.12401121  0.50029769  1
  Pt  Pt3  1  0.25038145  0.50008148  0.75045950  1
  Pt  Pt4  1  0.37625306  0.87598090  0.49970881  1
  Pt  Pt5  1  0.00000914  0.00000311  0.00000037  1
  Pt  Pt6  1  0.65428722  0.34068436  0.31430819  1
  Pt  Pt7  1  0.34569068  0.65931236  0.68565939  1
  Pt  Pt8  1  0.97367870  0.65943237  0.31375293  1
loop_
_geom_bond_atom_site_label_1
_geom_bond_atom_site_label_2
_geom_bond_distance
_geom_bond_site_symmetry_2
Ce0 Pt7 3.280455 1_555
Ce0 Pt8 3.283793 1_455
Ce0 Pt8 3.290504 1_444
Ce0 Pt7 3.291668 1_544
Ce0 Pt4 3.407037 1_555
Ce0 Pt4 3.417714 1_544
Ce1 Pt6 3.280741 1_554
Ce1 Pt1 3.284070 1_654
Ce1 Pt1 3.290824 1_665
Ce1 Pt6 3.291984 1_565
Ce1 Pt2 3.407099 1_554
Ce1 Pt2 3.417885 1_565
Al0 Pt3 2.510941 1_555
Al0 Pt1 2.523428 1_555
Al0 Pt4 2.529087 1_556
Al0 Pt4 2.530731 1_545
Al0 Ce0 3.321888 1_556
Al1 Pt5 2.505910 1_565
Al1 Pt1 2.549734 1_554
Al1 Pt1 2.550898 1_565
Al1 Pt3 2.698704 1_565
Al1 Pt3 2.701474 1_554
Al1 Ce1 3.401335 1_455
Al2 Pt6 2.492030 1_555
Al2 Pt7 2.657077 1_555
Al2 Pt7 2.660185 1_544
Al2 Pt2 2.725868 1_555
Al2 Ce1 3.331839 1_556
Al2 Ce1 3.344861 1_545
Al3 Pt5 2.505026 1_555
Al3 Pt7 2.549663 1_555
Al3 Pt7 2.550945 1_544
Al3 Pt3 2.698955 1_544
Al3 Pt3 2.701735 1_555
Al3 Ce0 3.400218 1_555
Al4 Pt1 2.595881 1_655
Al4 Pt6 2.595972 1_555
Al4 Pt5 2.604187 1_666
Al4 Pt5 2.605907 1_655
Al4 Ce1 3.314826 1_556
Al4 Ce1 3.321894 1_545
Al5 Pt0 2.510725 1_555
Al5 Pt8 2.523694 1_555
Al5 Pt2 2.529125 1_554
Al5 Pt2 2.530789 1_565
Al5 Ce1 3.321867 1_555
Al6 Pt1 2.492083 1_655
Al6 Pt8 2.656205 1_556
Al6 Pt8 2.661201 1_545
Al6 Pt2 2.725425 1_555
Al6 Ce1 3.336186 1_556
Al6 Ce1 3.344796 1_545
Al7 Pt7 2.491963 1_555
Al7 Pt6 2.657038 1_555
Al7 Pt6 2.660021 1_566
Al7 Pt4 2.725666 1_555
Al7 Ce0 3.331896 1_555
Al7 Ce0 3.344788 1_566
Al8 Pt3 2.632354 1_544
Al8 Pt3 2.633305 1_555
Al8 Pt2 2.637770 1_555
Al8 Pt4 2.638387 1_545
Al9 Pt0 2.632419 1_566
Al9 Pt0 2.633274 1_555
Al9 Pt4 2.637978 1_555
Al9 Pt2 2.638176 1_565
Al10 Pt3 2.510174 1_555
Al10 Pt7 2.524021 1_555
Al10 Pt2 2.529930 1_566
Al10 Pt2 2.529942 1_555
Al10 Ce1 3.320595 1_556
Al11 Pt8 2.491946 1_455
Al11 Pt1 2.656195 1_554
Al11 Pt1 2.661097 1_565
Al11 Pt4 2.725153 1_555
Al11 Ce0 3.336209 1_555
Al11 Ce0 3.344702 1_566
Al12 Pt5 2.505750 1_656
Al12 Pt8 2.549736 1_556
Al12 Pt8 2.550915 1_545
Al12 Pt0 2.698693 1_545
Al12 Pt0 2.701570 1_556
Al12 Ce0 3.401065 1_656
Al13 Pt5 2.505236 1_666
Al13 Pt6 2.549683 1_555
Al13 Pt6 2.550999 1_566
Al13 Pt0 2.699002 1_566
Al13 Pt0 2.701613 1_555
Al13 Ce1 3.400497 1_556
Al14 Pt0 2.510414 1_555
Al14 Pt6 2.523817 1_555
Al14 Pt4 2.529878 1_544
Al14 Pt4 2.529906 1_555
Al14 Ce0 3.320583 1_555
Al15 Pt8 2.595463 1_455
Al15 Pt7 2.595688 1_555
Al15 Pt5 2.604165 1_555
Al15 Pt5 2.605967 1_566
Al15 Ce0 3.314493 1_555
Al15 Ce0 3.321589 1_566
