# generated using pymatgen
data_RbBi3S5
_symmetry_space_group_name_H-M   'P 1'
_cell_length_a   4.22804800
_cell_length_b   12.72809200
_cell_length_c   19.05364300
_cell_angle_alpha   90.00000000
_cell_angle_beta   90.00000000
_cell_angle_gamma   90.00000000
_symmetry_Int_Tables_number   1
_chemical_formula_structural   RbBi3S5
_chemical_formula_sum   'Rb4 Bi12 S20'
_cell_volume   1025.37149175
_cell_formula_units_Z   4
loop_
 _symmetry_equiv_pos_site_id
 _symmetry_equiv_pos_as_xyz
  1  'x, y, z'
loop_
 _atom_site_type_symbol
 _atom_site_label
 _atom_site_symmetry_multiplicity
 _atom_site_fract_x
 _atom_site_fract_y
 _atom_site_fract_z
 _atom_site_occupancy
  Rb  Rb0  1  0.00000000  0.39802200  0.14889400  1
  Rb  Rb1  1  0.00000000  0.60197800  0.85110600  1
  Rb  Rb2  1  0.50000000  0.89802200  0.35110600  1
  Rb  Rb3  1  0.50000000  0.10197800  0.64889400  1
  Bi  Bi0  1  0.00000000  0.05093500  0.15068600  1
  Bi  Bi1  1  0.00000000  0.94906500  0.84931400  1
  Bi  Bi2  1  0.50000000  0.55093500  0.34931400  1
  Bi  Bi3  1  0.50000000  0.44906500  0.65068600  1
  Bi  Bi4  1  0.00000000  0.27402500  0.81439600  1
  Bi  Bi5  1  0.00000000  0.72597500  0.18560400  1
  Bi  Bi6  1  0.50000000  0.77402500  0.68560400  1
  Bi  Bi7  1  0.50000000  0.22597500  0.31439600  1
  Bi  Bi8  1  0.00000000  0.33079900  0.47806800  1
  Bi  Bi9  1  0.00000000  0.66920100  0.52193200  1
  Bi  Bi10  1  0.50000000  0.83079900  0.02193200  1
  Bi  Bi11  1  0.50000000  0.16920100  0.97806800  1
  S  S0  1  0.00000000  0.67662700  0.04580900  1
  S  S1  1  0.00000000  0.32337300  0.95419100  1
  S  S2  1  0.50000000  0.17662700  0.45419100  1
  S  S3  1  0.50000000  0.82337300  0.54580900  1
  S  S4  1  0.00000000  0.30852700  0.62847000  1
  S  S5  1  0.00000000  0.69147300  0.37153000  1
  S  S6  1  0.50000000  0.80852700  0.87153000  1
  S  S7  1  0.50000000  0.19147300  0.12847000  1
  S  S8  1  0.00000000  0.38942900  0.33258600  1
  S  S9  1  0.00000000  0.61057100  0.66741400  1
  S  S10  1  0.50000000  0.88942900  0.16741400  1
  S  S11  1  0.50000000  0.11057100  0.83258600  1
  S  S12  1  0.00000000  0.08912400  0.29312300  1
  S  S13  1  0.00000000  0.91087600  0.70687700  1
  S  S14  1  0.50000000  0.58912400  0.20687700  1
  S  S15  1  0.50000000  0.41087600  0.79312300  1
  S  S16  1  0.00000000  0.00000000  0.00000000  1
  S  S17  1  0.50000000  0.50000000  0.50000000  1
  S  S18  1  0.50000000  0.00000000  0.50000000  1
  S  S19  1  0.00000000  0.50000000  0.00000000  1
loop_
_geom_bond_atom_site_label_1
_geom_bond_atom_site_label_2
_geom_bond_distance
_geom_bond_site_symmetry_2
Rb0 S19 3.119805 1_555
Rb0 S7 3.395886 1_455
Rb0 S7 3.395886 1_555
Rb0 S14 3.406765 1_455
Rb0 S14 3.406765 1_555
Rb0 S8 3.501710 1_555
Rb0 S1 3.829542 1_554
Rb1 S19 3.119805 1_556
Rb1 S6 3.395886 1_455
Rb1 S6 3.395886 1_555
Rb1 S15 3.406765 1_455
Rb1 S15 3.406765 1_555
Rb1 S9 3.501710 1_555
Rb1 S0 3.829542 1_556
Rb2 S18 3.119805 1_565
Rb2 S5 3.395886 1_555
Rb2 S5 3.395886 1_655
Rb2 S12 3.406765 1_665
Rb2 S12 3.406765 1_565
Rb2 S10 3.501710 1_555
Rb2 S3 3.829542 1_555
Rb3 S18 3.119805 1_555
Rb3 S4 3.395886 1_655
Rb3 S4 3.395886 1_555
Rb3 S13 3.406765 1_645
Rb3 S13 3.406765 1_545
Rb3 S11 3.501710 1_555
Rb3 S2 3.829542 1_555
Bi0 S12 2.757129 1_555
Bi0 S7 2.801430 1_455
Bi0 S7 2.801430 1_555
Bi0 S16 2.943402 1_555
Bi0 S10 2.965879 1_545
Bi0 S10 2.965879 1_445
Bi1 S13 2.757129 1_555
Bi1 S6 2.801430 1_555
Bi1 S6 2.801430 1_455
Bi1 S16 2.943402 1_566
Bi1 S11 2.965879 1_465
Bi1 S11 2.965879 1_565
Bi2 S14 2.757129 1_555
Bi2 S5 2.801430 1_555
Bi2 S5 2.801430 1_655
Bi2 S17 2.943402 1_555
Bi2 S8 2.965879 1_555
Bi2 S8 2.965879 1_655
Bi3 S15 2.757129 1_555
Bi3 S4 2.801430 1_555
Bi3 S4 2.801430 1_655
Bi3 S17 2.943402 1_555
Bi3 S9 2.965879 1_655
Bi3 S9 2.965879 1_555
Bi4 S1 2.736659 1_555
Bi4 S15 2.769014 1_455
Bi4 S15 2.769014 1_555
Bi4 S11 2.986222 1_555
Bi4 S11 2.986222 1_455
Bi5 S0 2.736659 1_555
Bi5 S14 2.769014 1_455
Bi5 S14 2.769014 1_555
Bi5 S10 2.986222 1_455
Bi5 S10 2.986222 1_555
Bi6 S3 2.736659 1_555
Bi6 S13 2.769014 1_555
Bi6 S13 2.769014 1_655
Bi6 S9 2.986222 1_555
Bi6 S9 2.986222 1_655
Bi7 S2 2.736659 1_555
Bi7 S12 2.769014 1_655
Bi7 S12 2.769014 1_555
Bi7 S8 2.986222 1_655
Bi7 S8 2.986222 1_555
Bi8 S8 2.870655 1_555
Bi8 S4 2.879693 1_555
Bi8 S2 2.920060 1_555
Bi8 S2 2.920060 1_455
Bi8 S17 3.046595 1_555
Bi8 S17 3.046595 1_455
Bi9 S9 2.870655 1_555
Bi9 S5 2.879693 1_555
Bi9 S3 2.920060 1_455
Bi9 S3 2.920060 1_555
Bi9 S17 3.046595 1_555
Bi9 S17 3.046595 1_455
Bi10 S10 2.870655 1_555
Bi10 S6 2.879693 1_554
Bi10 S0 2.920060 1_555
Bi10 S0 2.920060 1_655
Bi10 S16 3.046595 1_665
Bi10 S16 3.046595 1_565
Bi11 S11 2.870655 1_555
Bi11 S7 2.879693 1_556
Bi11 S1 2.920060 1_555
Bi11 S1 2.920060 1_655
Bi11 S16 3.046595 1_556
Bi11 S16 3.046595 1_656
S0 S19 2.411616 1_555
S1 S19 2.411616 1_556
S18 S2 2.411616 1_555
S18 S3 2.411616 1_545
