# generated using pymatgen
data_Tl2BiP2S7
_symmetry_space_group_name_H-M   'P 1'
_cell_length_a   12.27057562
_cell_length_b   12.27057562
_cell_length_c   19.09521750
_cell_angle_alpha   61.41387176
_cell_angle_beta   61.41387176
_cell_angle_gamma   32.25246764
_symmetry_Int_Tables_number   1
_chemical_formula_structural   Tl2BiP2S7
_chemical_formula_sum   'Tl8 Bi4 P8 S28'
_cell_volume   1330.44585970
_cell_formula_units_Z   4
loop_
 _symmetry_equiv_pos_site_id
 _symmetry_equiv_pos_as_xyz
  1  'x, y, z'
loop_
 _atom_site_type_symbol
 _atom_site_label
 _atom_site_symmetry_multiplicity
 _atom_site_fract_x
 _atom_site_fract_y
 _atom_site_fract_z
 _atom_site_occupancy
  Tl  Tl0  1  0.52320100  0.46345900  0.88180800  1
  Tl  Tl1  1  0.46345900  0.52320100  0.38180800  1
  Tl  Tl2  1  0.47679900  0.53654100  0.11819200  1
  Tl  Tl3  1  0.17934600  0.17317900  0.47301500  1
  Tl  Tl4  1  0.53654100  0.47679900  0.61819200  1
  Tl  Tl5  1  0.82065400  0.82682100  0.52698500  1
  Tl  Tl6  1  0.82682100  0.82065400  0.02698500  1
  Tl  Tl7  1  0.17317900  0.17934600  0.97301500  1
  Bi  Bi0  1  0.21355900  0.11313300  0.75343600  1
  Bi  Bi1  1  0.78644100  0.88686700  0.24656400  1
  Bi  Bi2  1  0.88686700  0.78644100  0.74656400  1
  Bi  Bi3  1  0.11313300  0.21355900  0.25343600  1
  P  P0  1  0.97163900  0.93047200  0.80761300  1
  P  P1  1  0.06952800  0.02836100  0.69238700  1
  P  P2  1  0.66484800  0.66598900  0.36164600  1
  P  P3  1  0.02836100  0.06952800  0.19238700  1
  P  P4  1  0.33515200  0.33401100  0.63835400  1
  P  P5  1  0.93047200  0.97163900  0.30761300  1
  P  P6  1  0.66598900  0.66484800  0.86164600  1
  P  P7  1  0.33401200  0.33515200  0.13835400  1
  S  S0  1  0.36007300  0.85943200  0.39306400  1
  S  S1  1  0.14056800  0.63992700  0.10693600  1
  S  S2  1  0.72091100  0.74258600  0.40249400  1
  S  S3  1  0.68442000  0.11624000  0.80195600  1
  S  S4  1  0.31558000  0.88376000  0.19804400  1
  S  S5  1  0.83355300  0.37109300  0.41154000  1
  S  S6  1  0.98752400  0.95413600  0.89813900  1
  S  S7  1  0.01247600  0.04586400  0.10186100  1
  S  S8  1  0.85943200  0.36007300  0.89306400  1
  S  S9  1  0.67294400  0.76247800  0.73758300  1
  S  S10  1  0.11624000  0.68442000  0.30195600  1
  S  S11  1  0.16644700  0.62890700  0.58846000  1
  S  S12  1  0.62890700  0.16644700  0.08846000  1
  S  S13  1  0.63992700  0.14056800  0.60693600  1
  S  S14  1  0.37109300  0.83355300  0.91154000  1
  S  S15  1  0.88376000  0.31558000  0.69804400  1
  S  S16  1  0.95413600  0.98752400  0.39813900  1
  S  S17  1  0.76247800  0.67294400  0.23758300  1
  S  S18  1  0.23752200  0.32705600  0.76241700  1
  S  S19  1  0.25741400  0.27908900  0.09750600  1
  S  S20  1  0.17593500  0.63271500  0.80356300  1
  S  S21  1  0.74258600  0.72091100  0.90249400  1
  S  S22  1  0.63271500  0.17593500  0.30356300  1
  S  S23  1  0.27908900  0.25741400  0.59750600  1
  S  S24  1  0.32705600  0.23752200  0.26241700  1
  S  S25  1  0.82406500  0.36728500  0.19643700  1
  S  S26  1  0.36728500  0.82406500  0.69643700  1
  S  S27  1  0.04586400  0.01247600  0.60186100  1
loop_
_geom_bond_atom_site_label_1
_geom_bond_atom_site_label_2
_geom_bond_distance
_geom_bond_site_symmetry_2
Bi0 S23 2.778252 1_555
Bi0 S26 2.781564 1_545
Bi0 S15 2.871361 1_455
Bi0 S18 2.964932 1_555
Bi0 S9 2.994960 1_545
Bi0 S14 3.012816 1_545
Bi0 S8 3.089657 1_455
Bi1 S2 2.778252 1_555
Bi1 S22 2.781564 1_565
Bi1 S10 2.871361 1_655
Bi1 S17 2.964932 1_555
Bi1 S24 2.994960 1_565
Bi1 S12 3.012816 1_565
Bi1 S1 3.089657 1_655
Bi2 S21 2.778252 1_555
Bi2 S20 2.781564 1_655
Bi2 S3 2.871361 1_565
Bi2 S9 2.964932 1_555
Bi2 S18 2.994960 1_655
Bi2 S11 3.012816 1_655
Bi2 S13 3.089657 1_565
Bi3 S19 2.778252 1_555
Bi3 S25 2.781564 1_455
Bi3 S4 2.871361 1_545
Bi3 S24 2.964932 1_555
Bi3 S17 2.994960 1_455
Bi3 S5 3.012816 1_455
Bi3 S0 3.089657 1_545
P0 S6 2.002228 1_555
P0 S3 2.041849 1_565
P0 S20 2.057293 1_655
P0 P1 2.260269 1_665
P1 S27 2.002228 1_555
P1 S15 2.041849 1_455
P1 S26 2.057293 1_545
P2 S0 2.044799 1_555
P2 S5 2.050655 1_555
P2 S2 2.067294 1_555
P2 S17 2.078034 1_555
P3 S7 2.002228 1_555
P3 S4 2.041849 1_545
P3 S25 2.057293 1_455
P3 P5 2.260269 1_445
P4 S13 2.044799 1_555
P4 S11 2.050655 1_555
P4 S23 2.067294 1_555
P4 S18 2.078034 1_555
P5 S16 2.002228 1_555
P5 S10 2.041849 1_655
P5 S22 2.057293 1_565
P6 S8 2.044799 1_555
P6 S14 2.050655 1_555
P6 S21 2.067294 1_555
P6 S9 2.078034 1_555
P7 S1 2.044796 1_555
P7 S12 2.050647 1_555
P7 S19 2.067305 1_555
P7 S24 2.078034 1_555
S0 Tl3 3.164519 1_565
S0 Tl1 3.226806 1_555
S1 Tl6 3.164519 1_455
S1 Tl2 3.226806 1_555
S5 Tl3 3.144654 1_655
S6 Tl6 3.096493 1_556
S7 Tl7 3.096493 1_554
S8 Tl7 3.164519 1_655
S8 Tl0 3.226806 1_555
S11 Tl5 3.144654 1_455
S12 Tl6 3.144654 1_545
S13 Tl5 3.164519 1_545
S13 Tl4 3.226806 1_555
S14 Tl7 3.144654 1_565
S16 Tl5 3.096493 1_555
S27 Tl3 3.096493 1_555
