# generated using pymatgen
data_SrLiBS3
_symmetry_space_group_name_H-M   'P 1'
_cell_length_a   7.11388600
_cell_length_b   7.58931300
_cell_length_c   9.17207500
_cell_angle_alpha   90.00000000
_cell_angle_beta   90.00000000
_cell_angle_gamma   90.00000000
_symmetry_Int_Tables_number   1
_chemical_formula_structural   SrLiBS3
_chemical_formula_sum   'Sr4 Li4 B4 S12'
_cell_volume   495.19581201
_cell_formula_units_Z   4
loop_
 _symmetry_equiv_pos_site_id
 _symmetry_equiv_pos_as_xyz
  1  'x, y, z'
loop_
 _atom_site_type_symbol
 _atom_site_label
 _atom_site_symmetry_multiplicity
 _atom_site_fract_x
 _atom_site_fract_y
 _atom_site_fract_z
 _atom_site_occupancy
  Sr  Sr0  1  0.02818400  0.14290600  0.25000000  1
  Sr  Sr1  1  0.52818400  0.35709400  0.75000000  1
  Sr  Sr2  1  0.47181600  0.64290600  0.25000000  1
  Sr  Sr3  1  0.97181600  0.85709400  0.75000000  1
  Li  Li0  1  0.50000000  0.00000000  0.00000000  1
  Li  Li1  1  0.50000000  0.00000000  0.50000000  1
  Li  Li2  1  0.00000000  0.50000000  0.50000000  1
  Li  Li3  1  0.00000000  0.50000000  0.00000000  1
  B  B0  1  0.03844700  0.71402200  0.25000000  1
  B  B1  1  0.46155300  0.21402200  0.25000000  1
  B  B2  1  0.53844700  0.78597800  0.75000000  1
  B  B3  1  0.96155300  0.28597800  0.75000000  1
  S  S0  1  0.86865600  0.19628600  0.57986800  1
  S  S1  1  0.13134400  0.80371400  0.42013200  1
  S  S2  1  0.13134400  0.80371400  0.07986800  1
  S  S3  1  0.87852000  0.52402200  0.25000000  1
  S  S4  1  0.37852000  0.97597800  0.75000000  1
  S  S5  1  0.62148000  0.02402200  0.25000000  1
  S  S6  1  0.63134400  0.69628600  0.92013200  1
  S  S7  1  0.63134400  0.69628600  0.57986800  1
  S  S8  1  0.12148000  0.47597800  0.75000000  1
  S  S9  1  0.36865600  0.30371400  0.42013200  1
  S  S10  1  0.36865600  0.30371400  0.07986800  1
  S  S11  1  0.86865600  0.19628600  0.92013200  1
loop_
_geom_bond_atom_site_label_1
_geom_bond_atom_site_label_2
_geom_bond_distance
_geom_bond_site_symmetry_2
Li0 S5 2.457235 1_555
Li0 S4 2.457235 1_544
Li0 S10 2.592800 1_555
Li0 S6 2.592800 1_544
Li1 S5 2.457235 1_555
Li1 S4 2.457235 1_545
Li1 S7 2.592800 1_545
Li1 S9 2.592800 1_555
Li2 S3 2.457235 1_455
Li2 S8 2.457235 1_555
Li2 S1 2.592800 1_555
Li2 S0 2.592800 1_455
Li3 S3 2.457235 1_455
Li3 S8 2.457235 1_554
Li3 S2 2.592800 1_555
Li3 S11 2.592800 1_454
B0 S2 1.826235 1_555
B0 S1 1.826235 1_555
B0 S3 1.836748 1_455
B1 S9 1.826235 1_555
B1 S10 1.826235 1_555
B1 S5 1.836748 1_555
B2 S6 1.826235 1_555
B2 S7 1.826235 1_555
B2 S4 1.836748 1_555
B3 S11 1.826235 1_555
B3 S0 1.826235 1_555
B3 S8 1.836748 1_655
S0 Sr3 3.098434 1_545
S0 Sr1 3.129048 1_555
S0 Sr0 3.256706 1_655
S1 Sr0 3.098434 1_565
S1 Sr2 3.129048 1_555
S1 Sr3 3.256706 1_455
S2 Sr0 3.098434 1_565
S2 Sr2 3.129048 1_555
S2 Sr3 3.256706 1_454
S3 Sr2 3.030664 1_555
S3 Sr0 3.082142 1_655
S4 Sr3 3.030664 1_455
S4 Sr1 3.082142 1_565
S5 Sr0 3.030664 1_655
S5 Sr2 3.082142 1_545
S6 Sr1 3.098434 1_555
S6 Sr3 3.129048 1_555
S6 Sr2 3.256706 1_556
S7 Sr1 3.098434 1_555
S7 Sr3 3.129048 1_555
S7 Sr2 3.256706 1_555
S8 Sr1 3.030664 1_555
S8 Sr3 3.082142 1_455
S9 Sr2 3.098434 1_555
S9 Sr0 3.129048 1_555
S9 Sr1 3.256706 1_555
S10 Sr2 3.098434 1_555
S10 Sr0 3.129048 1_555
S10 Sr1 3.256706 1_554
S11 Sr3 3.098434 1_545
S11 Sr1 3.129048 1_555
S11 Sr0 3.256706 1_656
