# generated using pymatgen
data_NaCuPO4
_symmetry_space_group_name_H-M   'P 1'
_cell_length_a   8.99995500
_cell_length_b   5.08101100
_cell_length_c   8.08676699
_cell_angle_alpha   60.07205427
_cell_angle_beta   90.00000000
_cell_angle_gamma   90.00000000
_symmetry_Int_Tables_number   1
_chemical_formula_structural   NaCuPO4
_chemical_formula_sum   'Na4 Cu4 P4 O16'
_cell_volume   320.48735821
_cell_formula_units_Z   4
loop_
 _symmetry_equiv_pos_site_id
 _symmetry_equiv_pos_as_xyz
  1  'x, y, z'
loop_
 _atom_site_type_symbol
 _atom_site_label
 _atom_site_symmetry_multiplicity
 _atom_site_fract_x
 _atom_site_fract_y
 _atom_site_fract_z
 _atom_site_occupancy
  Na  Na0  1  0.35577800  0.34939500  0.69659800  1
  Na  Na1  1  0.14422200  0.34939500  0.19659800  1
  Na  Na2  1  0.85577800  0.65060500  0.80340200  1
  Na  Na3  1  0.64422200  0.65060500  0.30340200  1
  Cu  Cu0  1  0.00000000  0.50000000  0.50000000  1
  Cu  Cu1  1  0.50000000  0.00000000  0.50000000  1
  Cu  Cu2  1  0.00000000  0.00000000  0.00000000  1
  Cu  Cu3  1  0.50000000  0.50000000  0.00000000  1
  P  P0  1  0.32494000  0.85206000  0.19761000  1
  P  P1  1  0.82494000  0.14794000  0.30239000  1
  P  P2  1  0.67506000  0.14794000  0.80239000  1
  P  P3  1  0.17506000  0.85206000  0.69761000  1
  O  O0  1  0.36575300  0.16953600  0.03081300  1
  O  O1  1  0.63424700  0.83046400  0.96918700  1
  O  O2  1  0.86575300  0.83046400  0.46918700  1
  O  O3  1  0.37692000  0.58008300  0.17502400  1
  O  O4  1  0.60549500  0.20812800  0.61012700  1
  O  O5  1  0.13424700  0.16953600  0.53081300  1
  O  O6  1  0.39450500  0.79187200  0.38987300  1
  O  O7  1  0.87692000  0.41991700  0.32497600  1
  O  O8  1  0.62308000  0.41991700  0.82497600  1
  O  O9  1  0.34931000  0.84562800  0.71455600  1
  O  O10  1  0.12308000  0.58008300  0.67502400  1
  O  O11  1  0.15069000  0.84562800  0.21455600  1
  O  O12  1  0.89450500  0.20812800  0.11012700  1
  O  O13  1  0.10549500  0.79187200  0.88987300  1
  O  O14  1  0.84931000  0.15437200  0.78544400  1
  O  O15  1  0.65069000  0.15437200  0.28544400  1
loop_
_geom_bond_atom_site_label_1
_geom_bond_atom_site_label_2
_geom_bond_distance
_geom_bond_site_symmetry_2
Na0 O10 2.363524 1_555
Na0 O0 2.383980 1_556
Na0 O6 2.400850 1_555
Na0 O9 2.491055 1_545
Na0 O4 2.560471 1_555
Na0 O9 2.597522 1_555
Na0 O8 2.713814 1_555
Na0 O5 2.798243 1_555
Na1 O3 2.363524 1_555
Na1 O5 2.383980 1_555
Na1 O13 2.400850 1_554
Na1 O11 2.491055 1_545
Na1 O12 2.560471 1_455
Na1 O11 2.597522 1_555
Na1 O7 2.713814 1_455
Na1 O0 2.798243 1_555
Na2 O8 2.363524 1_555
Na2 O2 2.383980 1_555
Na2 O12 2.400850 1_556
Na2 O14 2.491055 1_565
Na2 O13 2.560471 1_655
Na2 O14 2.597522 1_555
Na2 O10 2.713814 1_655
Na2 O1 2.798243 1_555
Na3 O7 2.363524 1_555
Na3 O1 2.383980 1_554
Na3 O4 2.400850 1_555
Na3 O15 2.491055 1_565
Na3 O6 2.560471 1_555
Na3 O15 2.597522 1_555
Na3 O3 2.713814 1_555
Na3 O2 2.798243 1_555
Cu0 O2 1.980844 1_455
Cu0 O5 1.980844 1_555
Cu0 O10 1.992627 1_555
Cu0 O7 1.992627 1_455
Cu0 O14 2.491336 1_455
Cu0 O11 2.491336 1_555
Cu1 O4 1.937165 1_555
Cu1 O6 1.937165 1_545
Cu1 O9 2.026575 1_545
Cu1 O15 2.026575 1_555
Cu2 O12 1.937165 1_455
Cu2 O13 1.937165 1_544
Cu2 O11 2.026575 1_545
Cu2 O14 2.026575 1_454
Cu3 O1 1.980844 1_554
Cu3 O0 1.980844 1_555
Cu3 O3 1.992627 1_555
Cu3 O8 1.992627 1_554
Cu3 O9 2.491336 1_554
Cu3 O15 2.491336 1_555
O0 P0 1.544447 1_545
O1 P2 1.544447 1_565
O2 P1 1.544447 1_565
O3 P0 1.553630 1_555
O4 P2 1.558339 1_555
O5 P3 1.544447 1_545
O6 P0 1.558339 1_555
O7 P1 1.553630 1_555
O8 P2 1.553630 1_555
O9 P3 1.573138 1_555
O10 P3 1.553630 1_555
O11 P0 1.573138 1_555
O12 P1 1.558339 1_555
O13 P3 1.558339 1_555
O14 P2 1.573138 1_555
O15 P1 1.573138 1_555
