# generated using pymatgen
data_Cs2UHg2Se5
_symmetry_space_group_name_H-M   'P 1'
_cell_length_a   4.37681400
_cell_length_b   10.45064700
_cell_length_c   16.92049871
_cell_angle_alpha   65.43373524
_cell_angle_beta   90.00000000
_cell_angle_gamma   90.00000000
_symmetry_Int_Tables_number   1
_chemical_formula_structural   Cs2UHg2Se5
_chemical_formula_sum   'Cs4 U2 Hg4 Se10'
_cell_volume   703.89533175
_cell_formula_units_Z   2
loop_
 _symmetry_equiv_pos_site_id
 _symmetry_equiv_pos_as_xyz
  1  'x, y, z'
loop_
 _atom_site_type_symbol
 _atom_site_label
 _atom_site_symmetry_multiplicity
 _atom_site_fract_x
 _atom_site_fract_y
 _atom_site_fract_z
 _atom_site_occupancy
  Cs  Cs0  1  0.68647300  0.76937800  0.94582600  1
  Cs  Cs1  1  0.68647300  0.23062200  0.55417400  1
  Cs  Cs2  1  0.31352700  0.76937800  0.44582600  1
  Cs  Cs3  1  0.31352700  0.23062200  0.05417400  1
  U  U0  1  0.79455600  0.50000000  0.75000000  1
  U  U1  1  0.20544400  0.50000000  0.25000000  1
  Hg  Hg0  1  0.37260100  0.82985800  0.70279300  1
  Hg  Hg1  1  0.37260100  0.17014200  0.79720700  1
  Hg  Hg2  1  0.62739900  0.82985800  0.20279300  1
  Hg  Hg3  1  0.62739900  0.17014200  0.29720700  1
  Se  Se0  1  0.81919700  0.21785600  0.88230300  1
  Se  Se1  1  0.70438300  0.55376900  0.34342000  1
  Se  Se2  1  0.29561700  0.44623100  0.65658000  1
  Se  Se3  1  0.18080300  0.78214400  0.11769700  1
  Se  Se4  1  0.18080300  0.21785600  0.38230300  1
  Se  Se5  1  0.70438300  0.44623100  0.15658000  1
  Se  Se6  1  0.08003200  0.00000000  0.75000000  1
  Se  Se7  1  0.29561700  0.55376900  0.84342000  1
  Se  Se8  1  0.81919700  0.78214400  0.61769700  1
  Se  Se9  1  0.91996800  0.00000000  0.25000000  1
loop_
_geom_bond_atom_site_label_1
_geom_bond_atom_site_label_2
_geom_bond_distance
_geom_bond_site_symmetry_2
Cs0 Se6 3.621435 1_665
Cs0 Se3 3.671352 1_656
Cs0 Se3 3.700819 1_556
Cs0 Se5 3.756878 1_556
Cs0 Se7 3.775255 1_555
Cs0 Se7 4.293505 1_655
Cs1 Se6 3.621435 1_655
Cs1 Se4 3.671352 1_655
Cs1 Se4 3.700819 1_555
Cs1 Se1 3.756878 1_555
Cs1 Se2 3.775255 1_555
Cs1 Se2 4.293505 1_655
Cs2 Se9 3.621435 1_465
Cs2 Se8 3.671352 1_455
Cs2 Se8 3.700819 1_555
Cs2 Se2 3.756878 1_555
Cs2 Se1 3.775255 1_555
Cs2 Se1 4.293505 1_455
Cs3 Se9 3.621435 1_455
Cs3 Se0 3.671352 1_454
Cs3 Se0 3.700819 1_554
Cs3 Se7 3.756878 1_554
Cs3 Se5 3.775255 1_555
Cs3 Se5 4.293505 1_455
Hg0 Se6 2.573000 1_565
Hg0 Se8 2.596070 1_555
Hg0 Se7 2.896866 1_555
Hg0 Se8 2.964059 1_455
Hg1 Se6 2.573000 1_555
Hg1 Se0 2.596070 1_555
Hg1 Se2 2.896866 1_555
Hg1 Se0 2.964059 1_455
Hg2 Se9 2.573000 1_565
Hg2 Se3 2.596070 1_555
Hg2 Se1 2.896866 1_555
Hg2 Se3 2.964059 1_655
Hg3 Se9 2.573000 1_555
Hg3 Se4 2.596070 1_555
Hg3 Se5 2.896866 1_555
Hg3 Se4 2.964059 1_655
Se0 U0 2.868583 1_555
Se1 U1 2.884751 1_555
Se1 U1 2.891788 1_655
Se2 U0 2.884751 1_555
Se2 U0 2.891788 1_455
Se3 U1 2.868583 1_555
Se4 U1 2.868583 1_555
Se5 U1 2.884751 1_555
Se5 U1 2.891788 1_655
Se7 U0 2.884751 1_555
Se7 U0 2.891788 1_455
Se8 U0 2.868583 1_555
