# generated using pymatgen
data_GdMoClO4
_symmetry_space_group_name_H-M   'P 1'
_cell_length_a   6.39144895
_cell_length_b   6.39144895
_cell_length_c   6.98552651
_cell_angle_alpha   76.12740122
_cell_angle_beta   76.12740122
_cell_angle_gamma   71.00706290
_symmetry_Int_Tables_number   1
_chemical_formula_structural   GdMoClO4
_chemical_formula_sum   'Gd2 Mo2 Cl2 O8'
_cell_volume   257.85932988
_cell_formula_units_Z   2
loop_
 _symmetry_equiv_pos_site_id
 _symmetry_equiv_pos_as_xyz
  1  'x, y, z'
loop_
 _atom_site_type_symbol
 _atom_site_label
 _atom_site_symmetry_multiplicity
 _atom_site_fract_x
 _atom_site_fract_y
 _atom_site_fract_z
 _atom_site_occupancy
  Gd  Gd0  1  0.77869000  0.77869000  0.11414100  1
  Gd  Gd1  1  0.22131000  0.22131000  0.88585900  1
  Mo  Mo0  1  0.36231100  0.36231100  0.26822600  1
  Mo  Mo1  1  0.63768900  0.63768900  0.73177400  1
  Cl  Cl0  1  0.98922300  0.98922300  0.76672000  1
  Cl  Cl1  1  0.01077700  0.01077700  0.23328000  1
  O  O0  1  0.70619300  0.70619300  0.46764200  1
  O  O1  1  0.49058400  0.11289500  0.15325800  1
  O  O2  1  0.29380700  0.29380700  0.53235800  1
  O  O3  1  0.50941600  0.88710500  0.84674200  1
  O  O4  1  0.88710500  0.50941600  0.84674200  1
  O  O5  1  0.45889300  0.45889300  0.79647000  1
  O  O6  1  0.11289500  0.49058400  0.15325800  1
  O  O7  1  0.54110700  0.54110700  0.20353000  1
loop_
_geom_bond_atom_site_label_1
_geom_bond_atom_site_label_2
_geom_bond_distance
_geom_bond_site_symmetry_2
Gd0 O6 2.346609 1_655
Gd0 O1 2.346609 1_565
Gd0 O0 2.360017 1_555
Gd0 O7 2.364974 1_555
Gd0 O4 2.660069 1_554
Gd0 O3 2.660069 1_554
Gd1 O4 2.346609 1_455
Gd1 O3 2.346609 1_545
Gd1 O2 2.360017 1_555
Gd1 O5 2.364974 1_555
Gd1 O1 2.660069 1_556
Gd1 O6 2.660069 1_556
Mo0 O2 1.771385 1_555
Mo0 O7 1.780670 1_555
Mo0 O6 1.818209 1_555
Mo0 O1 1.818209 1_555
Mo1 O0 1.771385 1_555
Mo1 O5 1.780670 1_555
Mo1 O3 1.818209 1_555
Mo1 O4 1.818209 1_555
Cl0 Gd0 2.749157 1_556
Cl0 Gd1 2.776626 1_665
Cl1 Gd1 2.749157 1_554
Cl1 Gd0 2.776626 1_445
