# generated using pymatgen
data_Pr(GeRu)2
_symmetry_space_group_name_H-M   'P 1'
_cell_length_a   4.28370931
_cell_length_b   4.28370976
_cell_length_c   5.87881020
_cell_angle_alpha   111.36663105
_cell_angle_beta   111.36664071
_cell_angle_gamma   89.99999211
_symmetry_Int_Tables_number   1
_chemical_formula_structural   Pr(GeRu)2
_chemical_formula_sum   'Pr1 Ge2 Ru2'
_cell_volume   92.45523117
_cell_formula_units_Z   1
loop_
 _symmetry_equiv_pos_site_id
 _symmetry_equiv_pos_as_xyz
  1  'x, y, z'
loop_
 _atom_site_type_symbol
 _atom_site_label
 _atom_site_symmetry_multiplicity
 _atom_site_fract_x
 _atom_site_fract_y
 _atom_site_fract_z
 _atom_site_occupancy
  Pr  Pr0  1  0.00000000  0.00000000  0.00000000  1
  Ge  Ge0  1  0.36487725  0.36487725  0.72975549  1
  Ge  Ge1  1  0.63512275  0.63512275  0.27024451  1
  Ru  Ru0  1  0.75000000  0.25000000  0.50000000  1
  Ru  Ru1  1  0.25000000  0.75000000  0.50000000  1
loop_
_geom_bond_atom_site_label_1
_geom_bond_atom_site_label_2
_geom_bond_distance
_geom_bond_site_symmetry_2
Pr0 Ru0 3.306641 1_454
Pr0 Ru1 3.306641 1_545
Pr0 Ru1 3.306641 1_544
Pr0 Ru0 3.306641 1_455
Pr0 Ru0 3.306641 1_555
Pr0 Ru1 3.306641 1_444
Pr0 Ru1 3.306642 1_555
Pr0 Ru0 3.306642 1_444
Ge0 Ru0 2.434659 1_455
Ge0 Ru1 2.434659 1_545
Ge0 Ru1 2.434662 1_555
Ge0 Ru0 2.434662 1_555
Ge0 Pr0 3.320995 1_556
Ge0 Pr0 3.320998 1_656
Ge0 Pr0 3.320998 1_566
Ge0 Pr0 3.321001 1_666
Ge1 Ru1 2.434659 1_655
Ge1 Ru0 2.434659 1_565
Ge1 Ru0 2.434662 1_555
Ge1 Ru1 2.434662 1_555
Ge1 Pr0 3.320995 1_665
Ge1 Pr0 3.320998 1_565
Ge1 Pr0 3.320998 1_655
Ge1 Pr0 3.321001 1_555
