# generated using pymatgen
data_BaNi9As5
_symmetry_space_group_name_H-M   'P 1'
_cell_length_a   6.69899968
_cell_length_b   6.69900252
_cell_length_c   11.22472921
_cell_angle_alpha   89.99993641
_cell_angle_beta   90.00004458
_cell_angle_gamma   119.99658423
_symmetry_Int_Tables_number   1
_chemical_formula_structural   BaNi9As5
_chemical_formula_sum   'Ba2 Ni18 As10'
_cell_volume   436.25613708
_cell_formula_units_Z   2
loop_
 _symmetry_equiv_pos_site_id
 _symmetry_equiv_pos_as_xyz
  1  'x, y, z'
loop_
 _atom_site_type_symbol
 _atom_site_label
 _atom_site_symmetry_multiplicity
 _atom_site_fract_x
 _atom_site_fract_y
 _atom_site_fract_z
 _atom_site_occupancy
  Ba  Ba0  1  0.00000076  0.00000086  -0.00000899  1
  Ba  Ba1  1  -0.00000013  0.00000062  0.50000914  1
  Ni  Ni0  1  0.53570025  0.46430015  0.10664654  1
  Ni  Ni1  1  0.07134425  0.53566987  0.60676046  1
  Ni  Ni2  1  0.46433068  0.92865558  0.60675986  1
  Ni  Ni3  1  0.53569410  0.07139330  0.10664675  1
  Ni  Ni4  1  0.92860681  0.46430582  0.10664654  1
  Ni  Ni5  1  0.07139048  0.53569233  0.89344255  1
  Ni  Ni6  1  0.46430739  0.92860970  0.89344282  1
  Ni  Ni7  1  0.46432517  0.53567577  0.60676083  1
  Ni  Ni8  1  0.46430052  0.53569742  0.89344256  1
  Ni  Ni9  1  0.53567675  0.46432259  0.39315091  1
  Ni  Ni10  1  0.92865294  0.46432857  0.39315064  1
  Ni  Ni11  1  0.53567015  0.07134615  0.39315116  1
  Ni  Ni12  1  0.20909166  0.79090945  0.24984223  1
  Ni  Ni13  1  0.41817101  0.20908926  0.75015670  1
  Ni  Ni14  1  0.79091094  0.58182853  0.75015811  1
  Ni  Ni15  1  0.20909686  0.41818577  0.24984291  1
  Ni  Ni16  1  0.58181472  0.79090353  0.24984350  1
  Ni  Ni17  1  0.79091623  0.20908484  0.75015794  1
  As  As0  1  0.82718951  0.17281030  0.24999594  1
  As  As1  1  0.65437331  0.82718893  0.75000523  1
  As  As2  1  0.17281015  0.34562591  0.75000457  1
  As  As3  1  0.82719272  0.65438087  0.24999292  1
  As  As4  1  0.34561931  0.17280741  0.24999299  1
  As  As5  1  0.17281284  0.82718724  0.75000442  1
  As  As6  1  0.33333502  0.66666623  0.06044271  1
  As  As7  1  0.66666651  0.33333354  0.56045126  1
  As  As8  1  0.66666556  0.33333354  0.93955019  1
  As  As9  1  0.33333356  0.66666590  0.43955661  1
loop_
_geom_bond_atom_site_label_1
_geom_bond_atom_site_label_2
_geom_bond_distance
_geom_bond_site_symmetry_2
Ba0 Ni6 3.580642 1_544
Ba0 Ni5 3.580651 1_544
Ba0 Ni5 3.580653 1_554
Ba0 Ni6 3.580659 1_444
Ba0 Ni8 3.580803 1_554
Ba0 Ni8 3.580827 1_444
Ba0 Ni4 3.581047 1_455
Ba0 Ni3 3.581051 1_455
Ba0 Ni3 3.581059 1_555
Ba0 Ni4 3.581066 1_445
Ba0 Ni0 3.581215 1_555
Ba0 Ni0 3.581223 1_445
Ba1 Ni2 3.581376 1_545
Ba1 Ni1 3.581377 1_545
Ba1 Ni2 3.581382 1_445
Ba1 Ni1 3.581389 1_555
Ba1 Ni7 3.581545 1_445
Ba1 Ni7 3.581548 1_555
Ba1 Ni10 3.581771 1_455
Ba1 Ni11 3.581774 1_455
Ba1 Ni11 3.581791 1_555
Ba1 Ni10 3.581803 1_445
Ba1 Ni9 3.581946 1_555
Ba1 Ni9 3.581954 1_445
As0 Ni16 2.245525 1_545
As0 Ni15 2.245528 1_655
As0 Ni10 2.351711 1_555
As0 Ni11 2.351718 1_555
As0 Ni3 2.353135 1_555
As0 Ni4 2.353137 1_555
As0 Ba0 3.448964 1_655
As0 Ba1 3.449033 1_655
As1 Ni14 2.245333 1_555
As1 Ni17 2.245403 1_565
As1 Ni2 2.352312 1_555
As1 Ni7 2.352399 1_555
As1 Ni6 2.353725 1_555
As1 Ni8 2.353818 1_555
As1 Ba0 3.448869 1_666
As1 Ba1 3.448961 1_665
As2 Ni13 2.245330 1_555
As2 Ni17 2.245391 1_455
As2 Ni1 2.352306 1_555
As2 Ni7 2.352402 1_555
As2 Ni5 2.353726 1_555
As2 Ni8 2.353818 1_555
As2 Ba0 3.448867 1_556
As2 Ba1 3.448952 1_555
As3 Ni16 2.245365 1_555
As3 Ni12 2.245436 1_655
As3 Ni10 2.351660 1_555
As3 Ni9 2.351755 1_555
As3 Ni4 2.353042 1_555
As3 Ni0 2.353131 1_555
As3 Ba0 3.448991 1_665
As3 Ba1 3.449124 1_665
As4 Ni15 2.245367 1_555
As4 Ni12 2.245432 1_545
As4 Ni11 2.351660 1_555
As4 Ni9 2.351751 1_555
As4 Ni3 2.353039 1_555
As4 Ni0 2.353132 1_555
As4 Ba0 3.448987 1_555
As4 Ba1 3.449121 1_555
As5 Ni14 2.245482 1_455
As5 Ni13 2.245483 1_565
As5 Ni1 2.352387 1_555
As5 Ni2 2.352393 1_555
As5 Ni5 2.353811 1_555
As5 Ni6 2.353812 1_555
As5 Ba0 3.448813 1_566
As5 Ba1 3.448891 1_565
As6 Ni0 2.404604 1_555
As6 Ni3 2.404701 1_565
As6 Ni4 2.404705 1_455
As6 Ni8 2.413093 1_554
As6 Ni6 2.413172 1_554
As6 Ni5 2.413178 1_554
As6 Ni12 2.568625 1_555
As6 Ni15 2.568651 1_555
As6 Ni16 2.568654 1_555
As7 Ni7 2.404591 1_555
As7 Ni1 2.404675 1_655
As7 Ni2 2.404675 1_545
As7 Ni9 2.415872 1_555
As7 Ni10 2.415953 1_555
As7 Ni11 2.415953 1_555
As7 Ni17 2.571515 1_555
As7 Ni13 2.571537 1_555
As7 Ni14 2.571550 1_555
As8 Ni8 2.404358 1_555
As8 Ni6 2.404449 1_545
As8 Ni5 2.404454 1_655
As8 Ni0 2.413924 1_556
As8 Ni3 2.414003 1_556
As8 Ni4 2.414005 1_556
As8 Ni17 2.568599 1_555
As8 Ni14 2.568623 1_555
As8 Ni13 2.568635 1_555
As9 Ni9 2.404841 1_555
As9 Ni11 2.404923 1_565
As9 Ni10 2.404926 1_455
As9 Ni7 2.415044 1_555
As9 Ni2 2.415116 1_555
As9 Ni1 2.415119 1_555
As9 Ni12 2.571544 1_555
As9 Ni16 2.571562 1_555
As9 Ni15 2.571565 1_555
