# generated using pymatgen
data_Eu(NiSb)2
_symmetry_space_group_name_H-M   'P 1'
_cell_length_a   6.19990909
_cell_length_b   6.19990909
_cell_length_c   6.19990909
_cell_angle_alpha   138.65723827
_cell_angle_beta   138.65723827
_cell_angle_gamma   59.89788409
_symmetry_Int_Tables_number   1
_chemical_formula_structural   Eu(NiSb)2
_chemical_formula_sum   'Eu1 Ni2 Sb2'
_cell_volume   102.92900631
_cell_formula_units_Z   1
loop_
 _symmetry_equiv_pos_site_id
 _symmetry_equiv_pos_as_xyz
  1  'x, y, z'
loop_
 _atom_site_type_symbol
 _atom_site_label
 _atom_site_symmetry_multiplicity
 _atom_site_fract_x
 _atom_site_fract_y
 _atom_site_fract_z
 _atom_site_occupancy
  Eu  Eu0  1  -0.00000000  -0.00000000  0.00000000  1
  Ni  Ni0  1  0.25000000  0.75000000  0.50000000  1
  Ni  Ni1  1  0.75000000  0.25000000  0.50000000  1
  Sb  Sb0  1  0.36185141  0.36185141  -0.00000000  1
  Sb  Sb1  1  0.63814859  0.63814859  0.00000000  1
loop_
_geom_bond_atom_site_label_1
_geom_bond_atom_site_label_2
_geom_bond_distance
_geom_bond_site_symmetry_2
Eu0 Sb0 3.432660 1_545
Eu0 Sb1 3.432660 1_455
Eu0 Sb0 3.432660 1_556
Eu0 Sb0 3.432660 1_455
Eu0 Sb1 3.432660 1_556
Eu0 Sb0 3.432660 1_444
Eu0 Sb1 3.432660 1_545
Eu0 Sb1 3.432660 1_444
Eu0 Ni1 3.464785 1_454
Eu0 Ni0 3.464785 1_544
Eu0 Ni0 3.464785 1_545
Eu0 Ni0 3.464785 1_555
Eu0 Ni1 3.464785 1_444
Eu0 Ni1 3.464785 1_555
Eu0 Ni0 3.464785 1_444
Eu0 Ni1 3.464785 1_455
Ni0 Sb0 2.496841 1_566
Ni0 Sb1 2.496841 1_455
Ni0 Sb1 2.496841 1_556
Ni0 Sb0 2.496841 1_555
Ni1 Sb0 2.496841 1_656
Ni1 Sb1 2.496841 1_556
Ni1 Sb1 2.496841 1_545
Ni1 Sb0 2.496841 1_555
Sb0 Sb1 2.968559 1_555
