# generated using pymatgen
data_LaZnRh
_symmetry_space_group_name_H-M   'P 1'
_cell_length_a   4.01806743
_cell_length_b   7.48395673
_cell_length_c   16.45349917
_cell_angle_alpha   90.00000000
_cell_angle_beta   90.00000000
_cell_angle_gamma   90.00000000
_symmetry_Int_Tables_number   1
_chemical_formula_structural   LaZnRh
_chemical_formula_sum   'La8 Zn8 Rh8'
_cell_volume   494.77387749
_cell_formula_units_Z   8
loop_
 _symmetry_equiv_pos_site_id
 _symmetry_equiv_pos_as_xyz
  1  'x, y, z'
loop_
 _atom_site_type_symbol
 _atom_site_label
 _atom_site_symmetry_multiplicity
 _atom_site_fract_x
 _atom_site_fract_y
 _atom_site_fract_z
 _atom_site_occupancy
  La  La0  1  0.75000000  0.32602061  0.44082962  1
  La  La1  1  0.25000000  0.04830383  0.71742267  1
  La  La2  1  0.25000000  0.54830383  0.78257733  1
  La  La3  1  0.25000000  0.67397939  0.55917038  1
  La  La4  1  0.75000000  0.82602061  0.05917038  1
  La  La5  1  0.25000000  0.17397939  0.94082962  1
  La  La6  1  0.75000000  0.45169617  0.21742267  1
  La  La7  1  0.75000000  0.95169617  0.28257733  1
  Zn  Zn0  1  0.25000000  0.12737576  0.14849301  1
  Zn  Zn1  1  0.25000000  0.99904958  0.44197217  1
  Zn  Zn2  1  0.75000000  0.87262424  0.85150699  1
  Zn  Zn3  1  0.75000000  0.00095042  0.55802783  1
  Zn  Zn4  1  0.25000000  0.49904958  0.05802783  1
  Zn  Zn5  1  0.75000000  0.37262424  0.64849301  1
  Zn  Zn6  1  0.75000000  0.50095042  0.94197217  1
  Zn  Zn7  1  0.25000000  0.62737576  0.35150699  1
  Rh  Rh0  1  0.75000000  0.25191284  0.81617682  1
  Rh  Rh1  1  0.25000000  0.24808716  0.31617682  1
  Rh  Rh2  1  0.25000000  0.73803982  0.93295226  1
  Rh  Rh3  1  0.25000000  0.23803982  0.56704774  1
  Rh  Rh4  1  0.25000000  0.74808716  0.18382318  1
  Rh  Rh5  1  0.75000000  0.76196018  0.43295226  1
  Rh  Rh6  1  0.75000000  0.26196018  0.06704774  1
  Rh  Rh7  1  0.75000000  0.75191284  0.68382318  1
loop_
_geom_bond_atom_site_label_1
_geom_bond_atom_site_label_2
_geom_bond_distance
_geom_bond_site_symmetry_2
La0 Rh1 2.929658 1_655
La0 Rh1 2.929658 1_555
La0 Rh3 2.963540 1_555
La0 Rh3 2.963540 1_655
La0 Rh5 3.265126 1_555
La1 Rh3 2.852712 1_555
La1 Rh0 2.999721 1_555
La1 Rh0 2.999721 1_455
La1 Rh7 3.043378 1_545
La1 Rh7 3.043378 1_445
La1 Zn2 3.260672 1_445
La1 Zn2 3.260672 1_545
La1 Zn3 3.322628 1_555
La1 Zn3 3.322628 1_455
La1 Zn5 3.348698 1_455
La1 Zn5 3.348698 1_555
La2 Rh2 2.852712 1_555
La2 Rh7 2.999721 1_555
La2 Rh7 2.999721 1_455
La2 Rh0 3.043378 1_455
La2 Rh0 3.043378 1_555
La2 Zn5 3.260672 1_455
La2 Zn5 3.260672 1_555
La2 Zn6 3.322628 1_455
La2 Zn6 3.322628 1_555
La2 Zn2 3.348698 1_555
La2 Zn2 3.348698 1_455
La3 Rh7 2.929658 1_555
La3 Rh7 2.929658 1_455
La3 Rh5 2.963540 1_455
La3 Rh5 2.963540 1_555
La3 Rh3 3.265126 1_555
La4 Rh4 2.929658 1_555
La4 Rh4 2.929658 1_655
La4 Rh2 2.963540 1_554
La4 Rh2 2.963540 1_654
La4 Rh6 3.265126 1_565
La5 Rh0 2.929658 1_555
La5 Rh0 2.929658 1_455
La5 Rh6 2.963540 1_456
La5 Rh6 2.963540 1_556
La5 Rh2 3.265126 1_545
La6 Rh6 2.852712 1_555
La6 Rh1 2.999721 1_655
La6 Rh1 2.999721 1_555
La6 Rh4 3.043378 1_655
La6 Rh4 3.043378 1_555
La6 Zn7 3.260672 1_555
La6 Zn7 3.260672 1_655
La6 Zn4 3.322628 1_555
La6 Zn4 3.322628 1_655
La6 Zn0 3.348698 1_555
La6 Zn0 3.348698 1_655
La7 Rh5 2.852712 1_555
La7 Rh4 2.999721 1_655
La7 Rh4 2.999721 1_555
La7 Rh1 3.043378 1_565
La7 Rh1 3.043378 1_665
La7 Zn0 3.260672 1_565
La7 Zn0 3.260672 1_665
La7 Zn1 3.322628 1_655
La7 Zn1 3.322628 1_555
La7 Zn7 3.348698 1_555
La7 Zn7 3.348698 1_655
Zn1 Zn3 2.771767 1_465
Zn1 Zn3 2.771767 1_565
Zn4 Zn6 2.771767 1_554
Zn4 Zn6 2.771767 1_454
Rh0 Zn6 2.785258 1_555
Rh0 Zn2 2.897490 1_545
Rh0 Zn5 2.903124 1_555
Rh1 Zn1 2.785258 1_545
Rh1 Zn7 2.897490 1_555
Rh1 Zn0 2.903124 1_555
Rh2 Zn2 2.616577 1_555
Rh2 Zn2 2.616577 1_455
Rh2 Zn6 2.684515 1_555
Rh2 Zn6 2.684515 1_455
Rh2 Zn4 2.726562 1_556
Rh3 Zn5 2.616577 1_455
Rh3 Zn5 2.616577 1_555
Rh3 Zn3 2.684515 1_455
Rh3 Zn3 2.684515 1_555
Rh3 Zn1 2.726562 1_545
Rh4 Zn4 2.785258 1_555
Rh4 Zn0 2.897490 1_565
Rh4 Zn7 2.903124 1_555
Rh5 Zn7 2.616577 1_555
Rh5 Zn7 2.616577 1_655
Rh5 Zn1 2.684515 1_655
Rh5 Zn1 2.684515 1_555
Rh5 Zn3 2.726562 1_565
Rh6 Zn0 2.616577 1_655
Rh6 Zn0 2.616577 1_555
Rh6 Zn4 2.684515 1_655
Rh6 Zn4 2.684515 1_555
Rh6 Zn6 2.726562 1_554
Rh7 Zn3 2.785258 1_565
Rh7 Zn5 2.897490 1_555
Rh7 Zn2 2.903124 1_555
