# generated using pymatgen
data_HoMn2O5
_symmetry_space_group_name_H-M   'P 1'
_cell_length_a   5.67283828
_cell_length_b   7.20961990
_cell_length_c   8.45004989
_cell_angle_alpha   90.00000000
_cell_angle_beta   90.00000000
_cell_angle_gamma   90.00000000
_symmetry_Int_Tables_number   1
_chemical_formula_structural   HoMn2O5
_chemical_formula_sum   'Ho4 Mn8 O20'
_cell_volume   345.59865596
_cell_formula_units_Z   4
loop_
 _symmetry_equiv_pos_site_id
 _symmetry_equiv_pos_as_xyz
  1  'x, y, z'
loop_
 _atom_site_type_symbol
 _atom_site_label
 _atom_site_symmetry_multiplicity
 _atom_site_fract_x
 _atom_site_fract_y
 _atom_site_fract_z
 _atom_site_occupancy
  Ho  Ho0  1  0.00000000  0.13705041  0.17084977  1
  Ho  Ho1  1  0.00000000  0.86294959  0.82915023  1
  Ho  Ho2  1  0.00000000  0.63705041  0.32915023  1
  Ho  Ho3  1  0.00000000  0.36294959  0.67084977  1
  Mn  Mn0  1  0.25375442  -0.00000000  0.50000000  1
  Mn  Mn1  1  0.74624558  0.50000000  -0.00000000  1
  Mn  Mn2  1  0.74624558  -0.00000000  0.50000000  1
  Mn  Mn3  1  0.25375442  0.50000000  -0.00000000  1
  Mn  Mn4  1  0.50000000  0.41224664  0.34893459  1
  Mn  Mn5  1  0.50000000  0.58775336  0.65106541  1
  Mn  Mn6  1  0.50000000  0.91224664  0.15106541  1
  Mn  Mn7  1  0.50000000  0.08775336  0.84893459  1
  O  O0  1  0.27053050  -0.00000000  -0.00000000  1
  O  O1  1  0.72946950  0.50000000  0.50000000  1
  O  O2  1  0.72946950  -0.00000000  -0.00000000  1
  O  O3  1  0.27053050  0.50000000  0.50000000  1
  O  O4  1  0.00000000  0.16398011  0.44307691  1
  O  O5  1  0.00000000  0.83601989  0.55692309  1
  O  O6  1  0.00000000  0.66398011  0.05692309  1
  O  O7  1  0.00000000  0.33601989  0.94307691  1
  O  O8  1  0.50000000  0.15298343  0.43256551  1
  O  O9  1  0.50000000  0.84701657  0.56743449  1
  O  O10  1  0.50000000  0.65298343  0.06743449  1
  O  O11  1  0.50000000  0.34701657  0.93256551  1
  O  O12  1  0.24260972  0.39326704  0.20642772  1
  O  O13  1  0.24260972  0.60673296  0.79357228  1
  O  O14  1  0.75739028  0.89326704  0.29357228  1
  O  O15  1  0.75739028  0.10673296  0.70642772  1
  O  O16  1  0.75739028  0.60673296  0.79357228  1
  O  O17  1  0.75739028  0.39326704  0.20642772  1
  O  O18  1  0.24260972  0.10673296  0.70642772  1
  O  O19  1  0.24260972  0.89326704  0.29357228  1
loop_
_geom_bond_atom_site_label_1
_geom_bond_atom_site_label_2
_geom_bond_distance
_geom_bond_site_symmetry_2
Ho0 O4 2.308512 1_555
Ho0 O12 2.323098 1_555
Ho0 O17 2.323098 1_455
Ho0 O2 2.327181 1_455
Ho0 O0 2.327181 1_555
Ho0 O7 2.400461 1_554
Ho0 O19 2.461435 1_545
Ho0 O14 2.461435 1_445
Ho1 O5 2.308512 1_555
Ho1 O16 2.323098 1_455
Ho1 O13 2.323098 1_555
Ho1 O0 2.327181 1_566
Ho1 O2 2.327181 1_466
Ho1 O6 2.400461 1_556
Ho1 O15 2.461435 1_465
Ho1 O18 2.461435 1_565
Ho2 O6 2.308512 1_555
Ho2 O19 2.323098 1_555
Ho2 O14 2.323098 1_455
Ho2 O1 2.327181 1_455
Ho2 O3 2.327181 1_555
Ho2 O5 2.400461 1_555
Ho2 O12 2.461435 1_555
Ho2 O17 2.461435 1_455
Ho3 O7 2.308512 1_555
Ho3 O18 2.323098 1_555
Ho3 O15 2.323098 1_455
Ho3 O1 2.327181 1_455
Ho3 O3 2.327181 1_555
Ho3 O4 2.400461 1_555
Ho3 O13 2.461435 1_555
Ho3 O16 2.461435 1_455
Mn0 O8 1.868841 1_555
Mn0 O9 1.868841 1_545
Mn0 O19 1.907564 1_545
Mn0 O18 1.907564 1_555
Mn0 O4 1.923857 1_555
Mn0 O5 1.923857 1_545
Mn1 O11 1.868841 1_554
Mn1 O10 1.868841 1_555
Mn1 O16 1.907564 1_554
Mn1 O17 1.907564 1_555
Mn1 O7 1.923857 1_654
Mn1 O6 1.923857 1_655
Mn2 O8 1.868841 1_555
Mn2 O9 1.868841 1_545
Mn2 O14 1.907564 1_545
Mn2 O15 1.907564 1_555
Mn2 O5 1.923857 1_645
Mn2 O4 1.923857 1_655
Mn3 O11 1.868841 1_554
Mn3 O10 1.868841 1_555
Mn3 O13 1.907564 1_554
Mn3 O12 1.907564 1_555
Mn3 O7 1.923857 1_554
Mn3 O6 1.923857 1_555
Mn4 O12 1.897574 1_555
Mn4 O17 1.897574 1_555
Mn4 O3 1.929840 1_555
Mn4 O1 1.929840 1_555
Mn4 O8 1.998317 1_555
Mn5 O16 1.897574 1_555
Mn5 O13 1.897574 1_555
Mn5 O3 1.929840 1_555
Mn5 O1 1.929840 1_555
Mn5 O9 1.998317 1_555
Mn6 O14 1.897574 1_555
Mn6 O19 1.897574 1_555
Mn6 O2 1.929840 1_565
Mn6 O0 1.929840 1_565
Mn6 O10 1.998317 1_555
Mn7 O15 1.897574 1_555
Mn7 O18 1.897574 1_555
Mn7 O2 1.929840 1_556
Mn7 O0 1.929840 1_556
Mn7 O11 1.998317 1_555
