# generated using pymatgen
data_Sm(GeRh)2
_symmetry_space_group_name_H-M   'P 1'
_cell_length_a   5.96626556
_cell_length_b   5.96626556
_cell_length_c   5.96626556
_cell_angle_alpha   139.45353706
_cell_angle_beta   139.45353706
_cell_angle_gamma   58.68397222
_symmetry_Int_Tables_number   1
_chemical_formula_structural   Sm(GeRh)2
_chemical_formula_sum   'Sm1 Ge2 Rh2'
_cell_volume   88.90783023
_cell_formula_units_Z   1
loop_
 _symmetry_equiv_pos_site_id
 _symmetry_equiv_pos_as_xyz
  1  'x, y, z'
loop_
 _atom_site_type_symbol
 _atom_site_label
 _atom_site_symmetry_multiplicity
 _atom_site_fract_x
 _atom_site_fract_y
 _atom_site_fract_z
 _atom_site_occupancy
  Sm  Sm0  1  -0.00000000  -0.00000000  0.00000000  1
  Ge  Ge0  1  0.62348675  0.62348675  0.00000000  1
  Ge  Ge1  1  0.37651325  0.37651325  -0.00000000  1
  Rh  Rh0  1  0.75000000  0.25000000  0.50000000  1
  Rh  Rh1  1  0.25000000  0.75000000  0.50000000  1
loop_
_geom_bond_atom_site_label_1
_geom_bond_atom_site_label_2
_geom_bond_distance
_geom_bond_site_symmetry_2
Ge0 Rh1 2.450601 1_655
Ge0 Rh0 2.450601 1_565
Ge0 Rh0 2.450601 1_554
Ge0 Rh1 2.450601 1_554
Ge0 Ge1 2.568947 1_555
Ge0 Sm0 3.193320 1_655
Ge0 Sm0 3.193320 1_666
Ge0 Sm0 3.193320 1_554
Ge0 Sm0 3.193320 1_565
Ge1 Rh0 2.450601 1_454
Ge1 Rh1 2.450601 1_544
Ge1 Rh1 2.450601 1_555
Ge1 Rh0 2.450601 1_555
Ge1 Sm0 3.193320 1_666
Ge1 Sm0 3.193320 1_554
Ge1 Sm0 3.193320 1_565
Ge1 Sm0 3.193320 1_655
Rh0 Sm0 3.322038 1_555
Rh0 Sm0 3.322038 1_656
Rh0 Sm0 3.322038 1_655
Rh0 Sm0 3.322038 1_666
Rh1 Sm0 3.322038 1_565
Rh1 Sm0 3.322038 1_555
Rh1 Sm0 3.322038 1_566
Rh1 Sm0 3.322038 1_666
