# generated using pymatgen
data_Cs2BeF4
_symmetry_space_group_name_H-M   'P 1'
_cell_length_a   6.11633807
_cell_length_b   8.12663506
_cell_length_c   10.71135045
_cell_angle_alpha   90.00019979
_cell_angle_beta   89.99996504
_cell_angle_gamma   90.00002646
_symmetry_Int_Tables_number   1
_chemical_formula_structural   Cs2BeF4
_chemical_formula_sum   'Cs8 Be4 F16'
_cell_volume   532.41032409
_cell_formula_units_Z   4
loop_
 _symmetry_equiv_pos_site_id
 _symmetry_equiv_pos_as_xyz
  1  'x, y, z'
loop_
 _atom_site_type_symbol
 _atom_site_label
 _atom_site_symmetry_multiplicity
 _atom_site_fract_x
 _atom_site_fract_y
 _atom_site_fract_z
 _atom_site_occupancy
  Cs  Cs0  1  0.74999963  0.01319788  0.68949579  1
  Cs  Cs1  1  0.24999919  0.98679910  0.31050530  1
  Cs  Cs2  1  0.25000029  0.48679535  0.18949049  1
  Cs  Cs3  1  0.75000001  0.51320447  0.81051002  1
  Cs  Cs4  1  0.24999996  0.16221936  0.90619998  1
  Cs  Cs5  1  0.75000004  0.83778104  0.09379974  1
  Cs  Cs6  1  0.75000025  0.33777888  0.40619984  1
  Cs  Cs7  1  0.25000001  0.66222188  0.59379992  1
  Be  Be0  1  0.75000010  0.25965410  0.08394680  1
  Be  Be1  1  0.25000018  0.24034715  0.58394730  1
  Be  Be2  1  0.74999985  0.75965340  0.41605330  1
  Be  Be3  1  0.24999974  0.74034851  0.91605291  1
  F  F0  1  0.25000001  0.04953317  0.59027395  1
  F  F1  1  0.75000002  0.95046656  0.40972671  1
  F  F2  1  0.75000024  0.45046769  0.09027403  1
  F  F3  1  0.25000002  0.54953392  0.90972605  1
  F  F4  1  0.75000014  0.69414864  0.55385610  1
  F  F5  1  0.74999994  0.19414772  0.94614344  1
  F  F6  1  0.25000012  0.30585191  0.44614330  1
  F  F7  1  0.25000022  0.80585162  0.05385638  1
  F  F8  1  0.04185713  0.80902376  0.84972097  1
  F  F9  1  0.54185903  0.19097589  0.15027845  1
  F  F10  1  0.54185824  0.69097572  0.34972149  1
  F  F11  1  0.04185820  0.30902377  0.65027829  1
  F  F12  1  0.45814284  0.80902373  0.84972114  1
  F  F13  1  0.95814108  0.19097611  0.15027844  1
  F  F14  1  0.95814160  0.69097597  0.34972160  1
  F  F15  1  0.45814192  0.30902372  0.65027826  1
loop_
_geom_bond_atom_site_label_1
_geom_bond_atom_site_label_2
_geom_bond_distance
_geom_bond_site_symmetry_2
Cs0 F4 2.972111 1_545
Cs0 F12 2.980793 1_545
Cs0 F8 2.980797 1_645
Cs0 F15 3.023674 1_555
Cs0 F11 3.023675 1_655
Cs0 F1 3.039756 1_545
Cs0 F5 3.117630 1_555
Cs0 F0 3.251019 1_555
Cs0 F0 3.251022 1_655
Cs1 F6 2.972127 1_565
Cs1 F13 2.980823 1_465
Cs1 F9 2.980826 1_565
Cs1 F14 3.023652 1_455
Cs1 F10 3.023661 1_555
Cs1 F0 3.039756 1_565
Cs1 F7 3.117633 1_555
Cs1 F1 3.251012 1_455
Cs1 F1 3.251023 1_555
Cs2 F7 2.972140 1_555
Cs2 F10 2.980855 1_555
Cs2 F14 2.980859 1_455
Cs2 F13 3.023625 1_455
Cs2 F9 3.023625 1_555
Cs2 F3 3.039721 1_554
Cs2 F6 3.117663 1_555
Cs2 F2 3.250995 1_555
Cs2 F2 3.250996 1_455
Cs3 F5 2.972140 1_555
Cs3 F11 2.980862 1_655
Cs3 F15 2.980862 1_555
Cs3 F8 3.023616 1_655
Cs3 F12 3.023617 1_555
Cs3 F2 3.039714 1_556
Cs3 F4 3.117677 1_555
Cs3 F3 3.250995 1_555
Cs3 F3 3.250996 1_655
Cs4 F5 3.098835 1_455
Cs4 F5 3.098835 1_555
Cs4 F3 3.147791 1_555
Cs4 F13 3.174327 1_456
Cs4 F9 3.174329 1_556
Cs4 F8 3.197696 1_545
Cs4 F12 3.197696 1_545
Cs4 F15 3.249396 1_555
Cs4 F11 3.249397 1_555
Cs4 F7 3.299805 1_546
Cs4 F0 3.505711 1_555
Cs5 F7 3.098834 1_555
Cs5 F7 3.098836 1_655
Cs5 F2 3.147781 1_555
Cs5 F8 3.174324 1_654
Cs5 F12 3.174325 1_554
Cs5 F9 3.197686 1_565
Cs5 F13 3.197687 1_565
Cs5 F10 3.249398 1_555
Cs5 F14 3.249400 1_555
Cs5 F5 3.299797 1_564
Cs5 F1 3.505720 1_555
Cs6 F6 3.098834 1_655
Cs6 F6 3.098834 1_555
Cs6 F1 3.147773 1_545
Cs6 F15 3.174325 1_555
Cs6 F11 3.174326 1_655
Cs6 F14 3.197705 1_555
Cs6 F10 3.197706 1_555
Cs6 F13 3.249379 1_555
Cs6 F9 3.249381 1_555
Cs6 F4 3.299809 1_555
Cs6 F2 3.505721 1_555
Cs7 F4 3.098834 1_455
Cs7 F4 3.098835 1_555
Cs7 F0 3.147764 1_565
Cs7 F10 3.174324 1_555
Cs7 F14 3.174326 1_455
Cs7 F11 3.197714 1_555
Cs7 F15 3.197715 1_555
Cs7 F8 3.249378 1_555
Cs7 F12 3.249380 1_555
Cs7 F6 3.299812 1_555
Cs7 F3 3.505722 1_555
Be0 F2 1.552153 1_555
Be0 F13 1.561089 1_555
Be0 F9 1.561089 1_555
Be0 F5 1.569121 1_554
Be1 F0 1.552156 1_555
Be1 F15 1.561083 1_555
Be1 F11 1.561084 1_555
Be1 F6 1.569126 1_555
Be2 F1 1.552149 1_555
Be2 F14 1.561089 1_555
Be2 F10 1.561090 1_555
Be2 F4 1.569114 1_555
Be3 F3 1.552160 1_555
Be3 F8 1.561091 1_555
Be3 F12 1.561091 1_555
Be3 F7 1.569113 1_556
