# generated using pymatgen
data_CaIrO3
_symmetry_space_group_name_H-M   'P 1'
_cell_length_a   5.29826192
_cell_length_b   5.64499097
_cell_length_c   7.64628557
_cell_angle_alpha   89.99907159
_cell_angle_beta   90.00427439
_cell_angle_gamma   89.99947027
_symmetry_Int_Tables_number   1
_chemical_formula_structural   CaIrO3
_chemical_formula_sum   'Ca4 Ir4 O12'
_cell_volume   228.69000735
_cell_formula_units_Z   4
loop_
 _symmetry_equiv_pos_site_id
 _symmetry_equiv_pos_as_xyz
  1  'x, y, z'
loop_
 _atom_site_type_symbol
 _atom_site_label
 _atom_site_symmetry_multiplicity
 _atom_site_fract_x
 _atom_site_fract_y
 _atom_site_fract_z
 _atom_site_occupancy
  Ca  Ca0  1  0.51941857  0.06495898  0.24999629  1
  Ca  Ca1  1  0.48058143  0.93504002  0.75000371  1
  Ca  Ca2  1  0.98057372  0.56494477  0.25001894  1
  Ca  Ca3  1  0.01942528  0.43505523  0.74998106  1
  Ir  Ir0  1  -0.00000000  -0.00000000  0.50000000  1
  Ir  Ir1  1  -0.00000000  0.00000000  0.00000000  1
  Ir  Ir2  1  0.50000000  0.50000000  0.50000100  1
  Ir  Ir3  1  0.50000000  0.50000000  0.00000000  1
  O  O0  1  0.31004912  0.19542335  0.94727464  1
  O  O1  1  0.60719187  0.54193754  0.74999445  1
  O  O2  1  0.39280813  0.45806146  0.25000555  1
  O  O3  1  0.80996441  0.30452477  0.44720147  1
  O  O4  1  0.81000604  0.30457073  0.05279800  1
  O  O5  1  0.68994988  0.80457665  0.05272636  1
  O  O6  1  0.19003659  0.69547623  0.55279853  1
  O  O7  1  0.10720251  0.95802980  0.25003263  1
  O  O8  1  0.69004808  0.80450526  0.44716573  1
  O  O9  1  0.18999396  0.69542927  0.94720200  1
  O  O10  1  0.30995092  0.19549574  0.55283427  1
  O  O11  1  0.89279749  0.04197020  0.74996737  1
loop_
_geom_bond_atom_site_label_1
_geom_bond_atom_site_label_2
_geom_bond_distance
_geom_bond_site_symmetry_2
Ca0 O7 2.265912 1_545
Ca0 O8 2.291626 1_545
Ca0 O5 2.291788 1_545
Ca0 O2 2.318231 1_555
Ca0 O3 2.544020 1_555
Ca0 O4 2.544371 1_555
Ca0 O0 2.670260 1_554
Ca0 O10 2.671524 1_555
Ca1 O11 2.265913 1_565
Ca1 O10 2.291635 1_565
Ca1 O0 2.291799 1_565
Ca1 O1 2.318231 1_555
Ca1 O6 2.544011 1_555
Ca1 O9 2.544368 1_555
Ca1 O5 2.670263 1_556
Ca1 O8 2.671518 1_555
Ca2 O2 2.265926 1_655
Ca2 O4 2.291509 1_555
Ca2 O3 2.291627 1_555
Ca2 O7 2.318176 1_655
Ca2 O8 2.543796 1_555
Ca2 O5 2.544824 1_555
Ca2 O6 2.670980 1_655
Ca2 O9 2.671184 1_654
Ca3 O1 2.265919 1_455
Ca3 O9 2.291511 1_555
Ca3 O6 2.291635 1_555
Ca3 O11 2.318175 1_455
Ca3 O10 2.543793 1_555
Ca3 O0 2.544828 1_555
Ca3 O3 2.670974 1_455
Ca3 O4 2.671181 1_456
Ir0 O11 2.008001 1_455
Ir0 O7 2.008001 1_545
Ir0 O10 2.019368 1_555
Ir0 O8 2.019370 1_445
Ir0 O6 2.032663 1_545
Ir0 O3 2.032666 1_455
Ir1 O11 2.008388 1_454
Ir1 O7 2.008388 1_545
Ir1 O0 2.019444 1_554
Ir1 O5 2.019450 1_445
Ir1 O9 2.032816 1_544
Ir1 O4 2.032816 1_455
Ir2 O1 2.008073 1_555
Ir2 O2 2.008089 1_555
Ir2 O6 2.019338 1_555
Ir2 O3 2.019343 1_555
Ir2 O10 2.032701 1_555
Ir2 O8 2.032707 1_555
Ir3 O1 2.008235 1_554
Ir3 O2 2.008235 1_555
Ir3 O4 2.019322 1_555
Ir3 O9 2.019322 1_554
Ir3 O5 2.032606 1_555
Ir3 O0 2.032607 1_554
