# generated using pymatgen
data_CdI2
_symmetry_space_group_name_H-M   'P 1'
_cell_length_a   4.28414694
_cell_length_b   4.28414524
_cell_length_c   66.00603802
_cell_angle_alpha   90.00000000
_cell_angle_beta   90.00000000
_cell_angle_gamma   119.99999810
_symmetry_Int_Tables_number   1
_chemical_formula_structural   CdI2
_chemical_formula_sum   'Cd9 I18'
_cell_volume   1049.16271760
_cell_formula_units_Z   9
loop_
 _symmetry_equiv_pos_site_id
 _symmetry_equiv_pos_as_xyz
  1  'x, y, z'
loop_
 _atom_site_type_symbol
 _atom_site_label
 _atom_site_symmetry_multiplicity
 _atom_site_fract_x
 _atom_site_fract_y
 _atom_site_fract_z
 _atom_site_occupancy
  Cd  Cd0  1  0.33333300  0.66666700  0.36103089  1
  Cd  Cd1  1  -0.00000000  0.00000000  0.47221583  1
  Cd  Cd2  1  0.33333300  0.66666700  0.13887263  1
  Cd  Cd3  1  0.33333300  0.66666700  0.80561730  1
  Cd  Cd4  1  -0.00000000  0.00000000  0.69442708  1
  Cd  Cd5  1  0.66666700  0.33333300  0.02781603  1
  Cd  Cd6  1  0.33333300  0.66666700  0.91672297  1
  Cd  Cd7  1  0.33333300  0.66666700  0.58332007  1
  Cd  Cd8  1  0.66666700  0.33333300  0.24998133  1
  I  I0  1  -0.00000000  0.00000000  0.22412996  1
  I  I1  1  0.33333300  0.66666700  0.66856587  1
  I  I2  1  0.66666700  0.33333300  0.72029162  1
  I  I3  1  0.33333300  0.66666700  0.27586050  1
  I  I4  1  -0.00000000  0.00000000  0.77973257  1
  I  I5  1  -0.00000000  0.00000000  0.11299203  1
  I  I6  1  0.66666700  0.33333300  0.83146729  1
  I  I7  1  0.33333300  0.66666700  0.05366192  1
  I  I8  1  0.66666700  0.33333300  0.49809942  1
  I  I9  1  0.66666700  0.33333300  0.60920078  1
  I  I10  1  -0.00000000  0.00000000  0.00193395  1
  I  I11  1  0.33333300  0.66666700  0.44635871  1
  I  I12  1  -0.00000000  0.00000000  0.55746760  1
  I  I13  1  0.66666700  0.33333300  0.38692663  1
  I  I14  1  0.66666700  0.33333300  0.94256743  1
  I  I15  1  -0.00000000  0.00000000  0.33518681  1
  I  I16  1  0.66666700  0.33333300  0.16471973  1
  I  I17  1  -0.00000000  0.00000000  0.89083106  1
loop_
_geom_bond_atom_site_label_1
_geom_bond_atom_site_label_2
_geom_bond_distance
_geom_bond_site_symmetry_2
Cd0 I15 3.004652 1_565
Cd0 I15 3.004655 1_555
Cd0 I15 3.004655 1_665
Cd0 I13 3.006589 1_565
Cd0 I13 3.006590 1_455
Cd0 I13 3.006595 1_555
Cd1 I11 3.005141 1_545
Cd1 I11 3.005143 1_555
Cd1 I11 3.005144 1_445
Cd1 I8 3.006133 1_455
Cd1 I8 3.006136 1_445
Cd1 I8 3.006137 1_555
Cd2 I16 3.004765 1_565
Cd2 I16 3.004766 1_455
Cd2 I16 3.004771 1_555
Cd2 I5 3.006021 1_565
Cd2 I5 3.006024 1_555
Cd2 I5 3.006025 1_665
Cd3 I6 3.004873 1_565
Cd3 I6 3.004874 1_455
Cd3 I6 3.004880 1_555
Cd3 I4 3.006176 1_565
Cd3 I4 3.006179 1_555
Cd3 I4 3.006180 1_665
Cd4 I1 3.005294 1_545
Cd4 I1 3.005297 1_555
Cd4 I1 3.005298 1_445
Cd4 I2 3.005419 1_455
Cd4 I2 3.005422 1_445
Cd4 I2 3.005422 1_555
Cd5 I7 3.004719 1_545
Cd5 I7 3.004720 1_655
Cd5 I7 3.004726 1_555
Cd5 I10 3.006077 1_655
Cd5 I10 3.006079 1_665
Cd5 I10 3.006080 1_555
Cd6 I14 3.004666 1_565
Cd6 I14 3.004667 1_455
Cd6 I14 3.004672 1_555
Cd6 I17 3.006445 1_565
Cd6 I17 3.006448 1_555
Cd6 I17 3.006449 1_665
Cd7 I12 3.004966 1_565
Cd7 I12 3.004969 1_555
Cd7 I12 3.004970 1_665
Cd7 I9 3.006025 1_565
Cd7 I9 3.006026 1_455
Cd7 I9 3.006031 1_555
Cd8 I0 3.004925 1_655
Cd8 I0 3.004928 1_665
Cd8 I0 3.004929 1_555
Cd8 I3 3.005967 1_545
Cd8 I3 3.005968 1_655
Cd8 I3 3.005974 1_555
