# generated using pymatgen
data_In5Br7
_symmetry_space_group_name_H-M   'P 1'
_cell_length_a   13.46400967
_cell_length_b   13.46400967
_cell_length_c   19.86303560
_cell_angle_alpha   79.85414186
_cell_angle_beta   79.85414186
_cell_angle_gamma   89.98971498
_symmetry_Int_Tables_number   1
_chemical_formula_structural   In5Br7
_chemical_formula_sum   'In40 Br56'
_cell_volume   3487.26008559
_cell_formula_units_Z   8
loop_
 _symmetry_equiv_pos_site_id
 _symmetry_equiv_pos_as_xyz
  1  'x, y, z'
loop_
 _atom_site_type_symbol
 _atom_site_label
 _atom_site_symmetry_multiplicity
 _atom_site_fract_x
 _atom_site_fract_y
 _atom_site_fract_z
 _atom_site_occupancy
  In  In0  1  0.30429600  0.43045700  0.75236200  1
  In  In1  1  0.50392000  0.98638600  0.86326100  1
  In  In2  1  0.92758200  0.07241800  0.25000000  1
  In  In3  1  0.18551400  0.02597200  0.41324700  1
  In  In4  1  0.49608000  0.01361400  0.13673900  1
  In  In5  1  0.80747900  0.19252100  0.75000000  1
  In  In6  1  0.26174900  0.69564500  0.90181700  1
  In  In7  1  0.47425300  0.64016200  0.08536100  1
  In  In8  1  0.81448600  0.97402800  0.58675300  1
  In  In9  1  0.56954300  0.69570400  0.74763800  1
  In  In10  1  0.97402800  0.81448600  0.08675300  1
  In  In11  1  0.76197600  0.85612500  0.90051800  1
  In  In12  1  0.69564500  0.26174900  0.40181700  1
  In  In13  1  0.58122000  0.00197600  0.36576900  1
  In  In14  1  0.73825100  0.30435500  0.09818300  1
  In  In15  1  0.43045700  0.30429600  0.25236200  1
  In  In16  1  0.14387500  0.23802400  0.59948200  1
  In  In17  1  0.50874200  0.18349400  0.63713200  1
  In  In18  1  0.00197600  0.58122000  0.86576900  1
  In  In19  1  0.68283100  0.92370400  0.13491300  1
  In  In20  1  0.19252100  0.80747900  0.25000000  1
  In  In21  1  0.31716900  0.07629600  0.86508700  1
  In  In22  1  0.81650600  0.49125800  0.86286800  1
  In  In23  1  0.99802400  0.41878000  0.13423100  1
  In  In24  1  0.07241800  0.92758200  0.75000000  1
  In  In25  1  0.41878000  0.99802400  0.63423100  1
  In  In26  1  0.52574700  0.35983800  0.91463900  1
  In  In27  1  0.85612500  0.76197600  0.40051800  1
  In  In28  1  0.92370400  0.68283100  0.63491300  1
  In  In29  1  0.30435500  0.73825100  0.59818300  1
  In  In30  1  0.18349400  0.50874200  0.13713200  1
  In  In31  1  0.98638600  0.50392000  0.36326100  1
  In  In32  1  0.35983800  0.52574700  0.41463900  1
  In  In33  1  0.02597200  0.18551400  0.91324700  1
  In  In34  1  0.01361400  0.49608000  0.63673900  1
  In  In35  1  0.23802400  0.14387500  0.09948200  1
  In  In36  1  0.69570400  0.56954300  0.24763800  1
  In  In37  1  0.64016200  0.47425300  0.58536100  1
  In  In38  1  0.07629600  0.31716900  0.36508700  1
  In  In39  1  0.49125800  0.81650600  0.36286800  1
  Br  Br0  1  0.70038200  0.20485300  0.57636500  1
  Br  Br1  1  0.20485300  0.70038200  0.07636500  1
  Br  Br2  1  0.29719800  0.23683400  0.92571600  1
  Br  Br3  1  0.51795000  0.26428900  0.74711800  1
  Br  Br4  1  0.94516700  0.37180200  0.56800900  1
  Br  Br5  1  0.13604100  0.64458800  0.75127300  1
  Br  Br6  1  0.85573800  0.76455000  0.74434100  1
  Br  Br7  1  0.49714200  0.79135400  0.91282500  1
  Br  Br8  1  0.76455000  0.85573800  0.24434100  1
  Br  Br9  1  0.03151500  0.83863300  0.56104000  1
  Br  Br10  1  0.98405700  0.63664400  0.24796400  1
  Br  Br11  1  0.05483300  0.62819800  0.43199100  1
  Br  Br12  1  0.23683400  0.29719800  0.42571600  1
  Br  Br13  1  0.24810300  0.00532800  0.58607100  1
  Br  Br14  1  0.47860500  0.12768300  0.43376700  1
  Br  Br15  1  0.16136700  0.96848500  0.93896000  1
  Br  Br16  1  0.00532800  0.24810300  0.08607100  1
  Br  Br17  1  0.99467200  0.75189700  0.91392900  1
  Br  Br18  1  0.87231700  0.52139500  0.06623300  1
  Br  Br19  1  0.37180200  0.94516700  0.06800900  1
  Br  Br20  1  0.52139500  0.87231700  0.56623300  1
  Br  Br21  1  0.83863300  0.03151500  0.06104000  1
  Br  Br22  1  0.70280200  0.76316600  0.07428400  1
  Br  Br23  1  0.56176100  0.66104900  0.43696200  1
  Br  Br24  1  0.14426200  0.23545000  0.25565900  1
  Br  Br25  1  0.63664400  0.98405700  0.74796400  1
  Br  Br26  1  0.33895100  0.43823900  0.06303800  1
  Br  Br27  1  0.75189700  0.99467200  0.41392900  1
  Br  Br28  1  0.41583100  0.53852400  0.84906200  1
  Br  Br29  1  0.96007200  0.08343100  0.65102900  1
  Br  Br30  1  0.20864600  0.50285800  0.58717500  1
  Br  Br31  1  0.64458800  0.13604100  0.25127300  1
  Br  Br32  1  0.58416900  0.46147600  0.15093800  1
  Br  Br33  1  0.79514700  0.29961800  0.92363500  1
  Br  Br34  1  0.36335600  0.01594300  0.25203600  1
  Br  Br35  1  0.12768300  0.47860500  0.93376700  1
  Br  Br36  1  0.46147600  0.58416900  0.65093800  1
  Br  Br37  1  0.86395900  0.35541200  0.24872700  1
  Br  Br38  1  0.03992800  0.91656900  0.34897100  1
  Br  Br39  1  0.08343100  0.96007200  0.15102900  1
  Br  Br40  1  0.62819800  0.05483300  0.93199100  1
  Br  Br41  1  0.50285800  0.20864600  0.08717500  1
  Br  Br42  1  0.23545000  0.14426200  0.75565900  1
  Br  Br43  1  0.35541200  0.86395900  0.74872700  1
  Br  Br44  1  0.43823900  0.33895100  0.56303800  1
  Br  Br45  1  0.29961800  0.79514700  0.42363500  1
  Br  Br46  1  0.79135400  0.49714200  0.41282500  1
  Br  Br47  1  0.76316600  0.70280200  0.57428400  1
  Br  Br48  1  0.01594300  0.36335600  0.75203600  1
  Br  Br49  1  0.96848500  0.16136700  0.43896000  1
  Br  Br50  1  0.48205000  0.73571100  0.25288200  1
  Br  Br51  1  0.66104900  0.56176100  0.93696200  1
  Br  Br52  1  0.91656900  0.03992800  0.84897100  1
  Br  Br53  1  0.53852400  0.41583100  0.34906200  1
  Br  Br54  1  0.73571100  0.48205000  0.75288200  1
  Br  Br55  1  0.26428900  0.51795000  0.24711800  1
loop_
_geom_bond_atom_site_label_1
_geom_bond_atom_site_label_2
_geom_bond_distance
_geom_bond_site_symmetry_2
Br0 In17 2.641588 1_555
Br1 In30 2.641588 1_555
Br2 In21 2.645256 1_555
Br3 In17 2.627583 1_555
Br4 In34 2.600286 1_655
Br5 In18 2.651222 1_555
Br6 In28 2.629417 1_555
Br7 In1 2.632606 1_555
Br8 In19 2.629417 1_555
Br9 In28 2.612820 1_455
Br10 In31 2.650015 1_555
Br11 In31 2.600286 1_455
Br12 In38 2.645256 1_555
Br13 In25 2.635678 1_545
Br14 In13 2.597079 1_555
Br15 In21 2.612820 1_565
Br16 In23 2.635678 1_455
Br17 In18 2.635678 1_655
Br18 In23 2.597079 1_555
Br19 In4 2.600286 1_565
Br20 In25 2.597079 1_555
Br21 In19 2.612820 1_545
Br22 In19 2.645256 1_555
Br23 In39 2.618062 1_555
Br24 In38 2.629417 1_555
Br25 In1 2.650015 1_555
Br26 In30 2.618062 1_555
Br27 In13 2.635678 1_565
Br28 In26 3.041155 1_555
Br28 In9 3.138625 1_555
Br28 In6 3.144937 1_555
Br28 In0 3.172239 1_555
Br29 In8 3.031054 1_545
Br29 In5 3.136278 1_555
Br29 In16 3.140594 1_655
Br29 In24 3.185740 1_645
Br30 In34 2.632606 1_555
Br31 In13 2.651222 1_555
Br32 In7 3.041155 1_555
Br32 In15 3.138625 1_555
Br32 In14 3.144937 1_555
Br32 In36 3.172239 1_555
Br33 In22 2.641588 1_555
Br34 In4 2.650015 1_555
Br35 In18 2.597079 1_555
Br36 In37 3.041155 1_555
Br36 In0 3.138625 1_555
Br36 In29 3.144937 1_555
Br36 In9 3.172239 1_555
Br37 In23 2.651222 1_555
Br38 In3 3.031054 1_565
Br38 In20 3.136278 1_555
Br38 In27 3.140594 1_455
Br38 In2 3.185740 1_465
Br39 In10 3.031054 1_455
Br39 In20 3.136278 1_555
Br39 In35 3.140594 1_565
Br39 In2 3.185740 1_465
Br40 In1 2.600286 1_545
Br41 In4 2.632606 1_555
Br42 In21 2.629417 1_555
Br43 In25 2.651222 1_555
Br44 In17 2.618062 1_555
Br45 In39 2.641588 1_555
Br46 In31 2.632606 1_555
Br47 In28 2.645256 1_555
Br48 In34 2.650015 1_555
Br49 In38 2.612820 1_655
Br50 In39 2.627583 1_555
Br51 In22 2.618062 1_555
Br52 In33 3.031054 1_655
Br52 In5 3.136278 1_555
Br52 In11 3.140594 1_545
Br52 In24 3.185740 1_645
Br53 In32 3.041155 1_555
Br53 In36 3.138625 1_555
Br53 In12 3.144937 1_555
Br53 In15 3.172239 1_555
Br54 In22 2.627583 1_555
Br55 In30 2.627583 1_555
