# generated using pymatgen
data_Tl2Ni(CN)4
_symmetry_space_group_name_H-M   'P 1'
_cell_length_a   7.38498600
_cell_length_b   6.31324200
_cell_length_c   9.86684491
_cell_angle_alpha   67.68592829
_cell_angle_beta   90.00000000
_cell_angle_gamma   90.00000000
_symmetry_Int_Tables_number   1
_chemical_formula_structural   Tl2Ni(CN)4
_chemical_formula_sum   'Tl4 Ni2 C8 N8'
_cell_volume   425.57571831
_cell_formula_units_Z   2
loop_
 _symmetry_equiv_pos_site_id
 _symmetry_equiv_pos_as_xyz
  1  'x, y, z'
loop_
 _atom_site_type_symbol
 _atom_site_label
 _atom_site_symmetry_multiplicity
 _atom_site_fract_x
 _atom_site_fract_y
 _atom_site_fract_z
 _atom_site_occupancy
  Tl  Tl0  1  0.34729700  0.69792700  0.57978700  1
  Tl  Tl1  1  0.15270300  0.69792700  0.07978700  1
  Tl  Tl2  1  0.84729700  0.30207300  0.92021300  1
  Tl  Tl3  1  0.65270300  0.30207300  0.42021300  1
  Ni  Ni0  1  0.50000000  0.00000000  0.00000000  1
  Ni  Ni1  1  0.00000000  0.00000000  0.50000000  1
  C  C0  1  0.15418700  0.24937300  0.44094300  1
  C  C1  1  0.50110900  0.00502700  0.81162000  1
  C  C2  1  0.49889100  0.99497300  0.18838000  1
  C  C3  1  0.84581300  0.75062700  0.55905700  1
  C  C4  1  0.00110900  0.99497300  0.68838000  1
  C  C5  1  0.65418700  0.75062700  0.05905700  1
  C  C6  1  0.99889100  0.00502700  0.31162000  1
  C  C7  1  0.34581300  0.24937300  0.94094300  1
  N  N0  1  0.49823000  0.99082000  0.30849800  1
  N  N1  1  0.74516700  0.59402900  0.59753000  1
  N  N2  1  0.50177000  0.00918000  0.69150200  1
  N  N3  1  0.99823000  0.00918000  0.19150200  1
  N  N4  1  0.75483300  0.59402900  0.09753000  1
  N  N5  1  0.00177000  0.99082000  0.80849800  1
  N  N6  1  0.24516700  0.40597100  0.90247000  1
  N  N7  1  0.25483300  0.40597100  0.40247000  1
loop_
_geom_bond_atom_site_label_1
_geom_bond_atom_site_label_2
_geom_bond_distance
_geom_bond_site_symmetry_2
C0 N7 1.178548 1_555
C0 Ni1 1.848801 1_555
C1 N2 1.175491 1_555
C1 Ni0 1.846918 1_556
C2 N0 1.175491 1_555
C2 Ni0 1.846918 1_565
C3 N1 1.178548 1_555
C3 Ni1 1.848801 1_665
C4 N5 1.175491 1_555
C4 Ni1 1.846918 1_565
C5 N4 1.178548 1_555
C5 Ni0 1.848801 1_565
C6 N3 1.175491 1_555
C6 Ni1 1.846918 1_655
C7 N6 1.178548 1_555
C7 Ni0 1.848801 1_556
N0 Tl3 2.832394 1_565
N0 Tl0 2.840441 1_555
N2 Tl0 2.832394 1_545
N2 Tl3 2.840441 1_555
N3 Tl1 2.832394 1_645
N3 Tl2 2.840441 1_554
N5 Tl2 2.832394 1_465
N5 Tl1 2.840441 1_556
