# generated using pymatgen
data_InSiTe3
_symmetry_space_group_name_H-M   'P 1'
_cell_length_a   7.12039536
_cell_length_b   7.12039516
_cell_length_c   7.48873665
_cell_angle_alpha   90.00000000
_cell_angle_beta   90.00000000
_cell_angle_gamma   119.99999224
_symmetry_Int_Tables_number   1
_chemical_formula_structural   InSiTe3
_chemical_formula_sum   'In2 Si2 Te6'
_cell_volume   328.81182619
_cell_formula_units_Z   2
loop_
 _symmetry_equiv_pos_site_id
 _symmetry_equiv_pos_as_xyz
  1  'x, y, z'
loop_
 _atom_site_type_symbol
 _atom_site_label
 _atom_site_symmetry_multiplicity
 _atom_site_fract_x
 _atom_site_fract_y
 _atom_site_fract_z
 _atom_site_occupancy
  In  In0  1  0.66666700  0.33333300  0.49996280  1
  In  In1  1  0.33333300  0.66666700  0.50003720  1
  Si  Si0  1  -0.00000000  0.00000000  0.34563341  1
  Si  Si1  1  -0.00000000  0.00000000  0.65436659  1
  Te  Te0  1  0.00041180  0.66299264  0.24691140  1
  Te  Te1  1  0.33700736  0.33742017  0.24691140  1
  Te  Te2  1  0.99958820  0.33700736  0.75308860  1
  Te  Te3  1  0.33742017  0.00041180  0.75308860  1
  Te  Te4  1  0.66257983  0.99958820  0.24691140  1
  Te  Te5  1  0.66299264  0.66257983  0.75308860  1
loop_
_geom_bond_atom_site_label_1
_geom_bond_atom_site_label_2
_geom_bond_distance
_geom_bond_site_symmetry_2
In0 Te5 3.025120 1_555
In0 Te2 3.025120 1_555
In0 Te3 3.025120 1_555
In0 Te4 3.028217 1_545
In0 Te0 3.028223 1_655
In0 Te1 3.028228 1_555
In1 Te1 3.025120 1_555
In1 Te0 3.025120 1_555
In1 Te4 3.025120 1_555
In1 Te3 3.028217 1_565
In1 Te2 3.028223 1_455
In1 Te5 3.028228 1_555
Si0 Si1 2.312021 1_555
Si0 Te0 2.512333 1_545
Si0 Te1 2.512337 1_555
Si0 Te4 2.512340 1_445
Si1 Te2 2.512333 1_455
Si1 Te5 2.512337 1_445
Si1 Te3 2.512340 1_555
