# generated using pymatgen
data_NaNd(Si3O7)2
_symmetry_space_group_name_H-M   'P 1'
_cell_length_a   13.22856455
_cell_length_b   13.22856455
_cell_length_c   13.22856455
_cell_angle_alpha   145.94293755
_cell_angle_beta   107.77440747
_cell_angle_gamma   82.31364210
_symmetry_Int_Tables_number   1
_chemical_formula_structural   NaNd(Si3O7)2
_chemical_formula_sum   'Na4 Nd4 Si24 O56'
_cell_volume   1203.30842939
_cell_formula_units_Z   4
loop_
 _symmetry_equiv_pos_site_id
 _symmetry_equiv_pos_as_xyz
  1  'x, y, z'
loop_
 _atom_site_type_symbol
 _atom_site_label
 _atom_site_symmetry_multiplicity
 _atom_site_fract_x
 _atom_site_fract_y
 _atom_site_fract_z
 _atom_site_occupancy
  Na  Na0  1  0.75000000  0.75000000  0.00000000  1
  Na  Na1  1  0.50000000  0.00000000  0.50000000  1
  Na  Na2  1  0.25000000  0.25000000  0.00000000  1
  Na  Na3  1  0.00000000  0.50000000  0.50000000  1
  Nd  Nd0  1  0.97854900  0.75000000  0.22854900  1
  Nd  Nd1  1  0.02145100  0.25000000  0.77145100  1
  Nd  Nd2  1  0.47854900  0.25000000  0.22854900  1
  Nd  Nd3  1  0.52145100  0.75000000  0.77145100  1
  Si  Si0  1  0.47207000  0.00391900  0.77103600  1
  Si  Si1  1  0.93163600  0.59218000  0.81711800  1
  Si  Si2  1  0.52793000  0.99608100  0.22896400  1
  Si  Si3  1  0.72493800  0.90782000  0.33945600  1
  Si  Si4  1  0.33390600  0.73198900  0.06589500  1
  Si  Si5  1  0.02793000  0.79896600  0.53184900  1
  Si  Si6  1  0.43163600  0.61451800  0.33945600  1
  Si  Si7  1  0.56836400  0.38548200  0.66054400  1
  Si  Si8  1  0.26711700  0.49608100  0.46815100  1
  Si  Si9  1  0.77506200  0.11451800  0.18288200  1
  Si  Si10  1  0.83390600  0.76801100  0.60191700  1
  Si  Si11  1  0.06836400  0.40782000  0.18288200  1
  Si  Si12  1  0.63357700  0.67818800  0.31176500  1
  Si  Si13  1  0.22493800  0.88548200  0.81711800  1
  Si  Si14  1  0.66609400  0.26801100  0.93410500  1
  Si  Si15  1  0.97207000  0.20103400  0.46815100  1
  Si  Si16  1  0.13357700  0.82181200  0.95538900  1
  Si  Si17  1  0.36642300  0.32181200  0.68823500  1
  Si  Si18  1  0.76711700  0.29896600  0.77103600  1
  Si  Si19  1  0.16609400  0.23198900  0.39808300  1
  Si  Si20  1  0.27506200  0.09218000  0.66054400  1
  Si  Si21  1  0.73288300  0.50391900  0.53184900  1
  Si  Si22  1  0.86642300  0.17818800  0.04461100  1
  Si  Si23  1  0.23288300  0.70103400  0.22896400  1
  O  O0  1  0.81023300  0.60284100  0.54207500  1
  O  O1  1  0.79875100  0.77755500  0.21258900  1
  O  O2  1  0.64252700  0.81776800  0.33371700  1
  O  O3  1  0.50759400  0.05012400  0.93494700  1
  O  O4  1  0.30910300  0.61796100  0.26264200  1
  O  O5  1  0.48405100  0.30881000  0.66628300  1
  O  O6  1  0.11517700  0.57264700  0.06505300  1
  O  O7  1  0.46310300  0.77647800  0.57217500  1
  O  O8  1  0.19089700  0.45353900  0.30885800  1
  O  O9  1  0.36323500  0.53091100  0.89414600  1
  O  O10  1  0.43923400  0.89715900  0.20739200  1
  O  O11  1  0.38482300  0.44987600  0.45747000  1
  O  O12  1  0.00759400  0.07264700  0.45747000  1
  O  O13  1  0.13676500  0.03091100  0.16767600  1
  O  O14  1  0.63676500  0.46908900  0.10585400  1
  O  O15  1  0.18976700  0.39715900  0.45792500  1
  O  O16  1  0.20124900  0.22244500  0.78741100  1
  O  O17  1  0.93923400  0.73184200  0.54207500  1
  O  O18  1  0.86323500  0.96908900  0.83232400  1
  O  O19  1  0.93503400  0.72244500  0.02119600  1
  O  O20  1  0.73009000  0.75799200  0.48808200  1
  O  O21  1  0.64468100  0.95353900  0.26264200  1
  O  O22  1  0.80910300  0.54646100  0.69114200  1
  O  O23  1  0.35747300  0.18223200  0.66628300  1
  O  O24  1  0.14252700  0.80881000  0.82475900  1
  O  O25  1  0.56496600  0.58616200  0.78741100  1
  O  O26  1  0.79569700  0.10907200  0.57217500  1
  O  O27  1  0.49240600  0.94987600  0.06505300  1
  O  O28  1  0.76991000  0.25799200  0.02790200  1
  O  O29  1  0.51594900  0.69119000  0.33371700  1
  O  O30  1  0.14468100  0.88203900  0.69114200  1
  O  O31  1  0.01594900  0.68223200  0.82475900  1
  O  O32  1  0.26991000  0.24200800  0.51191800  1
  O  O33  1  0.96310300  0.39092800  0.68662500  1
  O  O34  1  0.98405100  0.31776800  0.17524100  1
  O  O35  1  0.99240600  0.92735300  0.54253000  1
  O  O36  1  0.70124900  0.91383800  0.97880400  1
  O  O37  1  0.70430300  0.27647800  0.31337500  1
  O  O38  1  0.61517700  0.55012400  0.54253000  1
  O  O39  1  0.29875100  0.08616200  0.02119600  1
  O  O40  1  0.31023300  0.76815800  0.20739200  1
  O  O41  1  0.68976700  0.23184200  0.79260800  1
  O  O42  1  0.53689700  0.22352200  0.42782500  1
  O  O43  1  0.88482300  0.42735300  0.93494700  1
  O  O44  1  0.20430300  0.89092800  0.42782500  1
  O  O45  1  0.56076600  0.10284100  0.79260800  1
  O  O46  1  0.06076600  0.26815800  0.45792500  1
  O  O47  1  0.43503400  0.41383800  0.21258900  1
  O  O48  1  0.06496600  0.27755500  0.97880400  1
  O  O49  1  0.85747300  0.19119000  0.17524100  1
  O  O50  1  0.23009000  0.74200800  0.97209800  1
  O  O51  1  0.35531900  0.04646100  0.73735800  1
  O  O52  1  0.29569700  0.72352200  0.68662500  1
  O  O53  1  0.03689700  0.60907200  0.31337500  1
  O  O54  1  0.69089700  0.38203900  0.73735800  1
  O  O55  1  0.85531900  0.11796100  0.30885800  1
loop_
_geom_bond_atom_site_label_1
_geom_bond_atom_site_label_2
_geom_bond_distance
_geom_bond_site_symmetry_2
Na0 O1 2.390511 1_555
Na0 O25 2.390511 1_554
Na0 O19 2.390511 1_555
Na0 O36 2.390511 1_554
Na0 O54 2.777287 1_554
Na0 O22 2.777287 1_554
Na0 O55 2.777287 1_565
Na0 O21 2.777287 1_555
Na1 O2 2.595127 1_545
Na1 O5 2.595127 1_555
Na1 O29 2.595127 1_545
Na1 O23 2.595127 1_555
Na1 O45 2.673437 1_555
Na1 O10 2.673437 1_545
Na1 O40 2.673437 1_545
Na1 O41 2.673437 1_555
Na2 O39 2.390511 1_555
Na2 O48 2.390511 1_554
Na2 O47 2.390511 1_555
Na2 O16 2.390511 1_554
Na2 O30 2.777287 1_544
Na2 O4 2.777287 1_555
Na2 O8 2.777287 1_555
Na2 O51 2.777287 1_554
Na3 O24 2.595127 1_555
Na3 O49 2.595127 1_455
Na3 O34 2.595127 1_455
Na3 O31 2.595127 1_555
Na3 O46 2.673437 1_555
Na3 O0 2.673437 1_455
Na3 O15 2.673437 1_555
Na3 O17 2.673437 1_455
Nd0 O19 2.328856 1_555
Nd0 O1 2.328856 1_555
Nd0 O12 2.418066 1_665
Nd0 O43 2.418066 1_554
Nd0 O35 2.508639 1_555
Nd0 O6 2.508639 1_655
Nd0 O44 2.807670 1_655
Nd0 O53 2.807670 1_655
Nd1 O16 2.328856 1_555
Nd1 O48 2.328856 1_555
Nd1 O6 2.418066 1_556
Nd1 O35 2.418066 1_445
Nd1 O43 2.508639 1_455
Nd1 O12 2.508639 1_555
Nd1 O33 2.807670 1_455
Nd1 O26 2.807670 1_455
Nd2 O39 2.328856 1_555
Nd2 O47 2.328856 1_555
Nd2 O11 2.418066 1_555
Nd2 O3 2.418066 1_554
Nd2 O38 2.508639 1_555
Nd2 O27 2.508639 1_545
Nd2 O37 2.807670 1_555
Nd2 O42 2.807670 1_555
Nd3 O25 2.328856 1_555
Nd3 O36 2.328856 1_555
Nd3 O27 2.418066 1_556
Nd3 O38 2.418066 1_555
Nd3 O11 2.508639 1_555
Nd3 O3 2.508639 1_565
Nd3 O52 2.807670 1_555
Nd3 O7 2.807670 1_555
O0 Si10 1.632325 1_555
O0 Si21 1.660746 1_555
O1 Si3 1.580488 1_555
O2 Si12 1.629948 1_555
O2 Si3 1.661435 1_555
O3 Si0 1.598343 1_555
O4 Si23 1.631976 1_555
O4 Si6 1.647229 1_555
O5 Si17 1.629948 1_555
O5 Si7 1.661435 1_555
O6 Si23 1.598343 1_555
O7 Si6 1.663799 1_555
O7 Si0 1.666456 1_565
O8 Si8 1.631976 1_555
O8 Si11 1.647229 1_555
O9 Si17 1.620844 1_555
O9 Si4 1.623673 1_556
O10 Si4 1.632325 1_555
O10 Si2 1.660746 1_555
O11 Si8 1.598343 1_555
O12 Si15 1.598343 1_455
O13 Si16 1.620844 1_544
O13 Si19 1.623673 1_555
O14 Si12 1.620844 1_555
O14 Si14 1.623673 1_554
O15 Si19 1.632325 1_555
O15 Si8 1.660746 1_555
O16 Si20 1.580488 1_555
O17 Si10 1.632325 1_555
O17 Si5 1.660746 1_655
O18 Si22 1.620844 1_566
O18 Si10 1.623673 1_555
O19 Si1 1.580488 1_554
O20 Si10 1.620686 1_555
O20 Si12 1.627016 1_555
O21 Si2 1.631976 1_555
O21 Si3 1.647229 1_555
O22 Si21 1.631976 1_555
O22 Si1 1.647229 1_555
O23 Si17 1.629948 1_555
O23 Si20 1.661435 1_555
O24 Si16 1.629948 1_555
O24 Si13 1.661435 1_555
O25 Si7 1.580488 1_555
O26 Si3 1.663799 1_545
O26 Si18 1.666456 1_555
O27 Si2 1.598343 1_555
O28 Si14 1.620686 1_554
O28 Si22 1.627016 1_555
O29 Si12 1.629948 1_555
O29 Si6 1.661435 1_555
O30 Si5 1.631976 1_555
O30 Si13 1.647229 1_555
O31 Si16 1.629948 1_555
O31 Si1 1.661435 1_455
O32 Si19 1.620686 1_555
O32 Si17 1.627016 1_555
O33 Si1 1.663799 1_555
O33 Si15 1.666456 1_555
O34 Si22 1.629948 1_555
O34 Si11 1.661435 1_655
O35 Si5 1.598343 1_655
O36 Si9 1.580488 1_566
O37 Si9 1.663799 1_555
O37 Si21 1.666456 1_555
O38 Si21 1.598343 1_555
O39 Si13 1.580488 1_544
O40 Si4 1.632325 1_555
O40 Si23 1.660746 1_555
O41 Si14 1.632325 1_555
O41 Si18 1.660746 1_555
O42 Si7 1.663799 1_555
O42 Si2 1.666456 1_545
O43 Si18 1.598343 1_555
O44 Si20 1.663799 1_565
O44 Si23 1.666456 1_555
O45 Si14 1.632325 1_555
O45 Si0 1.660746 1_555
O46 Si19 1.632325 1_555
O46 Si15 1.660746 1_455
O47 Si6 1.580488 1_555
O48 Si11 1.580488 1_556
O49 Si22 1.629948 1_555
O49 Si9 1.661435 1_555
O50 Si4 1.620686 1_556
O50 Si16 1.627016 1_555
O51 Si0 1.631976 1_555
O51 Si20 1.647229 1_555
O52 Si13 1.663799 1_555
O52 Si8 1.666456 1_555
O53 Si11 1.663799 1_555
O53 Si5 1.666456 1_555
O54 Si18 1.631976 1_555
O54 Si7 1.647229 1_555
O55 Si15 1.631976 1_555
O55 Si9 1.647229 1_555
