# generated using pymatgen
data_Nd4Mg3Co2
_symmetry_space_group_name_H-M   'P 1'
_cell_length_a   3.72010831
_cell_length_b   7.82459873
_cell_length_c   8.52523443
_cell_angle_alpha   109.34333023
_cell_angle_beta   90.00000000
_cell_angle_gamma   90.00000000
_symmetry_Int_Tables_number   1
_chemical_formula_structural   Nd4Mg3Co2
_chemical_formula_sum   'Nd4 Mg3 Co2'
_cell_volume   234.14734807
_cell_formula_units_Z   1
loop_
 _symmetry_equiv_pos_site_id
 _symmetry_equiv_pos_as_xyz
  1  'x, y, z'
loop_
 _atom_site_type_symbol
 _atom_site_label
 _atom_site_symmetry_multiplicity
 _atom_site_fract_x
 _atom_site_fract_y
 _atom_site_fract_z
 _atom_site_occupancy
  Nd  Nd0  1  0.50000000  0.39310509  0.18276940  1
  Nd  Nd1  1  0.50000000  0.09313419  0.72022207  1
  Nd  Nd2  1  0.50000000  0.90686581  0.27977793  1
  Nd  Nd3  1  0.50000000  0.60689491  0.81723060  1
  Mg  Mg0  1  0.00000000  0.29873311  0.50215555  1
  Mg  Mg1  1  -0.00000000  0.70126689  0.49784445  1
  Mg  Mg2  1  0.00000000  -0.00000000  -0.00000000  1
  Co  Co0  1  -0.00000000  0.64597702  0.09923309  1
  Co  Co1  1  0.00000000  0.35402298  0.90076691  1
loop_
_geom_bond_atom_site_label_1
_geom_bond_atom_site_label_2
_geom_bond_distance
_geom_bond_site_symmetry_2
Mg0 Mg1 3.162029 1_555
Mg0 Nd1 3.388979 1_455
Mg0 Nd1 3.388979 1_555
Mg0 Nd3 3.492615 1_455
Mg0 Nd3 3.492615 1_555
Mg0 Nd2 3.550311 1_545
Mg0 Nd2 3.550311 1_445
Mg0 Nd0 3.570837 1_455
Mg0 Nd0 3.570837 1_555
Mg1 Nd2 3.388979 1_455
Mg1 Nd2 3.388979 1_555
Mg1 Nd0 3.492615 1_455
Mg1 Nd0 3.492615 1_555
Mg1 Nd1 3.550311 1_465
Mg1 Nd1 3.550311 1_565
Mg1 Nd3 3.570837 1_455
Mg1 Nd3 3.570837 1_555
Mg2 Nd1 3.291104 1_554
Mg2 Nd1 3.291104 1_454
Mg2 Nd2 3.291104 1_445
Mg2 Nd2 3.291104 1_545
Mg2 Nd0 3.489094 1_555
Mg2 Nd0 3.489094 1_455
Mg2 Nd3 3.489094 1_444
Mg2 Nd3 3.489094 1_544
Co0 Co1 2.349648 1_554
Co0 Nd2 2.813282 1_555
Co0 Nd2 2.813282 1_455
Co0 Nd0 2.969074 1_455
Co0 Nd0 2.969074 1_555
Co0 Nd3 2.974250 1_454
Co0 Nd3 2.974250 1_554
Co0 Mg2 3.153016 1_565
Co0 Mg1 3.280455 1_555
Co1 Nd1 2.813282 1_455
Co1 Nd1 2.813282 1_555
Co1 Nd3 2.969074 1_555
Co1 Nd3 2.969074 1_455
Co1 Nd0 2.974250 1_456
Co1 Nd0 2.974250 1_556
Co1 Mg2 3.153016 1_556
Co1 Mg0 3.280455 1_555
