# generated using pymatgen
data_FeTe2ClO5
_symmetry_space_group_name_H-M   'P 1'
_cell_length_a   6.69946100
_cell_length_b   13.35427100
_cell_length_c   14.41736465
_cell_angle_alpha   71.71063044
_cell_angle_beta   90.00000000
_cell_angle_gamma   90.00000000
_symmetry_Int_Tables_number   1
_chemical_formula_structural   FeTe2ClO5
_chemical_formula_sum   'Fe8 Te16 Cl8 O40'
_cell_volume   1224.71053427
_cell_formula_units_Z   8
loop_
 _symmetry_equiv_pos_site_id
 _symmetry_equiv_pos_as_xyz
  1  'x, y, z'
loop_
 _atom_site_type_symbol
 _atom_site_label
 _atom_site_symmetry_multiplicity
 _atom_site_fract_x
 _atom_site_fract_y
 _atom_site_fract_z
 _atom_site_occupancy
  Fe  Fe0  1  0.99568000  0.11935700  0.02139000  1
  Fe  Fe1  1  0.49568000  0.88064300  0.47861000  1
  Fe  Fe2  1  0.00432000  0.88064300  0.97861000  1
  Fe  Fe3  1  0.79028200  0.93524600  0.64454000  1
  Fe  Fe4  1  0.70971800  0.93524600  0.14454000  1
  Fe  Fe5  1  0.29028200  0.06475400  0.85546000  1
  Fe  Fe6  1  0.50432000  0.11935700  0.52139000  1
  Fe  Fe7  1  0.20971800  0.06475400  0.35546000  1
  Te  Te0  1  0.80678000  0.11114800  0.78499200  1
  Te  Te1  1  0.02277000  0.37079000  0.85844800  1
  Te  Te2  1  0.69322000  0.11114800  0.28499200  1
  Te  Te3  1  0.01461000  0.79987600  0.52148900  1
  Te  Te4  1  0.97723000  0.62921000  0.14155200  1
  Te  Te5  1  0.30678000  0.88885200  0.71500800  1
  Te  Te6  1  0.79584200  0.71426100  0.86124400  1
  Te  Te7  1  0.20415800  0.28573900  0.13875600  1
  Te  Te8  1  0.98539000  0.20012400  0.47851100  1
  Te  Te9  1  0.51461000  0.20012400  0.97851100  1
  Te  Te10  1  0.70415800  0.71426100  0.36124400  1
  Te  Te11  1  0.29584200  0.28573900  0.63875600  1
  Te  Te12  1  0.52277000  0.62921000  0.64155200  1
  Te  Te13  1  0.19322000  0.88885200  0.21500800  1
  Te  Te14  1  0.47723000  0.37079000  0.35844800  1
  Te  Te15  1  0.48539000  0.79987600  0.02148900  1
  Cl  Cl0  1  0.12814200  0.61124700  0.78176300  1
  Cl  Cl1  1  0.87185800  0.38875300  0.21823700  1
  Cl  Cl2  1  0.37185800  0.61124700  0.28176300  1
  Cl  Cl3  1  0.62814200  0.38875300  0.71823700  1
  Cl  Cl4  1  0.21592900  0.56330700  0.05040100  1
  Cl  Cl5  1  0.71592900  0.43669300  0.44959900  1
  Cl  Cl6  1  0.28407100  0.56330700  0.55040100  1
  Cl  Cl7  1  0.78407100  0.43669300  0.94959900  1
  O  O0  1  0.22875900  0.21518200  0.77278300  1
  O  O1  1  0.01180500  0.18905500  0.12100300  1
  O  O2  1  0.24829700  0.01278200  0.24525100  1
  O  O3  1  0.25170300  0.01278200  0.74525100  1
  O  O4  1  0.28265200  0.11397900  0.97977400  1
  O  O5  1  0.48819500  0.18905500  0.62100300  1
  O  O6  1  0.55352400  0.78333500  0.89428500  1
  O  O7  1  0.75170300  0.98721800  0.75474900  1
  O  O8  1  0.07379500  0.89876400  0.63700800  1
  O  O9  1  0.98568600  0.03841100  0.89694700  1
  O  O10  1  0.98819500  0.81094500  0.87899700  1
  O  O11  1  0.51180500  0.81094500  0.37899700  1
  O  O12  1  0.27124100  0.21518200  0.27278200  1
  O  O13  1  0.42620500  0.89876400  0.13700800  1
  O  O14  1  0.22772000  0.34271500  0.95085600  1
  O  O15  1  0.92620500  0.10123600  0.36299200  1
  O  O16  1  0.57379500  0.10123600  0.86299200  1
  O  O17  1  0.90088900  0.23364700  0.90604700  1
  O  O18  1  0.72772000  0.65728500  0.54914400  1
  O  O19  1  0.30130600  0.90947700  0.94817800  1
  O  O20  1  0.21734800  0.11397900  0.47977400  1
  O  O21  1  0.48568600  0.96158900  0.60305300  1
  O  O22  1  0.71734800  0.88602100  0.02022600  1
  O  O23  1  0.69869400  0.09052300  0.05182200  1
  O  O24  1  0.44647600  0.21666500  0.10571500  1
  O  O25  1  0.74829700  0.98721800  0.25474900  1
  O  O26  1  0.19869400  0.90947700  0.44817800  1
  O  O27  1  0.51431400  0.03841100  0.39694700  1
  O  O28  1  0.05352400  0.21666500  0.60571500  1
  O  O29  1  0.59911100  0.23364700  0.40604700  1
  O  O30  1  0.77124100  0.78481800  0.22721700  1
  O  O31  1  0.78265200  0.88602100  0.52022600  1
  O  O32  1  0.72875900  0.78481800  0.72721700  1
  O  O33  1  0.80130600  0.09052300  0.55182200  1
  O  O34  1  0.09911100  0.76635300  0.09395300  1
  O  O35  1  0.27228000  0.34271500  0.45085600  1
  O  O36  1  0.94647600  0.78333500  0.39428500  1
  O  O37  1  0.77228000  0.65728500  0.04914400  1
  O  O38  1  0.01431400  0.96158900  0.10305300  1
  O  O39  1  0.40088900  0.76635300  0.59395300  1
loop_
_geom_bond_atom_site_label_1
_geom_bond_atom_site_label_2
_geom_bond_distance
_geom_bond_site_symmetry_2
Fe0 O1 1.944098 1_655
Fe0 O17 1.976145 1_554
Fe0 O4 2.021985 1_654
Fe0 O23 2.047786 1_555
Fe0 O38 2.069739 1_645
Fe0 O9 2.368369 1_554
Fe1 O11 1.944098 1_555
Fe1 O39 1.976145 1_555
Fe1 O31 2.021985 1_555
Fe1 O26 2.047786 1_555
Fe1 O27 2.069739 1_565
Fe1 O21 2.368369 1_555
Fe2 O10 1.944098 1_455
Fe2 O34 1.976145 1_556
Fe2 O22 2.021985 1_456
Fe2 O19 2.047786 1_555
Fe2 O9 2.069739 1_465
Fe2 O38 2.368369 1_556
Fe3 O7 1.940445 1_555
Fe3 O8 1.972311 1_655
Fe3 O32 2.030599 1_555
Fe3 O33 2.086260 1_565
Fe3 O31 2.094391 1_555
Fe3 O21 2.124529 1_555
Fe4 O25 1.940445 1_555
Fe4 O13 1.972311 1_555
Fe4 O30 2.030599 1_555
Fe4 O23 2.086260 1_565
Fe4 O22 2.094391 1_555
Fe4 O38 2.124529 1_655
Fe5 O3 1.940445 1_555
Fe5 O16 1.972311 1_555
Fe5 O0 2.030599 1_555
Fe5 O19 2.086260 1_545
Fe5 O4 2.094391 1_555
Fe5 O9 2.124529 1_455
Fe6 O5 1.944098 1_555
Fe6 O29 1.976145 1_555
Fe6 O20 2.021985 1_555
Fe6 O33 2.047786 1_555
Fe6 O21 2.069739 1_545
Fe6 O27 2.368369 1_555
Fe7 O2 1.940445 1_555
Fe7 O15 1.972311 1_455
Fe7 O12 2.030603 1_555
Fe7 O26 2.086260 1_545
Fe7 O20 2.094391 1_555
Fe7 O27 2.124529 1_555
Cl0 Te6 3.025077 1_455
Cl0 Te1 3.131102 1_555
Cl1 Te7 3.025077 1_655
Cl1 Te4 3.131102 1_555
Cl2 Te10 3.025077 1_555
Cl2 Te14 3.131102 1_555
Cl3 Te11 3.025077 1_555
Cl3 Te12 3.131102 1_555
Cl4 Te4 2.405153 1_455
Cl5 Te14 2.405153 1_555
Cl6 Te12 2.405153 1_555
Cl7 Te1 2.405153 1_655
O0 Te11 1.918568 1_555
O1 Te7 1.897532 1_555
O2 Te13 1.875683 1_545
O3 Te5 1.875683 1_545
O4 Te9 1.930158 1_555
O5 Te11 1.897532 1_555
O6 Te15 1.968443 1_556
O6 Te6 1.997254 1_555
O7 Te0 1.875683 1_565
O8 Te5 1.903955 1_555
O8 Te3 2.460767 1_555
O9 Te0 2.000343 1_555
O10 Te6 1.897532 1_555
O11 Te10 1.897532 1_555
O12 Te7 1.918556 1_555
O13 Te13 1.903955 1_555
O13 Te15 2.460767 1_555
O14 Te1 1.867435 1_555
O14 Te7 2.578558 1_556
O14 Te9 2.646232 1_555
O15 Te2 1.903955 1_555
O15 Te8 2.460767 1_555
O16 Te0 1.903955 1_555
O16 Te9 2.460767 1_555
O17 Te1 1.924327 1_655
O18 Te12 1.867435 1_555
O18 Te10 2.578558 1_555
O18 Te3 2.646232 1_655
O19 Te15 1.951765 1_556
O20 Te8 1.930158 1_455
O21 Te5 2.000343 1_555
O22 Te15 1.930158 1_555
O23 Te9 1.951765 1_554
O24 Te9 1.968443 1_554
O24 Te7 1.997254 1_555
O25 Te2 1.875683 1_565
O26 Te3 1.951765 1_555
O27 Te2 2.000343 1_555
O28 Te8 1.968443 1_455
O28 Te11 1.997254 1_555
O29 Te14 1.924327 1_555
O30 Te10 1.918568 1_555
O31 Te3 1.930158 1_655
O32 Te6 1.918568 1_555
O33 Te8 1.951765 1_555
O34 Te4 1.924327 1_455
O35 Te14 1.867435 1_555
O35 Te11 2.578558 1_555
O35 Te8 2.646232 1_455
O36 Te3 1.968443 1_655
O36 Te10 1.997254 1_555
O37 Te4 1.867435 1_555
O37 Te6 2.578558 1_554
O37 Te15 2.646232 1_555
O38 Te13 2.000343 1_555
O39 Te12 1.924327 1_555
