# generated using pymatgen
data_Yb5Pb3
_symmetry_space_group_name_H-M   'P 1'
_cell_length_a   9.45733357
_cell_length_b   9.45733357
_cell_length_c   6.83011000
_cell_angle_alpha   90.00000000
_cell_angle_beta   90.00000000
_cell_angle_gamma   119.99999699
_symmetry_Int_Tables_number   1
_chemical_formula_structural   Yb5Pb3
_chemical_formula_sum   'Yb10 Pb6'
_cell_volume   529.04882924
_cell_formula_units_Z   2
loop_
 _symmetry_equiv_pos_site_id
 _symmetry_equiv_pos_as_xyz
  1  'x, y, z'
loop_
 _atom_site_type_symbol
 _atom_site_label
 _atom_site_symmetry_multiplicity
 _atom_site_fract_x
 _atom_site_fract_y
 _atom_site_fract_z
 _atom_site_occupancy
  Yb  Yb0  1  0.00000000  0.73254000  0.75000000  1
  Yb  Yb1  1  0.73254000  0.73254000  0.25000000  1
  Yb  Yb2  1  0.26746000  0.26746000  0.75000000  1
  Yb  Yb3  1  0.73254000  0.00000000  0.75000000  1
  Yb  Yb4  1  0.33333300  0.66666700  0.50000000  1
  Yb  Yb5  1  0.26746000  0.00000000  0.25000000  1
  Yb  Yb6  1  0.00000000  0.26746000  0.25000000  1
  Yb  Yb7  1  0.66666700  0.33333300  0.50000000  1
  Yb  Yb8  1  0.33333300  0.66666700  0.00000000  1
  Yb  Yb9  1  0.66666700  0.33333300  0.00000000  1
  Pb  Pb0  1  0.38907700  0.38907700  0.25000000  1
  Pb  Pb1  1  0.00000000  0.38907700  0.75000000  1
  Pb  Pb2  1  0.61092300  0.61092300  0.75000000  1
  Pb  Pb3  1  0.00000000  0.61092300  0.25000000  1
  Pb  Pb4  1  0.61092300  0.00000000  0.25000000  1
  Pb  Pb5  1  0.38907700  0.00000000  0.75000000  1
loop_
_geom_bond_atom_site_label_1
_geom_bond_atom_site_label_2
_geom_bond_distance
_geom_bond_site_symmetry_2
Pb0 Yb1 3.248244 1_555
Pb0 Yb5 3.260425 1_555
Pb0 Yb6 3.260425 1_555
Pb0 Yb8 3.386678 1_555
Pb0 Yb9 3.386678 1_555
Pb0 Yb4 3.386678 1_555
Pb0 Yb7 3.386678 1_555
Pb0 Yb2 3.603540 1_555
Pb0 Yb2 3.603540 1_554
Pb1 Yb0 3.248244 1_555
Pb1 Yb2 3.260425 1_555
Pb1 Yb3 3.260425 1_455
Pb1 Yb9 3.386670 1_456
Pb1 Yb7 3.386670 1_455
Pb1 Yb4 3.386673 1_555
Pb1 Yb8 3.386673 1_556
Pb1 Yb6 3.603540 1_555
Pb1 Yb6 3.603540 1_556
Pb2 Yb2 3.248244 1_555
Pb2 Yb0 3.260425 1_655
Pb2 Yb3 3.260425 1_565
Pb2 Yb9 3.386678 1_556
Pb2 Yb4 3.386678 1_555
Pb2 Yb8 3.386678 1_556
Pb2 Yb7 3.386678 1_555
Pb2 Yb1 3.603540 1_556
Pb2 Yb1 3.603540 1_555
Pb3 Yb6 3.248244 1_555
Pb3 Yb1 3.260425 1_455
Pb3 Yb5 3.260425 1_565
Pb3 Yb4 3.386670 1_555
Pb3 Yb8 3.386670 1_555
Pb3 Yb9 3.386673 1_455
Pb3 Yb7 3.386673 1_455
Pb3 Yb0 3.603540 1_555
Pb3 Yb0 3.603540 1_554
Pb4 Yb5 3.248244 1_555
Pb4 Yb1 3.260425 1_545
Pb4 Yb6 3.260425 1_655
Pb4 Yb9 3.386670 1_555
Pb4 Yb7 3.386670 1_555
Pb4 Yb8 3.386673 1_545
Pb4 Yb4 3.386673 1_545
Pb4 Yb3 3.603540 1_555
Pb4 Yb3 3.603540 1_554
Pb5 Yb3 3.248244 1_555
Pb5 Yb2 3.260425 1_555
Pb5 Yb0 3.260425 1_545
Pb5 Yb8 3.386670 1_546
Pb5 Yb4 3.386670 1_545
Pb5 Yb9 3.386673 1_556
Pb5 Yb7 3.386673 1_555
Pb5 Yb5 3.603540 1_556
Pb5 Yb5 3.603540 1_555
