# generated using pymatgen
data_CaBiAu
_symmetry_space_group_name_H-M   'P 1'
_cell_length_a   4.89112081
_cell_length_b   4.89112103
_cell_length_c   4.89112008
_cell_angle_alpha   60.00001333
_cell_angle_beta   60.00001196
_cell_angle_gamma   59.99999737
_symmetry_Int_Tables_number   1
_chemical_formula_structural   CaBiAu
_chemical_formula_sum   'Ca1 Bi1 Au1'
_cell_volume   82.73898726
_cell_formula_units_Z   1
loop_
 _symmetry_equiv_pos_site_id
 _symmetry_equiv_pos_as_xyz
  1  'x, y, z'
loop_
 _atom_site_type_symbol
 _atom_site_label
 _atom_site_symmetry_multiplicity
 _atom_site_fract_x
 _atom_site_fract_y
 _atom_site_fract_z
 _atom_site_occupancy
  Ca  Ca0  1  -0.00000000  0.00000000  0.00000000  1
  Bi  Bi0  1  0.50000000  0.50000000  0.50000000  1
  Au  Au0  1  0.25000000  0.25000000  0.25000000  1
loop_
_geom_bond_atom_site_label_1
_geom_bond_atom_site_label_2
_geom_bond_distance
_geom_bond_site_symmetry_2
Bi0 Ca0 3.458544 1_565
Bi0 Ca0 3.458544 1_656
Bi0 Ca0 3.458544 1_655
Bi0 Ca0 3.458544 1_566
Bi0 Ca0 3.458545 1_665
Bi0 Ca0 3.458545 1_556
Au0 Ca0 2.995187 1_555
Au0 Bi0 2.995187 1_555
Au0 Bi0 2.995188 1_455
Au0 Ca0 2.995188 1_655
Au0 Bi0 2.995188 1_554
Au0 Ca0 2.995188 1_556
Au0 Bi0 2.995188 1_545
Au0 Ca0 2.995188 1_565
