# generated using pymatgen
data_Cs2PdI6
_symmetry_space_group_name_H-M   'P 1'
_cell_length_a   8.16662826
_cell_length_b   8.16662778
_cell_length_c   8.16662752
_cell_angle_alpha   59.99999648
_cell_angle_beta   59.99999849
_cell_angle_gamma   59.99999964
_symmetry_Int_Tables_number   1
_chemical_formula_structural   Cs2PdI6
_chemical_formula_sum   'Cs2 Pd1 I6'
_cell_volume   385.13526002
_cell_formula_units_Z   1
loop_
 _symmetry_equiv_pos_site_id
 _symmetry_equiv_pos_as_xyz
  1  'x, y, z'
loop_
 _atom_site_type_symbol
 _atom_site_label
 _atom_site_symmetry_multiplicity
 _atom_site_fract_x
 _atom_site_fract_y
 _atom_site_fract_z
 _atom_site_occupancy
  Cs  Cs0  1  0.25000000  0.25000000  0.25000000  1
  Cs  Cs1  1  0.75000000  0.75000000  0.75000000  1
  Pd  Pd0  1  -0.00000000  0.00000000  -0.00000000  1
  I  I0  1  0.76507166  0.76507166  0.23492834  1
  I  I1  1  0.23492834  0.76507166  0.76507166  1
  I  I2  1  0.23492834  0.76507166  0.23492834  1
  I  I3  1  0.76507166  0.23492834  0.23492834  1
  I  I4  1  0.76507166  0.23492834  0.76507166  1
  I  I5  1  0.23492834  0.23492834  0.76507166  1
loop_
_geom_bond_atom_site_label_1
_geom_bond_atom_site_label_2
_geom_bond_distance
_geom_bond_site_symmetry_2
Cs0 I1 4.087022 1_545
Cs0 I1 4.087022 1_554
Cs0 I5 4.087022 1_555
Cs0 I5 4.087022 1_554
Cs0 I4 4.087022 1_455
Cs0 I4 4.087022 1_554
Cs0 I2 4.087022 1_555
Cs0 I2 4.087022 1_545
Cs0 I0 4.087022 1_455
Cs0 I0 4.087022 1_545
Cs0 I3 4.087023 1_455
Cs0 I3 4.087023 1_555
Cs1 I3 4.087022 1_565
Cs1 I3 4.087022 1_556
Cs1 I0 4.087022 1_555
Cs1 I0 4.087022 1_556
Cs1 I2 4.087022 1_655
Cs1 I2 4.087022 1_556
Cs1 I4 4.087022 1_555
Cs1 I4 4.087022 1_565
Cs1 I5 4.087022 1_655
Cs1 I5 4.087022 1_565
Cs1 I1 4.087023 1_655
Cs1 I1 4.087023 1_555
I0 Pd0 2.713271 1_665
I1 Pd0 2.713271 1_566
I2 Pd0 2.713271 1_565
I3 Pd0 2.713271 1_655
I4 Pd0 2.713271 1_656
I5 Pd0 2.713271 1_556
