# generated using pymatgen
data_Cs3Mo5P6O25
_symmetry_space_group_name_H-M   'P 1'
_cell_length_a   12.37672675
_cell_length_b   12.37672675
_cell_length_c   9.77411600
_cell_angle_alpha   90.00000000
_cell_angle_beta   90.00000000
_cell_angle_gamma   120.00000402
_symmetry_Int_Tables_number   1
_chemical_formula_structural   Cs3Mo5P6O25
_chemical_formula_sum   'Cs6 Mo10 P12 O50'
_cell_volume   1296.64087725
_cell_formula_units_Z   2
loop_
 _symmetry_equiv_pos_site_id
 _symmetry_equiv_pos_as_xyz
  1  'x, y, z'
loop_
 _atom_site_type_symbol
 _atom_site_label
 _atom_site_symmetry_multiplicity
 _atom_site_fract_x
 _atom_site_fract_y
 _atom_site_fract_z
 _atom_site_occupancy
  Cs  Cs0  1  0.39842000  0.08778700  0.40994600  1
  Cs  Cs1  1  0.08778700  0.39842000  0.90994600  1
  Cs  Cs2  1  0.31063300  0.91221300  0.90994600  1
  Cs  Cs3  1  0.91221300  0.31063300  0.40994600  1
  Cs  Cs4  1  0.60158000  0.68936700  0.90994600  1
  Cs  Cs5  1  0.68936700  0.60158000  0.40994600  1
  Mo  Mo0  1  0.81113600  0.48617900  0.81901700  1
  Mo  Mo1  1  0.00000000  0.00000000  0.45793300  1
  Mo  Mo2  1  0.66666700  0.33333300  0.07807000  1
  Mo  Mo3  1  0.33333300  0.66666700  0.57807000  1
  Mo  Mo4  1  0.67504300  0.18886400  0.81901700  1
  Mo  Mo5  1  0.18886400  0.67504300  0.31901700  1
  Mo  Mo6  1  0.51382100  0.32495700  0.81901700  1
  Mo  Mo7  1  0.32495700  0.51382100  0.31901700  1
  Mo  Mo8  1  0.48617900  0.81113600  0.31901700  1
  Mo  Mo9  1  0.00000000  0.00000000  0.95793300  1
  P  P0  1  0.08492500  0.85291400  0.20546600  1
  P  P1  1  0.76798900  0.91507500  0.20546600  1
  P  P2  1  0.65050000  0.06444800  0.13374000  1
  P  P3  1  0.93555200  0.58605200  0.13374000  1
  P  P4  1  0.85291400  0.08492500  0.70546600  1
  P  P5  1  0.34950000  0.41394800  0.63374000  1
  P  P6  1  0.58605200  0.93555200  0.63374000  1
  P  P7  1  0.91507500  0.76798900  0.70546600  1
  P  P8  1  0.23201100  0.14708600  0.70546600  1
  P  P9  1  0.14708600  0.23201100  0.20546600  1
  P  P10  1  0.06444800  0.65050000  0.63374000  1
  P  P11  1  0.41394800  0.34950000  0.13374000  1
  O  O0  1  0.80174200  0.34056400  0.93042900  1
  O  O1  1  0.19052400  0.67783400  0.69406200  1
  O  O2  1  0.36840400  0.17382700  0.70819600  1
  O  O3  1  0.92011400  0.83493000  0.83651300  1
  O  O4  1  0.06152500  0.66225300  0.47840200  1
  O  O5  1  0.17382700  0.36840400  0.20819600  1
  O  O6  1  0.82617300  0.19457700  0.70819600  1
  O  O7  1  0.19457700  0.82617300  0.20819600  1
  O  O8  1  0.39927300  0.33774700  0.97840200  1
  O  O9  1  0.52187600  0.95851000  0.18321300  1
  O  O10  1  0.93847500  0.60072700  0.97840200  1
  O  O11  1  0.24220400  0.28474500  0.70194600  1
  O  O12  1  0.04254100  0.75779600  0.70194600  1
  O  O13  1  0.07731400  0.16986900  0.07473100  1
  O  O14  1  0.47812400  0.43663400  0.68321300  1
  O  O15  1  0.90744500  0.83013100  0.57473100  1
  O  O16  1  0.33774700  0.39927300  0.47840200  1
  O  O17  1  0.66666700  0.33333300  0.70611700  1
  O  O18  1  0.33333300  0.66666700  0.20611700  1
  O  O19  1  0.53882200  0.19825800  0.93042900  1
  O  O20  1  0.16507000  0.08518400  0.83651300  1
  O  O21  1  0.92268600  0.09255500  0.57473100  1
  O  O22  1  0.43663400  0.47812400  0.18321300  1
  O  O23  1  0.46117800  0.65943600  0.43042900  1
  O  O24  1  0.80947600  0.48731000  0.19406200  1
  O  O25  1  0.51269000  0.32216600  0.19406200  1
  O  O26  1  0.95851000  0.52187600  0.68321300  1
  O  O27  1  0.07988600  0.91481600  0.33651300  1
  O  O28  1  0.28474500  0.24220400  0.20194600  1
  O  O29  1  0.75779600  0.04254100  0.20194600  1
  O  O30  1  0.67783400  0.19052400  0.19406200  1
  O  O31  1  0.83493000  0.92011400  0.33651300  1
  O  O32  1  0.60072700  0.93847500  0.47840200  1
  O  O33  1  0.09255500  0.92268600  0.07473100  1
  O  O34  1  0.71525500  0.95745900  0.70194600  1
  O  O35  1  0.95745900  0.71525500  0.20194600  1
  O  O36  1  0.08518400  0.16507000  0.33651300  1
  O  O37  1  0.80542300  0.63159600  0.70819600  1
  O  O38  1  0.56336600  0.04149000  0.68321300  1
  O  O39  1  0.16986900  0.07731400  0.57473100  1
  O  O40  1  0.65943600  0.46117800  0.93042900  1
  O  O41  1  0.48731000  0.80947600  0.69406200  1
  O  O42  1  0.34056400  0.80174200  0.43042900  1
  O  O43  1  0.19825800  0.53882200  0.43042900  1
  O  O44  1  0.83013100  0.90744500  0.07473100  1
  O  O45  1  0.91481600  0.07988600  0.83651300  1
  O  O46  1  0.32216600  0.51269000  0.69406200  1
  O  O47  1  0.63159600  0.80542300  0.20819600  1
  O  O48  1  0.04149000  0.56336600  0.18321300  1
  O  O49  1  0.66225300  0.06152500  0.97840200  1
loop_
_geom_bond_atom_site_label_1
_geom_bond_atom_site_label_2
_geom_bond_distance
_geom_bond_site_symmetry_2
Cs0 O2 3.188354 1_555
Cs0 O39 3.200919 1_555
Cs0 O42 3.248302 1_545
Cs0 O25 3.280990 1_555
Cs0 O27 3.492973 1_545
Cs0 O9 3.500112 1_545
Cs0 O28 3.529033 1_555
Cs0 O7 3.545241 1_545
Cs0 O38 3.577673 1_555
Cs0 O30 3.692060 1_555
Cs1 O5 3.188354 1_556
Cs1 O13 3.200919 1_556
Cs1 O0 3.248302 1_455
Cs1 O46 3.280990 1_555
Cs1 O45 3.492973 1_455
Cs1 O26 3.500112 1_455
Cs1 O11 3.529033 1_555
Cs1 O6 3.545241 1_455
Cs1 O48 3.577673 1_556
Cs1 O1 3.692060 1_555
Cs2 O7 3.188354 1_556
Cs2 O33 3.200919 1_556
Cs2 O19 3.248302 1_565
Cs2 O1 3.280990 1_555
Cs2 O20 3.492973 1_565
Cs2 O38 3.500112 1_565
Cs2 O12 3.529032 1_555
Cs2 O2 3.545242 1_565
Cs2 O9 3.577673 1_556
Cs2 O41 3.692060 1_555
Cs3 O6 3.188354 1_555
Cs3 O21 3.200919 1_555
Cs3 O43 3.248302 1_655
Cs3 O30 3.280990 1_555
Cs3 O36 3.492973 1_655
Cs3 O48 3.500112 1_655
Cs3 O29 3.529032 1_555
Cs3 O5 3.545242 1_655
Cs3 O26 3.577673 1_555
Cs3 O24 3.692060 1_555
Cs4 O47 3.188354 1_556
Cs4 O44 3.200919 1_556
Cs4 O40 3.248302 1_555
Cs4 O41 3.280991 1_555
Cs4 O3 3.492973 1_555
Cs4 O14 3.500112 1_555
Cs4 O34 3.529032 1_555
Cs4 O37 3.545242 1_555
Cs4 O22 3.577673 1_556
Cs4 O46 3.692060 1_555
Cs5 O37 3.188354 1_555
Cs5 O15 3.200919 1_555
Cs5 O23 3.248302 1_555
Cs5 O24 3.280991 1_555
Cs5 O31 3.492973 1_555
Cs5 O22 3.500112 1_555
Cs5 O35 3.529032 1_555
Cs5 O47 3.545242 1_555
Cs5 O14 3.577673 1_555
Cs5 O25 3.692060 1_555
Mo0 O40 2.055672 1_555
Mo0 O0 2.058605 1_555
Mo0 O26 2.116183 1_555
Mo0 O37 2.131845 1_555
Mo0 O17 2.147318 1_555
Mo0 O10 2.164798 1_555
Mo1 O36 2.130721 1_555
Mo1 O31 2.130721 1_445
Mo1 O27 2.130721 1_545
Mo1 O15 2.151110 1_445
Mo1 O39 2.151110 1_555
Mo1 O21 2.151110 1_455
Mo2 O30 2.161665 1_555
Mo2 O24 2.161671 1_555
Mo2 O25 2.161675 1_555
Mo2 O0 2.176163 1_554
Mo2 O19 2.176167 1_554
Mo2 O40 2.176172 1_554
Mo3 O1 2.161665 1_555
Mo3 O41 2.161671 1_555
Mo3 O46 2.161675 1_555
Mo3 O42 2.176163 1_555
Mo3 O43 2.176167 1_555
Mo3 O23 2.176172 1_555
Mo4 O0 2.055672 1_555
Mo4 O19 2.058605 1_555
Mo4 O38 2.116183 1_555
Mo4 O6 2.131845 1_555
Mo4 O17 2.147313 1_555
Mo4 O49 2.164801 1_555
Mo5 O42 2.055672 1_555
Mo5 O43 2.058605 1_555
Mo5 O48 2.116183 1_555
Mo5 O7 2.131845 1_555
Mo5 O18 2.147313 1_555
Mo5 O4 2.164801 1_555
Mo6 O19 2.055672 1_555
Mo6 O40 2.058605 1_555
Mo6 O14 2.116183 1_555
Mo6 O2 2.131845 1_555
Mo6 O17 2.147323 1_555
Mo6 O8 2.164793 1_555
Mo7 O43 2.055672 1_555
Mo7 O23 2.058605 1_555
Mo7 O22 2.116183 1_555
Mo7 O5 2.131845 1_555
Mo7 O18 2.147323 1_555
Mo7 O16 2.164793 1_555
Mo8 O23 2.055672 1_555
Mo8 O42 2.058605 1_555
Mo8 O9 2.116183 1_555
Mo8 O47 2.131845 1_555
Mo8 O18 2.147318 1_555
Mo8 O32 2.164798 1_555
Mo9 O20 2.130721 1_555
Mo9 O3 2.130721 1_445
Mo9 O45 2.130721 1_455
Mo9 O44 2.151110 1_446
Mo9 O13 2.151110 1_556
Mo9 O33 2.151110 1_546
O1 P10 1.539172 1_555
O2 P8 1.549589 1_555
O3 P7 1.509726 1_555
O4 P10 1.527397 1_555
O5 P9 1.549589 1_555
O6 P4 1.549589 1_555
O7 P0 1.549589 1_555
O8 P11 1.527396 1_556
O9 P2 1.549182 1_565
O10 P3 1.527395 1_556
O11 P5 1.625275 1_555
O11 P8 1.644683 1_555
O12 P10 1.625275 1_555
O12 P7 1.644683 1_455
O13 P9 1.518521 1_555
O14 P5 1.549182 1_555
O15 P7 1.518521 1_555
O16 P5 1.527396 1_555
O20 P8 1.509726 1_555
O21 P4 1.518521 1_555
O22 P11 1.549182 1_555
O24 P3 1.539172 1_555
O25 P11 1.539172 1_555
O26 P10 1.549182 1_655
O27 P0 1.509726 1_555
O28 P11 1.625275 1_555
O28 P9 1.644683 1_555
O29 P2 1.625275 1_555
O29 P1 1.644683 1_545
O30 P2 1.539172 1_555
O31 P1 1.509726 1_555
O32 P6 1.527395 1_555
O33 P0 1.518521 1_555
O34 P6 1.625275 1_555
O34 P4 1.644683 1_565
O35 P3 1.625275 1_555
O35 P0 1.644683 1_655
O36 P9 1.509726 1_555
O37 P7 1.549589 1_555
O38 P6 1.549182 1_545
O39 P8 1.518521 1_555
O41 P6 1.539172 1_555
O44 P1 1.518521 1_555
O45 P4 1.509726 1_555
O46 P5 1.539172 1_555
O47 P1 1.549589 1_555
O48 P3 1.549182 1_455
O49 P2 1.527397 1_556
