# generated using pymatgen
data_ZnS
_symmetry_space_group_name_H-M   'P 1'
_cell_length_a   3.80988278
_cell_length_b   3.80988276
_cell_length_c   80.94247532
_cell_angle_alpha   90.00000000
_cell_angle_beta   90.00000000
_cell_angle_gamma   119.99999135
_symmetry_Int_Tables_number   1
_chemical_formula_structural   ZnS
_chemical_formula_sum   'Zn26 S26'
_cell_volume   1017.49053024
_cell_formula_units_Z   26
loop_
 _symmetry_equiv_pos_site_id
 _symmetry_equiv_pos_as_xyz
  1  'x, y, z'
loop_
 _atom_site_type_symbol
 _atom_site_label
 _atom_site_symmetry_multiplicity
 _atom_site_fract_x
 _atom_site_fract_y
 _atom_site_fract_z
 _atom_site_occupancy
  Zn  Zn0  1  0.33333300  0.66666700  0.80769816  1
  Zn  Zn1  1  0.00000000  0.00000000  0.57690427  1
  Zn  Zn2  1  0.66666700  0.33333300  0.92306965  1
  Zn  Zn3  1  -0.00000000  0.00000000  0.23074118  1
  Zn  Zn4  1  0.33333300  0.66666700  0.38460505  1
  Zn  Zn5  1  0.33333300  0.66666700  0.96153366  1
  Zn  Zn6  1  0.66666700  0.33333300  0.65388106  1
  Zn  Zn7  1  0.66666700  0.33333300  0.42307394  1
  Zn  Zn8  1  -0.00000000  -0.00000000  0.73074084  1
  Zn  Zn9  1  0.66666700  0.33333300  0.07691878  1
  Zn  Zn10  1  0.66666700  0.33333300  0.84617454  1
  Zn  Zn11  1  0.00000000  0.00000000  0.11536853  1
  Zn  Zn12  1  0.33333300  0.66666700  0.26920376  1
  Zn  Zn13  1  0.00000000  -0.00000000  0.00005861  1
  Zn  Zn14  1  0.33333300  0.66666700  0.61536236  1
  Zn  Zn15  1  0.33333300  0.66666700  0.15388496  1
  Zn  Zn16  1  0.66666700  0.33333300  0.53845519  1
  Zn  Zn17  1  -0.00000000  0.00000000  0.46154155  1
  Zn  Zn18  1  0.33333300  0.66666700  0.03851635  1
  Zn  Zn19  1  -0.00000000  0.00000000  0.88460282  1
  Zn  Zn20  1  0.66666700  0.33333300  0.30771183  1
  Zn  Zn21  1  0.33333300  0.66666700  0.69236285  1
  Zn  Zn22  1  0.66666700  0.33333300  0.19232869  1
  Zn  Zn23  1  -0.00000000  0.00000000  0.34619458  1
  Zn  Zn24  1  0.33333300  0.66666700  0.50003807  1
  Zn  Zn25  1  0.66666700  0.33333300  0.76917550  1
  S  S0  1  0.00000000  0.00000000  0.49039113  1
  S  S1  1  0.00000000  -0.00000000  0.02890543  1
  S  S2  1  0.33333300  0.66666700  0.06732208  1
  S  S3  1  0.66666700  0.33333300  0.56728374  1
  S  S4  1  0.00000000  0.00000000  0.91347061  1
  S  S5  1  0.33333300  0.66666700  0.64419277  1
  S  S6  1  0.33333300  0.66666700  0.52885267  1
  S  S7  1  0.66666700  0.33333300  0.22114334  1
  S  S8  1  0.33333300  0.66666700  0.83656616  1
  S  S9  1  -0.00000000  0.00000000  0.60575140  1
  S  S10  1  0.66666700  0.33333300  0.95191131  1
  S  S11  1  0.66666700  0.33333300  0.79801025  1
  S  S12  1  0.66666700  0.33333300  0.10576014  1
  S  S13  1  0.66666700  0.33333300  0.87495747  1
  S  S14  1  0.66666700  0.33333300  0.45192779  1
  S  S15  1  0.33333300  0.66666700  0.29805520  1
  S  S16  1  0.33333300  0.66666700  0.99036095  1
  S  S17  1  0.33333300  0.66666700  0.18270730  1
  S  S18  1  -0.00000000  0.00000000  0.75957073  1
  S  S19  1  0.33333300  0.66666700  0.72115521  1
  S  S20  1  0.33333300  0.66666700  0.41346047  1
  S  S21  1  0.00000000  -0.00000000  0.25958093  1
  S  S22  1  0.00000000  0.00000000  0.14423255  1
  S  S23  1  0.66666700  0.33333300  0.33655341  1
  S  S24  1  0.00000000  -0.00000000  0.37499168  1
  S  S25  1  0.66666700  0.33333300  0.68274248  1
loop_
_geom_bond_atom_site_label_1
_geom_bond_atom_site_label_2
_geom_bond_distance
_geom_bond_site_symmetry_2
S0 Zn24 2.334120 1_545
S0 Zn24 2.334123 1_555
S0 Zn24 2.334123 1_445
S0 Zn17 2.335156 1_555
S1 Zn18 2.333146 1_545
S1 Zn18 2.333149 1_555
S1 Zn18 2.333149 1_445
S1 Zn13 2.334933 1_555
S2 Zn18 2.331607 1_555
S2 Zn9 2.332763 1_565
S2 Zn9 2.332763 1_455
S2 Zn9 2.332769 1_555
S3 Zn1 2.333405 1_655
S3 Zn1 2.333409 1_665
S3 Zn1 2.333409 1_555
S3 Zn16 2.333454 1_555
S4 Zn2 2.332825 1_455
S4 Zn2 2.332829 1_445
S4 Zn2 2.332829 1_555
S4 Zn19 2.336630 1_555
S5 Zn14 2.333605 1_555
S5 Zn6 2.335242 1_565
S5 Zn6 2.335242 1_455
S5 Zn6 2.335248 1_555
S6 Zn24 2.332325 1_555
S6 Zn16 2.332920 1_565
S6 Zn16 2.332920 1_455
S6 Zn16 2.332926 1_555
S7 Zn22 2.332329 1_555
S7 Zn3 2.332793 1_655
S7 Zn3 2.332796 1_665
S7 Zn3 2.332796 1_555
S8 Zn10 2.333078 1_565
S8 Zn10 2.333078 1_455
S8 Zn10 2.333084 1_555
S8 Zn0 2.336647 1_555
S9 Zn14 2.333147 1_545
S9 Zn14 2.333150 1_555
S9 Zn14 2.333150 1_445
S9 Zn1 2.334958 1_555
S10 Zn5 2.333455 1_545
S10 Zn5 2.333455 1_655
S10 Zn5 2.333461 1_555
S10 Zn2 2.334515 1_555
S11 Zn25 2.333956 1_555
S11 Zn0 2.335231 1_545
S11 Zn0 2.335231 1_655
S11 Zn0 2.335237 1_555
S12 Zn11 2.333078 1_655
S12 Zn11 2.333081 1_665
S12 Zn11 2.333081 1_555
S12 Zn9 2.334491 1_555
S13 Zn10 2.329762 1_555
S13 Zn19 2.334077 1_655
S13 Zn19 2.334080 1_665
S13 Zn19 2.334080 1_555
S14 Zn17 2.333223 1_655
S14 Zn17 2.333226 1_665
S14 Zn17 2.333226 1_555
S14 Zn7 2.335502 1_555
S15 Zn20 2.334382 1_565
S15 Zn20 2.334382 1_455
S15 Zn20 2.334388 1_555
S15 Zn12 2.335307 1_555
S16 Zn5 2.333352 1_555
S16 Zn13 2.335496 1_566
S16 Zn13 2.335500 1_556
S16 Zn13 2.335500 1_666
S17 Zn15 2.332952 1_555
S17 Zn22 2.333429 1_565
S17 Zn22 2.333429 1_455
S17 Zn22 2.333435 1_555
S18 Zn25 2.332980 1_455
S18 Zn25 2.332983 1_445
S18 Zn25 2.332983 1_555
S18 Zn8 2.333563 1_555
S19 Zn21 2.330525 1_555
S19 Zn8 2.332464 1_565
S19 Zn8 2.332468 1_555
S19 Zn8 2.332468 1_665
S20 Zn7 2.333215 1_565
S20 Zn7 2.333215 1_455
S20 Zn7 2.333221 1_555
S20 Zn4 2.335629 1_555
S21 Zn12 2.333468 1_545
S21 Zn12 2.333471 1_555
S21 Zn12 2.333471 1_445
S21 Zn3 2.334361 1_555
S22 Zn15 2.334268 1_545
S22 Zn15 2.334271 1_555
S22 Zn15 2.334271 1_445
S22 Zn11 2.336325 1_555
S23 Zn23 2.333963 1_655
S23 Zn23 2.333967 1_665
S23 Zn23 2.333967 1_555
S23 Zn20 2.334509 1_555
S24 Zn23 2.330909 1_555
S24 Zn4 2.333212 1_545
S24 Zn4 2.333215 1_555
S24 Zn4 2.333215 1_445
S25 Zn21 2.333401 1_545
S25 Zn21 2.333401 1_655
S25 Zn21 2.333407 1_555
S25 Zn6 2.336115 1_555
