# generated using pymatgen
data_CeF4
_symmetry_space_group_name_H-M   'P 1'
_cell_length_a   8.30766786
_cell_length_b   8.29916501
_cell_length_c   8.29916286
_cell_angle_alpha   80.29184119
_cell_angle_beta   63.08497868
_cell_angle_gamma   63.08497187
_symmetry_Int_Tables_number   1
_chemical_formula_structural   CeF4
_chemical_formula_sum   'Ce6 F24'
_cell_volume   454.47728325
_cell_formula_units_Z   6
loop_
 _symmetry_equiv_pos_site_id
 _symmetry_equiv_pos_as_xyz
  1  'x, y, z'
loop_
 _atom_site_type_symbol
 _atom_site_label
 _atom_site_symmetry_multiplicity
 _atom_site_fract_x
 _atom_site_fract_y
 _atom_site_fract_z
 _atom_site_occupancy
  Ce  Ce0  1  0.67028139  0.63184375  0.77593988  1
  Ce  Ce1  1  0.82971861  0.22406012  0.36815625  1
  Ce  Ce2  1  0.32971861  0.36815625  0.22406012  1
  Ce  Ce3  1  0.17028139  0.77593988  0.63184375  1
  Ce  Ce4  1  0.75000000  0.78772363  0.21227637  1
  Ce  Ce5  1  0.25000000  0.21227637  0.78772363  1
  F  F0  1  0.75000000  0.39640361  0.60359639  1
  F  F1  1  0.25000000  0.60359639  0.39640361  1
  F  F2  1  0.78245986  0.50297071  0.26112151  1
  F  F3  1  0.71754014  0.73887849  0.49702929  1
  F  F4  1  0.21754014  0.49702929  0.73887849  1
  F  F5  1  0.28245986  0.26112151  0.50297071  1
  F  F6  1  0.65171667  0.72412023  0.02882672  1
  F  F7  1  0.84828333  0.97117328  0.27587977  1
  F  F8  1  0.34828333  0.27587977  0.97117328  1
  F  F9  1  0.15171667  0.02882672  0.72412023  1
  F  F10  1  0.50000000  0.50000000  -0.00000000  1
  F  F11  1  -0.00000000  0.00000000  0.50000000  1
  F  F12  1  0.95644712  0.82588595  0.93422667  1
  F  F13  1  0.54355288  0.06577333  0.17411405  1
  F  F14  1  0.04355288  0.17411405  0.06577333  1
  F  F15  1  0.45644712  0.93422667  0.82588595  1
  F  F16  1  0.92797131  0.40306353  0.81483997  1
  F  F17  1  0.57202869  0.18516003  0.59693647  1
  F  F18  1  0.07202869  0.59693647  0.18516003  1
  F  F19  1  0.42797131  0.81483997  0.40306353  1
  F  F20  1  0.89561015  0.74040122  0.68207965  1
  F  F21  1  0.60438985  0.31792035  0.25959878  1
  F  F22  1  0.10438985  0.25959878  0.31792035  1
  F  F23  1  0.39561015  0.68207965  0.74040122  1
loop_
_geom_bond_atom_site_label_1
_geom_bond_atom_site_label_2
_geom_bond_distance
_geom_bond_site_symmetry_2
Ce0 F20 2.211949 1_555
Ce0 F10 2.233803 1_556
Ce0 F16 2.243058 1_555
Ce0 F3 2.258471 1_555
Ce0 F6 2.270924 1_556
Ce0 F23 2.274713 1_555
Ce0 F0 2.283801 1_555
Ce0 F15 2.296402 1_555
Ce1 F21 2.211949 1_555
Ce1 F11 2.233803 1_655
Ce1 F17 2.243058 1_555
Ce1 F2 2.258471 1_555
Ce1 F7 2.270924 1_545
Ce1 F22 2.274713 1_655
Ce1 F0 2.283800 1_555
Ce1 F14 2.296402 1_655
Ce2 F22 2.211949 1_555
Ce2 F10 2.233803 1_555
Ce2 F18 2.243058 1_555
Ce2 F5 2.258471 1_555
Ce2 F8 2.270924 1_554
Ce2 F21 2.274713 1_555
Ce2 F1 2.283801 1_555
Ce2 F13 2.296402 1_555
Ce3 F23 2.211949 1_555
Ce3 F11 2.233803 1_565
Ce3 F19 2.243058 1_555
Ce3 F4 2.258471 1_555
Ce3 F9 2.270924 1_565
Ce3 F20 2.274713 1_455
Ce3 F1 2.283800 1_555
Ce3 F12 2.296402 1_455
Ce4 F3 2.240701 1_555
Ce4 F2 2.240702 1_555
Ce4 F12 2.242544 1_554
Ce4 F13 2.242544 1_565
Ce4 F6 2.247203 1_555
Ce4 F7 2.247204 1_555
Ce4 F18 2.335610 1_655
Ce4 F19 2.335611 1_555
Ce5 F5 2.240701 1_555
Ce5 F4 2.240702 1_555
Ce5 F14 2.242544 1_556
Ce5 F15 2.242544 1_545
Ce5 F8 2.247203 1_555
Ce5 F9 2.247204 1_555
Ce5 F16 2.335610 1_455
Ce5 F17 2.335611 1_555
