# generated using pymatgen
data_YbMgGe
_symmetry_space_group_name_H-M   'P 1'
_cell_length_a   4.17155643
_cell_length_b   7.02162081
_cell_length_c   8.58397433
_cell_angle_alpha   90.00000000
_cell_angle_beta   90.00000000
_cell_angle_gamma   90.00000000
_symmetry_Int_Tables_number   1
_chemical_formula_structural   YbMgGe
_chemical_formula_sum   'Yb4 Mg4 Ge4'
_cell_volume   251.43394236
_cell_formula_units_Z   4
loop_
 _symmetry_equiv_pos_site_id
 _symmetry_equiv_pos_as_xyz
  1  'x, y, z'
loop_
 _atom_site_type_symbol
 _atom_site_label
 _atom_site_symmetry_multiplicity
 _atom_site_fract_x
 _atom_site_fract_y
 _atom_site_fract_z
 _atom_site_occupancy
  Yb  Yb0  1  0.75000000  0.96373548  0.67112204  1
  Yb  Yb1  1  0.25000000  0.03626452  0.32887796  1
  Yb  Yb2  1  0.75000000  0.46373548  0.82887796  1
  Yb  Yb3  1  0.25000000  0.53626452  0.17112204  1
  Mg  Mg0  1  0.75000000  0.86015688  0.05752107  1
  Mg  Mg1  1  0.25000000  0.13984312  0.94247893  1
  Mg  Mg2  1  0.75000000  0.36015688  0.44247893  1
  Mg  Mg3  1  0.25000000  0.63984312  0.55752107  1
  Ge  Ge0  1  0.75000000  0.74526105  0.37063946  1
  Ge  Ge1  1  0.25000000  0.25473895  0.62936054  1
  Ge  Ge2  1  0.75000000  0.24526105  0.12936054  1
  Ge  Ge3  1  0.25000000  0.75473895  0.87063946  1
loop_
_geom_bond_atom_site_label_1
_geom_bond_atom_site_label_2
_geom_bond_distance
_geom_bond_site_symmetry_2
Ge0 Mg3 2.733457 1_555
Ge0 Mg3 2.733457 1_655
Ge0 Mg2 2.773481 1_555
Ge0 Mg0 2.806265 1_555
Ge0 Yb1 2.941788 1_565
Ge0 Yb1 2.941788 1_665
Ge0 Yb0 3.001043 1_555
Ge0 Yb3 3.072001 1_555
Ge0 Yb3 3.072001 1_655
Ge1 Mg2 2.733457 1_455
Ge1 Mg2 2.733457 1_555
Ge1 Mg3 2.773481 1_555
Ge1 Mg1 2.806265 1_555
Ge1 Yb0 2.941788 1_545
Ge1 Yb0 2.941788 1_445
Ge1 Yb1 3.001043 1_555
Ge1 Yb2 3.072001 1_455
Ge1 Yb2 3.072001 1_555
Ge2 Mg1 2.733457 1_554
Ge2 Mg1 2.733457 1_654
Ge2 Mg0 2.773481 1_545
Ge2 Mg2 2.806265 1_555
Ge2 Yb3 2.941788 1_555
Ge2 Yb3 2.941788 1_655
Ge2 Yb2 3.001043 1_554
Ge2 Yb1 3.072001 1_555
Ge2 Yb1 3.072001 1_655
Ge3 Mg0 2.733457 1_556
Ge3 Mg0 2.733457 1_456
Ge3 Mg1 2.773481 1_565
Ge3 Mg3 2.806265 1_555
Ge3 Yb2 2.941788 1_455
Ge3 Yb2 2.941788 1_555
Ge3 Yb3 3.001043 1_556
Ge3 Yb0 3.072001 1_455
Ge3 Yb0 3.072001 1_555
