# generated using pymatgen
data_Ho2CdSe4
_symmetry_space_group_name_H-M   'P 1'
_cell_length_a   34.26609100
_cell_length_b   34.26609100
_cell_length_c   34.26609136
_cell_angle_alpha   14.00929337
_cell_angle_beta   14.00929337
_cell_angle_gamma   14.00929249
_symmetry_Int_Tables_number   1
_chemical_formula_structural   Ho2CdSe4
_chemical_formula_sum   'Ho20 Cd10 Se40'
_cell_volume   2052.09603108
_cell_formula_units_Z   10
loop_
 _symmetry_equiv_pos_site_id
 _symmetry_equiv_pos_as_xyz
  1  'x, y, z'
loop_
 _atom_site_type_symbol
 _atom_site_label
 _atom_site_symmetry_multiplicity
 _atom_site_fract_x
 _atom_site_fract_y
 _atom_site_fract_z
 _atom_site_occupancy
  Ho  Ho0  1  0.00036300  0.00036300  0.00036300  1
  Ho  Ho1  1  0.12796900  0.12796900  0.61950100  1
  Ho  Ho2  1  0.60054600  0.60054600  0.60054600  1
  Ho  Ho3  1  0.12796900  0.61950100  0.12796900  1
  Ho  Ho4  1  0.61950100  0.12796900  0.12796900  1
  Ho  Ho5  1  0.72788600  0.72788600  0.21969500  1
  Ho  Ho6  1  0.20055600  0.20055600  0.20055600  1
  Ho  Ho7  1  0.72788600  0.21969500  0.72788600  1
  Ho  Ho8  1  0.21969500  0.72788600  0.72788600  1
  Ho  Ho9  1  0.32706000  0.32706000  0.82095600  1
  Ho  Ho10  1  0.32706000  0.82095600  0.32706000  1
  Ho  Ho11  1  0.82095600  0.32706000  0.32706000  1
  Ho  Ho12  1  0.92497500  0.92497500  0.42517300  1
  Ho  Ho13  1  0.92497500  0.42517300  0.92497500  1
  Ho  Ho14  1  0.12512200  0.12512200  0.12512200  1
  Ho  Ho15  1  0.52579100  0.52579100  0.02377700  1
  Ho  Ho16  1  0.42517300  0.92497500  0.92497500  1
  Ho  Ho17  1  0.52579100  0.02377700  0.52579100  1
  Ho  Ho18  1  0.72512800  0.72512800  0.72512800  1
  Ho  Ho19  1  0.02377700  0.52579100  0.52579100  1
  Cd  Cd0  1  0.64954400  0.64954400  0.64954400  1
  Cd  Cd1  1  0.24944800  0.24944800  0.24944800  1
  Cd  Cd2  1  0.32419600  0.32419600  0.32419600  1
  Cd  Cd3  1  0.84934300  0.84934300  0.84934300  1
  Cd  Cd4  1  0.92437000  0.92437000  0.92437000  1
  Cd  Cd5  1  0.44981600  0.44981600  0.44981600  1
  Cd  Cd6  1  0.52431400  0.52431400  0.52431400  1
  Cd  Cd7  1  0.80015900  0.80015900  0.80015900  1
  Cd  Cd8  1  0.40006000  0.40006000  0.40006000  1
  Cd  Cd9  1  0.05012500  0.05012500  0.05012500  1
  Se  Se0  1  0.99268500  0.46534700  0.46534700  1
  Se  Se1  1  0.46534700  0.99268500  0.46534700  1
  Se  Se2  1  0.27629700  0.27629700  0.27629700  1
  Se  Se3  1  0.46534700  0.46534700  0.99268500  1
  Se  Se4  1  0.78699200  0.78699200  0.25299100  1
  Se  Se5  1  0.59293500  0.06520300  0.06520300  1
  Se  Se6  1  0.97355400  0.97355400  0.97355400  1
  Se  Se7  1  0.06520300  0.59293500  0.06520300  1
  Se  Se8  1  0.78699200  0.25299100  0.78699200  1
  Se  Se9  1  0.87626100  0.87626100  0.87626100  1
  Se  Se10  1  0.25299100  0.78699200  0.78699200  1
  Se  Se11  1  0.06520300  0.06520300  0.59293500  1
  Se  Se12  1  0.19335800  0.66486700  0.66486700  1
  Se  Se13  1  0.38700300  0.38700300  0.85293600  1
  Se  Se14  1  0.57361800  0.57361800  0.57361800  1
  Se  Se15  1  0.38700300  0.85293600  0.38700300  1
  Se  Se16  1  0.47628600  0.47628600  0.47628600  1
  Se  Se17  1  0.66486700  0.19335800  0.66486700  1
  Se  Se18  1  0.66486700  0.66486700  0.19335800  1
  Se  Se19  1  0.85293600  0.38700300  0.38700300  1
  Se  Se20  1  0.98565500  0.98565500  0.45525500  1
  Se  Se21  1  0.79451200  0.26444700  0.26444700  1
  Se  Se22  1  0.17358900  0.17358900  0.17358900  1
  Se  Se23  1  0.26444700  0.79451200  0.26444700  1
  Se  Se24  1  0.98565500  0.45525500  0.98565500  1
  Se  Se25  1  0.07650100  0.07650100  0.07650100  1
  Se  Se26  1  0.26444700  0.26444700  0.79451200  1
  Se  Se27  1  0.45525500  0.98565500  0.98565500  1
  Se  Se28  1  0.58531600  0.58531600  0.05578700  1
  Se  Se29  1  0.39399000  0.86487600  0.86487600  1
  Se  Se30  1  0.77355600  0.77355600  0.77355600  1
  Se  Se31  1  0.86487600  0.39399000  0.86487600  1
  Se  Se32  1  0.58531600  0.05578700  0.58531600  1
  Se  Se33  1  0.67644500  0.67644500  0.67644500  1
  Se  Se34  1  0.86487600  0.86487600  0.39399000  1
  Se  Se35  1  0.05578700  0.58531600  0.58531600  1
  Se  Se36  1  0.18641200  0.18641200  0.65410900  1
  Se  Se37  1  0.37354300  0.37354300  0.37354300  1
  Se  Se38  1  0.18641200  0.65410900  0.18641200  1
  Se  Se39  1  0.65410900  0.18641200  0.18641200  1
loop_
_geom_bond_atom_site_label_1
_geom_bond_atom_site_label_2
_geom_bond_distance
_geom_bond_site_symmetry_2
Ho0 Se39 2.713985 1_455
Ho0 Se38 2.713985 1_545
Ho0 Se36 2.713985 1_554
Ho0 Se6 2.728459 1_444
Ho1 Se1 2.839453 1_545
Ho1 Se0 2.839453 1_455
Ho1 Se2 2.849348 1_555
Ho1 Se10 2.874340 1_545
Ho1 Se8 2.874340 1_455
Ho1 Se6 2.893640 1_445
Ho2 Se8 2.716248 1_555
Ho2 Se10 2.716248 1_555
Ho2 Se4 2.716248 1_555
Ho2 Se14 2.740570 1_555
Ho3 Se3 2.839453 1_554
Ho3 Se0 2.839454 1_455
Ho3 Se2 2.849348 1_555
Ho3 Se4 2.874340 1_455
Ho3 Se10 2.874341 1_554
Ho3 Se6 2.893640 1_454
Ho4 Se3 2.839453 1_554
Ho4 Se1 2.839454 1_545
Ho4 Se2 2.849348 1_555
Ho4 Se4 2.874340 1_545
Ho4 Se8 2.874341 1_554
Ho4 Se6 2.893640 1_544
Ho5 Se7 2.838019 1_655
Ho5 Se5 2.838019 1_565
Ho5 Se9 2.853019 1_554
Ho5 Se15 2.874794 1_555
Ho5 Se19 2.874794 1_555
Ho5 Se14 2.895462 1_555
Ho6 Se19 2.715875 1_455
Ho6 Se15 2.715875 1_545
Ho6 Se13 2.715875 1_554
Ho6 Se22 2.744539 1_555
Ho7 Se11 2.838019 1_655
Ho7 Se5 2.838020 1_556
Ho7 Se9 2.853019 1_545
Ho7 Se13 2.874794 1_555
Ho7 Se19 2.874794 1_555
Ho7 Se14 2.895462 1_555
Ho8 Se11 2.838019 1_565
Ho8 Se7 2.838020 1_556
Ho8 Se9 2.853019 1_455
Ho8 Se13 2.874794 1_555
Ho8 Se15 2.874794 1_555
Ho8 Se14 2.895462 1_555
Ho9 Se17 2.843769 1_555
Ho9 Se12 2.843769 1_555
Ho9 Se16 2.852681 1_555
Ho9 Se27 2.876264 1_545
Ho9 Se24 2.876264 1_455
Ho9 Se22 2.892452 1_556
Ho10 Se18 2.843769 1_555
Ho10 Se12 2.843769 1_555
Ho10 Se16 2.852681 1_555
Ho10 Se20 2.876264 1_455
Ho10 Se27 2.876264 1_554
Ho10 Se22 2.892452 1_565
Ho11 Se18 2.843769 1_555
Ho11 Se17 2.843769 1_555
Ho11 Se16 2.852681 1_555
Ho11 Se20 2.876264 1_545
Ho11 Se24 2.876264 1_554
Ho11 Se22 2.892452 1_655
Ho12 Se21 2.859567 1_565
Ho12 Se23 2.859567 1_655
Ho12 Se30 2.864150 1_555
Ho12 Se25 2.867132 1_665
Ho12 Se35 2.867878 1_655
Ho12 Se32 2.867878 1_565
Ho13 Se26 2.859567 1_655
Ho13 Se21 2.859567 1_556
Ho13 Se30 2.864150 1_555
Ho13 Se25 2.867132 1_656
Ho13 Se28 2.867878 1_556
Ho13 Se35 2.867878 1_655
Ho14 Se24 2.855033 1_454
Ho14 Se27 2.855033 1_544
Ho14 Se20 2.855033 1_445
Ho14 Se23 2.872088 1_545
Ho14 Se21 2.872088 1_455
Ho14 Se26 2.872088 1_554
Ho15 Se31 2.858469 1_554
Ho15 Se29 2.858469 1_554
Ho15 Se39 2.862314 1_555
Ho15 Se38 2.862314 1_555
Ho15 Se33 2.865597 1_554
Ho15 Se37 2.868137 1_555
Ho16 Se26 2.859567 1_565
Ho16 Se23 2.859567 1_556
Ho16 Se30 2.864150 1_555
Ho16 Se25 2.867132 1_566
Ho16 Se28 2.867878 1_556
Ho16 Se32 2.867878 1_565
Ho17 Se34 2.858469 1_545
Ho17 Se29 2.858469 1_545
Ho17 Se36 2.862314 1_555
Ho17 Se39 2.862315 1_555
Ho17 Se33 2.865597 1_545
Ho17 Se37 2.868136 1_555
Ho18 Se35 2.854992 1_655
Ho18 Se32 2.854992 1_565
Ho18 Se28 2.854992 1_556
Ho18 Se29 2.869112 1_555
Ho18 Se31 2.869112 1_555
Ho18 Se34 2.869112 1_555
Ho19 Se34 2.858469 1_455
Ho19 Se31 2.858469 1_455
Ho19 Se36 2.862314 1_555
Ho19 Se38 2.862315 1_555
Ho19 Se33 2.865597 1_455
Ho19 Se37 2.868136 1_555
Cd0 Se1 2.684859 1_555
Cd0 Se0 2.684859 1_555
Cd0 Se3 2.684859 1_555
Cd0 Se33 2.737822 1_555
Cd1 Se7 2.683968 1_555
Cd1 Se5 2.683968 1_555
Cd1 Se11 2.683968 1_555
Cd1 Se2 2.732529 1_555
Cd2 Se0 2.826381 1_455
Cd2 Se1 2.826381 1_545
Cd2 Se3 2.826381 1_554
Cd2 Se39 2.914074 1_555
Cd2 Se38 2.914074 1_555
Cd2 Se36 2.914074 1_555
Cd3 Se12 2.686737 1_655
Cd3 Se17 2.686737 1_565
Cd3 Se18 2.686737 1_556
Cd3 Se9 2.739552 1_555
Cd4 Se7 2.836115 1_656
Cd4 Se5 2.836115 1_566
Cd4 Se11 2.836116 1_665
Cd4 Se10 2.897436 1_655
Cd4 Se8 2.897436 1_565
Cd4 Se4 2.897436 1_556
Cd5 Se16 2.693957 1_555
Cd5 Se23 2.705953 1_555
Cd5 Se21 2.705953 1_555
Cd5 Se26 2.705953 1_555
Cd6 Se17 2.834812 1_555
Cd6 Se12 2.834812 1_555
Cd6 Se18 2.834812 1_555
Cd6 Se15 2.900080 1_555
Cd6 Se19 2.900080 1_555
Cd6 Se13 2.900080 1_555
Cd7 Se30 2.707493 1_555
Cd7 Se24 2.707990 1_555
Cd7 Se27 2.707990 1_555
Cd7 Se20 2.707990 1_555
Cd8 Se37 2.698741 1_555
Cd8 Se35 2.705700 1_555
Cd8 Se32 2.705700 1_555
Cd8 Se28 2.705700 1_555
Cd9 Se25 2.684390 1_555
Cd9 Se31 2.708239 1_454
Cd9 Se29 2.708239 1_544
Cd9 Se34 2.708239 1_445
