# generated using pymatgen
data_K2Ni(NO3)4
_symmetry_space_group_name_H-M   'P 1'
_cell_length_a   9.26549182
_cell_length_b   9.26549182
_cell_length_c   9.23762528
_cell_angle_alpha   82.58203626
_cell_angle_beta   82.58203626
_cell_angle_gamma   45.68457991
_symmetry_Int_Tables_number   1
_chemical_formula_structural   K2Ni(NO3)4
_chemical_formula_sum   'K4 Ni2 N8 O24'
_cell_volume   561.83099027
_cell_formula_units_Z   2
loop_
 _symmetry_equiv_pos_site_id
 _symmetry_equiv_pos_as_xyz
  1  'x, y, z'
loop_
 _atom_site_type_symbol
 _atom_site_label
 _atom_site_symmetry_multiplicity
 _atom_site_fract_x
 _atom_site_fract_y
 _atom_site_fract_z
 _atom_site_occupancy
  K  K0  1  0.89492900  0.58792000  0.28284500  1
  K  K1  1  0.58792000  0.89492900  0.78284500  1
  K  K2  1  0.57016700  0.31139100  0.35097500  1
  K  K3  1  0.31139100  0.57016700  0.85097500  1
  Ni  Ni0  1  0.96628000  0.27447200  0.67573900  1
  Ni  Ni1  1  0.27447200  0.96628000  0.17573900  1
  N  N0  1  0.99857200  0.33337300  0.97516300  1
  N  N1  1  0.45986800  0.13093800  0.09637800  1
  N  N2  1  0.01395100  0.86720200  0.21256400  1
  N  N3  1  0.33337300  0.99857200  0.47516300  1
  N  N4  1  0.61747900  0.50741400  0.58457300  1
  N  N5  1  0.50741400  0.61747900  0.08457300  1
  N  N6  1  0.13093800  0.45986800  0.59637800  1
  N  N7  1  0.86720200  0.01395100  0.71256400  1
  O  O0  1  0.37724400  0.23271400  0.20713800  1
  O  O1  1  0.49235300  0.96906500  0.09499500  1
  O  O2  1  0.96906500  0.49235300  0.59499500  1
  O  O3  1  0.60637000  0.44450400  0.04877800  1
  O  O4  1  0.20243200  0.07137000  0.38328200  1
  O  O5  1  0.15487300  0.70097500  0.15586900  1
  O  O6  1  0.03417900  0.98765300  0.23230700  1
  O  O7  1  0.70097500  0.15487300  0.65586900  1
  O  O8  1  0.05856900  0.26895500  0.10635900  1
  O  O9  1  0.50758800  0.65266700  0.21530600  1
  O  O10  1  0.17588700  0.51504300  0.48347600  1
  O  O11  1  0.92286500  0.84683900  0.75352700  1
  O  O12  1  0.07137000  0.20243200  0.88328200  1
  O  O13  1  0.39312800  0.77404500  0.99716100  1
  O  O14  1  0.51779500  0.87457000  0.44419400  1
  O  O15  1  0.84683900  0.92286500  0.25352700  1
  O  O16  1  0.51504300  0.17588700  0.98347600  1
  O  O17  1  0.98765300  0.03417900  0.73230700  1
  O  O18  1  0.77404500  0.39312800  0.49716100  1
  O  O19  1  0.65266700  0.50758800  0.71530600  1
  O  O20  1  0.87457000  0.51779500  0.94419400  1
  O  O21  1  0.26895500  0.05856900  0.60635900  1
  O  O22  1  0.23271400  0.37724400  0.70713800  1
  O  O23  1  0.44450400  0.60637000  0.54877800  1
loop_
_geom_bond_atom_site_label_1
_geom_bond_atom_site_label_2
_geom_bond_distance
_geom_bond_site_symmetry_2
K0 O15 2.790198 1_555
K0 O8 2.834782 1_655
K0 O14 2.862877 1_555
K0 O2 2.927957 1_555
K0 O10 3.022288 1_655
K0 O18 3.124219 1_555
K0 O0 3.244857 1_655
K0 O5 3.279081 1_655
K0 O1 3.328653 1_555
K0 O20 3.330567 1_554
K0 O9 3.332066 1_555
K1 O11 2.790198 1_555
K1 O21 2.834782 1_565
K1 O20 2.862877 1_555
K1 O1 2.927957 1_556
K1 O16 3.022288 1_565
K1 O13 3.124219 1_555
K1 O22 3.244857 1_565
K1 O7 3.279081 1_565
K1 O2 3.328653 1_555
K1 O14 3.330567 1_555
K1 O19 3.332066 1_555
K2 O15 2.772725 1_545
K2 O0 2.859406 1_555
K2 O10 2.866150 1_555
K2 O23 2.908313 1_555
K2 O9 2.916897 1_555
K2 O3 2.978901 1_555
K2 O7 2.979202 1_555
K2 O18 2.981151 1_555
K2 O6 3.208835 1_645
K3 O11 2.772725 1_455
K3 O22 2.859406 1_555
K3 O16 2.866150 1_555
K3 O3 2.908313 1_556
K3 O19 2.916897 1_555
K3 O23 2.978901 1_555
K3 O5 2.979202 1_556
K3 O13 2.981151 1_555
K3 O17 3.208835 1_465
Ni0 O21 2.075041 1_655
Ni0 O2 2.076407 1_555
Ni0 O12 2.076732 1_655
Ni0 O17 2.092738 1_555
Ni0 O19 2.098270 1_555
Ni0 O18 2.157974 1_555
Ni1 O8 2.075041 1_565
Ni1 O1 2.076407 1_555
Ni1 O4 2.076732 1_565
Ni1 O6 2.092738 1_555
Ni1 O9 2.098270 1_555
Ni1 O13 2.157974 1_554
N0 O20 1.239884 1_555
N0 O12 1.273565 1_655
N0 O8 1.287501 1_656
N1 O0 1.249155 1_555
N1 O16 1.253072 1_554
N1 O1 1.308992 1_545
N2 O5 1.254266 1_555
N2 O15 1.260944 1_455
N2 O6 1.291344 1_555
N3 O14 1.239884 1_555
N3 O4 1.273565 1_565
N3 O21 1.287501 1_565
N4 O23 1.234513 1_555
N4 O18 1.284430 1_555
N4 O19 1.291377 1_555
N5 O3 1.234513 1_555
N5 O13 1.284430 1_554
N5 O9 1.291377 1_555
N6 O22 1.249155 1_555
N6 O10 1.253072 1_555
N6 O2 1.308992 1_455
N7 O7 1.254266 1_555
N7 O11 1.260944 1_545
N7 O17 1.291344 1_555
