# generated using pymatgen
data_Ca21(Mn2Sb9)2
_symmetry_space_group_name_H-M   'P 1'
_cell_length_a   12.12829976
_cell_length_b   12.12829976
_cell_length_c   17.08249548
_cell_angle_alpha   88.53489630
_cell_angle_beta   88.53489630
_cell_angle_gamma   87.50880783
_symmetry_Int_Tables_number   1
_chemical_formula_structural   Ca21(Mn2Sb9)2
_chemical_formula_sum   'Ca42 Mn8 Sb36'
_cell_volume   2508.81284787
_cell_formula_units_Z   2
loop_
 _symmetry_equiv_pos_site_id
 _symmetry_equiv_pos_as_xyz
  1  'x, y, z'
loop_
 _atom_site_type_symbol
 _atom_site_label
 _atom_site_symmetry_multiplicity
 _atom_site_fract_x
 _atom_site_fract_y
 _atom_site_fract_z
 _atom_site_occupancy
  Ca  Ca0  1  0.67852800  0.00460200  0.93604800  1
  Ca  Ca1  1  0.50494500  0.77315600  0.55769300  1
  Ca  Ca2  1  0.32147200  0.99539800  0.06395200  1
  Ca  Ca3  1  0.77315600  0.50494500  0.55769300  1
  Ca  Ca4  1  0.07562100  0.43241900  0.25648400  1
  Ca  Ca5  1  0.57464700  0.25922500  0.85027800  1
  Ca  Ca6  1  0.42051200  0.75009700  0.35439300  1
  Ca  Ca7  1  0.09914300  0.75745900  0.34160900  1
  Ca  Ca8  1  0.26923900  0.50817800  0.07658600  1
  Ca  Ca9  1  0.43241900  0.07562100  0.25648400  1
  Ca  Ca10  1  0.75745900  0.09914300  0.34160900  1
  Ca  Ca11  1  0.24254100  0.90085700  0.65839100  1
  Ca  Ca12  1  0.22684400  0.49505500  0.44230700  1
  Ca  Ca13  1  0.82253800  0.07117400  0.11818800  1
  Ca  Ca14  1  0.90085700  0.24254100  0.65839100  1
  Ca  Ca15  1  0.74077500  0.42535300  0.14972200  1
  Ca  Ca16  1  0.99008100  0.24226900  0.44306800  1
  Ca  Ca17  1  0.07117400  0.82253800  0.11818800  1
  Ca  Ca18  1  0.75773100  0.00991900  0.55693200  1
  Ca  Ca19  1  0.56758100  0.92437900  0.74351600  1
  Ca  Ca20  1  0.90357200  0.90357200  0.75507400  1
  Ca  Ca21  1  0.49505500  0.22684400  0.44230700  1
  Ca  Ca22  1  0.25922500  0.57464700  0.85027800  1
  Ca  Ca23  1  0.24990300  0.57948800  0.64560700  1
  Ca  Ca24  1  0.75009700  0.42051200  0.35439300  1
  Ca  Ca25  1  0.99539800  0.32147200  0.06395200  1
  Ca  Ca26  1  0.00991900  0.75773100  0.55693200  1
  Ca  Ca27  1  0.42535300  0.74077500  0.14972200  1
  Ca  Ca28  1  0.17746200  0.92882600  0.88181200  1
  Ca  Ca29  1  0.50817800  0.26923900  0.07658600  1
  Ca  Ca30  1  0.76627600  0.76627600  0.41175800  1
  Ca  Ca31  1  0.00460200  0.67852800  0.93604800  1
  Ca  Ca32  1  0.73076100  0.49182200  0.92341400  1
  Ca  Ca33  1  0.75317700  0.75317700  0.07686200  1
  Ca  Ca34  1  0.24682300  0.24682300  0.92313800  1
  Ca  Ca35  1  0.92882600  0.17746200  0.88181200  1
  Ca  Ca36  1  0.24226900  0.99008100  0.44306800  1
  Ca  Ca37  1  0.92437900  0.56758100  0.74351600  1
  Ca  Ca38  1  0.09642800  0.09642800  0.24492600  1
  Ca  Ca39  1  0.23372400  0.23372400  0.58824200  1
  Ca  Ca40  1  0.49182200  0.73076100  0.92341400  1
  Ca  Ca41  1  0.57948800  0.24990300  0.64560700  1
  Mn  Mn0  1  0.12322000  0.34846100  0.74918200  1
  Mn  Mn1  1  0.50186200  0.50186200  0.70496600  1
  Mn  Mn2  1  0.87678000  0.65153900  0.25081800  1
  Mn  Mn3  1  0.65772500  0.65772500  0.74190300  1
  Mn  Mn4  1  0.34846100  0.12322000  0.74918200  1
  Mn  Mn5  1  0.49813800  0.49813800  0.29503400  1
  Mn  Mn6  1  0.34227500  0.34227500  0.25809700  1
  Mn  Mn7  1  0.65153900  0.87678000  0.25081800  1
  Sb  Sb0  1  0.07547900  0.07547900  0.03523200  1
  Sb  Sb1  1  0.92452100  0.92452100  0.96476800  1
  Sb  Sb2  1  0.74636700  0.74636700  0.87399300  1
  Sb  Sb3  1  0.43093700  0.71276300  0.73907800  1
  Sb  Sb4  1  0.76138600  0.76138600  0.61642100  1
  Sb  Sb5  1  0.28723700  0.56906300  0.26092200  1
  Sb  Sb6  1  0.11960800  0.11960800  0.75720600  1
  Sb  Sb7  1  0.03957000  0.42491500  0.88962600  1
  Sb  Sb8  1  0.45029100  0.45029100  0.93347100  1
  Sb  Sb9  1  0.71276300  0.43093700  0.73907800  1
  Sb  Sb10  1  0.74442700  0.25557300  0.50000000  1
  Sb  Sb11  1  0.57508500  0.96043000  0.11037400  1
  Sb  Sb12  1  0.23861400  0.23861400  0.38357900  1
  Sb  Sb13  1  0.10048400  0.73937800  0.75652100  1
  Sb  Sb14  1  0.03603500  0.03603500  0.57771800  1
  Sb  Sb15  1  0.25517600  0.74482400  0.00000000  1
  Sb  Sb16  1  0.43655400  0.04838500  0.60055800  1
  Sb  Sb17  1  0.88039200  0.88039200  0.24279400  1
  Sb  Sb18  1  0.89951600  0.26062200  0.24347900  1
  Sb  Sb19  1  0.73937800  0.10048400  0.75652100  1
  Sb  Sb20  1  0.56355400  0.56355400  0.44133400  1
  Sb  Sb21  1  0.35034300  0.35034300  0.74870700  1
  Sb  Sb22  1  0.43644600  0.43644600  0.55866600  1
  Sb  Sb23  1  0.54970900  0.54970900  0.06652900  1
  Sb  Sb24  1  0.25557300  0.74442700  0.50000000  1
  Sb  Sb25  1  0.74482400  0.25517600  0.00000000  1
  Sb  Sb26  1  0.25363300  0.25363300  0.12600700  1
  Sb  Sb27  1  0.64965700  0.64965700  0.25129300  1
  Sb  Sb28  1  0.56906300  0.28723700  0.26092200  1
  Sb  Sb29  1  0.26062200  0.89951600  0.24347900  1
  Sb  Sb30  1  0.96043000  0.57508500  0.11037400  1
  Sb  Sb31  1  0.56344600  0.95161500  0.39944200  1
  Sb  Sb32  1  0.96396500  0.96396500  0.42228200  1
  Sb  Sb33  1  0.04838500  0.43655400  0.60055800  1
  Sb  Sb34  1  0.42491500  0.03957000  0.88962600  1
  Sb  Sb35  1  0.95161500  0.56344600  0.39944200  1
loop_
_geom_bond_atom_site_label_1
_geom_bond_atom_site_label_2
_geom_bond_distance
_geom_bond_site_symmetry_2
Ca0 Sb1 3.143840 1_545
Ca0 Sb34 3.203744 1_555
Ca0 Sb11 3.242657 1_546
Ca0 Sb19 3.328443 1_555
Ca0 Sb25 3.391583 1_556
Ca0 Sb2 3.392779 1_545
Ca1 Sb24 3.240623 1_555
Ca1 Sb3 3.277470 1_555
Ca1 Sb4 3.288430 1_555
Ca1 Sb20 3.308722 1_555
Ca1 Sb16 3.495722 1_565
Ca1 Sb31 3.497460 1_555
Ca2 Sb0 3.143840 1_565
Ca2 Sb11 3.203744 1_555
Ca2 Sb34 3.242657 1_564
Ca2 Sb29 3.328443 1_555
Ca2 Sb15 3.391583 1_555
Ca2 Sb26 3.392779 1_565
Ca3 Sb10 3.240623 1_555
Ca3 Sb9 3.277470 1_555
Ca3 Sb4 3.288430 1_555
Ca3 Sb20 3.308722 1_555
Ca3 Sb33 3.495722 1_655
Ca3 Sb35 3.497460 1_555
Ca4 Sb18 3.063894 1_455
Ca4 Sb5 3.118578 1_555
Ca4 Sb35 3.248681 1_455
Ca4 Sb30 3.304950 1_455
Ca4 Sb12 3.701495 1_555
Ca4 Sb26 3.731623 1_555
Ca5 Sb8 3.069084 1_555
Ca5 Sb19 3.150088 1_555
Ca5 Sb9 3.269519 1_555
Ca5 Sb25 3.325430 1_556
Ca5 Sb34 3.333667 1_555
Ca5 Sb21 3.393299 1_555
Ca6 Sb24 3.153099 1_555
Ca6 Sb20 3.154814 1_555
Ca6 Sb31 3.178614 1_555
Ca6 Sb29 3.215772 1_555
Ca6 Sb5 3.256200 1_555
Ca6 Sb27 3.445940 1_555
Ca7 Sb29 3.097058 1_555
Ca7 Sb35 3.141822 1_455
Ca7 Sb32 3.250216 1_455
Ca7 Sb24 3.340646 1_555
Ca7 Sb17 3.444940 1_455
Ca7 Sb5 3.445571 1_555
Ca7 Mn2 3.456271 1_455
Ca8 Sb15 3.123313 1_555
Ca8 Sb26 3.191974 1_555
Ca8 Sb5 3.267520 1_555
Ca8 Sb8 3.312215 1_554
Ca8 Sb23 3.459612 1_555
Ca9 Sb29 3.063894 1_545
Ca9 Sb28 3.118578 1_555
Ca9 Sb31 3.248681 1_545
Ca9 Sb11 3.304950 1_545
Ca9 Sb12 3.701495 1_555
Ca9 Sb26 3.731623 1_555
Ca10 Sb18 3.097058 1_555
Ca10 Sb31 3.141822 1_545
Ca10 Sb32 3.250216 1_545
Ca10 Sb10 3.340646 1_555
Ca10 Sb17 3.444940 1_545
Ca10 Sb28 3.445571 1_555
Ca10 Mn7 3.456271 1_545
Ca11 Sb13 3.097058 1_555
Ca11 Sb16 3.141822 1_565
Ca11 Sb14 3.250216 1_565
Ca11 Sb24 3.340646 1_555
Ca11 Sb6 3.444940 1_565
Ca11 Sb3 3.445571 1_555
Ca11 Mn4 3.456271 1_565
Ca12 Sb24 3.240623 1_555
Ca12 Sb5 3.277470 1_555
Ca12 Sb12 3.288430 1_555
Ca12 Sb22 3.308722 1_555
Ca12 Sb35 3.495722 1_455
Ca12 Sb33 3.497460 1_555
Ca13 Sb25 3.103025 1_555
Ca13 Sb17 3.171834 1_545
Ca13 Sb11 3.347987 1_545
Ca13 Sb0 3.348101 1_655
Ca13 Sb18 3.357368 1_555
Ca13 Sb1 3.382811 1_544
Ca14 Sb19 3.097058 1_555
Ca14 Sb33 3.141822 1_655
Ca14 Sb14 3.250216 1_655
Ca14 Sb10 3.340646 1_555
Ca14 Sb6 3.444940 1_655
Ca14 Sb9 3.445571 1_555
Ca14 Mn0 3.456271 1_655
Ca15 Sb23 3.069084 1_555
Ca15 Sb18 3.150088 1_555
Ca15 Sb28 3.269519 1_555
Ca15 Sb25 3.325430 1_555
Ca15 Sb30 3.333667 1_555
Ca15 Sb27 3.393299 1_555
Ca16 Sb10 3.109108 1_555
Ca16 Sb12 3.155094 1_655
Ca16 Sb14 3.392324 1_655
Ca16 Sb32 3.432113 1_545
Ca16 Sb18 3.607216 1_555
Ca16 Sb33 3.722437 1_655
Ca17 Sb15 3.103025 1_555
Ca17 Sb17 3.171834 1_455
Ca17 Sb30 3.347987 1_455
Ca17 Sb0 3.348101 1_565
Ca17 Sb29 3.357368 1_555
Ca17 Sb1 3.382811 1_454
Ca18 Sb10 3.109108 1_555
Ca18 Sb4 3.155094 1_545
Ca18 Sb32 3.392324 1_545
Ca18 Sb14 3.432113 1_655
Ca18 Sb19 3.607216 1_555
Ca18 Sb31 3.722437 1_545
Ca19 Sb19 3.063894 1_565
Ca19 Sb3 3.118578 1_555
Ca19 Sb16 3.248681 1_565
Ca19 Sb34 3.304950 1_565
Ca19 Sb4 3.701495 1_555
Ca19 Sb2 3.731623 1_555
Ca20 Sb13 3.042510 1_655
Ca20 Sb19 3.042510 1_565
Ca20 Sb2 3.364088 1_555
Ca20 Sb4 3.497692 1_555
Ca20 Sb1 3.613754 1_555
Ca20 Sb14 3.750676 1_665
Ca20 Sb6 3.786589 1_665
Ca21 Sb10 3.240623 1_555
Ca21 Sb28 3.277470 1_555
Ca21 Sb12 3.288430 1_555
Ca21 Sb22 3.308722 1_555
Ca21 Sb31 3.495722 1_545
Ca21 Sb16 3.497460 1_555
Ca22 Sb8 3.069084 1_555
Ca22 Sb13 3.150088 1_555
Ca22 Sb3 3.269519 1_555
Ca22 Sb15 3.325430 1_556
Ca22 Sb7 3.333667 1_555
Ca22 Sb21 3.393299 1_555
Ca23 Sb24 3.153099 1_555
Ca23 Sb22 3.154814 1_555
Ca23 Sb33 3.178614 1_555
Ca23 Sb13 3.215772 1_555
Ca23 Sb3 3.256200 1_555
Ca23 Sb21 3.445940 1_555
Ca24 Sb10 3.153099 1_555
Ca24 Sb20 3.154814 1_555
Ca24 Sb35 3.178614 1_555
Ca24 Sb18 3.215772 1_555
Ca24 Sb28 3.256200 1_555
Ca24 Sb27 3.445940 1_555
Ca25 Sb0 3.143840 1_655
Ca25 Sb30 3.203744 1_555
Ca25 Sb7 3.242657 1_654
Ca25 Sb18 3.328443 1_555
Ca25 Sb25 3.391583 1_555
Ca25 Sb26 3.392779 1_655
Ca26 Sb24 3.109108 1_555
Ca26 Sb4 3.155094 1_455
Ca26 Sb32 3.392324 1_455
Ca26 Sb14 3.432113 1_565
Ca26 Sb13 3.607216 1_555
Ca26 Sb35 3.722437 1_455
Ca27 Sb23 3.069084 1_555
Ca27 Sb29 3.150088 1_555
Ca27 Sb5 3.269519 1_555
Ca27 Sb15 3.325430 1_555
Ca27 Sb11 3.333667 1_555
Ca27 Sb27 3.393299 1_555
Ca28 Sb15 3.103025 1_556
Ca28 Sb6 3.171834 1_565
Ca28 Sb34 3.347987 1_565
Ca28 Sb1 3.348101 1_455
Ca28 Sb13 3.357368 1_555
Ca28 Sb0 3.382811 1_566
Ca29 Sb25 3.123313 1_555
Ca29 Sb26 3.191974 1_555
Ca29 Sb28 3.267520 1_555
Ca29 Sb8 3.312215 1_554
Ca29 Sb23 3.459612 1_555
Ca30 Sb31 3.266523 1_555
Ca30 Sb35 3.266523 1_555
Ca30 Mn2 3.337088 1_555
Ca30 Mn7 3.337088 1_555
Ca30 Sb17 3.452527 1_555
Ca30 Sb32 3.474682 1_555
Ca30 Sb27 3.476389 1_555
Ca30 Sb4 3.494171 1_555
Ca30 Sb20 3.569856 1_555
Ca31 Sb1 3.143840 1_455
Ca31 Sb7 3.203744 1_555
Ca31 Sb30 3.242657 1_456
Ca31 Sb13 3.328443 1_555
Ca31 Sb15 3.391583 1_556
Ca31 Sb2 3.392779 1_455
Ca32 Sb25 3.123313 1_556
Ca32 Sb2 3.191974 1_555
Ca32 Sb9 3.267520 1_555
Ca32 Sb23 3.312215 1_556
Ca32 Sb8 3.459612 1_555
Ca33 Sb11 3.293905 1_555
Ca33 Sb30 3.293905 1_555
Ca33 Sb27 3.433046 1_555
Ca33 Sb2 3.471781 1_554
Ca33 Sb1 3.503167 1_554
Ca33 Mn7 3.532291 1_555
Ca33 Mn2 3.532291 1_555
Ca33 Sb23 3.575525 1_555
Ca33 Sb17 3.667409 1_555
Ca34 Sb34 3.293905 1_555
Ca34 Sb7 3.293905 1_555
Ca34 Sb21 3.433046 1_555
Ca34 Sb26 3.471781 1_556
Ca34 Sb0 3.503167 1_556
Ca34 Mn0 3.532291 1_555
Ca34 Mn4 3.532291 1_555
Ca34 Sb8 3.575525 1_555
Ca34 Sb6 3.667409 1_555
Ca35 Sb25 3.103025 1_556
Ca35 Sb6 3.171834 1_655
Ca35 Sb7 3.347987 1_655
Ca35 Sb1 3.348101 1_545
Ca35 Sb19 3.357368 1_555
Ca35 Sb0 3.382811 1_656
Ca36 Sb24 3.109108 1_555
Ca36 Sb12 3.155094 1_565
Ca36 Sb14 3.392324 1_565
Ca36 Sb32 3.432113 1_455
Ca36 Sb29 3.607216 1_555
Ca36 Sb16 3.722437 1_565
Ca37 Sb13 3.063894 1_655
Ca37 Sb9 3.118578 1_555
Ca37 Sb33 3.248681 1_655
Ca37 Sb7 3.304950 1_655
Ca37 Sb4 3.701495 1_555
Ca37 Sb2 3.731623 1_555
Ca38 Sb18 3.042510 1_455
Ca38 Sb29 3.042510 1_545
Ca38 Sb26 3.364088 1_555
Ca38 Sb12 3.497692 1_555
Ca38 Sb0 3.613754 1_555
Ca38 Sb32 3.750676 1_445
Ca38 Sb17 3.786589 1_445
Ca39 Sb16 3.266523 1_555
Ca39 Sb33 3.266523 1_555
Ca39 Mn4 3.337088 1_555
Ca39 Mn0 3.337088 1_555
Ca39 Sb6 3.452527 1_555
Ca39 Sb14 3.474682 1_555
Ca39 Sb21 3.476389 1_555
Ca39 Sb12 3.494171 1_555
Ca39 Sb22 3.569856 1_555
Ca40 Sb15 3.123313 1_556
Ca40 Sb2 3.191974 1_555
Ca40 Sb3 3.267520 1_555
Ca40 Sb23 3.312215 1_556
Ca40 Sb8 3.459612 1_555
Ca41 Sb10 3.153099 1_555
Ca41 Sb22 3.154814 1_555
Ca41 Sb16 3.178614 1_555
Ca41 Sb19 3.215772 1_555
Ca41 Sb9 3.256200 1_555
Ca41 Sb21 3.445940 1_555
Mn0 Sb7 2.748170 1_555
Mn0 Sb21 2.755505 1_555
Mn0 Sb6 2.777671 1_555
Mn0 Sb33 2.882009 1_555
Mn1 Sb21 2.732307 1_555
Mn1 Sb9 2.735237 1_555
Mn1 Sb3 2.735237 1_555
Mn1 Sb22 2.786085 1_555
Mn2 Sb30 2.748170 1_555
Mn2 Sb27 2.755505 1_555
Mn2 Sb17 2.777671 1_555
Mn2 Sb35 2.882009 1_555
Mn3 Sb4 2.760044 1_555
Mn3 Sb2 2.784172 1_555
Mn3 Sb9 2.803387 1_555
Mn3 Sb3 2.803387 1_555
Mn4 Sb34 2.748170 1_555
Mn4 Sb21 2.755505 1_555
Mn4 Sb6 2.777671 1_555
Mn4 Sb16 2.882009 1_555
Mn5 Sb27 2.732307 1_555
Mn5 Sb28 2.735237 1_555
Mn5 Sb5 2.735237 1_555
Mn5 Sb20 2.786085 1_555
Mn6 Sb12 2.760044 1_555
Mn6 Sb26 2.784172 1_555
Mn6 Sb5 2.803387 1_555
Mn6 Sb28 2.803387 1_555
Mn7 Sb11 2.748170 1_555
Mn7 Sb27 2.755505 1_555
Mn7 Sb17 2.777671 1_555
Mn7 Sb31 2.882009 1_555
Sb0 Sb1 2.944454 1_444
Sb14 Sb32 2.980287 1_445
Sb20 Sb22 2.942955 1_555
Sb23 Sb8 2.912183 1_554
